
     RDKit          3D

 31 31  0  0  0  0  0  0  0  0999 V2000
    3.4937    0.2538   -0.0880 C   0  0  0  0  0  0  0  0  0  0  0  0
    2.0928    0.0343   -0.6206 C   0  0  2  0  0  0  0  0  0  0  0  0
    1.2863    1.2714   -0.4059 C   0  0  0  0  0  0  0  0  0  0  0  0
   -0.1675    0.9039   -0.7300 C   0  0  0  0  0  0  0  0  0  0  0  0
   -0.6267    0.1215    0.4847 C   0  0  2  0  0  0  0  0  0  0  0  0
    0.2949   -0.9918    0.8116 C   0  0  1  0  0  0  0  0  0  0  0  0
    1.4446   -1.1977   -0.1098 C   0  0  0  0  0  0  0  0  0  0  0  0
    0.7950   -0.9222    2.1324 O   0  0  0  0  0  0  0  0  0  0  0  0
   -2.0869   -0.2231    0.4643 C   0  0  0  0  0  0  0  0  0  0  0  0
   -2.9084    1.0326    0.4132 C   0  0  0  0  0  0  0  0  0  0  0  0
   -2.4833   -1.0934   -0.6993 C   0  0  0  0  0  0  0  0  0  0  0  0
    4.1321    0.7347   -0.8659 H   0  0  0  0  0  0  0  0  0  0  0  0
    3.4141    1.0258    0.7201 H   0  0  0  0  0  0  0  0  0  0  0  0
    3.9657   -0.6595    0.3030 H   0  0  0  0  0  0  0  0  0  0  0  0
    2.2176   -0.0978   -1.7325 H   0  0  0  0  0  0  0  0  0  0  0  0
    1.3667    1.5558    0.6663 H   0  0  0  0  0  0  0  0  0  0  0  0
    1.6324    2.1094   -1.0354 H   0  0  0  0  0  0  0  0  0  0  0  0
   -0.6923    1.8469   -0.8608 H   0  0  0  0  0  0  0  0  0  0  0  0
   -0.1289    0.2524   -1.6262 H   0  0  0  0  0  0  0  0  0  0  0  0
   -0.5302    0.8696    1.3273 H   0  0  0  0  0  0  0  0  0  0  0  0
   -0.2903   -1.9524    0.8105 H   0  0  0  0  0  0  0  0  0  0  0  0
    1.1525   -1.9258   -0.9228 H   0  0  0  0  0  0  0  0  0  0  0  0
    2.2345   -1.7607    0.4519 H   0  0  0  0  0  0  0  0  0  0  0  0
    0.0705   -0.5751    2.7167 H   0  0  0  0  0  0  0  0  0  0  0  0
   -2.3104   -0.7492    1.3914 H   0  0  0  0  0  0  0  0  0  0  0  0
   -2.6843    1.6852   -0.4514 H   0  0  0  0  0  0  0  0  0  0  0  0
   -3.9911    0.7166    0.3675 H   0  0  0  0  0  0  0  0  0  0  0  0
   -2.7399    1.6602    1.3291 H   0  0  0  0  0  0  0  0  0  0  0  0
   -2.0792   -2.1229   -0.6231 H   0  0  0  0  0  0  0  0  0  0  0  0
   -2.2861   -0.6097   -1.6778 H   0  0  0  0  0  0  0  0  0  0  0  0
   -3.5880   -1.1927   -0.6484 H   0  0  0  0  0  0  0  0  0  0  0  0
  1  2  1  0
  2  3  1  0
  3  4  1  0
  4  5  1  0
  5  6  1  0
  6  7  1  0
  6  8  1  0
  5  9  1  0
  9 10  1  0
  9 11  1  0
  7  2  1  0
  1 12  1  0
  1 13  1  0
  1 14  1  0
  2 15  1  6
  3 16  1  0
  3 17  1  0
  4 18  1  0
  4 19  1  0
  5 20  1  1
  6 21  1  1
  7 22  1  0
  7 23  1  0
  8 24  1  0
  9 25  1  0
 10 26  1  0
 10 27  1  0
 10 28  1  0
 11 29  1  0
 11 30  1  0
 11 31  1  0
M  END
>  <Ligand ID>  (1) 
LIG0000034

>  <Ligand>  (1) 
(-)-menthol

>  <SMILES>  (1) 
C[C@@H]1CC[C@H]([C@@H](C1)O)C(C)C

>  <CID>  (1) 
16666.0

>  <ChEMBL ID>  (1) 
nan

>  <InChiKey>  (1) 
NOOLISFMXDJSKH-KXUCPTDWSA-N

>  <InChi>  (1) 
InChI=1S/C10H20O/c1-7(2)9-5-4-8(3)6-10(9)11/h7-11H,4-6H2,1-3H3/t8-,9+,10-/m1/s1

>  <IUPAC Name>  (1) 
(1R,2S,5R)-5-methyl-2-propan-2-ylcyclohexan-1-ol

$$$$
