
     RDKit          3D

 27 27  0  0  0  0  0  0  0  0999 V2000
    2.9062    0.2504    1.2760 C   0  0  0  0  0  0  0  0  0  0  0  0
    3.4611   -0.1083    0.1291 C   0  0  0  0  0  0  0  0  0  0  0  0
    2.5620   -0.2814   -1.0426 C   0  0  0  0  0  0  0  0  0  0  0  0
    1.1597   -0.0127   -0.7071 C   0  0  0  0  0  0  0  0  0  0  0  0
    0.6894    1.2741   -0.8483 C   0  0  0  0  0  0  0  0  0  0  0  0
   -0.6131    1.6394   -0.5611 C   0  0  0  0  0  0  0  0  0  0  0  0
   -1.4707    0.6431   -0.1097 C   0  0  0  0  0  0  0  0  0  0  0  0
   -1.0487   -0.6700    0.0506 C   0  0  0  0  0  0  0  0  0  0  0  0
    0.2684   -0.9623   -0.2561 C   0  0  0  0  0  0  0  0  0  0  0  0
   -1.9351   -1.6372    0.5039 O   0  0  0  0  0  0  0  0  0  0  0  0
   -1.4659   -2.9650    0.6541 C   0  0  0  0  0  0  0  0  0  0  0  0
   -2.7848    0.9165    0.2003 O   0  0  0  0  0  0  0  0  0  0  0  0
   -3.4043    2.1612    0.1098 C   0  0  0  0  0  0  0  0  0  0  0  0
    1.8238    0.3902    1.2639 H   0  0  0  0  0  0  0  0  0  0  0  0
    3.4733    0.4035    2.1916 H   0  0  0  0  0  0  0  0  0  0  0  0
    4.5223   -0.2827   -0.0092 H   0  0  0  0  0  0  0  0  0  0  0  0
    2.6468   -1.3609   -1.3347 H   0  0  0  0  0  0  0  0  0  0  0  0
    2.8795    0.3565   -1.8979 H   0  0  0  0  0  0  0  0  0  0  0  0
    1.3508    2.0532   -1.1987 H   0  0  0  0  0  0  0  0  0  0  0  0
   -0.9399    2.6483   -0.6835 H   0  0  0  0  0  0  0  0  0  0  0  0
    0.6504   -1.9695   -0.1495 H   0  0  0  0  0  0  0  0  0  0  0  0
   -2.2558   -3.5275    1.1939 H   0  0  0  0  0  0  0  0  0  0  0  0
   -0.4886   -3.0294    1.1726 H   0  0  0  0  0  0  0  0  0  0  0  0
   -1.3141   -3.4322   -0.3578 H   0  0  0  0  0  0  0  0  0  0  0  0
   -2.6486    2.9408    0.3934 H   0  0  0  0  0  0  0  0  0  0  0  0
   -4.1988    2.1674    0.9117 H   0  0  0  0  0  0  0  0  0  0  0  0
   -3.8254    2.3945   -0.8949 H   0  0  0  0  0  0  0  0  0  0  0  0
  1  2  2  0
  2  3  1  0
  3  4  1  0
  4  5  2  0
  5  6  1  0
  6  7  2  0
  7  8  1  0
  8  9  2  0
  8 10  1  0
 10 11  1  0
  7 12  1  0
 12 13  1  0
  9  4  1  0
  1 14  1  0
  1 15  1  0
  2 16  1  0
  3 17  1  0
  3 18  1  0
  5 19  1  0
  6 20  1  0
  9 21  1  0
 11 22  1  0
 11 23  1  0
 11 24  1  0
 13 25  1  0
 13 26  1  0
 13 27  1  0
M  END
>  <Ligand ID>  (1) 
LIG0000011

>  <Ligand>  (1) 
eugenol methyl ether

>  <SMILES>  (1) 
C=CCc1ccc(c(c1)OC)OC

>  <CID>  (1) 
7127.0

>  <ChEMBL ID>  (1) 
nan

>  <InChiKey>  (1) 
ZYEMGPIYFIJGTP-UHFFFAOYSA-N

>  <InChi>  (1) 
InChI=1S/C11H14O2/c1-4-5-9-6-7-10(12-2)11(8-9)13-3/h4,6-8H,1,5H2,2-3H3

>  <IUPAC Name>  (1) 
1,2-dimethoxy-4-prop-2-enylbenzene

$$$$
