
     RDKit          3D

 39 40  0  0  0  0  0  0  0  0999 V2000
    3.1522   -0.5435   -2.7541 C   0  0  0  0  0  0  0  0  0  0  0  0
    3.3537   -1.2401   -1.4480 C   0  0  0  0  0  0  0  0  0  0  0  0
    3.1292   -0.3497   -0.2907 N   0  0  0  0  0  0  0  0  0  0  0  0
    1.8029   -0.3252    0.1804 C   0  0  0  0  0  0  0  0  0  0  0  0
    1.0253   -1.0852   -0.5252 O   0  0  0  0  0  0  0  0  0  0  0  0
    1.2365    0.3995    1.2823 C   0  0  0  0  0  0  0  0  0  0  0  0
    2.0198    0.9505    2.2815 C   0  0  0  0  0  0  0  0  0  0  0  0
    1.4759    1.6030    3.3952 C   0  0  0  0  0  0  0  0  0  0  0  0
    0.1198    1.7271    3.5494 C   0  0  0  0  0  0  0  0  0  0  0  0
   -0.6707    1.1834    2.5624 C   0  0  0  0  0  0  0  0  0  0  0  0
   -0.1332    0.5301    1.4449 C   0  0  0  0  0  0  0  0  0  0  0  0
   -1.1005    0.0669    0.5011 N   0  0  0  0  0  0  0  0  0  0  0  0
   -2.5309    0.2458    0.7793 C   0  0  0  0  0  0  0  0  0  0  0  0
   -3.2974   -0.3173   -0.3452 C   0  0  0  0  0  0  0  0  0  0  0  0
   -2.8334   -0.8788   -1.4089 N   0  0  0  0  0  0  0  0  0  0  0  0
   -3.8881   -1.3126   -2.2966 C   0  0  0  0  0  0  0  0  0  0  0  0
   -5.0566   -0.4672   -1.8378 C   0  0  0  0  0  0  0  0  0  0  0  0
   -4.7205   -0.3194   -0.4159 N   0  0  0  0  0  0  0  0  0  0  0  0
    4.2740    0.3731    0.1633 C   0  0  0  0  0  0  0  0  0  0  0  0
    3.1069    0.5492   -2.5697 H   0  0  0  0  0  0  0  0  0  0  0  0
    2.1891   -0.8886   -3.2178 H   0  0  0  0  0  0  0  0  0  0  0  0
    3.9348   -0.8365   -3.4600 H   0  0  0  0  0  0  0  0  0  0  0  0
    2.6788   -2.0923   -1.3751 H   0  0  0  0  0  0  0  0  0  0  0  0
    4.3805   -1.6512   -1.4055 H   0  0  0  0  0  0  0  0  0  0  0  0
    3.0869    0.9063    2.2878 H   0  0  0  0  0  0  0  0  0  0  0  0
    2.1066    2.0298    4.1692 H   0  0  0  0  0  0  0  0  0  0  0  0
   -0.3230    2.2243    4.3979 H   0  0  0  0  0  0  0  0  0  0  0  0
   -1.7413    1.2909    2.7014 H   0  0  0  0  0  0  0  0  0  0  0  0
   -0.8932   -0.3857   -0.3940 H   0  0  0  0  0  0  0  0  0  0  0  0
   -2.7981   -0.2535    1.7317 H   0  0  0  0  0  0  0  0  0  0  0  0
   -2.7523    1.3235    0.9046 H   0  0  0  0  0  0  0  0  0  0  0  0
   -4.0992   -2.3716   -2.0386 H   0  0  0  0  0  0  0  0  0  0  0  0
   -3.6518   -1.1728   -3.3720 H   0  0  0  0  0  0  0  0  0  0  0  0
   -6.0349   -0.9370   -1.9938 H   0  0  0  0  0  0  0  0  0  0  0  0
   -4.9641    0.5498   -2.2793 H   0  0  0  0  0  0  0  0  0  0  0  0
   -5.4093   -0.2349    0.3663 H   0  0  0  0  0  0  0  0  0  0  0  0
    4.6944   -0.1357    1.0544 H   0  0  0  0  0  0  0  0  0  0  0  0
    4.0716    1.4566    0.3308 H   0  0  0  0  0  0  0  0  0  0  0  0
    5.0597    0.3891   -0.6558 H   0  0  0  0  0  0  0  0  0  0  0  0
  1  2  1  0
  2  3  1  0
  3  4  1  0
  4  5  2  0
  4  6  1  0
  6  7  2  0
  7  8  1  0
  8  9  2  0
  9 10  1  0
 10 11  2  0
 11 12  1  0
 12 13  1  0
 13 14  1  0
 14 15  2  0
 15 16  1  0
 16 17  1  0
 17 18  1  0
  3 19  1  0
 11  6  1  0
 18 14  1  0
  1 20  1  0
  1 21  1  0
  1 22  1  0
  2 23  1  0
  2 24  1  0
  7 25  1  0
  8 26  1  0
  9 27  1  0
 10 28  1  0
 12 29  1  0
 13 30  1  0
 13 31  1  0
 16 32  1  0
 16 33  1  0
 17 34  1  0
 17 35  1  0
 18 36  1  0
 19 37  1  0
 19 38  1  0
 19 39  1  0
M  END
>  <Ligand ID>  (1) 
LIG0004363

>  <Ligand>  (1) 
CHEMBL450018

>  <SMILES>  (1) 
CCN(C(=O)c1ccccc1NCC1=NCCN1)C

>  <CID>  (1) 
9903313.0

>  <ChEMBL ID>  (1) 
nan

>  <InChiKey>  (1) 
MJGIIZLIKBMVQO-UHFFFAOYSA-N

>  <InChi>  (1) 
InChI=1S/C14H20N4O/c1-3-18(2)14(19)11-6-4-5-7-12(11)17-10-13-15-8-9-16-13/h4-7,17H,3,8-10H2,1-2H3,(H,15,16)

>  <IUPAC Name>  (1) 
2-(4,5-dihydro-1H-imidazol-2-ylmethylamino)-N-ethyl-N-methylbenzamide

$$$$
