
     RDKit          3D

 41 44  0  0  0  0  0  0  0  0999 V2000
    4.2427    0.2843   -2.3476 Cl  0  0  0  0  0  0  0  0  0  0  0  0
    4.2675    0.6108   -0.6271 C   0  0  0  0  0  0  0  0  0  0  0  0
    5.4370    0.5318    0.1151 C   0  0  0  0  0  0  0  0  0  0  0  0
    5.4127    0.7955    1.4638 C   0  0  0  0  0  0  0  0  0  0  0  0
    4.2485    1.1462    2.1415 C   0  0  0  0  0  0  0  0  0  0  0  0
    3.0884    1.2243    1.4038 C   0  0  0  0  0  0  0  0  0  0  0  0
    3.1081    0.9594    0.0432 C   0  0  0  0  0  0  0  0  0  0  0  0
    1.8143    1.6012    2.1053 C   0  0  0  0  0  0  0  0  0  0  0  0
    0.9820    0.1100    2.7176 S   0  0  0  0  0  0  0  0  0  0  0  0
    0.4024   -0.9246    1.3929 C   0  0  0  0  0  0  0  0  0  0  0  0
    1.1477   -1.8870    0.8194 N   0  0  0  0  0  0  0  0  0  0  0  0
    0.4030   -2.4535   -0.1104 N   0  0  0  0  0  0  0  0  0  0  0  0
   -0.8097   -1.8364   -0.1100 C   0  0  0  0  0  0  0  0  0  0  0  0
   -0.8155   -0.8648    0.8428 N   0  0  0  0  0  0  0  0  0  0  0  0
   -1.9500   -0.0379    1.1022 C   0  0  0  0  0  0  0  0  0  0  0  0
   -2.0272    1.2005    0.3255 C   0  0  0  0  0  0  0  0  0  0  0  0
   -1.5712    2.4627    0.6735 C   0  0  0  0  0  0  0  0  0  0  0  0
   -1.8594    3.3289   -0.3687 C   0  0  0  0  0  0  0  0  0  0  0  0
   -2.4844    2.5500   -1.3156 C   0  0  0  0  0  0  0  0  0  0  0  0
   -2.5708    1.2974   -0.8804 O   0  0  0  0  0  0  0  0  0  0  0  0
   -1.8746   -2.2244   -1.0224 C   0  0  0  0  0  0  0  0  0  0  0  0
   -3.0039   -2.9200   -0.6105 C   0  0  0  0  0  0  0  0  0  0  0  0
   -4.0003   -3.2794   -1.4874 C   0  0  0  0  0  0  0  0  0  0  0  0
   -3.8444   -2.9192   -2.8315 C   0  0  0  0  0  0  0  0  0  0  0  0
   -2.7103   -2.2220   -3.2397 C   0  0  0  0  0  0  0  0  0  0  0  0
   -1.7501   -1.8892   -2.3285 N   0  0  0  0  0  0  0  0  0  0  0  0
    6.3528    0.2579   -0.4110 H   0  0  0  0  0  0  0  0  0  0  0  0
    6.3339    0.7312    2.0360 H   0  0  0  0  0  0  0  0  0  0  0  0
    4.2632    1.3481    3.2096 H   0  0  0  0  0  0  0  0  0  0  0  0
    2.1431    1.0437   -0.4717 H   0  0  0  0  0  0  0  0  0  0  0  0
    1.2223    2.1433    1.3401 H   0  0  0  0  0  0  0  0  0  0  0  0
    1.9914    2.3024    2.9224 H   0  0  0  0  0  0  0  0  0  0  0  0
   -2.0428    0.2254    2.1982 H   0  0  0  0  0  0  0  0  0  0  0  0
   -2.8885   -0.6328    0.9065 H   0  0  0  0  0  0  0  0  0  0  0  0
   -1.0756    2.7418    1.5938 H   0  0  0  0  0  0  0  0  0  0  0  0
   -1.6237    4.3719   -0.3819 H   0  0  0  0  0  0  0  0  0  0  0  0
   -2.8449    2.9308   -2.2710 H   0  0  0  0  0  0  0  0  0  0  0  0
   -3.0726   -3.1755    0.4537 H   0  0  0  0  0  0  0  0  0  0  0  0
   -4.8770   -3.8197   -1.1732 H   0  0  0  0  0  0  0  0  0  0  0  0
   -4.6069   -3.1859   -3.5480 H   0  0  0  0  0  0  0  0  0  0  0  0
   -2.5571   -1.9271   -4.2704 H   0  0  0  0  0  0  0  0  0  0  0  0
  1  2  1  0
  2  3  2  0
  3  4  1  0
  4  5  2  0
  5  6  1  0
  6  7  2  0
  6  8  1  0
  8  9  1  0
  9 10  1  0
 10 11  2  0
 11 12  1  0
 12 13  2  0
 13 14  1  0
 14 15  1  0
 15 16  1  0
 16 17  2  0
 17 18  1  0
 18 19  2  0
 19 20  1  0
 13 21  1  0
 21 22  2  0
 22 23  1  0
 23 24  2  0
 24 25  1  0
 25 26  2  0
  7  2  1  0
 14 10  1  0
 20 16  1  0
 26 21  1  0
  3 27  1  0
  4 28  1  0
  5 29  1  0
  7 30  1  0
  8 31  1  0
  8 32  1  0
 15 33  1  0
 15 34  1  0
 17 35  1  0
 18 36  1  0
 19 37  1  0
 22 38  1  0
 23 39  1  0
 24 40  1  0
 25 41  1  0
M  END
>  <Ligand ID>  (1) 
LIG0002766

>  <Ligand>  (1) 
MLS000082432

>  <SMILES>  (1) 
Clc1cccc(c1)CSc1nnc(n1Cc1ccco1)c1ccccn1

>  <CID>  (1) 
662263.0

>  <ChEMBL ID>  (1) 
nan

>  <InChiKey>  (1) 
CTZNNTAZEWPSFQ-UHFFFAOYSA-N

>  <InChi>  (1) 
InChI=1S/C19H15ClN4OS/c20-15-6-3-5-14(11-15)13-26-19-23-22-18(17-8-1-2-9-21-17)24(19)12-16-7-4-10-25-16/h1-11H,12-13H2

>  <IUPAC Name>  (1) 
2-[5-[(3-chlorophenyl)methylsulfanyl]-4-(furan-2-ylmethyl)-1,2,4-triazol-3-yl]pyridine

$$$$
