
     RDKit          3D

 55 57  0  0  0  0  0  0  0  0999 V2000
   -4.3404    2.3908    1.6700 O   0  0  0  0  0  0  0  0  0  0  0  0
   -4.5025    2.5066    0.2894 C   0  0  0  0  0  0  0  0  0  0  0  0
   -4.3449    1.1207   -0.3050 C   0  0  0  0  0  0  0  0  0  0  0  0
   -5.3288    0.1762    0.3373 C   0  0  0  0  0  0  0  0  0  0  0  0
   -6.5997    0.6255    0.0973 O   0  0  0  0  0  0  0  0  0  0  0  0
   -7.8039   -0.3367    0.7557 P   0  0  0  0  0  0  0  0  0  0  0  0
   -7.3637   -0.6699    2.1801 O   0  0  0  0  0  0  0  0  0  0  0  0
   -8.0722   -1.7723   -0.0383 O   0  0  0  0  0  0  0  0  0  0  0  0
   -9.2573    0.5017    0.8953 O   0  0  0  0  0  0  0  0  0  0  0  0
   -2.9004    0.7204   -0.0031 C   0  0  0  0  0  0  0  0  0  0  0  0
   -2.5648   -0.6542   -0.5322 C   0  0  0  0  0  0  0  0  0  0  0  0
   -1.1517   -0.9687   -0.2014 C   0  0  0  0  0  0  0  0  0  0  0  0
   -0.2050   -0.5872   -1.1570 C   0  0  0  0  0  0  0  0  0  0  0  0
    1.1207   -0.8482   -0.9138 C   0  0  0  0  0  0  0  0  0  0  0  0
    1.5188   -1.4680    0.2356 C   0  0  0  0  0  0  0  0  0  0  0  0
    0.5854   -1.8441    1.1777 C   0  0  0  0  0  0  0  0  0  0  0  0
   -0.7746   -1.5963    0.9680 C   0  0  0  0  0  0  0  0  0  0  0  0
    2.9324   -1.7371    0.4771 C   0  0  0  0  0  0  0  0  0  0  0  0
    3.5196   -2.3311    1.5358 N   0  0  0  0  0  0  0  0  0  0  0  0
    4.8438   -2.3714    1.3416 N   0  0  0  0  0  0  0  0  0  0  0  0
    5.1370   -1.8169    0.1790 N   0  0  0  0  0  0  0  0  0  0  0  0
    3.9756   -1.4172   -0.3747 C   0  0  0  0  0  0  0  0  0  0  0  0
    6.4239   -1.6286   -0.4619 C   0  0  0  0  0  0  0  0  0  0  0  0
    6.9717   -0.3231   -0.0436 C   0  0  0  0  0  0  0  0  0  0  0  0
    7.7721   -0.2019    1.0768 C   0  0  0  0  0  0  0  0  0  0  0  0
    8.2541    1.0556    1.4140 C   0  0  0  0  0  0  0  0  0  0  0  0
    7.9646    2.1834    0.6749 C   0  0  0  0  0  0  0  0  0  0  0  0
    7.1559    2.0495   -0.4538 C   0  0  0  0  0  0  0  0  0  0  0  0
    6.6699    0.8101   -0.8019 C   0  0  0  0  0  0  0  0  0  0  0  0
    8.4371    3.4040    1.0089 F   0  0  0  0  0  0  0  0  0  0  0  0
   -4.5097    1.2303   -1.7209 N   0  0  0  0  0  0  0  0  0  0  0  0
   -5.1904    2.5932    2.1444 H   0  0  0  0  0  0  0  0  0  0  0  0
   -5.5479    2.8194    0.0886 H   0  0  0  0  0  0  0  0  0  0  0  0
   -3.7665    3.1880   -0.1640 H   0  0  0  0  0  0  0  0  0  0  0  0
   -5.1738    0.2767    1.4503 H   0  0  0  0  0  0  0  0  0  0  0  0
   -5.1451   -0.8701    0.1129 H   0  0  0  0  0  0  0  0  0  0  0  0
   -7.6931   -1.8327   -0.9384 H   0  0  0  0  0  0  0  0  0  0  0  0
   -9.3201    1.2620    0.2647 H   0  0  0  0  0  0  0  0  0  0  0  0
   -2.7698    0.7779    1.0943 H   0  0  0  0  0  0  0  0  0  0  0  0
   -2.2641    1.4994   -0.4613 H   0  0  0  0  0  0  0  0  0  0  0  0
   -2.8349   -0.7942   -1.5760 H   0  0  0  0  0  0  0  0  0  0  0  0
   -3.1728   -1.3856    0.0644 H   0  0  0  0  0  0  0  0  0  0  0  0
   -0.4945   -0.0938   -2.0777 H   0  0  0  0  0  0  0  0  0  0  0  0
    1.8349   -0.5356   -1.6838 H   0  0  0  0  0  0  0  0  0  0  0  0
    0.9102   -2.3423    2.1006 H   0  0  0  0  0  0  0  0  0  0  0  0
   -1.5280   -1.8825    1.6938 H   0  0  0  0  0  0  0  0  0  0  0  0
    3.8527   -0.9256   -1.3262 H   0  0  0  0  0  0  0  0  0  0  0  0
    7.1518   -2.4235   -0.1320 H   0  0  0  0  0  0  0  0  0  0  0  0
    6.2997   -1.7213   -1.5504 H   0  0  0  0  0  0  0  0  0  0  0  0
    8.0024   -1.0860    1.6610 H   0  0  0  0  0  0  0  0  0  0  0  0
    8.8771    1.1824    2.2768 H   0  0  0  0  0  0  0  0  0  0  0  0
    6.9105    2.9248   -1.0573 H   0  0  0  0  0  0  0  0  0  0  0  0
    6.0388    0.6700   -1.6724 H   0  0  0  0  0  0  0  0  0  0  0  0
   -4.3481    0.3837   -2.2733 H   0  0  0  0  0  0  0  0  0  0  0  0
   -4.1919    2.1136   -2.1299 H   0  0  0  0  0  0  0  0  0  0  0  0
  1  2  1  0
  2  3  1  0
  3  4  1  0
  4  5  1  0
  5  6  1  0
  6  7  2  0
  6  8  1  0
  6  9  1  0
  3 10  1  0
 10 11  1  0
 11 12  1  0
 12 13  2  0
 13 14  1  0
 14 15  2  0
 15 16  1  0
 16 17  2  0
 15 18  1  0
 18 19  1  0
 19 20  2  0
 20 21  1  0
 21 22  1  0
 21 23  1  0
 23 24  1  0
 24 25  2  0
 25 26  1  0
 26 27  2  0
 27 28  1  0
 28 29  2  0
 27 30  1  0
  3 31  1  0
 17 12  1  0
 22 18  2  0
 29 24  1  0
  1 32  1  0
  2 33  1  0
  2 34  1  0
  4 35  1  0
  4 36  1  0
  8 37  1  0
  9 38  1  0
 10 39  1  0
 10 40  1  0
 11 41  1  0
 11 42  1  0
 13 43  1  0
 14 44  1  0
 16 45  1  0
 17 46  1  0
 22 47  1  0
 23 48  1  0
 23 49  1  0
 25 50  1  0
 26 51  1  0
 28 52  1  0
 29 53  1  0
 31 54  1  0
 31 55  1  0
M  END
>  <Ligand ID>  (1) 
LIG0005919

>  <Ligand>  (1) 
CHEMBL3342013

>  <SMILES>  (1) 
OCC(COP(=O)(O)O)(CCc1ccc(cc1)c1nnn(c1)Cc1ccc(cc1)F)N

>  <CID>  (1) 
118716188.0

>  <ChEMBL ID>  (1) 
nan

>  <InChiKey>  (1) 
IGKIWYHOIDTTAO-UHFFFAOYSA-N

>  <InChi>  (1) 
InChI=1S/C20H24FN4O5P/c21-18-7-3-16(4-8-18)11-25-12-19(23-24-25)17-5-1-15(2-6-17)9-10-20(22,13-26)14-30-31(27,28)29/h1-8,12,26H,9-11,13-14,22H2,(H2,27,28,29)

>  <IUPAC Name>  (1) 
[2-amino-4-[4-[1-[(4-fluorophenyl)methyl]triazol-4-yl]phenyl]-2-(hydroxymethyl)butyl] dihydrogen phosphate

$$$$
