
     RDKit          3D

 75 74  0  0  0  0  0  0  0  0999 V2000
   -9.3288    2.4770   -0.5891 C   0  0  0  0  0  0  0  0  0  0  0  0
   -9.0144    2.0430   -1.9952 C   0  0  0  0  0  0  0  0  0  0  0  0
   -7.5509    1.5611   -2.0541 C   0  0  0  0  0  0  0  0  0  0  0  0
   -7.4433    0.4127   -1.0936 C   0  0  0  0  0  0  0  0  0  0  0  0
   -6.0406   -0.2033   -1.0388 C   0  0  0  0  0  0  0  0  0  0  0  0
   -5.0924    0.8452   -0.6047 C   0  0  0  0  0  0  0  0  0  0  0  0
   -3.6575    0.5588   -0.4822 C   0  0  0  0  0  0  0  0  0  0  0  0
   -3.0832   -0.3968    0.4793 C   0  0  0  0  0  0  0  0  0  0  0  0
   -3.4519   -1.8120    0.4361 C   0  0  0  0  0  0  0  0  0  0  0  0
   -2.7652   -2.7364    1.3727 C   0  0  0  0  0  0  0  0  0  0  0  0
   -1.3408   -3.0413    1.2872 C   0  0  0  0  0  0  0  0  0  0  0  0
   -0.2928   -2.0016    1.3898 C   0  0  0  0  0  0  0  0  0  0  0  0
    1.0471   -2.7539    1.3519 C   0  0  0  0  0  0  0  0  0  0  0  0
    2.2163   -1.7990    1.4195 C   0  0  0  0  0  0  0  0  0  0  0  0
    2.1696   -1.0192    2.6884 C   0  0  0  0  0  0  0  0  0  0  0  0
    3.3027   -0.0769    2.9433 C   0  0  0  0  0  0  0  0  0  0  0  0
    3.5104    1.0192    1.9519 C   0  0  0  0  0  0  0  0  0  0  0  0
    3.8447    0.5939    0.5788 C   0  0  0  0  0  0  0  0  0  0  0  0
    3.2729    1.1423   -0.3880 O   0  0  0  0  0  0  0  0  0  0  0  0
    4.7716   -0.3877    0.3989 O   0  0  0  0  0  0  0  0  0  0  0  0
    5.2496   -0.9424   -0.7774 C   0  0  0  0  0  0  0  0  0  0  0  0
    5.9843    0.0007   -1.6900 C   0  0  0  0  0  0  0  0  0  0  0  0
    7.1400    0.5669   -0.8914 C   0  0  0  0  0  0  0  0  0  0  0  0
    7.9093    1.4700   -1.5862 O   0  0  0  0  0  0  0  0  0  0  0  0
    9.2117    2.0689   -0.7084 P   0  0  0  0  0  0  0  0  0  0  0  0
   10.5381    2.4796   -1.7546 S   0  0  0  0  0  0  0  0  0  0  0  0
    8.8504    3.3964    0.2342 O   0  0  0  0  0  0  0  0  0  0  0  0
    9.7622    0.8222    0.2873 O   0  0  0  0  0  0  0  0  0  0  0  0
    5.1591    1.0197   -2.0802 O   0  0  0  0  0  0  0  0  0  0  0  0
    4.9558    1.1229   -3.4343 C   0  0  0  0  0  0  0  0  0  0  0  0
   -8.4176    2.9081   -0.1182 H   0  0  0  0  0  0  0  0  0  0  0  0
   -9.6109    1.5935    0.0301 H   0  0  0  0  0  0  0  0  0  0  0  0
  -10.1077    3.2659   -0.5893 H   0  0  0  0  0  0  0  0  0  0  0  0
   -9.6535    1.1628   -2.2087 H   0  0  0  0  0  0  0  0  0  0  0  0
   -9.2217    2.8046   -2.7611 H   0  0  0  0  0  0  0  0  0  0  0  0
   -6.9711    2.4598   -1.7477 H   0  0  0  0  0  0  0  0  0  0  0  0
   -7.2926    1.2467   -3.0689 H   0  0  0  0  0  0  0  0  0  0  0  0
   -8.1975   -0.3469   -1.3038 H   0  0  0  0  0  0  0  0  0  0  0  0
   -7.6315    0.7807   -0.0480 H   0  0  0  0  0  0  0  0  0  0  0  0
   -6.1452   -1.0888   -0.4186 H   0  0  0  0  0  0  0  0  0  0  0  0
   -5.8230   -0.5531   -2.0776 H   0  0  0  0  0  0  0  0  0  0  0  0
   -5.4857    1.2763    0.3738 H   0  0  0  0  0  0  0  0  0  0  0  0
   -5.1830    1.6758   -1.3848 H   0  0  0  0  0  0  0  0  0  0  0  0
   -3.3046    0.1791   -1.5194 H   0  0  0  0  0  0  0  0  0  0  0  0
   -3.1512    1.5779   -0.3724 H   0  0  0  0  0  0  0  0  0  0  0  0
   -3.4410   -0.0229    1.5137 H   0  0  0  0  0  0  0  0  0  0  0  0
   -1.9924   -0.1800    0.5605 H   0  0  0  0  0  0  0  0  0  0  0  0
   -3.4762   -2.2504   -0.6037 H   0  0  0  0  0  0  0  0  0  0  0  0
   -4.5615   -1.8814    0.7350 H   0  0  0  0  0  0  0  0  0  0  0  0
   -3.3024   -3.7566    1.3392 H   0  0  0  0  0  0  0  0  0  0  0  0
   -3.0331   -2.4237    2.4539 H   0  0  0  0  0  0  0  0  0  0  0  0
   -1.1014   -3.8098    2.0893 H   0  0  0  0  0  0  0  0  0  0  0  0
   -1.1656   -3.6186    0.3054 H   0  0  0  0  0  0  0  0  0  0  0  0
   -0.3890   -1.4867    2.3508 H   0  0  0  0  0  0  0  0  0  0  0  0
   -0.1968   -1.3134    0.5198 H   0  0  0  0  0  0  0  0  0  0  0  0
    1.1209   -3.4358    2.2244 H   0  0  0  0  0  0  0  0  0  0  0  0
    1.1069   -3.3771    0.4420 H   0  0  0  0  0  0  0  0  0  0  0  0
    2.1806   -1.1508    0.5109 H   0  0  0  0  0  0  0  0  0  0  0  0
    3.1386   -2.4224    1.3915 H   0  0  0  0  0  0  0  0  0  0  0  0
    2.1151   -1.7231    3.5606 H   0  0  0  0  0  0  0  0  0  0  0  0
    1.2037   -0.4260    2.6565 H   0  0  0  0  0  0  0  0  0  0  0  0
    3.1944    0.3841    3.9645 H   0  0  0  0  0  0  0  0  0  0  0  0
    4.2426   -0.7068    3.0592 H   0  0  0  0  0  0  0  0  0  0  0  0
    4.2781    1.7588    2.3081 H   0  0  0  0  0  0  0  0  0  0  0  0
    2.5630    1.6425    1.9086 H   0  0  0  0  0  0  0  0  0  0  0  0
    4.4206   -1.4431   -1.3759 H   0  0  0  0  0  0  0  0  0  0  0  0
    5.9397   -1.7959   -0.5512 H   0  0  0  0  0  0  0  0  0  0  0  0
    6.3746   -0.6028   -2.5402 H   0  0  0  0  0  0  0  0  0  0  0  0
    6.7721    0.9485    0.0737 H   0  0  0  0  0  0  0  0  0  0  0  0
    7.7995   -0.2957   -0.6413 H   0  0  0  0  0  0  0  0  0  0  0  0
    7.9792    3.3898    0.6603 H   0  0  0  0  0  0  0  0  0  0  0  0
    9.9346    1.1585    1.1975 H   0  0  0  0  0  0  0  0  0  0  0  0
    4.2734    1.9825   -3.5985 H   0  0  0  0  0  0  0  0  0  0  0  0
    4.4444    0.2154   -3.7946 H   0  0  0  0  0  0  0  0  0  0  0  0
    5.9398    1.2706   -3.9261 H   0  0  0  0  0  0  0  0  0  0  0  0
  1  2  1  0
  2  3  1  0
  3  4  1  0
  4  5  1  0
  5  6  1  0
  6  7  1  0
  7  8  1  0
  8  9  1  0
  9 10  1  0
 10 11  1  0
 11 12  1  0
 12 13  1  0
 13 14  1  0
 14 15  1  0
 15 16  1  0
 16 17  1  0
 17 18  1  0
 18 19  2  0
 18 20  1  0
 20 21  1  0
 21 22  1  0
 22 23  1  0
 23 24  1  0
 24 25  1  0
 25 26  2  0
 25 27  1  0
 25 28  1  0
 22 29  1  0
 29 30  1  0
  1 31  1  0
  1 32  1  0
  1 33  1  0
  2 34  1  0
  2 35  1  0
  3 36  1  0
  3 37  1  0
  4 38  1  0
  4 39  1  0
  5 40  1  0
  5 41  1  0
  6 42  1  0
  6 43  1  0
  7 44  1  0
  7 45  1  0
  8 46  1  0
  8 47  1  0
  9 48  1  0
  9 49  1  0
 10 50  1  0
 10 51  1  0
 11 52  1  0
 11 53  1  0
 12 54  1  0
 12 55  1  0
 13 56  1  0
 13 57  1  0
 14 58  1  0
 14 59  1  0
 15 60  1  0
 15 61  1  0
 16 62  1  0
 16 63  1  0
 17 64  1  0
 17 65  1  0
 21 66  1  0
 21 67  1  0
 22 68  1  0
 23 69  1  0
 23 70  1  0
 27 71  1  0
 28 72  1  0
 30 73  1  0
 30 74  1  0
 30 75  1  0
M  END
>  <Ligand ID>  (1) 
LIG0000698

>  <Ligand>  (1) 
CHEMBL2017139

>  <SMILES>  (1) 
CCCCCCCCCCCCCCCCCC(=O)OCC(COP(=S)(O)O)OC

>  <CID>  (1) 
46223906.0

>  <ChEMBL ID>  (1) 
nan

>  <InChiKey>  (1) 
AYKYANCQUONAPE-UHFFFAOYSA-N

>  <InChi>  (1) 
InChI=1S/C22H45O6PS/c1-3-4-5-6-7-8-9-10-11-12-13-14-15-16-17-18-22(23)27-19-21(26-2)20-28-29(24,25)30/h21H,3-20H2,1-2H3,(H2,24,25,30)

>  <IUPAC Name>  (1) 
(3-dihydroxyphosphinothioyloxy-2-methoxypropyl) octadecanoate

$$$$
