
     RDKit          3D

 29 29  0  0  0  0  0  0  0  0999 V2000
    3.3723    1.1404   -0.3854 C   0  0  0  0  0  0  0  0  0  0  0  0
    2.1947    0.5009    0.3228 C   0  0  2  0  0  0  0  0  0  0  0  0
    2.3870   -0.9764    0.2501 C   0  0  0  0  0  0  0  0  0  0  0  0
    1.1658   -1.6628   -0.3493 C   0  0  0  0  0  0  0  0  0  0  0  0
    0.0665   -1.1360    0.3336 O   0  0  0  0  0  0  0  0  0  0  0  0
   -0.2157    0.0856   -0.2979 C   0  0  2  0  0  0  0  0  0  0  0  0
    0.9428    1.0194   -0.3128 C   0  0  0  0  0  0  0  0  0  0  0  0
   -1.4191    0.7215    0.3137 C   0  0  0  0  0  0  0  0  0  0  0  0
   -2.5966    0.1058    0.2887 C   0  0  0  0  0  0  0  0  0  0  0  0
   -3.7910    0.7498    0.9021 C   0  0  0  0  0  0  0  0  0  0  0  0
   -2.7640   -1.2305   -0.3440 C   0  0  0  0  0  0  0  0  0  0  0  0
    3.2351    2.2480   -0.2979 H   0  0  0  0  0  0  0  0  0  0  0  0
    4.3363    0.7870    0.0387 H   0  0  0  0  0  0  0  0  0  0  0  0
    3.2664    0.8826   -1.4608 H   0  0  0  0  0  0  0  0  0  0  0  0
    2.2583    0.8202    1.3993 H   0  0  0  0  0  0  0  0  0  0  0  0
    2.5034   -1.4216    1.2779 H   0  0  0  0  0  0  0  0  0  0  0  0
    3.2942   -1.2979   -0.3010 H   0  0  0  0  0  0  0  0  0  0  0  0
    1.2235   -2.7533   -0.2114 H   0  0  0  0  0  0  0  0  0  0  0  0
    1.1355   -1.3745   -1.4188 H   0  0  0  0  0  0  0  0  0  0  0  0
   -0.4462   -0.1881   -1.3664 H   0  0  0  0  0  0  0  0  0  0  0  0
    0.6570    1.9411    0.2756 H   0  0  0  0  0  0  0  0  0  0  0  0
    1.1431    1.4118   -1.3508 H   0  0  0  0  0  0  0  0  0  0  0  0
   -1.3262    1.6833    0.7757 H   0  0  0  0  0  0  0  0  0  0  0  0
   -3.4368    1.1016    1.9122 H   0  0  0  0  0  0  0  0  0  0  0  0
   -4.5843    0.0011    1.0730 H   0  0  0  0  0  0  0  0  0  0  0  0
   -4.1662    1.5944    0.2883 H   0  0  0  0  0  0  0  0  0  0  0  0
   -3.6746   -1.2366   -0.9752 H   0  0  0  0  0  0  0  0  0  0  0  0
   -1.8769   -1.5629   -0.8931 H   0  0  0  0  0  0  0  0  0  0  0  0
   -2.8843   -1.9538    0.5130 H   0  0  0  0  0  0  0  0  0  0  0  0
  1  2  1  0
  2  3  1  0
  3  4  1  0
  4  5  1  0
  5  6  1  0
  6  7  1  0
  6  8  1  0
  8  9  2  3
  9 10  1  0
  9 11  1  0
  7  2  1  0
  1 12  1  0
  1 13  1  0
  1 14  1  0
  2 15  1  1
  3 16  1  0
  3 17  1  0
  4 18  1  0
  4 19  1  0
  6 20  1  6
  7 21  1  0
  7 22  1  0
  8 23  1  0
 10 24  1  0
 10 25  1  0
 10 26  1  0
 11 27  1  0
 11 28  1  0
 11 29  1  0
M  END
>  <Ligand ID>  (1) 
LIG0004979

>  <Ligand>  (1) 
(-)-rose oxide

>  <SMILES>  (1) 
C[C@@H]1CCO[C@H](C1)C=C(C)C

>  <CID>  (1) 
7093102.0

>  <ChEMBL ID>  (1) 
nan

>  <InChiKey>  (1) 
CZCBTSFUTPZVKJ-ZJUUUORDSA-N

>  <InChi>  (1) 
InChI=1S/C10H18O/c1-8(2)6-10-7-9(3)4-5-11-10/h6,9-10H,4-5,7H2,1-3H3/t9-,10+/m1/s1

>  <IUPAC Name>  (1) 
(2R,4R)-4-methyl-2-(2-methylprop-1-enyl)oxane

$$$$
