
     RDKit          3D

 65 67  0  0  0  0  0  0  0  0999 V2000
   -1.7105   -2.5209    1.7712 O   0  0  0  0  0  0  0  0  0  0  0  0
   -2.0716   -1.2456    1.3320 C   0  0  2  0  0  0  0  0  0  0  0  0
   -3.4933   -1.3022    0.8157 C   0  0  2  0  0  0  0  0  0  0  0  0
   -3.7388   -2.6115    0.4198 O   0  0  0  0  0  0  0  0  0  0  0  0
   -3.4546   -0.3179   -0.3408 C   0  0  2  0  0  0  0  0  0  0  0  0
   -2.1845    0.2619   -0.2984 O   0  0  0  0  0  0  0  0  0  0  0  0
   -1.3667   -0.8204    0.0760 C   0  0  1  0  0  0  0  0  0  0  0  0
    0.0146   -0.5769    0.1462 N   0  0  0  0  0  0  0  0  0  0  0  0
    0.6764    0.1843    1.0255 C   0  0  0  0  0  0  0  0  0  0  0  0
    2.0464    0.3331    1.0268 C   0  0  0  0  0  0  0  0  0  0  0  0
    2.8275   -0.3303    0.0737 C   0  0  0  0  0  0  0  0  0  0  0  0
    2.1318   -1.0877   -0.8030 N   0  0  0  0  0  0  0  0  0  0  0  0
    0.8066   -1.2172   -0.7847 C   0  0  0  0  0  0  0  0  0  0  0  0
    0.2729   -1.9528   -1.6542 O   0  0  0  0  0  0  0  0  0  0  0  0
    4.2297   -0.2720    0.0415 N   0  0  0  0  0  0  0  0  0  0  0  0
    5.0277    0.7402   -0.2697 O   0  0  0  0  0  0  0  0  0  0  0  0
    5.8646    1.0475    0.8228 C   0  0  0  0  0  0  0  0  0  0  0  0
    6.7881    2.1526    0.3958 C   0  0  0  0  0  0  0  0  0  0  0  0
    7.6667    1.7959   -0.7725 C   0  0  0  0  0  0  0  0  0  0  0  0
    8.5138    0.6426   -0.3990 C   0  0  0  0  0  0  0  0  0  0  0  0
    8.1674   -0.6727   -0.5924 C   0  0  0  0  0  0  0  0  0  0  0  0
    8.9850   -1.7383   -0.2363 C   0  0  0  0  0  0  0  0  0  0  0  0
   10.2243   -1.4486    0.3480 C   0  0  0  0  0  0  0  0  0  0  0  0
   10.6058   -0.1304    0.5608 C   0  0  0  0  0  0  0  0  0  0  0  0
    9.7583    0.9011    0.1885 C   0  0  0  0  0  0  0  0  0  0  0  0
   11.5456   -3.0022    0.9072 I   0  0  0  0  0  0  0  0  0  0  0  0
   -4.5404    0.6960   -0.0986 C   0  0  0  0  0  0  0  0  0  0  0  0
   -5.8058    0.1043   -0.1739 O   0  0  0  0  0  0  0  0  0  0  0  0
   -6.8137    0.5165    1.0958 P   0  0  0  0  0  0  0  0  0  0  0  0
   -6.3028    1.6861    1.8879 O   0  0  0  0  0  0  0  0  0  0  0  0
   -8.3517    0.9078    0.5317 O   0  0  0  0  0  0  0  0  0  0  0  0
   -8.3588    1.7935   -0.8814 P   0  0  0  0  0  0  0  0  0  0  0  0
   -7.1653    1.5526   -1.7728 O   0  0  0  0  0  0  0  0  0  0  0  0
   -9.8130    1.4549   -1.6798 O   0  0  0  0  0  0  0  0  0  0  0  0
  -10.1745   -0.2113   -1.5532 P   0  0  0  0  0  0  0  0  0  0  0  0
  -10.9584   -0.6696   -2.7694 O   0  0  0  0  0  0  0  0  0  0  0  0
  -11.1043   -0.5122   -0.1791 O   0  0  0  0  0  0  0  0  0  0  0  0
   -8.7893   -1.1526   -1.4567 O   0  0  0  0  0  0  0  0  0  0  0  0
   -8.3498    3.4485   -0.4891 O   0  0  0  0  0  0  0  0  0  0  0  0
   -7.0587   -0.8407    2.1285 O   0  0  0  0  0  0  0  0  0  0  0  0
   -1.4284   -2.5018    2.7209 H   0  0  0  0  0  0  0  0  0  0  0  0
   -2.0176   -0.4984    2.1480 H   0  0  0  0  0  0  0  0  0  0  0  0
   -4.1662   -0.9427    1.6289 H   0  0  0  0  0  0  0  0  0  0  0  0
   -4.1041   -2.5545   -0.5150 H   0  0  0  0  0  0  0  0  0  0  0  0
   -3.5646   -0.7962   -1.3248 H   0  0  0  0  0  0  0  0  0  0  0  0
   -1.6358   -1.6175   -0.6836 H   0  0  0  0  0  0  0  0  0  0  0  0
    0.0627    0.7009    1.7675 H   0  0  0  0  0  0  0  0  0  0  0  0
    2.5109    0.9599    1.7608 H   0  0  0  0  0  0  0  0  0  0  0  0
    4.7249   -1.1885    0.3001 H   0  0  0  0  0  0  0  0  0  0  0  0
    5.2163    1.3735    1.6716 H   0  0  0  0  0  0  0  0  0  0  0  0
    6.3940    0.1425    1.1848 H   0  0  0  0  0  0  0  0  0  0  0  0
    6.1775    3.0504    0.1185 H   0  0  0  0  0  0  0  0  0  0  0  0
    7.4194    2.4138    1.2900 H   0  0  0  0  0  0  0  0  0  0  0  0
    8.3052    2.6804   -0.9803 H   0  0  0  0  0  0  0  0  0  0  0  0
    6.9862    1.5404   -1.6198 H   0  0  0  0  0  0  0  0  0  0  0  0
    7.2059   -0.9102   -1.0521 H   0  0  0  0  0  0  0  0  0  0  0  0
    8.6754   -2.7445   -0.4023 H   0  0  0  0  0  0  0  0  0  0  0  0
   11.5646    0.1352    1.0177 H   0  0  0  0  0  0  0  0  0  0  0  0
   10.0837    1.9170    0.3612 H   0  0  0  0  0  0  0  0  0  0  0  0
   -4.5175    1.4348   -0.9267 H   0  0  0  0  0  0  0  0  0  0  0  0
   -4.3972    1.2462    0.8512 H   0  0  0  0  0  0  0  0  0  0  0  0
  -10.9596   -1.4205    0.1529 H   0  0  0  0  0  0  0  0  0  0  0  0
   -8.1539   -0.8382   -2.1360 H   0  0  0  0  0  0  0  0  0  0  0  0
   -8.3789    3.5767    0.4816 H   0  0  0  0  0  0  0  0  0  0  0  0
   -6.5498   -0.7440    2.9519 H   0  0  0  0  0  0  0  0  0  0  0  0
  1  2  1  0
  2  3  1  0
  3  4  1  0
  3  5  1  0
  5  6  1  0
  6  7  1  0
  7  8  1  0
  8  9  1  0
  9 10  2  0
 10 11  1  0
 11 12  2  0
 12 13  1  0
 13 14  2  0
 11 15  1  0
 15 16  1  0
 16 17  1  0
 17 18  1  0
 18 19  1  0
 19 20  1  0
 20 21  2  0
 21 22  1  0
 22 23  2  0
 23 24  1  0
 24 25  2  0
 23 26  1  0
  5 27  1  0
 27 28  1  0
 28 29  1  0
 29 30  2  0
 29 31  1  0
 31 32  1  0
 32 33  2  0
 32 34  1  0
 34 35  1  0
 35 36  2  0
 35 37  1  0
 35 38  1  0
 32 39  1  0
 29 40  1  0
  7  2  1  0
 13  8  1  0
 25 20  1  0
  1 41  1  0
  2 42  1  1
  3 43  1  1
  4 44  1  0
  5 45  1  6
  7 46  1  6
  9 47  1  0
 10 48  1  0
 15 49  1  0
 17 50  1  0
 17 51  1  0
 18 52  1  0
 18 53  1  0
 19 54  1  0
 19 55  1  0
 21 56  1  0
 22 57  1  0
 24 58  1  0
 25 59  1  0
 27 60  1  0
 27 61  1  0
 37 62  1  0
 38 63  1  0
 39 64  1  0
 40 65  1  0
M  END
>  <Ligand ID>  (1) 
LIG0002551

>  <Ligand>  (1) 
CHEMBL3261366

>  <SMILES>  (1) 
O[C@@H]1[C@H](O)[C@H](O[C@H]1n1ccc(nc1=O)NOCCCc1ccc(cc1)I)COP(=O)(OP(=O)(OP(=O)(O)O)O)O

>  <CID>  (1) 
90656217.0

>  <ChEMBL ID>  (1) 
nan

>  <InChiKey>  (1) 
XUECUURNOIRWRO-MWQQHZPXSA-N

>  <InChi>  (1) 
InChI=1S/C18H25IN3O15P3/c19-12-5-3-11(4-6-12)2-1-9-33-21-14-7-8-22(18(25)20-14)17-16(24)15(23)13(35-17)10-34-39(29,30)37-40(31,32)36-38(26,27)28/h3-8,13,15-17,23-24H,1-2,9-10H2,(H,29,30)(H,31,32)(H,20,21,25)(H2,26,27,28)/t13-,15-,16-,17-/m1/s1

>  <IUPAC Name>  (1) 
[[(2R,3S,4R,5R)-3,4-dihydroxy-5-[4-[3-(4-iodophenyl)propoxyamino]-2-oxopyrimidin-1-yl]oxolan-2-yl]methoxy-hydroxyphosphoryl] phosphono hydrogen phosphate

$$$$
