
     RDKit          3D

 68 67  0  0  0  0  0  0  0  0999 V2000
   -9.6765   -1.2577    1.8030 C   0  0  0  0  0  0  0  0  0  0  0  0
   -9.5210   -1.3668    0.2913 C   0  0  0  0  0  0  0  0  0  0  0  0
   -8.5127   -0.2738   -0.0866 C   0  0  0  0  0  0  0  0  0  0  0  0
   -7.2398   -0.5631    0.6395 C   0  0  0  0  0  0  0  0  0  0  0  0
   -6.2031    0.4941    0.3020 C   0  0  0  0  0  0  0  0  0  0  0  0
   -5.8950    0.5402   -1.1591 C   0  0  0  0  0  0  0  0  0  0  0  0
   -4.8832    1.5988   -1.4431 C   0  0  0  0  0  0  0  0  0  0  0  0
   -3.5847    1.3548   -0.7118 C   0  0  0  0  0  0  0  0  0  0  0  0
   -3.0279    0.0443   -1.1248 C   0  0  0  0  0  0  0  0  0  0  0  0
   -1.8589   -0.1527   -1.7018 C   0  0  0  0  0  0  0  0  0  0  0  0
   -0.8689    0.8744   -2.0549 C   0  0  0  0  0  0  0  0  0  0  0  0
    0.4243    0.5899   -1.3074 C   0  0  0  0  0  0  0  0  0  0  0  0
    0.9335   -0.7641   -1.7117 C   0  0  0  0  0  0  0  0  0  0  0  0
    2.2392   -1.0412   -1.0170 C   0  0  0  0  0  0  0  0  0  0  0  0
    2.0292   -1.0198    0.4720 C   0  0  0  0  0  0  0  0  0  0  0  0
    3.3141   -1.3317    1.2242 C   0  0  0  0  0  0  0  0  0  0  0  0
    4.3348   -0.3015    0.8671 C   0  0  0  0  0  0  0  0  0  0  0  0
    5.5868   -0.6453    1.6353 C   0  0  0  0  0  0  0  0  0  0  0  0
    5.5633   -1.6481    2.3781 O   0  0  0  0  0  0  0  0  0  0  0  0
    6.7676    0.1603    1.5122 N   0  0  0  0  0  0  0  0  0  0  0  0
    7.9284   -0.2387    2.2847 C   0  0  0  0  0  0  0  0  0  0  0  0
    9.0400    0.7315    2.0100 C   0  0  0  0  0  0  0  0  0  0  0  0
    9.4620    0.8108    0.6068 C   0  0  0  0  0  0  0  0  0  0  0  0
   10.3710    1.6101    0.3397 O   0  0  0  0  0  0  0  0  0  0  0  0
    8.7897   -0.1305   -0.7294 P   0  0  0  0  0  0  0  0  0  0  0  0
    7.8471    0.6266   -1.6107 O   0  0  0  0  0  0  0  0  0  0  0  0
    8.0784   -1.5801   -0.2277 O   0  0  0  0  0  0  0  0  0  0  0  0
   10.1100   -0.5828   -1.7204 O   0  0  0  0  0  0  0  0  0  0  0  0
  -10.6943   -1.5441    2.0815 H   0  0  0  0  0  0  0  0  0  0  0  0
   -9.4353   -0.2230    2.1596 H   0  0  0  0  0  0  0  0  0  0  0  0
   -8.9235   -1.9631    2.2367 H   0  0  0  0  0  0  0  0  0  0  0  0
   -9.1710   -2.3608   -0.0231 H   0  0  0  0  0  0  0  0  0  0  0  0
  -10.4868   -1.1003   -0.1883 H   0  0  0  0  0  0  0  0  0  0  0  0
   -8.9920    0.6716    0.2309 H   0  0  0  0  0  0  0  0  0  0  0  0
   -8.4123   -0.3459   -1.1876 H   0  0  0  0  0  0  0  0  0  0  0  0
   -6.8458   -1.5435    0.3638 H   0  0  0  0  0  0  0  0  0  0  0  0
   -7.4445   -0.4693    1.7287 H   0  0  0  0  0  0  0  0  0  0  0  0
   -5.3231    0.2468    0.9218 H   0  0  0  0  0  0  0  0  0  0  0  0
   -6.5994    1.4636    0.6623 H   0  0  0  0  0  0  0  0  0  0  0  0
   -6.8033    0.7431   -1.7798 H   0  0  0  0  0  0  0  0  0  0  0  0
   -5.5730   -0.4815   -1.4899 H   0  0  0  0  0  0  0  0  0  0  0  0
   -5.3328    2.5694   -1.1054 H   0  0  0  0  0  0  0  0  0  0  0  0
   -4.6925    1.7356   -2.5346 H   0  0  0  0  0  0  0  0  0  0  0  0
   -2.8678    2.2039   -0.9265 H   0  0  0  0  0  0  0  0  0  0  0  0
   -3.7917    1.4032    0.3950 H   0  0  0  0  0  0  0  0  0  0  0  0
   -3.6574   -0.8267   -0.9229 H   0  0  0  0  0  0  0  0  0  0  0  0
   -1.6102   -1.1877   -1.9468 H   0  0  0  0  0  0  0  0  0  0  0  0
   -0.6097    0.8239   -3.1398 H   0  0  0  0  0  0  0  0  0  0  0  0
   -1.1373    1.9062   -1.8438 H   0  0  0  0  0  0  0  0  0  0  0  0
    0.2053    0.5729   -0.1998 H   0  0  0  0  0  0  0  0  0  0  0  0
    1.1681    1.3762   -1.5447 H   0  0  0  0  0  0  0  0  0  0  0  0
    0.2399   -1.5794   -1.3417 H   0  0  0  0  0  0  0  0  0  0  0  0
    1.0304   -0.8589   -2.8155 H   0  0  0  0  0  0  0  0  0  0  0  0
    2.6863   -1.9981   -1.3646 H   0  0  0  0  0  0  0  0  0  0  0  0
    2.9206   -0.1955   -1.3345 H   0  0  0  0  0  0  0  0  0  0  0  0
    1.7816    0.0292    0.8018 H   0  0  0  0  0  0  0  0  0  0  0  0
    1.2755   -1.7608    0.7655 H   0  0  0  0  0  0  0  0  0  0  0  0
    3.0431   -1.2690    2.2976 H   0  0  0  0  0  0  0  0  0  0  0  0
    3.6601   -2.3605    1.0344 H   0  0  0  0  0  0  0  0  0  0  0  0
    3.9463    0.6993    1.1417 H   0  0  0  0  0  0  0  0  0  0  0  0
    4.5907   -0.2624   -0.1899 H   0  0  0  0  0  0  0  0  0  0  0  0
    6.7462    0.9906    0.8808 H   0  0  0  0  0  0  0  0  0  0  0  0
    8.2053   -1.2856    2.0991 H   0  0  0  0  0  0  0  0  0  0  0  0
    7.7193   -0.1799    3.3820 H   0  0  0  0  0  0  0  0  0  0  0  0
    8.7096    1.7472    2.3083 H   0  0  0  0  0  0  0  0  0  0  0  0
    9.9319    0.5230    2.6474 H   0  0  0  0  0  0  0  0  0  0  0  0
    8.1295   -2.2809   -0.8977 H   0  0  0  0  0  0  0  0  0  0  0  0
   10.8664   -0.7598   -1.1219 H   0  0  0  0  0  0  0  0  0  0  0  0
  1  2  1  0
  2  3  1  0
  3  4  1  0
  4  5  1  0
  5  6  1  0
  6  7  1  0
  7  8  1  0
  8  9  1  0
  9 10  2  0
 10 11  1  0
 11 12  1  0
 12 13  1  0
 13 14  1  0
 14 15  1  0
 15 16  1  0
 16 17  1  0
 17 18  1  0
 18 19  2  0
 18 20  1  0
 20 21  1  0
 21 22  1  0
 22 23  1  0
 23 24  2  0
 23 25  1  0
 25 26  2  0
 25 27  1  0
 25 28  1  0
  1 29  1  0
  1 30  1  0
  1 31  1  0
  2 32  1  0
  2 33  1  0
  3 34  1  0
  3 35  1  0
  4 36  1  0
  4 37  1  0
  5 38  1  0
  5 39  1  0
  6 40  1  0
  6 41  1  0
  7 42  1  0
  7 43  1  0
  8 44  1  0
  8 45  1  0
  9 46  1  0
 10 47  1  0
 11 48  1  0
 11 49  1  0
 12 50  1  0
 12 51  1  0
 13 52  1  0
 13 53  1  0
 14 54  1  0
 14 55  1  0
 15 56  1  0
 15 57  1  0
 16 58  1  0
 16 59  1  0
 17 60  1  0
 17 61  1  0
 20 62  1  0
 21 63  1  0
 21 64  1  0
 22 65  1  0
 22 66  1  0
 27 67  1  0
 28 68  1  0
M  END
>  <Ligand ID>  (1) 
LIG0004215

>  <Ligand>  (1) 
CHEMBL117529

>  <SMILES>  (1) 
CCCCCCCC/C=C\CCCCCCCC(=O)NCCC(=O)P(=O)(O)O

>  <CID>  (1) 
10136738.0

>  <ChEMBL ID>  (1) 
nan

>  <InChiKey>  (1) 
BXBZKTOVFLATAM-KTKRTIGZSA-N

>  <InChi>  (1) 
InChI=1S/C21H40NO5P/c1-2-3-4-5-6-7-8-9-10-11-12-13-14-15-16-17-20(23)22-19-18-21(24)28(25,26)27/h9-10H,2-8,11-19H2,1H3,(H,22,23)(H2,25,26,27)/b10-9-

>  <IUPAC Name>  (1) 
3-[[(Z)-octadec-9-enoyl]amino]propanoylphosphonic acid

$$$$
