
     RDKit          3D

 54 56  0  0  0  0  0  0  0  0999 V2000
   -6.6231    0.5566   -1.5015 C   0  0  0  0  0  0  0  0  0  0  0  0
   -6.2303    0.9159   -0.0985 C   0  0  0  0  0  0  0  0  0  0  0  0
   -5.9378   -0.2571    0.7705 C   0  0  0  0  0  0  0  0  0  0  0  0
   -4.8309   -1.1474    0.3243 C   0  0  0  0  0  0  0  0  0  0  0  0
   -3.4995   -0.5036    0.1876 C   0  0  0  0  0  0  0  0  0  0  0  0
   -2.4832   -1.5291   -0.2530 C   0  0  0  0  0  0  0  0  0  0  0  0
   -1.0665   -1.1066   -0.2654 C   0  0  0  0  0  0  0  0  0  0  0  0
   -0.6714   -0.0320    0.5375 N   0  0  0  0  0  0  0  0  0  0  0  0
   -1.6924    0.8741    0.9198 C   0  0  0  0  0  0  0  0  0  0  0  0
   -2.9485    0.1384    1.4239 C   0  0  0  0  0  0  0  0  0  0  0  0
    0.3813    0.6933   -0.1411 C   0  0  0  0  0  0  0  0  0  0  0  0
    1.6790   -0.0719   -0.2320 C   0  0  0  0  0  0  0  0  0  0  0  0
    2.6585    0.7949   -0.9658 C   0  0  0  0  0  0  0  0  0  0  0  0
    3.9647    0.2023   -1.1238 N   0  0  0  0  0  0  0  0  0  0  0  0
    4.2663   -0.6040   -2.2640 C   0  0  0  0  0  0  0  0  0  0  0  0
    3.4133   -0.6135   -3.1857 O   0  0  0  0  0  0  0  0  0  0  0  0
    5.5238   -1.3994   -2.3719 C   0  0  0  0  0  0  0  0  0  0  0  0
    6.5261   -0.9654   -1.4806 O   0  0  0  0  0  0  0  0  0  0  0  0
    6.2568   -0.1974   -0.3823 C   0  0  0  0  0  0  0  0  0  0  0  0
    5.0228    0.3807   -0.1845 C   0  0  0  0  0  0  0  0  0  0  0  0
    4.8062    1.1513    0.9480 C   0  0  0  0  0  0  0  0  0  0  0  0
    5.8151    1.3400    1.8689 C   0  0  0  0  0  0  0  0  0  0  0  0
    7.0637    0.7638    1.6822 C   0  0  0  0  0  0  0  0  0  0  0  0
    7.2955   -0.0178    0.5422 C   0  0  0  0  0  0  0  0  0  0  0  0
    8.0667    0.9477    2.5968 F   0  0  0  0  0  0  0  0  0  0  0  0
   -6.5201    1.4565   -2.1528 H   0  0  0  0  0  0  0  0  0  0  0  0
   -5.9710   -0.2225   -1.9478 H   0  0  0  0  0  0  0  0  0  0  0  0
   -7.6676    0.2203   -1.6145 H   0  0  0  0  0  0  0  0  0  0  0  0
   -5.4671    1.7058   -0.1216 H   0  0  0  0  0  0  0  0  0  0  0  0
   -7.1470    1.4058    0.3503 H   0  0  0  0  0  0  0  0  0  0  0  0
   -5.7602    0.0907    1.8027 H   0  0  0  0  0  0  0  0  0  0  0  0
   -6.8612   -0.8744    0.8085 H   0  0  0  0  0  0  0  0  0  0  0  0
   -5.0448   -1.6585   -0.6439 H   0  0  0  0  0  0  0  0  0  0  0  0
   -4.7525   -1.9691    1.0637 H   0  0  0  0  0  0  0  0  0  0  0  0
   -3.5043    0.2775   -0.6295 H   0  0  0  0  0  0  0  0  0  0  0  0
   -2.7789   -1.9442   -1.2556 H   0  0  0  0  0  0  0  0  0  0  0  0
   -2.6117   -2.3816    0.4905 H   0  0  0  0  0  0  0  0  0  0  0  0
   -0.4681   -2.0133    0.0632 H   0  0  0  0  0  0  0  0  0  0  0  0
   -0.7714   -0.9285   -1.3392 H   0  0  0  0  0  0  0  0  0  0  0  0
   -2.0279    1.4134    0.0055 H   0  0  0  0  0  0  0  0  0  0  0  0
   -1.3688    1.6290    1.6679 H   0  0  0  0  0  0  0  0  0  0  0  0
   -2.5996   -0.6409    2.1261 H   0  0  0  0  0  0  0  0  0  0  0  0
   -3.5843    0.8663    1.9196 H   0  0  0  0  0  0  0  0  0  0  0  0
    0.5872    1.6822    0.3233 H   0  0  0  0  0  0  0  0  0  0  0  0
    0.0204    0.9163   -1.1848 H   0  0  0  0  0  0  0  0  0  0  0  0
    2.0679   -0.2131    0.8083 H   0  0  0  0  0  0  0  0  0  0  0  0
    1.5683   -1.0692   -0.6496 H   0  0  0  0  0  0  0  0  0  0  0  0
    2.6539    1.7875   -0.4948 H   0  0  0  0  0  0  0  0  0  0  0  0
    2.1992    0.9677   -1.9863 H   0  0  0  0  0  0  0  0  0  0  0  0
    5.9079   -1.4108   -3.4111 H   0  0  0  0  0  0  0  0  0  0  0  0
    5.3266   -2.4760   -2.1150 H   0  0  0  0  0  0  0  0  0  0  0  0
    3.8510    1.6146    1.1306 H   0  0  0  0  0  0  0  0  0  0  0  0
    5.6905    1.9378    2.7726 H   0  0  0  0  0  0  0  0  0  0  0  0
    8.2772   -0.4833    0.3754 H   0  0  0  0  0  0  0  0  0  0  0  0
  1  2  1  0
  2  3  1  0
  3  4  1  0
  4  5  1  0
  5  6  1  0
  6  7  1  0
  7  8  1  0
  8  9  1  0
  9 10  1  0
  8 11  1  0
 11 12  1  0
 12 13  1  0
 13 14  1  0
 14 15  1  0
 15 16  2  0
 15 17  1  0
 17 18  1  0
 18 19  1  0
 19 20  2  0
 20 21  1  0
 21 22  2  0
 22 23  1  0
 23 24  2  0
 23 25  1  0
 10  5  1  0
 20 14  1  0
 24 19  1  0
  1 26  1  0
  1 27  1  0
  1 28  1  0
  2 29  1  0
  2 30  1  0
  3 31  1  0
  3 32  1  0
  4 33  1  0
  4 34  1  0
  5 35  1  0
  6 36  1  0
  6 37  1  0
  7 38  1  0
  7 39  1  0
  9 40  1  0
  9 41  1  0
 10 42  1  0
 10 43  1  0
 11 44  1  0
 11 45  1  0
 12 46  1  0
 12 47  1  0
 13 48  1  0
 13 49  1  0
 17 50  1  0
 17 51  1  0
 21 52  1  0
 22 53  1  0
 24 54  1  0
M  END
>  <Ligand ID>  (1) 
LIG0004203

>  <Ligand>  (1) 
UNII-M4PN46N313

>  <SMILES>  (1) 
CCCCC1CCN(CC1)CCCN1C(=O)COc2c1ccc(c2)F

>  <CID>  (1) 
9928284.0

>  <ChEMBL ID>  (1) 
nan

>  <InChiKey>  (1) 
BWAKMLKESHKOHK-UHFFFAOYSA-N

>  <InChi>  (1) 
InChI=1S/C20H29FN2O2/c1-2-3-5-16-8-12-22(13-9-16)10-4-11-23-18-7-6-17(21)14-19(18)25-15-20(23)24/h6-7,14,16H,2-5,8-13,15H2,1H3

>  <IUPAC Name>  (1) 
4-[3-(4-butylpiperidin-1-yl)propyl]-7-fluoro-1,4-benzoxazin-3-one

$$$$
