
     RDKit          3D

 71 74  0  0  0  0  0  0  0  0999 V2000
   -5.3016   -1.1010    2.5693 O   0  0  0  0  0  0  0  0  0  0  0  0
   -4.3254   -0.3436    1.9228 C   0  0  2  0  0  0  0  0  0  0  0  0
   -4.9693    0.7722    1.1413 C   0  0  0  0  0  0  0  0  0  0  0  0
   -4.4961    2.0504    1.1498 C   0  0  0  0  0  0  0  0  0  0  0  0
   -5.1623    2.9927    0.3985 C   0  0  0  0  0  0  0  0  0  0  0  0
   -6.2748    2.6434   -0.3376 C   0  0  0  0  0  0  0  0  0  0  0  0
   -6.7815    1.3541   -0.3680 C   0  0  0  0  0  0  0  0  0  0  0  0
   -6.0864    0.4215    0.4022 C   0  0  0  0  0  0  0  0  0  0  0  0
   -7.9206    0.9877   -1.1218 N   0  0  0  0  0  0  0  0  0  0  0  0
   -8.6238   -0.5823   -1.0822 S   0  0  0  0  0  0  0  0  0  0  0  0
   -7.6148   -1.6156   -1.4981 O   0  0  0  0  0  0  0  0  0  0  0  0
   -9.7915   -0.6220   -2.0205 O   0  0  0  0  0  0  0  0  0  0  0  0
   -9.1680   -0.8987    0.5790 C   0  0  0  0  0  0  0  0  0  0  0  0
   -6.9447    3.5966   -1.0945 O   0  0  0  0  0  0  0  0  0  0  0  0
   -3.5816   -1.1722    0.8856 C   0  0  0  0  0  0  0  0  0  0  0  0
   -2.5920   -0.2821    0.2803 N   0  0  0  0  0  0  0  0  0  0  0  0
   -1.8728   -1.0474   -0.7132 C   0  0  0  0  0  0  0  0  0  0  0  0
   -0.8164   -0.2570   -1.4150 C   0  0  0  0  0  0  0  0  0  0  0  0
    0.2537    0.2990   -0.5239 C   0  0  0  0  0  0  0  0  0  0  0  0
    1.6043   -0.3295   -0.7801 C   0  0  0  0  0  0  0  0  0  0  0  0
    2.0720   -0.2054   -2.1231 N   0  0  0  0  0  0  0  0  0  0  0  0
    0.9971   -0.3685   -3.0583 C   0  0  0  0  0  0  0  0  0  0  0  0
   -0.1682   -1.1289   -2.4619 C   0  0  0  0  0  0  0  0  0  0  0  0
    3.3654   -1.3051   -2.3949 S   0  0  0  0  0  0  0  0  0  0  0  0
    3.8495   -1.2869   -3.8030 O   0  0  0  0  0  0  0  0  0  0  0  0
    2.8721   -2.6886   -2.0629 O   0  0  0  0  0  0  0  0  0  0  0  0
    4.7273   -0.9754   -1.3509 C   0  0  0  0  0  0  0  0  0  0  0  0
    4.7964   -1.5959   -0.1146 C   0  0  0  0  0  0  0  0  0  0  0  0
    5.8685   -1.3493    0.7298 C   0  0  0  0  0  0  0  0  0  0  0  0
    6.8654   -0.4994    0.3624 C   0  0  0  0  0  0  0  0  0  0  0  0
    6.8208    0.1411   -0.8808 C   0  0  0  0  0  0  0  0  0  0  0  0
    5.7523   -0.1075   -1.7175 C   0  0  0  0  0  0  0  0  0  0  0  0
    7.9794   -0.2262    1.2071 N   0  0  0  0  0  0  0  0  0  0  0  0
    8.7268   -1.2224    1.7064 N   0  0  0  0  0  0  0  0  0  0  0  0
    9.7078   -0.6942    2.4665 C   0  0  0  0  0  0  0  0  0  0  0  0
    9.5504    0.6758    2.4277 C   0  0  0  0  0  0  0  0  0  0  0  0
    8.4633    0.9529    1.6347 C   0  0  0  0  0  0  0  0  0  0  0  0
   10.4213    1.6118    3.1299 C   0  0  0  0  0  0  0  0  0  0  0  0
   11.3747    1.1868    3.8149 O   0  0  0  0  0  0  0  0  0  0  0  0
   10.2237    2.9844    3.0622 O   0  0  0  0  0  0  0  0  0  0  0  0
   -4.9662   -2.0510    2.5235 H   0  0  0  0  0  0  0  0  0  0  0  0
   -3.5587    0.0466    2.6231 H   0  0  0  0  0  0  0  0  0  0  0  0
   -3.6230    2.2841    1.7387 H   0  0  0  0  0  0  0  0  0  0  0  0
   -4.7899    4.0009    0.4040 H   0  0  0  0  0  0  0  0  0  0  0  0
   -6.4507   -0.5885    0.4024 H   0  0  0  0  0  0  0  0  0  0  0  0
   -8.3355    1.7422   -1.7309 H   0  0  0  0  0  0  0  0  0  0  0  0
  -10.2143   -1.3025    0.5380 H   0  0  0  0  0  0  0  0  0  0  0  0
   -8.5039   -1.6221    1.0742 H   0  0  0  0  0  0  0  0  0  0  0  0
   -9.2346    0.0111    1.2023 H   0  0  0  0  0  0  0  0  0  0  0  0
   -6.6647    4.5583   -1.0401 H   0  0  0  0  0  0  0  0  0  0  0  0
   -4.2722   -1.5949    0.1357 H   0  0  0  0  0  0  0  0  0  0  0  0
   -3.1035   -2.0349    1.3833 H   0  0  0  0  0  0  0  0  0  0  0  0
   -3.1210    0.4837   -0.1921 H   0  0  0  0  0  0  0  0  0  0  0  0
   -2.5847   -1.3951   -1.4875 H   0  0  0  0  0  0  0  0  0  0  0  0
   -1.4043   -1.9410   -0.2914 H   0  0  0  0  0  0  0  0  0  0  0  0
   -1.2624    0.6058   -1.9825 H   0  0  0  0  0  0  0  0  0  0  0  0
    0.0508    0.1407    0.5665 H   0  0  0  0  0  0  0  0  0  0  0  0
    0.3696    1.3929   -0.6381 H   0  0  0  0  0  0  0  0  0  0  0  0
    1.5836   -1.3738   -0.4028 H   0  0  0  0  0  0  0  0  0  0  0  0
    2.3339    0.2077   -0.1271 H   0  0  0  0  0  0  0  0  0  0  0  0
    1.2748   -0.8430   -4.0030 H   0  0  0  0  0  0  0  0  0  0  0  0
    0.6081    0.6645   -3.2981 H   0  0  0  0  0  0  0  0  0  0  0  0
    0.2464   -2.0135   -1.9418 H   0  0  0  0  0  0  0  0  0  0  0  0
   -0.8387   -1.4729   -3.2455 H   0  0  0  0  0  0  0  0  0  0  0  0
    3.9914   -2.2677    0.1549 H   0  0  0  0  0  0  0  0  0  0  0  0
    5.8818   -1.8571    1.6887 H   0  0  0  0  0  0  0  0  0  0  0  0
    7.6190    0.8100   -1.1529 H   0  0  0  0  0  0  0  0  0  0  0  0
    5.6680    0.3581   -2.6852 H   0  0  0  0  0  0  0  0  0  0  0  0
   10.4535   -1.2882    2.9877 H   0  0  0  0  0  0  0  0  0  0  0  0
    8.0608    1.9228    1.3902 H   0  0  0  0  0  0  0  0  0  0  0  0
   10.9863    3.6513    3.1039 H   0  0  0  0  0  0  0  0  0  0  0  0
  1  2  1  0
  2  3  1  0
  3  4  2  0
  4  5  1  0
  5  6  2  0
  6  7  1  0
  7  8  2  0
  7  9  1  0
  9 10  1  0
 10 11  2  0
 10 12  2  0
 10 13  1  0
  6 14  1  0
  2 15  1  0
 15 16  1  0
 16 17  1  0
 17 18  1  0
 18 19  1  0
 19 20  1  0
 20 21  1  0
 21 22  1  0
 22 23  1  0
 21 24  1  0
 24 25  2  0
 24 26  2  0
 24 27  1  0
 27 28  2  0
 28 29  1  0
 29 30  2  0
 30 31  1  0
 31 32  2  0
 30 33  1  0
 33 34  1  0
 34 35  2  0
 35 36  1  0
 36 37  2  0
 36 38  1  0
 38 39  2  0
 38 40  1  0
  8  3  1  0
 23 18  1  0
 32 27  1  0
 37 33  1  0
  1 41  1  0
  2 42  1  1
  4 43  1  0
  5 44  1  0
  8 45  1  0
  9 46  1  0
 13 47  1  0
 13 48  1  0
 13 49  1  0
 14 50  1  0
 15 51  1  0
 15 52  1  0
 16 53  1  0
 17 54  1  0
 17 55  1  0
 18 56  1  0
 19 57  1  0
 19 58  1  0
 20 59  1  0
 20 60  1  0
 22 61  1  0
 22 62  1  0
 23 63  1  0
 23 64  1  0
 28 65  1  0
 29 66  1  0
 31 67  1  0
 32 68  1  0
 35 69  1  0
 37 70  1  0
 40 71  1  0
M  END
>  <Ligand ID>  (1) 
LIG0004944

>  <Ligand>  (1) 
CHEMBL101606

>  <SMILES>  (1) 
O[C@H](c1ccc(c(c1)NS(=O)(=O)C)O)CNCC1CCN(CC1)S(=O)(=O)c1ccc(cc1)n1ncc(c1)C(=O)O

>  <CID>  (1) 
10121328.0

>  <ChEMBL ID>  (1) 
nan

>  <InChiKey>  (1) 
AYDIROIWJSURNI-DEOSSOPVSA-N

>  <InChi>  (1) 
InChI=1S/C25H31N5O8S2/c1-39(35,36)28-22-12-18(2-7-23(22)31)24(32)15-26-13-17-8-10-29(11-9-17)40(37,38)21-5-3-20(4-6-21)30-16-19(14-27-30)25(33)34/h2-7,12,14,16-17,24,26,28,31-32H,8-11,13,15H2,1H3,(H,33,34)/t24-/m0/s1

>  <IUPAC Name>  (1) 
1-[4-[4-[[[(2R)-2-hydroxy-2-[4-hydroxy-3-(methanesulfonamido)phenyl]ethyl]amino]methyl]piperidin-1-yl]sulfonylphenyl]pyrazole-4-carboxylic acid

$$$$
