
     RDKit          3D

 64 68  0  0  0  0  0  0  0  0999 V2000
    3.9274    0.0747    1.4776 O   0  0  0  0  0  0  0  0  0  0  0  0
    3.5326   -0.5642    0.4433 C   0  0  0  0  0  0  0  0  0  0  0  0
    2.1222   -0.7766    0.3466 N   0  0  0  0  0  0  0  0  0  0  0  0
    1.3338   -0.2260    1.4603 C   0  0  0  0  0  0  0  0  0  0  0  0
   -0.1159   -0.1748    1.0075 C   0  0  0  0  0  0  0  0  0  0  0  0
   -0.5567   -1.5789    0.7727 C   0  0  0  0  0  0  0  0  0  0  0  0
    0.3375   -2.2846   -0.1792 C   0  0  0  0  0  0  0  0  0  0  0  0
    1.4774   -1.4602   -0.7256 C   0  0  0  0  0  0  0  0  0  0  0  0
   -1.9282   -1.6700    0.3008 N   0  0  0  0  0  0  0  0  0  0  0  0
   -2.8574   -1.1198    1.2619 C   0  0  0  0  0  0  0  0  0  0  0  0
   -4.2632   -1.4100    0.8159 C   0  0  0  0  0  0  0  0  0  0  0  0
   -4.4678   -0.8487   -0.5527 C   0  0  0  0  0  0  0  0  0  0  0  0
   -3.2391   -0.1294   -1.0715 C   0  0  0  0  0  0  0  0  0  0  0  0
   -2.0758   -1.1260   -1.0278 C   0  0  0  0  0  0  0  0  0  0  0  0
   -5.6376   -0.0290   -0.6893 N   0  0  0  0  0  0  0  0  0  0  0  0
   -6.6913   -0.2526   -1.5282 C   0  0  0  0  0  0  0  0  0  0  0  0
   -6.8039   -1.2388   -2.3320 O   0  0  0  0  0  0  0  0  0  0  0  0
   -7.6057    0.6983   -1.4062 N   0  0  0  0  0  0  0  0  0  0  0  0
   -7.1963    1.5743   -0.4944 C   0  0  0  0  0  0  0  0  0  0  0  0
   -5.9620    1.1089   -0.0517 C   0  0  0  0  0  0  0  0  0  0  0  0
   -5.3327    1.8575    0.9057 C   0  0  0  0  0  0  0  0  0  0  0  0
   -5.8484    3.0220    1.4410 C   0  0  0  0  0  0  0  0  0  0  0  0
   -7.0793    3.4388    0.9645 C   0  0  0  0  0  0  0  0  0  0  0  0
   -7.7634    2.7314    0.0025 C   0  0  0  0  0  0  0  0  0  0  0  0
    4.4507   -1.0261   -0.5381 N   0  0  0  0  0  0  0  0  0  0  0  0
    5.8400   -0.7407   -0.3126 C   0  0  0  0  0  0  0  0  0  0  0  0
    6.6633   -1.5999    0.3846 C   0  0  0  0  0  0  0  0  0  0  0  0
    7.9940   -1.2176    0.5392 C   0  0  0  0  0  0  0  0  0  0  0  0
    8.4688   -0.0258    0.0149 C   0  0  0  0  0  0  0  0  0  0  0  0
    7.6213    0.8127   -0.6775 C   0  0  0  0  0  0  0  0  0  0  0  0
    6.2968    0.4619   -0.8478 C   0  0  0  0  0  0  0  0  0  0  0  0
    8.1478    2.3650   -1.3851 S   0  0  0  0  0  0  0  0  0  0  0  0
    9.8772    2.7192   -1.0982 C   0  0  0  0  0  0  0  0  0  0  0  0
   10.7429    1.8677   -1.7269 F   0  0  0  0  0  0  0  0  0  0  0  0
   10.0926    4.0328   -1.5384 F   0  0  0  0  0  0  0  0  0  0  0  0
   10.0833    2.7908    0.2817 F   0  0  0  0  0  0  0  0  0  0  0  0
    1.4780   -0.8282    2.3730 H   0  0  0  0  0  0  0  0  0  0  0  0
    1.7136    0.8032    1.7055 H   0  0  0  0  0  0  0  0  0  0  0  0
   -0.1224    0.4204    0.0674 H   0  0  0  0  0  0  0  0  0  0  0  0
   -0.6597    0.3261    1.8295 H   0  0  0  0  0  0  0  0  0  0  0  0
   -0.5783   -2.0728    1.7895 H   0  0  0  0  0  0  0  0  0  0  0  0
   -0.1993   -2.6872   -1.0681 H   0  0  0  0  0  0  0  0  0  0  0  0
    0.8372   -3.1242    0.3885 H   0  0  0  0  0  0  0  0  0  0  0  0
    2.1999   -2.1521   -1.2230 H   0  0  0  0  0  0  0  0  0  0  0  0
    1.1664   -0.7637   -1.5466 H   0  0  0  0  0  0  0  0  0  0  0  0
   -2.6453   -0.0848    1.5230 H   0  0  0  0  0  0  0  0  0  0  0  0
   -2.7114   -1.7138    2.1997 H   0  0  0  0  0  0  0  0  0  0  0  0
   -5.0207   -1.0510    1.5533 H   0  0  0  0  0  0  0  0  0  0  0  0
   -4.3745   -2.5340    0.8590 H   0  0  0  0  0  0  0  0  0  0  0  0
   -4.5778   -1.7395   -1.2374 H   0  0  0  0  0  0  0  0  0  0  0  0
   -3.4521    0.1545   -2.1048 H   0  0  0  0  0  0  0  0  0  0  0  0
   -2.9598    0.7612   -0.5076 H   0  0  0  0  0  0  0  0  0  0  0  0
   -2.3269   -1.9728   -1.7240 H   0  0  0  0  0  0  0  0  0  0  0  0
   -1.2098   -0.5689   -1.3899 H   0  0  0  0  0  0  0  0  0  0  0  0
   -8.5102    0.7695   -1.9312 H   0  0  0  0  0  0  0  0  0  0  0  0
   -4.3769    1.5308    1.2728 H   0  0  0  0  0  0  0  0  0  0  0  0
   -5.2902    3.5558    2.1936 H   0  0  0  0  0  0  0  0  0  0  0  0
   -7.4664    4.3587    1.4002 H   0  0  0  0  0  0  0  0  0  0  0  0
   -8.7156    3.1180   -0.3189 H   0  0  0  0  0  0  0  0  0  0  0  0
    4.1240   -1.5462   -1.3799 H   0  0  0  0  0  0  0  0  0  0  0  0
    6.2769   -2.5251    0.7869 H   0  0  0  0  0  0  0  0  0  0  0  0
    8.6836   -1.8657    1.0839 H   0  0  0  0  0  0  0  0  0  0  0  0
    9.5081    0.2618    0.1419 H   0  0  0  0  0  0  0  0  0  0  0  0
    5.6249    1.1135   -1.3893 H   0  0  0  0  0  0  0  0  0  0  0  0
  1  2  2  0
  2  3  1  0
  3  4  1  0
  4  5  1  0
  5  6  1  0
  6  7  1  0
  7  8  1  0
  6  9  1  0
  9 10  1  0
 10 11  1  0
 11 12  1  0
 12 13  1  0
 13 14  1  0
 12 15  1  0
 15 16  1  0
 16 17  2  0
 16 18  1  0
 18 19  1  0
 19 20  2  0
 20 21  1  0
 21 22  2  0
 22 23  1  0
 23 24  2  0
  2 25  1  0
 25 26  1  0
 26 27  2  0
 27 28  1  0
 28 29  2  0
 29 30  1  0
 30 31  2  0
 30 32  1  0
 32 33  1  0
 33 34  1  0
 33 35  1  0
 33 36  1  0
  8  3  1  0
 14  9  1  0
 20 15  1  0
 31 26  1  0
 24 19  1  0
  4 37  1  0
  4 38  1  0
  5 39  1  0
  5 40  1  0
  6 41  1  0
  7 42  1  0
  7 43  1  0
  8 44  1  0
  8 45  1  0
 10 46  1  0
 10 47  1  0
 11 48  1  0
 11 49  1  0
 12 50  1  0
 13 51  1  0
 13 52  1  0
 14 53  1  0
 14 54  1  0
 18 55  1  0
 21 56  1  0
 22 57  1  0
 23 58  1  0
 24 59  1  0
 25 60  1  0
 27 61  1  0
 28 62  1  0
 29 63  1  0
 31 64  1  0
M  END
>  <Ligand ID>  (1) 
LIG0000861

>  <Ligand>  (1) 
CHEMBL486331

>  <SMILES>  (1) 
O=C(N1CCC(CC1)N1CCC(CC1)n1c(=O)[nH]c2c1cccc2)Nc1cccc(c1)SC(F)(F)F

>  <CID>  (1) 
44589531.0

>  <ChEMBL ID>  (1) 
nan

>  <InChiKey>  (1) 
CKUGQYKWEJWUKL-UHFFFAOYSA-N

>  <InChi>  (1) 
InChI=1S/C25H28F3N5O2S/c26-25(27,28)36-20-5-3-4-17(16-20)29-23(34)32-14-8-18(9-15-32)31-12-10-19(11-13-31)33-22-7-2-1-6-21(22)30-24(33)35/h1-7,16,18-19H,8-15H2,(H,29,34)(H,30,35)

>  <IUPAC Name>  (1) 
4-[4-(2-oxo-3H-benzimidazol-1-yl)piperidin-1-yl]-N-[3-(trifluoromethylsulfanyl)phenyl]piperidine-1-carboxamide

$$$$
