
     RDKit          3D

 55 58  0  0  0  0  0  0  0  0999 V2000
    5.4603   -4.4101    1.3004 C   0  0  0  0  0  0  0  0  0  0  0  0
    5.0973   -3.0638    1.2264 O   0  0  0  0  0  0  0  0  0  0  0  0
    4.2632   -2.5377    0.2482 C   0  0  0  0  0  0  0  0  0  0  0  0
    3.7670   -3.3946   -0.7018 C   0  0  0  0  0  0  0  0  0  0  0  0
    2.9420   -2.8650   -1.6664 C   0  0  0  0  0  0  0  0  0  0  0  0
    2.6417   -1.5193   -1.6546 C   0  0  0  0  0  0  0  0  0  0  0  0
    3.1540   -0.6559   -0.6804 C   0  0  0  0  0  0  0  0  0  0  0  0
    3.9781   -1.1884    0.2820 C   0  0  0  0  0  0  0  0  0  0  0  0
    2.7678    0.7537   -0.7664 C   0  0  0  0  0  0  0  0  0  0  0  0
    1.5314    1.0634   -0.0113 C   0  0  0  0  0  0  0  0  0  0  0  0
    1.0529    2.3549   -0.0043 C   0  0  0  0  0  0  0  0  0  0  0  0
   -0.0873    2.6857    0.6811 C   0  0  0  0  0  0  0  0  0  0  0  0
   -0.7142    1.6953    1.3435 N   0  0  0  0  0  0  0  0  0  0  0  0
   -0.2549    0.4550    1.3370 N   0  0  0  0  0  0  0  0  0  0  0  0
    0.8583    0.0796    0.6805 C   0  0  0  0  0  0  0  0  0  0  0  0
    1.2501   -1.1095    0.7069 O   0  0  0  0  0  0  0  0  0  0  0  0
   -1.0179   -0.5311    2.0898 C   0  0  0  0  0  0  0  0  0  0  0  0
   -2.0642   -1.1939    1.2869 C   0  0  0  0  0  0  0  0  0  0  0  0
   -2.8100   -2.0790    1.8130 O   0  0  0  0  0  0  0  0  0  0  0  0
   -2.2375   -0.8389   -0.0827 N   0  0  0  0  0  0  0  0  0  0  0  0
   -3.2766   -1.5329   -0.7848 C   0  0  0  0  0  0  0  0  0  0  0  0
   -3.0046   -2.7158   -1.4443 C   0  0  0  0  0  0  0  0  0  0  0  0
   -4.0282   -3.3350   -2.0961 C   0  0  0  0  0  0  0  0  0  0  0  0
   -5.3270   -2.8235   -2.1214 C   0  0  0  0  0  0  0  0  0  0  0  0
   -5.6001   -1.6376   -1.4603 C   0  0  0  0  0  0  0  0  0  0  0  0
   -4.5587   -1.0086   -0.7979 C   0  0  0  0  0  0  0  0  0  0  0  0
   -6.3238   -3.4431   -2.7663 F   0  0  0  0  0  0  0  0  0  0  0  0
   -0.6295    4.0362    0.7166 C   0  0  0  0  0  0  0  0  0  0  0  0
   -0.0541    5.1081    0.0690 C   0  0  0  0  0  0  0  0  0  0  0  0
   -0.5864    6.3803    0.1170 C   0  0  0  0  0  0  0  0  0  0  0  0
   -1.7312    6.6074    0.8309 C   0  0  0  0  0  0  0  0  0  0  0  0
   -2.3370    5.5745    1.4895 C   0  0  0  0  0  0  0  0  0  0  0  0
   -1.7841    4.2914    1.4304 C   0  0  0  0  0  0  0  0  0  0  0  0
   -2.2894    7.8326    0.9078 F   0  0  0  0  0  0  0  0  0  0  0  0
    5.8098   -4.6091    2.3496 H   0  0  0  0  0  0  0  0  0  0  0  0
    4.5494   -5.0302    1.1153 H   0  0  0  0  0  0  0  0  0  0  0  0
    6.2867   -4.6822    0.6071 H   0  0  0  0  0  0  0  0  0  0  0  0
    3.9710   -4.4470   -0.7533 H   0  0  0  0  0  0  0  0  0  0  0  0
    2.5011   -3.4694   -2.4612 H   0  0  0  0  0  0  0  0  0  0  0  0
    1.9802   -1.1252   -2.4376 H   0  0  0  0  0  0  0  0  0  0  0  0
    4.3821   -0.5310    1.0429 H   0  0  0  0  0  0  0  0  0  0  0  0
    3.5519    1.4442   -0.3548 H   0  0  0  0  0  0  0  0  0  0  0  0
    2.6141    1.1075   -1.8080 H   0  0  0  0  0  0  0  0  0  0  0  0
    1.6076    3.0968   -0.5577 H   0  0  0  0  0  0  0  0  0  0  0  0
   -0.3098   -1.3057    2.4472 H   0  0  0  0  0  0  0  0  0  0  0  0
   -1.4395   -0.0786    3.0284 H   0  0  0  0  0  0  0  0  0  0  0  0
   -1.6339   -0.1218   -0.5105 H   0  0  0  0  0  0  0  0  0  0  0  0
   -1.9899   -3.0964   -1.4127 H   0  0  0  0  0  0  0  0  0  0  0  0
   -3.8417   -4.2648   -2.6217 H   0  0  0  0  0  0  0  0  0  0  0  0
   -6.5790   -1.1945   -1.4439 H   0  0  0  0  0  0  0  0  0  0  0  0
   -4.7140   -0.0813   -0.2656 H   0  0  0  0  0  0  0  0  0  0  0  0
    0.8504    4.9744   -0.5062 H   0  0  0  0  0  0  0  0  0  0  0  0
   -0.1126    7.2014   -0.4013 H   0  0  0  0  0  0  0  0  0  0  0  0
   -3.2516    5.6859    2.0769 H   0  0  0  0  0  0  0  0  0  0  0  0
   -2.2796    3.4926    1.9577 H   0  0  0  0  0  0  0  0  0  0  0  0
  1  2  1  0
  2  3  1  0
  3  4  2  0
  4  5  1  0
  5  6  2  0
  6  7  1  0
  7  8  2  0
  7  9  1  0
  9 10  1  0
 10 11  2  0
 11 12  1  0
 12 13  2  0
 13 14  1  0
 14 15  1  0
 15 16  2  0
 14 17  1  0
 17 18  1  0
 18 19  2  0
 18 20  1  0
 20 21  1  0
 21 22  2  0
 22 23  1  0
 23 24  2  0
 24 25  1  0
 25 26  2  0
 24 27  1  0
 12 28  1  0
 28 29  2  0
 29 30  1  0
 30 31  2  0
 31 32  1  0
 32 33  2  0
 31 34  1  0
  8  3  1  0
 15 10  1  0
 26 21  1  0
 33 28  1  0
  1 35  1  0
  1 36  1  0
  1 37  1  0
  4 38  1  0
  5 39  1  0
  6 40  1  0
  8 41  1  0
  9 42  1  0
  9 43  1  0
 11 44  1  0
 17 45  1  0
 17 46  1  0
 20 47  1  0
 22 48  1  0
 23 49  1  0
 25 50  1  0
 26 51  1  0
 29 52  1  0
 30 53  1  0
 32 54  1  0
 33 55  1  0
M  END
>  <Ligand ID>  (1) 
LIG0004843

>  <Ligand>  (1) 
CHEMBL2391275

>  <SMILES>  (1) 
COc1cccc(c1)Cc1cc(nn(c1=O)CC(=O)Nc1ccc(cc1)F)c1ccc(cc1)F

>  <CID>  (1) 
71698877.0

>  <ChEMBL ID>  (1) 
nan

>  <InChiKey>  (1) 
LITVUNWCYHVEEV-UHFFFAOYSA-N

>  <InChi>  (1) 
InChI=1S/C26H21F2N3O3/c1-34-23-4-2-3-17(14-23)13-19-15-24(18-5-7-20(27)8-6-18)30-31(26(19)33)16-25(32)29-22-11-9-21(28)10-12-22/h2-12,14-15H,13,16H2,1H3,(H,29,32)

>  <IUPAC Name>  (1) 
N-(4-fluorophenyl)-2-[3-(4-fluorophenyl)-5-[(3-methoxyphenyl)methyl]-6-oxopyridazin-1-yl]acetamide

$$$$
