
     RDKit          3D

 60 60  0  0  0  0  0  0  0  0999 V2000
   -1.7862   -3.5407    0.1882 O   0  0  0  0  0  0  0  0  0  0  0  0
   -2.0615   -2.3203   -0.4399 C   0  0  2  0  0  0  0  0  0  0  0  0
   -0.7002   -1.6610   -0.7134 C   0  0  0  0  0  0  0  0  0  0  0  0
   -0.2989   -1.4951    0.7460 C   0  0  2  0  0  0  0  0  0  0  0  0
   -1.4547   -1.1889    1.4359 O   0  0  0  0  0  0  0  0  0  0  0  0
   -2.5536   -1.3891    0.6188 C   0  0  1  0  0  0  0  0  0  0  0  0
   -3.0051   -0.1107    0.1209 N   0  0  0  0  0  0  0  0  0  0  0  0
   -3.8312   -0.1269   -0.9658 C   0  0  0  0  0  0  0  0  0  0  0  0
   -4.3119    1.0500   -1.5096 C   0  0  0  0  0  0  0  0  0  0  0  0
   -3.9401    2.2451   -0.9318 C   0  0  0  0  0  0  0  0  0  0  0  0
   -4.3871    3.2960   -1.4407 O   0  0  0  0  0  0  0  0  0  0  0  0
   -3.1239    2.2112    0.1382 N   0  0  0  0  0  0  0  0  0  0  0  0
   -2.6527    1.0678    0.6720 C   0  0  0  0  0  0  0  0  0  0  0  0
   -1.8961    1.0818    1.6673 O   0  0  0  0  0  0  0  0  0  0  0  0
    0.8235   -0.5360    0.9257 C   0  0  0  0  0  0  0  0  0  0  0  0
    1.9643   -0.9087    0.1970 O   0  0  0  0  0  0  0  0  0  0  0  0
    3.2237    0.1696    0.4000 P   0  0  0  0  0  0  0  0  0  0  0  0
    2.9245    1.2136    1.4571 O   0  0  0  0  0  0  0  0  0  0  0  0
    3.6170    0.8646   -1.0896 O   0  0  0  0  0  0  0  0  0  0  0  0
    4.8075    2.0491   -0.9300 P   0  0  0  0  0  0  0  0  0  0  0  0
    4.4700    3.0625    0.1564 O   0  0  0  0  0  0  0  0  0  0  0  0
    6.3338    1.3670   -0.5714 O   0  0  0  0  0  0  0  0  0  0  0  0
    4.9409    2.8760   -2.3987 O   0  0  0  0  0  0  0  0  0  0  0  0
    4.5783   -0.7544    0.8813 O   0  0  0  0  0  0  0  0  0  0  0  0
   -1.8051   -1.1944   -0.3218 C   0  0  0  0  0  0  0  0  0  0  0  0
   -0.5464   -0.9870    0.4253 C   0  0  0  0  0  0  0  0  0  0  0  0
    0.2836    0.0923    0.0815 N   0  0  0  0  0  0  0  0  0  0  0  0
   -0.1848    1.4000    0.3868 C   0  0  0  0  0  0  0  0  0  0  0  0
   -1.3519    1.8995   -0.4078 C   0  0  0  0  0  0  0  0  0  0  0  0
    1.6727   -0.0280    0.3877 C   0  0  0  0  0  0  0  0  0  0  0  0
    2.3683   -1.0775   -0.4614 C   0  0  0  0  0  0  0  0  0  0  0  0
   -1.1521   -4.0475   -0.4017 H   0  0  0  0  0  0  0  0  0  0  0  0
   -2.6649   -2.4397   -1.3271 H   0  0  0  0  0  0  0  0  0  0  0  0
   -0.8473   -0.6672   -1.1601 H   0  0  0  0  0  0  0  0  0  0  0  0
   -0.0290   -2.3153   -1.2657 H   0  0  0  0  0  0  0  0  0  0  0  0
    0.0782   -2.5045    1.0464 H   0  0  0  0  0  0  0  0  0  0  0  0
   -3.4167   -1.8127    1.1841 H   0  0  0  0  0  0  0  0  0  0  0  0
   -4.1430   -1.0385   -1.4436 H   0  0  0  0  0  0  0  0  0  0  0  0
   -4.9711    1.0271   -2.3776 H   0  0  0  0  0  0  0  0  0  0  0  0
   -2.8617    3.1501    0.5529 H   0  0  0  0  0  0  0  0  0  0  0  0
    0.5493    0.4696    0.4912 H   0  0  0  0  0  0  0  0  0  0  0  0
    1.0398   -0.4673    2.0023 H   0  0  0  0  0  0  0  0  0  0  0  0
    6.2998    0.8033    0.2321 H   0  0  0  0  0  0  0  0  0  0  0  0
    5.9035    2.9928   -2.6812 H   0  0  0  0  0  0  0  0  0  0  0  0
    4.5349   -1.6725    0.5160 H   0  0  0  0  0  0  0  0  0  0  0  0
   -1.9025   -2.2478   -0.7307 H   0  0  0  0  0  0  0  0  0  0  0  0
   -1.9757   -0.4887   -1.1920 H   0  0  0  0  0  0  0  0  0  0  0  0
   -2.6904   -1.0708    0.3375 H   0  0  0  0  0  0  0  0  0  0  0  0
    0.0029   -1.9687    0.4193 H   0  0  0  0  0  0  0  0  0  0  0  0
   -0.8191   -0.8777    1.5248 H   0  0  0  0  0  0  0  0  0  0  0  0
   -0.5003    1.3972    1.4573 H   0  0  0  0  0  0  0  0  0  0  0  0
    0.6418    2.1566    0.3305 H   0  0  0  0  0  0  0  0  0  0  0  0
   -1.2075    1.7352   -1.4974 H   0  0  0  0  0  0  0  0  0  0  0  0
   -2.3115    1.5386   -0.0288 H   0  0  0  0  0  0  0  0  0  0  0  0
   -1.3710    3.0077   -0.2711 H   0  0  0  0  0  0  0  0  0  0  0  0
    1.8836   -0.2359    1.4479 H   0  0  0  0  0  0  0  0  0  0  0  0
    2.1534    0.9328    0.1618 H   0  0  0  0  0  0  0  0  0  0  0  0
    3.4562   -0.8776   -0.4057 H   0  0  0  0  0  0  0  0  0  0  0  0
    2.1956   -2.0991   -0.1366 H   0  0  0  0  0  0  0  0  0  0  0  0
    2.0078   -1.0067   -1.5070 H   0  0  0  0  0  0  0  0  0  0  0  0
  1  2  1  0
  2  3  1  0
  3  4  1  0
  4  5  1  0
  5  6  1  0
  6  7  1  0
  7  8  1  0
  8  9  2  0
  9 10  1  0
 10 11  2  0
 10 12  1  0
 12 13  1  0
 13 14  2  0
  4 15  1  0
 15 16  1  0
 16 17  1  0
 17 18  2  0
 17 19  1  0
 19 20  1  0
 20 21  2  0
 20 22  1  0
 20 23  1  0
 17 24  1  0
 25 26  1  0
 26 27  1  0
 27 28  1  0
 28 29  1  0
 27 30  1  0
 30 31  1  0
  6  2  1  0
 13  7  1  0
  1 32  1  0
  2 33  1  6
  3 34  1  0
  3 35  1  0
  4 36  1  1
  6 37  1  1
  8 38  1  0
  9 39  1  0
 12 40  1  0
 15 41  1  0
 15 42  1  0
 22 43  1  0
 23 44  1  0
 24 45  1  0
 25 46  1  0
 25 47  1  0
 25 48  1  0
 26 49  1  0
 26 50  1  0
 28 51  1  0
 28 52  1  0
 29 53  1  0
 29 54  1  0
 29 55  1  0
 30 56  1  0
 30 57  1  0
 31 58  1  0
 31 59  1  0
 31 60  1  0
M  END
>  <Ligand ID>  (1) 
LIG0004374

>  <Ligand>  (1) 
CHEMBL612021

>  <SMILES>  (1) 
O[C@@H]1C[C@H](O[C@H]1n1ccc(=O)[nH]c1=O)COP(=O)(OP(=O)(O)O)O.CCN(CC)CC

>  <CID>  (1) 
16082731.0

>  <ChEMBL ID>  (1) 
nan

>  <InChiKey>  (1) 
VYKYHNMLALBSPN-OERIEOFYSA-N

>  <InChi>  (1) 
InChI=1S/C9H14N2O11P2.C6H15N/c12-6-3-5(4-20-24(18,19)22-23(15,16)17)21-8(6)11-2-1-7(13)10-9(11)14;1-4-7(5-2)6-3/h1-2,5-6,8,12H,3-4H2,(H,18,19)(H,10,13,14)(H2,15,16,17);4-6H2,1-3H3/t5-,6+,8+;/m0./s1

>  <IUPAC Name>  (1) 
N,N-diethylethanamine;[(2S,4R,5R)-5-(2,4-dioxopyrimidin-1-yl)-4-hydroxyoxolan-2-yl]methyl phosphono hydrogen phosphate

$$$$
