
     RDKit          3D

 38 37  0  0  0  0  0  0  0  0999 V2000
    4.4777    0.6090   -2.2623 O   0  0  0  0  0  0  0  0  0  0  0  0
    4.9902    0.0128   -1.1331 C   0  0  0  0  0  0  0  0  0  0  0  0
    6.0448   -0.6457   -1.2314 O   0  0  0  0  0  0  0  0  0  0  0  0
    4.3306    0.1235    0.2110 C   0  0  0  0  0  0  0  0  0  0  0  0
    3.0916    0.9632    0.0419 C   0  0  0  0  0  0  0  0  0  0  0  0
    2.3999    1.0986    1.3707 C   0  0  0  0  0  0  0  0  0  0  0  0
    1.9983   -0.2211    1.9358 C   0  0  0  0  0  0  0  0  0  0  0  0
    1.0590   -0.9490    1.0267 C   0  0  0  0  0  0  0  0  0  0  0  0
   -0.1935   -0.1698    0.7881 C   0  0  0  0  0  0  0  0  0  0  0  0
   -1.1540   -0.9355   -0.1382 C   0  0  0  0  0  0  0  0  0  0  0  0
   -2.4003   -0.0934   -0.3404 C   0  0  0  0  0  0  0  0  0  0  0  0
   -3.4016   -0.7438   -1.2238 C   0  0  0  0  0  0  0  0  0  0  0  0
   -4.6061    0.1366   -1.3906 C   0  0  0  0  0  0  0  0  0  0  0  0
   -5.3123    0.4164   -0.1453 C   0  0  0  0  0  0  0  0  0  0  0  0
   -5.0330   -0.0363    0.9890 O   0  0  0  0  0  0  0  0  0  0  0  0
   -6.4143    1.2741   -0.2039 O   0  0  0  0  0  0  0  0  0  0  0  0
    4.8458    0.3244   -3.1817 H   0  0  0  0  0  0  0  0  0  0  0  0
    5.0304    0.5482    0.9588 H   0  0  0  0  0  0  0  0  0  0  0  0
    4.0823   -0.9158    0.5169 H   0  0  0  0  0  0  0  0  0  0  0  0
    2.4370    0.5095   -0.6989 H   0  0  0  0  0  0  0  0  0  0  0  0
    3.4159    1.9702   -0.3081 H   0  0  0  0  0  0  0  0  0  0  0  0
    1.4837    1.7129    1.2227 H   0  0  0  0  0  0  0  0  0  0  0  0
    3.0466    1.6752    2.0787 H   0  0  0  0  0  0  0  0  0  0  0  0
    1.4777    0.0059    2.9125 H   0  0  0  0  0  0  0  0  0  0  0  0
    2.8626   -0.8500    2.2406 H   0  0  0  0  0  0  0  0  0  0  0  0
    1.5210   -1.1342    0.0380 H   0  0  0  0  0  0  0  0  0  0  0  0
    0.8027   -1.9717    1.4347 H   0  0  0  0  0  0  0  0  0  0  0  0
    0.0200    0.7752    0.2110 H   0  0  0  0  0  0  0  0  0  0  0  0
   -0.7395    0.1319    1.6997 H   0  0  0  0  0  0  0  0  0  0  0  0
   -0.6073   -1.0387   -1.1031 H   0  0  0  0  0  0  0  0  0  0  0  0
   -1.3720   -1.9439    0.2228 H   0  0  0  0  0  0  0  0  0  0  0  0
   -2.0643    0.8694   -0.8124 H   0  0  0  0  0  0  0  0  0  0  0  0
   -2.7956    0.1216    0.6475 H   0  0  0  0  0  0  0  0  0  0  0  0
   -2.9556   -1.0114   -2.2051 H   0  0  0  0  0  0  0  0  0  0  0  0
   -3.7394   -1.7013   -0.7283 H   0  0  0  0  0  0  0  0  0  0  0  0
   -5.2775   -0.2788   -2.1807 H   0  0  0  0  0  0  0  0  0  0  0  0
   -4.2627    1.1191   -1.8347 H   0  0  0  0  0  0  0  0  0  0  0  0
   -7.0888    1.3388    0.5748 H   0  0  0  0  0  0  0  0  0  0  0  0
  1  2  1  0
  2  3  2  0
  2  4  1  0
  4  5  1  0
  5  6  1  0
  6  7  1  0
  7  8  1  0
  8  9  1  0
  9 10  1  0
 10 11  1  0
 11 12  1  0
 12 13  1  0
 13 14  1  0
 14 15  2  0
 14 16  1  0
  1 17  1  0
  4 18  1  0
  4 19  1  0
  5 20  1  0
  5 21  1  0
  6 22  1  0
  6 23  1  0
  7 24  1  0
  7 25  1  0
  8 26  1  0
  8 27  1  0
  9 28  1  0
  9 29  1  0
 10 30  1  0
 10 31  1  0
 11 32  1  0
 11 33  1  0
 12 34  1  0
 12 35  1  0
 13 36  1  0
 13 37  1  0
 16 38  1  0
M  END
>  <Ligand ID>  (1) 
LIG0000356

>  <Ligand>  (1) 
Dodecanedioic acid

>  <SMILES>  (1) 
OC(=O)CCCCCCCCCCC(=O)O

>  <CID>  (1) 
12736.0

>  <ChEMBL ID>  (1) 
nan

>  <InChiKey>  (1) 
TVIDDXQYHWJXFK-UHFFFAOYSA-N

>  <InChi>  (1) 
InChI=1S/C12H22O4/c13-11(14)9-7-5-3-1-2-4-6-8-10-12(15)16/h1-10H2,(H,13,14)(H,15,16)

>  <IUPAC Name>  (1) 
dodecanedioic acid

$$$$
