
     RDKit          3D

 64 67  0  0  0  0  0  0  0  0999 V2000
    2.6780   -0.4198    1.7415 C   0  0  0  0  0  0  0  0  0  0  0  0
    2.9258   -1.2458    0.4977 C   0  0  2  0  0  0  0  0  0  0  0  0
    4.3195   -1.0330   -0.0341 C   0  0  0  0  0  0  0  0  0  0  0  0
    4.4525    0.2563   -0.7009 N   0  0  0  0  0  0  0  0  0  0  0  0
    3.2712    0.7434   -1.4165 C   0  0  0  0  0  0  0  0  0  0  0  0
    2.3281   -0.3902   -1.7433 C   0  0  0  0  0  0  0  0  0  0  0  0
    1.9132   -1.0024   -0.5095 N   0  0  0  0  0  0  0  0  0  0  0  0
    0.5856   -1.3869   -0.2057 C   0  0  0  0  0  0  0  0  0  0  0  0
    0.2410   -1.9472    0.9737 N   0  0  0  0  0  0  0  0  0  0  0  0
   -1.0281   -2.3042    1.2369 C   0  0  0  0  0  0  0  0  0  0  0  0
   -2.0434   -2.0978    0.2708 C   0  0  0  0  0  0  0  0  0  0  0  0
   -1.6534   -1.5256   -0.9160 C   0  0  0  0  0  0  0  0  0  0  0  0
   -0.3502   -1.1772   -1.1425 N   0  0  0  0  0  0  0  0  0  0  0  0
   -3.2603   -2.4589    0.5672 O   0  0  0  0  0  0  0  0  0  0  0  0
   -4.5516   -2.6353    0.3926 C   0  0  0  0  0  0  0  0  0  0  0  0
   -5.3123   -1.3785    0.1554 C   0  0  0  0  0  0  0  0  0  0  0  0
   -5.9500   -0.7587    1.2357 C   0  0  0  0  0  0  0  0  0  0  0  0
   -6.6458    0.4217    1.0869 C   0  0  0  0  0  0  0  0  0  0  0  0
   -6.7412    1.0434   -0.1437 C   0  0  0  0  0  0  0  0  0  0  0  0
   -6.1211    0.4455   -1.2099 C   0  0  0  0  0  0  0  0  0  0  0  0
   -5.4210   -0.7463   -1.0517 C   0  0  0  0  0  0  0  0  0  0  0  0
   -4.8722   -1.2697   -2.1660 F   0  0  0  0  0  0  0  0  0  0  0  0
   -7.4799    2.3119   -0.3391 C   0  0  0  0  0  0  0  0  0  0  0  0
   -9.1661    1.8482   -0.7425 S   0  0  0  0  0  0  0  0  0  0  0  0
   -9.1715    1.0049   -1.9768 O   0  0  0  0  0  0  0  0  0  0  0  0
  -10.0240    3.0673   -0.9282 O   0  0  0  0  0  0  0  0  0  0  0  0
   -9.7771    0.9118    0.6420 C   0  0  0  0  0  0  0  0  0  0  0  0
    5.6592    1.0110   -0.6659 C   0  0  0  0  0  0  0  0  0  0  0  0
    5.7687    2.1027   -1.2299 O   0  0  0  0  0  0  0  0  0  0  0  0
    6.7227    0.4917    0.0217 O   0  0  0  0  0  0  0  0  0  0  0  0
    7.9870    1.0312    0.2007 C   0  0  0  0  0  0  0  0  0  0  0  0
    8.8443    0.0695    1.0400 C   0  0  0  0  0  0  0  0  0  0  0  0
    9.2102   -0.5363   -0.1463 O   0  0  0  0  0  0  0  0  0  0  0  0
    9.0465    0.6881   -0.7888 C   0  0  0  0  0  0  0  0  0  0  0  0
    8.0995    2.4145    0.7912 C   0  0  0  0  0  0  0  0  0  0  0  0
    7.5381    2.4561    2.0332 F   0  0  0  0  0  0  0  0  0  0  0  0
    7.6824    3.3610   -0.0865 F   0  0  0  0  0  0  0  0  0  0  0  0
    9.4739    2.6404    0.9842 F   0  0  0  0  0  0  0  0  0  0  0  0
    2.1398   -1.0028    2.5299 H   0  0  0  0  0  0  0  0  0  0  0  0
    2.0884    0.5023    1.5372 H   0  0  0  0  0  0  0  0  0  0  0  0
    3.6927   -0.1267    2.1205 H   0  0  0  0  0  0  0  0  0  0  0  0
    2.8415   -2.3121    0.7927 H   0  0  0  0  0  0  0  0  0  0  0  0
    4.6349   -1.8779   -0.6823 H   0  0  0  0  0  0  0  0  0  0  0  0
    5.0075   -1.0253    0.8370 H   0  0  0  0  0  0  0  0  0  0  0  0
    2.7454    1.4136   -0.7301 H   0  0  0  0  0  0  0  0  0  0  0  0
    3.5429    1.3054   -2.3335 H   0  0  0  0  0  0  0  0  0  0  0  0
    2.8013   -1.1071   -2.4332 H   0  0  0  0  0  0  0  0  0  0  0  0
    1.4178    0.0885   -2.1807 H   0  0  0  0  0  0  0  0  0  0  0  0
   -1.2858   -2.7516    2.1876 H   0  0  0  0  0  0  0  0  0  0  0  0
   -2.3192   -1.3169   -1.7326 H   0  0  0  0  0  0  0  0  0  0  0  0
   -4.7930   -3.3321   -0.4735 H   0  0  0  0  0  0  0  0  0  0  0  0
   -4.9981   -3.1130    1.3320 H   0  0  0  0  0  0  0  0  0  0  0  0
   -5.9050   -1.2033    2.2158 H   0  0  0  0  0  0  0  0  0  0  0  0
   -7.1496    0.9207    1.9149 H   0  0  0  0  0  0  0  0  0  0  0  0
   -6.1822    0.9180   -2.1943 H   0  0  0  0  0  0  0  0  0  0  0  0
   -7.4721    2.9388    0.5632 H   0  0  0  0  0  0  0  0  0  0  0  0
   -7.0279    2.9394   -1.1488 H   0  0  0  0  0  0  0  0  0  0  0  0
   -9.6627    1.5469    1.5475 H   0  0  0  0  0  0  0  0  0  0  0  0
   -9.1046    0.0276    0.7760 H   0  0  0  0  0  0  0  0  0  0  0  0
  -10.7962    0.5392    0.4710 H   0  0  0  0  0  0  0  0  0  0  0  0
    8.2119   -0.5385    1.7091 H   0  0  0  0  0  0  0  0  0  0  0  0
    9.6965    0.6056    1.5267 H   0  0  0  0  0  0  0  0  0  0  0  0
    9.9555    1.3263   -0.5878 H   0  0  0  0  0  0  0  0  0  0  0  0
    8.7425    0.6282   -1.8502 H   0  0  0  0  0  0  0  0  0  0  0  0
  1  2  1  0
  2  3  1  0
  3  4  1  0
  4  5  1  0
  5  6  1  0
  6  7  1  0
  7  8  1  0
  8  9  2  0
  9 10  1  0
 10 11  2  0
 11 12  1  0
 12 13  2  0
 11 14  1  0
 14 15  1  0
 15 16  1  0
 16 17  2  0
 17 18  1  0
 18 19  2  0
 19 20  1  0
 20 21  2  0
 21 22  1  0
 19 23  1  0
 23 24  1  0
 24 25  2  0
 24 26  2  0
 24 27  1  0
  4 28  1  0
 28 29  2  0
 28 30  1  0
 30 31  1  0
 31 32  1  0
 32 33  1  0
 33 34  1  0
 31 35  1  0
 35 36  1  0
 35 37  1  0
 35 38  1  0
  7  2  1  0
 13  8  1  0
 21 16  1  0
 34 31  1  0
  1 39  1  0
  1 40  1  0
  1 41  1  0
  2 42  1  1
  3 43  1  0
  3 44  1  0
  5 45  1  0
  5 46  1  0
  6 47  1  0
  6 48  1  0
 10 49  1  0
 12 50  1  0
 15 51  1  0
 15 52  1  0
 17 53  1  0
 18 54  1  0
 20 55  1  0
 23 56  1  0
 23 57  1  0
 27 58  1  0
 27 59  1  0
 27 60  1  0
 32 61  1  0
 32 62  1  0
 34 63  1  0
 34 64  1  0
M  END
>  <Ligand ID>  (1) 
LIG0005271

>  <Ligand>  (1) 
CHEMBL3358010

>  <SMILES>  (1) 
C[C@@H]1CN(CCN1c1ncc(cn1)OCc1ccc(cc1F)CS(=O)(=O)C)C(=O)OC1(COC1)C(F)(F)F

>  <CID>  (1) 
58190330.0

>  <ChEMBL ID>  (1) 
nan

>  <InChiKey>  (1) 
APOAEXWNXLHNHP-OAHLLOKOSA-N

>  <InChi>  (1) 
InChI=1S/C23H26F4N4O6S/c1-15-10-30(21(32)37-22(13-35-14-22)23(25,26)27)5-6-31(15)20-28-8-18(9-29-20)36-11-17-4-3-16(7-19(17)24)12-38(2,33)34/h3-4,7-9,15H,5-6,10-14H2,1-2H3/t15-/m1/s1

>  <IUPAC Name>  (1) 
[3-(trifluoromethyl)oxetan-3-yl] (3R)-4-[5-[[2-fluoro-4-(methylsulfonylmethyl)phenyl]methoxy]pyrimidin-2-yl]-3-methylpiperazine-1-carboxylate

$$$$
