
     RDKit          3D

139142  0  0  0  0  0  0  0  0999 V2000
   -1.3953   -5.8405   -2.0757 N   0  0  0  0  0  0  0  0  0  0  0  0
   -2.2172   -4.6633   -1.9444 C   0  0  0  0  0  0  0  0  0  0  0  0
   -3.3590   -4.8645   -1.4917 O   0  0  0  0  0  0  0  0  0  0  0  0
   -1.6157   -3.3946   -2.3534 C   0  0  0  0  0  0  0  0  0  0  0  0
   -0.6433   -2.8030   -1.3892 C   0  0  2  0  0  0  0  0  0  0  0  0
   -1.1141   -2.4155   -0.0942 N   0  0  0  0  0  0  0  0  0  0  0  0
   -2.4380   -2.0446    0.2641 C   0  0  0  0  0  0  0  0  0  0  0  0
   -3.2813   -2.0829   -0.6334 O   0  0  0  0  0  0  0  0  0  0  0  0
   -2.8564   -1.6079    1.6145 C   0  0  2  0  0  0  0  0  0  0  0  0
   -2.6205   -2.4004    2.7960 C   0  0  0  0  0  0  0  0  0  0  0  0
   -3.1595   -3.7278    3.0602 C   0  0  0  0  0  0  0  0  0  0  0  0
   -2.8688   -4.8659    2.2126 C   0  0  0  0  0  0  0  0  0  0  0  0
   -2.0408   -4.9370    1.2790 O   0  0  0  0  0  0  0  0  0  0  0  0
   -3.6152   -6.0845    2.4561 N   0  0  0  0  0  0  0  0  0  0  0  0
   -4.2142   -1.0183    1.5058 N   0  0  0  0  0  0  0  0  0  0  0  0
   -5.3496   -1.7765    1.0729 C   0  0  0  0  0  0  0  0  0  0  0  0
   -5.1666   -2.9842    0.9555 O   0  0  0  0  0  0  0  0  0  0  0  0
   -6.6242   -1.0525    0.8194 C   0  0  2  0  0  0  0  0  0  0  0  0
   -7.2173   -1.4757   -0.5077 C   0  0  0  0  0  0  0  0  0  0  0  0
   -7.5111   -2.9092   -0.5860 C   0  0  0  0  0  0  0  0  0  0  0  0
   -6.6601   -3.8483   -1.1568 C   0  0  0  0  0  0  0  0  0  0  0  0
   -6.9419   -5.1828   -1.2086 C   0  0  0  0  0  0  0  0  0  0  0  0
   -8.1279   -5.6948   -0.6807 C   0  0  0  0  0  0  0  0  0  0  0  0
   -8.9997   -4.7699   -0.1022 C   0  0  0  0  0  0  0  0  0  0  0  0
   -8.6883   -3.4113   -0.0613 C   0  0  0  0  0  0  0  0  0  0  0  0
   -6.3359    0.3943    0.7680 N   0  0  0  0  0  0  0  0  0  0  0  0
   -7.1032    1.4393    1.3013 C   0  0  0  0  0  0  0  0  0  0  0  0
   -8.1766    1.0961    1.8458 O   0  0  0  0  0  0  0  0  0  0  0  0
   -6.6671    2.8746    1.2092 C   0  0  2  0  0  0  0  0  0  0  0  0
   -7.4457    3.4367    0.0104 C   0  0  0  0  0  0  0  0  0  0  0  0
   -7.0523    4.8526   -0.1481 C   0  0  0  0  0  0  0  0  0  0  0  0
   -7.7024    5.9117    0.4725 C   0  0  0  0  0  0  0  0  0  0  0  0
   -7.2676    7.2086    0.2573 C   0  0  0  0  0  0  0  0  0  0  0  0
   -6.1827    7.4422   -0.5773 C   0  0  0  0  0  0  0  0  0  0  0  0
   -5.5181    6.4144   -1.2054 C   0  0  0  0  0  0  0  0  0  0  0  0
   -5.9769    5.1177   -0.9718 C   0  0  0  0  0  0  0  0  0  0  0  0
   -5.2503    2.8682    0.9131 N   0  0  0  0  0  0  0  0  0  0  0  0
   -4.3547    3.7578    1.6245 C   0  0  0  0  0  0  0  0  0  0  0  0
   -4.9302    4.5699    2.3667 O   0  0  0  0  0  0  0  0  0  0  0  0
   -2.8683    3.6903    1.4536 C   0  0  2  0  0  0  0  0  0  0  0  0
   -2.4465    4.3696    0.1574 C   0  0  0  0  0  0  0  0  0  0  0  0
   -0.6540    4.4023    0.0825 S   0  0  0  0  0  0  0  0  0  0  0  0
    0.1101    2.4338   -0.0154 S   0  0  0  0  0  0  0  0  0  0  0  0
    0.2238    1.9430   -1.7337 C   0  0  0  0  0  0  0  0  0  0  0  0
    0.9932    0.6999   -1.9851 C   0  0  2  0  0  0  0  0  0  0  0  0
    0.2702   -0.4262   -1.3423 N   0  0  0  0  0  0  0  0  0  0  0  0
    0.0816   -1.6778   -2.0456 C   0  0  0  0  0  0  0  0  0  0  0  0
    0.5664   -1.6979   -3.1766 O   0  0  0  0  0  0  0  0  0  0  0  0
    2.3930    0.6393   -1.4984 C   0  0  0  0  0  0  0  0  0  0  0  0
    2.6203   -0.4571   -0.8318 O   0  0  0  0  0  0  0  0  0  0  0  0
    3.4516    1.5086   -1.6341 N   0  0  0  0  0  0  0  0  0  0  0  0
    3.4786    2.9074   -2.1838 C   0  0  0  0  0  0  0  0  0  0  0  0
    4.2480    3.5987   -1.0222 C   0  0  0  0  0  0  0  0  0  0  0  0
    4.9925    2.4788   -0.2971 C   0  0  0  0  0  0  0  0  0  0  0  0
    4.8856    1.3768   -1.3423 C   0  0  1  0  0  0  0  0  0  0  0  0
    5.4419    0.1246   -0.9555 C   0  0  0  0  0  0  0  0  0  0  0  0
    4.9349   -1.0251   -0.9873 O   0  0  0  0  0  0  0  0  0  0  0  0
    6.8125    0.1267   -0.4394 N   0  0  0  0  0  0  0  0  0  0  0  0
    7.3817   -1.1322   -0.0616 C   0  0  2  0  0  0  0  0  0  0  0  0
    8.1617   -1.0733    1.2144 C   0  0  0  0  0  0  0  0  0  0  0  0
    8.7146   -2.1708    1.5562 O   0  0  0  0  0  0  0  0  0  0  0  0
    8.3038    0.0699    2.0099 N   0  0  0  0  0  0  0  0  0  0  0  0
    9.0950   -0.0399    3.2269 C   0  0  0  0  0  0  0  0  0  0  0  0
    8.5194   -1.0695    4.1476 C   0  0  0  0  0  0  0  0  0  0  0  0
    9.1008   -1.2805    5.2498 O   0  0  0  0  0  0  0  0  0  0  0  0
    7.3539   -1.8129    3.8350 N   0  0  0  0  0  0  0  0  0  0  0  0
    8.3030   -1.6637   -1.1078 C   0  0  0  0  0  0  0  0  0  0  0  0
    9.5179   -0.9535   -1.5021 C   0  0  0  0  0  0  0  0  0  0  0  0
    9.4638    0.4269   -2.0419 C   0  0  0  0  0  0  0  0  0  0  0  0
   10.8211    0.8798   -2.4546 N   0  0  0  0  0  0  0  0  0  0  0  0
   11.7617    1.0849   -1.6097 C   0  0  0  0  0  0  0  0  0  0  0  0
   13.0204    1.5203   -2.1493 N   0  0  0  0  0  0  0  0  0  0  0  0
   11.6505    0.9106   -0.2066 N   0  0  0  0  0  0  0  0  0  0  0  0
   -2.5070    2.2715    1.2323 N   0  0  0  0  0  0  0  0  0  0  0  0
   -0.5254   -5.8627   -1.4705 H   0  0  0  0  0  0  0  0  0  0  0  0
   -1.6478   -6.6200   -2.7310 H   0  0  0  0  0  0  0  0  0  0  0  0
   -1.0166   -3.6148   -3.2876 H   0  0  0  0  0  0  0  0  0  0  0  0
   -2.3742   -2.6568   -2.7113 H   0  0  0  0  0  0  0  0  0  0  0  0
    0.0542   -3.6868   -1.1731 H   0  0  0  0  0  0  0  0  0  0  0  0
   -0.4465   -2.3889    0.6892 H   0  0  0  0  0  0  0  0  0  0  0  0
   -2.2197   -0.6442    1.7446 H   0  0  0  0  0  0  0  0  0  0  0  0
   -1.4917   -2.4420    2.9736 H   0  0  0  0  0  0  0  0  0  0  0  0
   -2.9337   -1.7522    3.6828 H   0  0  0  0  0  0  0  0  0  0  0  0
   -2.7181   -4.0285    4.0924 H   0  0  0  0  0  0  0  0  0  0  0  0
   -4.2648   -3.6988    3.3679 H   0  0  0  0  0  0  0  0  0  0  0  0
   -4.4043   -6.3752    1.8366 H   0  0  0  0  0  0  0  0  0  0  0  0
   -3.2984   -6.6385    3.3005 H   0  0  0  0  0  0  0  0  0  0  0  0
   -4.4018   -0.0462    1.7511 H   0  0  0  0  0  0  0  0  0  0  0  0
   -7.3366   -1.2487    1.6173 H   0  0  0  0  0  0  0  0  0  0  0  0
   -8.1834   -0.9393   -0.6467 H   0  0  0  0  0  0  0  0  0  0  0  0
   -6.5103   -1.1946   -1.3349 H   0  0  0  0  0  0  0  0  0  0  0  0
   -5.7301   -3.5253   -1.6026 H   0  0  0  0  0  0  0  0  0  0  0  0
   -6.2600   -5.9097   -1.6584 H   0  0  0  0  0  0  0  0  0  0  0  0
   -8.3770   -6.7388   -0.7078 H   0  0  0  0  0  0  0  0  0  0  0  0
   -9.9460   -5.0758    0.3320 H   0  0  0  0  0  0  0  0  0  0  0  0
   -9.3841   -2.7162    0.3939 H   0  0  0  0  0  0  0  0  0  0  0  0
   -5.4847    0.6365    0.2619 H   0  0  0  0  0  0  0  0  0  0  0  0
   -6.9489    3.4076    2.1154 H   0  0  0  0  0  0  0  0  0  0  0  0
   -7.3412    2.8284   -0.8851 H   0  0  0  0  0  0  0  0  0  0  0  0
   -8.5302    3.4507    0.2539 H   0  0  0  0  0  0  0  0  0  0  0  0
   -8.5481    5.6921    1.1205 H   0  0  0  0  0  0  0  0  0  0  0  0
   -7.7636    8.0315    0.7339 H   0  0  0  0  0  0  0  0  0  0  0  0
   -5.8053    8.4458   -0.7734 H   0  0  0  0  0  0  0  0  0  0  0  0
   -4.6611    6.6026   -1.8644 H   0  0  0  0  0  0  0  0  0  0  0  0
   -5.4534    4.3017   -1.4671 H   0  0  0  0  0  0  0  0  0  0  0  0
   -4.7688    2.3069    0.2170 H   0  0  0  0  0  0  0  0  0  0  0  0
   -2.3009    4.0827    2.2931 H   0  0  0  0  0  0  0  0  0  0  0  0
   -2.7759    5.4384    0.2390 H   0  0  0  0  0  0  0  0  0  0  0  0
   -2.9057    3.8672   -0.7238 H   0  0  0  0  0  0  0  0  0  0  0  0
   -0.8728    1.6215   -2.0017 H   0  0  0  0  0  0  0  0  0  0  0  0
    0.4584    2.7379   -2.4510 H   0  0  0  0  0  0  0  0  0  0  0  0
    1.0077    0.5121   -3.0959 H   0  0  0  0  0  0  0  0  0  0  0  0
   -0.1227   -0.3936   -0.4143 H   0  0  0  0  0  0  0  0  0  0  0  0
    2.5274    3.3916   -2.1936 H   0  0  0  0  0  0  0  0  0  0  0  0
    4.0409    2.9327   -3.1148 H   0  0  0  0  0  0  0  0  0  0  0  0
    4.9451    4.3501   -1.3821 H   0  0  0  0  0  0  0  0  0  0  0  0
    3.5430    4.0743   -0.3149 H   0  0  0  0  0  0  0  0  0  0  0  0
    4.4346    2.2127    0.6082 H   0  0  0  0  0  0  0  0  0  0  0  0
    6.0267    2.7508   -0.0963 H   0  0  0  0  0  0  0  0  0  0  0  0
    5.4436    1.7672   -2.2698 H   0  0  0  0  0  0  0  0  0  0  0  0
    7.2355    1.0578   -0.3757 H   0  0  0  0  0  0  0  0  0  0  0  0
    6.5649   -1.9059    0.0420 H   0  0  0  0  0  0  0  0  0  0  0  0
    7.8396    0.9567    1.7064 H   0  0  0  0  0  0  0  0  0  0  0  0
    8.9964    0.9497    3.7605 H   0  0  0  0  0  0  0  0  0  0  0  0
   10.1551   -0.2376    3.0644 H   0  0  0  0  0  0  0  0  0  0  0  0
    7.4124   -2.8535    3.9292 H   0  0  0  0  0  0  0  0  0  0  0  0
    6.4547   -1.4164    3.5239 H   0  0  0  0  0  0  0  0  0  0  0  0
    7.7284   -1.9322   -2.0534 H   0  0  0  0  0  0  0  0  0  0  0  0
    8.6446   -2.6969   -0.7354 H   0  0  0  0  0  0  0  0  0  0  0  0
   10.0163   -1.5894   -2.3218 H   0  0  0  0  0  0  0  0  0  0  0  0
   10.3091   -0.9754   -0.6911 H   0  0  0  0  0  0  0  0  0  0  0  0
    9.2407    1.1643   -1.2108 H   0  0  0  0  0  0  0  0  0  0  0  0
    8.8228    0.5528   -2.9121 H   0  0  0  0  0  0  0  0  0  0  0  0
   13.4636    2.4199   -1.9092 H   0  0  0  0  0  0  0  0  0  0  0  0
   13.5534    0.9173   -2.8317 H   0  0  0  0  0  0  0  0  0  0  0  0
   12.4107    0.2971    0.2308 H   0  0  0  0  0  0  0  0  0  0  0  0
   10.9092    1.3252    0.3933 H   0  0  0  0  0  0  0  0  0  0  0  0
   -1.6310    2.1164    1.7505 H   0  0  0  0  0  0  0  0  0  0  0  0
   -2.3622    2.0929    0.2294 H   0  0  0  0  0  0  0  0  0  0  0  0
  1  2  1  0
  2  3  2  0
  2  4  1  0
  4  5  1  0
  5  6  1  0
  6  7  1  0
  7  8  2  0
  7  9  1  0
  9 10  1  0
 10 11  1  0
 11 12  1  0
 12 13  2  0
 12 14  1  0
  9 15  1  0
 15 16  1  0
 16 17  2  0
 16 18  1  0
 18 19  1  0
 19 20  1  0
 20 21  2  0
 21 22  1  0
 22 23  2  0
 23 24  1  0
 24 25  2  0
 18 26  1  0
 26 27  1  0
 27 28  2  0
 27 29  1  0
 29 30  1  0
 30 31  1  0
 31 32  2  0
 32 33  1  0
 33 34  2  0
 34 35  1  0
 35 36  2  0
 29 37  1  0
 37 38  1  0
 38 39  2  0
 38 40  1  0
 40 41  1  0
 41 42  1  0
 42 43  1  0
 43 44  1  0
 44 45  1  0
 45 46  1  0
 46 47  1  0
 47 48  2  0
 45 49  1  0
 49 50  2  0
 49 51  1  0
 51 52  1  0
 52 53  1  0
 53 54  1  0
 54 55  1  0
 55 56  1  0
 56 57  2  0
 56 58  1  0
 58 59  1  0
 59 60  1  0
 60 61  2  0
 60 62  1  0
 62 63  1  0
 63 64  1  0
 64 65  2  0
 64 66  1  0
 59 67  1  0
 67 68  1  0
 68 69  1  0
 69 70  1  0
 70 71  2  3
 71 72  1  0
 71 73  1  0
 40 74  1  0
 47  5  1  0
 55 51  1  0
 25 20  1  0
 36 31  1  0
  1 75  1  0
  1 76  1  0
  4 77  1  0
  4 78  1  0
  5 79  1  1
  6 80  1  0
  9 81  1  1
 10 82  1  0
 10 83  1  0
 11 84  1  0
 11 85  1  0
 14 86  1  0
 14 87  1  0
 15 88  1  0
 18 89  1  1
 19 90  1  0
 19 91  1  0
 21 92  1  0
 22 93  1  0
 23 94  1  0
 24 95  1  0
 25 96  1  0
 26 97  1  0
 29 98  1  1
 30 99  1  0
 30100  1  0
 32101  1  0
 33102  1  0
 34103  1  0
 35104  1  0
 36105  1  0
 37106  1  0
 40107  1  1
 41108  1  0
 41109  1  0
 44110  1  0
 44111  1  0
 45112  1  6
 46113  1  0
 52114  1  0
 52115  1  0
 53116  1  0
 53117  1  0
 54118  1  0
 54119  1  0
 55120  1  6
 58121  1  0
 59122  1  1
 62123  1  0
 63124  1  0
 63125  1  0
 66126  1  0
 66127  1  0
 67128  1  0
 67129  1  0
 68130  1  0
 68131  1  0
 69132  1  0
 69133  1  0
 72134  1  0
 72135  1  0
 73136  1  0
 73137  1  0
 74138  1  0
 74139  1  0
M  END
>  <Ligand ID>  (1) 
LIG0000842

>  <Ligand>  (1) 
Phenypressin

>  <SMILES>  (1) 
NC(=O)C[C@@H]1NC(=O)[C@H](CCC(=O)N)NC(=O)[C@H](Cc2ccccc2)NC(=O)[C@H](Cc2ccccc2)NC(=O)[C@H](CSSC[C@H](NC1=O)C(=O)N1CCC[C@H]1C(=O)N[C@H](C(=O)NCC(=O)N)CCCN=C(N)N)N

>  <CID>  (1) 
56658409.0

>  <ChEMBL ID>  (1) 
nan

>  <InChiKey>  (1) 
ANZXJGXSHMINOI-LGYYRGKSSA-N

>  <InChi>  (1) 
InChI=1S/C46H65N15O11S2/c47-27-23-73-74-24-33(45(72)61-18-8-14-34(61)44(71)56-28(13-7-17-53-46(51)52)39(66)54-22-37(50)64)60-43(70)32(21-36(49)63)59-40(67)29(15-16-35(48)62)55-41(68)31(20-26-11-5-2-6-12-26)58-42(69)30(57-38(27)65)19-25-9-3-1-4-10-25/h1-6,9-12,27-34H,7-8,13-24,47H2,(H2,48,62)(H2,49,63)(H2,50,64)(H,54,66)(H,55,68)(H,56,71)(H,57,65)(H,58,69)(H,59,67)(H,60,70)(H4,51,52,53)/t27-,28-,29-,30-,31-,32-,33-,34-/m0/s1

>  <IUPAC Name>  (1) 
(2S)-1-[(4R,7S,10S,13S,16S,19R)-19-amino-7-(2-amino-2-oxoethyl)-10-(3-amino-3-oxopropyl)-13,16-dibenzyl-6,9,12,15,18-pentaoxo-1,2-dithia-5,8,11,14,17-pentazacycloicosane-4-carbonyl]-N-[(2S)-1-[(2-amino-2-oxoethyl)amino]-5-(diaminomethylideneamino)-1-oxopentan-2-yl]pyrrolidine-2-carboxamide

$$$$
