
     RDKit          3D

 73 76  0  0  0  0  0  0  0  0999 V2000
    0.5801    2.1891   -1.2112 O   0  0  0  0  0  0  0  0  0  0  0  0
    0.4066    1.6876   -0.0428 C   0  0  0  0  0  0  0  0  0  0  0  0
    1.6318    1.3221    0.6844 C   0  0  2  0  0  0  0  0  0  0  0  0
    2.7623    1.8059   -0.1211 N   0  0  0  0  0  0  0  0  0  0  0  0
    3.6520    2.7017    0.4955 C   0  0  0  0  0  0  0  0  0  0  0  0
    3.4311    3.0327    1.6848 O   0  0  0  0  0  0  0  0  0  0  0  0
    4.8188    3.2384   -0.2444 C   0  0  0  0  0  0  0  0  0  0  0  0
    5.5136    4.1220    0.6874 N   0  0  0  0  0  0  0  0  0  0  0  0
    4.4556    4.0287   -1.4634 C   0  0  0  0  0  0  0  0  0  0  0  0
    5.7843    2.1061   -0.6136 C   0  0  0  0  0  0  0  0  0  0  0  0
    1.7393   -0.2133    0.6974 C   0  0  0  0  0  0  0  0  0  0  0  0
    1.6666   -0.6618   -0.6052 O   0  0  0  0  0  0  0  0  0  0  0  0
    1.7556   -2.0465   -0.7089 C   0  0  0  0  0  0  0  0  0  0  0  0
    3.0399   -2.5564   -0.1516 C   0  0  0  0  0  0  0  0  0  0  0  0
    4.1838   -2.7036   -0.9008 C   0  0  0  0  0  0  0  0  0  0  0  0
    5.3520   -3.1824   -0.3304 C   0  0  0  0  0  0  0  0  0  0  0  0
    5.3542   -3.5122    1.0085 C   0  0  0  0  0  0  0  0  0  0  0  0
    4.1959   -3.3635    1.7681 C   0  0  0  0  0  0  0  0  0  0  0  0
    3.0374   -2.8860    1.1912 C   0  0  0  0  0  0  0  0  0  0  0  0
   -0.9143    1.5365    0.4285 N   0  0  0  0  0  0  0  0  0  0  0  0
   -1.2840    1.0251    1.7329 C   0  0  0  0  0  0  0  0  0  0  0  0
   -1.9890   -0.2949    1.4650 C   0  0  0  0  0  0  0  0  0  0  0  0
   -3.1851    0.0138    0.6209 C   0  0  0  0  0  0  0  0  0  0  0  0
   -3.3229    1.4418    0.2019 C   0  0  0  0  0  0  0  0  0  0  0  0
   -2.0478    1.9033   -0.4394 C   0  0  0  0  0  0  0  0  0  0  0  0
   -4.4367   -0.3435    1.4005 C   0  0  0  0  0  0  0  0  0  0  0  0
   -5.3678   -0.6940    0.3739 N   0  0  0  0  0  0  0  0  0  0  0  0
   -4.6445   -1.2492   -0.6977 C   0  0  0  0  0  0  0  0  0  0  0  0
   -3.3112   -0.8456   -0.5854 C   0  0  0  0  0  0  0  0  0  0  0  0
   -2.4598   -1.3075   -1.5636 C   0  0  0  0  0  0  0  0  0  0  0  0
   -2.8735   -2.1225   -2.6053 C   0  0  0  0  0  0  0  0  0  0  0  0
   -4.2121   -2.5103   -2.6930 C   0  0  0  0  0  0  0  0  0  0  0  0
   -5.0804   -2.0599   -1.7251 C   0  0  0  0  0  0  0  0  0  0  0  0
   -7.0760   -0.4500    0.4942 S   0  0  0  0  0  0  0  0  0  0  0  0
   -7.7771   -0.8468   -0.7669 O   0  0  0  0  0  0  0  0  0  0  0  0
   -7.4207    0.9731    0.8163 O   0  0  0  0  0  0  0  0  0  0  0  0
   -7.6243   -1.4341    1.8853 C   0  0  0  0  0  0  0  0  0  0  0  0
    1.6109    1.7350    1.6940 H   0  0  0  0  0  0  0  0  0  0  0  0
    2.8521    1.4732   -1.0854 H   0  0  0  0  0  0  0  0  0  0  0  0
    5.7627    3.5688    1.5552 H   0  0  0  0  0  0  0  0  0  0  0  0
    4.8194    4.8423    1.0147 H   0  0  0  0  0  0  0  0  0  0  0  0
    3.4256    4.3920   -1.4834 H   0  0  0  0  0  0  0  0  0  0  0  0
    4.6035    3.4073   -2.3880 H   0  0  0  0  0  0  0  0  0  0  0  0
    5.1495    4.9126   -1.5470 H   0  0  0  0  0  0  0  0  0  0  0  0
    5.6218    1.3099    0.1431 H   0  0  0  0  0  0  0  0  0  0  0  0
    5.5354    1.7034   -1.6118 H   0  0  0  0  0  0  0  0  0  0  0  0
    6.8039    2.5120   -0.5475 H   0  0  0  0  0  0  0  0  0  0  0  0
    1.0170   -0.6073    1.3932 H   0  0  0  0  0  0  0  0  0  0  0  0
    2.8019   -0.3962    1.0377 H   0  0  0  0  0  0  0  0  0  0  0  0
    0.9203   -2.5982   -0.2694 H   0  0  0  0  0  0  0  0  0  0  0  0
    1.7621   -2.2724   -1.8002 H   0  0  0  0  0  0  0  0  0  0  0  0
    4.1595   -2.4390   -1.9482 H   0  0  0  0  0  0  0  0  0  0  0  0
    6.2694   -3.3097   -0.8956 H   0  0  0  0  0  0  0  0  0  0  0  0
    6.2476   -3.8918    1.4998 H   0  0  0  0  0  0  0  0  0  0  0  0
    4.1744   -3.6192    2.8345 H   0  0  0  0  0  0  0  0  0  0  0  0
    2.1336   -2.7702    1.7866 H   0  0  0  0  0  0  0  0  0  0  0  0
   -2.0375    1.6948    2.2193 H   0  0  0  0  0  0  0  0  0  0  0  0
   -0.4368    0.8993    2.4214 H   0  0  0  0  0  0  0  0  0  0  0  0
   -2.2904   -0.6915    2.4608 H   0  0  0  0  0  0  0  0  0  0  0  0
   -1.3086   -1.0483    1.0404 H   0  0  0  0  0  0  0  0  0  0  0  0
   -3.6092    2.1381    1.0170 H   0  0  0  0  0  0  0  0  0  0  0  0
   -4.1038    1.4679   -0.6035 H   0  0  0  0  0  0  0  0  0  0  0  0
   -1.9383    1.3145   -1.3962 H   0  0  0  0  0  0  0  0  0  0  0  0
   -2.0215    2.9516   -0.7390 H   0  0  0  0  0  0  0  0  0  0  0  0
   -4.2336   -1.2157    2.0231 H   0  0  0  0  0  0  0  0  0  0  0  0
   -4.7271    0.5586    1.9817 H   0  0  0  0  0  0  0  0  0  0  0  0
   -1.4110   -1.0212   -1.5196 H   0  0  0  0  0  0  0  0  0  0  0  0
   -2.1835   -2.4785   -3.3717 H   0  0  0  0  0  0  0  0  0  0  0  0
   -4.5111   -3.1450   -3.5131 H   0  0  0  0  0  0  0  0  0  0  0  0
   -6.1132   -2.3743   -1.8146 H   0  0  0  0  0  0  0  0  0  0  0  0
   -7.0958   -1.0491    2.7803 H   0  0  0  0  0  0  0  0  0  0  0  0
   -8.7049   -1.3308    1.9998 H   0  0  0  0  0  0  0  0  0  0  0  0
   -7.2782   -2.4672    1.6738 H   0  0  0  0  0  0  0  0  0  0  0  0
  1  2  2  0
  2  3  1  0
  3  4  1  0
  4  5  1  0
  5  6  2  0
  5  7  1  0
  7  8  1  0
  7  9  1  0
  7 10  1  0
  3 11  1  0
 11 12  1  0
 12 13  1  0
 13 14  1  0
 14 15  2  0
 15 16  1  0
 16 17  2  0
 17 18  1  0
 18 19  2  0
  2 20  1  0
 20 21  1  0
 21 22  1  0
 22 23  1  0
 23 24  1  0
 24 25  1  0
 23 26  1  0
 26 27  1  0
 27 28  1  0
 28 29  2  0
 29 30  1  0
 30 31  2  0
 31 32  1  0
 32 33  2  0
 27 34  1  0
 34 35  2  0
 34 36  2  0
 34 37  1  0
 19 14  1  0
 25 20  1  0
 33 28  1  0
 29 23  1  0
  3 38  1  1
  4 39  1  0
  8 40  1  0
  8 41  1  0
  9 42  1  0
  9 43  1  0
  9 44  1  0
 10 45  1  0
 10 46  1  0
 10 47  1  0
 11 48  1  0
 11 49  1  0
 13 50  1  0
 13 51  1  0
 15 52  1  0
 16 53  1  0
 17 54  1  0
 18 55  1  0
 19 56  1  0
 21 57  1  0
 21 58  1  0
 22 59  1  0
 22 60  1  0
 24 61  1  0
 24 62  1  0
 25 63  1  0
 25 64  1  0
 26 65  1  0
 26 66  1  0
 30 67  1  0
 31 68  1  0
 32 69  1  0
 33 70  1  0
 37 71  1  0
 37 72  1  0
 37 73  1  0
M  END
>  <Ligand ID>  (1) 
LIG0003376

>  <Ligand>  (1) 
ibutamoren

>  <SMILES>  (1) 
O=C([C@H](NC(=O)C(N)(C)C)COCc1ccccc1)N1CCC2(CC1)CN(c1c2cccc1)S(=O)(=O)C

>  <CID>  (1) 
178024.0

>  <ChEMBL ID>  (1) 
nan

>  <InChiKey>  (1) 
UMUPQWIGCOZEOY-JOCHJYFZSA-N

>  <InChi>  (1) 
InChI=1S/C27H36N4O5S/c1-26(2,28)25(33)29-22(18-36-17-20-9-5-4-6-10-20)24(32)30-15-13-27(14-16-30)19-31(37(3,34)35)23-12-8-7-11-21(23)27/h4-12,22H,13-19,28H2,1-3H3,(H,29,33)/t22-/m1/s1

>  <IUPAC Name>  (1) 
2-amino-2-methyl-N-[(2R)-1-(1-methylsulfonylspiro[2H-indole-3,4'-piperidine]-1'-yl)-1-oxo-3-phenylmethoxypropan-2-yl]propanamide

$$$$
