
     RDKit          3D

 68 71  0  0  0  0  0  0  0  0999 V2000
   -5.0369    0.4093    3.6129 C   0  0  0  0  0  0  0  0  0  0  0  0
   -5.7898   -0.1909    2.4433 C   0  0  0  0  0  0  0  0  0  0  0  0
   -4.9043   -0.2181    1.3464 O   0  0  0  0  0  0  0  0  0  0  0  0
   -5.2605   -0.7091    0.0942 C   0  0  0  0  0  0  0  0  0  0  0  0
   -6.5208   -1.2145   -0.1804 C   0  0  0  0  0  0  0  0  0  0  0  0
   -6.8581   -1.7018   -1.4416 C   0  0  0  0  0  0  0  0  0  0  0  0
   -5.9231   -1.6892   -2.4607 C   0  0  0  0  0  0  0  0  0  0  0  0
   -4.6645   -1.1874   -2.1963 C   0  0  0  0  0  0  0  0  0  0  0  0
   -4.3306   -0.6988   -0.9267 C   0  0  0  0  0  0  0  0  0  0  0  0
   -3.0092   -0.2102   -0.7779 N   0  0  0  0  0  0  0  0  0  0  0  0
   -2.6866    1.1475   -0.3994 C   0  0  0  0  0  0  0  0  0  0  0  0
   -1.6101    1.0572    0.6616 C   0  0  0  0  0  0  0  0  0  0  0  0
   -0.4434    0.4562    0.0128 N   0  0  0  0  0  0  0  0  0  0  0  0
   -0.6070   -0.3272   -1.2057 C   0  0  0  0  0  0  0  0  0  0  0  0
   -1.8968   -1.1412   -1.0241 C   0  0  0  0  0  0  0  0  0  0  0  0
    0.8067    0.6791    0.6319 C   0  0  0  0  0  0  0  0  0  0  0  0
    0.8291    1.3633    1.6762 O   0  0  0  0  0  0  0  0  0  0  0  0
    2.0727    0.1648    0.1360 C   0  0  0  0  0  0  0  0  0  0  0  0
    2.5016   -1.0859    0.5567 C   0  0  0  0  0  0  0  0  0  0  0  0
    3.6999   -1.6348    0.1190 C   0  0  0  0  0  0  0  0  0  0  0  0
    4.4527   -0.8830   -0.7567 C   0  0  0  0  0  0  0  0  0  0  0  0
    4.0418    0.3706   -1.1901 C   0  0  0  0  0  0  0  0  0  0  0  0
    2.8462    0.8929   -0.7394 C   0  0  0  0  0  0  0  0  0  0  0  0
    2.4520    2.1973   -1.2086 N   0  0  0  0  0  0  0  0  0  0  0  0
    1.2966    2.5845   -1.9575 C   0  0  0  0  0  0  0  0  0  0  0  0
    1.7391    3.8440   -2.6715 C   0  0  0  0  0  0  0  0  0  0  0  0
    3.1353    4.1454   -2.2302 C   0  0  0  0  0  0  0  0  0  0  0  0
    3.2773    3.3651   -0.9355 C   0  0  0  0  0  0  0  0  0  0  0  0
    4.2499   -3.1927    0.6332 S   0  0  0  0  0  0  0  0  0  0  0  0
    3.0335   -3.9971    1.0522 O   0  0  0  0  0  0  0  0  0  0  0  0
    4.9853   -3.9496   -0.4226 O   0  0  0  0  0  0  0  0  0  0  0  0
    5.2138   -3.0373    2.0683 N   0  0  0  0  0  0  0  0  0  0  0  0
    4.4643   -2.4842    3.1540 C   0  0  0  0  0  0  0  0  0  0  0  0
    6.4693   -2.3621    1.8085 C   0  0  0  0  0  0  0  0  0  0  0  0
   -4.1328   -0.1971    3.7800 H   0  0  0  0  0  0  0  0  0  0  0  0
   -4.6904    1.4416    3.3898 H   0  0  0  0  0  0  0  0  0  0  0  0
   -5.7108    0.3644    4.4955 H   0  0  0  0  0  0  0  0  0  0  0  0
   -6.0197   -1.2437    2.6933 H   0  0  0  0  0  0  0  0  0  0  0  0
   -6.6938    0.3998    2.1959 H   0  0  0  0  0  0  0  0  0  0  0  0
   -7.2709   -1.2358    0.5994 H   0  0  0  0  0  0  0  0  0  0  0  0
   -7.8254   -2.0982   -1.6810 H   0  0  0  0  0  0  0  0  0  0  0  0
   -6.1450   -2.0616   -3.4654 H   0  0  0  0  0  0  0  0  0  0  0  0
   -3.9137   -1.1737   -3.0025 H   0  0  0  0  0  0  0  0  0  0  0  0
   -2.2106    1.6645   -1.2619 H   0  0  0  0  0  0  0  0  0  0  0  0
   -3.5224    1.7104   -0.0003 H   0  0  0  0  0  0  0  0  0  0  0  0
   -1.3566    2.0384    1.1070 H   0  0  0  0  0  0  0  0  0  0  0  0
   -1.9299    0.3214    1.4393 H   0  0  0  0  0  0  0  0  0  0  0  0
   -0.7584    0.3787   -2.0399 H   0  0  0  0  0  0  0  0  0  0  0  0
    0.2175   -1.0148   -1.3790 H   0  0  0  0  0  0  0  0  0  0  0  0
   -2.0359   -1.7320   -1.9400 H   0  0  0  0  0  0  0  0  0  0  0  0
   -1.7600   -1.8256   -0.1826 H   0  0  0  0  0  0  0  0  0  0  0  0
    1.8640   -1.6392    1.2526 H   0  0  0  0  0  0  0  0  0  0  0  0
    5.3989   -1.2944   -1.1144 H   0  0  0  0  0  0  0  0  0  0  0  0
    4.6528    0.9334   -1.8748 H   0  0  0  0  0  0  0  0  0  0  0  0
    0.4031    2.7515   -1.3417 H   0  0  0  0  0  0  0  0  0  0  0  0
    1.0740    1.7696   -2.6967 H   0  0  0  0  0  0  0  0  0  0  0  0
    1.7162    3.7434   -3.7693 H   0  0  0  0  0  0  0  0  0  0  0  0
    1.0832    4.6736   -2.3114 H   0  0  0  0  0  0  0  0  0  0  0  0
    3.3291    5.2066   -2.0215 H   0  0  0  0  0  0  0  0  0  0  0  0
    3.8776    3.7052   -2.9491 H   0  0  0  0  0  0  0  0  0  0  0  0
    2.8657    3.9129   -0.0702 H   0  0  0  0  0  0  0  0  0  0  0  0
    4.3254    3.1098   -0.7373 H   0  0  0  0  0  0  0  0  0  0  0  0
    5.2039   -1.9046    3.7765 H   0  0  0  0  0  0  0  0  0  0  0  0
    3.7280   -1.7266    2.7689 H   0  0  0  0  0  0  0  0  0  0  0  0
    3.9253   -3.2273    3.7605 H   0  0  0  0  0  0  0  0  0  0  0  0
    6.2648   -1.4267    1.2523 H   0  0  0  0  0  0  0  0  0  0  0  0
    7.1470   -2.9960    1.2333 H   0  0  0  0  0  0  0  0  0  0  0  0
    6.8748   -2.0906    2.8120 H   0  0  0  0  0  0  0  0  0  0  0  0
  1  2  1  0
  2  3  1  0
  3  4  1  0
  4  5  2  0
  5  6  1  0
  6  7  2  0
  7  8  1  0
  8  9  2  0
  9 10  1  0
 10 11  1  0
 11 12  1  0
 12 13  1  0
 13 14  1  0
 14 15  1  0
 13 16  1  0
 16 17  2  0
 16 18  1  0
 18 19  2  0
 19 20  1  0
 20 21  2  0
 21 22  1  0
 22 23  2  0
 23 24  1  0
 24 25  1  0
 25 26  1  0
 26 27  1  0
 27 28  1  0
 20 29  1  0
 29 30  2  0
 29 31  2  0
 29 32  1  0
 32 33  1  0
 32 34  1  0
  9  4  1  0
 15 10  1  0
 23 18  1  0
 28 24  1  0
  1 35  1  0
  1 36  1  0
  1 37  1  0
  2 38  1  0
  2 39  1  0
  5 40  1  0
  6 41  1  0
  7 42  1  0
  8 43  1  0
 11 44  1  0
 11 45  1  0
 12 46  1  0
 12 47  1  0
 14 48  1  0
 14 49  1  0
 15 50  1  0
 15 51  1  0
 19 52  1  0
 21 53  1  0
 22 54  1  0
 25 55  1  0
 25 56  1  0
 26 57  1  0
 26 58  1  0
 27 59  1  0
 27 60  1  0
 28 61  1  0
 28 62  1  0
 33 63  1  0
 33 64  1  0
 33 65  1  0
 34 66  1  0
 34 67  1  0
 34 68  1  0
M  END
>  <Ligand ID>  (1) 
LIG0001957

>  <Ligand>  (1) 
MLS-0421957.0001

>  <SMILES>  (1) 
CCOc1ccccc1N1CCN(CC1)C(=O)c1cc(ccc1N1CCCC1)S(=O)(=O)N(C)C

>  <CID>  (1) 
25161603.0

>  <ChEMBL ID>  (1) 
nan

>  <InChiKey>  (1) 
FFZVSWSBYQHFGC-UHFFFAOYSA-N

>  <InChi>  (1) 
InChI=1S/C25H34N4O4S/c1-4-33-24-10-6-5-9-23(24)28-15-17-29(18-16-28)25(30)21-19-20(34(31,32)26(2)3)11-12-22(21)27-13-7-8-14-27/h5-6,9-12,19H,4,7-8,13-18H2,1-3H3

>  <IUPAC Name>  (1) 
3-[4-(2-ethoxyphenyl)piperazine-1-carbonyl]-N,N-dimethyl-4-pyrrolidin-1-ylbenzenesulfonamide

$$$$
