
     RDKit          3D

 11 10  0  0  0  0  0  0  0  0999 V2000
   -2.6445    0.4106   -0.7504 C   0  0  0  0  0  0  0  0  0  0  0  0
   -1.0561    1.2920   -0.4904 S   0  0  0  0  0  0  0  0  0  0  0  0
   -0.0876    0.2375    1.1019 S   0  0  0  0  0  0  0  0  0  0  0  0
    1.0513   -1.2521    0.0455 S   0  0  0  0  0  0  0  0  0  0  0  0
    2.6450   -0.4647   -0.2705 C   0  0  0  0  0  0  0  0  0  0  0  0
   -3.0570    0.5971   -1.7568 H   0  0  0  0  0  0  0  0  0  0  0  0
   -3.3688    0.8896   -0.0285 H   0  0  0  0  0  0  0  0  0  0  0  0
   -2.5097   -0.6519   -0.5245 H   0  0  0  0  0  0  0  0  0  0  0  0
    3.0648   -0.8157   -1.2397 H   0  0  0  0  0  0  0  0  0  0  0  0
    3.3484   -0.8828    0.5096 H   0  0  0  0  0  0  0  0  0  0  0  0
    2.6143    0.6404   -0.2544 H   0  0  0  0  0  0  0  0  0  0  0  0
  1  2  1  0
  2  3  1  0
  3  4  1  0
  4  5  1  0
  1  6  1  0
  1  7  1  0
  1  8  1  0
  5  9  1  0
  5 10  1  0
  5 11  1  0
M  END
>  <Ligand ID>  (1) 
LIG0000181

>  <Ligand>  (1) 
Dimethyl trisulfide

>  <SMILES>  (1) 
CSSSC

>  <CID>  (1) 
19310.0

>  <ChEMBL ID>  (1) 
nan

>  <InChiKey>  (1) 
YWHLKYXPLRWGSE-UHFFFAOYSA-N

>  <InChi>  (1) 
InChI=1S/C2H6S3/c1-3-5-4-2/h1-2H3

>  <IUPAC Name>  (1) 
(methyltrisulfanyl)methane

$$$$
