
     RDKit          3D

 28 29  0  0  0  0  0  0  0  0999 V2000
   -4.7813   -0.1159   -0.5397 N   0  0  0  0  0  0  0  0  0  0  0  0
   -3.7242   -0.1489    0.4711 C   0  0  0  0  0  0  0  0  0  0  0  0
   -2.3917   -0.4750   -0.1906 C   0  0  1  0  0  0  0  0  0  0  0  0
   -2.0151    0.5504   -1.2311 C   0  0  0  0  0  0  0  0  0  0  0  0
   -1.2974    0.4427    0.0990 C   0  0  2  0  0  0  0  0  0  0  0  0
    0.1362    0.0639   -0.0885 C   0  0  0  0  0  0  0  0  0  0  0  0
    0.4919   -0.9581   -0.9619 C   0  0  0  0  0  0  0  0  0  0  0  0
    1.8276   -1.3198   -1.1445 C   0  0  0  0  0  0  0  0  0  0  0  0
    2.8228   -0.6624   -0.4546 C   0  0  0  0  0  0  0  0  0  0  0  0
    2.4721    0.3535    0.4140 C   0  0  0  0  0  0  0  0  0  0  0  0
    1.1606    0.6977    0.5834 C   0  0  0  0  0  0  0  0  0  0  0  0
    3.4320    1.0637    1.1473 O   0  0  0  0  0  0  0  0  0  0  0  0
    4.8129    0.7459    1.0084 C   0  0  0  0  0  0  0  0  0  0  0  0
   -4.4613    0.4747   -1.3316 H   0  0  0  0  0  0  0  0  0  0  0  0
   -4.9906   -1.0738   -0.8851 H   0  0  0  0  0  0  0  0  0  0  0  0
   -3.9909   -0.8916    1.2511 H   0  0  0  0  0  0  0  0  0  0  0  0
   -3.6859    0.8425    0.9516 H   0  0  0  0  0  0  0  0  0  0  0  0
   -2.2684   -1.5461   -0.4106 H   0  0  0  0  0  0  0  0  0  0  0  0
   -1.5727    0.1569   -2.1426 H   0  0  0  0  0  0  0  0  0  0  0  0
   -2.6130    1.4762   -1.3604 H   0  0  0  0  0  0  0  0  0  0  0  0
   -1.4357    1.2701    0.8215 H   0  0  0  0  0  0  0  0  0  0  0  0
   -0.2483   -1.4890   -1.5125 H   0  0  0  0  0  0  0  0  0  0  0  0
    2.1005   -2.1144   -1.8240 H   0  0  0  0  0  0  0  0  0  0  0  0
    3.8820   -0.9049   -0.5598 H   0  0  0  0  0  0  0  0  0  0  0  0
    0.8814    1.4931    1.2630 H   0  0  0  0  0  0  0  0  0  0  0  0
    5.3811    1.5858    1.4741 H   0  0  0  0  0  0  0  0  0  0  0  0
    5.0454   -0.2408    1.4486 H   0  0  0  0  0  0  0  0  0  0  0  0
    5.0299    0.7236   -0.0745 H   0  0  0  0  0  0  0  0  0  0  0  0
  1  2  1  0
  2  3  1  0
  3  4  1  0
  4  5  1  0
  5  6  1  0
  6  7  2  0
  7  8  1  0
  8  9  2  0
  9 10  1  0
 10 11  2  0
 10 12  1  0
 12 13  1  0
  5  3  1  0
 11  6  1  0
  1 14  1  0
  1 15  1  0
  2 16  1  0
  2 17  1  0
  3 18  1  6
  4 19  1  0
  4 20  1  0
  5 21  1  1
  7 22  1  0
  8 23  1  0
  9 24  1  0
 11 25  1  0
 13 26  1  0
 13 27  1  0
 13 28  1  0
M  END
>  <Ligand ID>  (1) 
LIG0004830

>  <Ligand>  (1) 
CHEMBL493129

>  <SMILES>  (1) 
NC[C@H]1C[C@@H]1c1cccc(c1)OC

>  <CID>  (1) 
44572806.0

>  <ChEMBL ID>  (1) 
nan

>  <InChiKey>  (1) 
AJKHCYJJCNCJBK-MWLCHTKSSA-N

>  <InChi>  (1) 
InChI=1S/C11H15NO/c1-13-10-4-2-3-8(5-10)11-6-9(11)7-12/h2-5,9,11H,6-7,12H2,1H3/t9-,11-/m1/s1

>  <IUPAC Name>  (1) 
[(1S,2S)-2-(3-methoxyphenyl)cyclopropyl]methanamine

$$$$
