
     RDKit          3D

 36 38  0  0  0  0  0  0  0  0999 V2000
   -3.9235    1.1617    1.0484 C   0  0  0  0  0  0  0  0  0  0  0  0
   -3.0736    0.0256    1.3933 N   0  0  0  0  0  0  0  0  0  0  0  0
   -3.1367   -0.5820    2.5518 N   0  0  0  0  0  0  0  0  0  0  0  0
   -2.2469   -1.5860    2.5952 C   0  0  0  0  0  0  0  0  0  0  0  0
   -1.6132   -1.5699    1.3749 C   0  0  0  0  0  0  0  0  0  0  0  0
   -2.1216   -0.5585    0.6016 C   0  0  0  0  0  0  0  0  0  0  0  0
   -1.8277   -0.0989   -0.7197 C   0  0  0  0  0  0  0  0  0  0  0  0
   -2.9160    0.1368   -1.5725 C   0  0  0  0  0  0  0  0  0  0  0  0
   -2.7379    0.5836   -2.8661 C   0  0  0  0  0  0  0  0  0  0  0  0
   -1.4782    0.8174   -3.3747 C   0  0  0  0  0  0  0  0  0  0  0  0
   -0.4129    0.5841   -2.5313 C   0  0  0  0  0  0  0  0  0  0  0  0
   -0.5812    0.1383   -1.2384 C   0  0  0  0  0  0  0  0  0  0  0  0
    0.5571   -0.0687   -0.4139 N   0  0  0  0  0  0  0  0  0  0  0  0
    1.8912    0.1733   -0.9448 C   0  0  0  0  0  0  0  0  0  0  0  0
    2.9585   -0.0927    0.0500 C   0  0  0  0  0  0  0  0  0  0  0  0
    2.7069   -0.4949    1.2525 N   0  0  0  0  0  0  0  0  0  0  0  0
    3.9323   -0.6743    2.0052 C   0  0  0  0  0  0  0  0  0  0  0  0
    4.9089    0.1711    1.2124 C   0  0  0  0  0  0  0  0  0  0  0  0
    4.3611    0.0392   -0.1305 N   0  0  0  0  0  0  0  0  0  0  0  0
   -4.9424    0.8712    0.7521 H   0  0  0  0  0  0  0  0  0  0  0  0
   -4.0683    1.8239    1.9472 H   0  0  0  0  0  0  0  0  0  0  0  0
   -3.4339    1.7969    0.2822 H   0  0  0  0  0  0  0  0  0  0  0  0
   -2.0552   -2.2819    3.4254 H   0  0  0  0  0  0  0  0  0  0  0  0
   -0.8447   -2.2516    1.0815 H   0  0  0  0  0  0  0  0  0  0  0  0
   -3.9363   -0.0260   -1.2388 H   0  0  0  0  0  0  0  0  0  0  0  0
   -3.6024    0.7632   -3.5211 H   0  0  0  0  0  0  0  0  0  0  0  0
   -1.3279    1.1673   -4.3867 H   0  0  0  0  0  0  0  0  0  0  0  0
    0.5869    0.7499   -2.8766 H   0  0  0  0  0  0  0  0  0  0  0  0
    0.5146   -0.3868    0.5769 H   0  0  0  0  0  0  0  0  0  0  0  0
    2.0093    1.1863   -1.3596 H   0  0  0  0  0  0  0  0  0  0  0  0
    2.0702   -0.5299   -1.7824 H   0  0  0  0  0  0  0  0  0  0  0  0
    3.8174   -0.3294    3.0518 H   0  0  0  0  0  0  0  0  0  0  0  0
    4.3148   -1.7211    1.9478 H   0  0  0  0  0  0  0  0  0  0  0  0
    5.9513   -0.2088    1.2889 H   0  0  0  0  0  0  0  0  0  0  0  0
    4.8303    1.2331    1.5661 H   0  0  0  0  0  0  0  0  0  0  0  0
    4.8696    0.0385   -1.0479 H   0  0  0  0  0  0  0  0  0  0  0  0
  1  2  1  0
  2  3  1  0
  3  4  2  0
  4  5  1  0
  5  6  2  0
  6  7  1  0
  7  8  2  0
  8  9  1  0
  9 10  2  0
 10 11  1  0
 11 12  2  0
 12 13  1  0
 13 14  1  0
 14 15  1  0
 15 16  2  0
 16 17  1  0
 17 18  1  0
 18 19  1  0
  6  2  1  0
 12  7  1  0
 19 15  1  0
  1 20  1  0
  1 21  1  0
  1 22  1  0
  4 23  1  0
  5 24  1  0
  8 25  1  0
  9 26  1  0
 10 27  1  0
 11 28  1  0
 13 29  1  0
 14 30  1  0
 14 31  1  0
 17 32  1  0
 17 33  1  0
 18 34  1  0
 18 35  1  0
 19 36  1  0
M  END
>  <Ligand ID>  (1) 
LIG0004558

>  <Ligand>  (1) 
CHEMBL17851

>  <SMILES>  (1) 
Cn1nccc1c1ccccc1NCC1=NCCN1

>  <CID>  (1) 
9837963.0

>  <ChEMBL ID>  (1) 
nan

>  <InChiKey>  (1) 
QBNMURIWVMBLCJ-UHFFFAOYSA-N

>  <InChi>  (1) 
InChI=1S/C14H17N5/c1-19-13(6-7-18-19)11-4-2-3-5-12(11)17-10-14-15-8-9-16-14/h2-7,17H,8-10H2,1H3,(H,15,16)

>  <IUPAC Name>  (1) 
N-(4,5-dihydro-1H-imidazol-2-ylmethyl)-2-(2-methylpyrazol-3-yl)aniline

$$$$
