
     RDKit          3D

 34 34  0  0  0  0  0  0  0  0999 V2000
    4.0817   -2.5129    0.5154 C   0  0  0  0  0  0  0  0  0  0  0  0
    3.2736   -1.9674   -0.3707 C   0  0  0  0  0  0  0  0  0  0  0  0
    2.9133   -0.5363   -0.3476 C   0  0  0  0  0  0  0  0  0  0  0  0
    1.5188   -0.3932   -0.2031 O   0  0  0  0  0  0  0  0  0  0  0  0
    0.9644    0.8784   -0.1582 C   0  0  0  0  0  0  0  0  0  0  0  0
    1.7142    2.0287   -0.2485 C   0  0  0  0  0  0  0  0  0  0  0  0
    1.1544    3.2877   -0.2029 C   0  0  0  0  0  0  0  0  0  0  0  0
   -0.2057    3.3927   -0.0615 C   0  0  0  0  0  0  0  0  0  0  0  0
   -0.9586    2.2376    0.0292 C   0  0  0  0  0  0  0  0  0  0  0  0
   -0.4241    0.9748   -0.0138 C   0  0  0  0  0  0  0  0  0  0  0  0
   -1.2211   -0.2701    0.0825 C   0  0  1  0  0  0  0  0  0  0  0  0
   -1.4011   -0.7647    1.5145 C   0  0  0  0  0  0  0  0  0  0  0  0
   -2.5583   -0.2564    0.6810 C   0  0  2  0  0  0  0  0  0  0  0  0
   -3.6007   -1.2627    0.3257 C   0  0  0  0  0  0  0  0  0  0  0  0
   -3.8991   -1.1984   -1.0907 N   0  0  0  0  0  0  0  0  0  0  0  0
   -0.8045    4.6152   -0.0115 F   0  0  0  0  0  0  0  0  0  0  0  0
    0.6843    0.0000    0.0000 Cl  0  0  0  0  0  0  0  0  0  0  0  0
    4.5257   -1.9292    1.3133 H   0  0  0  0  0  0  0  0  0  0  0  0
    4.3273   -3.5582    0.4752 H   0  0  0  0  0  0  0  0  0  0  0  0
    2.8449   -2.5783   -1.1576 H   0  0  0  0  0  0  0  0  0  0  0  0
    3.2644   -0.0640   -1.2912 H   0  0  0  0  0  0  0  0  0  0  0  0
    3.3976   -0.0287    0.5082 H   0  0  0  0  0  0  0  0  0  0  0  0
    2.7913    1.9124   -0.3601 H   0  0  0  0  0  0  0  0  0  0  0  0
    1.7495    4.1844   -0.2744 H   0  0  0  0  0  0  0  0  0  0  0  0
   -2.0173    2.3572    0.1388 H   0  0  0  0  0  0  0  0  0  0  0  0
   -0.9274   -1.0533   -0.6489 H   0  0  0  0  0  0  0  0  0  0  0  0
   -1.3099   -1.8617    1.6765 H   0  0  0  0  0  0  0  0  0  0  0  0
   -1.0525   -0.1231    2.3518 H   0  0  0  0  0  0  0  0  0  0  0  0
   -2.9813    0.7420    0.9285 H   0  0  0  0  0  0  0  0  0  0  0  0
   -4.5027   -1.1658    0.9516 H   0  0  0  0  0  0  0  0  0  0  0  0
   -3.1861   -2.2776    0.4940 H   0  0  0  0  0  0  0  0  0  0  0  0
   -3.1441   -0.7649   -1.6470 H   0  0  0  0  0  0  0  0  0  0  0  0
   -4.3265   -2.0441   -1.4794 H   0  0  0  0  0  0  0  0  0  0  0  0
   -0.6843    0.0000    0.0000 H   0  0  0  0  0  0  0  0  0  0  0  0
  1  2  2  0
  2  3  1  0
  3  4  1  0
  4  5  1  0
  5  6  2  0
  6  7  1  0
  7  8  2  0
  8  9  1  0
  9 10  2  0
 10 11  1  0
 11 12  1  0
 12 13  1  0
 13 14  1  0
 14 15  1  0
  8 16  1  0
 10  5  1  0
 13 11  1  0
  1 18  1  0
  1 19  1  0
  2 20  1  0
  3 21  1  0
  3 22  1  0
  6 23  1  0
  7 24  1  0
  9 25  1  0
 11 26  1  6
 12 27  1  0
 12 28  1  0
 13 29  1  1
 14 30  1  0
 14 31  1  0
 15 32  1  0
 15 33  1  0
 17 34  1  0
M  END
>  <Ligand ID>  (1) 
LIG0005654

>  <Ligand>  (1) 
CHEMBL3416063

>  <SMILES>  (1) 
C=CCOc1ccc(cc1[C@H]1C[C@@H]1CN)F.Cl

>  <CID>  (1) 
92042918.0

>  <ChEMBL ID>  (1) 
nan

>  <InChiKey>  (1) 
MNIAWGCBQVLINM-XQKZEKTMSA-N

>  <InChi>  (1) 
InChI=1S/C13H16FNO.ClH/c1-2-5-16-13-4-3-10(14)7-12(13)11-6-9(11)8-15;/h2-4,7,9,11H,1,5-6,8,15H2;1H/t9-,11+;/m1./s1

>  <IUPAC Name>  (1) 
[(1S,2S)-2-(5-fluoro-2-prop-2-enoxyphenyl)cyclopropyl]methanamine;hydrochloride

$$$$
