
     RDKit          3D

109112  0  0  0  0  0  0  0  0999 V2000
   -4.4254   -6.9301    1.4727 N   0  0  0  0  0  0  0  0  0  0  0  0
   -5.1620   -5.7083    1.4893 C   0  0  0  0  0  0  0  0  0  0  0  0
   -4.5813   -4.5474    1.3810 N   0  0  0  0  0  0  0  0  0  0  0  0
   -5.3399   -3.3337    1.4025 C   0  0  0  0  0  0  0  0  0  0  0  0
   -4.6167   -2.2634    0.5991 C   0  0  0  0  0  0  0  0  0  0  0  0
   -3.2668   -1.9717    1.1322 C   0  0  0  0  0  0  0  0  0  0  0  0
   -2.5453   -0.9244    0.4347 C   0  0  1  0  0  0  0  0  0  0  0  0
   -2.9498    0.4630    0.3810 C   0  0  0  0  0  0  0  0  0  0  0  0
   -2.0249    1.2718   -0.0730 O   0  0  0  0  0  0  0  0  0  0  0  0
   -4.1411    1.1047    0.7268 N   0  0  0  0  0  0  0  0  0  0  0  0
   -4.2638    2.5205    0.5242 C   0  0  2  0  0  0  0  0  0  0  0  0
   -4.0537    3.1263    1.9038 C   0  0  0  0  0  0  0  0  0  0  0  0
   -3.8499    2.4124    2.9090 O   0  0  0  0  0  0  0  0  0  0  0  0
   -4.0879    4.5447    2.0720 N   0  0  0  0  0  0  0  0  0  0  0  0
   -5.5485    2.9737   -0.0605 C   0  0  0  0  0  0  0  0  0  0  0  0
   -6.7132    2.6370    0.7826 C   0  0  0  0  0  0  0  0  0  0  0  0
   -7.2155    3.5530    1.7203 C   0  0  0  0  0  0  0  0  0  0  0  0
   -8.2436    2.9962    2.3843 N   0  0  0  0  0  0  0  0  0  0  0  0
   -8.4417    1.7378    1.9158 C   0  0  0  0  0  0  0  0  0  0  0  0
   -7.4831    1.5333    0.9233 C   0  0  0  0  0  0  0  0  0  0  0  0
   -7.4828    0.3198    0.2681 C   0  0  0  0  0  0  0  0  0  0  0  0
   -8.3860   -0.6643    0.5703 C   0  0  0  0  0  0  0  0  0  0  0  0
   -9.3271   -0.4722    1.5423 C   0  0  0  0  0  0  0  0  0  0  0  0
   -9.3706    0.7325    2.2310 C   0  0  0  0  0  0  0  0  0  0  0  0
   -1.1102   -1.1381    0.4861 N   0  0  0  0  0  0  0  0  0  0  0  0
   -0.2235   -0.8410   -0.5917 C   0  0  0  0  0  0  0  0  0  0  0  0
   -0.6563   -0.3364   -1.6822 O   0  0  0  0  0  0  0  0  0  0  0  0
    1.1969   -1.1429   -0.3773 C   0  0  2  0  0  0  0  0  0  0  0  0
    2.0791   -0.5420   -1.3829 N   0  0  0  0  0  0  0  0  0  0  0  0
    3.2627    0.0193   -0.9310 C   0  0  0  0  0  0  0  0  0  0  0  0
    3.5491   -0.0194    0.3196 O   0  0  0  0  0  0  0  0  0  0  0  0
    4.3066    0.7000   -1.7701 C   0  0  1  0  0  0  0  0  0  0  0  0
    5.3651    1.0087   -0.8266 N   0  0  0  0  0  0  0  0  0  0  0  0
    5.4550    2.2924   -0.1666 C   0  0  0  0  0  0  0  0  0  0  0  0
    4.6277    3.2109   -0.3782 O   0  0  0  0  0  0  0  0  0  0  0  0
    6.5983    2.4295    0.7803 C   0  0  1  0  0  0  0  0  0  0  0  0
    6.4816    3.7246    1.4372 N   0  0  0  0  0  0  0  0  0  0  0  0
    7.5115    4.6956    1.4664 C   0  0  0  0  0  0  0  0  0  0  0  0
    8.5938    4.4591    0.9000 O   0  0  0  0  0  0  0  0  0  0  0  0
    7.2016    5.9658    2.1967 C   0  0  0  0  0  0  0  0  0  0  0  0
    6.5966    1.3077    1.7950 C   0  0  0  0  0  0  0  0  0  0  0  0
    7.7219    1.3903    2.7891 C   0  0  0  0  0  0  0  0  0  0  0  0
    9.0699    1.3366    2.1940 C   0  0  0  0  0  0  0  0  0  0  0  0
    9.3385    1.2040    0.9857 O   0  0  0  0  0  0  0  0  0  0  0  0
   10.1648    1.4440    3.0653 O   0  0  0  0  0  0  0  0  0  0  0  0
    4.6783   -0.1623   -2.9058 C   0  0  0  0  0  0  0  0  0  0  0  0
    5.6854    0.3581   -3.8358 C   0  0  0  0  0  0  0  0  0  0  0  0
    6.1410   -0.2879   -4.9289 N   0  0  0  0  0  0  0  0  0  0  0  0
    7.0448    0.4691   -5.5377 C   0  0  0  0  0  0  0  0  0  0  0  0
    7.2094    1.6249   -4.8699 N   0  0  0  0  0  0  0  0  0  0  0  0
    6.3780    1.5739   -3.8170 C   0  0  0  0  0  0  0  0  0  0  0  0
    1.4536   -2.6496   -0.5440 C   0  0  0  0  0  0  0  0  0  0  0  0
    1.0869   -3.0740   -1.9219 C   0  0  0  0  0  0  0  0  0  0  0  0
    2.1063   -3.0086   -2.8869 C   0  0  0  0  0  0  0  0  0  0  0  0
    1.8195   -3.3786   -4.2008 C   0  0  0  0  0  0  0  0  0  0  0  0
    0.5534   -3.7980   -4.5246 C   0  0  0  0  0  0  0  0  0  0  0  0
   -0.4734   -3.8760   -3.6041 C   0  0  0  0  0  0  0  0  0  0  0  0
   -0.1516   -3.4966   -2.2913 C   0  0  0  0  0  0  0  0  0  0  0  0
   -6.5957   -5.7334    1.6232 N   0  0  0  0  0  0  0  0  0  0  0  0
   -4.4950   -7.4953    0.5908 H   0  0  0  0  0  0  0  0  0  0  0  0
   -3.8640   -7.2172    2.3011 H   0  0  0  0  0  0  0  0  0  0  0  0
   -5.6283   -2.9741    2.3912 H   0  0  0  0  0  0  0  0  0  0  0  0
   -6.3021   -3.5052    0.8268 H   0  0  0  0  0  0  0  0  0  0  0  0
   -5.2565   -1.4161    0.5324 H   0  0  0  0  0  0  0  0  0  0  0  0
   -4.4747   -2.7154   -0.4278 H   0  0  0  0  0  0  0  0  0  0  0  0
   -2.6352   -2.9231    1.0850 H   0  0  0  0  0  0  0  0  0  0  0  0
   -3.2857   -1.7832    2.2515 H   0  0  0  0  0  0  0  0  0  0  0  0
   -2.7140   -1.2365   -0.7357 H   0  0  0  0  0  0  0  0  0  0  0  0
   -4.9031    0.5910    1.1481 H   0  0  0  0  0  0  0  0  0  0  0  0
   -3.4377    2.9039   -0.1352 H   0  0  0  0  0  0  0  0  0  0  0  0
   -4.4585    5.0101    2.9362 H   0  0  0  0  0  0  0  0  0  0  0  0
   -3.7291    5.1944    1.3054 H   0  0  0  0  0  0  0  0  0  0  0  0
   -5.5297    4.0668   -0.3192 H   0  0  0  0  0  0  0  0  0  0  0  0
   -5.6998    2.4897   -1.0848 H   0  0  0  0  0  0  0  0  0  0  0  0
   -6.8586    4.5689    1.9091 H   0  0  0  0  0  0  0  0  0  0  0  0
   -8.8487    3.3806    3.1438 H   0  0  0  0  0  0  0  0  0  0  0  0
   -6.7331    0.1678   -0.5082 H   0  0  0  0  0  0  0  0  0  0  0  0
   -8.4034   -1.6336    0.0580 H   0  0  0  0  0  0  0  0  0  0  0  0
  -10.0512   -1.2439    1.7995 H   0  0  0  0  0  0  0  0  0  0  0  0
  -10.1163    0.8502    2.9869 H   0  0  0  0  0  0  0  0  0  0  0  0
   -0.7387   -1.5383    1.3844 H   0  0  0  0  0  0  0  0  0  0  0  0
    1.5286   -0.8516    0.6037 H   0  0  0  0  0  0  0  0  0  0  0  0
    1.8536   -0.5193   -2.3962 H   0  0  0  0  0  0  0  0  0  0  0  0
    3.7954    1.6493   -2.0863 H   0  0  0  0  0  0  0  0  0  0  0  0
    6.0582    0.2516   -0.6512 H   0  0  0  0  0  0  0  0  0  0  0  0
    7.5515    2.3927    0.2404 H   0  0  0  0  0  0  0  0  0  0  0  0
    5.5523    3.9067    1.9058 H   0  0  0  0  0  0  0  0  0  0  0  0
    6.1155    6.1922    2.0879 H   0  0  0  0  0  0  0  0  0  0  0  0
    7.8078    6.7689    1.7468 H   0  0  0  0  0  0  0  0  0  0  0  0
    7.4770    5.8929    3.2694 H   0  0  0  0  0  0  0  0  0  0  0  0
    6.7121    0.3487    1.2464 H   0  0  0  0  0  0  0  0  0  0  0  0
    5.6020    1.2139    2.3206 H   0  0  0  0  0  0  0  0  0  0  0  0
    7.6567    0.5066    3.5025 H   0  0  0  0  0  0  0  0  0  0  0  0
    7.5666    2.2920    3.4385 H   0  0  0  0  0  0  0  0  0  0  0  0
   11.1137    1.2233    2.7230 H   0  0  0  0  0  0  0  0  0  0  0  0
    4.9638   -1.1886   -2.5241 H   0  0  0  0  0  0  0  0  0  0  0  0
    3.7360   -0.3648   -3.4916 H   0  0  0  0  0  0  0  0  0  0  0  0
    5.7879   -1.2557   -5.2050 H   0  0  0  0  0  0  0  0  0  0  0  0
    7.5602    0.1518   -6.4567 H   0  0  0  0  0  0  0  0  0  0  0  0
    6.2151    2.3259   -3.0272 H   0  0  0  0  0  0  0  0  0  0  0  0
    0.9383   -3.2569    0.1949 H   0  0  0  0  0  0  0  0  0  0  0  0
    2.5419   -2.7831   -0.4279 H   0  0  0  0  0  0  0  0  0  0  0  0
    3.1000   -2.6793   -2.6244 H   0  0  0  0  0  0  0  0  0  0  0  0
    2.6403   -3.3040   -4.8946 H   0  0  0  0  0  0  0  0  0  0  0  0
    0.3594   -4.0772   -5.5628 H   0  0  0  0  0  0  0  0  0  0  0  0
   -1.4729   -4.2021   -3.8421 H   0  0  0  0  0  0  0  0  0  0  0  0
   -0.9336   -3.5515   -1.5765 H   0  0  0  0  0  0  0  0  0  0  0  0
   -7.0443   -4.9131    2.0977 H   0  0  0  0  0  0  0  0  0  0  0  0
   -7.1659   -6.5516    1.2537 H   0  0  0  0  0  0  0  0  0  0  0  0
  1  2  1  0
  2  3  2  3
  3  4  1  0
  4  5  1  0
  5  6  1  0
  6  7  1  0
  7  8  1  0
  8  9  2  0
  8 10  1  0
 10 11  1  0
 11 12  1  0
 12 13  2  0
 12 14  1  0
 11 15  1  0
 15 16  1  0
 16 17  2  0
 17 18  1  0
 18 19  1  0
 19 20  2  0
 20 21  1  0
 21 22  2  0
 22 23  1  0
 23 24  2  0
  7 25  1  0
 25 26  1  0
 26 27  2  0
 26 28  1  0
 28 29  1  0
 29 30  1  0
 30 31  2  0
 30 32  1  0
 32 33  1  0
 33 34  1  0
 34 35  2  0
 34 36  1  0
 36 37  1  0
 37 38  1  0
 38 39  2  0
 38 40  1  0
 36 41  1  0
 41 42  1  0
 42 43  1  0
 43 44  2  0
 43 45  1  0
 32 46  1  0
 46 47  1  0
 47 48  1  0
 48 49  1  0
 49 50  2  0
 50 51  1  0
 28 52  1  0
 52 53  1  0
 53 54  2  0
 54 55  1  0
 55 56  2  0
 56 57  1  0
 57 58  2  0
  2 59  1  0
 20 16  1  0
 51 47  2  0
 58 53  1  0
 24 19  1  0
  1 60  1  0
  1 61  1  0
  4 62  1  0
  4 63  1  0
  5 64  1  0
  5 65  1  0
  6 66  1  0
  6 67  1  0
  7 68  1  6
 10 69  1  0
 11 70  1  6
 14 71  1  0
 14 72  1  0
 15 73  1  0
 15 74  1  0
 17 75  1  0
 18 76  1  0
 21 77  1  0
 22 78  1  0
 23 79  1  0
 24 80  1  0
 25 81  1  0
 28 82  1  1
 29 83  1  0
 32 84  1  6
 33 85  1  0
 36 86  1  6
 37 87  1  0
 40 88  1  0
 40 89  1  0
 40 90  1  0
 41 91  1  0
 41 92  1  0
 42 93  1  0
 42 94  1  0
 45 95  1  0
 46 96  1  0
 46 97  1  0
 48 98  1  0
 49 99  1  0
 51100  1  0
 52101  1  0
 52102  1  0
 54103  1  0
 55104  1  0
 56105  1  0
 57106  1  0
 58107  1  0
 59108  1  0
 59109  1  0
M  END
>  <Ligand ID>  (1) 
LIG0001453

>  <Ligand>  (1) 
CHEMBL307457

>  <SMILES>  (1) 
NC(=NCCC[C@@H](C(=O)N[C@H](C(=O)N)Cc1c[nH]c2c1cccc2)NC(=O)[C@H](NC(=O)[C@@H](NC(=O)[C@@H](NC(=O)C)CCC(=O)O)Cc1[nH]cnc1)Cc1ccccc1)N

>  <CID>  (1) 
10952895.0

>  <ChEMBL ID>  (1) 
nan

>  <InChiKey>  (1) 
IBSSPYAGEMWLBR-NRQMHRBESA-N

>  <InChi>  (1) 
InChI=1S/C39H50N12O8/c1-22(52)47-29(13-14-33(53)54)36(57)51-32(18-25-20-43-21-46-25)38(59)50-31(16-23-8-3-2-4-9-23)37(58)48-28(12-7-15-44-39(41)42)35(56)49-30(34(40)55)17-24-19-45-27-11-6-5-10-26(24)27/h2-6,8-11,19-21,28-32,45H,7,12-18H2,1H3,(H2,40,55)(H,43,46)(H,47,52)(H,48,58)(H,49,56)(H,50,59)(H,51,57)(H,53,54)(H4,41,42,44)/t28-,29-,30-,31+,32-/m0/s1

>  <IUPAC Name>  (1) 
(4S)-4-acetamido-5-[[(2S)-1-[[(2R)-1-[[(2S)-1-[[(2S)-1-amino-3-(1H-indol-3-yl)-1-oxopropan-2-yl]amino]-5-(diaminomethylideneamino)-1-oxopentan-2-yl]amino]-1-oxo-3-phenylpropan-2-yl]amino]-3-(1H-imidazol-5-yl)-1-oxopropan-2-yl]amino]-5-oxopentanoic acid

$$$$
