
     RDKit          3D

 65 69  0  0  0  0  0  0  0  0999 V2000
   -1.2816    5.7924    1.5543 C   0  0  0  0  0  0  0  0  0  0  0  0
   -1.4780    4.3399    1.1895 C   0  0  0  0  0  0  0  0  0  0  0  0
   -2.8474    3.9866    1.0772 O   0  0  0  0  0  0  0  0  0  0  0  0
   -3.1057    2.6526    0.7408 C   0  0  0  0  0  0  0  0  0  0  0  0
   -2.1038    1.7318    0.5297 C   0  0  0  0  0  0  0  0  0  0  0  0
   -2.3456    0.4338    0.2024 C   0  0  0  0  0  0  0  0  0  0  0  0
   -3.6715    0.0370    0.0802 C   0  0  0  0  0  0  0  0  0  0  0  0
   -4.7168    0.9154    0.2800 C   0  0  0  0  0  0  0  0  0  0  0  0
   -4.4157    2.2238    0.6108 C   0  0  0  0  0  0  0  0  0  0  0  0
   -5.4209    3.1612    0.8260 O   0  0  0  0  0  0  0  0  0  0  0  0
   -6.7872    2.8776    0.7311 C   0  0  0  0  0  0  0  0  0  0  0  0
   -3.8858   -1.2523   -0.2426 N   0  0  0  0  0  0  0  0  0  0  0  0
   -2.8887   -2.1303   -0.4417 C   0  0  0  0  0  0  0  0  0  0  0  0
   -1.6162   -1.7129   -0.3154 N   0  0  0  0  0  0  0  0  0  0  0  0
   -1.2934   -0.4275    0.0083 C   0  0  0  0  0  0  0  0  0  0  0  0
    0.0700   -0.0816    0.1129 N   0  0  0  0  0  0  0  0  0  0  0  0
    0.7535    0.8863   -0.7002 C   0  0  0  0  0  0  0  0  0  0  0  0
    2.0023    0.2994   -1.3397 C   0  0  0  0  0  0  0  0  0  0  0  0
    2.7233   -0.5456   -0.4037 N   0  0  0  0  0  0  0  0  0  0  0  0
    1.9144   -1.5382    0.2980 C   0  0  0  0  0  0  0  0  0  0  0  0
    0.9011   -0.7597    1.1282 C   0  0  0  0  0  0  0  0  0  0  0  0
    4.1287   -0.4338   -0.1836 C   0  0  0  0  0  0  0  0  0  0  0  0
    4.7678   -1.0396    0.8869 C   0  0  0  0  0  0  0  0  0  0  0  0
    6.1415   -0.9317    1.0832 C   0  0  0  0  0  0  0  0  0  0  0  0
    6.9350   -0.2143    0.2191 C   0  0  0  0  0  0  0  0  0  0  0  0
    6.3142    0.3930   -0.8487 C   0  0  0  0  0  0  0  0  0  0  0  0
    4.9317    0.2837   -1.0455 C   0  0  0  0  0  0  0  0  0  0  0  0
    8.2871   -0.1439    0.4658 O   0  0  0  0  0  0  0  0  0  0  0  0
    9.2027    0.5537   -0.3370 C   0  0  0  0  0  0  0  0  0  0  0  0
   -3.1761   -3.5169   -0.7898 C   0  0  0  0  0  0  0  0  0  0  0  0
   -4.4915   -3.9239   -0.9143 C   0  0  0  0  0  0  0  0  0  0  0  0
   -4.8119   -5.2178   -1.2401 C   0  0  0  0  0  0  0  0  0  0  0  0
   -3.8410   -6.1733   -1.4587 C   0  0  0  0  0  0  0  0  0  0  0  0
   -2.5044   -5.7777   -1.3367 C   0  0  0  0  0  0  0  0  0  0  0  0
   -2.1921   -4.4601   -1.0052 C   0  0  0  0  0  0  0  0  0  0  0  0
   -2.0676    6.3815    1.0420 H   0  0  0  0  0  0  0  0  0  0  0  0
   -1.2864    5.9614    2.6372 H   0  0  0  0  0  0  0  0  0  0  0  0
   -0.3182    6.0906    1.0764 H   0  0  0  0  0  0  0  0  0  0  0  0
   -1.0151    4.1084    0.2069 H   0  0  0  0  0  0  0  0  0  0  0  0
   -1.0331    3.6613    1.9483 H   0  0  0  0  0  0  0  0  0  0  0  0
   -1.0902    2.0860    0.6379 H   0  0  0  0  0  0  0  0  0  0  0  0
   -5.7353    0.5829    0.1792 H   0  0  0  0  0  0  0  0  0  0  0  0
   -7.0182    2.0553    1.4424 H   0  0  0  0  0  0  0  0  0  0  0  0
   -7.3249    3.8219    1.0275 H   0  0  0  0  0  0  0  0  0  0  0  0
   -7.1041    2.5598   -0.2774 H   0  0  0  0  0  0  0  0  0  0  0  0
    1.1466    1.6830   -0.0017 H   0  0  0  0  0  0  0  0  0  0  0  0
    0.1475    1.3170   -1.5164 H   0  0  0  0  0  0  0  0  0  0  0  0
    1.7622   -0.3016   -2.2313 H   0  0  0  0  0  0  0  0  0  0  0  0
    2.6214    1.1533   -1.6693 H   0  0  0  0  0  0  0  0  0  0  0  0
    1.3093   -2.1159   -0.4352 H   0  0  0  0  0  0  0  0  0  0  0  0
    2.5073   -2.2448    0.8583 H   0  0  0  0  0  0  0  0  0  0  0  0
    1.4849    0.0023    1.6899 H   0  0  0  0  0  0  0  0  0  0  0  0
    0.3117   -1.4197    1.7678 H   0  0  0  0  0  0  0  0  0  0  0  0
    4.2348   -1.6139    1.6119 H   0  0  0  0  0  0  0  0  0  0  0  0
    6.6151   -1.4247    1.9419 H   0  0  0  0  0  0  0  0  0  0  0  0
    6.9260    0.9583   -1.5330 H   0  0  0  0  0  0  0  0  0  0  0  0
    4.5613    0.7986   -1.9173 H   0  0  0  0  0  0  0  0  0  0  0  0
    8.7331    1.4582   -0.7282 H   0  0  0  0  0  0  0  0  0  0  0  0
   10.0956    0.8743    0.2376 H   0  0  0  0  0  0  0  0  0  0  0  0
    9.4723   -0.1104   -1.1950 H   0  0  0  0  0  0  0  0  0  0  0  0
   -5.2930   -3.2146   -0.7534 H   0  0  0  0  0  0  0  0  0  0  0  0
   -5.8601   -5.5052   -1.3301 H   0  0  0  0  0  0  0  0  0  0  0  0
   -4.0855   -7.2024   -1.7177 H   0  0  0  0  0  0  0  0  0  0  0  0
   -1.7340   -6.5269   -1.5080 H   0  0  0  0  0  0  0  0  0  0  0  0
   -1.1613   -4.1610   -0.9125 H   0  0  0  0  0  0  0  0  0  0  0  0
  1  2  1  0
  2  3  1  0
  3  4  1  0
  4  5  2  0
  5  6  1  0
  6  7  2  0
  7  8  1  0
  8  9  2  0
  9 10  1  0
 10 11  1  0
  7 12  1  0
 12 13  2  0
 13 14  1  0
 14 15  2  0
 15 16  1  0
 16 17  1  0
 17 18  1  0
 18 19  1  0
 19 20  1  0
 20 21  1  0
 19 22  1  0
 22 23  2  0
 23 24  1  0
 24 25  2  0
 25 26  1  0
 26 27  2  0
 25 28  1  0
 28 29  1  0
 13 30  1  0
 30 31  2  0
 31 32  1  0
 32 33  2  0
 33 34  1  0
 34 35  2  0
  9  4  1  0
 21 16  1  0
 27 22  1  0
 35 30  1  0
 15  6  1  0
  1 36  1  0
  1 37  1  0
  1 38  1  0
  2 39  1  0
  2 40  1  0
  5 41  1  0
  8 42  1  0
 11 43  1  0
 11 44  1  0
 11 45  1  0
 17 46  1  0
 17 47  1  0
 18 48  1  0
 18 49  1  0
 20 50  1  0
 20 51  1  0
 21 52  1  0
 21 53  1  0
 23 54  1  0
 24 55  1  0
 26 56  1  0
 27 57  1  0
 29 58  1  0
 29 59  1  0
 29 60  1  0
 31 61  1  0
 32 62  1  0
 33 63  1  0
 34 64  1  0
 35 65  1  0
M  END
>  <Ligand ID>  (1) 
LIG0004467

>  <Ligand>  (1) 
CHEMBL2431237

>  <SMILES>  (1) 
CCOc1cc2c(cc1OC)nc(nc2N1CCN(CC1)c1ccc(cc1)OC)c1ccccc1

>  <CID>  (1) 
73355398.0

>  <ChEMBL ID>  (1) 
nan

>  <InChiKey>  (1) 
DJMMEPKHPYUUFQ-UHFFFAOYSA-N

>  <InChi>  (1) 
InChI=1S/C28H30N4O3/c1-4-35-26-18-23-24(19-25(26)34-3)29-27(20-8-6-5-7-9-20)30-28(23)32-16-14-31(15-17-32)21-10-12-22(33-2)13-11-21/h5-13,18-19H,4,14-17H2,1-3H3

>  <IUPAC Name>  (1) 
6-ethoxy-7-methoxy-4-[4-(4-methoxyphenyl)piperazin-1-yl]-2-phenylquinazoline

$$$$
