
     RDKit          3D

 52 55  0  0  0  0  0  0  0  0999 V2000
    4.8079    2.8645   -1.7971 O   0  0  0  0  0  0  0  0  0  0  0  0
    5.5392    2.0479   -1.1739 C   0  0  0  0  0  0  0  0  0  0  0  0
    6.8789    2.1477   -0.8229 O   0  0  0  0  0  0  0  0  0  0  0  0
    7.4060    0.8275   -0.8741 C   0  0  0  0  0  0  0  0  0  0  0  0
    6.2829    0.0328   -0.2404 C   0  0  0  0  0  0  0  0  0  0  0  0
    5.0963    0.7703   -0.6733 N   0  0  0  0  0  0  0  0  0  0  0  0
    3.7354    0.3209   -0.6175 C   0  0  0  0  0  0  0  0  0  0  0  0
    3.0200    0.6647    0.6693 C   0  0  0  0  0  0  0  0  0  0  0  0
    1.6505    0.1911    0.6782 N   0  0  0  0  0  0  0  0  0  0  0  0
    0.5848    0.8797    0.2489 C   0  0  0  0  0  0  0  0  0  0  0  0
   -0.5823    0.1038    0.4103 C   0  0  0  0  0  0  0  0  0  0  0  0
   -0.1102   -1.0635    0.9560 C   0  0  0  0  0  0  0  0  0  0  0  0
    1.2720   -1.0074    1.1212 C   0  0  0  0  0  0  0  0  0  0  0  0
    2.0038   -2.0481    1.6485 C   0  0  0  0  0  0  0  0  0  0  0  0
    1.3743   -3.1960    2.0343 C   0  0  0  0  0  0  0  0  0  0  0  0
    0.0059   -3.2586    1.8733 C   0  0  0  0  0  0  0  0  0  0  0  0
   -0.7200   -2.2139    1.3452 C   0  0  0  0  0  0  0  0  0  0  0  0
   -1.8884    0.5719    0.0476 C   0  0  0  0  0  0  0  0  0  0  0  0
   -1.9206    1.7682   -0.4667 O   0  0  0  0  0  0  0  0  0  0  0  0
   -3.1997   -0.0488    0.1493 C   0  0  0  0  0  0  0  0  0  0  0  0
   -4.4426    0.7553    0.2572 C   0  0  0  0  0  0  0  0  0  0  0  0
   -4.0750    0.2062   -1.0812 C   0  0  0  0  0  0  0  0  0  0  0  0
   -4.7639   -1.0593   -1.5746 C   0  0  0  0  0  0  0  0  0  0  0  0
   -3.5962    1.0986   -2.1731 C   0  0  0  0  0  0  0  0  0  0  0  0
   -5.6653    0.0516    0.8673 C   0  0  0  0  0  0  0  0  0  0  0  0
   -4.4254    2.2052    0.5831 C   0  0  0  0  0  0  0  0  0  0  0  0
    8.3510    0.7401   -0.3000 H   0  0  0  0  0  0  0  0  0  0  0  0
    7.4985    0.4963   -1.9330 H   0  0  0  0  0  0  0  0  0  0  0  0
    6.3214   -0.9778   -0.6951 H   0  0  0  0  0  0  0  0  0  0  0  0
    6.4142    0.0381    0.8436 H   0  0  0  0  0  0  0  0  0  0  0  0
    3.2070    0.6585   -1.5065 H   0  0  0  0  0  0  0  0  0  0  0  0
    3.7686   -0.8070   -0.6437 H   0  0  0  0  0  0  0  0  0  0  0  0
    3.5280    0.2187    1.5469 H   0  0  0  0  0  0  0  0  0  0  0  0
    2.9949    1.7531    0.8584 H   0  0  0  0  0  0  0  0  0  0  0  0
    0.6705    1.8781   -0.1514 H   0  0  0  0  0  0  0  0  0  0  0  0
    3.0690   -1.9638    1.7592 H   0  0  0  0  0  0  0  0  0  0  0  0
    1.9182   -4.0333    2.4524 H   0  0  0  0  0  0  0  0  0  0  0  0
   -0.5335   -4.1690    2.1736 H   0  0  0  0  0  0  0  0  0  0  0  0
   -1.7563   -2.3222    1.2452 H   0  0  0  0  0  0  0  0  0  0  0  0
   -3.2739   -1.0436    0.6129 H   0  0  0  0  0  0  0  0  0  0  0  0
   -4.6644   -1.9086   -0.8682 H   0  0  0  0  0  0  0  0  0  0  0  0
   -4.2332   -1.3720   -2.5028 H   0  0  0  0  0  0  0  0  0  0  0  0
   -5.8189   -0.8798   -1.8515 H   0  0  0  0  0  0  0  0  0  0  0  0
   -4.1961    0.8908   -3.0914 H   0  0  0  0  0  0  0  0  0  0  0  0
   -2.5598    0.7531   -2.4631 H   0  0  0  0  0  0  0  0  0  0  0  0
   -3.6352    2.1719   -1.9851 H   0  0  0  0  0  0  0  0  0  0  0  0
   -5.4622   -1.0419    0.9321 H   0  0  0  0  0  0  0  0  0  0  0  0
   -5.9094    0.4167    1.8654 H   0  0  0  0  0  0  0  0  0  0  0  0
   -6.5174    0.1259    0.1354 H   0  0  0  0  0  0  0  0  0  0  0  0
   -3.9298    2.8742   -0.1121 H   0  0  0  0  0  0  0  0  0  0  0  0
   -5.4868    2.5823    0.6518 H   0  0  0  0  0  0  0  0  0  0  0  0
   -4.0326    2.2945    1.6327 H   0  0  0  0  0  0  0  0  0  0  0  0
  1  2  2  0
  2  3  1  0
  3  4  1  0
  4  5  1  0
  5  6  1  0
  6  7  1  0
  7  8  1  0
  8  9  1  0
  9 10  1  0
 10 11  2  0
 11 12  1  0
 12 13  2  0
 13 14  1  0
 14 15  2  0
 15 16  1  0
 16 17  2  0
 11 18  1  0
 18 19  2  0
 18 20  1  0
 20 21  1  0
 21 22  1  0
 22 23  1  0
 22 24  1  0
 21 25  1  0
 21 26  1  0
  6  2  1  0
 13  9  1  0
 22 20  1  0
 17 12  1  0
  4 27  1  0
  4 28  1  0
  5 29  1  0
  5 30  1  0
  7 31  1  0
  7 32  1  0
  8 33  1  0
  8 34  1  0
 10 35  1  0
 14 36  1  0
 15 37  1  0
 16 38  1  0
 17 39  1  0
 20 40  1  0
 23 41  1  0
 23 42  1  0
 23 43  1  0
 24 44  1  0
 24 45  1  0
 24 46  1  0
 25 47  1  0
 25 48  1  0
 25 49  1  0
 26 50  1  0
 26 51  1  0
 26 52  1  0
M  END
>  <Ligand ID>  (1) 
LIG0003559

>  <Ligand>  (1) 
CHEMBL584742

>  <SMILES>  (1) 
O=C1OCCN1CCn1cc(c2c1cccc2)C(=O)C1C(C1(C)C)(C)C

>  <CID>  (1) 
11515910.0

>  <ChEMBL ID>  (1) 
nan

>  <InChiKey>  (1) 
QFKHXFSKJAJGEQ-UHFFFAOYSA-N

>  <InChi>  (1) 
InChI=1S/C21H26N2O3/c1-20(2)18(21(20,3)4)17(24)15-13-23(16-8-6-5-7-14(15)16)10-9-22-11-12-26-19(22)25/h5-8,13,18H,9-12H2,1-4H3

>  <IUPAC Name>  (1) 
3-[2-[3-(2,2,3,3-tetramethylcyclopropanecarbonyl)indol-1-yl]ethyl]-1,3-oxazolidin-2-one

$$$$
