
     RDKit          3D

 57 61  0  0  0  0  0  0  0  0999 V2000
    2.2863    0.5218   -0.9194 O   0  0  0  0  0  0  0  0  0  0  0  0
    1.7244    0.0899    0.1235 C   0  0  0  0  0  0  0  0  0  0  0  0
    0.2644   -0.0021    0.0751 C   0  0  0  0  0  0  0  0  0  0  0  0
   -0.3062   -1.2372    0.2883 C   0  0  0  0  0  0  0  0  0  0  0  0
   -1.6776   -1.3089    0.2380 C   0  0  0  0  0  0  0  0  0  0  0  0
   -2.4330   -0.1783   -0.0171 C   0  0  0  0  0  0  0  0  0  0  0  0
   -1.8541    1.0414   -0.2269 N   0  0  0  0  0  0  0  0  0  0  0  0
   -0.5025    1.1396   -0.1826 C   0  0  0  0  0  0  0  0  0  0  0  0
    0.1498    2.2173   -0.3594 N   0  0  0  0  0  0  0  0  0  0  0  0
   -2.6368    2.1740   -0.4833 C   0  0  0  0  0  0  0  0  0  0  0  0
   -2.7510    2.6436   -1.9002 C   0  0  0  0  0  0  0  0  0  0  0  0
   -3.6253    3.8883   -1.6831 C   0  0  0  0  0  0  0  0  0  0  0  0
   -4.4079    3.6138   -0.3899 C   0  0  0  0  0  0  0  0  0  0  0  0
   -4.0942    2.1276   -0.1076 C   0  0  0  0  0  0  0  0  0  0  0  0
   -3.7662   -0.3495   -0.0459 N   0  0  0  0  0  0  0  0  0  0  0  0
   -4.3297   -1.5526    0.1619 C   0  0  0  0  0  0  0  0  0  0  0  0
   -3.6183   -2.6680    0.4119 N   0  0  0  0  0  0  0  0  0  0  0  0
   -2.2742   -2.5425    0.4501 C   0  0  0  0  0  0  0  0  0  0  0  0
   -1.6003   -3.5790    0.6832 O   0  0  0  0  0  0  0  0  0  0  0  0
   -4.2241   -3.8614    0.6152 C   0  0  0  0  0  0  0  0  0  0  0  0
   -5.6198   -3.9304    0.5630 C   0  0  0  0  0  0  0  0  0  0  0  0
   -6.3530   -2.7888    0.3069 C   0  0  0  0  0  0  0  0  0  0  0  0
   -5.7290   -1.5753    0.1005 C   0  0  0  0  0  0  0  0  0  0  0  0
    2.4995   -0.2691    1.2411 N   0  0  0  0  0  0  0  0  0  0  0  0
    3.9432   -0.1564    1.2309 C   0  0  0  0  0  0  0  0  0  0  0  0
    4.5907   -0.9958    0.1573 C   0  0  0  0  0  0  0  0  0  0  0  0
    6.0628   -0.8135    0.2225 C   0  0  0  0  0  0  0  0  0  0  0  0
    6.5847    0.2223   -0.5505 C   0  0  0  0  0  0  0  0  0  0  0  0
    7.9196    0.5195   -0.5996 C   0  0  0  0  0  0  0  0  0  0  0  0
    8.7736   -0.2521    0.1572 C   0  0  0  0  0  0  0  0  0  0  0  0
    8.2556   -1.2788    0.9232 C   0  0  0  0  0  0  0  0  0  0  0  0
    6.9099   -1.5703    0.9661 C   0  0  0  0  0  0  0  0  0  0  0  0
    0.2565   -2.1355    0.4891 H   0  0  0  0  0  0  0  0  0  0  0  0
   -0.3397    3.1050   -0.5546 H   0  0  0  0  0  0  0  0  0  0  0  0
   -2.2247    3.0457    0.1108 H   0  0  0  0  0  0  0  0  0  0  0  0
   -1.8070    2.8670   -2.4066 H   0  0  0  0  0  0  0  0  0  0  0  0
   -3.3840    1.9424   -2.5174 H   0  0  0  0  0  0  0  0  0  0  0  0
   -2.8941    4.7031   -1.4480 H   0  0  0  0  0  0  0  0  0  0  0  0
   -4.2690    4.1036   -2.5354 H   0  0  0  0  0  0  0  0  0  0  0  0
   -4.0799    4.2488    0.4449 H   0  0  0  0  0  0  0  0  0  0  0  0
   -5.4914    3.7243   -0.5878 H   0  0  0  0  0  0  0  0  0  0  0  0
   -4.7319    1.6150   -0.8767 H   0  0  0  0  0  0  0  0  0  0  0  0
   -4.3093    1.8670    0.9229 H   0  0  0  0  0  0  0  0  0  0  0  0
   -3.6443   -4.7558    0.8160 H   0  0  0  0  0  0  0  0  0  0  0  0
   -6.1474   -4.8702    0.7209 H   0  0  0  0  0  0  0  0  0  0  0  0
   -7.4344   -2.8567    0.2693 H   0  0  0  0  0  0  0  0  0  0  0  0
   -6.2882   -0.6856   -0.0986 H   0  0  0  0  0  0  0  0  0  0  0  0
    1.9672   -0.6256    2.0881 H   0  0  0  0  0  0  0  0  0  0  0  0
    4.3084   -0.5476    2.2116 H   0  0  0  0  0  0  0  0  0  0  0  0
    4.2018    0.9171    1.0938 H   0  0  0  0  0  0  0  0  0  0  0  0
    4.2438   -0.7446   -0.8526 H   0  0  0  0  0  0  0  0  0  0  0  0
    4.3682   -2.0728    0.3895 H   0  0  0  0  0  0  0  0  0  0  0  0
    5.9251    0.8464   -1.1580 H   0  0  0  0  0  0  0  0  0  0  0  0
    8.3321    1.3185   -1.1943 H   0  0  0  0  0  0  0  0  0  0  0  0
    9.8287   -0.0596    0.1530 H   0  0  0  0  0  0  0  0  0  0  0  0
    8.9424   -1.8692    1.5069 H   0  0  0  0  0  0  0  0  0  0  0  0
    6.5098   -2.3696    1.5630 H   0  0  0  0  0  0  0  0  0  0  0  0
  1  2  2  0
  2  3  1  0
  3  4  2  0
  4  5  1  0
  5  6  2  0
  6  7  1  0
  7  8  1  0
  8  9  2  3
  7 10  1  0
 10 11  1  0
 11 12  1  0
 12 13  1  0
 13 14  1  0
  6 15  1  0
 15 16  2  0
 16 17  1  0
 17 18  1  0
 18 19  2  0
 17 20  1  0
 20 21  2  0
 21 22  1  0
 22 23  2  0
  2 24  1  0
 24 25  1  0
 25 26  1  0
 26 27  1  0
 27 28  2  0
 28 29  1  0
 29 30  2  0
 30 31  1  0
 31 32  2  0
  8  3  1  0
 14 10  1  0
 23 16  1  0
 32 27  1  0
 18  5  1  0
  4 33  1  0
  9 34  1  0
 10 35  1  0
 11 36  1  0
 11 37  1  0
 12 38  1  0
 12 39  1  0
 13 40  1  0
 13 41  1  0
 14 42  1  0
 14 43  1  0
 20 44  1  0
 21 45  1  0
 22 46  1  0
 23 47  1  0
 24 48  1  0
 25 49  1  0
 25 50  1  0
 26 51  1  0
 26 52  1  0
 28 53  1  0
 29 54  1  0
 30 55  1  0
 31 56  1  0
 32 57  1  0
M  END
>  <Ligand ID>  (1) 
LIG0003032

>  <Ligand>  (1) 
MLS-0437146.0001

>  <SMILES>  (1) 
O=C(c1cc2c(n(c1=N)C1CCCC1)nc1n(c2=O)cccc1)NCCc1ccccc1

>  <CID>  (1) 
1077547.0

>  <ChEMBL ID>  (1) 
nan

>  <InChiKey>  (1) 
LEABGADKSLIYJL-UHFFFAOYSA-N

>  <InChi>  (1) 
InChI=1S/C25H25N5O2/c26-22-19(24(31)27-14-13-17-8-2-1-3-9-17)16-20-23(30(22)18-10-4-5-11-18)28-21-12-6-7-15-29(21)25(20)32/h1-3,6-9,12,15-16,18,26H,4-5,10-11,13-14H2,(H,27,31)

>  <IUPAC Name>  (1) 
7-cyclopentyl-6-imino-2-oxo-N-(2-phenylethyl)-1,7,9-triazatricyclo[8.4.0.03,8]tetradeca-3(8),4,9,11,13-pentaene-5-carboxamide

$$$$
