
     RDKit          3D

129131  0  0  0  0  0  0  0  0999 V2000
    7.1204   -4.2133   -1.7817 N   0  0  0  0  0  0  0  0  0  0  0  0
    7.9618   -4.3415   -0.5860 C   0  0  0  0  0  0  0  0  0  0  0  0
    8.6243   -3.0259   -0.2632 C   0  0  0  0  0  0  0  0  0  0  0  0
    7.6246   -1.9335   -0.0028 C   0  0  1  0  0  0  0  0  0  0  0  0
    8.4413   -0.7034    0.2988 C   0  0  0  0  0  0  0  0  0  0  0  0
    8.3448    0.3351   -0.4060 O   0  0  0  0  0  0  0  0  0  0  0  0
    9.3193   -0.7984    1.4228 N   0  0  0  0  0  0  0  0  0  0  0  0
   10.1218    0.3916    1.7235 C   0  0  0  0  0  0  0  0  0  0  0  0
   10.9797    0.1411    2.9200 C   0  0  0  0  0  0  0  0  0  0  0  0
   10.9812   -0.9374    3.5478 O   0  0  0  0  0  0  0  0  0  0  0  0
   11.8277    1.1956    3.3478 N   0  0  0  0  0  0  0  0  0  0  0  0
    6.7792   -1.6725   -1.1529 N   0  0  0  0  0  0  0  0  0  0  0  0
    5.3887   -1.5655   -1.0617 C   0  0  0  0  0  0  0  0  0  0  0  0
    4.8192   -1.6962    0.0731 O   0  0  0  0  0  0  0  0  0  0  0  0
    4.4714   -1.2999   -2.2065 C   0  0  2  0  0  0  0  0  0  0  0  0
    5.2505   -1.3441   -3.5219 C   0  0  0  0  0  0  0  0  0  0  0  0
    5.7155    0.0541   -3.7617 C   0  0  0  0  0  0  0  0  0  0  0  0
    5.2450    0.8233   -2.5762 C   0  0  0  0  0  0  0  0  0  0  0  0
    4.0095    0.0583   -2.1993 N   0  0  0  0  0  0  0  0  0  0  0  0
    2.8348    0.7522   -1.9395 C   0  0  0  0  0  0  0  0  0  0  0  0
    2.9725    2.0449   -2.0755 O   0  0  0  0  0  0  0  0  0  0  0  0
    1.5067    0.3104   -1.5486 C   0  0  2  0  0  0  0  0  0  0  0  0
    1.1052   -1.0215   -2.0493 C   0  0  0  0  0  0  0  0  0  0  0  0
   -0.6658   -1.2932   -1.6734 S   0  0  0  0  0  0  0  0  0  0  0  0
   -1.0782   -1.3494    0.3746 S   0  0  0  0  0  0  0  0  0  0  0  0
   -0.9899   -2.9673    1.1407 C   0  0  0  0  0  0  0  0  0  0  0  0
   -1.9988   -3.9276    0.5240 C   0  0  2  0  0  0  0  0  0  0  0  0
   -1.5211   -4.2160   -0.8293 N   0  0  0  0  0  0  0  0  0  0  0  0
   -3.2994   -3.1512    0.3234 C   0  0  0  0  0  0  0  0  0  0  0  0
   -4.0466   -2.8536    1.2455 O   0  0  0  0  0  0  0  0  0  0  0  0
   -3.6957   -2.7387   -0.9855 N   0  0  0  0  0  0  0  0  0  0  0  0
   -4.7971   -1.9710   -1.3827 C   0  0  1  0  0  0  0  0  0  0  0  0
   -5.8137   -2.6633   -2.2462 C   0  0  0  0  0  0  0  0  0  0  0  0
   -6.4440   -3.8481   -1.6541 C   0  0  0  0  0  0  0  0  0  0  0  0
   -5.8261   -5.0824   -1.9269 C   0  0  0  0  0  0  0  0  0  0  0  0
   -6.4049   -6.2048   -1.3716 C   0  0  0  0  0  0  0  0  0  0  0  0
   -7.5410   -6.1511   -0.5779 C   0  0  0  0  0  0  0  0  0  0  0  0
   -8.1084   -4.9492   -0.3359 N   0  0  0  0  0  0  0  0  0  0  0  0
   -7.5543   -3.8583   -0.8700 C   0  0  0  0  0  0  0  0  0  0  0  0
   -5.3770   -0.9186   -0.5374 C   0  0  0  0  0  0  0  0  0  0  0  0
   -6.5644   -0.5874   -0.8139 O   0  0  0  0  0  0  0  0  0  0  0  0
   -4.8056   -0.1982    0.5393 N   0  0  0  0  0  0  0  0  0  0  0  0
   -5.6585    0.7528    1.2633 C   0  0  2  0  0  0  0  0  0  0  0  0
   -5.2040    2.1491    1.1190 C   0  0  0  0  0  0  0  0  0  0  0  0
   -6.0430    3.0469    1.2874 O   0  0  0  0  0  0  0  0  0  0  0  0
   -3.8844    2.5978    0.8133 N   0  0  0  0  0  0  0  0  0  0  0  0
   -3.5780    4.0191    0.5842 C   0  0  2  0  0  0  0  0  0  0  0  0
   -2.6668    4.2281   -0.5687 C   0  0  0  0  0  0  0  0  0  0  0  0
   -2.7499    5.2157   -1.2638 O   0  0  0  0  0  0  0  0  0  0  0  0
   -1.6206    3.2903   -0.9264 N   0  0  0  0  0  0  0  0  0  0  0  0
   -0.7579    3.4816   -2.0522 C   0  0  2  0  0  0  0  0  0  0  0  0
    0.2364    2.4264   -2.2876 C   0  0  0  0  0  0  0  0  0  0  0  0
    0.9479    2.5215   -3.2978 O   0  0  0  0  0  0  0  0  0  0  0  0
    0.4632    1.2987   -1.4677 N   0  0  0  0  0  0  0  0  0  0  0  0
   -0.0260    4.8403   -1.9487 C   0  0  0  0  0  0  0  0  0  0  0  0
    0.7908    4.9781   -0.7482 C   0  0  0  0  0  0  0  0  0  0  0  0
    0.9147    4.0592    0.1281 O   0  0  0  0  0  0  0  0  0  0  0  0
    1.4817    6.2333   -0.5704 N   0  0  0  0  0  0  0  0  0  0  0  0
   -2.9599    4.6681    1.8090 C   0  0  0  0  0  0  0  0  0  0  0  0
   -3.8389    4.6901    2.9949 C   0  0  0  0  0  0  0  0  0  0  0  0
   -5.0744    5.5079    2.8606 C   0  0  0  0  0  0  0  0  0  0  0  0
   -5.3969    6.1179    1.8117 O   0  0  0  0  0  0  0  0  0  0  0  0
   -5.9704    5.6329    3.9645 N   0  0  0  0  0  0  0  0  0  0  0  0
   -5.6292    0.3363    2.7234 C   0  0  2  0  0  0  0  0  0  0  0  0
   -6.4507    1.1853    3.6180 C   0  0  0  0  0  0  0  0  0  0  0  0
   -7.9067    1.2317    3.3105 C   0  0  0  0  0  0  0  0  0  0  0  0
   -4.2074    0.2755    3.2443 C   0  0  0  0  0  0  0  0  0  0  0  0
    6.5949   -5.0770   -1.9491 H   0  0  0  0  0  0  0  0  0  0  0  0
    7.7584   -3.9707   -2.5836 H   0  0  0  0  0  0  0  0  0  0  0  0
    7.3615   -4.6759    0.2718 H   0  0  0  0  0  0  0  0  0  0  0  0
    8.7236   -5.0997   -0.8253 H   0  0  0  0  0  0  0  0  0  0  0  0
    9.3344   -2.7331   -1.0739 H   0  0  0  0  0  0  0  0  0  0  0  0
    9.1984   -3.1833    0.6716 H   0  0  0  0  0  0  0  0  0  0  0  0
    7.0629   -2.1300    0.9202 H   0  0  0  0  0  0  0  0  0  0  0  0
    9.4031   -1.6562    2.0121 H   0  0  0  0  0  0  0  0  0  0  0  0
   10.7143    0.6248    0.8212 H   0  0  0  0  0  0  0  0  0  0  0  0
    9.4157    1.2245    1.9822 H   0  0  0  0  0  0  0  0  0  0  0  0
   12.4668    1.6065    2.6365 H   0  0  0  0  0  0  0  0  0  0  0  0
   11.7591    1.4914    4.3398 H   0  0  0  0  0  0  0  0  0  0  0  0
    7.2599   -1.5617   -2.0633 H   0  0  0  0  0  0  0  0  0  0  0  0
    3.6896   -2.0641   -2.2490 H   0  0  0  0  0  0  0  0  0  0  0  0
    6.0177   -2.1208   -3.5109 H   0  0  0  0  0  0  0  0  0  0  0  0
    4.5099   -1.6440   -4.3113 H   0  0  0  0  0  0  0  0  0  0  0  0
    5.2324    0.4423   -4.6918 H   0  0  0  0  0  0  0  0  0  0  0  0
    6.8279    0.1233   -3.8712 H   0  0  0  0  0  0  0  0  0  0  0  0
    5.0286    1.8736   -2.7670 H   0  0  0  0  0  0  0  0  0  0  0  0
    5.9234    0.7769   -1.7160 H   0  0  0  0  0  0  0  0  0  0  0  0
    1.7130    0.0877   -0.3827 H   0  0  0  0  0  0  0  0  0  0  0  0
    1.2501   -1.1884   -3.1248 H   0  0  0  0  0  0  0  0  0  0  0  0
    1.6358   -1.8278   -1.4597 H   0  0  0  0  0  0  0  0  0  0  0  0
   -1.0775   -2.8965    2.2416 H   0  0  0  0  0  0  0  0  0  0  0  0
    0.0207   -3.4050    0.9537 H   0  0  0  0  0  0  0  0  0  0  0  0
   -2.1082   -4.8273    1.0848 H   0  0  0  0  0  0  0  0  0  0  0  0
   -1.2474   -5.2473   -0.9095 H   0  0  0  0  0  0  0  0  0  0  0  0
   -0.6316   -3.6931   -0.9653 H   0  0  0  0  0  0  0  0  0  0  0  0
   -3.0405   -3.0949   -1.7243 H   0  0  0  0  0  0  0  0  0  0  0  0
   -4.2872   -1.2480   -2.1913 H   0  0  0  0  0  0  0  0  0  0  0  0
   -5.3097   -2.9397   -3.2076 H   0  0  0  0  0  0  0  0  0  0  0  0
   -6.5987   -1.9228   -2.5107 H   0  0  0  0  0  0  0  0  0  0  0  0
   -4.9416   -5.1305   -2.5439 H   0  0  0  0  0  0  0  0  0  0  0  0
   -5.9539   -7.1688   -1.5643 H   0  0  0  0  0  0  0  0  0  0  0  0
   -7.9821   -7.0605   -0.1470 H   0  0  0  0  0  0  0  0  0  0  0  0
   -8.0312   -2.9058   -0.6587 H   0  0  0  0  0  0  0  0  0  0  0  0
   -3.8303   -0.3466    0.7415 H   0  0  0  0  0  0  0  0  0  0  0  0
   -6.6843    0.6015    0.9055 H   0  0  0  0  0  0  0  0  0  0  0  0
   -3.1837    1.8512    0.7750 H   0  0  0  0  0  0  0  0  0  0  0  0
   -4.5282    4.5244    0.4014 H   0  0  0  0  0  0  0  0  0  0  0  0
   -1.5836    2.4939   -0.2796 H   0  0  0  0  0  0  0  0  0  0  0  0
   -1.3718    3.6403   -2.9374 H   0  0  0  0  0  0  0  0  0  0  0  0
   -0.2379    1.1804   -0.7125 H   0  0  0  0  0  0  0  0  0  0  0  0
    0.6917    4.7854   -2.8142 H   0  0  0  0  0  0  0  0  0  0  0  0
   -0.7229    5.6133   -2.1947 H   0  0  0  0  0  0  0  0  0  0  0  0
    1.8195    6.7532   -1.3855 H   0  0  0  0  0  0  0  0  0  0  0  0
    1.6545    6.6418    0.3728 H   0  0  0  0  0  0  0  0  0  0  0  0
   -1.9747    4.2355    2.0835 H   0  0  0  0  0  0  0  0  0  0  0  0
   -2.7389    5.7279    1.4754 H   0  0  0  0  0  0  0  0  0  0  0  0
   -4.1969    3.6368    3.2230 H   0  0  0  0  0  0  0  0  0  0  0  0
   -3.3185    5.0576    3.9100 H   0  0  0  0  0  0  0  0  0  0  0  0
   -6.9683    5.3488    3.8862 H   0  0  0  0  0  0  0  0  0  0  0  0
   -5.5982    6.0283    4.8787 H   0  0  0  0  0  0  0  0  0  0  0  0
   -6.0294   -0.7181    2.7527 H   0  0  0  0  0  0  0  0  0  0  0  0
   -6.1024    2.2624    3.6003 H   0  0  0  0  0  0  0  0  0  0  0  0
   -6.2928    0.8847    4.6740 H   0  0  0  0  0  0  0  0  0  0  0  0
   -8.2198    2.1645    2.7941 H   0  0  0  0  0  0  0  0  0  0  0  0
   -8.2951    0.3162    2.8223 H   0  0  0  0  0  0  0  0  0  0  0  0
   -8.4628    1.2622    4.2946 H   0  0  0  0  0  0  0  0  0  0  0  0
   -4.2798    0.0666    4.3541 H   0  0  0  0  0  0  0  0  0  0  0  0
   -3.7815    1.2937    3.1580 H   0  0  0  0  0  0  0  0  0  0  0  0
   -3.5809   -0.4922    2.7423 H   0  0  0  0  0  0  0  0  0  0  0  0
  1  2  1  0
  2  3  1  0
  3  4  1  0
  4  5  1  0
  5  6  2  0
  5  7  1  0
  7  8  1  0
  8  9  1  0
  9 10  2  0
  9 11  1  0
  4 12  1  0
 12 13  1  0
 13 14  2  0
 13 15  1  0
 15 16  1  0
 16 17  1  0
 17 18  1  0
 18 19  1  0
 19 20  1  0
 20 21  2  0
 20 22  1  0
 22 23  1  0
 23 24  1  0
 24 25  1  0
 25 26  1  0
 26 27  1  0
 27 28  1  0
 27 29  1  0
 29 30  2  0
 29 31  1  0
 31 32  1  0
 32 33  1  0
 33 34  1  0
 34 35  2  0
 35 36  1  0
 36 37  2  0
 37 38  1  0
 38 39  2  0
 32 40  1  0
 40 41  2  0
 40 42  1  0
 42 43  1  0
 43 44  1  0
 44 45  2  0
 44 46  1  0
 46 47  1  0
 47 48  1  0
 48 49  2  0
 48 50  1  0
 50 51  1  0
 51 52  1  0
 52 53  2  0
 52 54  1  0
 51 55  1  0
 55 56  1  0
 56 57  2  0
 56 58  1  0
 47 59  1  0
 59 60  1  0
 60 61  1  0
 61 62  2  0
 61 63  1  0
 43 64  1  0
 64 65  1  0
 65 66  1  0
 64 67  1  0
 19 15  1  0
 54 22  1  0
 39 34  1  0
  1 68  1  0
  1 69  1  0
  2 70  1  0
  2 71  1  0
  3 72  1  0
  3 73  1  0
  4 74  1  1
  7 75  1  0
  8 76  1  0
  8 77  1  0
 11 78  1  0
 11 79  1  0
 12 80  1  0
 15 81  1  6
 16 82  1  0
 16 83  1  0
 17 84  1  0
 17 85  1  0
 18 86  1  0
 18 87  1  0
 22 88  1  1
 23 89  1  0
 23 90  1  0
 26 91  1  0
 26 92  1  0
 27 93  1  1
 28 94  1  0
 28 95  1  0
 31 96  1  0
 32 97  1  6
 33 98  1  0
 33 99  1  0
 35100  1  0
 36101  1  0
 37102  1  0
 39103  1  0
 42104  1  0
 43105  1  6
 46106  1  0
 47107  1  6
 50108  1  0
 51109  1  6
 54110  1  0
 55111  1  0
 55112  1  0
 58113  1  0
 58114  1  0
 59115  1  0
 59116  1  0
 60117  1  0
 60118  1  0
 63119  1  0
 63120  1  0
 64121  1  6
 65122  1  0
 65123  1  0
 66124  1  0
 66125  1  0
 66126  1  0
 67127  1  0
 67128  1  0
 67129  1  0
M  END
>  <Ligand ID>  (1) 
LIG0001614

>  <Ligand>  (1) 
CHEMBL1819545

>  <SMILES>  (1) 
NCC[C@@H](C(=O)NCC(=O)N)NC(=O)[C@@H]1CCCN1C(=O)[C@@H]1CSSC[C@H](N)C(=O)N[C@@H](Cc2cccnc2)C(=O)N[C@H](C(=O)N[C@H](C(=O)N[C@H](C(=O)N1)CC(=O)N)CCC(=O)N)[C@H](CC)C

>  <CID>  (1) 
53362794.0

>  <ChEMBL ID>  (1) 
nan

>  <InChiKey>  (1) 
CZIIUQZBKXKTCC-LWHYKBHJSA-N

>  <InChi>  (1) 
InChI=1S/C40H62N14O11S2/c1-3-20(2)32-39(64)49-23(8-9-29(43)55)35(60)51-26(15-30(44)56)36(61)52-27(19-67-66-18-22(42)33(58)50-25(37(62)53-32)14-21-6-4-12-46-16-21)40(65)54-13-5-7-28(54)38(63)48-24(10-11-41)34(59)47-17-31(45)57/h4,6,12,16,20,22-28,32H,3,5,7-11,13-15,17-19,41-42H2,1-2H3,(H2,43,55)(H2,44,56)(H2,45,57)(H,47,59)(H,48,63)(H,49,64)(H,50,58)(H,51,60)(H,52,61)(H,53,62)/t20-,22-,23-,24-,25-,26-,27-,28-,32-/m0/s1

>  <IUPAC Name>  (1) 
(2S)-N-[(2S)-4-amino-1-[(2-amino-2-oxoethyl)amino]-1-oxobutan-2-yl]-1-[(4R,7S,10S,13S,16S,19R)-19-amino-7-(2-amino-2-oxoethyl)-10-(3-amino-3-oxopropyl)-13-[(2S)-butan-2-yl]-6,9,12,15,18-pentaoxo-16-(pyridin-3-ylmethyl)-1,2-dithia-5,8,11,14,17-pentazacycloicosane-4-carbonyl]pyrrolidine-2-carboxamide

$$$$
