
     RDKit          3D

 73 77  0  0  0  0  0  0  0  0999 V2000
   11.3188   -3.7506    0.9165 O   0  0  0  0  0  0  0  0  0  0  0  0
   10.1953   -3.2315    0.5926 C   0  0  0  0  0  0  0  0  0  0  0  0
    9.5622   -3.0764   -1.0817 S   0  0  0  0  0  0  0  0  0  0  0  0
    7.9313   -2.3513   -0.5912 C   0  0  0  0  0  0  0  0  0  0  0  0
    8.3266   -1.7926    0.7166 C   0  0  0  0  0  0  0  0  0  0  0  0
    7.9855   -0.6729    1.2465 O   0  0  0  0  0  0  0  0  0  0  0  0
    9.1974   -2.6687    1.4206 N   0  0  0  0  0  0  0  0  0  0  0  0
    7.4757   -1.3815   -1.6169 C   0  0  0  0  0  0  0  0  0  0  0  0
    6.1744   -0.7813   -1.2809 C   0  0  0  0  0  0  0  0  0  0  0  0
    5.0346   -1.4994   -1.6293 C   0  0  0  0  0  0  0  0  0  0  0  0
    3.7766   -0.9981   -1.3694 C   0  0  0  0  0  0  0  0  0  0  0  0
    3.5717    0.2319   -0.7551 C   0  0  0  0  0  0  0  0  0  0  0  0
    4.7052    0.9346   -0.4146 C   0  0  0  0  0  0  0  0  0  0  0  0
    5.9884    0.4344   -0.6749 C   0  0  0  0  0  0  0  0  0  0  0  0
    2.2726    0.7298   -0.4919 N   0  0  0  0  0  0  0  0  0  0  0  0
    2.0167    2.0288    0.1241 C   0  0  0  0  0  0  0  0  0  0  0  0
    0.7695    2.6736   -0.3793 C   0  0  0  0  0  0  0  0  0  0  0  0
   -0.4705    1.7947   -0.3111 C   0  0  0  0  0  0  0  0  0  0  0  0
    0.0554    0.4435    0.2449 C   0  0  0  0  0  0  0  0  0  0  0  0
    1.0579   -0.0352   -0.8177 C   0  0  0  0  0  0  0  0  0  0  0  0
   -0.8401    1.5090   -1.6547 N   0  0  0  0  0  0  0  0  0  0  0  0
   -2.0053    0.8028   -1.9528 C   0  0  0  0  0  0  0  0  0  0  0  0
   -3.2688    1.5278   -1.8008 C   0  0  1  0  0  0  0  0  0  0  0  0
   -3.7346    1.9860   -0.4939 C   0  0  0  0  0  0  0  0  0  0  0  0
   -3.6137    3.3067   -0.0406 C   0  0  0  0  0  0  0  0  0  0  0  0
   -4.0758    3.6861    1.1979 C   0  0  0  0  0  0  0  0  0  0  0  0
   -4.6676    2.7426    1.9993 C   0  0  0  0  0  0  0  0  0  0  0  0
   -4.8203    1.4047    1.6053 C   0  0  0  0  0  0  0  0  0  0  0  0
   -4.3403    1.0879    0.3639 C   0  0  0  0  0  0  0  0  0  0  0  0
   -5.4329    0.5516    2.5231 N   0  0  0  0  0  0  0  0  0  0  0  0
   -6.6689   -0.5698    2.2726 S   0  0  0  0  0  0  0  0  0  0  0  0
   -7.0055   -1.3018    3.5689 O   0  0  0  0  0  0  0  0  0  0  0  0
   -7.9794    0.0711    1.8850 O   0  0  0  0  0  0  0  0  0  0  0  0
   -6.1947   -1.8017    1.1509 C   0  0  0  0  0  0  0  0  0  0  0  0
   -6.5784   -1.7171   -0.1893 C   0  0  0  0  0  0  0  0  0  0  0  0
   -6.2323   -2.6734   -1.1188 C   0  0  0  0  0  0  0  0  0  0  0  0
   -5.4856   -3.7555   -0.7410 C   0  0  0  0  0  0  0  0  0  0  0  0
   -5.0799   -3.8841    0.5808 C   0  0  0  0  0  0  0  0  0  0  0  0
   -5.4408   -2.9094    1.4958 C   0  0  0  0  0  0  0  0  0  0  0  0
   -5.1288    3.1559    3.2538 O   0  0  0  0  0  0  0  0  0  0  0  0
   -3.2811    2.6567   -2.6641 O   0  0  0  0  0  0  0  0  0  0  0  0
    7.2563   -3.2213   -0.4608 H   0  0  0  0  0  0  0  0  0  0  0  0
    9.1268   -2.8914    2.4511 H   0  0  0  0  0  0  0  0  0  0  0  0
    8.2192   -0.5251   -1.6509 H   0  0  0  0  0  0  0  0  0  0  0  0
    7.4994   -1.7933   -2.6509 H   0  0  0  0  0  0  0  0  0  0  0  0
    5.1449   -2.4778   -2.1172 H   0  0  0  0  0  0  0  0  0  0  0  0
    2.9429   -1.6180   -1.6727 H   0  0  0  0  0  0  0  0  0  0  0  0
    4.6555    1.8993    0.0684 H   0  0  0  0  0  0  0  0  0  0  0  0
    6.8204    1.0385   -0.4019 H   0  0  0  0  0  0  0  0  0  0  0  0
    2.8512    2.7396   -0.1299 H   0  0  0  0  0  0  0  0  0  0  0  0
    2.0639    1.9557    1.2454 H   0  0  0  0  0  0  0  0  0  0  0  0
    0.6226    3.5914    0.2531 H   0  0  0  0  0  0  0  0  0  0  0  0
    0.9695    3.0550   -1.4053 H   0  0  0  0  0  0  0  0  0  0  0  0
   -1.2189    2.1892    0.3599 H   0  0  0  0  0  0  0  0  0  0  0  0
    0.5490    0.5893    1.2245 H   0  0  0  0  0  0  0  0  0  0  0  0
   -0.7375   -0.3007    0.2883 H   0  0  0  0  0  0  0  0  0  0  0  0
    1.1955   -1.1113   -0.7810 H   0  0  0  0  0  0  0  0  0  0  0  0
    0.6813    0.2899   -1.8057 H   0  0  0  0  0  0  0  0  0  0  0  0
   -0.3333    1.9961   -2.3988 H   0  0  0  0  0  0  0  0  0  0  0  0
   -2.0481   -0.2099   -1.4043 H   0  0  0  0  0  0  0  0  0  0  0  0
   -1.9395    0.4835   -3.0412 H   0  0  0  0  0  0  0  0  0  0  0  0
   -4.1377    0.8898   -2.2746 H   0  0  0  0  0  0  0  0  0  0  0  0
   -3.1341    3.9838   -0.7374 H   0  0  0  0  0  0  0  0  0  0  0  0
   -3.9691    4.7066    1.5233 H   0  0  0  0  0  0  0  0  0  0  0  0
   -4.4257    0.0703    0.0280 H   0  0  0  0  0  0  0  0  0  0  0  0
   -5.0509    0.6312    3.5328 H   0  0  0  0  0  0  0  0  0  0  0  0
   -7.1796   -0.8536   -0.5144 H   0  0  0  0  0  0  0  0  0  0  0  0
   -6.5588   -2.5587   -2.1515 H   0  0  0  0  0  0  0  0  0  0  0  0
   -5.2225   -4.5020   -1.4999 H   0  0  0  0  0  0  0  0  0  0  0  0
   -4.4805   -4.7610    0.8724 H   0  0  0  0  0  0  0  0  0  0  0  0
   -5.1287   -3.0029    2.5274 H   0  0  0  0  0  0  0  0  0  0  0  0
   -5.8696    3.8304    3.3825 H   0  0  0  0  0  0  0  0  0  0  0  0
   -4.2342    2.9797   -2.6238 H   0  0  0  0  0  0  0  0  0  0  0  0
  1  2  2  0
  2  3  1  0
  3  4  1  0
  4  5  1  0
  5  6  2  0
  5  7  1  0
  4  8  1  0
  8  9  1  0
  9 10  2  0
 10 11  1  0
 11 12  2  0
 12 13  1  0
 13 14  2  0
 12 15  1  0
 15 16  1  0
 16 17  1  0
 17 18  1  0
 18 19  1  0
 19 20  1  0
 18 21  1  0
 21 22  1  0
 22 23  1  0
 23 24  1  0
 24 25  2  0
 25 26  1  0
 26 27  2  0
 27 28  1  0
 28 29  2  0
 28 30  1  0
 30 31  1  0
 31 32  2  0
 31 33  2  0
 31 34  1  0
 34 35  2  0
 35 36  1  0
 36 37  2  0
 37 38  1  0
 38 39  2  0
 27 40  1  0
 23 41  1  0
  7  2  1  0
 14  9  1  0
 20 15  1  0
 29 24  1  0
 39 34  1  0
  4 42  1  0
  7 43  1  0
  8 44  1  0
  8 45  1  0
 10 46  1  0
 11 47  1  0
 13 48  1  0
 14 49  1  0
 16 50  1  0
 16 51  1  0
 17 52  1  0
 17 53  1  0
 18 54  1  0
 19 55  1  0
 19 56  1  0
 20 57  1  0
 20 58  1  0
 21 59  1  0
 22 60  1  0
 22 61  1  0
 23 62  1  6
 25 63  1  0
 26 64  1  0
 29 65  1  0
 30 66  1  0
 35 67  1  0
 36 68  1  0
 37 69  1  0
 38 70  1  0
 39 71  1  0
 40 72  1  0
 41 73  1  0
M  END
>  <Ligand ID>  (1) 
LIG0003147

>  <Ligand>  (1) 
N-(5-{(1R)-2-[(1-[4-[(2,4-Dioxo-1,3-thiazolidin-5-yl)methyl]phenyl}piperidin-4-yl)amino]-1-hydroxyethyl}-2-hydroxyphenyl)benzenesulfonamide

>  <SMILES>  (1) 
O=C1SC(C(=O)N1)Cc1ccc(cc1)N1CCC(CC1)NC[C@@H](c1ccc(c(c1)NS(=O)(=O)c1ccccc1)O)O

>  <CID>  (1) 
44377771.0

>  <ChEMBL ID>  (1) 
nan

>  <InChiKey>  (1) 
RZAFDJBHOKVKCS-QBHOUYDASA-N

>  <InChi>  (1) 
InChI=1S/C29H32N4O6S2/c34-25-11-8-20(17-24(25)32-41(38,39)23-4-2-1-3-5-23)26(35)18-30-21-12-14-33(15-13-21)22-9-6-19(7-10-22)16-27-28(36)31-29(37)40-27/h1-11,17,21,26-27,30,32,34-35H,12-16,18H2,(H,31,36,37)/t26-,27?/m0/s1

>  <IUPAC Name>  (1) 
N-[5-[(1R)-2-[[1-[4-[(2,4-dioxo-1,3-thiazolidin-5-yl)methyl]phenyl]piperidin-4-yl]amino]-1-hydroxyethyl]-2-hydroxyphenyl]benzenesulfonamide

$$$$
