
     RDKit          3D

 19 19  0  0  0  0  0  0  0  0999 V2000
    3.7190   -0.7822    0.4784 O   0  0  0  0  0  0  0  0  0  0  0  0
    2.5461   -0.3406    0.4486 C   0  0  0  0  0  0  0  0  0  0  0  0
    2.0051    0.8327    1.0532 N   0  0  0  0  0  0  0  0  0  0  0  0
    0.6602    0.8732    0.8858 O   0  0  0  0  0  0  0  0  0  0  0  0
    0.4219    0.1570   -0.2850 C   0  0  1  0  0  0  0  0  0  0  0  0
    1.3896   -0.9859   -0.2703 C   0  0  0  0  0  0  0  0  0  0  0  0
   -0.9981   -0.2732   -0.4355 C   0  0  2  0  0  0  0  0  0  0  0  0
   -1.8717    0.8789   -0.7301 C   0  0  0  0  0  0  0  0  0  0  0  0
   -1.5418    1.7076   -1.6432 O   0  0  0  0  0  0  0  0  0  0  0  0
   -3.0698    1.1162   -0.0455 O   0  0  0  0  0  0  0  0  0  0  0  0
   -1.4831   -1.1225    0.6085 N   0  0  0  0  0  0  0  0  0  0  0  0
    2.6128    1.5409    1.5508 H   0  0  0  0  0  0  0  0  0  0  0  0
    0.6491    0.8204   -1.1508 H   0  0  0  0  0  0  0  0  0  0  0  0
    1.6620   -1.2390   -1.3295 H   0  0  0  0  0  0  0  0  0  0  0  0
    1.0667   -1.8668    0.2858 H   0  0  0  0  0  0  0  0  0  0  0  0
   -1.0242   -0.8984   -1.3749 H   0  0  0  0  0  0  0  0  0  0  0  0
   -3.8477    1.6164   -0.4845 H   0  0  0  0  0  0  0  0  0  0  0  0
   -0.6833   -1.3809    1.2166 H   0  0  0  0  0  0  0  0  0  0  0  0
   -2.2129   -0.6539    1.2217 H   0  0  0  0  0  0  0  0  0  0  0  0
  1  2  2  0
  2  3  1  0
  3  4  1  0
  4  5  1  0
  5  6  1  0
  5  7  1  0
  7  8  1  0
  8  9  2  0
  8 10  1  0
  7 11  1  0
  6  2  1  0
  3 12  1  0
  5 13  1  6
  6 14  1  0
  6 15  1  0
  7 16  1  6
 10 17  1  0
 11 18  1  0
 11 19  1  0
M  END
>  <Ligand ID>  (1) 
LIG0001205

>  <Ligand>  (1) 
CHEMBL406621

>  <SMILES>  (1) 
O=C1NO[C@@H](C1)[C@H](C(=O)O)N

>  <CID>  (1) 
44450472.0

>  <ChEMBL ID>  (1) 
nan

>  <InChiKey>  (1) 
NTHMUJMQOXQYBR-ZAFYKAAXSA-N

>  <InChi>  (1) 
InChI=1S/C5H8N2O4/c6-4(5(9)10)2-1-3(8)7-11-2/h2,4H,1,6H2,(H,7,8)(H,9,10)/t2-,4+/m0/s1

>  <IUPAC Name>  (1) 
(2R)-2-amino-2-[(5S)-3-oxo-1,2-oxazolidin-5-yl]acetic acid

$$$$
