
     RDKit          3D

 25 26  0  0  0  0  0  0  0  0999 V2000
    3.2793    1.8213    0.2641 N   0  0  0  0  0  0  0  0  0  0  0  0
    2.2908    0.8096    0.0289 C   0  0  0  0  0  0  0  0  0  0  0  0
    1.5797    0.1555    0.8773 N   0  0  0  0  0  0  0  0  0  0  0  0
    0.7154   -0.7638    0.1891 C   0  0  1  0  0  0  0  0  0  0  0  0
    1.3216   -0.8566   -1.1820 C   0  0  0  0  0  0  0  0  0  0  0  0
    1.9818    0.4039   -1.2787 O   0  0  0  0  0  0  0  0  0  0  0  0
    0.7337   -2.1361    0.8201 C   0  0  0  0  0  0  0  0  0  0  0  0
   -0.6627   -0.1831    0.1446 C   0  0  0  0  0  0  0  0  0  0  0  0
   -1.7910   -0.9624   -0.0022 C   0  0  0  0  0  0  0  0  0  0  0  0
   -3.0254   -0.3206   -0.0313 C   0  0  0  0  0  0  0  0  0  0  0  0
   -3.1546    1.0444    0.0799 C   0  0  0  0  0  0  0  0  0  0  0  0
   -2.0267    1.8205    0.2264 C   0  0  0  0  0  0  0  0  0  0  0  0
   -0.7950    1.2000    0.2572 C   0  0  0  0  0  0  0  0  0  0  0  0
   -4.8750    1.8938    0.0354 Br  0  0  0  0  0  0  0  0  0  0  0  0
    3.4072    2.6179   -0.4173 H   0  0  0  0  0  0  0  0  0  0  0  0
    3.8643    1.7346    1.1361 H   0  0  0  0  0  0  0  0  0  0  0  0
    0.5759   -0.9707   -1.9871 H   0  0  0  0  0  0  0  0  0  0  0  0
    2.0620   -1.6805   -1.1763 H   0  0  0  0  0  0  0  0  0  0  0  0
    0.9291   -2.9088    0.0635 H   0  0  0  0  0  0  0  0  0  0  0  0
   -0.2510   -2.3778    1.2971 H   0  0  0  0  0  0  0  0  0  0  0  0
    1.4984   -2.1798    1.6190 H   0  0  0  0  0  0  0  0  0  0  0  0
   -1.7116   -2.0175   -0.0896 H   0  0  0  0  0  0  0  0  0  0  0  0
   -3.9274   -0.9025   -0.1450 H   0  0  0  0  0  0  0  0  0  0  0  0
   -2.0902    2.9094    0.3178 H   0  0  0  0  0  0  0  0  0  0  0  0
    0.0716    1.8491    0.3744 H   0  0  0  0  0  0  0  0  0  0  0  0
  1  2  1  0
  2  3  2  0
  3  4  1  0
  4  5  1  0
  5  6  1  0
  4  7  1  1
  4  8  1  0
  8  9  2  0
  9 10  1  0
 10 11  2  0
 11 12  1  0
 12 13  2  0
 11 14  1  0
  6  2  1  0
 13  8  1  0
  1 15  1  0
  1 16  1  0
  5 17  1  0
  5 18  1  0
  7 19  1  0
  7 20  1  0
  7 21  1  0
  9 22  1  0
 10 23  1  0
 12 24  1  0
 13 25  1  0
M  END
>  <Ligand ID>  (1) 
LIG0005141

>  <Ligand>  (1) 
SCHEMBL3620040

>  <SMILES>  (1) 
NC1=N[C@@](CO1)(C)c1ccc(cc1)Br

>  <CID>  (1) 
59323826.0

>  <ChEMBL ID>  (1) 
nan

>  <InChiKey>  (1) 
PFGQJLSABMTQRX-SNVBAGLBSA-N

>  <InChi>  (1) 
InChI=1S/C10H11BrN2O/c1-10(6-14-9(12)13-10)7-2-4-8(11)5-3-7/h2-5H,6H2,1H3,(H2,12,13)/t10-/m1/s1

>  <IUPAC Name>  (1) 
(4S)-4-(4-bromophenyl)-4-methyl-5H-1,3-oxazol-2-amine

$$$$
