
     RDKit          3D

 96100  0  0  0  0  0  0  0  0999 V2000
   -5.6670    2.3039   -2.1732 C   0  0  0  0  0  0  0  0  0  0  0  0
   -4.9513    1.7053   -1.0237 C   0  0  0  0  0  0  0  0  0  0  0  0
   -4.9720    2.2840    0.1127 O   0  0  0  0  0  0  0  0  0  0  0  0
   -4.2178    0.4935   -1.0874 N   0  0  0  0  0  0  0  0  0  0  0  0
   -3.5487   -0.0100    0.1135 C   0  0  2  0  0  0  0  0  0  0  0  0
   -2.0887   -0.0616   -0.0904 C   0  0  0  0  0  0  0  0  0  0  0  0
   -1.6877    0.2400   -1.2695 O   0  0  0  0  0  0  0  0  0  0  0  0
   -1.1355   -0.4030    0.8832 N   0  0  0  0  0  0  0  0  0  0  0  0
    0.2833   -0.3959    0.4965 C   0  0  1  0  0  0  0  0  0  0  0  0
    0.9082    0.8702    1.0147 C   0  0  0  0  0  0  0  0  0  0  0  0
    0.1785    1.4409    1.9080 O   0  0  0  0  0  0  0  0  0  0  0  0
    2.1344    1.3829    0.5780 N   0  0  0  0  0  0  0  0  0  0  0  0
    3.1261    0.8550   -0.3795 C   0  0  0  0  0  0  0  0  0  0  0  0
    4.4019    1.0187    0.4747 C   0  0  2  0  0  0  0  0  0  0  0  0
    4.0455    2.0356    1.5391 C   0  0  0  0  0  0  0  0  0  0  0  0
    2.8284    2.6388    0.9633 C   0  0  2  0  0  0  0  0  0  0  0  0
    2.0368    3.6428    1.6431 C   0  0  0  0  0  0  0  0  0  0  0  0
    0.9405    4.1498    0.7361 C   0  0  0  0  0  0  0  0  0  0  0  0
    0.0542    5.1568    1.4447 C   0  0  0  0  0  0  0  0  0  0  0  0
   -0.9586    5.5830    0.6311 N   0  0  0  0  0  0  0  0  0  0  0  0
   -1.8409    6.1131    0.0734 C   0  0  0  0  0  0  0  0  0  0  0  0
   -2.4398    7.3491    0.5318 N   0  0  0  0  0  0  0  0  0  0  0  0
   -2.4396    5.5979   -1.1388 N   0  0  0  0  0  0  0  0  0  0  0  0
    5.4139    1.3422   -0.3362 O   0  0  0  0  0  0  0  0  0  0  0  0
    6.5070    0.5679   -0.4818 C   0  0  0  0  0  0  0  0  0  0  0  0
    6.2722   -0.8251   -0.9339 C   0  0  0  0  0  0  0  0  0  0  0  0
    6.1707   -1.1680   -2.2835 C   0  0  0  0  0  0  0  0  0  0  0  0
    5.9727   -2.4868   -2.6169 C   0  0  0  0  0  0  0  0  0  0  0  0
    5.8669   -3.5050   -1.6931 C   0  0  0  0  0  0  0  0  0  0  0  0
    5.9673   -3.1663   -0.3517 C   0  0  0  0  0  0  0  0  0  0  0  0
    6.1680   -1.8348    0.0082 C   0  0  0  0  0  0  0  0  0  0  0  0
    5.8710   -4.1619    0.5970 C   0  0  0  0  0  0  0  0  0  0  0  0
    5.6772   -5.4738    0.2149 C   0  0  0  0  0  0  0  0  0  0  0  0
    5.5726   -5.8446   -1.1105 C   0  0  0  0  0  0  0  0  0  0  0  0
    5.6752   -4.8108   -2.0418 C   0  0  0  0  0  0  0  0  0  0  0  0
    0.9593   -1.6425    0.9331 C   0  0  0  0  0  0  0  0  0  0  0  0
    0.2666   -2.7857    0.2714 C   0  0  0  0  0  0  0  0  0  0  0  0
    0.6854   -3.2586   -0.9709 C   0  0  0  0  0  0  0  0  0  0  0  0
    0.0333   -4.3200   -1.5834 C   0  0  0  0  0  0  0  0  0  0  0  0
   -1.0542   -4.9508   -0.9900 C   0  0  0  0  0  0  0  0  0  0  0  0
   -1.4613   -4.4760    0.2407 C   0  0  0  0  0  0  0  0  0  0  0  0
   -0.8042   -3.4067    0.8572 C   0  0  0  0  0  0  0  0  0  0  0  0
   -4.1547   -1.3542    0.4810 C   0  0  0  0  0  0  0  0  0  0  0  0
   -5.6108   -1.1782    0.7399 C   0  0  0  0  0  0  0  0  0  0  0  0
   -6.4485   -1.2982   -0.3496 C   0  0  0  0  0  0  0  0  0  0  0  0
   -7.8023   -1.1434   -0.1997 C   0  0  0  0  0  0  0  0  0  0  0  0
   -8.3674   -0.8617    1.0531 C   0  0  0  0  0  0  0  0  0  0  0  0
   -7.4896   -0.7538    2.0989 C   0  0  0  0  0  0  0  0  0  0  0  0
   -6.1198   -0.9021    1.9908 C   0  0  0  0  0  0  0  0  0  0  0  0
   -9.7435   -0.7112    1.1708 O   0  0  0  0  0  0  0  0  0  0  0  0
   -6.6330    1.7779   -2.3430 H   0  0  0  0  0  0  0  0  0  0  0  0
   -5.0272    2.3424   -3.0809 H   0  0  0  0  0  0  0  0  0  0  0  0
   -5.9290    3.3615   -1.8745 H   0  0  0  0  0  0  0  0  0  0  0  0
   -4.1584   -0.0282   -1.9804 H   0  0  0  0  0  0  0  0  0  0  0  0
   -3.7428    0.6814    0.9461 H   0  0  0  0  0  0  0  0  0  0  0  0
   -1.4489   -0.6484    1.8457 H   0  0  0  0  0  0  0  0  0  0  0  0
    0.3109   -0.3152   -0.5869 H   0  0  0  0  0  0  0  0  0  0  0  0
    2.9530   -0.1191   -0.7593 H   0  0  0  0  0  0  0  0  0  0  0  0
    3.2103    1.6588   -1.1473 H   0  0  0  0  0  0  0  0  0  0  0  0
    4.5695    0.0456    0.9567 H   0  0  0  0  0  0  0  0  0  0  0  0
    4.8707    2.6952    1.8073 H   0  0  0  0  0  0  0  0  0  0  0  0
    3.7791    1.4862    2.4636 H   0  0  0  0  0  0  0  0  0  0  0  0
    3.1691    3.1027   -0.0358 H   0  0  0  0  0  0  0  0  0  0  0  0
    2.6424    4.5329    1.9667 H   0  0  0  0  0  0  0  0  0  0  0  0
    1.5218    3.2990    2.5772 H   0  0  0  0  0  0  0  0  0  0  0  0
    1.4195    4.6789   -0.1665 H   0  0  0  0  0  0  0  0  0  0  0  0
    0.3732    3.3440    0.3045 H   0  0  0  0  0  0  0  0  0  0  0  0
   -0.3140    4.7395    2.4133 H   0  0  0  0  0  0  0  0  0  0  0  0
    0.7540    6.0272    1.6682 H   0  0  0  0  0  0  0  0  0  0  0  0
   -1.8627    8.1636    0.8191 H   0  0  0  0  0  0  0  0  0  0  0  0
   -3.4998    7.4049    0.5703 H   0  0  0  0  0  0  0  0  0  0  0  0
   -1.7689    5.1054   -1.7767 H   0  0  0  0  0  0  0  0  0  0  0  0
   -3.4559    5.7210   -1.3391 H   0  0  0  0  0  0  0  0  0  0  0  0
    7.2437    0.6332    0.3514 H   0  0  0  0  0  0  0  0  0  0  0  0
    7.0911    1.0290   -1.3427 H   0  0  0  0  0  0  0  0  0  0  0  0
    6.2499   -0.3860   -3.0209 H   0  0  0  0  0  0  0  0  0  0  0  0
    5.8957   -2.7340   -3.6778 H   0  0  0  0  0  0  0  0  0  0  0  0
    6.2379   -1.6516    1.0705 H   0  0  0  0  0  0  0  0  0  0  0  0
    5.9548   -3.8641    1.6293 H   0  0  0  0  0  0  0  0  0  0  0  0
    5.6052   -6.2453    0.9727 H   0  0  0  0  0  0  0  0  0  0  0  0
    5.4194   -6.8785   -1.4108 H   0  0  0  0  0  0  0  0  0  0  0  0
    5.5939   -5.0838   -3.1060 H   0  0  0  0  0  0  0  0  0  0  0  0
    0.9938   -1.7749    2.0357 H   0  0  0  0  0  0  0  0  0  0  0  0
    1.9986   -1.6606    0.5975 H   0  0  0  0  0  0  0  0  0  0  0  0
    1.5340   -2.7535   -1.4160 H   0  0  0  0  0  0  0  0  0  0  0  0
    0.3729   -4.6675   -2.5464 H   0  0  0  0  0  0  0  0  0  0  0  0
   -1.5714   -5.7623   -1.4332 H   0  0  0  0  0  0  0  0  0  0  0  0
   -2.3106   -4.9652    0.7104 H   0  0  0  0  0  0  0  0  0  0  0  0
   -1.1903   -3.1097    1.8097 H   0  0  0  0  0  0  0  0  0  0  0  0
   -3.9646   -2.1375   -0.2590 H   0  0  0  0  0  0  0  0  0  0  0  0
   -3.6975   -1.6675    1.4401 H   0  0  0  0  0  0  0  0  0  0  0  0
   -6.0963   -1.5124   -1.3550 H   0  0  0  0  0  0  0  0  0  0  0  0
   -8.4601   -1.2375   -1.0632 H   0  0  0  0  0  0  0  0  0  0  0  0
   -7.8732   -0.5408    3.0792 H   0  0  0  0  0  0  0  0  0  0  0  0
   -5.4581   -0.8076    2.8460 H   0  0  0  0  0  0  0  0  0  0  0  0
  -10.3150   -0.8597    0.3645 H   0  0  0  0  0  0  0  0  0  0  0  0
  1  2  1  0
  2  3  2  0
  2  4  1  0
  4  5  1  0
  5  6  1  0
  6  7  2  0
  6  8  1  0
  8  9  1  0
  9 10  1  0
 10 11  2  0
 10 12  1  0
 12 13  1  0
 13 14  1  0
 14 15  1  0
 15 16  1  0
 16 17  1  0
 17 18  1  0
 18 19  1  0
 19 20  1  0
 20 21  2  3
 21 22  1  0
 21 23  1  0
 14 24  1  0
 24 25  1  0
 25 26  1  0
 26 27  2  0
 27 28  1  0
 28 29  2  0
 29 30  1  0
 30 31  2  0
 30 32  1  0
 32 33  2  0
 33 34  1  0
 34 35  2  0
  9 36  1  0
 36 37  1  0
 37 38  2  0
 38 39  1  0
 39 40  2  0
 40 41  1  0
 41 42  2  0
  5 43  1  0
 43 44  1  0
 44 45  2  0
 45 46  1  0
 46 47  2  0
 47 48  1  0
 48 49  2  0
 47 50  1  0
 16 12  1  0
 31 26  1  0
 42 37  1  0
 49 44  1  0
 35 29  1  0
  1 51  1  0
  1 52  1  0
  1 53  1  0
  4 54  1  0
  5 55  1  1
  8 56  1  0
  9 57  1  6
 13 58  1  0
 13 59  1  0
 14 60  1  1
 15 61  1  0
 15 62  1  0
 16 63  1  6
 17 64  1  0
 17 65  1  0
 18 66  1  0
 18 67  1  0
 19 68  1  0
 19 69  1  0
 22 70  1  0
 22 71  1  0
 23 72  1  0
 23 73  1  0
 25 74  1  0
 25 75  1  0
 27 76  1  0
 28 77  1  0
 31 78  1  0
 32 79  1  0
 33 80  1  0
 34 81  1  0
 35 82  1  0
 36 83  1  0
 36 84  1  0
 38 85  1  0
 39 86  1  0
 40 87  1  0
 41 88  1  0
 42 89  1  0
 43 90  1  0
 43 91  1  0
 45 92  1  0
 46 93  1  0
 48 94  1  0
 49 95  1  0
 50 96  1  0
M  END
>  <Ligand ID>  (1) 
LIG0003287

>  <Ligand>  (1) 
CHEMBL380051

>  <SMILES>  (1) 
CC(=O)N[C@H](C(=O)N[C@@H](C(=O)N1C[C@H](C[C@@H]1CCCN=C(N)N)OCc1ccc2c(c1)cccc2)Cc1ccccc1)Cc1ccc(cc1)O

>  <CID>  (1) 
11846844.0

>  <ChEMBL ID>  (1) 
nan

>  <InChiKey>  (1) 
OJPUSZQXDWHXOL-BIOLIVNTSA-N

>  <InChi>  (1) 
InChI=1S/C39H46N6O5/c1-26(46)43-35(21-28-14-17-33(47)18-15-28)37(48)44-36(22-27-8-3-2-4-9-27)38(49)45-24-34(23-32(45)12-7-19-42-39(40)41)50-25-29-13-16-30-10-5-6-11-31(30)20-29/h2-6,8-11,13-18,20,32,34-36,47H,7,12,19,21-25H2,1H3,(H,43,46)(H,44,48)(H4,40,41,42)/t32-,34-,35-,36+/m0/s1

>  <IUPAC Name>  (1) 
(2S)-2-acetamido-N-[(2R)-1-[(2S,4S)-2-[3-(diaminomethylideneamino)propyl]-4-(naphthalen-2-ylmethoxy)pyrrolidin-1-yl]-1-oxo-3-phenylpropan-2-yl]-3-(4-hydroxyphenyl)propanamide

$$$$
