
     RDKit          3D

 46 46  0  0  0  0  0  0  0  0999 V2000
   -1.0228    2.5296    1.0491 O   0  0  0  0  0  0  0  0  0  0  0  0
   -1.2269    2.7129   -0.1855 C   0  0  0  0  0  0  0  0  0  0  0  0
   -2.5182    2.5066   -0.7885 C   0  0  0  0  0  0  0  0  0  0  0  0
   -3.2478    1.2397   -0.7851 C   0  0  0  0  0  0  0  0  0  0  0  0
   -3.4417    0.5112    0.4855 C   0  0  0  0  0  0  0  0  0  0  0  0
   -2.3917   -0.5468    0.7907 C   0  0  0  0  0  0  0  0  0  0  0  0
   -2.5745   -1.7298   -0.1464 C   0  0  0  0  0  0  0  0  0  0  0  0
   -1.5380   -2.7696    0.1683 C   0  0  0  0  0  0  0  0  0  0  0  0
   -0.1577   -2.3094   -0.1838 C   0  0  0  0  0  0  0  0  0  0  0  0
    0.8576   -3.3855    0.2422 C   0  0  0  0  0  0  0  0  0  0  0  0
    2.2070   -2.8063   -0.2374 C   0  0  0  0  0  0  0  0  0  0  0  0
    2.3305   -1.5238    0.2130 O   0  0  0  0  0  0  0  0  0  0  0  0
    3.5198   -0.9018   -0.1147 C   0  0  0  0  0  0  0  0  0  0  0  0
    3.3998    0.5636    0.3821 C   0  0  0  0  0  0  0  0  0  0  0  0
    2.2838    1.2018   -0.4544 C   0  0  0  0  0  0  0  0  0  0  0  0
    2.0432    2.5787    0.0895 C   0  0  0  0  0  0  0  0  0  0  0  0
    1.1237    3.4595   -0.6385 C   0  0  0  0  0  0  0  0  0  0  0  0
   -0.1606    3.1333   -0.9333 O   0  0  0  0  0  0  0  0  0  0  0  0
   -3.2559    3.2894   -0.3765 H   0  0  0  0  0  0  0  0  0  0  0  0
   -2.5033    2.8447   -1.8936 H   0  0  0  0  0  0  0  0  0  0  0  0
   -4.2772    1.4429   -1.2381 H   0  0  0  0  0  0  0  0  0  0  0  0
   -2.7992    0.5428   -1.5358 H   0  0  0  0  0  0  0  0  0  0  0  0
   -3.4390    1.1803    1.3820 H   0  0  0  0  0  0  0  0  0  0  0  0
   -4.4298   -0.0245    0.5311 H   0  0  0  0  0  0  0  0  0  0  0  0
   -2.5094   -0.8723    1.8171 H   0  0  0  0  0  0  0  0  0  0  0  0
   -1.3855   -0.1431    0.6262 H   0  0  0  0  0  0  0  0  0  0  0  0
   -3.6004   -2.1399   -0.0921 H   0  0  0  0  0  0  0  0  0  0  0  0
   -2.3488   -1.3713   -1.1704 H   0  0  0  0  0  0  0  0  0  0  0  0
   -1.5433   -2.9299    1.2712 H   0  0  0  0  0  0  0  0  0  0  0  0
   -1.7199   -3.7218   -0.3794 H   0  0  0  0  0  0  0  0  0  0  0  0
    0.1791   -1.3947    0.3240 H   0  0  0  0  0  0  0  0  0  0  0  0
   -0.0200   -2.2269   -1.3007 H   0  0  0  0  0  0  0  0  0  0  0  0
    0.8929   -3.3544    1.3461 H   0  0  0  0  0  0  0  0  0  0  0  0
    0.6441   -4.3551   -0.1955 H   0  0  0  0  0  0  0  0  0  0  0  0
    2.1976   -2.8179   -1.3412 H   0  0  0  0  0  0  0  0  0  0  0  0
    3.0494   -3.4107    0.1028 H   0  0  0  0  0  0  0  0  0  0  0  0
    3.6668   -0.8740   -1.1947 H   0  0  0  0  0  0  0  0  0  0  0  0
    4.3872   -1.3399    0.3826 H   0  0  0  0  0  0  0  0  0  0  0  0
    4.3885    1.0116    0.1841 H   0  0  0  0  0  0  0  0  0  0  0  0
    3.1784    0.6134    1.4501 H   0  0  0  0  0  0  0  0  0  0  0  0
    1.4050    0.5531   -0.4044 H   0  0  0  0  0  0  0  0  0  0  0  0
    2.6715    1.2685   -1.4799 H   0  0  0  0  0  0  0  0  0  0  0  0
    1.8436    2.5344    1.1976 H   0  0  0  0  0  0  0  0  0  0  0  0
    3.0667    3.0802    0.0596 H   0  0  0  0  0  0  0  0  0  0  0  0
    1.1437    4.4623   -0.0655 H   0  0  0  0  0  0  0  0  0  0  0  0
    1.6317    3.6887   -1.6463 H   0  0  0  0  0  0  0  0  0  0  0  0
  1  2  2  0
  2  3  1  0
  3  4  1  0
  4  5  1  0
  5  6  1  0
  6  7  1  0
  7  8  1  0
  8  9  1  0
  9 10  1  0
 10 11  1  0
 11 12  1  0
 12 13  1  0
 13 14  1  0
 14 15  1  0
 15 16  1  0
 16 17  1  0
 17 18  1  0
 18  2  1  0
  3 19  1  0
  3 20  1  0
  4 21  1  0
  4 22  1  0
  5 23  1  0
  5 24  1  0
  6 25  1  0
  6 26  1  0
  7 27  1  0
  7 28  1  0
  8 29  1  0
  8 30  1  0
  9 31  1  0
  9 32  1  0
 10 33  1  0
 10 34  1  0
 11 35  1  0
 11 36  1  0
 13 37  1  0
 13 38  1  0
 14 39  1  0
 14 40  1  0
 15 41  1  0
 15 42  1  0
 16 43  1  0
 16 44  1  0
 17 45  1  0
 17 46  1  0
M  END
>  <Ligand ID>  (1) 
LIG0001067

>  <Ligand>  (1) 
1,7-dioxacycloheptadecan-8-one

>  <SMILES>  (1) 
O=C1CCCCCCCCCOCCCCCO1

>  <CID>  (1) 
18826.0

>  <ChEMBL ID>  (1) 
nan

>  <InChiKey>  (1) 
MKEIDVFLAWJKMY-UHFFFAOYSA-N

>  <InChi>  (1) 
InChI=1S/C15H28O3/c16-15-11-7-4-2-1-3-5-8-12-17-13-9-6-10-14-18-15/h1-14H2

>  <IUPAC Name>  (1) 
1,7-dioxacycloheptadecan-8-one

$$$$
