
     RDKit          3D

 70 68  0  0  0  0  0  0  0  0999 V2000
    1.4921   -0.5333    0.4242 O   0  0  0  0  0  0  0  0  0  0  0  0
    0.4895    0.3111   -0.0632 C   0  0  0  0  0  0  0  0  0  0  0  0
    0.8566    1.3818   -0.6493 O   0  0  0  0  0  0  0  0  0  0  0  0
   -0.9490   -0.0402    0.1034 C   0  0  0  0  0  0  0  0  0  0  0  0
   -1.2578   -1.2496   -0.5140 F   0  0  0  0  0  0  0  0  0  0  0  0
   -1.2741   -0.1314    1.4219 F   0  0  0  0  0  0  0  0  0  0  0  0
   -1.6950    0.9171   -0.5691 F   0  0  0  0  0  0  0  0  0  0  0  0
    7.9924    0.6355    1.7007 C   0  0  0  0  0  0  0  0  0  0  0  0
    8.2325    0.4651    0.2069 C   0  0  0  0  0  0  0  0  0  0  0  0
    7.0483    1.0252   -0.5269 C   0  0  0  0  0  0  0  0  0  0  0  0
    5.7832    0.2846   -0.0841 C   0  0  0  0  0  0  0  0  0  0  0  0
    5.9140   -1.1563   -0.4060 C   0  0  0  0  0  0  0  0  0  0  0  0
    4.7801   -2.0128   -0.0498 C   0  0  0  0  0  0  0  0  0  0  0  0
    3.4461   -1.9000   -0.6111 C   0  0  0  0  0  0  0  0  0  0  0  0
    2.6099   -0.6938   -0.4896 C   0  0  0  0  0  0  0  0  0  0  0  0
    1.2651   -1.0560   -1.1763 C   0  0  0  0  0  0  0  0  0  0  0  0
    0.3778    0.1468   -1.1049 C   0  0  0  0  0  0  0  0  0  0  0  0
    0.1161    0.5371    0.3264 C   0  0  0  0  0  0  0  0  0  0  0  0
   -0.8060    1.7453    0.4088 C   0  0  0  0  0  0  0  0  0  0  0  0
   -2.1485    1.4760   -0.2367 C   0  0  0  0  0  0  0  0  0  0  0  0
   -2.7922    0.3228    0.4794 C   0  0  0  0  0  0  0  0  0  0  0  0
   -4.1061    0.0052   -0.0982 N   0  0  0  0  0  0  0  0  0  0  0  0
   -4.9125   -1.0512    0.4099 C   0  0  0  0  0  0  0  0  0  0  0  0
   -4.5344   -1.7716    1.3892 O   0  0  0  0  0  0  0  0  0  0  0  0
   -6.2296   -1.2763   -0.2626 C   0  0  2  0  0  0  0  0  0  0  0  0
   -7.0313   -0.0066   -0.0077 C   0  0  0  0  0  0  0  0  0  0  0  0
   -8.3027   -0.0863   -0.5484 O   0  0  0  0  0  0  0  0  0  0  0  0
   -9.1147    1.3475   -0.2224 P   0  0  0  0  0  0  0  0  0  0  0  0
  -10.5450    0.9730    0.1585 O   0  0  0  0  0  0  0  0  0  0  0  0
   -8.4108    2.2037    1.0785 O   0  0  0  0  0  0  0  0  0  0  0  0
   -9.1877    2.3420   -1.5860 O   0  0  0  0  0  0  0  0  0  0  0  0
   -6.9370   -2.3670    0.3469 N   0  0  0  0  0  0  0  0  0  0  0  0
    2.3377   -0.6554   -0.1539 H   0  0  0  0  0  0  0  0  0  0  0  0
    7.6276   -0.3037    2.1250 H   0  0  0  0  0  0  0  0  0  0  0  0
    7.2132    1.4196    1.8740 H   0  0  0  0  0  0  0  0  0  0  0  0
    8.9437    0.9814    2.1466 H   0  0  0  0  0  0  0  0  0  0  0  0
    8.4639   -0.5859    0.0071 H   0  0  0  0  0  0  0  0  0  0  0  0
    9.1377    1.0653   -0.0943 H   0  0  0  0  0  0  0  0  0  0  0  0
    6.9235    2.1132   -0.3594 H   0  0  0  0  0  0  0  0  0  0  0  0
    7.1850    0.9140   -1.6259 H   0  0  0  0  0  0  0  0  0  0  0  0
    5.6849    0.3592    1.0358 H   0  0  0  0  0  0  0  0  0  0  0  0
    4.9353    0.8287   -0.4815 H   0  0  0  0  0  0  0  0  0  0  0  0
    6.3230   -1.3401   -1.4346 H   0  0  0  0  0  0  0  0  0  0  0  0
    6.7820   -1.5263    0.2437 H   0  0  0  0  0  0  0  0  0  0  0  0
    4.7231   -2.0342    1.1033 H   0  0  0  0  0  0  0  0  0  0  0  0
    5.1024   -3.1059   -0.2276 H   0  0  0  0  0  0  0  0  0  0  0  0
    2.8280   -2.7405   -0.1320 H   0  0  0  0  0  0  0  0  0  0  0  0
    3.4048   -2.2389   -1.7086 H   0  0  0  0  0  0  0  0  0  0  0  0
    2.4233   -0.4997    0.5815 H   0  0  0  0  0  0  0  0  0  0  0  0
    2.9089    0.2053   -1.0429 H   0  0  0  0  0  0  0  0  0  0  0  0
    1.4479   -1.2887   -2.2400 H   0  0  0  0  0  0  0  0  0  0  0  0
    0.8202   -1.9317   -0.6800 H   0  0  0  0  0  0  0  0  0  0  0  0
   -0.5938   -0.0242   -1.6502 H   0  0  0  0  0  0  0  0  0  0  0  0
    0.8306    1.0100   -1.6423 H   0  0  0  0  0  0  0  0  0  0  0  0
   -0.2400   -0.3364    0.8706 H   0  0  0  0  0  0  0  0  0  0  0  0
    1.0584    0.8884    0.8315 H   0  0  0  0  0  0  0  0  0  0  0  0
   -0.3087    2.5650   -0.1442 H   0  0  0  0  0  0  0  0  0  0  0  0
   -0.9486    1.9973    1.4725 H   0  0  0  0  0  0  0  0  0  0  0  0
   -2.0612    1.3534   -1.3231 H   0  0  0  0  0  0  0  0  0  0  0  0
   -2.7685    2.3781   -0.0466 H   0  0  0  0  0  0  0  0  0  0  0  0
   -2.2145   -0.6109    0.4210 H   0  0  0  0  0  0  0  0  0  0  0  0
   -3.0155    0.6577    1.5140 H   0  0  0  0  0  0  0  0  0  0  0  0
   -4.4358    0.5979   -0.9166 H   0  0  0  0  0  0  0  0  0  0  0  0
   -6.0635   -1.4412   -1.3306 H   0  0  0  0  0  0  0  0  0  0  0  0
   -7.1320    0.0395    1.1140 H   0  0  0  0  0  0  0  0  0  0  0  0
   -6.4411    0.8576   -0.3203 H   0  0  0  0  0  0  0  0  0  0  0  0
   -7.7220    2.7824    0.6721 H   0  0  0  0  0  0  0  0  0  0  0  0
   -8.4663    2.1130   -2.2224 H   0  0  0  0  0  0  0  0  0  0  0  0
   -7.0016   -3.1617   -0.3539 H   0  0  0  0  0  0  0  0  0  0  0  0
   -7.8613   -2.0888    0.6897 H   0  0  0  0  0  0  0  0  0  0  0  0
  1  2  1  0
  2  3  2  0
  2  4  1  0
  4  5  1  0
  4  6  1  0
  4  7  1  0
  8  9  1  0
  9 10  1  0
 10 11  1  0
 11 12  1  0
 12 13  1  0
 13 14  1  0
 14 15  1  0
 15 16  1  0
 16 17  1  0
 17 18  1  0
 18 19  1  0
 19 20  1  0
 20 21  1  0
 21 22  1  0
 22 23  1  0
 23 24  2  0
 23 25  1  0
 25 26  1  0
 26 27  1  0
 27 28  1  0
 28 29  2  0
 28 30  1  0
 28 31  1  0
 25 32  1  0
  1 33  1  0
  8 34  1  0
  8 35  1  0
  8 36  1  0
  9 37  1  0
  9 38  1  0
 10 39  1  0
 10 40  1  0
 11 41  1  0
 11 42  1  0
 12 43  1  0
 12 44  1  0
 13 45  1  0
 13 46  1  0
 14 47  1  0
 14 48  1  0
 15 49  1  0
 15 50  1  0
 16 51  1  0
 16 52  1  0
 17 53  1  0
 17 54  1  0
 18 55  1  0
 18 56  1  0
 19 57  1  0
 19 58  1  0
 20 59  1  0
 20 60  1  0
 21 61  1  0
 21 62  1  0
 22 63  1  0
 25 64  1  6
 26 65  1  0
 26 66  1  0
 30 67  1  0
 31 68  1  0
 32 69  1  0
 32 70  1  0
M  END
>  <Ligand ID>  (1) 
LIG0004275

>  <Ligand>  (1) 
CHEMBL423691

>  <SMILES>  (1) 
OC(=O)C(F)(F)F.CCCCCCCCCCCCCCNC(=O)[C@H](COP(=O)(O)O)N

>  <CID>  (1) 
44342243.0

>  <ChEMBL ID>  (1) 
nan

>  <InChiKey>  (1) 
BVDDKKFUHSGVTL-NTISSMGPSA-N

>  <InChi>  (1) 
InChI=1S/C17H37N2O5P.C2HF3O2/c1-2-3-4-5-6-7-8-9-10-11-12-13-14-19-17(20)16(18)15-24-25(21,22)23;3-2(4,5)1(6)7/h16H,2-15,18H2,1H3,(H,19,20)(H2,21,22,23);(H,6,7)/t16-;/m0./s1

>  <IUPAC Name>  (1) 
[(2S)-2-amino-3-oxo-3-(tetradecylamino)propyl] dihydrogen phosphate;2,2,2-trifluoroacetic acid

$$$$
