
     RDKit          3D

 64 64  0  0  0  0  0  0  0  0999 V2000
    9.9612   -2.6075    0.1745 C   0  0  0  0  0  0  0  0  0  0  0  0
    8.5560   -2.1308    0.2001 C   0  0  0  0  0  0  0  0  0  0  0  0
    7.5096   -2.9343    0.3481 C   0  0  0  0  0  0  0  0  0  0  0  0
    6.1024   -2.4596    0.3740 C   0  0  0  0  0  0  0  0  0  0  0  0
    6.1248   -0.9721    0.2072 C   0  0  0  0  0  0  0  0  0  0  0  0
    5.6197   -0.1916    1.1453 C   0  0  0  0  0  0  0  0  0  0  0  0
    5.6259    1.2882    1.0111 C   0  0  0  0  0  0  0  0  0  0  0  0
    4.2267    1.7596    1.0468 C   0  0  0  0  0  0  0  0  0  0  0  0
    3.6428    2.4300    0.0606 C   0  0  0  0  0  0  0  0  0  0  0  0
    2.2256    2.8985    0.1155 C   0  0  0  0  0  0  0  0  0  0  0  0
    1.3964    2.3134   -0.9892 C   0  0  0  0  0  0  0  0  0  0  0  0
   -0.0364    2.7889   -0.9388 C   0  0  0  0  0  0  0  0  0  0  0  0
   -0.6905    2.4059    0.3601 C   0  0  0  0  0  0  0  0  0  0  0  0
   -0.7241    0.9223    0.5990 C   0  0  0  0  0  0  0  0  0  0  0  0
   -1.4594    0.1360   -0.4401 C   0  0  0  0  0  0  0  0  0  0  0  0
   -2.8930    0.6160   -0.4822 C   0  0  0  0  0  0  0  0  0  0  0  0
   -3.7014   -0.1419   -1.5164 C   0  0  0  0  0  0  0  0  0  0  0  0
   -5.1110    0.4017   -1.4877 C   0  0  0  0  0  0  0  0  0  0  0  0
   -5.9557   -0.2022   -2.3838 O   0  0  0  0  0  0  0  0  0  0  0  0
   -6.9941   -0.7874   -1.6592 C   0  0  0  0  0  0  0  0  0  0  0  0
   -7.0638    0.1271   -0.4525 C   0  0  0  0  0  0  0  0  0  0  0  0
   -5.6856    0.3136   -0.2269 O   0  0  0  0  0  0  0  0  0  0  0  0
   -7.6691   -0.5330    0.7482 C   0  0  0  0  0  0  0  0  0  0  0  0
   -7.0863   -1.7536    0.9834 O   0  0  0  0  0  0  0  0  0  0  0  0
   -7.7829   -2.5043    2.3535 P   0  0  0  0  0  0  0  0  0  0  0  0
   -6.7519   -2.7596    3.4288 O   0  0  0  0  0  0  0  0  0  0  0  0
   -8.3361   -4.0190    1.8210 O   0  0  0  0  0  0  0  0  0  0  0  0
   -9.0390   -1.5793    2.9861 O   0  0  0  0  0  0  0  0  0  0  0  0
   10.0979   -3.5736   -0.3485 H   0  0  0  0  0  0  0  0  0  0  0  0
   10.5936   -1.8730   -0.3908 H   0  0  0  0  0  0  0  0  0  0  0  0
   10.4105   -2.6896    1.1997 H   0  0  0  0  0  0  0  0  0  0  0  0
    8.3679   -1.0576    0.0913 H   0  0  0  0  0  0  0  0  0  0  0  0
    7.7345   -4.0066    0.4548 H   0  0  0  0  0  0  0  0  0  0  0  0
    5.4958   -2.8663   -0.4598 H   0  0  0  0  0  0  0  0  0  0  0  0
    5.6838   -2.7286    1.3635 H   0  0  0  0  0  0  0  0  0  0  0  0
    6.5474   -0.5327   -0.6676 H   0  0  0  0  0  0  0  0  0  0  0  0
    5.1749   -0.5927    2.0610 H   0  0  0  0  0  0  0  0  0  0  0  0
    6.2347    1.7521    1.8120 H   0  0  0  0  0  0  0  0  0  0  0  0
    6.0399    1.5877    0.0100 H   0  0  0  0  0  0  0  0  0  0  0  0
    3.6427    1.5409    1.9393 H   0  0  0  0  0  0  0  0  0  0  0  0
    4.2181    2.6495   -0.8274 H   0  0  0  0  0  0  0  0  0  0  0  0
    1.8682    2.6252    1.1283 H   0  0  0  0  0  0  0  0  0  0  0  0
    2.2829    4.0066   -0.0180 H   0  0  0  0  0  0  0  0  0  0  0  0
    1.3797    1.2039   -0.9178 H   0  0  0  0  0  0  0  0  0  0  0  0
    1.8780    2.5847   -1.9545 H   0  0  0  0  0  0  0  0  0  0  0  0
   -0.5649    2.3152   -1.8158 H   0  0  0  0  0  0  0  0  0  0  0  0
   -0.0873    3.8642   -1.1286 H   0  0  0  0  0  0  0  0  0  0  0  0
   -1.7204    2.8610    0.4427 H   0  0  0  0  0  0  0  0  0  0  0  0
   -0.1438    2.8408    1.2211 H   0  0  0  0  0  0  0  0  0  0  0  0
   -1.2527    0.7602    1.5642 H   0  0  0  0  0  0  0  0  0  0  0  0
    0.3225    0.5693    0.6922 H   0  0  0  0  0  0  0  0  0  0  0  0
   -1.0489    0.3091   -1.4567 H   0  0  0  0  0  0  0  0  0  0  0  0
   -1.3962   -0.9302   -0.1420 H   0  0  0  0  0  0  0  0  0  0  0  0
   -2.8541    1.7022   -0.7846 H   0  0  0  0  0  0  0  0  0  0  0  0
   -3.3342    0.4842    0.5251 H   0  0  0  0  0  0  0  0  0  0  0  0
   -3.2997   -0.0394   -2.5250 H   0  0  0  0  0  0  0  0  0  0  0  0
   -3.6835   -1.2148   -1.2299 H   0  0  0  0  0  0  0  0  0  0  0  0
   -5.0098    1.5103   -1.6798 H   0  0  0  0  0  0  0  0  0  0  0  0
   -6.6733   -1.8041   -1.3944 H   0  0  0  0  0  0  0  0  0  0  0  0
   -7.9494   -0.7727   -2.2250 H   0  0  0  0  0  0  0  0  0  0  0  0
   -7.5369    1.0642   -0.7376 H   0  0  0  0  0  0  0  0  0  0  0  0
   -8.7744   -0.5687    0.6498 H   0  0  0  0  0  0  0  0  0  0  0  0
   -7.4363    0.1234    1.6274 H   0  0  0  0  0  0  0  0  0  0  0  0
   -9.2182   -3.9291    1.4203 H   0  0  0  0  0  0  0  0  0  0  0  0
  1  2  1  0
  2  3  2  0
  3  4  1  0
  4  5  1  0
  5  6  2  0
  6  7  1  0
  7  8  1  0
  8  9  2  0
  9 10  1  0
 10 11  1  0
 11 12  1  0
 12 13  1  0
 13 14  1  0
 14 15  1  0
 15 16  1  0
 16 17  1  0
 17 18  1  0
 18 19  1  0
 19 20  1  0
 20 21  1  0
 21 22  1  0
 21 23  1  0
 23 24  1  0
 24 25  1  0
 25 26  2  0
 25 27  1  0
 25 28  1  0
 22 18  1  0
  1 29  1  0
  1 30  1  0
  1 31  1  0
  2 32  1  0
  3 33  1  0
  4 34  1  0
  4 35  1  0
  5 36  1  0
  6 37  1  0
  7 38  1  0
  7 39  1  0
  8 40  1  0
  9 41  1  0
 10 42  1  0
 10 43  1  0
 11 44  1  0
 11 45  1  0
 12 46  1  0
 12 47  1  0
 13 48  1  0
 13 49  1  0
 14 50  1  0
 14 51  1  0
 15 52  1  0
 15 53  1  0
 16 54  1  0
 16 55  1  0
 17 56  1  0
 17 57  1  0
 18 58  1  0
 20 59  1  0
 20 60  1  0
 21 61  1  0
 23 62  1  0
 23 63  1  0
 27 64  1  0
M  CHG  1  28  -1
M  END
>  <Ligand ID>  (1) 
LIG0005583

>  <Ligand>  (1) 
CHEMBL383362

>  <SMILES>  (1) 
C/C=C/C/C=C/C/C=C/CCCCCCCCC1OCC(O1)COP(=O)(O)[O-]

>  <CID>  (1) 
91936394.0

>  <ChEMBL ID>  (1) 
nan

>  <InChiKey>  (1) 
DXOPTPZUSBDQEI-QMDLBSTFSA-M

>  <InChi>  (1) 
InChI=1S/C21H37O6P/c1-2-3-4-5-6-7-8-9-10-11-12-13-14-15-16-17-21-25-18-20(27-21)19-26-28(22,23)24/h2-3,5-6,8-9,20-21H,4,7,10-19H2,1H3,(H2,22,23,24)/p-1/b3-2+,6-5+,9-8+

>  <IUPAC Name>  (1) 
[2-[(9E,12E,15E)-heptadeca-9,12,15-trienyl]-1,3-dioxolan-4-yl]methyl hydrogen phosphate

$$$$
