
     RDKit          3D

 41 43  0  0  0  0  0  0  0  0999 V2000
    4.1426    1.3801   -2.0479 C   0  0  0  0  0  0  0  0  0  0  0  0
    3.8863   -0.0397   -1.5962 C   0  0  0  0  0  0  0  0  0  0  0  0
    3.9000   -0.1463   -0.0793 C   0  0  0  0  0  0  0  0  0  0  0  0
    2.8954    0.6743    0.5286 N   0  0  0  0  0  0  0  0  0  0  0  0
    3.1935    1.9426    0.9179 N   0  0  0  0  0  0  0  0  0  0  0  0
    2.1186    2.4786    1.4686 C   0  0  0  0  0  0  0  0  0  0  0  0
    1.1748    1.5457    1.4147 N   0  0  0  0  0  0  0  0  0  0  0  0
    1.6102    0.4110    0.8397 C   0  0  0  0  0  0  0  0  0  0  0  0
    0.8172   -0.7920    0.6468 C   0  0  0  0  0  0  0  0  0  0  0  0
    1.2711   -1.9154   -0.0002 C   0  0  0  0  0  0  0  0  0  0  0  0
    0.4973   -3.0560   -0.2224 C   0  0  0  0  0  0  0  0  0  0  0  0
   -0.7966   -3.0863    0.2197 C   0  0  0  0  0  0  0  0  0  0  0  0
   -1.2632   -1.9689    0.8687 C   0  0  0  0  0  0  0  0  0  0  0  0
   -0.4949   -0.8322    1.0914 C   0  0  0  0  0  0  0  0  0  0  0  0
   -1.1421    0.2025    1.8188 N   0  0  0  0  0  0  0  0  0  0  0  0
   -2.5322    0.1338    2.2426 C   0  0  0  0  0  0  0  0  0  0  0  0
   -3.4546    0.2262    1.0757 C   0  0  0  0  0  0  0  0  0  0  0  0
   -4.4495   -0.5085    0.7363 N   0  0  0  0  0  0  0  0  0  0  0  0
   -5.0735   -0.0608   -0.4775 C   0  0  0  0  0  0  0  0  0  0  0  0
   -4.4964    1.2992   -0.7424 C   0  0  0  0  0  0  0  0  0  0  0  0
   -3.3260    1.2806    0.1146 N   0  0  0  0  0  0  0  0  0  0  0  0
    4.9364    1.7958   -1.3950 H   0  0  0  0  0  0  0  0  0  0  0  0
    4.5003    1.3296   -3.0833 H   0  0  0  0  0  0  0  0  0  0  0  0
    3.2094    1.9846   -2.0513 H   0  0  0  0  0  0  0  0  0  0  0  0
    2.8707   -0.2980   -1.9593 H   0  0  0  0  0  0  0  0  0  0  0  0
    4.6312   -0.7185   -2.0231 H   0  0  0  0  0  0  0  0  0  0  0  0
    4.0658   -1.1359    0.3278 H   0  0  0  0  0  0  0  0  0  0  0  0
    4.9204    0.3526    0.1677 H   0  0  0  0  0  0  0  0  0  0  0  0
    1.9619    3.4656    1.8968 H   0  0  0  0  0  0  0  0  0  0  0  0
    2.2657   -1.9934   -0.3985 H   0  0  0  0  0  0  0  0  0  0  0  0
    0.8858   -3.9191   -0.7333 H   0  0  0  0  0  0  0  0  0  0  0  0
   -1.4328   -3.9457    0.0706 H   0  0  0  0  0  0  0  0  0  0  0  0
   -2.2797   -2.0163    1.2202 H   0  0  0  0  0  0  0  0  0  0  0  0
   -0.6662    1.0970    2.1148 H   0  0  0  0  0  0  0  0  0  0  0  0
   -2.7118    0.9210    2.9781 H   0  0  0  0  0  0  0  0  0  0  0  0
   -2.6629   -0.8250    2.7910 H   0  0  0  0  0  0  0  0  0  0  0  0
   -4.8923   -0.8031   -1.2805 H   0  0  0  0  0  0  0  0  0  0  0  0
   -6.1603    0.0611   -0.2455 H   0  0  0  0  0  0  0  0  0  0  0  0
   -5.1777    2.1323   -0.4285 H   0  0  0  0  0  0  0  0  0  0  0  0
   -4.2153    1.3904   -1.8256 H   0  0  0  0  0  0  0  0  0  0  0  0
   -2.5264    1.9567    0.0120 H   0  0  0  0  0  0  0  0  0  0  0  0
  1  2  1  0
  2  3  1  0
  3  4  1  0
  4  5  1  0
  5  6  2  0
  6  7  1  0
  7  8  2  0
  8  9  1  0
  9 10  2  0
 10 11  1  0
 11 12  2  0
 12 13  1  0
 13 14  2  0
 14 15  1  0
 15 16  1  0
 16 17  1  0
 17 18  2  0
 18 19  1  0
 19 20  1  0
 20 21  1  0
  8  4  1  0
 14  9  1  0
 21 17  1  0
  1 22  1  0
  1 23  1  0
  1 24  1  0
  2 25  1  0
  2 26  1  0
  3 27  1  0
  3 28  1  0
  6 29  1  0
 10 30  1  0
 11 31  1  0
 12 32  1  0
 13 33  1  0
 15 34  1  0
 16 35  1  0
 16 36  1  0
 19 37  1  0
 19 38  1  0
 20 39  1  0
 20 40  1  0
 21 41  1  0
M  END
>  <Ligand ID>  (1) 
LIG0004345

>  <Ligand>  (1) 
CHEMBL17776

>  <SMILES>  (1) 
CCCn1ncnc1c1ccccc1NCC1=NCCN1

>  <CID>  (1) 
22493265.0

>  <ChEMBL ID>  (1) 
nan

>  <InChiKey>  (1) 
INARLERZKDBYDJ-UHFFFAOYSA-N

>  <InChi>  (1) 
InChI=1S/C15H20N6/c1-2-9-21-15(19-11-20-21)12-5-3-4-6-13(12)18-10-14-16-7-8-17-14/h3-6,11,18H,2,7-10H2,1H3,(H,16,17)

>  <IUPAC Name>  (1) 
N-(4,5-dihydro-1H-imidazol-2-ylmethyl)-2-(2-propyl-1,2,4-triazol-3-yl)aniline

$$$$
