
     RDKit          3D

 60 62  0  0  0  0  0  0  0  0999 V2000
   -7.0898    1.5494   -1.4103 O   0  0  0  0  0  0  0  0  0  0  0  0
   -6.9371    0.7905   -0.2192 C   0  0  0  0  0  0  0  0  0  0  0  0
   -7.0520   -0.4397   -0.3705 O   0  0  0  0  0  0  0  0  0  0  0  0
   -6.6719    1.5432    0.9921 C   0  0  0  0  0  0  0  0  0  0  0  0
   -6.3473    0.8200    2.2329 C   0  0  0  0  0  0  0  0  0  0  0  0
   -5.0949    0.0123    2.2949 C   0  0  0  0  0  0  0  0  0  0  0  0
   -5.0200   -1.0621    1.3717 C   0  0  0  0  0  0  0  0  0  0  0  0
   -4.0644   -1.1294    0.4507 C   0  0  0  0  0  0  0  0  0  0  0  0
   -2.9994   -0.1811    0.2389 C   0  0  0  0  0  0  0  0  0  0  0  0
   -1.5955   -0.7000    0.3844 C   0  0  1  0  0  0  0  0  0  0  0  0
   -1.1886   -1.7899   -0.5313 C   0  0  1  0  0  0  0  0  0  0  0  0
   -2.0397   -2.8392   -0.6952 O   0  0  0  0  0  0  0  0  0  0  0  0
   -0.7357   -1.1209   -1.8098 C   0  0  0  0  0  0  0  0  0  0  0  0
   -0.5776    0.3413   -1.4509 C   0  0  1  0  0  0  0  0  0  0  0  0
   -0.5381    0.3714    0.0515 C   0  0  2  0  0  0  0  0  0  0  0  0
    0.7009   -0.1107    0.6734 C   0  0  0  0  0  0  0  0  0  0  0  0
    1.8368   -0.4010    0.0900 C   0  0  0  0  0  0  0  0  0  0  0  0
    2.9722   -0.8742    0.9001 C   0  0  1  0  0  0  0  0  0  0  0  0
    4.3146   -0.4029    0.4817 C   0  0  0  0  0  0  0  0  0  0  0  0
    4.5944   -0.8639   -0.9311 C   0  0  0  0  0  0  0  0  0  0  0  0
    5.8089   -0.0184   -1.2316 C   0  0  0  0  0  0  0  0  0  0  0  0
    5.7215    1.1562   -0.4723 C   0  0  0  0  0  0  0  0  0  0  0  0
    4.4453    1.0837    0.3314 C   0  0  0  0  0  0  0  0  0  0  0  0
    6.7226    2.1202   -0.5601 C   0  0  0  0  0  0  0  0  0  0  0  0
    7.8154    1.9388   -1.3927 C   0  0  0  0  0  0  0  0  0  0  0  0
    7.8939    0.7736   -2.1406 C   0  0  0  0  0  0  0  0  0  0  0  0
    6.9040   -0.2082   -2.0707 C   0  0  0  0  0  0  0  0  0  0  0  0
    2.8105   -0.5002    2.2554 O   0  0  0  0  0  0  0  0  0  0  0  0
    0.4885    0.9374   -2.0713 F   0  0  0  0  0  0  0  0  0  0  0  0
   -7.2112    1.0800   -2.2977 H   0  0  0  0  0  0  0  0  0  0  0  0
   -5.9467    2.3787    0.7690 H   0  0  0  0  0  0  0  0  0  0  0  0
   -7.6263    2.1337    1.2081 H   0  0  0  0  0  0  0  0  0  0  0  0
   -6.3743    1.5124    3.1327 H   0  0  0  0  0  0  0  0  0  0  0  0
   -7.2504    0.1527    2.4520 H   0  0  0  0  0  0  0  0  0  0  0  0
   -4.2610    0.7221    2.3623 H   0  0  0  0  0  0  0  0  0  0  0  0
   -5.1105   -0.4454    3.3453 H   0  0  0  0  0  0  0  0  0  0  0  0
   -5.7647   -1.8847    1.4288 H   0  0  0  0  0  0  0  0  0  0  0  0
   -4.1224   -2.0132   -0.2105 H   0  0  0  0  0  0  0  0  0  0  0  0
   -3.0819    0.1344   -0.8507 H   0  0  0  0  0  0  0  0  0  0  0  0
   -3.0315    0.7707    0.7675 H   0  0  0  0  0  0  0  0  0  0  0  0
   -1.3756   -0.9914    1.4467 H   0  0  0  0  0  0  0  0  0  0  0  0
   -0.2383   -2.2288   -0.0920 H   0  0  0  0  0  0  0  0  0  0  0  0
   -1.9175   -3.4832    0.0398 H   0  0  0  0  0  0  0  0  0  0  0  0
   -1.4428   -1.2674   -2.6518 H   0  0  0  0  0  0  0  0  0  0  0  0
    0.2500   -1.4867   -2.1612 H   0  0  0  0  0  0  0  0  0  0  0  0
   -1.4861    0.9249   -1.7551 H   0  0  0  0  0  0  0  0  0  0  0  0
   -0.8707    1.3557    0.4590 H   0  0  0  0  0  0  0  0  0  0  0  0
    0.6670   -0.2451    1.7734 H   0  0  0  0  0  0  0  0  0  0  0  0
    1.9416   -0.3014   -0.9556 H   0  0  0  0  0  0  0  0  0  0  0  0
    2.8955   -1.9872    0.9257 H   0  0  0  0  0  0  0  0  0  0  0  0
    5.1338   -0.7359    1.1506 H   0  0  0  0  0  0  0  0  0  0  0  0
    3.8286   -0.5393   -1.6308 H   0  0  0  0  0  0  0  0  0  0  0  0
    4.8214   -1.9444   -0.9670 H   0  0  0  0  0  0  0  0  0  0  0  0
    4.5342    1.6474    1.2643 H   0  0  0  0  0  0  0  0  0  0  0  0
    3.6655    1.5485   -0.2903 H   0  0  0  0  0  0  0  0  0  0  0  0
    6.6434    3.0356    0.0391 H   0  0  0  0  0  0  0  0  0  0  0  0
    8.6143    2.6774   -1.4807 H   0  0  0  0  0  0  0  0  0  0  0  0
    8.7157    0.5591   -2.8130 H   0  0  0  0  0  0  0  0  0  0  0  0
    6.9329   -1.1159   -2.6318 H   0  0  0  0  0  0  0  0  0  0  0  0
    3.3906   -1.0458    2.8325 H   0  0  0  0  0  0  0  0  0  0  0  0
  1  2  1  0
  2  3  2  0
  2  4  1  0
  4  5  1  0
  5  6  1  0
  6  7  1  0
  7  8  2  0
  8  9  1  0
  9 10  1  0
 10 11  1  0
 11 12  1  0
 11 13  1  0
 13 14  1  0
 14 15  1  0
 15 16  1  0
 16 17  2  0
 17 18  1  0
 18 19  1  0
 19 20  1  0
 20 21  1  0
 21 22  2  0
 22 23  1  0
 22 24  1  0
 24 25  2  0
 25 26  1  0
 26 27  2  0
 18 28  1  0
 14 29  1  0
 15 10  1  0
 23 19  1  0
 27 21  1  0
  1 30  1  0
  4 31  1  0
  4 32  1  0
  5 33  1  0
  5 34  1  0
  6 35  1  0
  6 36  1  0
  7 37  1  0
  8 38  1  0
  9 39  1  0
  9 40  1  0
 10 41  1  1
 11 42  1  1
 12 43  1  0
 13 44  1  0
 13 45  1  0
 14 46  1  6
 15 47  1  1
 16 48  1  0
 17 49  1  0
 18 50  1  1
 19 51  1  0
 20 52  1  0
 20 53  1  0
 23 54  1  0
 23 55  1  0
 24 56  1  0
 25 57  1  0
 26 58  1  0
 27 59  1  0
 28 60  1  0
M  END
>  <Ligand ID>  (1) 
LIG0005661

>  <Ligand>  (1) 
AL-8810

>  <SMILES>  (1) 
OC(=O)CCC/C=C\C[C@H]1[C@@H](O)C[C@@H]([C@@H]1/C=C/[C@@H](C1Cc2c(C1)cccc2)O)F

>  <CID>  (1) 
5311238.0

>  <ChEMBL ID>  (1) 
nan

>  <InChiKey>  (1) 
WTYSXBKKVNOOIX-JTGCGUAKSA-N

>  <InChi>  (1) 
InChI=1S/C24H31FO4/c25-21-15-23(27)20(9-3-1-2-4-10-24(28)29)19(21)11-12-22(26)18-13-16-7-5-6-8-17(16)14-18/h1,3,5-8,11-12,18-23,26-27H,2,4,9-10,13-15H2,(H,28,29)/b3-1-,12-11+/t19-,20-,21+,22+,23+/m1/s1

>  <IUPAC Name>  (1) 
(Z)-7-[(1R,2R,3S,5S)-2-[(E,3R)-3-(2,3-dihydro-1H-inden-2-yl)-3-hydroxyprop-1-enyl]-3-fluoro-5-hydroxycyclopentyl]hept-5-enoic acid

$$$$
