
     RDKit          3D

 65 66  0  0  0  0  0  0  0  0999 V2000
    9.0574    0.6783   -0.2537 O   0  0  0  0  0  0  0  0  0  0  0  0
    8.0913    0.4287    0.7166 C   0  0  0  0  0  0  0  0  0  0  0  0
    6.7644    0.7735    0.1019 C   0  0  0  0  0  0  0  0  0  0  0  0
    5.9054   -0.2164   -0.3235 C   0  0  0  0  0  0  0  0  0  0  0  0
    4.6773    0.0741   -0.8917 C   0  0  0  0  0  0  0  0  0  0  0  0
    4.2834    1.3754   -1.0456 C   0  0  0  0  0  0  0  0  0  0  0  0
    5.1524    2.3594   -0.6156 C   0  0  0  0  0  0  0  0  0  0  0  0
    6.3780    2.0962   -0.0480 C   0  0  0  0  0  0  0  0  0  0  0  0
    7.2034    3.1365    0.3628 O   0  0  0  0  0  0  0  0  0  0  0  0
    3.8531   -1.0982   -1.3072 C   0  0  2  0  0  0  0  0  0  0  0  0
    3.2953   -1.7818   -0.0802 C   0  0  0  0  0  0  0  0  0  0  0  0
    2.4158   -0.8905    0.5991 N   0  0  0  0  0  0  0  0  0  0  0  0
    1.1952   -0.5829   -0.0657 C   0  0  0  0  0  0  0  0  0  0  0  0
    0.2613   -1.7694   -0.1563 C   0  0  0  0  0  0  0  0  0  0  0  0
   -0.1238   -2.3079    1.1903 C   0  0  0  0  0  0  0  0  0  0  0  0
   -1.0628   -3.4360    1.0424 C   0  0  0  0  0  0  0  0  0  0  0  0
   -2.3942   -3.0452    0.4753 C   0  0  0  0  0  0  0  0  0  0  0  0
   -3.1729   -2.1445    1.3782 C   0  0  0  0  0  0  0  0  0  0  0  0
   -2.7546   -0.9295    1.7166 O   0  0  0  0  0  0  0  0  0  0  0  0
   -2.6716    0.0916    0.8420 C   0  0  0  0  0  0  0  0  0  0  0  0
   -4.0282    0.4094    0.2119 C   0  0  0  0  0  0  0  0  0  0  0  0
   -3.8309    1.4650   -0.6656 O   0  0  0  0  0  0  0  0  0  0  0  0
   -5.0321    1.7681   -1.2790 C   0  0  0  0  0  0  0  0  0  0  0  0
   -6.0343    2.1574   -0.2735 C   0  0  0  0  0  0  0  0  0  0  0  0
   -6.9199    1.3199    0.3381 C   0  0  0  0  0  0  0  0  0  0  0  0
   -7.8358    1.7495    1.2731 C   0  0  0  0  0  0  0  0  0  0  0  0
   -7.8405    3.0877    1.5895 C   0  0  0  0  0  0  0  0  0  0  0  0
   -6.9760    3.9912    1.0124 C   0  0  0  0  0  0  0  0  0  0  0  0
   -6.0826    3.5005    0.0838 C   0  0  0  0  0  0  0  0  0  0  0  0
    4.7299   -1.9565   -1.9975 O   0  0  0  0  0  0  0  0  0  0  0  0
    9.7792   -0.0113   -0.1685 H   0  0  0  0  0  0  0  0  0  0  0  0
    8.0826   -0.6725    0.9223 H   0  0  0  0  0  0  0  0  0  0  0  0
    8.2558    1.0266    1.6303 H   0  0  0  0  0  0  0  0  0  0  0  0
    6.2329   -1.2507   -0.1942 H   0  0  0  0  0  0  0  0  0  0  0  0
    3.3183    1.5897   -1.4928 H   0  0  0  0  0  0  0  0  0  0  0  0
    4.8438    3.4020   -0.7363 H   0  0  0  0  0  0  0  0  0  0  0  0
    8.0864    2.9091    0.7630 H   0  0  0  0  0  0  0  0  0  0  0  0
    3.0905   -0.8016   -2.0440 H   0  0  0  0  0  0  0  0  0  0  0  0
    2.8094   -2.7091   -0.4284 H   0  0  0  0  0  0  0  0  0  0  0  0
    4.1112   -2.0740    0.6219 H   0  0  0  0  0  0  0  0  0  0  0  0
    2.8687   -0.1210    1.0961 H   0  0  0  0  0  0  0  0  0  0  0  0
    1.4082   -0.2442   -1.0957 H   0  0  0  0  0  0  0  0  0  0  0  0
    0.7259    0.2616    0.4859 H   0  0  0  0  0  0  0  0  0  0  0  0
    0.8021   -2.5815   -0.7395 H   0  0  0  0  0  0  0  0  0  0  0  0
   -0.5995   -1.5222   -0.7551 H   0  0  0  0  0  0  0  0  0  0  0  0
    0.7755   -2.7038    1.7445 H   0  0  0  0  0  0  0  0  0  0  0  0
   -0.4791   -1.4698    1.8193 H   0  0  0  0  0  0  0  0  0  0  0  0
   -0.5833   -4.1924    0.3721 H   0  0  0  0  0  0  0  0  0  0  0  0
   -1.2963   -3.9245    2.0393 H   0  0  0  0  0  0  0  0  0  0  0  0
   -2.2737   -2.5758   -0.5423 H   0  0  0  0  0  0  0  0  0  0  0  0
   -2.9430   -4.0357    0.3328 H   0  0  0  0  0  0  0  0  0  0  0  0
   -4.2407   -2.1613    0.9828 H   0  0  0  0  0  0  0  0  0  0  0  0
   -3.3257   -2.7165    2.3671 H   0  0  0  0  0  0  0  0  0  0  0  0
   -2.4739    1.0318    1.4703 H   0  0  0  0  0  0  0  0  0  0  0  0
   -1.8831    0.1112    0.1005 H   0  0  0  0  0  0  0  0  0  0  0  0
   -4.6725    0.7778    1.0370 H   0  0  0  0  0  0  0  0  0  0  0  0
   -4.4061   -0.4431   -0.3454 H   0  0  0  0  0  0  0  0  0  0  0  0
   -5.3925    0.7936   -1.7214 H   0  0  0  0  0  0  0  0  0  0  0  0
   -4.9183    2.5370   -2.0746 H   0  0  0  0  0  0  0  0  0  0  0  0
   -6.8908    0.2738    0.0673 H   0  0  0  0  0  0  0  0  0  0  0  0
   -8.5431    1.0836    1.7628 H   0  0  0  0  0  0  0  0  0  0  0  0
   -8.5438    3.4515    2.3141 H   0  0  0  0  0  0  0  0  0  0  0  0
   -6.9600    5.0405    1.2429 H   0  0  0  0  0  0  0  0  0  0  0  0
   -5.3975    4.2058   -0.3763 H   0  0  0  0  0  0  0  0  0  0  0  0
    4.1288   -2.5883   -2.4725 H   0  0  0  0  0  0  0  0  0  0  0  0
  1  2  1  0
  2  3  1  0
  3  4  2  0
  4  5  1  0
  5  6  2  0
  6  7  1  0
  7  8  2  0
  8  9  1  0
  5 10  1  0
 10 11  1  0
 11 12  1  0
 12 13  1  0
 13 14  1  0
 14 15  1  0
 15 16  1  0
 16 17  1  0
 17 18  1  0
 18 19  1  0
 19 20  1  0
 20 21  1  0
 21 22  1  0
 22 23  1  0
 23 24  1  0
 24 25  2  0
 25 26  1  0
 26 27  2  0
 27 28  1  0
 28 29  2  0
 10 30  1  0
  8  3  1  0
 29 24  1  0
  1 31  1  0
  2 32  1  0
  2 33  1  0
  4 34  1  0
  6 35  1  0
  7 36  1  0
  9 37  1  0
 10 38  1  6
 11 39  1  0
 11 40  1  0
 12 41  1  0
 13 42  1  0
 13 43  1  0
 14 44  1  0
 14 45  1  0
 15 46  1  0
 15 47  1  0
 16 48  1  0
 16 49  1  0
 17 50  1  0
 17 51  1  0
 18 52  1  0
 18 53  1  0
 20 54  1  0
 20 55  1  0
 21 56  1  0
 21 57  1  0
 23 58  1  0
 23 59  1  0
 25 60  1  0
 26 61  1  0
 27 62  1  0
 28 63  1  0
 29 64  1  0
 30 65  1  0
M  END
>  <Ligand ID>  (1) 
LIG0002705

>  <Ligand>  (1) 
CHEMBL1085395

>  <SMILES>  (1) 
OCc1cc(ccc1O)[C@H](CNCCCCCCOCCOCc1ccccc1)O

>  <CID>  (1) 
46832505.0

>  <ChEMBL ID>  (1) 
nan

>  <InChiKey>  (1) 
QWSABLOHCHLOSC-DEOSSOPVSA-N

>  <InChi>  (1) 
InChI=1S/C24H35NO5/c26-18-22-16-21(10-11-23(22)27)24(28)17-25-12-6-1-2-7-13-29-14-15-30-19-20-8-4-3-5-9-20/h3-5,8-11,16,24-28H,1-2,6-7,12-15,17-19H2/t24-/m0/s1

>  <IUPAC Name>  (1) 
2-(hydroxymethyl)-4-[(1R)-1-hydroxy-2-[6-(2-phenylmethoxyethoxy)hexylamino]ethyl]phenol

$$$$
