
     RDKit          3D

 24 25  0  0  0  0  0  0  0  0999 V2000
    3.8398   -0.1632   -0.0217 N   0  0  0  0  0  0  0  0  0  0  0  0
    2.7327   -0.6549   -0.8209 C   0  0  0  0  0  0  0  0  0  0  0  0
    1.4753   -0.4065   -0.0193 C   0  0  1  0  0  0  0  0  0  0  0  0
    1.2312    1.0506    0.3046 C   0  0  0  0  0  0  0  0  0  0  0  0
    0.3462    0.2400   -0.6877 C   0  0  2  0  0  0  0  0  0  0  0  0
   -1.0462    0.1130   -0.2313 C   0  0  0  0  0  0  0  0  0  0  0  0
   -1.2507   -0.2112    1.1109 C   0  0  0  0  0  0  0  0  0  0  0  0
   -2.5448   -0.3488    1.6166 C   0  0  0  0  0  0  0  0  0  0  0  0
   -3.6206   -0.1609    0.7752 C   0  0  0  0  0  0  0  0  0  0  0  0
   -3.3979    0.1578   -0.5434 C   0  0  0  0  0  0  0  0  0  0  0  0
   -2.1297    0.2995   -1.0677 C   0  0  0  0  0  0  0  0  0  0  0  0
   -4.8777   -0.2937    1.2628 F   0  0  0  0  0  0  0  0  0  0  0  0
    3.8393    0.8739    0.0546 H   0  0  0  0  0  0  0  0  0  0  0  0
    4.7612   -0.5655   -0.2981 H   0  0  0  0  0  0  0  0  0  0  0  0
    2.6613   -0.1596   -1.7960 H   0  0  0  0  0  0  0  0  0  0  0  0
    2.8979   -1.7380   -0.9885 H   0  0  0  0  0  0  0  0  0  0  0  0
    1.3517   -1.1326    0.8076 H   0  0  0  0  0  0  0  0  0  0  0  0
    0.8218    1.2448    1.3098 H   0  0  0  0  0  0  0  0  0  0  0  0
    1.8358    1.8347   -0.1762 H   0  0  0  0  0  0  0  0  0  0  0  0
    0.4558    0.4972   -1.7548 H   0  0  0  0  0  0  0  0  0  0  0  0
   -0.3989   -0.3600    1.7776 H   0  0  0  0  0  0  0  0  0  0  0  0
   -2.7018   -0.5970    2.6441 H   0  0  0  0  0  0  0  0  0  0  0  0
   -4.2921    0.2942   -1.1602 H   0  0  0  0  0  0  0  0  0  0  0  0
   -1.9894    0.5482   -2.0982 H   0  0  0  0  0  0  0  0  0  0  0  0
  1  2  1  0
  2  3  1  0
  3  4  1  0
  4  5  1  0
  5  6  1  0
  6  7  2  0
  7  8  1  0
  8  9  2  0
  9 10  1  0
 10 11  2  0
  9 12  1  0
  5  3  1  0
 11  6  1  0
  1 13  1  0
  1 14  1  0
  2 15  1  0
  2 16  1  0
  3 17  1  1
  4 18  1  0
  4 19  1  0
  5 20  1  6
  7 21  1  0
  8 22  1  0
 10 23  1  0
 11 24  1  0
M  END
>  <Ligand ID>  (1) 
LIG0002384

>  <Ligand>  (1) 
CHEMBL493130

>  <SMILES>  (1) 
NC[C@H]1C[C@@H]1c1ccc(cc1)F

>  <CID>  (1) 
44572810.0

>  <ChEMBL ID>  (1) 
nan

>  <InChiKey>  (1) 
SXEBSKUYTZWGJC-PSASIEDQSA-N

>  <InChi>  (1) 
InChI=1S/C10H12FN/c11-9-3-1-7(2-4-9)10-5-8(10)6-12/h1-4,8,10H,5-6,12H2/t8-,10-/m1/s1

>  <IUPAC Name>  (1) 
[(1S,2S)-2-(4-fluorophenyl)cyclopropyl]methanamine

$$$$
