
     RDKit          3D

 23 22  0  0  0  0  0  0  0  0999 V2000
   -3.9400    0.1941    0.0097 C   0  0  0  0  0  0  0  0  0  0  0  0
   -2.5106   -0.3173   -0.1103 C   0  0  0  0  0  0  0  0  0  0  0  0
   -1.5934    0.8261    0.1911 C   0  0  0  0  0  0  0  0  0  0  0  0
   -0.2370    0.5124    0.1212 O   0  0  0  0  0  0  0  0  0  0  0  0
    0.3791   -0.4365    0.8908 C   0  0  0  0  0  0  0  0  0  0  0  0
   -0.2799   -1.1026    1.7380 O   0  0  0  0  0  0  0  0  0  0  0  0
    1.8351   -0.6579    0.7014 C   0  0  0  0  0  0  0  0  0  0  0  0
    2.4138    0.2461   -0.3594 C   0  0  0  0  0  0  0  0  0  0  0  0
    3.8865   -0.0747   -0.4547 C   0  0  0  0  0  0  0  0  0  0  0  0
   -4.4506    0.2058   -0.9947 H   0  0  0  0  0  0  0  0  0  0  0  0
   -4.5631   -0.4683    0.6393 H   0  0  0  0  0  0  0  0  0  0  0  0
   -3.9688    1.2368    0.4051 H   0  0  0  0  0  0  0  0  0  0  0  0
   -2.3665   -0.7444   -1.1195 H   0  0  0  0  0  0  0  0  0  0  0  0
   -2.3348   -1.1410    0.6197 H   0  0  0  0  0  0  0  0  0  0  0  0
   -1.8357    1.6369   -0.5234 H   0  0  0  0  0  0  0  0  0  0  0  0
   -1.8996    1.2363    1.1865 H   0  0  0  0  0  0  0  0  0  0  0  0
    2.0116   -1.7050    0.3786 H   0  0  0  0  0  0  0  0  0  0  0  0
    2.3908   -0.4283    1.6483 H   0  0  0  0  0  0  0  0  0  0  0  0
    1.9582    0.0457   -1.3554 H   0  0  0  0  0  0  0  0  0  0  0  0
    2.3182    1.3000   -0.0307 H   0  0  0  0  0  0  0  0  0  0  0  0
    4.1065   -1.1398   -0.2329 H   0  0  0  0  0  0  0  0  0  0  0  0
    4.4337    0.5774    0.2613 H   0  0  0  0  0  0  0  0  0  0  0  0
    4.2463    0.1979   -1.4657 H   0  0  0  0  0  0  0  0  0  0  0  0
  1  2  1  0
  2  3  1  0
  3  4  1  0
  4  5  1  0
  5  6  2  0
  5  7  1  0
  7  8  1  0
  8  9  1  0
  1 10  1  0
  1 11  1  0
  1 12  1  0
  2 13  1  0
  2 14  1  0
  3 15  1  0
  3 16  1  0
  7 17  1  0
  7 18  1  0
  8 19  1  0
  8 20  1  0
  9 21  1  0
  9 22  1  0
  9 23  1  0
M  END
>  <Ligand ID>  (1) 
LIG0000470

>  <Ligand>  (1) 
propyl butanoate

>  <SMILES>  (1) 
CCCOC(=O)CCC

>  <CID>  (1) 
7770.0

>  <ChEMBL ID>  (1) 
nan

>  <InChiKey>  (1) 
HUAZGNHGCJGYNP-UHFFFAOYSA-N

>  <InChi>  (1) 
InChI=1S/C7H14O2/c1-3-5-7(8)9-6-4-2/h3-6H2,1-2H3

>  <IUPAC Name>  (1) 
propyl butanoate

$$$$
