
     RDKit          3D

 14 13  0  0  0  0  0  0  0  0999 V2000
    2.3888   -0.5096   -0.2468 C   0  0  0  0  0  0  0  0  0  0  0  0
    1.3487   -0.1741    1.1970 S   0  0  0  0  0  0  0  0  0  0  0  0
   -0.1920    0.6316    0.7602 C   0  0  0  0  0  0  0  0  0  0  0  0
   -1.0226   -0.3424   -0.0565 C   0  0  0  0  0  0  0  0  0  0  0  0
   -2.3273    0.2795   -0.4492 C   0  0  0  0  0  0  0  0  0  0  0  0
   -2.4986    1.4467   -0.0611 O   0  0  0  0  0  0  0  0  0  0  0  0
    1.9516   -1.2766   -0.9193 H   0  0  0  0  0  0  0  0  0  0  0  0
    3.3636   -0.9143    0.0937 H   0  0  0  0  0  0  0  0  0  0  0  0
    2.5618    0.4290   -0.8494 H   0  0  0  0  0  0  0  0  0  0  0  0
   -0.0951    1.6157    0.2873 H   0  0  0  0  0  0  0  0  0  0  0  0
   -0.7589    0.7866    1.7236 H   0  0  0  0  0  0  0  0  0  0  0  0
   -0.4530   -0.4946   -0.9930 H   0  0  0  0  0  0  0  0  0  0  0  0
   -1.1865   -1.2436    0.5421 H   0  0  0  0  0  0  0  0  0  0  0  0
   -3.0804   -0.2339   -1.0286 H   0  0  0  0  0  0  0  0  0  0  0  0
  1  2  1  0
  2  3  1  0
  3  4  1  0
  4  5  1  0
  5  6  2  0
  1  7  1  0
  1  8  1  0
  1  9  1  0
  3 10  1  0
  3 11  1  0
  4 12  1  0
  4 13  1  0
  5 14  1  0
M  END
>  <Ligand ID>  (1) 
LIG0000475

>  <Ligand>  (1) 
Methional

>  <SMILES>  (1) 
CSCCC=O

>  <CID>  (1) 
18635.0

>  <ChEMBL ID>  (1) 
nan

>  <InChiKey>  (1) 
CLUWOWRTHNNBBU-UHFFFAOYSA-N

>  <InChi>  (1) 
InChI=1S/C4H8OS/c1-6-4-2-3-5/h3H,2,4H2,1H3

>  <IUPAC Name>  (1) 
3-methylsulfanylpropanal

$$$$
