
     RDKit          3D

 37 38  0  0  0  0  0  0  0  0999 V2000
   -5.6660    0.0578    1.1310 C   0  0  0  0  0  0  0  0  0  0  0  0
   -4.3227   -0.0471    0.5399 C   0  0  0  0  0  0  0  0  0  0  0  0
   -4.0425    0.4609   -0.7126 C   0  0  0  0  0  0  0  0  0  0  0  0
   -2.7778    0.3386   -1.2189 C   0  0  0  0  0  0  0  0  0  0  0  0
   -2.5516    0.8166   -2.3747 O   0  0  0  0  0  0  0  0  0  0  0  0
   -1.7671   -0.2691   -0.5367 N   0  0  0  0  0  0  0  0  0  0  0  0
   -2.0638   -0.7512    0.6707 C   0  0  0  0  0  0  0  0  0  0  0  0
   -1.1462   -1.3173    1.3207 O   0  0  0  0  0  0  0  0  0  0  0  0
   -3.3119   -0.6444    1.1999 N   0  0  0  0  0  0  0  0  0  0  0  0
   -0.4927   -0.3315   -1.1765 C   0  0  2  0  0  0  0  0  0  0  0  0
    0.3692   -1.2591   -0.6182 O   0  0  0  0  0  0  0  0  0  0  0  0
    1.6568   -0.8947   -0.9704 C   0  0  1  0  0  0  0  0  0  0  0  0
    1.6224    0.5561   -1.4188 C   0  0  2  0  0  0  0  0  0  0  0  0
    0.2586    0.9664   -0.8496 C   0  0  1  0  0  0  0  0  0  0  0  0
   -0.2404    2.0566   -1.5187 O   0  0  0  0  0  0  0  0  0  0  0  0
    1.4633    0.6617   -2.8154 O   0  0  0  0  0  0  0  0  0  0  0  0
    2.6053   -0.9367    0.2186 C   0  0  0  0  0  0  0  0  0  0  0  0
    3.8914   -0.5704   -0.1443 O   0  0  0  0  0  0  0  0  0  0  0  0
    4.9900   -0.5943    1.1161 P   0  0  0  0  0  0  0  0  0  0  0  0
    5.7223   -1.9266    1.0714 O   0  0  0  0  0  0  0  0  0  0  0  0
    6.1741    0.6095    0.9456 O   0  0  0  0  0  0  0  0  0  0  0  0
    4.2866   -0.4730    2.6290 O   0  0  0  0  0  0  0  0  0  0  0  0
   -6.3405    0.5582    0.3891 H   0  0  0  0  0  0  0  0  0  0  0  0
   -5.6855    0.7222    2.0296 H   0  0  0  0  0  0  0  0  0  0  0  0
   -6.1181   -0.9347    1.3878 H   0  0  0  0  0  0  0  0  0  0  0  0
   -4.8096    0.9595   -1.3099 H   0  0  0  0  0  0  0  0  0  0  0  0
   -3.5252   -1.0349    2.1615 H   0  0  0  0  0  0  0  0  0  0  0  0
   -0.5662   -0.4275   -2.2727 H   0  0  0  0  0  0  0  0  0  0  0  0
    2.0704   -1.5639   -1.7500 H   0  0  0  0  0  0  0  0  0  0  0  0
    2.4465    1.1629   -1.0475 H   0  0  0  0  0  0  0  0  0  0  0  0
    0.3161    1.0721    0.2477 H   0  0  0  0  0  0  0  0  0  0  0  0
   -0.1740    2.8827   -0.9475 H   0  0  0  0  0  0  0  0  0  0  0  0
    2.3072    0.9556   -3.2483 H   0  0  0  0  0  0  0  0  0  0  0  0
    2.6802   -2.0059    0.5500 H   0  0  0  0  0  0  0  0  0  0  0  0
    2.1953   -0.3974    1.0809 H   0  0  0  0  0  0  0  0  0  0  0  0
    6.0949    1.1039    0.0825 H   0  0  0  0  0  0  0  0  0  0  0  0
    4.4510    0.4386    2.9765 H   0  0  0  0  0  0  0  0  0  0  0  0
  1  2  1  0
  2  3  2  0
  3  4  1  0
  4  5  2  0
  4  6  1  0
  6  7  1  0
  7  8  2  0
  7  9  1  0
  6 10  1  0
 10 11  1  0
 11 12  1  0
 12 13  1  0
 13 14  1  0
 14 15  1  0
 13 16  1  0
 12 17  1  0
 17 18  1  0
 18 19  1  0
 19 20  2  0
 19 21  1  0
 19 22  1  0
  9  2  1  0
 14 10  1  0
  1 23  1  0
  1 24  1  0
  1 25  1  0
  3 26  1  0
  9 27  1  0
 10 28  1  6
 12 29  1  6
 13 30  1  1
 14 31  1  1
 15 32  1  0
 16 33  1  0
 17 34  1  0
 17 35  1  0
 21 36  1  0
 22 37  1  0
M  END
>  <Ligand ID>  (1) 
LIG0003789

>  <Ligand>  (1) 
CHEMBL215263

>  <SMILES>  (1) 
Cc1cc(=O)n(c(=O)[nH]1)[C@@H]1O[C@@H]([C@H]([C@H]1O)O)COP(=O)(O)O

>  <CID>  (1) 
44417704.0

>  <ChEMBL ID>  (1) 
nan

>  <InChiKey>  (1) 
BBIBNZFXLBFONK-ZOQUXTDFSA-N

>  <InChi>  (1) 
InChI=1S/C10H15N2O9P/c1-4-2-6(13)12(10(16)11-4)9-8(15)7(14)5(21-9)3-20-22(17,18)19/h2,5,7-9,14-15H,3H2,1H3,(H,11,16)(H2,17,18,19)/t5-,7-,8-,9-/m1/s1

>  <IUPAC Name>  (1) 
[(2R,3S,4R,5R)-3,4-dihydroxy-5-(6-methyl-2,4-dioxo-1H-pyrimidin-3-yl)oxolan-2-yl]methyl dihydrogen phosphate

$$$$
