
     RDKit          3D

 66 68  0  0  0  0  0  0  0  0999 V2000
   -1.2962    1.3981   -0.2937 C   0  0  0  0  0  0  0  0  0  0  0  0
   -2.4914    1.3086    0.5875 C   0  0  1  0  0  0  0  0  0  0  0  0
   -3.7284    1.1577   -0.1172 N   0  0  0  0  0  0  0  0  0  0  0  0
   -3.8563    0.0578   -0.9946 C   0  0  0  0  0  0  0  0  0  0  0  0
   -5.2140   -0.0067   -1.6879 C   0  0  1  0  0  0  0  0  0  0  0  0
   -6.3377   -0.1864   -0.7737 C   0  0  0  0  0  0  0  0  0  0  0  0
   -7.6129    0.1226   -1.2605 C   0  0  0  0  0  0  0  0  0  0  0  0
   -8.7433   -0.0168   -0.4839 C   0  0  0  0  0  0  0  0  0  0  0  0
   -8.6420   -0.4731    0.8162 C   0  0  0  0  0  0  0  0  0  0  0  0
   -7.3924   -0.7822    1.3111 C   0  0  0  0  0  0  0  0  0  0  0  0
   -6.2736   -0.6343    0.5134 C   0  0  0  0  0  0  0  0  0  0  0  0
   -7.2228   -1.3623    2.9510 Cl  0  0  0  0  0  0  0  0  0  0  0  0
   -5.3788    1.1701   -2.4068 O   0  0  0  0  0  0  0  0  0  0  0  0
   -2.2722    0.4221    1.7513 C   0  0  0  0  0  0  0  0  0  0  0  0
   -1.9321   -0.9336    1.5258 N   0  0  0  0  0  0  0  0  0  0  0  0
   -0.6604   -1.4990    1.3062 C   0  0  0  0  0  0  0  0  0  0  0  0
   -0.5537   -2.8732    1.0273 C   0  0  0  0  0  0  0  0  0  0  0  0
    0.6313   -3.5121    0.8664 C   0  0  0  0  0  0  0  0  0  0  0  0
    1.7914   -2.8051    0.9767 C   0  0  0  0  0  0  0  0  0  0  0  0
    1.7751   -1.4343    1.2523 C   0  0  0  0  0  0  0  0  0  0  0  0
    0.5357   -0.8319    1.4062 C   0  0  0  0  0  0  0  0  0  0  0  0
    3.0608   -0.7754    1.4145 C   0  0  0  0  0  0  0  0  0  0  0  0
    3.7871   -0.3197    0.2045 C   0  0  0  0  0  0  0  0  0  0  0  0
    2.9603    0.8387   -0.8113 S   0  0  0  0  0  0  0  0  0  0  0  0
    2.6250    2.0981   -0.0098 O   0  0  0  0  0  0  0  0  0  0  0  0
    1.6241    0.2972   -1.2928 O   0  0  0  0  0  0  0  0  0  0  0  0
    3.8819    1.2874   -2.1521 N   0  0  0  0  0  0  0  0  0  0  0  0
    5.3430    2.0634   -1.9259 S   0  0  0  0  0  0  0  0  0  0  0  0
    5.0695    3.4146   -1.2475 O   0  0  0  0  0  0  0  0  0  0  0  0
    5.9411    2.4651   -3.2847 O   0  0  0  0  0  0  0  0  0  0  0  0
    6.5922    1.2374   -1.0717 C   0  0  0  0  0  0  0  0  0  0  0  0
    7.0369    1.5474    0.1938 C   0  0  0  0  0  0  0  0  0  0  0  0
    8.0402    0.8589    0.8399 C   0  0  0  0  0  0  0  0  0  0  0  0
    8.6470   -0.1964    0.2140 C   0  0  0  0  0  0  0  0  0  0  0  0
    8.2296   -0.5378   -1.0541 C   0  0  0  0  0  0  0  0  0  0  0  0
    7.2229    0.1594   -1.6923 C   0  0  0  0  0  0  0  0  0  0  0  0
   -0.4645    1.8513    0.2685 H   0  0  0  0  0  0  0  0  0  0  0  0
   -1.4942    2.1413   -1.1264 H   0  0  0  0  0  0  0  0  0  0  0  0
   -0.9674    0.4335   -0.6983 H   0  0  0  0  0  0  0  0  0  0  0  0
   -2.5756    2.3645    1.0412 H   0  0  0  0  0  0  0  0  0  0  0  0
   -4.5138    1.3020    0.5096 H   0  0  0  0  0  0  0  0  0  0  0  0
   -3.7548   -0.9207   -0.4877 H   0  0  0  0  0  0  0  0  0  0  0  0
   -3.1146    0.0340   -1.8182 H   0  0  0  0  0  0  0  0  0  0  0  0
   -5.1522   -0.9065   -2.3590 H   0  0  0  0  0  0  0  0  0  0  0  0
   -7.7419    0.4831   -2.2717 H   0  0  0  0  0  0  0  0  0  0  0  0
   -9.7198    0.2324   -0.8930 H   0  0  0  0  0  0  0  0  0  0  0  0
   -9.5504   -0.5772    1.4172 H   0  0  0  0  0  0  0  0  0  0  0  0
   -5.3306   -0.8865    0.9275 H   0  0  0  0  0  0  0  0  0  0  0  0
   -5.1538    1.9091   -1.7686 H   0  0  0  0  0  0  0  0  0  0  0  0
   -3.2218    0.4793    2.3717 H   0  0  0  0  0  0  0  0  0  0  0  0
   -1.5189    0.9329    2.4118 H   0  0  0  0  0  0  0  0  0  0  0  0
   -2.7483   -1.6308    1.5279 H   0  0  0  0  0  0  0  0  0  0  0  0
   -1.4629   -3.4871    0.9289 H   0  0  0  0  0  0  0  0  0  0  0  0
    0.7014   -4.5768    0.6505 H   0  0  0  0  0  0  0  0  0  0  0  0
    2.7558   -3.3215    0.8467 H   0  0  0  0  0  0  0  0  0  0  0  0
    0.5331    0.2222    1.6251 H   0  0  0  0  0  0  0  0  0  0  0  0
    2.8613    0.1544    2.0322 H   0  0  0  0  0  0  0  0  0  0  0  0
    3.7835   -1.3465    2.0405 H   0  0  0  0  0  0  0  0  0  0  0  0
    4.7180    0.1659    0.5639 H   0  0  0  0  0  0  0  0  0  0  0  0
    4.1545   -1.1612   -0.4336 H   0  0  0  0  0  0  0  0  0  0  0  0
    3.8061    0.6571   -2.9685 H   0  0  0  0  0  0  0  0  0  0  0  0
    6.5753    2.3667    0.6964 H   0  0  0  0  0  0  0  0  0  0  0  0
    8.3224    1.1745    1.8324 H   0  0  0  0  0  0  0  0  0  0  0  0
    9.4304   -0.7158    0.7476 H   0  0  0  0  0  0  0  0  0  0  0  0
    8.7185   -1.3671   -1.5251 H   0  0  0  0  0  0  0  0  0  0  0  0
    6.9385   -0.1552   -2.6869 H   0  0  0  0  0  0  0  0  0  0  0  0
  1  2  1  0
  2  3  1  0
  3  4  1  0
  4  5  1  0
  5  6  1  0
  6  7  2  0
  7  8  1  0
  8  9  2  0
  9 10  1  0
 10 11  2  0
 10 12  1  0
  5 13  1  0
  2 14  1  0
 14 15  1  0
 15 16  1  0
 16 17  2  0
 17 18  1  0
 18 19  2  0
 19 20  1  0
 20 21  2  0
 20 22  1  0
 22 23  1  0
 23 24  1  0
 24 25  2  0
 24 26  2  0
 24 27  1  0
 27 28  1  0
 28 29  2  0
 28 30  2  0
 28 31  1  0
 31 32  2  0
 32 33  1  0
 33 34  2  0
 34 35  1  0
 35 36  2  0
 11  6  1  0
 21 16  1  0
 36 31  1  0
  1 37  1  0
  1 38  1  0
  1 39  1  0
  2 40  1  1
  3 41  1  0
  4 42  1  0
  4 43  1  0
  5 44  1  6
  7 45  1  0
  8 46  1  0
  9 47  1  0
 11 48  1  0
 13 49  1  0
 14 50  1  0
 14 51  1  0
 15 52  1  0
 17 53  1  0
 18 54  1  0
 19 55  1  0
 21 56  1  0
 22 57  1  0
 22 58  1  0
 23 59  1  0
 23 60  1  0
 27 61  1  0
 32 62  1  0
 33 63  1  0
 34 64  1  0
 35 65  1  0
 36 66  1  0
M  END
>  <Ligand ID>  (1) 
LIG0002262

>  <Ligand>  (1) 
CHEMBL347400

>  <SMILES>  (1) 
C[C@@H](NC[C@@H](c1cccc(c1)Cl)O)CNc1cccc(c1)CCS(=O)(=O)NS(=O)(=O)c1ccccc1

>  <CID>  (1) 
11124502.0

>  <ChEMBL ID>  (1) 
nan

>  <InChiKey>  (1) 
IABOTPGCAUXJSC-CLOONOSVSA-N

>  <InChi>  (1) 
InChI=1S/C25H30ClN3O5S2/c1-19(27-18-25(30)21-8-6-9-22(26)16-21)17-28-23-10-5-7-20(15-23)13-14-35(31,32)29-36(33,34)24-11-3-2-4-12-24/h2-12,15-16,19,25,27-30H,13-14,17-18H2,1H3/t19-,25+/m1/s1

>  <IUPAC Name>  (1) 
N-[2-[3-[[(2R)-2-[[(2R)-2-(3-chlorophenyl)-2-hydroxyethyl]amino]propyl]amino]phenyl]ethylsulfonyl]benzenesulfonamide

$$$$
