
     RDKit          3D

 70 76  0  0  0  0  0  0  0  0999 V2000
    5.1137    5.1569    0.8340 C   0  0  0  0  0  0  0  0  0  0  0  0
    4.3671    3.8675    1.0728 C   0  0  0  0  0  0  0  0  0  0  0  0
    3.8006    3.4410   -0.1483 O   0  0  0  0  0  0  0  0  0  0  0  0
    3.0742    2.2791   -0.1569 C   0  0  0  0  0  0  0  0  0  0  0  0
    2.9609    1.6616    0.9483 O   0  0  0  0  0  0  0  0  0  0  0  0
    2.4766    1.8165   -1.4159 C   0  0  0  0  0  0  0  0  0  0  0  0
    1.7225    0.5282   -1.2269 C   0  0  0  0  0  0  0  0  0  0  0  0
    0.4676    0.3924   -0.6400 C   0  0  0  0  0  0  0  0  0  0  0  0
   -0.3945    1.4413   -0.0901 C   0  0  0  0  0  0  0  0  0  0  0  0
   -1.3621    0.8466    0.8901 C   0  0  1  0  0  0  0  0  0  0  0  0
   -0.6773    0.5117    2.0639 O   0  0  0  0  0  0  0  0  0  0  0  0
   -2.4994    1.8039    1.2011 C   0  0  1  0  0  0  0  0  0  0  0  0
   -3.1896    2.2781   -0.0348 C   0  0  0  0  0  0  0  0  0  0  0  0
   -3.2650    1.2075   -1.0451 C   0  0  0  0  0  0  0  0  0  0  0  0
   -2.6704    0.0004   -0.8898 C   0  0  0  0  0  0  0  0  0  0  0  0
   -1.9657   -0.3901    0.3594 C   0  0  1  0  0  0  0  0  0  0  0  0
   -1.0474   -1.4702   -0.1582 C   0  0  2  0  0  0  0  0  0  0  0  0
    0.2008   -0.9503   -0.6918 C   0  0  0  0  0  0  0  0  0  0  0  0
    1.2326   -1.6117   -1.2784 N   0  0  0  0  0  0  0  0  0  0  0  0
    2.1773   -0.6928   -1.6106 C   0  0  0  0  0  0  0  0  0  0  0  0
    3.4096   -0.9259   -2.2363 O   0  0  0  0  0  0  0  0  0  0  0  0
    1.3951   -3.0135   -1.5447 C   0  0  0  0  0  0  0  0  0  0  0  0
    2.0425   -3.7824   -0.4806 C   0  0  0  0  0  0  0  0  0  0  0  0
    1.3844   -4.4140    0.5534 C   0  0  0  0  0  0  0  0  0  0  0  0
    2.0277   -5.1296    1.5382 C   0  0  0  0  0  0  0  0  0  0  0  0
    3.4210   -5.2358    1.5100 C   0  0  0  0  0  0  0  0  0  0  0  0
    4.0975   -4.6121    0.4853 C   0  0  0  0  0  0  0  0  0  0  0  0
    3.4374   -3.8911   -0.5054 C   0  0  0  0  0  0  0  0  0  0  0  0
   -1.8929   -2.0767   -1.1862 O   0  0  0  0  0  0  0  0  0  0  0  0
   -2.6306   -1.0381   -1.7776 C   0  0  0  0  0  0  0  0  0  0  0  0
   -3.2782   -0.8420   -2.9804 C   0  0  0  0  0  0  0  0  0  0  0  0
   -3.2708   -1.8640   -3.9167 O   0  0  0  0  0  0  0  0  0  0  0  0
   -3.9177    0.3755   -3.2144 C   0  0  0  0  0  0  0  0  0  0  0  0
   -3.9193    1.4020   -2.2639 C   0  0  0  0  0  0  0  0  0  0  0  0
   -2.8531   -1.0274    1.3920 C   0  0  0  0  0  0  0  0  0  0  0  0
   -3.1891   -0.1048    2.5446 C   0  0  0  0  0  0  0  0  0  0  0  0
   -3.4728    1.1513    1.9955 N   0  0  0  0  0  0  0  0  0  0  0  0
   -4.5964    1.8749    2.4259 C   0  0  0  0  0  0  0  0  0  0  0  0
    4.4617    6.0206    1.0862 H   0  0  0  0  0  0  0  0  0  0  0  0
    5.4377    5.1953   -0.2122 H   0  0  0  0  0  0  0  0  0  0  0  0
    6.0043    5.1171    1.5066 H   0  0  0  0  0  0  0  0  0  0  0  0
    5.0641    3.0703    1.4064 H   0  0  0  0  0  0  0  0  0  0  0  0
    3.6009    4.0238    1.8553 H   0  0  0  0  0  0  0  0  0  0  0  0
    1.7429    2.5717   -1.7618 H   0  0  0  0  0  0  0  0  0  0  0  0
    3.2248    1.6748   -2.2168 H   0  0  0  0  0  0  0  0  0  0  0  0
   -0.9205    1.8969   -0.9724 H   0  0  0  0  0  0  0  0  0  0  0  0
    0.2131    2.2619    0.4022 H   0  0  0  0  0  0  0  0  0  0  0  0
   -0.2525    1.2683    2.4960 H   0  0  0  0  0  0  0  0  0  0  0  0
   -2.0895    2.7318    1.6956 H   0  0  0  0  0  0  0  0  0  0  0  0
   -4.2454    2.5798    0.2620 H   0  0  0  0  0  0  0  0  0  0  0  0
   -2.7244    3.2083   -0.4520 H   0  0  0  0  0  0  0  0  0  0  0  0
   -0.8789   -2.2790    0.5651 H   0  0  0  0  0  0  0  0  0  0  0  0
    4.1917   -1.0053   -1.5703 H   0  0  0  0  0  0  0  0  0  0  0  0
    1.9741   -3.1624   -2.4827 H   0  0  0  0  0  0  0  0  0  0  0  0
    0.4085   -3.5185   -1.7505 H   0  0  0  0  0  0  0  0  0  0  0  0
    0.3195   -4.3521    0.6024 H   0  0  0  0  0  0  0  0  0  0  0  0
    1.4567   -5.6086    2.3323 H   0  0  0  0  0  0  0  0  0  0  0  0
    3.9686   -5.7866    2.2613 H   0  0  0  0  0  0  0  0  0  0  0  0
    5.1954   -4.6642    0.4153 H   0  0  0  0  0  0  0  0  0  0  0  0
    4.0338   -3.4264   -1.2816 H   0  0  0  0  0  0  0  0  0  0  0  0
   -2.4884   -1.8890   -4.5654 H   0  0  0  0  0  0  0  0  0  0  0  0
   -4.4314    0.5290   -4.1686 H   0  0  0  0  0  0  0  0  0  0  0  0
   -4.4247    2.3419   -2.4719 H   0  0  0  0  0  0  0  0  0  0  0  0
   -3.7669   -1.4476    0.9235 H   0  0  0  0  0  0  0  0  0  0  0  0
   -2.2592   -1.8655    1.8598 H   0  0  0  0  0  0  0  0  0  0  0  0
   -4.1524   -0.5129    2.9614 H   0  0  0  0  0  0  0  0  0  0  0  0
   -2.4730   -0.1560    3.3840 H   0  0  0  0  0  0  0  0  0  0  0  0
   -4.9882    1.5682    3.4195 H   0  0  0  0  0  0  0  0  0  0  0  0
   -4.4822    2.9731    2.4491 H   0  0  0  0  0  0  0  0  0  0  0  0
   -5.4370    1.6775    1.7006 H   0  0  0  0  0  0  0  0  0  0  0  0
  1  2  1  0
  2  3  1  0
  3  4  1  0
  4  5  2  0
  4  6  1  0
  6  7  1  0
  7  8  1  0
  8  9  1  0
  9 10  1  0
 10 11  1  1
 10 12  1  0
 12 13  1  0
 13 14  1  0
 14 15  2  0
 15 16  1  0
 16 17  1  0
 17 18  1  0
 18 19  1  0
 19 20  1  0
 20 21  1  0
 19 22  1  0
 22 23  1  0
 23 24  2  0
 24 25  1  0
 25 26  2  0
 26 27  1  0
 27 28  2  0
 17 29  1  0
 29 30  1  0
 30 31  2  0
 31 32  1  0
 31 33  1  0
 33 34  2  0
 16 35  1  1
 35 36  1  0
 36 37  1  0
 37 38  1  0
 20  7  2  0
 28 23  1  0
 18  8  2  0
 16 10  1  0
 37 12  1  0
 34 14  1  0
 30 15  1  0
  1 39  1  0
  1 40  1  0
  1 41  1  0
  2 42  1  0
  2 43  1  0
  6 44  1  0
  6 45  1  0
  9 46  1  0
  9 47  1  0
 11 48  1  0
 12 49  1  1
 13 50  1  0
 13 51  1  0
 17 52  1  1
 21 53  1  0
 22 54  1  0
 22 55  1  0
 24 56  1  0
 25 57  1  0
 26 58  1  0
 27 59  1  0
 28 60  1  0
 32 61  1  0
 33 62  1  0
 34 63  1  0
 35 64  1  0
 35 65  1  0
 36 66  1  0
 36 67  1  0
 38 68  1  0
 38 69  1  0
 38 70  1  0
M  END
>  <Ligand ID>  (1) 
LIG0004454

>  <Ligand>  (1) 
CHEMBL3357966

>  <SMILES>  (1) 
CCOC(=O)Cc1c2C[C@@]3(O)[C@H]4Cc5c6[C@]3([C@H](c2n(c1O)Cc1ccccc1)Oc6c(O)cc5)CCN4C

>  <CID>  (1) 
118722557.0

>  <ChEMBL ID>  (1) 
nan

>  <InChiKey>  (1) 
LWJQJBOPDYTMKC-KLNDKWMUSA-N

>  <InChi>  (1) 
InChI=1S/C30H32N2O6/c1-3-37-23(34)14-19-20-15-30(36)22-13-18-9-10-21(33)26-24(18)29(30,11-12-31(22)2)27(38-26)25(20)32(28(19)35)16-17-7-5-4-6-8-17/h4-10,22,27,33,35-36H,3,11-16H2,1-2H3/t22-,27+,29+,30-/m1/s1

>  <IUPAC Name>  (1) 
ethyl 2-[(1S,2S,9R,17R)-7-benzyl-2,6,12-trihydroxy-18-methyl-10-oxa-7,18-diazahexacyclo[9.9.1.01,9.02,17.04,8.015,21]henicosa-4(8),5,11,13,15(21)-pentaen-5-yl]acetate

$$$$
