
     RDKit          3D

 72 75  0  0  0  0  0  0  0  0999 V2000
    8.6579    2.7105    2.6176 O   0  0  0  0  0  0  0  0  0  0  0  0
    7.6264    2.4009    1.7169 C   0  0  0  0  0  0  0  0  0  0  0  0
    7.4178    3.1711    0.5724 C   0  0  0  0  0  0  0  0  0  0  0  0
    6.4053    2.8689   -0.3135 C   0  0  0  0  0  0  0  0  0  0  0  0
    5.5914    1.8008   -0.0721 C   0  0  0  0  0  0  0  0  0  0  0  0
    5.7910    1.0206    1.0730 C   0  0  0  0  0  0  0  0  0  0  0  0
    6.7991    1.3082    1.9705 C   0  0  0  0  0  0  0  0  0  0  0  0
    4.8517   -0.1232    1.2489 C   0  0  0  0  0  0  0  0  0  0  0  0
    4.8275   -0.8115    0.0397 O   0  0  0  0  0  0  0  0  0  0  0  0
    4.3062   -0.1032   -1.0162 C   0  0  2  0  0  0  0  0  0  0  0  0
    4.4721    1.3800   -0.9505 C   0  0  0  0  0  0  0  0  0  0  0  0
    2.8491   -0.3886   -1.2465 C   0  0  0  0  0  0  0  0  0  0  0  0
    2.3140    0.2331   -2.2024 O   0  0  0  0  0  0  0  0  0  0  0  0
    2.1320   -1.3089   -0.4247 N   0  0  0  0  0  0  0  0  0  0  0  0
    0.7249   -1.5526   -0.6855 C   0  0  1  0  0  0  0  0  0  0  0  0
    0.6189   -3.0321   -1.0554 C   0  0  0  0  0  0  0  0  0  0  0  0
    1.4590   -3.3121   -2.2826 C   0  0  0  0  0  0  0  0  0  0  0  0
    1.0581   -3.9258    0.0542 C   0  0  0  0  0  0  0  0  0  0  0  0
   -0.1025   -1.2606    0.5282 C   0  0  0  0  0  0  0  0  0  0  0  0
   -1.5059   -1.4652    0.3876 N   0  0  0  0  0  0  0  0  0  0  0  0
   -2.1424   -1.1430    1.6375 C   0  0  0  0  0  0  0  0  0  0  0  0
   -3.0991    0.0162    1.5329 C   0  0  0  0  0  0  0  0  0  0  0  0
   -4.1758   -0.1793    0.4842 C   0  0  1  0  0  0  0  0  0  0  0  0
   -3.5693   -0.8839   -0.6529 C   0  0  2  0  0  0  0  0  0  0  0  0
   -2.0951   -0.6265   -0.6588 C   0  0  0  0  0  0  0  0  0  0  0  0
   -4.2294   -0.6627   -1.9863 C   0  0  0  0  0  0  0  0  0  0  0  0
   -5.3105   -1.0485    1.0440 C   0  0  0  0  0  0  0  0  0  0  0  0
   -4.7644    1.1405    0.2350 C   0  0  0  0  0  0  0  0  0  0  0  0
   -4.3229    2.0269   -0.7272 C   0  0  0  0  0  0  0  0  0  0  0  0
   -4.9016    3.2656   -0.9335 C   0  0  0  0  0  0  0  0  0  0  0  0
   -5.9692    3.6756   -0.1678 C   0  0  0  0  0  0  0  0  0  0  0  0
   -6.4331    2.8136    0.8009 C   0  0  0  0  0  0  0  0  0  0  0  0
   -5.8506    1.5794    1.0006 C   0  0  0  0  0  0  0  0  0  0  0  0
   -7.5152    3.1984    1.5958 O   0  0  0  0  0  0  0  0  0  0  0  0
    9.5372    2.2120    2.4563 H   0  0  0  0  0  0  0  0  0  0  0  0
    8.0526    4.0272    0.3578 H   0  0  0  0  0  0  0  0  0  0  0  0
    6.2372    3.4612   -1.2032 H   0  0  0  0  0  0  0  0  0  0  0  0
    6.9286    0.6826    2.8507 H   0  0  0  0  0  0  0  0  0  0  0  0
    5.2468   -0.8266    1.9964 H   0  0  0  0  0  0  0  0  0  0  0  0
    3.8188    0.2347    1.5081 H   0  0  0  0  0  0  0  0  0  0  0  0
    4.9035   -0.4354   -1.9165 H   0  0  0  0  0  0  0  0  0  0  0  0
    3.5705    1.9351   -0.6194 H   0  0  0  0  0  0  0  0  0  0  0  0
    4.7021    1.8267   -1.9621 H   0  0  0  0  0  0  0  0  0  0  0  0
    2.6695   -1.7705    0.3410 H   0  0  0  0  0  0  0  0  0  0  0  0
    0.4384   -0.9288   -1.5350 H   0  0  0  0  0  0  0  0  0  0  0  0
   -0.4189   -3.3011   -1.3331 H   0  0  0  0  0  0  0  0  0  0  0  0
    1.2990   -4.3769   -2.5417 H   0  0  0  0  0  0  0  0  0  0  0  0
    1.1546   -2.6227   -3.0944 H   0  0  0  0  0  0  0  0  0  0  0  0
    2.5298   -3.2005   -2.0299 H   0  0  0  0  0  0  0  0  0  0  0  0
    1.1580   -4.9571   -0.3941 H   0  0  0  0  0  0  0  0  0  0  0  0
    0.2709   -4.0632    0.8423 H   0  0  0  0  0  0  0  0  0  0  0  0
    2.0569   -3.7084    0.4600 H   0  0  0  0  0  0  0  0  0  0  0  0
    0.0286   -0.1622    0.7462 H   0  0  0  0  0  0  0  0  0  0  0  0
    0.2743   -1.7717    1.4191 H   0  0  0  0  0  0  0  0  0  0  0  0
   -1.3873   -0.8776    2.3736 H   0  0  0  0  0  0  0  0  0  0  0  0
   -2.6854   -2.0368    2.0640 H   0  0  0  0  0  0  0  0  0  0  0  0
   -3.6447    0.0304    2.5065 H   0  0  0  0  0  0  0  0  0  0  0  0
   -2.5709    0.9675    1.4642 H   0  0  0  0  0  0  0  0  0  0  0  0
   -3.6786   -1.9922   -0.4476 H   0  0  0  0  0  0  0  0  0  0  0  0
   -1.6188   -0.7767   -1.6318 H   0  0  0  0  0  0  0  0  0  0  0  0
   -1.8105    0.3989   -0.3396 H   0  0  0  0  0  0  0  0  0  0  0  0
   -3.4928   -0.2657   -2.7459 H   0  0  0  0  0  0  0  0  0  0  0  0
   -4.5889   -1.5993   -2.4665 H   0  0  0  0  0  0  0  0  0  0  0  0
   -5.1351   -0.0254   -1.9083 H   0  0  0  0  0  0  0  0  0  0  0  0
   -5.4673   -0.8959    2.1169 H   0  0  0  0  0  0  0  0  0  0  0  0
   -5.0584   -2.1186    0.8012 H   0  0  0  0  0  0  0  0  0  0  0  0
   -6.2076   -0.8043    0.4224 H   0  0  0  0  0  0  0  0  0  0  0  0
   -3.5039    1.7592   -1.3444 H   0  0  0  0  0  0  0  0  0  0  0  0
   -4.5175    3.9410   -1.7122 H   0  0  0  0  0  0  0  0  0  0  0  0
   -6.4660    4.6286   -0.2771 H   0  0  0  0  0  0  0  0  0  0  0  0
   -6.2724    0.9488    1.7877 H   0  0  0  0  0  0  0  0  0  0  0  0
   -8.2680    3.6808    1.0932 H   0  0  0  0  0  0  0  0  0  0  0  0
  1  2  1  0
  2  3  2  0
  3  4  1  0
  4  5  2  0
  5  6  1  0
  6  7  2  0
  6  8  1  0
  8  9  1  0
  9 10  1  0
 10 11  1  0
 10 12  1  0
 12 13  2  0
 12 14  1  0
 14 15  1  0
 15 16  1  0
 16 17  1  0
 16 18  1  0
 15 19  1  0
 19 20  1  0
 20 21  1  0
 21 22  1  0
 22 23  1  0
 23 24  1  0
 24 25  1  0
 24 26  1  0
 23 27  1  1
 23 28  1  0
 28 29  2  0
 29 30  1  0
 30 31  2  0
 31 32  1  0
 32 33  2  0
 32 34  1  0
  7  2  1  0
 25 20  1  0
 33 28  1  0
 11  5  1  0
  1 35  1  0
  3 36  1  0
  4 37  1  0
  7 38  1  0
  8 39  1  0
  8 40  1  0
 10 41  1  6
 11 42  1  0
 11 43  1  0
 14 44  1  0
 15 45  1  6
 16 46  1  0
 17 47  1  0
 17 48  1  0
 17 49  1  0
 18 50  1  0
 18 51  1  0
 18 52  1  0
 19 53  1  0
 19 54  1  0
 21 55  1  0
 21 56  1  0
 22 57  1  0
 22 58  1  0
 24 59  1  1
 25 60  1  0
 25 61  1  0
 26 62  1  0
 26 63  1  0
 26 64  1  0
 27 65  1  0
 27 66  1  0
 27 67  1  0
 29 68  1  0
 30 69  1  0
 31 70  1  0
 33 71  1  0
 34 72  1  0
M  END
>  <Ligand ID>  (1) 
LIG0002303

>  <Ligand>  (1) 
CHEMBL1085025

>  <SMILES>  (1) 
Oc1ccc2c(c1)CO[C@H](C2)C(=O)N[C@@H](C(C)C)CN1CC[C@@]([C@H](C1)C)(C)c1cccc(c1)O

>  <CID>  (1) 
11698420.0

>  <ChEMBL ID>  (1) 
nan

>  <InChiKey>  (1) 
VUCUGZSKBWVGSF-VMGNSXQWSA-N

>  <InChi>  (1) 
InChI=1S/C28H38N2O4/c1-18(2)25(29-27(33)26-13-20-8-9-24(32)12-21(20)17-34-26)16-30-11-10-28(4,19(3)15-30)22-6-5-7-23(31)14-22/h5-9,12,14,18-19,25-26,31-32H,10-11,13,15-17H2,1-4H3,(H,29,33)/t19-,25+,26+,28+/m0/s1

>  <IUPAC Name>  (1) 
(3R)-7-hydroxy-N-[(2S)-1-[(3R,4R)-4-(3-hydroxyphenyl)-3,4-dimethylpiperidin-1-yl]-3-methylbutan-2-yl]-3,4-dihydro-1H-isochromene-3-carboxamide

$$$$
