
     RDKit          3D

 66 69  0  0  0  0  0  0  0  0999 V2000
   -9.8094   -3.7421   -1.7048 O   0  0  0  0  0  0  0  0  0  0  0  0
   -9.5133   -2.5551   -1.3648 C   0  0  0  0  0  0  0  0  0  0  0  0
  -10.2179   -1.6645   -0.5119 N   0  0  0  0  0  0  0  0  0  0  0  0
   -9.8556   -0.3293   -0.6998 C   0  0  0  0  0  0  0  0  0  0  0  0
  -10.6219    0.6905   -0.7874 O   0  0  0  0  0  0  0  0  0  0  0  0
   -8.3679   -0.1685   -0.7996 C   0  0  0  0  0  0  0  0  0  0  0  0
   -8.0519   -1.6183   -1.8879 S   0  0  0  0  0  0  0  0  0  0  0  0
   -7.6900   -0.4604    0.5167 C   0  0  0  0  0  0  0  0  0  0  0  0
   -6.2303   -0.2788    0.3330 C   0  0  0  0  0  0  0  0  0  0  0  0
   -5.3747   -1.2878   -0.0502 C   0  0  0  0  0  0  0  0  0  0  0  0
   -4.0261   -1.0133   -0.1937 C   0  0  0  0  0  0  0  0  0  0  0  0
   -3.4799    0.2317    0.0282 C   0  0  0  0  0  0  0  0  0  0  0  0
   -4.3540    1.2350    0.4127 C   0  0  0  0  0  0  0  0  0  0  0  0
   -5.7229    0.9952    0.5679 C   0  0  0  0  0  0  0  0  0  0  0  0
   -2.0787    0.4974   -0.1215 N   0  0  0  0  0  0  0  0  0  0  0  0
   -1.1855   -0.5900   -0.4383 C   0  0  0  0  0  0  0  0  0  0  0  0
    0.2515   -0.3486   -0.1056 C   0  0  0  0  0  0  0  0  0  0  0  0
    0.7002    1.0650   -0.2810 C   0  0  0  0  0  0  0  0  0  0  0  0
   -0.3555    1.9506   -0.8914 C   0  0  0  0  0  0  0  0  0  0  0  0
   -1.5717    1.8225    0.0380 C   0  0  0  0  0  0  0  0  0  0  0  0
    1.8957    1.0907   -1.0977 N   0  0  0  0  0  0  0  0  0  0  0  0
    2.9949    0.3770   -0.5254 C   0  0  0  0  0  0  0  0  0  0  0  0
    3.5410    1.0399    0.7197 C   0  0  1  0  0  0  0  0  0  0  0  0
    4.7171    0.3039    1.2128 C   0  0  0  0  0  0  0  0  0  0  0  0
    4.6205   -0.4494    2.3794 C   0  0  0  0  0  0  0  0  0  0  0  0
    5.7277   -1.1532    2.8607 C   0  0  0  0  0  0  0  0  0  0  0  0
    6.9140   -1.0822    2.1523 C   0  0  0  0  0  0  0  0  0  0  0  0
    7.0472   -0.3473    0.9944 C   0  0  0  0  0  0  0  0  0  0  0  0
    5.9311    0.3334    0.5518 C   0  0  0  0  0  0  0  0  0  0  0  0
    8.2746   -0.2893    0.2862 N   0  0  0  0  0  0  0  0  0  0  0  0
    8.4288    0.5828   -1.2125 S   0  0  0  0  0  0  0  0  0  0  0  0
    9.8626    0.5439   -1.6435 O   0  0  0  0  0  0  0  0  0  0  0  0
    8.0603    2.0260   -0.9542 O   0  0  0  0  0  0  0  0  0  0  0  0
    7.3368   -0.1461   -2.3884 C   0  0  0  0  0  0  0  0  0  0  0  0
    8.0112   -1.7934    2.6494 O   0  0  0  0  0  0  0  0  0  0  0  0
    3.9711    2.3163    0.3642 O   0  0  0  0  0  0  0  0  0  0  0  0
  -10.9488   -1.9638    0.2011 H   0  0  0  0  0  0  0  0  0  0  0  0
   -8.0683    0.7712   -1.2486 H   0  0  0  0  0  0  0  0  0  0  0  0
   -7.8489   -1.5427    0.7958 H   0  0  0  0  0  0  0  0  0  0  0  0
   -8.0750    0.1535    1.3501 H   0  0  0  0  0  0  0  0  0  0  0  0
   -5.7867   -2.2738   -0.2291 H   0  0  0  0  0  0  0  0  0  0  0  0
   -3.4040   -1.8432   -0.4963 H   0  0  0  0  0  0  0  0  0  0  0  0
   -4.0333    2.2345    0.6101 H   0  0  0  0  0  0  0  0  0  0  0  0
   -6.3907    1.8125    0.8739 H   0  0  0  0  0  0  0  0  0  0  0  0
   -1.3441   -0.8676   -1.4988 H   0  0  0  0  0  0  0  0  0  0  0  0
   -1.5241   -1.4734    0.1695 H   0  0  0  0  0  0  0  0  0  0  0  0
    0.8474   -1.0305   -0.7463 H   0  0  0  0  0  0  0  0  0  0  0  0
    0.4712   -0.6531    0.9420 H   0  0  0  0  0  0  0  0  0  0  0  0
    0.9630    1.5343    0.6957 H   0  0  0  0  0  0  0  0  0  0  0  0
    0.0343    2.9794   -0.8720 H   0  0  0  0  0  0  0  0  0  0  0  0
   -0.6161    1.5812   -1.8872 H   0  0  0  0  0  0  0  0  0  0  0  0
   -2.2571    2.6265   -0.2848 H   0  0  0  0  0  0  0  0  0  0  0  0
   -1.1593    2.0164    1.0595 H   0  0  0  0  0  0  0  0  0  0  0  0
    1.6894    0.6425   -2.0209 H   0  0  0  0  0  0  0  0  0  0  0  0
    3.8439    0.4176   -1.2665 H   0  0  0  0  0  0  0  0  0  0  0  0
    2.8160   -0.7031   -0.3504 H   0  0  0  0  0  0  0  0  0  0  0  0
    2.7700    1.0730    1.5126 H   0  0  0  0  0  0  0  0  0  0  0  0
    3.6722   -0.4668    2.8878 H   0  0  0  0  0  0  0  0  0  0  0  0
    5.6390   -1.7341    3.7679 H   0  0  0  0  0  0  0  0  0  0  0  0
    5.9771    0.9226   -0.3452 H   0  0  0  0  0  0  0  0  0  0  0  0
    9.1035   -0.7919    0.6923 H   0  0  0  0  0  0  0  0  0  0  0  0
    6.5101    0.5342   -2.6521 H   0  0  0  0  0  0  0  0  0  0  0  0
    6.9636   -1.1433   -2.0420 H   0  0  0  0  0  0  0  0  0  0  0  0
    7.9339   -0.3545   -3.3081 H   0  0  0  0  0  0  0  0  0  0  0  0
    8.3579   -2.6252    2.1929 H   0  0  0  0  0  0  0  0  0  0  0  0
    4.0852    2.3835   -0.6207 H   0  0  0  0  0  0  0  0  0  0  0  0
  1  2  2  0
  2  3  1  0
  3  4  1  0
  4  5  2  0
  4  6  1  0
  6  7  1  0
  6  8  1  0
  8  9  1  0
  9 10  2  0
 10 11  1  0
 11 12  2  0
 12 13  1  0
 13 14  2  0
 12 15  1  0
 15 16  1  0
 16 17  1  0
 17 18  1  0
 18 19  1  0
 19 20  1  0
 18 21  1  0
 21 22  1  0
 22 23  1  0
 23 24  1  0
 24 25  2  0
 25 26  1  0
 26 27  2  0
 27 28  1  0
 28 29  2  0
 28 30  1  0
 30 31  1  0
 31 32  2  0
 31 33  2  0
 31 34  1  0
 27 35  1  0
 23 36  1  0
  7  2  1  0
 14  9  1  0
 20 15  1  0
 29 24  1  0
  3 37  1  0
  6 38  1  0
  8 39  1  0
  8 40  1  0
 10 41  1  0
 11 42  1  0
 13 43  1  0
 14 44  1  0
 16 45  1  0
 16 46  1  0
 17 47  1  0
 17 48  1  0
 18 49  1  0
 19 50  1  0
 19 51  1  0
 20 52  1  0
 20 53  1  0
 21 54  1  0
 22 55  1  0
 22 56  1  0
 23 57  1  1
 25 58  1  0
 26 59  1  0
 29 60  1  0
 30 61  1  0
 34 62  1  0
 34 63  1  0
 34 64  1  0
 35 65  1  0
 36 66  1  0
M  END
>  <Ligand ID>  (1) 
LIG0004938

>  <Ligand>  (1) 
5-[4-[4-[[(R)-beta,4-Dihydroxy-3-(methylsulfonylamino)phenethyl]amino]piperidino]benzyl]thiazolidine-2,4-dione

>  <SMILES>  (1) 
O=C1NC(=O)C(S1)Cc1ccc(cc1)N1CCC(CC1)NC[C@@H](c1ccc(c(c1)NS(=O)(=O)C)O)O

>  <CID>  (1) 
9871800.0

>  <ChEMBL ID>  (1) 
nan

>  <InChiKey>  (1) 
LYCJVGDAEAJXKC-HMTLIYDFSA-N

>  <InChi>  (1) 
InChI=1S/C24H30N4O6S2/c1-36(33,34)27-19-13-16(4-7-20(19)29)21(30)14-25-17-8-10-28(11-9-17)18-5-2-15(3-6-18)12-22-23(31)26-24(32)35-22/h2-7,13,17,21-22,25,27,29-30H,8-12,14H2,1H3,(H,26,31,32)/t21-,22?/m0/s1

>  <IUPAC Name>  (1) 
N-[5-[(1R)-2-[[1-[4-[(2,4-dioxo-1,3-thiazolidin-5-yl)methyl]phenyl]piperidin-4-yl]amino]-1-hydroxyethyl]-2-hydroxyphenyl]methanesulfonamide

$$$$
