
     RDKit          3D

 63 65  0  0  0  0  0  0  0  0999 V2000
   -9.6132   -2.9852    0.9828 C   0  0  0  0  0  0  0  0  0  0  0  0
   -9.9828   -1.6449    1.2361 O   0  0  0  0  0  0  0  0  0  0  0  0
   -9.3248   -0.5588    0.6859 C   0  0  0  0  0  0  0  0  0  0  0  0
   -9.8214    0.6988    1.0407 C   0  0  0  0  0  0  0  0  0  0  0  0
   -9.2434    1.8650    0.5511 C   0  0  0  0  0  0  0  0  0  0  0  0
   -8.1509    1.7327   -0.3063 C   0  0  0  0  0  0  0  0  0  0  0  0
   -7.6558    0.4851   -0.6602 C   0  0  0  0  0  0  0  0  0  0  0  0
   -8.2448   -0.6615   -0.1625 C   0  0  0  0  0  0  0  0  0  0  0  0
   -6.4990    0.4553   -1.5723 C   0  0  0  0  0  0  0  0  0  0  0  0
   -5.2380    0.4824   -0.7663 C   0  0  0  0  0  0  0  0  0  0  0  0
   -5.2389    0.5245    0.4906 O   0  0  0  0  0  0  0  0  0  0  0  0
   -4.0217    0.4576   -1.5126 N   0  0  0  0  0  0  0  0  0  0  0  0
   -2.7376    0.4783   -0.8964 C   0  0  0  0  0  0  0  0  0  0  0  0
   -2.0578   -0.6673   -0.5339 C   0  0  0  0  0  0  0  0  0  0  0  0
   -0.7988   -0.5732    0.0675 C   0  0  0  0  0  0  0  0  0  0  0  0
   -0.2288    0.6828    0.3014 C   0  0  0  0  0  0  0  0  0  0  0  0
   -0.9295    1.8240   -0.0709 C   0  0  0  0  0  0  0  0  0  0  0  0
   -2.1725    1.7286   -0.6646 C   0  0  0  0  0  0  0  0  0  0  0  0
    1.1073    0.8310    0.9371 C   0  0  0  0  0  0  0  0  0  0  0  0
    2.2121    0.8494   -0.0966 C   0  0  0  0  0  0  0  0  0  0  0  0
    3.4672    0.9959    0.6103 N   0  0  0  0  0  0  0  0  0  0  0  0
    4.6161    1.0334   -0.2477 C   0  0  0  0  0  0  0  0  0  0  0  0
    4.8843   -0.3043   -0.9393 C   0  0  1  0  0  0  0  0  0  0  0  0
    6.0768   -0.0840   -1.8293 C   0  0  0  0  0  0  0  0  0  0  0  0
    7.1973    0.2628   -1.1817 O   0  0  0  0  0  0  0  0  0  0  0  0
    8.0874   -0.2101   -0.3163 C   0  0  0  0  0  0  0  0  0  0  0  0
    9.1158    0.6832    0.0686 C   0  0  0  0  0  0  0  0  0  0  0  0
   10.1028    0.3427    0.9449 C   0  0  0  0  0  0  0  0  0  0  0  0
   10.1450   -0.9065    1.5050 C   0  0  0  0  0  0  0  0  0  0  0  0
    9.1747   -1.8063    1.1651 C   0  0  0  0  0  0  0  0  0  0  0  0
    8.1643   -1.4513    0.2645 C   0  0  0  0  0  0  0  0  0  0  0  0
   11.1441   -1.2414    2.3886 O   0  0  0  0  0  0  0  0  0  0  0  0
    5.1052   -1.3060   -0.0443 O   0  0  0  0  0  0  0  0  0  0  0  0
   -9.2015   -3.1130   -0.0435 H   0  0  0  0  0  0  0  0  0  0  0  0
  -10.4847   -3.6794    1.1475 H   0  0  0  0  0  0  0  0  0  0  0  0
   -8.8074   -3.2573    1.6931 H   0  0  0  0  0  0  0  0  0  0  0  0
  -10.6624    0.8262    1.7002 H   0  0  0  0  0  0  0  0  0  0  0  0
   -9.6131    2.8443    0.8140 H   0  0  0  0  0  0  0  0  0  0  0  0
   -7.7076    2.6563   -0.6828 H   0  0  0  0  0  0  0  0  0  0  0  0
   -7.8676   -1.6276   -0.4311 H   0  0  0  0  0  0  0  0  0  0  0  0
   -6.5047   -0.5491   -2.0663 H   0  0  0  0  0  0  0  0  0  0  0  0
   -6.5307    1.2391   -2.3512 H   0  0  0  0  0  0  0  0  0  0  0  0
   -4.0344    0.4227   -2.5554 H   0  0  0  0  0  0  0  0  0  0  0  0
   -2.4996   -1.6376   -0.7153 H   0  0  0  0  0  0  0  0  0  0  0  0
   -0.2390   -1.4530    0.3640 H   0  0  0  0  0  0  0  0  0  0  0  0
   -0.5158    2.8188    0.0966 H   0  0  0  0  0  0  0  0  0  0  0  0
   -2.6904    2.6363   -0.9421 H   0  0  0  0  0  0  0  0  0  0  0  0
    1.2911    0.0364    1.6996 H   0  0  0  0  0  0  0  0  0  0  0  0
    1.1149    1.7953    1.4834 H   0  0  0  0  0  0  0  0  0  0  0  0
    2.0682    1.7091   -0.7512 H   0  0  0  0  0  0  0  0  0  0  0  0
    2.1893   -0.0978   -0.6722 H   0  0  0  0  0  0  0  0  0  0  0  0
    3.5709    0.2601    1.3601 H   0  0  0  0  0  0  0  0  0  0  0  0
    5.4992    1.2964    0.3359 H   0  0  0  0  0  0  0  0  0  0  0  0
    4.4044    1.7535   -1.0718 H   0  0  0  0  0  0  0  0  0  0  0  0
    3.9652   -0.5471   -1.5653 H   0  0  0  0  0  0  0  0  0  0  0  0
    5.7767    0.7484   -2.5614 H   0  0  0  0  0  0  0  0  0  0  0  0
    6.1920   -1.0194   -2.4822 H   0  0  0  0  0  0  0  0  0  0  0  0
    9.1435    1.6936   -0.3385 H   0  0  0  0  0  0  0  0  0  0  0  0
   10.8842    1.0423    1.2283 H   0  0  0  0  0  0  0  0  0  0  0  0
    9.2116   -2.7952    1.6111 H   0  0  0  0  0  0  0  0  0  0  0  0
    7.4695   -2.2213    0.0385 H   0  0  0  0  0  0  0  0  0  0  0  0
   11.6809   -2.0836    2.2781 H   0  0  0  0  0  0  0  0  0  0  0  0
    4.2565   -1.7101    0.2580 H   0  0  0  0  0  0  0  0  0  0  0  0
  1  2  1  0
  2  3  1  0
  3  4  2  0
  4  5  1  0
  5  6  2  0
  6  7  1  0
  7  8  2  0
  7  9  1  0
  9 10  1  0
 10 11  2  0
 10 12  1  0
 12 13  1  0
 13 14  2  0
 14 15  1  0
 15 16  2  0
 16 17  1  0
 17 18  2  0
 16 19  1  0
 19 20  1  0
 20 21  1  0
 21 22  1  0
 22 23  1  0
 23 24  1  0
 24 25  1  0
 25 26  1  0
 26 27  2  0
 27 28  1  0
 28 29  2  0
 29 30  1  0
 30 31  2  0
 29 32  1  0
 23 33  1  0
  8  3  1  0
 18 13  1  0
 31 26  1  0
  1 34  1  0
  1 35  1  0
  1 36  1  0
  4 37  1  0
  5 38  1  0
  6 39  1  0
  8 40  1  0
  9 41  1  0
  9 42  1  0
 12 43  1  0
 14 44  1  0
 15 45  1  0
 17 46  1  0
 18 47  1  0
 19 48  1  0
 19 49  1  0
 20 50  1  0
 20 51  1  0
 21 52  1  0
 22 53  1  0
 22 54  1  0
 23 55  1  6
 24 56  1  0
 24 57  1  0
 27 58  1  0
 28 59  1  0
 30 60  1  0
 31 61  1  0
 32 62  1  0
 33 63  1  0
M  END
>  <Ligand ID>  (1) 
LIG0004838

>  <Ligand>  (1) 
CHEMBL561211

>  <SMILES>  (1) 
COc1cccc(c1)CC(=O)Nc1ccc(cc1)CCNC[C@@H](COc1ccc(cc1)O)O

>  <CID>  (1) 
44127481.0

>  <ChEMBL ID>  (1) 
nan

>  <InChiKey>  (1) 
SGGVEMFMEYMTCM-QHCPKHFHSA-N

>  <InChi>  (1) 
InChI=1S/C26H30N2O5/c1-32-25-4-2-3-20(15-25)16-26(31)28-21-7-5-19(6-8-21)13-14-27-17-23(30)18-33-24-11-9-22(29)10-12-24/h2-12,15,23,27,29-30H,13-14,16-18H2,1H3,(H,28,31)/t23-/m0/s1

>  <IUPAC Name>  (1) 
N-[4-[2-[[(2S)-2-hydroxy-3-(4-hydroxyphenoxy)propyl]amino]ethyl]phenyl]-2-(3-methoxyphenyl)acetamide

$$$$
