
     RDKit          3D

153158  0  0  0  0  0  0  0  0999 V2000
    8.2127    5.6163   -1.9292 C   0  0  0  0  0  0  0  0  0  0  0  0
    6.8439    5.0162   -2.2254 C   0  0  0  0  0  0  0  0  0  0  0  0
    6.8549    3.5194   -1.8749 C   0  0  0  0  0  0  0  0  0  0  0  0
    7.1871    3.3161   -0.4316 C   0  0  0  0  0  0  0  0  0  0  0  0
    7.2227    1.8907    0.0274 C   0  0  1  0  0  0  0  0  0  0  0  0
    5.9547    1.1527   -0.1118 C   0  0  0  0  0  0  0  0  0  0  0  0
    5.9378    0.1829   -0.9238 O   0  0  0  0  0  0  0  0  0  0  0  0
    4.8525    1.5634    0.6648 N   0  0  0  0  0  0  0  0  0  0  0  0
    3.5515    1.0279    0.7623 C   0  0  1  0  0  0  0  0  0  0  0  0
    2.4349    1.7728    0.1276 C   0  0  0  0  0  0  0  0  0  0  0  0
    2.3263    3.2027    0.4160 C   0  0  0  0  0  0  0  0  0  0  0  0
    3.2305    3.9707    0.7696 O   0  0  0  0  0  0  0  0  0  0  0  0
    1.0315    3.8630    0.2916 N   0  0  0  0  0  0  0  0  0  0  0  0
    0.8793    5.2847    0.5147 C   0  0  0  0  0  0  0  0  0  0  0  0
   -0.5130    5.7946    0.4835 C   0  0  0  0  0  0  0  0  0  0  0  0
   -1.2552    5.2941   -0.7231 C   0  0  0  0  0  0  0  0  0  0  0  0
   -2.6511    5.8622   -0.6408 C   0  0  0  0  0  0  0  0  0  0  0  0
   -3.6167    5.1308   -1.5750 C   0  0  2  0  0  0  0  0  0  0  0  0
   -3.5785    3.7128   -1.1720 N   0  0  0  0  0  0  0  0  0  0  0  0
   -4.5492    3.1014   -0.3368 C   0  0  0  0  0  0  0  0  0  0  0  0
   -5.4877    3.8815   -0.0216 O   0  0  0  0  0  0  0  0  0  0  0  0
   -4.5668    1.7459    0.1625 C   0  0  1  0  0  0  0  0  0  0  0  0
   -3.5538    0.9536   -0.5248 N   0  0  0  0  0  0  0  0  0  0  0  0
   -3.4565   -0.4906   -0.3086 C   0  0  0  0  0  0  0  0  0  0  0  0
   -4.2305   -0.9231    0.5234 O   0  0  0  0  0  0  0  0  0  0  0  0
   -2.4791   -1.3075   -1.0430 C   0  0  1  0  0  0  0  0  0  0  0  0
   -2.0786   -2.4976   -0.2915 N   0  0  0  0  0  0  0  0  0  0  0  0
   -0.7248   -2.8801   -0.3892 C   0  0  0  0  0  0  0  0  0  0  0  0
   -0.0483   -2.1851   -1.1948 O   0  0  0  0  0  0  0  0  0  0  0  0
    0.0157   -3.9537    0.2962 C   0  0  2  0  0  0  0  0  0  0  0  0
    1.3964   -3.7035   -0.1881 N   0  0  0  0  0  0  0  0  0  0  0  0
    2.3867   -3.1239    0.6660 C   0  0  0  0  0  0  0  0  0  0  0  0
    2.0286   -2.8841    1.8207 O   0  0  0  0  0  0  0  0  0  0  0  0
    3.7682   -2.8165    0.2243 C   0  0  1  0  0  0  0  0  0  0  0  0
    4.2371   -1.5157    0.7885 N   0  0  0  0  0  0  0  0  0  0  0  0
    3.4041   -0.4360    0.5486 C   0  0  0  0  0  0  0  0  0  0  0  0
    2.2704   -0.7766    0.0590 O   0  0  0  0  0  0  0  0  0  0  0  0
    5.4146   -1.7648    1.5217 C   0  0  0  0  0  0  0  0  0  0  0  0
    5.9029   -3.1542    1.1515 C   0  0  2  0  0  0  0  0  0  0  0  0
    4.6925   -3.8697    0.6425 C   0  0  0  0  0  0  0  0  0  0  0  0
    6.3775   -3.8743    2.3275 N   0  0  0  0  0  0  0  0  0  0  0  0
    6.8726   -5.0402    2.0940 C   0  0  0  0  0  0  0  0  0  0  0  0
    7.3845   -5.8823    3.1369 N   0  0  0  0  0  0  0  0  0  0  0  0
    6.9596   -5.5955    0.7680 N   0  0  0  0  0  0  0  0  0  0  0  0
   -0.3828   -5.3451    0.0205 C   0  0  0  0  0  0  0  0  0  0  0  0
   -1.7283   -5.7689    0.3734 C   0  0  0  0  0  0  0  0  0  0  0  0
   -1.8918   -6.2723    1.6799 C   0  0  0  0  0  0  0  0  0  0  0  0
   -3.1047   -6.7160    2.1449 C   0  0  0  0  0  0  0  0  0  0  0  0
   -4.2023   -6.6824    1.3446 C   0  0  0  0  0  0  0  0  0  0  0  0
   -4.0813   -6.1977    0.0629 C   0  0  0  0  0  0  0  0  0  0  0  0
   -2.8458   -5.7457   -0.4111 C   0  0  0  0  0  0  0  0  0  0  0  0
   -5.2172   -6.1791   -0.7128 C   0  0  0  0  0  0  0  0  0  0  0  0
   -6.4537   -6.6256   -0.2467 C   0  0  0  0  0  0  0  0  0  0  0  0
   -6.5488   -7.1062    1.0406 C   0  0  0  0  0  0  0  0  0  0  0  0
   -5.4164   -7.1385    1.8505 C   0  0  0  0  0  0  0  0  0  0  0  0
   -2.7986   -1.6084   -2.4691 C   0  0  0  0  0  0  0  0  0  0  0  0
   -3.9623   -2.3298   -2.8926 C   0  0  0  0  0  0  0  0  0  0  0  0
   -5.3435   -1.8862   -2.6462 C   0  0  0  0  0  0  0  0  0  0  0  0
   -6.2021   -2.9338   -3.2388 N   0  0  0  0  0  0  0  0  0  0  0  0
   -7.0873   -3.5364   -2.5244 C   0  0  0  0  0  0  0  0  0  0  0  0
   -7.8774   -4.5285   -3.1457 N   0  0  0  0  0  0  0  0  0  0  0  0
   -7.3143   -3.2508   -1.1488 N   0  0  0  0  0  0  0  0  0  0  0  0
   -4.2781    1.7326    1.6668 C   0  0  0  0  0  0  0  0  0  0  0  0
   -5.2847    2.5080    2.3850 C   0  0  0  0  0  0  0  0  0  0  0  0
   -6.5277    1.9606    2.7487 C   0  0  0  0  0  0  0  0  0  0  0  0
   -7.2804    2.9310    3.3205 N   0  0  0  0  0  0  0  0  0  0  0  0
   -6.5943    4.0925    3.3537 C   0  0  0  0  0  0  0  0  0  0  0  0
   -5.3703    3.8201    2.7780 C   0  0  0  0  0  0  0  0  0  0  0  0
   -4.4424    4.8531    2.7082 C   0  0  0  0  0  0  0  0  0  0  0  0
   -4.7036    6.1179    3.1830 C   0  0  0  0  0  0  0  0  0  0  0  0
   -5.9394    6.3538    3.7487 C   0  0  0  0  0  0  0  0  0  0  0  0
   -6.8934    5.3505    3.8412 C   0  0  0  0  0  0  0  0  0  0  0  0
   -3.4269    5.3738   -2.9792 C   0  0  0  0  0  0  0  0  0  0  0  0
   -3.4373    6.5169   -3.5224 O   0  0  0  0  0  0  0  0  0  0  0  0
   -3.2033    4.2783   -3.8911 N   0  0  0  0  0  0  0  0  0  0  0  0
    8.2303    1.2250   -0.7875 N   0  0  0  0  0  0  0  0  0  0  0  0
    9.3864    0.7630   -0.0950 C   0  0  0  0  0  0  0  0  0  0  0  0
    9.5102    0.9324    1.1618 O   0  0  0  0  0  0  0  0  0  0  0  0
   10.4905    0.0711   -0.7973 C   0  0  0  0  0  0  0  0  0  0  0  0
    8.1543    6.0328   -0.8959 H   0  0  0  0  0  0  0  0  0  0  0  0
    8.3863    6.4822   -2.6032 H   0  0  0  0  0  0  0  0  0  0  0  0
    9.0181    4.8764   -2.0381 H   0  0  0  0  0  0  0  0  0  0  0  0
    6.7262    5.1024   -3.3402 H   0  0  0  0  0  0  0  0  0  0  0  0
    6.0525    5.5690   -1.7055 H   0  0  0  0  0  0  0  0  0  0  0  0
    5.8465    3.1470   -2.1430 H   0  0  0  0  0  0  0  0  0  0  0  0
    7.6472    3.0731   -2.5294 H   0  0  0  0  0  0  0  0  0  0  0  0
    8.2285    3.7121   -0.2804 H   0  0  0  0  0  0  0  0  0  0  0  0
    6.5448    3.9577    0.2129 H   0  0  0  0  0  0  0  0  0  0  0  0
    7.5398    1.9217    1.1008 H   0  0  0  0  0  0  0  0  0  0  0  0
    5.0480    2.4331    1.2824 H   0  0  0  0  0  0  0  0  0  0  0  0
    3.3294    1.0621    1.9179 H   0  0  0  0  0  0  0  0  0  0  0  0
    1.4444    1.3133    0.3693 H   0  0  0  0  0  0  0  0  0  0  0  0
    2.5558    1.6925   -0.9949 H   0  0  0  0  0  0  0  0  0  0  0  0
    0.2821    3.2159    0.0441 H   0  0  0  0  0  0  0  0  0  0  0  0
    1.3469    5.4873    1.5242 H   0  0  0  0  0  0  0  0  0  0  0  0
    1.5159    5.8700   -0.2158 H   0  0  0  0  0  0  0  0  0  0  0  0
   -1.0546    5.5716    1.4330 H   0  0  0  0  0  0  0  0  0  0  0  0
   -0.4816    6.9233    0.4386 H   0  0  0  0  0  0  0  0  0  0  0  0
   -1.2264    4.2114   -0.7520 H   0  0  0  0  0  0  0  0  0  0  0  0
   -0.7003    5.6767   -1.6135 H   0  0  0  0  0  0  0  0  0  0  0  0
   -2.6158    6.9112   -0.9370 H   0  0  0  0  0  0  0  0  0  0  0  0
   -3.0258    5.7656    0.3669 H   0  0  0  0  0  0  0  0  0  0  0  0
   -4.6139    5.4940   -1.2462 H   0  0  0  0  0  0  0  0  0  0  0  0
   -2.8197    3.1591   -1.5122 H   0  0  0  0  0  0  0  0  0  0  0  0
   -5.5798    1.2796    0.0455 H   0  0  0  0  0  0  0  0  0  0  0  0
   -2.8578    1.2934   -1.1797 H   0  0  0  0  0  0  0  0  0  0  0  0
   -1.5672   -0.7023   -1.1344 H   0  0  0  0  0  0  0  0  0  0  0  0
   -2.6822   -3.0574    0.2960 H   0  0  0  0  0  0  0  0  0  0  0  0
    0.0900   -3.7317    1.4047 H   0  0  0  0  0  0  0  0  0  0  0  0
    1.7113   -3.9260   -1.1291 H   0  0  0  0  0  0  0  0  0  0  0  0
    3.7238   -2.6546   -0.8882 H   0  0  0  0  0  0  0  0  0  0  0  0
    6.2670   -1.1083    1.4274 H   0  0  0  0  0  0  0  0  0  0  0  0
    5.0962   -1.7973    2.6227 H   0  0  0  0  0  0  0  0  0  0  0  0
    6.6643   -3.1240    0.3537 H   0  0  0  0  0  0  0  0  0  0  0  0
    4.9499   -4.4948   -0.2574 H   0  0  0  0  0  0  0  0  0  0  0  0
    4.2102   -4.4861    1.4337 H   0  0  0  0  0  0  0  0  0  0  0  0
    6.8879   -6.8132    3.2268 H   0  0  0  0  0  0  0  0  0  0  0  0
    8.1772   -5.6022    3.7550 H   0  0  0  0  0  0  0  0  0  0  0  0
    7.7081   -5.2002    0.1566 H   0  0  0  0  0  0  0  0  0  0  0  0
    6.3176   -6.3475    0.4339 H   0  0  0  0  0  0  0  0  0  0  0  0
   -0.1783   -5.5169   -1.0868 H   0  0  0  0  0  0  0  0  0  0  0  0
    0.3382   -6.0766    0.4970 H   0  0  0  0  0  0  0  0  0  0  0  0
   -1.0319   -6.3207    2.3610 H   0  0  0  0  0  0  0  0  0  0  0  0
   -3.1383   -7.0907    3.1641 H   0  0  0  0  0  0  0  0  0  0  0  0
   -2.7572   -5.3656   -1.4136 H   0  0  0  0  0  0  0  0  0  0  0  0
   -5.1829   -5.8063   -1.7316 H   0  0  0  0  0  0  0  0  0  0  0  0
   -7.3436   -6.5974   -0.8845 H   0  0  0  0  0  0  0  0  0  0  0  0
   -7.4824   -7.4723    1.4753 H   0  0  0  0  0  0  0  0  0  0  0  0
   -5.4296   -7.5057    2.8657 H   0  0  0  0  0  0  0  0  0  0  0  0
   -2.7858   -0.5936   -2.9799 H   0  0  0  0  0  0  0  0  0  0  0  0
   -1.8898   -2.0829   -2.8981 H   0  0  0  0  0  0  0  0  0  0  0  0
   -3.9145   -2.4790   -4.0221 H   0  0  0  0  0  0  0  0  0  0  0  0
   -3.9278   -3.4173   -2.5613 H   0  0  0  0  0  0  0  0  0  0  0  0
   -5.6904   -1.7615   -1.6331 H   0  0  0  0  0  0  0  0  0  0  0  0
   -5.5398   -1.0164   -3.3138 H   0  0  0  0  0  0  0  0  0  0  0  0
   -7.4145   -5.2421   -3.7512 H   0  0  0  0  0  0  0  0  0  0  0  0
   -8.9143   -4.6128   -3.0480 H   0  0  0  0  0  0  0  0  0  0  0  0
   -6.5820   -3.3816   -0.4161 H   0  0  0  0  0  0  0  0  0  0  0  0
   -8.2354   -2.8957   -0.8191 H   0  0  0  0  0  0  0  0  0  0  0  0
   -3.3053    2.2929    1.8335 H   0  0  0  0  0  0  0  0  0  0  0  0
   -4.0745    0.7480    2.0770 H   0  0  0  0  0  0  0  0  0  0  0  0
   -6.8448    0.9181    2.5978 H   0  0  0  0  0  0  0  0  0  0  0  0
   -8.2565    2.8692    3.7044 H   0  0  0  0  0  0  0  0  0  0  0  0
   -3.4907    4.6036    2.2749 H   0  0  0  0  0  0  0  0  0  0  0  0
   -3.9331    6.8517    3.0849 H   0  0  0  0  0  0  0  0  0  0  0  0
   -6.1163    7.3560    4.1091 H   0  0  0  0  0  0  0  0  0  0  0  0
   -7.8547    5.5693    4.2891 H   0  0  0  0  0  0  0  0  0  0  0  0
   -4.0026    3.8628   -4.4213 H   0  0  0  0  0  0  0  0  0  0  0  0
   -2.2347    3.9118   -4.0065 H   0  0  0  0  0  0  0  0  0  0  0  0
    8.1035    1.0981   -1.7981 H   0  0  0  0  0  0  0  0  0  0  0  0
   10.5485   -0.9563   -0.3440 H   0  0  0  0  0  0  0  0  0  0  0  0
   11.4241    0.6508   -0.5776 H   0  0  0  0  0  0  0  0  0  0  0  0
   10.2729    0.0595   -1.8649 H   0  0  0  0  0  0  0  0  0  0  0  0
  1  2  1  0
  2  3  1  0
  3  4  1  0
  4  5  1  0
  5  6  1  0
  6  7  2  0
  6  8  1  0
  8  9  1  0
  9 10  1  0
 10 11  1  0
 11 12  2  0
 11 13  1  0
 13 14  1  0
 14 15  1  0
 15 16  1  0
 16 17  1  0
 17 18  1  0
 18 19  1  0
 19 20  1  0
 20 21  2  0
 20 22  1  0
 22 23  1  0
 23 24  1  0
 24 25  2  0
 24 26  1  0
 26 27  1  0
 27 28  1  0
 28 29  2  0
 28 30  1  0
 30 31  1  0
 31 32  1  0
 32 33  2  0
 32 34  1  0
 34 35  1  0
 35 36  1  0
 36 37  2  0
 35 38  1  0
 38 39  1  0
 39 40  1  0
 39 41  1  0
 41 42  2  3
 42 43  1  0
 42 44  1  0
 30 45  1  0
 45 46  1  0
 46 47  2  0
 47 48  1  0
 48 49  2  0
 49 50  1  0
 50 51  2  0
 50 52  1  0
 52 53  2  0
 53 54  1  0
 54 55  2  0
 26 56  1  0
 56 57  1  0
 57 58  1  0
 58 59  1  0
 59 60  2  3
 60 61  1  0
 60 62  1  0
 22 63  1  0
 63 64  1  0
 64 65  2  0
 65 66  1  0
 66 67  1  0
 67 68  2  0
 68 69  1  0
 69 70  2  0
 70 71  1  0
 71 72  2  0
 18 73  1  0
 73 74  2  0
 73 75  1  0
  5 76  1  0
 76 77  1  0
 77 78  2  0
 77 79  1  0
 36  9  1  0
 51 46  1  0
 68 64  1  0
 40 34  1  0
 55 49  1  0
 72 67  1  0
  1 80  1  0
  1 81  1  0
  1 82  1  0
  2 83  1  0
  2 84  1  0
  3 85  1  0
  3 86  1  0
  4 87  1  0
  4 88  1  0
  5 89  1  1
  8 90  1  0
  9 91  1  1
 10 92  1  0
 10 93  1  0
 13 94  1  0
 14 95  1  0
 14 96  1  0
 15 97  1  0
 15 98  1  0
 16 99  1  0
 16100  1  0
 17101  1  0
 17102  1  0
 18103  1  1
 19104  1  0
 22105  1  1
 23106  1  0
 26107  1  6
 27108  1  0
 30109  1  1
 31110  1  0
 34111  1  6
 38112  1  0
 38113  1  0
 39114  1  6
 40115  1  0
 40116  1  0
 43117  1  0
 43118  1  0
 44119  1  0
 44120  1  0
 45121  1  0
 45122  1  0
 47123  1  0
 48124  1  0
 51125  1  0
 52126  1  0
 53127  1  0
 54128  1  0
 55129  1  0
 56130  1  0
 56131  1  0
 57132  1  0
 57133  1  0
 58134  1  0
 58135  1  0
 61136  1  0
 61137  1  0
 62138  1  0
 62139  1  0
 63140  1  0
 63141  1  0
 65142  1  0
 66143  1  0
 69144  1  0
 70145  1  0
 71146  1  0
 72147  1  0
 75148  1  0
 75149  1  0
 76150  1  0
 79151  1  0
 79152  1  0
 79153  1  0
M  END
>  <Ligand ID>  (1) 
LIG0001777

>  <Ligand>  (1) 
CHEMBL502300

>  <SMILES>  (1) 
CCCC[C@@H](C(=O)N[C@H]1CC(=O)NCCCC[C@H](NC(=O)[C@@H](NC(=O)[C@@H](NC(=O)[C@H](NC(=O)[C@H]2N(C1=O)C[C@H](C2)N=C(N)N)Cc1ccc2c(c1)cccc2)CCCN=C(N)N)Cc1c[nH]c2c1cccc2)C(=O)N)NC(=O)C

>  <CID>  (1) 
44157099.0

>  <ChEMBL ID>  (1) 
nan

>  <InChiKey>  (1) 
REMHNXQVRVXAGT-UEXUGAHTSA-N

>  <InChi>  (1) 
InChI=1S/C54H74N16O9/c1-3-4-15-39(63-30(2)71)47(74)69-43-27-45(72)60-21-10-9-17-38(46(55)73)65-50(77)42(25-34-28-62-37-16-8-7-14-36(34)37)67-48(75)40(18-11-22-61-53(56)57)66-49(76)41(24-31-19-20-32-12-5-6-13-33(32)23-31)68-51(78)44-26-35(64-54(58)59)29-70(44)52(43)79/h5-8,12-14,16,19-20,23,28,35,38-44,62H,3-4,9-11,15,17-18,21-22,24-27,29H2,1-2H3,(H2,55,73)(H,60,72)(H,63,71)(H,65,77)(H,66,76)(H,67,75)(H,68,78)(H,69,74)(H4,56,57,61)(H4,58,59,64)/t35-,38-,39-,40-,41+,42-,43-,44-/m0/s1

>  <IUPAC Name>  (1) 
(3S,11S,14S,17S,20R,23S,25S)-3-[[(2S)-2-acetamidohexanoyl]amino]-25-(diaminomethylideneamino)-17-[3-(diaminomethylideneamino)propyl]-14-(1H-indol-3-ylmethyl)-20-(naphthalen-2-ylmethyl)-2,5,13,16,19,22-hexaoxo-1,6,12,15,18,21-hexazabicyclo[21.3.0]hexacosane-11-carboxamide

$$$$
