
     RDKit          3D

 54 56  0  0  0  0  0  0  0  0999 V2000
   -3.7596    1.6192    0.1657 O   0  0  0  0  0  0  0  0  0  0  0  0
   -3.0979    0.4570    0.5357 C   0  0  0  0  0  0  0  0  0  0  0  0
   -3.7058   -0.7538   -0.1812 C   0  0  0  0  0  0  0  0  0  0  0  0
   -5.1210   -0.8871    0.1692 C   0  0  0  0  0  0  0  0  0  0  0  0
   -5.4495   -1.6571    1.2711 C   0  0  0  0  0  0  0  0  0  0  0  0
   -6.7819   -1.8221    1.6562 C   0  0  0  0  0  0  0  0  0  0  0  0
   -7.7787   -1.2022    0.9176 C   0  0  0  0  0  0  0  0  0  0  0  0
   -7.4633   -0.4292   -0.1871 C   0  0  0  0  0  0  0  0  0  0  0  0
   -6.1343   -0.2841   -0.5441 C   0  0  0  0  0  0  0  0  0  0  0  0
   -8.8256    0.4396   -1.2270 Br  0  0  0  0  0  0  0  0  0  0  0  0
   -1.6381    0.5524    0.2495 C   0  0  0  0  0  0  0  0  0  0  0  0
   -1.2005    1.3621   -0.6895 C   0  0  0  0  0  0  0  0  0  0  0  0
    0.2023    1.5709   -1.0934 C   0  0  1  0  0  0  0  0  0  0  0  0
    0.6301    2.9782   -0.8249 C   0  0  0  0  0  0  0  0  0  0  0  0
    1.8664    2.8887    0.0144 C   0  0  0  0  0  0  0  0  0  0  0  0
    2.3934    1.5473   -0.4753 C   0  0  0  0  0  0  0  0  0  0  0  0
    3.4945    1.4048   -0.8680 O   0  0  0  0  0  0  0  0  0  0  0  0
    1.1686    0.6950   -0.2837 C   0  0  2  0  0  0  0  0  0  0  0  0
    1.2045   -0.6176   -0.9576 C   0  0  0  0  0  0  0  0  0  0  0  0
    1.9919   -1.6553   -0.2562 C   0  0  0  0  0  0  0  0  0  0  0  0
    3.3863   -1.3498   -0.0384 C   0  0  0  0  0  0  0  0  0  0  0  0
    4.3466   -1.6207   -1.0222 C   0  0  0  0  0  0  0  0  0  0  0  0
    5.6882   -1.3792   -0.7851 C   0  0  0  0  0  0  0  0  0  0  0  0
    6.0466   -0.8662    0.4440 C   0  0  0  0  0  0  0  0  0  0  0  0
    5.1087   -0.5954    1.4209 C   0  0  0  0  0  0  0  0  0  0  0  0
    3.7650   -0.8299    1.2027 C   0  0  0  0  0  0  0  0  0  0  0  0
    7.4704   -0.6139    0.6855 C   0  0  0  0  0  0  0  0  0  0  0  0
    8.2981   -0.8684   -0.2173 O   0  0  0  0  0  0  0  0  0  0  0  0
    7.9334   -0.1001    1.8862 O   0  0  0  0  0  0  0  0  0  0  0  0
   -3.6050    2.2785    0.9117 H   0  0  0  0  0  0  0  0  0  0  0  0
   -3.2225    0.2850    1.6130 H   0  0  0  0  0  0  0  0  0  0  0  0
   -3.6826   -0.4785   -1.2767 H   0  0  0  0  0  0  0  0  0  0  0  0
   -3.0995   -1.6486   -0.0411 H   0  0  0  0  0  0  0  0  0  0  0  0
   -4.7024   -2.1571    1.8735 H   0  0  0  0  0  0  0  0  0  0  0  0
   -6.9953   -2.4350    2.5280 H   0  0  0  0  0  0  0  0  0  0  0  0
   -8.8192   -1.3307    1.2177 H   0  0  0  0  0  0  0  0  0  0  0  0
   -5.9228    0.3178   -1.4005 H   0  0  0  0  0  0  0  0  0  0  0  0
   -0.9813   -0.0595    0.8438 H   0  0  0  0  0  0  0  0  0  0  0  0
   -1.9568    1.9418   -1.2277 H   0  0  0  0  0  0  0  0  0  0  0  0
    0.3429    1.3572   -2.1829 H   0  0  0  0  0  0  0  0  0  0  0  0
    0.9095    3.4681   -1.7922 H   0  0  0  0  0  0  0  0  0  0  0  0
   -0.1749    3.5754   -0.3218 H   0  0  0  0  0  0  0  0  0  0  0  0
    2.5786    3.6970   -0.1370 H   0  0  0  0  0  0  0  0  0  0  0  0
    1.5375    2.7937    1.0835 H   0  0  0  0  0  0  0  0  0  0  0  0
    0.8857    0.5822    0.7648 H   0  0  0  0  0  0  0  0  0  0  0  0
    1.4969   -0.5344   -2.0479 H   0  0  0  0  0  0  0  0  0  0  0  0
    0.1366   -0.9961   -0.9863 H   0  0  0  0  0  0  0  0  0  0  0  0
    1.9782   -2.6423   -0.8290 H   0  0  0  0  0  0  0  0  0  0  0  0
    1.5119   -1.9326    0.7407 H   0  0  0  0  0  0  0  0  0  0  0  0
    3.9869   -2.0280   -1.9755 H   0  0  0  0  0  0  0  0  0  0  0  0
    6.4232   -1.5911   -1.5496 H   0  0  0  0  0  0  0  0  0  0  0  0
    5.4570   -0.1905    2.3716 H   0  0  0  0  0  0  0  0  0  0  0  0
    3.0360   -0.6167    1.9693 H   0  0  0  0  0  0  0  0  0  0  0  0
    8.8428    0.3616    1.9734 H   0  0  0  0  0  0  0  0  0  0  0  0
  1  2  1  0
  2  3  1  0
  3  4  1  0
  4  5  2  0
  5  6  1  0
  6  7  2  0
  7  8  1  0
  8  9  2  0
  8 10  1  0
  2 11  1  0
 11 12  2  0
 12 13  1  0
 13 14  1  0
 14 15  1  0
 15 16  1  0
 16 17  2  0
 16 18  1  0
 18 19  1  0
 19 20  1  0
 20 21  1  0
 21 22  2  0
 22 23  1  0
 23 24  2  0
 24 25  1  0
 25 26  2  0
 24 27  1  0
 27 28  2  0
 27 29  1  0
  9  4  1  0
 18 13  1  0
 26 21  1  0
  1 30  1  0
  2 31  1  0
  3 32  1  0
  3 33  1  0
  5 34  1  0
  6 35  1  0
  7 36  1  0
  9 37  1  0
 11 38  1  0
 12 39  1  0
 13 40  1  6
 14 41  1  0
 14 42  1  0
 15 43  1  0
 15 44  1  0
 18 45  1  1
 19 46  1  0
 19 47  1  0
 20 48  1  0
 20 49  1  0
 22 50  1  0
 23 51  1  0
 25 52  1  0
 26 53  1  0
 29 54  1  0
M  END
>  <Ligand ID>  (1) 
LIG0001315

>  <Ligand>  (1) 
CHEMBL3906016

>  <SMILES>  (1) 
OC(Cc1cccc(c1)Br)/C=C/[C@H]1CCC(=O)[C@@H]1CCc1ccc(cc1)C(=O)O

>  <CID>  (1) 
118517359.0

>  <ChEMBL ID>  (1) 
nan

>  <InChiKey>  (1) 
JQSUCRMHKFCGBV-FSKZSRKQSA-N

>  <InChi>  (1) 
InChI=1S/C24H25BrO4/c25-20-3-1-2-17(14-20)15-21(26)11-9-18-10-13-23(27)22(18)12-6-16-4-7-19(8-5-16)24(28)29/h1-5,7-9,11,14,18,21-22,26H,6,10,12-13,15H2,(H,28,29)/b11-9+/t18-,21?,22+/m0/s1

>  <IUPAC Name>  (1) 
4-[2-[(1R,2R)-2-[(E)-4-(3-bromophenyl)-3-hydroxybut-1-enyl]-5-oxocyclopentyl]ethyl]benzoic acid

$$$$
