
     RDKit          3D

 41 44  0  0  0  0  0  0  0  0999 V2000
   -5.9252    1.2349   -1.4794 C   0  0  0  0  0  0  0  0  0  0  0  0
   -5.8052    0.1694   -0.6173 C   0  0  0  0  0  0  0  0  0  0  0  0
   -4.5551   -0.2898   -0.1957 C   0  0  0  0  0  0  0  0  0  0  0  0
   -3.3783    0.3074   -0.6266 C   0  0  0  0  0  0  0  0  0  0  0  0
   -3.5161    1.3712   -1.4879 C   0  0  0  0  0  0  0  0  0  0  0  0
   -4.7706    1.8314   -1.9107 C   0  0  0  0  0  0  0  0  0  0  0  0
   -2.1142   -0.1475   -0.1908 N   0  0  0  0  0  0  0  0  0  0  0  0
   -1.9534   -1.0190    0.9885 C   0  0  0  0  0  0  0  0  0  0  0  0
   -1.0649   -0.2266    1.9446 C   0  0  0  0  0  0  0  0  0  0  0  0
    0.1922    0.0700    1.3543 N   0  0  0  0  0  0  0  0  0  0  0  0
    0.1470    0.7450    0.1101 C   0  0  0  0  0  0  0  0  0  0  0  0
   -0.8620    0.1793   -0.8583 C   0  0  0  0  0  0  0  0  0  0  0  0
    1.1183   -1.0045    1.4544 C   0  0  0  0  0  0  0  0  0  0  0  0
    2.4474   -0.7352    0.8527 C   0  0  0  0  0  0  0  0  0  0  0  0
    2.9103   -0.9769   -0.4240 C   0  0  0  0  0  0  0  0  0  0  0  0
    4.1915   -0.5690   -0.5324 N   0  0  0  0  0  0  0  0  0  0  0  0
    4.5390   -0.0711    0.6698 C   0  0  0  0  0  0  0  0  0  0  0  0
    3.4762   -0.1697    1.5226 N   0  0  0  0  0  0  0  0  0  0  0  0
    5.7840    0.4156    0.8518 N   0  0  0  0  0  0  0  0  0  0  0  0
    6.7086    0.4293   -0.1190 C   0  0  0  0  0  0  0  0  0  0  0  0
    6.3720   -0.0783   -1.3643 C   0  0  0  0  0  0  0  0  0  0  0  0
    5.0927   -0.5739   -1.5369 C   0  0  0  0  0  0  0  0  0  0  0  0
   -6.9094    1.5535   -1.7769 H   0  0  0  0  0  0  0  0  0  0  0  0
   -6.7120   -0.3066   -0.2725 H   0  0  0  0  0  0  0  0  0  0  0  0
   -4.5848   -1.1311    0.4741 H   0  0  0  0  0  0  0  0  0  0  0  0
   -2.6816    1.9213   -1.8899 H   0  0  0  0  0  0  0  0  0  0  0  0
   -4.8527    2.6811   -2.5978 H   0  0  0  0  0  0  0  0  0  0  0  0
   -1.3524   -1.8775    0.6038 H   0  0  0  0  0  0  0  0  0  0  0  0
   -2.8861   -1.3105    1.4526 H   0  0  0  0  0  0  0  0  0  0  0  0
   -0.8854   -0.8380    2.8482 H   0  0  0  0  0  0  0  0  0  0  0  0
   -1.6260    0.6679    2.2909 H   0  0  0  0  0  0  0  0  0  0  0  0
    1.1370    0.6876   -0.3777 H   0  0  0  0  0  0  0  0  0  0  0  0
   -0.0527    1.8395    0.2114 H   0  0  0  0  0  0  0  0  0  0  0  0
   -1.0237    0.8916   -1.6558 H   0  0  0  0  0  0  0  0  0  0  0  0
   -0.4725   -0.7788   -1.2874 H   0  0  0  0  0  0  0  0  0  0  0  0
    1.3009   -1.3346    2.4990 H   0  0  0  0  0  0  0  0  0  0  0  0
    0.6447   -1.9063    0.9620 H   0  0  0  0  0  0  0  0  0  0  0  0
    2.3038   -1.4260   -1.1870 H   0  0  0  0  0  0  0  0  0  0  0  0
    7.7060    0.8277    0.0538 H   0  0  0  0  0  0  0  0  0  0  0  0
    7.1098   -0.0757   -2.1656 H   0  0  0  0  0  0  0  0  0  0  0  0
    4.8028   -0.9773   -2.5019 H   0  0  0  0  0  0  0  0  0  0  0  0
  1  2  2  0
  2  3  1  0
  3  4  2  0
  4  5  1  0
  5  6  2  0
  4  7  1  0
  7  8  1  0
  8  9  1  0
  9 10  1  0
 10 11  1  0
 11 12  1  0
 10 13  1  0
 13 14  1  0
 14 15  2  0
 15 16  1  0
 16 17  1  0
 17 18  2  0
 17 19  1  0
 19 20  2  0
 20 21  1  0
 21 22  2  0
  6  1  1  0
 12  7  1  0
 18 14  1  0
 22 16  1  0
  1 23  1  0
  2 24  1  0
  3 25  1  0
  5 26  1  0
  6 27  1  0
  8 28  1  0
  8 29  1  0
  9 30  1  0
  9 31  1  0
 11 32  1  0
 11 33  1  0
 12 34  1  0
 12 35  1  0
 13 36  1  0
 13 37  1  0
 15 38  1  0
 20 39  1  0
 21 40  1  0
 22 41  1  0
M  END
>  <Ligand ID>  (1) 
LIG0003159

>  <Ligand>  (1) 
SMR000017404

>  <SMILES>  (1) 
c1ccc(cc1)N1CCN(CC1)Cc1cn2c(n1)nccc2

>  <CID>  (1) 
916985.0

>  <ChEMBL ID>  (1) 
nan

>  <InChiKey>  (1) 
PDWPQVUNIFZQKW-UHFFFAOYSA-N

>  <InChi>  (1) 
InChI=1S/C17H19N5/c1-2-5-16(6-3-1)21-11-9-20(10-12-21)13-15-14-22-8-4-7-18-17(22)19-15/h1-8,14H,9-13H2

>  <IUPAC Name>  (1) 
2-[(4-phenylpiperazin-1-yl)methyl]imidazo[1,2-a]pyrimidine

$$$$
