
     RDKit          3D

 20 20  0  0  0  0  0  0  0  0999 V2000
   -1.1877    1.4782    0.5394 N   0  0  0  0  0  0  0  0  0  0  0  0
   -1.3476    0.2020   -0.1093 C   0  0  1  0  0  0  0  0  0  0  0  0
    0.0114   -0.4305   -0.3473 C   0  0  1  0  0  0  0  0  0  0  0  0
    0.8982    0.4442   -1.2346 C   0  0  0  0  0  0  0  0  0  0  0  0
    1.1640    0.2585    0.2571 C   0  0  2  0  0  0  0  0  0  0  0  0
    2.4345   -0.4587    0.5449 C   0  0  0  0  0  0  0  0  0  0  0  0
    2.8222   -1.4511   -0.1292 O   0  0  0  0  0  0  0  0  0  0  0  0
    3.2726   -0.0564    1.5970 O   0  0  0  0  0  0  0  0  0  0  0  0
   -2.2202   -0.6542    0.7263 C   0  0  0  0  0  0  0  0  0  0  0  0
   -2.7059   -0.2403    1.8291 O   0  0  0  0  0  0  0  0  0  0  0  0
   -2.5602   -1.9546    0.3595 O   0  0  0  0  0  0  0  0  0  0  0  0
   -1.9722    1.7631    1.1388 H   0  0  0  0  0  0  0  0  0  0  0  0
   -0.8035    2.1881   -0.0988 H   0  0  0  0  0  0  0  0  0  0  0  0
   -1.7854    0.3945   -1.1091 H   0  0  0  0  0  0  0  0  0  0  0  0
    0.0779   -1.5231   -0.5350 H   0  0  0  0  0  0  0  0  0  0  0  0
    0.5738    1.4569   -1.5097 H   0  0  0  0  0  0  0  0  0  0  0  0
    1.5655   -0.0486   -1.9610 H   0  0  0  0  0  0  0  0  0  0  0  0
    0.9587    1.1125    0.9377 H   0  0  0  0  0  0  0  0  0  0  0  0
    4.2918   -0.1319    1.5447 H   0  0  0  0  0  0  0  0  0  0  0  0
   -3.4877   -2.3487    0.5515 H   0  0  0  0  0  0  0  0  0  0  0  0
  1  2  1  0
  2  3  1  0
  3  4  1  0
  4  5  1  0
  5  6  1  0
  6  7  2  0
  6  8  1  0
  2  9  1  0
  9 10  2  0
  9 11  1  0
  5  3  1  0
  1 12  1  0
  1 13  1  0
  2 14  1  6
  3 15  1  6
  4 16  1  0
  4 17  1  0
  5 18  1  1
  8 19  1  0
 11 20  1  0
M  END
>  <Ligand ID>  (1) 
LIG0000392

>  <Ligand>  (1) 
L-CCG-I

>  <SMILES>  (1) 
N[C@@H]([C@H]1C[C@@H]1C(=O)O)C(=O)O

>  <CID>  (1) 
5310956.0

>  <ChEMBL ID>  (1) 
nan

>  <InChiKey>  (1) 
GZOVEPYOCJWRFC-HZLVTQRSSA-N

>  <InChi>  (1) 
InChI=1S/C6H9NO4/c7-4(6(10)11)2-1-3(2)5(8)9/h2-4H,1,7H2,(H,8,9)(H,10,11)/t2-,3-,4-/m0/s1

>  <IUPAC Name>  (1) 
(1S,2S)-2-[(S)-amino(carboxy)methyl]cyclopropane-1-carboxylic acid

$$$$
