
     RDKit          3D

120124  0  0  0  0  0  0  0  0999 V2000
   -2.9398   -8.0482    3.8115 N   0  0  0  0  0  0  0  0  0  0  0  0
   -2.2242   -7.4606    2.7101 C   0  0  0  0  0  0  0  0  0  0  0  0
   -2.1717   -6.1804    2.6646 N   0  0  0  0  0  0  0  0  0  0  0  0
   -1.4528   -5.5045    1.5603 C   0  0  0  0  0  0  0  0  0  0  0  0
   -2.4599   -4.9915    0.5937 C   0  0  0  0  0  0  0  0  0  0  0  0
   -1.9613   -4.3576   -0.6280 C   0  0  0  0  0  0  0  0  0  0  0  0
   -1.0652   -3.2025   -0.6250 C   0  0  2  0  0  0  0  0  0  0  0  0
    0.2294   -3.4703   -0.0501 N   0  0  0  0  0  0  0  0  0  0  0  0
    1.2970   -2.6343   -0.5619 C   0  0  0  0  0  0  0  0  0  0  0  0
    0.9743   -1.8032   -1.4031 O   0  0  0  0  0  0  0  0  0  0  0  0
    2.7133   -2.7343   -0.1227 C   0  0  1  0  0  0  0  0  0  0  0  0
    3.2391   -4.0530   -0.6202 C   0  0  0  0  0  0  0  0  0  0  0  0
    4.6466   -4.2904   -0.2525 C   0  0  0  0  0  0  0  0  0  0  0  0
    5.6359   -3.8617   -1.1145 C   0  0  0  0  0  0  0  0  0  0  0  0
    6.9794   -4.0428   -0.8540 C   0  0  0  0  0  0  0  0  0  0  0  0
    7.3680   -4.6749    0.3087 C   0  0  0  0  0  0  0  0  0  0  0  0
    6.3880   -5.1043    1.1718 C   0  0  0  0  0  0  0  0  0  0  0  0
    5.0441   -4.9211    0.9073 C   0  0  0  0  0  0  0  0  0  0  0  0
    3.4425   -1.6091   -0.7608 N   0  0  0  0  0  0  0  0  0  0  0  0
    4.0145   -0.5702    0.0383 C   0  0  0  0  0  0  0  0  0  0  0  0
    3.9126   -0.7321    1.2593 O   0  0  0  0  0  0  0  0  0  0  0  0
    4.6879    0.6290   -0.5898 C   0  0  1  0  0  0  0  0  0  0  0  0
    5.1265    1.5466    0.4439 N   0  0  0  0  0  0  0  0  0  0  0  0
    4.2306    2.6213    0.8455 C   0  0  0  0  0  0  0  0  0  0  0  0
    3.1460    2.5916    0.2445 O   0  0  0  0  0  0  0  0  0  0  0  0
    4.6118    3.6211    1.8728 C   0  0  0  0  0  0  0  0  0  0  0  0
    3.4932    4.5106    2.2684 C   0  0  0  0  0  0  0  0  0  0  0  0
    2.9964    5.3470    1.1235 C   0  0  0  0  0  0  0  0  0  0  0  0
    1.7727    6.1182    1.5592 C   0  0  0  0  0  0  0  0  0  0  0  0
    1.3624    6.1135    2.7222 O   0  0  0  0  0  0  0  0  0  0  0  0
    1.0075    6.8997    0.6376 N   0  0  0  0  0  0  0  0  0  0  0  0
   -0.2047    7.6219    1.0712 C   0  0  0  0  0  0  0  0  0  0  0  0
   -1.2069    6.5793    1.5971 C   0  0  0  0  0  0  0  0  0  0  0  0
   -1.5207    5.6022    0.4781 C   0  0  0  0  0  0  0  0  0  0  0  0
   -2.3676    4.4567    0.9564 C   0  0  0  0  0  0  0  0  0  0  0  0
   -2.6663    3.5264   -0.1644 C   0  0  1  0  0  0  0  0  0  0  0  0
   -3.3063    2.2875    0.3358 N   0  0  0  0  0  0  0  0  0  0  0  0
   -2.8752    1.0077   -0.1542 C   0  0  0  0  0  0  0  0  0  0  0  0
   -1.9991    1.0535   -1.0207 O   0  0  0  0  0  0  0  0  0  0  0  0
   -3.4706   -0.2775    0.3727 C   0  0  2  0  0  0  0  0  0  0  0  0
   -2.8903   -1.4091   -0.3471 N   0  0  0  0  0  0  0  0  0  0  0  0
   -1.6857   -2.0233    0.1206 C   0  0  0  0  0  0  0  0  0  0  0  0
   -1.1967   -1.5400    1.1393 O   0  0  0  0  0  0  0  0  0  0  0  0
   -4.9389   -0.2351    0.4145 C   0  0  0  0  0  0  0  0  0  0  0  0
   -5.6179   -0.0219   -0.8647 C   0  0  0  0  0  0  0  0  0  0  0  0
   -5.1314    0.0899   -2.1481 C   0  0  0  0  0  0  0  0  0  0  0  0
   -6.1262    0.2800   -3.0308 N   0  0  0  0  0  0  0  0  0  0  0  0
   -7.2690    0.2966   -2.3567 C   0  0  0  0  0  0  0  0  0  0  0  0
   -6.9984    0.1115   -0.9985 C   0  0  0  0  0  0  0  0  0  0  0  0
   -8.0251    0.0873   -0.0588 C   0  0  0  0  0  0  0  0  0  0  0  0
   -9.3445    0.2516   -0.4881 C   0  0  0  0  0  0  0  0  0  0  0  0
   -9.6307    0.4374   -1.8422 C   0  0  0  0  0  0  0  0  0  0  0  0
   -8.5867    0.4534   -2.7251 C   0  0  0  0  0  0  0  0  0  0  0  0
   -3.7364    4.1327   -1.0397 C   0  0  0  0  0  0  0  0  0  0  0  0
   -3.5720    5.1942   -1.6774 O   0  0  0  0  0  0  0  0  0  0  0  0
   -5.0201    3.5095   -1.1873 N   0  0  0  0  0  0  0  0  0  0  0  0
    5.8183    0.3012   -1.4859 C   0  0  0  0  0  0  0  0  0  0  0  0
    6.4033    1.5487   -2.0436 C   0  0  0  0  0  0  0  0  0  0  0  0
    6.0260    2.1504   -3.1726 N   0  0  0  0  0  0  0  0  0  0  0  0
    6.7520    3.2412   -3.3863 C   0  0  0  0  0  0  0  0  0  0  0  0
    7.6370    3.3665   -2.3700 N   0  0  0  0  0  0  0  0  0  0  0  0
    7.4315    2.3320   -1.5390 C   0  0  0  0  0  0  0  0  0  0  0  0
   -1.6372   -8.3357    1.7674 N   0  0  0  0  0  0  0  0  0  0  0  0
   -2.7420   -9.0234    4.1452 H   0  0  0  0  0  0  0  0  0  0  0  0
   -3.6925   -7.5199    4.3274 H   0  0  0  0  0  0  0  0  0  0  0  0
   -0.9562   -4.6262    2.0896 H   0  0  0  0  0  0  0  0  0  0  0  0
   -0.7352   -6.1519    1.0558 H   0  0  0  0  0  0  0  0  0  0  0  0
   -3.1920   -4.3532    1.1654 H   0  0  0  0  0  0  0  0  0  0  0  0
   -3.0490   -5.9146    0.2585 H   0  0  0  0  0  0  0  0  0  0  0  0
   -1.4342   -5.1525   -1.2732 H   0  0  0  0  0  0  0  0  0  0  0  0
   -2.8416   -4.0623   -1.3187 H   0  0  0  0  0  0  0  0  0  0  0  0
   -0.9807   -2.7783   -1.6583 H   0  0  0  0  0  0  0  0  0  0  0  0
    0.5359   -4.1395    0.6253 H   0  0  0  0  0  0  0  0  0  0  0  0
    2.8267   -2.6348    0.9589 H   0  0  0  0  0  0  0  0  0  0  0  0
    2.5550   -4.8305   -0.2266 H   0  0  0  0  0  0  0  0  0  0  0  0
    3.1256   -4.1282   -1.7388 H   0  0  0  0  0  0  0  0  0  0  0  0
    5.3585   -3.3589   -2.0412 H   0  0  0  0  0  0  0  0  0  0  0  0
    7.6952   -3.6695   -1.5948 H   0  0  0  0  0  0  0  0  0  0  0  0
    8.4243   -4.8111    0.5003 H   0  0  0  0  0  0  0  0  0  0  0  0
    6.7148   -5.6070    2.0951 H   0  0  0  0  0  0  0  0  0  0  0  0
    4.2686   -5.2666    1.5997 H   0  0  0  0  0  0  0  0  0  0  0  0
    3.5738   -1.5164   -1.7614 H   0  0  0  0  0  0  0  0  0  0  0  0
    3.8789    1.1384   -1.2229 H   0  0  0  0  0  0  0  0  0  0  0  0
    6.0065    1.5373    0.9419 H   0  0  0  0  0  0  0  0  0  0  0  0
    5.1032    3.1058    2.7140 H   0  0  0  0  0  0  0  0  0  0  0  0
    5.4215    4.2359    1.3895 H   0  0  0  0  0  0  0  0  0  0  0  0
    3.9028    5.2302    3.0265 H   0  0  0  0  0  0  0  0  0  0  0  0
    2.6698    3.9472    2.7643 H   0  0  0  0  0  0  0  0  0  0  0  0
    2.7263    4.7769    0.2313 H   0  0  0  0  0  0  0  0  0  0  0  0
    3.7979    6.0548    0.8128 H   0  0  0  0  0  0  0  0  0  0  0  0
    1.3646    6.9138   -0.3158 H   0  0  0  0  0  0  0  0  0  0  0  0
    0.0014    8.3457    1.8755 H   0  0  0  0  0  0  0  0  0  0  0  0
   -0.6818    8.1367    0.2435 H   0  0  0  0  0  0  0  0  0  0  0  0
   -0.8986    6.1132    2.5296 H   0  0  0  0  0  0  0  0  0  0  0  0
   -2.1692    7.1003    1.8196 H   0  0  0  0  0  0  0  0  0  0  0  0
   -0.5089    5.2195    0.1552 H   0  0  0  0  0  0  0  0  0  0  0  0
   -1.9472    6.0947   -0.3855 H   0  0  0  0  0  0  0  0  0  0  0  0
   -3.3526    4.8667    1.3309 H   0  0  0  0  0  0  0  0  0  0  0  0
   -1.9218    3.9613    1.8437 H   0  0  0  0  0  0  0  0  0  0  0  0
   -1.8147    3.2951   -0.8221 H   0  0  0  0  0  0  0  0  0  0  0  0
   -4.0508    2.2645    1.0184 H   0  0  0  0  0  0  0  0  0  0  0  0
   -3.0741   -0.2744    1.4382 H   0  0  0  0  0  0  0  0  0  0  0  0
   -3.2825   -1.8256   -1.1920 H   0  0  0  0  0  0  0  0  0  0  0  0
   -5.2407    0.4884    1.2071 H   0  0  0  0  0  0  0  0  0  0  0  0
   -5.2911   -1.2349    0.8038 H   0  0  0  0  0  0  0  0  0  0  0  0
   -4.0960    0.0356   -2.4427 H   0  0  0  0  0  0  0  0  0  0  0  0
   -5.9880    0.3927   -4.0763 H   0  0  0  0  0  0  0  0  0  0  0  0
   -7.8259   -0.0569    1.0068 H   0  0  0  0  0  0  0  0  0  0  0  0
  -10.1300    0.2295    0.2616 H   0  0  0  0  0  0  0  0  0  0  0  0
  -10.6602    0.5664   -2.1839 H   0  0  0  0  0  0  0  0  0  0  0  0
   -8.7952    0.5956   -3.7715 H   0  0  0  0  0  0  0  0  0  0  0  0
   -5.3578    3.3179   -2.1634 H   0  0  0  0  0  0  0  0  0  0  0  0
   -5.5528    3.2781   -0.3278 H   0  0  0  0  0  0  0  0  0  0  0  0
    5.5295   -0.4054   -2.2968 H   0  0  0  0  0  0  0  0  0  0  0  0
    6.6014   -0.2542   -0.9079 H   0  0  0  0  0  0  0  0  0  0  0  0
    5.2682    1.8147   -3.8029 H   0  0  0  0  0  0  0  0  0  0  0  0
    6.7294    3.9749   -4.1960 H   0  0  0  0  0  0  0  0  0  0  0  0
    7.9794    2.1498   -0.6345 H   0  0  0  0  0  0  0  0  0  0  0  0
   -0.7460   -8.1727    1.2689 H   0  0  0  0  0  0  0  0  0  0  0  0
   -2.1384   -9.2411    1.5382 H   0  0  0  0  0  0  0  0  0  0  0  0
  1  2  1  0
  2  3  2  3
  3  4  1  0
  4  5  1  0
  5  6  1  0
  6  7  1  0
  7  8  1  0
  8  9  1  0
  9 10  2  0
  9 11  1  0
 11 12  1  0
 12 13  1  0
 13 14  2  0
 14 15  1  0
 15 16  2  0
 16 17  1  0
 17 18  2  0
 11 19  1  0
 19 20  1  0
 20 21  2  0
 20 22  1  0
 22 23  1  0
 23 24  1  0
 24 25  2  0
 24 26  1  0
 26 27  1  0
 27 28  1  0
 28 29  1  0
 29 30  2  0
 29 31  1  0
 31 32  1  0
 32 33  1  0
 33 34  1  0
 34 35  1  0
 35 36  1  0
 36 37  1  0
 37 38  1  0
 38 39  2  0
 38 40  1  0
 40 41  1  0
 41 42  1  0
 42 43  2  0
 40 44  1  0
 44 45  1  0
 45 46  2  0
 46 47  1  0
 47 48  1  0
 48 49  2  0
 49 50  1  0
 50 51  2  0
 51 52  1  0
 52 53  2  0
 36 54  1  0
 54 55  2  0
 54 56  1  0
 22 57  1  0
 57 58  1  0
 58 59  1  0
 59 60  1  0
 60 61  2  0
 61 62  1  0
  2 63  1  0
 42  7  1  0
 49 45  1  0
 62 58  2  0
 18 13  1  0
 53 48  1  0
  1 64  1  0
  1 65  1  0
  4 66  1  0
  4 67  1  0
  5 68  1  0
  5 69  1  0
  6 70  1  0
  6 71  1  0
  7 72  1  6
  8 73  1  0
 11 74  1  1
 12 75  1  0
 12 76  1  0
 14 77  1  0
 15 78  1  0
 16 79  1  0
 17 80  1  0
 18 81  1  0
 19 82  1  0
 22 83  1  6
 23 84  1  0
 26 85  1  0
 26 86  1  0
 27 87  1  0
 27 88  1  0
 28 89  1  0
 28 90  1  0
 31 91  1  0
 32 92  1  0
 32 93  1  0
 33 94  1  0
 33 95  1  0
 34 96  1  0
 34 97  1  0
 35 98  1  0
 35 99  1  0
 36100  1  6
 37101  1  0
 40102  1  1
 41103  1  0
 44104  1  0
 44105  1  0
 46106  1  0
 47107  1  0
 50108  1  0
 51109  1  0
 52110  1  0
 53111  1  0
 56112  1  0
 56113  1  0
 57114  1  0
 57115  1  0
 59116  1  0
 60117  1  0
 62118  1  0
 63119  1  0
 63120  1  0
M  END
>  <Ligand ID>  (1) 
LIG0003113

>  <Ligand>  (1) 
CHEMBL313690

>  <SMILES>  (1) 
NC(=NCCC[C@@H]1NC(=O)[C@@H](Cc2ccccc2)NC(=O)[C@@H](NC(=O)CCCC(=O)NCCCC[C@@H](NC(=O)[C@H](NC1=O)Cc1c[nH]c2c1cccc2)C(=O)N)Cc1[nH]cnc1)N

>  <CID>  (1) 
44322869.0

>  <ChEMBL ID>  (1) 
nan

>  <InChiKey>  (1) 
WHXFKYMOYNWTDU-LJVKMUTESA-N

>  <InChi>  (1) 
InChI=1S/C43H57N13O7/c44-38(59)31-14-6-7-18-48-36(57)16-8-17-37(58)52-35(22-28-24-47-25-51-28)42(63)55-33(20-26-10-2-1-3-11-26)40(61)54-32(15-9-19-49-43(45)46)39(60)56-34(41(62)53-31)21-27-23-50-30-13-5-4-12-29(27)30/h1-5,10-13,23-25,31-35,50H,6-9,14-22H2,(H2,44,59)(H,47,51)(H,48,57)(H,52,58)(H,53,62)(H,54,61)(H,55,63)(H,56,60)(H4,45,46,49)/t31-,32+,33-,34-,35+/m1/s1

>  <IUPAC Name>  (1) 
(2S,5R,8S,11R,14R)-5-benzyl-8-[3-(diaminomethylideneamino)propyl]-2-(1H-imidazol-5-ylmethyl)-11-(1H-indol-3-ylmethyl)-3,6,9,12,20,24-hexaoxo-1,4,7,10,13,19-hexazacyclotetracosane-14-carboxamide

$$$$
