
     RDKit          3D

 37 39  0  0  0  0  0  0  0  0999 V2000
    5.3588    1.8541   -0.7760 C   0  0  0  0  0  0  0  0  0  0  0  0
    4.3265    2.1164    0.1409 O   0  0  0  0  0  0  0  0  0  0  0  0
    3.2242    1.2827    0.3090 C   0  0  0  0  0  0  0  0  0  0  0  0
    2.2140    1.5473    1.2121 C   0  0  0  0  0  0  0  0  0  0  0  0
    1.1512    0.6611    1.3142 C   0  0  0  0  0  0  0  0  0  0  0  0
    1.0926   -0.4724    0.5301 C   0  0  0  0  0  0  0  0  0  0  0  0
    2.0981   -0.7533   -0.3814 C   0  0  0  0  0  0  0  0  0  0  0  0
    3.1573    0.1336   -0.4805 C   0  0  0  0  0  0  0  0  0  0  0  0
    2.0534   -1.8801   -1.1703 O   0  0  0  0  0  0  0  0  0  0  0  0
   -0.0131   -1.4190    0.6184 C   0  0  0  0  0  0  0  0  0  0  0  0
    0.1222   -2.7086    0.9997 N   0  0  0  0  0  0  0  0  0  0  0  0
   -1.0728   -3.3033    0.9756 N   0  0  0  0  0  0  0  0  0  0  0  0
   -2.0147   -2.4266    0.5812 C   0  0  0  0  0  0  0  0  0  0  0  0
   -1.3543   -1.2311    0.3527 C   0  0  0  0  0  0  0  0  0  0  0  0
   -1.9596   -0.0054   -0.0856 C   0  0  0  0  0  0  0  0  0  0  0  0
   -1.6787    0.6351   -1.2744 C   0  0  0  0  0  0  0  0  0  0  0  0
   -2.3080    1.8298   -1.6380 C   0  0  0  0  0  0  0  0  0  0  0  0
   -3.2404    2.4192   -0.8178 C   0  0  0  0  0  0  0  0  0  0  0  0
   -3.5231    1.7802    0.3723 C   0  0  0  0  0  0  0  0  0  0  0  0
   -2.9032    0.5917    0.7439 C   0  0  0  0  0  0  0  0  0  0  0  0
   -4.0490    3.9010   -1.2242 Cl  0  0  0  0  0  0  0  0  0  0  0  0
   -3.4819   -2.6543    0.4114 C   0  0  0  0  0  0  0  0  0  0  0  0
    4.9513    1.7592   -1.8076 H   0  0  0  0  0  0  0  0  0  0  0  0
    6.0978    2.6764   -0.6833 H   0  0  0  0  0  0  0  0  0  0  0  0
    5.9100    0.9280   -0.5097 H   0  0  0  0  0  0  0  0  0  0  0  0
    2.2896    2.4445    1.8121 H   0  0  0  0  0  0  0  0  0  0  0  0
    0.3560    0.8588    2.0174 H   0  0  0  0  0  0  0  0  0  0  0  0
    3.9509   -0.0586   -1.1784 H   0  0  0  0  0  0  0  0  0  0  0  0
    2.3547   -2.8068   -0.8829 H   0  0  0  0  0  0  0  0  0  0  0  0
   -1.2314   -4.2865    1.2247 H   0  0  0  0  0  0  0  0  0  0  0  0
   -0.9427    0.1869   -1.9413 H   0  0  0  0  0  0  0  0  0  0  0  0
   -2.0661    2.2968   -2.5647 H   0  0  0  0  0  0  0  0  0  0  0  0
   -4.2572    2.1885    1.0823 H   0  0  0  0  0  0  0  0  0  0  0  0
   -3.1617    0.1287    1.6926 H   0  0  0  0  0  0  0  0  0  0  0  0
   -3.8211   -2.1841   -0.5374 H   0  0  0  0  0  0  0  0  0  0  0  0
   -4.0212   -2.2750    1.3021 H   0  0  0  0  0  0  0  0  0  0  0  0
   -3.6082   -3.7548    0.2608 H   0  0  0  0  0  0  0  0  0  0  0  0
  1  2  1  0
  2  3  1  0
  3  4  2  0
  4  5  1  0
  5  6  2  0
  6  7  1  0
  7  8  2  0
  7  9  1  0
  6 10  1  0
 10 11  2  0
 11 12  1  0
 12 13  1  0
 13 14  2  0
 14 15  1  0
 15 16  2  0
 16 17  1  0
 17 18  2  0
 18 19  1  0
 19 20  2  0
 18 21  1  0
 13 22  1  0
  8  3  1  0
 14 10  1  0
 20 15  1  0
  1 23  1  0
  1 24  1  0
  1 25  1  0
  4 26  1  0
  5 27  1  0
  8 28  1  0
  9 29  1  0
 12 30  1  0
 16 31  1  0
 17 32  1  0
 19 33  1  0
 20 34  1  0
 22 35  1  0
 22 36  1  0
 22 37  1  0
M  END
>  <Ligand ID>  (1) 
LIG0003594

>  <Ligand>  (1) 
MLS000551738

>  <SMILES>  (1) 
COc1ccc(c(c1)O)c1n[nH]c(c1c1ccc(cc1)Cl)C

>  <CID>  (1) 
944814.0

>  <ChEMBL ID>  (1) 
nan

>  <InChiKey>  (1) 
GOFMZYXSJNCELR-UHFFFAOYSA-N

>  <InChi>  (1) 
InChI=1S/C17H15ClN2O2/c1-10-16(11-3-5-12(18)6-4-11)17(20-19-10)14-8-7-13(22-2)9-15(14)21/h3-9,21H,1-2H3,(H,19,20)

>  <IUPAC Name>  (1) 
2-[4-(4-chlorophenyl)-5-methyl-1H-pyrazol-3-yl]-5-methoxyphenol

$$$$
