
     RDKit          3D

 42 42  0  0  0  0  0  0  0  0999 V2000
    1.4362    0.7037   -0.3392 O   0  0  0  0  0  0  0  0  0  0  0  0
    0.4740   -0.0802    0.2850 C   0  0  0  0  0  0  0  0  0  0  0  0
    0.8932   -0.8532    1.2082 O   0  0  0  0  0  0  0  0  0  0  0  0
   -0.9570   -0.0197   -0.1016 C   0  0  0  0  0  0  0  0  0  0  0  0
   -1.1442   -0.3623   -1.4373 F   0  0  0  0  0  0  0  0  0  0  0  0
   -1.6532   -0.9236    0.6856 F   0  0  0  0  0  0  0  0  0  0  0  0
   -1.4123    1.2638    0.1460 F   0  0  0  0  0  0  0  0  0  0  0  0
    1.7665   -2.3329   -2.4538 N   0  0  0  0  0  0  0  0  0  0  0  0
    2.5876   -1.6347   -1.4815 C   0  0  0  0  0  0  0  0  0  0  0  0
    1.6981   -0.9081   -0.4583 C   0  0  1  0  0  0  0  0  0  0  0  0
    2.5486   -0.1568    0.5880 C   0  0  0  0  0  0  0  0  0  0  0  0
    1.7494    0.5463   -0.5131 C   0  0  2  0  0  0  0  0  0  0  0  0
    0.7048    1.4621   -0.0186 C   0  0  0  0  0  0  0  0  0  0  0  0
    1.1321    2.7617    0.2893 C   0  0  0  0  0  0  0  0  0  0  0  0
    0.2706    3.7226    0.7657 C   0  0  0  0  0  0  0  0  0  0  0  0
    0.7398    5.3437    1.1632 Cl  0  0  0  0  0  0  0  0  0  0  0  0
   -1.0464    3.3568    0.9319 C   0  0  0  0  0  0  0  0  0  0  0  0
   -1.4676    2.0691    0.6263 C   0  0  0  0  0  0  0  0  0  0  0  0
   -0.6279    1.0934    0.1499 C   0  0  0  0  0  0  0  0  0  0  0  0
   -0.9714   -0.1814   -0.1690 O   0  0  0  0  0  0  0  0  0  0  0  0
   -2.2596   -0.7005   -0.0568 C   0  0  0  0  0  0  0  0  0  0  0  0
   -2.8104   -1.1922   -1.3834 C   0  0  0  0  0  0  0  0  0  0  0  0
   -2.3000   -1.9227    0.8582 C   0  0  0  0  0  0  0  0  0  0  0  0
    2.3632    0.2714   -0.4466 H   0  0  0  0  0  0  0  0  0  0  0  0
    1.3612   -3.1685   -1.9980 H   0  0  0  0  0  0  0  0  0  0  0  0
    2.4147   -2.6583   -3.2056 H   0  0  0  0  0  0  0  0  0  0  0  0
    3.2755   -0.9256   -1.9815 H   0  0  0  0  0  0  0  0  0  0  0  0
    3.1953   -2.3479   -0.8821 H   0  0  0  0  0  0  0  0  0  0  0  0
    0.8945   -1.5105   -0.0374 H   0  0  0  0  0  0  0  0  0  0  0  0
    2.1507   -0.0993    1.6107 H   0  0  0  0  0  0  0  0  0  0  0  0
    3.6339   -0.1945    0.5247 H   0  0  0  0  0  0  0  0  0  0  0  0
    2.4127    1.0254   -1.2778 H   0  0  0  0  0  0  0  0  0  0  0  0
    2.1636    3.0553    0.1613 H   0  0  0  0  0  0  0  0  0  0  0  0
   -1.7546    4.0888    1.3058 H   0  0  0  0  0  0  0  0  0  0  0  0
   -2.5130    1.8703    0.7862 H   0  0  0  0  0  0  0  0  0  0  0  0
   -3.0060    0.0180    0.3208 H   0  0  0  0  0  0  0  0  0  0  0  0
   -2.2581   -0.7664   -2.2431 H   0  0  0  0  0  0  0  0  0  0  0  0
   -3.8782   -0.9147   -1.5378 H   0  0  0  0  0  0  0  0  0  0  0  0
   -2.7601   -2.2959   -1.4882 H   0  0  0  0  0  0  0  0  0  0  0  0
   -1.4315   -2.5713    0.7620 H   0  0  0  0  0  0  0  0  0  0  0  0
   -3.2827   -2.4092    0.6894 H   0  0  0  0  0  0  0  0  0  0  0  0
   -2.3323   -1.5222    1.8880 H   0  0  0  0  0  0  0  0  0  0  0  0
  1  2  1  0
  2  3  2  0
  2  4  1  0
  4  5  1  0
  4  6  1  0
  4  7  1  0
  8  9  1  0
  9 10  1  0
 10 11  1  0
 11 12  1  0
 12 13  1  0
 13 14  2  0
 14 15  1  0
 15 16  1  0
 15 17  2  0
 17 18  1  0
 18 19  2  0
 19 20  1  0
 20 21  1  0
 21 22  1  0
 21 23  1  0
 12 10  1  0
 19 13  1  0
  1 24  1  0
  8 25  1  0
  8 26  1  0
  9 27  1  0
  9 28  1  0
 10 29  1  1
 11 30  1  0
 11 31  1  0
 12 32  1  6
 14 33  1  0
 17 34  1  0
 18 35  1  0
 21 36  1  0
 22 37  1  0
 22 38  1  0
 22 39  1  0
 23 40  1  0
 23 41  1  0
 23 42  1  0
M  END
>  <Ligand ID>  (1) 
LIG0003492

>  <Ligand>  (1) 
CID 118733773

>  <SMILES>  (1) 
OC(=O)C(F)(F)F.NC[C@H]1C[C@@H]1c1cc(Cl)ccc1OC(C)C

>  <CID>  (1) 
118733773.0

>  <ChEMBL ID>  (1) 
nan

>  <InChiKey>  (1) 
AJBKKZIFZNPAEH-XQKZEKTMSA-N

>  <InChi>  (1) 
InChI=1S/C13H18ClNO.C2HF3O2/c1-8(2)16-13-4-3-10(14)6-12(13)11-5-9(11)7-15;3-2(4,5)1(6)7/h3-4,6,8-9,11H,5,7,15H2,1-2H3;(H,6,7)/t9-,11+;/m1./s1

>  <IUPAC Name>  (1) 
[(1S,2S)-2-(5-chloro-2-propan-2-yloxyphenyl)cyclopropyl]methanamine;2,2,2-trifluoroacetic acid

$$$$
