
     RDKit          3D

 96 99  0  0  0  0  0  0  0  0999 V2000
   -3.7018    5.4772    3.6037 N   0  0  0  0  0  0  0  0  0  0  0  0
   -2.6885    4.7269    2.9274 C   0  0  0  0  0  0  0  0  0  0  0  0
   -1.8545    4.0091    3.6366 N   0  0  0  0  0  0  0  0  0  0  0  0
   -0.8709    3.2871    2.8754 C   0  0  0  0  0  0  0  0  0  0  0  0
   -1.4513    1.9589    2.3194 C   0  0  0  0  0  0  0  0  0  0  0  0
   -0.3239    1.3517    1.5447 C   0  0  0  0  0  0  0  0  0  0  0  0
   -0.5903    0.0567    0.8957 C   0  0  1  0  0  0  0  0  0  0  0  0
   -1.7294    0.0744   -0.1010 C   0  0  0  0  0  0  0  0  0  0  0  0
   -1.5122    0.0213   -1.3453 O   0  0  0  0  0  0  0  0  0  0  0  0
   -3.0608    0.1426    0.4315 N   0  0  0  0  0  0  0  0  0  0  0  0
   -4.2437    0.1437   -0.4585 C   0  0  2  0  0  0  0  0  0  0  0  0
   -5.0805    1.2868   -0.0930 C   0  0  0  0  0  0  0  0  0  0  0  0
   -4.8865    1.9737    0.9488 O   0  0  0  0  0  0  0  0  0  0  0  0
   -6.1937    1.7305   -0.8962 N   0  0  0  0  0  0  0  0  0  0  0  0
   -4.9028   -1.2050   -0.2678 C   0  0  0  0  0  0  0  0  0  0  0  0
   -6.1287   -1.4832   -0.9983 C   0  0  0  0  0  0  0  0  0  0  0  0
   -6.2251   -2.1457   -2.2091 C   0  0  0  0  0  0  0  0  0  0  0  0
   -7.5029   -2.2230   -2.6109 N   0  0  0  0  0  0  0  0  0  0  0  0
   -8.2951   -1.6123   -1.6765 C   0  0  0  0  0  0  0  0  0  0  0  0
   -7.4500   -1.1576   -0.6849 C   0  0  0  0  0  0  0  0  0  0  0  0
   -8.0325   -0.5067    0.3976 C   0  0  0  0  0  0  0  0  0  0  0  0
   -9.4191   -0.3311    0.4550 C   0  0  0  0  0  0  0  0  0  0  0  0
  -10.2358   -0.7859   -0.5327 C   0  0  0  0  0  0  0  0  0  0  0  0
   -9.6724   -1.4444   -1.6317 C   0  0  0  0  0  0  0  0  0  0  0  0
    0.5803   -0.3588    0.1093 N   0  0  0  0  0  0  0  0  0  0  0  0
    0.6296   -1.7413   -0.2471 C   0  0  0  0  0  0  0  0  0  0  0  0
   -0.3404   -2.4414    0.1212 O   0  0  0  0  0  0  0  0  0  0  0  0
    1.7960   -2.2444   -1.0126 C   0  0  1  0  0  0  0  0  0  0  0  0
    2.9148   -1.3292   -1.0500 N   0  0  0  0  0  0  0  0  0  0  0  0
    3.3681   -0.6060   -2.1737 C   0  0  0  0  0  0  0  0  0  0  0  0
    2.8427   -0.6512   -3.3167 O   0  0  0  0  0  0  0  0  0  0  0  0
    4.5648    0.2689   -1.9673 C   0  0  2  0  0  0  0  0  0  0  0  0
    5.6645   -0.0618   -2.9771 C   0  0  0  0  0  0  0  0  0  0  0  0
    6.8161    0.8397   -2.6810 C   0  0  0  0  0  0  0  0  0  0  0  0
    7.7399    0.3382   -1.7550 C   0  0  0  0  0  0  0  0  0  0  0  0
    8.8652    1.0787   -1.3962 C   0  0  0  0  0  0  0  0  0  0  0  0
    9.0508    2.3219   -1.9754 C   0  0  0  0  0  0  0  0  0  0  0  0
    8.1338    2.7791   -2.8713 C   0  0  0  0  0  0  0  0  0  0  0  0
    7.0023    2.0730   -3.2539 C   0  0  0  0  0  0  0  0  0  0  0  0
   10.4867    3.2140   -1.4969 Cl  0  0  0  0  0  0  0  0  0  0  0  0
    5.1007    0.1987   -0.6360 N   0  0  0  0  0  0  0  0  0  0  0  0
    5.2700    1.2951    0.2378 C   0  0  0  0  0  0  0  0  0  0  0  0
    4.9463    2.4750   -0.1021 O   0  0  0  0  0  0  0  0  0  0  0  0
    5.8425    1.1211    1.6150 C   0  0  0  0  0  0  0  0  0  0  0  0
    2.1938   -3.6450   -0.7232 C   0  0  0  0  0  0  0  0  0  0  0  0
    2.5924   -3.9770    0.6412 C   0  0  0  0  0  0  0  0  0  0  0  0
    1.6804   -4.4613    1.5798 C   0  0  0  0  0  0  0  0  0  0  0  0
    2.0866   -4.7688    2.8628 C   0  0  0  0  0  0  0  0  0  0  0  0
    3.3976   -4.6175    3.2847 C   0  0  0  0  0  0  0  0  0  0  0  0
    4.3146   -4.1362    2.3587 C   0  0  0  0  0  0  0  0  0  0  0  0
    3.9049   -3.8240    1.0593 C   0  0  0  0  0  0  0  0  0  0  0  0
   -2.6251    4.7880    1.5065 N   0  0  0  0  0  0  0  0  0  0  0  0
   -4.3087    6.1264    3.0539 H   0  0  0  0  0  0  0  0  0  0  0  0
   -3.8511    5.3988    4.6241 H   0  0  0  0  0  0  0  0  0  0  0  0
   -0.5729    3.8587    1.9529 H   0  0  0  0  0  0  0  0  0  0  0  0
    0.0535    3.0625    3.4259 H   0  0  0  0  0  0  0  0  0  0  0  0
   -1.7727    1.3696    3.1957 H   0  0  0  0  0  0  0  0  0  0  0  0
   -2.3159    2.2370    1.6481 H   0  0  0  0  0  0  0  0  0  0  0  0
    0.5151    1.2222    2.2657 H   0  0  0  0  0  0  0  0  0  0  0  0
   -0.0615    2.1009    0.7562 H   0  0  0  0  0  0  0  0  0  0  0  0
   -0.7967   -0.7490    1.6102 H   0  0  0  0  0  0  0  0  0  0  0  0
   -3.2828    0.1765    1.4413 H   0  0  0  0  0  0  0  0  0  0  0  0
   -3.8728    0.1651   -1.5237 H   0  0  0  0  0  0  0  0  0  0  0  0
   -7.0833    2.0717   -0.5029 H   0  0  0  0  0  0  0  0  0  0  0  0
   -6.0228    1.6772   -1.9305 H   0  0  0  0  0  0  0  0  0  0  0  0
   -4.1379   -1.9828   -0.5780 H   0  0  0  0  0  0  0  0  0  0  0  0
   -5.0113   -1.4165    0.8406 H   0  0  0  0  0  0  0  0  0  0  0  0
   -5.3629   -2.5399   -2.7423 H   0  0  0  0  0  0  0  0  0  0  0  0
   -7.8221   -2.6800   -3.5011 H   0  0  0  0  0  0  0  0  0  0  0  0
   -7.3706   -0.1452    1.1790 H   0  0  0  0  0  0  0  0  0  0  0  0
   -9.8709    0.1787    1.3064 H   0  0  0  0  0  0  0  0  0  0  0  0
  -11.3011   -0.6270   -0.4456 H   0  0  0  0  0  0  0  0  0  0  0  0
  -10.3031   -1.8134   -2.4265 H   0  0  0  0  0  0  0  0  0  0  0  0
    1.3269    0.3298   -0.1670 H   0  0  0  0  0  0  0  0  0  0  0  0
    1.4563   -2.2698   -2.1113 H   0  0  0  0  0  0  0  0  0  0  0  0
    3.4215   -1.2195   -0.1112 H   0  0  0  0  0  0  0  0  0  0  0  0
    4.2747    1.3301   -2.1803 H   0  0  0  0  0  0  0  0  0  0  0  0
    5.3193    0.1184   -4.0127 H   0  0  0  0  0  0  0  0  0  0  0  0
    5.9933   -1.1238   -2.8899 H   0  0  0  0  0  0  0  0  0  0  0  0
    7.5969   -0.6227   -1.3014 H   0  0  0  0  0  0  0  0  0  0  0  0
    9.5927    0.6891   -0.6694 H   0  0  0  0  0  0  0  0  0  0  0  0
    8.3307    3.7752   -3.3034 H   0  0  0  0  0  0  0  0  0  0  0  0
    6.2850    2.4370   -3.9597 H   0  0  0  0  0  0  0  0  0  0  0  0
    5.3925   -0.7686   -0.2987 H   0  0  0  0  0  0  0  0  0  0  0  0
    5.8254    0.0238    1.8792 H   0  0  0  0  0  0  0  0  0  0  0  0
    6.9047    1.4104    1.5281 H   0  0  0  0  0  0  0  0  0  0  0  0
    5.3045    1.7099    2.3716 H   0  0  0  0  0  0  0  0  0  0  0  0
    1.2909   -4.2963   -0.9493 H   0  0  0  0  0  0  0  0  0  0  0  0
    2.9363   -4.0016   -1.4974 H   0  0  0  0  0  0  0  0  0  0  0  0
    0.6394   -4.6270    1.3557 H   0  0  0  0  0  0  0  0  0  0  0  0
    1.3596   -5.1446    3.5745 H   0  0  0  0  0  0  0  0  0  0  0  0
    3.7128   -4.8613    4.2935 H   0  0  0  0  0  0  0  0  0  0  0  0
    5.3325   -4.0200    2.6912 H   0  0  0  0  0  0  0  0  0  0  0  0
    4.6927   -3.4524    0.4035 H   0  0  0  0  0  0  0  0  0  0  0  0
   -1.7889    5.2390    1.0556 H   0  0  0  0  0  0  0  0  0  0  0  0
   -3.4143    4.3797    0.9348 H   0  0  0  0  0  0  0  0  0  0  0  0
  1  2  1  0
  2  3  2  3
  3  4  1  0
  4  5  1  0
  5  6  1  0
  6  7  1  0
  7  8  1  0
  8  9  2  0
  8 10  1  0
 10 11  1  0
 11 12  1  0
 12 13  2  0
 12 14  1  0
 11 15  1  0
 15 16  1  0
 16 17  2  0
 17 18  1  0
 18 19  1  0
 19 20  2  0
 20 21  1  0
 21 22  2  0
 22 23  1  0
 23 24  2  0
  7 25  1  0
 25 26  1  0
 26 27  2  0
 26 28  1  0
 28 29  1  0
 29 30  1  0
 30 31  2  0
 30 32  1  0
 32 33  1  0
 33 34  1  0
 34 35  2  0
 35 36  1  0
 36 37  2  0
 37 38  1  0
 38 39  2  0
 37 40  1  0
 32 41  1  0
 41 42  1  0
 42 43  2  0
 42 44  1  0
 28 45  1  0
 45 46  1  0
 46 47  2  0
 47 48  1  0
 48 49  2  0
 49 50  1  0
 50 51  2  0
  2 52  1  0
 20 16  1  0
 39 34  1  0
 51 46  1  0
 24 19  1  0
  1 53  1  0
  1 54  1  0
  4 55  1  0
  4 56  1  0
  5 57  1  0
  5 58  1  0
  6 59  1  0
  6 60  1  0
  7 61  1  1
 10 62  1  0
 11 63  1  6
 14 64  1  0
 14 65  1  0
 15 66  1  0
 15 67  1  0
 17 68  1  0
 18 69  1  0
 21 70  1  0
 22 71  1  0
 23 72  1  0
 24 73  1  0
 25 74  1  0
 28 75  1  6
 29 76  1  0
 32 77  1  6
 33 78  1  0
 33 79  1  0
 35 80  1  0
 36 81  1  0
 38 82  1  0
 39 83  1  0
 41 84  1  0
 44 85  1  0
 44 86  1  0
 44 87  1  0
 45 88  1  0
 45 89  1  0
 47 90  1  0
 48 91  1  0
 49 92  1  0
 50 93  1  0
 51 94  1  0
 52 95  1  0
 52 96  1  0
M  END
>  <Ligand ID>  (1) 
LIG0003282

>  <Ligand>  (1) 
CHEMBL183315

>  <SMILES>  (1) 
NC(=NCCC[C@@H](C(=O)N[C@H](C(=O)N)Cc1c[nH]c2c1cccc2)NC(=O)[C@@H](NC(=O)[C@H](Cc1ccc(cc1)Cl)NC(=O)C)Cc1ccccc1)N

>  <CID>  (1) 
44394625.0

>  <ChEMBL ID>  (1) 
nan

>  <InChiKey>  (1) 
ZUZLOUZTYSWKTM-YDPTYEFTSA-N

>  <InChi>  (1) 
InChI=1S/C37H44ClN9O5/c1-22(48)44-31(19-24-13-15-26(38)16-14-24)35(51)47-32(18-23-8-3-2-4-9-23)36(52)45-29(12-7-17-42-37(40)41)34(50)46-30(33(39)49)20-25-21-43-28-11-6-5-10-27(25)28/h2-6,8-11,13-16,21,29-32,43H,7,12,17-20H2,1H3,(H2,39,49)(H,44,48)(H,45,52)(H,46,50)(H,47,51)(H4,40,41,42)/t29-,30-,31-,32-/m0/s1

>  <IUPAC Name>  (1) 
(2S)-2-[[(2S)-2-[[(2S)-2-acetamido-3-(4-chlorophenyl)propanoyl]amino]-3-phenylpropanoyl]amino]-N-[(2S)-1-amino-3-(1H-indol-3-yl)-1-oxopropan-2-yl]-5-(diaminomethylideneamino)pentanamide

$$$$
