
     RDKit          3D

 46 47  0  0  0  0  0  0  0  0999 V2000
   -1.7786    1.2596   -2.0710 O   0  0  0  0  0  0  0  0  0  0  0  0
   -1.5669    1.0234   -0.7175 C   0  0  2  0  0  0  0  0  0  0  0  0
   -1.3025   -0.4775   -0.5864 C   0  0  1  0  0  0  0  0  0  0  0  0
   -0.0964   -0.5954    0.3210 C   0  0  0  0  0  0  0  0  0  0  0  0
    0.9478    0.0411   -0.3877 O   0  0  0  0  0  0  0  0  0  0  0  0
    2.3968    0.0315    0.4352 P   0  0  0  0  0  0  0  0  0  0  0  0
    2.9511    1.4555    0.3653 O   0  0  0  0  0  0  0  0  0  0  0  0
    3.4903   -0.9685   -0.3569 O   0  0  0  0  0  0  0  0  0  0  0  0
    4.9590   -0.1815   -0.6492 P   0  0  0  0  0  0  0  0  0  0  0  0
    5.7242   -0.8634   -1.7583 O   0  0  0  0  0  0  0  0  0  0  0  0
    5.9553   -0.3239    0.8643 C   0  0  0  0  0  0  0  0  0  0  0  0
    7.6596    0.2486    0.5827 P   0  0  0  0  0  0  0  0  0  0  0  0
    8.3111    0.6722    1.8734 O   0  0  0  0  0  0  0  0  0  0  0  0
    7.6074    1.5267   -0.5282 O   0  0  0  0  0  0  0  0  0  0  0  0
    8.4990   -1.0201   -0.1581 O   0  0  0  0  0  0  0  0  0  0  0  0
    6.0162   -1.6744    1.1622 F   0  0  0  0  0  0  0  0  0  0  0  0
    5.3680    0.3134    1.9209 F   0  0  0  0  0  0  0  0  0  0  0  0
    4.7434    1.4411   -1.0680 O   0  0  0  0  0  0  0  0  0  0  0  0
    2.2407   -0.3266    2.0774 O   0  0  0  0  0  0  0  0  0  0  0  0
   -2.4326   -1.0540   -0.0466 O   0  0  0  0  0  0  0  0  0  0  0  0
   -3.4516   -0.2705   -0.5209 C   0  0  2  0  0  0  0  0  0  0  0  0
   -2.9469    1.1024   -0.0540 C   0  0  2  0  0  0  0  0  0  0  0  0
   -3.7123    2.1422   -0.5131 O   0  0  0  0  0  0  0  0  0  0  0  0
   -4.7430   -0.5824    0.0355 N   0  0  0  0  0  0  0  0  0  0  0  0
   -5.7874    0.1661   -0.3663 C   0  0  0  0  0  0  0  0  0  0  0  0
   -7.0600   -0.0414    0.0970 C   0  0  0  0  0  0  0  0  0  0  0  0
   -7.2729   -1.0417    0.9965 C   0  0  0  0  0  0  0  0  0  0  0  0
   -8.4463   -1.2226    1.4148 O   0  0  0  0  0  0  0  0  0  0  0  0
   -6.2216   -1.7836    1.3912 N   0  0  0  0  0  0  0  0  0  0  0  0
   -4.9684   -1.5645    0.9223 C   0  0  0  0  0  0  0  0  0  0  0  0
   -3.9982   -2.2718    1.3058 O   0  0  0  0  0  0  0  0  0  0  0  0
   -2.3755    2.0551   -2.1660 H   0  0  0  0  0  0  0  0  0  0  0  0
   -0.8176    1.6475   -0.2408 H   0  0  0  0  0  0  0  0  0  0  0  0
   -1.0662   -0.9510   -1.5483 H   0  0  0  0  0  0  0  0  0  0  0  0
   -0.2942   -0.0984    1.2757 H   0  0  0  0  0  0  0  0  0  0  0  0
    0.2415   -1.6340    0.4783 H   0  0  0  0  0  0  0  0  0  0  0  0
    7.5861    2.3915   -0.0313 H   0  0  0  0  0  0  0  0  0  0  0  0
    8.1966   -1.9021    0.1910 H   0  0  0  0  0  0  0  0  0  0  0  0
    5.1891    2.0507   -0.4124 H   0  0  0  0  0  0  0  0  0  0  0  0
    2.3633   -1.2834    2.2397 H   0  0  0  0  0  0  0  0  0  0  0  0
   -3.4283   -0.2696   -1.6117 H   0  0  0  0  0  0  0  0  0  0  0  0
   -2.7570    1.1087    1.0370 H   0  0  0  0  0  0  0  0  0  0  0  0
   -3.9404    2.6992    0.2984 H   0  0  0  0  0  0  0  0  0  0  0  0
   -5.6673    0.9841   -1.0896 H   0  0  0  0  0  0  0  0  0  0  0  0
   -7.8898    0.5856   -0.2497 H   0  0  0  0  0  0  0  0  0  0  0  0
   -6.4246   -2.5438    2.0840 H   0  0  0  0  0  0  0  0  0  0  0  0
  1  2  1  0
  2  3  1  0
  3  4  1  0
  4  5  1  0
  5  6  1  0
  6  7  2  0
  6  8  1  0
  8  9  1  0
  9 10  2  0
  9 11  1  0
 11 12  1  0
 12 13  2  0
 12 14  1  0
 12 15  1  0
 11 16  1  0
 11 17  1  0
  9 18  1  0
  6 19  1  0
  3 20  1  0
 20 21  1  0
 21 22  1  0
 22 23  1  0
 21 24  1  0
 24 25  1  0
 25 26  2  0
 26 27  1  0
 27 28  2  0
 27 29  1  0
 29 30  1  0
 30 31  2  0
 22  2  1  0
 30 24  1  0
  1 32  1  0
  2 33  1  1
  3 34  1  6
  4 35  1  0
  4 36  1  0
 14 37  1  0
 15 38  1  0
 18 39  1  0
 19 40  1  0
 21 41  1  6
 22 42  1  1
 23 43  1  0
 25 44  1  0
 26 45  1  0
 29 46  1  0
M  END
>  <Ligand ID>  (1) 
LIG0002811

>  <Ligand>  (1) 
CHEMBL1765117

>  <SMILES>  (1) 
O[C@@H]1[C@@H](COP(=O)(OP(=O)(C(P(=O)(O)O)(F)F)O)O)O[C@H]([C@@H]1O)n1ccc(=O)[nH]c1=O

>  <CID>  (1) 
11606036.0

>  <ChEMBL ID>  (1) 
nan

>  <InChiKey>  (1) 
GMYHHUUHBVBEKO-XVFCMESISA-N

>  <InChi>  (1) 
InChI=1S/C10H15F2N2O14P3/c11-10(12,29(19,20)21)30(22,23)28-31(24,25)26-3-4-6(16)7(17)8(27-4)14-2-1-5(15)13-9(14)18/h1-2,4,6-8,16-17H,3H2,(H,22,23)(H,24,25)(H,13,15,18)(H2,19,20,21)/t4-,6-,7-,8-/m1/s1

>  <IUPAC Name>  (1) 
[[[[(2R,3S,4R,5R)-5-(2,4-dioxopyrimidin-1-yl)-3,4-dihydroxyoxolan-2-yl]methoxy-hydroxyphosphoryl]oxy-hydroxyphosphoryl]-difluoromethyl]phosphonic acid

$$$$
