
     RDKit          3D

 41 43  0  0  0  0  0  0  0  0999 V2000
   -3.6906    1.6616   -0.4779 C   0  0  0  0  0  0  0  0  0  0  0  0
   -4.0390    0.2711    0.0313 C   0  0  0  0  0  0  0  0  0  0  0  0
   -3.0868   -0.0586    1.1411 C   0  0  0  0  0  0  0  0  0  0  0  0
   -1.7569   -0.0458    0.4869 N   0  0  0  0  0  0  0  0  0  0  0  0
   -1.2791    1.2896    0.1967 C   0  0  0  0  0  0  0  0  0  0  0  0
   -2.4755    2.2554    0.1371 C   0  0  0  0  0  0  0  0  0  0  0  0
   -1.1741   -1.2782    0.2023 C   0  0  0  0  0  0  0  0  0  0  0  0
   -2.0243   -2.3942    0.1243 C   0  0  0  0  0  0  0  0  0  0  0  0
   -1.5743   -3.6536   -0.1940 C   0  0  0  0  0  0  0  0  0  0  0  0
   -0.2478   -3.8981   -0.4583 C   0  0  0  0  0  0  0  0  0  0  0  0
    0.6042   -2.8171   -0.3865 C   0  0  0  0  0  0  0  0  0  0  0  0
    0.1492   -1.5304   -0.0612 C   0  0  0  0  0  0  0  0  0  0  0  0
    1.1300   -0.5181    0.0223 N   0  0  0  0  0  0  0  0  0  0  0  0
    2.5306   -0.8710   -0.2883 C   0  0  0  0  0  0  0  0  0  0  0  0
    3.4339    0.3001   -0.1627 C   0  0  0  0  0  0  0  0  0  0  0  0
    4.1456    0.7806   -1.1154 N   0  0  0  0  0  0  0  0  0  0  0  0
    4.8914    1.9116   -0.6215 C   0  0  0  0  0  0  0  0  0  0  0  0
    4.5425    2.0993    0.8212 C   0  0  0  0  0  0  0  0  0  0  0  0
    3.6044    1.0195    1.0465 N   0  0  0  0  0  0  0  0  0  0  0  0
   -3.7045    1.7038   -1.5782 H   0  0  0  0  0  0  0  0  0  0  0  0
   -4.5619    2.2970   -0.1366 H   0  0  0  0  0  0  0  0  0  0  0  0
   -3.8108   -0.4071   -0.8410 H   0  0  0  0  0  0  0  0  0  0  0  0
   -5.0907    0.1580    0.3241 H   0  0  0  0  0  0  0  0  0  0  0  0
   -3.2839   -0.9499    1.7163 H   0  0  0  0  0  0  0  0  0  0  0  0
   -3.1085    0.7969    1.8549 H   0  0  0  0  0  0  0  0  0  0  0  0
   -0.7795    1.3879   -0.7865 H   0  0  0  0  0  0  0  0  0  0  0  0
   -0.6822    1.6805    1.0483 H   0  0  0  0  0  0  0  0  0  0  0  0
   -2.6327    2.6365    1.1531 H   0  0  0  0  0  0  0  0  0  0  0  0
   -2.1543    3.1025   -0.4974 H   0  0  0  0  0  0  0  0  0  0  0  0
   -3.0886   -2.3151    0.3133 H   0  0  0  0  0  0  0  0  0  0  0  0
   -2.2586   -4.4970   -0.2462 H   0  0  0  0  0  0  0  0  0  0  0  0
    0.0658   -4.8862   -0.7022 H   0  0  0  0  0  0  0  0  0  0  0  0
    1.6463   -3.0194   -0.5966 H   0  0  0  0  0  0  0  0  0  0  0  0
    1.0033    0.4584    0.2892 H   0  0  0  0  0  0  0  0  0  0  0  0
    2.5317   -1.2656   -1.3154 H   0  0  0  0  0  0  0  0  0  0  0  0
    2.8608   -1.7087    0.3773 H   0  0  0  0  0  0  0  0  0  0  0  0
    5.9759    1.6335   -0.7708 H   0  0  0  0  0  0  0  0  0  0  0  0
    4.6552    2.8481   -1.1665 H   0  0  0  0  0  0  0  0  0  0  0  0
    4.1213    3.0981    1.0439 H   0  0  0  0  0  0  0  0  0  0  0  0
    5.4501    1.8651    1.4191 H   0  0  0  0  0  0  0  0  0  0  0  0
    3.1623    0.8591    1.9852 H   0  0  0  0  0  0  0  0  0  0  0  0
  1  2  1  0
  2  3  1  0
  3  4  1  0
  4  5  1  0
  5  6  1  0
  4  7  1  0
  7  8  2  0
  8  9  1  0
  9 10  2  0
 10 11  1  0
 11 12  2  0
 12 13  1  0
 13 14  1  0
 14 15  1  0
 15 16  2  0
 16 17  1  0
 17 18  1  0
 18 19  1  0
  6  1  1  0
 12  7  1  0
 19 15  1  0
  1 20  1  0
  1 21  1  0
  2 22  1  0
  2 23  1  0
  3 24  1  0
  3 25  1  0
  5 26  1  0
  5 27  1  0
  6 28  1  0
  6 29  1  0
  8 30  1  0
  9 31  1  0
 10 32  1  0
 11 33  1  0
 13 34  1  0
 14 35  1  0
 14 36  1  0
 17 37  1  0
 17 38  1  0
 18 39  1  0
 18 40  1  0
 19 41  1  0
M  END
>  <Ligand ID>  (1) 
LIG0003098

>  <Ligand>  (1) 
CHEMBL117581

>  <SMILES>  (1) 
C1CCN(CC1)c1ccccc1NCC1=NCCN1

>  <CID>  (1) 
22493274.0

>  <ChEMBL ID>  (1) 
nan

>  <InChiKey>  (1) 
GHCVLCQQNTYWFS-UHFFFAOYSA-N

>  <InChi>  (1) 
InChI=1S/C15H22N4/c1-4-10-19(11-5-1)14-7-3-2-6-13(14)18-12-15-16-8-9-17-15/h2-3,6-7,18H,1,4-5,8-12H2,(H,16,17)

>  <IUPAC Name>  (1) 
N-(4,5-dihydro-1H-imidazol-2-ylmethyl)-2-piperidin-1-ylaniline

$$$$
