
     RDKit          3D

 30 32  0  0  0  0  0  0  0  0999 V2000
    4.4283   -1.0163    0.7264 C   0  0  0  0  0  0  0  0  0  0  0  0
    3.0555   -1.0729    0.4878 O   0  0  0  0  0  0  0  0  0  0  0  0
    2.2536   -0.0164    0.0768 C   0  0  0  0  0  0  0  0  0  0  0  0
    2.7485    1.2525   -0.1483 C   0  0  0  0  0  0  0  0  0  0  0  0
    1.9382    2.3039   -0.5595 C   0  0  0  0  0  0  0  0  0  0  0  0
    0.5717    2.0994   -0.7608 C   0  0  0  0  0  0  0  0  0  0  0  0
    0.0821    0.8184   -0.5322 C   0  0  0  0  0  0  0  0  0  0  0  0
    0.9088   -0.2079   -0.1231 C   0  0  0  0  0  0  0  0  0  0  0  0
    0.1153   -1.4180    0.0644 C   0  0  0  0  0  0  0  0  0  0  0  0
    0.4956   -2.5612    0.4269 O   0  0  0  0  0  0  0  0  0  0  0  0
   -1.2247   -1.0570   -0.2504 N   0  0  0  0  0  0  0  0  0  0  0  0
   -1.2943    0.3220   -0.6950 C   0  0  0  0  0  0  0  0  0  0  0  0
   -2.3581    1.0999   -0.0004 C   0  0  0  0  0  0  0  0  0  0  0  0
   -3.5211    0.3365    0.3451 N   0  0  0  0  0  0  0  0  0  0  0  0
   -3.3210   -0.9777    0.8324 C   0  0  0  0  0  0  0  0  0  0  0  0
   -2.5057   -1.7598   -0.2048 C   0  0  0  0  0  0  0  0  0  0  0  0
    4.9302   -0.2191    0.1779 H   0  0  0  0  0  0  0  0  0  0  0  0
    4.8424   -2.0199    0.4258 H   0  0  0  0  0  0  0  0  0  0  0  0
    4.5783   -0.8329    1.8131 H   0  0  0  0  0  0  0  0  0  0  0  0
    3.7900    1.4620   -0.0088 H   0  0  0  0  0  0  0  0  0  0  0  0
    2.3310    3.2967   -0.7342 H   0  0  0  0  0  0  0  0  0  0  0  0
   -0.0596    2.9109   -1.0792 H   0  0  0  0  0  0  0  0  0  0  0  0
   -1.5021    0.2739   -1.7869 H   0  0  0  0  0  0  0  0  0  0  0  0
   -2.6794    1.9460   -0.6423 H   0  0  0  0  0  0  0  0  0  0  0  0
   -1.9279    1.5367    0.9238 H   0  0  0  0  0  0  0  0  0  0  0  0
   -4.2620    0.3734   -0.3652 H   0  0  0  0  0  0  0  0  0  0  0  0
   -4.2921   -1.4497    0.9860 H   0  0  0  0  0  0  0  0  0  0  0  0
   -2.6767   -0.9798    1.7467 H   0  0  0  0  0  0  0  0  0  0  0  0
   -2.4122   -2.8205    0.0322 H   0  0  0  0  0  0  0  0  0  0  0  0
   -3.0329   -1.6230   -1.1743 H   0  0  0  0  0  0  0  0  0  0  0  0
  1  2  1  0
  2  3  1  0
  3  4  2  0
  4  5  1  0
  5  6  2  0
  6  7  1  0
  7  8  2  0
  8  9  1  0
  9 10  2  0
  9 11  1  0
 11 12  1  0
 12 13  1  0
 13 14  1  0
 14 15  1  0
 15 16  1  0
  8  3  1  0
 16 11  1  0
 12  7  1  0
  1 17  1  0
  1 18  1  0
  1 19  1  0
  4 20  1  0
  5 21  1  0
  6 22  1  0
 12 23  1  0
 13 24  1  0
 13 25  1  0
 14 26  1  0
 15 27  1  0
 15 28  1  0
 16 29  1  0
 16 30  1  0
M  END
>  <Ligand ID>  (1) 
LIG0004878

>  <Ligand>  (1) 
CHEMBL376456

>  <SMILES>  (1) 
COc1cccc2c1C(=O)N1C2CNCC1

>  <CID>  (1) 
11290492.0

>  <ChEMBL ID>  (1) 
nan

>  <InChiKey>  (1) 
AGESLMCHEVXSAE-UHFFFAOYSA-N

>  <InChi>  (1) 
InChI=1S/C12H14N2O2/c1-16-10-4-2-3-8-9-7-13-5-6-14(9)12(15)11(8)10/h2-4,9,13H,5-7H2,1H3

>  <IUPAC Name>  (1) 
7-methoxy-2,3,4,10b-tetrahydro-1H-pyrazino[1,2-b]isoindol-6-one

$$$$
