
     RDKit          3D

 40 42  0  0  0  0  0  0  0  0999 V2000
    5.4516    0.3939   -0.6144 C   0  0  0  0  0  0  0  0  0  0  0  0
    4.8941    0.9956    0.5675 N   0  0  0  0  0  0  0  0  0  0  0  0
    3.2137    1.3481    0.3954 S   0  0  0  0  0  0  0  0  0  0  0  0
    2.9383    2.2907   -0.7081 O   0  0  0  0  0  0  0  0  0  0  0  0
    2.6841    1.8729    1.6993 O   0  0  0  0  0  0  0  0  0  0  0  0
    2.4093   -0.2409    0.1226 C   0  0  0  0  0  0  0  0  0  0  0  0
    0.9021    0.0494   -0.0362 C   0  0  0  0  0  0  0  0  0  0  0  0
    0.2185   -1.2344   -0.2100 C   0  0  0  0  0  0  0  0  0  0  0  0
    0.9343   -2.4117   -0.3494 C   0  0  0  0  0  0  0  0  0  0  0  0
    0.3285   -3.6464   -0.5075 C   0  0  0  0  0  0  0  0  0  0  0  0
   -1.0463   -3.6598   -0.5211 C   0  0  0  0  0  0  0  0  0  0  0  0
   -1.7489   -2.5150   -0.3849 C   0  0  0  0  0  0  0  0  0  0  0  0
   -1.1886   -1.2369   -0.2224 C   0  0  0  0  0  0  0  0  0  0  0  0
   -2.0403   -0.1092   -0.0872 C   0  0  1  0  0  0  0  0  0  0  0  0
   -2.3296    0.4782    1.2652 C   0  0  0  0  0  0  0  0  0  0  0  0
   -3.3327    1.4715    0.8700 N   0  0  0  0  0  0  0  0  0  0  0  0
   -3.1395    1.8611   -0.4055 C   0  0  0  0  0  0  0  0  0  0  0  0
   -1.9302    1.0959   -0.9365 C   0  0  0  0  0  0  0  0  0  0  0  0
   -4.0808    2.7687   -0.7201 N   0  0  0  0  0  0  0  0  0  0  0  0
   -4.8914    2.9733    0.3500 C   0  0  0  0  0  0  0  0  0  0  0  0
   -4.4122    2.1508    1.3491 C   0  0  0  0  0  0  0  0  0  0  0  0
    4.9089   -0.5482   -0.8371 H   0  0  0  0  0  0  0  0  0  0  0  0
    6.5200    0.1404   -0.3898 H   0  0  0  0  0  0  0  0  0  0  0  0
    5.4273    1.1237   -1.4538 H   0  0  0  0  0  0  0  0  0  0  0  0
    5.0968    0.4169    1.3946 H   0  0  0  0  0  0  0  0  0  0  0  0
    2.8275   -0.7130   -0.7921 H   0  0  0  0  0  0  0  0  0  0  0  0
    2.5363   -0.8150    1.0507 H   0  0  0  0  0  0  0  0  0  0  0  0
    0.6707    0.5975    0.8930 H   0  0  0  0  0  0  0  0  0  0  0  0
    0.9099    0.6743   -0.9569 H   0  0  0  0  0  0  0  0  0  0  0  0
    2.0273   -2.4428   -0.3391 H   0  0  0  0  0  0  0  0  0  0  0  0
    0.8970   -4.5401   -0.6138 H   0  0  0  0  0  0  0  0  0  0  0  0
   -1.5225   -4.6236   -0.6447 H   0  0  0  0  0  0  0  0  0  0  0  0
   -2.8523   -2.6148   -0.4058 H   0  0  0  0  0  0  0  0  0  0  0  0
   -3.1076   -0.4646   -0.3616 H   0  0  0  0  0  0  0  0  0  0  0  0
   -2.8317   -0.2881    1.8795 H   0  0  0  0  0  0  0  0  0  0  0  0
   -1.5419    1.0511    1.7345 H   0  0  0  0  0  0  0  0  0  0  0  0
   -2.0934    0.8392   -2.0084 H   0  0  0  0  0  0  0  0  0  0  0  0
   -1.1105    1.7744   -0.8232 H   0  0  0  0  0  0  0  0  0  0  0  0
   -5.7378    3.6446    0.4044 H   0  0  0  0  0  0  0  0  0  0  0  0
   -4.8580    2.0922    2.3323 H   0  0  0  0  0  0  0  0  0  0  0  0
  1  2  1  0
  2  3  1  0
  3  4  2  0
  3  5  2  0
  3  6  1  0
  6  7  1  0
  7  8  1  0
  8  9  2  0
  9 10  1  0
 10 11  2  0
 11 12  1  0
 12 13  2  0
 13 14  1  0
 14 15  1  0
 15 16  1  0
 16 17  1  0
 17 18  1  0
 17 19  2  0
 19 20  1  0
 20 21  2  0
 13  8  1  0
 18 14  1  0
 21 16  1  0
  1 22  1  0
  1 23  1  0
  1 24  1  0
  2 25  1  0
  6 26  1  0
  6 27  1  0
  7 28  1  0
  7 29  1  0
  9 30  1  0
 10 31  1  0
 11 32  1  0
 12 33  1  0
 14 34  1  6
 15 35  1  0
 15 36  1  0
 18 37  1  0
 18 38  1  0
 20 39  1  0
 21 40  1  0
M  END
>  <Ligand ID>  (1) 
LIG0004688

>  <Ligand>  (1) 
CHEMBL469127

>  <SMILES>  (1) 
CNS(=O)(=O)CCc1ccccc1[C@H]1Cn2c(C1)ncc2

>  <CID>  (1) 
44574105.0

>  <ChEMBL ID>  (1) 
nan

>  <InChiKey>  (1) 
FQZYLYAFBBAGRL-CYBMUJFWSA-N

>  <InChi>  (1) 
InChI=1S/C15H19N3O2S/c1-16-21(19,20)9-6-12-4-2-3-5-14(12)13-10-15-17-7-8-18(15)11-13/h2-5,7-8,13,16H,6,9-11H2,1H3/t13-/m1/s1

>  <IUPAC Name>  (1) 
2-[2-[(6S)-6,7-dihydro-5H-pyrrolo[1,2-a]imidazol-6-yl]phenyl]-N-methylethanesulfonamide

$$$$
