
     RDKit          3D

 91 94  0  0  0  0  0  0  0  0999 V2000
   -4.8029    1.3349   -3.8761 C   0  0  0  0  0  0  0  0  0  0  0  0
   -4.3589    2.4504   -2.9212 C   0  0  1  0  0  0  0  0  0  0  0  0
   -5.5431    3.0933   -2.4697 N   0  0  0  0  0  0  0  0  0  0  0  0
   -5.7542    3.1045   -1.0435 C   0  0  2  0  0  0  0  0  0  0  0  0
   -4.8340    4.0918   -0.3586 C   0  0  0  0  0  0  0  0  0  0  0  0
   -5.6419    1.7031   -0.4855 C   0  0  0  0  0  0  0  0  0  0  0  0
   -4.3391    1.1247   -0.8796 N   0  0  0  0  0  0  0  0  0  0  0  0
   -3.5264    1.7878   -1.8443 C   0  0  0  0  0  0  0  0  0  0  0  0
   -4.0293   -0.1100   -0.2229 C   0  0  0  0  0  0  0  0  0  0  0  0
   -4.9794   -0.5084    0.5482 O   0  0  0  0  0  0  0  0  0  0  0  0
   -2.8191   -0.8076   -0.3984 N   0  0  0  0  0  0  0  0  0  0  0  0
   -2.3971   -2.0344    0.1808 C   0  0  1  0  0  0  0  0  0  0  0  0
   -1.0173   -2.2673    0.4909 C   0  0  0  0  0  0  0  0  0  0  0  0
   -0.6860   -3.5211    0.6661 O   0  0  0  0  0  0  0  0  0  0  0  0
    0.0672   -1.3855    0.6529 N   0  0  0  0  0  0  0  0  0  0  0  0
    1.3681   -2.0516    0.9249 C   0  0  0  0  0  0  0  0  0  0  0  0
    2.3719   -0.9851    1.1673 C   0  0  0  0  0  0  0  0  0  0  0  0
    2.5063   -0.0450   -0.0088 C   0  0  0  0  0  0  0  0  0  0  0  0
    1.1790    0.6859   -0.1388 C   0  0  0  0  0  0  0  0  0  0  0  0
    0.0854    0.0304    0.6438 C   0  0  0  0  0  0  0  0  0  0  0  0
    2.7483   -0.7758   -1.3018 C   0  0  0  0  0  0  0  0  0  0  0  0
    2.8862    0.2041   -2.4452 C   0  0  0  0  0  0  0  0  0  0  0  0
    3.7110   -0.3923   -3.6006 C   0  0  0  0  0  0  0  0  0  0  0  0
    5.0923   -0.6250   -3.0502 C   0  0  0  0  0  0  0  0  0  0  0  0
    5.0990   -1.5510   -1.8709 C   0  0  0  0  0  0  0  0  0  0  0  0
    3.7724   -1.8434   -1.2719 C   0  0  0  0  0  0  0  0  0  0  0  0
    3.5885    0.9017    0.3657 C   0  0  0  0  0  0  0  0  0  0  0  0
    4.6713    1.0287   -0.2391 O   0  0  0  0  0  0  0  0  0  0  0  0
    3.3037    1.7139    1.5331 N   0  0  0  0  0  0  0  0  0  0  0  0
    4.2473    2.6625    2.0217 C   0  0  0  0  0  0  0  0  0  0  0  0
    3.7088    3.3912    3.2241 C   0  0  0  0  0  0  0  0  0  0  0  0
    5.5369    2.0020    2.4627 C   0  0  0  0  0  0  0  0  0  0  0  0
    4.6381    3.6998    0.9710 C   0  0  0  0  0  0  0  0  0  0  0  0
   -3.2619   -2.3106    1.4698 C   0  0  0  0  0  0  0  0  0  0  0  0
   -2.7881   -3.5728    2.1220 C   0  0  0  0  0  0  0  0  0  0  0  0
   -1.8844   -3.5797    3.1568 C   0  0  0  0  0  0  0  0  0  0  0  0
   -1.5077   -4.8306    3.6649 C   0  0  0  0  0  0  0  0  0  0  0  0
   -2.0039   -6.0066    3.1685 C   0  0  0  0  0  0  0  0  0  0  0  0
   -2.8978   -5.9583    2.1433 C   0  0  0  0  0  0  0  0  0  0  0  0
   -3.3272   -4.7476    1.5772 C   0  0  0  0  0  0  0  0  0  0  0  0
   -1.6076   -7.2107    3.6915 F   0  0  0  0  0  0  0  0  0  0  0  0
   -5.8578    1.4724   -4.2079 H   0  0  0  0  0  0  0  0  0  0  0  0
   -4.0678    1.2680   -4.6757 H   0  0  0  0  0  0  0  0  0  0  0  0
   -4.7988    0.3568   -3.3105 H   0  0  0  0  0  0  0  0  0  0  0  0
   -3.7508    3.1819   -3.5048 H   0  0  0  0  0  0  0  0  0  0  0  0
   -6.4175    2.8726   -3.0106 H   0  0  0  0  0  0  0  0  0  0  0  0
   -6.7995    3.4380   -0.8657 H   0  0  0  0  0  0  0  0  0  0  0  0
   -5.4155    4.8006    0.2875 H   0  0  0  0  0  0  0  0  0  0  0  0
   -4.3524    4.7359   -1.1471 H   0  0  0  0  0  0  0  0  0  0  0  0
   -4.0930    3.6324    0.3061 H   0  0  0  0  0  0  0  0  0  0  0  0
   -6.4150    1.0778   -0.9704 H   0  0  0  0  0  0  0  0  0  0  0  0
   -5.7860    1.6706    0.5986 H   0  0  0  0  0  0  0  0  0  0  0  0
   -2.8110    2.4748   -1.3523 H   0  0  0  0  0  0  0  0  0  0  0  0
   -2.8732    1.0508   -2.4008 H   0  0  0  0  0  0  0  0  0  0  0  0
   -2.1462   -0.3606   -1.1037 H   0  0  0  0  0  0  0  0  0  0  0  0
   -2.8312   -2.8657   -0.4648 H   0  0  0  0  0  0  0  0  0  0  0  0
    1.2552   -2.6346    1.8781 H   0  0  0  0  0  0  0  0  0  0  0  0
    1.6277   -2.7634    0.1379 H   0  0  0  0  0  0  0  0  0  0  0  0
    3.3689   -1.3840    1.4863 H   0  0  0  0  0  0  0  0  0  0  0  0
    2.0523   -0.3808    2.0423 H   0  0  0  0  0  0  0  0  0  0  0  0
    0.8793    0.7312   -1.1967 H   0  0  0  0  0  0  0  0  0  0  0  0
    1.3481    1.7246    0.2602 H   0  0  0  0  0  0  0  0  0  0  0  0
   -0.8934    0.5220    0.4906 H   0  0  0  0  0  0  0  0  0  0  0  0
    0.3134    0.3422    1.7309 H   0  0  0  0  0  0  0  0  0  0  0  0
    1.7493   -1.2846   -1.5139 H   0  0  0  0  0  0  0  0  0  0  0  0
    1.9041    0.4474   -2.9262 H   0  0  0  0  0  0  0  0  0  0  0  0
    3.3609    1.1516   -2.1923 H   0  0  0  0  0  0  0  0  0  0  0  0
    3.2627   -1.3193   -3.9737 H   0  0  0  0  0  0  0  0  0  0  0  0
    3.7703    0.4332   -4.3403 H   0  0  0  0  0  0  0  0  0  0  0  0
    5.7182   -1.0152   -3.9029 H   0  0  0  0  0  0  0  0  0  0  0  0
    5.5267    0.3558   -2.7742 H   0  0  0  0  0  0  0  0  0  0  0  0
    5.8922   -1.2224   -1.1514 H   0  0  0  0  0  0  0  0  0  0  0  0
    5.5142   -2.5247   -2.2701 H   0  0  0  0  0  0  0  0  0  0  0  0
    3.3625   -2.8018   -1.7267 H   0  0  0  0  0  0  0  0  0  0  0  0
    3.9675   -2.1544   -0.2080 H   0  0  0  0  0  0  0  0  0  0  0  0
    2.3748    1.6119    2.0416 H   0  0  0  0  0  0  0  0  0  0  0  0
    3.2579    2.7192    3.9680 H   0  0  0  0  0  0  0  0  0  0  0  0
    2.9791    4.1476    2.8703 H   0  0  0  0  0  0  0  0  0  0  0  0
    4.5523    3.9824    3.6879 H   0  0  0  0  0  0  0  0  0  0  0  0
    6.1169    1.5982    1.6251 H   0  0  0  0  0  0  0  0  0  0  0  0
    5.4060    1.2783    3.2892 H   0  0  0  0  0  0  0  0  0  0  0  0
    6.1682    2.8192    2.9239 H   0  0  0  0  0  0  0  0  0  0  0  0
    5.5596    3.3835    0.4366 H   0  0  0  0  0  0  0  0  0  0  0  0
    4.7893    4.7058    1.4316 H   0  0  0  0  0  0  0  0  0  0  0  0
    3.8186    3.7937    0.2200 H   0  0  0  0  0  0  0  0  0  0  0  0
   -4.3122   -2.4441    1.1322 H   0  0  0  0  0  0  0  0  0  0  0  0
   -3.2143   -1.4991    2.1839 H   0  0  0  0  0  0  0  0  0  0  0  0
   -1.4872   -2.6560    3.5557 H   0  0  0  0  0  0  0  0  0  0  0  0
   -0.7814   -4.7914    4.4940 H   0  0  0  0  0  0  0  0  0  0  0  0
   -3.3314   -6.8460    1.7049 H   0  0  0  0  0  0  0  0  0  0  0  0
   -4.0344   -4.7231    0.7572 H   0  0  0  0  0  0  0  0  0  0  0  0
  1  2  1  0
  2  3  1  0
  3  4  1  0
  4  5  1  0
  4  6  1  0
  6  7  1  0
  7  8  1  0
  7  9  1  0
  9 10  2  0
  9 11  1  0
 11 12  1  0
 12 13  1  0
 13 14  2  0
 13 15  1  0
 15 16  1  0
 16 17  1  0
 17 18  1  0
 18 19  1  0
 19 20  1  0
 18 21  1  0
 21 22  1  0
 22 23  1  0
 23 24  1  0
 24 25  1  0
 25 26  1  0
 18 27  1  0
 27 28  2  0
 27 29  1  0
 29 30  1  0
 30 31  1  0
 30 32  1  0
 30 33  1  0
 12 34  1  0
 34 35  1  0
 35 36  2  0
 36 37  1  0
 37 38  2  0
 38 39  1  0
 39 40  2  0
 38 41  1  0
  8  2  1  0
 20 15  1  0
 26 21  1  0
 40 35  1  0
  1 42  1  0
  1 43  1  0
  1 44  1  0
  2 45  1  6
  3 46  1  0
  4 47  1  6
  5 48  1  0
  5 49  1  0
  5 50  1  0
  6 51  1  0
  6 52  1  0
  8 53  1  0
  8 54  1  0
 11 55  1  0
 12 56  1  6
 16 57  1  0
 16 58  1  0
 17 59  1  0
 17 60  1  0
 19 61  1  0
 19 62  1  0
 20 63  1  0
 20 64  1  0
 21 65  1  0
 22 66  1  0
 22 67  1  0
 23 68  1  0
 23 69  1  0
 24 70  1  0
 24 71  1  0
 25 72  1  0
 25 73  1  0
 26 74  1  0
 26 75  1  0
 29 76  1  0
 31 77  1  0
 31 78  1  0
 31 79  1  0
 32 80  1  0
 32 81  1  0
 32 82  1  0
 33 83  1  0
 33 84  1  0
 33 85  1  0
 34 86  1  0
 34 87  1  0
 36 88  1  0
 37 89  1  0
 39 90  1  0
 40 91  1  0
M  END
>  <Ligand ID>  (1) 
LIG0002174

>  <Ligand>  (1) 
CHEMBL1761873

>  <SMILES>  (1) 
C[C@H]1N[C@H](C)CN(C1)C(=O)N[C@@H](C(=O)N1CCC(CC1)(C1CCCCC1)C(=O)NC(C)(C)C)Cc1ccc(cc1)F

>  <CID>  (1) 
10483153.0

>  <ChEMBL ID>  (1) 
nan

>  <InChiKey>  (1) 
IVOZSKOYXPHCOQ-AZSVPQILSA-N

>  <InChi>  (1) 
InChI=1S/C32H50FN5O3/c1-22-20-38(21-23(2)34-22)30(41)35-27(19-24-11-13-26(33)14-12-24)28(39)37-17-15-32(16-18-37,25-9-7-6-8-10-25)29(40)36-31(3,4)5/h11-14,22-23,25,27,34H,6-10,15-21H2,1-5H3,(H,35,41)(H,36,40)/t22-,23-,27-/m1/s1

>  <IUPAC Name>  (1) 
(3R,5R)-N-[(2R)-1-[4-(tert-butylcarbamoyl)-4-cyclohexylpiperidin-1-yl]-3-(4-fluorophenyl)-1-oxopropan-2-yl]-3,5-dimethylpiperazine-1-carboxamide

$$$$
