
     RDKit          3D

 29 31  0  0  0  0  0  0  0  0999 V2000
    0.4380    2.4926   -0.1984 N   0  0  0  0  0  0  0  0  0  0  0  0
    0.4083    1.0841   -0.0548 C   0  0  0  0  0  0  0  0  0  0  0  0
   -0.7855    0.3733    0.0854 C   0  0  0  0  0  0  0  0  0  0  0  0
   -2.0494    1.1566    0.0790 C   0  0  0  0  0  0  0  0  0  0  0  0
   -3.1558    0.2707   -0.3723 C   0  0  0  0  0  0  0  0  0  0  0  0
   -3.2106   -1.0824    0.2337 C   0  0  0  0  0  0  0  0  0  0  0  0
   -1.9314   -1.8026    0.3704 C   0  0  0  0  0  0  0  0  0  0  0  0
   -0.7240   -0.9829    0.2185 C   0  0  0  0  0  0  0  0  0  0  0  0
    0.4687   -1.6098    0.2132 N   0  0  0  0  0  0  0  0  0  0  0  0
    1.6373   -0.9523    0.0799 C   0  0  0  0  0  0  0  0  0  0  0  0
    1.6217    0.4252   -0.0580 C   0  0  0  0  0  0  0  0  0  0  0  0
    2.8316    1.0840   -0.1938 C   0  0  0  0  0  0  0  0  0  0  0  0
    4.0265    0.3931   -0.1928 C   0  0  0  0  0  0  0  0  0  0  0  0
    4.0081   -0.9963   -0.0518 C   0  0  0  0  0  0  0  0  0  0  0  0
    2.8244   -1.6718    0.0842 C   0  0  0  0  0  0  0  0  0  0  0  0
    1.1174    3.0836    0.3256 H   0  0  0  0  0  0  0  0  0  0  0  0
   -0.2155    3.0193   -0.8342 H   0  0  0  0  0  0  0  0  0  0  0  0
   -1.9778    1.9925   -0.6475 H   0  0  0  0  0  0  0  0  0  0  0  0
   -2.2574    1.5056    1.1027 H   0  0  0  0  0  0  0  0  0  0  0  0
   -3.1485    0.2329   -1.4812 H   0  0  0  0  0  0  0  0  0  0  0  0
   -4.1174    0.8059   -0.1234 H   0  0  0  0  0  0  0  0  0  0  0  0
   -3.9393   -1.6820   -0.3655 H   0  0  0  0  0  0  0  0  0  0  0  0
   -3.6809   -0.9868    1.2516 H   0  0  0  0  0  0  0  0  0  0  0  0
   -1.8867   -2.6333   -0.3717 H   0  0  0  0  0  0  0  0  0  0  0  0
   -1.8712   -2.3338    1.3639 H   0  0  0  0  0  0  0  0  0  0  0  0
    2.8422    2.1582   -0.3027 H   0  0  0  0  0  0  0  0  0  0  0  0
    4.9740    0.9194   -0.3002 H   0  0  0  0  0  0  0  0  0  0  0  0
    4.9621   -1.5104   -0.0547 H   0  0  0  0  0  0  0  0  0  0  0  0
    2.7911   -2.7526    0.1950 H   0  0  0  0  0  0  0  0  0  0  0  0
  1  2  1  0
  2  3  2  0
  3  4  1  0
  4  5  1  0
  5  6  1  0
  6  7  1  0
  7  8  1  0
  8  9  2  0
  9 10  1  0
 10 11  2  0
 11 12  1  0
 12 13  2  0
 13 14  1  0
 14 15  2  0
 11  2  1  0
  8  3  1  0
 15 10  1  0
  1 16  1  0
  1 17  1  0
  4 18  1  0
  4 19  1  0
  5 20  1  0
  5 21  1  0
  6 22  1  0
  6 23  1  0
  7 24  1  0
  7 25  1  0
 12 26  1  0
 13 27  1  0
 14 28  1  0
 15 29  1  0
M  END
>  <Ligand ID>  (1) 
LIG0003076

>  <Ligand>  (1) 
Tacrine

>  <SMILES>  (1) 
Nc1c2CCCCc2nc2c1cccc2

>  <CID>  (1) 
1935.0

>  <ChEMBL ID>  (1) 
nan

>  <InChiKey>  (1) 
YLJREFDVOIBQDA-UHFFFAOYSA-N

>  <InChi>  (1) 
InChI=1S/C13H14N2/c14-13-9-5-1-3-7-11(9)15-12-8-4-2-6-10(12)13/h1,3,5,7H,2,4,6,8H2,(H2,14,15)

>  <IUPAC Name>  (1) 
1,2,3,4-tetrahydroacridin-9-amine

$$$$
