
     RDKit          3D

 65 67  0  0  0  0  0  0  0  0999 V2000
    9.0391    1.4723   -1.1886 C   0  0  0  0  0  0  0  0  0  0  0  0
    7.6116    1.7958   -1.4721 C   0  0  0  0  0  0  0  0  0  0  0  0
    6.6502    1.3184   -0.6840 C   0  0  0  0  0  0  0  0  0  0  0  0
    6.8880    0.4639    0.4906 C   0  0  0  0  0  0  0  0  0  0  0  0
    6.2101   -0.8841    0.3746 C   0  0  0  0  0  0  0  0  0  0  0  0
    4.7026   -0.7637    0.2320 C   0  0  0  0  0  0  0  0  0  0  0  0
    4.0763   -0.0779    1.3940 C   0  0  0  0  0  0  0  0  0  0  0  0
    2.5978    0.0382    1.2617 C   0  0  2  0  0  0  0  0  0  0  0  0
    1.9976   -1.3565    1.1455 C   0  0  0  0  0  0  0  0  0  0  0  0
    0.5317   -1.1795    1.5647 C   0  0  0  0  0  0  0  0  0  0  0  0
   -0.0684   -0.3933    0.4330 C   0  0  0  0  0  0  0  0  0  0  0  0
    0.6867    0.5553   -0.2142 C   0  0  0  0  0  0  0  0  0  0  0  0
    2.0977    0.8720    0.1343 C   0  0  0  0  0  0  0  0  0  0  0  0
    0.1452    1.2953   -1.2699 C   0  0  0  0  0  0  0  0  0  0  0  0
   -1.1560    1.0345   -1.6248 C   0  0  0  0  0  0  0  0  0  0  0  0
   -1.8959    0.0869   -0.9713 C   0  0  0  0  0  0  0  0  0  0  0  0
   -1.3790   -0.6527    0.0721 C   0  0  0  0  0  0  0  0  0  0  0  0
   -3.2775   -0.1516   -1.3907 C   0  0  1  0  0  0  0  0  0  0  0  0
   -3.5066   -1.6341   -1.6948 C   0  0  0  0  0  0  0  0  0  0  0  0
   -5.0227   -1.6414   -1.7318 C   0  0  0  0  0  0  0  0  0  0  0  0
   -5.3320   -0.9701   -0.4094 C   0  0  2  0  0  0  0  0  0  0  0  0
   -4.1804    0.0052   -0.1767 C   0  0  0  0  0  0  0  0  0  0  0  0
   -5.3613   -1.9874    0.5989 N   0  0  0  0  0  0  0  0  0  0  0  0
   -6.6045   -0.1580   -0.4779 C   0  0  0  0  0  0  0  0  0  0  0  0
   -6.7761    0.4501    0.7652 O   0  0  0  0  0  0  0  0  0  0  0  0
   -8.1979    1.3827    0.7666 P   0  0  0  0  0  0  0  0  0  0  0  0
   -9.0662    0.8621    1.8869 O   0  0  0  0  0  0  0  0  0  0  0  0
   -8.9726    1.2866   -0.7324 O   0  0  0  0  0  0  0  0  0  0  0  0
   -7.7767    2.9952    1.0155 O   0  0  0  0  0  0  0  0  0  0  0  0
    9.3316    1.6946   -0.1509 H   0  0  0  0  0  0  0  0  0  0  0  0
    9.2012    0.3746   -1.3664 H   0  0  0  0  0  0  0  0  0  0  0  0
    9.6380    2.0165   -1.9525 H   0  0  0  0  0  0  0  0  0  0  0  0
    7.2958    2.4176   -2.3092 H   0  0  0  0  0  0  0  0  0  0  0  0
    5.6015    1.5672   -0.9079 H   0  0  0  0  0  0  0  0  0  0  0  0
    6.5917    0.9470    1.4265 H   0  0  0  0  0  0  0  0  0  0  0  0
    7.9805    0.2545    0.5158 H   0  0  0  0  0  0  0  0  0  0  0  0
    6.5861   -1.3863   -0.5295 H   0  0  0  0  0  0  0  0  0  0  0  0
    6.3816   -1.4720    1.2939 H   0  0  0  0  0  0  0  0  0  0  0  0
    4.3429   -1.8266    0.1650 H   0  0  0  0  0  0  0  0  0  0  0  0
    4.4118   -0.2808   -0.6979 H   0  0  0  0  0  0  0  0  0  0  0  0
    4.5554    0.9141    1.5425 H   0  0  0  0  0  0  0  0  0  0  0  0
    4.2710   -0.6743    2.3246 H   0  0  0  0  0  0  0  0  0  0  0  0
    2.1490    0.4954    2.1997 H   0  0  0  0  0  0  0  0  0  0  0  0
    2.5121   -2.0931    1.7750 H   0  0  0  0  0  0  0  0  0  0  0  0
    1.9568   -1.6451    0.0700 H   0  0  0  0  0  0  0  0  0  0  0  0
    0.4573   -0.6346    2.5104 H   0  0  0  0  0  0  0  0  0  0  0  0
    0.1104   -2.1813    1.6696 H   0  0  0  0  0  0  0  0  0  0  0  0
    2.7520    0.8265   -0.7651 H   0  0  0  0  0  0  0  0  0  0  0  0
    2.0886    1.9756    0.4010 H   0  0  0  0  0  0  0  0  0  0  0  0
    0.7359    2.0451   -1.7845 H   0  0  0  0  0  0  0  0  0  0  0  0
   -1.5725    1.6078   -2.4411 H   0  0  0  0  0  0  0  0  0  0  0  0
   -1.9320   -1.4067    0.6097 H   0  0  0  0  0  0  0  0  0  0  0  0
   -3.6013    0.4770   -2.2302 H   0  0  0  0  0  0  0  0  0  0  0  0
   -3.1935   -2.2304   -0.8348 H   0  0  0  0  0  0  0  0  0  0  0  0
   -3.0456   -1.9232   -2.6578 H   0  0  0  0  0  0  0  0  0  0  0  0
   -5.4366   -2.6502   -1.8039 H   0  0  0  0  0  0  0  0  0  0  0  0
   -5.3049   -0.9865   -2.5862 H   0  0  0  0  0  0  0  0  0  0  0  0
   -4.5130    1.0562   -0.1533 H   0  0  0  0  0  0  0  0  0  0  0  0
   -3.6538   -0.3133    0.7275 H   0  0  0  0  0  0  0  0  0  0  0  0
   -5.1172   -1.6547    1.5397 H   0  0  0  0  0  0  0  0  0  0  0  0
   -6.2370   -2.5179    0.5153 H   0  0  0  0  0  0  0  0  0  0  0  0
   -6.4414    0.5997   -1.2841 H   0  0  0  0  0  0  0  0  0  0  0  0
   -7.4408   -0.8478   -0.7171 H   0  0  0  0  0  0  0  0  0  0  0  0
   -9.2470    0.3428   -0.9060 H   0  0  0  0  0  0  0  0  0  0  0  0
   -6.8754    3.0483    1.4239 H   0  0  0  0  0  0  0  0  0  0  0  0
  1  2  1  0
  2  3  2  0
  3  4  1  0
  4  5  1  0
  5  6  1  0
  6  7  1  0
  7  8  1  0
  8  9  1  0
  9 10  1  0
 10 11  1  0
 11 12  2  0
 12 13  1  0
 12 14  1  0
 14 15  2  0
 15 16  1  0
 16 17  2  0
 16 18  1  0
 18 19  1  0
 19 20  1  0
 20 21  1  0
 21 22  1  0
 21 23  1  1
 21 24  1  0
 24 25  1  0
 25 26  1  0
 26 27  2  0
 26 28  1  0
 26 29  1  0
 13  8  1  0
 22 18  1  0
 17 11  1  0
  1 30  1  0
  1 31  1  0
  1 32  1  0
  2 33  1  0
  3 34  1  0
  4 35  1  0
  4 36  1  0
  5 37  1  0
  5 38  1  0
  6 39  1  0
  6 40  1  0
  7 41  1  0
  7 42  1  0
  8 43  1  1
  9 44  1  0
  9 45  1  0
 10 46  1  0
 10 47  1  0
 13 48  1  0
 13 49  1  0
 14 50  1  0
 15 51  1  0
 17 52  1  0
 18 53  1  6
 19 54  1  0
 19 55  1  0
 20 56  1  0
 20 57  1  0
 22 58  1  0
 22 59  1  0
 23 60  1  0
 23 61  1  0
 24 62  1  0
 24 63  1  0
 28 64  1  0
 29 65  1  0
M  END
>  <Ligand ID>  (1) 
LIG0005591

>  <Ligand>  (1) 
BDBM65354

>  <SMILES>  (1) 
C/C=C\CCCC[C@@H]1CCc2c(C1)ccc(c2)[C@H]1CC[C@](C1)(N)COP(=O)(O)O

>  <CID>  (1) 
131953784.0

>  <ChEMBL ID>  (1) 
nan

>  <InChiKey>  (1) 
FKTSGAYZGSDVPR-PRGQDMMYSA-N

>  <InChi>  (1) 
InChI=1S/C23H36NO4P/c1-2-3-4-5-6-7-18-8-9-20-15-21(11-10-19(20)14-18)22-12-13-23(24,16-22)17-28-29(25,26)27/h2-3,10-11,15,18,22H,4-9,12-14,16-17,24H2,1H3,(H2,25,26,27)/b3-2-/t18-,22+,23-/m1/s1

>  <IUPAC Name>  (1) 
[(1R,3S)-1-amino-3-[(6R)-6-[(Z)-hept-5-enyl]-5,6,7,8-tetrahydronaphthalen-2-yl]cyclopentyl]methyl dihydrogen phosphate

$$$$
