
     RDKit          3D

 49 52  0  0  0  0  0  0  0  0999 V2000
    6.6343    0.5037    1.1869 C   0  0  0  0  0  0  0  0  0  0  0  0
    5.7639   -0.4858    1.1172 C   0  0  0  0  0  0  0  0  0  0  0  0
    4.9307   -0.7758   -0.0883 C   0  0  0  0  0  0  0  0  0  0  0  0
    3.5508   -0.6615    0.3430 N   0  0  0  0  0  0  0  0  0  0  0  0
    3.0445   -1.6429    1.2573 C   0  0  0  0  0  0  0  0  0  0  0  0
    1.5844   -1.6261    1.4920 C   0  0  0  0  0  0  0  0  0  0  0  0
    0.8070   -0.9935    0.3963 N   0  0  0  0  0  0  0  0  0  0  0  0
    1.3746    0.2105   -0.1010 C   0  0  0  0  0  0  0  0  0  0  0  0
    2.7415    0.4052   -0.1405 C   0  0  0  0  0  0  0  0  0  0  0  0
    3.2899    1.5709   -0.6275 C   0  0  0  0  0  0  0  0  0  0  0  0
    2.4100    2.5349   -1.0744 C   0  0  0  0  0  0  0  0  0  0  0  0
    1.0302    2.3615   -1.0444 C   0  0  0  0  0  0  0  0  0  0  0  0
    0.5248    1.1830   -0.5499 C   0  0  0  0  0  0  0  0  0  0  0  0
   -0.3591   -1.6002   -0.0591 C   0  0  0  0  0  0  0  0  0  0  0  0
   -0.6368   -2.7286    0.5484 O   0  0  0  0  0  0  0  0  0  0  0  0
   -1.3108   -1.2551   -1.0513 C   0  0  0  0  0  0  0  0  0  0  0  0
   -1.0033   -1.5617   -2.3841 C   0  0  0  0  0  0  0  0  0  0  0  0
   -1.8223   -1.2844   -3.4010 N   0  0  0  0  0  0  0  0  0  0  0  0
   -2.9924   -0.6846   -3.1317 C   0  0  0  0  0  0  0  0  0  0  0  0
   -3.3906   -0.3405   -1.8576 C   0  0  0  0  0  0  0  0  0  0  0  0
   -2.5439   -0.6289   -0.8151 C   0  0  0  0  0  0  0  0  0  0  0  0
   -2.8155   -0.3432    0.5111 O   0  0  0  0  0  0  0  0  0  0  0  0
   -4.0319    0.2172    0.8477 C   0  0  0  0  0  0  0  0  0  0  0  0
   -4.0040    1.4881    1.4054 C   0  0  0  0  0  0  0  0  0  0  0  0
   -5.1895    2.0957    1.7623 C   0  0  0  0  0  0  0  0  0  0  0  0
   -5.1672    3.6993    2.4668 Cl  0  0  0  0  0  0  0  0  0  0  0  0
   -6.3655    1.4120    1.5496 C   0  0  0  0  0  0  0  0  0  0  0  0
   -6.3962    0.1650    1.0030 C   0  0  0  0  0  0  0  0  0  0  0  0
   -5.2243   -0.4660    0.6374 C   0  0  0  0  0  0  0  0  0  0  0  0
   -5.2416   -2.0956   -0.0469 Cl  0  0  0  0  0  0  0  0  0  0  0  0
    7.2312    0.7082    2.0561 H   0  0  0  0  0  0  0  0  0  0  0  0
    6.7466    1.1396    0.3151 H   0  0  0  0  0  0  0  0  0  0  0  0
    5.6040   -1.1656    1.9669 H   0  0  0  0  0  0  0  0  0  0  0  0
    5.1252   -1.8316   -0.4482 H   0  0  0  0  0  0  0  0  0  0  0  0
    5.1964   -0.1486   -0.9460 H   0  0  0  0  0  0  0  0  0  0  0  0
    3.6077   -1.4933    2.2254 H   0  0  0  0  0  0  0  0  0  0  0  0
    3.4300   -2.6425    0.9006 H   0  0  0  0  0  0  0  0  0  0  0  0
    1.2339   -2.6614    1.6842 H   0  0  0  0  0  0  0  0  0  0  0  0
    1.3769   -1.0625    2.4347 H   0  0  0  0  0  0  0  0  0  0  0  0
    4.3502    1.6570   -0.6285 H   0  0  0  0  0  0  0  0  0  0  0  0
    2.8457    3.4670   -1.4641 H   0  0  0  0  0  0  0  0  0  0  0  0
    0.4104    3.1711   -1.4160 H   0  0  0  0  0  0  0  0  0  0  0  0
   -0.5251    1.0139   -0.5026 H   0  0  0  0  0  0  0  0  0  0  0  0
   -0.0639   -2.0449   -2.6159 H   0  0  0  0  0  0  0  0  0  0  0  0
   -3.6690   -0.4524   -3.9456 H   0  0  0  0  0  0  0  0  0  0  0  0
   -4.3364    0.1512   -1.6953 H   0  0  0  0  0  0  0  0  0  0  0  0
   -3.0929    2.0357    1.5781 H   0  0  0  0  0  0  0  0  0  0  0  0
   -7.3305    1.8617    1.8201 H   0  0  0  0  0  0  0  0  0  0  0  0
   -7.3322   -0.3751    0.8358 H   0  0  0  0  0  0  0  0  0  0  0  0
  1  2  2  0
  2  3  1  0
  3  4  1  0
  4  5  1  0
  5  6  1  0
  6  7  1  0
  7  8  1  0
  8  9  2  0
  9 10  1  0
 10 11  2  0
 11 12  1  0
 12 13  2  0
  7 14  1  0
 14 15  2  0
 14 16  1  0
 16 17  2  0
 17 18  1  0
 18 19  2  0
 19 20  1  0
 20 21  2  0
 21 22  1  0
 22 23  1  0
 23 24  2  0
 24 25  1  0
 25 26  1  0
 25 27  2  0
 27 28  1  0
 28 29  2  0
 29 30  1  0
  9  4  1  0
 21 16  1  0
 29 23  1  0
 13  8  1  0
  1 31  1  0
  1 32  1  0
  2 33  1  0
  3 34  1  0
  3 35  1  0
  5 36  1  0
  5 37  1  0
  6 38  1  0
  6 39  1  0
 10 40  1  0
 11 41  1  0
 12 42  1  0
 13 43  1  0
 17 44  1  0
 19 45  1  0
 20 46  1  0
 24 47  1  0
 27 48  1  0
 28 49  1  0
M  END
>  <Ligand ID>  (1) 
LIG0005641

>  <Ligand>  (1) 
CHEMBL2181238

>  <SMILES>  (1) 
C=CCN1CCN(c2c1cccc2)C(=O)c1cnccc1Oc1cc(Cl)ccc1Cl

>  <CID>  (1) 
71453901.0

>  <ChEMBL ID>  (1) 
nan

>  <InChiKey>  (1) 
KQHRXHIZWNAAIR-UHFFFAOYSA-N

>  <InChi>  (1) 
InChI=1S/C23H19Cl2N3O2/c1-2-11-27-12-13-28(20-6-4-3-5-19(20)27)23(29)17-15-26-10-9-21(17)30-22-14-16(24)7-8-18(22)25/h2-10,14-15H,1,11-13H2

>  <IUPAC Name>  (1) 
[4-(2,5-dichlorophenoxy)pyridin-3-yl]-(4-prop-2-enyl-2,3-dihydroquinoxalin-1-yl)methanone

$$$$
