
     RDKit          3D

155160  0  0  0  0  0  0  0  0999 V2000
   11.9600   -2.3173   -2.5307 C   0  0  0  0  0  0  0  0  0  0  0  0
   12.1846   -2.0205   -1.0675 C   0  0  0  0  0  0  0  0  0  0  0  0
   10.9475   -1.3289   -0.5046 C   0  0  0  0  0  0  0  0  0  0  0  0
    9.7176   -2.1854   -0.6360 C   0  0  0  0  0  0  0  0  0  0  0  0
    8.5436   -1.4640   -0.0530 C   0  0  2  0  0  0  0  0  0  0  0  0
    7.2765   -2.2629   -0.0868 C   0  0  0  0  0  0  0  0  0  0  0  0
    7.4425   -3.5145   -0.0494 O   0  0  0  0  0  0  0  0  0  0  0  0
    5.9938   -1.6360   -0.1462 N   0  0  0  0  0  0  0  0  0  0  0  0
    4.7278   -2.3117   -0.1890 C   0  0  1  0  0  0  0  0  0  0  0  0
    4.7065   -3.5513    0.7710 C   0  0  0  0  0  0  0  0  0  0  0  0
    3.3849   -4.2585    0.5006 C   0  0  0  0  0  0  0  0  0  0  0  0
    2.7709   -4.1230   -0.5713 O   0  0  0  0  0  0  0  0  0  0  0  0
    2.7740   -5.1039    1.4591 N   0  0  0  0  0  0  0  0  0  0  0  0
    1.5067   -5.7829    1.2721 C   0  0  0  0  0  0  0  0  0  0  0  0
    0.4155   -4.7681    1.0331 C   0  0  0  0  0  0  0  0  0  0  0  0
   -0.9461   -5.3839    0.9134 C   0  0  0  0  0  0  0  0  0  0  0  0
   -1.9892   -4.3926    0.7131 C   0  0  0  0  0  0  0  0  0  0  0  0
   -2.5297   -3.5343    1.7802 C   0  0  2  0  0  0  0  0  0  0  0  0
   -3.4406   -2.5287    1.1947 N   0  0  0  0  0  0  0  0  0  0  0  0
   -4.8855   -2.7082    1.2339 C   0  0  0  0  0  0  0  0  0  0  0  0
   -5.2345   -3.7651    1.7638 O   0  0  0  0  0  0  0  0  0  0  0  0
   -5.7861   -1.7151    0.6912 C   0  0  1  0  0  0  0  0  0  0  0  0
   -5.0935   -0.4705    0.2862 N   0  0  0  0  0  0  0  0  0  0  0  0
   -5.4908    0.7873    0.8313 C   0  0  0  0  0  0  0  0  0  0  0  0
   -6.4540    0.7110    1.6216 O   0  0  0  0  0  0  0  0  0  0  0  0
   -4.8816    2.0732    0.5394 C   0  0  1  0  0  0  0  0  0  0  0  0
   -3.7950    1.9579   -0.3837 N   0  0  0  0  0  0  0  0  0  0  0  0
   -2.4217    1.9938    0.0641 C   0  0  0  0  0  0  0  0  0  0  0  0
   -2.3252    2.0969    1.2895 O   0  0  0  0  0  0  0  0  0  0  0  0
   -1.1862    1.9229   -0.7109 C   0  0  2  0  0  0  0  0  0  0  0  0
   -0.0464    1.7438    0.2358 N   0  0  0  0  0  0  0  0  0  0  0  0
    1.0802    0.9679   -0.0568 C   0  0  0  0  0  0  0  0  0  0  0  0
    1.0890    0.5706   -1.2850 O   0  0  0  0  0  0  0  0  0  0  0  0
    2.1909    0.5574    0.7619 C   0  0  1  0  0  0  0  0  0  0  0  0
    3.3010   -0.1041   -0.0042 N   0  0  0  0  0  0  0  0  0  0  0  0
    3.5823   -1.4723    0.1576 C   0  0  0  0  0  0  0  0  0  0  0  0
    2.5973   -2.0506    0.7002 O   0  0  0  0  0  0  0  0  0  0  0  0
    4.0212    0.6386   -0.9649 C   0  0  0  0  0  0  0  0  0  0  0  0
    2.8366    1.5296    1.6569 C   0  0  0  0  0  0  0  0  0  0  0  0
    2.0728    2.1542    2.7436 C   0  0  0  0  0  0  0  0  0  0  0  0
    1.9606    1.5566    3.9656 N   0  0  0  0  0  0  0  0  0  0  0  0
    1.2754    2.3352    4.8086 C   0  0  0  0  0  0  0  0  0  0  0  0
    0.9329    3.4526    4.1435 N   0  0  0  0  0  0  0  0  0  0  0  0
    1.4149    3.3453    2.8925 C   0  0  0  0  0  0  0  0  0  0  0  0
   -1.0122    3.1636   -1.5229 C   0  0  0  0  0  0  0  0  0  0  0  0
   -0.9648    4.4293   -0.8021 C   0  0  0  0  0  0  0  0  0  0  0  0
   -2.1602    5.0948   -0.5699 C   0  0  0  0  0  0  0  0  0  0  0  0
   -2.2427    6.2980    0.0653 C   0  0  0  0  0  0  0  0  0  0  0  0
   -1.1100    6.9123    0.5107 C   0  0  0  0  0  0  0  0  0  0  0  0
    0.1037    6.2937    0.3037 C   0  0  0  0  0  0  0  0  0  0  0  0
    0.1792    5.0602   -0.3473 C   0  0  0  0  0  0  0  0  0  0  0  0
    1.2788    6.9235    0.7502 C   0  0  0  0  0  0  0  0  0  0  0  0
    1.1482    8.1368    1.3746 C   0  0  0  0  0  0  0  0  0  0  0  0
   -0.0674    8.7610    1.5819 C   0  0  0  0  0  0  0  0  0  0  0  0
   -1.2159    8.1452    1.1467 C   0  0  0  0  0  0  0  0  0  0  0  0
   -3.8999    1.7295   -1.7946 C   0  0  0  0  0  0  0  0  0  0  0  0
   -5.6535    3.2804    0.5230 C   0  0  0  0  0  0  0  0  0  0  0  0
   -6.8162    3.5992   -0.2919 C   0  0  0  0  0  0  0  0  0  0  0  0
   -6.7332    3.6805   -1.7734 C   0  0  0  0  0  0  0  0  0  0  0  0
   -5.7930    4.7458   -2.1728 N   0  0  0  0  0  0  0  0  0  0  0  0
   -5.7067    4.9601   -3.4433 C   0  0  0  0  0  0  0  0  0  0  0  0
   -6.4415    4.2493   -4.4248 N   0  0  0  0  0  0  0  0  0  0  0  0
   -4.7954    5.9939   -3.8341 N   0  0  0  0  0  0  0  0  0  0  0  0
   -6.5214   -2.2169   -0.5228 C   0  0  0  0  0  0  0  0  0  0  0  0
   -7.3158   -3.4122   -0.2894 C   0  0  0  0  0  0  0  0  0  0  0  0
   -8.6219   -3.4312    0.1463 C   0  0  0  0  0  0  0  0  0  0  0  0
   -9.0435   -4.6908    0.3320 N   0  0  0  0  0  0  0  0  0  0  0  0
   -8.0514   -5.5365    0.0297 C   0  0  0  0  0  0  0  0  0  0  0  0
   -6.9626   -4.7643   -0.3630 C   0  0  0  0  0  0  0  0  0  0  0  0
   -5.8299   -5.4490   -0.7520 C   0  0  0  0  0  0  0  0  0  0  0  0
   -5.7883   -6.8076   -0.7448 C   0  0  0  0  0  0  0  0  0  0  0  0
   -6.8789   -7.5811   -0.3488 C   0  0  0  0  0  0  0  0  0  0  0  0
   -8.0224   -6.9140    0.0418 C   0  0  0  0  0  0  0  0  0  0  0  0
   -1.7050   -2.9135    2.7712 C   0  0  0  0  0  0  0  0  0  0  0  0
   -0.9974   -3.5029    3.6600 O   0  0  0  0  0  0  0  0  0  0  0  0
   -1.6209   -1.4792    2.8227 N   0  0  0  0  0  0  0  0  0  0  0  0
    8.3294   -0.1428   -0.5585 N   0  0  0  0  0  0  0  0  0  0  0  0
    8.5356    0.2131   -1.9320 C   0  0  0  0  0  0  0  0  0  0  0  0
    8.9140   -0.6283   -2.8026 O   0  0  0  0  0  0  0  0  0  0  0  0
    8.2994    1.6259   -2.3765 C   0  0  0  0  0  0  0  0  0  0  0  0
   11.2680   -3.1873   -2.6008 H   0  0  0  0  0  0  0  0  0  0  0  0
   12.9283   -2.6925   -2.9508 H   0  0  0  0  0  0  0  0  0  0  0  0
   11.5485   -1.4650   -3.0965 H   0  0  0  0  0  0  0  0  0  0  0  0
   12.3232   -2.9671   -0.5281 H   0  0  0  0  0  0  0  0  0  0  0  0
   13.0520   -1.3303   -0.9193 H   0  0  0  0  0  0  0  0  0  0  0  0
   10.8280   -0.3678   -1.0146 H   0  0  0  0  0  0  0  0  0  0  0  0
   11.1307   -1.1535    0.6020 H   0  0  0  0  0  0  0  0  0  0  0  0
    9.5802   -2.5333   -1.6752 H   0  0  0  0  0  0  0  0  0  0  0  0
    9.8760   -3.1204   -0.0468 H   0  0  0  0  0  0  0  0  0  0  0  0
    8.8361   -1.3567    1.0521 H   0  0  0  0  0  0  0  0  0  0  0  0
    6.0521   -0.5686   -0.1598 H   0  0  0  0  0  0  0  0  0  0  0  0
    4.6338   -2.8032   -1.1772 H   0  0  0  0  0  0  0  0  0  0  0  0
    4.7332   -3.1575    1.7713 H   0  0  0  0  0  0  0  0  0  0  0  0
    5.4599   -4.2630    0.4414 H   0  0  0  0  0  0  0  0  0  0  0  0
    3.2925   -5.2261    2.3339 H   0  0  0  0  0  0  0  0  0  0  0  0
    1.5140   -6.4330    0.3667 H   0  0  0  0  0  0  0  0  0  0  0  0
    1.2725   -6.4448    2.1222 H   0  0  0  0  0  0  0  0  0  0  0  0
    0.5139   -3.8751    1.6373 H   0  0  0  0  0  0  0  0  0  0  0  0
    0.5932   -4.3491   -0.0373 H   0  0  0  0  0  0  0  0  0  0  0  0
   -1.1448   -6.1322    1.7166 H   0  0  0  0  0  0  0  0  0  0  0  0
   -0.8699   -6.0528   -0.0083 H   0  0  0  0  0  0  0  0  0  0  0  0
   -1.7403   -3.6843   -0.1475 H   0  0  0  0  0  0  0  0  0  0  0  0
   -2.9022   -4.9233    0.2492 H   0  0  0  0  0  0  0  0  0  0  0  0
   -3.2495   -4.2173    2.3667 H   0  0  0  0  0  0  0  0  0  0  0  0
   -3.1448   -1.6751    0.7433 H   0  0  0  0  0  0  0  0  0  0  0  0
   -6.5575   -1.5030    1.4537 H   0  0  0  0  0  0  0  0  0  0  0  0
   -4.3254   -0.4440   -0.3686 H   0  0  0  0  0  0  0  0  0  0  0  0
   -4.2956    2.1777    1.5894 H   0  0  0  0  0  0  0  0  0  0  0  0
   -1.1840    1.0540   -1.3896 H   0  0  0  0  0  0  0  0  0  0  0  0
   -0.1370    2.2132    1.1043 H   0  0  0  0  0  0  0  0  0  0  0  0
    1.7990   -0.2815    1.4728 H   0  0  0  0  0  0  0  0  0  0  0  0
    4.4204   -0.0376   -1.7772 H   0  0  0  0  0  0  0  0  0  0  0  0
    4.7884    1.2915   -0.5456 H   0  0  0  0  0  0  0  0  0  0  0  0
    3.3520    1.3325   -1.5484 H   0  0  0  0  0  0  0  0  0  0  0  0
    3.2961    2.4045    1.0845 H   0  0  0  0  0  0  0  0  0  0  0  0
    3.8162    1.0787    2.0904 H   0  0  0  0  0  0  0  0  0  0  0  0
    2.3570    0.6084    4.2449 H   0  0  0  0  0  0  0  0  0  0  0  0
    1.0591    2.0687    5.8556 H   0  0  0  0  0  0  0  0  0  0  0  0
    1.3271    4.0571    2.0668 H   0  0  0  0  0  0  0  0  0  0  0  0
   -0.0435    3.0388   -2.1122 H   0  0  0  0  0  0  0  0  0  0  0  0
   -1.7730    3.2221   -2.3203 H   0  0  0  0  0  0  0  0  0  0  0  0
   -3.0529    4.6369   -0.9186 H   0  0  0  0  0  0  0  0  0  0  0  0
   -3.2330    6.7237    0.1935 H   0  0  0  0  0  0  0  0  0  0  0  0
    1.1382    4.5751   -0.5018 H   0  0  0  0  0  0  0  0  0  0  0  0
    2.2100    6.4165    0.5797 H   0  0  0  0  0  0  0  0  0  0  0  0
    2.0206    8.6576    1.7281 H   0  0  0  0  0  0  0  0  0  0  0  0
   -0.0993    9.7174    2.0733 H   0  0  0  0  0  0  0  0  0  0  0  0
   -2.1507    8.6389    1.3113 H   0  0  0  0  0  0  0  0  0  0  0  0
   -3.0209    1.2106   -2.2387 H   0  0  0  0  0  0  0  0  0  0  0  0
   -4.8268    1.1346   -2.0158 H   0  0  0  0  0  0  0  0  0  0  0  0
   -4.0315    2.7003   -2.2896 H   0  0  0  0  0  0  0  0  0  0  0  0
   -4.9685    4.1931    0.4037 H   0  0  0  0  0  0  0  0  0  0  0  0
   -6.0094    3.5208    1.6098 H   0  0  0  0  0  0  0  0  0  0  0  0
   -7.1130    4.6754   -0.0027 H   0  0  0  0  0  0  0  0  0  0  0  0
   -7.7642    3.0716    0.0416 H   0  0  0  0  0  0  0  0  0  0  0  0
   -6.4666    2.7877   -2.3185 H   0  0  0  0  0  0  0  0  0  0  0  0
   -7.7494    4.0698   -2.1014 H   0  0  0  0  0  0  0  0  0  0  0  0
   -5.9736    3.4358   -4.8849 H   0  0  0  0  0  0  0  0  0  0  0  0
   -7.4234    4.5519   -4.6675 H   0  0  0  0  0  0  0  0  0  0  0  0
   -5.1121    7.0027   -3.8862 H   0  0  0  0  0  0  0  0  0  0  0  0
   -3.8244    5.6895   -4.0608 H   0  0  0  0  0  0  0  0  0  0  0  0
   -7.1193   -1.3980   -1.0000 H   0  0  0  0  0  0  0  0  0  0  0  0
   -5.7731   -2.4830   -1.3276 H   0  0  0  0  0  0  0  0  0  0  0  0
   -9.2304   -2.5473    0.3179 H   0  0  0  0  0  0  0  0  0  0  0  0
   -9.9998   -4.9519    0.6590 H   0  0  0  0  0  0  0  0  0  0  0  0
   -4.9860   -4.8136   -1.0713 H   0  0  0  0  0  0  0  0  0  0  0  0
   -4.8871   -7.3222   -1.0589 H   0  0  0  0  0  0  0  0  0  0  0  0
   -6.7557   -8.6400   -0.3697 H   0  0  0  0  0  0  0  0  0  0  0  0
   -8.8557   -7.5210    0.3482 H   0  0  0  0  0  0  0  0  0  0  0  0
   -0.6573   -1.1134    2.5417 H   0  0  0  0  0  0  0  0  0  0  0  0
   -2.3837   -0.8712    3.0998 H   0  0  0  0  0  0  0  0  0  0  0  0
    8.0054    0.6141    0.0912 H   0  0  0  0  0  0  0  0  0  0  0  0
    7.2229    1.7896   -2.4913 H   0  0  0  0  0  0  0  0  0  0  0  0
    8.7046    2.3036   -1.5905 H   0  0  0  0  0  0  0  0  0  0  0  0
    8.8640    1.7760   -3.3210 H   0  0  0  0  0  0  0  0  0  0  0  0
  1  2  1  0
  2  3  1  0
  3  4  1  0
  4  5  1  0
  5  6  1  0
  6  7  2  0
  6  8  1  0
  8  9  1  0
  9 10  1  0
 10 11  1  0
 11 12  2  0
 11 13  1  0
 13 14  1  0
 14 15  1  0
 15 16  1  0
 16 17  1  0
 17 18  1  0
 18 19  1  0
 19 20  1  0
 20 21  2  0
 20 22  1  0
 22 23  1  0
 23 24  1  0
 24 25  2  0
 24 26  1  0
 26 27  1  0
 27 28  1  0
 28 29  2  0
 28 30  1  0
 30 31  1  0
 31 32  1  0
 32 33  2  0
 32 34  1  0
 34 35  1  0
 35 36  1  0
 36 37  2  0
 35 38  1  0
 34 39  1  0
 39 40  1  0
 40 41  1  0
 41 42  1  0
 42 43  2  0
 43 44  1  0
 30 45  1  0
 45 46  1  0
 46 47  2  0
 47 48  1  0
 48 49  2  0
 49 50  1  0
 50 51  2  0
 50 52  1  0
 52 53  2  0
 53 54  1  0
 54 55  2  0
 27 56  1  0
 26 57  1  0
 57 58  1  0
 58 59  1  0
 59 60  1  0
 60 61  2  3
 61 62  1  0
 61 63  1  0
 22 64  1  0
 64 65  1  0
 65 66  2  0
 66 67  1  0
 67 68  1  0
 68 69  2  0
 69 70  1  0
 70 71  2  0
 71 72  1  0
 72 73  2  0
 18 74  1  0
 74 75  2  0
 74 76  1  0
  5 77  1  0
 77 78  1  0
 78 79  2  0
 78 80  1  0
 36  9  1  0
 44 40  2  0
 51 46  1  0
 69 65  1  0
 55 49  1  0
 73 68  1  0
  1 81  1  0
  1 82  1  0
  1 83  1  0
  2 84  1  0
  2 85  1  0
  3 86  1  0
  3 87  1  0
  4 88  1  0
  4 89  1  0
  5 90  1  1
  8 91  1  0
  9 92  1  6
 10 93  1  0
 10 94  1  0
 13 95  1  0
 14 96  1  0
 14 97  1  0
 15 98  1  0
 15 99  1  0
 16100  1  0
 16101  1  0
 17102  1  0
 17103  1  0
 18104  1  1
 19105  1  0
 22106  1  1
 23107  1  0
 26108  1  1
 30109  1  6
 31110  1  0
 34111  1  1
 38112  1  0
 38113  1  0
 38114  1  0
 39115  1  0
 39116  1  0
 41117  1  0
 42118  1  0
 44119  1  0
 45120  1  0
 45121  1  0
 47122  1  0
 48123  1  0
 51124  1  0
 52125  1  0
 53126  1  0
 54127  1  0
 55128  1  0
 56129  1  0
 56130  1  0
 56131  1  0
 57132  1  0
 57133  1  0
 58134  1  0
 58135  1  0
 59136  1  0
 59137  1  0
 62138  1  0
 62139  1  0
 63140  1  0
 63141  1  0
 64142  1  0
 64143  1  0
 66144  1  0
 67145  1  0
 70146  1  0
 71147  1  0
 72148  1  0
 73149  1  0
 76150  1  0
 76151  1  0
 77152  1  0
 80153  1  0
 80154  1  0
 80155  1  0
M  END
>  <Ligand ID>  (1) 
LIG0001826

>  <Ligand>  (1) 
CHEMBL3600912

>  <SMILES>  (1) 
CCCC[C@H](C(=O)N[C@H]1CC(=O)NCCCC[C@H](NC(=O)[C@@H](NC(=O)[C@@H](N(C(=O)[C@H](NC(=O)[C@@H](N(C1=O)C)Cc1[nH]cnc1)Cc1ccc2c(c1)cccc2)C)CCCN=C(N)N)Cc1c[nH]c2c1cccc2)C(=O)N)NC(=O)C

>  <CID>  (1) 
122184631.0

>  <ChEMBL ID>  (1) 
nan

>  <InChiKey>  (1) 
KRKYTJXTDCSSJS-PGMQRQGHSA-N

>  <InChi>  (1) 
InChI=1S/C56H75N15O9/c1-5-6-17-42(65-33(2)72)50(75)68-45-29-48(73)61-23-12-11-19-41(49(57)74)66-51(76)43(27-37-30-63-40-18-10-9-16-39(37)40)67-52(77)46(20-13-24-62-56(58)59)70(3)54(79)44(26-34-21-22-35-14-7-8-15-36(35)25-34)69-53(78)47(71(4)55(45)80)28-38-31-60-32-64-38/h7-10,14-16,18,21-22,25,30-32,41-47,63H,5-6,11-13,17,19-20,23-24,26-29H2,1-4H3,(H2,57,74)(H,60,64)(H,61,73)(H,65,72)(H,66,76)(H,67,77)(H,68,75)(H,69,78)(H4,58,59,62)/t41-,42+,43-,44+,45-,46-,47-/m0/s1

>  <IUPAC Name>  (1) 
(3S,6S,9R,12S,15S,23S)-15-[[(2R)-2-acetamidohexanoyl]amino]-6-[3-(diaminomethylideneamino)propyl]-12-(1H-imidazol-5-ylmethyl)-3-(1H-indol-3-ylmethyl)-7,13-dimethyl-9-(naphthalen-2-ylmethyl)-2,5,8,11,14,17-hexaoxo-1,4,7,10,13,18-hexazacyclotricosane-23-carboxamide

$$$$
