
     RDKit          3D

 78 81  0  0  0  0  0  0  0  0999 V2000
   -3.9538    1.7493   -2.7639 C   0  0  0  0  0  0  0  0  0  0  0  0
   -3.5950    0.7915   -1.7218 N   0  0  0  0  0  0  0  0  0  0  0  0
   -2.2974    0.9174   -1.1471 C   0  0  0  0  0  0  0  0  0  0  0  0
   -1.5781    1.8402   -1.5978 O   0  0  0  0  0  0  0  0  0  0  0  0
   -1.8757   -0.0260   -0.0794 C   0  0  1  0  0  0  0  0  0  0  0  0
   -0.4231    0.0034    0.0257 N   0  0  0  0  0  0  0  0  0  0  0  0
    0.1831    1.2300    0.4753 C   0  0  0  0  0  0  0  0  0  0  0  0
    1.6088    0.8982    0.9724 C   0  0  0  0  0  0  0  0  0  0  0  0
    2.3123    0.1803   -0.0879 N   0  0  0  0  0  0  0  0  0  0  0  0
    1.8171   -1.1647   -0.4539 C   0  0  2  0  0  0  0  0  0  0  0  0
    0.3697   -1.1693   -0.3047 C   0  0  0  0  0  0  0  0  0  0  0  0
   -0.3455   -2.2227   -0.4546 O   0  0  0  0  0  0  0  0  0  0  0  0
    2.5231   -2.1002    0.4747 C   0  0  0  0  0  0  0  0  0  0  0  0
    2.1537   -3.5323    0.2251 C   0  0  0  0  0  0  0  0  0  0  0  0
    2.9408   -4.4463    1.1737 C   0  0  0  0  0  0  0  0  0  0  0  0
    2.6291   -5.8043    0.9733 N   0  0  0  0  0  0  0  0  0  0  0  0
    1.9266   -6.3691    0.0968 C   0  0  0  0  0  0  0  0  0  0  0  0
    1.2218   -5.7920   -0.9767 N   0  0  0  0  0  0  0  0  0  0  0  0
    1.8254   -7.8132    0.1994 N   0  0  0  0  0  0  0  0  0  0  0  0
    3.4390    0.7149   -0.7648 C   0  0  0  0  0  0  0  0  0  0  0  0
    3.9986    0.0350   -1.6791 O   0  0  0  0  0  0  0  0  0  0  0  0
    3.9197    2.0649   -0.3676 C   0  0  0  0  0  0  0  0  0  0  0  0
    5.1635    2.3467   -1.2127 C   0  0  0  0  0  0  0  0  0  0  0  0
    5.7532    3.6746   -0.9115 C   0  0  0  0  0  0  0  0  0  0  0  0
    5.3123    4.7546   -1.6443 C   0  0  0  0  0  0  0  0  0  0  0  0
    5.7848    6.0389   -1.4574 C   0  0  0  0  0  0  0  0  0  0  0  0
    6.7477    6.2221   -0.4788 C   0  0  0  0  0  0  0  0  0  0  0  0
    7.1975    5.1523    0.2609 C   0  0  0  0  0  0  0  0  0  0  0  0
    6.7191    3.8611    0.0689 C   0  0  0  0  0  0  0  0  0  0  0  0
    7.2432    7.4673   -0.2593 F   0  0  0  0  0  0  0  0  0  0  0  0
   -2.5381    0.3493    1.1971 C   0  0  0  0  0  0  0  0  0  0  0  0
   -4.0086    0.3473    1.1855 C   0  0  0  0  0  0  0  0  0  0  0  0
   -4.6455    1.5630    0.9043 C   0  0  0  0  0  0  0  0  0  0  0  0
   -6.0234    1.6721    0.8705 C   0  0  0  0  0  0  0  0  0  0  0  0
   -6.7675    0.5389    1.1239 C   0  0  0  0  0  0  0  0  0  0  0  0
   -6.1664   -0.6829    1.4058 C   0  0  0  0  0  0  0  0  0  0  0  0
   -4.7894   -0.7654    1.4336 C   0  0  0  0  0  0  0  0  0  0  0  0
   -6.9820   -1.7854    1.6525 C   0  0  0  0  0  0  0  0  0  0  0  0
   -8.3714   -1.6753    1.6205 C   0  0  0  0  0  0  0  0  0  0  0  0
   -8.9370   -0.4417    1.3360 C   0  0  0  0  0  0  0  0  0  0  0  0
   -8.1361    0.6460    1.0923 C   0  0  0  0  0  0  0  0  0  0  0  0
   -4.5943    1.2915   -3.5286 H   0  0  0  0  0  0  0  0  0  0  0  0
   -4.4847    2.5794   -2.2704 H   0  0  0  0  0  0  0  0  0  0  0  0
   -3.0359    2.1149   -3.2803 H   0  0  0  0  0  0  0  0  0  0  0  0
   -4.2895    0.0785   -1.4706 H   0  0  0  0  0  0  0  0  0  0  0  0
   -2.1632   -1.0364   -0.4148 H   0  0  0  0  0  0  0  0  0  0  0  0
   -0.2793    1.7184    1.3255 H   0  0  0  0  0  0  0  0  0  0  0  0
    0.3629    1.8692   -0.4157 H   0  0  0  0  0  0  0  0  0  0  0  0
    1.4605    0.2028    1.8202 H   0  0  0  0  0  0  0  0  0  0  0  0
    2.1114    1.8266    1.2381 H   0  0  0  0  0  0  0  0  0  0  0  0
    2.1006   -1.3344   -1.5201 H   0  0  0  0  0  0  0  0  0  0  0  0
    3.6401   -2.0510    0.3567 H   0  0  0  0  0  0  0  0  0  0  0  0
    2.3550   -1.8127    1.5379 H   0  0  0  0  0  0  0  0  0  0  0  0
    1.0745   -3.6624    0.4782 H   0  0  0  0  0  0  0  0  0  0  0  0
    2.4156   -3.7768   -0.8157 H   0  0  0  0  0  0  0  0  0  0  0  0
    4.0333   -4.2094    0.9875 H   0  0  0  0  0  0  0  0  0  0  0  0
    2.7245   -4.0853    2.2256 H   0  0  0  0  0  0  0  0  0  0  0  0
    0.2386   -5.4006   -0.9056 H   0  0  0  0  0  0  0  0  0  0  0  0
    1.6475   -5.7239   -1.9310 H   0  0  0  0  0  0  0  0  0  0  0  0
    0.9734   -8.2797    0.5585 H   0  0  0  0  0  0  0  0  0  0  0  0
    2.6884   -8.3241   -0.1213 H   0  0  0  0  0  0  0  0  0  0  0  0
    4.1616    2.0637    0.7066 H   0  0  0  0  0  0  0  0  0  0  0  0
    3.1244    2.8156   -0.5971 H   0  0  0  0  0  0  0  0  0  0  0  0
    5.8769    1.5195   -0.9600 H   0  0  0  0  0  0  0  0  0  0  0  0
    4.9415    2.2253   -2.2826 H   0  0  0  0  0  0  0  0  0  0  0  0
    4.5611    4.6289   -2.4108 H   0  0  0  0  0  0  0  0  0  0  0  0
    5.3990    6.8559   -2.0690 H   0  0  0  0  0  0  0  0  0  0  0  0
    7.9444    5.3617    1.0061 H   0  0  0  0  0  0  0  0  0  0  0  0
    7.0590    3.0255    0.6358 H   0  0  0  0  0  0  0  0  0  0  0  0
   -2.2490   -0.4076    1.9861 H   0  0  0  0  0  0  0  0  0  0  0  0
   -2.2216    1.3143    1.6153 H   0  0  0  0  0  0  0  0  0  0  0  0
   -4.0161    2.4440    0.7085 H   0  0  0  0  0  0  0  0  0  0  0  0
   -6.4874    2.6100    0.6524 H   0  0  0  0  0  0  0  0  0  0  0  0
   -4.3041   -1.7102    1.6518 H   0  0  0  0  0  0  0  0  0  0  0  0
   -6.5054   -2.7408    1.8726 H   0  0  0  0  0  0  0  0  0  0  0  0
   -8.9961   -2.5182    1.8088 H   0  0  0  0  0  0  0  0  0  0  0  0
  -10.0112   -0.3386    1.3080 H   0  0  0  0  0  0  0  0  0  0  0  0
   -8.6126    1.5981    0.8732 H   0  0  0  0  0  0  0  0  0  0  0  0
  1  2  1  0
  2  3  1  0
  3  4  2  0
  3  5  1  0
  5  6  1  0
  6  7  1  0
  7  8  1  0
  8  9  1  0
  9 10  1  0
 10 11  1  0
 11 12  2  0
 10 13  1  0
 13 14  1  0
 14 15  1  0
 15 16  1  0
 16 17  2  3
 17 18  1  0
 17 19  1  0
  9 20  1  0
 20 21  2  0
 20 22  1  0
 22 23  1  0
 23 24  1  0
 24 25  2  0
 25 26  1  0
 26 27  2  0
 27 28  1  0
 28 29  2  0
 27 30  1  0
  5 31  1  0
 31 32  1  0
 32 33  2  0
 33 34  1  0
 34 35  2  0
 35 36  1  0
 36 37  2  0
 36 38  1  0
 38 39  2  0
 39 40  1  0
 40 41  2  0
 11  6  1  0
 29 24  1  0
 37 32  1  0
 41 35  1  0
  1 42  1  0
  1 43  1  0
  1 44  1  0
  2 45  1  0
  5 46  1  6
  7 47  1  0
  7 48  1  0
  8 49  1  0
  8 50  1  0
 10 51  1  6
 13 52  1  0
 13 53  1  0
 14 54  1  0
 14 55  1  0
 15 56  1  0
 15 57  1  0
 18 58  1  0
 18 59  1  0
 19 60  1  0
 19 61  1  0
 22 62  1  0
 22 63  1  0
 23 64  1  0
 23 65  1  0
 25 66  1  0
 26 67  1  0
 28 68  1  0
 29 69  1  0
 31 70  1  0
 31 71  1  0
 33 72  1  0
 34 73  1  0
 37 74  1  0
 38 75  1  0
 39 76  1  0
 40 77  1  0
 41 78  1  0
M  END
>  <Ligand ID>  (1) 
LIG0004646

>  <Ligand>  (1) 
CHEMBL215576

>  <SMILES>  (1) 
CNC(=O)[C@@H](N1CCN([C@H](C1=O)CCCN=C(N)N)C(=O)CCc1ccc(cc1)F)Cc1ccc2c(c1)cccc2

>  <CID>  (1) 
44416152.0

>  <ChEMBL ID>  (1) 
nan

>  <InChiKey>  (1) 
SJRCSWXLNHDZIX-SVBPBHIXSA-N

>  <InChi>  (1) 
InChI=1S/C31H37FN6O3/c1-35-29(40)27(20-22-8-12-23-5-2-3-6-24(23)19-22)38-18-17-37(26(30(38)41)7-4-16-36-31(33)34)28(39)15-11-21-9-13-25(32)14-10-21/h2-3,5-6,8-10,12-14,19,26-27H,4,7,11,15-18,20H2,1H3,(H,35,40)(H4,33,34,36)/t26-,27-/m0/s1

>  <IUPAC Name>  (1) 
(2S)-2-[(3S)-3-[3-(diaminomethylideneamino)propyl]-4-[3-(4-fluorophenyl)propanoyl]-2-oxopiperazin-1-yl]-N-methyl-3-naphthalen-2-ylpropanamide

$$$$
