
     RDKit          3D

 47 47  0  0  0  0  0  0  0  0999 V2000
    0.7463   -2.1757   -0.5746 O   0  0  0  0  0  0  0  0  0  0  0  0
    0.0745   -1.5269    0.2917 C   0  0  0  0  0  0  0  0  0  0  0  0
   -1.3567   -1.7647    0.5175 C   0  0  2  0  0  0  0  0  0  0  0  0
   -2.1977   -1.4864   -0.7073 C   0  0  0  0  0  0  0  0  0  0  0  0
   -3.6331   -1.7767   -0.3132 C   0  0  0  0  0  0  0  0  0  0  0  0
   -4.5104   -1.5132   -1.5031 C   0  0  0  0  0  0  0  0  0  0  0  0
   -4.3440   -0.1123   -1.8723 N   0  0  0  0  0  0  0  0  0  0  0  0
   -5.3617    0.6838   -1.7382 C   0  0  0  0  0  0  0  0  0  0  0  0
   -6.5614    0.1065   -1.2363 N   0  0  0  0  0  0  0  0  0  0  0  0
   -5.2436    2.0563   -2.0862 N   0  0  0  0  0  0  0  0  0  0  0  0
   -1.8945   -0.8882    1.5688 N   0  0  0  0  0  0  0  0  0  0  0  0
    0.7681   -0.5430    1.0506 N   0  0  0  0  0  0  0  0  0  0  0  0
    2.2021   -0.3026    0.8266 C   0  0  2  0  0  0  0  0  0  0  0  0
    2.9369   -0.6781    2.0541 C   0  0  0  0  0  0  0  0  0  0  0  0
    4.1842   -0.6020    2.1821 O   0  0  0  0  0  0  0  0  0  0  0  0
    2.2281   -1.1702    3.2111 N   0  0  0  0  0  0  0  0  0  0  0  0
    2.4058    1.1258    0.4225 C   0  0  0  0  0  0  0  0  0  0  0  0
    3.8258    1.4772    0.1728 C   0  0  0  0  0  0  0  0  0  0  0  0
    4.6481    1.9682    1.1446 C   0  0  0  0  0  0  0  0  0  0  0  0
    5.9586    2.2722    0.8503 C   0  0  0  0  0  0  0  0  0  0  0  0
    6.4824    2.0962   -0.4130 C   0  0  0  0  0  0  0  0  0  0  0  0
    5.6630    1.5992   -1.4116 C   0  0  0  0  0  0  0  0  0  0  0  0
    4.3690    1.3065   -1.0922 C   0  0  0  0  0  0  0  0  0  0  0  0
   -1.5316   -2.7909    0.8407 H   0  0  0  0  0  0  0  0  0  0  0  0
   -1.8915   -2.0230   -1.6049 H   0  0  0  0  0  0  0  0  0  0  0  0
   -2.1323   -0.3810   -0.8998 H   0  0  0  0  0  0  0  0  0  0  0  0
   -3.6975   -2.8352    0.0252 H   0  0  0  0  0  0  0  0  0  0  0  0
   -3.8851   -1.1389    0.5622 H   0  0  0  0  0  0  0  0  0  0  0  0
   -4.1361   -2.1674   -2.3213 H   0  0  0  0  0  0  0  0  0  0  0  0
   -5.5767   -1.7375   -1.2973 H   0  0  0  0  0  0  0  0  0  0  0  0
   -6.8464    0.2430   -0.2519 H   0  0  0  0  0  0  0  0  0  0  0  0
   -7.1696   -0.4627   -1.8560 H   0  0  0  0  0  0  0  0  0  0  0  0
   -5.1872    2.7529   -1.3246 H   0  0  0  0  0  0  0  0  0  0  0  0
   -5.2156    2.3413   -3.0817 H   0  0  0  0  0  0  0  0  0  0  0  0
   -1.6789    0.0822    1.2288 H   0  0  0  0  0  0  0  0  0  0  0  0
   -1.3396   -1.0633    2.4219 H   0  0  0  0  0  0  0  0  0  0  0  0
    0.3172    0.0430    1.7824 H   0  0  0  0  0  0  0  0  0  0  0  0
    2.5837   -0.9817    0.0252 H   0  0  0  0  0  0  0  0  0  0  0  0
    1.4112   -0.6156    3.5715 H   0  0  0  0  0  0  0  0  0  0  0  0
    2.5139   -2.0545    3.6835 H   0  0  0  0  0  0  0  0  0  0  0  0
    1.9658    1.8311    1.1540 H   0  0  0  0  0  0  0  0  0  0  0  0
    1.8782    1.2890   -0.5510 H   0  0  0  0  0  0  0  0  0  0  0  0
    4.2968    2.1304    2.1503 H   0  0  0  0  0  0  0  0  0  0  0  0
    6.5833    2.6612    1.6504 H   0  0  0  0  0  0  0  0  0  0  0  0
    7.5209    2.3406   -0.6324 H   0  0  0  0  0  0  0  0  0  0  0  0
    6.0934    1.4688   -2.3949 H   0  0  0  0  0  0  0  0  0  0  0  0
    3.7339    0.9165   -1.8840 H   0  0  0  0  0  0  0  0  0  0  0  0
  1  2  2  0
  2  3  1  0
  3  4  1  0
  4  5  1  0
  5  6  1  0
  6  7  1  0
  7  8  2  3
  8  9  1  0
  8 10  1  0
  3 11  1  0
  2 12  1  0
 12 13  1  0
 13 14  1  0
 14 15  2  0
 14 16  1  0
 13 17  1  0
 17 18  1  0
 18 19  2  0
 19 20  1  0
 20 21  2  0
 21 22  1  0
 22 23  2  0
 23 18  1  0
  3 24  1  1
  4 25  1  0
  4 26  1  0
  5 27  1  0
  5 28  1  0
  6 29  1  0
  6 30  1  0
  9 31  1  0
  9 32  1  0
 10 33  1  0
 10 34  1  0
 11 35  1  0
 11 36  1  0
 12 37  1  0
 13 38  1  6
 16 39  1  0
 16 40  1  0
 17 41  1  0
 17 42  1  0
 19 43  1  0
 20 44  1  0
 21 45  1  0
 22 46  1  0
 23 47  1  0
M  END
>  <Ligand ID>  (1) 
LIG0002615

>  <Ligand>  (1) 
Rfamide

>  <SMILES>  (1) 
O=C([C@H](CCCN=C(N)N)N)N[C@H](C(=O)N)Cc1ccccc1

>  <CID>  (1) 
122185.0

>  <ChEMBL ID>  (1) 
nan

>  <InChiKey>  (1) 
CQZWLVDDIOZTJI-RYUDHWBXSA-N

>  <InChi>  (1) 
InChI=1S/C15H24N6O2/c16-11(7-4-8-20-15(18)19)14(23)21-12(13(17)22)9-10-5-2-1-3-6-10/h1-3,5-6,11-12H,4,7-9,16H2,(H2,17,22)(H,21,23)(H4,18,19,20)/t11-,12-/m0/s1

>  <IUPAC Name>  (1) 
(2S)-2-amino-N-[(2S)-1-amino-1-oxo-3-phenylpropan-2-yl]-5-(diaminomethylideneamino)pentanamide

$$$$
