
     RDKit          3D

 49 51  0  0  0  0  0  0  0  0999 V2000
    4.7641    2.0456   -0.2957 O   0  0  0  0  0  0  0  0  0  0  0  0
    5.7118    1.0822   -0.0292 C   0  0  0  0  0  0  0  0  0  0  0  0
    6.9448    1.4154   -0.0682 O   0  0  0  0  0  0  0  0  0  0  0  0
    5.4198   -0.3236    0.3025 C   0  0  0  0  0  0  0  0  0  0  0  0
    3.9530   -0.6603    0.3290 C   0  0  0  0  0  0  0  0  0  0  0  0
    3.2793   -0.4173   -0.9996 C   0  0  0  0  0  0  0  0  0  0  0  0
    1.9271   -1.1072   -0.9204 C   0  0  0  0  0  0  0  0  0  0  0  0
    1.0797   -0.2944    0.0471 C   0  0  0  0  0  0  0  0  0  0  0  0
    1.9315    0.7435    0.7927 C   0  0  0  0  0  0  0  0  0  0  0  0
    3.1978    0.1341    1.3555 C   0  0  0  0  0  0  0  0  0  0  0  0
    0.1020    0.4754   -0.8109 C   0  0  0  0  0  0  0  0  0  0  0  0
   -1.0177    0.9413    0.0984 C   0  0  0  0  0  0  0  0  0  0  0  0
   -1.8015   -0.2561    0.3691 N   0  0  0  0  0  0  0  0  0  0  0  0
   -1.0586   -1.4190    0.8069 C   0  0  0  0  0  0  0  0  0  0  0  0
    0.3868   -1.1316    1.0524 C   0  0  0  0  0  0  0  0  0  0  0  0
   -3.2099   -0.3196    0.2302 C   0  0  0  0  0  0  0  0  0  0  0  0
   -3.9951    0.7619   -0.1088 C   0  0  0  0  0  0  0  0  0  0  0  0
   -5.3736    0.6838   -0.2355 C   0  0  0  0  0  0  0  0  0  0  0  0
   -6.0332   -0.5072   -0.0226 C   0  0  0  0  0  0  0  0  0  0  0  0
   -5.2711   -1.6025    0.3173 C   0  0  0  0  0  0  0  0  0  0  0  0
   -3.8904   -1.5189    0.4428 C   0  0  0  0  0  0  0  0  0  0  0  0
   -3.2537   -2.6638    0.7778 F   0  0  0  0  0  0  0  0  0  0  0  0
   -6.1696    1.8806   -0.6030 C   0  0  0  0  0  0  0  0  0  0  0  0
   -7.3826    1.7682    0.0795 F   0  0  0  0  0  0  0  0  0  0  0  0
   -5.5220    3.0270   -0.1730 F   0  0  0  0  0  0  0  0  0  0  0  0
   -6.4126    1.9308   -1.9719 F   0  0  0  0  0  0  0  0  0  0  0  0
    4.9415    2.7787   -0.9736 H   0  0  0  0  0  0  0  0  0  0  0  0
    5.8111   -0.5155    1.3348 H   0  0  0  0  0  0  0  0  0  0  0  0
    5.9554   -1.0336   -0.3518 H   0  0  0  0  0  0  0  0  0  0  0  0
    3.8728   -1.7490    0.5269 H   0  0  0  0  0  0  0  0  0  0  0  0
    3.9188   -0.8692   -1.7871 H   0  0  0  0  0  0  0  0  0  0  0  0
    3.1668    0.6396   -1.2555 H   0  0  0  0  0  0  0  0  0  0  0  0
    1.4923   -1.1790   -1.9219 H   0  0  0  0  0  0  0  0  0  0  0  0
    2.0714   -2.1276   -0.5094 H   0  0  0  0  0  0  0  0  0  0  0  0
    1.3230    1.0484    1.6904 H   0  0  0  0  0  0  0  0  0  0  0  0
    2.0865    1.6228    0.1679 H   0  0  0  0  0  0  0  0  0  0  0  0
    2.9015   -0.4629    2.2425 H   0  0  0  0  0  0  0  0  0  0  0  0
    3.8097    0.9727    1.7114 H   0  0  0  0  0  0  0  0  0  0  0  0
    0.5701    1.3786   -1.2467 H   0  0  0  0  0  0  0  0  0  0  0  0
   -0.3619   -0.1778   -1.5843 H   0  0  0  0  0  0  0  0  0  0  0  0
   -0.6615    1.4495    1.0030 H   0  0  0  0  0  0  0  0  0  0  0  0
   -1.5641    1.7079   -0.4844 H   0  0  0  0  0  0  0  0  0  0  0  0
   -1.1369   -2.2003    0.0415 H   0  0  0  0  0  0  0  0  0  0  0  0
   -1.4706   -1.7178    1.8123 H   0  0  0  0  0  0  0  0  0  0  0  0
    0.8909   -2.1424    1.0890 H   0  0  0  0  0  0  0  0  0  0  0  0
    0.5268   -0.7338    2.0860 H   0  0  0  0  0  0  0  0  0  0  0  0
   -3.5583    1.7264   -0.2899 H   0  0  0  0  0  0  0  0  0  0  0  0
   -7.1085   -0.5259   -0.1313 H   0  0  0  0  0  0  0  0  0  0  0  0
   -5.7829   -2.5583    0.4900 H   0  0  0  0  0  0  0  0  0  0  0  0
  1  2  1  0
  2  3  2  0
  2  4  1  0
  4  5  1  0
  5  6  1  0
  6  7  1  0
  7  8  1  0
  8  9  1  0
  9 10  1  0
  8 11  1  0
 11 12  1  0
 12 13  1  0
 13 14  1  0
 14 15  1  0
 13 16  1  0
 16 17  2  0
 17 18  1  0
 18 19  2  0
 19 20  1  0
 20 21  2  0
 21 22  1  0
 18 23  1  0
 23 24  1  0
 23 25  1  0
 23 26  1  0
 10  5  1  0
 21 16  1  0
 15  8  1  0
  1 27  1  0
  4 28  1  0
  4 29  1  0
  5 30  1  0
  6 31  1  0
  6 32  1  0
  7 33  1  0
  7 34  1  0
  9 35  1  0
  9 36  1  0
 10 37  1  0
 10 38  1  0
 11 39  1  0
 11 40  1  0
 12 41  1  0
 12 42  1  0
 14 43  1  0
 14 44  1  0
 15 45  1  0
 15 46  1  0
 17 47  1  0
 19 48  1  0
 20 49  1  0
M  END
>  <Ligand ID>  (1) 
LIG0002976

>  <Ligand>  (1) 
CHEMBL3947837

>  <SMILES>  (1) 
OC(=O)CC1CCC2(CC1)CCN(CC2)c1cc(ccc1F)C(F)(F)F

>  <CID>  (1) 
73777111.0

>  <ChEMBL ID>  (1) 
nan

>  <InChiKey>  (1) 
IYMUTHHMEOHTBM-UHFFFAOYSA-N

>  <InChi>  (1) 
InChI=1S/C19H23F4NO2/c20-15-2-1-14(19(21,22)23)12-16(15)24-9-7-18(8-10-24)5-3-13(4-6-18)11-17(25)26/h1-2,12-13H,3-11H2,(H,25,26)

>  <IUPAC Name>  (1) 
2-[3-[2-fluoro-5-(trifluoromethyl)phenyl]-3-azaspiro[5.5]undecan-9-yl]acetic acid

$$$$
