
     RDKit          3D

 95 98  0  0  0  0  0  0  0  0999 V2000
   -3.0870    7.1975    2.0921 N   0  0  0  0  0  0  0  0  0  0  0  0
   -1.9639    6.6501    1.4220 C   0  0  0  0  0  0  0  0  0  0  0  0
   -1.8482    5.3722    1.4313 N   0  0  0  0  0  0  0  0  0  0  0  0
   -0.7873    4.6383    0.8125 C   0  0  0  0  0  0  0  0  0  0  0  0
    0.1377    4.1687    1.9049 C   0  0  0  0  0  0  0  0  0  0  0  0
    1.2697    3.3951    1.2552 C   0  0  0  0  0  0  0  0  0  0  0  0
    0.8461    2.2097    0.4636 C   0  0  1  0  0  0  0  0  0  0  0  0
    2.0276    1.4966   -0.1251 C   0  0  0  0  0  0  0  0  0  0  0  0
    2.8883    2.2440   -0.6832 O   0  0  0  0  0  0  0  0  0  0  0  0
    2.1883    0.0920   -0.0785 N   0  0  0  0  0  0  0  0  0  0  0  0
    3.3632   -0.5406   -0.6910 C   0  0  2  0  0  0  0  0  0  0  0  0
    2.8962   -0.9759   -2.0435 C   0  0  0  0  0  0  0  0  0  0  0  0
    1.6854   -0.7990   -2.3528 O   0  0  0  0  0  0  0  0  0  0  0  0
    3.7228   -1.5791   -3.0152 N   0  0  0  0  0  0  0  0  0  0  0  0
    3.8773   -1.6994    0.1166 C   0  0  0  0  0  0  0  0  0  0  0  0
    5.0387   -2.2954   -0.5505 C   0  0  0  0  0  0  0  0  0  0  0  0
    4.8200   -3.4557   -1.2857 C   0  0  0  0  0  0  0  0  0  0  0  0
    5.8025   -4.1133   -1.9820 C   0  0  0  0  0  0  0  0  0  0  0  0
    7.0758   -3.5785   -1.9396 C   0  0  0  0  0  0  0  0  0  0  0  0
    7.3565   -2.4295   -1.2269 C   0  0  0  0  0  0  0  0  0  0  0  0
    6.3125   -1.7965   -0.5310 C   0  0  0  0  0  0  0  0  0  0  0  0
    6.5833   -0.6574    0.1951 C   0  0  0  0  0  0  0  0  0  0  0  0
    7.8738   -0.1343    0.2415 C   0  0  0  0  0  0  0  0  0  0  0  0
    8.9045   -0.7736   -0.4565 C   0  0  0  0  0  0  0  0  0  0  0  0
    8.6118   -1.9104   -1.1748 C   0  0  0  0  0  0  0  0  0  0  0  0
   -0.0027    1.3149    1.1929 N   0  0  0  0  0  0  0  0  0  0  0  0
   -0.8589    0.4408    0.5230 C   0  0  0  0  0  0  0  0  0  0  0  0
   -0.8029    0.5000   -0.7660 O   0  0  0  0  0  0  0  0  0  0  0  0
   -1.8020   -0.5219    1.0637 C   0  0  1  0  0  0  0  0  0  0  0  0
   -2.4510   -1.2933   -0.0312 N   0  0  0  0  0  0  0  0  0  0  0  0
   -3.8448   -1.2562   -0.2446 C   0  0  0  0  0  0  0  0  0  0  0  0
   -4.5541   -0.5484    0.5104 O   0  0  0  0  0  0  0  0  0  0  0  0
   -4.4900   -2.0128   -1.3069 C   0  0  2  0  0  0  0  0  0  0  0  0
   -4.0274   -1.5801   -2.7181 C   0  0  0  0  0  0  0  0  0  0  0  0
   -4.6623   -2.3885   -3.7750 C   0  0  0  0  0  0  0  0  0  0  0  0
   -4.0946   -3.5510   -4.2364 N   0  0  0  0  0  0  0  0  0  0  0  0
   -4.8614   -4.0922   -5.1921 C   0  0  0  0  0  0  0  0  0  0  0  0
   -5.9407   -3.3046   -5.3782 N   0  0  0  0  0  0  0  0  0  0  0  0
   -5.8077   -2.2614   -4.5035 C   0  0  0  0  0  0  0  0  0  0  0  0
   -5.9147   -1.8379   -1.1496 N   0  0  0  0  0  0  0  0  0  0  0  0
   -6.7093   -0.8185   -1.6831 C   0  0  0  0  0  0  0  0  0  0  0  0
   -6.3163    0.1364   -2.3865 O   0  0  0  0  0  0  0  0  0  0  0  0
   -8.1873   -0.8563   -1.3916 C   0  0  0  0  0  0  0  0  0  0  0  0
   -1.4356   -1.4293    2.1675 C   0  0  0  0  0  0  0  0  0  0  0  0
   -1.0409   -0.8712    3.4557 C   0  0  0  0  0  0  0  0  0  0  0  0
    0.2353   -0.7112    3.9322 C   0  0  0  0  0  0  0  0  0  0  0  0
    0.5252   -0.1441    5.1717 C   0  0  0  0  0  0  0  0  0  0  0  0
   -0.5178    0.2935    5.9945 C   0  0  0  0  0  0  0  0  0  0  0  0
   -1.7977    0.1362    5.5249 C   0  0  0  0  0  0  0  0  0  0  0  0
   -2.0778   -0.4261    4.2964 C   0  0  0  0  0  0  0  0  0  0  0  0
   -1.0558    7.5376    0.7879 N   0  0  0  0  0  0  0  0  0  0  0  0
   -2.9855    8.0750    2.6501 H   0  0  0  0  0  0  0  0  0  0  0  0
   -4.0351    6.7407    2.0459 H   0  0  0  0  0  0  0  0  0  0  0  0
   -1.2034    3.7645    0.2549 H   0  0  0  0  0  0  0  0  0  0  0  0
   -0.1873    5.2966    0.1540 H   0  0  0  0  0  0  0  0  0  0  0  0
    0.6066    5.0668    2.3780 H   0  0  0  0  0  0  0  0  0  0  0  0
   -0.3331    3.5779    2.6915 H   0  0  0  0  0  0  0  0  0  0  0  0
    1.8930    4.1066    0.6675 H   0  0  0  0  0  0  0  0  0  0  0  0
    1.9432    3.0845    2.1100 H   0  0  0  0  0  0  0  0  0  0  0  0
    0.3192    2.5780   -0.4720 H   0  0  0  0  0  0  0  0  0  0  0  0
    1.4786   -0.5067    0.3893 H   0  0  0  0  0  0  0  0  0  0  0  0
    4.1285    0.2231   -0.8245 H   0  0  0  0  0  0  0  0  0  0  0  0
    3.3482   -2.3525   -3.6180 H   0  0  0  0  0  0  0  0  0  0  0  0
    4.7296   -1.2610   -3.1508 H   0  0  0  0  0  0  0  0  0  0  0  0
    4.1061   -1.2894    1.1432 H   0  0  0  0  0  0  0  0  0  0  0  0
    3.0269   -2.4357    0.1935 H   0  0  0  0  0  0  0  0  0  0  0  0
    3.8180   -3.9136   -1.3437 H   0  0  0  0  0  0  0  0  0  0  0  0
    5.5652   -5.0219   -2.5407 H   0  0  0  0  0  0  0  0  0  0  0  0
    7.8552   -4.1026   -2.4938 H   0  0  0  0  0  0  0  0  0  0  0  0
    5.8026   -0.1574    0.7479 H   0  0  0  0  0  0  0  0  0  0  0  0
    8.0533    0.7521    0.8145 H   0  0  0  0  0  0  0  0  0  0  0  0
    9.9283   -0.3700   -0.4285 H   0  0  0  0  0  0  0  0  0  0  0  0
    9.4009   -2.4379   -1.7340 H   0  0  0  0  0  0  0  0  0  0  0  0
    0.0071    1.3405    2.2103 H   0  0  0  0  0  0  0  0  0  0  0  0
   -2.6889    0.0972    1.4544 H   0  0  0  0  0  0  0  0  0  0  0  0
   -1.8424   -1.8884   -0.6708 H   0  0  0  0  0  0  0  0  0  0  0  0
   -4.2464   -3.1117   -1.2958 H   0  0  0  0  0  0  0  0  0  0  0  0
   -4.1678   -0.5119   -2.7917 H   0  0  0  0  0  0  0  0  0  0  0  0
   -2.9265   -1.8585   -2.6947 H   0  0  0  0  0  0  0  0  0  0  0  0
   -3.1971   -3.9770   -3.9129 H   0  0  0  0  0  0  0  0  0  0  0  0
   -4.6670   -5.0192   -5.7481 H   0  0  0  0  0  0  0  0  0  0  0  0
   -6.5413   -1.4920   -4.4637 H   0  0  0  0  0  0  0  0  0  0  0  0
   -6.3954   -2.5796   -0.5537 H   0  0  0  0  0  0  0  0  0  0  0  0
   -8.6415   -1.3741   -2.2675 H   0  0  0  0  0  0  0  0  0  0  0  0
   -8.5861    0.1550   -1.3318 H   0  0  0  0  0  0  0  0  0  0  0  0
   -8.3445   -1.4550   -0.4817 H   0  0  0  0  0  0  0  0  0  0  0  0
   -0.7346   -2.2579    1.8351 H   0  0  0  0  0  0  0  0  0  0  0  0
   -2.3818   -2.0337    2.3852 H   0  0  0  0  0  0  0  0  0  0  0  0
    1.0496   -1.0430    3.3077 H   0  0  0  0  0  0  0  0  0  0  0  0
    1.5210   -0.0245    5.5390 H   0  0  0  0  0  0  0  0  0  0  0  0
   -0.3686    0.7375    6.9500 H   0  0  0  0  0  0  0  0  0  0  0  0
   -2.6621    0.4621    6.1262 H   0  0  0  0  0  0  0  0  0  0  0  0
   -3.1254   -0.5215    3.9814 H   0  0  0  0  0  0  0  0  0  0  0  0
   -0.8691    7.5059   -0.2533 H   0  0  0  0  0  0  0  0  0  0  0  0
   -0.5524    8.2529    1.3856 H   0  0  0  0  0  0  0  0  0  0  0  0
  1  2  1  0
  2  3  2  3
  3  4  1  0
  4  5  1  0
  5  6  1  0
  6  7  1  0
  7  8  1  0
  8  9  2  0
  8 10  1  0
 10 11  1  0
 11 12  1  0
 12 13  2  0
 12 14  1  0
 11 15  1  0
 15 16  1  0
 16 17  2  0
 17 18  1  0
 18 19  2  0
 19 20  1  0
 20 21  2  0
 21 22  1  0
 22 23  2  0
 23 24  1  0
 24 25  2  0
  7 26  1  0
 26 27  1  0
 27 28  2  0
 27 29  1  0
 29 30  1  0
 30 31  1  0
 31 32  2  0
 31 33  1  0
 33 34  1  0
 34 35  1  0
 35 36  1  0
 36 37  1  0
 37 38  2  0
 38 39  1  0
 33 40  1  0
 40 41  1  0
 41 42  2  0
 41 43  1  0
 29 44  1  0
 44 45  1  0
 45 46  2  0
 46 47  1  0
 47 48  2  0
 48 49  1  0
 49 50  2  0
  2 51  1  0
 21 16  1  0
 39 35  2  0
 50 45  1  0
 25 20  1  0
  1 52  1  0
  1 53  1  0
  4 54  1  0
  4 55  1  0
  5 56  1  0
  5 57  1  0
  6 58  1  0
  6 59  1  0
  7 60  1  6
 10 61  1  0
 11 62  1  6
 14 63  1  0
 14 64  1  0
 15 65  1  0
 15 66  1  0
 17 67  1  0
 18 68  1  0
 19 69  1  0
 22 70  1  0
 23 71  1  0
 24 72  1  0
 25 73  1  0
 26 74  1  0
 29 75  1  1
 30 76  1  0
 33 77  1  1
 34 78  1  0
 34 79  1  0
 36 80  1  0
 37 81  1  0
 39 82  1  0
 40 83  1  0
 43 84  1  0
 43 85  1  0
 43 86  1  0
 44 87  1  0
 44 88  1  0
 46 89  1  0
 47 90  1  0
 48 91  1  0
 49 92  1  0
 50 93  1  0
 51 94  1  0
 51 95  1  0
M  END
>  <Ligand ID>  (1) 
LIG0001407

>  <Ligand>  (1) 
CHEMBL346925

>  <SMILES>  (1) 
NC(=NCCC[C@@H](C(=O)N[C@H](C(=O)N)Cc1cccc2c1cccc2)NC(=O)[C@@H](NC(=O)[C@H](Cc1[nH]cnc1)NC(=O)C)Cc1ccccc1)N

>  <CID>  (1) 
44368979.0

>  <ChEMBL ID>  (1) 
nan

>  <InChiKey>  (1) 
ZOSNQMLKRGKNRN-ORYMTKCHSA-N

>  <InChi>  (1) 
InChI=1S/C36H44N10O5/c1-22(47)43-31(19-26-20-40-21-42-26)35(51)46-30(17-23-9-3-2-4-10-23)34(50)44-28(15-8-16-41-36(38)39)33(49)45-29(32(37)48)18-25-13-7-12-24-11-5-6-14-27(24)25/h2-7,9-14,20-21,28-31H,8,15-19H2,1H3,(H2,37,48)(H,40,42)(H,43,47)(H,44,50)(H,45,49)(H,46,51)(H4,38,39,41)/t28-,29-,30-,31-/m0/s1

>  <IUPAC Name>  (1) 
(2S)-2-[[(2S)-2-[[(2S)-2-acetamido-3-(1H-imidazol-5-yl)propanoyl]amino]-3-phenylpropanoyl]amino]-N-[(2S)-1-amino-3-naphthalen-1-yl-1-oxopropan-2-yl]-5-(diaminomethylideneamino)pentanamide

$$$$
