
     RDKit          3D

 24 24  0  0  0  0  0  0  0  0999 V2000
   -2.1657   -2.9906   -0.1700 C   0  0  0  0  0  0  0  0  0  0  0  0
   -2.3382   -1.6717   -0.1904 C   0  0  0  0  0  0  0  0  0  0  0  0
   -1.5511   -0.7981   -1.0934 C   0  0  0  0  0  0  0  0  0  0  0  0
   -0.7407    0.2177   -0.3486 C   0  0  0  0  0  0  0  0  0  0  0  0
   -1.3345    1.4522   -0.0814 C   0  0  0  0  0  0  0  0  0  0  0  0
   -0.6532    2.4401    0.5998 C   0  0  0  0  0  0  0  0  0  0  0  0
    0.6312    2.1893    1.0159 C   0  0  0  0  0  0  0  0  0  0  0  0
    1.2248    0.9657    0.7531 C   0  0  0  0  0  0  0  0  0  0  0  0
    0.5542   -0.0389    0.0694 C   0  0  0  0  0  0  0  0  0  0  0  0
    2.5082    0.7722    1.1924 O   0  0  0  0  0  0  0  0  0  0  0  0
    3.1826   -0.4530    0.9616 C   0  0  0  0  0  0  0  0  0  0  0  0
    1.3474    3.1644    1.7060 O   0  0  0  0  0  0  0  0  0  0  0  0
   -1.4215   -3.4004   -0.8451 H   0  0  0  0  0  0  0  0  0  0  0  0
   -2.7671   -3.5854    0.5095 H   0  0  0  0  0  0  0  0  0  0  0  0
   -3.0790   -1.1929    0.4714 H   0  0  0  0  0  0  0  0  0  0  0  0
   -0.8690   -1.4248   -1.6680 H   0  0  0  0  0  0  0  0  0  0  0  0
   -2.2962   -0.2611   -1.7353 H   0  0  0  0  0  0  0  0  0  0  0  0
   -2.3441    1.6881   -0.3926 H   0  0  0  0  0  0  0  0  0  0  0  0
   -1.0891    3.4134    0.8235 H   0  0  0  0  0  0  0  0  0  0  0  0
    0.9990   -1.0028   -0.1468 H   0  0  0  0  0  0  0  0  0  0  0  0
    2.7326   -1.2322    1.6082 H   0  0  0  0  0  0  0  0  0  0  0  0
    3.0496   -0.8077   -0.0699 H   0  0  0  0  0  0  0  0  0  0  0  0
    4.2487   -0.3673    1.1879 H   0  0  0  0  0  0  0  0  0  0  0  0
    2.1712    2.9239    2.2559 H   0  0  0  0  0  0  0  0  0  0  0  0
  1  2  2  0
  2  3  1  0
  3  4  1  0
  4  5  2  0
  5  6  1  0
  6  7  2  0
  7  8  1  0
  8  9  2  0
  8 10  1  0
 10 11  1  0
  7 12  1  0
  9  4  1  0
  1 13  1  0
  1 14  1  0
  2 15  1  0
  3 16  1  0
  3 17  1  0
  5 18  1  0
  6 19  1  0
  9 20  1  0
 11 21  1  0
 11 22  1  0
 11 23  1  0
 12 24  1  0
M  END
>  <Ligand ID>  (1) 
LIG0000065

>  <Ligand>  (1) 
Eugenol

>  <SMILES>  (1) 
C=CCc1ccc(c(c1)OC)O

>  <CID>  (1) 
3314.0

>  <ChEMBL ID>  (1) 
nan

>  <InChiKey>  (1) 
RRAFCDWBNXTKKO-UHFFFAOYSA-N

>  <InChi>  (1) 
InChI=1S/C10H12O2/c1-3-4-8-5-6-9(11)10(7-8)12-2/h3,5-7,11H,1,4H2,2H3

>  <IUPAC Name>  (1) 
2-methoxy-4-prop-2-enylphenol

$$$$
