
     RDKit          3D

 58 60  0  0  0  0  0  0  0  0999 V2000
    8.4854   -1.2139   -0.2868 C   0  0  0  0  0  0  0  0  0  0  0  0
    7.6580   -0.5414    0.7829 C   0  0  0  0  0  0  0  0  0  0  0  0
    6.3914   -0.2538    0.2549 O   0  0  0  0  0  0  0  0  0  0  0  0
    5.3807    0.3647    0.9695 C   0  0  0  0  0  0  0  0  0  0  0  0
    5.5734    0.7086    2.1761 O   0  0  0  0  0  0  0  0  0  0  0  0
    4.0948    0.6533    0.4229 N   0  0  0  0  0  0  0  0  0  0  0  0
    3.1316    1.3053    1.2403 C   0  0  0  0  0  0  0  0  0  0  0  0
    1.9288    1.8576    0.5931 C   0  0  0  0  0  0  0  0  0  0  0  0
    1.5425    1.3146   -0.7415 C   0  0  0  0  0  0  0  0  0  0  0  0
    2.6738    0.8807   -1.5994 C   0  0  0  0  0  0  0  0  0  0  0  0
    3.8275    0.2652   -0.9266 C   0  0  0  0  0  0  0  0  0  0  0  0
    0.4452    0.4094   -0.6249 N   0  0  0  0  0  0  0  0  0  0  0  0
    0.6089   -0.6788    0.2513 C   0  0  0  0  0  0  0  0  0  0  0  0
   -0.6735   -1.4818    0.3063 C   0  0  0  0  0  0  0  0  0  0  0  0
   -1.2680   -1.4359   -1.0640 C   0  0  0  0  0  0  0  0  0  0  0  0
   -1.9020   -0.0694   -1.2395 C   0  0  2  0  0  0  0  0  0  0  0  0
   -0.8638    0.9288   -0.8359 C   0  0  0  0  0  0  0  0  0  0  0  0
   -3.0680    0.1043   -0.4153 N   0  0  0  0  0  0  0  0  0  0  0  0
   -4.3058   -0.3384   -0.8929 C   0  0  0  0  0  0  0  0  0  0  0  0
   -4.2447   -0.8677   -2.0669 O   0  0  0  0  0  0  0  0  0  0  0  0
   -5.5927   -0.2919   -0.2877 C   0  0  0  0  0  0  0  0  0  0  0  0
   -6.7071   -0.4090   -1.1322 C   0  0  0  0  0  0  0  0  0  0  0  0
   -7.9976   -0.3897   -0.6821 C   0  0  0  0  0  0  0  0  0  0  0  0
   -8.2903   -0.2514    0.6624 C   0  0  0  0  0  0  0  0  0  0  0  0
   -7.2145   -0.1346    1.5123 C   0  0  0  0  0  0  0  0  0  0  0  0
   -5.8889   -0.1553    1.0487 C   0  0  0  0  0  0  0  0  0  0  0  0
   -4.8232   -0.0297    2.0703 C   0  0  0  0  0  0  0  0  0  0  0  0
   -9.5679   -0.2401    1.0645 F   0  0  0  0  0  0  0  0  0  0  0  0
    8.0535   -0.9052   -1.2778 H   0  0  0  0  0  0  0  0  0  0  0  0
    9.5473   -0.8939   -0.2660 H   0  0  0  0  0  0  0  0  0  0  0  0
    8.3499   -2.2939   -0.2155 H   0  0  0  0  0  0  0  0  0  0  0  0
    7.6405   -1.1683    1.7015 H   0  0  0  0  0  0  0  0  0  0  0  0
    8.2176    0.4125    1.0168 H   0  0  0  0  0  0  0  0  0  0  0  0
    3.7003    2.1008    1.8113 H   0  0  0  0  0  0  0  0  0  0  0  0
    2.8815    0.5675    2.0655 H   0  0  0  0  0  0  0  0  0  0  0  0
    1.0445    1.6897    1.2849 H   0  0  0  0  0  0  0  0  0  0  0  0
    2.0138    2.9846    0.5938 H   0  0  0  0  0  0  0  0  0  0  0  0
    1.0864    2.1982   -1.2920 H   0  0  0  0  0  0  0  0  0  0  0  0
    2.2611    0.1341   -2.3295 H   0  0  0  0  0  0  0  0  0  0  0  0
    3.0533    1.7217   -2.2571 H   0  0  0  0  0  0  0  0  0  0  0  0
    3.8165   -0.8661   -0.9300 H   0  0  0  0  0  0  0  0  0  0  0  0
    4.7822    0.4891   -1.4932 H   0  0  0  0  0  0  0  0  0  0  0  0
    0.8498   -0.3921    1.3014 H   0  0  0  0  0  0  0  0  0  0  0  0
    1.4059   -1.3682   -0.0817 H   0  0  0  0  0  0  0  0  0  0  0  0
   -1.3369   -0.9485    1.0550 H   0  0  0  0  0  0  0  0  0  0  0  0
   -0.4923   -2.5156    0.6825 H   0  0  0  0  0  0  0  0  0  0  0  0
   -0.4463   -1.4813   -1.8024 H   0  0  0  0  0  0  0  0  0  0  0  0
   -1.9459   -2.2657   -1.2999 H   0  0  0  0  0  0  0  0  0  0  0  0
   -2.2180    0.0021   -2.2951 H   0  0  0  0  0  0  0  0  0  0  0  0
   -1.1433    1.4456    0.1378 H   0  0  0  0  0  0  0  0  0  0  0  0
   -0.7935    1.7805   -1.5560 H   0  0  0  0  0  0  0  0  0  0  0  0
   -2.9748    0.5656    0.4897 H   0  0  0  0  0  0  0  0  0  0  0  0
   -6.5768   -0.5237   -2.2161 H   0  0  0  0  0  0  0  0  0  0  0  0
   -8.8109   -0.4895   -1.3863 H   0  0  0  0  0  0  0  0  0  0  0  0
   -7.4448   -0.0219    2.5657 H   0  0  0  0  0  0  0  0  0  0  0  0
   -4.5040    1.0325    2.0955 H   0  0  0  0  0  0  0  0  0  0  0  0
   -5.3173   -0.2268    3.0819 H   0  0  0  0  0  0  0  0  0  0  0  0
   -4.0332   -0.7735    1.9522 H   0  0  0  0  0  0  0  0  0  0  0  0
  1  2  1  0
  2  3  1  0
  3  4  1  0
  4  5  2  0
  4  6  1  0
  6  7  1  0
  7  8  1  0
  8  9  1  0
  9 10  1  0
 10 11  1  0
  9 12  1  0
 12 13  1  0
 13 14  1  0
 14 15  1  0
 15 16  1  0
 16 17  1  0
 16 18  1  0
 18 19  1  0
 19 20  2  0
 19 21  1  0
 21 22  2  0
 22 23  1  0
 23 24  2  0
 24 25  1  0
 25 26  2  0
 26 27  1  0
 24 28  1  0
 11  6  1  0
 17 12  1  0
 26 21  1  0
  1 29  1  0
  1 30  1  0
  1 31  1  0
  2 32  1  0
  2 33  1  0
  7 34  1  0
  7 35  1  0
  8 36  1  0
  8 37  1  0
  9 38  1  0
 10 39  1  0
 10 40  1  0
 11 41  1  0
 11 42  1  0
 13 43  1  0
 13 44  1  0
 14 45  1  0
 14 46  1  0
 15 47  1  0
 15 48  1  0
 16 49  1  6
 17 50  1  0
 17 51  1  0
 18 52  1  0
 22 53  1  0
 23 54  1  0
 25 55  1  0
 27 56  1  0
 27 57  1  0
 27 58  1  0
M  END
>  <Ligand ID>  (1) 
LIG0001939

>  <Ligand>  (1) 
CHEMBL1916225

>  <SMILES>  (1) 
CCOC(=O)N1CCC(CC1)N1CCC[C@H](C1)NC(=O)c1ccc(cc1C)F

>  <CID>  (1) 
46873657.0

>  <ChEMBL ID>  (1) 
nan

>  <InChiKey>  (1) 
CBBFRJXEYNSBNX-QGZVFWFLSA-N

>  <InChi>  (1) 
InChI=1S/C21H30FN3O3/c1-3-28-21(27)24-11-8-18(9-12-24)25-10-4-5-17(14-25)23-20(26)19-7-6-16(22)13-15(19)2/h6-7,13,17-18H,3-5,8-12,14H2,1-2H3,(H,23,26)/t17-/m1/s1

>  <IUPAC Name>  (1) 
ethyl 4-[(3R)-3-[(4-fluoro-2-methylbenzoyl)amino]piperidin-1-yl]piperidine-1-carboxylate

$$$$
