
     RDKit          3D

 58 60  0  0  0  0  0  0  0  0999 V2000
    3.6526    2.0966   -2.2674 O   0  0  0  0  0  0  0  0  0  0  0  0
    3.9314    1.3880   -1.0825 C   0  0  2  0  0  0  0  0  0  0  0  0
    5.2848    0.7634   -1.1829 C   0  0  0  0  0  0  0  0  0  0  0  0
    5.5729    0.0620   -0.0101 O   0  0  0  0  0  0  0  0  0  0  0  0
    6.7720   -0.6229    0.2027 C   0  0  0  0  0  0  0  0  0  0  0  0
    7.7843   -0.6664   -0.7312 C   0  0  0  0  0  0  0  0  0  0  0  0
    8.9729   -1.3345   -0.5398 C   0  0  0  0  0  0  0  0  0  0  0  0
    9.1571   -1.9998    0.6622 C   0  0  0  0  0  0  0  0  0  0  0  0
    8.1532   -1.9716    1.6191 C   0  0  0  0  0  0  0  0  0  0  0  0
    6.9686   -1.2840    1.3832 C   0  0  0  0  0  0  0  0  0  0  0  0
   10.3355   -2.7066    0.9448 O   0  0  0  0  0  0  0  0  0  0  0  0
    2.8541    0.3535   -0.9544 C   0  0  0  0  0  0  0  0  0  0  0  0
    1.5388    0.9632   -0.8744 N   0  0  0  0  0  0  0  0  0  0  0  0
    1.2980    1.6902    0.3272 C   0  0  0  0  0  0  0  0  0  0  0  0
   -0.0437    2.3625    0.4164 C   0  0  0  0  0  0  0  0  0  0  0  0
   -1.1252    1.3541    0.3219 C   0  0  0  0  0  0  0  0  0  0  0  0
   -1.6678    1.0051   -0.9088 C   0  0  0  0  0  0  0  0  0  0  0  0
   -2.6983    0.0629   -1.0038 C   0  0  0  0  0  0  0  0  0  0  0  0
   -3.2061   -0.5489    0.1292 C   0  0  0  0  0  0  0  0  0  0  0  0
   -2.6692   -0.2068    1.3631 C   0  0  0  0  0  0  0  0  0  0  0  0
   -1.6550    0.7244    1.4282 C   0  0  0  0  0  0  0  0  0  0  0  0
   -4.2687   -1.5125    0.0598 N   0  0  0  0  0  0  0  0  0  0  0  0
   -5.5941   -0.9491    0.1626 C   0  0  0  0  0  0  0  0  0  0  0  0
   -5.7654    0.2862    0.2996 O   0  0  0  0  0  0  0  0  0  0  0  0
   -6.7986   -1.8502    0.1050 C   0  0  0  0  0  0  0  0  0  0  0  0
   -7.9883   -0.9483    0.2399 C   0  0  0  0  0  0  0  0  0  0  0  0
   -8.6378   -0.4141   -0.8482 C   0  0  0  0  0  0  0  0  0  0  0  0
   -9.7202    0.4067   -0.6417 C   0  0  0  0  0  0  0  0  0  0  0  0
  -10.1334    0.6786    0.6482 C   0  0  0  0  0  0  0  0  0  0  0  0
   -9.4712    0.1366    1.6845 N   0  0  0  0  0  0  0  0  0  0  0  0
   -8.4083   -0.6714    1.5343 C   0  0  0  0  0  0  0  0  0  0  0  0
    2.8058    2.5915   -2.1909 H   0  0  0  0  0  0  0  0  0  0  0  0
    3.9385    2.0772   -0.2123 H   0  0  0  0  0  0  0  0  0  0  0  0
    6.0631    1.5345   -1.3443 H   0  0  0  0  0  0  0  0  0  0  0  0
    5.3663    0.0624   -2.0599 H   0  0  0  0  0  0  0  0  0  0  0  0
    7.6067   -0.1372   -1.6564 H   0  0  0  0  0  0  0  0  0  0  0  0
    9.7713   -1.3690   -1.2742 H   0  0  0  0  0  0  0  0  0  0  0  0
    8.2646   -2.4858    2.5801 H   0  0  0  0  0  0  0  0  0  0  0  0
    6.1691   -1.2519    2.1267 H   0  0  0  0  0  0  0  0  0  0  0  0
   11.1840   -2.4121    0.4594 H   0  0  0  0  0  0  0  0  0  0  0  0
    2.9806   -0.3282   -0.1009 H   0  0  0  0  0  0  0  0  0  0  0  0
    2.8612   -0.2423   -1.9082 H   0  0  0  0  0  0  0  0  0  0  0  0
    1.2119    1.4052   -1.7364 H   0  0  0  0  0  0  0  0  0  0  0  0
    2.0984    2.4576    0.5327 H   0  0  0  0  0  0  0  0  0  0  0  0
    1.4381    0.9548    1.1728 H   0  0  0  0  0  0  0  0  0  0  0  0
   -0.1551    2.8764    1.3897 H   0  0  0  0  0  0  0  0  0  0  0  0
   -0.1305    3.0648   -0.4384 H   0  0  0  0  0  0  0  0  0  0  0  0
   -1.3135    1.4497   -1.8360 H   0  0  0  0  0  0  0  0  0  0  0  0
   -3.1176   -0.2059   -1.9671 H   0  0  0  0  0  0  0  0  0  0  0  0
   -3.0441   -0.6714    2.2893 H   0  0  0  0  0  0  0  0  0  0  0  0
   -1.2731    0.9538    2.4161 H   0  0  0  0  0  0  0  0  0  0  0  0
   -4.1185   -2.5255   -0.0535 H   0  0  0  0  0  0  0  0  0  0  0  0
   -6.7678   -2.5992    0.9084 H   0  0  0  0  0  0  0  0  0  0  0  0
   -6.8172   -2.2905   -0.9004 H   0  0  0  0  0  0  0  0  0  0  0  0
   -8.3073   -0.6330   -1.8375 H   0  0  0  0  0  0  0  0  0  0  0  0
  -10.2890    0.8694   -1.4426 H   0  0  0  0  0  0  0  0  0  0  0  0
  -10.9803    1.3192    0.8809 H   0  0  0  0  0  0  0  0  0  0  0  0
   -7.8705   -1.1113    2.3818 H   0  0  0  0  0  0  0  0  0  0  0  0
  1  2  1  0
  2  3  1  0
  3  4  1  0
  4  5  1  0
  5  6  2  0
  6  7  1  0
  7  8  2  0
  8  9  1  0
  9 10  2  0
  8 11  1  0
  2 12  1  0
 12 13  1  0
 13 14  1  0
 14 15  1  0
 15 16  1  0
 16 17  2  0
 17 18  1  0
 18 19  2  0
 19 20  1  0
 20 21  2  0
 19 22  1  0
 22 23  1  0
 23 24  2  0
 23 25  1  0
 25 26  1  0
 26 27  2  0
 27 28  1  0
 28 29  2  0
 29 30  1  0
 30 31  2  0
 10  5  1  0
 21 16  1  0
 31 26  1  0
  1 32  1  0
  2 33  1  1
  3 34  1  0
  3 35  1  0
  6 36  1  0
  7 37  1  0
  9 38  1  0
 10 39  1  0
 11 40  1  0
 12 41  1  0
 12 42  1  0
 13 43  1  0
 14 44  1  0
 14 45  1  0
 15 46  1  0
 15 47  1  0
 17 48  1  0
 18 49  1  0
 20 50  1  0
 21 51  1  0
 22 52  1  0
 25 53  1  0
 25 54  1  0
 27 55  1  0
 28 56  1  0
 29 57  1  0
 31 58  1  0
M  END
>  <Ligand ID>  (1) 
LIG0002568

>  <Ligand>  (1) 
CHEMBL561818

>  <SMILES>  (1) 
O[C@H](COc1ccc(cc1)O)CNCCc1ccc(cc1)NC(=O)Cc1cccnc1

>  <CID>  (1) 
44127167.0

>  <ChEMBL ID>  (1) 
nan

>  <InChiKey>  (1) 
QCTPSWCBGLXHAV-QFIPXVFZSA-N

>  <InChi>  (1) 
InChI=1S/C24H27N3O4/c28-21-7-9-23(10-8-21)31-17-22(29)16-26-13-11-18-3-5-20(6-4-18)27-24(30)14-19-2-1-12-25-15-19/h1-10,12,15,22,26,28-29H,11,13-14,16-17H2,(H,27,30)/t22-/m0/s1

>  <IUPAC Name>  (1) 
N-[4-[2-[[(2S)-2-hydroxy-3-(4-hydroxyphenoxy)propyl]amino]ethyl]phenyl]-2-pyridin-3-ylacetamide

$$$$
