
     RDKit          3D

 60 62  0  0  0  0  0  0  0  0999 V2000
    3.9935    1.0360   -0.7591 O   0  0  0  0  0  0  0  0  0  0  0  0
    3.3078   -0.0216   -0.6819 C   0  0  0  0  0  0  0  0  0  0  0  0
    1.9663    0.0250   -1.1771 N   0  0  0  0  0  0  0  0  0  0  0  0
    1.4273    1.5241   -1.8282 S   0  0  0  0  0  0  0  0  0  0  0  0
    2.5420    2.2546   -2.5059 O   0  0  0  0  0  0  0  0  0  0  0  0
    0.3855    1.2421   -2.8788 O   0  0  0  0  0  0  0  0  0  0  0  0
    0.7172    2.5430   -0.6070 C   0  0  0  0  0  0  0  0  0  0  0  0
    1.3244    3.7670   -0.3273 C   0  0  0  0  0  0  0  0  0  0  0  0
    0.8511    4.5937    0.5996 N   0  0  0  0  0  0  0  0  0  0  0  0
   -0.2327    4.2646    1.2936 C   0  0  0  0  0  0  0  0  0  0  0  0
   -0.8680    3.0558    1.0470 C   0  0  0  0  0  0  0  0  0  0  0  0
   -0.4271    2.1553    0.0991 C   0  0  0  0  0  0  0  0  0  0  0  0
   -1.0686    0.9283   -0.1651 N   0  0  0  0  0  0  0  0  0  0  0  0
   -2.2355    0.4185    0.4712 C   0  0  1  0  0  0  0  0  0  0  0  0
   -3.4831    1.2594    0.2954 C   0  0  0  0  0  0  0  0  0  0  0  0
   -4.5692    0.3245   -0.1986 C   0  0  2  0  0  0  0  0  0  0  0  0
   -4.1046   -0.9742    0.4471 C   0  0  0  0  0  0  0  0  0  0  0  0
   -2.6821   -0.8856   -0.1291 C   0  0  2  0  0  0  0  0  0  0  0  0
   -1.8405   -2.0498    0.2337 C   0  0  0  0  0  0  0  0  0  0  0  0
   -3.0048   -0.7197   -1.5745 C   0  0  0  0  0  0  0  0  0  0  0  0
   -4.3202    0.0465   -1.6403 C   0  0  0  0  0  0  0  0  0  0  0  0
   -4.8478   -2.1783   -0.0234 C   0  0  0  0  0  0  0  0  0  0  0  0
   -4.0740   -0.8817    1.9533 C   0  0  0  0  0  0  0  0  0  0  0  0
    3.8623   -1.2143   -0.1188 N   0  0  0  0  0  0  0  0  0  0  0  0
    5.2290   -1.1972    0.3660 C   0  0  0  0  0  0  0  0  0  0  0  0
    5.4275   -0.1907    1.4597 C   0  0  0  0  0  0  0  0  0  0  0  0
    5.5836   -2.5703    0.8950 C   0  0  0  0  0  0  0  0  0  0  0  0
    6.1963   -0.8513   -0.7489 C   0  0  0  0  0  0  0  0  0  0  0  0
    1.4173   -0.8384   -1.1135 H   0  0  0  0  0  0  0  0  0  0  0  0
    2.2153    4.0525   -0.8881 H   0  0  0  0  0  0  0  0  0  0  0  0
   -0.6046    4.9562    2.0493 H   0  0  0  0  0  0  0  0  0  0  0  0
   -1.7323    2.8457    1.6397 H   0  0  0  0  0  0  0  0  0  0  0  0
   -0.6295    0.3268   -0.9207 H   0  0  0  0  0  0  0  0  0  0  0  0
   -2.0763    0.3073    1.5670 H   0  0  0  0  0  0  0  0  0  0  0  0
   -3.2743    1.9901   -0.5121 H   0  0  0  0  0  0  0  0  0  0  0  0
   -3.7960    1.7843    1.2239 H   0  0  0  0  0  0  0  0  0  0  0  0
   -5.5765    0.6241    0.0657 H   0  0  0  0  0  0  0  0  0  0  0  0
   -1.8495   -2.7758   -0.6068 H   0  0  0  0  0  0  0  0  0  0  0  0
   -0.7730   -1.6949    0.2922 H   0  0  0  0  0  0  0  0  0  0  0  0
   -2.1693   -2.5675    1.1482 H   0  0  0  0  0  0  0  0  0  0  0  0
   -2.2288   -0.1202   -2.0643 H   0  0  0  0  0  0  0  0  0  0  0  0
   -3.1490   -1.7116   -2.0528 H   0  0  0  0  0  0  0  0  0  0  0  0
   -4.1865    0.9918   -2.2190 H   0  0  0  0  0  0  0  0  0  0  0  0
   -5.0916   -0.5652   -2.1355 H   0  0  0  0  0  0  0  0  0  0  0  0
   -5.3929   -2.5987    0.8714 H   0  0  0  0  0  0  0  0  0  0  0  0
   -5.6616   -1.9398   -0.7402 H   0  0  0  0  0  0  0  0  0  0  0  0
   -4.1848   -2.9988   -0.3765 H   0  0  0  0  0  0  0  0  0  0  0  0
   -4.8984   -1.5580    2.3244 H   0  0  0  0  0  0  0  0  0  0  0  0
   -3.1466   -1.2470    2.4079 H   0  0  0  0  0  0  0  0  0  0  0  0
   -4.3900    0.1280    2.2565 H   0  0  0  0  0  0  0  0  0  0  0  0
    3.2795   -2.0666   -0.0675 H   0  0  0  0  0  0  0  0  0  0  0  0
    6.4003   -0.4375    1.9449 H   0  0  0  0  0  0  0  0  0  0  0  0
    5.4183    0.8446    1.1061 H   0  0  0  0  0  0  0  0  0  0  0  0
    4.6241   -0.3696    2.2106 H   0  0  0  0  0  0  0  0  0  0  0  0
    6.6015   -2.5671    1.3087 H   0  0  0  0  0  0  0  0  0  0  0  0
    4.8771   -2.8509    1.7028 H   0  0  0  0  0  0  0  0  0  0  0  0
    5.5750   -3.3219    0.0727 H   0  0  0  0  0  0  0  0  0  0  0  0
    6.4592    0.2311   -0.6905 H   0  0  0  0  0  0  0  0  0  0  0  0
    7.1269   -1.4244   -0.6154 H   0  0  0  0  0  0  0  0  0  0  0  0
    5.7615   -1.1322   -1.7205 H   0  0  0  0  0  0  0  0  0  0  0  0
  1  2  2  0
  2  3  1  0
  3  4  1  0
  4  5  2  0
  4  6  2  0
  4  7  1  0
  7  8  2  0
  8  9  1  0
  9 10  2  0
 10 11  1  0
 11 12  2  0
 12 13  1  0
 13 14  1  0
 14 15  1  0
 15 16  1  0
 16 17  1  0
 17 18  1  0
 18 19  1  6
 18 20  1  0
 20 21  1  0
 17 22  1  0
 17 23  1  0
  2 24  1  0
 24 25  1  0
 25 26  1  0
 25 27  1  0
 25 28  1  0
 12  7  1  0
 18 14  1  0
 21 16  1  0
  3 29  1  0
  8 30  1  0
 10 31  1  0
 11 32  1  0
 13 33  1  0
 14 34  1  1
 15 35  1  0
 15 36  1  0
 16 37  1  6
 19 38  1  0
 19 39  1  0
 19 40  1  0
 20 41  1  0
 20 42  1  0
 21 43  1  0
 21 44  1  0
 22 45  1  0
 22 46  1  0
 22 47  1  0
 23 48  1  0
 23 49  1  0
 23 50  1  0
 24 51  1  0
 26 52  1  0
 26 53  1  0
 26 54  1  0
 27 55  1  0
 27 56  1  0
 27 57  1  0
 28 58  1  0
 28 59  1  0
 28 60  1  0
M  END
>  <Ligand ID>  (1) 
LIG0005144

>  <Ligand>  (1) 
CHEMBL1762255

>  <SMILES>  (1) 
O=C(NS(=O)(=O)c1cnccc1N[C@H]1C[C@@H]2C([C@@]1(C)CC2)(C)C)NC(C)(C)C

>  <CID>  (1) 
54580463.0

>  <ChEMBL ID>  (1) 
nan

>  <InChiKey>  (1) 
SKRHDNAURICTLH-PSGMQZRDSA-N

>  <InChi>  (1) 
InChI=1S/C20H32N4O3S/c1-18(2,3)23-17(25)24-28(26,27)15-12-21-10-8-14(15)22-16-11-13-7-9-20(16,6)19(13,4)5/h8,10,12-13,16H,7,9,11H2,1-6H3,(H,21,22)(H2,23,24,25)/t13-,16+,20+/m1/s1

>  <IUPAC Name>  (1) 
1-tert-butyl-3-[4-[[(1R,2S,4R)-1,7,7-trimethyl-2-bicyclo[2.2.1]heptanyl]amino]pyridin-3-yl]sulfonylurea

$$$$
