
     RDKit          3D

 80 82  0  0  0  0  0  0  0  0999 V2000
    1.3119   -3.8936    0.4744 O   0  0  0  0  0  0  0  0  0  0  0  0
    2.2707   -3.0474    0.3831 C   0  0  0  0  0  0  0  0  0  0  0  0
    2.1109   -1.8387    1.0925 N   0  0  0  0  0  0  0  0  0  0  0  0
    0.9457   -1.5086    1.8938 C   0  0  2  0  0  0  0  0  0  0  0  0
    0.3761   -0.2599    1.2702 C   0  0  0  0  0  0  0  0  0  0  0  0
    1.0225    0.1557    0.2524 O   0  0  0  0  0  0  0  0  0  0  0  0
   -0.7740    0.3939    1.7719 N   0  0  0  0  0  0  0  0  0  0  0  0
   -1.2165    1.6315    1.0531 C   0  0  1  0  0  0  0  0  0  0  0  0
   -2.5528    1.4308    0.5051 C   0  0  0  0  0  0  0  0  0  0  0  0
   -3.1604    0.3708    0.9013 O   0  0  0  0  0  0  0  0  0  0  0  0
   -3.2397    2.2526   -0.4033 N   0  0  0  0  0  0  0  0  0  0  0  0
   -4.5331    2.0638   -0.9573 C   0  0  1  0  0  0  0  0  0  0  0  0
   -5.5087    3.1532   -0.7444 C   0  0  0  0  0  0  0  0  0  0  0  0
   -6.6895    2.9417   -1.1807 O   0  0  0  0  0  0  0  0  0  0  0  0
   -5.2577    4.3859   -0.1155 N   0  0  0  0  0  0  0  0  0  0  0  0
   -4.5725    1.6863   -2.4026 C   0  0  0  0  0  0  0  0  0  0  0  0
   -3.9265    0.3986   -2.7638 C   0  0  0  0  0  0  0  0  0  0  0  0
   -4.5715   -0.8155   -2.1437 C   0  0  0  0  0  0  0  0  0  0  0  0
   -4.0018   -2.0383   -2.4958 N   0  0  0  0  0  0  0  0  0  0  0  0
   -2.7917   -2.3501   -2.6036 C   0  0  0  0  0  0  0  0  0  0  0  0
   -1.6493   -1.5523   -2.4010 N   0  0  0  0  0  0  0  0  0  0  0  0
   -2.5272   -3.7274   -2.9730 N   0  0  0  0  0  0  0  0  0  0  0  0
   -0.9857    2.7698    1.9738 C   0  0  0  0  0  0  0  0  0  0  0  0
   -1.3293    4.1178    1.5000 C   0  0  0  0  0  0  0  0  0  0  0  0
   -0.3899    4.8496    0.7969 C   0  0  0  0  0  0  0  0  0  0  0  0
   -0.6372    6.1258    0.3629 C   0  0  0  0  0  0  0  0  0  0  0  0
   -1.8597    6.6950    0.6366 C   0  0  0  0  0  0  0  0  0  0  0  0
   -2.7816    5.9583    1.3340 C   0  0  0  0  0  0  0  0  0  0  0  0
   -2.5679    4.6737    1.7854 C   0  0  0  0  0  0  0  0  0  0  0  0
    1.4739   -1.1727    3.2921 C   0  0  0  0  0  0  0  0  0  0  0  0
    2.1874   -2.3410    3.8202 C   0  0  0  0  0  0  0  0  0  0  0  0
    1.5840   -3.3423    4.5698 C   0  0  0  0  0  0  0  0  0  0  0  0
    2.5688   -4.2365    4.8756 N   0  0  0  0  0  0  0  0  0  0  0  0
    3.7197   -3.7808    4.3250 C   0  0  0  0  0  0  0  0  0  0  0  0
    3.5023   -2.6246    3.6779 N   0  0  0  0  0  0  0  0  0  0  0  0
    3.4484   -3.3638   -0.4257 C   0  0  0  0  0  0  0  0  0  0  0  0
    4.4730   -2.5483   -0.5756 C   0  0  0  0  0  0  0  0  0  0  0  0
    5.6523   -2.8417   -1.3731 C   0  0  0  0  0  0  0  0  0  0  0  0
    6.6773   -1.9016   -1.4844 C   0  0  0  0  0  0  0  0  0  0  0  0
    7.8163   -2.1062   -2.2127 C   0  0  0  0  0  0  0  0  0  0  0  0
    7.9783   -3.3129   -2.8857 C   0  0  0  0  0  0  0  0  0  0  0  0
    6.9899   -4.2755   -2.8057 C   0  0  0  0  0  0  0  0  0  0  0  0
    5.8459   -4.0243   -2.0526 C   0  0  0  0  0  0  0  0  0  0  0  0
    2.8636   -1.0873    1.0712 H   0  0  0  0  0  0  0  0  0  0  0  0
    0.1783   -2.2673    1.8844 H   0  0  0  0  0  0  0  0  0  0  0  0
   -1.2750    0.0337    2.5840 H   0  0  0  0  0  0  0  0  0  0  0  0
   -0.4993    1.7328    0.2176 H   0  0  0  0  0  0  0  0  0  0  0  0
   -2.7141    3.1329   -0.7114 H   0  0  0  0  0  0  0  0  0  0  0  0
   -4.9774    1.1749   -0.4160 H   0  0  0  0  0  0  0  0  0  0  0  0
   -5.6670    4.7011    0.7930 H   0  0  0  0  0  0  0  0  0  0  0  0
   -4.5883    5.0291   -0.6482 H   0  0  0  0  0  0  0  0  0  0  0  0
   -5.6770    1.5546   -2.6353 H   0  0  0  0  0  0  0  0  0  0  0  0
   -4.2967    2.5270   -3.0846 H   0  0  0  0  0  0  0  0  0  0  0  0
   -3.9461    0.2805   -3.8719 H   0  0  0  0  0  0  0  0  0  0  0  0
   -2.8521    0.4080   -2.3994 H   0  0  0  0  0  0  0  0  0  0  0  0
   -5.6747   -0.7433   -2.4591 H   0  0  0  0  0  0  0  0  0  0  0  0
   -4.6578   -0.6541   -1.0378 H   0  0  0  0  0  0  0  0  0  0  0  0
   -1.2156   -1.1318   -3.2600 H   0  0  0  0  0  0  0  0  0  0  0  0
   -1.2046   -1.3508   -1.4748 H   0  0  0  0  0  0  0  0  0  0  0  0
   -1.6843   -4.2339   -2.6091 H   0  0  0  0  0  0  0  0  0  0  0  0
   -3.1695   -4.2512   -3.6112 H   0  0  0  0  0  0  0  0  0  0  0  0
   -1.3685    2.5798    3.0110 H   0  0  0  0  0  0  0  0  0  0  0  0
    0.1400    2.7899    2.1447 H   0  0  0  0  0  0  0  0  0  0  0  0
    0.5497    4.3896    0.5993 H   0  0  0  0  0  0  0  0  0  0  0  0
    0.1016    6.6986   -0.1904 H   0  0  0  0  0  0  0  0  0  0  0  0
   -2.1417    7.6931    0.3347 H   0  0  0  0  0  0  0  0  0  0  0  0
   -3.7758    6.3740    1.5734 H   0  0  0  0  0  0  0  0  0  0  0  0
   -3.3015    4.1071    2.3345 H   0  0  0  0  0  0  0  0  0  0  0  0
    0.6521   -0.8021    3.9415 H   0  0  0  0  0  0  0  0  0  0  0  0
    2.2066   -0.3462    3.2300 H   0  0  0  0  0  0  0  0  0  0  0  0
    0.5375   -3.4085    4.8603 H   0  0  0  0  0  0  0  0  0  0  0  0
    4.7142   -4.2392    4.3639 H   0  0  0  0  0  0  0  0  0  0  0  0
    4.2270   -2.0499    3.1584 H   0  0  0  0  0  0  0  0  0  0  0  0
    3.4753   -4.3207   -0.9280 H   0  0  0  0  0  0  0  0  0  0  0  0
    4.4279   -1.5968   -0.0682 H   0  0  0  0  0  0  0  0  0  0  0  0
    6.5240   -0.9558   -0.9442 H   0  0  0  0  0  0  0  0  0  0  0  0
    8.6040   -1.3961   -2.3079 H   0  0  0  0  0  0  0  0  0  0  0  0
    8.8755   -3.4829   -3.4612 H   0  0  0  0  0  0  0  0  0  0  0  0
    7.0711   -5.2387   -3.3154 H   0  0  0  0  0  0  0  0  0  0  0  0
    5.1078   -4.8015   -2.0228 H   0  0  0  0  0  0  0  0  0  0  0  0
  1  2  2  0
  2  3  1  0
  3  4  1  0
  4  5  1  0
  5  6  2  0
  5  7  1  0
  7  8  1  0
  8  9  1  0
  9 10  2  0
  9 11  1  0
 11 12  1  0
 12 13  1  0
 13 14  2  0
 13 15  1  0
 12 16  1  0
 16 17  1  0
 17 18  1  0
 18 19  1  0
 19 20  2  3
 20 21  1  0
 20 22  1  0
  8 23  1  0
 23 24  1  0
 24 25  2  0
 25 26  1  0
 26 27  2  0
 27 28  1  0
 28 29  2  0
  4 30  1  0
 30 31  1  0
 31 32  2  0
 32 33  1  0
 33 34  2  0
 34 35  1  0
  2 36  1  0
 36 37  2  0
 37 38  1  0
 38 39  2  0
 39 40  1  0
 40 41  2  0
 41 42  1  0
 42 43  2  0
 29 24  1  0
 35 31  1  0
 43 38  1  0
  3 44  1  0
  4 45  1  1
  7 46  1  0
  8 47  1  6
 11 48  1  0
 12 49  1  1
 15 50  1  0
 15 51  1  0
 16 52  1  0
 16 53  1  0
 17 54  1  0
 17 55  1  0
 18 56  1  0
 18 57  1  0
 21 58  1  0
 21 59  1  0
 22 60  1  0
 22 61  1  0
 23 62  1  0
 23 63  1  0
 25 64  1  0
 26 65  1  0
 27 66  1  0
 28 67  1  0
 29 68  1  0
 30 69  1  0
 30 70  1  0
 32 71  1  0
 34 72  1  0
 35 73  1  0
 36 74  1  0
 37 75  1  0
 39 76  1  0
 40 77  1  0
 41 78  1  0
 42 79  1  0
 43 80  1  0
M  END
>  <Ligand ID>  (1) 
LIG0002653

>  <Ligand>  (1) 
CHEMBL569695

>  <SMILES>  (1) 
O=C(N[C@H](C(=O)N[C@@H](C(=O)N[C@@H](C(=O)N)CCCN=C(N)N)Cc1ccccc1)Cc1cnc[nH]1)/C=C/c1ccccc1

>  <CID>  (1) 
45487405.0

>  <ChEMBL ID>  (1) 
nan

>  <InChiKey>  (1) 
ZCUHKWDCXXFSBL-YIQBPBSRSA-N

>  <InChi>  (1) 
InChI=1S/C30H37N9O4/c31-27(41)23(12-7-15-35-30(32)33)38-28(42)24(16-21-10-5-2-6-11-21)39-29(43)25(17-22-18-34-19-36-22)37-26(40)14-13-20-8-3-1-4-9-20/h1-6,8-11,13-14,18-19,23-25H,7,12,15-17H2,(H2,31,41)(H,34,36)(H,37,40)(H,38,42)(H,39,43)(H4,32,33,35)/b14-13+/t23-,24-,25+/m1/s1

>  <IUPAC Name>  (1) 
(2R)-5-(diaminomethylideneamino)-2-[[(2R)-2-[[(2S)-3-(1H-imidazol-5-yl)-2-[[(E)-3-phenylprop-2-enoyl]amino]propanoyl]amino]-3-phenylpropanoyl]amino]pentanamide

$$$$
