
     RDKit          3D

 33 35  0  0  0  0  0  0  0  0999 V2000
    5.6158    0.6198    0.0802 C   0  0  0  0  0  0  0  0  0  0  0  0
    4.3690    1.2293    0.1787 O   0  0  0  0  0  0  0  0  0  0  0  0
    3.1377    0.6353    0.0743 C   0  0  0  0  0  0  0  0  0  0  0  0
    2.9555   -0.7200   -0.1547 C   0  0  0  0  0  0  0  0  0  0  0  0
    1.6979   -1.2767   -0.2528 C   0  0  0  0  0  0  0  0  0  0  0  0
    0.5679   -0.4612   -0.1193 C   0  0  0  0  0  0  0  0  0  0  0  0
    0.7752    0.8788    0.1073 C   0  0  0  0  0  0  0  0  0  0  0  0
    2.0235    1.4552    0.2087 C   0  0  0  0  0  0  0  0  0  0  0  0
   -0.7976   -1.0432   -0.2221 C   0  0  0  0  0  0  0  0  0  0  0  0
   -1.4199   -0.4929   -1.4795 C   0  0  0  0  0  0  0  0  0  0  0  0
   -2.9073   -0.7577   -1.5465 C   0  0  0  0  0  0  0  0  0  0  0  0
   -3.4909    0.0553   -0.4215 C   0  0  0  0  0  0  0  0  0  0  0  0
   -2.8319   -0.0166    0.7839 C   0  0  0  0  0  0  0  0  0  0  0  0
   -1.6147   -0.8325    1.0111 C   0  0  0  0  0  0  0  0  0  0  0  0
   -3.5273    0.7815    1.6251 N   0  0  0  0  0  0  0  0  0  0  0  0
   -4.5781    1.3198    0.9432 C   0  0  0  0  0  0  0  0  0  0  0  0
   -4.5623    0.8743   -0.3263 N   0  0  0  0  0  0  0  0  0  0  0  0
    5.6248   -0.3821   -0.3828 H   0  0  0  0  0  0  0  0  0  0  0  0
    6.3560    1.2380   -0.5049 H   0  0  0  0  0  0  0  0  0  0  0  0
    6.0985    0.4953    1.0902 H   0  0  0  0  0  0  0  0  0  0  0  0
    3.8241   -1.3592   -0.2594 H   0  0  0  0  0  0  0  0  0  0  0  0
    1.6121   -2.3428   -0.4328 H   0  0  0  0  0  0  0  0  0  0  0  0
   -0.0906    1.5466    0.2168 H   0  0  0  0  0  0  0  0  0  0  0  0
    2.1126    2.5149    0.3876 H   0  0  0  0  0  0  0  0  0  0  0  0
   -0.6564   -2.1298   -0.4047 H   0  0  0  0  0  0  0  0  0  0  0  0
   -0.9648   -1.0093   -2.3517 H   0  0  0  0  0  0  0  0  0  0  0  0
   -1.2686    0.5815   -1.6168 H   0  0  0  0  0  0  0  0  0  0  0  0
   -3.1723   -1.8144   -1.3322 H   0  0  0  0  0  0  0  0  0  0  0  0
   -3.2892   -0.3647   -2.4883 H   0  0  0  0  0  0  0  0  0  0  0  0
   -1.0167   -0.3647    1.8443 H   0  0  0  0  0  0  0  0  0  0  0  0
   -1.9586   -1.8084    1.4165 H   0  0  0  0  0  0  0  0  0  0  0  0
   -3.2884    0.9496    2.6303 H   0  0  0  0  0  0  0  0  0  0  0  0
   -5.3349    2.0009    1.3103 H   0  0  0  0  0  0  0  0  0  0  0  0
  1  2  1  0
  2  3  1  0
  3  4  2  0
  4  5  1  0
  5  6  2  0
  6  7  1  0
  7  8  2  0
  6  9  1  0
  9 10  1  0
 10 11  1  0
 11 12  1  0
 12 13  2  0
 13 14  1  0
 13 15  1  0
 15 16  1  0
 16 17  2  0
  8  3  1  0
 14  9  1  0
 17 12  1  0
  1 18  1  0
  1 19  1  0
  1 20  1  0
  4 21  1  0
  5 22  1  0
  7 23  1  0
  8 24  1  0
  9 25  1  0
 10 26  1  0
 10 27  1  0
 11 28  1  0
 11 29  1  0
 14 30  1  0
 14 31  1  0
 15 32  1  0
 16 33  1  0
M  END
>  <Ligand ID>  (1) 
LIG0004806

>  <Ligand>  (1) 
CHEMBL466875

>  <SMILES>  (1) 
COc1ccc(cc1)C1CCc2c(C1)[nH]cn2

>  <CID>  (1) 
44574934.0

>  <ChEMBL ID>  (1) 
nan

>  <InChiKey>  (1) 
XHDKEXKFBSPYHK-UHFFFAOYSA-N

>  <InChi>  (1) 
InChI=1S/C14H16N2O/c1-17-12-5-2-10(3-6-12)11-4-7-13-14(8-11)16-9-15-13/h2-3,5-6,9,11H,4,7-8H2,1H3,(H,15,16)

>  <IUPAC Name>  (1) 
6-(4-methoxyphenyl)-4,5,6,7-tetrahydro-1H-benzimidazole

$$$$
