
     RDKit          3D

 76 78  0  0  0  0  0  0  0  0999 V2000
   -8.8580    2.5077    2.5755 O   0  0  0  0  0  0  0  0  0  0  0  0
   -7.9125    1.5691    2.9997 C   0  0  0  0  0  0  0  0  0  0  0  0
   -7.9958    0.4192    2.0311 C   0  0  0  0  0  0  0  0  0  0  0  0
   -7.0238    0.2473    1.0508 C   0  0  0  0  0  0  0  0  0  0  0  0
   -7.0988   -0.7883    0.1773 C   0  0  0  0  0  0  0  0  0  0  0  0
   -8.1660   -1.6873    0.2688 C   0  0  0  0  0  0  0  0  0  0  0  0
   -9.1284   -1.4950    1.2595 C   0  0  0  0  0  0  0  0  0  0  0  0
   -9.0621   -0.4447    2.1540 C   0  0  0  0  0  0  0  0  0  0  0  0
  -10.0009   -0.2329    3.1422 O   0  0  0  0  0  0  0  0  0  0  0  0
   -6.1172   -1.0684   -0.9042 C   0  0  2  0  0  0  0  0  0  0  0  0
   -5.3227    0.1673   -1.1711 C   0  0  0  0  0  0  0  0  0  0  0  0
   -4.4286    0.0411   -2.2966 N   0  0  0  0  0  0  0  0  0  0  0  0
   -3.3411   -0.8685   -2.0931 C   0  0  0  0  0  0  0  0  0  0  0  0
   -2.3386   -0.3768   -1.0529 C   0  0  0  0  0  0  0  0  0  0  0  0
   -1.7372    0.9479   -1.4681 C   0  0  0  0  0  0  0  0  0  0  0  0
   -0.9825    0.8725   -2.7381 C   0  0  0  0  0  0  0  0  0  0  0  0
    0.2568    0.0244   -2.7098 C   0  0  0  0  0  0  0  0  0  0  0  0
    1.3512    0.5113   -1.8347 C   0  0  0  0  0  0  0  0  0  0  0  0
    1.2368    0.6388   -0.5183 O   0  0  0  0  0  0  0  0  0  0  0  0
    1.0981   -0.3760    0.3419 C   0  0  0  0  0  0  0  0  0  0  0  0
    2.2269   -1.3727    0.4420 C   0  0  0  0  0  0  0  0  0  0  0  0
    3.5201   -0.8171    0.9204 C   0  0  0  0  0  0  0  0  0  0  0  0
    4.1177    0.2832    0.0852 C   0  0  0  0  0  0  0  0  0  0  0  0
    5.4012    0.6805    0.7618 C   0  0  0  0  0  0  0  0  0  0  0  0
    5.4328    1.6615    1.7270 C   0  0  0  0  0  0  0  0  0  0  0  0
    6.6503    1.9981    2.3286 C   0  0  0  0  0  0  0  0  0  0  0  0
    7.8290    1.3658    1.9752 C   0  0  0  0  0  0  0  0  0  0  0  0
    7.7935    0.3773    1.0018 C   0  0  0  0  0  0  0  0  0  0  0  0
    6.5960    0.0502    0.4140 C   0  0  0  0  0  0  0  0  0  0  0  0
    8.9620   -0.3204    0.5795 N   0  0  0  0  0  0  0  0  0  0  0  0
    9.8959    0.2884   -0.2049 C   0  0  0  0  0  0  0  0  0  0  0  0
   10.9002   -0.6345   -0.4442 C   0  0  0  0  0  0  0  0  0  0  0  0
   10.5295   -1.7450    0.1999 N   0  0  0  0  0  0  0  0  0  0  0  0
    9.3527   -1.5780    0.8306 C   0  0  0  0  0  0  0  0  0  0  0  0
    8.7063   -2.4129    1.5320 O   0  0  0  0  0  0  0  0  0  0  0  0
   12.0597   -0.4289   -1.2075 O   0  0  0  0  0  0  0  0  0  0  0  0
   -6.8717   -1.3427   -2.0726 O   0  0  0  0  0  0  0  0  0  0  0  0
   -8.4956    3.1267    1.8977 H   0  0  0  0  0  0  0  0  0  0  0  0
   -8.1076    1.2388    4.0429 H   0  0  0  0  0  0  0  0  0  0  0  0
   -6.9297    2.0729    2.9507 H   0  0  0  0  0  0  0  0  0  0  0  0
   -6.2337    0.9500    1.0151 H   0  0  0  0  0  0  0  0  0  0  0  0
   -8.2913   -2.5214   -0.3798 H   0  0  0  0  0  0  0  0  0  0  0  0
   -9.9588   -2.1882    1.3368 H   0  0  0  0  0  0  0  0  0  0  0  0
  -10.9108    0.1258    2.9073 H   0  0  0  0  0  0  0  0  0  0  0  0
   -5.5037   -1.9533   -0.6737 H   0  0  0  0  0  0  0  0  0  0  0  0
   -4.7677    0.4554   -0.2524 H   0  0  0  0  0  0  0  0  0  0  0  0
   -6.0081    1.0056   -1.3816 H   0  0  0  0  0  0  0  0  0  0  0  0
   -4.1021    0.9901   -2.5627 H   0  0  0  0  0  0  0  0  0  0  0  0
   -3.7459   -1.8109   -1.6749 H   0  0  0  0  0  0  0  0  0  0  0  0
   -2.8320   -1.1606   -3.0273 H   0  0  0  0  0  0  0  0  0  0  0  0
   -1.6092   -1.1812   -0.9771 H   0  0  0  0  0  0  0  0  0  0  0  0
   -2.8691   -0.2398   -0.1102 H   0  0  0  0  0  0  0  0  0  0  0  0
   -1.0480    1.2621   -0.6509 H   0  0  0  0  0  0  0  0  0  0  0  0
   -2.5290    1.7086   -1.5144 H   0  0  0  0  0  0  0  0  0  0  0  0
   -1.6745    0.5629   -3.5565 H   0  0  0  0  0  0  0  0  0  0  0  0
   -0.6608    1.9141   -3.0031 H   0  0  0  0  0  0  0  0  0  0  0  0
    0.6571    0.0706   -3.7679 H   0  0  0  0  0  0  0  0  0  0  0  0
   -0.0553   -1.0214   -2.5044 H   0  0  0  0  0  0  0  0  0  0  0  0
    2.3418    0.0030   -2.1291 H   0  0  0  0  0  0  0  0  0  0  0  0
    1.5783    1.5687   -2.2322 H   0  0  0  0  0  0  0  0  0  0  0  0
    1.1053    0.1119    1.3876 H   0  0  0  0  0  0  0  0  0  0  0  0
    0.1524   -0.9407    0.3693 H   0  0  0  0  0  0  0  0  0  0  0  0
    1.8959   -2.1217    1.1909 H   0  0  0  0  0  0  0  0  0  0  0  0
    2.4059   -1.9441   -0.4868 H   0  0  0  0  0  0  0  0  0  0  0  0
    3.4297   -0.4991    1.9912 H   0  0  0  0  0  0  0  0  0  0  0  0
    4.3185   -1.6164    0.9593 H   0  0  0  0  0  0  0  0  0  0  0  0
    4.3949   -0.0518   -0.9290 H   0  0  0  0  0  0  0  0  0  0  0  0
    3.4722    1.1778    0.0059 H   0  0  0  0  0  0  0  0  0  0  0  0
    4.5106    2.1741    2.0211 H   0  0  0  0  0  0  0  0  0  0  0  0
    6.6427    2.7646    3.0759 H   0  0  0  0  0  0  0  0  0  0  0  0
    8.7782    1.6258    2.4419 H   0  0  0  0  0  0  0  0  0  0  0  0
    6.5758   -0.7332   -0.3559 H   0  0  0  0  0  0  0  0  0  0  0  0
    9.8726    1.2999   -0.5787 H   0  0  0  0  0  0  0  0  0  0  0  0
   11.0797   -2.6143    0.2081 H   0  0  0  0  0  0  0  0  0  0  0  0
   12.7936    0.1737   -0.8247 H   0  0  0  0  0  0  0  0  0  0  0  0
   -7.2031   -0.4467   -2.3975 H   0  0  0  0  0  0  0  0  0  0  0  0
  1  2  1  0
  2  3  1  0
  3  4  2  0
  4  5  1  0
  5  6  2  0
  6  7  1  0
  7  8  2  0
  8  9  1  0
  5 10  1  0
 10 11  1  0
 11 12  1  0
 12 13  1  0
 13 14  1  0
 14 15  1  0
 15 16  1  0
 16 17  1  0
 17 18  1  0
 18 19  1  0
 19 20  1  0
 20 21  1  0
 21 22  1  0
 22 23  1  0
 23 24  1  0
 24 25  2  0
 25 26  1  0
 26 27  2  0
 27 28  1  0
 28 29  2  0
 28 30  1  0
 30 31  1  0
 31 32  2  0
 32 33  1  0
 33 34  1  0
 34 35  2  0
 32 36  1  0
 10 37  1  0
  8  3  1  0
 29 24  1  0
 34 30  1  0
  1 38  1  0
  2 39  1  0
  2 40  1  0
  4 41  1  0
  6 42  1  0
  7 43  1  0
  9 44  1  0
 10 45  1  1
 11 46  1  0
 11 47  1  0
 12 48  1  0
 13 49  1  0
 13 50  1  0
 14 51  1  0
 14 52  1  0
 15 53  1  0
 15 54  1  0
 16 55  1  0
 16 56  1  0
 17 57  1  0
 17 58  1  0
 18 59  1  0
 18 60  1  0
 20 61  1  0
 20 62  1  0
 21 63  1  0
 21 64  1  0
 22 65  1  0
 22 66  1  0
 23 67  1  0
 23 68  1  0
 25 69  1  0
 26 70  1  0
 27 71  1  0
 29 72  1  0
 31 73  1  0
 33 74  1  0
 36 75  1  0
 37 76  1  0
M  END
>  <Ligand ID>  (1) 
LIG0001227

>  <Ligand>  (1) 
BDBM50419015

>  <SMILES>  (1) 
OCc1cc(ccc1O)[C@H](CNCCCCCCOCCCCc1cccc(c1)n1cc([nH]c1=O)O)O

>  <CID>  (1) 
91301196.0

>  <ChEMBL ID>  (1) 
nan

>  <InChiKey>  (1) 
ZJMCDSAINRRPBX-SANMLTNESA-N

>  <InChi>  (1) 
InChI=1S/C28H39N3O6/c32-20-23-17-22(11-12-25(23)33)26(34)18-29-13-4-1-2-5-14-37-15-6-3-8-21-9-7-10-24(16-21)31-19-27(35)30-28(31)36/h7,9-12,16-17,19,26,29,32-35H,1-6,8,13-15,18,20H2,(H,30,36)/t26-/m0/s1

>  <IUPAC Name>  (1) 
5-hydroxy-3-[3-[4-[6-[[(2R)-2-hydroxy-2-[4-hydroxy-3-(hydroxymethyl)phenyl]ethyl]amino]hexoxy]butyl]phenyl]-1H-imidazol-2-one

$$$$
