
     RDKit          3D

 44 45  0  0  0  0  0  0  0  0999 V2000
   -1.0365    2.8559    2.2272 O   0  0  0  0  0  0  0  0  0  0  0  0
   -1.5558    1.7290    1.5800 C   0  0  2  0  0  0  0  0  0  0  0  0
   -0.7381    1.3641    0.3634 C   0  0  1  0  0  0  0  0  0  0  0  0
    0.4498    0.4998    0.7147 C   0  0  0  0  0  0  0  0  0  0  0  0
    1.0179    0.0404   -0.4731 O   0  0  0  0  0  0  0  0  0  0  0  0
    2.3424   -0.9224   -0.0525 P   0  0  0  0  0  0  0  0  0  0  0  0
    3.4959   -0.0605    0.4254 O   0  0  0  0  0  0  0  0  0  0  0  0
    2.8660   -1.8643   -1.3454 O   0  0  0  0  0  0  0  0  0  0  0  0
    4.3763   -2.4906   -0.9480 P   0  0  0  0  0  0  0  0  0  0  0  0
    4.1461   -3.8635   -0.3208 O   0  0  0  0  0  0  0  0  0  0  0  0
    5.0840   -1.5272    0.2096 O   0  0  0  0  0  0  0  0  0  0  0  0
    6.3456   -0.5725   -0.3601 P   0  0  0  0  0  0  0  0  0  0  0  0
    6.8542    0.2224    0.8371 O   0  0  0  0  0  0  0  0  0  0  0  0
    7.6009   -1.5546   -0.8900 O   0  0  0  0  0  0  0  0  0  0  0  0
    5.8588    0.5437   -1.5230 O   0  0  0  0  0  0  0  0  0  0  0  0
    5.3476   -2.7215   -2.3025 O   0  0  0  0  0  0  0  0  0  0  0  0
    1.8410   -1.9402    1.2072 O   0  0  0  0  0  0  0  0  0  0  0  0
   -1.6279    0.5449   -0.3523 O   0  0  0  0  0  0  0  0  0  0  0  0
   -2.8023    1.2895   -0.3650 C   0  0  2  0  0  0  0  0  0  0  0  0
   -2.8902    2.0511    0.9060 C   0  0  2  0  0  0  0  0  0  0  0  0
   -2.8457    3.4406    0.6847 O   0  0  0  0  0  0  0  0  0  0  0  0
   -3.8978    0.4172   -0.6682 N   0  0  0  0  0  0  0  0  0  0  0  0
   -4.4419    0.3870   -1.9108 C   0  0  0  0  0  0  0  0  0  0  0  0
   -5.4895   -0.4298   -2.2479 C   0  0  0  0  0  0  0  0  0  0  0  0
   -6.0098   -0.4350   -3.5001 F   0  0  0  0  0  0  0  0  0  0  0  0
   -6.0408   -1.2800   -1.2859 C   0  0  0  0  0  0  0  0  0  0  0  0
   -7.0060   -2.0461   -1.5598 O   0  0  0  0  0  0  0  0  0  0  0  0
   -5.4849   -1.2314   -0.0646 N   0  0  0  0  0  0  0  0  0  0  0  0
   -4.4490   -0.4128    0.2391 C   0  0  0  0  0  0  0  0  0  0  0  0
   -4.0005   -0.4432    1.4130 O   0  0  0  0  0  0  0  0  0  0  0  0
   -0.0430    2.8455    2.2414 H   0  0  0  0  0  0  0  0  0  0  0  0
   -1.6252    0.9404    2.3301 H   0  0  0  0  0  0  0  0  0  0  0  0
   -0.4258    2.2579   -0.1752 H   0  0  0  0  0  0  0  0  0  0  0  0
    0.1397   -0.4118    1.2647 H   0  0  0  0  0  0  0  0  0  0  0  0
    1.1719    1.0721    1.3339 H   0  0  0  0  0  0  0  0  0  0  0  0
    8.0818   -1.1962   -1.6692 H   0  0  0  0  0  0  0  0  0  0  0  0
    5.8675    1.4694   -1.1964 H   0  0  0  0  0  0  0  0  0  0  0  0
    6.0260   -3.4183   -2.1561 H   0  0  0  0  0  0  0  0  0  0  0  0
    2.5141   -1.9028    1.9351 H   0  0  0  0  0  0  0  0  0  0  0  0
   -2.6825    2.0145   -1.2060 H   0  0  0  0  0  0  0  0  0  0  0  0
   -3.7587    1.8785    1.5364 H   0  0  0  0  0  0  0  0  0  0  0  0
   -2.7164    3.6533   -0.2749 H   0  0  0  0  0  0  0  0  0  0  0  0
   -3.9853    1.0666   -2.6408 H   0  0  0  0  0  0  0  0  0  0  0  0
   -5.8740   -1.8590    0.6889 H   0  0  0  0  0  0  0  0  0  0  0  0
  1  2  1  0
  2  3  1  0
  3  4  1  0
  4  5  1  0
  5  6  1  0
  6  7  2  0
  6  8  1  0
  8  9  1  0
  9 10  2  0
  9 11  1  0
 11 12  1  0
 12 13  2  0
 12 14  1  0
 12 15  1  0
  9 16  1  0
  6 17  1  0
  3 18  1  0
 18 19  1  0
 19 20  1  0
 20 21  1  0
 19 22  1  0
 22 23  1  0
 23 24  2  0
 24 25  1  0
 24 26  1  0
 26 27  2  0
 26 28  1  0
 28 29  1  0
 29 30  2  0
 20  2  1  0
 29 22  1  0
  1 31  1  0
  2 32  1  1
  3 33  1  6
  4 34  1  0
  4 35  1  0
 14 36  1  0
 15 37  1  0
 16 38  1  0
 17 39  1  0
 19 40  1  6
 20 41  1  1
 21 42  1  0
 23 43  1  0
 28 44  1  0
M  END
>  <Ligand ID>  (1) 
LIG0005741

>  <Ligand>  (1) 
FUTP

>  <SMILES>  (1) 
O[C@@H]1[C@@H](COP(=O)(OP(=O)(OP(=O)(O)O)O)O)O[C@H]([C@@H]1O)n1cc(F)c(=O)[nH]c1=O

>  <CID>  (1) 
10255482.0

>  <ChEMBL ID>  (1) 
nan

>  <InChiKey>  (1) 
AREUQFTVCMGENT-UAKXSSHOSA-N

>  <InChi>  (1) 
InChI=1S/C9H14FN2O15P3/c10-3-1-12(9(16)11-7(3)15)8-6(14)5(13)4(25-8)2-24-29(20,21)27-30(22,23)26-28(17,18)19/h1,4-6,8,13-14H,2H2,(H,20,21)(H,22,23)(H,11,15,16)(H2,17,18,19)/t4-,5-,6-,8-/m1/s1

>  <IUPAC Name>  (1) 
[[(2R,3S,4R,5R)-5-(5-fluoro-2,4-dioxopyrimidin-1-yl)-3,4-dihydroxyoxolan-2-yl]methoxy-hydroxyphosphoryl] phosphono hydrogen phosphate

$$$$
