
     RDKit          3D

 42 46  0  0  0  0  0  0  0  0999 V2000
   -4.3691   -1.5854    1.7197 O   0  0  0  0  0  0  0  0  0  0  0  0
   -4.5594   -0.2157    1.5731 C   0  0  0  0  0  0  0  0  0  0  0  0
   -4.2036    0.2466    0.1632 C   0  0  0  0  0  0  0  0  0  0  0  0
   -5.2650    0.3318   -0.8439 C   0  0  0  0  0  0  0  0  0  0  0  0
   -4.6953    1.5748   -0.2865 C   0  0  0  0  0  0  0  0  0  0  0  0
   -2.8135   -0.0229   -0.1917 N   0  0  0  0  0  0  0  0  0  0  0  0
   -1.7485    0.5371    0.5586 C   0  0  0  0  0  0  0  0  0  0  0  0
   -2.0255    1.2743    1.5410 O   0  0  0  0  0  0  0  0  0  0  0  0
   -0.3430    0.3033    0.2515 C   0  0  0  0  0  0  0  0  0  0  0  0
    0.6571    0.8407    0.9715 N   0  0  0  0  0  0  0  0  0  0  0  0
    1.8117    0.4447    0.4471 N   0  0  0  0  0  0  0  0  0  0  0  0
    1.5791   -0.3508   -0.6146 C   0  0  0  0  0  0  0  0  0  0  0  0
    0.2019   -0.4575   -0.7615 C   0  0  0  0  0  0  0  0  0  0  0  0
   -0.1131   -1.3211   -1.9144 C   0  0  0  0  0  0  0  0  0  0  0  0
    1.2213   -1.6082   -2.5336 C   0  0  1  0  0  0  0  0  0  0  0  0
    2.2815   -1.1286   -1.6497 C   0  0  2  0  0  0  0  0  0  0  0  0
    2.0689   -2.5920   -1.7433 C   0  0  0  0  0  0  0  0  0  0  0  0
    3.1125    0.8137    0.9436 C   0  0  0  0  0  0  0  0  0  0  0  0
    3.7738    1.8792    0.3473 C   0  0  0  0  0  0  0  0  0  0  0  0
    5.0164    2.2080    0.8445 C   0  0  0  0  0  0  0  0  0  0  0  0
    5.6176    1.5353    1.8891 C   0  0  0  0  0  0  0  0  0  0  0  0
    4.9219    0.4830    2.4500 C   0  0  0  0  0  0  0  0  0  0  0  0
    3.6639    0.1015    1.9938 C   0  0  0  0  0  0  0  0  0  0  0  0
    3.0184   -0.9211    2.5588 F   0  0  0  0  0  0  0  0  0  0  0  0
    6.8486    1.8856    2.3579 F   0  0  0  0  0  0  0  0  0  0  0  0
   -4.4641   -2.0234    0.8353 H   0  0  0  0  0  0  0  0  0  0  0  0
   -5.6553   -0.0273    1.7104 H   0  0  0  0  0  0  0  0  0  0  0  0
   -4.0133    0.3306    2.3464 H   0  0  0  0  0  0  0  0  0  0  0  0
   -6.2986    0.0939   -0.4583 H   0  0  0  0  0  0  0  0  0  0  0  0
   -5.0977    0.0127   -1.8893 H   0  0  0  0  0  0  0  0  0  0  0  0
   -5.2933    2.2041    0.4145 H   0  0  0  0  0  0  0  0  0  0  0  0
   -4.0851    2.1673   -0.9898 H   0  0  0  0  0  0  0  0  0  0  0  0
   -2.5850   -0.6311   -1.0021 H   0  0  0  0  0  0  0  0  0  0  0  0
   -0.5228   -2.2834   -1.5244 H   0  0  0  0  0  0  0  0  0  0  0  0
   -0.8391   -0.8812   -2.6298 H   0  0  0  0  0  0  0  0  0  0  0  0
    1.3700   -1.5371   -3.6288 H   0  0  0  0  0  0  0  0  0  0  0  0
    3.2232   -0.7490   -2.1066 H   0  0  0  0  0  0  0  0  0  0  0  0
    1.6029   -3.1637   -0.9113 H   0  0  0  0  0  0  0  0  0  0  0  0
    2.7588   -3.1806   -2.3509 H   0  0  0  0  0  0  0  0  0  0  0  0
    3.3026    2.4133   -0.4780 H   0  0  0  0  0  0  0  0  0  0  0  0
    5.5282    3.0395    0.3764 H   0  0  0  0  0  0  0  0  0  0  0  0
    5.4099   -0.0407    3.2763 H   0  0  0  0  0  0  0  0  0  0  0  0
  1  2  1  0
  2  3  1  0
  3  4  1  0
  4  5  1  0
  3  6  1  0
  6  7  1  0
  7  8  2  0
  7  9  1  0
  9 10  2  0
 10 11  1  0
 11 12  1  0
 12 13  2  0
 13 14  1  0
 14 15  1  0
 15 16  1  0
 16 17  1  0
 11 18  1  0
 18 19  2  0
 19 20  1  0
 20 21  2  0
 21 22  1  0
 22 23  2  0
 23 24  1  0
 21 25  1  0
  5  3  1  0
 13  9  1  0
 17 15  1  0
 23 18  1  0
 16 12  1  0
  1 26  1  0
  2 27  1  0
  2 28  1  0
  4 29  1  0
  4 30  1  0
  5 31  1  0
  5 32  1  0
  6 33  1  0
 14 34  1  0
 14 35  1  0
 15 36  1  6
 16 37  1  6
 17 38  1  0
 17 39  1  0
 19 40  1  0
 20 41  1  0
 22 42  1  0
M  END
>  <Ligand ID>  (1) 
LIG0001332

>  <Ligand>  (1) 
CHEMBL3354964

>  <SMILES>  (1) 
OCC1(CC1)NC(=O)c1nn(c2c1C[C@H]1[C@@H]2C1)c1ccc(cc1F)F

>  <CID>  (1) 
86688563.0

>  <ChEMBL ID>  (1) 
nan

>  <InChiKey>  (1) 
RAMHCAPSUIGEGV-ONGXEEELSA-N

>  <InChi>  (1) 
InChI=1S/C18H17F2N3O2/c19-10-1-2-14(13(20)7-10)23-16-11-5-9(11)6-12(16)15(22-23)17(25)21-18(8-24)3-4-18/h1-2,7,9,11,24H,3-6,8H2,(H,21,25)/t9-,11-/m0/s1

>  <IUPAC Name>  (1) 
(2S,4S)-9-(2,4-difluorophenyl)-N-[1-(hydroxymethyl)cyclopropyl]-8,9-diazatricyclo[4.3.0.02,4]nona-1(6),7-diene-7-carboxamide

$$$$
