
     RDKit          3D

 58 62  0  0  0  0  0  0  0  0999 V2000
   -2.2396   -4.2431    0.4975 O   0  0  0  0  0  0  0  0  0  0  0  0
   -2.2646   -2.9026    0.0201 C   0  0  2  0  0  0  0  0  0  0  0  0
   -1.7003   -2.9474   -1.3460 C   0  0  0  0  0  0  0  0  0  0  0  0
   -0.6823   -1.9044   -1.6625 C   0  0  0  0  0  0  0  0  0  0  0  0
    0.0938   -1.4104   -0.4986 C   0  0  2  0  0  0  0  0  0  0  0  0
   -0.8475   -0.8549    0.5532 C   0  0  1  0  0  0  0  0  0  0  0  0
   -1.6019   -2.0538    1.0113 C   0  0  0  0  0  0  0  0  0  0  0  0
   -0.1093   -0.2386    1.7114 C   0  0  0  0  0  0  0  0  0  0  0  0
    1.3384    0.0465    1.5092 C   0  0  0  0  0  0  0  0  0  0  0  0
    1.8428    0.0115    0.2183 N   0  0  0  0  0  0  0  0  0  0  0  0
    1.0257   -0.3096   -0.8817 C   0  0  2  0  0  0  0  0  0  0  0  0
    0.3713    0.8821   -1.4620 C   0  0  0  0  0  0  0  0  0  0  0  0
   -1.0479    1.0497   -1.0546 C   0  0  0  0  0  0  0  0  0  0  0  0
   -1.6338    0.2258   -0.0898 C   0  0  0  0  0  0  0  0  0  0  0  0
   -2.9546    0.4928    0.1980 C   0  0  0  0  0  0  0  0  0  0  0  0
   -3.6505   -0.2402    1.1286 O   0  0  0  0  0  0  0  0  0  0  0  0
   -3.6631    1.5187   -0.4337 C   0  0  0  0  0  0  0  0  0  0  0  0
   -3.0588    2.3184   -1.3858 C   0  0  0  0  0  0  0  0  0  0  0  0
   -1.7504    2.0634   -1.6776 C   0  0  0  0  0  0  0  0  0  0  0  0
   -5.0633    1.7581   -0.0939 C   0  0  0  0  0  0  0  0  0  0  0  0
   -5.6784    1.0854    0.7593 O   0  0  0  0  0  0  0  0  0  0  0  0
   -5.7802    2.7952   -0.7486 N   0  0  0  0  0  0  0  0  0  0  0  0
    3.0177    0.7210   -0.1209 C   0  0  0  0  0  0  0  0  0  0  0  0
    4.2944    0.2023    0.4381 C   0  0  0  0  0  0  0  0  0  0  0  0
    5.4441    1.1041   -0.0608 C   0  0  0  0  0  0  0  0  0  0  0  0
    5.1916    1.9733    1.1532 C   0  0  0  0  0  0  0  0  0  0  0  0
    4.6102    0.7138    1.8100 C   0  0  0  0  0  0  0  0  0  0  0  0
    0.8426   -2.4382    0.0760 O   0  0  0  0  0  0  0  0  0  0  0  0
   -1.5409   -4.3463    1.2018 H   0  0  0  0  0  0  0  0  0  0  0  0
   -3.3717   -2.6905    0.0059 H   0  0  0  0  0  0  0  0  0  0  0  0
   -2.5398   -2.8138   -2.0726 H   0  0  0  0  0  0  0  0  0  0  0  0
   -1.2738   -3.9427   -1.6236 H   0  0  0  0  0  0  0  0  0  0  0  0
   -1.1289   -1.0717   -2.2383 H   0  0  0  0  0  0  0  0  0  0  0  0
    0.0837   -2.3254   -2.3809 H   0  0  0  0  0  0  0  0  0  0  0  0
   -0.7791   -2.7039    1.4695 H   0  0  0  0  0  0  0  0  0  0  0  0
   -2.2626   -1.9054    1.8896 H   0  0  0  0  0  0  0  0  0  0  0  0
   -0.6537    0.6694    2.0476 H   0  0  0  0  0  0  0  0  0  0  0  0
   -0.2053   -0.9296    2.5764 H   0  0  0  0  0  0  0  0  0  0  0  0
    1.5072    1.1035    1.8978 H   0  0  0  0  0  0  0  0  0  0  0  0
    1.9745   -0.5850    2.1739 H   0  0  0  0  0  0  0  0  0  0  0  0
    1.6961   -0.7410   -1.6818 H   0  0  0  0  0  0  0  0  0  0  0  0
    0.8826    1.8160   -1.0822 H   0  0  0  0  0  0  0  0  0  0  0  0
    0.4261    0.9329   -2.5696 H   0  0  0  0  0  0  0  0  0  0  0  0
   -3.9953    0.0829    2.0215 H   0  0  0  0  0  0  0  0  0  0  0  0
   -3.5731    3.1223   -1.8949 H   0  0  0  0  0  0  0  0  0  0  0  0
   -1.2716    2.6958   -2.4326 H   0  0  0  0  0  0  0  0  0  0  0  0
   -6.4313    3.4512   -0.2691 H   0  0  0  0  0  0  0  0  0  0  0  0
   -5.6750    2.9473   -1.7932 H   0  0  0  0  0  0  0  0  0  0  0  0
    2.8758    1.7968    0.1411 H   0  0  0  0  0  0  0  0  0  0  0  0
    3.1510    0.7302   -1.2468 H   0  0  0  0  0  0  0  0  0  0  0  0
    4.5010   -0.8762    0.2673 H   0  0  0  0  0  0  0  0  0  0  0  0
    5.1930    1.5963   -1.0238 H   0  0  0  0  0  0  0  0  0  0  0  0
    6.4402    0.6433    0.0043 H   0  0  0  0  0  0  0  0  0  0  0  0
    4.4471    2.7500    0.9748 H   0  0  0  0  0  0  0  0  0  0  0  0
    6.1325    2.3333    1.6347 H   0  0  0  0  0  0  0  0  0  0  0  0
    5.4617    0.1908    2.3126 H   0  0  0  0  0  0  0  0  0  0  0  0
    3.7650    0.9336    2.4483 H   0  0  0  0  0  0  0  0  0  0  0  0
    1.8182   -2.2832   -0.0513 H   0  0  0  0  0  0  0  0  0  0  0  0
  1  2  1  0
  2  3  1  0
  3  4  1  0
  4  5  1  0
  5  6  1  0
  6  7  1  1
  6  8  1  0
  8  9  1  0
  9 10  1  0
 10 11  1  0
 11 12  1  0
 12 13  1  0
 13 14  2  0
 14 15  1  0
 15 16  1  0
 15 17  2  0
 17 18  1  0
 18 19  2  0
 17 20  1  0
 20 21  2  0
 20 22  1  0
 10 23  1  0
 23 24  1  0
 24 25  1  0
 25 26  1  0
 26 27  1  0
  5 28  1  1
  7  2  1  0
 19 13  1  0
 27 24  1  0
 11  5  1  0
 14  6  1  0
  1 29  1  0
  2 30  1  6
  3 31  1  0
  3 32  1  0
  4 33  1  0
  4 34  1  0
  7 35  1  0
  7 36  1  0
  8 37  1  0
  8 38  1  0
  9 39  1  0
  9 40  1  0
 11 41  1  6
 12 42  1  0
 12 43  1  0
 16 44  1  0
 18 45  1  0
 19 46  1  0
 22 47  1  0
 22 48  1  0
 23 49  1  0
 23 50  1  0
 24 51  1  0
 25 52  1  0
 25 53  1  0
 26 54  1  0
 26 55  1  0
 27 56  1  0
 27 57  1  0
 28 58  1  0
M  END
>  <Ligand ID>  (1) 
LIG0002929

>  <Ligand>  (1) 
CHEMBL511645

>  <SMILES>  (1) 
O[C@@H]1CC[C@@]2([C@@]3(C1)CCN([C@@H]2Cc1c3c(O)c(cc1)C(=O)N)CC1CCC1)O

>  <CID>  (1) 
44592015.0

>  <ChEMBL ID>  (1) 
nan

>  <InChiKey>  (1) 
NWIALXFYKPFWTR-PVFUSPOPSA-N

>  <InChi>  (1) 
InChI=1S/C22H30N2O4/c23-20(27)16-5-4-14-10-17-22(28)7-6-15(25)11-21(22,18(14)19(16)26)8-9-24(17)12-13-2-1-3-13/h4-5,13,15,17,25-26,28H,1-3,6-12H2,(H2,23,27)/t15-,17-,21-,22-/m1/s1

>  <IUPAC Name>  (1) 
(1R,9R,10S,13R)-17-(cyclobutylmethyl)-3,10,13-trihydroxy-17-azatetracyclo[7.5.3.01,10.02,7]heptadeca-2(7),3,5-triene-4-carboxamide

$$$$
