
     RDKit          3D

 29 29  0  0  0  0  0  0  0  0999 V2000
    3.0470    1.2041   -0.1319 C   0  0  0  0  0  0  0  0  0  0  0  0
    2.1026    0.0727   -0.4323 C   0  0  0  0  0  0  0  0  0  0  0  0
    2.3703   -0.6490   -1.5014 C   0  0  0  0  0  0  0  0  0  0  0  0
    0.9718   -0.1191    0.4957 C   0  0  1  0  0  0  0  0  0  0  0  0
    0.2191    1.1659    0.7652 C   0  0  0  0  0  0  0  0  0  0  0  0
   -1.2337    0.8639    1.1546 C   0  0  0  0  0  0  0  0  0  0  0  0
   -1.9535    0.1996    0.0005 C   0  0  1  0  0  0  0  0  0  0  0  0
   -1.1186   -0.8608   -0.6809 C   0  0  2  0  0  0  0  0  0  0  0  0
    0.0847   -1.2530    0.1352 C   0  0  0  0  0  0  0  0  0  0  0  0
   -0.7107   -0.4773   -1.9448 O   0  0  0  0  0  0  0  0  0  0  0  0
   -3.2352   -0.3914    0.5511 C   0  0  0  0  0  0  0  0  0  0  0  0
    2.6968    1.8584    0.6822 H   0  0  0  0  0  0  0  0  0  0  0  0
    3.9815    0.7211    0.2435 H   0  0  0  0  0  0  0  0  0  0  0  0
    3.2093    1.7855   -1.0419 H   0  0  0  0  0  0  0  0  0  0  0  0
    3.2688   -0.3425   -2.0680 H   0  0  0  0  0  0  0  0  0  0  0  0
    1.8374   -1.4787   -1.8829 H   0  0  0  0  0  0  0  0  0  0  0  0
    1.4594   -0.4136    1.4751 H   0  0  0  0  0  0  0  0  0  0  0  0
    0.6858    1.7108    1.6056 H   0  0  0  0  0  0  0  0  0  0  0  0
    0.1462    1.8142   -0.1284 H   0  0  0  0  0  0  0  0  0  0  0  0
   -1.7191    1.8297    1.3452 H   0  0  0  0  0  0  0  0  0  0  0  0
   -1.2593    0.2290    2.0442 H   0  0  0  0  0  0  0  0  0  0  0  0
   -2.1881    0.9720   -0.7701 H   0  0  0  0  0  0  0  0  0  0  0  0
   -1.7409   -1.7796   -0.8007 H   0  0  0  0  0  0  0  0  0  0  0  0
   -0.3128   -1.7474    1.0719 H   0  0  0  0  0  0  0  0  0  0  0  0
    0.6264   -2.0399   -0.3885 H   0  0  0  0  0  0  0  0  0  0  0  0
   -0.6415   -1.2560   -2.5690 H   0  0  0  0  0  0  0  0  0  0  0  0
   -3.5545   -1.2747   -0.0511 H   0  0  0  0  0  0  0  0  0  0  0  0
   -4.0245    0.3856    0.6147 H   0  0  0  0  0  0  0  0  0  0  0  0
   -3.0148   -0.7298    1.5845 H   0  0  0  0  0  0  0  0  0  0  0  0
  1  2  1  0
  2  3  2  0
  2  4  1  0
  4  5  1  0
  5  6  1  0
  6  7  1  0
  7  8  1  0
  8  9  1  0
  8 10  1  0
  7 11  1  0
  9  4  1  0
  1 12  1  0
  1 13  1  0
  1 14  1  0
  3 15  1  0
  3 16  1  0
  4 17  1  1
  5 18  1  0
  5 19  1  0
  6 20  1  0
  6 21  1  0
  7 22  1  6
  8 23  1  6
  9 24  1  0
  9 25  1  0
 10 26  1  0
 11 27  1  0
 11 28  1  0
 11 29  1  0
M  END
>  <Ligand ID>  (1) 
LIG0000206

>  <Ligand>  (1) 
(+)-Dihydrocarveol

>  <SMILES>  (1) 
CC(=C)[C@H]1CC[C@@H]([C@H](C1)O)C

>  <CID>  (1) 
89755.0

>  <ChEMBL ID>  (1) 
nan

>  <InChiKey>  (1) 
KRCZYMFUWVJCLI-GUBZILKMSA-N

>  <InChi>  (1) 
InChI=1S/C10H18O/c1-7(2)9-5-4-8(3)10(11)6-9/h8-11H,1,4-6H2,2-3H3/t8-,9-,10-/m0/s1

>  <IUPAC Name>  (1) 
(1S,2S,5S)-2-methyl-5-prop-1-en-2-ylcyclohexan-1-ol

$$$$
