
     RDKit          3D

 64 68  0  0  0  0  0  0  0  0999 V2000
   -2.4822    4.1112   -1.2420 O   0  0  0  0  0  0  0  0  0  0  0  0
   -3.1658    4.5250   -0.1132 C   0  0  0  0  0  0  0  0  0  0  0  0
   -3.0778    5.7384    0.1971 O   0  0  0  0  0  0  0  0  0  0  0  0
   -3.9816    3.6330    0.7353 C   0  0  0  0  0  0  0  0  0  0  0  0
   -3.9283    2.3369    0.1928 O   0  0  0  0  0  0  0  0  0  0  0  0
   -2.7011    1.6989    0.0743 C   0  0  0  0  0  0  0  0  0  0  0  0
   -2.6820    0.4613   -0.4476 N   0  0  0  0  0  0  0  0  0  0  0  0
   -1.5822   -0.2828   -0.6269 C   0  0  0  0  0  0  0  0  0  0  0  0
   -1.6462   -1.5665   -1.1818 N   0  0  0  0  0  0  0  0  0  0  0  0
   -2.8570   -2.2346   -1.6127 C   0  0  0  0  0  0  0  0  0  0  0  0
   -3.8444   -2.4752   -0.5639 C   0  0  0  0  0  0  0  0  0  0  0  0
   -3.7045   -3.6293    0.2123 C   0  0  0  0  0  0  0  0  0  0  0  0
   -4.6064   -3.9385    1.2179 C   0  0  0  0  0  0  0  0  0  0  0  0
   -5.6767   -3.1091    1.4835 C   0  0  0  0  0  0  0  0  0  0  0  0
   -5.8360   -1.9619    0.7286 C   0  0  0  0  0  0  0  0  0  0  0  0
   -4.9223   -1.6769   -0.2686 C   0  0  0  0  0  0  0  0  0  0  0  0
   -6.9950   -1.0739    1.0241 C   0  0  0  0  0  0  0  0  0  0  0  0
   -7.1995   -0.1823    0.0145 F   0  0  0  0  0  0  0  0  0  0  0  0
   -8.1153   -1.8650    1.2358 F   0  0  0  0  0  0  0  0  0  0  0  0
   -6.7459   -0.3810    2.2028 F   0  0  0  0  0  0  0  0  0  0  0  0
   -0.3836    0.3230   -0.2221 C   0  0  0  0  0  0  0  0  0  0  0  0
   -0.3854    1.5931    0.3157 C   0  0  0  0  0  0  0  0  0  0  0  0
   -1.5418    2.2700    0.4595 N   0  0  0  0  0  0  0  0  0  0  0  0
    0.7929    2.1874    0.7132 C   0  0  0  0  0  0  0  0  0  0  0  0
    2.0005    1.5347    0.5861 C   0  0  0  0  0  0  0  0  0  0  0  0
    1.9782    0.2641    0.0450 C   0  0  0  0  0  0  0  0  0  0  0  0
    0.8119   -0.3415   -0.3558 C   0  0  0  0  0  0  0  0  0  0  0  0
    3.3199   -0.4100   -0.0761 C   0  0  0  0  0  0  0  0  0  0  0  0
    3.9308   -0.1457   -1.3851 C   0  0  0  0  0  0  0  0  0  0  0  0
    4.2542   -1.1605   -2.2926 C   0  0  0  0  0  0  0  0  0  0  0  0
    4.8095   -0.9103   -3.5190 C   0  0  0  0  0  0  0  0  0  0  0  0
    5.0851    0.3758   -3.9340 C   0  0  0  0  0  0  0  0  0  0  0  0
    4.7781    1.3932   -3.0640 C   0  0  0  0  0  0  0  0  0  0  0  0
    4.2184    1.1445   -1.8280 C   0  0  0  0  0  0  0  0  0  0  0  0
    5.7902    0.6133   -5.5037 Cl  0  0  0  0  0  0  0  0  0  0  0  0
    4.1714   -0.2504    1.0913 C   0  0  0  0  0  0  0  0  0  0  0  0
    3.9155   -1.0442    2.2215 C   0  0  0  0  0  0  0  0  0  0  0  0
    4.6584   -0.9716    3.3562 C   0  0  0  0  0  0  0  0  0  0  0  0
    5.7212   -0.1006    3.4618 C   0  0  0  0  0  0  0  0  0  0  0  0
    6.0021    0.6942    2.3723 C   0  0  0  0  0  0  0  0  0  0  0  0
    5.2360    0.6125    1.2153 C   0  0  0  0  0  0  0  0  0  0  0  0
    6.6997    0.0256    4.8962 Cl  0  0  0  0  0  0  0  0  0  0  0  0
   -1.5892    4.5084   -1.5285 H   0  0  0  0  0  0  0  0  0  0  0  0
   -5.0239    3.9854    0.8290 H   0  0  0  0  0  0  0  0  0  0  0  0
   -3.5511    3.6778    1.7721 H   0  0  0  0  0  0  0  0  0  0  0  0
   -0.7572   -2.1360   -1.3163 H   0  0  0  0  0  0  0  0  0  0  0  0
   -2.6147   -3.1564   -2.1386 H   0  0  0  0  0  0  0  0  0  0  0  0
   -3.3343   -1.5535   -2.3847 H   0  0  0  0  0  0  0  0  0  0  0  0
   -2.8680   -4.3011    0.0230 H   0  0  0  0  0  0  0  0  0  0  0  0
   -4.4297   -4.8504    1.7751 H   0  0  0  0  0  0  0  0  0  0  0  0
   -6.3697   -3.3727    2.2766 H   0  0  0  0  0  0  0  0  0  0  0  0
   -5.0957   -0.7779   -0.8346 H   0  0  0  0  0  0  0  0  0  0  0  0
    0.7475    3.1890    1.1319 H   0  0  0  0  0  0  0  0  0  0  0  0
    2.8987    2.0364    0.9099 H   0  0  0  0  0  0  0  0  0  0  0  0
    0.8946   -1.3345   -0.7662 H   0  0  0  0  0  0  0  0  0  0  0  0
    3.0396   -1.5135   -0.1008 H   0  0  0  0  0  0  0  0  0  0  0  0
    4.0308   -2.1734   -1.9511 H   0  0  0  0  0  0  0  0  0  0  0  0
    5.0198   -1.7817   -4.1442 H   0  0  0  0  0  0  0  0  0  0  0  0
    4.9993    2.4095   -3.3999 H   0  0  0  0  0  0  0  0  0  0  0  0
    4.0040    2.0144   -1.2190 H   0  0  0  0  0  0  0  0  0  0  0  0
    3.0924   -1.7416    2.1850 H   0  0  0  0  0  0  0  0  0  0  0  0
    4.4456   -1.5909    4.2154 H   0  0  0  0  0  0  0  0  0  0  0  0
    6.8397    1.3894    2.4381 H   0  0  0  0  0  0  0  0  0  0  0  0
    5.5080    1.2491    0.4120 H   0  0  0  0  0  0  0  0  0  0  0  0
  1  2  1  0
  2  3  2  0
  2  4  1  0
  4  5  1  0
  5  6  1  0
  6  7  2  0
  7  8  1  0
  8  9  1  0
  9 10  1  0
 10 11  1  0
 11 12  2  0
 12 13  1  0
 13 14  2  0
 14 15  1  0
 15 16  2  0
 15 17  1  0
 17 18  1  0
 17 19  1  0
 17 20  1  0
  8 21  2  0
 21 22  1  0
 22 23  2  0
 22 24  1  0
 24 25  2  0
 25 26  1  0
 26 27  2  0
 26 28  1  0
 28 29  1  0
 29 30  2  0
 30 31  1  0
 31 32  2  0
 32 33  1  0
 33 34  2  0
 32 35  1  0
 28 36  1  0
 36 37  2  0
 37 38  1  0
 38 39  2  0
 39 40  1  0
 40 41  2  0
 39 42  1  0
 23  6  1  0
 34 29  1  0
 41 36  1  0
 16 11  1  0
 27 21  1  0
  1 43  1  0
  4 44  1  0
  4 45  1  0
  9 46  1  0
 10 47  1  0
 10 48  1  0
 12 49  1  0
 13 50  1  0
 14 51  1  0
 16 52  1  0
 24 53  1  0
 25 54  1  0
 27 55  1  0
 28 56  1  0
 30 57  1  0
 31 58  1  0
 33 59  1  0
 34 60  1  0
 37 61  1  0
 38 62  1  0
 40 63  1  0
 41 64  1  0
M  END
>  <Ligand ID>  (1) 
LIG0005805

>  <Ligand>  (1) 
SCHEMBL17557642

>  <SMILES>  (1) 
OC(=O)COc1nc(NCc2cccc(c2)C(F)(F)F)c2c(n1)ccc(c2)C(c1ccc(cc1)Cl)c1ccc(cc1)Cl

>  <CID>  (1) 
118916126.0

>  <ChEMBL ID>  (1) 
nan

>  <InChiKey>  (1) 
YDTXWLNWZDXLGB-UHFFFAOYSA-N

>  <InChi>  (1) 
InChI=1S/C31H22Cl2F3N3O3/c32-23-9-4-19(5-10-23)28(20-6-11-24(33)12-7-20)21-8-13-26-25(15-21)29(39-30(38-26)42-17-27(40)41)37-16-18-2-1-3-22(14-18)31(34,35)36/h1-15,28H,16-17H2,(H,40,41)(H,37,38,39)

>  <IUPAC Name>  (1) 
2-[6-[bis(4-chlorophenyl)methyl]-4-[[3-(trifluoromethyl)phenyl]methylamino]quinazolin-2-yl]oxyacetic acid

$$$$
