
     RDKit          3D

 38 40  0  0  0  0  0  0  0  0999 V2000
   -0.8943    3.7731   -0.2067 C   0  0  0  0  0  0  0  0  0  0  0  0
   -1.6375    2.4935   -0.1584 C   0  0  0  0  0  0  0  0  0  0  0  0
   -2.9544    2.3382   -0.2503 N   0  0  0  0  0  0  0  0  0  0  0  0
   -3.2202    1.0337   -0.1617 N   0  0  0  0  0  0  0  0  0  0  0  0
   -2.0515    0.3712   -0.0129 C   0  0  0  0  0  0  0  0  0  0  0  0
   -1.1161    1.2996   -0.0164 N   0  0  0  0  0  0  0  0  0  0  0  0
   -1.8005   -1.0563    0.1284 C   0  0  0  0  0  0  0  0  0  0  0  0
   -2.7881   -2.0163    0.1259 C   0  0  0  0  0  0  0  0  0  0  0  0
   -2.5309   -3.3835    0.2600 C   0  0  0  0  0  0  0  0  0  0  0  0
   -1.2455   -3.8278    0.4030 C   0  0  0  0  0  0  0  0  0  0  0  0
   -0.2479   -2.8827    0.4075 C   0  0  0  0  0  0  0  0  0  0  0  0
   -0.5057   -1.5079    0.2728 C   0  0  0  0  0  0  0  0  0  0  0  0
    0.6451   -0.6784    0.3007 N   0  0  0  0  0  0  0  0  0  0  0  0
    1.9877   -1.2911    0.4620 C   0  0  0  0  0  0  0  0  0  0  0  0
    3.0603   -0.2753    0.4684 C   0  0  0  0  0  0  0  0  0  0  0  0
    3.9322   -0.0010    1.3989 N   0  0  0  0  0  0  0  0  0  0  0  0
    4.8067    1.0788    0.9819 C   0  0  0  0  0  0  0  0  0  0  0  0
    4.6701    1.0740   -0.5297 C   0  0  0  0  0  0  0  0  0  0  0  0
    3.2826    0.6040   -0.6525 N   0  0  0  0  0  0  0  0  0  0  0  0
   -4.5598    0.5232   -0.2236 C   0  0  0  0  0  0  0  0  0  0  0  0
   -0.3683    3.9275    0.7537 H   0  0  0  0  0  0  0  0  0  0  0  0
   -0.2411    3.7727   -1.0826 H   0  0  0  0  0  0  0  0  0  0  0  0
   -1.6000    4.6312   -0.2890 H   0  0  0  0  0  0  0  0  0  0  0  0
   -3.8326   -1.7856    0.0194 H   0  0  0  0  0  0  0  0  0  0  0  0
   -3.3227   -4.1184    0.2552 H   0  0  0  0  0  0  0  0  0  0  0  0
   -1.0139   -4.8771    0.5087 H   0  0  0  0  0  0  0  0  0  0  0  0
    0.7606   -3.2569    0.5218 H   0  0  0  0  0  0  0  0  0  0  0  0
    0.6828    0.3384    0.2214 H   0  0  0  0  0  0  0  0  0  0  0  0
    2.1170   -2.0258   -0.3759 H   0  0  0  0  0  0  0  0  0  0  0  0
    1.9973   -1.8905    1.3961 H   0  0  0  0  0  0  0  0  0  0  0  0
    4.3853    2.0293    1.3726 H   0  0  0  0  0  0  0  0  0  0  0  0
    5.8308    0.8598    1.3251 H   0  0  0  0  0  0  0  0  0  0  0  0
    5.3322    0.3637   -1.0330 H   0  0  0  0  0  0  0  0  0  0  0  0
    4.7868    2.0791   -0.9759 H   0  0  0  0  0  0  0  0  0  0  0  0
    2.6130    0.8686   -1.4091 H   0  0  0  0  0  0  0  0  0  0  0  0
   -4.8980    0.0707    0.7421 H   0  0  0  0  0  0  0  0  0  0  0  0
   -5.2546    1.4234   -0.3044 H   0  0  0  0  0  0  0  0  0  0  0  0
   -4.8069   -0.0790   -1.0980 H   0  0  0  0  0  0  0  0  0  0  0  0
  1  2  1  0
  2  3  2  0
  3  4  1  0
  4  5  1  0
  5  6  2  0
  5  7  1  0
  7  8  2  0
  8  9  1  0
  9 10  2  0
 10 11  1  0
 11 12  2  0
 12 13  1  0
 13 14  1  0
 14 15  1  0
 15 16  2  0
 16 17  1  0
 17 18  1  0
 18 19  1  0
  4 20  1  0
  6  2  1  0
 12  7  1  0
 19 15  1  0
  1 21  1  0
  1 22  1  0
  1 23  1  0
  8 24  1  0
  9 25  1  0
 10 26  1  0
 11 27  1  0
 13 28  1  0
 14 29  1  0
 14 30  1  0
 17 31  1  0
 17 32  1  0
 18 33  1  0
 18 34  1  0
 19 35  1  0
 20 36  1  0
 20 37  1  0
 20 38  1  0
M  END
>  <Ligand ID>  (1) 
LIG0003934

>  <Ligand>  (1) 
CHEMBL17819

>  <SMILES>  (1) 
Cc1nn(c(n1)c1ccccc1NCC1=NCCN1)C

>  <CID>  (1) 
22493225.0

>  <ChEMBL ID>  (1) 
nan

>  <InChiKey>  (1) 
QHTWLQHVCYOHJB-UHFFFAOYSA-N

>  <InChi>  (1) 
InChI=1S/C14H18N6/c1-10-18-14(20(2)19-10)11-5-3-4-6-12(11)17-9-13-15-7-8-16-13/h3-6,17H,7-9H2,1-2H3,(H,15,16)

>  <IUPAC Name>  (1) 
N-(4,5-dihydro-1H-imidazol-2-ylmethyl)-2-(2,5-dimethyl-1,2,4-triazol-3-yl)aniline

$$$$
