
     RDKit          3D

 75 74  0  0  0  0  0  0  0  0999 V2000
  -11.1583    2.5929   -3.0821 N   0  0  0  0  0  0  0  0  0  0  0  0
  -10.5256    1.9927   -2.1302 C   0  0  0  0  0  0  0  0  0  0  0  0
   -9.1764    1.7149   -2.2745 C   0  0  0  0  0  0  0  0  0  0  0  0
   -8.5308    1.0715   -1.2362 C   0  0  0  0  0  0  0  0  0  0  0  0
   -9.1851    0.7169   -0.1044 N   0  0  0  0  0  0  0  0  0  0  0  0
  -10.5121    1.0065    0.0021 C   0  0  0  0  0  0  0  0  0  0  0  0
  -11.1736    1.6385   -1.0027 N   0  0  0  0  0  0  0  0  0  0  0  0
  -11.2022    0.6458    1.1671 O   0  0  0  0  0  0  0  0  0  0  0  0
   -8.5065    0.0414    0.9854 C   0  0  2  0  0  0  0  0  0  0  0  0
   -7.1484    0.2987    0.8460 O   0  0  0  0  0  0  0  0  0  0  0  0
   -6.4759   -0.8812    1.0251 C   0  0  1  0  0  0  0  0  0  0  0  0
   -7.3584   -1.8729    0.2757 C   0  0  2  0  0  0  0  0  0  0  0  0
   -8.7237   -1.4352    0.8062 C   0  0  0  0  0  0  0  0  0  0  0  0
   -7.0567   -3.1871    0.6264 O   0  0  0  0  0  0  0  0  0  0  0  0
   -5.0976   -0.8102    0.3928 C   0  0  0  0  0  0  0  0  0  0  0  0
   -5.1583   -0.5707   -0.9578 O   0  0  0  0  0  0  0  0  0  0  0  0
   -3.6174   -0.4939   -1.6513 P   0  0  0  0  0  0  0  0  0  0  0  0
   -3.1829    0.9363   -1.6403 O   0  0  0  0  0  0  0  0  0  0  0  0
   -2.6100   -1.5002   -0.7415 O   0  0  0  0  0  0  0  0  0  0  0  0
   -1.1787   -0.7441   -0.2888 P   0  0  0  0  0  0  0  0  0  0  0  0
   -0.2814   -0.4713   -1.4721 O   0  0  0  0  0  0  0  0  0  0  0  0
   -0.4046   -1.7225    0.8543 O   0  0  0  0  0  0  0  0  0  0  0  0
    1.2243   -1.2872    1.0449 P   0  0  0  0  0  0  0  0  0  0  0  0
    1.6501   -1.6615    2.4431 O   0  0  0  0  0  0  0  0  0  0  0  0
    1.3479    0.3697    0.7756 O   0  0  0  0  0  0  0  0  0  0  0  0
    2.5806    0.7864   -0.2696 P   0  0  0  0  0  0  0  0  0  0  0  0
    2.8718   -0.2834   -1.2990 O   0  0  0  0  0  0  0  0  0  0  0  0
    4.0439    1.1191    0.5069 O   0  0  0  0  0  0  0  0  0  0  0  0
    4.9745    0.1120    0.3089 C   0  0  0  0  0  0  0  0  0  0  0  0
    6.2931    0.3875    0.9947 C   0  0  1  0  0  0  0  0  0  0  0  0
    7.2114   -0.6397    0.7799 O   0  0  0  0  0  0  0  0  0  0  0  0
    8.4127   -0.1186    1.2083 C   0  0  2  0  0  0  0  0  0  0  0  0
    8.4046    1.3644    1.0122 C   0  0  1  0  0  0  0  0  0  0  0  0
    7.0191    1.5705    0.3897 C   0  0  2  0  0  0  0  0  0  0  0  0
    6.4686    2.7891    0.7397 O   0  0  0  0  0  0  0  0  0  0  0  0
    8.3387    1.9798    2.2781 O   0  0  0  0  0  0  0  0  0  0  0  0
    9.5238   -0.6961    0.4722 N   0  0  0  0  0  0  0  0  0  0  0  0
   10.7810   -0.3939    0.8451 C   0  0  0  0  0  0  0  0  0  0  0  0
   11.7937   -0.9852    0.0922 C   0  0  0  0  0  0  0  0  0  0  0  0
   11.5356   -1.8247   -0.9653 C   0  0  0  0  0  0  0  0  0  0  0  0
   10.2512   -2.0911   -1.2928 N   0  0  0  0  0  0  0  0  0  0  0  0
    9.2621   -1.5283   -0.5761 C   0  0  0  0  0  0  0  0  0  0  0  0
    8.0459   -1.7566   -0.8561 O   0  0  0  0  0  0  0  0  0  0  0  0
   12.5270   -2.4252   -1.7296 O   0  0  0  0  0  0  0  0  0  0  0  0
    2.1133    2.1800   -1.1129 O   0  0  0  0  0  0  0  0  0  0  0  0
    2.1433   -2.1924   -0.0356 O   0  0  0  0  0  0  0  0  0  0  0  0
   -1.5618    0.7174    0.4712 O   0  0  0  0  0  0  0  0  0  0  0  0
   -3.7720   -1.0358   -3.2454 O   0  0  0  0  0  0  0  0  0  0  0  0
    0.0000    0.0000    0.0000 Na  0  0  0  0  0 15  0  0  0  0  0  0
    0.0000    0.0000    0.0000 Na  0  0  0  0  0 15  0  0  0  0  0  0
    0.0000    0.0000    0.0000 Na  0  0  0  0  0 15  0  0  0  0  0  0
    0.0000    0.0000    0.0000 Na  0  0  0  0  0 15  0  0  0  0  0  0
  -10.6317    2.8564   -3.9455 H   0  0  0  0  0  0  0  0  0  0  0  0
   -8.6657    2.0034   -3.1833 H   0  0  0  0  0  0  0  0  0  0  0  0
   -7.4892    0.8450   -1.3216 H   0  0  0  0  0  0  0  0  0  0  0  0
   -8.8373    0.4268    1.9753 H   0  0  0  0  0  0  0  0  0  0  0  0
   -6.4140   -1.2257    2.0737 H   0  0  0  0  0  0  0  0  0  0  0  0
   -7.2927   -1.6922   -0.8131 H   0  0  0  0  0  0  0  0  0  0  0  0
   -8.8231   -1.9482    1.8016 H   0  0  0  0  0  0  0  0  0  0  0  0
   -9.5473   -1.6799    0.1272 H   0  0  0  0  0  0  0  0  0  0  0  0
   -7.7570   -3.7517    0.2108 H   0  0  0  0  0  0  0  0  0  0  0  0
   -4.4737   -1.6813    0.6692 H   0  0  0  0  0  0  0  0  0  0  0  0
   -4.5958    0.0872    0.8543 H   0  0  0  0  0  0  0  0  0  0  0  0
    4.5527   -0.7852    0.8381 H   0  0  0  0  0  0  0  0  0  0  0  0
    5.1072   -0.1944   -0.7295 H   0  0  0  0  0  0  0  0  0  0  0  0
    6.1985    0.5088    2.0723 H   0  0  0  0  0  0  0  0  0  0  0  0
    8.5353   -0.3787    2.3004 H   0  0  0  0  0  0  0  0  0  0  0  0
    9.2135    1.7745    0.4083 H   0  0  0  0  0  0  0  0  0  0  0  0
    7.1506    1.4470   -0.6969 H   0  0  0  0  0  0  0  0  0  0  0  0
    5.7641    2.9817    0.0470 H   0  0  0  0  0  0  0  0  0  0  0  0
    8.0415    2.9060    2.1986 H   0  0  0  0  0  0  0  0  0  0  0  0
   11.0215    0.2619    1.6710 H   0  0  0  0  0  0  0  0  0  0  0  0
   12.8484   -0.8047    0.3129 H   0  0  0  0  0  0  0  0  0  0  0  0
    1.6572   -2.5166   -0.8155 H   0  0  0  0  0  0  0  0  0  0  0  0
   -0.7824    1.3091    0.5652 H   0  0  0  0  0  0  0  0  0  0  0  0
  1  2  2  3
  2  3  1  0
  3  4  2  0
  4  5  1  0
  5  6  1  0
  6  7  2  0
  6  8  1  0
  5  9  1  0
  9 10  1  0
 10 11  1  0
 11 12  1  0
 12 13  1  0
 12 14  1  0
 11 15  1  0
 15 16  1  0
 16 17  1  0
 17 18  2  0
 17 19  1  0
 19 20  1  0
 20 21  2  0
 20 22  1  0
 22 23  1  0
 23 24  2  0
 23 25  1  0
 25 26  1  0
 26 27  2  0
 26 28  1  0
 28 29  1  0
 29 30  1  0
 30 31  1  0
 31 32  1  0
 32 33  1  0
 33 34  1  0
 34 35  1  0
 33 36  1  0
 32 37  1  0
 37 38  1  0
 38 39  2  0
 39 40  1  0
 40 41  2  0
 41 42  1  0
 42 43  2  0
 40 44  1  0
 26 45  1  0
 23 46  1  0
 20 47  1  0
 17 48  1  0
  7  2  1  0
 13  9  1  0
 34 30  1  0
 42 37  1  0
  1 53  1  0
  3 54  1  0
  4 55  1  0
  9 56  1  1
 11 57  1  1
 12 58  1  6
 13 59  1  0
 13 60  1  0
 14 61  1  0
 15 62  1  0
 15 63  1  0
 29 64  1  0
 29 65  1  0
 30 66  1  1
 32 67  1  1
 33 68  1  6
 34 69  1  6
 35 70  1  0
 36 71  1  0
 38 72  1  0
 39 73  1  0
 46 74  1  0
 47 75  1  0
M  CHG  8   8  -1  44  -1  45  -1  48  -1  49   1  50   1  51   1  52   1
M  END
>  <Ligand ID>  (1) 
LIG0002346

>  <Ligand>  (1) 
Tetraphosphoric acid alpha-(2'-deoxy-5'-cytidyl)delta-(5'-uridyl)alpha,beta,gamma,delta-tetrasodium salt

>  <SMILES>  (1) 
N=c1ccn(c(n1)[O-])[C@@H]1O[C@@H]([C@H](C1)O)COP(=O)(OP(=O)(OP(=O)(OP(=O)(OC[C@H]1O[C@H]([C@@H]([C@@H]1O)O)n1ccc(nc1=O)[O-])[O-])O)O)[O-].[Na+].[Na+].[Na+].[Na+]

>  <CID>  (1) 
101860645.0

>  <ChEMBL ID>  (1) 
nan

>  <InChiKey>  (1) 
PASYJVRFGUDDEW-WMUGRWSXSA-J

>  <InChi>  (1) 
InChI=1S/C18H27N5O21P4.4Na/c19-11-1-3-22(17(28)20-11)13-5-8(24)9(40-13)6-38-45(30,31)42-47(34,35)44-48(36,37)43-46(32,33)39-7-10-14(26)15(27)16(41-10)23-4-2-12(25)21-18(23)29;;;;/h1-4,8-10,13-16,24,26-27H,5-7H2,(H,30,31)(H,32,33)(H,34,35)(H,36,37)(H2,19,20,28)(H,21,25,29);;;;/q;4*+1/p-4/t8-,9+,10+,13+,14+,15+,16+;;;;/m0..../s1

>  <IUPAC Name>  (1) 
tetrasodium;[[[[(2R,3S,4R,5R)-3,4-dihydroxy-5-(4-oxido-2-oxopyrimidin-1-yl)oxolan-2-yl]methoxy-oxidophosphoryl]oxy-hydroxyphosphoryl]oxy-hydroxyphosphoryl] [(2R,3S,5R)-3-hydroxy-5-(4-imino-2-oxidopyrimidin-1-yl)oxolan-2-yl]methyl phosphate

$$$$
