
     RDKit          3D

 61 61  0  0  0  0  0  0  0  0999 V2000
    2.4042   -0.5672   -0.7656 O   0  0  0  0  0  0  0  0  0  0  0  0
    1.7535   -0.4842    0.4547 C   0  0  0  0  0  0  0  0  0  0  0  0
    2.4379   -0.6867    1.4912 O   0  0  0  0  0  0  0  0  0  0  0  0
    0.3366   -0.1756    0.5339 C   0  0  0  0  0  0  0  0  0  0  0  0
   -0.3622    0.0328   -0.5576 C   0  0  0  0  0  0  0  0  0  0  0  0
   -1.7799    0.3404   -0.4525 C   0  0  0  0  0  0  0  0  0  0  0  0
   -2.4549    0.5419   -1.5112 O   0  0  0  0  0  0  0  0  0  0  0  0
   -2.4152    0.4196    0.7766 O   0  0  0  0  0  0  0  0  0  0  0  0
    7.0193    0.0467    1.4584 O   0  0  0  0  0  0  0  0  0  0  0  0
    6.5203   -1.0615    1.8559 C   0  0  0  0  0  0  0  0  0  0  0  0
    5.2713   -1.5251    1.3112 N   0  0  0  0  0  0  0  0  0  0  0  0
    4.6790   -0.6628    0.3317 C   0  0  0  0  0  0  0  0  0  0  0  0
    3.8162    0.3090    0.7676 C   0  0  0  0  0  0  0  0  0  0  0  0
    3.2094    1.1791   -0.1438 C   0  0  0  0  0  0  0  0  0  0  0  0
    3.4858    1.0525   -1.4883 C   0  0  0  0  0  0  0  0  0  0  0  0
    4.3567    0.0696   -1.9144 C   0  0  0  0  0  0  0  0  0  0  0  0
    4.9728   -0.8095   -1.0176 C   0  0  0  0  0  0  0  0  0  0  0  0
    5.8410   -1.7948   -1.4064 O   0  0  0  0  0  0  0  0  0  0  0  0
    2.2806    2.2182    0.3732 C   0  0  2  0  0  0  0  0  0  0  0  0
    0.8663    1.7450    0.0153 C   0  0  0  0  0  0  0  0  0  0  0  0
    0.6050    0.5076    0.6636 N   0  0  0  0  0  0  0  0  0  0  0  0
   -0.7017    0.0179    0.3332 C   0  0  1  0  0  0  0  0  0  0  0  0
   -1.7522    0.9806    0.8213 C   0  0  0  0  0  0  0  0  0  0  0  0
   -3.0775    0.3800    0.4452 C   0  0  0  0  0  0  0  0  0  0  0  0
   -3.7084    0.6550   -0.7402 C   0  0  0  0  0  0  0  0  0  0  0  0
   -4.9334    0.0923   -1.0836 C   0  0  0  0  0  0  0  0  0  0  0  0
   -5.5348   -0.7788   -0.1896 C   0  0  0  0  0  0  0  0  0  0  0  0
   -4.9151   -1.0719    1.0161 C   0  0  0  0  0  0  0  0  0  0  0  0
   -3.6957   -0.4934    1.3248 C   0  0  0  0  0  0  0  0  0  0  0  0
   -6.7508   -1.3184   -0.5643 O   0  0  0  0  0  0  0  0  0  0  0  0
   -7.4485   -2.2132    0.2661 C   0  0  0  0  0  0  0  0  0  0  0  0
   -0.7759   -0.1855   -1.1692 C   0  0  0  0  0  0  0  0  0  0  0  0
    2.5727    3.4267   -0.2442 O   0  0  0  0  0  0  0  0  0  0  0  0
    3.3690   -0.2184   -0.8822 H   0  0  0  0  0  0  0  0  0  0  0  0
   -0.1341   -0.1198    1.5022 H   0  0  0  0  0  0  0  0  0  0  0  0
    0.1195   -0.0264   -1.5042 H   0  0  0  0  0  0  0  0  0  0  0  0
   -3.2744    0.9436    0.9148 H   0  0  0  0  0  0  0  0  0  0  0  0
    7.0474   -1.6423    2.6032 H   0  0  0  0  0  0  0  0  0  0  0  0
    4.8429   -2.4179    1.6137 H   0  0  0  0  0  0  0  0  0  0  0  0
    3.5903    0.4190    1.8236 H   0  0  0  0  0  0  0  0  0  0  0  0
    3.0226    1.7191   -2.2015 H   0  0  0  0  0  0  0  0  0  0  0  0
    4.6102   -0.0769   -2.9481 H   0  0  0  0  0  0  0  0  0  0  0  0
    5.7090   -2.7525   -1.1114 H   0  0  0  0  0  0  0  0  0  0  0  0
    2.3501    2.3166    1.4620 H   0  0  0  0  0  0  0  0  0  0  0  0
    0.2145    2.5832    0.2504 H   0  0  0  0  0  0  0  0  0  0  0  0
    0.7864    1.5985   -1.0925 H   0  0  0  0  0  0  0  0  0  0  0  0
    0.7691    0.5016    1.6764 H   0  0  0  0  0  0  0  0  0  0  0  0
   -0.8107   -0.9567    0.8718 H   0  0  0  0  0  0  0  0  0  0  0  0
   -1.6880    1.0379    1.9221 H   0  0  0  0  0  0  0  0  0  0  0  0
   -1.6578    1.9933    0.4065 H   0  0  0  0  0  0  0  0  0  0  0  0
   -3.2789    1.3258   -1.4578 H   0  0  0  0  0  0  0  0  0  0  0  0
   -5.3960    0.3428   -2.0403 H   0  0  0  0  0  0  0  0  0  0  0  0
   -5.3962   -1.7471    1.6936 H   0  0  0  0  0  0  0  0  0  0  0  0
   -3.2139   -0.7195    2.2590 H   0  0  0  0  0  0  0  0  0  0  0  0
   -7.4177   -1.8403    1.3187 H   0  0  0  0  0  0  0  0  0  0  0  0
   -7.0768   -3.2564    0.1653 H   0  0  0  0  0  0  0  0  0  0  0  0
   -8.5146   -2.2282   -0.0382 H   0  0  0  0  0  0  0  0  0  0  0  0
    0.1711   -0.6263   -1.5624 H   0  0  0  0  0  0  0  0  0  0  0  0
   -0.9736    0.7871   -1.6596 H   0  0  0  0  0  0  0  0  0  0  0  0
   -1.5777   -0.9355   -1.3978 H   0  0  0  0  0  0  0  0  0  0  0  0
    1.6856    3.8095   -0.5287 H   0  0  0  0  0  0  0  0  0  0  0  0
  1  2  1  0
  2  3  2  0
  2  4  1  0
  4  5  2  0
  5  6  1  0
  6  7  2  0
  6  8  1  0
  9 10  2  0
 10 11  1  0
 11 12  1  0
 12 13  2  0
 13 14  1  0
 14 15  2  0
 15 16  1  0
 16 17  2  0
 17 18  1  0
 14 19  1  0
 19 20  1  0
 20 21  1  0
 21 22  1  0
 22 23  1  0
 23 24  1  0
 24 25  2  0
 25 26  1  0
 26 27  2  0
 27 28  1  0
 28 29  2  0
 27 30  1  0
 30 31  1  0
 22 32  1  0
 19 33  1  0
 17 12  1  0
 29 24  1  0
  1 34  1  0
  4 35  1  0
  5 36  1  0
  8 37  1  0
 10 38  1  0
 11 39  1  0
 13 40  1  0
 15 41  1  0
 16 42  1  0
 18 43  1  0
 19 44  1  1
 20 45  1  0
 20 46  1  0
 21 47  1  0
 22 48  1  1
 23 49  1  0
 23 50  1  0
 25 51  1  0
 26 52  1  0
 28 53  1  0
 29 54  1  0
 31 55  1  0
 31 56  1  0
 31 57  1  0
 32 58  1  0
 32 59  1  0
 32 60  1  0
 33 61  1  0
M  END
>  <Ligand ID>  (1) 
LIG0002206

>  <Ligand>  (1) 
CHEMBL605993

>  <SMILES>  (1) 
OC(=O)/C=C/C(=O)O.O=CNc1cc(ccc1O)[C@H](CN[C@@H](Cc1ccc(cc1)OC)C)O

>  <CID>  (1) 
9847067.0

>  <ChEMBL ID>  (1) 
nan

>  <InChiKey>  (1) 
ZDUPYZMAPCZGJO-NSCGSSGESA-N

>  <InChi>  (1) 
InChI=1S/C19H24N2O4.C4H4O4/c1-13(9-14-3-6-16(25-2)7-4-14)20-11-19(24)15-5-8-18(23)17(10-15)21-12-22;5-3(6)1-2-4(7)8/h3-8,10,12-13,19-20,23-24H,9,11H2,1-2H3,(H,21,22);1-2H,(H,5,6)(H,7,8)/b;2-1+/t13-,19+;/m1./s1

>  <IUPAC Name>  (1) 
(E)-but-2-enedioic acid;N-[2-hydroxy-5-[(1R)-1-hydroxy-2-[[(2R)-1-(4-methoxyphenyl)propan-2-yl]amino]ethyl]phenyl]formamide

$$$$
