
     RDKit          3D

 66 69  0  0  0  0  0  0  0  0999 V2000
   -5.4752   -1.5189   -0.6001 O   0  0  0  0  0  0  0  0  0  0  0  0
   -4.9378   -0.5134   -0.0832 C   0  0  0  0  0  0  0  0  0  0  0  0
   -3.5343   -0.3466   -0.2353 N   0  0  0  0  0  0  0  0  0  0  0  0
   -2.7219   -1.3157   -0.9744 C   0  0  0  0  0  0  0  0  0  0  0  0
   -1.4734   -0.5490   -1.3876 C   0  0  0  0  0  0  0  0  0  0  0  0
   -1.9467    0.7891   -1.9593 C   0  0  0  0  0  0  0  0  0  0  0  0
   -2.4716    1.6877   -0.8572 C   0  0  0  0  0  0  0  0  0  0  0  0
   -2.8162    0.7840    0.3258 C   0  0  0  0  0  0  0  0  0  0  0  0
   -1.4900    0.3398    0.9185 C   0  0  0  0  0  0  0  0  0  0  0  0
   -0.7301   -0.2170   -0.1861 N   0  0  0  0  0  0  0  0  0  0  0  0
    0.6740   -0.4140   -0.0636 C   0  0  0  0  0  0  0  0  0  0  0  0
    1.2780   -0.0638    1.1232 C   0  0  0  0  0  0  0  0  0  0  0  0
    2.6528   -0.2714    1.2025 C   0  0  0  0  0  0  0  0  0  0  0  0
    3.3920   -0.7924    0.1765 C   0  0  0  0  0  0  0  0  0  0  0  0
    2.7299   -1.1230   -0.9852 C   0  0  0  0  0  0  0  0  0  0  0  0
    1.3823   -0.9280   -1.0851 N   0  0  0  0  0  0  0  0  0  0  0  0
    3.6739   -1.6052   -1.8140 N   0  0  0  0  0  0  0  0  0  0  0  0
    3.4316   -2.0861   -3.1762 C   0  0  0  0  0  0  0  0  0  0  0  0
    4.8598   -1.5694   -1.1833 C   0  0  0  0  0  0  0  0  0  0  0  0
    5.9233   -1.9656   -1.7337 O   0  0  0  0  0  0  0  0  0  0  0  0
    4.7052   -1.0609    0.0715 N   0  0  0  0  0  0  0  0  0  0  0  0
    5.7755   -0.8869    1.0170 C   0  0  0  0  0  0  0  0  0  0  0  0
    6.4472    0.4622    0.9055 C   0  0  0  0  0  0  0  0  0  0  0  0
    7.5563    0.5864    1.9177 C   0  0  0  0  0  0  0  0  0  0  0  0
    5.4569    1.5876    1.1095 C   0  0  0  0  0  0  0  0  0  0  0  0
    7.0627    0.6435   -0.4868 C   0  0  0  0  0  0  0  0  0  0  0  0
   -5.6225    0.4558    0.6326 O   0  0  0  0  0  0  0  0  0  0  0  0
   -7.0165    0.3597    0.8263 C   0  0  0  0  0  0  0  0  0  0  0  0
   -7.7812    0.3466   -0.4770 C   0  0  0  0  0  0  0  0  0  0  0  0
   -7.3996   -0.8078    1.6946 C   0  0  0  0  0  0  0  0  0  0  0  0
   -7.4570    1.6247    1.5565 C   0  0  0  0  0  0  0  0  0  0  0  0
   -2.4562   -2.1993   -0.3803 H   0  0  0  0  0  0  0  0  0  0  0  0
   -3.2431   -1.5662   -1.9214 H   0  0  0  0  0  0  0  0  0  0  0  0
   -0.8832   -1.0516   -2.1586 H   0  0  0  0  0  0  0  0  0  0  0  0
   -2.7578    0.5829   -2.6836 H   0  0  0  0  0  0  0  0  0  0  0  0
   -1.1028    1.2523   -2.5097 H   0  0  0  0  0  0  0  0  0  0  0  0
   -3.4248    2.1477   -1.1862 H   0  0  0  0  0  0  0  0  0  0  0  0
   -1.7420    2.4607   -0.5562 H   0  0  0  0  0  0  0  0  0  0  0  0
   -3.4259    1.3009    1.0821 H   0  0  0  0  0  0  0  0  0  0  0  0
   -1.0195    1.2773    1.3023 H   0  0  0  0  0  0  0  0  0  0  0  0
   -1.7238   -0.3911    1.7059 H   0  0  0  0  0  0  0  0  0  0  0  0
    0.7496    0.3524    1.9712 H   0  0  0  0  0  0  0  0  0  0  0  0
    3.1308    0.0015    2.1331 H   0  0  0  0  0  0  0  0  0  0  0  0
    2.5450   -2.7290   -3.1724 H   0  0  0  0  0  0  0  0  0  0  0  0
    3.2621   -1.1874   -3.7956 H   0  0  0  0  0  0  0  0  0  0  0  0
    4.3085   -2.6836   -3.4916 H   0  0  0  0  0  0  0  0  0  0  0  0
    5.3644   -0.9581    2.0526 H   0  0  0  0  0  0  0  0  0  0  0  0
    6.5534   -1.6718    0.8877 H   0  0  0  0  0  0  0  0  0  0  0  0
    8.3451   -0.1319    1.6043 H   0  0  0  0  0  0  0  0  0  0  0  0
    7.9078    1.6369    1.9115 H   0  0  0  0  0  0  0  0  0  0  0  0
    7.1564    0.2860    2.9063 H   0  0  0  0  0  0  0  0  0  0  0  0
    4.6758    1.6025    0.3251 H   0  0  0  0  0  0  0  0  0  0  0  0
    4.9984    1.4999    2.1221 H   0  0  0  0  0  0  0  0  0  0  0  0
    5.9442    2.5830    1.0466 H   0  0  0  0  0  0  0  0  0  0  0  0
    6.2926    0.7754   -1.2732 H   0  0  0  0  0  0  0  0  0  0  0  0
    7.7610   -0.1906   -0.7210 H   0  0  0  0  0  0  0  0  0  0  0  0
    7.6855    1.5605   -0.5103 H   0  0  0  0  0  0  0  0  0  0  0  0
   -8.7950    0.7571   -0.2658 H   0  0  0  0  0  0  0  0  0  0  0  0
   -7.3036    1.1195   -1.1316 H   0  0  0  0  0  0  0  0  0  0  0  0
   -7.8388   -0.6348   -0.9488 H   0  0  0  0  0  0  0  0  0  0  0  0
   -8.4924   -0.9589    1.6004 H   0  0  0  0  0  0  0  0  0  0  0  0
   -7.0826   -0.5471    2.7247 H   0  0  0  0  0  0  0  0  0  0  0  0
   -6.8087   -1.7016    1.4134 H   0  0  0  0  0  0  0  0  0  0  0  0
   -6.7159    1.9272    2.3114 H   0  0  0  0  0  0  0  0  0  0  0  0
   -8.4112    1.3812    2.0550 H   0  0  0  0  0  0  0  0  0  0  0  0
   -7.5809    2.4659    0.8190 H   0  0  0  0  0  0  0  0  0  0  0  0
  1  2  2  0
  2  3  1  0
  3  4  1  0
  4  5  1  0
  5  6  1  0
  6  7  1  0
  7  8  1  0
  8  9  1  0
  9 10  1  0
 10 11  1  0
 11 12  1  0
 12 13  2  0
 13 14  1  0
 14 15  2  0
 15 16  1  0
 15 17  1  0
 17 18  1  0
 17 19  1  0
 19 20  2  0
 19 21  1  0
 21 22  1  0
 22 23  1  0
 23 24  1  0
 23 25  1  0
 23 26  1  0
  2 27  1  0
 27 28  1  0
 28 29  1  0
 28 30  1  0
 28 31  1  0
  8  3  1  0
 16 11  2  0
 10  5  1  0
 21 14  1  0
  4 32  1  0
  4 33  1  0
  5 34  1  0
  6 35  1  0
  6 36  1  0
  7 37  1  0
  7 38  1  0
  8 39  1  0
  9 40  1  0
  9 41  1  0
 12 42  1  0
 13 43  1  0
 18 44  1  0
 18 45  1  0
 18 46  1  0
 22 47  1  0
 22 48  1  0
 24 49  1  0
 24 50  1  0
 24 51  1  0
 25 52  1  0
 25 53  1  0
 25 54  1  0
 26 55  1  0
 26 56  1  0
 26 57  1  0
 29 58  1  0
 29 59  1  0
 29 60  1  0
 30 61  1  0
 30 62  1  0
 30 63  1  0
 31 64  1  0
 31 65  1  0
 31 66  1  0
M  END
>  <Ligand ID>  (1) 
LIG0000903

>  <Ligand>  (1) 
CHEMBL3804910

>  <SMILES>  (1) 
O=C(N1CC2CCC1CN2c1ccc2c(n1)n(C)c(=O)n2CC(C)(C)C)OC(C)(C)C

>  <CID>  (1) 
67056056.0

>  <ChEMBL ID>  (1) 
nan

>  <InChiKey>  (1) 
FYQHOZQRGLULQN-UHFFFAOYSA-N

>  <InChi>  (1) 
InChI=1S/C23H35N5O3/c1-22(2,3)14-28-17-10-11-18(24-19(17)25(7)20(28)29)26-12-16-9-8-15(26)13-27(16)21(30)31-23(4,5)6/h10-11,15-16H,8-9,12-14H2,1-7H3

>  <IUPAC Name>  (1) 
tert-butyl 5-[1-(2,2-dimethylpropyl)-3-methyl-2-oxoimidazo[4,5-b]pyridin-5-yl]-2,5-diazabicyclo[2.2.2]octane-2-carboxylate

$$$$
