
     RDKit          3D

 62 66  0  0  0  0  0  0  0  0999 V2000
   -4.5309   -3.2122   -1.9111 O   0  0  0  0  0  0  0  0  0  0  0  0
   -4.6815   -3.0365   -0.5502 C   0  0  0  0  0  0  0  0  0  0  0  0
   -4.4604   -1.5900   -0.1322 C   0  0  1  0  0  0  0  0  0  0  0  0
   -3.1529   -1.0986   -0.4542 N   0  0  0  0  0  0  0  0  0  0  0  0
   -2.0035   -1.7181    0.1154 C   0  0  0  0  0  0  0  0  0  0  0  0
   -2.1594   -2.7555    0.9568 N   0  0  0  0  0  0  0  0  0  0  0  0
   -1.1273   -3.3935    1.5353 C   0  0  0  0  0  0  0  0  0  0  0  0
   -1.3261   -4.4920    2.4248 N   0  0  0  0  0  0  0  0  0  0  0  0
    0.1633   -2.9778    1.2643 C   0  0  0  0  0  0  0  0  0  0  0  0
    0.2959   -1.9118    0.3981 C   0  0  0  0  0  0  0  0  0  0  0  0
   -0.7552   -1.2985   -0.1612 N   0  0  0  0  0  0  0  0  0  0  0  0
    1.6283   -1.6872    0.2858 N   0  0  0  0  0  0  0  0  0  0  0  0
    2.2994   -2.5631    1.0395 C   0  0  0  0  0  0  0  0  0  0  0  0
    1.3844   -3.3533    1.6376 N   0  0  0  0  0  0  0  0  0  0  0  0
    2.2675   -0.6651   -0.5172 C   0  0  2  0  0  0  0  0  0  0  0  0
    3.4850   -0.2698    0.0373 O   0  0  0  0  0  0  0  0  0  0  0  0
    3.8030    0.8259   -0.7648 C   0  0  1  0  0  0  0  0  0  0  0  0
    2.5673    1.6582   -0.7431 C   0  0  2  0  0  0  0  0  0  0  0  0
    1.4832    0.6259   -0.5134 C   0  0  1  0  0  0  0  0  0  0  0  0
    0.5268    0.6704   -1.5395 O   0  0  0  0  0  0  0  0  0  0  0  0
    2.4364    2.2569   -2.0062 O   0  0  0  0  0  0  0  0  0  0  0  0
    5.0031    1.5426   -0.2684 C   0  0  0  0  0  0  0  0  0  0  0  0
    5.2103    2.8687   -0.1191 N   0  0  0  0  0  0  0  0  0  0  0  0
    6.4316    3.0493    0.3570 N   0  0  0  0  0  0  0  0  0  0  0  0
    7.0186    1.8722    0.5189 N   0  0  0  0  0  0  0  0  0  0  0  0
    6.1477    0.9632    0.1382 N   0  0  0  0  0  0  0  0  0  0  0  0
    8.3807    1.6738    1.0287 C   0  0  0  0  0  0  0  0  0  0  0  0
    9.3233    1.6835   -0.1657 C   0  0  0  0  0  0  0  0  0  0  0  0
   -5.5807   -0.7522   -0.6601 C   0  0  0  0  0  0  0  0  0  0  0  0
   -5.4869    0.6860   -0.3223 C   0  0  0  0  0  0  0  0  0  0  0  0
   -6.0478    1.1516    0.8708 C   0  0  0  0  0  0  0  0  0  0  0  0
   -5.9849    2.4945    1.2209 C   0  0  0  0  0  0  0  0  0  0  0  0
   -5.3674    3.3883    0.3952 C   0  0  0  0  0  0  0  0  0  0  0  0
   -4.8046    2.9634   -0.7873 C   0  0  0  0  0  0  0  0  0  0  0  0
   -4.8789    1.6285   -1.1139 C   0  0  0  0  0  0  0  0  0  0  0  0
   -5.2650    4.7502    0.6796 O   0  0  0  0  0  0  0  0  0  0  0  0
   -5.2957   -3.7023   -2.3100 H   0  0  0  0  0  0  0  0  0  0  0  0
   -4.1284   -3.7369    0.0816 H   0  0  0  0  0  0  0  0  0  0  0  0
   -5.7688   -3.2345   -0.3171 H   0  0  0  0  0  0  0  0  0  0  0  0
   -4.5331   -1.6017    0.9913 H   0  0  0  0  0  0  0  0  0  0  0  0
   -2.9806   -0.2961   -1.0958 H   0  0  0  0  0  0  0  0  0  0  0  0
   -1.2884   -4.4005    3.4648 H   0  0  0  0  0  0  0  0  0  0  0  0
   -1.5180   -5.4236    1.9501 H   0  0  0  0  0  0  0  0  0  0  0  0
    3.3911   -2.6336    1.1561 H   0  0  0  0  0  0  0  0  0  0  0  0
    2.4461   -0.9508   -1.5592 H   0  0  0  0  0  0  0  0  0  0  0  0
    3.9776    0.4287   -1.7867 H   0  0  0  0  0  0  0  0  0  0  0  0
    2.5516    2.4177    0.0609 H   0  0  0  0  0  0  0  0  0  0  0  0
    0.9622    0.8137    0.4467 H   0  0  0  0  0  0  0  0  0  0  0  0
    0.7442    0.1032   -2.3081 H   0  0  0  0  0  0  0  0  0  0  0  0
    3.3306    2.4006   -2.4301 H   0  0  0  0  0  0  0  0  0  0  0  0
    8.3995    0.6438    1.4515 H   0  0  0  0  0  0  0  0  0  0  0  0
    8.6380    2.4657    1.7449 H   0  0  0  0  0  0  0  0  0  0  0  0
    9.7255    2.6990   -0.2968 H   0  0  0  0  0  0  0  0  0  0  0  0
   10.1102    0.9390    0.0115 H   0  0  0  0  0  0  0  0  0  0  0  0
    8.7484    1.3950   -1.0873 H   0  0  0  0  0  0  0  0  0  0  0  0
   -6.5715   -1.1133   -0.3461 H   0  0  0  0  0  0  0  0  0  0  0  0
   -5.5144   -0.8299   -1.7862 H   0  0  0  0  0  0  0  0  0  0  0  0
   -6.5382    0.4668    1.5351 H   0  0  0  0  0  0  0  0  0  0  0  0
   -6.4248    2.8463    2.1518 H   0  0  0  0  0  0  0  0  0  0  0  0
   -4.3044    3.6643   -1.4642 H   0  0  0  0  0  0  0  0  0  0  0  0
   -4.4296    1.3327   -2.0505 H   0  0  0  0  0  0  0  0  0  0  0  0
   -5.9715    5.3289    0.2440 H   0  0  0  0  0  0  0  0  0  0  0  0
  1  2  1  0
  2  3  1  0
  3  4  1  0
  4  5  1  0
  5  6  2  0
  6  7  1  0
  7  8  1  0
  7  9  2  0
  9 10  1  0
 10 11  2  0
 10 12  1  0
 12 13  1  0
 13 14  2  0
 12 15  1  0
 15 16  1  0
 16 17  1  0
 17 18  1  0
 18 19  1  0
 19 20  1  0
 18 21  1  0
 17 22  1  0
 22 23  1  0
 23 24  2  0
 24 25  1  0
 25 26  1  0
 25 27  1  0
 27 28  1  0
  3 29  1  0
 29 30  1  0
 30 31  2  0
 31 32  1  0
 32 33  2  0
 33 34  1  0
 34 35  2  0
 33 36  1  0
 11  5  1  0
 19 15  1  0
 26 22  2  0
 35 30  1  0
 14  9  1  0
  1 37  1  0
  2 38  1  0
  2 39  1  0
  3 40  1  1
  4 41  1  0
  8 42  1  0
  8 43  1  0
 13 44  1  0
 15 45  1  6
 17 46  1  6
 18 47  1  1
 19 48  1  1
 20 49  1  0
 21 50  1  0
 27 51  1  0
 27 52  1  0
 28 53  1  0
 28 54  1  0
 28 55  1  0
 29 56  1  0
 29 57  1  0
 31 58  1  0
 32 59  1  0
 34 60  1  0
 35 61  1  0
 36 62  1  0
M  END
>  <Ligand ID>  (1) 
LIG0004409

>  <Ligand>  (1) 
CHEMBL360837

>  <SMILES>  (1) 
OC[C@@H](Nc1nc(N)c2c(n1)n(cn2)[C@@H]1O[C@@H]([C@H]([C@H]1O)O)c1nnn(n1)CC)Cc1ccc(cc1)O

>  <CID>  (1) 
11352497.0

>  <ChEMBL ID>  (1) 
nan

>  <InChiKey>  (1) 
OPVCMEPGQFSRQW-OIODXMIOSA-N

>  <InChi>  (1) 
InChI=1S/C21H26N10O5/c1-2-31-28-18(27-29-31)16-14(34)15(35)20(36-16)30-9-23-13-17(22)25-21(26-19(13)30)24-11(8-32)7-10-3-5-12(33)6-4-10/h3-6,9,11,14-16,20,32-35H,2,7-8H2,1H3,(H3,22,24,25,26)/t11-,14-,15+,16-,20+/m0/s1

>  <IUPAC Name>  (1) 
(2R,3R,4S,5R)-2-[6-amino-2-[[(2S)-1-hydroxy-3-(4-hydroxyphenyl)propan-2-yl]amino]purin-9-yl]-5-(2-ethyltetrazol-5-yl)oxolane-3,4-diol

$$$$
