
     RDKit          3D

 59 63  0  0  0  0  0  0  0  0999 V2000
   -5.2134   -2.3191    0.9091 C   0  0  0  0  0  0  0  0  0  0  0  0
   -4.2192   -2.0969   -0.1903 C   0  0  0  0  0  0  0  0  0  0  0  0
   -3.6084   -0.7606   -0.0728 C   0  0  0  0  0  0  0  0  0  0  0  0
   -2.3714   -0.7245    0.5941 C   0  0  0  0  0  0  0  0  0  0  0  0
   -1.6719    0.4425    0.7744 C   0  0  0  0  0  0  0  0  0  0  0  0
   -2.2293    1.5948    0.2731 C   0  0  0  0  0  0  0  0  0  0  0  0
   -3.4439    1.5815   -0.3853 C   0  0  0  0  0  0  0  0  0  0  0  0
   -4.1657    0.3955   -0.5738 C   0  0  0  0  0  0  0  0  0  0  0  0
   -5.4521    0.4791   -1.2683 C   0  0  0  0  0  0  0  0  0  0  0  0
   -6.6458    0.6369   -0.3972 C   0  0  0  0  0  0  0  0  0  0  0  0
   -7.9178    0.7004   -1.2127 C   0  0  0  0  0  0  0  0  0  0  0  0
   -7.9328    0.6220   -2.4493 O   0  0  0  0  0  0  0  0  0  0  0  0
   -9.1061    0.8563   -0.4855 O   0  0  0  0  0  0  0  0  0  0  0  0
   -3.9436    2.8888   -0.8881 C   0  0  0  0  0  0  0  0  0  0  0  0
   -0.3920    0.5080    1.4620 C   0  0  0  0  0  0  0  0  0  0  0  0
   -0.2648    1.0386    2.7098 N   0  0  0  0  0  0  0  0  0  0  0  0
    0.9938    0.9373    3.0141 O   0  0  0  0  0  0  0  0  0  0  0  0
    1.6620    0.3845    2.0525 C   0  0  0  0  0  0  0  0  0  0  0  0
    0.8144    0.1118    1.0803 N   0  0  0  0  0  0  0  0  0  0  0  0
    3.1001    0.1133    2.0503 C   0  0  0  0  0  0  0  0  0  0  0  0
    4.2137    0.5148    3.4138 S   0  0  0  0  0  0  0  0  0  0  0  0
    5.6462   -0.1281    2.5683 C   0  0  0  0  0  0  0  0  0  0  0  0
    5.1881   -0.5931    1.3354 C   0  0  0  0  0  0  0  0  0  0  0  0
    3.8981   -0.4665    1.0832 C   0  0  0  0  0  0  0  0  0  0  0  0
    3.6024   -1.0313   -0.3025 C   0  0  0  0  0  0  0  0  0  0  0  0
    4.9091   -1.3431   -0.9195 C   0  0  2  0  0  0  0  0  0  0  0  0
    5.8842   -1.2451    0.1511 C   0  0  1  0  0  0  0  0  0  0  0  0
    5.9805   -0.3350   -1.0542 C   0  0  0  0  0  0  0  0  0  0  0  0
    6.9974   -0.6015   -2.1225 C   0  0  0  0  0  0  0  0  0  0  0  0
    5.5192    1.0979   -0.9354 C   0  0  0  0  0  0  0  0  0  0  0  0
    7.0485   -0.1493    3.1081 C   0  0  0  0  0  0  0  0  0  0  0  0
   -6.2650   -2.4244    0.5130 H   0  0  0  0  0  0  0  0  0  0  0  0
   -5.1890   -1.4370    1.5808 H   0  0  0  0  0  0  0  0  0  0  0  0
   -4.9506   -3.2518    1.4961 H   0  0  0  0  0  0  0  0  0  0  0  0
   -3.4435   -2.9052   -0.1129 H   0  0  0  0  0  0  0  0  0  0  0  0
   -4.7744   -2.1975   -1.1605 H   0  0  0  0  0  0  0  0  0  0  0  0
   -1.9234   -1.6268    0.9930 H   0  0  0  0  0  0  0  0  0  0  0  0
   -1.6772    2.5223    0.4145 H   0  0  0  0  0  0  0  0  0  0  0  0
   -5.4338    1.3914   -1.9369 H   0  0  0  0  0  0  0  0  0  0  0  0
   -5.5768   -0.3587   -2.0083 H   0  0  0  0  0  0  0  0  0  0  0  0
   -6.7385   -0.1074    0.3683 H   0  0  0  0  0  0  0  0  0  0  0  0
   -6.6230    1.6301    0.1500 H   0  0  0  0  0  0  0  0  0  0  0  0
   -9.9718    0.4365   -0.8478 H   0  0  0  0  0  0  0  0  0  0  0  0
   -4.1108    2.9026   -1.9864 H   0  0  0  0  0  0  0  0  0  0  0  0
   -4.8433    3.1473   -0.2999 H   0  0  0  0  0  0  0  0  0  0  0  0
   -3.1855    3.6885   -0.6998 H   0  0  0  0  0  0  0  0  0  0  0  0
    2.9635   -0.3549   -0.8843 H   0  0  0  0  0  0  0  0  0  0  0  0
    3.0209   -1.9886   -0.2173 H   0  0  0  0  0  0  0  0  0  0  0  0
    4.9836   -2.2801   -1.5469 H   0  0  0  0  0  0  0  0  0  0  0  0
    6.7077   -1.9326    0.3243 H   0  0  0  0  0  0  0  0  0  0  0  0
    6.8624    0.1675   -2.9110 H   0  0  0  0  0  0  0  0  0  0  0  0
    8.0128   -0.4419   -1.7247 H   0  0  0  0  0  0  0  0  0  0  0  0
    6.8656   -1.5928   -2.5916 H   0  0  0  0  0  0  0  0  0  0  0  0
    5.1836    1.3934    0.0606 H   0  0  0  0  0  0  0  0  0  0  0  0
    6.3285    1.7996   -1.2333 H   0  0  0  0  0  0  0  0  0  0  0  0
    4.6581    1.3218   -1.6211 H   0  0  0  0  0  0  0  0  0  0  0  0
    7.6649    0.6755    2.7090 H   0  0  0  0  0  0  0  0  0  0  0  0
    7.5435   -1.1250    2.8336 H   0  0  0  0  0  0  0  0  0  0  0  0
    7.0318   -0.1615    4.2180 H   0  0  0  0  0  0  0  0  0  0  0  0
  1  2  1  0
  2  3  1  0
  3  4  2  0
  4  5  1  0
  5  6  2  0
  6  7  1  0
  7  8  2  0
  8  9  1  0
  9 10  1  0
 10 11  1  0
 11 12  2  0
 11 13  1  0
  7 14  1  0
  5 15  1  0
 15 16  2  0
 16 17  1  0
 17 18  1  0
 18 19  2  0
 18 20  1  0
 20 21  1  0
 21 22  1  0
 22 23  2  0
 23 24  1  0
 24 25  1  0
 25 26  1  0
 26 27  1  0
 27 28  1  0
 28 29  1  0
 28 30  1  0
 22 31  1  0
  8  3  1  0
 19 15  1  0
 24 20  2  0
 28 26  1  0
 27 23  1  0
  1 32  1  0
  1 33  1  0
  1 34  1  0
  2 35  1  0
  2 36  1  0
  4 37  1  0
  6 38  1  0
  9 39  1  0
  9 40  1  0
 10 41  1  0
 10 42  1  0
 13 43  1  0
 14 44  1  0
 14 45  1  0
 14 46  1  0
 25 47  1  0
 25 48  1  0
 26 49  1  6
 27 50  1  1
 29 51  1  0
 29 52  1  0
 29 53  1  0
 30 54  1  0
 30 55  1  0
 30 56  1  0
 31 57  1  0
 31 58  1  0
 31 59  1  0
M  END
>  <Ligand ID>  (1) 
LIG0000967

>  <Ligand>  (1) 
CHEMBL3105479

>  <SMILES>  (1) 
CCc1cc(cc(c1CCC(=O)O)C)c1noc(n1)c1sc(c2c1C[C@@H]1[C@H]2C1(C)C)C

>  <CID>  (1) 
69263869.0

>  <ChEMBL ID>  (1) 
nan

>  <InChiKey>  (1) 
JVFNCNSLPZOKHG-WIYYLYMNSA-N

>  <InChi>  (1) 
InChI=1S/C25H28N2O3S/c1-6-14-10-15(9-12(2)16(14)7-8-19(28)29)23-26-24(30-27-23)22-17-11-18-21(25(18,4)5)20(17)13(3)31-22/h9-10,18,21H,6-8,11H2,1-5H3,(H,28,29)/t18-,21-/m1/s1

>  <IUPAC Name>  (1) 
3-[2-ethyl-6-methyl-4-[5-[(2S,4R)-3,3,9-trimethyl-8-thiatricyclo[4.3.0.02,4]nona-1(9),6-dien-7-yl]-1,2,4-oxadiazol-3-yl]phenyl]propanoic acid

$$$$
