
     RDKit          3D

 45 48  0  0  0  0  0  0  0  0999 V2000
    7.2444    0.9095    1.6426 C   0  0  0  0  0  0  0  0  0  0  0  0
    5.9328    0.8796    2.0617 C   0  0  0  0  0  0  0  0  0  0  0  0
    4.9310    0.4561    1.2092 C   0  0  0  0  0  0  0  0  0  0  0  0
    5.1983    0.0540   -0.0711 C   0  0  0  0  0  0  0  0  0  0  0  0
    6.5164    0.0873   -0.4829 C   0  0  0  0  0  0  0  0  0  0  0  0
    7.5347    0.5076    0.3539 C   0  0  0  0  0  0  0  0  0  0  0  0
    4.1742   -0.3983   -1.0026 C   0  0  0  0  0  0  0  0  0  0  0  0
    2.8894   -0.4611   -0.7008 C   0  0  0  0  0  0  0  0  0  0  0  0
    1.8545   -0.9309   -1.6794 C   0  0  0  0  0  0  0  0  0  0  0  0
    0.6339    0.3722   -1.9863 S   0  0  0  0  0  0  0  0  0  0  0  0
   -0.3271    0.7189   -0.5233 C   0  0  0  0  0  0  0  0  0  0  0  0
   -0.1054    1.5826    0.4640 N   0  0  0  0  0  0  0  0  0  0  0  0
   -1.0728    1.5252    1.3630 N   0  0  0  0  0  0  0  0  0  0  0  0
   -1.9562    0.5952    0.9530 C   0  0  0  0  0  0  0  0  0  0  0  0
   -1.5005    0.0946   -0.2109 N   0  0  0  0  0  0  0  0  0  0  0  0
   -2.1271   -0.9457   -1.0371 C   0  0  0  0  0  0  0  0  0  0  0  0
   -3.0555   -0.3265   -2.0294 C   0  0  0  0  0  0  0  0  0  0  0  0
   -4.4001   -0.0776   -1.7953 C   0  0  0  0  0  0  0  0  0  0  0  0
   -4.9215    0.5004   -2.9465 C   0  0  0  0  0  0  0  0  0  0  0  0
   -3.8793    0.5766   -3.8222 C   0  0  0  0  0  0  0  0  0  0  0  0
   -2.8159    0.0802   -3.2346 O   0  0  0  0  0  0  0  0  0  0  0  0
   -3.1806    0.2101    1.6512 C   0  0  0  0  0  0  0  0  0  0  0  0
   -3.2646   -0.9145    2.4513 C   0  0  0  0  0  0  0  0  0  0  0  0
   -4.4521   -1.2305    3.0889 C   0  0  0  0  0  0  0  0  0  0  0  0
   -5.5394   -0.3905    2.8992 C   0  0  0  0  0  0  0  0  0  0  0  0
   -5.3921    0.7158    2.0891 C   0  0  0  0  0  0  0  0  0  0  0  0
   -4.2470    1.0346    1.4647 N   0  0  0  0  0  0  0  0  0  0  0  0
    8.0635    1.2365    2.2830 H   0  0  0  0  0  0  0  0  0  0  0  0
    5.7208    1.2005    3.0832 H   0  0  0  0  0  0  0  0  0  0  0  0
    3.9348    0.4552    1.5914 H   0  0  0  0  0  0  0  0  0  0  0  0
    6.7796   -0.2232   -1.4930 H   0  0  0  0  0  0  0  0  0  0  0  0
    8.5486    0.5058   -0.0437 H   0  0  0  0  0  0  0  0  0  0  0  0
    4.4489   -0.7052   -2.0007 H   0  0  0  0  0  0  0  0  0  0  0  0
    2.5434   -0.1761    0.2602 H   0  0  0  0  0  0  0  0  0  0  0  0
    1.4091   -1.8432   -1.2161 H   0  0  0  0  0  0  0  0  0  0  0  0
    2.4015   -1.1833   -2.6092 H   0  0  0  0  0  0  0  0  0  0  0  0
   -1.3632   -1.5091   -1.6137 H   0  0  0  0  0  0  0  0  0  0  0  0
   -2.6469   -1.6568   -0.3870 H   0  0  0  0  0  0  0  0  0  0  0  0
   -4.9870   -0.2733   -0.9078 H   0  0  0  0  0  0  0  0  0  0  0  0
   -5.9299    0.8236   -3.1227 H   0  0  0  0  0  0  0  0  0  0  0  0
   -3.8806    0.9726   -4.8431 H   0  0  0  0  0  0  0  0  0  0  0  0
   -2.3977   -1.5247    2.5619 H   0  0  0  0  0  0  0  0  0  0  0  0
   -4.5591   -2.1018    3.7236 H   0  0  0  0  0  0  0  0  0  0  0  0
   -6.5012   -0.5789    3.3694 H   0  0  0  0  0  0  0  0  0  0  0  0
   -6.2567    1.3564    1.9572 H   0  0  0  0  0  0  0  0  0  0  0  0
  1  2  2  0
  2  3  1  0
  3  4  2  0
  4  5  1  0
  5  6  2  0
  4  7  1  0
  7  8  2  0
  8  9  1  0
  9 10  1  0
 10 11  1  0
 11 12  2  0
 12 13  1  0
 13 14  2  0
 14 15  1  0
 15 16  1  0
 16 17  1  0
 17 18  2  0
 18 19  1  0
 19 20  2  0
 20 21  1  0
 14 22  1  0
 22 23  2  0
 23 24  1  0
 24 25  2  0
 25 26  1  0
 26 27  2  0
  6  1  1  0
 15 11  1  0
 21 17  1  0
 27 22  1  0
  1 28  1  0
  2 29  1  0
  3 30  1  0
  5 31  1  0
  6 32  1  0
  7 33  1  0
  8 34  1  0
  9 35  1  0
  9 36  1  0
 16 37  1  0
 16 38  1  0
 18 39  1  0
 19 40  1  0
 20 41  1  0
 23 42  1  0
 24 43  1  0
 25 44  1  0
 26 45  1  0
M  END
>  <Ligand ID>  (1) 
LIG0002596

>  <Ligand>  (1) 
MLS000065151

>  <SMILES>  (1) 
c1ccc(cc1)/C=C/CSc1nnc(n1Cc1ccco1)c1ccccn1

>  <CID>  (1) 
1982054.0

>  <ChEMBL ID>  (1) 
nan

>  <InChiKey>  (1) 
GVPGVDUUNVVLND-JXMROGBWSA-N

>  <InChi>  (1) 
InChI=1S/C21H18N4OS/c1-2-8-17(9-3-1)10-7-15-27-21-24-23-20(19-12-4-5-13-22-19)25(21)16-18-11-6-14-26-18/h1-14H,15-16H2/b10-7+

>  <IUPAC Name>  (1) 
2-[4-(furan-2-ylmethyl)-5-[(E)-3-phenylprop-2-enyl]sulfanyl-1,2,4-triazol-3-yl]pyridine

$$$$
