
     RDKit          3D

 27 26  0  0  0  0  0  0  0  0999 V2000
    4.3337    1.0716    1.4215 Cl  0  0  0  0  0  0  0  0  0  0  0  0
    3.8768    0.2042   -0.0295 C   0  0  0  0  0  0  0  0  0  0  0  0
    4.0576    0.7175   -1.1313 O   0  0  0  0  0  0  0  0  0  0  0  0
    3.2618   -1.1651    0.0170 C   0  0  0  0  0  0  0  0  0  0  0  0
    1.7625   -0.9761   -0.1960 C   0  0  0  0  0  0  0  0  0  0  0  0
    1.2774   -0.1029    0.9171 C   0  0  0  0  0  0  0  0  0  0  0  0
   -0.2217    0.1466    0.8002 C   0  0  0  0  0  0  0  0  0  0  0  0
   -0.5957    0.8209   -0.4746 C   0  0  0  0  0  0  0  0  0  0  0  0
   -2.0700    1.0610   -0.5245 C   0  0  0  0  0  0  0  0  0  0  0  0
   -2.8587   -0.2001   -0.4541 C   0  0  0  0  0  0  0  0  0  0  0  0
   -4.3256    0.1343   -0.5253 C   0  0  0  0  0  0  0  0  0  0  0  0
   -4.6194    1.3361   -0.6253 O   0  0  0  0  0  0  0  0  0  0  0  0
   -5.5586   -1.1101   -0.4692 Cl  0  0  0  0  0  0  0  0  0  0  0  0
    3.4684   -1.6806    0.9583 H   0  0  0  0  0  0  0  0  0  0  0  0
    3.6659   -1.7142   -0.8543 H   0  0  0  0  0  0  0  0  0  0  0  0
    1.2796   -1.9671   -0.2142 H   0  0  0  0  0  0  0  0  0  0  0  0
    1.6203   -0.4837   -1.1638 H   0  0  0  0  0  0  0  0  0  0  0  0
    1.7865    0.8666    0.9168 H   0  0  0  0  0  0  0  0  0  0  0  0
    1.4360   -0.5510    1.9159 H   0  0  0  0  0  0  0  0  0  0  0  0
   -0.4835    0.7414    1.7001 H   0  0  0  0  0  0  0  0  0  0  0  0
   -0.7148   -0.8470    0.9221 H   0  0  0  0  0  0  0  0  0  0  0  0
   -0.0406    1.7685   -0.6351 H   0  0  0  0  0  0  0  0  0  0  0  0
   -0.3081    0.1021   -1.2987 H   0  0  0  0  0  0  0  0  0  0  0  0
   -2.3457    1.6207   -1.4691 H   0  0  0  0  0  0  0  0  0  0  0  0
   -2.3868    1.7761    0.2846 H   0  0  0  0  0  0  0  0  0  0  0  0
   -2.6465   -0.7217    0.5014 H   0  0  0  0  0  0  0  0  0  0  0  0
   -2.6510   -0.8483   -1.3297 H   0  0  0  0  0  0  0  0  0  0  0  0
  1  2  1  0
  2  3  2  0
  2  4  1  0
  4  5  1  0
  5  6  1  0
  6  7  1  0
  7  8  1  0
  8  9  1  0
  9 10  1  0
 10 11  1  0
 11 12  2  0
 11 13  1  0
  4 14  1  0
  4 15  1  0
  5 16  1  0
  5 17  1  0
  6 18  1  0
  6 19  1  0
  7 20  1  0
  7 21  1  0
  8 22  1  0
  8 23  1  0
  9 24  1  0
  9 25  1  0
 10 26  1  0
 10 27  1  0
M  END
>  <Ligand ID>  (1) 
LIG0002082

>  <Ligand>  (1) 
azelaic acid dichloride

>  <SMILES>  (1) 
ClC(=O)CCCCCCCC(=O)Cl

>  <CID>  (1) 
67165.0

>  <ChEMBL ID>  (1) 
nan

>  <InChiKey>  (1) 
HGEVGSTXQGZPCL-UHFFFAOYSA-N

>  <InChi>  (1) 
InChI=1S/C9H14Cl2O2/c10-8(12)6-4-2-1-3-5-7-9(11)13/h1-7H2

>  <IUPAC Name>  (1) 
nonanedioyl dichloride

$$$$
