
     RDKit          3D

 39 42  0  0  0  0  0  0  0  0999 V2000
    6.8544    1.1135    0.6009 C   0  0  0  0  0  0  0  0  0  0  0  0
    5.5932    0.3634    0.6248 N   0  0  0  0  0  0  0  0  0  0  0  0
    5.3850   -0.7537    1.3397 N   0  0  0  0  0  0  0  0  0  0  0  0
    4.1040   -1.1627    1.1114 C   0  0  0  0  0  0  0  0  0  0  0  0
    3.5082   -0.2611    0.2238 C   0  0  0  0  0  0  0  0  0  0  0  0
    4.4810    0.6837   -0.0568 C   0  0  0  0  0  0  0  0  0  0  0  0
    2.1394   -0.3379   -0.2768 C   0  0  0  0  0  0  0  0  0  0  0  0
    1.3945    0.7803   -0.6038 C   0  0  0  0  0  0  0  0  0  0  0  0
    0.0879    0.6244   -1.0776 C   0  0  0  0  0  0  0  0  0  0  0  0
   -0.4467   -0.6395   -1.2148 C   0  0  0  0  0  0  0  0  0  0  0  0
    0.3181   -1.7583   -0.8805 C   0  0  0  0  0  0  0  0  0  0  0  0
    1.6076   -1.6236   -0.4121 C   0  0  0  0  0  0  0  0  0  0  0  0
   -1.8150   -0.9045   -1.7066 C   0  0  0  0  0  0  0  0  0  0  0  0
   -2.7750   -0.9401   -0.6178 N   0  0  0  0  0  0  0  0  0  0  0  0
   -3.5180    0.1579   -0.0837 C   0  0  0  0  0  0  0  0  0  0  0  0
   -3.5116    1.4832   -0.4540 C   0  0  0  0  0  0  0  0  0  0  0  0
   -4.3001    2.4351    0.1718 C   0  0  0  0  0  0  0  0  0  0  0  0
   -5.1157    1.9853    1.2121 C   0  0  0  0  0  0  0  0  0  0  0  0
   -5.1282    0.6498    1.5921 C   0  0  0  0  0  0  0  0  0  0  0  0
   -4.3315   -0.2760    0.9498 C   0  0  0  0  0  0  0  0  0  0  0  0
   -4.1385   -1.7281    1.1311 C   0  0  0  0  0  0  0  0  0  0  0  0
   -4.7345   -2.4004    1.9845 O   0  0  0  0  0  0  0  0  0  0  0  0
   -3.1524   -2.0953    0.1236 C   0  0  0  0  0  0  0  0  0  0  0  0
   -2.7328   -3.2937   -0.0192 O   0  0  0  0  0  0  0  0  0  0  0  0
    7.6538    0.5718    1.1116 H   0  0  0  0  0  0  0  0  0  0  0  0
    7.0606    1.2875   -0.4738 H   0  0  0  0  0  0  0  0  0  0  0  0
    6.6567    2.0978    1.0496 H   0  0  0  0  0  0  0  0  0  0  0  0
    3.6649   -2.0437    1.5634 H   0  0  0  0  0  0  0  0  0  0  0  0
    4.3601    1.5343   -0.7147 H   0  0  0  0  0  0  0  0  0  0  0  0
    1.8383    1.7630   -0.4870 H   0  0  0  0  0  0  0  0  0  0  0  0
   -0.5126    1.4844   -1.3396 H   0  0  0  0  0  0  0  0  0  0  0  0
   -0.0812   -2.7703   -0.9796 H   0  0  0  0  0  0  0  0  0  0  0  0
    2.1978   -2.5090   -0.1528 H   0  0  0  0  0  0  0  0  0  0  0  0
   -2.1106   -0.0425   -2.3479 H   0  0  0  0  0  0  0  0  0  0  0  0
   -1.8088   -1.8320   -2.2994 H   0  0  0  0  0  0  0  0  0  0  0  0
   -2.8838    1.8650   -1.2647 H   0  0  0  0  0  0  0  0  0  0  0  0
   -4.2902    3.4784   -0.1250 H   0  0  0  0  0  0  0  0  0  0  0  0
   -5.7473    2.7164    1.7220 H   0  0  0  0  0  0  0  0  0  0  0  0
   -5.7709    0.2973    2.4115 H   0  0  0  0  0  0  0  0  0  0  0  0
  1  2  1  0
  2  3  1  0
  3  4  2  0
  4  5  1  0
  5  6  2  0
  5  7  1  0
  7  8  2  0
  8  9  1  0
  9 10  2  0
 10 11  1  0
 11 12  2  0
 10 13  1  0
 13 14  1  0
 14 15  1  0
 15 16  2  0
 16 17  1  0
 17 18  2  0
 18 19  1  0
 19 20  2  0
 20 21  1  0
 21 22  2  0
 21 23  1  0
 23 24  2  0
  6  2  1  0
 12  7  1  0
 23 14  1  0
 20 15  1  0
  1 25  1  0
  1 26  1  0
  1 27  1  0
  4 28  1  0
  6 29  1  0
  8 30  1  0
  9 31  1  0
 11 32  1  0
 12 33  1  0
 13 34  1  0
 13 35  1  0
 16 36  1  0
 17 37  1  0
 18 38  1  0
 19 39  1  0
M  END
>  <Ligand ID>  (1) 
LIG0004571

>  <Ligand>  (1) 
CHEMBL1084941

>  <SMILES>  (1) 
Cn1ncc(c1)c1ccc(cc1)CN1c2ccccc2C(=O)C1=O

>  <CID>  (1) 
44251554.0

>  <ChEMBL ID>  (1) 
nan

>  <InChiKey>  (1) 
FZOKIVAOPLLMAV-UHFFFAOYSA-N

>  <InChi>  (1) 
InChI=1S/C19H15N3O2/c1-21-12-15(10-20-21)14-8-6-13(7-9-14)11-22-17-5-3-2-4-16(17)18(23)19(22)24/h2-10,12H,11H2,1H3

>  <IUPAC Name>  (1) 
1-[[4-(1-methylpyrazol-4-yl)phenyl]methyl]indole-2,3-dione

$$$$
