
     RDKit          3D

 26 26  0  0  0  0  0  0  0  0999 V2000
   -3.7440   -0.4098    0.8113 N   0  0  0  0  0  0  0  0  0  0  0  0
   -2.5999    0.4575    0.6538 C   0  0  0  0  0  0  0  0  0  0  0  0
   -1.3388   -0.3198    0.4618 C   0  0  1  0  0  0  0  0  0  0  0  0
   -1.1997   -1.2575   -0.7087 C   0  0  0  0  0  0  0  0  0  0  0  0
   -0.5450    0.0517   -0.7775 C   0  0  2  0  0  0  0  0  0  0  0  0
    0.9080    0.2070   -0.5077 C   0  0  0  0  0  0  0  0  0  0  0  0
    1.4947   -0.7411    0.3062 C   0  0  0  0  0  0  0  0  0  0  0  0
    2.8450   -0.6820    0.6164 C   0  0  0  0  0  0  0  0  0  0  0  0
    3.5774    0.3584    0.0815 C   0  0  0  0  0  0  0  0  0  0  0  0
    3.0216    1.3116   -0.7279 C   0  0  0  0  0  0  0  0  0  0  0  0
    1.6658    1.2386   -1.0299 C   0  0  0  0  0  0  0  0  0  0  0  0
    3.7065    2.3430   -1.2689 F   0  0  0  0  0  0  0  0  0  0  0  0
    4.9110    0.4502    0.3646 F   0  0  0  0  0  0  0  0  0  0  0  0
    0.6911    0.0000    0.0000 Cl  0  0  0  0  0  0  0  0  0  0  0  0
   -4.6083    0.1669    0.7180 H   0  0  0  0  0  0  0  0  0  0  0  0
   -3.7127   -0.9889    1.6581 H   0  0  0  0  0  0  0  0  0  0  0  0
   -2.4863    1.0334    1.6097 H   0  0  0  0  0  0  0  0  0  0  0  0
   -2.7701    1.1693   -0.1548 H   0  0  0  0  0  0  0  0  0  0  0  0
   -0.7924   -0.6497    1.3685 H   0  0  0  0  0  0  0  0  0  0  0  0
   -0.6174   -2.1932   -0.5806 H   0  0  0  0  0  0  0  0  0  0  0  0
   -2.1494   -1.3693   -1.2876 H   0  0  0  0  0  0  0  0  0  0  0  0
   -0.9431    0.8520   -1.4394 H   0  0  0  0  0  0  0  0  0  0  0  0
    0.9247   -1.5506    0.7223 H   0  0  0  0  0  0  0  0  0  0  0  0
    3.2699   -1.4406    1.2560 H   0  0  0  0  0  0  0  0  0  0  0  0
    1.1826    1.9631   -1.6609 H   0  0  0  0  0  0  0  0  0  0  0  0
   -0.6911    0.0000    0.0000 H   0  0  0  0  0  0  0  0  0  0  0  0
  1  2  1  0
  2  3  1  0
  3  4  1  0
  4  5  1  0
  5  6  1  0
  6  7  2  0
  7  8  1  0
  8  9  2  0
  9 10  1  0
 10 11  2  0
 10 12  1  0
  9 13  1  0
  5  3  1  0
 11  6  1  0
  1 15  1  0
  1 16  1  0
  2 17  1  0
  2 18  1  0
  3 19  1  1
  4 20  1  0
  4 21  1  0
  5 22  1  6
  7 23  1  0
  8 24  1  0
 11 25  1  0
 14 26  1  0
M  END
>  <Ligand ID>  (1) 
LIG0002369

>  <Ligand>  (1) 
CHEMBL492306

>  <SMILES>  (1) 
NC[C@H]1C[C@@H]1c1ccc(c(c1)F)F.Cl

>  <CID>  (1) 
44573017.0

>  <ChEMBL ID>  (1) 
nan

>  <InChiKey>  (1) 
ICBFTJLBUFYPEF-SCLLHFNJSA-N

>  <InChi>  (1) 
InChI=1S/C10H11F2N.ClH/c11-9-2-1-6(4-10(9)12)8-3-7(8)5-13;/h1-2,4,7-8H,3,5,13H2;1H/t7-,8-;/m1./s1

>  <IUPAC Name>  (1) 
[(1S,2S)-2-(3,4-difluorophenyl)cyclopropyl]methanamine;hydrochloride

$$$$
