
     RDKit          3D

 44 47  0  0  0  0  0  0  0  0999 V2000
   -4.1895   -0.6179    2.3884 O   0  0  0  0  0  0  0  0  0  0  0  0
   -4.3786    0.5382    1.6464 C   0  0  0  0  0  0  0  0  0  0  0  0
   -4.0025    0.3069    0.1992 C   0  0  0  0  0  0  0  0  0  0  0  0
   -2.6162   -0.0829    0.0779 N   0  0  0  0  0  0  0  0  0  0  0  0
   -1.5418    0.7227    0.5102 C   0  0  0  0  0  0  0  0  0  0  0  0
   -1.7445    1.8481    1.0355 O   0  0  0  0  0  0  0  0  0  0  0  0
   -0.1588    0.2923    0.3695 C   0  0  0  0  0  0  0  0  0  0  0  0
    0.8928    1.0444    0.7753 N   0  0  0  0  0  0  0  0  0  0  0  0
    2.0404    0.4168    0.5300 N   0  0  0  0  0  0  0  0  0  0  0  0
    1.7209   -0.7566   -0.0421 C   0  0  0  0  0  0  0  0  0  0  0  0
    0.3532   -0.8734   -0.1607 C   0  0  0  0  0  0  0  0  0  0  0  0
   -0.0238   -2.1565   -0.7876 C   0  0  0  0  0  0  0  0  0  0  0  0
    1.2655   -2.7825   -1.2206 C   0  0  2  0  0  0  0  0  0  0  0  0
    2.3469   -1.9837   -0.5963 C   0  0  1  0  0  0  0  0  0  0  0  0
    2.2445   -2.0636   -2.0943 C   0  0  0  0  0  0  0  0  0  0  0  0
    3.3222    0.9528    0.8438 C   0  0  0  0  0  0  0  0  0  0  0  0
    4.0380    0.5827    1.9588 C   0  0  0  0  0  0  0  0  0  0  0  0
    5.2757    1.1827    2.1459 C   0  0  0  0  0  0  0  0  0  0  0  0
    5.7948    2.1062    1.2813 C   0  0  0  0  0  0  0  0  0  0  0  0
    5.0738    2.4721    0.1678 C   0  0  0  0  0  0  0  0  0  0  0  0
    3.8342    1.8948   -0.0528 C   0  0  0  0  0  0  0  0  0  0  0  0
    3.1282    2.2606   -1.1538 F   0  0  0  0  0  0  0  0  0  0  0  0
    7.0134    2.6986    1.4632 F   0  0  0  0  0  0  0  0  0  0  0  0
   -4.8763   -0.7638   -0.4120 C   0  0  0  0  0  0  0  0  0  0  0  0
   -4.1863    1.5878   -0.5818 C   0  0  0  0  0  0  0  0  0  0  0  0
   -4.0725   -1.3670    1.7513 H   0  0  0  0  0  0  0  0  0  0  0  0
   -5.4630    0.8206    1.6569 H   0  0  0  0  0  0  0  0  0  0  0  0
   -3.8218    1.4093    2.0170 H   0  0  0  0  0  0  0  0  0  0  0  0
   -2.3553   -1.0172   -0.3539 H   0  0  0  0  0  0  0  0  0  0  0  0
   -0.5300   -2.8236   -0.0920 H   0  0  0  0  0  0  0  0  0  0  0  0
   -0.6368   -2.0117   -1.7092 H   0  0  0  0  0  0  0  0  0  0  0  0
    1.3118   -3.9092   -1.1860 H   0  0  0  0  0  0  0  0  0  0  0  0
    3.1126   -2.5361   -0.0503 H   0  0  0  0  0  0  0  0  0  0  0  0
    1.9321   -1.1811   -2.6726 H   0  0  0  0  0  0  0  0  0  0  0  0
    2.9394   -2.7285   -2.6490 H   0  0  0  0  0  0  0  0  0  0  0  0
    3.6259   -0.1472    2.6407 H   0  0  0  0  0  0  0  0  0  0  0  0
    5.8779    0.9171    3.0198 H   0  0  0  0  0  0  0  0  0  0  0  0
    5.4579    3.1971   -0.5305 H   0  0  0  0  0  0  0  0  0  0  0  0
   -5.8780   -0.6794    0.0580 H   0  0  0  0  0  0  0  0  0  0  0  0
   -4.5020   -1.7919   -0.2174 H   0  0  0  0  0  0  0  0  0  0  0  0
   -4.9294   -0.6583   -1.5278 H   0  0  0  0  0  0  0  0  0  0  0  0
   -5.2375    1.6435   -0.9276 H   0  0  0  0  0  0  0  0  0  0  0  0
   -3.9747    2.4348    0.1069 H   0  0  0  0  0  0  0  0  0  0  0  0
   -3.4825    1.6018   -1.4264 H   0  0  0  0  0  0  0  0  0  0  0  0
  1  2  1  0
  2  3  1  0
  3  4  1  0
  4  5  1  0
  5  6  2  0
  5  7  1  0
  7  8  2  0
  8  9  1  0
  9 10  1  0
 10 11  2  0
 11 12  1  0
 12 13  1  0
 13 14  1  0
 14 15  1  0
  9 16  1  0
 16 17  2  0
 17 18  1  0
 18 19  2  0
 19 20  1  0
 20 21  2  0
 21 22  1  0
 19 23  1  0
  3 24  1  0
  3 25  1  0
 11  7  1  0
 15 13  1  0
 21 16  1  0
 14 10  1  0
  1 26  1  0
  2 27  1  0
  2 28  1  0
  4 29  1  0
 12 30  1  0
 12 31  1  0
 13 32  1  1
 14 33  1  1
 15 34  1  0
 15 35  1  0
 17 36  1  0
 18 37  1  0
 20 38  1  0
 24 39  1  0
 24 40  1  0
 24 41  1  0
 25 42  1  0
 25 43  1  0
 25 44  1  0
M  END
>  <Ligand ID>  (1) 
LIG0000686

>  <Ligand>  (1) 
CHEMBL3354952

>  <SMILES>  (1) 
OCC(NC(=O)c1nn(c2c1C[C@@H]1[C@H]2C1)c1ccc(cc1F)F)(C)C

>  <CID>  (1) 
50915132.0

>  <ChEMBL ID>  (1) 
nan

>  <InChiKey>  (1) 
NORCYAGQZVMECV-MWLCHTKSSA-N

>  <InChi>  (1) 
InChI=1S/C18H19F2N3O2/c1-18(2,8-24)21-17(25)15-12-6-9-5-11(9)16(12)23(22-15)14-4-3-10(19)7-13(14)20/h3-4,7,9,11,24H,5-6,8H2,1-2H3,(H,21,25)/t9-,11-/m1/s1

>  <IUPAC Name>  (1) 
(2R,4R)-9-(2,4-difluorophenyl)-N-(1-hydroxy-2-methylpropan-2-yl)-8,9-diazatricyclo[4.3.0.02,4]nona-1(6),7-diene-7-carboxamide

$$$$
