
     RDKit          3D

 58 62  0  0  0  0  0  0  0  0999 V2000
    2.0232   -3.7151   -0.5969 O   0  0  0  0  0  0  0  0  0  0  0  0
    2.7635   -2.7091   -0.4468 C   0  0  0  0  0  0  0  0  0  0  0  0
    3.9971   -2.5995   -0.8888 O   0  0  0  0  0  0  0  0  0  0  0  0
    4.4863   -1.4213   -0.5627 C   0  0  0  0  0  0  0  0  0  0  0  0
    3.4947   -0.7951    0.1085 N   0  0  0  0  0  0  0  0  0  0  0  0
    2.4281   -1.5721    0.1892 N   0  0  0  0  0  0  0  0  0  0  0  0
    1.1446   -1.2606    0.8370 C   0  0  0  0  0  0  0  0  0  0  0  0
    0.0992   -0.9174   -0.1750 C   0  0  0  0  0  0  0  0  0  0  0  0
   -0.3901    0.5200    0.0533 C   0  0  0  0  0  0  0  0  0  0  0  0
   -0.9183    0.5476    1.3967 N   0  0  0  0  0  0  0  0  0  0  0  0
    0.0398    0.2252    2.4650 C   0  0  0  0  0  0  0  0  0  0  0  0
    1.3674   -0.1724    1.8687 C   0  0  0  0  0  0  0  0  0  0  0  0
   -2.2568    0.8568    1.7385 C   0  0  0  0  0  0  0  0  0  0  0  0
   -2.5415    0.8277    2.9909 O   0  0  0  0  0  0  0  0  0  0  0  0
   -3.3202    1.2024    0.7692 C   0  0  0  0  0  0  0  0  0  0  0  0
   -3.1425    2.5635    0.1746 C   0  0  0  0  0  0  0  0  0  0  0  0
   -4.5196    3.2194    0.1048 C   0  0  0  0  0  0  0  0  0  0  0  0
   -5.4946    2.1893    0.6396 C   0  0  0  0  0  0  0  0  0  0  0  0
   -4.6061    1.4297    1.5944 C   0  0  0  0  0  0  0  0  0  0  0  0
   -3.5875    0.1422   -0.2320 C   0  0  0  0  0  0  0  0  0  0  0  0
   -3.6494   -1.1518    0.2092 C   0  0  0  0  0  0  0  0  0  0  0  0
   -3.9031   -2.2216   -0.6258 C   0  0  0  0  0  0  0  0  0  0  0  0
   -4.1065   -1.9882   -1.9767 C   0  0  0  0  0  0  0  0  0  0  0  0
   -4.0445   -0.6832   -2.4239 C   0  0  0  0  0  0  0  0  0  0  0  0
   -3.7891    0.3744   -1.5709 C   0  0  0  0  0  0  0  0  0  0  0  0
    5.8270   -0.8950   -0.8633 C   0  0  0  0  0  0  0  0  0  0  0  0
    6.2111    0.3573   -0.4618 C   0  0  0  0  0  0  0  0  0  0  0  0
    7.4938    0.7647   -0.7926 C   0  0  0  0  0  0  0  0  0  0  0  0
    8.3692   -0.0362   -1.4964 C   0  0  0  0  0  0  0  0  0  0  0  0
    7.9779   -1.3019   -1.9010 C   0  0  0  0  0  0  0  0  0  0  0  0
    6.6935   -1.6844   -1.5584 C   0  0  0  0  0  0  0  0  0  0  0  0
    0.9041   -2.1897    1.4150 H   0  0  0  0  0  0  0  0  0  0  0  0
    0.5437   -1.0167   -1.1805 H   0  0  0  0  0  0  0  0  0  0  0  0
   -0.8001   -1.5616   -0.1156 H   0  0  0  0  0  0  0  0  0  0  0  0
    0.5449    1.1522    0.0234 H   0  0  0  0  0  0  0  0  0  0  0  0
   -1.0956    0.8118   -0.7147 H   0  0  0  0  0  0  0  0  0  0  0  0
   -0.3351   -0.6626    3.0181 H   0  0  0  0  0  0  0  0  0  0  0  0
    0.1931    1.0952    3.1325 H   0  0  0  0  0  0  0  0  0  0  0  0
    2.0160   -0.6643    2.6528 H   0  0  0  0  0  0  0  0  0  0  0  0
    1.9339    0.6658    1.4248 H   0  0  0  0  0  0  0  0  0  0  0  0
   -2.5568    3.1812    0.9177 H   0  0  0  0  0  0  0  0  0  0  0  0
   -2.6278    2.6105   -0.7847 H   0  0  0  0  0  0  0  0  0  0  0  0
   -4.8198    3.4583   -0.9238 H   0  0  0  0  0  0  0  0  0  0  0  0
   -4.5712    4.1632    0.6825 H   0  0  0  0  0  0  0  0  0  0  0  0
   -6.2610    2.7501    1.2025 H   0  0  0  0  0  0  0  0  0  0  0  0
   -5.9244    1.5651   -0.1544 H   0  0  0  0  0  0  0  0  0  0  0  0
   -5.0175    0.4724    1.9346 H   0  0  0  0  0  0  0  0  0  0  0  0
   -4.3189    2.1285    2.3983 H   0  0  0  0  0  0  0  0  0  0  0  0
   -3.4957   -1.3809    1.2634 H   0  0  0  0  0  0  0  0  0  0  0  0
   -3.9487   -3.2420   -0.2590 H   0  0  0  0  0  0  0  0  0  0  0  0
   -4.3039   -2.8252   -2.6235 H   0  0  0  0  0  0  0  0  0  0  0  0
   -4.2051   -0.4915   -3.4951 H   0  0  0  0  0  0  0  0  0  0  0  0
   -3.7475    1.3848   -1.9488 H   0  0  0  0  0  0  0  0  0  0  0  0
    5.5433    0.9847    0.0824 H   0  0  0  0  0  0  0  0  0  0  0  0
    7.7905    1.7650   -0.4678 H   0  0  0  0  0  0  0  0  0  0  0  0
    9.3499    0.3676   -1.7084 H   0  0  0  0  0  0  0  0  0  0  0  0
    8.6582   -1.9295   -2.4503 H   0  0  0  0  0  0  0  0  0  0  0  0
    6.4052   -2.6877   -1.8879 H   0  0  0  0  0  0  0  0  0  0  0  0
  1  2  2  0
  2  3  1  0
  3  4  1  0
  4  5  2  0
  5  6  1  0
  6  7  1  0
  7  8  1  0
  8  9  1  0
  9 10  1  0
 10 11  1  0
 11 12  1  0
 10 13  1  0
 13 14  2  0
 13 15  1  0
 15 16  1  0
 16 17  1  0
 17 18  1  0
 18 19  1  0
 15 20  1  0
 20 21  2  0
 21 22  1  0
 22 23  2  0
 23 24  1  0
 24 25  2  0
  4 26  1  0
 26 27  2  0
 27 28  1  0
 28 29  2  0
 29 30  1  0
 30 31  2  0
  6  2  1  0
 12  7  1  0
 19 15  1  0
 25 20  1  0
 31 26  1  0
  7 32  1  0
  8 33  1  0
  8 34  1  0
  9 35  1  0
  9 36  1  0
 11 37  1  0
 11 38  1  0
 12 39  1  0
 12 40  1  0
 16 41  1  0
 16 42  1  0
 17 43  1  0
 17 44  1  0
 18 45  1  0
 18 46  1  0
 19 47  1  0
 19 48  1  0
 21 49  1  0
 22 50  1  0
 23 51  1  0
 24 52  1  0
 25 53  1  0
 27 54  1  0
 28 55  1  0
 29 56  1  0
 30 57  1  0
 31 58  1  0
M  END
>  <Ligand ID>  (1) 
LIG0003026

>  <Ligand>  (1) 
MLS-0437151.0001

>  <SMILES>  (1) 
O=c1oc(nn1C1CCN(CC1)C(=O)C1(CCCC1)c1ccccc1)c1ccccc1

>  <CID>  (1) 
23612543.0

>  <ChEMBL ID>  (1) 
nan

>  <InChiKey>  (1) 
KTBYKHKWIFIFAK-UHFFFAOYSA-N

>  <InChi>  (1) 
InChI=1S/C25H27N3O3/c29-23(25(15-7-8-16-25)20-11-5-2-6-12-20)27-17-13-21(14-18-27)28-24(30)31-22(26-28)19-9-3-1-4-10-19/h1-6,9-12,21H,7-8,13-18H2

>  <IUPAC Name>  (1) 
5-phenyl-3-[1-(1-phenylcyclopentanecarbonyl)piperidin-4-yl]-1,3,4-oxadiazol-2-one

$$$$
