
     RDKit          3D

 95 98  0  0  0  0  0  0  0  0999 V2000
    2.8054    5.3529    2.8336 N   0  0  0  0  0  0  0  0  0  0  0  0
    1.6219    4.5912    3.0594 C   0  0  0  0  0  0  0  0  0  0  0  0
    1.6791    3.3112    3.1144 N   0  0  0  0  0  0  0  0  0  0  0  0
    2.8749    2.5101    2.9657 C   0  0  0  0  0  0  0  0  0  0  0  0
    2.5925    1.3448    1.9896 C   0  0  0  0  0  0  0  0  0  0  0  0
    2.1984    1.9959    0.7185 C   0  0  0  0  0  0  0  0  0  0  0  0
    1.8535    1.0501   -0.4245 C   0  0  1  0  0  0  0  0  0  0  0  0
    2.9726    0.1649   -0.8103 C   0  0  0  0  0  0  0  0  0  0  0  0
    2.7254   -1.0852   -0.7636 O   0  0  0  0  0  0  0  0  0  0  0  0
    4.1944    0.7237   -1.1897 N   0  0  0  0  0  0  0  0  0  0  0  0
    5.3883   -0.0373   -1.6026 C   0  0  2  0  0  0  0  0  0  0  0  0
    5.1128   -1.1287   -2.5333 C   0  0  0  0  0  0  0  0  0  0  0  0
    6.1179   -1.7820   -2.9860 O   0  0  0  0  0  0  0  0  0  0  0  0
    3.8539   -1.5608   -3.0076 N   0  0  0  0  0  0  0  0  0  0  0  0
    6.3069   -0.2498   -0.4732 C   0  0  0  0  0  0  0  0  0  0  0  0
    7.4992   -1.0287   -0.7964 C   0  0  0  0  0  0  0  0  0  0  0  0
    8.7214   -0.4732   -1.1806 C   0  0  0  0  0  0  0  0  0  0  0  0
    9.6065   -1.4712   -1.4294 N   0  0  0  0  0  0  0  0  0  0  0  0
    8.9949   -2.6668   -1.2168 C   0  0  0  0  0  0  0  0  0  0  0  0
    7.6940   -2.4123   -0.8259 C   0  0  0  0  0  0  0  0  0  0  0  0
    6.8557   -3.4927   -0.5282 C   0  0  0  0  0  0  0  0  0  0  0  0
    7.2887   -4.7967   -0.6146 C   0  0  0  0  0  0  0  0  0  0  0  0
    8.6051   -5.0578   -1.0117 C   0  0  0  0  0  0  0  0  0  0  0  0
    9.4173   -3.9839   -1.3006 C   0  0  0  0  0  0  0  0  0  0  0  0
    0.7372    0.1908   -0.0398 N   0  0  0  0  0  0  0  0  0  0  0  0
   -0.6157    0.5332   -0.2886 C   0  0  0  0  0  0  0  0  0  0  0  0
   -0.9578    1.6202   -0.8595 O   0  0  0  0  0  0  0  0  0  0  0  0
   -1.7393   -0.3930    0.1236 C   0  0  2  0  0  0  0  0  0  0  0  0
   -3.0151    0.2260   -0.0546 N   0  0  0  0  0  0  0  0  0  0  0  0
   -3.9440   -0.0613   -1.0853 C   0  0  0  0  0  0  0  0  0  0  0  0
   -3.7278   -0.9245   -1.9928 O   0  0  0  0  0  0  0  0  0  0  0  0
   -5.2265    0.7235   -1.0491 C   0  0  2  0  0  0  0  0  0  0  0  0
   -5.9905    0.2018    0.1818 C   0  0  0  0  0  0  0  0  0  0  0  0
   -7.2917    0.8981    0.3548 C   0  0  0  0  0  0  0  0  0  0  0  0
   -8.4664    0.4522   -0.2162 C   0  0  0  0  0  0  0  0  0  0  0  0
   -9.6163    1.2098    0.0404 C   0  0  0  0  0  0  0  0  0  0  0  0
   -9.5844    2.3425    0.8216 C   0  0  0  0  0  0  0  0  0  0  0  0
   -8.4078    2.7369    1.3578 N   0  0  0  0  0  0  0  0  0  0  0  0
   -7.2539    2.0520    1.1517 C   0  0  0  0  0  0  0  0  0  0  0  0
   -6.0156    0.2819   -2.1810 N   0  0  0  0  0  0  0  0  0  0  0  0
   -6.5731    1.2655   -3.0511 C   0  0  0  0  0  0  0  0  0  0  0  0
   -6.4054    2.5061   -2.8737 O   0  0  0  0  0  0  0  0  0  0  0  0
   -7.4001    0.8861   -4.2417 C   0  0  0  0  0  0  0  0  0  0  0  0
   -1.4982   -0.9800    1.4890 C   0  0  0  0  0  0  0  0  0  0  0  0
   -2.5962   -1.8675    1.8720 C   0  0  0  0  0  0  0  0  0  0  0  0
   -3.7170   -1.4515    2.5921 C   0  0  0  0  0  0  0  0  0  0  0  0
   -4.7388   -2.3092    2.9325 C   0  0  0  0  0  0  0  0  0  0  0  0
   -4.6822   -3.6422    2.5614 C   0  0  0  0  0  0  0  0  0  0  0  0
   -3.5752   -4.0921    1.8408 C   0  0  0  0  0  0  0  0  0  0  0  0
   -2.5675   -3.1938    1.5180 C   0  0  0  0  0  0  0  0  0  0  0  0
    0.3386    5.1861    3.2324 N   0  0  0  0  0  0  0  0  0  0  0  0
    3.4719    5.5919    3.5752 H   0  0  0  0  0  0  0  0  0  0  0  0
    2.9560    5.6615    1.8361 H   0  0  0  0  0  0  0  0  0  0  0  0
    3.6182    3.1323    2.4118 H   0  0  0  0  0  0  0  0  0  0  0  0
    3.2359    2.1538    3.9370 H   0  0  0  0  0  0  0  0  0  0  0  0
    1.7038    0.8232    2.4466 H   0  0  0  0  0  0  0  0  0  0  0  0
    3.4586    0.6788    1.9248 H   0  0  0  0  0  0  0  0  0  0  0  0
    2.9762    2.6856    0.3483 H   0  0  0  0  0  0  0  0  0  0  0  0
    1.2658    2.5899    0.8732 H   0  0  0  0  0  0  0  0  0  0  0  0
    1.5377    1.7655   -1.2297 H   0  0  0  0  0  0  0  0  0  0  0  0
    4.2511    1.7926   -1.1696 H   0  0  0  0  0  0  0  0  0  0  0  0
    5.9227    0.7270   -2.2931 H   0  0  0  0  0  0  0  0  0  0  0  0
    3.2352   -0.8442   -3.4485 H   0  0  0  0  0  0  0  0  0  0  0  0
    3.6199   -2.5632   -2.8921 H   0  0  0  0  0  0  0  0  0  0  0  0
    6.6127    0.7859   -0.1150 H   0  0  0  0  0  0  0  0  0  0  0  0
    5.7828   -0.6949    0.4318 H   0  0  0  0  0  0  0  0  0  0  0  0
    8.9360    0.5928   -1.2650 H   0  0  0  0  0  0  0  0  0  0  0  0
   10.6160   -1.3613   -1.7390 H   0  0  0  0  0  0  0  0  0  0  0  0
    5.8420   -3.2657   -0.2245 H   0  0  0  0  0  0  0  0  0  0  0  0
    6.6174   -5.6376   -0.3789 H   0  0  0  0  0  0  0  0  0  0  0  0
    8.9699   -6.0941   -1.0864 H   0  0  0  0  0  0  0  0  0  0  0  0
   10.4494   -4.1230   -1.6142 H   0  0  0  0  0  0  0  0  0  0  0  0
    0.9818   -0.7196    0.4431 H   0  0  0  0  0  0  0  0  0  0  0  0
   -1.5999   -1.2520   -0.6108 H   0  0  0  0  0  0  0  0  0  0  0  0
   -3.2723    0.9699    0.6693 H   0  0  0  0  0  0  0  0  0  0  0  0
   -5.0889    1.7965   -0.9798 H   0  0  0  0  0  0  0  0  0  0  0  0
   -6.1012   -0.8925    0.0514 H   0  0  0  0  0  0  0  0  0  0  0  0
   -5.3128    0.3804    1.0451 H   0  0  0  0  0  0  0  0  0  0  0  0
   -8.4796   -0.4348   -0.8291 H   0  0  0  0  0  0  0  0  0  0  0  0
  -10.5511    0.9010   -0.3817 H   0  0  0  0  0  0  0  0  0  0  0  0
  -10.4469    2.9537    1.0448 H   0  0  0  0  0  0  0  0  0  0  0  0
   -6.3095    2.3896    1.5985 H   0  0  0  0  0  0  0  0  0  0  0  0
   -6.1666   -0.7330   -2.3491 H   0  0  0  0  0  0  0  0  0  0  0  0
   -8.4520    0.7941   -3.9499 H   0  0  0  0  0  0  0  0  0  0  0  0
   -7.0439   -0.0928   -4.6341 H   0  0  0  0  0  0  0  0  0  0  0  0
   -7.3605    1.6568   -5.0367 H   0  0  0  0  0  0  0  0  0  0  0  0
   -1.3364   -0.1796    2.2408 H   0  0  0  0  0  0  0  0  0  0  0  0
   -0.5739   -1.6215    1.3920 H   0  0  0  0  0  0  0  0  0  0  0  0
   -3.7786   -0.4014    2.8958 H   0  0  0  0  0  0  0  0  0  0  0  0
   -5.5981   -1.9618    3.4924 H   0  0  0  0  0  0  0  0  0  0  0  0
   -5.4965   -4.2928    2.8418 H   0  0  0  0  0  0  0  0  0  0  0  0
   -3.5276   -5.1407    1.5452 H   0  0  0  0  0  0  0  0  0  0  0  0
   -1.7062   -3.5415    0.9573 H   0  0  0  0  0  0  0  0  0  0  0  0
    0.0716    5.6644    4.0960 H   0  0  0  0  0  0  0  0  0  0  0  0
   -0.3803    5.1456    2.4547 H   0  0  0  0  0  0  0  0  0  0  0  0
  1  2  1  0
  2  3  2  3
  3  4  1  0
  4  5  1  0
  5  6  1  0
  6  7  1  0
  7  8  1  0
  8  9  2  0
  8 10  1  0
 10 11  1  0
 11 12  1  0
 12 13  2  0
 12 14  1  0
 11 15  1  0
 15 16  1  0
 16 17  2  0
 17 18  1  0
 18 19  1  0
 19 20  2  0
 20 21  1  0
 21 22  2  0
 22 23  1  0
 23 24  2  0
  7 25  1  0
 25 26  1  0
 26 27  2  0
 26 28  1  0
 28 29  1  0
 29 30  1  0
 30 31  2  0
 30 32  1  0
 32 33  1  0
 33 34  1  0
 34 35  2  0
 35 36  1  0
 36 37  2  0
 37 38  1  0
 38 39  2  0
 32 40  1  0
 40 41  1  0
 41 42  2  0
 41 43  1  0
 28 44  1  0
 44 45  1  0
 45 46  2  0
 46 47  1  0
 47 48  2  0
 48 49  1  0
 49 50  2  0
  2 51  1  0
 20 16  1  0
 39 34  1  0
 50 45  1  0
 24 19  1  0
  1 52  1  0
  1 53  1  0
  4 54  1  0
  4 55  1  0
  5 56  1  0
  5 57  1  0
  6 58  1  0
  6 59  1  0
  7 60  1  6
 10 61  1  0
 11 62  1  6
 14 63  1  0
 14 64  1  0
 15 65  1  0
 15 66  1  0
 17 67  1  0
 18 68  1  0
 21 69  1  0
 22 70  1  0
 23 71  1  0
 24 72  1  0
 25 73  1  0
 28 74  1  6
 29 75  1  0
 32 76  1  1
 33 77  1  0
 33 78  1  0
 35 79  1  0
 36 80  1  0
 37 81  1  0
 39 82  1  0
 40 83  1  0
 43 84  1  0
 43 85  1  0
 43 86  1  0
 44 87  1  0
 44 88  1  0
 46 89  1  0
 47 90  1  0
 48 91  1  0
 49 92  1  0
 50 93  1  0
 51 94  1  0
 51 95  1  0
M  END
>  <Ligand ID>  (1) 
LIG0003291

>  <Ligand>  (1) 
CHEMBL317969

>  <SMILES>  (1) 
NC(=NCCC[C@@H](C(=O)N[C@H](C(=O)N)Cc1c[nH]c2c1cccc2)NC(=O)[C@H](NC(=O)[C@H](Cc1cccnc1)NC(=O)C)Cc1ccccc1)N

>  <CID>  (1) 
11136229.0

>  <ChEMBL ID>  (1) 
nan

>  <InChiKey>  (1) 
UIBDIGUMWQQJIJ-XHPANXIASA-N

>  <InChi>  (1) 
InChI=1S/C36H44N10O5/c1-22(47)43-30(18-24-11-7-15-40-20-24)34(50)46-31(17-23-9-3-2-4-10-23)35(51)44-28(14-8-16-41-36(38)39)33(49)45-29(32(37)48)19-25-21-42-27-13-6-5-12-26(25)27/h2-7,9-13,15,20-21,28-31,42H,8,14,16-19H2,1H3,(H2,37,48)(H,43,47)(H,44,51)(H,45,49)(H,46,50)(H4,38,39,41)/t28-,29-,30-,31+/m0/s1

>  <IUPAC Name>  (1) 
(2S)-2-[[(2R)-2-[[(2S)-2-acetamido-3-pyridin-3-ylpropanoyl]amino]-3-phenylpropanoyl]amino]-N-[(2S)-1-amino-3-(1H-indol-3-yl)-1-oxopropan-2-yl]-5-(diaminomethylideneamino)pentanamide

$$$$
