
     RDKit          3D

 25 27  0  0  0  0  0  0  0  0999 V2000
    1.3180    2.5891   -0.6184 C   0  0  0  0  0  0  0  0  0  0  0  0
    0.5191    1.3608   -0.3415 C   0  0  0  0  0  0  0  0  0  0  0  0
   -0.8526    1.3974   -0.4698 C   0  0  0  0  0  0  0  0  0  0  0  0
   -1.5623    0.2320   -0.2029 C   0  0  0  0  0  0  0  0  0  0  0  0
   -2.9325    0.3132   -0.3437 C   0  0  0  0  0  0  0  0  0  0  0  0
   -3.6795   -0.8250   -0.0877 C   0  0  0  0  0  0  0  0  0  0  0  0
   -2.9983   -1.9778    0.2954 C   0  0  0  0  0  0  0  0  0  0  0  0
   -1.6577   -2.0128    0.4206 N   0  0  0  0  0  0  0  0  0  0  0  0
   -0.9099   -0.9221    0.1780 C   0  0  0  0  0  0  0  0  0  0  0  0
    0.4824   -0.9617    0.3090 C   0  0  0  0  0  0  0  0  0  0  0  0
    1.1932    0.2039    0.0421 C   0  0  0  0  0  0  0  0  0  0  0  0
    2.5687    0.1633    0.1719 C   0  0  0  0  0  0  0  0  0  0  0  0
    3.2311   -0.9993    0.5561 C   0  0  0  0  0  0  0  0  0  0  0  0
    2.4556   -2.1127    0.8027 C   0  0  0  0  0  0  0  0  0  0  0  0
    1.1091   -2.1004    0.6834 N   0  0  0  0  0  0  0  0  0  0  0  0
    0.6617    3.3649   -1.0527 H   0  0  0  0  0  0  0  0  0  0  0  0
    2.1493    2.4149   -1.3205 H   0  0  0  0  0  0  0  0  0  0  0  0
    1.6892    3.0393    0.3488 H   0  0  0  0  0  0  0  0  0  0  0  0
   -1.3649    2.2998   -0.7679 H   0  0  0  0  0  0  0  0  0  0  0  0
   -3.4445    1.2303   -0.6459 H   0  0  0  0  0  0  0  0  0  0  0  0
   -4.7582   -0.7987   -0.1879 H   0  0  0  0  0  0  0  0  0  0  0  0
   -3.5790   -2.8892    0.5019 H   0  0  0  0  0  0  0  0  0  0  0  0
    3.1640    1.0456   -0.0251 H   0  0  0  0  0  0  0  0  0  0  0  0
    4.2936   -1.0058    0.6494 H   0  0  0  0  0  0  0  0  0  0  0  0
    2.9046   -3.0489    1.1048 H   0  0  0  0  0  0  0  0  0  0  0  0
  1  2  1  0
  2  3  2  0
  3  4  1  0
  4  5  2  0
  5  6  1  0
  6  7  2  0
  7  8  1  0
  8  9  2  0
  9 10  1  0
 10 11  2  0
 11 12  1  0
 12 13  2  0
 13 14  1  0
 14 15  2  0
 11  2  1  0
  9  4  1  0
 15 10  1  0
  1 16  1  0
  1 17  1  0
  1 18  1  0
  3 19  1  0
  5 20  1  0
  6 21  1  0
  7 22  1  0
 12 23  1  0
 13 24  1  0
 14 25  1  0
M  END
>  <Ligand ID>  (1) 
LIG0003694

>  <Ligand>  (1) 
5-Methyl-1,10-phenanthroline

>  <SMILES>  (1) 
Cc1cc2cccnc2c2c1cccn2

>  <CID>  (1) 
72791.0

>  <ChEMBL ID>  (1) 
nan

>  <InChiKey>  (1) 
UJAQYOZROIFQHO-UHFFFAOYSA-N

>  <InChi>  (1) 
InChI=1S/C13H10N2/c1-9-8-10-4-2-6-14-12(10)13-11(9)5-3-7-15-13/h2-8H,1H3

>  <IUPAC Name>  (1) 
5-methyl-1,10-phenanthroline

$$$$
