
     RDKit          3D

 20 20  0  0  0  0  0  0  0  0999 V2000
    3.3510    0.2405   -0.2216 C   0  0  0  0  0  0  0  0  0  0  0  0
    1.9200    0.7176   -0.1273 C   0  0  0  0  0  0  0  0  0  0  0  0
    1.0324   -0.4689   -0.0684 C   0  0  0  0  0  0  0  0  0  0  0  0
    1.5816   -1.6081   -0.1044 O   0  0  0  0  0  0  0  0  0  0  0  0
   -0.4171   -0.3064    0.0272 C   0  0  0  0  0  0  0  0  0  0  0  0
   -1.0113    0.9359    0.0661 C   0  0  0  0  0  0  0  0  0  0  0  0
   -2.3939    1.0397    0.1573 C   0  0  0  0  0  0  0  0  0  0  0  0
   -3.2018   -0.0940    0.2109 C   0  0  0  0  0  0  0  0  0  0  0  0
   -2.5917   -1.3335    0.1710 C   0  0  0  0  0  0  0  0  0  0  0  0
   -1.2196   -1.4282    0.0805 C   0  0  0  0  0  0  0  0  0  0  0  0
    3.7753    0.2890    0.8033 H   0  0  0  0  0  0  0  0  0  0  0  0
    3.9142    0.9199   -0.8677 H   0  0  0  0  0  0  0  0  0  0  0  0
    3.3724   -0.8157   -0.5405 H   0  0  0  0  0  0  0  0  0  0  0  0
    1.6335    1.2905   -1.0539 H   0  0  0  0  0  0  0  0  0  0  0  0
    1.7530    1.4146    0.7106 H   0  0  0  0  0  0  0  0  0  0  0  0
   -0.3876    1.8321    0.0247 H   0  0  0  0  0  0  0  0  0  0  0  0
   -2.8326    2.0487    0.1860 H   0  0  0  0  0  0  0  0  0  0  0  0
   -4.2683   -0.0160    0.2813 H   0  0  0  0  0  0  0  0  0  0  0  0
   -3.2055   -2.2322    0.2118 H   0  0  0  0  0  0  0  0  0  0  0  0
   -0.8040   -2.4256    0.0533 H   0  0  0  0  0  0  0  0  0  0  0  0
  1  2  1  0
  2  3  1  0
  3  4  2  0
  3  5  1  0
  5  6  2  0
  6  7  1  0
  7  8  2  0
  8  9  1  0
  9 10  2  0
 10  5  1  0
  1 11  1  0
  1 12  1  0
  1 13  1  0
  2 14  1  0
  2 15  1  0
  6 16  1  0
  7 17  1  0
  8 18  1  0
  9 19  1  0
 10 20  1  0
M  END
>  <Ligand ID>  (1) 
LIG0005007

>  <Ligand>  (1) 
Propiophenone

>  <SMILES>  (1) 
CCC(=O)c1ccccc1

>  <CID>  (1) 
7148.0

>  <ChEMBL ID>  (1) 
nan

>  <InChiKey>  (1) 
KRIOVPPHQSLHCZ-UHFFFAOYSA-N

>  <InChi>  (1) 
InChI=1S/C9H10O/c1-2-9(10)8-6-4-3-5-7-8/h3-7H,2H2,1H3

>  <IUPAC Name>  (1) 
1-phenylpropan-1-one

$$$$
