
     RDKit          3D

 29 28  0  0  0  0  0  0  0  0999 V2000
   -3.4690    2.2669   -1.0730 O   0  0  0  0  0  0  0  0  0  0  0  0
   -3.7834    1.1985   -0.2243 C   0  0  0  0  0  0  0  0  0  0  0  0
   -5.0184    0.8947   -0.1181 O   0  0  0  0  0  0  0  0  0  0  0  0
   -2.7121    0.4927    0.4868 C   0  0  0  0  0  0  0  0  0  0  0  0
   -2.3466   -0.8387   -0.1761 C   0  0  0  0  0  0  0  0  0  0  0  0
   -1.0217   -1.5653    0.8240 P   0  0  0  0  0  0  0  0  0  0  0  0
   -1.5610   -1.8153    2.2110 O   0  0  0  0  0  0  0  0  0  0  0  0
    0.3684   -0.3848    0.9214 C   0  0  0  0  0  0  0  0  0  0  0  0
    1.1058   -0.3080   -0.3835 C   0  0  0  0  0  0  0  0  0  0  0  0
    2.2336    0.6808   -0.2947 C   0  0  1  0  0  0  0  0  0  0  0  0
    3.2452    0.3741    0.7191 C   0  0  0  0  0  0  0  0  0  0  0  0
    3.0538    0.3076    1.9563 O   0  0  0  0  0  0  0  0  0  0  0  0
    4.5642    0.1256    0.3017 O   0  0  0  0  0  0  0  0  0  0  0  0
    2.8749    0.7806   -1.6186 N   0  0  0  0  0  0  0  0  0  0  0  0
   -0.5038   -3.0261    0.1885 O   0  0  0  0  0  0  0  0  0  0  0  0
   -4.1710    2.8758   -1.4669 H   0  0  0  0  0  0  0  0  0  0  0  0
   -1.8227    1.1473    0.5285 H   0  0  0  0  0  0  0  0  0  0  0  0
   -3.0263    0.2538    1.5337 H   0  0  0  0  0  0  0  0  0  0  0  0
   -2.0091   -0.6505   -1.2010 H   0  0  0  0  0  0  0  0  0  0  0  0
   -3.2134   -1.5129   -0.2085 H   0  0  0  0  0  0  0  0  0  0  0  0
    1.0733   -0.7734    1.7130 H   0  0  0  0  0  0  0  0  0  0  0  0
    0.0267    0.6158    1.2027 H   0  0  0  0  0  0  0  0  0  0  0  0
    0.3681    0.0213   -1.1602 H   0  0  0  0  0  0  0  0  0  0  0  0
    1.4662   -1.3233   -0.6632 H   0  0  0  0  0  0  0  0  0  0  0  0
    1.8595    1.7088   -0.0702 H   0  0  0  0  0  0  0  0  0  0  0  0
    5.3294    0.2610    0.9764 H   0  0  0  0  0  0  0  0  0  0  0  0
    3.4556   -0.0718   -1.7680 H   0  0  0  0  0  0  0  0  0  0  0  0
    3.4365    1.6508   -1.6513 H   0  0  0  0  0  0  0  0  0  0  0  0
    0.1974   -3.3858    0.7905 H   0  0  0  0  0  0  0  0  0  0  0  0
  1  2  1  0
  2  3  2  0
  2  4  1  0
  4  5  1  0
  5  6  1  0
  6  7  2  0
  6  8  1  0
  8  9  1  0
  9 10  1  0
 10 11  1  0
 11 12  2  0
 11 13  1  0
 10 14  1  0
  6 15  1  0
  1 16  1  0
  4 17  1  0
  4 18  1  0
  5 19  1  0
  5 20  1  0
  8 21  1  0
  8 22  1  0
  9 23  1  0
  9 24  1  0
 10 25  1  1
 13 26  1  0
 14 27  1  0
 14 28  1  0
 15 29  1  0
M  END
>  <Ligand ID>  (1) 
LIG0002120

>  <Ligand>  (1) 
CHEMBL1089515

>  <SMILES>  (1) 
OC(=O)CCP(=O)(CC[C@@H](C(=O)O)N)O

>  <CID>  (1) 
6348408.0

>  <ChEMBL ID>  (1) 
nan

>  <InChiKey>  (1) 
CIOKCIBFBZYLCA-YFKPBYRVSA-N

>  <InChi>  (1) 
InChI=1S/C7H14NO6P/c8-5(7(11)12)1-3-15(13,14)4-2-6(9)10/h5H,1-4,8H2,(H,9,10)(H,11,12)(H,13,14)/t5-/m0/s1

>  <IUPAC Name>  (1) 
(2S)-2-amino-4-[2-carboxyethyl(hydroxy)phosphoryl]butanoic acid

$$$$
