
     RDKit          3D

 16 15  0  0  0  0  0  0  0  0999 V2000
    1.9916    1.1474    0.1771 O   0  0  0  0  0  0  0  0  0  0  0  0
    1.5299    0.0699    0.9122 C   0  0  0  0  0  0  0  0  0  0  0  0
    2.1740   -0.1696    1.9944 O   0  0  0  0  0  0  0  0  0  0  0  0
    0.4053   -0.7916    0.5686 C   0  0  0  0  0  0  0  0  0  0  0  0
   -0.3745   -0.4584   -0.6464 C   0  0  2  0  0  0  0  0  0  0  0  0
   -1.0058    0.8683   -0.6001 C   0  0  0  0  0  0  0  0  0  0  0  0
   -2.2580    0.9251   -0.6175 O   0  0  0  0  0  0  0  0  0  0  0  0
   -0.3242    2.0717   -0.5384 O   0  0  0  0  0  0  0  0  0  0  0  0
   -1.4221   -1.4878   -0.7421 N   0  0  0  0  0  0  0  0  0  0  0  0
    3.0025    1.2700    0.0052 H   0  0  0  0  0  0  0  0  0  0  0  0
   -0.2880   -0.8237    1.4410 H   0  0  0  0  0  0  0  0  0  0  0  0
    0.8043   -1.8309    0.4187 H   0  0  0  0  0  0  0  0  0  0  0  0
    0.2752   -0.5315   -1.5674 H   0  0  0  0  0  0  0  0  0  0  0  0
   -0.6048    2.7974    0.0932 H   0  0  0  0  0  0  0  0  0  0  0  0
   -2.3301   -1.0866   -1.0635 H   0  0  0  0  0  0  0  0  0  0  0  0
   -1.5752   -1.9698    0.1648 H   0  0  0  0  0  0  0  0  0  0  0  0
  1  2  1  0
  2  3  2  0
  2  4  1  0
  4  5  1  0
  5  6  1  0
  6  7  2  0
  6  8  1  0
  5  9  1  0
  1 10  1  0
  4 11  1  0
  4 12  1  0
  5 13  1  6
  8 14  1  0
  9 15  1  0
  9 16  1  0
M  END
>  <Ligand ID>  (1) 
LIG0002115

>  <Ligand>  (1) 
D-Aspartic acid

>  <SMILES>  (1) 
OC(=O)C[C@H](C(=O)O)N

>  <CID>  (1) 
83887.0

>  <ChEMBL ID>  (1) 
nan

>  <InChiKey>  (1) 
CKLJMWTZIZZHCS-UWTATZPHSA-N

>  <InChi>  (1) 
InChI=1S/C4H7NO4/c5-2(4(8)9)1-3(6)7/h2H,1,5H2,(H,6,7)(H,8,9)/t2-/m1/s1

>  <IUPAC Name>  (1) 
(2R)-2-aminobutanedioic acid

$$$$
