
     RDKit          3D

 70 71  0  0  0  0  0  0  0  0999 V2000
    9.6321    2.0439    2.6965 O   0  0  0  0  0  0  0  0  0  0  0  0
    9.2664    1.4265    1.5206 C   0  0  0  0  0  0  0  0  0  0  0  0
    7.8898    1.8618    1.1394 C   0  0  0  0  0  0  0  0  0  0  0  0
    6.7897    1.0218    1.3088 C   0  0  0  0  0  0  0  0  0  0  0  0
    5.5085    1.4427    0.9432 C   0  0  0  0  0  0  0  0  0  0  0  0
    5.3823    2.6951    0.4196 C   0  0  0  0  0  0  0  0  0  0  0  0
    6.4700    3.5546    0.2394 C   0  0  0  0  0  0  0  0  0  0  0  0
    7.7368    3.1317    0.6038 C   0  0  0  0  0  0  0  0  0  0  0  0
    8.8337    3.9838    0.4285 O   0  0  0  0  0  0  0  0  0  0  0  0
    4.4098    0.4804    1.1580 C   0  0  2  0  0  0  0  0  0  0  0  0
    3.0980    1.1494    0.9372 C   0  0  0  0  0  0  0  0  0  0  0  0
    1.9721    0.2536    1.1530 N   0  0  0  0  0  0  0  0  0  0  0  0
    1.8962   -0.7773    0.1650 C   0  0  0  0  0  0  0  0  0  0  0  0
    0.7103   -1.6614    0.4577 C   0  0  0  0  0  0  0  0  0  0  0  0
    0.5838   -2.7836   -0.5499 C   0  0  0  0  0  0  0  0  0  0  0  0
    0.4075   -2.3109   -1.9553 C   0  0  0  0  0  0  0  0  0  0  0  0
   -0.7720   -1.4653   -2.2118 C   0  0  0  0  0  0  0  0  0  0  0  0
   -2.0911   -2.1728   -1.9043 C   0  0  0  0  0  0  0  0  0  0  0  0
   -2.2752   -2.5375   -0.6569 O   0  0  0  0  0  0  0  0  0  0  0  0
   -3.2000   -3.2148   -0.0493 C   0  0  0  0  0  0  0  0  0  0  0  0
   -4.6337   -2.9163    0.0962 C   0  0  0  0  0  0  0  0  0  0  0  0
   -5.5066   -2.7814   -0.8632 O   0  0  0  0  0  0  0  0  0  0  0  0
   -5.6922   -1.8795   -1.8022 C   0  0  0  0  0  0  0  0  0  0  0  0
   -6.0177   -0.4992   -1.2866 C   0  0  0  0  0  0  0  0  0  0  0  0
   -5.0612    0.4268   -0.9594 C   0  0  0  0  0  0  0  0  0  0  0  0
   -5.3777    1.7043   -0.4917 C   0  0  0  0  0  0  0  0  0  0  0  0
   -6.7052    2.0576   -0.3494 C   0  0  0  0  0  0  0  0  0  0  0  0
   -7.6944    1.1553   -0.6672 C   0  0  0  0  0  0  0  0  0  0  0  0
   -7.3445   -0.0933   -1.1249 C   0  0  0  0  0  0  0  0  0  0  0  0
   -7.1809    3.6581    0.2301 S   0  0  0  0  0  0  0  0  0  0  0  0
   -6.0351    4.5703   -0.1643 O   0  0  0  0  0  0  0  0  0  0  0  0
   -8.4606    4.0430   -0.4498 O   0  0  0  0  0  0  0  0  0  0  0  0
   -7.3418    3.5704    1.9346 N   0  0  0  0  0  0  0  0  0  0  0  0
    4.5631   -0.0265    2.4600 O   0  0  0  0  0  0  0  0  0  0  0  0
    8.8188    2.3915    3.1346 H   0  0  0  0  0  0  0  0  0  0  0  0
    9.9562    1.5660    0.6779 H   0  0  0  0  0  0  0  0  0  0  0  0
    9.2044    0.3210    1.7107 H   0  0  0  0  0  0  0  0  0  0  0  0
    6.9396    0.0218    1.7357 H   0  0  0  0  0  0  0  0  0  0  0  0
    4.4257    3.0641    0.1243 H   0  0  0  0  0  0  0  0  0  0  0  0
    6.3461    4.5491   -0.1775 H   0  0  0  0  0  0  0  0  0  0  0  0
    9.6854    3.6148   -0.0113 H   0  0  0  0  0  0  0  0  0  0  0  0
    4.5519   -0.4148    0.4962 H   0  0  0  0  0  0  0  0  0  0  0  0
    3.0894    1.5856   -0.0734 H   0  0  0  0  0  0  0  0  0  0  0  0
    2.9927    1.9773    1.6631 H   0  0  0  0  0  0  0  0  0  0  0  0
    1.1250    0.8634    1.1154 H   0  0  0  0  0  0  0  0  0  0  0  0
    1.7977   -0.3843   -0.8700 H   0  0  0  0  0  0  0  0  0  0  0  0
    2.7958   -1.4385    0.2530 H   0  0  0  0  0  0  0  0  0  0  0  0
   -0.2072   -1.0473    0.3684 H   0  0  0  0  0  0  0  0  0  0  0  0
    0.7651   -2.0699    1.4735 H   0  0  0  0  0  0  0  0  0  0  0  0
    1.4824   -3.4614   -0.4910 H   0  0  0  0  0  0  0  0  0  0  0  0
   -0.2615   -3.4194   -0.2548 H   0  0  0  0  0  0  0  0  0  0  0  0
    0.3756   -3.2205   -2.6050 H   0  0  0  0  0  0  0  0  0  0  0  0
    1.3668   -1.8136   -2.2527 H   0  0  0  0  0  0  0  0  0  0  0  0
   -0.7564   -0.4794   -1.7084 H   0  0  0  0  0  0  0  0  0  0  0  0
   -0.7970   -1.2445   -3.3092 H   0  0  0  0  0  0  0  0  0  0  0  0
   -2.1578   -2.9699   -2.6851 H   0  0  0  0  0  0  0  0  0  0  0  0
   -2.8928   -1.4369   -2.2078 H   0  0  0  0  0  0  0  0  0  0  0  0
   -2.8373   -3.3246    1.0658 H   0  0  0  0  0  0  0  0  0  0  0  0
   -3.1317   -4.3594   -0.3035 H   0  0  0  0  0  0  0  0  0  0  0  0
   -5.0285   -3.7764    0.7797 H   0  0  0  0  0  0  0  0  0  0  0  0
   -4.7104   -2.0623    0.8861 H   0  0  0  0  0  0  0  0  0  0  0  0
   -5.0169   -1.8014   -2.6667 H   0  0  0  0  0  0  0  0  0  0  0  0
   -6.7040   -2.1690   -2.3163 H   0  0  0  0  0  0  0  0  0  0  0  0
   -4.0093    0.2165   -1.0409 H   0  0  0  0  0  0  0  0  0  0  0  0
   -4.5998    2.4174   -0.2406 H   0  0  0  0  0  0  0  0  0  0  0  0
   -8.7641    1.3941   -0.5675 H   0  0  0  0  0  0  0  0  0  0  0  0
   -8.1336   -0.7898   -1.3700 H   0  0  0  0  0  0  0  0  0  0  0  0
   -7.2954    2.6021    2.3039 H   0  0  0  0  0  0  0  0  0  0  0  0
   -6.7741    4.2630    2.4525 H   0  0  0  0  0  0  0  0  0  0  0  0
    4.5994   -1.0013    2.5054 H   0  0  0  0  0  0  0  0  0  0  0  0
  1  2  1  0
  2  3  1  0
  3  4  2  0
  4  5  1  0
  5  6  2  0
  6  7  1  0
  7  8  2  0
  8  9  1  0
  5 10  1  0
 10 11  1  0
 11 12  1  0
 12 13  1  0
 13 14  1  0
 14 15  1  0
 15 16  1  0
 16 17  1  0
 17 18  1  0
 18 19  1  0
 19 20  1  0
 20 21  1  0
 21 22  1  0
 22 23  1  0
 23 24  1  0
 24 25  2  0
 25 26  1  0
 26 27  2  0
 27 28  1  0
 28 29  2  0
 27 30  1  0
 30 31  2  0
 30 32  2  0
 30 33  1  0
 10 34  1  0
  8  3  1  0
 29 24  1  0
  1 35  1  0
  2 36  1  0
  2 37  1  0
  4 38  1  0
  6 39  1  0
  7 40  1  0
  9 41  1  0
 10 42  1  6
 11 43  1  0
 11 44  1  0
 12 45  1  0
 13 46  1  0
 13 47  1  0
 14 48  1  0
 14 49  1  0
 15 50  1  0
 15 51  1  0
 16 52  1  0
 16 53  1  0
 17 54  1  0
 17 55  1  0
 18 56  1  0
 18 57  1  0
 20 58  1  0
 20 59  1  0
 21 60  1  0
 21 61  1  0
 23 62  1  0
 23 63  1  0
 25 64  1  0
 26 65  1  0
 28 66  1  0
 29 67  1  0
 33 68  1  0
 33 69  1  0
 34 70  1  0
M  END
>  <Ligand ID>  (1) 
LIG0002562

>  <Ligand>  (1) 
CHEMBL1084655

>  <SMILES>  (1) 
OCc1cc(ccc1O)[C@H](CNCCCCCCOCCOCc1ccc(cc1)S(=O)(=O)N)O

>  <CID>  (1) 
46832804.0

>  <ChEMBL ID>  (1) 
nan

>  <InChiKey>  (1) 
NBGUCSNEMUHHJX-DEOSSOPVSA-N

>  <InChi>  (1) 
InChI=1S/C24H36N2O7S/c25-34(30,31)22-8-5-19(6-9-22)18-33-14-13-32-12-4-2-1-3-11-26-16-24(29)20-7-10-23(28)21(15-20)17-27/h5-10,15,24,26-29H,1-4,11-14,16-18H2,(H2,25,30,31)/t24-/m0/s1

>  <IUPAC Name>  (1) 
4-[2-[6-[[(2R)-2-hydroxy-2-[4-hydroxy-3-(hydroxymethyl)phenyl]ethyl]amino]hexoxy]ethoxymethyl]benzenesulfonamide

$$$$
