
     RDKit          3D

 24 25  0  0  0  0  0  0  0  0999 V2000
   -0.6374    1.6812   -0.5492 O   0  0  0  0  0  0  0  0  0  0  0  0
   -0.8626    0.5363   -0.1302 C   0  0  0  0  0  0  0  0  0  0  0  0
   -2.2805    0.1801    0.0920 C   0  0  0  0  0  0  0  0  0  0  0  0
   -3.3035    1.0687   -0.1516 C   0  0  0  0  0  0  0  0  0  0  0  0
   -4.6171    0.7061    0.0658 C   0  0  0  0  0  0  0  0  0  0  0  0
   -4.9265   -0.5214    0.5196 N   0  0  0  0  0  0  0  0  0  0  0  0
   -3.9242   -1.3921    0.7583 C   0  0  0  0  0  0  0  0  0  0  0  0
   -2.6290   -1.0402    0.5459 N   0  0  0  0  0  0  0  0  0  0  0  0
    0.1447   -0.4108    0.1349 N   0  0  0  0  0  0  0  0  0  0  0  0
    1.5320   -0.2234   -0.0257 C   0  0  0  0  0  0  0  0  0  0  0  0
    2.3665   -1.2788    0.2895 C   0  0  0  0  0  0  0  0  0  0  0  0
    3.7338   -1.1722    0.1587 C   0  0  0  0  0  0  0  0  0  0  0  0
    4.3484   -0.0240   -0.2880 C   0  0  0  0  0  0  0  0  0  0  0  0
    3.5264    1.0372   -0.6060 C   0  0  0  0  0  0  0  0  0  0  0  0
    2.1360    0.9251   -0.4718 C   0  0  0  0  0  0  0  0  0  0  0  0
    4.2412    2.5203   -1.1776 Cl  0  0  0  0  0  0  0  0  0  0  0  0
    6.0856    0.1071   -0.4526 Cl  0  0  0  0  0  0  0  0  0  0  0  0
   -3.0742    2.0738   -0.5215 H   0  0  0  0  0  0  0  0  0  0  0  0
   -5.3850    1.4373   -0.1397 H   0  0  0  0  0  0  0  0  0  0  0  0
   -4.1587   -2.3934    1.1272 H   0  0  0  0  0  0  0  0  0  0  0  0
   -0.1982   -1.3539    0.4907 H   0  0  0  0  0  0  0  0  0  0  0  0
    1.9676   -2.2246    0.6501 H   0  0  0  0  0  0  0  0  0  0  0  0
    4.3404   -2.0169    0.4152 H   0  0  0  0  0  0  0  0  0  0  0  0
    1.5741    1.7785   -0.7343 H   0  0  0  0  0  0  0  0  0  0  0  0
  1  2  2  0
  2  3  1  0
  3  4  2  0
  4  5  1  0
  5  6  2  0
  6  7  1  0
  7  8  2  0
  2  9  1  0
  9 10  1  0
 10 11  2  0
 11 12  1  0
 12 13  2  0
 13 14  1  0
 14 15  2  0
 14 16  1  0
 13 17  1  0
  8  3  1  0
 15 10  1  0
  4 18  1  0
  5 19  1  0
  7 20  1  0
  9 21  1  0
 11 22  1  0
 12 23  1  0
 15 24  1  0
M  END
>  <Ligand ID>  (1) 
LIG0005794

>  <Ligand>  (1) 
CHEMBL560021

>  <SMILES>  (1) 
O=C(c1ccncn1)Nc1ccc(c(c1)Cl)Cl

>  <CID>  (1) 
44191099.0

>  <ChEMBL ID>  (1) 
nan

>  <InChiKey>  (1) 
LCFLTITYNXLCQW-UHFFFAOYSA-N

>  <InChi>  (1) 
InChI=1S/C11H7Cl2N3O/c12-8-2-1-7(5-9(8)13)16-11(17)10-3-4-14-6-15-10/h1-6H,(H,16,17)

>  <IUPAC Name>  (1) 
N-(3,4-dichlorophenyl)pyrimidine-4-carboxamide

$$$$
