
     RDKit          3D

 65 67  0  0  0  0  0  0  0  0999 V2000
   -1.5312    2.2360    2.8718 O   0  0  0  0  0  0  0  0  0  0  0  0
   -1.7134    1.9557    1.5120 C   0  0  2  0  0  0  0  0  0  0  0  0
   -3.2107    1.8579    1.1925 C   0  0  2  0  0  0  0  0  0  0  0  0
   -3.9043    2.5962    2.1203 O   0  0  0  0  0  0  0  0  0  0  0  0
   -3.3977    0.3552    1.3623 C   0  0  2  0  0  0  0  0  0  0  0  0
   -2.3088   -0.0865    0.5745 O   0  0  0  0  0  0  0  0  0  0  0  0
   -1.2424    0.5651    1.1926 C   0  0  1  0  0  0  0  0  0  0  0  0
   -0.0602    0.6219    0.3545 N   0  0  0  0  0  0  0  0  0  0  0  0
   -0.1336    0.7986   -0.9862 C   0  0  0  0  0  0  0  0  0  0  0  0
    1.0383    0.8425   -1.7227 C   0  0  0  0  0  0  0  0  0  0  0  0
    2.2741    0.7067   -1.0924 C   0  0  0  0  0  0  0  0  0  0  0  0
    2.3055    0.5306    0.2573 N   0  0  0  0  0  0  0  0  0  0  0  0
    1.1525    0.4909    0.9556 C   0  0  0  0  0  0  0  0  0  0  0  0
    1.1945    0.3255    2.2192 O   0  0  0  0  0  0  0  0  0  0  0  0
    3.4965    0.7461   -1.8114 N   0  0  0  0  0  0  0  0  0  0  0  0
    4.6882    0.6133   -1.1891 O   0  0  0  0  0  0  0  0  0  0  0  0
    4.9528   -0.7666   -1.1166 C   0  0  0  0  0  0  0  0  0  0  0  0
    6.2887   -0.8857   -0.4171 C   0  0  0  0  0  0  0  0  0  0  0  0
    7.3182   -0.1497   -1.2525 C   0  0  0  0  0  0  0  0  0  0  0  0
    8.6189   -0.2834   -0.5416 C   0  0  0  0  0  0  0  0  0  0  0  0
    9.4876   -1.3468   -0.7907 C   0  0  0  0  0  0  0  0  0  0  0  0
   10.6995   -1.4641   -0.1228 C   0  0  0  0  0  0  0  0  0  0  0  0
   11.0772   -0.5087    0.8225 C   0  0  0  0  0  0  0  0  0  0  0  0
   10.2056    0.5307    1.0520 C   0  0  0  0  0  0  0  0  0  0  0  0
    8.9945    0.6635    0.3962 C   0  0  0  0  0  0  0  0  0  0  0  0
   12.7447   -0.6884    1.7279 Br  0  0  0  0  0  0  0  0  0  0  0  0
   -4.7068   -0.1128    0.7853 C   0  0  0  0  0  0  0  0  0  0  0  0
   -4.6732   -1.5028    0.7619 O   0  0  0  0  0  0  0  0  0  0  0  0
   -6.1135   -2.1313    0.1333 P   0  0  0  0  0  0  0  0  0  0  0  0
   -7.2439   -1.4860    0.9080 O   0  0  0  0  0  0  0  0  0  0  0  0
   -6.2592   -1.7993   -1.5119 O   0  0  0  0  0  0  0  0  0  0  0  0
   -7.8843   -1.4067   -1.8417 P   0  0  0  0  0  0  0  0  0  0  0  0
   -8.1684   -1.5363   -3.3359 O   0  0  0  0  0  0  0  0  0  0  0  0
   -8.2266    0.1733   -1.3676 O   0  0  0  0  0  0  0  0  0  0  0  0
   -9.8214    0.3262   -0.8262 P   0  0  0  0  0  0  0  0  0  0  0  0
  -10.7107   -0.7695   -1.3485 O   0  0  0  0  0  0  0  0  0  0  0  0
   -9.7959    0.2735    0.8757 O   0  0  0  0  0  0  0  0  0  0  0  0
  -10.4202    1.8580   -1.2646 O   0  0  0  0  0  0  0  0  0  0  0  0
   -8.9133   -2.5066   -1.0567 O   0  0  0  0  0  0  0  0  0  0  0  0
   -6.2351   -3.7861    0.3919 O   0  0  0  0  0  0  0  0  0  0  0  0
   -1.3878    1.3811    3.3386 H   0  0  0  0  0  0  0  0  0  0  0  0
   -1.2039    2.7065    0.8843 H   0  0  0  0  0  0  0  0  0  0  0  0
   -3.3193    2.1762    0.1474 H   0  0  0  0  0  0  0  0  0  0  0  0
   -3.8534    3.5348    1.8394 H   0  0  0  0  0  0  0  0  0  0  0  0
   -3.2348    0.1041    2.4114 H   0  0  0  0  0  0  0  0  0  0  0  0
   -1.0060   -0.0304    2.0959 H   0  0  0  0  0  0  0  0  0  0  0  0
   -1.1081    0.9000   -1.4385 H   0  0  0  0  0  0  0  0  0  0  0  0
    0.9977    0.9812   -2.7804 H   0  0  0  0  0  0  0  0  0  0  0  0
    3.4833    0.8792   -2.8356 H   0  0  0  0  0  0  0  0  0  0  0  0
    5.0434   -1.2446   -2.0991 H   0  0  0  0  0  0  0  0  0  0  0  0
    4.1378   -1.2683   -0.5725 H   0  0  0  0  0  0  0  0  0  0  0  0
    6.2792   -0.4300    0.5810 H   0  0  0  0  0  0  0  0  0  0  0  0
    6.5635   -1.9512   -0.4228 H   0  0  0  0  0  0  0  0  0  0  0  0
    7.0666    0.9198   -1.4019 H   0  0  0  0  0  0  0  0  0  0  0  0
    7.3791   -0.5906   -2.2781 H   0  0  0  0  0  0  0  0  0  0  0  0
    9.2252   -2.1077   -1.5196 H   0  0  0  0  0  0  0  0  0  0  0  0
   11.3749   -2.3064   -0.3283 H   0  0  0  0  0  0  0  0  0  0  0  0
   10.5011    1.2831    1.7952 H   0  0  0  0  0  0  0  0  0  0  0  0
    8.3093    1.4877    0.5817 H   0  0  0  0  0  0  0  0  0  0  0  0
   -4.7464    0.2569   -0.2591 H   0  0  0  0  0  0  0  0  0  0  0  0
   -5.5101    0.2365    1.4324 H   0  0  0  0  0  0  0  0  0  0  0  0
   -9.0857    0.8810    1.1970 H   0  0  0  0  0  0  0  0  0  0  0  0
  -10.2948    2.4953   -0.5138 H   0  0  0  0  0  0  0  0  0  0  0  0
   -9.2036   -2.1373   -0.1982 H   0  0  0  0  0  0  0  0  0  0  0  0
   -6.2695   -4.0065    1.3562 H   0  0  0  0  0  0  0  0  0  0  0  0
  1  2  1  0
  2  3  1  0
  3  4  1  0
  3  5  1  0
  5  6  1  0
  6  7  1  0
  7  8  1  0
  8  9  1  0
  9 10  2  0
 10 11  1  0
 11 12  2  0
 12 13  1  0
 13 14  2  0
 11 15  1  0
 15 16  1  0
 16 17  1  0
 17 18  1  0
 18 19  1  0
 19 20  1  0
 20 21  2  0
 21 22  1  0
 22 23  2  0
 23 24  1  0
 24 25  2  0
 23 26  1  0
  5 27  1  0
 27 28  1  0
 28 29  1  0
 29 30  2  0
 29 31  1  0
 31 32  1  0
 32 33  2  0
 32 34  1  0
 34 35  1  0
 35 36  2  0
 35 37  1  0
 35 38  1  0
 32 39  1  0
 29 40  1  0
  7  2  1  0
 13  8  1  0
 25 20  1  0
  1 41  1  0
  2 42  1  6
  3 43  1  6
  4 44  1  0
  5 45  1  1
  7 46  1  1
  9 47  1  0
 10 48  1  0
 15 49  1  0
 17 50  1  0
 17 51  1  0
 18 52  1  0
 18 53  1  0
 19 54  1  0
 19 55  1  0
 21 56  1  0
 22 57  1  0
 24 58  1  0
 25 59  1  0
 27 60  1  0
 27 61  1  0
 37 62  1  0
 38 63  1  0
 39 64  1  0
 40 65  1  0
M  END
>  <Ligand ID>  (1) 
LIG0002549

>  <Ligand>  (1) 
CHEMBL3261364

>  <SMILES>  (1) 
O[C@@H]1[C@H](O)[C@H](O[C@H]1n1ccc(nc1=O)NOCCCc1ccc(cc1)Br)COP(=O)(OP(=O)(OP(=O)(O)O)O)O

>  <CID>  (1) 
90656215.0

>  <ChEMBL ID>  (1) 
nan

>  <InChiKey>  (1) 
ZZVKCNXEXXPUFN-MWQQHZPXSA-N

>  <InChi>  (1) 
InChI=1S/C18H25BrN3O15P3/c19-12-5-3-11(4-6-12)2-1-9-33-21-14-7-8-22(18(25)20-14)17-16(24)15(23)13(35-17)10-34-39(29,30)37-40(31,32)36-38(26,27)28/h3-8,13,15-17,23-24H,1-2,9-10H2,(H,29,30)(H,31,32)(H,20,21,25)(H2,26,27,28)/t13-,15-,16-,17-/m1/s1

>  <IUPAC Name>  (1) 
[[(2R,3S,4R,5R)-5-[4-[3-(4-bromophenyl)propoxyamino]-2-oxopyrimidin-1-yl]-3,4-dihydroxyoxolan-2-yl]methoxy-hydroxyphosphoryl] phosphono hydrogen phosphate

$$$$
