
     RDKit          3D

 65 67  0  0  0  0  0  0  0  0999 V2000
   -3.9897    2.3972   -1.9000 O   0  0  0  0  0  0  0  0  0  0  0  0
   -4.6640    1.4943   -1.0818 C   0  0  2  0  0  0  0  0  0  0  0  0
   -4.1428    0.0844   -1.2541 C   0  0  1  0  0  0  0  0  0  0  0  0
   -2.8504   -0.1243   -0.4898 C   0  0  0  0  0  0  0  0  0  0  0  0
   -2.9494    0.2599    0.8255 O   0  0  0  0  0  0  0  0  0  0  0  0
   -1.4655   -0.0108    1.5891 P   0  0  0  0  0  0  0  0  0  0  0  0
   -1.3769    0.9130    2.8068 O   0  0  0  0  0  0  0  0  0  0  0  0
   -0.1530    0.2488    0.5592 O   0  0  0  0  0  0  0  0  0  0  0  0
    0.6687   -1.1790    0.2878 P   0  0  0  0  0  0  0  0  0  0  0  0
    0.0926   -1.9575   -0.8876 O   0  0  0  0  0  0  0  0  0  0  0  0
    2.3154   -0.9589   -0.0159 O   0  0  0  0  0  0  0  0  0  0  0  0
    2.7837    0.6285    0.2149 P   0  0  0  0  0  0  0  0  0  0  0  0
    1.7103    1.4384    0.9419 O   0  0  0  0  0  0  0  0  0  0  0  0
    4.1978    0.8171    1.0834 O   0  0  0  0  0  0  0  0  0  0  0  0
    4.6491   -0.5128    1.9854 P   0  0  0  0  0  0  0  0  0  0  0  0
    4.4220   -0.1824    3.4421 O   0  0  0  0  0  0  0  0  0  0  0  0
    6.2369   -1.0073    1.7315 O   0  0  0  0  0  0  0  0  0  0  0  0
    6.9649   -0.1997    0.8965 C   0  0  0  0  0  0  0  0  0  0  0  0
    8.2158    0.3492    1.5047 C   0  0  0  0  0  0  0  0  0  0  0  0
    8.7289    1.4085    0.5277 C   0  0  0  0  0  0  0  0  0  0  0  0
    9.0888    0.8064   -0.8002 C   0  0  0  0  0  0  0  0  0  0  0  0
    8.0470   -0.1178   -1.3436 C   0  0  0  0  0  0  0  0  0  0  0  0
    7.4111   -1.0059   -0.3252 C   0  0  0  0  0  0  0  0  0  0  0  0
    3.6468   -1.8211    1.5945 O   0  0  0  0  0  0  0  0  0  0  0  0
    3.0037    1.3758   -1.3015 O   0  0  0  0  0  0  0  0  0  0  0  0
    0.5644   -2.1455    1.6724 O   0  0  0  0  0  0  0  0  0  0  0  0
   -1.4551   -1.5892    2.2390 O   0  0  0  0  0  0  0  0  0  0  0  0
   -5.1874   -0.6488   -0.6977 O   0  0  0  0  0  0  0  0  0  0  0  0
   -6.3003   -0.1595   -1.3499 C   0  0  2  0  0  0  0  0  0  0  0  0
   -6.1211    1.3386   -1.4576 C   0  0  2  0  0  0  0  0  0  0  0  0
   -6.3030    1.7932   -2.7571 O   0  0  0  0  0  0  0  0  0  0  0  0
   -7.5203   -0.4476   -0.5850 N   0  0  0  0  0  0  0  0  0  0  0  0
   -8.7172   -0.2151   -1.1335 C   0  0  0  0  0  0  0  0  0  0  0  0
   -9.8318   -0.5103   -0.3539 C   0  0  0  0  0  0  0  0  0  0  0  0
   -9.6906   -1.0198    0.9264 C   0  0  0  0  0  0  0  0  0  0  0  0
  -10.7186   -1.2881    1.6355 O   0  0  0  0  0  0  0  0  0  0  0  0
   -8.4638   -1.2366    1.4345 N   0  0  0  0  0  0  0  0  0  0  0  0
   -7.3744   -0.9470    0.6697 C   0  0  0  0  0  0  0  0  0  0  0  0
   -6.2172   -1.1505    1.1465 O   0  0  0  0  0  0  0  0  0  0  0  0
   -4.0243    3.2721   -1.4432 H   0  0  0  0  0  0  0  0  0  0  0  0
   -4.6380    1.8045   -0.0197 H   0  0  0  0  0  0  0  0  0  0  0  0
   -4.0440   -0.1484   -2.3144 H   0  0  0  0  0  0  0  0  0  0  0  0
   -2.0009    0.3924   -0.9758 H   0  0  0  0  0  0  0  0  0  0  0  0
   -2.5944   -1.1980   -0.5071 H   0  0  0  0  0  0  0  0  0  0  0  0
    6.3561    0.6523    0.5335 H   0  0  0  0  0  0  0  0  0  0  0  0
    9.0090   -0.4276    1.5171 H   0  0  0  0  0  0  0  0  0  0  0  0
    8.0680    0.8731    2.4550 H   0  0  0  0  0  0  0  0  0  0  0  0
    9.5929    1.9428    0.9221 H   0  0  0  0  0  0  0  0  0  0  0  0
    7.8587    2.0911    0.3333 H   0  0  0  0  0  0  0  0  0  0  0  0
   10.0791    0.3314   -0.7473 H   0  0  0  0  0  0  0  0  0  0  0  0
    9.1786    1.6728   -1.5104 H   0  0  0  0  0  0  0  0  0  0  0  0
    8.5665   -0.7949   -2.0729 H   0  0  0  0  0  0  0  0  0  0  0  0
    7.2764    0.4018   -1.9658 H   0  0  0  0  0  0  0  0  0  0  0  0
    6.5895   -1.5442   -0.7976 H   0  0  0  0  0  0  0  0  0  0  0  0
    8.2097   -1.6834    0.0672 H   0  0  0  0  0  0  0  0  0  0  0  0
    4.1422   -2.5534    1.1211 H   0  0  0  0  0  0  0  0  0  0  0  0
    2.6340    2.2942   -1.3207 H   0  0  0  0  0  0  0  0  0  0  0  0
    0.9814   -1.6721    2.4334 H   0  0  0  0  0  0  0  0  0  0  0  0
   -1.8927   -2.2451    1.6448 H   0  0  0  0  0  0  0  0  0  0  0  0
   -6.3933   -0.6675   -2.3130 H   0  0  0  0  0  0  0  0  0  0  0  0
   -6.7982    1.8729   -0.7376 H   0  0  0  0  0  0  0  0  0  0  0  0
   -5.4650    2.1800   -3.1205 H   0  0  0  0  0  0  0  0  0  0  0  0
   -8.7910    0.1830   -2.1349 H   0  0  0  0  0  0  0  0  0  0  0  0
  -10.8165   -0.3255   -0.7890 H   0  0  0  0  0  0  0  0  0  0  0  0
   -8.3390   -1.6220    2.4024 H   0  0  0  0  0  0  0  0  0  0  0  0
  1  2  1  0
  2  3  1  0
  3  4  1  0
  4  5  1  0
  5  6  1  0
  6  7  2  0
  6  8  1  0
  8  9  1  0
  9 10  2  0
  9 11  1  0
 11 12  1  0
 12 13  2  0
 12 14  1  0
 14 15  1  0
 15 16  2  0
 15 17  1  0
 17 18  1  0
 18 19  1  0
 19 20  1  0
 20 21  1  0
 21 22  1  0
 22 23  1  0
 15 24  1  0
 12 25  1  0
  9 26  1  0
  6 27  1  0
  3 28  1  0
 28 29  1  0
 29 30  1  0
 30 31  1  0
 29 32  1  0
 32 33  1  0
 33 34  2  0
 34 35  1  0
 35 36  2  0
 35 37  1  0
 37 38  1  0
 38 39  2  0
 30  2  1  0
 38 32  1  0
 23 18  1  0
  1 40  1  0
  2 41  1  1
  3 42  1  6
  4 43  1  0
  4 44  1  0
 18 45  1  0
 19 46  1  0
 19 47  1  0
 20 48  1  0
 20 49  1  0
 21 50  1  0
 21 51  1  0
 22 52  1  0
 22 53  1  0
 23 54  1  0
 23 55  1  0
 24 56  1  0
 25 57  1  0
 26 58  1  0
 27 59  1  0
 29 60  1  6
 30 61  1  1
 31 62  1  0
 33 63  1  0
 34 64  1  0
 37 65  1  0
M  END
>  <Ligand ID>  (1) 
LIG0003071

>  <Ligand>  (1) 
CHEMBL474887

>  <SMILES>  (1) 
O[C@@H]1[C@@H](COP(=O)(OP(=O)(OP(=O)(OP(=O)(OC2CCCCC2)O)O)O)O)O[C@H]([C@@H]1O)n1ccc(=O)[nH]c1=O

>  <CID>  (1) 
44585515.0

>  <ChEMBL ID>  (1) 
nan

>  <InChiKey>  (1) 
QQTHTJVJKRGTAC-FMKGYKFTSA-N

>  <InChi>  (1) 
InChI=1S/C15H26N2O18P4/c18-11-6-7-17(15(21)16-11)14-13(20)12(19)10(31-14)8-30-36(22,23)33-38(26,27)35-39(28,29)34-37(24,25)32-9-4-2-1-3-5-9/h6-7,9-10,12-14,19-20H,1-5,8H2,(H,22,23)(H,24,25)(H,26,27)(H,28,29)(H,16,18,21)/t10-,12-,13-,14-/m1/s1

>  <IUPAC Name>  (1) 
cyclohexyl [[[[(2R,3S,4R,5R)-5-(2,4-dioxopyrimidin-1-yl)-3,4-dihydroxyoxolan-2-yl]methoxy-hydroxyphosphoryl]oxy-hydroxyphosphoryl]oxy-hydroxyphosphoryl] hydrogen phosphate

$$$$
