
     RDKit          3D

 22 22  0  0  0  0  0  0  0  0999 V2000
   -2.5837    1.6249    0.6283 O   0  0  0  0  0  0  0  0  0  0  0  0
   -2.5134    0.2727    0.3853 C   0  0  0  0  0  0  0  0  0  0  0  0
   -3.5074   -0.4811    0.4948 O   0  0  0  0  0  0  0  0  0  0  0  0
   -1.2097   -0.3454   -0.0296 C   0  0  1  0  0  0  0  0  0  0  0  0
   -0.7747   -1.4267    0.7943 N   0  0  0  0  0  0  0  0  0  0  0  0
   -1.0324   -0.4472   -1.5219 C   0  0  0  0  0  0  0  0  0  0  0  0
   -0.2484    0.5743   -0.6670 C   0  0  2  0  0  0  0  0  0  0  0  0
    1.2340    0.3152   -0.7305 C   0  0  0  0  0  0  0  0  0  0  0  0
    1.9892    0.1547    0.8883 P   0  0  0  0  0  0  0  0  0  0  0  0
    0.9861    0.3109    2.0219 O   0  0  0  0  0  0  0  0  0  0  0  0
    3.2144    1.2912    1.1736 O   0  0  0  0  0  0  0  0  0  0  0  0
    2.7567   -1.3687    0.9868 O   0  0  0  0  0  0  0  0  0  0  0  0
   -3.5268    2.0365    0.7290 H   0  0  0  0  0  0  0  0  0  0  0  0
   -1.1848   -2.3234    0.3950 H   0  0  0  0  0  0  0  0  0  0  0  0
   -1.2229   -1.3436    1.7388 H   0  0  0  0  0  0  0  0  0  0  0  0
   -0.4939   -1.3048   -1.9460 H   0  0  0  0  0  0  0  0  0  0  0  0
   -1.8208   -0.0558   -2.1962 H   0  0  0  0  0  0  0  0  0  0  0  0
   -0.5800    1.6146   -0.8480 H   0  0  0  0  0  0  0  0  0  0  0  0
    1.5073   -0.5549   -1.3756 H   0  0  0  0  0  0  0  0  0  0  0  0
    1.7131    1.2027   -1.2175 H   0  0  0  0  0  0  0  0  0  0  0  0
    3.6685    1.5617    0.3362 H   0  0  0  0  0  0  0  0  0  0  0  0
    3.6296   -1.3079    0.5174 H   0  0  0  0  0  0  0  0  0  0  0  0
  1  2  1  0
  2  3  2  0
  2  4  1  0
  4  5  1  1
  4  6  1  0
  6  7  1  0
  7  8  1  0
  8  9  1  0
  9 10  2  0
  9 11  1  0
  9 12  1  0
  7  4  1  0
  1 13  1  0
  5 14  1  0
  5 15  1  0
  6 16  1  0
  6 17  1  0
  7 18  1  6
  8 19  1  0
  8 20  1  0
 11 21  1  0
 12 22  1  0
M  END
>  <Ligand ID>  (1) 
LIG0002342

>  <Ligand>  (1) 
CHEMBL34880

>  <SMILES>  (1) 
OC(=O)[C@@]1(N)C[C@@H]1CP(=O)(O)O

>  <CID>  (1) 
16748099.0

>  <ChEMBL ID>  (1) 
nan

>  <InChiKey>  (1) 
RACNCOSUCJNQDH-NQXXGFSBSA-N

>  <InChi>  (1) 
InChI=1S/C5H10NO5P/c6-5(4(7)8)1-3(5)2-12(9,10)11/h3H,1-2,6H2,(H,7,8)(H2,9,10,11)/t3-,5-/m1/s1

>  <IUPAC Name>  (1) 
(1R,2S)-1-amino-2-(phosphonomethyl)cyclopropane-1-carboxylic acid

$$$$
