
     RDKit          3D

 68 71  0  0  0  0  0  0  0  0999 V2000
   10.5241   -0.4153    1.6271 N   0  0  0  0  0  0  0  0  0  0  0  0
    9.5799   -0.9912    0.6927 C   0  0  0  0  0  0  0  0  0  0  0  0
    9.5747   -0.0546   -0.5273 C   0  0  0  0  0  0  0  0  0  0  0  0
    9.1495    1.3324   -0.1221 C   0  0  0  0  0  0  0  0  0  0  0  0
    7.8732    1.3140    0.4128 O   0  0  0  0  0  0  0  0  0  0  0  0
    6.6691    1.0043   -0.1289 C   0  0  0  0  0  0  0  0  0  0  0  0
    5.5618    1.0635    0.7206 C   0  0  0  0  0  0  0  0  0  0  0  0
    4.2860    0.7782    0.3015 C   0  0  0  0  0  0  0  0  0  0  0  0
    4.0449    0.4147   -1.0032 C   0  0  0  0  0  0  0  0  0  0  0  0
    5.1341    0.3544   -1.8461 C   0  0  0  0  0  0  0  0  0  0  0  0
    6.4174    0.6407   -1.4278 C   0  0  0  0  0  0  0  0  0  0  0  0
    2.7635    0.1233   -1.5258 N   0  0  0  0  0  0  0  0  0  0  0  0
    1.5360    0.6001   -1.0698 C   0  0  0  0  0  0  0  0  0  0  0  0
    1.3400    1.7519   -0.3372 C   0  0  0  0  0  0  0  0  0  0  0  0
    0.0973    2.1593    0.0970 C   0  0  0  0  0  0  0  0  0  0  0  0
   -1.0512    1.4177   -0.1853 C   0  0  0  0  0  0  0  0  0  0  0  0
   -0.8659    0.2707   -0.9143 C   0  0  0  0  0  0  0  0  0  0  0  0
    0.3784   -0.1347   -1.3471 C   0  0  0  0  0  0  0  0  0  0  0  0
   -2.3784    1.8756    0.2930 C   0  0  0  0  0  0  0  0  0  0  0  0
   -2.6122    1.2543    1.6685 C   0  0  0  0  0  0  0  0  0  0  0  0
   -2.5998   -0.1775    1.6129 N   0  0  0  0  0  0  0  0  0  0  0  0
   -3.7214   -0.7315    0.9003 C   0  0  0  0  0  0  0  0  0  0  0  0
   -5.0387   -0.5283    1.6240 C   0  0  1  0  0  0  0  0  0  0  0  0
   -6.1043   -1.2292    0.8705 C   0  0  0  0  0  0  0  0  0  0  0  0
   -6.4624   -2.5374    1.2091 C   0  0  0  0  0  0  0  0  0  0  0  0
   -7.4587   -3.2118    0.5234 C   0  0  0  0  0  0  0  0  0  0  0  0
   -8.1437   -2.6299   -0.5221 C   0  0  0  0  0  0  0  0  0  0  0  0
   -7.7979   -1.3393   -0.8644 C   0  0  0  0  0  0  0  0  0  0  0  0
   -6.8016   -0.6701   -0.1757 C   0  0  0  0  0  0  0  0  0  0  0  0
   -6.5085    0.6163   -0.5749 C   0  0  0  0  0  0  0  0  0  0  0  0
   -7.1770    1.2246   -1.6203 C   0  0  0  0  0  0  0  0  0  0  0  0
   -8.1608    0.5239   -2.2780 C   0  0  0  0  0  0  0  0  0  0  0  0
   -8.7553    1.0953   -3.2243 O   0  0  0  0  0  0  0  0  0  0  0  0
   -8.4523   -0.7429   -1.8884 N   0  0  0  0  0  0  0  0  0  0  0  0
   -9.1428   -3.2553   -1.2375 O   0  0  0  0  0  0  0  0  0  0  0  0
   -4.9490   -1.1584    2.8699 O   0  0  0  0  0  0  0  0  0  0  0  0
   11.1755    0.2738    1.1562 H   0  0  0  0  0  0  0  0  0  0  0  0
   11.1686   -1.1870    1.9485 H   0  0  0  0  0  0  0  0  0  0  0  0
    9.9505   -1.9637    0.3028 H   0  0  0  0  0  0  0  0  0  0  0  0
    8.5719   -1.1282    1.0801 H   0  0  0  0  0  0  0  0  0  0  0  0
    8.9327   -0.5395   -1.2607 H   0  0  0  0  0  0  0  0  0  0  0  0
   10.6599   -0.0609   -0.8513 H   0  0  0  0  0  0  0  0  0  0  0  0
    9.8942    1.8148    0.5482 H   0  0  0  0  0  0  0  0  0  0  0  0
    9.0732    1.9108   -1.0913 H   0  0  0  0  0  0  0  0  0  0  0  0
    5.7047    1.3507    1.7740 H   0  0  0  0  0  0  0  0  0  0  0  0
    3.4912    0.8362    1.0253 H   0  0  0  0  0  0  0  0  0  0  0  0
    4.9620    0.0677   -2.8832 H   0  0  0  0  0  0  0  0  0  0  0  0
    7.1894    0.5831   -2.1613 H   0  0  0  0  0  0  0  0  0  0  0  0
    2.7454   -0.5375   -2.3608 H   0  0  0  0  0  0  0  0  0  0  0  0
    2.1718    2.3889   -0.0876 H   0  0  0  0  0  0  0  0  0  0  0  0
   -0.0677    3.0604    0.6728 H   0  0  0  0  0  0  0  0  0  0  0  0
   -1.6986   -0.3510   -1.1706 H   0  0  0  0  0  0  0  0  0  0  0  0
    0.4799   -1.0385   -1.9149 H   0  0  0  0  0  0  0  0  0  0  0  0
   -2.2854    2.9884    0.4488 H   0  0  0  0  0  0  0  0  0  0  0  0
   -3.1882    1.6559   -0.3993 H   0  0  0  0  0  0  0  0  0  0  0  0
   -1.8153    1.5611    2.3756 H   0  0  0  0  0  0  0  0  0  0  0  0
   -3.5518    1.6855    2.0836 H   0  0  0  0  0  0  0  0  0  0  0  0
   -2.4047   -0.6344    2.5071 H   0  0  0  0  0  0  0  0  0  0  0  0
   -3.5068   -1.8257    0.7899 H   0  0  0  0  0  0  0  0  0  0  0  0
   -3.8309   -0.2504   -0.0840 H   0  0  0  0  0  0  0  0  0  0  0  0
   -5.2147    0.5458    1.7147 H   0  0  0  0  0  0  0  0  0  0  0  0
   -5.9611   -3.0468    2.0193 H   0  0  0  0  0  0  0  0  0  0  0  0
   -7.7404   -4.2388    0.7887 H   0  0  0  0  0  0  0  0  0  0  0  0
   -5.7428    1.2069   -0.0919 H   0  0  0  0  0  0  0  0  0  0  0  0
   -6.9152    2.2510   -1.9082 H   0  0  0  0  0  0  0  0  0  0  0  0
   -9.2065   -1.2296   -2.4203 H   0  0  0  0  0  0  0  0  0  0  0  0
   -9.4168   -4.1862   -0.9876 H   0  0  0  0  0  0  0  0  0  0  0  0
   -4.3717   -1.9709    2.7117 H   0  0  0  0  0  0  0  0  0  0  0  0
  1  2  1  0
  2  3  1  0
  3  4  1  0
  4  5  1  0
  5  6  1  0
  6  7  2  0
  7  8  1  0
  8  9  2  0
  9 10  1  0
 10 11  2  0
  9 12  1  0
 12 13  1  0
 13 14  2  0
 14 15  1  0
 15 16  2  0
 16 17  1  0
 17 18  2  0
 16 19  1  0
 19 20  1  0
 20 21  1  0
 21 22  1  0
 22 23  1  0
 23 24  1  0
 24 25  2  0
 25 26  1  0
 26 27  2  0
 27 28  1  0
 28 29  2  0
 29 30  1  0
 30 31  2  0
 31 32  1  0
 32 33  2  0
 32 34  1  0
 27 35  1  0
 23 36  1  0
 11  6  1  0
 18 13  1  0
 29 24  1  0
 34 28  1  0
  1 37  1  0
  1 38  1  0
  2 39  1  0
  2 40  1  0
  3 41  1  0
  3 42  1  0
  4 43  1  0
  4 44  1  0
  7 45  1  0
  8 46  1  0
 10 47  1  0
 11 48  1  0
 12 49  1  0
 14 50  1  0
 15 51  1  0
 17 52  1  0
 18 53  1  0
 19 54  1  0
 19 55  1  0
 20 56  1  0
 20 57  1  0
 21 58  1  0
 22 59  1  0
 22 60  1  0
 23 61  1  1
 25 62  1  0
 26 63  1  0
 30 64  1  0
 31 65  1  0
 34 66  1  0
 35 67  1  0
 36 68  1  0
M  END
>  <Ligand ID>  (1) 
LIG0002553

>  <Ligand>  (1) 
CHEMBL3298329

>  <SMILES>  (1) 
NCCCOc1ccc(cc1)Nc1ccc(cc1)CCNC[C@@H](c1ccc(c2c1ccc(=O)[nH]2)O)O

>  <CID>  (1) 
56943518.0

>  <ChEMBL ID>  (1) 
nan

>  <InChiKey>  (1) 
BXHILAZVUUWFPJ-SANMLTNESA-N

>  <InChi>  (1) 
InChI=1S/C28H32N4O4/c29-15-1-17-36-22-8-6-21(7-9-22)31-20-4-2-19(3-5-20)14-16-30-18-26(34)23-10-12-25(33)28-24(23)11-13-27(35)32-28/h2-13,26,30-31,33-34H,1,14-18,29H2,(H,32,35)/t26-/m0/s1

>  <IUPAC Name>  (1) 
5-[(1R)-2-[2-[4-[4-(3-aminopropoxy)anilino]phenyl]ethylamino]-1-hydroxyethyl]-8-hydroxy-1H-quinolin-2-one

$$$$
