
     RDKit          3D

 79 80  0  0  0  0  0  0  0  0999 V2000
   11.7739    0.1162    1.7408 C   0  0  0  0  0  0  0  0  0  0  0  0
   11.1834    1.4525    1.3325 C   0  0  0  0  0  0  0  0  0  0  0  0
    9.8807    1.5566    1.9672 N   0  0  0  0  0  0  0  0  0  0  0  0
    8.8205    0.6583    1.7507 C   0  0  0  0  0  0  0  0  0  0  0  0
    9.0019   -0.3042    0.9534 O   0  0  0  0  0  0  0  0  0  0  0  0
    7.5722    0.8438    2.4248 N   0  0  0  0  0  0  0  0  0  0  0  0
    6.5633   -0.1404    2.1207 C   0  0  0  0  0  0  0  0  0  0  0  0
    6.4436   -1.3049    2.8630 C   0  0  0  0  0  0  0  0  0  0  0  0
    5.4701   -2.2189    2.5403 C   0  0  0  0  0  0  0  0  0  0  0  0
    4.5880   -2.0180    1.4827 C   0  0  0  0  0  0  0  0  0  0  0  0
    4.7163   -0.8510    0.7476 C   0  0  0  0  0  0  0  0  0  0  0  0
    5.6844    0.0726    1.0576 C   0  0  0  0  0  0  0  0  0  0  0  0
    3.7812   -0.5852   -0.4195 C   0  0  0  0  0  0  0  0  0  0  0  0
    4.3828   -1.1362   -1.6796 C   0  0  0  0  0  0  0  0  0  0  0  0
    3.5261   -0.8675   -2.8659 C   0  0  0  0  0  0  0  0  0  0  0  0
    2.1577   -1.4648   -2.8145 C   0  0  0  0  0  0  0  0  0  0  0  0
    1.3435   -1.0374   -1.8095 O   0  0  0  0  0  0  0  0  0  0  0  0
    0.1017   -1.6239   -1.7702 C   0  0  0  0  0  0  0  0  0  0  0  0
   -0.7571   -1.4321   -2.9798 C   0  0  0  0  0  0  0  0  0  0  0  0
   -1.0440    0.0043   -3.2810 C   0  0  0  0  0  0  0  0  0  0  0  0
   -1.7723    0.7028   -2.1548 C   0  0  0  0  0  0  0  0  0  0  0  0
   -3.1022    0.0475   -1.8576 C   0  0  0  0  0  0  0  0  0  0  0  0
   -3.7487    0.8218   -0.7275 C   0  0  0  0  0  0  0  0  0  0  0  0
   -5.0470    0.2703   -0.3529 N   0  0  0  0  0  0  0  0  0  0  0  0
   -6.0256    0.4544   -1.3846 C   0  0  0  0  0  0  0  0  0  0  0  0
   -7.3879   -0.1054   -1.0432 C   0  0  1  0  0  0  0  0  0  0  0  0
   -7.9949    0.5247    0.1571 C   0  0  0  0  0  0  0  0  0  0  0  0
   -8.5198    1.8067   -0.0260 C   0  0  0  0  0  0  0  0  0  0  0  0
   -9.0920    2.4259    1.0650 C   0  0  0  0  0  0  0  0  0  0  0  0
   -9.1399    1.7892    2.2981 C   0  0  0  0  0  0  0  0  0  0  0  0
   -8.6232    0.5198    2.4906 C   0  0  0  0  0  0  0  0  0  0  0  0
   -8.0526   -0.0905    1.3895 C   0  0  0  0  0  0  0  0  0  0  0  0
   -8.6968   -0.1154    3.8301 C   0  0  0  0  0  0  0  0  0  0  0  0
   -9.9955   -0.5538    4.0259 O   0  0  0  0  0  0  0  0  0  0  0  0
   -9.7437    2.5125    3.3323 O   0  0  0  0  0  0  0  0  0  0  0  0
   -8.2289    0.1407   -2.1414 O   0  0  0  0  0  0  0  0  0  0  0  0
   12.8647    0.0603    1.4660 H   0  0  0  0  0  0  0  0  0  0  0  0
   11.7745   -0.0263    2.8469 H   0  0  0  0  0  0  0  0  0  0  0  0
   11.2717   -0.7480    1.3003 H   0  0  0  0  0  0  0  0  0  0  0  0
   11.0998    1.4304    0.2252 H   0  0  0  0  0  0  0  0  0  0  0  0
   11.8312    2.2530    1.6885 H   0  0  0  0  0  0  0  0  0  0  0  0
    9.6936    2.3533    2.6410 H   0  0  0  0  0  0  0  0  0  0  0  0
    7.3941    1.6254    3.0872 H   0  0  0  0  0  0  0  0  0  0  0  0
    7.1174   -1.4704    3.6789 H   0  0  0  0  0  0  0  0  0  0  0  0
    5.3567   -3.1498    3.1169 H   0  0  0  0  0  0  0  0  0  0  0  0
    3.8164   -2.7631    1.2409 H   0  0  0  0  0  0  0  0  0  0  0  0
    5.7565    0.9758    0.4588 H   0  0  0  0  0  0  0  0  0  0  0  0
    2.8114   -1.0666   -0.1734 H   0  0  0  0  0  0  0  0  0  0  0  0
    3.6940    0.5020   -0.5082 H   0  0  0  0  0  0  0  0  0  0  0  0
    5.3584   -0.5798   -1.8448 H   0  0  0  0  0  0  0  0  0  0  0  0
    4.6259   -2.2325   -1.5715 H   0  0  0  0  0  0  0  0  0  0  0  0
    4.0474   -1.2227   -3.8087 H   0  0  0  0  0  0  0  0  0  0  0  0
    3.4768    0.2553   -2.9797 H   0  0  0  0  0  0  0  0  0  0  0  0
    2.2132   -2.5837   -2.7315 H   0  0  0  0  0  0  0  0  0  0  0  0
    1.6447   -1.3077   -3.8069 H   0  0  0  0  0  0  0  0  0  0  0  0
   -0.4232   -1.2582   -0.8361 H   0  0  0  0  0  0  0  0  0  0  0  0
    0.2521   -2.7239   -1.5601 H   0  0  0  0  0  0  0  0  0  0  0  0
   -0.2501   -1.8806   -3.8530 H   0  0  0  0  0  0  0  0  0  0  0  0
   -1.6949   -2.0350   -2.8671 H   0  0  0  0  0  0  0  0  0  0  0  0
   -0.0381    0.5171   -3.3260 H   0  0  0  0  0  0  0  0  0  0  0  0
   -1.5118    0.1274   -4.2547 H   0  0  0  0  0  0  0  0  0  0  0  0
   -1.9993    1.7295   -2.5092 H   0  0  0  0  0  0  0  0  0  0  0  0
   -1.1397    0.7806   -1.2730 H   0  0  0  0  0  0  0  0  0  0  0  0
   -2.9954   -0.9909   -1.4956 H   0  0  0  0  0  0  0  0  0  0  0  0
   -3.7377    0.0257   -2.7562 H   0  0  0  0  0  0  0  0  0  0  0  0
   -3.1355    0.7891    0.1940 H   0  0  0  0  0  0  0  0  0  0  0  0
   -3.8538    1.9055   -0.9649 H   0  0  0  0  0  0  0  0  0  0  0  0
   -4.9192   -0.7358   -0.1108 H   0  0  0  0  0  0  0  0  0  0  0  0
   -5.7250    0.0276   -2.3588 H   0  0  0  0  0  0  0  0  0  0  0  0
   -6.1718    1.5541   -1.4894 H   0  0  0  0  0  0  0  0  0  0  0  0
   -7.3063   -1.2001   -0.8328 H   0  0  0  0  0  0  0  0  0  0  0  0
   -8.4677    2.2824   -1.0019 H   0  0  0  0  0  0  0  0  0  0  0  0
   -9.4910    3.4103    0.9117 H   0  0  0  0  0  0  0  0  0  0  0  0
   -7.6447   -1.0731    1.5087 H   0  0  0  0  0  0  0  0  0  0  0  0
   -8.3659    0.5809    4.6321 H   0  0  0  0  0  0  0  0  0  0  0  0
   -8.0286   -1.0049    3.7934 H   0  0  0  0  0  0  0  0  0  0  0  0
  -10.6013   -0.1237    3.3821 H   0  0  0  0  0  0  0  0  0  0  0  0
  -10.7537    2.6691    3.1812 H   0  0  0  0  0  0  0  0  0  0  0  0
   -7.8651    0.8888   -2.7013 H   0  0  0  0  0  0  0  0  0  0  0  0
  1  2  1  0
  2  3  1  0
  3  4  1  0
  4  5  2  0
  4  6  1  0
  6  7  1  0
  7  8  2  0
  8  9  1  0
  9 10  2  0
 10 11  1  0
 11 12  2  0
 11 13  1  0
 13 14  1  0
 14 15  1  0
 15 16  1  0
 16 17  1  0
 17 18  1  0
 18 19  1  0
 19 20  1  0
 20 21  1  0
 21 22  1  0
 22 23  1  0
 23 24  1  0
 24 25  1  0
 25 26  1  0
 26 27  1  0
 27 28  2  0
 28 29  1  0
 29 30  2  0
 30 31  1  0
 31 32  2  0
 31 33  1  0
 33 34  1  0
 30 35  1  0
 26 36  1  0
 12  7  1  0
 32 27  1  0
  1 37  1  0
  1 38  1  0
  1 39  1  0
  2 40  1  0
  2 41  1  0
  3 42  1  0
  6 43  1  0
  8 44  1  0
  9 45  1  0
 10 46  1  0
 12 47  1  0
 13 48  1  0
 13 49  1  0
 14 50  1  0
 14 51  1  0
 15 52  1  0
 15 53  1  0
 16 54  1  0
 16 55  1  0
 18 56  1  0
 18 57  1  0
 19 58  1  0
 19 59  1  0
 20 60  1  0
 20 61  1  0
 21 62  1  0
 21 63  1  0
 22 64  1  0
 22 65  1  0
 23 66  1  0
 23 67  1  0
 24 68  1  0
 25 69  1  0
 25 70  1  0
 26 71  1  1
 28 72  1  0
 29 73  1  0
 32 74  1  0
 33 75  1  0
 33 76  1  0
 34 77  1  0
 35 78  1  0
 36 79  1  0
M  END
>  <Ligand ID>  (1) 
LIG0001932

>  <Ligand>  (1) 
CHEMBL1835854

>  <SMILES>  (1) 
CCNC(=O)Nc1cccc(c1)CCCCOCCCCCCNC[C@@H](c1ccc(c(c1)CO)O)O

>  <CID>  (1) 
56665368.0

>  <ChEMBL ID>  (1) 
nan

>  <InChiKey>  (1) 
QTVNWPXBPRYDFT-MHZLTWQESA-N

>  <InChi>  (1) 
InChI=1S/C28H43N3O5/c1-2-30-28(35)31-25-12-9-11-22(18-25)10-5-8-17-36-16-7-4-3-6-15-29-20-27(34)23-13-14-26(33)24(19-23)21-32/h9,11-14,18-19,27,29,32-34H,2-8,10,15-17,20-21H2,1H3,(H2,30,31,35)/t27-/m0/s1

>  <IUPAC Name>  (1) 
1-ethyl-3-[3-[4-[6-[[(2R)-2-hydroxy-2-[4-hydroxy-3-(hydroxymethyl)phenyl]ethyl]amino]hexoxy]butyl]phenyl]urea

$$$$
