
     RDKit          3D

 54 58  0  0  0  0  0  0  0  0999 V2000
   -6.9241    0.3438   -0.2204 C   0  0  0  0  0  0  0  0  0  0  0  0
   -5.5583   -0.1284    0.2211 C   0  0  0  0  0  0  0  0  0  0  0  0
   -4.4729    0.7267   -0.4061 C   0  0  0  0  0  0  0  0  0  0  0  0
   -3.1520    0.2719    0.0189 N   0  0  0  0  0  0  0  0  0  0  0  0
   -2.1670   -0.1415   -0.9196 C   0  0  0  0  0  0  0  0  0  0  0  0
   -2.4479   -0.1121   -2.1471 O   0  0  0  0  0  0  0  0  0  0  0  0
   -0.8550   -0.5947   -0.5265 C   0  0  0  0  0  0  0  0  0  0  0  0
    0.1157   -0.9994   -1.4143 C   0  0  0  0  0  0  0  0  0  0  0  0
    0.0421   -1.0574   -2.8513 N   0  0  0  0  0  0  0  0  0  0  0  0
    1.2180   -1.3595   -0.7330 N   0  0  0  0  0  0  0  0  0  0  0  0
    0.9608   -1.1891    0.5761 C   0  0  0  0  0  0  0  0  0  0  0  0
   -0.3329   -0.7093    0.7477 C   0  0  0  0  0  0  0  0  0  0  0  0
   -0.8411   -0.4527    1.9746 N   0  0  0  0  0  0  0  0  0  0  0  0
   -0.0961   -0.6579    3.0868 C   0  0  0  0  0  0  0  0  0  0  0  0
   -0.5720   -0.4106    4.3583 C   0  0  0  0  0  0  0  0  0  0  0  0
    0.2147   -0.6300    5.4890 C   0  0  0  0  0  0  0  0  0  0  0  0
    1.5119   -1.1122    5.2955 C   0  0  0  0  0  0  0  0  0  0  0  0
    2.0001   -1.3633    4.0368 C   0  0  0  0  0  0  0  0  0  0  0  0
    1.1939   -1.1361    2.9183 C   0  0  0  0  0  0  0  0  0  0  0  0
    1.7090   -1.3948    1.6975 N   0  0  0  0  0  0  0  0  0  0  0  0
    2.4508   -1.8391   -1.2721 C   0  0  0  0  0  0  0  0  0  0  0  0
    3.4358   -0.7875   -1.5787 C   0  0  0  0  0  0  0  0  0  0  0  0
    4.3324   -0.4223   -0.5703 C   0  0  0  0  0  0  0  0  0  0  0  0
    5.2904    0.5537   -0.7667 C   0  0  0  0  0  0  0  0  0  0  0  0
    5.3257    1.1561   -2.0058 C   0  0  0  0  0  0  0  0  0  0  0  0
    4.4647    0.8330   -3.0342 C   0  0  0  0  0  0  0  0  0  0  0  0
    3.5095   -0.1508   -2.8151 C   0  0  0  0  0  0  0  0  0  0  0  0
    4.7487    1.6123   -4.1582 O   0  0  0  0  0  0  0  0  0  0  0  0
    5.4457    2.7468   -3.6368 C   0  0  0  0  0  0  0  0  0  0  0  0
    6.1466    2.1628   -2.5449 O   0  0  0  0  0  0  0  0  0  0  0  0
   -4.7127    2.1569    0.0134 C   0  0  0  0  0  0  0  0  0  0  0  0
   -7.3888   -0.4226   -0.8783 H   0  0  0  0  0  0  0  0  0  0  0  0
   -7.5690    0.4022    0.6841 H   0  0  0  0  0  0  0  0  0  0  0  0
   -6.8614    1.3311   -0.6817 H   0  0  0  0  0  0  0  0  0  0  0  0
   -5.4628   -0.1202    1.3174 H   0  0  0  0  0  0  0  0  0  0  0  0
   -5.3965   -1.1786   -0.1218 H   0  0  0  0  0  0  0  0  0  0  0  0
   -4.5187    0.6792   -1.5110 H   0  0  0  0  0  0  0  0  0  0  0  0
   -2.9389    0.2558    1.0563 H   0  0  0  0  0  0  0  0  0  0  0  0
   -0.1522   -1.9385   -3.3402 H   0  0  0  0  0  0  0  0  0  0  0  0
    0.2044   -0.1270   -3.3265 H   0  0  0  0  0  0  0  0  0  0  0  0
   -1.5881   -0.0338    4.4951 H   0  0  0  0  0  0  0  0  0  0  0  0
   -0.1397   -0.4431    6.4830 H   0  0  0  0  0  0  0  0  0  0  0  0
    2.1131   -1.2776    6.1986 H   0  0  0  0  0  0  0  0  0  0  0  0
    3.0168   -1.7390    3.9238 H   0  0  0  0  0  0  0  0  0  0  0  0
    2.8721   -2.6076   -0.5752 H   0  0  0  0  0  0  0  0  0  0  0  0
    2.1815   -2.4123   -2.2021 H   0  0  0  0  0  0  0  0  0  0  0  0
    4.3027   -0.9013    0.4120 H   0  0  0  0  0  0  0  0  0  0  0  0
    5.9956    0.8529    0.0004 H   0  0  0  0  0  0  0  0  0  0  0  0
    2.8098   -0.4421   -3.5880 H   0  0  0  0  0  0  0  0  0  0  0  0
    4.6667    3.4316   -3.2419 H   0  0  0  0  0  0  0  0  0  0  0  0
    6.1059    3.1998   -4.3874 H   0  0  0  0  0  0  0  0  0  0  0  0
   -5.1438    2.1699    1.0316 H   0  0  0  0  0  0  0  0  0  0  0  0
   -3.7242    2.6866    0.0712 H   0  0  0  0  0  0  0  0  0  0  0  0
   -5.3692    2.7196   -0.6522 H   0  0  0  0  0  0  0  0  0  0  0  0
  1  2  1  0
  2  3  1  0
  3  4  1  0
  4  5  1  0
  5  6  2  0
  5  7  1  0
  7  8  2  0
  8  9  1  0
  8 10  1  0
 10 11  1  0
 11 12  2  0
 12 13  1  0
 13 14  2  0
 14 15  1  0
 15 16  2  0
 16 17  1  0
 17 18  2  0
 18 19  1  0
 19 20  2  0
 10 21  1  0
 21 22  1  0
 22 23  2  0
 23 24  1  0
 24 25  2  0
 25 26  1  0
 26 27  2  0
 26 28  1  0
 28 29  1  0
 29 30  1  0
  3 31  1  0
 12  7  1  0
 19 14  1  0
 27 22  1  0
 20 11  1  0
 30 25  1  0
  1 32  1  0
  1 33  1  0
  1 34  1  0
  2 35  1  0
  2 36  1  0
  3 37  1  0
  4 38  1  0
  9 39  1  0
  9 40  1  0
 15 41  1  0
 16 42  1  0
 17 43  1  0
 18 44  1  0
 21 45  1  0
 21 46  1  0
 23 47  1  0
 24 48  1  0
 27 49  1  0
 29 50  1  0
 29 51  1  0
 31 52  1  0
 31 53  1  0
 31 54  1  0
M  END
>  <Ligand ID>  (1) 
LIG0004053

>  <Ligand>  (1) 
MLS000040138

>  <SMILES>  (1) 
CCC(NC(=O)c1c(N)n(c2c1nc1ccccc1n2)Cc1ccc2c(c1)OCO2)C

>  <CID>  (1) 
662039.0

>  <ChEMBL ID>  (1) 
nan

>  <InChiKey>  (1) 
RKKYWZLPQUTGJX-UHFFFAOYSA-N

>  <InChi>  (1) 
InChI=1S/C23H23N5O3/c1-3-13(2)25-23(29)19-20-22(27-16-7-5-4-6-15(16)26-20)28(21(19)24)11-14-8-9-17-18(10-14)31-12-30-17/h4-10,13H,3,11-12,24H2,1-2H3,(H,25,29)

>  <IUPAC Name>  (1) 
2-amino-1-(1,3-benzodioxol-5-ylmethyl)-N-butan-2-ylpyrrolo[3,2-b]quinoxaline-3-carboxamide

$$$$
