
     RDKit          3D

 21 22  0  0  0  0  0  0  0  0999 V2000
   -2.9713    0.4441    0.0482 N   0  0  0  0  0  0  0  0  0  0  0  0
   -2.3094   -0.8039    0.3766 C   0  0  0  0  0  0  0  0  0  0  0  0
   -0.8426   -0.7732    0.1255 C   0  0  1  0  0  0  0  0  0  0  0  0
   -0.4815   -0.4945   -1.3339 C   0  0  0  0  0  0  0  0  0  0  0  0
   -0.1185    0.4675   -0.2188 C   0  0  2  0  0  0  0  0  0  0  0  0
    1.3513    0.5228    0.0468 C   0  0  0  0  0  0  0  0  0  0  0  0
    2.0789    1.6725    0.2930 C   0  0  0  0  0  0  0  0  0  0  0  0
    3.3540    1.3201    0.4826 N   0  0  0  0  0  0  0  0  0  0  0  0
    3.4242   -0.0136    0.3588 C   0  0  0  0  0  0  0  0  0  0  0  0
    2.1965   -0.5280    0.0891 N   0  0  0  0  0  0  0  0  0  0  0  0
   -3.9762    0.3766    0.3028 H   0  0  0  0  0  0  0  0  0  0  0  0
   -2.5186    1.2733    0.5072 H   0  0  0  0  0  0  0  0  0  0  0  0
   -2.8204   -1.5735   -0.2709 H   0  0  0  0  0  0  0  0  0  0  0  0
   -2.5632   -1.0957    1.4166 H   0  0  0  0  0  0  0  0  0  0  0  0
   -0.2376   -1.5364    0.6635 H   0  0  0  0  0  0  0  0  0  0  0  0
   -1.2697   -0.1627   -2.0190 H   0  0  0  0  0  0  0  0  0  0  0  0
    0.2793   -1.1588   -1.7538 H   0  0  0  0  0  0  0  0  0  0  0  0
   -0.6167    1.4616   -0.2056 H   0  0  0  0  0  0  0  0  0  0  0  0
    1.6962    2.6916    0.3293 H   0  0  0  0  0  0  0  0  0  0  0  0
    4.3667   -0.5494    0.4708 H   0  0  0  0  0  0  0  0  0  0  0  0
    1.9785   -1.5404   -0.0529 H   0  0  0  0  0  0  0  0  0  0  0  0
  1  2  1  0
  2  3  1  0
  3  4  1  0
  4  5  1  0
  5  6  1  0
  6  7  2  0
  7  8  1  0
  8  9  2  0
  9 10  1  0
  5  3  1  0
 10  6  1  0
  1 11  1  0
  1 12  1  0
  2 13  1  0
  2 14  1  0
  3 15  1  1
  4 16  1  0
  4 17  1  0
  5 18  1  6
  7 19  1  0
  9 20  1  0
 10 21  1  0
M  END
>  <Ligand ID>  (1) 
LIG0001187

>  <Ligand>  (1) 
CHEMBL292558

>  <SMILES>  (1) 
NC[C@H]1C[C@@H]1c1cnc[nH]1

>  <CID>  (1) 
10942498.0

>  <ChEMBL ID>  (1) 
nan

>  <InChiKey>  (1) 
LMFNLINKCDGRTE-RITPCOANSA-N

>  <InChi>  (1) 
InChI=1S/C7H11N3/c8-2-5-1-6(5)7-3-9-4-10-7/h3-6H,1-2,8H2,(H,9,10)/t5-,6+/m1/s1

>  <IUPAC Name>  (1) 
[(1S,2S)-2-(1H-imidazol-5-yl)cyclopropyl]methanamine

$$$$
