
     RDKit          3D

 53 54  0  0  0  0  0  0  0  0999 V2000
    0.0980    2.3538   -1.8495 O   0  0  0  0  0  0  0  0  0  0  0  0
    0.7966    1.6137   -0.8973 C   0  0  2  0  0  0  0  0  0  0  0  0
    2.2328    1.3480   -1.3661 C   0  0  2  0  0  0  0  0  0  0  0  0
    2.3346    1.5376   -2.7593 O   0  0  0  0  0  0  0  0  0  0  0  0
    2.3938   -0.1228   -1.0467 C   0  0  2  0  0  0  0  0  0  0  0  0
    1.3921   -0.3984   -0.1163 O   0  0  0  0  0  0  0  0  0  0  0  0
    0.2992    0.2189   -0.7504 C   0  0  1  0  0  0  0  0  0  0  0  0
   -0.9338    0.0592   -0.0497 N   0  0  0  0  0  0  0  0  0  0  0  0
   -1.4933    0.9820    0.7541 C   0  0  0  0  0  0  0  0  0  0  0  0
   -2.6929    0.7302    1.3887 C   0  0  0  0  0  0  0  0  0  0  0  0
   -3.3727   -0.4830    1.2258 C   0  0  0  0  0  0  0  0  0  0  0  0
   -2.7618   -1.3694    0.4073 N   0  0  0  0  0  0  0  0  0  0  0  0
   -1.6027   -1.1038   -0.1950 C   0  0  0  0  0  0  0  0  0  0  0  0
   -1.1196   -2.0161   -0.9455 O   0  0  0  0  0  0  0  0  0  0  0  0
   -4.5971   -0.7622    1.8748 N   0  0  0  0  0  0  0  0  0  0  0  0
   -5.8207   -0.5495    1.4550 O   0  0  0  0  0  0  0  0  0  0  0  0
   -6.0799   -0.4231    0.1290 C   0  0  0  0  0  0  0  0  0  0  0  0
   -5.3538    0.7461   -0.4979 C   0  0  0  0  0  0  0  0  0  0  0  0
   -5.7408   -1.6407   -0.6843 C   0  0  0  0  0  0  0  0  0  0  0  0
   -7.6023   -0.2139    0.0107 C   0  0  0  0  0  0  0  0  0  0  0  0
    3.7694   -0.4181   -0.4890 C   0  0  0  0  0  0  0  0  0  0  0  0
    3.9719    0.3645    0.6252 O   0  0  0  0  0  0  0  0  0  0  0  0
    5.5100    0.0504    1.2793 P   0  0  0  0  0  0  0  0  0  0  0  0
    5.2775   -0.5814    2.6391 O   0  0  0  0  0  0  0  0  0  0  0  0
    6.3331   -1.0349    0.2653 O   0  0  0  0  0  0  0  0  0  0  0  0
    7.9943   -0.8132    0.5093 P   0  0  0  0  0  0  0  0  0  0  0  0
    8.2983    0.6607    0.3187 O   0  0  0  0  0  0  0  0  0  0  0  0
    8.8520   -1.7144   -0.6503 O   0  0  0  0  0  0  0  0  0  0  0  0
    8.3922   -1.2936    2.0710 O   0  0  0  0  0  0  0  0  0  0  0  0
    6.4122    1.4630    1.4821 O   0  0  0  0  0  0  0  0  0  0  0  0
    0.3670    3.2919   -1.7857 H   0  0  0  0  0  0  0  0  0  0  0  0
    0.8576    2.1701    0.0448 H   0  0  0  0  0  0  0  0  0  0  0  0
    2.9537    1.9715   -0.8398 H   0  0  0  0  0  0  0  0  0  0  0  0
    1.5189    2.0165   -3.1098 H   0  0  0  0  0  0  0  0  0  0  0  0
    2.1619   -0.7533   -1.9354 H   0  0  0  0  0  0  0  0  0  0  0  0
    0.2269   -0.2375   -1.7573 H   0  0  0  0  0  0  0  0  0  0  0  0
   -0.9844    1.9198    0.8907 H   0  0  0  0  0  0  0  0  0  0  0  0
   -3.1497    1.4671    2.0370 H   0  0  0  0  0  0  0  0  0  0  0  0
   -4.4916   -1.2105    2.8438 H   0  0  0  0  0  0  0  0  0  0  0  0
   -4.3822    0.4461   -0.9345 H   0  0  0  0  0  0  0  0  0  0  0  0
   -5.1909    1.5506    0.2281 H   0  0  0  0  0  0  0  0  0  0  0  0
   -6.0167    1.0827   -1.3424 H   0  0  0  0  0  0  0  0  0  0  0  0
   -5.5790   -2.5581   -0.0585 H   0  0  0  0  0  0  0  0  0  0  0  0
   -4.8927   -1.4658   -1.3897 H   0  0  0  0  0  0  0  0  0  0  0  0
   -6.6011   -1.8831   -1.3312 H   0  0  0  0  0  0  0  0  0  0  0  0
   -7.8027    0.7218    0.6013 H   0  0  0  0  0  0  0  0  0  0  0  0
   -7.9103   -0.1591   -1.0347 H   0  0  0  0  0  0  0  0  0  0  0  0
   -8.0573   -1.0568    0.5812 H   0  0  0  0  0  0  0  0  0  0  0  0
    4.4911   -0.1952   -1.3093 H   0  0  0  0  0  0  0  0  0  0  0  0
    3.8692   -1.4852   -0.2560 H   0  0  0  0  0  0  0  0  0  0  0  0
    8.8167   -2.6647   -0.4031 H   0  0  0  0  0  0  0  0  0  0  0  0
    8.4047   -2.2797    2.1246 H   0  0  0  0  0  0  0  0  0  0  0  0
    6.2043    2.1214    0.7619 H   0  0  0  0  0  0  0  0  0  0  0  0
  1  2  1  0
  2  3  1  0
  3  4  1  0
  3  5  1  0
  5  6  1  0
  6  7  1  0
  7  8  1  0
  8  9  1  0
  9 10  2  0
 10 11  1  0
 11 12  2  0
 12 13  1  0
 13 14  2  0
 11 15  1  0
 15 16  1  0
 16 17  1  0
 17 18  1  0
 17 19  1  0
 17 20  1  0
  5 21  1  0
 21 22  1  0
 22 23  1  0
 23 24  2  0
 23 25  1  0
 25 26  1  0
 26 27  2  0
 26 28  1  0
 26 29  1  0
 23 30  1  0
  7  2  1  0
 13  8  1  0
  1 31  1  0
  2 32  1  1
  3 33  1  1
  4 34  1  0
  5 35  1  6
  7 36  1  6
  9 37  1  0
 10 38  1  0
 15 39  1  0
 18 40  1  0
 18 41  1  0
 18 42  1  0
 19 43  1  0
 19 44  1  0
 19 45  1  0
 20 46  1  0
 20 47  1  0
 20 48  1  0
 21 49  1  0
 21 50  1  0
 28 51  1  0
 29 52  1  0
 30 53  1  0
M  END
>  <Ligand ID>  (1) 
LIG0003393

>  <Ligand>  (1) 
CHEMBL1084296

>  <SMILES>  (1) 
O[C@@H]1[C@H](O)[C@H](O[C@H]1n1ccc(nc1=O)NOC(C)(C)C)COP(=O)(OP(=O)(O)O)O

>  <CID>  (1) 
46831386.0

>  <ChEMBL ID>  (1) 
nan

>  <InChiKey>  (1) 
CHTRDLZHJUNBLO-QCNRFFRDSA-N

>  <InChi>  (1) 
InChI=1S/C13H23N3O12P2/c1-13(2,3)27-15-8-4-5-16(12(19)14-8)11-10(18)9(17)7(26-11)6-25-30(23,24)28-29(20,21)22/h4-5,7,9-11,17-18H,6H2,1-3H3,(H,23,24)(H,14,15,19)(H2,20,21,22)/t7-,9-,10-,11-/m1/s1

>  <IUPAC Name>  (1) 
[(2R,3S,4R,5R)-3,4-dihydroxy-5-[4-[(2-methylpropan-2-yl)oxyamino]-2-oxopyrimidin-1-yl]oxolan-2-yl]methyl phosphono hydrogen phosphate

$$$$
