
     RDKit          3D

 95 99  0  0  0  0  0  0  0  0999 V2000
   -7.1705   -1.5740   -5.5605 F   0  0  0  0  0  0  0  0  0  0  0  0
   -6.5226   -1.5131   -4.3761 C   0  0  0  0  0  0  0  0  0  0  0  0
   -6.5821   -2.5208   -3.4377 C   0  0  0  0  0  0  0  0  0  0  0  0
   -5.9066   -2.4195   -2.2410 C   0  0  0  0  0  0  0  0  0  0  0  0
   -5.1318   -1.3060   -1.9110 C   0  0  0  0  0  0  0  0  0  0  0  0
   -5.0886   -0.3006   -2.8783 C   0  0  0  0  0  0  0  0  0  0  0  0
   -5.7713   -0.4119   -4.0784 C   0  0  0  0  0  0  0  0  0  0  0  0
   -4.3832    0.8233   -2.6793 F   0  0  0  0  0  0  0  0  0  0  0  0
   -4.4155   -1.2105   -0.6436 C   0  0  2  0  0  0  0  0  0  0  0  0
   -5.2858   -0.4213    0.3084 C   0  0  0  0  0  0  0  0  0  0  0  0
   -4.4430    0.4356    1.0622 N   0  0  0  0  0  0  0  0  0  0  0  0
   -3.0973    0.2752    0.6297 C   0  0  0  0  0  0  0  0  0  0  0  0
   -3.1020   -0.6090   -0.5647 C   0  0  1  0  0  0  0  0  0  0  0  0
   -2.1007   -1.7073   -0.3000 C   0  0  0  0  0  0  0  0  0  0  0  0
   -2.4742   -2.8926   -0.1836 O   0  0  0  0  0  0  0  0  0  0  0  0
   -0.7087   -1.4462   -0.1728 N   0  0  0  0  0  0  0  0  0  0  0  0
    0.1492   -2.5778    0.0889 C   0  0  0  0  0  0  0  0  0  0  0  0
    1.4285   -2.3951   -0.6673 C   0  0  0  0  0  0  0  0  0  0  0  0
    2.0091   -1.1375   -0.3398 N   0  0  0  0  0  0  0  0  0  0  0  0
    1.2743   -0.0400   -0.7016 C   0  0  0  0  0  0  0  0  0  0  0  0
   -0.1876   -0.1327   -0.2987 C   0  0  0  0  0  0  0  0  0  0  0  0
    3.3515   -1.1601    0.0474 C   0  0  0  0  0  0  0  0  0  0  0  0
    3.4124   -1.7413    1.4467 C   0  0  0  0  0  0  0  0  0  0  0  0
    4.7465   -1.9215    2.0566 C   0  0  0  0  0  0  0  0  0  0  0  0
    4.6503   -1.6359    3.5519 C   0  0  0  0  0  0  0  0  0  0  0  0
    3.5007   -2.3891    4.1489 C   0  0  0  0  0  0  0  0  0  0  0  0
    2.2117   -1.8161    3.5859 C   0  0  0  0  0  0  0  0  0  0  0  0
    2.4865   -0.9342    2.3888 C   0  0  0  0  0  0  0  0  0  0  0  0
    4.3499   -0.2026   -0.3788 C   0  0  0  0  0  0  0  0  0  0  0  0
    4.3608    1.1832   -0.1937 N   0  0  0  0  0  0  0  0  0  0  0  0
    3.9298    2.2095   -1.0874 C   0  0  0  0  0  0  0  0  0  0  0  0
    3.9960    3.4534   -0.7418 O   0  0  0  0  0  0  0  0  0  0  0  0
    3.4004    1.9902   -2.4134 C   0  0  0  0  0  0  0  0  0  0  0  0
    4.1215    1.3820   -3.4341 C   0  0  0  0  0  0  0  0  0  0  0  0
    3.5861    1.1977   -4.7023 C   0  0  0  0  0  0  0  0  0  0  0  0
    2.2915    1.6257   -4.9864 C   0  0  0  0  0  0  0  0  0  0  0  0
    1.6339    2.2093   -3.9653 N   0  0  0  0  0  0  0  0  0  0  0  0
    2.1425    2.3855   -2.7564 N   0  0  0  0  0  0  0  0  0  0  0  0
    4.8899    1.6986    1.0969 C   0  0  0  0  0  0  0  0  0  0  0  0
    3.8446    2.5362    1.7956 C   0  0  0  0  0  0  0  0  0  0  0  0
    6.0874    2.5862    0.8428 C   0  0  0  0  0  0  0  0  0  0  0  0
   -4.8927    1.7794    1.2415 C   0  0  0  0  0  0  0  0  0  0  0  0
   -3.8798    2.5922    2.0609 C   0  0  0  0  0  0  0  0  0  0  0  0
   -6.1842    1.8462    2.0494 C   0  0  0  0  0  0  0  0  0  0  0  0
   -5.1083    2.5509   -0.0312 C   0  0  0  0  0  0  0  0  0  0  0  0
   -7.1870   -3.3843   -3.7009 H   0  0  0  0  0  0  0  0  0  0  0  0
   -5.9971   -3.2400   -1.5587 H   0  0  0  0  0  0  0  0  0  0  0  0
   -5.7152    0.4007   -4.8203 H   0  0  0  0  0  0  0  0  0  0  0  0
   -4.3897   -2.2641   -0.2236 H   0  0  0  0  0  0  0  0  0  0  0  0
   -6.0792    0.1529   -0.2526 H   0  0  0  0  0  0  0  0  0  0  0  0
   -5.8972   -1.0976    0.9757 H   0  0  0  0  0  0  0  0  0  0  0  0
   -2.5459   -0.2163    1.4766 H   0  0  0  0  0  0  0  0  0  0  0  0
   -2.5575    1.2340    0.4818 H   0  0  0  0  0  0  0  0  0  0  0  0
   -2.7102   -0.1271   -1.4830 H   0  0  0  0  0  0  0  0  0  0  0  0
    0.3819   -2.5767    1.1735 H   0  0  0  0  0  0  0  0  0  0  0  0
   -0.3621   -3.5411   -0.1915 H   0  0  0  0  0  0  0  0  0  0  0  0
    2.1606   -3.2140   -0.4731 H   0  0  0  0  0  0  0  0  0  0  0  0
    1.1341   -2.4162   -1.7614 H   0  0  0  0  0  0  0  0  0  0  0  0
    1.2215   -0.0052   -1.8348 H   0  0  0  0  0  0  0  0  0  0  0  0
    1.6029    0.9224   -0.2616 H   0  0  0  0  0  0  0  0  0  0  0  0
   -0.8363    0.4456   -0.9880 H   0  0  0  0  0  0  0  0  0  0  0  0
   -0.3423    0.3523    0.7127 H   0  0  0  0  0  0  0  0  0  0  0  0
    3.7163   -2.1229   -0.5438 H   0  0  0  0  0  0  0  0  0  0  0  0
    2.9143   -2.7239    1.4589 H   0  0  0  0  0  0  0  0  0  0  0  0
    5.0807   -3.0136    2.0367 H   0  0  0  0  0  0  0  0  0  0  0  0
    5.5968   -1.3859    1.6823 H   0  0  0  0  0  0  0  0  0  0  0  0
    5.6065   -2.0546    3.9935 H   0  0  0  0  0  0  0  0  0  0  0  0
    4.6930   -0.5650    3.7973 H   0  0  0  0  0  0  0  0  0  0  0  0
    3.5672   -2.2530    5.2471 H   0  0  0  0  0  0  0  0  0  0  0  0
    3.6268   -3.4478    3.8606 H   0  0  0  0  0  0  0  0  0  0  0  0
    1.7632   -1.1843    4.3781 H   0  0  0  0  0  0  0  0  0  0  0  0
    1.4984   -2.6540    3.3489 H   0  0  0  0  0  0  0  0  0  0  0  0
    3.0313   -0.0510    2.7809 H   0  0  0  0  0  0  0  0  0  0  0  0
    1.5809   -0.6974    1.8582 H   0  0  0  0  0  0  0  0  0  0  0  0
    4.3702   -0.3318   -1.5325 H   0  0  0  0  0  0  0  0  0  0  0  0
    5.3738   -0.6773   -0.1767 H   0  0  0  0  0  0  0  0  0  0  0  0
    5.1167    1.0427   -3.2800 H   0  0  0  0  0  0  0  0  0  0  0  0
    4.1532    0.7198   -5.5044 H   0  0  0  0  0  0  0  0  0  0  0  0
    1.8624    1.4867   -5.9728 H   0  0  0  0  0  0  0  0  0  0  0  0
    5.2056    0.9265    1.7753 H   0  0  0  0  0  0  0  0  0  0  0  0
    3.9695    3.6379    1.5798 H   0  0  0  0  0  0  0  0  0  0  0  0
    3.9620    2.4175    2.8831 H   0  0  0  0  0  0  0  0  0  0  0  0
    2.8028    2.1945    1.5401 H   0  0  0  0  0  0  0  0  0  0  0  0
    5.7912    3.6588    0.7718 H   0  0  0  0  0  0  0  0  0  0  0  0
    6.8442    2.4541    1.6426 H   0  0  0  0  0  0  0  0  0  0  0  0
    6.5513    2.2410   -0.1034 H   0  0  0  0  0  0  0  0  0  0  0  0
   -3.1342    3.0291    1.3528 H   0  0  0  0  0  0  0  0  0  0  0  0
   -4.4339    3.4622    2.4694 H   0  0  0  0  0  0  0  0  0  0  0  0
   -3.4020    1.9848    2.8456 H   0  0  0  0  0  0  0  0  0  0  0  0
   -6.3297    2.8691    2.4594 H   0  0  0  0  0  0  0  0  0  0  0  0
   -7.0758    1.6247    1.4254 H   0  0  0  0  0  0  0  0  0  0  0  0
   -6.1001    1.1739    2.9326 H   0  0  0  0  0  0  0  0  0  0  0  0
   -5.5089    3.5550    0.2938 H   0  0  0  0  0  0  0  0  0  0  0  0
   -5.8550    2.1293   -0.7022 H   0  0  0  0  0  0  0  0  0  0  0  0
   -4.1386    2.7859   -0.5464 H   0  0  0  0  0  0  0  0  0  0  0  0
  1  2  1  0
  2  3  2  0
  3  4  1  0
  4  5  2  0
  5  6  1  0
  6  7  2  0
  6  8  1  0
  5  9  1  0
  9 10  1  0
 10 11  1  0
 11 12  1  0
 12 13  1  0
 13 14  1  0
 14 15  2  0
 14 16  1  0
 16 17  1  0
 17 18  1  0
 18 19  1  0
 19 20  1  0
 20 21  1  0
 19 22  1  0
 22 23  1  0
 23 24  1  0
 24 25  1  0
 25 26  1  0
 26 27  1  0
 27 28  1  0
 22 29  1  0
 29 30  1  0
 30 31  1  0
 31 32  2  0
 31 33  1  0
 33 34  2  0
 34 35  1  0
 35 36  2  0
 36 37  1  0
 37 38  2  0
 30 39  1  0
 39 40  1  0
 39 41  1  0
 11 42  1  0
 42 43  1  0
 42 44  1  0
 42 45  1  0
  7  2  1  0
 13  9  1  0
 21 16  1  0
 28 23  1  0
 38 33  1  0
  3 46  1  0
  4 47  1  0
  7 48  1  0
  9 49  1  1
 10 50  1  0
 10 51  1  0
 12 52  1  0
 12 53  1  0
 13 54  1  6
 17 55  1  0
 17 56  1  0
 18 57  1  0
 18 58  1  0
 20 59  1  0
 20 60  1  0
 21 61  1  0
 21 62  1  0
 22 63  1  0
 23 64  1  0
 24 65  1  0
 24 66  1  0
 25 67  1  0
 25 68  1  0
 26 69  1  0
 26 70  1  0
 27 71  1  0
 27 72  1  0
 28 73  1  0
 28 74  1  0
 29 75  1  0
 29 76  1  0
 34 77  1  0
 35 78  1  0
 36 79  1  0
 39 80  1  0
 40 81  1  0
 40 82  1  0
 40 83  1  0
 41 84  1  0
 41 85  1  0
 41 86  1  0
 43 87  1  0
 43 88  1  0
 43 89  1  0
 44 90  1  0
 44 91  1  0
 44 92  1  0
 45 93  1  0
 45 94  1  0
 45 95  1  0
M  END
>  <Ligand ID>  (1) 
LIG0001517

>  <Ligand>  (1) 
CHEMBL1209318

>  <SMILES>  (1) 
Fc1ccc(c(c1)F)[C@@H]1CN(C[C@H]1C(=O)N1CCN(CC1)C(C1CCCCC1)CN(C(=O)c1cccnn1)C(C)C)C(C)(C)C

>  <CID>  (1) 
49862375.0

>  <ChEMBL ID>  (1) 
nan

>  <InChiKey>  (1) 
DOVNDOSDULTCGE-QSVHXPHUSA-N

>  <InChi>  (1) 
InChI=1S/C35H50F2N6O2/c1-24(2)43(34(45)31-12-9-15-38-39-31)23-32(25-10-7-6-8-11-25)40-16-18-41(19-17-40)33(44)29-22-42(35(3,4)5)21-28(29)27-14-13-26(36)20-30(27)37/h9,12-15,20,24-25,28-29,32H,6-8,10-11,16-19,21-23H2,1-5H3/t28-,29+,32?/m0/s1

>  <IUPAC Name>  (1) 
N-[2-[4-[(3S,4R)-1-tert-butyl-4-(2,4-difluorophenyl)pyrrolidine-3-carbonyl]piperazin-1-yl]-2-cyclohexylethyl]-N-propan-2-ylpyridazine-3-carboxamide

$$$$
