
     RDKit          3D

 71 74  0  0  0  0  0  0  0  0999 V2000
   -4.6194   -1.0673    0.3498 O   0  0  0  0  0  0  0  0  0  0  0  0
   -5.6151   -0.0869    0.5489 C   0  0  2  0  0  0  0  0  0  0  0  0
   -6.8452   -0.5003   -0.2050 C   0  0  0  0  0  0  0  0  0  0  0  0
   -6.6459   -1.2252   -1.3838 C   0  0  0  0  0  0  0  0  0  0  0  0
   -7.7068   -1.6584   -2.1500 C   0  0  0  0  0  0  0  0  0  0  0  0
   -8.9788   -1.3481   -1.7078 C   0  0  0  0  0  0  0  0  0  0  0  0
   -9.1984   -0.6333   -0.5467 C   0  0  0  0  0  0  0  0  0  0  0  0
   -8.1169   -0.1965    0.2267 C   0  0  0  0  0  0  0  0  0  0  0  0
   -8.3129    0.5126    1.3764 C   0  0  0  0  0  0  0  0  0  0  0  0
   -9.5984    0.7971    1.7735 C   0  0  0  0  0  0  0  0  0  0  0  0
  -10.6793    0.3670    1.0112 C   0  0  0  0  0  0  0  0  0  0  0  0
  -11.8605    0.6271    1.3730 O   0  0  0  0  0  0  0  0  0  0  0  0
  -10.4416   -0.3383   -0.1307 N   0  0  0  0  0  0  0  0  0  0  0  0
  -10.0682   -1.7860   -2.4831 O   0  0  0  0  0  0  0  0  0  0  0  0
   -5.1833    1.2909    0.1582 C   0  0  0  0  0  0  0  0  0  0  0  0
   -4.0791    1.7297    0.9021 N   0  0  0  0  0  0  0  0  0  0  0  0
   -2.8159    1.1519    0.7402 C   0  0  0  0  0  0  0  0  0  0  0  0
   -2.1499    1.4043   -0.5897 C   0  0  0  0  0  0  0  0  0  0  0  0
   -0.8360    0.7089   -0.5493 C   0  0  0  0  0  0  0  0  0  0  0  0
   -0.7597   -0.5987   -0.9810 C   0  0  0  0  0  0  0  0  0  0  0  0
    0.4352   -1.2851   -0.9645 C   0  0  0  0  0  0  0  0  0  0  0  0
    1.6220   -0.7013   -0.5147 C   0  0  0  0  0  0  0  0  0  0  0  0
    1.5202    0.6042   -0.0887 C   0  0  0  0  0  0  0  0  0  0  0  0
    0.3225    1.3082   -0.1001 C   0  0  0  0  0  0  0  0  0  0  0  0
    2.8164   -1.4551   -0.5016 N   0  0  0  0  0  0  0  0  0  0  0  0
    4.1259   -0.9403   -0.5984 C   0  0  0  0  0  0  0  0  0  0  0  0
    5.1610   -1.6939   -0.0906 C   0  0  0  0  0  0  0  0  0  0  0  0
    6.4752   -1.2565   -0.1700 C   0  0  0  0  0  0  0  0  0  0  0  0
    6.8407   -0.0614   -0.7482 C   0  0  0  0  0  0  0  0  0  0  0  0
    5.7492    0.6832   -1.2585 C   0  0  0  0  0  0  0  0  0  0  0  0
    4.4586    0.2576   -1.1836 C   0  0  0  0  0  0  0  0  0  0  0  0
    8.0383    0.4811   -0.8896 O   0  0  0  0  0  0  0  0  0  0  0  0
    9.3118    0.2156   -0.5717 C   0  0  0  0  0  0  0  0  0  0  0  0
    9.7850    0.1588    0.8342 C   0  0  0  0  0  0  0  0  0  0  0  0
   11.2450   -0.1260    0.7709 N   0  0  0  0  0  0  0  0  0  0  0  0
    9.2333   -0.8818    1.7313 C   0  0  0  0  0  0  0  0  0  0  0  0
    9.6742    1.5306    1.4911 C   0  0  0  0  0  0  0  0  0  0  0  0
   -5.0864   -1.9247    0.4656 H   0  0  0  0  0  0  0  0  0  0  0  0
   -5.7820   -0.0974    1.6454 H   0  0  0  0  0  0  0  0  0  0  0  0
   -5.6597   -1.4728   -1.7386 H   0  0  0  0  0  0  0  0  0  0  0  0
   -7.5371   -2.2197   -3.0617 H   0  0  0  0  0  0  0  0  0  0  0  0
   -7.4999    0.8566    1.9808 H   0  0  0  0  0  0  0  0  0  0  0  0
   -9.7581    1.3597    2.6855 H   0  0  0  0  0  0  0  0  0  0  0  0
  -11.2503   -0.6589   -0.6998 H   0  0  0  0  0  0  0  0  0  0  0  0
  -10.1478   -1.3204   -3.3813 H   0  0  0  0  0  0  0  0  0  0  0  0
   -5.1006    1.4256   -0.9422 H   0  0  0  0  0  0  0  0  0  0  0  0
   -6.0538    1.9614    0.4300 H   0  0  0  0  0  0  0  0  0  0  0  0
   -4.1568    2.6330    1.3824 H   0  0  0  0  0  0  0  0  0  0  0  0
   -2.1155    1.6280    1.4973 H   0  0  0  0  0  0  0  0  0  0  0  0
   -2.7524    0.0796    0.9644 H   0  0  0  0  0  0  0  0  0  0  0  0
   -1.8867    2.4967   -0.7001 H   0  0  0  0  0  0  0  0  0  0  0  0
   -2.6902    1.0273   -1.4563 H   0  0  0  0  0  0  0  0  0  0  0  0
   -1.6497   -1.0928   -1.3373 H   0  0  0  0  0  0  0  0  0  0  0  0
    0.5217   -2.3261   -1.3030 H   0  0  0  0  0  0  0  0  0  0  0  0
    2.3747    1.1429    0.2908 H   0  0  0  0  0  0  0  0  0  0  0  0
    0.2646    2.3274    0.2370 H   0  0  0  0  0  0  0  0  0  0  0  0
    2.6916   -2.5091   -0.4083 H   0  0  0  0  0  0  0  0  0  0  0  0
    4.9303   -2.6531    0.3825 H   0  0  0  0  0  0  0  0  0  0  0  0
    7.2128   -1.9089    0.2248 H   0  0  0  0  0  0  0  0  0  0  0  0
    5.9362    1.6379   -1.7332 H   0  0  0  0  0  0  0  0  0  0  0  0
    3.6798    0.8808   -1.6119 H   0  0  0  0  0  0  0  0  0  0  0  0
    9.6147   -0.7821   -1.0696 H   0  0  0  0  0  0  0  0  0  0  0  0
    9.9890    0.9771   -1.0865 H   0  0  0  0  0  0  0  0  0  0  0  0
   11.7025    0.5038    0.0866 H   0  0  0  0  0  0  0  0  0  0  0  0
   11.6437   -0.1109    1.7233 H   0  0  0  0  0  0  0  0  0  0  0  0
    9.3452   -1.9023    1.2687 H   0  0  0  0  0  0  0  0  0  0  0  0
    8.1966   -0.6637    2.0581 H   0  0  0  0  0  0  0  0  0  0  0  0
    9.8068   -0.9613    2.7006 H   0  0  0  0  0  0  0  0  0  0  0  0
   10.3972    2.2392    1.0445 H   0  0  0  0  0  0  0  0  0  0  0  0
    8.6745    1.9902    1.3247 H   0  0  0  0  0  0  0  0  0  0  0  0
    9.8418    1.4484    2.5824 H   0  0  0  0  0  0  0  0  0  0  0  0
  1  2  1  0
  2  3  1  0
  3  4  2  0
  4  5  1  0
  5  6  2  0
  6  7  1  0
  7  8  2  0
  8  9  1  0
  9 10  2  0
 10 11  1  0
 11 12  2  0
 11 13  1  0
  6 14  1  0
  2 15  1  0
 15 16  1  0
 16 17  1  0
 17 18  1  0
 18 19  1  0
 19 20  2  0
 20 21  1  0
 21 22  2  0
 22 23  1  0
 23 24  2  0
 22 25  1  0
 25 26  1  0
 26 27  2  0
 27 28  1  0
 28 29  2  0
 29 30  1  0
 30 31  2  0
 29 32  1  0
 32 33  1  0
 33 34  1  0
 34 35  1  0
 34 36  1  0
 34 37  1  0
  8  3  1  0
 24 19  1  0
 31 26  1  0
 13  7  1  0
  1 38  1  0
  2 39  1  1
  4 40  1  0
  5 41  1  0
  9 42  1  0
 10 43  1  0
 13 44  1  0
 14 45  1  0
 15 46  1  0
 15 47  1  0
 16 48  1  0
 17 49  1  0
 17 50  1  0
 18 51  1  0
 18 52  1  0
 20 53  1  0
 21 54  1  0
 23 55  1  0
 24 56  1  0
 25 57  1  0
 27 58  1  0
 28 59  1  0
 30 60  1  0
 31 61  1  0
 33 62  1  0
 33 63  1  0
 35 64  1  0
 35 65  1  0
 36 66  1  0
 36 67  1  0
 36 68  1  0
 37 69  1  0
 37 70  1  0
 37 71  1  0
M  END
>  <Ligand ID>  (1) 
LIG0003407

>  <Ligand>  (1) 
CHEMBL3298986

>  <SMILES>  (1) 
O[C@H](c1ccc(c2c1ccc(=O)[nH]2)O)CNCCc1ccc(cc1)Nc1ccc(cc1)OCC(N)(C)C

>  <CID>  (1) 
11169365.0

>  <ChEMBL ID>  (1) 
nan

>  <InChiKey>  (1) 
JRRKWFRTDFOWAB-SANMLTNESA-N

>  <InChi>  (1) 
InChI=1S/C29H34N4O4/c1-29(2,30)18-37-22-9-7-21(8-10-22)32-20-5-3-19(4-6-20)15-16-31-17-26(35)23-11-13-25(34)28-24(23)12-14-27(36)33-28/h3-14,26,31-32,34-35H,15-18,30H2,1-2H3,(H,33,36)/t26-/m0/s1

>  <IUPAC Name>  (1) 
5-[(1R)-2-[2-[4-[4-(2-amino-2-methylpropoxy)anilino]phenyl]ethylamino]-1-hydroxyethyl]-8-hydroxy-1H-quinolin-2-one

$$$$
