
     RDKit          3D

 41 44  0  0  0  0  0  0  0  0999 V2000
    5.9767    2.3255   -0.5840 F   0  0  0  0  0  0  0  0  0  0  0  0
    5.5961    1.0301   -0.5637 C   0  0  0  0  0  0  0  0  0  0  0  0
    4.2575    0.6420   -0.5976 C   0  0  0  0  0  0  0  0  0  0  0  0
    3.9146   -0.7108   -0.5743 C   0  0  0  0  0  0  0  0  0  0  0  0
    2.4586   -1.0622   -0.6099 C   0  0  0  0  0  0  0  0  0  0  0  0
    1.8307   -1.1637    1.0852 S   0  0  0  0  0  0  0  0  0  0  0  0
    0.0956   -1.5579    1.0115 C   0  0  0  0  0  0  0  0  0  0  0  0
   -0.3590   -2.8315    0.9621 N   0  0  0  0  0  0  0  0  0  0  0  0
   -1.6749   -2.7555    0.9372 N   0  0  0  0  0  0  0  0  0  0  0  0
   -2.0360   -1.4517    0.9706 C   0  0  0  0  0  0  0  0  0  0  0  0
   -0.9242   -0.6877    1.0177 N   0  0  0  0  0  0  0  0  0  0  0  0
   -0.9543    0.7374    1.0825 C   0  0  0  0  0  0  0  0  0  0  0  0
   -0.9824    1.4709   -0.1621 C   0  0  0  0  0  0  0  0  0  0  0  0
   -2.0211    1.7887   -0.9624 C   0  0  0  0  0  0  0  0  0  0  0  0
   -1.8327    2.4941   -2.0748 C   0  0  0  0  0  0  0  0  0  0  0  0
   -0.4978    2.8752   -2.3476 C   0  0  0  0  0  0  0  0  0  0  0  0
    0.5119    2.2067   -0.9772 S   0  0  0  0  0  0  0  0  0  0  0  0
   -3.4372   -1.0373    0.9534 C   0  0  0  0  0  0  0  0  0  0  0  0
   -3.9787   -0.4688    2.1083 C   0  0  0  0  0  0  0  0  0  0  0  0
   -5.2926   -0.0660    2.1303 C   0  0  0  0  0  0  0  0  0  0  0  0
   -6.0551   -0.2386    0.9857 C   0  0  0  0  0  0  0  0  0  0  0  0
   -5.5182   -0.7991   -0.1499 C   0  0  0  0  0  0  0  0  0  0  0  0
   -4.2167   -1.1916   -0.1529 N   0  0  0  0  0  0  0  0  0  0  0  0
    4.9014   -1.6779   -0.5173 C   0  0  0  0  0  0  0  0  0  0  0  0
    6.2382   -1.2920   -0.4834 C   0  0  0  0  0  0  0  0  0  0  0  0
    6.5903    0.0474   -0.5061 C   0  0  0  0  0  0  0  0  0  0  0  0
    7.2158   -2.2258   -0.4278 F   0  0  0  0  0  0  0  0  0  0  0  0
    3.4991    1.4191   -0.6425 H   0  0  0  0  0  0  0  0  0  0  0  0
    1.9301   -0.3728   -1.2573 H   0  0  0  0  0  0  0  0  0  0  0  0
    2.3504   -2.0802   -1.0556 H   0  0  0  0  0  0  0  0  0  0  0  0
   -1.7617    1.0539    1.7812 H   0  0  0  0  0  0  0  0  0  0  0  0
   -0.0077    1.0450    1.6214 H   0  0  0  0  0  0  0  0  0  0  0  0
   -3.0573    1.4458   -0.6732 H   0  0  0  0  0  0  0  0  0  0  0  0
   -2.6014    2.8051   -2.7917 H   0  0  0  0  0  0  0  0  0  0  0  0
   -0.0874    3.4611   -3.2049 H   0  0  0  0  0  0  0  0  0  0  0  0
   -3.3356   -0.3549    2.9818 H   0  0  0  0  0  0  0  0  0  0  0  0
   -5.7472    0.3724    2.9872 H   0  0  0  0  0  0  0  0  0  0  0  0
   -7.1029    0.0804    0.9967 H   0  0  0  0  0  0  0  0  0  0  0  0
   -6.1493   -0.9189   -1.0341 H   0  0  0  0  0  0  0  0  0  0  0  0
    4.6309   -2.7288   -0.5002 H   0  0  0  0  0  0  0  0  0  0  0  0
    7.6333    0.3733   -0.4802 H   0  0  0  0  0  0  0  0  0  0  0  0
  1  2  1  0
  2  3  2  0
  3  4  1  0
  4  5  1  0
  5  6  1  0
  6  7  1  0
  7  8  2  0
  8  9  1  0
  9 10  2  0
 10 11  1  0
 11 12  1  0
 12 13  1  0
 13 14  2  0
 14 15  1  0
 15 16  2  0
 16 17  1  0
 10 18  1  0
 18 19  2  0
 19 20  1  0
 20 21  2  0
 21 22  1  0
 22 23  2  0
  4 24  2  0
 24 25  1  0
 25 26  2  0
 25 27  1  0
 26  2  1  0
 11  7  1  0
 17 13  1  0
 23 18  1  0
  3 28  1  0
  5 29  1  0
  5 30  1  0
 12 31  1  0
 12 32  1  0
 14 33  1  0
 15 34  1  0
 16 35  1  0
 19 36  1  0
 20 37  1  0
 21 38  1  0
 22 39  1  0
 24 40  1  0
 26 41  1  0
M  END
>  <Ligand ID>  (1) 
LIG0002777

>  <Ligand>  (1) 
KUC104201N

>  <SMILES>  (1) 
Fc1cc(CSc2nnc(n2Cc2cccs2)c2ccccn2)cc(c1)F

>  <CID>  (1) 
44620926.0

>  <ChEMBL ID>  (1) 
nan

>  <InChiKey>  (1) 
DPMZLTILZOHTHA-UHFFFAOYSA-N

>  <InChi>  (1) 
InChI=1S/C19H14F2N4S2/c20-14-8-13(9-15(21)10-14)12-27-19-24-23-18(17-5-1-2-6-22-17)25(19)11-16-4-3-7-26-16/h1-10H,11-12H2

>  <IUPAC Name>  (1) 
2-[5-[(3,5-difluorophenyl)methylsulfanyl]-4-(thiophen-2-ylmethyl)-1,2,4-triazol-3-yl]pyridine

$$$$
