
     RDKit          3D

 37 39  0  0  0  0  0  0  0  0999 V2000
   -2.4425   -1.5284   -2.0049 C   0  0  0  0  0  0  0  0  0  0  0  0
   -1.3017   -0.8867   -1.3293 C   0  0  0  0  0  0  0  0  0  0  0  0
   -0.1854   -0.5379   -2.0761 C   0  0  0  0  0  0  0  0  0  0  0  0
    0.9153    0.0714   -1.4734 C   0  0  0  0  0  0  0  0  0  0  0  0
    0.8438    0.3124   -0.0970 C   0  0  0  0  0  0  0  0  0  0  0  0
   -0.2721   -0.0385    0.6376 C   0  0  0  0  0  0  0  0  0  0  0  0
   -1.3583   -0.6429    0.0275 C   0  0  0  0  0  0  0  0  0  0  0  0
   -2.4774   -0.9803    0.8368 N   0  0  0  0  0  0  0  0  0  0  0  0
   -3.7219    0.1810    1.0327 S   0  0  0  0  0  0  0  0  0  0  0  0
   -3.1648    1.4702    1.5469 O   0  0  0  0  0  0  0  0  0  0  0  0
   -4.8338   -0.3428    1.8946 O   0  0  0  0  0  0  0  0  0  0  0  0
   -4.4724    0.5752   -0.5528 C   0  0  0  0  0  0  0  0  0  0  0  0
    0.0011    0.3617    2.0433 C   0  0  0  0  0  0  0  0  0  0  0  0
    1.5149    0.3639    2.1188 C   0  0  0  0  0  0  0  0  0  0  0  0
    1.8650    0.9371    0.7614 C   0  0  0  0  0  0  0  0  0  0  0  0
    3.2447    0.5812    0.3559 C   0  0  0  0  0  0  0  0  0  0  0  0
    3.8945   -0.5057    0.8546 N   0  0  0  0  0  0  0  0  0  0  0  0
    5.1158   -0.5802    0.3152 C   0  0  0  0  0  0  0  0  0  0  0  0
    5.2138    0.5135   -0.5530 C   0  0  0  0  0  0  0  0  0  0  0  0
    4.0586    1.2027   -0.5069 N   0  0  0  0  0  0  0  0  0  0  0  0
   -2.0844   -2.3290   -2.6895 H   0  0  0  0  0  0  0  0  0  0  0  0
   -3.1371   -1.9986   -1.2846 H   0  0  0  0  0  0  0  0  0  0  0  0
   -2.9253   -0.7373   -2.6379 H   0  0  0  0  0  0  0  0  0  0  0  0
   -0.1195   -0.7191   -3.1377 H   0  0  0  0  0  0  0  0  0  0  0  0
    1.7991    0.3512   -2.0458 H   0  0  0  0  0  0  0  0  0  0  0  0
   -2.5343   -1.9091    1.2957 H   0  0  0  0  0  0  0  0  0  0  0  0
   -4.8840   -0.3771   -0.9462 H   0  0  0  0  0  0  0  0  0  0  0  0
   -3.7568    1.0743   -1.2303 H   0  0  0  0  0  0  0  0  0  0  0  0
   -5.3196    1.2748   -0.4044 H   0  0  0  0  0  0  0  0  0  0  0  0
   -0.4482   -0.3386    2.7725 H   0  0  0  0  0  0  0  0  0  0  0  0
   -0.3081    1.4193    2.2320 H   0  0  0  0  0  0  0  0  0  0  0  0
    1.8799   -0.6978    2.1774 H   0  0  0  0  0  0  0  0  0  0  0  0
    1.8875    0.9935    2.9476 H   0  0  0  0  0  0  0  0  0  0  0  0
    1.6761    2.0141    0.8075 H   0  0  0  0  0  0  0  0  0  0  0  0
    5.8916   -1.3287    0.4987 H   0  0  0  0  0  0  0  0  0  0  0  0
    6.1086    0.7066   -1.1339 H   0  0  0  0  0  0  0  0  0  0  0  0
    3.8370    2.0744   -1.0529 H   0  0  0  0  0  0  0  0  0  0  0  0
  1  2  1  0
  2  3  2  0
  3  4  1  0
  4  5  2  0
  5  6  1  0
  6  7  2  0
  7  8  1  0
  8  9  1  0
  9 10  2  0
  9 11  2  0
  9 12  1  0
  6 13  1  0
 13 14  1  0
 14 15  1  0
 15 16  1  0
 16 17  2  0
 17 18  1  0
 18 19  2  0
 19 20  1  0
  7  2  1  0
 20 16  1  0
 15  5  1  0
  1 21  1  0
  1 22  1  0
  1 23  1  0
  3 24  1  0
  4 25  1  0
  8 26  1  0
 12 27  1  0
 12 28  1  0
 12 29  1  0
 13 30  1  0
 13 31  1  0
 14 32  1  0
 14 33  1  0
 15 34  1  0
 18 35  1  0
 19 36  1  0
 20 37  1  0
M  END
>  <Ligand ID>  (1) 
LIG0003668

>  <Ligand>  (1) 
CHEMBL255938

>  <SMILES>  (1) 
Cc1ccc2c(c1NS(=O)(=O)C)CCC2c1ncc[nH]1

>  <CID>  (1) 
44449249.0

>  <ChEMBL ID>  (1) 
nan

>  <InChiKey>  (1) 
JYPNWJCGFRQDFP-UHFFFAOYSA-N

>  <InChi>  (1) 
InChI=1S/C14H17N3O2S/c1-9-3-4-10-11(13(9)17-20(2,18)19)5-6-12(10)14-15-7-8-16-14/h3-4,7-8,12,17H,5-6H2,1-2H3,(H,15,16)

>  <IUPAC Name>  (1) 
N-[1-(1H-imidazol-2-yl)-5-methyl-2,3-dihydro-1H-inden-4-yl]methanesulfonamide

$$$$
