
     RDKit          3D

134136  0  0  0  0  0  0  0  0999 V2000
    9.5555   -3.5514   -0.4231 N   0  0  0  0  0  0  0  0  0  0  0  0
    9.9261   -3.0147   -1.6863 C   0  0  0  0  0  0  0  0  0  0  0  0
    8.9805   -2.0108   -2.2834 C   0  0  0  0  0  0  0  0  0  0  0  0
    8.7698   -0.7626   -1.4894 C   0  0  0  0  0  0  0  0  0  0  0  0
    8.1925   -0.9669   -0.1069 C   0  0  1  0  0  0  0  0  0  0  0  0
    8.0612    0.3704    0.5235 C   0  0  0  0  0  0  0  0  0  0  0  0
    6.8990    0.7064    0.9426 O   0  0  0  0  0  0  0  0  0  0  0  0
    9.1368    1.2803    0.6800 N   0  0  0  0  0  0  0  0  0  0  0  0
    8.9342    2.5676    1.2943 C   0  0  0  0  0  0  0  0  0  0  0  0
    8.4335    2.4493    2.6648 C   0  0  0  0  0  0  0  0  0  0  0  0
    8.2379    1.2994    3.1453 O   0  0  0  0  0  0  0  0  0  0  0  0
    8.1752    3.6201    3.4316 N   0  0  0  0  0  0  0  0  0  0  0  0
    6.8911   -1.5628   -0.0844 N   0  0  0  0  0  0  0  0  0  0  0  0
    5.8980   -1.4123   -1.0893 C   0  0  0  0  0  0  0  0  0  0  0  0
    6.1117   -0.7075   -2.1004 O   0  0  0  0  0  0  0  0  0  0  0  0
    4.5776   -2.1025   -0.9367 C   0  0  2  0  0  0  0  0  0  0  0  0
    4.7570   -3.5298   -1.4037 C   0  0  0  0  0  0  0  0  0  0  0  0
    4.8865   -3.3860   -2.8984 C   0  0  0  0  0  0  0  0  0  0  0  0
    4.1827   -2.1112   -3.2060 C   0  0  0  0  0  0  0  0  0  0  0  0
    3.6711   -1.5920   -1.9262 N   0  0  0  0  0  0  0  0  0  0  0  0
    2.5460   -0.7568   -1.8696 C   0  0  0  0  0  0  0  0  0  0  0  0
    2.0355   -0.4027   -2.9879 O   0  0  0  0  0  0  0  0  0  0  0  0
    1.8750   -0.2341   -0.6631 C   0  0  2  0  0  0  0  0  0  0  0  0
    1.3957   -1.3974    0.2077 C   0  0  0  0  0  0  0  0  0  0  0  0
    0.9331   -2.8118   -0.7807 S   0  0  0  0  0  0  0  0  0  0  0  0
    0.0777   -4.4264    0.2751 S   0  0  0  0  0  0  0  0  0  0  0  0
   -1.7189   -4.3578    0.2352 C   0  0  0  0  0  0  0  0  0  0  0  0
   -2.2141   -3.1379    0.9340 C   0  0  2  0  0  0  0  0  0  0  0  0
   -1.9519   -3.1928    2.3379 N   0  0  0  0  0  0  0  0  0  0  0  0
   -3.6029   -2.7854    0.5785 C   0  0  0  0  0  0  0  0  0  0  0  0
   -3.9658   -3.0007   -0.5968 O   0  0  0  0  0  0  0  0  0  0  0  0
   -4.5761   -2.2225    1.4285 N   0  0  0  0  0  0  0  0  0  0  0  0
   -5.8834   -1.8705    0.7862 C   0  0  1  0  0  0  0  0  0  0  0  0
   -6.9904   -1.7324    1.7426 C   0  0  0  0  0  0  0  0  0  0  0  0
   -7.2657   -2.9647    2.5221 C   0  0  0  0  0  0  0  0  0  0  0  0
   -6.6501   -3.2392    3.7288 C   0  0  0  0  0  0  0  0  0  0  0  0
   -6.9900   -4.4134    4.3586 C   0  0  0  0  0  0  0  0  0  0  0  0
   -7.9072   -5.2823    3.8104 C   0  0  0  0  0  0  0  0  0  0  0  0
   -8.5254   -5.0159    2.6070 C   0  0  0  0  0  0  0  0  0  0  0  0
   -8.1935   -3.8444    1.9675 C   0  0  0  0  0  0  0  0  0  0  0  0
   -8.2521   -6.4731    4.4507 O   0  0  0  0  0  0  0  0  0  0  0  0
   -5.5863   -0.6929   -0.0641 C   0  0  0  0  0  0  0  0  0  0  0  0
   -4.3330   -0.4297   -0.1463 O   0  0  0  0  0  0  0  0  0  0  0  0
   -6.4092    0.1812   -0.7834 N   0  0  0  0  0  0  0  0  0  0  0  0
   -5.6245    1.1829   -1.5667 C   0  0  2  0  0  0  0  0  0  0  0  0
   -5.1437    2.2070   -0.5268 C   0  0  0  0  0  0  0  0  0  0  0  0
   -5.8616    2.6746    0.3326 O   0  0  0  0  0  0  0  0  0  0  0  0
   -3.7794    2.6126   -0.5658 N   0  0  0  0  0  0  0  0  0  0  0  0
   -3.1777    3.5490    0.3658 C   0  0  2  0  0  0  0  0  0  0  0  0
   -1.7691    3.8475    0.1520 C   0  0  0  0  0  0  0  0  0  0  0  0
   -1.2722    4.8118    0.7469 O   0  0  0  0  0  0  0  0  0  0  0  0
   -0.8834    3.1121   -0.6848 N   0  0  0  0  0  0  0  0  0  0  0  0
    0.4972    3.3341   -0.9485 C   0  0  2  0  0  0  0  0  0  0  0  0
    1.3461    2.1500   -0.8909 C   0  0  0  0  0  0  0  0  0  0  0  0
    2.5773    2.2772   -0.8589 O   0  0  0  0  0  0  0  0  0  0  0  0
    0.8816    0.7766   -0.8764 N   0  0  0  0  0  0  0  0  0  0  0  0
    1.1651    4.5176   -0.2921 C   0  0  0  0  0  0  0  0  0  0  0  0
    0.5762    5.7674   -0.7873 C   0  0  0  0  0  0  0  0  0  0  0  0
    0.8437    6.8289   -0.1563 O   0  0  0  0  0  0  0  0  0  0  0  0
   -0.2683    5.8974   -1.9176 N   0  0  0  0  0  0  0  0  0  0  0  0
   -3.2983    2.9108    1.7866 C   0  0  0  0  0  0  0  0  0  0  0  0
   -2.6761    3.7947    2.8168 C   0  0  0  0  0  0  0  0  0  0  0  0
   -3.2284    5.1421    2.9401 C   0  0  0  0  0  0  0  0  0  0  0  0
   -4.1796    5.6395    2.3284 O   0  0  0  0  0  0  0  0  0  0  0  0
   -2.5782    6.0093    3.9070 N   0  0  0  0  0  0  0  0  0  0  0  0
   -6.4219    1.9235   -2.5543 C   0  0  2  0  0  0  0  0  0  0  0  0
   -7.0869    1.0932   -3.6103 C   0  0  0  0  0  0  0  0  0  0  0  0
   -6.1449    0.3009   -4.4577 C   0  0  0  0  0  0  0  0  0  0  0  0
   -5.5162    2.9627   -3.1939 C   0  0  0  0  0  0  0  0  0  0  0  0
    8.9207   -4.3546   -0.4544 H   0  0  0  0  0  0  0  0  0  0  0  0
   10.2790   -3.5515    0.3154 H   0  0  0  0  0  0  0  0  0  0  0  0
   10.9384   -2.5577   -1.6002 H   0  0  0  0  0  0  0  0  0  0  0  0
   10.0044   -3.8535   -2.4136 H   0  0  0  0  0  0  0  0  0  0  0  0
    8.0151   -2.5876   -2.4250 H   0  0  0  0  0  0  0  0  0  0  0  0
    9.4141   -1.7762   -3.3036 H   0  0  0  0  0  0  0  0  0  0  0  0
    8.2966    0.0489   -2.0641 H   0  0  0  0  0  0  0  0  0  0  0  0
    9.8176   -0.3598   -1.2917 H   0  0  0  0  0  0  0  0  0  0  0  0
    8.9734   -1.5291    0.4475 H   0  0  0  0  0  0  0  0  0  0  0  0
   10.0891    0.9873    0.3337 H   0  0  0  0  0  0  0  0  0  0  0  0
    8.2024    3.1990    0.7103 H   0  0  0  0  0  0  0  0  0  0  0  0
    9.8785    3.1511    1.2586 H   0  0  0  0  0  0  0  0  0  0  0  0
    8.7214    4.4824    3.2057 H   0  0  0  0  0  0  0  0  0  0  0  0
    7.4653    3.5965    4.1827 H   0  0  0  0  0  0  0  0  0  0  0  0
    6.6656   -2.1668    0.7641 H   0  0  0  0  0  0  0  0  0  0  0  0
    4.2227   -2.0493    0.1022 H   0  0  0  0  0  0  0  0  0  0  0  0
    5.6226   -4.0265   -0.9202 H   0  0  0  0  0  0  0  0  0  0  0  0
    3.8077   -4.1057   -1.2143 H   0  0  0  0  0  0  0  0  0  0  0  0
    4.4232   -4.2669   -3.4294 H   0  0  0  0  0  0  0  0  0  0  0  0
    5.9407   -3.4030   -3.2216 H   0  0  0  0  0  0  0  0  0  0  0  0
    3.2714   -2.3959   -3.8164 H   0  0  0  0  0  0  0  0  0  0  0  0
    4.7214   -1.3705   -3.7874 H   0  0  0  0  0  0  0  0  0  0  0  0
    2.7469    0.2178   -0.0471 H   0  0  0  0  0  0  0  0  0  0  0  0
    2.1294   -1.6952    0.9696 H   0  0  0  0  0  0  0  0  0  0  0  0
    0.4968   -1.0720    0.7986 H   0  0  0  0  0  0  0  0  0  0  0  0
   -2.1053   -4.3858   -0.8159 H   0  0  0  0  0  0  0  0  0  0  0  0
   -2.0973   -5.2861    0.7422 H   0  0  0  0  0  0  0  0  0  0  0  0
   -1.5406   -2.2373    0.5975 H   0  0  0  0  0  0  0  0  0  0  0  0
   -1.9591   -2.2585    2.8066 H   0  0  0  0  0  0  0  0  0  0  0  0
   -2.5071   -3.9039    2.8556 H   0  0  0  0  0  0  0  0  0  0  0  0
   -4.3597   -2.0861    2.3930 H   0  0  0  0  0  0  0  0  0  0  0  0
   -6.0511   -2.7643    0.1153 H   0  0  0  0  0  0  0  0  0  0  0  0
   -6.7649   -0.9066    2.4582 H   0  0  0  0  0  0  0  0  0  0  0  0
   -7.9058   -1.4442    1.1501 H   0  0  0  0  0  0  0  0  0  0  0  0
   -5.9262   -2.5436    4.1506 H   0  0  0  0  0  0  0  0  0  0  0  0
   -6.5542   -4.6946    5.3005 H   0  0  0  0  0  0  0  0  0  0  0  0
   -9.2448   -5.7110    2.1897 H   0  0  0  0  0  0  0  0  0  0  0  0
   -8.6807   -3.6375    1.0228 H   0  0  0  0  0  0  0  0  0  0  0  0
   -7.8133   -7.3181    4.1309 H   0  0  0  0  0  0  0  0  0  0  0  0
   -7.3952    0.1091   -0.7439 H   0  0  0  0  0  0  0  0  0  0  0  0
   -4.7121    0.6988   -1.9584 H   0  0  0  0  0  0  0  0  0  0  0  0
   -3.2350    2.1877   -1.3226 H   0  0  0  0  0  0  0  0  0  0  0  0
   -3.8071    4.4224    0.4466 H   0  0  0  0  0  0  0  0  0  0  0  0
   -1.3299    2.3050   -1.1530 H   0  0  0  0  0  0  0  0  0  0  0  0
    0.4905    3.7167   -2.0516 H   0  0  0  0  0  0  0  0  0  0  0  0
   -0.1138    0.6769   -1.0253 H   0  0  0  0  0  0  0  0  0  0  0  0
    2.2200    4.4809   -0.6167 H   0  0  0  0  0  0  0  0  0  0  0  0
    1.1861    4.4490    0.8144 H   0  0  0  0  0  0  0  0  0  0  0  0
   -0.9187    5.1732   -2.2670 H   0  0  0  0  0  0  0  0  0  0  0  0
   -0.2620    6.8002   -2.4804 H   0  0  0  0  0  0  0  0  0  0  0  0
   -2.8889    1.9022    1.7537 H   0  0  0  0  0  0  0  0  0  0  0  0
   -4.3841    2.8899    1.9941 H   0  0  0  0  0  0  0  0  0  0  0  0
   -1.5691    3.8657    2.7414 H   0  0  0  0  0  0  0  0  0  0  0  0
   -2.9167    3.2881    3.8139 H   0  0  0  0  0  0  0  0  0  0  0  0
   -2.1051    6.8362    3.4833 H   0  0  0  0  0  0  0  0  0  0  0  0
   -2.6010    5.7934    4.9259 H   0  0  0  0  0  0  0  0  0  0  0  0
   -7.2342    2.5146   -2.0670 H   0  0  0  0  0  0  0  0  0  0  0  0
   -7.6170    1.8211   -4.2745 H   0  0  0  0  0  0  0  0  0  0  0  0
   -7.8999    0.4844   -3.1601 H   0  0  0  0  0  0  0  0  0  0  0  0
   -5.1032    0.4249   -4.1229 H   0  0  0  0  0  0  0  0  0  0  0  0
   -6.4633   -0.7689   -4.4746 H   0  0  0  0  0  0  0  0  0  0  0  0
   -6.1696    0.6272   -5.5368 H   0  0  0  0  0  0  0  0  0  0  0  0
   -4.6874    2.3728   -3.6879 H   0  0  0  0  0  0  0  0  0  0  0  0
   -6.0593    3.5035   -3.9683 H   0  0  0  0  0  0  0  0  0  0  0  0
   -5.0796    3.6384   -2.4387 H   0  0  0  0  0  0  0  0  0  0  0  0
  1  2  1  0
  2  3  1  0
  3  4  1  0
  4  5  1  0
  5  6  1  0
  6  7  2  0
  6  8  1  0
  8  9  1  0
  9 10  1  0
 10 11  2  0
 10 12  1  0
  5 13  1  0
 13 14  1  0
 14 15  2  0
 14 16  1  0
 16 17  1  0
 17 18  1  0
 18 19  1  0
 19 20  1  0
 20 21  1  0
 21 22  2  0
 21 23  1  0
 23 24  1  0
 24 25  1  0
 25 26  1  0
 26 27  1  0
 27 28  1  0
 28 29  1  0
 28 30  1  0
 30 31  2  0
 30 32  1  0
 32 33  1  0
 33 34  1  0
 34 35  1  0
 35 36  2  0
 36 37  1  0
 37 38  2  0
 38 39  1  0
 39 40  2  0
 38 41  1  0
 33 42  1  0
 42 43  2  0
 42 44  1  0
 44 45  1  0
 45 46  1  0
 46 47  2  0
 46 48  1  0
 48 49  1  0
 49 50  1  0
 50 51  2  0
 50 52  1  0
 52 53  1  0
 53 54  1  0
 54 55  2  0
 54 56  1  0
 53 57  1  0
 57 58  1  0
 58 59  2  0
 58 60  1  0
 49 61  1  0
 61 62  1  0
 62 63  1  0
 63 64  2  0
 63 65  1  0
 45 66  1  0
 66 67  1  0
 67 68  1  0
 66 69  1  0
 20 16  1  0
 56 23  1  0
 40 35  1  0
  1 70  1  0
  1 71  1  0
  2 72  1  0
  2 73  1  0
  3 74  1  0
  3 75  1  0
  4 76  1  0
  4 77  1  0
  5 78  1  1
  8 79  1  0
  9 80  1  0
  9 81  1  0
 12 82  1  0
 12 83  1  0
 13 84  1  0
 16 85  1  1
 17 86  1  0
 17 87  1  0
 18 88  1  0
 18 89  1  0
 19 90  1  0
 19 91  1  0
 23 92  1  1
 24 93  1  0
 24 94  1  0
 27 95  1  0
 27 96  1  0
 28 97  1  6
 29 98  1  0
 29 99  1  0
 32100  1  0
 33101  1  6
 34102  1  0
 34103  1  0
 36104  1  0
 37105  1  0
 39106  1  0
 40107  1  0
 41108  1  0
 44109  1  0
 45110  1  6
 48111  1  0
 49112  1  1
 52113  1  0
 53114  1  6
 56115  1  0
 57116  1  0
 57117  1  0
 60118  1  0
 60119  1  0
 61120  1  0
 61121  1  0
 62122  1  0
 62123  1  0
 65124  1  0
 65125  1  0
 66126  1  1
 67127  1  0
 67128  1  0
 68129  1  0
 68130  1  0
 68131  1  0
 69132  1  0
 69133  1  0
 69134  1  0
M  END
>  <Ligand ID>  (1) 
LIG0001586

>  <Ligand>  (1) 
CHEMBL1819541

>  <SMILES>  (1) 
NCCC[C@@H](C(=O)NCC(=O)N)NC(=O)[C@@H]1CCCN1C(=O)[C@@H]1CSSC[C@H](N)C(=O)N[C@@H](Cc2ccc(cc2)O)C(=O)N[C@H](C(=O)N[C@H](C(=O)N[C@H](C(=O)N1)CC(=O)N)CCC(=O)N)[C@H](CC)C

>  <CID>  (1) 
56658416.0

>  <ChEMBL ID>  (1) 
nan

>  <InChiKey>  (1) 
BSNMLIXURUHBQK-BQGUCLBMSA-N

>  <InChi>  (1) 
InChI=1S/C42H65N13O12S2/c1-3-21(2)34-41(66)50-26(12-13-31(45)57)37(62)52-28(17-32(46)58)38(63)53-29(20-69-68-19-24(44)35(60)51-27(39(64)54-34)16-22-8-10-23(56)11-9-22)42(67)55-15-5-7-30(55)40(65)49-25(6-4-14-43)36(61)48-18-33(47)59/h8-11,21,24-30,34,56H,3-7,12-20,43-44H2,1-2H3,(H2,45,57)(H2,46,58)(H2,47,59)(H,48,61)(H,49,65)(H,50,66)(H,51,60)(H,52,62)(H,53,63)(H,54,64)/t21-,24-,25-,26-,27-,28-,29-,30-,34-/m0/s1

>  <IUPAC Name>  (1) 
(2S)-N-[(2S)-5-amino-1-[(2-amino-2-oxoethyl)amino]-1-oxopentan-2-yl]-1-[(4R,7S,10S,13S,16S,19R)-19-amino-7-(2-amino-2-oxoethyl)-10-(3-amino-3-oxopropyl)-13-[(2S)-butan-2-yl]-16-[(4-hydroxyphenyl)methyl]-6,9,12,15,18-pentaoxo-1,2-dithia-5,8,11,14,17-pentazacycloicosane-4-carbonyl]pyrrolidine-2-carboxamide

$$$$
