
     RDKit          3D

  9  8  0  0  0  0  0  0  0  0999 V2000
    1.5043    1.4552   -0.2825 O   0  0  0  0  0  0  0  0  0  0  0  0
    1.2076    0.1075   -0.2325 C   0  0  0  0  0  0  0  0  0  0  0  0
    1.9290   -0.7490   -0.7923 O   0  0  0  0  0  0  0  0  0  0  0  0
    0.0140   -0.3405    0.4911 C   0  0  0  0  0  0  0  0  0  0  0  0
   -1.1882    0.1446   -0.2269 C   0  0  0  0  0  0  0  0  0  0  0  0
   -1.5915    1.3118    0.0061 O   0  0  0  0  0  0  0  0  0  0  0  0
   -1.8597   -0.6314   -1.1300 O   0  0  0  0  0  0  0  0  0  0  0  0
   -0.0022   -1.4258    0.6629 H   0  0  0  0  0  0  0  0  0  0  0  0
   -0.0133    0.1275    1.5041 H   0  0  0  0  0  0  0  0  0  0  0  0
  1  2  1  0
  2  3  2  0
  2  4  1  0
  4  5  1  0
  5  6  2  0
  5  7  1  0
  4  8  1  0
  4  9  1  0
M  CHG  2   1  -1   7  -1
M  END
>  <Ligand ID>  (1) 
LIG0000601

>  <Ligand>  (1) 
propanedioate

>  <SMILES>  (1) 
[O-]C(=O)CC(=O)[O-]

>  <CID>  (1) 
9084.0

>  <ChEMBL ID>  (1) 
nan

>  <InChiKey>  (1) 
OFOBLEOULBTSOW-UHFFFAOYSA-L

>  <InChi>  (1) 
InChI=1S/C3H4O4/c4-2(5)1-3(6)7/h1H2,(H,4,5)(H,6,7)/p-2

>  <IUPAC Name>  (1) 
propanedioate

$$$$
