
     RDKit          3D

 60 62  0  0  0  0  0  0  0  0999 V2000
   -8.4713   -0.8339   -0.7593 C   0  0  0  0  0  0  0  0  0  0  0  0
   -7.0023   -1.1603   -0.5113 C   0  0  0  0  0  0  0  0  0  0  0  0
   -6.1349   -0.1914   -0.4758 O   0  0  0  0  0  0  0  0  0  0  0  0
   -5.2354    0.7495   -0.4445 C   0  0  0  0  0  0  0  0  0  0  0  0
   -3.8606    0.4024   -0.4541 C   0  0  0  0  0  0  0  0  0  0  0  0
   -2.8605    1.3379   -0.4732 C   0  0  0  0  0  0  0  0  0  0  0  0
   -3.1802    2.6674   -0.4835 C   0  0  0  0  0  0  0  0  0  0  0  0
   -4.5143    3.0734   -0.4588 C   0  0  0  0  0  0  0  0  0  0  0  0
   -5.5222    2.0832   -0.4315 C   0  0  0  0  0  0  0  0  0  0  0  0
   -6.8468    2.6288   -0.0796 C   0  0  0  0  0  0  0  0  0  0  0  0
   -7.1109    3.8572   -0.2882 O   0  0  0  0  0  0  0  0  0  0  0  0
   -7.8657    1.9006    0.4930 O   0  0  0  0  0  0  0  0  0  0  0  0
   -1.4560    0.9516   -0.2103 C   0  0  0  0  0  0  0  0  0  0  0  0
   -1.1225   -0.3671   -0.3978 C   0  0  0  0  0  0  0  0  0  0  0  0
    0.1823   -0.7953   -0.0771 C   0  0  0  0  0  0  0  0  0  0  0  0
    1.1259    0.1023    0.4195 C   0  0  0  0  0  0  0  0  0  0  0  0
    0.7834    1.4415    0.5928 C   0  0  0  0  0  0  0  0  0  0  0  0
   -0.5227    1.8279    0.2695 C   0  0  0  0  0  0  0  0  0  0  0  0
    2.3632   -0.3931    1.1017 C   0  0  0  0  0  0  0  0  0  0  0  0
    2.9072   -1.5973    0.4879 C   0  0  0  0  0  0  0  0  0  0  0  0
    3.4817   -1.6883   -0.7680 N   0  0  0  0  0  0  0  0  0  0  0  0
    4.8837   -1.5660   -0.9087 C   0  0  0  0  0  0  0  0  0  0  0  0
    5.4589   -0.1998   -0.6890 C   0  0  1  0  0  0  0  0  0  0  0  0
    6.8708   -0.2374   -0.2554 C   0  0  0  0  0  0  0  0  0  0  0  0
    7.0617   -0.4950    1.1115 C   0  0  0  0  0  0  0  0  0  0  0  0
    8.2911   -0.5357    1.6947 C   0  0  0  0  0  0  0  0  0  0  0  0
    9.3925   -0.3058    0.8772 C   0  0  0  0  0  0  0  0  0  0  0  0
    9.2244   -0.0542   -0.4527 C   0  0  0  0  0  0  0  0  0  0  0  0
    7.9680   -0.0131   -1.0512 C   0  0  0  0  0  0  0  0  0  0  0  0
    5.1507    0.7404   -1.6164 O   0  0  0  0  0  0  0  0  0  0  0  0
   -6.9942   -2.1040    0.6787 C   0  0  0  0  0  0  0  0  0  0  0  0
   -8.9243   -1.6363   -1.3632 H   0  0  0  0  0  0  0  0  0  0  0  0
   -8.5590    0.1240   -1.3493 H   0  0  0  0  0  0  0  0  0  0  0  0
   -8.9973   -0.7038    0.2038 H   0  0  0  0  0  0  0  0  0  0  0  0
   -6.7599   -1.8905   -1.4261 H   0  0  0  0  0  0  0  0  0  0  0  0
   -3.6571   -0.6852   -0.4354 H   0  0  0  0  0  0  0  0  0  0  0  0
   -2.4558    3.4693   -0.5060 H   0  0  0  0  0  0  0  0  0  0  0  0
   -4.7612    4.1143   -0.4654 H   0  0  0  0  0  0  0  0  0  0  0  0
   -8.0380    2.1551    1.4876 H   0  0  0  0  0  0  0  0  0  0  0  0
   -1.7636   -1.1193   -0.7753 H   0  0  0  0  0  0  0  0  0  0  0  0
    0.4216   -1.8318   -0.2294 H   0  0  0  0  0  0  0  0  0  0  0  0
    1.4780    2.1954    0.9553 H   0  0  0  0  0  0  0  0  0  0  0  0
   -0.7822    2.8656    0.4061 H   0  0  0  0  0  0  0  0  0  0  0  0
    3.0273    0.5042    1.1441 H   0  0  0  0  0  0  0  0  0  0  0  0
    2.0798   -0.5719    2.1983 H   0  0  0  0  0  0  0  0  0  0  0  0
    2.0799   -2.3991    0.5906 H   0  0  0  0  0  0  0  0  0  0  0  0
    3.6581   -2.0993    1.2742 H   0  0  0  0  0  0  0  0  0  0  0  0
    2.8984   -1.5664   -1.6036 H   0  0  0  0  0  0  0  0  0  0  0  0
    5.4268   -2.3524   -0.2747 H   0  0  0  0  0  0  0  0  0  0  0  0
    5.1115   -1.9205   -1.9664 H   0  0  0  0  0  0  0  0  0  0  0  0
    4.9113    0.2186    0.2629 H   0  0  0  0  0  0  0  0  0  0  0  0
    6.1976   -0.6811    1.7559 H   0  0  0  0  0  0  0  0  0  0  0  0
    8.3792   -0.7408    2.7568 H   0  0  0  0  0  0  0  0  0  0  0  0
   10.3593   -0.3370    1.3736 H   0  0  0  0  0  0  0  0  0  0  0  0
   10.1264    0.1137   -1.0450 H   0  0  0  0  0  0  0  0  0  0  0  0
    7.8175    0.1661   -2.0872 H   0  0  0  0  0  0  0  0  0  0  0  0
    5.2349    0.4733   -2.5763 H   0  0  0  0  0  0  0  0  0  0  0  0
   -7.9942   -2.5430    0.8430 H   0  0  0  0  0  0  0  0  0  0  0  0
   -6.3063   -2.9394    0.4339 H   0  0  0  0  0  0  0  0  0  0  0  0
   -6.6538   -1.6079    1.5845 H   0  0  0  0  0  0  0  0  0  0  0  0
  1  2  1  0
  2  3  1  0
  3  4  1  0
  4  5  2  0
  5  6  1  0
  6  7  2  0
  7  8  1  0
  8  9  2  0
  9 10  1  0
 10 11  2  0
 10 12  1  0
  6 13  1  0
 13 14  2  0
 14 15  1  0
 15 16  2  0
 16 17  1  0
 17 18  2  0
 16 19  1  0
 19 20  1  0
 20 21  1  0
 21 22  1  0
 22 23  1  0
 23 24  1  0
 24 25  2  0
 25 26  1  0
 26 27  2  0
 27 28  1  0
 28 29  2  0
 23 30  1  0
  2 31  1  0
  9  4  1  0
 18 13  1  0
 29 24  1  0
  1 32  1  0
  1 33  1  0
  1 34  1  0
  2 35  1  0
  5 36  1  0
  7 37  1  0
  8 38  1  0
 12 39  1  0
 14 40  1  0
 15 41  1  0
 17 42  1  0
 18 43  1  0
 19 44  1  0
 19 45  1  0
 20 46  1  0
 20 47  1  0
 21 48  1  0
 22 49  1  0
 22 50  1  0
 23 51  1  1
 25 52  1  0
 26 53  1  0
 27 54  1  0
 28 55  1  0
 29 56  1  0
 30 57  1  0
 31 58  1  0
 31 59  1  0
 31 60  1  0
M  END
>  <Ligand ID>  (1) 
LIG0001540

>  <Ligand>  (1) 
CHEMBL271945

>  <SMILES>  (1) 
CC(Oc1cc(ccc1C(=O)O)c1ccc(cc1)CCNC[C@@H](c1ccccc1)O)C

>  <CID>  (1) 
24822974.0

>  <ChEMBL ID>  (1) 
nan

>  <InChiKey>  (1) 
PZOXHDZLMHAWOO-DEOSSOPVSA-N

>  <InChi>  (1) 
InChI=1S/C26H29NO4/c1-18(2)31-25-16-22(12-13-23(25)26(29)30)20-10-8-19(9-11-20)14-15-27-17-24(28)21-6-4-3-5-7-21/h3-13,16,18,24,27-28H,14-15,17H2,1-2H3,(H,29,30)/t24-/m0/s1

>  <IUPAC Name>  (1) 
4-[4-[2-[[(2R)-2-hydroxy-2-phenylethyl]amino]ethyl]phenyl]-2-propan-2-yloxybenzoic acid

$$$$
