
     RDKit          3D

 19 19  0  0  0  0  0  0  0  0999 V2000
    2.7905    0.4276   -0.6799 C   0  0  0  0  0  0  0  0  0  0  0  0
    2.1810   -1.2472   -0.4048 S   0  0  0  0  0  0  0  0  0  0  0  0
    1.0515   -1.2406    1.0015 C   0  0  0  0  0  0  0  0  0  0  0  0
   -0.1577   -0.4931    0.6758 C   0  0  0  0  0  0  0  0  0  0  0  0
   -0.3697    0.8422    0.9224 C   0  0  0  0  0  0  0  0  0  0  0  0
   -1.5532    1.4971    0.5804 C   0  0  0  0  0  0  0  0  0  0  0  0
   -2.5841    0.7814   -0.0422 C   0  0  0  0  0  0  0  0  0  0  0  0
   -2.3741   -0.5507   -0.2881 C   0  0  0  0  0  0  0  0  0  0  0  0
   -1.1940   -1.2076    0.0514 C   0  0  0  0  0  0  0  0  0  0  0  0
    2.1698    1.1318   -0.1108 H   0  0  0  0  0  0  0  0  0  0  0  0
    2.8167    0.7164   -1.7641 H   0  0  0  0  0  0  0  0  0  0  0  0
    3.8727    0.4969   -0.3631 H   0  0  0  0  0  0  0  0  0  0  0  0
    0.8622   -2.3075    1.2572 H   0  0  0  0  0  0  0  0  0  0  0  0
    1.5234   -0.7200    1.8614 H   0  0  0  0  0  0  0  0  0  0  0  0
    0.3982    1.4253    1.4074 H   0  0  0  0  0  0  0  0  0  0  0  0
   -1.6740    2.5695    0.7987 H   0  0  0  0  0  0  0  0  0  0  0  0
   -3.5196    1.2723   -0.3192 H   0  0  0  0  0  0  0  0  0  0  0  0
   -3.1722   -1.1341   -0.7770 H   0  0  0  0  0  0  0  0  0  0  0  0
   -1.0674   -2.2597   -0.1598 H   0  0  0  0  0  0  0  0  0  0  0  0
  1  2  1  0
  2  3  1  0
  3  4  1  0
  4  5  2  0
  5  6  1  0
  6  7  2  0
  7  8  1  0
  8  9  2  0
  9  4  1  0
  1 10  1  0
  1 11  1  0
  1 12  1  0
  3 13  1  0
  3 14  1  0
  5 15  1  0
  6 16  1  0
  7 17  1  0
  8 18  1  0
  9 19  1  0
M  END
>  <Ligand ID>  (1) 
LIG0002087

>  <Ligand>  (1) 
Benzyl methyl sulfide

>  <SMILES>  (1) 
CSCc1ccccc1

>  <CID>  (1) 
13016.0

>  <ChEMBL ID>  (1) 
nan

>  <InChiKey>  (1) 
OFQPKKGMNWASPN-UHFFFAOYSA-N

>  <InChi>  (1) 
InChI=1S/C8H10S/c1-9-7-8-5-3-2-4-6-8/h2-6H,7H2,1H3

>  <IUPAC Name>  (1) 
methylsulfanylmethylbenzene

$$$$
