
     RDKit          3D

 45 45  0  0  0  0  0  0  0  0999 V2000
    7.3336   -0.2971   -1.0898 O   0  0  0  0  0  0  0  0  0  0  0  0
    7.1802   -0.1393    0.2849 C   0  0  0  0  0  0  0  0  0  0  0  0
    8.1807   -0.0062    1.0327 O   0  0  0  0  0  0  0  0  0  0  0  0
    5.8408   -0.1187    0.9442 C   0  0  0  0  0  0  0  0  0  0  0  0
    4.8695   -0.2786   -0.0379 O   0  0  0  0  0  0  0  0  0  0  0  0
    3.4893   -0.3061    0.2344 C   0  0  0  0  0  0  0  0  0  0  0  0
    3.0544   -0.1689    1.5391 C   0  0  0  0  0  0  0  0  0  0  0  0
    1.6910   -0.1988    1.7852 C   0  0  0  0  0  0  0  0  0  0  0  0
    0.8040   -0.3627    0.7391 C   0  0  0  0  0  0  0  0  0  0  0  0
    1.2714   -0.4970   -0.5534 C   0  0  0  0  0  0  0  0  0  0  0  0
    2.6256   -0.4714   -0.8321 C   0  0  0  0  0  0  0  0  0  0  0  0
    3.0627   -0.6091   -2.1422 O   0  0  0  0  0  0  0  0  0  0  0  0
    3.2532    0.5010   -3.0103 C   0  0  0  0  0  0  0  0  0  0  0  0
    3.6868    0.0511   -4.2307 F   0  0  0  0  0  0  0  0  0  0  0  0
    4.1819    1.3338   -2.4473 F   0  0  0  0  0  0  0  0  0  0  0  0
    2.0782    1.2231   -3.1401 F   0  0  0  0  0  0  0  0  0  0  0  0
   -0.6419   -0.3842    1.0858 C   0  0  0  0  0  0  0  0  0  0  0  0
   -1.7000   -0.2182   -0.3746 P   0  0  0  0  0  0  0  0  0  0  0  0
   -1.2223    0.8735   -1.3058 O   0  0  0  0  0  0  0  0  0  0  0  0
   -3.3841    0.2048    0.1950 C   0  0  0  0  0  0  0  0  0  0  0  0
   -4.3824   -0.7480   -0.3884 C   0  0  0  0  0  0  0  0  0  0  0  0
   -5.7983   -0.4402    0.0540 C   0  0  2  0  0  0  0  0  0  0  0  0
   -6.0734    0.9570   -0.4269 C   0  0  0  0  0  0  0  0  0  0  0  0
   -5.9979    1.2599   -1.6460 O   0  0  0  0  0  0  0  0  0  0  0  0
   -6.4182    1.9422    0.4769 O   0  0  0  0  0  0  0  0  0  0  0  0
   -5.9513   -0.5245    1.4825 N   0  0  0  0  0  0  0  0  0  0  0  0
   -1.7363   -1.6672   -1.2462 O   0  0  0  0  0  0  0  0  0  0  0  0
   -0.9353    0.6577    1.9924 O   0  0  0  0  0  0  0  0  0  0  0  0
    8.1721    0.1000   -1.5214 H   0  0  0  0  0  0  0  0  0  0  0  0
    5.7020    0.7642    1.5994 H   0  0  0  0  0  0  0  0  0  0  0  0
    5.8044   -1.0229    1.6097 H   0  0  0  0  0  0  0  0  0  0  0  0
    3.7637   -0.0397    2.3603 H   0  0  0  0  0  0  0  0  0  0  0  0
    1.3738   -0.0895    2.8142 H   0  0  0  0  0  0  0  0  0  0  0  0
    0.5709   -0.6247   -1.3660 H   0  0  0  0  0  0  0  0  0  0  0  0
   -0.9604   -1.3181    1.5964 H   0  0  0  0  0  0  0  0  0  0  0  0
   -3.6598    1.2266   -0.1038 H   0  0  0  0  0  0  0  0  0  0  0  0
   -3.4526    0.1403    1.3074 H   0  0  0  0  0  0  0  0  0  0  0  0
   -4.1160   -1.8061   -0.1170 H   0  0  0  0  0  0  0  0  0  0  0  0
   -4.3513   -0.6432   -1.4935 H   0  0  0  0  0  0  0  0  0  0  0  0
   -6.4644   -1.1562   -0.4687 H   0  0  0  0  0  0  0  0  0  0  0  0
   -6.3361    2.9297    0.2846 H   0  0  0  0  0  0  0  0  0  0  0  0
   -5.1894   -1.1153    1.8616 H   0  0  0  0  0  0  0  0  0  0  0  0
   -5.8129    0.4405    1.8743 H   0  0  0  0  0  0  0  0  0  0  0  0
   -2.2524   -2.3666   -0.7317 H   0  0  0  0  0  0  0  0  0  0  0  0
   -1.1536    1.4889    1.5198 H   0  0  0  0  0  0  0  0  0  0  0  0
  1  2  1  0
  2  3  2  0
  2  4  1  0
  4  5  1  0
  5  6  1  0
  6  7  2  0
  7  8  1  0
  8  9  2  0
  9 10  1  0
 10 11  2  0
 11 12  1  0
 12 13  1  0
 13 14  1  0
 13 15  1  0
 13 16  1  0
  9 17  1  0
 17 18  1  0
 18 19  2  0
 18 20  1  0
 20 21  1  0
 21 22  1  0
 22 23  1  0
 23 24  2  0
 23 25  1  0
 22 26  1  0
 18 27  1  0
 17 28  1  0
 11  6  1  0
  1 29  1  0
  4 30  1  0
  4 31  1  0
  7 32  1  0
  8 33  1  0
 10 34  1  0
 17 35  1  0
 20 36  1  0
 20 37  1  0
 21 38  1  0
 21 39  1  0
 22 40  1  6
 25 41  1  0
 26 42  1  0
 26 43  1  0
 27 44  1  0
 28 45  1  0
M  END
>  <Ligand ID>  (1) 
LIG0002479

>  <Ligand>  (1) 
US9212196, Derivative 20

>  <SMILES>  (1) 
OC(=O)COc1ccc(cc1OC(F)(F)F)C(P(=O)(CC[C@H](C(=O)O)N)O)O

>  <CID>  (1) 
122197950.0

>  <ChEMBL ID>  (1) 
nan

>  <InChiKey>  (1) 
NTRJZUQSNSIKLO-UOGPZTOASA-N

>  <InChi>  (1) 
InChI=1S/C14H17F3NO9P/c15-14(16,17)27-10-5-7(1-2-9(10)26-6-11(19)20)13(23)28(24,25)4-3-8(18)12(21)22/h1-2,5,8,13,23H,3-4,6,18H2,(H,19,20)(H,21,22)(H,24,25)/t8-,13?/m1/s1

>  <IUPAC Name>  (1) 
(2R)-2-amino-4-[[[4-(carboxymethoxy)-3-(trifluoromethoxy)phenyl]-hydroxymethyl]-hydroxyphosphoryl]butanoic acid

$$$$
