
     RDKit          3D

 75 73  0  0  0  0  0  0  0  0999 V2000
   10.0895   -0.3417    3.4836 C   0  0  0  0  0  0  0  0  0  0  0  0
    9.1573   -0.6853    2.3052 C   0  0  0  0  0  0  0  0  0  0  0  0
    7.8879    0.0558    2.4756 C   0  0  0  0  0  0  0  0  0  0  0  0
    6.8352   -0.1963    1.3803 C   0  0  0  0  0  0  0  0  0  0  0  0
    7.3819    0.2209    0.0948 C   0  0  0  0  0  0  0  0  0  0  0  0
    6.6855    0.1100   -1.1737 C   0  0  0  0  0  0  0  0  0  0  0  0
    5.4226    0.7421   -1.5164 C   0  0  0  0  0  0  0  0  0  0  0  0
    4.2148    0.3394   -0.7311 C   0  0  0  0  0  0  0  0  0  0  0  0
    2.9667    1.0736   -1.2000 C   0  0  0  0  0  0  0  0  0  0  0  0
    2.6722    0.7932   -2.6337 C   0  0  0  0  0  0  0  0  0  0  0  0
    1.4194    1.5264   -3.0744 C   0  0  0  0  0  0  0  0  0  0  0  0
    0.2160    1.0996   -2.2577 C   0  0  0  0  0  0  0  0  0  0  0  0
   -0.0691   -0.3602   -2.3795 C   0  0  0  0  0  0  0  0  0  0  0  0
   -1.2620   -0.7313   -1.5495 C   0  0  0  0  0  0  0  0  0  0  0  0
   -2.4857    0.0059   -1.9740 C   0  0  0  0  0  0  0  0  0  0  0  0
   -3.7057   -0.3569   -1.1542 C   0  0  0  0  0  0  0  0  0  0  0  0
   -4.0634   -1.8148   -1.2335 C   0  0  0  0  0  0  0  0  0  0  0  0
   -5.2677   -2.0579   -0.3970 C   0  0  0  0  0  0  0  0  0  0  0  0
   -5.7683   -3.2238   -0.3004 O   0  0  0  0  0  0  0  0  0  0  0  0
   -5.8798   -1.0269    0.3004 O   0  0  0  0  0  0  0  0  0  0  0  0
   -7.0782   -1.3770    1.1074 C   0  0  0  0  0  0  0  0  0  0  0  0
   -8.1565   -0.4186    0.6040 C   0  0  0  0  0  0  0  0  0  0  0  0
   -7.8214    0.9008    0.8650 O   0  0  0  0  0  0  0  0  0  0  0  0
   -9.0010    1.9798    0.3158 P   0  0  0  0  0  0  0  0  0  0  0  0
  -10.5370    1.2401    0.4075 S   0  0  0  0  0  0  0  0  0  0  0  0
   -8.9193    3.3901    1.2561 O   0  0  0  0  0  0  0  0  0  0  0  0
   -8.7223    2.4368   -1.2935 O   0  0  0  0  0  0  0  0  0  0  0  0
   -6.6423   -0.9621    2.4820 C   0  0  0  0  0  0  0  0  0  0  0  0
   -7.3494   -1.2336    3.5743 O   0  0  0  0  0  0  0  0  0  0  0  0
   -8.6086   -0.8039    3.7094 C   0  0  0  0  0  0  0  0  0  0  0  0
    0.0000    0.0000    0.0000 Na  0  0  0  0  0 15  0  0  0  0  0  0
   10.8745    0.3828    3.1780 H   0  0  0  0  0  0  0  0  0  0  0  0
   10.5986   -1.2382    3.8729 H   0  0  0  0  0  0  0  0  0  0  0  0
    9.5006    0.1449    4.2883 H   0  0  0  0  0  0  0  0  0  0  0  0
    8.9364   -1.7815    2.4497 H   0  0  0  0  0  0  0  0  0  0  0  0
    9.6818   -0.5955    1.3613 H   0  0  0  0  0  0  0  0  0  0  0  0
    7.3749   -0.1772    3.4382 H   0  0  0  0  0  0  0  0  0  0  0  0
    8.0955    1.1584    2.5392 H   0  0  0  0  0  0  0  0  0  0  0  0
    5.9621    0.3665    1.7815 H   0  0  0  0  0  0  0  0  0  0  0  0
    6.6150   -1.2820    1.4837 H   0  0  0  0  0  0  0  0  0  0  0  0
    8.3654   -0.3533   -0.0381 H   0  0  0  0  0  0  0  0  0  0  0  0
    7.7960    1.2780    0.2451 H   0  0  0  0  0  0  0  0  0  0  0  0
    7.4395    0.4364   -1.9789 H   0  0  0  0  0  0  0  0  0  0  0  0
    6.5769   -0.9972   -1.4737 H   0  0  0  0  0  0  0  0  0  0  0  0
    5.4723    1.8548   -1.6640 H   0  0  0  0  0  0  0  0  0  0  0  0
    5.1753    0.3992   -2.5806 H   0  0  0  0  0  0  0  0  0  0  0  0
    4.2777    0.3570    0.3433 H   0  0  0  0  0  0  0  0  0  0  0  0
    4.0151   -0.7384   -1.0258 H   0  0  0  0  0  0  0  0  0  0  0  0
    3.1327    2.1341   -1.0101 H   0  0  0  0  0  0  0  0  0  0  0  0
    2.1267    0.7378   -0.5450 H   0  0  0  0  0  0  0  0  0  0  0  0
    2.5616   -0.2703   -2.8396 H   0  0  0  0  0  0  0  0  0  0  0  0
    3.4921    1.2682   -3.2492 H   0  0  0  0  0  0  0  0  0  0  0  0
    1.2239    1.3345   -4.1293 H   0  0  0  0  0  0  0  0  0  0  0  0
    1.5564    2.6169   -2.8964 H   0  0  0  0  0  0  0  0  0  0  0  0
   -0.6457    1.6545   -2.7354 H   0  0  0  0  0  0  0  0  0  0  0  0
    0.2731    1.4350   -1.2181 H   0  0  0  0  0  0  0  0  0  0  0  0
    0.7977   -0.9889   -2.1082 H   0  0  0  0  0  0  0  0  0  0  0  0
   -0.3571   -0.5412   -3.4459 H   0  0  0  0  0  0  0  0  0  0  0  0
   -1.0968   -0.4802   -0.4622 H   0  0  0  0  0  0  0  0  0  0  0  0
   -1.4440   -1.8354   -1.5431 H   0  0  0  0  0  0  0  0  0  0  0  0
   -2.6966   -0.1926   -3.0310 H   0  0  0  0  0  0  0  0  0  0  0  0
   -2.3193    1.1011   -1.7471 H   0  0  0  0  0  0  0  0  0  0  0  0
   -3.6441   -0.0504   -0.1079 H   0  0  0  0  0  0  0  0  0  0  0  0
   -4.5501    0.2023   -1.6234 H   0  0  0  0  0  0  0  0  0  0  0  0
   -3.2299   -2.3605   -0.7071 H   0  0  0  0  0  0  0  0  0  0  0  0
   -4.1577   -2.1861   -2.2614 H   0  0  0  0  0  0  0  0  0  0  0  0
   -7.3174   -2.4119    1.0410 H   0  0  0  0  0  0  0  0  0  0  0  0
   -9.1288   -0.6552    0.9676 H   0  0  0  0  0  0  0  0  0  0  0  0
   -8.1274   -0.4648   -0.5457 H   0  0  0  0  0  0  0  0  0  0  0  0
   -7.9755    3.6325    1.4206 H   0  0  0  0  0  0  0  0  0  0  0  0
   -6.3411    0.1558    2.4474 H   0  0  0  0  0  0  0  0  0  0  0  0
   -5.5873   -1.4081    2.6814 H   0  0  0  0  0  0  0  0  0  0  0  0
   -9.2887   -1.2682    2.9937 H   0  0  0  0  0  0  0  0  0  0  0  0
   -8.6713    0.3187    3.5894 H   0  0  0  0  0  0  0  0  0  0  0  0
   -8.9543   -1.0170    4.7592 H   0  0  0  0  0  0  0  0  0  0  0  0
  1  2  1  0
  2  3  1  0
  3  4  1  0
  4  5  1  0
  5  6  1  0
  6  7  1  0
  7  8  1  0
  8  9  1  0
  9 10  1  0
 10 11  1  0
 11 12  1  0
 12 13  1  0
 13 14  1  0
 14 15  1  0
 15 16  1  0
 16 17  1  0
 17 18  1  0
 18 19  2  0
 18 20  1  0
 20 21  1  0
 21 22  1  0
 22 23  1  0
 23 24  1  0
 24 25  2  0
 24 26  1  0
 24 27  1  0
 21 28  1  0
 28 29  1  0
 29 30  1  0
  1 32  1  0
  1 33  1  0
  1 34  1  0
  2 35  1  0
  2 36  1  0
  3 37  1  0
  3 38  1  0
  4 39  1  0
  4 40  1  0
  5 41  1  0
  5 42  1  0
  6 43  1  0
  6 44  1  0
  7 45  1  0
  7 46  1  0
  8 47  1  0
  8 48  1  0
  9 49  1  0
  9 50  1  0
 10 51  1  0
 10 52  1  0
 11 53  1  0
 11 54  1  0
 12 55  1  0
 12 56  1  0
 13 57  1  0
 13 58  1  0
 14 59  1  0
 14 60  1  0
 15 61  1  0
 15 62  1  0
 16 63  1  0
 16 64  1  0
 17 65  1  0
 17 66  1  0
 21 67  1  0
 22 68  1  0
 22 69  1  0
 26 70  1  0
 28 71  1  0
 28 72  1  0
 30 73  1  0
 30 74  1  0
 30 75  1  0
M  CHG  2  27  -1  31   1
M  END
>  <Ligand ID>  (1) 
LIG0000695

>  <Ligand>  (1) 
CHEMBL2335051

>  <SMILES>  (1) 
CCCCCCCCCCCCCCCCCC(=O)OC(COP(=S)(O)[O-])COC.[Na+]

>  <CID>  (1) 
71569056.0

>  <ChEMBL ID>  (1) 
nan

>  <InChiKey>  (1) 
KTWPYUZVWBPKHU-UHFFFAOYSA-M

>  <InChi>  (1) 
InChI=1S/C22H45O6PS.Na/c1-3-4-5-6-7-8-9-10-11-12-13-14-15-16-17-18-22(23)28-21(19-26-2)20-27-29(24,25)30;/h21H,3-20H2,1-2H3,(H2,24,25,30);/q;+1/p-1

>  <IUPAC Name>  (1) 
sodium;[1-[hydroxy(oxido)phosphinothioyl]oxy-3-methoxypropan-2-yl] octadecanoate

$$$$
