
     RDKit          3D

144148  0  0  0  0  0  0  0  0999 V2000
    7.5129    2.4418   -1.7945 C   0  0  0  0  0  0  0  0  0  0  0  0
    6.4242    2.0922   -2.7505 C   0  0  0  0  0  0  0  0  0  0  0  0
    5.1127    2.6722   -2.5248 C   0  0  0  0  0  0  0  0  0  0  0  0
    4.2328    2.5383   -1.3855 C   0  0  0  0  0  0  0  0  0  0  0  0
    3.5868    1.3124   -0.9059 C   0  0  2  0  0  0  0  0  0  0  0  0
    2.6469    1.6862    0.2374 N   0  0  0  0  0  0  0  0  0  0  0  0
    1.2819    1.3994    0.1581 C   0  0  0  0  0  0  0  0  0  0  0  0
    0.5896    1.6851    1.2148 O   0  0  0  0  0  0  0  0  0  0  0  0
    0.5156    0.8186   -0.9375 C   0  0  2  0  0  0  0  0  0  0  0  0
   -0.0840    1.9123   -1.8464 C   0  0  0  0  0  0  0  0  0  0  0  0
    0.7153    2.8391   -2.5450 C   0  0  0  0  0  0  0  0  0  0  0  0
    0.8562    4.2094   -2.2680 C   0  0  0  0  0  0  0  0  0  0  0  0
    1.6504    4.7523   -3.2066 N   0  0  0  0  0  0  0  0  0  0  0  0
    2.0368    3.8274   -4.0794 C   0  0  0  0  0  0  0  0  0  0  0  0
    1.4731    2.6432   -3.6890 C   0  0  0  0  0  0  0  0  0  0  0  0
    1.7064    1.4927   -4.4326 C   0  0  0  0  0  0  0  0  0  0  0  0
    2.5001    1.5470   -5.5619 C   0  0  0  0  0  0  0  0  0  0  0  0
    3.0439    2.7701   -5.9147 C   0  0  0  0  0  0  0  0  0  0  0  0
    2.8398    3.9311   -5.2044 C   0  0  0  0  0  0  0  0  0  0  0  0
   -0.7656    0.2323   -0.3665 N   0  0  0  0  0  0  0  0  0  0  0  0
   -1.2525   -0.9489   -0.9734 C   0  0  0  0  0  0  0  0  0  0  0  0
   -0.5255   -1.4357   -1.9151 O   0  0  0  0  0  0  0  0  0  0  0  0
   -2.4788   -1.6553   -0.6544 C   0  0  0  0  0  0  0  0  0  0  0  0
   -3.3395   -1.0984    0.3459 N   0  0  0  0  0  0  0  0  0  0  0  0
   -3.7911    0.2720    0.0509 C   0  0  0  0  0  0  0  0  0  0  0  0
   -3.3447    0.7339   -1.0006 O   0  0  0  0  0  0  0  0  0  0  0  0
   -4.6730    0.8605    1.0391 C   0  0  2  0  0  0  0  0  0  0  0  0
   -5.8334    0.0755    1.3236 N   0  0  0  0  0  0  0  0  0  0  0  0
   -6.2263   -0.5476    2.5126 C   0  0  0  0  0  0  0  0  0  0  0  0
   -5.5012   -0.4658    3.5478 O   0  0  0  0  0  0  0  0  0  0  0  0
   -7.5066   -1.3046    2.5546 C   0  0  1  0  0  0  0  0  0  0  0  0
   -8.1209   -1.2172    1.2491 N   0  0  0  0  0  0  0  0  0  0  0  0
   -9.2957   -0.5032    0.9551 C   0  0  0  0  0  0  0  0  0  0  0  0
   -9.8650    0.1056    1.9003 O   0  0  0  0  0  0  0  0  0  0  0  0
   -9.8955   -0.4223   -0.3752 C   0  0  2  0  0  0  0  0  0  0  0  0
  -11.3010   -0.9070   -0.4936 C   0  0  0  0  0  0  0  0  0  0  0  0
  -12.2326   -0.1333    0.3865 C   0  0  0  0  0  0  0  0  0  0  0  0
  -12.4051   -0.4406    1.6092 O   0  0  0  0  0  0  0  0  0  0  0  0
  -12.9578    0.9535   -0.0710 O   0  0  0  0  0  0  0  0  0  0  0  0
   -9.0648   -1.2033   -1.2833 N   0  0  0  0  0  0  0  0  0  0  0  0
   -7.3960   -2.7341    2.9528 C   0  0  0  0  0  0  0  0  0  0  0  0
   -8.8091   -3.2710    2.8985 C   0  0  0  0  0  0  0  0  0  0  0  0
   -9.6486   -3.1681    3.9994 C   0  0  0  0  0  0  0  0  0  0  0  0
  -10.9349   -3.6700    3.8631 C   0  0  0  0  0  0  0  0  0  0  0  0
  -11.3796   -4.2534    2.6820 C   0  0  0  0  0  0  0  0  0  0  0  0
  -10.4959   -4.3344    1.5997 C   0  0  0  0  0  0  0  0  0  0  0  0
   -9.2117   -3.8451    1.7063 C   0  0  0  0  0  0  0  0  0  0  0  0
  -12.6887   -4.7524    2.5644 O   0  0  0  0  0  0  0  0  0  0  0  0
   -5.0185    2.2797    0.7772 C   0  0  0  0  0  0  0  0  0  0  0  0
   -5.6924    2.5580   -0.4868 C   0  0  0  0  0  0  0  0  0  0  0  0
   -5.0627    3.0098   -1.6265 C   0  0  0  0  0  0  0  0  0  0  0  0
   -5.7116    3.2628   -2.8149 C   0  0  0  0  0  0  0  0  0  0  0  0
   -7.0911    3.0669   -2.9289 C   0  0  0  0  0  0  0  0  0  0  0  0
   -7.7388    2.6124   -1.7899 C   0  0  0  0  0  0  0  0  0  0  0  0
   -7.0801    2.3609   -0.6014 C   0  0  0  0  0  0  0  0  0  0  0  0
    3.1949    2.3421    1.4024 C   0  0  0  0  0  0  0  0  0  0  0  0
    4.4852    0.3271   -0.2679 C   0  0  0  0  0  0  0  0  0  0  0  0
    4.3256    0.2268    1.0167 O   0  0  0  0  0  0  0  0  0  0  0  0
    5.4497   -0.4980   -0.8105 N   0  0  0  0  0  0  0  0  0  0  0  0
    6.2129   -1.4178    0.0273 C   0  0  2  0  0  0  0  0  0  0  0  0
    7.3308   -0.7665    0.7200 C   0  0  0  0  0  0  0  0  0  0  0  0
    7.3135    0.5074    0.7481 O   0  0  0  0  0  0  0  0  0  0  0  0
    8.4274   -1.3885    1.3617 N   0  0  0  0  0  0  0  0  0  0  0  0
    9.4034   -0.4985    1.9916 C   0  0  2  0  0  0  0  0  0  0  0  0
   10.6618   -0.3815    1.1668 C   0  0  0  0  0  0  0  0  0  0  0  0
   10.8465   -1.0537    0.1279 O   0  0  0  0  0  0  0  0  0  0  0  0
   11.6761    0.5139    1.5600 N   0  0  0  0  0  0  0  0  0  0  0  0
    9.8162   -1.0052    3.3505 C   0  0  0  0  0  0  0  0  0  0  0  0
   10.4403   -2.3617    3.3012 C   0  0  0  0  0  0  0  0  0  0  0  0
    9.7247   -3.5275    3.3960 C   0  0  0  0  0  0  0  0  0  0  0  0
   10.3311   -4.7791    3.3399 C   0  0  0  0  0  0  0  0  0  0  0  0
   11.7108   -4.8929    3.1833 C   0  0  0  0  0  0  0  0  0  0  0  0
   12.4359   -3.7168    3.0884 C   0  0  0  0  0  0  0  0  0  0  0  0
   11.8308   -2.4681    3.1443 C   0  0  0  0  0  0  0  0  0  0  0  0
    6.6404   -2.5946   -0.7506 C   0  0  0  0  0  0  0  0  0  0  0  0
    7.5040   -2.2265   -1.8899 C   0  0  0  0  0  0  0  0  0  0  0  0
    7.1035   -1.7382   -2.9757 O   0  0  0  0  0  0  0  0  0  0  0  0
    8.8801   -2.4245   -1.7865 O   0  0  0  0  0  0  0  0  0  0  0  0
    7.1779    2.9068   -0.8639 H   0  0  0  0  0  0  0  0  0  0  0  0
    8.1644    1.5707   -1.5430 H   0  0  0  0  0  0  0  0  0  0  0  0
    8.2325    3.1599   -2.2967 H   0  0  0  0  0  0  0  0  0  0  0  0
    6.4808    1.0262   -3.0329 H   0  0  0  0  0  0  0  0  0  0  0  0
    6.7866    2.5800   -3.7533 H   0  0  0  0  0  0  0  0  0  0  0  0
    4.4803    2.3744   -3.4599 H   0  0  0  0  0  0  0  0  0  0  0  0
    5.2023    3.8006   -2.7327 H   0  0  0  0  0  0  0  0  0  0  0  0
    3.3807    3.2951   -1.5568 H   0  0  0  0  0  0  0  0  0  0  0  0
    4.7425    3.0845   -0.4840 H   0  0  0  0  0  0  0  0  0  0  0  0
    2.9187    0.8492   -1.6377 H   0  0  0  0  0  0  0  0  0  0  0  0
    1.0080    0.0574   -1.5113 H   0  0  0  0  0  0  0  0  0  0  0  0
   -0.8348    2.5011   -1.2067 H   0  0  0  0  0  0  0  0  0  0  0  0
   -0.7071    1.2963   -2.5806 H   0  0  0  0  0  0  0  0  0  0  0  0
    0.4039    4.7151   -1.4463 H   0  0  0  0  0  0  0  0  0  0  0  0
    1.8890    5.7919   -3.1766 H   0  0  0  0  0  0  0  0  0  0  0  0
    1.2591    0.5469   -4.1245 H   0  0  0  0  0  0  0  0  0  0  0  0
    2.6691    0.6509   -6.1302 H   0  0  0  0  0  0  0  0  0  0  0  0
    3.6641    2.8304   -6.7859 H   0  0  0  0  0  0  0  0  0  0  0  0
    3.2547    4.8884   -5.4595 H   0  0  0  0  0  0  0  0  0  0  0  0
   -1.2100    0.7030    0.4426 H   0  0  0  0  0  0  0  0  0  0  0  0
   -3.1249   -1.8373   -1.5735 H   0  0  0  0  0  0  0  0  0  0  0  0
   -2.2651   -2.7194   -0.3170 H   0  0  0  0  0  0  0  0  0  0  0  0
   -3.6457   -1.5709    1.2182 H   0  0  0  0  0  0  0  0  0  0  0  0
   -4.0212    0.8456    2.0176 H   0  0  0  0  0  0  0  0  0  0  0  0
   -6.5008   -0.0470    0.4912 H   0  0  0  0  0  0  0  0  0  0  0  0
   -8.1601   -0.7613    3.2888 H   0  0  0  0  0  0  0  0  0  0  0  0
   -7.6446   -1.7316    0.4469 H   0  0  0  0  0  0  0  0  0  0  0  0
   -9.8160    0.6263   -0.7512 H   0  0  0  0  0  0  0  0  0  0  0  0
  -11.4238   -1.9901   -0.3651 H   0  0  0  0  0  0  0  0  0  0  0  0
  -11.6390   -0.6685   -1.5419 H   0  0  0  0  0  0  0  0  0  0  0  0
  -13.2647    1.6407    0.6096 H   0  0  0  0  0  0  0  0  0  0  0  0
   -8.3213   -0.6209   -1.7348 H   0  0  0  0  0  0  0  0  0  0  0  0
   -9.6669   -1.7097   -1.9831 H   0  0  0  0  0  0  0  0  0  0  0  0
   -6.7735   -3.3579    2.3133 H   0  0  0  0  0  0  0  0  0  0  0  0
   -7.1335   -2.7701    4.0278 H   0  0  0  0  0  0  0  0  0  0  0  0
   -9.3058   -2.7174    4.9119 H   0  0  0  0  0  0  0  0  0  0  0  0
  -11.6461   -3.6208    4.6778 H   0  0  0  0  0  0  0  0  0  0  0  0
  -10.8419   -4.7924    0.6660 H   0  0  0  0  0  0  0  0  0  0  0  0
   -8.5529   -3.9210    0.8633 H   0  0  0  0  0  0  0  0  0  0  0  0
  -13.4545   -4.1149    2.3109 H   0  0  0  0  0  0  0  0  0  0  0  0
   -5.7098    2.6694    1.5884 H   0  0  0  0  0  0  0  0  0  0  0  0
   -4.0695    2.8867    0.8013 H   0  0  0  0  0  0  0  0  0  0  0  0
   -3.9985    3.2084   -1.6182 H   0  0  0  0  0  0  0  0  0  0  0  0
   -5.1745    3.6168   -3.6797 H   0  0  0  0  0  0  0  0  0  0  0  0
   -7.6228    3.2625   -3.8460 H   0  0  0  0  0  0  0  0  0  0  0  0
   -8.8183    2.4712   -1.9076 H   0  0  0  0  0  0  0  0  0  0  0  0
   -7.6831    2.0134    0.2178 H   0  0  0  0  0  0  0  0  0  0  0  0
    4.2844    2.4735    1.3081 H   0  0  0  0  0  0  0  0  0  0  0  0
    3.0450    1.6954    2.3025 H   0  0  0  0  0  0  0  0  0  0  0  0
    2.7209    3.3369    1.5631 H   0  0  0  0  0  0  0  0  0  0  0  0
    5.6129   -0.5058   -1.8221 H   0  0  0  0  0  0  0  0  0  0  0  0
    5.5051   -1.7676    0.8621 H   0  0  0  0  0  0  0  0  0  0  0  0
    8.4822   -2.4068    1.3515 H   0  0  0  0  0  0  0  0  0  0  0  0
    8.9627    0.5135    2.1260 H   0  0  0  0  0  0  0  0  0  0  0  0
   12.0369    0.6518    2.5245 H   0  0  0  0  0  0  0  0  0  0  0  0
   12.1266    1.1097    0.8049 H   0  0  0  0  0  0  0  0  0  0  0  0
    8.9691   -1.0432    4.0709 H   0  0  0  0  0  0  0  0  0  0  0  0
   10.6148   -0.3122    3.7157 H   0  0  0  0  0  0  0  0  0  0  0  0
    8.6566   -3.4700    3.5227 H   0  0  0  0  0  0  0  0  0  0  0  0
    9.7130   -5.6816    3.4137 H   0  0  0  0  0  0  0  0  0  0  0  0
   12.2148   -5.8601    3.1309 H   0  0  0  0  0  0  0  0  0  0  0  0
   13.5065   -3.8286    2.9671 H   0  0  0  0  0  0  0  0  0  0  0  0
   12.4812   -1.6246    3.0732 H   0  0  0  0  0  0  0  0  0  0  0  0
    7.1685   -3.3626   -0.1319 H   0  0  0  0  0  0  0  0  0  0  0  0
    5.7222   -3.0936   -1.2227 H   0  0  0  0  0  0  0  0  0  0  0  0
    9.4419   -2.5631   -2.6250 H   0  0  0  0  0  0  0  0  0  0  0  0
  1  2  1  0
  2  3  1  0
  3  4  1  0
  4  5  1  0
  5  6  1  0
  6  7  1  0
  7  8  2  0
  7  9  1  0
  9 10  1  0
 10 11  1  0
 11 12  2  0
 12 13  1  0
 13 14  1  0
 14 15  2  0
 15 16  1  0
 16 17  2  0
 17 18  1  0
 18 19  2  0
  9 20  1  0
 20 21  1  0
 21 22  2  0
 21 23  1  0
 23 24  1  0
 24 25  1  0
 25 26  2  0
 25 27  1  0
 27 28  1  0
 28 29  1  0
 29 30  2  0
 29 31  1  0
 31 32  1  0
 32 33  1  0
 33 34  2  0
 33 35  1  0
 35 36  1  0
 36 37  1  0
 37 38  2  0
 37 39  1  0
 35 40  1  0
 31 41  1  0
 41 42  1  0
 42 43  2  0
 43 44  1  0
 44 45  2  0
 45 46  1  0
 46 47  2  0
 45 48  1  0
 27 49  1  0
 49 50  1  0
 50 51  2  0
 51 52  1  0
 52 53  2  0
 53 54  1  0
 54 55  2  0
  6 56  1  0
  5 57  1  0
 57 58  2  0
 57 59  1  0
 59 60  1  0
 60 61  1  0
 61 62  2  0
 61 63  1  0
 63 64  1  0
 64 65  1  0
 65 66  2  0
 65 67  1  0
 64 68  1  0
 68 69  1  0
 69 70  2  0
 70 71  1  0
 71 72  2  0
 72 73  1  0
 73 74  2  0
 60 75  1  0
 75 76  1  0
 76 77  2  0
 76 78  1  0
 15 11  1  0
 47 42  1  0
 55 50  1  0
 74 69  1  0
 19 14  1  0
  1 79  1  0
  1 80  1  0
  1 81  1  0
  2 82  1  0
  2 83  1  0
  3 84  1  0
  3 85  1  0
  4 86  1  0
  4 87  1  0
  5 88  1  6
  9 89  1  6
 10 90  1  0
 10 91  1  0
 12 92  1  0
 13 93  1  0
 16 94  1  0
 17 95  1  0
 18 96  1  0
 19 97  1  0
 20 98  1  0
 23 99  1  0
 23100  1  0
 24101  1  0
 27102  1  1
 28103  1  0
 31104  1  1
 32105  1  0
 35106  1  6
 36107  1  0
 36108  1  0
 39109  1  0
 40110  1  0
 40111  1  0
 41112  1  0
 41113  1  0
 43114  1  0
 44115  1  0
 46116  1  0
 47117  1  0
 48118  1  0
 49119  1  0
 49120  1  0
 51121  1  0
 52122  1  0
 53123  1  0
 54124  1  0
 55125  1  0
 56126  1  0
 56127  1  0
 56128  1  0
 59129  1  0
 60130  1  1
 63131  1  0
 64132  1  1
 67133  1  0
 67134  1  0
 68135  1  0
 68136  1  0
 70137  1  0
 71138  1  0
 72139  1  0
 73140  1  0
 74141  1  0
 75142  1  0
 75143  1  0
 78144  1  0
M  END
>  <Ligand ID>  (1) 
LIG0004148

>  <Ligand>  (1) 
Snf-9007

>  <SMILES>  (1) 
CCCC[C@H](N(C(=O)[C@H](Cc1c[nH]c2c1cccc2)NC(=O)CNC(=O)[C@H](NC(=O)[C@@H](NC(=O)[C@H](CC(=O)O)N)Cc1ccc(cc1)O)Cc1ccccc1)C)C(=O)N[C@H](C(=O)N[C@H](C(=O)N)Cc1ccccc1)CC(=O)O

>  <CID>  (1) 
9898185.0

>  <ChEMBL ID>  (1) 
nan

>  <InChiKey>  (1) 
IJHCWGDIGBABKC-GDHOWUIUSA-N

>  <InChi>  (1) 
InChI=1S/C55H66N10O13/c1-3-4-19-45(54(77)64-43(29-48(70)71)53(76)61-40(49(57)72)24-32-13-7-5-8-14-32)65(2)55(78)44(27-35-30-58-39-18-12-11-17-37(35)39)60-46(67)31-59-51(74)41(25-33-15-9-6-10-16-33)63-52(75)42(26-34-20-22-36(66)23-21-34)62-50(73)38(56)28-47(68)69/h5-18,20-23,30,38,40-45,58,66H,3-4,19,24-29,31,56H2,1-2H3,(H2,57,72)(H,59,74)(H,60,67)(H,61,76)(H,62,73)(H,63,75)(H,64,77)(H,68,69)(H,70,71)/t38-,40-,41+,42-,43-,44-,45-/m0/s1

>  <IUPAC Name>  (1) 
(3S)-3-amino-4-[[(2S)-1-[[(2R)-1-[[2-[[(2S)-1-[[(2S)-1-[[(2S)-1-[[(2S)-1-amino-1-oxo-3-phenylpropan-2-yl]amino]-3-carboxy-1-oxopropan-2-yl]amino]-1-oxohexan-2-yl]-methylamino]-3-(1H-indol-3-yl)-1-oxopropan-2-yl]amino]-2-oxoethyl]amino]-1-oxo-3-phenylpropan-2-yl]amino]-3-(4-hydroxyphenyl)-1-oxopropan-2-yl]amino]-4-oxobutanoic acid

$$$$
