
     RDKit          3D

 29 28  0  0  0  0  0  0  0  0999 V2000
    4.1646   -0.7506    0.8792 C   0  0  0  0  0  0  0  0  0  0  0  0
    3.1038   -0.0395    0.0355 C   0  0  0  0  0  0  0  0  0  0  0  0
    1.9392    0.2080    0.9354 C   0  0  0  0  0  0  0  0  0  0  0  0
    0.7849    0.9042    0.2821 C   0  0  0  0  0  0  0  0  0  0  0  0
    0.1974    0.1707   -0.8758 C   0  0  0  0  0  0  0  0  0  0  0  0
   -0.9227    0.9987   -1.3939 C   0  0  0  0  0  0  0  0  0  0  0  0
   -2.1794    0.6063   -1.4587 C   0  0  0  0  0  0  0  0  0  0  0  0
   -2.7098   -0.6934   -1.0427 C   0  0  0  0  0  0  0  0  0  0  0  0
   -3.7436   -0.4109    0.0490 C   0  0  0  0  0  0  0  0  0  0  0  0
   -3.0734    0.2896    1.1951 C   0  0  0  0  0  0  0  0  0  0  0  0
   -2.4092   -0.4459    1.9353 O   0  0  0  0  0  0  0  0  0  0  0  0
    4.9780   -1.1606    0.2698 H   0  0  0  0  0  0  0  0  0  0  0  0
    4.6053    0.0635    1.5273 H   0  0  0  0  0  0  0  0  0  0  0  0
    3.7206   -1.4576    1.6073 H   0  0  0  0  0  0  0  0  0  0  0  0
    2.8712   -0.7424   -0.7988 H   0  0  0  0  0  0  0  0  0  0  0  0
    3.6003    0.8880   -0.3176 H   0  0  0  0  0  0  0  0  0  0  0  0
    1.6336   -0.7898    1.3466 H   0  0  0  0  0  0  0  0  0  0  0  0
    2.3001    0.7941    1.8051 H   0  0  0  0  0  0  0  0  0  0  0  0
   -0.0120    1.0131    1.0466 H   0  0  0  0  0  0  0  0  0  0  0  0
    1.1113    1.9308    0.0167 H   0  0  0  0  0  0  0  0  0  0  0  0
    0.9043    0.0678   -1.7351 H   0  0  0  0  0  0  0  0  0  0  0  0
   -0.0638   -0.8456   -0.5930 H   0  0  0  0  0  0  0  0  0  0  0  0
   -0.6526    2.0024   -1.7393 H   0  0  0  0  0  0  0  0  0  0  0  0
   -2.8990    1.3325   -1.8675 H   0  0  0  0  0  0  0  0  0  0  0  0
   -2.0049   -1.4205   -0.6591 H   0  0  0  0  0  0  0  0  0  0  0  0
   -3.3090   -1.0863   -1.9048 H   0  0  0  0  0  0  0  0  0  0  0  0
   -4.5400    0.2597   -0.3188 H   0  0  0  0  0  0  0  0  0  0  0  0
   -4.2234   -1.3201    0.4261 H   0  0  0  0  0  0  0  0  0  0  0  0
   -3.1718    1.3483    1.3480 H   0  0  0  0  0  0  0  0  0  0  0  0
  1  2  1  0
  2  3  1  0
  3  4  1  0
  4  5  1  0
  5  6  1  0
  6  7  2  0
  7  8  1  0
  8  9  1  0
  9 10  1  0
 10 11  2  0
  1 12  1  0
  1 13  1  0
  1 14  1  0
  2 15  1  0
  2 16  1  0
  3 17  1  0
  3 18  1  0
  4 19  1  0
  4 20  1  0
  5 21  1  0
  5 22  1  0
  6 23  1  0
  7 24  1  0
  8 25  1  0
  8 26  1  0
  9 27  1  0
  9 28  1  0
 10 29  1  0
M  END
>  <Ligand ID>  (1) 
LIG0000158

>  <Ligand>  (1) 
(Z)-4-Decenal

>  <SMILES>  (1) 
CCCCC/C=C\CCC=O

>  <CID>  (1) 
5362620.0

>  <ChEMBL ID>  (1) 
nan

>  <InChiKey>  (1) 
CWRKZMLUDFBPAO-SREVYHEPSA-N

>  <InChi>  (1) 
InChI=1S/C10H18O/c1-2-3-4-5-6-7-8-9-10-11/h6-7,10H,2-5,8-9H2,1H3/b7-6-

>  <IUPAC Name>  (1) 
(Z)-dec-4-enal

$$$$
