
     RDKit          3D

 29 31  0  0  0  0  0  0  0  0999 V2000
   -1.0930   -2.8146   -0.4989 O   0  0  0  0  0  0  0  0  0  0  0  0
   -0.4409   -1.8035   -0.2002 C   0  0  0  0  0  0  0  0  0  0  0  0
    0.9878   -1.8309    0.0401 N   0  0  0  0  0  0  0  0  0  0  0  0
    1.7099   -0.6652   -0.3853 C   0  0  2  0  0  0  0  0  0  0  0  0
    3.1543   -0.6034   -0.0445 C   0  0  0  0  0  0  0  0  0  0  0  0
    3.4315    0.7977    0.3171 N   0  0  0  0  0  0  0  0  0  0  0  0
    2.1457    1.5105    0.2198 C   0  0  0  0  0  0  0  0  0  0  0  0
    1.2020    0.4420    0.5582 C   0  0  1  0  0  0  0  0  0  0  0  0
   -0.2103    0.5947    0.2936 C   0  0  0  0  0  0  0  0  0  0  0  0
   -1.0467   -0.4604   -0.0532 C   0  0  0  0  0  0  0  0  0  0  0  0
   -2.3975   -0.3079   -0.2756 C   0  0  0  0  0  0  0  0  0  0  0  0
   -2.9034    0.9759   -0.1353 C   0  0  0  0  0  0  0  0  0  0  0  0
   -2.1329    2.0624    0.2045 C   0  0  0  0  0  0  0  0  0  0  0  0
   -0.7895    1.8405    0.4124 C   0  0  0  0  0  0  0  0  0  0  0  0
   -3.2812   -1.4060   -0.6674 C   0  0  0  0  0  0  0  0  0  0  0  0
   -2.9974   -2.0013   -1.8756 F   0  0  0  0  0  0  0  0  0  0  0  0
   -3.4862   -2.3286    0.3423 F   0  0  0  0  0  0  0  0  0  0  0  0
   -4.5476   -0.8863   -0.8734 F   0  0  0  0  0  0  0  0  0  0  0  0
    1.3946   -2.6722    0.4914 H   0  0  0  0  0  0  0  0  0  0  0  0
    1.4707   -0.3516   -1.4119 H   0  0  0  0  0  0  0  0  0  0  0  0
    3.7411   -0.8206   -0.9763 H   0  0  0  0  0  0  0  0  0  0  0  0
    3.4773   -1.3157    0.7135 H   0  0  0  0  0  0  0  0  0  0  0  0
    3.7660    0.8048    1.3241 H   0  0  0  0  0  0  0  0  0  0  0  0
    2.0110    1.9519   -0.7628 H   0  0  0  0  0  0  0  0  0  0  0  0
    2.1601    2.2895    1.0221 H   0  0  0  0  0  0  0  0  0  0  0  0
    1.3373    0.1100    1.6094 H   0  0  0  0  0  0  0  0  0  0  0  0
   -3.9601    1.1496   -0.2986 H   0  0  0  0  0  0  0  0  0  0  0  0
   -2.5250    3.0638    0.3140 H   0  0  0  0  0  0  0  0  0  0  0  0
   -0.1777    2.6750    0.6767 H   0  0  0  0  0  0  0  0  0  0  0  0
  1  2  2  0
  2  3  1  0
  3  4  1  0
  4  5  1  0
  5  6  1  0
  6  7  1  0
  7  8  1  0
  8  9  1  0
  9 10  2  0
 10 11  1  0
 11 12  2  0
 12 13  1  0
 13 14  2  0
 11 15  1  0
 15 16  1  0
 15 17  1  0
 15 18  1  0
 10  2  1  0
  8  4  1  0
 14  9  1  0
  3 19  1  0
  4 20  1  6
  5 21  1  0
  5 22  1  0
  6 23  1  0
  7 24  1  0
  7 25  1  0
  8 26  1  1
 12 27  1  0
 13 28  1  0
 14 29  1  0
M  END
>  <Ligand ID>  (1) 
LIG0005710

>  <Ligand>  (1) 
CHEMBL2337491

>  <SMILES>  (1) 
O=C1N[C@@H]2CNC[C@H]2c2c1c(ccc2)C(F)(F)F

>  <CID>  (1) 
57799321.0

>  <ChEMBL ID>  (1) 
nan

>  <InChiKey>  (1) 
PKCRBWNXYKXDQR-IONNQARKSA-N

>  <InChi>  (1) 
InChI=1S/C12H11F3N2O/c13-12(14,15)8-3-1-2-6-7-4-16-5-9(7)17-11(18)10(6)8/h1-3,7,9,16H,4-5H2,(H,17,18)/t7-,9+/m0/s1

>  <IUPAC Name>  (1) 
(3aS,9bR)-6-(trifluoromethyl)-1,2,3,3a,4,9b-hexahydropyrrolo[3,4-c]isoquinolin-5-one

$$$$
