
     RDKit          3D

 44 43  0  0  0  0  0  0  0  0999 V2000
    6.9524    0.7971    0.2650 C   0  0  0  0  0  0  0  0  0  0  0  0
    5.4634    0.5268    0.0693 C   0  0  0  0  0  0  0  0  0  0  0  0
    5.0774   -0.8306    0.5668 C   0  0  0  0  0  0  0  0  0  0  0  0
    3.5974   -1.0368    0.3700 C   0  0  0  0  0  0  0  0  0  0  0  0
    3.2555   -0.9367   -1.0745 C   0  0  0  0  0  0  0  0  0  0  0  0
    1.7751   -1.1665   -1.3558 C   0  0  0  0  0  0  0  0  0  0  0  0
    0.9900   -0.1321   -0.6229 C   0  0  0  0  0  0  0  0  0  0  0  0
   -0.5055   -0.2691   -0.8497 C   0  0  0  0  0  0  0  0  0  0  0  0
   -1.1758    0.8271   -0.0597 C   0  0  0  0  0  0  0  0  0  0  0  0
   -2.6732    0.7987   -0.2030 C   0  0  0  0  0  0  0  0  0  0  0  0
   -3.2824   -0.5012    0.2745 C   0  0  0  0  0  0  0  0  0  0  0  0
   -4.7575   -0.4030    0.0809 C   0  0  0  0  0  0  0  0  0  0  0  0
   -5.4876   -1.3740    0.4091 O   0  0  0  0  0  0  0  0  0  0  0  0
   -5.3595    0.7072   -0.4432 O   0  0  0  0  0  0  0  0  0  0  0  0
   -6.7548    0.8690   -0.6550 C   0  0  0  0  0  0  0  0  0  0  0  0
   -7.4409    0.7351    0.7034 C   0  0  0  0  0  0  0  0  0  0  0  0
    7.0937    1.8881    0.2776 H   0  0  0  0  0  0  0  0  0  0  0  0
    7.3065    0.3691    1.2256 H   0  0  0  0  0  0  0  0  0  0  0  0
    7.5302    0.3588   -0.5610 H   0  0  0  0  0  0  0  0  0  0  0  0
    4.8904    1.3419    0.5202 H   0  0  0  0  0  0  0  0  0  0  0  0
    5.3347    0.5365   -1.0508 H   0  0  0  0  0  0  0  0  0  0  0  0
    5.6698   -1.6427    0.0988 H   0  0  0  0  0  0  0  0  0  0  0  0
    5.2619   -0.8743    1.6750 H   0  0  0  0  0  0  0  0  0  0  0  0
    3.1093   -0.2702    1.0186 H   0  0  0  0  0  0  0  0  0  0  0  0
    3.2671   -2.0234    0.7627 H   0  0  0  0  0  0  0  0  0  0  0  0
    3.8786   -1.6766   -1.6132 H   0  0  0  0  0  0  0  0  0  0  0  0
    3.4521    0.1022   -1.4640 H   0  0  0  0  0  0  0  0  0  0  0  0
    1.4681   -2.1729   -0.9539 H   0  0  0  0  0  0  0  0  0  0  0  0
    1.6073   -1.1905   -2.4312 H   0  0  0  0  0  0  0  0  0  0  0  0
    1.3435    0.8701   -0.9198 H   0  0  0  0  0  0  0  0  0  0  0  0
    1.1826   -0.2789    0.4803 H   0  0  0  0  0  0  0  0  0  0  0  0
   -0.7122   -0.1063   -1.9295 H   0  0  0  0  0  0  0  0  0  0  0  0
   -0.8588   -1.2796   -0.6262 H   0  0  0  0  0  0  0  0  0  0  0  0
   -0.8696    0.8606    0.9855 H   0  0  0  0  0  0  0  0  0  0  0  0
   -0.8477    1.7929   -0.5216 H   0  0  0  0  0  0  0  0  0  0  0  0
   -2.9347    0.8938   -1.2770 H   0  0  0  0  0  0  0  0  0  0  0  0
   -3.1088    1.6382    0.3391 H   0  0  0  0  0  0  0  0  0  0  0  0
   -3.0029   -0.5843    1.3474 H   0  0  0  0  0  0  0  0  0  0  0  0
   -2.8777   -1.3768   -0.2666 H   0  0  0  0  0  0  0  0  0  0  0  0
   -6.8878    1.9399   -0.9545 H   0  0  0  0  0  0  0  0  0  0  0  0
   -7.1793    0.1850   -1.3960 H   0  0  0  0  0  0  0  0  0  0  0  0
   -6.7271    0.3170    1.4724 H   0  0  0  0  0  0  0  0  0  0  0  0
   -8.3062    0.0653    0.6505 H   0  0  0  0  0  0  0  0  0  0  0  0
   -7.7571    1.7063    1.1127 H   0  0  0  0  0  0  0  0  0  0  0  0
  1  2  1  0
  2  3  1  0
  3  4  1  0
  4  5  1  0
  5  6  1  0
  6  7  1  0
  7  8  1  0
  8  9  1  0
  9 10  1  0
 10 11  1  0
 11 12  1  0
 12 13  2  0
 12 14  1  0
 14 15  1  0
 15 16  1  0
  1 17  1  0
  1 18  1  0
  1 19  1  0
  2 20  1  0
  2 21  1  0
  3 22  1  0
  3 23  1  0
  4 24  1  0
  4 25  1  0
  5 26  1  0
  5 27  1  0
  6 28  1  0
  6 29  1  0
  7 30  1  0
  7 31  1  0
  8 32  1  0
  8 33  1  0
  9 34  1  0
  9 35  1  0
 10 36  1  0
 10 37  1  0
 11 38  1  0
 11 39  1  0
 15 40  1  0
 15 41  1  0
 16 42  1  0
 16 43  1  0
 16 44  1  0
M  END
>  <Ligand ID>  (1) 
LIG0000412

>  <Ligand>  (1) 
ethyl dodecanoate

>  <SMILES>  (1) 
CCCCCCCCCCCC(=O)OCC

>  <CID>  (1) 
7800.0

>  <ChEMBL ID>  (1) 
nan

>  <InChiKey>  (1) 
MMXKVMNBHPAILY-UHFFFAOYSA-N

>  <InChi>  (1) 
InChI=1S/C14H28O2/c1-3-5-6-7-8-9-10-11-12-13-14(15)16-4-2/h3-13H2,1-2H3

>  <IUPAC Name>  (1) 
ethyl dodecanoate

$$$$
