
     RDKit          3D

 85 88  0  0  0  0  0  0  0  0999 V2000
   -6.9056    4.0277   -2.2917 C   0  0  0  0  0  0  0  0  0  0  0  0
   -6.6990    2.8168   -2.9764 O   0  0  0  0  0  0  0  0  0  0  0  0
   -6.0656    1.7163   -2.4277 C   0  0  0  0  0  0  0  0  0  0  0  0
   -5.9360    0.5951   -3.2179 C   0  0  0  0  0  0  0  0  0  0  0  0
   -5.3175   -0.5194   -2.7163 C   0  0  0  0  0  0  0  0  0  0  0  0
   -4.7986   -0.5991   -1.4319 C   0  0  0  0  0  0  0  0  0  0  0  0
   -4.9261    0.5329   -0.6401 C   0  0  0  0  0  0  0  0  0  0  0  0
   -5.5599    1.6749   -1.1464 C   0  0  0  0  0  0  0  0  0  0  0  0
   -4.2994    0.5981    0.7055 C   0  0  0  0  0  0  0  0  0  0  0  0
   -2.8427    0.8357    0.5582 N   0  0  0  0  0  0  0  0  0  0  0  0
   -2.3324    0.7857    1.9173 C   0  0  0  0  0  0  0  0  0  0  0  0
   -2.6857    2.1477    2.4785 C   0  0  0  0  0  0  0  0  0  0  0  0
   -2.5929    3.0296    1.2654 C   0  0  0  0  0  0  0  0  0  0  0  0
   -2.5918    2.1412    0.0657 C   0  0  1  0  0  0  0  0  0  0  0  0
   -1.2600    2.1531   -0.6434 C   0  0  0  0  0  0  0  0  0  0  0  0
   -0.9673    2.7870   -1.7689 O   0  0  0  0  0  0  0  0  0  0  0  0
    0.2887    2.5764   -2.1000 C   0  0  0  0  0  0  0  0  0  0  0  0
    0.8504    1.7602   -1.1402 C   0  0  0  0  0  0  0  0  0  0  0  0
   -0.1236    1.5100   -0.2480 N   0  0  0  0  0  0  0  0  0  0  0  0
    2.2351    1.3135   -1.1776 C   0  0  0  0  0  0  0  0  0  0  0  0
    2.9446    1.7584   -2.1206 O   0  0  0  0  0  0  0  0  0  0  0  0
    2.8001    0.4228   -0.2235 N   0  0  0  0  0  0  0  0  0  0  0  0
    4.2085    0.0061   -0.3090 C   0  0  0  0  0  0  0  0  0  0  0  0
    5.1482    1.1588   -0.1941 C   0  0  0  0  0  0  0  0  0  0  0  0
    6.6115    0.7876   -0.3001 C   0  0  0  0  0  0  0  0  0  0  0  0
    6.9441   -0.1811    0.7794 C   0  0  0  0  0  0  0  0  0  0  0  0
    8.3881   -0.6132    0.7734 C   0  0  0  0  0  0  0  0  0  0  0  0
    8.8061   -1.2853   -0.5141 C   0  0  0  0  0  0  0  0  0  0  0  0
   10.3210   -1.1919   -0.5524 C   0  0  0  0  0  0  0  0  0  0  0  0
   10.9074   -1.1921    0.8424 C   0  0  0  0  0  0  0  0  0  0  0  0
   10.0987   -2.0103    1.8070 C   0  0  0  0  0  0  0  0  0  0  0  0
    8.6402   -1.6278    1.8690 C   0  0  0  0  0  0  0  0  0  0  0  0
   -4.2914   -1.8873   -0.9823 C   0  0  0  0  0  0  0  0  0  0  0  0
   -5.2461   -2.9322   -0.5859 C   0  0  0  0  0  0  0  0  0  0  0  0
   -6.2505   -2.6926    0.4411 C   0  0  0  0  0  0  0  0  0  0  0  0
   -6.5686   -1.6285    0.9907 O   0  0  0  0  0  0  0  0  0  0  0  0
   -6.9833   -3.8615    0.8854 N   0  0  0  0  0  0  0  0  0  0  0  0
   -8.2095   -3.8321    2.0676 S   0  0  0  0  0  0  0  0  0  0  0  0
   -7.7872   -4.6782    3.2690 O   0  0  0  0  0  0  0  0  0  0  0  0
   -9.4851   -4.4464    1.5168 O   0  0  0  0  0  0  0  0  0  0  0  0
   -8.5522   -2.2052    2.6668 C   0  0  0  0  0  0  0  0  0  0  0  0
   -8.9731   -1.3780    1.6612 F   0  0  0  0  0  0  0  0  0  0  0  0
   -9.5798   -2.3121    3.6200 F   0  0  0  0  0  0  0  0  0  0  0  0
   -7.4705   -1.7287    3.3769 F   0  0  0  0  0  0  0  0  0  0  0  0
   -6.0007    4.4731   -1.8753 H   0  0  0  0  0  0  0  0  0  0  0  0
   -7.3263    4.7628   -3.0047 H   0  0  0  0  0  0  0  0  0  0  0  0
   -7.6645    3.8104   -1.4906 H   0  0  0  0  0  0  0  0  0  0  0  0
   -6.3189    0.6013   -4.2221 H   0  0  0  0  0  0  0  0  0  0  0  0
   -5.2372   -1.3763   -3.3732 H   0  0  0  0  0  0  0  0  0  0  0  0
   -5.6842    2.5724   -0.5524 H   0  0  0  0  0  0  0  0  0  0  0  0
   -4.3506   -0.3787    1.1813 H   0  0  0  0  0  0  0  0  0  0  0  0
   -4.7803    1.3791    1.3144 H   0  0  0  0  0  0  0  0  0  0  0  0
   -1.2658    0.5405    1.9844 H   0  0  0  0  0  0  0  0  0  0  0  0
   -2.8818   -0.0002    2.4928 H   0  0  0  0  0  0  0  0  0  0  0  0
   -3.7084    2.1468    2.8775 H   0  0  0  0  0  0  0  0  0  0  0  0
   -1.9668    2.4416    3.2724 H   0  0  0  0  0  0  0  0  0  0  0  0
   -3.4424    3.7308    1.1559 H   0  0  0  0  0  0  0  0  0  0  0  0
   -1.6432    3.6056    1.2644 H   0  0  0  0  0  0  0  0  0  0  0  0
   -3.3167    2.4757   -0.7069 H   0  0  0  0  0  0  0  0  0  0  0  0
    0.7241    3.0095   -2.9918 H   0  0  0  0  0  0  0  0  0  0  0  0
    2.1665    0.0860    0.5304 H   0  0  0  0  0  0  0  0  0  0  0  0
    4.2945   -0.5528   -1.2492 H   0  0  0  0  0  0  0  0  0  0  0  0
    4.3641   -0.7082    0.5386 H   0  0  0  0  0  0  0  0  0  0  0  0
    4.8823    1.9769   -0.8860 H   0  0  0  0  0  0  0  0  0  0  0  0
    5.0240    1.6152    0.8346 H   0  0  0  0  0  0  0  0  0  0  0  0
    7.1650    1.7464   -0.1069 H   0  0  0  0  0  0  0  0  0  0  0  0
    6.7896    0.4199   -1.3154 H   0  0  0  0  0  0  0  0  0  0  0  0
    6.3429   -1.1102    0.7104 H   0  0  0  0  0  0  0  0  0  0  0  0
    6.7269    0.2817    1.7610 H   0  0  0  0  0  0  0  0  0  0  0  0
    9.0594    0.2562    0.9273 H   0  0  0  0  0  0  0  0  0  0  0  0
    8.5637   -2.3636   -0.4308 H   0  0  0  0  0  0  0  0  0  0  0  0
    8.3326   -0.8996   -1.4149 H   0  0  0  0  0  0  0  0  0  0  0  0
   10.7867   -1.9573   -1.1862 H   0  0  0  0  0  0  0  0  0  0  0  0
   10.5662   -0.1985   -0.9919 H   0  0  0  0  0  0  0  0  0  0  0  0
   11.0860   -0.1782    1.2501 H   0  0  0  0  0  0  0  0  0  0  0  0
   11.9031   -1.6818    0.7748 H   0  0  0  0  0  0  0  0  0  0  0  0
   10.2444   -3.1063    1.6604 H   0  0  0  0  0  0  0  0  0  0  0  0
   10.5227   -1.8021    2.8260 H   0  0  0  0  0  0  0  0  0  0  0  0
    8.3301   -1.2699    2.8753 H   0  0  0  0  0  0  0  0  0  0  0  0
    8.0585   -2.5665    1.6300 H   0  0  0  0  0  0  0  0  0  0  0  0
   -3.6009   -2.3117   -1.7697 H   0  0  0  0  0  0  0  0  0  0  0  0
   -3.5786   -1.7553   -0.1030 H   0  0  0  0  0  0  0  0  0  0  0  0
   -4.5998   -3.7849   -0.1631 H   0  0  0  0  0  0  0  0  0  0  0  0
   -5.7026   -3.4613   -1.4846 H   0  0  0  0  0  0  0  0  0  0  0  0
   -6.7550   -4.8007    0.4574 H   0  0  0  0  0  0  0  0  0  0  0  0
  1  2  1  0
  2  3  1  0
  3  4  2  0
  4  5  1  0
  5  6  2  0
  6  7  1  0
  7  8  2  0
  7  9  1  0
  9 10  1  0
 10 11  1  0
 11 12  1  0
 12 13  1  0
 13 14  1  0
 14 15  1  0
 15 16  1  0
 16 17  1  0
 17 18  2  0
 18 19  1  0
 18 20  1  0
 20 21  2  0
 20 22  1  0
 22 23  1  0
 23 24  1  0
 24 25  1  0
 25 26  1  0
 26 27  1  0
 27 28  1  0
 28 29  1  0
 29 30  1  0
 30 31  1  0
 31 32  1  0
  6 33  1  0
 33 34  1  0
 34 35  1  0
 35 36  2  0
 35 37  1  0
 37 38  1  0
 38 39  2  0
 38 40  2  0
 38 41  1  0
 41 42  1  0
 41 43  1  0
 41 44  1  0
  8  3  1  0
 14 10  1  0
 19 15  2  0
 32 27  1  0
  1 45  1  0
  1 46  1  0
  1 47  1  0
  4 48  1  0
  5 49  1  0
  8 50  1  0
  9 51  1  0
  9 52  1  0
 11 53  1  0
 11 54  1  0
 12 55  1  0
 12 56  1  0
 13 57  1  0
 13 58  1  0
 14 59  1  6
 17 60  1  0
 22 61  1  0
 23 62  1  0
 23 63  1  0
 24 64  1  0
 24 65  1  0
 25 66  1  0
 25 67  1  0
 26 68  1  0
 26 69  1  0
 27 70  1  0
 28 71  1  0
 28 72  1  0
 29 73  1  0
 29 74  1  0
 30 75  1  0
 30 76  1  0
 31 77  1  0
 31 78  1  0
 32 79  1  0
 32 80  1  0
 33 81  1  0
 33 82  1  0
 34 83  1  0
 34 84  1  0
 37 85  1  0
M  END
>  <Ligand ID>  (1) 
LIG0000520

>  <Ligand>  (1) 
SCHEMBL670798

>  <SMILES>  (1) 
COc1ccc(c(c1)CN1CCC[C@H]1c1occ(n1)C(=O)NCCCCC1CCCCC1)CCC(=O)NS(=O)(=O)C(F)(F)F

>  <CID>  (1) 
56839343.0

>  <ChEMBL ID>  (1) 
nan

>  <InChiKey>  (1) 
ZBYCYKAOQOIIRO-SANMLTNESA-N

>  <InChi>  (1) 
InChI=1S/C30H41F3N4O6S/c1-42-24-14-12-22(13-15-27(38)36-44(40,41)30(31,32)33)23(18-24)19-37-17-7-11-26(37)29-35-25(20-43-29)28(39)34-16-6-5-10-21-8-3-2-4-9-21/h12,14,18,20-21,26H,2-11,13,15-17,19H2,1H3,(H,34,39)(H,36,38)/t26-/m0/s1

>  <IUPAC Name>  (1) 
N-(4-cyclohexylbutyl)-2-[(2S)-1-[[5-methoxy-2-[3-oxo-3-(trifluoromethylsulfonylamino)propyl]phenyl]methyl]pyrrolidin-2-yl]-1,3-oxazole-4-carboxamide

$$$$
