
     RDKit          3D

108112  0  0  0  0  0  0  0  0999 V2000
    1.6654   -2.1849    3.3580 O   0  0  0  0  0  0  0  0  0  0  0  0
    1.9311   -1.4897    4.3682 C   0  0  0  0  0  0  0  0  0  0  0  0
    0.8514   -1.4084    5.2931 N   0  0  0  0  0  0  0  0  0  0  0  0
   -0.3702   -2.1422    4.6920 C   0  0  0  0  0  0  0  0  0  0  0  0
   -0.6730   -1.3446    3.4871 C   0  0  0  0  0  0  0  0  0  0  0  0
   -1.6164   -1.9727    2.4822 C   0  0  0  0  0  0  0  0  0  0  0  0
   -1.4538   -1.0734    1.2509 C   0  0  0  0  0  0  0  0  0  0  0  0
   -2.1457   -1.4443    0.0411 C   0  0  1  0  0  0  0  0  0  0  0  0
   -3.5636   -1.5787    0.0223 N   0  0  0  0  0  0  0  0  0  0  0  0
   -4.3107   -2.4509   -0.8476 C   0  0  0  0  0  0  0  0  0  0  0  0
   -3.7890   -3.1793   -1.7044 O   0  0  0  0  0  0  0  0  0  0  0  0
   -5.8005   -2.4060   -0.6313 C   0  0  2  0  0  0  0  0  0  0  0  0
   -6.2272   -0.9803   -0.9905 C   0  0  0  0  0  0  0  0  0  0  0  0
   -7.6785   -0.7565   -0.8092 C   0  0  0  0  0  0  0  0  0  0  0  0
   -8.6076   -1.2155   -1.7025 C   0  0  0  0  0  0  0  0  0  0  0  0
   -8.2316   -1.9780   -2.9343 C   0  0  0  0  0  0  0  0  0  0  0  0
   -9.9858   -1.0141   -1.5510 C   0  0  0  0  0  0  0  0  0  0  0  0
  -10.4492   -0.3157   -0.4472 C   0  0  0  0  0  0  0  0  0  0  0  0
   -9.5336    0.1539    0.4610 C   0  0  0  0  0  0  0  0  0  0  0  0
   -8.1588   -0.0594    0.2917 C   0  0  0  0  0  0  0  0  0  0  0  0
   -7.2875    0.5058    1.3494 C   0  0  0  0  0  0  0  0  0  0  0  0
  -11.8081   -0.1064   -0.2813 O   0  0  0  0  0  0  0  0  0  0  0  0
   -6.1385   -2.6069    0.7644 N   0  0  0  0  0  0  0  0  0  0  0  0
   -1.6595   -0.4966   -1.0984 C   0  0  0  0  0  0  0  0  0  0  0  0
   -2.2333   -0.3833   -2.1561 O   0  0  0  0  0  0  0  0  0  0  0  0
   -0.5016    0.2681   -0.8574 N   0  0  0  0  0  0  0  0  0  0  0  0
    0.2239    1.1307   -1.7706 C   0  0  2  0  0  0  0  0  0  0  0  0
    1.6573    1.1341   -1.4815 C   0  0  0  0  0  0  0  0  0  0  0  0
    2.4498    1.8729   -2.0783 O   0  0  0  0  0  0  0  0  0  0  0  0
    2.3188    0.2845   -0.4878 N   0  0  0  0  0  0  0  0  0  0  0  0
    3.7175    0.5200   -0.2444 C   0  0  1  0  0  0  0  0  0  0  0  0
    4.1646    0.0477    1.0421 C   0  0  0  0  0  0  0  0  0  0  0  0
    5.3240    0.2984    1.4310 O   0  0  0  0  0  0  0  0  0  0  0  0
    3.4151   -0.7317    2.0208 N   0  0  0  0  0  0  0  0  0  0  0  0
    4.0609   -1.1899    3.2290 C   0  0  1  0  0  0  0  0  0  0  0  0
    3.2573   -0.8745    4.4456 C   0  0  0  0  0  0  0  0  0  0  0  0
    4.3215   -2.6820    3.1430 C   0  0  0  0  0  0  0  0  0  0  0  0
    4.8753   -3.2160    4.1424 O   0  0  0  0  0  0  0  0  0  0  0  0
    3.9582   -3.4316    1.9929 N   0  0  0  0  0  0  0  0  0  0  0  0
    4.5562   -0.1305   -1.3814 C   0  0  0  0  0  0  0  0  0  0  0  0
    6.0075    0.0963   -1.1632 C   0  0  0  0  0  0  0  0  0  0  0  0
    6.8218   -0.7983   -0.5113 C   0  0  0  0  0  0  0  0  0  0  0  0
    8.1685   -0.5989   -0.2704 C   0  0  0  0  0  0  0  0  0  0  0  0
    8.7324    0.5794   -0.7177 C   0  0  0  0  0  0  0  0  0  0  0  0
    7.9492    1.5140   -1.3837 C   0  0  0  0  0  0  0  0  0  0  0  0
    6.5901    1.2758   -1.6071 C   0  0  0  0  0  0  0  0  0  0  0  0
    8.5499    2.6866   -1.8171 C   0  0  0  0  0  0  0  0  0  0  0  0
    9.8950    2.9474   -1.6051 C   0  0  0  0  0  0  0  0  0  0  0  0
   10.6753    2.0210   -0.9430 C   0  0  0  0  0  0  0  0  0  0  0  0
   10.0787    0.8691   -0.5198 C   0  0  0  0  0  0  0  0  0  0  0  0
   -0.3294    2.5594   -1.6472 C   0  0  0  0  0  0  0  0  0  0  0  0
    0.3681    3.5066   -2.5260 C   0  0  0  0  0  0  0  0  0  0  0  0
   -0.0241    3.5931   -3.8450 C   0  0  0  0  0  0  0  0  0  0  0  0
    0.6063    4.4986   -4.6832 C   0  0  0  0  0  0  0  0  0  0  0  0
    1.6221    5.3217   -4.2343 C   0  0  0  0  0  0  0  0  0  0  0  0
    2.0254    5.2430   -2.9075 C   0  0  0  0  0  0  0  0  0  0  0  0
    1.3745    4.3318   -2.1090 C   0  0  0  0  0  0  0  0  0  0  0  0
    0.8255   -0.9788    6.1721 H   0  0  0  0  0  0  0  0  0  0  0  0
   -0.0745   -3.1835    4.5036 H   0  0  0  0  0  0  0  0  0  0  0  0
   -1.1212   -2.0750    5.4710 H   0  0  0  0  0  0  0  0  0  0  0  0
    0.1477   -0.8592    2.9527 H   0  0  0  0  0  0  0  0  0  0  0  0
   -1.3091   -0.4136    3.8382 H   0  0  0  0  0  0  0  0  0  0  0  0
   -1.2344   -2.9619    2.2156 H   0  0  0  0  0  0  0  0  0  0  0  0
   -2.6589   -2.0158    2.7802 H   0  0  0  0  0  0  0  0  0  0  0  0
   -1.6908   -0.0239    1.5374 H   0  0  0  0  0  0  0  0  0  0  0  0
   -0.3048   -1.0774    1.1076 H   0  0  0  0  0  0  0  0  0  0  0  0
   -1.7429   -2.4247   -0.4171 H   0  0  0  0  0  0  0  0  0  0  0  0
   -4.0781   -0.9502    0.7268 H   0  0  0  0  0  0  0  0  0  0  0  0
   -6.2923   -3.1667   -1.2420 H   0  0  0  0  0  0  0  0  0  0  0  0
   -5.8991   -0.7885   -2.0383 H   0  0  0  0  0  0  0  0  0  0  0  0
   -5.6052   -0.3051   -0.3650 H   0  0  0  0  0  0  0  0  0  0  0  0
   -8.7987   -1.5169   -3.7844 H   0  0  0  0  0  0  0  0  0  0  0  0
   -7.1612   -1.9076   -3.1821 H   0  0  0  0  0  0  0  0  0  0  0  0
   -8.5881   -3.0389   -2.8578 H   0  0  0  0  0  0  0  0  0  0  0  0
  -10.7107   -1.3744   -2.2465 H   0  0  0  0  0  0  0  0  0  0  0  0
   -9.8997    0.7071    1.3359 H   0  0  0  0  0  0  0  0  0  0  0  0
   -6.3744    0.9862    0.9446 H   0  0  0  0  0  0  0  0  0  0  0  0
   -7.8649    1.2586    1.9535 H   0  0  0  0  0  0  0  0  0  0  0  0
   -7.0570   -0.3391    2.0593 H   0  0  0  0  0  0  0  0  0  0  0  0
  -12.1959    0.7911   -0.5384 H   0  0  0  0  0  0  0  0  0  0  0  0
   -7.1404   -2.3767    0.8530 H   0  0  0  0  0  0  0  0  0  0  0  0
   -5.5583   -2.1193    1.4427 H   0  0  0  0  0  0  0  0  0  0  0  0
   -0.1351    0.2649    0.1005 H   0  0  0  0  0  0  0  0  0  0  0  0
    0.0730    0.8491   -2.8450 H   0  0  0  0  0  0  0  0  0  0  0  0
    1.7080   -0.3998   -0.0770 H   0  0  0  0  0  0  0  0  0  0  0  0
    3.9721    1.6100   -0.3776 H   0  0  0  0  0  0  0  0  0  0  0  0
    2.4532   -0.8817    1.7345 H   0  0  0  0  0  0  0  0  0  0  0  0
    5.0768   -0.7595    3.3531 H   0  0  0  0  0  0  0  0  0  0  0  0
    3.8078   -1.1572    5.3771 H   0  0  0  0  0  0  0  0  0  0  0  0
    3.1041    0.2328    4.5348 H   0  0  0  0  0  0  0  0  0  0  0  0
    3.1812   -4.1359    2.0792 H   0  0  0  0  0  0  0  0  0  0  0  0
    4.4571   -3.2870    1.0662 H   0  0  0  0  0  0  0  0  0  0  0  0
    4.3524   -1.2151   -1.3495 H   0  0  0  0  0  0  0  0  0  0  0  0
    4.2397    0.2513   -2.3623 H   0  0  0  0  0  0  0  0  0  0  0  0
    6.3991   -1.7530   -0.1505 H   0  0  0  0  0  0  0  0  0  0  0  0
    8.7702   -1.3327    0.2538 H   0  0  0  0  0  0  0  0  0  0  0  0
    6.0196    2.0323   -2.1330 H   0  0  0  0  0  0  0  0  0  0  0  0
    7.9694    3.4321   -2.3344 H   0  0  0  0  0  0  0  0  0  0  0  0
   10.3682    3.8514   -1.9377 H   0  0  0  0  0  0  0  0  0  0  0  0
   11.7393    2.2468   -0.7823 H   0  0  0  0  0  0  0  0  0  0  0  0
   10.6456    0.1194    0.0017 H   0  0  0  0  0  0  0  0  0  0  0  0
   -0.1768    2.8833   -0.5942 H   0  0  0  0  0  0  0  0  0  0  0  0
   -1.4320    2.5533   -1.7821 H   0  0  0  0  0  0  0  0  0  0  0  0
   -0.8142    2.9525   -4.2094 H   0  0  0  0  0  0  0  0  0  0  0  0
    0.3002    4.5648   -5.7081 H   0  0  0  0  0  0  0  0  0  0  0  0
    2.1403    6.0383   -4.8483 H   0  0  0  0  0  0  0  0  0  0  0  0
    2.8341    5.8908   -2.5338 H   0  0  0  0  0  0  0  0  0  0  0  0
    1.6985    4.2843   -1.0607 H   0  0  0  0  0  0  0  0  0  0  0  0
  1  2  2  0
  2  3  1  0
  3  4  1  0
  4  5  1  0
  5  6  1  0
  6  7  1  0
  7  8  1  0
  8  9  1  0
  9 10  1  0
 10 11  2  0
 10 12  1  0
 12 13  1  0
 13 14  1  0
 14 15  2  0
 15 16  1  0
 15 17  1  0
 17 18  2  0
 18 19  1  0
 19 20  2  0
 20 21  1  0
 18 22  1  0
 12 23  1  0
  8 24  1  0
 24 25  2  0
 24 26  1  0
 26 27  1  0
 27 28  1  0
 28 29  2  0
 28 30  1  0
 30 31  1  0
 31 32  1  0
 32 33  2  0
 32 34  1  0
 34 35  1  0
 35 36  1  0
 35 37  1  0
 37 38  2  0
 37 39  1  0
 31 40  1  0
 40 41  1  0
 41 42  2  0
 42 43  1  0
 43 44  2  0
 44 45  1  0
 45 46  2  0
 45 47  1  0
 47 48  2  0
 48 49  1  0
 49 50  2  0
 27 51  1  0
 51 52  1  0
 52 53  2  0
 53 54  1  0
 54 55  2  0
 55 56  1  0
 56 57  2  0
 36  2  1  0
 46 41  1  0
 57 52  1  0
 20 14  1  0
 50 44  1  0
  3 58  1  0
  4 59  1  0
  4 60  1  0
  5 61  1  0
  5 62  1  0
  6 63  1  0
  6 64  1  0
  7 65  1  0
  7 66  1  0
  8 67  1  6
  9 68  1  0
 12 69  1  6
 13 70  1  0
 13 71  1  0
 16 72  1  0
 16 73  1  0
 16 74  1  0
 17 75  1  0
 19 76  1  0
 21 77  1  0
 21 78  1  0
 21 79  1  0
 22 80  1  0
 23 81  1  0
 23 82  1  0
 26 83  1  0
 27 84  1  6
 30 85  1  0
 31 86  1  1
 34 87  1  0
 35 88  1  1
 36 89  1  0
 36 90  1  0
 39 91  1  0
 39 92  1  0
 40 93  1  0
 40 94  1  0
 42 95  1  0
 43 96  1  0
 46 97  1  0
 47 98  1  0
 48 99  1  0
 49100  1  0
 50101  1  0
 51102  1  0
 51103  1  0
 53104  1  0
 54105  1  0
 55106  1  0
 56107  1  0
 57108  1  0
M  END
>  <Ligand ID>  (1) 
LIG0003753

>  <Ligand>  (1) 
CHEMBL3759179

>  <SMILES>  (1) 
O=C1NCCCC[C@@H](NC(=O)[C@H](Cc2c(C)cc(cc2C)O)N)C(=O)N[C@H](C(=O)N[C@@H](C(=O)N[C@@H](C1)C(=O)N)Cc1ccc2c(c1)cccc2)Cc1ccccc1

>  <CID>  (1) 
127026457.0

>  <ChEMBL ID>  (1) 
nan

>  <InChiKey>  (1) 
LVBGVSFZIBQZKG-DUQWPARQSA-N

>  <InChi>  (1) 
InChI=1S/C43H51N7O7/c1-25-18-31(51)19-26(2)32(25)23-33(44)40(54)47-34-14-8-9-17-46-38(52)24-35(39(45)53)48-42(56)37(22-28-15-16-29-12-6-7-13-30(29)20-28)50-43(57)36(49-41(34)55)21-27-10-4-3-5-11-27/h3-7,10-13,15-16,18-20,33-37,51H,8-9,14,17,21-24,44H2,1-2H3,(H2,45,53)(H,46,52)(H,47,54)(H,48,56)(H,49,55)(H,50,57)/t33-,34+,35-,36-,37+/m0/s1

>  <IUPAC Name>  (1) 
(2S,5R,8S,16R)-16-[[(2S)-2-amino-3-(4-hydroxy-2,6-dimethylphenyl)propanoyl]amino]-2-benzyl-5-(naphthalen-2-ylmethyl)-3,6,10,17-tetraoxo-1,4,7,11-tetrazacycloheptadecane-8-carboxamide

$$$$
