
     RDKit          3D

 47 50  0  0  0  0  0  0  0  0999 V2000
    3.3504    0.8717   -0.5584 C   0  0  0  0  0  0  0  0  0  0  0  0
    3.8044   -0.5333   -0.5775 C   0  0  1  0  0  0  0  0  0  0  0  0
    4.9778   -0.8377    0.3447 C   0  0  0  0  0  0  0  0  0  0  0  0
    4.9277   -2.3576    0.4523 C   0  0  0  0  0  0  0  0  0  0  0  0
    3.6482   -2.7961   -0.2750 C   0  0  0  0  0  0  0  0  0  0  0  0
    2.8792   -1.5342   -0.1189 N   0  0  0  0  0  0  0  0  0  0  0  0
    1.5738   -1.5366    0.3792 C   0  0  0  0  0  0  0  0  0  0  0  0
    1.0858   -2.6864    0.6824 O   0  0  0  0  0  0  0  0  0  0  0  0
    0.7010   -0.4125    0.5989 C   0  0  0  0  0  0  0  0  0  0  0  0
    0.9560    0.6316    1.4614 C   0  0  0  0  0  0  0  0  0  0  0  0
    0.0651    1.6478    1.6180 N   0  0  0  0  0  0  0  0  0  0  0  0
   -1.0981    1.6609    0.9290 C   0  0  0  0  0  0  0  0  0  0  0  0
   -1.3437    0.6082    0.0653 C   0  0  0  0  0  0  0  0  0  0  0  0
   -0.4747   -0.4079   -0.1037 N   0  0  0  0  0  0  0  0  0  0  0  0
   -2.5347    0.6216   -0.6420 O   0  0  0  0  0  0  0  0  0  0  0  0
   -2.8697   -0.4240   -1.5528 C   0  0  0  0  0  0  0  0  0  0  0  0
   -2.9547   -1.7744   -0.9040 C   0  0  0  0  0  0  0  0  0  0  0  0
   -3.3085   -2.8966   -1.8661 C   0  0  0  0  0  0  0  0  0  0  0  0
   -4.3051   -2.4275   -0.8735 C   0  0  0  0  0  0  0  0  0  0  0  0
   -2.0374    2.7207    1.0990 N   0  0  0  0  0  0  0  0  0  0  0  0
   -2.1249    3.9822    1.8102 C   0  0  0  0  0  0  0  0  0  0  0  0
   -3.2612    4.4150    0.9427 C   0  0  0  0  0  0  0  0  0  0  0  0
   -3.3746    2.9654    0.6020 C   0  0  0  0  0  0  0  0  0  0  0  0
   -2.8947    5.1675   -0.1692 F   0  0  0  0  0  0  0  0  0  0  0  0
   -4.3043    4.9787    1.6510 F   0  0  0  0  0  0  0  0  0  0  0  0
    2.3457    0.9493   -1.0196 H   0  0  0  0  0  0  0  0  0  0  0  0
    4.0123    1.4266   -1.3022 H   0  0  0  0  0  0  0  0  0  0  0  0
    3.4804    1.4228    0.3719 H   0  0  0  0  0  0  0  0  0  0  0  0
    4.1645   -0.8267   -1.5961 H   0  0  0  0  0  0  0  0  0  0  0  0
    4.7367   -0.4235    1.3661 H   0  0  0  0  0  0  0  0  0  0  0  0
    5.9250   -0.4604   -0.0474 H   0  0  0  0  0  0  0  0  0  0  0  0
    5.8401   -2.7643   -0.0180 H   0  0  0  0  0  0  0  0  0  0  0  0
    4.8338   -2.6739    1.5333 H   0  0  0  0  0  0  0  0  0  0  0  0
    3.9425   -2.9149   -1.3313 H   0  0  0  0  0  0  0  0  0  0  0  0
    3.1544   -3.6460    0.1900 H   0  0  0  0  0  0  0  0  0  0  0  0
    1.8980    0.6107    2.0116 H   0  0  0  0  0  0  0  0  0  0  0  0
   -2.0921   -0.4213   -2.3660 H   0  0  0  0  0  0  0  0  0  0  0  0
   -3.8226   -0.2203   -2.0664 H   0  0  0  0  0  0  0  0  0  0  0  0
   -2.2680   -2.0373   -0.0731 H   0  0  0  0  0  0  0  0  0  0  0  0
   -3.5032   -2.6338   -2.9381 H   0  0  0  0  0  0  0  0  0  0  0  0
   -2.8134   -3.8692   -1.7025 H   0  0  0  0  0  0  0  0  0  0  0  0
   -5.1795   -1.8894   -1.2573 H   0  0  0  0  0  0  0  0  0  0  0  0
   -4.5405   -3.1094   -0.0320 H   0  0  0  0  0  0  0  0  0  0  0  0
   -2.2936    3.9399    2.8853 H   0  0  0  0  0  0  0  0  0  0  0  0
   -1.2346    4.6362    1.5638 H   0  0  0  0  0  0  0  0  0  0  0  0
   -4.1277    2.4932    1.2937 H   0  0  0  0  0  0  0  0  0  0  0  0
   -3.5413    2.7653   -0.4606 H   0  0  0  0  0  0  0  0  0  0  0  0
  1  2  1  0
  2  3  1  0
  3  4  1  0
  4  5  1  0
  5  6  1  0
  6  7  1  0
  7  8  2  0
  7  9  1  0
  9 10  2  0
 10 11  1  0
 11 12  2  0
 12 13  1  0
 13 14  2  0
 13 15  1  0
 15 16  1  0
 16 17  1  0
 17 18  1  0
 18 19  1  0
 12 20  1  0
 20 21  1  0
 21 22  1  0
 22 23  1  0
 22 24  1  0
 22 25  1  0
  6  2  1  0
 14  9  1  0
 19 17  1  0
 23 20  1  0
  1 26  1  0
  1 27  1  0
  1 28  1  0
  2 29  1  6
  3 30  1  0
  3 31  1  0
  4 32  1  0
  4 33  1  0
  5 34  1  0
  5 35  1  0
 10 36  1  0
 16 37  1  0
 16 38  1  0
 17 39  1  0
 18 40  1  0
 18 41  1  0
 19 42  1  0
 19 43  1  0
 21 44  1  0
 21 45  1  0
 23 46  1  0
 23 47  1  0
M  END
>  <Ligand ID>  (1) 
LIG0005534

>  <Ligand>  (1) 
SCHEMBL15776513

>  <SMILES>  (1) 
C[C@H]1CCCN1C(=O)c1cnc(c(n1)OCC1CC1)N1CC(C1)(F)F

>  <CID>  (1) 
90203810.0

>  <ChEMBL ID>  (1) 
nan

>  <InChiKey>  (1) 
ZXJWVSDWNJTBJK-NSHDSACASA-N

>  <InChi>  (1) 
InChI=1S/C17H22F2N4O2/c1-11-3-2-6-23(11)16(24)13-7-20-14(22-9-17(18,19)10-22)15(21-13)25-8-12-4-5-12/h7,11-12H,2-6,8-10H2,1H3/t11-/m0/s1

>  <IUPAC Name>  (1) 
[6-(cyclopropylmethoxy)-5-(3,3-difluoroazetidin-1-yl)pyrazin-2-yl]-[(2S)-2-methylpyrrolidin-1-yl]methanone

$$$$
