
     RDKit          3D

 73 76  0  0  0  0  0  0  0  0999 V2000
   -6.0099    2.5513    2.2418 O   0  0  0  0  0  0  0  0  0  0  0  0
   -5.5358    1.6882    1.4204 C   0  0  0  0  0  0  0  0  0  0  0  0
   -4.1114    1.6154    1.2133 C   0  0  0  0  0  0  0  0  0  0  0  0
   -3.3342    2.5258    1.9248 C   0  0  0  0  0  0  0  0  0  0  0  0
   -1.9641    2.5948    1.8314 C   0  0  0  0  0  0  0  0  0  0  0  0
   -1.3023    1.7314    1.0021 C   0  0  0  0  0  0  0  0  0  0  0  0
   -2.0564    0.8224    0.2882 C   0  0  0  0  0  0  0  0  0  0  0  0
   -3.4413    0.7562    0.3844 C   0  0  0  0  0  0  0  0  0  0  0  0
   -4.1657   -0.1607   -0.3383 O   0  0  0  0  0  0  0  0  0  0  0  0
   -3.7188   -1.1101   -1.2591 C   0  0  0  0  0  0  0  0  0  0  0  0
   -3.8627   -2.4683   -0.6678 C   0  0  0  0  0  0  0  0  0  0  0  0
   -4.7736   -3.3889   -1.4401 C   0  0  0  0  0  0  0  0  0  0  0  0
   -6.0502   -2.5974   -1.7056 C   0  0  0  0  0  0  0  0  0  0  0  0
   -5.6557   -1.6381   -2.8016 C   0  0  0  0  0  0  0  0  0  0  0  0
   -4.4070   -0.8836   -2.5604 C   0  0  0  0  0  0  0  0  0  0  0  0
    0.1563    1.7758    0.8990 C   0  0  0  0  0  0  0  0  0  0  0  0
    0.8737    2.1412    2.0184 C   0  0  0  0  0  0  0  0  0  0  0  0
    2.2731    2.1968    2.0177 C   0  0  0  0  0  0  0  0  0  0  0  0
    2.8932    1.8654    0.8372 C   0  0  0  0  0  0  0  0  0  0  0  0
    2.1786    1.5088   -0.2614 C   0  0  0  0  0  0  0  0  0  0  0  0
    0.7978    1.4423   -0.2989 C   0  0  0  0  0  0  0  0  0  0  0  0
    4.4043    1.8303    0.7158 C   0  0  0  0  0  0  0  0  0  0  0  0
    4.8727    0.4324    1.0236 C   0  0  0  0  0  0  0  0  0  0  0  0
    6.2981    0.3297    0.9107 N   0  0  0  0  0  0  0  0  0  0  0  0
    6.7584    0.5154   -0.4541 C   0  0  0  0  0  0  0  0  0  0  0  0
    8.2126    0.0903   -0.6313 C   0  0  1  0  0  0  0  0  0  0  0  0
    8.2304   -1.4231   -0.5365 C   0  0  0  0  0  0  0  0  0  0  0  0
    8.8967   -2.0934    0.4516 C   0  0  0  0  0  0  0  0  0  0  0  0
    8.8018   -3.4873    0.4200 C   0  0  0  0  0  0  0  0  0  0  0  0
    8.0588   -4.1048   -0.5822 C   0  0  0  0  0  0  0  0  0  0  0  0
    7.4173   -3.3971   -1.5390 N   0  0  0  0  0  0  0  0  0  0  0  0
    7.4922   -2.0537   -1.5316 C   0  0  0  0  0  0  0  0  0  0  0  0
    8.5322    0.3661   -1.9590 O   0  0  0  0  0  0  0  0  0  0  0  0
   -6.5170    0.8814    0.7947 N   0  0  0  0  0  0  0  0  0  0  0  0
   -8.2035    1.0772    1.1314 S   0  0  0  0  0  0  0  0  0  0  0  0
   -8.7451   -0.2474    1.6168 O   0  0  0  0  0  0  0  0  0  0  0  0
   -8.9526    1.4132   -0.1308 O   0  0  0  0  0  0  0  0  0  0  0  0
   -8.5065    2.3526    2.3088 C   0  0  0  0  0  0  0  0  0  0  0  0
   -3.7892    3.2497    2.6123 H   0  0  0  0  0  0  0  0  0  0  0  0
   -1.4088    3.3189    2.4039 H   0  0  0  0  0  0  0  0  0  0  0  0
   -1.4785    0.1574   -0.3552 H   0  0  0  0  0  0  0  0  0  0  0  0
   -2.6399   -0.9432   -1.4250 H   0  0  0  0  0  0  0  0  0  0  0  0
   -4.2555   -2.4438    0.3698 H   0  0  0  0  0  0  0  0  0  0  0  0
   -2.8796   -3.0006   -0.5957 H   0  0  0  0  0  0  0  0  0  0  0  0
   -4.9914   -4.2549   -0.7722 H   0  0  0  0  0  0  0  0  0  0  0  0
   -4.3518   -3.7668   -2.3720 H   0  0  0  0  0  0  0  0  0  0  0  0
   -6.8177   -3.2729   -2.1541 H   0  0  0  0  0  0  0  0  0  0  0  0
   -6.3896   -2.0462   -0.8290 H   0  0  0  0  0  0  0  0  0  0  0  0
   -6.5453   -0.9734   -2.9919 H   0  0  0  0  0  0  0  0  0  0  0  0
   -5.5895   -2.2702   -3.7341 H   0  0  0  0  0  0  0  0  0  0  0  0
   -3.6952   -1.1259   -3.4008 H   0  0  0  0  0  0  0  0  0  0  0  0
   -4.6285    0.2069   -2.7057 H   0  0  0  0  0  0  0  0  0  0  0  0
    0.3394    2.3946    2.9355 H   0  0  0  0  0  0  0  0  0  0  0  0
    2.8381    2.4784    2.8844 H   0  0  0  0  0  0  0  0  0  0  0  0
    2.6929    1.2521   -1.1762 H   0  0  0  0  0  0  0  0  0  0  0  0
    0.2314    1.1592   -1.1736 H   0  0  0  0  0  0  0  0  0  0  0  0
    4.6679    2.1696   -0.2918 H   0  0  0  0  0  0  0  0  0  0  0  0
    4.7778    2.5172    1.4969 H   0  0  0  0  0  0  0  0  0  0  0  0
    4.6184    0.2106    2.0928 H   0  0  0  0  0  0  0  0  0  0  0  0
    4.4215   -0.3209    0.3474 H   0  0  0  0  0  0  0  0  0  0  0  0
    6.7795    1.0259    1.5636 H   0  0  0  0  0  0  0  0  0  0  0  0
    6.1491   -0.1248   -1.0958 H   0  0  0  0  0  0  0  0  0  0  0  0
    6.5899    1.5640   -0.7622 H   0  0  0  0  0  0  0  0  0  0  0  0
    8.8642    0.5360    0.0789 H   0  0  0  0  0  0  0  0  0  0  0  0
    9.4523   -1.5746    1.1966 H   0  0  0  0  0  0  0  0  0  0  0  0
    9.2920   -4.0997    1.1551 H   0  0  0  0  0  0  0  0  0  0  0  0
    7.9670   -5.1698   -0.6305 H   0  0  0  0  0  0  0  0  0  0  0  0
    6.9686   -1.5340   -2.3037 H   0  0  0  0  0  0  0  0  0  0  0  0
    9.1029    1.1796   -2.0354 H   0  0  0  0  0  0  0  0  0  0  0  0
   -6.2521    0.1550    0.1167 H   0  0  0  0  0  0  0  0  0  0  0  0
   -8.1372    3.3298    1.9308 H   0  0  0  0  0  0  0  0  0  0  0  0
   -8.1088    2.1241    3.3213 H   0  0  0  0  0  0  0  0  0  0  0  0
   -9.6290    2.4421    2.4075 H   0  0  0  0  0  0  0  0  0  0  0  0
  1  2  2  0
  2  3  1  0
  3  4  2  0
  4  5  1  0
  5  6  2  0
  6  7  1  0
  7  8  2  0
  8  9  1  0
  9 10  1  0
 10 11  1  0
 11 12  1  0
 12 13  1  0
 13 14  1  0
 14 15  1  0
  6 16  1  0
 16 17  2  0
 17 18  1  0
 18 19  2  0
 19 20  1  0
 20 21  2  0
 19 22  1  0
 22 23  1  0
 23 24  1  0
 24 25  1  0
 25 26  1  0
 26 27  1  0
 27 28  2  0
 28 29  1  0
 29 30  2  0
 30 31  1  0
 31 32  2  0
 26 33  1  0
  2 34  1  0
 34 35  1  0
 35 36  2  0
 35 37  2  0
 35 38  1  0
  8  3  1  0
 15 10  1  0
 21 16  1  0
 32 27  1  0
  4 39  1  0
  5 40  1  0
  7 41  1  0
 10 42  1  0
 11 43  1  0
 11 44  1  0
 12 45  1  0
 12 46  1  0
 13 47  1  0
 13 48  1  0
 14 49  1  0
 14 50  1  0
 15 51  1  0
 15 52  1  0
 17 53  1  0
 18 54  1  0
 20 55  1  0
 21 56  1  0
 22 57  1  0
 22 58  1  0
 23 59  1  0
 23 60  1  0
 24 61  1  0
 25 62  1  0
 25 63  1  0
 26 64  1  1
 28 65  1  0
 29 66  1  0
 30 67  1  0
 32 68  1  0
 33 69  1  0
 34 70  1  0
 38 71  1  0
 38 72  1  0
 38 73  1  0
M  END
>  <Ligand ID>  (1) 
LIG0002024

>  <Ligand>  (1) 
CHEMBL445481

>  <SMILES>  (1) 
O=C(c1ccc(cc1OC1CCCCC1)c1ccc(cc1)CCNC[C@@H](c1cccnc1)O)NS(=O)(=O)C

>  <CID>  (1) 
11272641.0

>  <ChEMBL ID>  (1) 
nan

>  <InChiKey>  (1) 
YLQMAAMFQNYJDU-MHZLTWQESA-N

>  <InChi>  (1) 
InChI=1S/C29H35N3O5S/c1-38(35,36)32-29(34)26-14-13-23(18-28(26)37-25-7-3-2-4-8-25)22-11-9-21(10-12-22)15-17-31-20-27(33)24-6-5-16-30-19-24/h5-6,9-14,16,18-19,25,27,31,33H,2-4,7-8,15,17,20H2,1H3,(H,32,34)/t27-/m0/s1

>  <IUPAC Name>  (1) 
2-cyclohexyloxy-4-[4-[2-[[(2R)-2-hydroxy-2-pyridin-3-ylethyl]amino]ethyl]phenyl]-N-methylsulfonylbenzamide

$$$$
