
     RDKit          3D

 54 56  0  0  0  0  0  0  0  0999 V2000
    3.9888    1.2190    0.6162 O   0  0  0  0  0  0  0  0  0  0  0  0
    4.4419    0.0960    0.3548 C   0  0  0  0  0  0  0  0  0  0  0  0
    5.5026    0.0640   -0.7290 C   0  0  2  0  0  0  0  0  0  0  0  0
    6.8059   -0.4241   -0.1619 C   0  0  0  0  0  0  0  0  0  0  0  0
    7.7870    0.6658   -0.5462 C   0  0  0  0  0  0  0  0  0  0  0  0
    6.9416    1.8981   -0.6926 C   0  0  0  0  0  0  0  0  0  0  0  0
    5.6763    1.4312   -1.1636 N   0  0  0  0  0  0  0  0  0  0  0  0
    4.0709   -1.1057    0.9551 N   0  0  0  0  0  0  0  0  0  0  0  0
    3.1180   -1.3733    1.9812 C   0  0  0  0  0  0  0  0  0  0  0  0
    1.7400   -1.0348    1.6094 C   0  0  0  0  0  0  0  0  0  0  0  0
    0.9878   -2.0571    1.0097 C   0  0  0  0  0  0  0  0  0  0  0  0
   -0.3066   -1.8400    0.5836 C   0  0  0  0  0  0  0  0  0  0  0  0
   -0.9498   -2.8811    0.0206 F   0  0  0  0  0  0  0  0  0  0  0  0
   -0.9406   -0.6278    0.7137 C   0  0  0  0  0  0  0  0  0  0  0  0
   -0.1873    0.3900    1.3127 C   0  0  0  0  0  0  0  0  0  0  0  0
    1.1140    0.1704    1.7419 C   0  0  0  0  0  0  0  0  0  0  0  0
    1.7237    1.2104    2.3512 F   0  0  0  0  0  0  0  0  0  0  0  0
   -2.2013   -0.3215    0.3281 O   0  0  0  0  0  0  0  0  0  0  0  0
   -3.2202   -0.9914   -0.2760 C   0  0  0  0  0  0  0  0  0  0  0  0
   -4.3048   -1.1588    0.8095 C   0  0  0  0  0  0  0  0  0  0  0  0
   -4.6859    0.2635    1.1777 C   0  0  0  0  0  0  0  0  0  0  0  0
   -5.5024    0.7605    0.0019 C   0  0  0  0  0  0  0  0  0  0  0  0
   -4.7021    0.8078   -1.2492 C   0  0  0  0  0  0  0  0  0  0  0  0
   -3.7935   -0.3514   -1.5031 C   0  0  0  0  0  0  0  0  0  0  0  0
   -5.9657    2.1883    0.3208 C   0  0  0  0  0  0  0  0  0  0  0  0
   -6.7556   -0.0664   -0.0728 C   0  0  0  0  0  0  0  0  0  0  0  0
    5.2090   -0.5987   -1.5564 H   0  0  0  0  0  0  0  0  0  0  0  0
    7.1343   -1.3508   -0.6402 H   0  0  0  0  0  0  0  0  0  0  0  0
    6.7501   -0.5971    0.9342 H   0  0  0  0  0  0  0  0  0  0  0  0
    8.2755    0.4667   -1.5218 H   0  0  0  0  0  0  0  0  0  0  0  0
    8.5250    0.7397    0.2881 H   0  0  0  0  0  0  0  0  0  0  0  0
    7.3540    2.5734   -1.4902 H   0  0  0  0  0  0  0  0  0  0  0  0
    6.8996    2.5281    0.2209 H   0  0  0  0  0  0  0  0  0  0  0  0
    4.8707    2.0201   -0.8916 H   0  0  0  0  0  0  0  0  0  0  0  0
    4.5878   -1.9793    0.5811 H   0  0  0  0  0  0  0  0  0  0  0  0
    3.1946   -2.4467    2.3226 H   0  0  0  0  0  0  0  0  0  0  0  0
    3.4343   -0.7864    2.8918 H   0  0  0  0  0  0  0  0  0  0  0  0
    1.4377   -3.0502    0.8769 H   0  0  0  0  0  0  0  0  0  0  0  0
   -0.6431    1.3773    1.4413 H   0  0  0  0  0  0  0  0  0  0  0  0
   -2.9314   -2.0240   -0.5370 H   0  0  0  0  0  0  0  0  0  0  0  0
   -5.1516   -1.7631    0.4477 H   0  0  0  0  0  0  0  0  0  0  0  0
   -3.7908   -1.6361    1.6806 H   0  0  0  0  0  0  0  0  0  0  0  0
   -5.2389    0.3546    2.1177 H   0  0  0  0  0  0  0  0  0  0  0  0
   -3.7356    0.8732    1.1739 H   0  0  0  0  0  0  0  0  0  0  0  0
   -4.2021    1.8079   -1.3158 H   0  0  0  0  0  0  0  0  0  0  0  0
   -5.4490    0.8208   -2.0971 H   0  0  0  0  0  0  0  0  0  0  0  0
   -2.9507   -0.0121   -2.1376 H   0  0  0  0  0  0  0  0  0  0  0  0
   -4.3228   -1.1465   -2.0950 H   0  0  0  0  0  0  0  0  0  0  0  0
   -6.1721    2.7029   -0.6458 H   0  0  0  0  0  0  0  0  0  0  0  0
   -6.9048    2.1768    0.9215 H   0  0  0  0  0  0  0  0  0  0  0  0
   -5.2046    2.7602    0.8781 H   0  0  0  0  0  0  0  0  0  0  0  0
   -7.6501    0.5740   -0.3257 H   0  0  0  0  0  0  0  0  0  0  0  0
   -6.9845   -0.4581    0.9409 H   0  0  0  0  0  0  0  0  0  0  0  0
   -6.7229   -0.8586   -0.8362 H   0  0  0  0  0  0  0  0  0  0  0  0
  1  2  2  0
  2  3  1  0
  3  4  1  0
  4  5  1  0
  5  6  1  0
  6  7  1  0
  2  8  1  0
  8  9  1  0
  9 10  1  0
 10 11  2  0
 11 12  1  0
 12 13  1  0
 12 14  2  0
 14 15  1  0
 15 16  2  0
 16 17  1  0
 14 18  1  0
 18 19  1  0
 19 20  1  0
 20 21  1  0
 21 22  1  0
 22 23  1  0
 23 24  1  0
 22 25  1  0
 22 26  1  0
  7  3  1  0
 16 10  1  0
 24 19  1  0
  3 27  1  6
  4 28  1  0
  4 29  1  0
  5 30  1  0
  5 31  1  0
  6 32  1  0
  6 33  1  0
  7 34  1  0
  8 35  1  0
  9 36  1  0
  9 37  1  0
 11 38  1  0
 15 39  1  0
 19 40  1  0
 20 41  1  0
 20 42  1  0
 21 43  1  0
 21 44  1  0
 23 45  1  0
 23 46  1  0
 24 47  1  0
 24 48  1  0
 25 49  1  0
 25 50  1  0
 25 51  1  0
 26 52  1  0
 26 53  1  0
 26 54  1  0
M  END
>  <Ligand ID>  (1) 
LIG0003566

>  <Ligand>  (1) 
CHEMBL1091106

>  <SMILES>  (1) 
O=C([C@@H]1CCCN1)NCc1cc(F)c(cc1F)OC1CCC(CC1)(C)C

>  <CID>  (1) 
46884102.0

>  <ChEMBL ID>  (1) 
nan

>  <InChiKey>  (1) 
GBQTUUZWSMRGHG-KRWDZBQOSA-N

>  <InChi>  (1) 
InChI=1S/C20H28F2N2O2/c1-20(2)7-5-14(6-8-20)26-18-11-15(21)13(10-16(18)22)12-24-19(25)17-4-3-9-23-17/h10-11,14,17,23H,3-9,12H2,1-2H3,(H,24,25)/t17-/m0/s1

>  <IUPAC Name>  (1) 
(2S)-N-[[4-(4,4-dimethylcyclohexyl)oxy-2,5-difluorophenyl]methyl]pyrrolidine-2-carboxamide

$$$$
