
     RDKit          3D

 25 26  0  0  0  0  0  0  0  0999 V2000
    0.7123   -2.6247   -1.3588 O   0  0  0  0  0  0  0  0  0  0  0  0
    0.2876   -1.2829   -1.2544 C   0  0  1  0  0  0  0  0  0  0  0  0
   -1.0497   -1.3653   -0.5093 C   0  0  0  0  0  0  0  0  0  0  0  0
   -1.1686    0.0296    0.0292 C   0  0  1  0  0  0  0  0  0  0  0  0
    0.2117    0.2660    0.5913 C   0  0  1  0  0  0  0  0  0  0  0  0
    1.1692   -0.5260   -0.3224 C   0  0  2  0  0  0  0  0  0  0  0  0
    1.2486    0.9277   -0.2521 C   0  0  2  0  0  0  0  0  0  0  0  0
    2.3915    1.4970    0.5121 C   0  0  0  0  0  0  0  0  0  0  0  0
    2.8148    2.6746    0.2619 O   0  0  0  0  0  0  0  0  0  0  0  0
    3.0558    0.8168    1.5140 O   0  0  0  0  0  0  0  0  0  0  0  0
   -1.4774    0.9161   -1.0621 N   0  0  0  0  0  0  0  0  0  0  0  0
   -2.2402    0.1060    1.0298 C   0  0  0  0  0  0  0  0  0  0  0  0
   -2.1625   -0.6037    2.0813 O   0  0  0  0  0  0  0  0  0  0  0  0
   -3.3658    0.9262    0.8998 O   0  0  0  0  0  0  0  0  0  0  0  0
    1.3461   -2.8281   -0.6037 H   0  0  0  0  0  0  0  0  0  0  0  0
    0.1793   -0.8566   -2.2652 H   0  0  0  0  0  0  0  0  0  0  0  0
   -0.9353   -2.0655    0.3312 H   0  0  0  0  0  0  0  0  0  0  0  0
   -1.8856   -1.6306   -1.1850 H   0  0  0  0  0  0  0  0  0  0  0  0
    0.3346    0.0724    1.6587 H   0  0  0  0  0  0  0  0  0  0  0  0
    1.9590   -1.1197    0.1775 H   0  0  0  0  0  0  0  0  0  0  0  0
    0.8458    1.6193   -1.0136 H   0  0  0  0  0  0  0  0  0  0  0  0
    4.0580    0.8932    1.6717 H   0  0  0  0  0  0  0  0  0  0  0  0
   -0.8475    0.8615   -1.8691 H   0  0  0  0  0  0  0  0  0  0  0  0
   -1.7851    1.8649   -0.7909 H   0  0  0  0  0  0  0  0  0  0  0  0
   -3.6967    1.4318    1.7284 H   0  0  0  0  0  0  0  0  0  0  0  0
  1  2  1  0
  2  3  1  0
  3  4  1  0
  4  5  1  0
  5  6  1  0
  6  7  1  0
  7  8  1  0
  8  9  2  0
  8 10  1  0
  4 11  1  6
  4 12  1  0
 12 13  2  0
 12 14  1  0
  6  2  1  0
  7  5  1  0
  1 15  1  0
  2 16  1  6
  3 17  1  0
  3 18  1  0
  5 19  1  1
  6 20  1  1
  7 21  1  6
 10 22  1  0
 11 23  1  0
 11 24  1  0
 14 25  1  0
M  END
>  <Ligand ID>  (1) 
LIG0002398

>  <Ligand>  (1) 
CHEMBL2381643

>  <SMILES>  (1) 
O[C@H]1C[C@@]([C@H]2[C@@H]1[C@@H]2C(=O)O)(N)C(=O)O

>  <CID>  (1) 
11084869.0

>  <ChEMBL ID>  (1) 
nan

>  <InChiKey>  (1) 
XMDLTKGXRPVDSY-FJNNMDBYSA-N

>  <InChi>  (1) 
InChI=1S/C8H11NO5/c9-8(7(13)14)1-2(10)3-4(5(3)8)6(11)12/h2-5,10H,1,9H2,(H,11,12)(H,13,14)/t2-,3-,4-,5-,8-/m0/s1

>  <IUPAC Name>  (1) 
(1S,2S,4S,5R,6R)-2-amino-4-hydroxybicyclo[3.1.0]hexane-2,6-dicarboxylic acid

$$$$
