
     RDKit          3D

 75 74  0  0  0  0  0  0  0  0999 V2000
   -6.0084    2.9709    0.1361 O   0  0  0  0  0  0  0  0  0  0  0  0
   -6.2438    1.8811    1.0030 C   0  0  2  0  0  0  0  0  0  0  0  0
   -5.5088    0.6648    0.5449 C   0  0  1  0  0  0  0  0  0  0  0  0
   -4.4255    0.2390    1.5132 C   0  0  0  0  0  0  0  0  0  0  0  0
   -3.4827    1.2095    1.7531 O   0  0  0  0  0  0  0  0  0  0  0  0
   -2.2896    0.6937    2.8396 P   0  0  0  0  0  0  0  0  0  0  0  0
   -2.8868    0.7420    4.2264 O   0  0  0  0  0  0  0  0  0  0  0  0
   -1.7959   -0.8885    2.5062 O   0  0  0  0  0  0  0  0  0  0  0  0
   -1.1018   -0.9297    0.9642 P   0  0  0  0  0  0  0  0  0  0  0  0
   -1.7037   -2.0435    0.1364 O   0  0  0  0  0  0  0  0  0  0  0  0
    0.5665   -1.2064    1.0445 O   0  0  0  0  0  0  0  0  0  0  0  0
    1.0406   -1.8366   -0.4636 P   0  0  0  0  0  0  0  0  0  0  0  0
    2.3905   -2.5180   -0.3717 O   0  0  0  0  0  0  0  0  0  0  0  0
    1.0387   -0.5696   -1.5756 O   0  0  0  0  0  0  0  0  0  0  0  0
    1.7924    0.7578   -0.8812 P   0  0  0  0  0  0  0  0  0  0  0  0
    1.8419    0.6217    0.6228 O   0  0  0  0  0  0  0  0  0  0  0  0
    3.3775    0.8340   -1.4937 O   0  0  0  0  0  0  0  0  0  0  0  0
    4.2818    0.6770   -0.4420 C   0  0  0  0  0  0  0  0  0  0  0  0
    5.6731    0.7460   -0.9973 C   0  0  1  0  0  0  0  0  0  0  0  0
    6.6458    0.5947    0.0104 O   0  0  0  0  0  0  0  0  0  0  0  0
    7.7788    0.3665   -0.7572 C   0  0  2  0  0  0  0  0  0  0  0  0
    7.3332   -0.7987   -1.6264 C   0  0  1  0  0  0  0  0  0  0  0  0
    5.9069   -0.3921   -1.9621 C   0  0  2  0  0  0  0  0  0  0  0  0
    5.8610    0.0445   -3.2919 O   0  0  0  0  0  0  0  0  0  0  0  0
    8.1103   -0.9259   -2.7742 O   0  0  0  0  0  0  0  0  0  0  0  0
    8.9501    0.0779    0.0226 N   0  0  0  0  0  0  0  0  0  0  0  0
   10.1857    0.5022   -0.3655 C   0  0  0  0  0  0  0  0  0  0  0  0
   11.2886    0.2081    0.4061 C   0  0  0  0  0  0  0  0  0  0  0  0
   11.1371   -0.5139    1.5665 C   0  0  0  0  0  0  0  0  0  0  0  0
   12.1197   -0.7918    2.2802 O   0  0  0  0  0  0  0  0  0  0  0  0
    9.8947   -0.9207    1.9239 N   0  0  0  0  0  0  0  0  0  0  0  0
    8.8116   -0.6280    1.1598 C   0  0  0  0  0  0  0  0  0  0  0  0
    7.6871   -1.0148    1.5142 O   0  0  0  0  0  0  0  0  0  0  0  0
    0.9475    2.1799   -1.2689 O   0  0  0  0  0  0  0  0  0  0  0  0
   -0.0988   -3.0025   -0.9692 O   0  0  0  0  0  0  0  0  0  0  0  0
   -1.4006    0.5107    0.1231 O   0  0  0  0  0  0  0  0  0  0  0  0
   -0.9573    1.7151    2.8064 O   0  0  0  0  0  0  0  0  0  0  0  0
   -6.4509   -0.3353    0.3188 O   0  0  0  0  0  0  0  0  0  0  0  0
   -7.5221    0.3752   -0.2493 C   0  0  2  0  0  0  0  0  0  0  0  0
   -7.6922    1.4850    0.7724 C   0  0  2  0  0  0  0  0  0  0  0  0
   -8.4474    2.5411    0.2730 O   0  0  0  0  0  0  0  0  0  0  0  0
   -8.7139   -0.4068   -0.3928 N   0  0  0  0  0  0  0  0  0  0  0  0
   -9.4235   -0.4029   -1.5586 C   0  0  0  0  0  0  0  0  0  0  0  0
  -10.5745   -1.1522   -1.7108 C   0  0  0  0  0  0  0  0  0  0  0  0
  -10.9795   -1.9058   -0.6369 C   0  0  0  0  0  0  0  0  0  0  0  0
  -12.0189   -2.5917   -0.7531 O   0  0  0  0  0  0  0  0  0  0  0  0
  -10.2867   -1.9135    0.5102 N   0  0  0  0  0  0  0  0  0  0  0  0
   -9.1558   -1.1648    0.6310 C   0  0  0  0  0  0  0  0  0  0  0  0
   -8.5702   -1.2319    1.7402 O   0  0  0  0  0  0  0  0  0  0  0  0
    0.0000    0.0000    0.0000 Na  0  0  0  0  0 15  0  0  0  0  0  0
    0.0000    0.0000    0.0000 Na  0  0  0  0  0 15  0  0  0  0  0  0
    0.0000    0.0000    0.0000 Na  0  0  0  0  0 15  0  0  0  0  0  0
    0.0000    0.0000    0.0000 Na  0  0  0  0  0 15  0  0  0  0  0  0
   -5.3572    2.6881   -0.5592 H   0  0  0  0  0  0  0  0  0  0  0  0
   -6.0508    2.1837    2.0480 H   0  0  0  0  0  0  0  0  0  0  0  0
   -5.0155    0.8712   -0.4313 H   0  0  0  0  0  0  0  0  0  0  0  0
   -4.0081   -0.7333    1.1825 H   0  0  0  0  0  0  0  0  0  0  0  0
   -4.9279    0.0237    2.4976 H   0  0  0  0  0  0  0  0  0  0  0  0
    4.1536    1.4993    0.2939 H   0  0  0  0  0  0  0  0  0  0  0  0
    4.1345   -0.3070    0.0386 H   0  0  0  0  0  0  0  0  0  0  0  0
    5.8781    1.6772   -1.5277 H   0  0  0  0  0  0  0  0  0  0  0  0
    7.9459    1.2751   -1.3936 H   0  0  0  0  0  0  0  0  0  0  0  0
    7.3530   -1.7092   -0.9996 H   0  0  0  0  0  0  0  0  0  0  0  0
    5.2002   -1.2188   -1.7816 H   0  0  0  0  0  0  0  0  0  0  0  0
    6.5241   -0.4154   -3.8754 H   0  0  0  0  0  0  0  0  0  0  0  0
    9.0020   -1.2180   -2.4730 H   0  0  0  0  0  0  0  0  0  0  0  0
   10.2609    1.0652   -1.2815 H   0  0  0  0  0  0  0  0  0  0  0  0
   12.2802    0.5311    0.1236 H   0  0  0  0  0  0  0  0  0  0  0  0
    9.7677   -1.4742    2.8107 H   0  0  0  0  0  0  0  0  0  0  0  0
   -7.2200    0.7959   -1.2424 H   0  0  0  0  0  0  0  0  0  0  0  0
   -8.1028    1.0588    1.6917 H   0  0  0  0  0  0  0  0  0  0  0  0
   -7.9408    3.2304   -0.1840 H   0  0  0  0  0  0  0  0  0  0  0  0
   -9.0576    0.2143   -2.3825 H   0  0  0  0  0  0  0  0  0  0  0  0
  -11.0964   -1.1103   -2.6582 H   0  0  0  0  0  0  0  0  0  0  0  0
  -10.6447   -2.5087    1.2963 H   0  0  0  0  0  0  0  0  0  0  0  0
  1  2  1  0
  2  3  1  0
  3  4  1  0
  4  5  1  0
  5  6  1  0
  6  7  2  0
  6  8  1  0
  8  9  1  0
  9 10  2  0
  9 11  1  0
 11 12  1  0
 12 13  2  0
 12 14  1  0
 14 15  1  0
 15 16  2  0
 15 17  1  0
 17 18  1  0
 18 19  1  0
 19 20  1  0
 20 21  1  0
 21 22  1  0
 22 23  1  0
 23 24  1  0
 22 25  1  0
 21 26  1  0
 26 27  1  0
 27 28  2  0
 28 29  1  0
 29 30  2  0
 29 31  1  0
 31 32  1  0
 32 33  2  0
 15 34  1  0
 12 35  1  0
  9 36  1  0
  6 37  1  0
  3 38  1  0
 38 39  1  0
 39 40  1  0
 40 41  1  0
 39 42  1  0
 42 43  1  0
 43 44  2  0
 44 45  1  0
 45 46  2  0
 45 47  1  0
 47 48  1  0
 48 49  2  0
 40  2  1  0
 48 42  1  0
 23 19  1  0
 32 26  1  0
  1 54  1  0
  2 55  1  1
  3 56  1  6
  4 57  1  0
  4 58  1  0
 18 59  1  0
 18 60  1  0
 19 61  1  6
 21 62  1  6
 22 63  1  1
 23 64  1  6
 24 65  1  0
 25 66  1  0
 27 67  1  0
 28 68  1  0
 31 69  1  0
 39 70  1  6
 40 71  1  1
 41 72  1  0
 43 73  1  0
 44 74  1  0
 47 75  1  0
M  CHG  8  34  -1  35  -1  36  -1  37  -1  50   1  51   1  52   1  53   1
M  END
>  <Ligand ID>  (1) 
LIG0002810

>  <Ligand>  (1) 
Diquafosol tetrasodium

>  <SMILES>  (1) 
O[C@@H]1[C@@H](COP(=O)(OP(=O)(OP(=O)(OP(=O)(OC[C@H]2O[C@H]([C@@H]([C@@H]2O)O)n2ccc(=O)[nH]c2=O)[O-])[O-])[O-])[O-])O[C@H]([C@@H]1O)n1ccc(=O)[nH]c1=O.[Na+].[Na+].[Na+].[Na+]

>  <CID>  (1) 
148196.0

>  <ChEMBL ID>  (1) 
nan

>  <InChiKey>  (1) 
OWTGMPPCCUSXIP-FNXFGIETSA-J

>  <InChi>  (1) 
InChI=1S/C18H26N4O23P4.4Na/c23-9-1-3-21(17(29)19-9)15-13(27)11(25)7(41-15)5-39-46(31,32)43-48(35,36)45-49(37,38)44-47(33,34)40-6-8-12(26)14(28)16(42-8)22-4-2-10(24)20-18(22)30;;;;/h1-4,7-8,11-16,25-28H,5-6H2,(H,31,32)(H,33,34)(H,35,36)(H,37,38)(H,19,23,29)(H,20,24,30);;;;/q;4*+1/p-4/t7-,8-,11-,12-,13-,14-,15-,16-;;;;/m1..../s1

>  <IUPAC Name>  (1) 
tetrasodium;[[(2R,3S,4R,5R)-5-(2,4-dioxopyrimidin-1-yl)-3,4-dihydroxyoxolan-2-yl]methoxy-oxidophosphoryl] [[[(2R,3S,4R,5R)-5-(2,4-dioxopyrimidin-1-yl)-3,4-dihydroxyoxolan-2-yl]methoxy-oxidophosphoryl]oxy-oxidophosphoryl] phosphate

$$$$
