
     RDKit          3D

 78 85  0  0  0  0  0  0  0  0999 V2000
   -1.9805    6.0576    1.4702 C   0  0  0  0  0  0  0  0  0  0  0  0
   -1.4555    4.7706    1.3752 O   0  0  0  0  0  0  0  0  0  0  0  0
   -2.0103    3.6833    0.7510 C   0  0  0  0  0  0  0  0  0  0  0  0
   -3.2405    3.7296    0.0794 C   0  0  0  0  0  0  0  0  0  0  0  0
   -3.7752    2.5953   -0.5487 C   0  0  0  0  0  0  0  0  0  0  0  0
   -3.0685    1.3971   -0.5021 C   0  0  0  0  0  0  0  0  0  0  0  0
   -1.8895    1.4370    0.1702 C   0  0  0  0  0  0  0  0  0  0  0  0
   -1.2995    2.4751    0.7965 C   0  0  0  0  0  0  0  0  0  0  0  0
   -0.1105    2.0195    1.3171 O   0  0  0  0  0  0  0  0  0  0  0  0
    0.2870    0.7700    0.8068 C   0  0  1  0  0  0  0  0  0  0  0  0
   -1.0660    0.2214    0.3302 C   0  0  1  0  0  0  0  0  0  0  0  0
   -1.5979   -0.6366    1.4007 C   0  0  0  0  0  0  0  0  0  0  0  0
   -2.7757   -1.4754    0.9864 C   0  0  0  0  0  0  0  0  0  0  0  0
   -2.5667   -1.9498   -0.3287 N   0  0  0  0  0  0  0  0  0  0  0  0
   -2.4216   -0.9033   -1.3119 C   0  0  1  0  0  0  0  0  0  0  0  0
   -3.4760    0.1551   -1.1679 C   0  0  0  0  0  0  0  0  0  0  0  0
   -1.0208   -0.3560   -1.0566 C   0  0  1  0  0  0  0  0  0  0  0  0
   -0.6766    0.7461   -2.0347 C   0  0  0  0  0  0  0  0  0  0  0  0
    0.4958    1.5000   -1.5074 C   0  0  0  0  0  0  0  0  0  0  0  0
    1.1746    0.7436   -0.3657 C   0  0  1  0  0  0  0  0  0  0  0  0
    2.4359    1.2496   -0.2431 O   0  0  0  0  0  0  0  0  0  0  0  0
    2.5427    2.5651    0.1119 C   0  0  0  0  0  0  0  0  0  0  0  0
    1.3432   -0.7468   -0.7387 C   0  0  1  0  0  0  0  0  0  0  0  0
    0.0456   -1.3848   -1.1694 C   0  0  0  0  0  0  0  0  0  0  0  0
    2.4722   -0.9037   -1.6725 C   0  0  0  0  0  0  0  0  0  0  0  0
    3.6968   -0.5210   -1.1801 O   0  0  0  0  0  0  0  0  0  0  0  0
    4.1172   -1.3368   -0.1565 C   0  0  0  0  0  0  0  0  0  0  0  0
    5.4970   -0.9594    0.3012 C   0  0  0  0  0  0  0  0  0  0  0  0
    5.9237    0.0176    1.1346 C   0  0  0  0  0  0  0  0  0  0  0  0
    5.1308    0.9863    1.8975 C   0  0  0  0  0  0  0  0  0  0  0  0
    7.2823   -0.0348    1.2001 N   0  0  0  0  0  0  0  0  0  0  0  0
    7.6680   -1.0090    0.4352 O   0  0  0  0  0  0  0  0  0  0  0  0
    6.6554   -1.6116   -0.1380 C   0  0  0  0  0  0  0  0  0  0  0  0
    6.7747   -2.7595   -1.0666 C   0  0  0  0  0  0  0  0  0  0  0  0
   -3.1657   -3.1527   -0.7264 C   0  0  0  0  0  0  0  0  0  0  0  0
   -4.6402   -3.1988   -0.8583 C   0  0  0  0  0  0  0  0  0  0  0  0
   -5.5724   -2.9381    0.2445 C   0  0  0  0  0  0  0  0  0  0  0  0
   -5.3232   -4.3701   -0.1566 C   0  0  0  0  0  0  0  0  0  0  0  0
   -2.9810    6.0261    1.9372 H   0  0  0  0  0  0  0  0  0  0  0  0
   -1.3297    6.7496    2.0504 H   0  0  0  0  0  0  0  0  0  0  0  0
   -2.0948    6.4697    0.4422 H   0  0  0  0  0  0  0  0  0  0  0  0
   -3.8017    4.6679    0.0385 H   0  0  0  0  0  0  0  0  0  0  0  0
   -4.7147    2.6150   -1.0691 H   0  0  0  0  0  0  0  0  0  0  0  0
    0.7011    0.1198    1.6143 H   0  0  0  0  0  0  0  0  0  0  0  0
   -1.8975    0.0127    2.2549 H   0  0  0  0  0  0  0  0  0  0  0  0
   -0.8175   -1.3817    1.7522 H   0  0  0  0  0  0  0  0  0  0  0  0
   -2.9110   -2.3624    1.6473 H   0  0  0  0  0  0  0  0  0  0  0  0
   -3.6972   -0.8717    1.1287 H   0  0  0  0  0  0  0  0  0  0  0  0
   -2.4684   -1.3377   -2.3069 H   0  0  0  0  0  0  0  0  0  0  0  0
   -3.8685    0.4036   -2.2031 H   0  0  0  0  0  0  0  0  0  0  0  0
   -4.3962   -0.2277   -0.6487 H   0  0  0  0  0  0  0  0  0  0  0  0
   -1.5205    1.3364   -2.3867 H   0  0  0  0  0  0  0  0  0  0  0  0
   -0.3026    0.1972   -2.9518 H   0  0  0  0  0  0  0  0  0  0  0  0
    1.2762    1.6902   -2.2889 H   0  0  0  0  0  0  0  0  0  0  0  0
    0.2544    2.5037   -1.1053 H   0  0  0  0  0  0  0  0  0  0  0  0
    2.0843    2.7500    1.0860 H   0  0  0  0  0  0  0  0  0  0  0  0
    3.6260    2.7915    0.2224 H   0  0  0  0  0  0  0  0  0  0  0  0
    2.1924    3.2705   -0.6740 H   0  0  0  0  0  0  0  0  0  0  0  0
    1.5821   -1.2252    0.2494 H   0  0  0  0  0  0  0  0  0  0  0  0
   -0.1908   -2.3075   -0.5635 H   0  0  0  0  0  0  0  0  0  0  0  0
    0.1808   -1.7146   -2.2374 H   0  0  0  0  0  0  0  0  0  0  0  0
    2.2473   -0.2805   -2.5984 H   0  0  0  0  0  0  0  0  0  0  0  0
    2.5779   -1.9418   -2.0787 H   0  0  0  0  0  0  0  0  0  0  0  0
    3.4424   -1.3539    0.7359 H   0  0  0  0  0  0  0  0  0  0  0  0
    4.1245   -2.3941   -0.5322 H   0  0  0  0  0  0  0  0  0  0  0  0
    4.0573    0.7541    1.8282 H   0  0  0  0  0  0  0  0  0  0  0  0
    5.4845    0.8719    2.9766 H   0  0  0  0  0  0  0  0  0  0  0  0
    5.4139    2.0188    1.6408 H   0  0  0  0  0  0  0  0  0  0  0  0
    5.7946   -3.0943   -1.4465 H   0  0  0  0  0  0  0  0  0  0  0  0
    7.4426   -2.4139   -1.9062 H   0  0  0  0  0  0  0  0  0  0  0  0
    7.3657   -3.5574   -0.5615 H   0  0  0  0  0  0  0  0  0  0  0  0
   -2.7038   -3.5146   -1.6943 H   0  0  0  0  0  0  0  0  0  0  0  0
   -2.8415   -3.9467    0.0038 H   0  0  0  0  0  0  0  0  0  0  0  0
   -5.0291   -3.0219   -1.8966 H   0  0  0  0  0  0  0  0  0  0  0  0
   -5.2601   -2.6716    1.2686 H   0  0  0  0  0  0  0  0  0  0  0  0
   -6.5931   -2.5789    0.0082 H   0  0  0  0  0  0  0  0  0  0  0  0
   -4.7525   -4.9887    0.5652 H   0  0  0  0  0  0  0  0  0  0  0  0
   -6.0858   -4.9334   -0.7058 H   0  0  0  0  0  0  0  0  0  0  0  0
  1  2  1  0
  2  3  1  0
  3  4  2  0
  4  5  1  0
  5  6  2  0
  6  7  1  0
  7  8  2  0
  8  9  1  0
  9 10  1  0
 10 11  1  0
 11 12  1  1
 12 13  1  0
 13 14  1  0
 14 15  1  0
 15 16  1  0
 15 17  1  0
 17 18  1  6
 18 19  1  0
 19 20  1  0
 20 21  1  1
 21 22  1  0
 20 23  1  0
 23 24  1  0
 23 25  1  0
 25 26  1  0
 26 27  1  0
 27 28  1  0
 28 29  1  0
 29 30  1  0
 29 31  2  0
 31 32  1  0
 32 33  1  0
 33 34  1  0
 14 35  1  0
 35 36  1  0
 36 37  1  0
 37 38  1  0
  8  3  1  0
 20 10  1  0
 33 28  2  0
 38 36  1  0
 16  6  1  0
 24 17  1  0
 11  7  1  0
 17 11  1  0
  1 39  1  0
  1 40  1  0
  1 41  1  0
  4 42  1  0
  5 43  1  0
 10 44  1  1
 12 45  1  0
 12 46  1  0
 13 47  1  0
 13 48  1  0
 15 49  1  6
 16 50  1  0
 16 51  1  0
 18 52  1  0
 18 53  1  0
 19 54  1  0
 19 55  1  0
 22 56  1  0
 22 57  1  0
 22 58  1  0
 23 59  1  1
 24 60  1  0
 24 61  1  0
 25 62  1  0
 25 63  1  0
 27 64  1  0
 27 65  1  0
 30 66  1  0
 30 67  1  0
 30 68  1  0
 34 69  1  0
 34 70  1  0
 34 71  1  0
 35 72  1  0
 35 73  1  0
 36 74  1  0
 37 75  1  0
 37 76  1  0
 38 77  1  0
 38 78  1  0
M  END
>  <Ligand ID>  (1) 
LIG0003597

>  <Ligand>  (1) 
CHEMBL3938819

>  <SMILES>  (1) 
COc1ccc2c3c1O[C@H]1[C@]43CCN([C@@H](C2)[C@]24CC[C@]1(OC)[C@@H](C2)COCc1c(C)noc1C)CC1CC1

>  <CID>  (1) 
134149415.0

>  <ChEMBL ID>  (1) 
nan

>  <InChiKey>  (1) 
SUKLBCXGVCYVGS-UQPBINSRSA-N

>  <InChi>  (1) 
InChI=1S/C31H40N2O5/c1-18-23(19(2)38-32-18)17-36-16-22-14-29-9-10-31(22,35-4)28-30(29)11-12-33(15-20-5-6-20)25(29)13-21-7-8-24(34-3)27(37-28)26(21)30/h7-8,20,22,25,28H,5-6,9-17H2,1-4H3/t22-,25-,28-,29-,30+,31-/m0/s1

>  <IUPAC Name>  (1) 
(1R,2R,6S,14S,15S,16S)-5-(cyclopropylmethyl)-16-[(3,5-dimethyl-1,2-oxazol-4-yl)methoxymethyl]-11,15-dimethoxy-13-oxa-5-azahexacyclo[13.2.2.12,8.01,6.02,14.012,20]icosa-8(20),9,11-triene

$$$$
