
     RDKit          3D

 53 57  0  0  0  0  0  0  0  0999 V2000
    8.3143    0.0540    2.5107 N   0  0  0  0  0  0  0  0  0  0  0  0
    8.5692    0.0020    1.3664 C   0  0  0  0  0  0  0  0  0  0  0  0
    8.8868   -0.0616   -0.0298 C   0  0  0  0  0  0  0  0  0  0  0  0
   10.2053   -0.0289   -0.4388 C   0  0  0  0  0  0  0  0  0  0  0  0
   10.5307   -0.0864   -1.7305 N   0  0  0  0  0  0  0  0  0  0  0  0
    9.5957   -0.1785   -2.6936 C   0  0  0  0  0  0  0  0  0  0  0  0
    8.2458   -0.2158   -2.3445 C   0  0  0  0  0  0  0  0  0  0  0  0
    7.9027   -0.1567   -1.0099 C   0  0  0  0  0  0  0  0  0  0  0  0
    6.5171   -0.1893   -0.5500 C   0  0  0  0  0  0  0  0  0  0  0  0
    6.0445   -0.1393    0.7184 N   0  0  0  0  0  0  0  0  0  0  0  0
    4.7262   -0.1959    0.6924 O   0  0  0  0  0  0  0  0  0  0  0  0
    4.3183   -0.2818   -0.5599 C   0  0  0  0  0  0  0  0  0  0  0  0
    5.4141   -0.2793   -1.3480 N   0  0  0  0  0  0  0  0  0  0  0  0
    2.8794   -0.3656   -0.9907 C   0  0  0  0  0  0  0  0  0  0  0  0
    2.0346   -0.3319    0.2641 C   0  0  0  0  0  0  0  0  0  0  0  0
    0.5740   -0.4111   -0.0653 C   0  0  0  0  0  0  0  0  0  0  0  0
    0.1899   -0.4932   -1.2634 O   0  0  0  0  0  0  0  0  0  0  0  0
   -0.3199   -0.3875    1.0410 N   0  0  0  0  0  0  0  0  0  0  0  0
   -1.7310   -0.4546    0.8948 C   0  0  0  0  0  0  0  0  0  0  0  0
   -2.3379   -1.7144    0.8943 C   0  0  0  0  0  0  0  0  0  0  0  0
   -3.7112   -1.8048    0.7533 C   0  0  0  0  0  0  0  0  0  0  0  0
   -4.4658   -0.6597    0.6153 C   0  0  0  0  0  0  0  0  0  0  0  0
   -3.8272    0.5809    0.6201 C   0  0  0  0  0  0  0  0  0  0  0  0
   -2.4618    0.6929    0.7591 C   0  0  0  0  0  0  0  0  0  0  0  0
   -4.7830    1.5583    0.4692 C   0  0  0  0  0  0  0  0  0  0  0  0
   -4.7080    2.9409    0.4071 C   0  0  0  0  0  0  0  0  0  0  0  0
   -5.8849    3.6503    0.2463 C   0  0  0  0  0  0  0  0  0  0  0  0
   -7.1095    3.0125    0.1488 C   0  0  0  0  0  0  0  0  0  0  0  0
   -7.1535    1.6396    0.2138 C   0  0  0  0  0  0  0  0  0  0  0  0
   -6.0005    0.9120    0.3729 C   0  0  0  0  0  0  0  0  0  0  0  0
   -5.7835   -0.4098    0.4629 N   0  0  0  0  0  0  0  0  0  0  0  0
   -6.7755   -1.4590    0.4109 C   0  0  0  0  0  0  0  0  0  0  0  0
   -7.0435   -1.9654   -0.9804 C   0  0  0  0  0  0  0  0  0  0  0  0
   10.9696    0.0462    0.3447 H   0  0  0  0  0  0  0  0  0  0  0  0
    9.8207   -0.2271   -3.7462 H   0  0  0  0  0  0  0  0  0  0  0  0
    7.4750   -0.2897   -3.1015 H   0  0  0  0  0  0  0  0  0  0  0  0
    2.6342    0.4836   -1.6594 H   0  0  0  0  0  0  0  0  0  0  0  0
    2.7612   -1.3568   -1.4737 H   0  0  0  0  0  0  0  0  0  0  0  0
    2.2453    0.6200    0.8007 H   0  0  0  0  0  0  0  0  0  0  0  0
    2.2877   -1.2116    0.8900 H   0  0  0  0  0  0  0  0  0  0  0  0
    0.0526   -0.3174    2.0306 H   0  0  0  0  0  0  0  0  0  0  0  0
   -1.7427   -2.6221    1.0034 H   0  0  0  0  0  0  0  0  0  0  0  0
   -4.2100   -2.7846    0.7501 H   0  0  0  0  0  0  0  0  0  0  0  0
   -1.9957    1.6511    0.7600 H   0  0  0  0  0  0  0  0  0  0  0  0
   -3.7448    3.4337    0.4842 H   0  0  0  0  0  0  0  0  0  0  0  0
   -5.8330    4.7283    0.1972 H   0  0  0  0  0  0  0  0  0  0  0  0
   -7.9702    3.6408    0.0257 H   0  0  0  0  0  0  0  0  0  0  0  0
   -8.0938    1.1313    0.1399 H   0  0  0  0  0  0  0  0  0  0  0  0
   -7.7511   -1.0905    0.8435 H   0  0  0  0  0  0  0  0  0  0  0  0
   -6.4588   -2.2845    1.1010 H   0  0  0  0  0  0  0  0  0  0  0  0
   -6.7409   -1.1907   -1.7094 H   0  0  0  0  0  0  0  0  0  0  0  0
   -6.4453   -2.8773   -1.2299 H   0  0  0  0  0  0  0  0  0  0  0  0
   -8.1118   -2.2549   -1.0621 H   0  0  0  0  0  0  0  0  0  0  0  0
  1  2  3  0
  2  3  1  0
  3  4  2  0
  4  5  1  0
  5  6  2  0
  6  7  1  0
  7  8  2  0
  8  9  1  0
  9 10  2  0
 10 11  1  0
 11 12  1  0
 12 13  2  0
 12 14  1  0
 14 15  1  0
 15 16  1  0
 16 17  2  0
 16 18  1  0
 18 19  1  0
 19 20  2  0
 20 21  1  0
 21 22  2  0
 22 23  1  0
 23 24  2  0
 23 25  1  0
 25 26  2  0
 26 27  1  0
 27 28  2  0
 28 29  1  0
 29 30  2  0
 30 31  1  0
 31 32  1  0
 32 33  1  0
  8  3  1  0
 13  9  1  0
 24 19  1  0
 30 25  1  0
 31 22  1  0
  4 34  1  0
  6 35  1  0
  7 36  1  0
 14 37  1  0
 14 38  1  0
 15 39  1  0
 15 40  1  0
 18 41  1  0
 20 42  1  0
 21 43  1  0
 24 44  1  0
 26 45  1  0
 27 46  1  0
 28 47  1  0
 29 48  1  0
 32 49  1  0
 32 50  1  0
 33 51  1  0
 33 52  1  0
 33 53  1  0
M  END
>  <Ligand ID>  (1) 
LIG0004396

>  <Ligand>  (1) 
CHEMBL499601

>  <SMILES>  (1) 
N#Cc1cnccc1c1noc(n1)CCC(=O)Nc1ccc2c(c1)c1ccccc1n2CC

>  <CID>  (1) 
25034139.0

>  <ChEMBL ID>  (1) 
nan

>  <InChiKey>  (1) 
XFIKTRAACXFYRM-UHFFFAOYSA-N

>  <InChi>  (1) 
InChI=1S/C25H20N6O2/c1-2-31-21-6-4-3-5-19(21)20-13-17(7-8-22(20)31)28-23(32)9-10-24-29-25(30-33-24)18-11-12-27-15-16(18)14-26/h3-8,11-13,15H,2,9-10H2,1H3,(H,28,32)

>  <IUPAC Name>  (1) 
3-[3-(3-cyanopyridin-4-yl)-1,2,4-oxadiazol-5-yl]-N-(9-ethylcarbazol-3-yl)propanamide

$$$$
