
     RDKit          3D

 26 25  0  0  0  0  0  0  0  0999 V2000
   -3.9449    1.3146   -0.0365 C   0  0  0  0  0  0  0  0  0  0  0  0
   -2.7313    0.6807   -0.7299 C   0  0  0  0  0  0  0  0  0  0  0  0
   -2.6595   -0.7055   -0.2536 C   0  0  0  0  0  0  0  0  0  0  0  0
   -1.6497   -1.2550    0.3973 C   0  0  0  0  0  0  0  0  0  0  0  0
   -0.3950   -0.5534    0.7643 C   0  0  0  0  0  0  0  0  0  0  0  0
    0.7626   -1.2809    0.1017 C   0  0  0  0  0  0  0  0  0  0  0  0
    2.0809   -0.6315    0.4230 C   0  0  0  0  0  0  0  0  0  0  0  0
    2.8432   -0.1549   -0.5581 C   0  0  0  0  0  0  0  0  0  0  0  0
    4.1573    0.4999   -0.3250 C   0  0  0  0  0  0  0  0  0  0  0  0
    4.2094    1.7931   -0.7746 O   0  0  0  0  0  0  0  0  0  0  0  0
   -3.8994    0.9235    1.0215 H   0  0  0  0  0  0  0  0  0  0  0  0
   -3.8898    2.4168   -0.0194 H   0  0  0  0  0  0  0  0  0  0  0  0
   -4.8513    0.9554   -0.5493 H   0  0  0  0  0  0  0  0  0  0  0  0
   -3.0092    0.6919   -1.8258 H   0  0  0  0  0  0  0  0  0  0  0  0
   -1.8744    1.3169   -0.5211 H   0  0  0  0  0  0  0  0  0  0  0  0
   -3.5170   -1.3510   -0.4514 H   0  0  0  0  0  0  0  0  0  0  0  0
   -1.7102   -2.3119    0.7061 H   0  0  0  0  0  0  0  0  0  0  0  0
   -0.2050   -0.6944    1.8697 H   0  0  0  0  0  0  0  0  0  0  0  0
   -0.3851    0.5173    0.5875 H   0  0  0  0  0  0  0  0  0  0  0  0
    0.6427   -1.3247   -0.9889 H   0  0  0  0  0  0  0  0  0  0  0  0
    0.8460   -2.3073    0.5005 H   0  0  0  0  0  0  0  0  0  0  0  0
    2.4157   -0.5486    1.4502 H   0  0  0  0  0  0  0  0  0  0  0  0
    2.5154   -0.2339   -1.5892 H   0  0  0  0  0  0  0  0  0  0  0  0
    4.9129   -0.1026   -0.8670 H   0  0  0  0  0  0  0  0  0  0  0  0
    4.4619    0.4480    0.7453 H   0  0  0  0  0  0  0  0  0  0  0  0
    4.8736    1.8974   -1.4982 H   0  0  0  0  0  0  0  0  0  0  0  0
  1  2  1  0
  2  3  1  0
  3  4  2  0
  4  5  1  0
  5  6  1  0
  6  7  1  0
  7  8  2  0
  8  9  1  0
  9 10  1  0
  1 11  1  0
  1 12  1  0
  1 13  1  0
  2 14  1  0
  2 15  1  0
  3 16  1  0
  4 17  1  0
  5 18  1  0
  5 19  1  0
  6 20  1  0
  6 21  1  0
  7 22  1  0
  8 23  1  0
  9 24  1  0
  9 25  1  0
 10 26  1  0
M  END
>  <Ligand ID>  (1) 
LIG0000733

>  <Ligand>  (1) 
(2E,6Z)-Nona-2,6-dien-1-ol

>  <SMILES>  (1) 
CC/C=C\CC/C=C/CO

>  <CID>  (1) 
5362833.0

>  <ChEMBL ID>  (1) 
nan

>  <InChiKey>  (1) 
AMXYRHBJZOVHOL-ODYTWBPASA-N

>  <InChi>  (1) 
InChI=1S/C9H16O/c1-2-3-4-5-6-7-8-9-10/h3-4,7-8,10H,2,5-6,9H2,1H3/b4-3-,8-7+

>  <IUPAC Name>  (1) 
(2E,6Z)-nona-2,6-dien-1-ol

$$$$
