
     RDKit          3D

 61 63  0  0  0  0  0  0  0  0999 V2000
    3.6212    1.6345    0.6358 O   0  0  0  0  0  0  0  0  0  0  0  0
    3.0418    0.9440    1.5221 C   0  0  0  0  0  0  0  0  0  0  0  0
    3.8532   -0.0455    2.1162 O   0  0  0  0  0  0  0  0  0  0  0  0
    5.1707   -0.0855    1.6125 C   0  0  0  0  0  0  0  0  0  0  0  0
    6.0802    0.7050    2.2881 C   0  0  0  0  0  0  0  0  0  0  0  0
    7.4041    0.7361    1.8702 C   0  0  0  0  0  0  0  0  0  0  0  0
    7.7308   -0.0453    0.7793 C   0  0  0  0  0  0  0  0  0  0  0  0
    6.8267   -0.8286    0.1104 C   0  0  0  0  0  0  0  0  0  0  0  0
    5.5079   -0.8617    0.5243 C   0  0  0  0  0  0  0  0  0  0  0  0
    4.5471   -1.6348   -0.1121 C   0  0  0  0  0  0  0  0  0  0  0  0
    4.9570   -2.3836   -1.1912 C   0  0  0  0  0  0  0  0  0  0  0  0
    6.2761   -2.3503   -1.6051 C   0  0  0  0  0  0  0  0  0  0  0  0
    7.2361   -1.5827   -0.9751 C   0  0  0  0  0  0  0  0  0  0  0  0
    1.6877    1.1350    1.9006 N   0  0  0  0  0  0  0  0  0  0  0  0
    0.9402    2.1731    1.2310 C   0  0  0  0  0  0  0  0  0  0  0  0
    0.8172    2.0027   -0.2456 C   0  0  0  0  0  0  0  0  0  0  0  0
    0.1153    0.7187   -0.6313 C   0  0  0  0  0  0  0  0  0  0  0  0
   -1.2140    0.6374   -0.1209 N   0  0  0  0  0  0  0  0  0  0  0  0
   -2.1525    1.5512   -0.6864 C   0  0  0  0  0  0  0  0  0  0  0  0
   -3.5289    1.2583   -0.0767 C   0  0  0  0  0  0  0  0  0  0  0  0
   -3.8705   -0.0749   -0.5621 N   0  0  0  0  0  0  0  0  0  0  0  0
   -2.8038   -0.9748   -0.9609 C   0  0  0  0  0  0  0  0  0  0  0  0
   -1.6304   -0.7332   -0.0685 C   0  0  0  0  0  0  0  0  0  0  0  0
   -5.2415   -0.4072   -0.6154 C   0  0  0  0  0  0  0  0  0  0  0  0
   -5.7626   -0.7237   -1.8624 C   0  0  0  0  0  0  0  0  0  0  0  0
   -7.0992   -1.0594   -2.0016 C   0  0  0  0  0  0  0  0  0  0  0  0
   -7.9403   -1.0873   -0.9116 C   0  0  0  0  0  0  0  0  0  0  0  0
   -7.4066   -0.7701    0.3201 C   0  0  0  0  0  0  0  0  0  0  0  0
   -6.0684   -0.4299    0.4875 C   0  0  0  0  0  0  0  0  0  0  0  0
   -5.5237   -0.0946    1.8269 C   0  0  0  0  0  0  0  0  0  0  0  0
    0.6923    0.0000    0.0000 Cl  0  0  0  0  0  0  0  0  0  0  0  0
    5.7942    1.2990    3.1303 H   0  0  0  0  0  0  0  0  0  0  0  0
    8.1156    1.3553    2.4000 H   0  0  0  0  0  0  0  0  0  0  0  0
    8.7594   -0.0274    0.4464 H   0  0  0  0  0  0  0  0  0  0  0  0
    3.5203   -1.6406    0.2374 H   0  0  0  0  0  0  0  0  0  0  0  0
    4.2549   -3.0027   -1.7235 H   0  0  0  0  0  0  0  0  0  0  0  0
    6.5788   -2.9403   -2.4494 H   0  0  0  0  0  0  0  0  0  0  0  0
    8.2627   -1.5747   -1.3189 H   0  0  0  0  0  0  0  0  0  0  0  0
    1.2870    0.5178    2.6476 H   0  0  0  0  0  0  0  0  0  0  0  0
    1.4107    3.1847    1.3909 H   0  0  0  0  0  0  0  0  0  0  0  0
   -0.0555    2.2298    1.6949 H   0  0  0  0  0  0  0  0  0  0  0  0
    1.7990    2.0205   -0.7545 H   0  0  0  0  0  0  0  0  0  0  0  0
    0.2706    2.8917   -0.6295 H   0  0  0  0  0  0  0  0  0  0  0  0
    0.7106   -0.1345   -0.2947 H   0  0  0  0  0  0  0  0  0  0  0  0
    0.0637    0.6800   -1.7436 H   0  0  0  0  0  0  0  0  0  0  0  0
   -2.2580    1.5007   -1.7785 H   0  0  0  0  0  0  0  0  0  0  0  0
   -1.8966    2.5835   -0.3454 H   0  0  0  0  0  0  0  0  0  0  0  0
   -3.3722    1.1760    1.0084 H   0  0  0  0  0  0  0  0  0  0  0  0
   -4.2181    2.0396   -0.4043 H   0  0  0  0  0  0  0  0  0  0  0  0
   -2.6058   -0.7741   -2.0320 H   0  0  0  0  0  0  0  0  0  0  0  0
   -3.1795   -2.0135   -0.8928 H   0  0  0  0  0  0  0  0  0  0  0  0
   -0.8302   -1.4524   -0.3520 H   0  0  0  0  0  0  0  0  0  0  0  0
   -1.9575   -0.9719    0.9699 H   0  0  0  0  0  0  0  0  0  0  0  0
   -5.1474   -0.7183   -2.7562 H   0  0  0  0  0  0  0  0  0  0  0  0
   -7.4954   -1.3054   -2.9850 H   0  0  0  0  0  0  0  0  0  0  0  0
   -8.9914   -1.3453   -0.9879 H   0  0  0  0  0  0  0  0  0  0  0  0
   -8.0289   -0.7770    1.2145 H   0  0  0  0  0  0  0  0  0  0  0  0
   -6.2568   -0.5134    2.5780 H   0  0  0  0  0  0  0  0  0  0  0  0
   -5.5308    0.9943    2.0270 H   0  0  0  0  0  0  0  0  0  0  0  0
   -4.5744   -0.6043    2.0674 H   0  0  0  0  0  0  0  0  0  0  0  0
   -0.6923    0.0000    0.0000 H   0  0  0  0  0  0  0  0  0  0  0  0
  1  2  2  0
  2  3  1  0
  3  4  1  0
  4  5  2  0
  5  6  1  0
  6  7  2  0
  7  8  1  0
  8  9  2  0
  9 10  1  0
 10 11  2  0
 11 12  1  0
 12 13  2  0
  2 14  1  0
 14 15  1  0
 15 16  1  0
 16 17  1  0
 17 18  1  0
 18 19  1  0
 19 20  1  0
 20 21  1  0
 21 22  1  0
 22 23  1  0
 21 24  1  0
 24 25  2  0
 25 26  1  0
 26 27  2  0
 27 28  1  0
 28 29  2  0
 29 30  1  0
  9  4  1  0
 23 18  1  0
 29 24  1  0
 13  8  1  0
  5 32  1  0
  6 33  1  0
  7 34  1  0
 10 35  1  0
 11 36  1  0
 12 37  1  0
 13 38  1  0
 14 39  1  0
 15 40  1  0
 15 41  1  0
 16 42  1  0
 16 43  1  0
 17 44  1  0
 17 45  1  0
 19 46  1  0
 19 47  1  0
 20 48  1  0
 20 49  1  0
 22 50  1  0
 22 51  1  0
 23 52  1  0
 23 53  1  0
 25 54  1  0
 26 55  1  0
 27 56  1  0
 28 57  1  0
 30 58  1  0
 30 59  1  0
 30 60  1  0
 31 61  1  0
M  END
>  <Ligand ID>  (1) 
LIG0003876

>  <Ligand>  (1) 
CHEMBL3798943

>  <SMILES>  (1) 
O=C(Oc1cccc2c1cccc2)NCCCN1CCN(CC1)c1ccccc1C.Cl

>  <CID>  (1) 
127047592.0

>  <ChEMBL ID>  (1) 
nan

>  <InChiKey>  (1) 
DYHLCADQPGGYMW-UHFFFAOYSA-N

>  <InChi>  (1) 
InChI=1S/C25H29N3O2.ClH/c1-20-8-2-5-12-23(20)28-18-16-27(17-19-28)15-7-14-26-25(29)30-24-13-6-10-21-9-3-4-11-22(21)24;/h2-6,8-13H,7,14-19H2,1H3,(H,26,29);1H

>  <IUPAC Name>  (1) 
naphthalen-1-yl N-[3-[4-(2-methylphenyl)piperazin-1-yl]propyl]carbamate;hydrochloride

$$$$
