
     RDKit          3D

 51 53  0  0  0  0  0  0  0  0999 V2000
   -5.2348    2.9608   -2.6706 Cl  0  0  0  0  0  0  0  0  0  0  0  0
   -5.9382    1.6312   -1.7811 C   0  0  0  0  0  0  0  0  0  0  0  0
   -7.2754    1.3567   -1.9688 C   0  0  0  0  0  0  0  0  0  0  0  0
   -7.8390    0.3086   -1.2707 C   0  0  0  0  0  0  0  0  0  0  0  0
   -7.0295   -0.4092   -0.4201 C   0  0  0  0  0  0  0  0  0  0  0  0
   -5.6836   -0.1235   -0.2389 C   0  0  0  0  0  0  0  0  0  0  0  0
   -5.1240    0.9210   -0.9353 C   0  0  0  0  0  0  0  0  0  0  0  0
   -4.9402   -0.9841    0.7099 C   0  0  2  0  0  0  0  0  0  0  0  0
   -3.4402   -0.7636    0.6068 C   0  0  0  0  0  0  0  0  0  0  0  0
   -2.7115   -1.5855    1.5162 N   0  0  0  0  0  0  0  0  0  0  0  0
   -1.2878   -1.4614    1.4846 C   0  0  0  0  0  0  0  0  0  0  0  0
   -0.8768   -0.1087    2.0089 C   0  0  0  0  0  0  0  0  0  0  0  0
    0.5455    0.0788    2.0032 N   0  0  0  0  0  0  0  0  0  0  0  0
    1.3549    0.2119    0.8529 C   0  0  0  0  0  0  0  0  0  0  0  0
    0.8809    0.2243   -0.4389 C   0  0  0  0  0  0  0  0  0  0  0  0
    1.7021    0.3447   -1.5427 C   0  0  0  0  0  0  0  0  0  0  0  0
    3.0676    0.4609   -1.3865 C   0  0  0  0  0  0  0  0  0  0  0  0
    3.5748    0.4523   -0.1032 C   0  0  0  0  0  0  0  0  0  0  0  0
    2.7434    0.3313    0.9860 C   0  0  0  0  0  0  0  0  0  0  0  0
    5.0102    0.5707    0.1786 C   0  0  0  0  0  0  0  0  0  0  0  0
    5.4827    1.1749    1.3326 C   0  0  0  0  0  0  0  0  0  0  0  0
    6.7745    1.2980    1.6170 N   0  0  0  0  0  0  0  0  0  0  0  0
    7.6786    0.8196    0.7561 C   0  0  0  0  0  0  0  0  0  0  0  0
    7.2669    0.2091   -0.4076 C   0  0  0  0  0  0  0  0  0  0  0  0
    5.9149    0.0698   -0.7249 C   0  0  0  0  0  0  0  0  0  0  0  0
    8.2557   -0.3142   -1.3499 C   0  0  0  0  0  0  0  0  0  0  0  0
    7.9073   -0.8732   -2.4147 O   0  0  0  0  0  0  0  0  0  0  0  0
    9.6076   -0.1963   -1.0717 O   0  0  0  0  0  0  0  0  0  0  0  0
   -5.2870   -2.2961    0.4360 O   0  0  0  0  0  0  0  0  0  0  0  0
   -7.9228    1.9059   -2.6284 H   0  0  0  0  0  0  0  0  0  0  0  0
   -8.8849    0.0431   -1.3754 H   0  0  0  0  0  0  0  0  0  0  0  0
   -7.4965   -1.2269    0.1165 H   0  0  0  0  0  0  0  0  0  0  0  0
   -4.0792    1.1512   -0.8026 H   0  0  0  0  0  0  0  0  0  0  0  0
   -5.2998   -0.7734    1.7391 H   0  0  0  0  0  0  0  0  0  0  0  0
   -3.2573    0.3000    0.8489 H   0  0  0  0  0  0  0  0  0  0  0  0
   -3.1440   -0.9882   -0.4384 H   0  0  0  0  0  0  0  0  0  0  0  0
   -3.1346   -1.7531    2.4359 H   0  0  0  0  0  0  0  0  0  0  0  0
   -0.8791   -2.2044    2.2340 H   0  0  0  0  0  0  0  0  0  0  0  0
   -0.8403   -1.7573    0.5368 H   0  0  0  0  0  0  0  0  0  0  0  0
   -1.2876   -0.0155    3.0398 H   0  0  0  0  0  0  0  0  0  0  0  0
   -1.3993    0.7307    1.4544 H   0  0  0  0  0  0  0  0  0  0  0  0
    1.0235    0.1201    2.9406 H   0  0  0  0  0  0  0  0  0  0  0  0
   -0.1768    0.1484   -0.6362 H   0  0  0  0  0  0  0  0  0  0  0  0
    1.3039    0.3510   -2.5363 H   0  0  0  0  0  0  0  0  0  0  0  0
    3.7660    0.5576   -2.1915 H   0  0  0  0  0  0  0  0  0  0  0  0
    3.1601    0.3260    1.9984 H   0  0  0  0  0  0  0  0  0  0  0  0
    4.7701    1.5776    2.0596 H   0  0  0  0  0  0  0  0  0  0  0  0
    8.7463    0.9093    0.9696 H   0  0  0  0  0  0  0  0  0  0  0  0
    5.5645   -0.3993   -1.6195 H   0  0  0  0  0  0  0  0  0  0  0  0
   10.2637   -0.9174   -1.3755 H   0  0  0  0  0  0  0  0  0  0  0  0
   -5.8955   -2.3943   -0.3558 H   0  0  0  0  0  0  0  0  0  0  0  0
  1  2  1  0
  2  3  2  0
  3  4  1  0
  4  5  2  0
  5  6  1  0
  6  7  2  0
  6  8  1  0
  8  9  1  0
  9 10  1  0
 10 11  1  0
 11 12  1  0
 12 13  1  0
 13 14  1  0
 14 15  2  0
 15 16  1  0
 16 17  2  0
 17 18  1  0
 18 19  2  0
 18 20  1  0
 20 21  2  0
 21 22  1  0
 22 23  2  0
 23 24  1  0
 24 25  2  0
 24 26  1  0
 26 27  2  0
 26 28  1  0
  8 29  1  0
  7  2  1  0
 19 14  1  0
 25 20  1  0
  3 30  1  0
  4 31  1  0
  5 32  1  0
  7 33  1  0
  8 34  1  1
  9 35  1  0
  9 36  1  0
 10 37  1  0
 11 38  1  0
 11 39  1  0
 12 40  1  0
 12 41  1  0
 13 42  1  0
 15 43  1  0
 16 44  1  0
 17 45  1  0
 19 46  1  0
 21 47  1  0
 23 48  1  0
 25 49  1  0
 28 50  1  0
 29 51  1  0
M  END
>  <Ligand ID>  (1) 
LIG0002519

>  <Ligand>  (1) 
CHEMBL205389

>  <SMILES>  (1) 
Clc1cccc(c1)[C@H](CNCCNc1cccc(c1)c1cncc(c1)C(=O)O)O

>  <CID>  (1) 
11661536.0

>  <ChEMBL ID>  (1) 
nan

>  <InChiKey>  (1) 
UOTZJBMSOVLQAQ-NRFANRHFSA-N

>  <InChi>  (1) 
InChI=1S/C22H22ClN3O3/c23-19-5-1-4-16(10-19)21(27)14-24-7-8-26-20-6-2-3-15(11-20)17-9-18(22(28)29)13-25-12-17/h1-6,9-13,21,24,26-27H,7-8,14H2,(H,28,29)/t21-/m0/s1

>  <IUPAC Name>  (1) 
5-[3-[2-[[(2R)-2-(3-chlorophenyl)-2-hydroxyethyl]amino]ethylamino]phenyl]pyridine-3-carboxylic acid

$$$$
