
     RDKit          3D

106110  0  0  0  0  0  0  0  0999 V2000
    2.1846   -2.1256   -1.2935 O   0  0  0  0  0  0  0  0  0  0  0  0
    2.9463   -1.5648   -0.4586 C   0  0  0  0  0  0  0  0  0  0  0  0
    2.7201   -1.7073    0.9680 N   0  0  0  0  0  0  0  0  0  0  0  0
    1.6190   -2.4942    1.4225 C   0  0  2  0  0  0  0  0  0  0  0  0
    0.5680   -1.6722    2.0818 C   0  0  0  0  0  0  0  0  0  0  0  0
   -0.4580   -2.2147    2.6172 O   0  0  0  0  0  0  0  0  0  0  0  0
    0.7633   -0.2642    2.0814 N   0  0  0  0  0  0  0  0  0  0  0  0
   -0.1532    0.6823    2.6732 C   0  0  2  0  0  0  0  0  0  0  0  0
   -0.9475    1.4300    1.6510 C   0  0  0  0  0  0  0  0  0  0  0  0
   -1.7480    2.3490    1.9726 O   0  0  0  0  0  0  0  0  0  0  0  0
   -0.8438    1.1424    0.2608 N   0  0  0  0  0  0  0  0  0  0  0  0
   -1.6131    1.8670   -0.7518 C   0  0  2  0  0  0  0  0  0  0  0  0
   -2.6872    0.9809   -1.2969 C   0  0  0  0  0  0  0  0  0  0  0  0
   -3.4464    1.4880   -2.1565 O   0  0  0  0  0  0  0  0  0  0  0  0
   -2.7938   -0.3464   -0.8315 N   0  0  0  0  0  0  0  0  0  0  0  0
   -3.7218   -1.3489   -1.2199 C   0  0  2  0  0  0  0  0  0  0  0  0
   -4.0532   -1.3816   -2.6811 C   0  0  0  0  0  0  0  0  0  0  0  0
   -4.9436   -2.1892   -3.0918 O   0  0  0  0  0  0  0  0  0  0  0  0
   -3.4416   -0.5749   -3.6612 N   0  0  0  0  0  0  0  0  0  0  0  0
   -4.9385   -1.4329   -0.3656 C   0  0  0  0  0  0  0  0  0  0  0  0
   -5.8923   -2.4841   -0.7695 C   0  0  0  0  0  0  0  0  0  0  0  0
   -7.0971   -2.4134   -1.4300 C   0  0  0  0  0  0  0  0  0  0  0  0
   -7.6186   -3.6687   -1.5682 N   0  0  0  0  0  0  0  0  0  0  0  0
   -6.7673   -4.5657   -1.0042 C   0  0  0  0  0  0  0  0  0  0  0  0
   -5.7087   -3.8378   -0.5147 C   0  0  0  0  0  0  0  0  0  0  0  0
   -4.6731   -4.5110    0.1274 C   0  0  0  0  0  0  0  0  0  0  0  0
   -4.6734   -5.8783    0.2882 C   0  0  0  0  0  0  0  0  0  0  0  0
   -5.7432   -6.5860   -0.2097 C   0  0  0  0  0  0  0  0  0  0  0  0
   -6.7905   -5.9269   -0.8567 C   0  0  0  0  0  0  0  0  0  0  0  0
   -0.6645    2.3199   -1.7959 C   0  0  0  0  0  0  0  0  0  0  0  0
   -1.3147    3.0995   -2.9022 C   0  0  0  0  0  0  0  0  0  0  0  0
   -2.0140    4.3495   -2.3871 C   0  0  0  0  0  0  0  0  0  0  0  0
   -1.0374    5.2143   -1.7294 N   0  0  0  0  0  0  0  0  0  0  0  0
   -1.4142    6.1801   -0.9757 C   0  0  0  0  0  0  0  0  0  0  0  0
   -0.4002    6.9707   -0.3757 N   0  0  0  0  0  0  0  0  0  0  0  0
   -2.7763    6.4440   -0.7545 N   0  0  0  0  0  0  0  0  0  0  0  0
    0.4566    1.5914    3.6869 C   0  0  0  0  0  0  0  0  0  0  0  0
    1.5522    2.4055    3.1024 C   0  0  0  0  0  0  0  0  0  0  0  0
    2.8586    1.9216    3.1375 C   0  0  0  0  0  0  0  0  0  0  0  0
    3.9013    2.6488    2.6066 C   0  0  0  0  0  0  0  0  0  0  0  0
    3.6102    3.8668    2.0411 C   0  0  0  0  0  0  0  0  0  0  0  0
    2.3422    4.4038    1.9735 C   0  0  0  0  0  0  0  0  0  0  0  0
    1.3255    3.6379    2.5199 C   0  0  0  0  0  0  0  0  0  0  0  0
    1.9940   -3.7274    2.1846 C   0  0  0  0  0  0  0  0  0  0  0  0
    2.7369   -3.5102    3.4237 C   0  0  0  0  0  0  0  0  0  0  0  0
    3.1628   -4.5689    4.1936 N   0  0  0  0  0  0  0  0  0  0  0  0
    3.7897   -4.0883    5.2651 C   0  0  0  0  0  0  0  0  0  0  0  0
    3.8029   -2.7508    5.2485 N   0  0  0  0  0  0  0  0  0  0  0  0
    3.1471   -2.4089    4.1022 C   0  0  0  0  0  0  0  0  0  0  0  0
    4.0996   -0.7418   -0.9374 C   0  0  0  0  0  0  0  0  0  0  0  0
    4.0972   -0.7802   -2.4318 C   0  0  0  0  0  0  0  0  0  0  0  0
    5.2134    0.0121   -3.0227 C   0  0  0  0  0  0  0  0  0  0  0  0
    5.0625    1.3657   -3.3443 C   0  0  0  0  0  0  0  0  0  0  0  0
    6.1408    2.0393   -3.8842 C   0  0  0  0  0  0  0  0  0  0  0  0
    7.3573    1.4462   -4.1224 C   0  0  0  0  0  0  0  0  0  0  0  0
    7.5111    0.1170   -3.8088 C   0  0  0  0  0  0  0  0  0  0  0  0
    6.4457   -0.5980   -3.2616 C   0  0  0  0  0  0  0  0  0  0  0  0
    3.4088   -1.2023    1.5550 H   0  0  0  0  0  0  0  0  0  0  0  0
    1.1078   -2.8634    0.4734 H   0  0  0  0  0  0  0  0  0  0  0  0
    1.6263    0.1634    1.6268 H   0  0  0  0  0  0  0  0  0  0  0  0
   -0.9230    0.0505    3.2089 H   0  0  0  0  0  0  0  0  0  0  0  0
   -0.1919    0.3787   -0.0872 H   0  0  0  0  0  0  0  0  0  0  0  0
   -2.1141    2.6911   -0.2626 H   0  0  0  0  0  0  0  0  0  0  0  0
   -2.0769   -0.6239   -0.0852 H   0  0  0  0  0  0  0  0  0  0  0  0
   -3.1621   -2.3479   -1.1153 H   0  0  0  0  0  0  0  0  0  0  0  0
   -2.3881   -0.5440   -3.6548 H   0  0  0  0  0  0  0  0  0  0  0  0
   -4.0116   -0.0345   -4.3627 H   0  0  0  0  0  0  0  0  0  0  0  0
   -4.6806   -1.6692    0.7110 H   0  0  0  0  0  0  0  0  0  0  0  0
   -5.4678   -0.4435   -0.2772 H   0  0  0  0  0  0  0  0  0  0  0  0
   -7.5385   -1.5068   -1.7743 H   0  0  0  0  0  0  0  0  0  0  0  0
   -8.4990   -3.9679   -2.0120 H   0  0  0  0  0  0  0  0  0  0  0  0
   -3.8425   -3.9657    0.5150 H   0  0  0  0  0  0  0  0  0  0  0  0
   -3.8562   -6.3666    0.7908 H   0  0  0  0  0  0  0  0  0  0  0  0
   -5.7236   -7.6552   -0.0718 H   0  0  0  0  0  0  0  0  0  0  0  0
   -7.6132   -6.5166   -1.2340 H   0  0  0  0  0  0  0  0  0  0  0  0
    0.1739    2.9342   -1.3986 H   0  0  0  0  0  0  0  0  0  0  0  0
   -0.1520    1.4491   -2.3043 H   0  0  0  0  0  0  0  0  0  0  0  0
   -1.9628    2.4628   -3.5194 H   0  0  0  0  0  0  0  0  0  0  0  0
   -0.4962    3.5175   -3.5728 H   0  0  0  0  0  0  0  0  0  0  0  0
   -2.7824    4.1000   -1.6584 H   0  0  0  0  0  0  0  0  0  0  0  0
   -2.3803    4.8778   -3.3016 H   0  0  0  0  0  0  0  0  0  0  0  0
    0.3985    7.3956   -0.9175 H   0  0  0  0  0  0  0  0  0  0  0  0
   -0.4629    7.1269    0.6438 H   0  0  0  0  0  0  0  0  0  0  0  0
   -3.3939    6.8701   -1.5032 H   0  0  0  0  0  0  0  0  0  0  0  0
   -3.2679    6.2445    0.1449 H   0  0  0  0  0  0  0  0  0  0  0  0
   -0.2900    2.2848    4.1405 H   0  0  0  0  0  0  0  0  0  0  0  0
    0.8934    1.0387    4.5541 H   0  0  0  0  0  0  0  0  0  0  0  0
    3.0993    0.9734    3.5773 H   0  0  0  0  0  0  0  0  0  0  0  0
    4.9292    2.2650    2.6358 H   0  0  0  0  0  0  0  0  0  0  0  0
    4.4748    4.4137    1.6288 H   0  0  0  0  0  0  0  0  0  0  0  0
    2.1529    5.3553    1.5254 H   0  0  0  0  0  0  0  0  0  0  0  0
    0.3330    4.0599    2.4673 H   0  0  0  0  0  0  0  0  0  0  0  0
    2.6293   -4.3370    1.4698 H   0  0  0  0  0  0  0  0  0  0  0  0
    1.0824   -4.3439    2.3568 H   0  0  0  0  0  0  0  0  0  0  0  0
    3.0326   -5.5845    3.9984 H   0  0  0  0  0  0  0  0  0  0  0  0
    4.2299   -4.6980    6.0456 H   0  0  0  0  0  0  0  0  0  0  0  0
    2.9945   -1.3991    3.8257 H   0  0  0  0  0  0  0  0  0  0  0  0
    3.9720    0.2874   -0.5514 H   0  0  0  0  0  0  0  0  0  0  0  0
    5.0171   -1.1538   -0.4916 H   0  0  0  0  0  0  0  0  0  0  0  0
    3.1269   -0.4020   -2.8004 H   0  0  0  0  0  0  0  0  0  0  0  0
    4.1589   -1.8304   -2.7620 H   0  0  0  0  0  0  0  0  0  0  0  0
    4.1027    1.8590   -3.1639 H   0  0  0  0  0  0  0  0  0  0  0  0
    6.0238    3.0998   -4.1372 H   0  0  0  0  0  0  0  0  0  0  0  0
    8.2025    1.9770   -4.5459 H   0  0  0  0  0  0  0  0  0  0  0  0
    8.4722   -0.3841   -3.9880 H   0  0  0  0  0  0  0  0  0  0  0  0
    6.6015   -1.6463   -3.0269 H   0  0  0  0  0  0  0  0  0  0  0  0
  1  2  2  0
  2  3  1  0
  3  4  1  0
  4  5  1  0
  5  6  2  0
  5  7  1  0
  7  8  1  0
  8  9  1  0
  9 10  2  0
  9 11  1  0
 11 12  1  0
 12 13  1  0
 13 14  2  0
 13 15  1  0
 15 16  1  0
 16 17  1  0
 17 18  2  0
 17 19  1  0
 16 20  1  0
 20 21  1  0
 21 22  2  0
 22 23  1  0
 23 24  1  0
 24 25  2  0
 25 26  1  0
 26 27  2  0
 27 28  1  0
 28 29  2  0
 12 30  1  0
 30 31  1  0
 31 32  1  0
 32 33  1  0
 33 34  2  3
 34 35  1  0
 34 36  1  0
  8 37  1  0
 37 38  1  0
 38 39  2  0
 39 40  1  0
 40 41  2  0
 41 42  1  0
 42 43  2  0
  4 44  1  0
 44 45  1  0
 45 46  1  0
 46 47  1  0
 47 48  2  0
 48 49  1  0
  2 50  1  0
 50 51  1  0
 51 52  1  0
 52 53  2  0
 53 54  1  0
 54 55  2  0
 55 56  1  0
 56 57  2  0
 25 21  1  0
 43 38  1  0
 49 45  2  0
 57 52  1  0
 29 24  1  0
  3 58  1  0
  4 59  1  6
  7 60  1  0
  8 61  1  1
 11 62  1  0
 12 63  1  1
 15 64  1  0
 16 65  1  1
 19 66  1  0
 19 67  1  0
 20 68  1  0
 20 69  1  0
 22 70  1  0
 23 71  1  0
 26 72  1  0
 27 73  1  0
 28 74  1  0
 29 75  1  0
 30 76  1  0
 30 77  1  0
 31 78  1  0
 31 79  1  0
 32 80  1  0
 32 81  1  0
 35 82  1  0
 35 83  1  0
 36 84  1  0
 36 85  1  0
 37 86  1  0
 37 87  1  0
 39 88  1  0
 40 89  1  0
 41 90  1  0
 42 91  1  0
 43 92  1  0
 44 93  1  0
 44 94  1  0
 46 95  1  0
 47 96  1  0
 49 97  1  0
 50 98  1  0
 50 99  1  0
 51100  1  0
 51101  1  0
 53102  1  0
 54103  1  0
 55104  1  0
 56105  1  0
 57106  1  0
M  END
>  <Ligand ID>  (1) 
LIG0002671

>  <Ligand>  (1) 
CHEMBL432565

>  <SMILES>  (1) 
O=C(N[C@H](C(=O)N[C@H](C(=O)N[C@H](C(=O)N[C@H](C(=O)N)Cc1c[nH]c2c1cccc2)CCCN=C(N)N)Cc1ccccc1)Cc1[nH]cnc1)CCc1ccccc1

>  <CID>  (1) 
44323031.0

>  <ChEMBL ID>  (1) 
nan

>  <InChiKey>  (1) 
ZJRYSELENYTFKR-BBACVFHCSA-N

>  <InChi>  (1) 
InChI=1S/C41H49N11O5/c42-37(54)33(21-28-23-47-31-15-8-7-14-30(28)31)51-38(55)32(16-9-19-46-41(43)44)50-39(56)34(20-27-12-5-2-6-13-27)52-40(57)35(22-29-24-45-25-48-29)49-36(53)18-17-26-10-3-1-4-11-26/h1-8,10-15,23-25,32-35,47H,9,16-22H2,(H2,42,54)(H,45,48)(H,49,53)(H,50,56)(H,51,55)(H,52,57)(H4,43,44,46)/t32-,33-,34-,35-/m0/s1

>  <IUPAC Name>  (1) 
(2S)-N-[(2S)-1-amino-3-(1H-indol-3-yl)-1-oxopropan-2-yl]-5-(diaminomethylideneamino)-2-[[(2S)-2-[[(2S)-3-(1H-imidazol-5-yl)-2-(3-phenylpropanoylamino)propanoyl]amino]-3-phenylpropanoyl]amino]pentanamide

$$$$
