
     RDKit          3D

 35 37  0  0  0  0  0  0  0  0999 V2000
   -1.2552   -3.1072    0.7546 O   0  0  0  0  0  0  0  0  0  0  0  0
   -1.6431   -2.0718    1.5989 C   0  0  0  0  0  0  0  0  0  0  0  0
   -2.1073   -2.3891    2.7307 O   0  0  0  0  0  0  0  0  0  0  0  0
   -1.5104   -0.6472    1.1711 C   0  0  1  0  0  0  0  0  0  0  0  0
   -0.5272   -0.3677    0.1003 C   0  0  1  0  0  0  0  0  0  0  0  0
   -1.9549   -0.4515   -0.2816 C   0  0  2  0  0  0  0  0  0  0  0  0
   -2.4676    0.9434   -0.5541 C   0  0  2  0  0  0  0  0  0  0  0  0
   -1.2198    1.7077   -0.9367 C   0  0  0  0  0  0  0  0  0  0  0  0
   -0.0778    1.0107   -0.2313 C   0  0  2  0  0  0  0  0  0  0  0  0
    1.3094    0.9177   -1.3947 S   0  0  0  0  0  0  0  0  0  0  0  0
    2.7402    0.1880   -0.6449 C   0  0  0  0  0  0  0  0  0  0  0  0
    3.0196   -1.1582   -0.6567 C   0  0  0  0  0  0  0  0  0  0  0  0
    4.1663   -1.6419   -0.0410 C   0  0  0  0  0  0  0  0  0  0  0  0
    5.0606   -0.7905    0.6011 C   0  0  0  0  0  0  0  0  0  0  0  0
    4.7635    0.5604    0.6031 C   0  0  0  0  0  0  0  0  0  0  0  0
    3.6312    1.0346   -0.0054 C   0  0  0  0  0  0  0  0  0  0  0  0
   -2.9969    1.5308    0.6607 N   0  0  0  0  0  0  0  0  0  0  0  0
   -3.4952    0.9244   -1.6236 C   0  0  0  0  0  0  0  0  0  0  0  0
   -3.2780    0.4697   -2.7767 O   0  0  0  0  0  0  0  0  0  0  0  0
   -4.7581    1.4304   -1.3463 O   0  0  0  0  0  0  0  0  0  0  0  0
   -1.6322   -4.0617    0.8287 H   0  0  0  0  0  0  0  0  0  0  0  0
   -1.8418    0.0891    1.9137 H   0  0  0  0  0  0  0  0  0  0  0  0
    0.1748   -1.1808   -0.1421 H   0  0  0  0  0  0  0  0  0  0  0  0
   -2.2702   -1.3067   -0.8838 H   0  0  0  0  0  0  0  0  0  0  0  0
   -1.1513    1.6505   -2.0369 H   0  0  0  0  0  0  0  0  0  0  0  0
   -1.2858    2.7800   -0.6624 H   0  0  0  0  0  0  0  0  0  0  0  0
    0.2390    1.5946    0.6780 H   0  0  0  0  0  0  0  0  0  0  0  0
    2.3186   -1.8354   -1.1613 H   0  0  0  0  0  0  0  0  0  0  0  0
    4.4011   -2.7129   -0.0430 H   0  0  0  0  0  0  0  0  0  0  0  0
    5.9571   -1.1505    1.0849 H   0  0  0  0  0  0  0  0  0  0  0  0
    5.4581    1.2395    1.1043 H   0  0  0  0  0  0  0  0  0  0  0  0
    3.4348    2.1090    0.0195 H   0  0  0  0  0  0  0  0  0  0  0  0
   -2.2282    1.9691    1.2222 H   0  0  0  0  0  0  0  0  0  0  0  0
   -3.6172    0.8955    1.1993 H   0  0  0  0  0  0  0  0  0  0  0  0
   -5.3562    1.8278   -2.0708 H   0  0  0  0  0  0  0  0  0  0  0  0
  1  2  1  0
  2  3  2  0
  2  4  1  0
  4  5  1  0
  5  6  1  0
  6  7  1  0
  7  8  1  0
  8  9  1  0
  9 10  1  0
 10 11  1  0
 11 12  2  0
 12 13  1  0
 13 14  2  0
 14 15  1  0
 15 16  2  0
  7 17  1  1
  7 18  1  0
 18 19  2  0
 18 20  1  0
  6  4  1  0
 16 11  1  0
  9  5  1  0
  1 21  1  0
  4 22  1  1
  5 23  1  6
  6 24  1  6
  8 25  1  0
  8 26  1  0
  9 27  1  1
 12 28  1  0
 13 29  1  0
 14 30  1  0
 15 31  1  0
 16 32  1  0
 17 33  1  0
 17 34  1  0
 20 35  1  0
M  END
>  <Ligand ID>  (1) 
LIG0002399

>  <Ligand>  (1) 
CHEMBL2381651

>  <SMILES>  (1) 
OC(=O)[C@H]1[C@H]2[C@@H]1[C@](C[C@@H]2Sc1ccccc1)(N)C(=O)O

>  <CID>  (1) 
71681826.0

>  <ChEMBL ID>  (1) 
nan

>  <InChiKey>  (1) 
QMTVYANBFIIHRR-VITBEWHZSA-N

>  <InChi>  (1) 
InChI=1S/C14H15NO4S/c15-14(13(18)19)6-8(9-10(11(9)14)12(16)17)20-7-4-2-1-3-5-7/h1-5,8-11H,6,15H2,(H,16,17)(H,18,19)/t8-,9-,10-,11-,14-/m0/s1

>  <IUPAC Name>  (1) 
(1R,2S,4S,5R,6R)-2-amino-4-phenylsulfanylbicyclo[3.1.0]hexane-2,6-dicarboxylic acid

$$$$
