
     RDKit          3D

 46 50  0  0  0  0  0  0  0  0999 V2000
    7.3370    0.0834    1.2334 C   0  0  0  0  0  0  0  0  0  0  0  0
    6.6478   -1.2625    1.0351 C   0  0  0  0  0  0  0  0  0  0  0  0
    5.7112   -1.0838   -0.0749 N   0  0  0  0  0  0  0  0  0  0  0  0
    5.9237   -1.2626   -1.3593 N   0  0  0  0  0  0  0  0  0  0  0  0
    4.8268   -0.9978   -2.0409 N   0  0  0  0  0  0  0  0  0  0  0  0
    3.8595   -0.6301   -1.1513 C   0  0  0  0  0  0  0  0  0  0  0  0
    4.4377   -0.6931    0.0587 N   0  0  0  0  0  0  0  0  0  0  0  0
    2.4758   -0.2458   -1.4531 C   0  0  1  0  0  0  0  0  0  0  0  0
    1.5290   -0.8461   -0.5968 O   0  0  0  0  0  0  0  0  0  0  0  0
    0.4551   -0.0248   -0.8051 C   0  0  2  0  0  0  0  0  0  0  0  0
    1.0642    1.3032   -0.3732 C   0  0  1  0  0  0  0  0  0  0  0  0
    2.2800    1.2616   -1.3109 C   0  0  2  0  0  0  0  0  0  0  0  0
    1.8342    1.8424   -2.5024 O   0  0  0  0  0  0  0  0  0  0  0  0
    0.2394    2.3712   -0.6079 O   0  0  0  0  0  0  0  0  0  0  0  0
   -0.7164   -0.3812   -0.0414 N   0  0  0  0  0  0  0  0  0  0  0  0
   -0.9024   -1.3010    0.9072 C   0  0  0  0  0  0  0  0  0  0  0  0
   -2.1814   -1.2722    1.3404 N   0  0  0  0  0  0  0  0  0  0  0  0
   -2.8140   -0.3218    0.6573 C   0  0  0  0  0  0  0  0  0  0  0  0
   -1.9057    0.2299   -0.1987 C   0  0  0  0  0  0  0  0  0  0  0  0
   -2.3070    1.2328   -1.0155 N   0  0  0  0  0  0  0  0  0  0  0  0
   -3.5569    1.7254   -1.0373 C   0  0  0  0  0  0  0  0  0  0  0  0
   -4.4436    1.1754   -0.1906 N   0  0  0  0  0  0  0  0  0  0  0  0
   -4.1052    0.1771    0.6443 C   0  0  0  0  0  0  0  0  0  0  0  0
   -5.0867   -0.3658    1.5183 N   0  0  0  0  0  0  0  0  0  0  0  0
   -6.4423    0.1476    1.5146 C   0  0  0  0  0  0  0  0  0  0  0  0
   -7.1522    0.0146    0.1734 C   0  0  0  0  0  0  0  0  0  0  0  0
   -7.6157   -0.7349    1.3971 C   0  0  0  0  0  0  0  0  0  0  0  0
    7.5437    0.5668    0.2482 H   0  0  0  0  0  0  0  0  0  0  0  0
    8.2863   -0.1197    1.7702 H   0  0  0  0  0  0  0  0  0  0  0  0
    6.6775    0.7783    1.7909 H   0  0  0  0  0  0  0  0  0  0  0  0
    6.0577   -1.4274    1.9521 H   0  0  0  0  0  0  0  0  0  0  0  0
    7.3617   -2.0474    0.7875 H   0  0  0  0  0  0  0  0  0  0  0  0
    2.2401   -0.5795   -2.4897 H   0  0  0  0  0  0  0  0  0  0  0  0
    0.2189    0.0219   -1.8755 H   0  0  0  0  0  0  0  0  0  0  0  0
    1.4583    1.2313    0.6601 H   0  0  0  0  0  0  0  0  0  0  0  0
    3.1408    1.7744   -0.8802 H   0  0  0  0  0  0  0  0  0  0  0  0
    2.5759    2.0882   -3.1013 H   0  0  0  0  0  0  0  0  0  0  0  0
    0.7388    3.2009   -0.6966 H   0  0  0  0  0  0  0  0  0  0  0  0
   -0.1194   -1.9594    1.2561 H   0  0  0  0  0  0  0  0  0  0  0  0
   -3.7921    2.5280   -1.7218 H   0  0  0  0  0  0  0  0  0  0  0  0
   -4.8394   -1.1336    2.1651 H   0  0  0  0  0  0  0  0  0  0  0  0
   -6.5240    1.1680    1.9425 H   0  0  0  0  0  0  0  0  0  0  0  0
   -7.7501    0.8638   -0.2011 H   0  0  0  0  0  0  0  0  0  0  0  0
   -6.6413   -0.5586   -0.6239 H   0  0  0  0  0  0  0  0  0  0  0  0
   -7.4544   -1.8305    1.4597 H   0  0  0  0  0  0  0  0  0  0  0  0
   -8.5707   -0.3415    1.8373 H   0  0  0  0  0  0  0  0  0  0  0  0
  1  2  1  0
  2  3  1  0
  3  4  1  0
  4  5  2  0
  5  6  1  0
  6  7  2  0
  6  8  1  0
  8  9  1  0
  9 10  1  0
 10 11  1  0
 11 12  1  0
 12 13  1  0
 11 14  1  0
 10 15  1  0
 15 16  1  0
 16 17  2  0
 17 18  1  0
 18 19  2  0
 19 20  1  0
 20 21  2  0
 21 22  1  0
 22 23  2  0
 23 24  1  0
 24 25  1  0
 25 26  1  0
 26 27  1  0
  7  3  1  0
 12  8  1  0
 19 15  1  0
 27 25  1  0
 23 18  1  0
  1 28  1  0
  1 29  1  0
  1 30  1  0
  2 31  1  0
  2 32  1  0
  8 33  1  6
 10 34  1  6
 11 35  1  1
 12 36  1  1
 13 37  1  0
 14 38  1  0
 16 39  1  0
 21 40  1  0
 24 41  1  0
 25 42  1  0
 26 43  1  0
 26 44  1  0
 27 45  1  0
 27 46  1  0
M  END
>  <Ligand ID>  (1) 
LIG0001928

>  <Ligand>  (1) 
CHEMBL3414940

>  <SMILES>  (1) 
CCn1nnc(n1)[C@H]1O[C@H]([C@@H]([C@@H]1O)O)n1cnc2c1ncnc2NC1CC1

>  <CID>  (1) 
118732974.0

>  <ChEMBL ID>  (1) 
nan

>  <InChiKey>  (1) 
DEVAFUMPTPLYOY-BQVMBELUSA-N

>  <InChi>  (1) 
InChI=1S/C15H19N9O3/c1-2-24-21-13(20-22-24)11-9(25)10(26)15(27-11)23-6-18-8-12(19-7-3-4-7)16-5-17-14(8)23/h5-7,9-11,15,25-26H,2-4H2,1H3,(H,16,17,19)/t9-,10+,11-,15+/m0/s1

>  <IUPAC Name>  (1) 
(2R,3R,4S,5R)-2-[6-(cyclopropylamino)purin-9-yl]-5-(2-ethyltetrazol-5-yl)oxolane-3,4-diol

$$$$
