
     RDKit          3D

 10 10  0  0  0  0  0  0  0  0999 V2000
    2.7267    0.0404   -0.3912 S   0  0  0  0  0  0  0  0  0  0  0  0
    1.0918    0.0274   -0.2702 C   0  0  0  0  0  0  0  0  0  0  0  0
    0.3156   -1.0867   -0.1640 N   0  0  0  0  0  0  0  0  0  0  0  0
   -0.9752   -0.7083   -0.0855 C   0  0  0  0  0  0  0  0  0  0  0  0
   -1.0086    0.6720   -0.1438 C   0  0  0  0  0  0  0  0  0  0  0  0
    0.2608    1.1059   -0.2564 N   0  0  0  0  0  0  0  0  0  0  0  0
    0.6732   -2.0755   -0.1469 H   0  0  0  0  0  0  0  0  0  0  0  0
   -1.8407   -1.3788    0.0077 H   0  0  0  0  0  0  0  0  0  0  0  0
   -1.8749    1.3280   -0.1088 H   0  0  0  0  0  0  0  0  0  0  0  0
    0.6313    2.0756   -0.3263 H   0  0  0  0  0  0  0  0  0  0  0  0
  1  2  2  0
  2  3  1  0
  3  4  1  0
  4  5  2  0
  5  6  1  0
  6  2  1  0
  3  7  1  0
  4  8  1  0
  5  9  1  0
  6 10  1  0
M  END
>  <Ligand ID>  (1) 
LIG0005061

>  <Ligand>  (1) 
2-Thioimidazole

>  <SMILES>  (1) 
S=c1[nH]cc[nH]1

>  <CID>  (1) 
1201386.0

>  <ChEMBL ID>  (1) 
nan

>  <InChiKey>  (1) 
OXFSTTJBVAAALW-UHFFFAOYSA-N

>  <InChi>  (1) 
InChI=1S/C3H4N2S/c6-3-4-1-2-5-3/h1-2H,(H2,4,5,6)

>  <IUPAC Name>  (1) 
1,3-dihydroimidazole-2-thione

$$$$
