
     RDKit          3D

 96 99  0  0  0  0  0  0  0  0999 V2000
    1.8174    7.8141    1.5692 N   0  0  0  0  0  0  0  0  0  0  0  0
    2.2063    7.3596    0.2622 C   0  0  0  0  0  0  0  0  0  0  0  0
    2.0396    6.1509   -0.1379 N   0  0  0  0  0  0  0  0  0  0  0  0
    1.4398    5.1441    0.7086 C   0  0  0  0  0  0  0  0  0  0  0  0
    1.6914    3.7543    0.1039 C   0  0  0  0  0  0  0  0  0  0  0  0
    1.0870    2.6861    0.9588 C   0  0  0  0  0  0  0  0  0  0  0  0
    1.2693    1.3200    0.3879 C   0  0  1  0  0  0  0  0  0  0  0  0
    2.7061    0.9894    0.2496 C   0  0  0  0  0  0  0  0  0  0  0  0
    3.3438    1.6797   -0.6130 O   0  0  0  0  0  0  0  0  0  0  0  0
    3.3622   -0.0125    1.0049 N   0  0  0  0  0  0  0  0  0  0  0  0
    4.7122   -0.4213    0.9638 C   0  0  2  0  0  0  0  0  0  0  0  0
    5.6417    0.3380    1.8292 C   0  0  0  0  0  0  0  0  0  0  0  0
    5.2010    1.2658    2.5601 O   0  0  0  0  0  0  0  0  0  0  0  0
    7.0300   -0.0119    1.8053 N   0  0  0  0  0  0  0  0  0  0  0  0
    5.2652   -0.3511   -0.4631 C   0  0  0  0  0  0  0  0  0  0  0  0
    4.5309   -1.2344   -1.3867 C   0  0  0  0  0  0  0  0  0  0  0  0
    3.6148   -1.0082   -2.3706 C   0  0  0  0  0  0  0  0  0  0  0  0
    3.2437   -2.1757   -2.9349 N   0  0  0  0  0  0  0  0  0  0  0  0
    3.9038   -3.1807   -2.3373 C   0  0  0  0  0  0  0  0  0  0  0  0
    4.7082   -2.6251   -1.3746 C   0  0  0  0  0  0  0  0  0  0  0  0
    5.4866   -3.4809   -0.6272 C   0  0  0  0  0  0  0  0  0  0  0  0
    5.4736   -4.8646   -0.8241 C   0  0  0  0  0  0  0  0  0  0  0  0
    4.6507   -5.3925   -1.8034 C   0  0  0  0  0  0  0  0  0  0  0  0
    3.8665   -4.5467   -2.5586 C   0  0  0  0  0  0  0  0  0  0  0  0
    0.6255    0.3241    1.2697 N   0  0  0  0  0  0  0  0  0  0  0  0
   -0.4758   -0.3652    0.7042 C   0  0  0  0  0  0  0  0  0  0  0  0
   -0.8817   -0.1345   -0.4865 O   0  0  0  0  0  0  0  0  0  0  0  0
   -1.2465   -1.4038    1.4415 C   0  0  2  0  0  0  0  0  0  0  0  0
   -2.3469   -1.8572    0.5980 N   0  0  0  0  0  0  0  0  0  0  0  0
   -2.3746   -3.1250   -0.0394 C   0  0  0  0  0  0  0  0  0  0  0  0
   -1.4204   -3.9655    0.0858 O   0  0  0  0  0  0  0  0  0  0  0  0
   -3.5641   -3.4417   -0.8667 C   0  0  2  0  0  0  0  0  0  0  0  0
   -3.0346   -3.6781   -2.3077 C   0  0  0  0  0  0  0  0  0  0  0  0
   -4.0988   -4.0480   -3.2400 C   0  0  0  0  0  0  0  0  0  0  0  0
   -4.9046   -3.3628   -4.0489 N   0  0  0  0  0  0  0  0  0  0  0  0
   -5.7535   -4.2020   -4.7182 C   0  0  0  0  0  0  0  0  0  0  0  0
   -5.4729   -5.4600   -4.3174 N   0  0  0  0  0  0  0  0  0  0  0  0
   -4.4713   -5.3929   -3.4193 C   0  0  0  0  0  0  0  0  0  0  0  0
   -4.5423   -2.3958   -0.8241 N   0  0  0  0  0  0  0  0  0  0  0  0
   -4.5461   -1.2086   -1.5897 C   0  0  0  0  0  0  0  0  0  0  0  0
   -3.6950   -0.8680   -2.4179 O   0  0  0  0  0  0  0  0  0  0  0  0
   -5.6985   -0.2557   -1.3839 C   0  0  0  0  0  0  0  0  0  0  0  0
   -1.6854   -1.0110    2.8023 C   0  0  0  0  0  0  0  0  0  0  0  0
   -2.5694    0.1685    2.8376 C   0  0  0  0  0  0  0  0  0  0  0  0
   -3.9314    0.0028    2.7359 C   0  0  0  0  0  0  0  0  0  0  0  0
   -4.7969    1.0766    2.7611 C   0  0  0  0  0  0  0  0  0  0  0  0
   -4.3291    2.3633    2.8898 C   0  0  0  0  0  0  0  0  0  0  0  0
   -2.9636    2.5564    2.9940 C   0  0  0  0  0  0  0  0  0  0  0  0
   -2.1128    1.4733    2.9669 C   0  0  0  0  0  0  0  0  0  0  0  0
   -5.2587    3.5240    2.9182 C   0  0  0  0  0  0  0  0  0  0  0  0
    2.8127    8.2722   -0.6593 N   0  0  0  0  0  0  0  0  0  0  0  0
    0.9048    8.3147    1.6403 H   0  0  0  0  0  0  0  0  0  0  0  0
    2.4292    7.6467    2.4166 H   0  0  0  0  0  0  0  0  0  0  0  0
    1.8557    5.2326    1.7196 H   0  0  0  0  0  0  0  0  0  0  0  0
    0.3460    5.3584    0.7349 H   0  0  0  0  0  0  0  0  0  0  0  0
    1.2810    3.7751   -0.9145 H   0  0  0  0  0  0  0  0  0  0  0  0
    2.8154    3.6801    0.0914 H   0  0  0  0  0  0  0  0  0  0  0  0
    0.0212    2.9632    1.1036 H   0  0  0  0  0  0  0  0  0  0  0  0
    1.5124    2.7154    1.9989 H   0  0  0  0  0  0  0  0  0  0  0  0
    0.8118    1.2677   -0.6259 H   0  0  0  0  0  0  0  0  0  0  0  0
    2.7290   -0.5210    1.6998 H   0  0  0  0  0  0  0  0  0  0  0  0
    4.7253   -1.5397    1.2332 H   0  0  0  0  0  0  0  0  0  0  0  0
    7.4375   -0.8182    2.2907 H   0  0  0  0  0  0  0  0  0  0  0  0
    7.6322    0.6482    1.2266 H   0  0  0  0  0  0  0  0  0  0  0  0
    6.3456   -0.7096   -0.3568 H   0  0  0  0  0  0  0  0  0  0  0  0
    5.3052    0.6771   -0.7865 H   0  0  0  0  0  0  0  0  0  0  0  0
    3.2306   -0.0536   -2.6755 H   0  0  0  0  0  0  0  0  0  0  0  0
    2.5519   -2.2635   -3.7125 H   0  0  0  0  0  0  0  0  0  0  0  0
    6.1453   -3.1314    0.1420 H   0  0  0  0  0  0  0  0  0  0  0  0
    6.0896   -5.5262   -0.2290 H   0  0  0  0  0  0  0  0  0  0  0  0
    4.5897   -6.4620   -2.0102 H   0  0  0  0  0  0  0  0  0  0  0  0
    3.2379   -4.9705   -3.3096 H   0  0  0  0  0  0  0  0  0  0  0  0
    0.9444    0.1426    2.2367 H   0  0  0  0  0  0  0  0  0  0  0  0
   -0.5628   -2.2717    1.5183 H   0  0  0  0  0  0  0  0  0  0  0  0
   -3.1502   -1.1678    0.4820 H   0  0  0  0  0  0  0  0  0  0  0  0
   -4.0569   -4.4089   -0.6531 H   0  0  0  0  0  0  0  0  0  0  0  0
   -2.4579   -2.7839   -2.6001 H   0  0  0  0  0  0  0  0  0  0  0  0
   -2.2587   -4.4859   -2.2102 H   0  0  0  0  0  0  0  0  0  0  0  0
   -4.9371   -2.3543   -4.2049 H   0  0  0  0  0  0  0  0  0  0  0  0
   -6.5192   -3.8932   -5.4468 H   0  0  0  0  0  0  0  0  0  0  0  0
   -4.0476   -6.2646   -2.9331 H   0  0  0  0  0  0  0  0  0  0  0  0
   -5.3480   -2.5377   -0.1378 H   0  0  0  0  0  0  0  0  0  0  0  0
   -6.2071   -0.1742   -2.3881 H   0  0  0  0  0  0  0  0  0  0  0  0
   -6.4514   -0.6481   -0.6975 H   0  0  0  0  0  0  0  0  0  0  0  0
   -5.3233    0.7383   -1.0367 H   0  0  0  0  0  0  0  0  0  0  0  0
   -0.7830   -0.8464    3.4290 H   0  0  0  0  0  0  0  0  0  0  0  0
   -2.2329   -1.8635    3.2382 H   0  0  0  0  0  0  0  0  0  0  0  0
   -4.3148   -1.0021    2.6344 H   0  0  0  0  0  0  0  0  0  0  0  0
   -5.8462    0.8629    2.6759 H   0  0  0  0  0  0  0  0  0  0  0  0
   -2.5567    3.5694    3.0975 H   0  0  0  0  0  0  0  0  0  0  0  0
   -1.0518    1.6510    3.0524 H   0  0  0  0  0  0  0  0  0  0  0  0
   -4.6829    4.4394    3.1694 H   0  0  0  0  0  0  0  0  0  0  0  0
   -6.1425    3.3750    3.5571 H   0  0  0  0  0  0  0  0  0  0  0  0
   -5.6207    3.6536    1.8562 H   0  0  0  0  0  0  0  0  0  0  0  0
    2.5609    9.2898   -0.5888 H   0  0  0  0  0  0  0  0  0  0  0  0
    3.4940    7.9151   -1.3850 H   0  0  0  0  0  0  0  0  0  0  0  0
  1  2  1  0
  2  3  2  3
  3  4  1  0
  4  5  1  0
  5  6  1  0
  6  7  1  0
  7  8  1  0
  8  9  2  0
  8 10  1  0
 10 11  1  0
 11 12  1  0
 12 13  2  0
 12 14  1  0
 11 15  1  0
 15 16  1  0
 16 17  2  0
 17 18  1  0
 18 19  1  0
 19 20  2  0
 20 21  1  0
 21 22  2  0
 22 23  1  0
 23 24  2  0
  7 25  1  0
 25 26  1  0
 26 27  2  0
 26 28  1  0
 28 29  1  0
 29 30  1  0
 30 31  2  0
 30 32  1  0
 32 33  1  0
 33 34  1  0
 34 35  1  0
 35 36  1  0
 36 37  2  0
 37 38  1  0
 32 39  1  0
 39 40  1  0
 40 41  2  0
 40 42  1  0
 28 43  1  0
 43 44  1  0
 44 45  2  0
 45 46  1  0
 46 47  2  0
 47 48  1  0
 48 49  2  0
 47 50  1  0
  2 51  1  0
 20 16  1  0
 38 34  2  0
 49 44  1  0
 24 19  1  0
  1 52  1  0
  1 53  1  0
  4 54  1  0
  4 55  1  0
  5 56  1  0
  5 57  1  0
  6 58  1  0
  6 59  1  0
  7 60  1  6
 10 61  1  0
 11 62  1  1
 14 63  1  0
 14 64  1  0
 15 65  1  0
 15 66  1  0
 17 67  1  0
 18 68  1  0
 21 69  1  0
 22 70  1  0
 23 71  1  0
 24 72  1  0
 25 73  1  0
 28 74  1  1
 29 75  1  0
 32 76  1  1
 33 77  1  0
 33 78  1  0
 35 79  1  0
 36 80  1  0
 38 81  1  0
 39 82  1  0
 42 83  1  0
 42 84  1  0
 42 85  1  0
 43 86  1  0
 43 87  1  0
 45 88  1  0
 46 89  1  0
 48 90  1  0
 49 91  1  0
 50 92  1  0
 50 93  1  0
 50 94  1  0
 51 95  1  0
 51 96  1  0
M  END
>  <Ligand ID>  (1) 
LIG0001722

>  <Ligand>  (1) 
CHEMBL503449

>  <SMILES>  (1) 
NC(=NCCC[C@@H](C(=O)N[C@H](C(=O)N)Cc1c[nH]c2c1cccc2)NC(=O)[C@H](NC(=O)[C@H](Cc1[nH]cnc1)NC(=O)C)Cc1ccc(cc1)C)N

>  <CID>  (1) 
25108086.0

>  <ChEMBL ID>  (1) 
nan

>  <InChiKey>  (1) 
NBONRIOTXHNHPH-ZXYZSCNASA-N

>  <InChi>  (1) 
InChI=1S/C35H45N11O5/c1-20-9-11-22(12-10-20)14-29(46-34(51)30(43-21(2)47)16-24-18-39-19-42-24)33(50)44-27(8-5-13-40-35(37)38)32(49)45-28(31(36)48)15-23-17-41-26-7-4-3-6-25(23)26/h3-4,6-7,9-12,17-19,27-30,41H,5,8,13-16H2,1-2H3,(H2,36,48)(H,39,42)(H,43,47)(H,44,50)(H,45,49)(H,46,51)(H4,37,38,40)/t27-,28-,29+,30-/m0/s1

>  <IUPAC Name>  (1) 
(2S)-2-[[(2R)-2-[[(2S)-2-acetamido-3-(1H-imidazol-5-yl)propanoyl]amino]-3-(4-methylphenyl)propanoyl]amino]-N-[(2S)-1-amino-3-(1H-indol-3-yl)-1-oxopropan-2-yl]-5-(diaminomethylideneamino)pentanamide

$$$$
