
     RDKit          3D

 19 19  0  0  0  0  0  0  0  0999 V2000
   -3.3869    0.0194   -0.1153 C   0  0  0  0  0  0  0  0  0  0  0  0
   -1.9634   -0.3458    0.2982 C   0  0  0  0  0  0  0  0  0  0  0  0
   -1.0382    0.3932   -0.4594 O   0  0  0  0  0  0  0  0  0  0  0  0
    0.3297    0.2424   -0.2725 C   0  0  0  0  0  0  0  0  0  0  0  0
    0.8432   -0.6424    0.6685 C   0  0  0  0  0  0  0  0  0  0  0  0
    2.2170   -0.7297    0.7888 C   0  0  0  0  0  0  0  0  0  0  0  0
    3.0888    0.0171    0.0218 C   0  0  0  0  0  0  0  0  0  0  0  0
    2.5717    0.9048   -0.9222 C   0  0  0  0  0  0  0  0  0  0  0  0
    1.2016    0.9940   -1.0445 C   0  0  0  0  0  0  0  0  0  0  0  0
   -4.0616   -0.7880    0.2772 H   0  0  0  0  0  0  0  0  0  0  0  0
   -3.4012    0.0698   -1.2374 H   0  0  0  0  0  0  0  0  0  0  0  0
   -3.6859    0.9971    0.3485 H   0  0  0  0  0  0  0  0  0  0  0  0
   -1.8551   -1.4314    0.1077 H   0  0  0  0  0  0  0  0  0  0  0  0
   -1.8908   -0.1708    1.3778 H   0  0  0  0  0  0  0  0  0  0  0  0
    0.1762   -1.2367    1.2794 H   0  0  0  0  0  0  0  0  0  0  0  0
    2.6150   -1.4195    1.5224 H   0  0  0  0  0  0  0  0  0  0  0  0
    4.1623   -0.0912    0.1581 H   0  0  0  0  0  0  0  0  0  0  0  0
    3.2351    1.5140   -1.5489 H   0  0  0  0  0  0  0  0  0  0  0  0
    0.8426    1.7037   -1.7981 H   0  0  0  0  0  0  0  0  0  0  0  0
  1  2  1  0
  2  3  1  0
  3  4  1  0
  4  5  2  0
  5  6  1  0
  6  7  2  0
  7  8  1  0
  8  9  2  0
  9  4  1  0
  1 10  1  0
  1 11  1  0
  1 12  1  0
  2 13  1  0
  2 14  1  0
  5 15  1  0
  6 16  1  0
  7 17  1  0
  8 18  1  0
  9 19  1  0
M  END
>  <Ligand ID>  (1) 
LIG0000632

>  <Ligand>  (1) 
Phenetole

>  <SMILES>  (1) 
CCOc1ccccc1

>  <CID>  (1) 
7674.0

>  <ChEMBL ID>  (1) 
nan

>  <InChiKey>  (1) 
DLRJIFUOBPOJNS-UHFFFAOYSA-N

>  <InChi>  (1) 
InChI=1S/C8H10O/c1-2-9-8-6-4-3-5-7-8/h3-7H,2H2,1H3

>  <IUPAC Name>  (1) 
ethoxybenzene

$$$$
