
     RDKit          3D

 49 51  0  0  0  0  0  0  0  0999 V2000
    9.6722   -0.0937    0.0979 O   0  0  0  0  0  0  0  0  0  0  0  0
    8.3417   -0.0451    0.5408 C   0  0  0  0  0  0  0  0  0  0  0  0
    8.1428    0.4981    1.6382 O   0  0  0  0  0  0  0  0  0  0  0  0
    7.3289   -0.6417   -0.3413 C   0  0  0  0  0  0  0  0  0  0  0  0
    5.9292   -0.5027    0.1884 C   0  0  0  0  0  0  0  0  0  0  0  0
    5.5021    0.9200    0.3471 C   0  0  0  0  0  0  0  0  0  0  0  0
    4.2078    1.0761    0.8198 O   0  0  0  0  0  0  0  0  0  0  0  0
    3.0560    0.7061    0.2084 C   0  0  0  0  0  0  0  0  0  0  0  0
    1.8665    0.9426    0.9059 C   0  0  0  0  0  0  0  0  0  0  0  0
    0.6332    0.6135    0.3892 C   0  0  0  0  0  0  0  0  0  0  0  0
    0.5048    0.0299   -0.8509 C   0  0  0  0  0  0  0  0  0  0  0  0
    1.6625   -0.2114   -1.5551 C   0  0  0  0  0  0  0  0  0  0  0  0
    2.9141    0.1258   -1.0248 C   0  0  0  0  0  0  0  0  0  0  0  0
   -0.7726   -0.3374   -1.4442 C   0  0  0  0  0  0  0  0  0  0  0  0
   -0.9410   -1.3990   -2.3018 C   0  0  0  0  0  0  0  0  0  0  0  0
   -2.1845   -1.6493   -2.7993 C   0  0  0  0  0  0  0  0  0  0  0  0
   -3.2787   -0.8688   -2.4674 C   0  0  0  0  0  0  0  0  0  0  0  0
   -3.1326    0.2165   -1.5969 C   0  0  0  0  0  0  0  0  0  0  0  0
   -1.8629    0.4523   -1.1042 C   0  0  0  0  0  0  0  0  0  0  0  0
   -4.2294    0.9986   -1.2644 O   0  0  0  0  0  0  0  0  0  0  0  0
   -5.0112    0.6809   -0.1845 C   0  0  0  0  0  0  0  0  0  0  0  0
   -4.8005   -0.4043    0.6431 C   0  0  0  0  0  0  0  0  0  0  0  0
   -5.6702   -0.6250    1.7175 C   0  0  0  0  0  0  0  0  0  0  0  0
   -6.7329    0.2186    1.9667 C   0  0  0  0  0  0  0  0  0  0  0  0
   -6.9470    1.3061    1.1401 C   0  0  0  0  0  0  0  0  0  0  0  0
   -6.0901    1.5218    0.0832 C   0  0  0  0  0  0  0  0  0  0  0  0
   -7.6785    0.0125    3.1017 C   0  0  0  0  0  0  0  0  0  0  0  0
   10.4165    0.1419    0.7398 H   0  0  0  0  0  0  0  0  0  0  0  0
    7.5532   -1.7258   -0.4255 H   0  0  0  0  0  0  0  0  0  0  0  0
    7.3796   -0.1887   -1.3652 H   0  0  0  0  0  0  0  0  0  0  0  0
    5.2810   -1.1568   -0.3884 H   0  0  0  0  0  0  0  0  0  0  0  0
    5.9632   -0.9304    1.2428 H   0  0  0  0  0  0  0  0  0  0  0  0
    5.5703    1.4584   -0.6491 H   0  0  0  0  0  0  0  0  0  0  0  0
    6.1727    1.4846    1.0400 H   0  0  0  0  0  0  0  0  0  0  0  0
    1.8697    1.3981    1.8890 H   0  0  0  0  0  0  0  0  0  0  0  0
   -0.2667    0.8081    0.9505 H   0  0  0  0  0  0  0  0  0  0  0  0
    1.5920   -0.6750   -2.5447 H   0  0  0  0  0  0  0  0  0  0  0  0
    3.7497   -0.0830   -1.6579 H   0  0  0  0  0  0  0  0  0  0  0  0
   -0.0703   -2.0144   -2.5614 H   0  0  0  0  0  0  0  0  0  0  0  0
   -2.3697   -2.4789   -3.4827 H   0  0  0  0  0  0  0  0  0  0  0  0
   -4.2508   -1.0849   -2.8719 H   0  0  0  0  0  0  0  0  0  0  0  0
   -1.7502    1.2892   -0.4330 H   0  0  0  0  0  0  0  0  0  0  0  0
   -3.9657   -1.0569    0.4378 H   0  0  0  0  0  0  0  0  0  0  0  0
   -5.5142   -1.4652    2.3649 H   0  0  0  0  0  0  0  0  0  0  0  0
   -7.7689    1.9861    1.3068 H   0  0  0  0  0  0  0  0  0  0  0  0
   -6.2835    2.3771   -0.5419 H   0  0  0  0  0  0  0  0  0  0  0  0
   -7.9482    1.0247    3.5072 H   0  0  0  0  0  0  0  0  0  0  0  0
   -8.5750   -0.4950    2.6871 H   0  0  0  0  0  0  0  0  0  0  0  0
   -7.2140   -0.5638    3.9026 H   0  0  0  0  0  0  0  0  0  0  0  0
  1  2  1  0
  2  3  2  0
  2  4  1  0
  4  5  1  0
  5  6  1  0
  6  7  1  0
  7  8  1  0
  8  9  2  0
  9 10  1  0
 10 11  2  0
 11 12  1  0
 12 13  2  0
 11 14  1  0
 14 15  2  0
 15 16  1  0
 16 17  2  0
 17 18  1  0
 18 19  2  0
 18 20  1  0
 20 21  1  0
 21 22  2  0
 22 23  1  0
 23 24  2  0
 24 25  1  0
 25 26  2  0
 24 27  1  0
 13  8  1  0
 19 14  1  0
 26 21  1  0
  1 28  1  0
  4 29  1  0
  4 30  1  0
  5 31  1  0
  5 32  1  0
  6 33  1  0
  6 34  1  0
  9 35  1  0
 10 36  1  0
 12 37  1  0
 13 38  1  0
 15 39  1  0
 16 40  1  0
 17 41  1  0
 19 42  1  0
 22 43  1  0
 23 44  1  0
 25 45  1  0
 26 46  1  0
 27 47  1  0
 27 48  1  0
 27 49  1  0
M  END
>  <Ligand ID>  (1) 
LIG0003832

>  <Ligand>  (1) 
CHEMBL3916564

>  <SMILES>  (1) 
OC(=O)CCCOc1ccc(cc1)c1cccc(c1)Oc1ccc(cc1)C

>  <CID>  (1) 
134143163.0

>  <ChEMBL ID>  (1) 
nan

>  <InChiKey>  (1) 
VMUBDMITNQFYMG-UHFFFAOYSA-N

>  <InChi>  (1) 
InChI=1S/C23H22O4/c1-17-7-11-21(12-8-17)27-22-5-2-4-19(16-22)18-9-13-20(14-10-18)26-15-3-6-23(24)25/h2,4-5,7-14,16H,3,6,15H2,1H3,(H,24,25)

>  <IUPAC Name>  (1) 
4-[4-[3-(4-methylphenoxy)phenyl]phenoxy]butanoic acid

$$$$
