
     RDKit          3D

119122  0  0  0  0  0  0  0  0999 V2000
    7.4237    0.6790    2.5670 C   0  0  0  0  0  0  0  0  0  0  0  0
    6.1484    0.3923    1.7838 C   0  0  0  0  0  0  0  0  0  0  0  0
    5.8929    1.4714    0.7546 C   0  0  0  0  0  0  0  0  0  0  0  0
    4.6778    1.2552   -0.0434 C   0  0  0  0  0  0  0  0  0  0  0  0
    3.3570    1.1923    0.6731 C   0  0  2  0  0  0  0  0  0  0  0  0
    3.0205    2.3613    1.4028 N   0  0  0  0  0  0  0  0  0  0  0  0
    2.1548    3.4176    0.8962 C   0  0  0  0  0  0  0  0  0  0  0  0
    1.7487    3.2164   -0.2425 O   0  0  0  0  0  0  0  0  0  0  0  0
    1.8986    4.5457    1.7924 C   0  0  0  0  0  0  0  0  0  0  0  0
    1.0425    5.6515    1.3463 C   0  0  0  0  0  0  0  0  0  0  0  0
   -0.4001    5.3822    1.0672 C   0  0  2  0  0  0  0  0  0  0  0  0
   -0.6722    4.5274   -0.0471 N   0  0  0  0  0  0  0  0  0  0  0  0
   -1.3787    3.2706    0.0607 C   0  0  0  0  0  0  0  0  0  0  0  0
   -1.7040    2.9625    1.2050 O   0  0  0  0  0  0  0  0  0  0  0  0
   -1.6595    2.4446   -1.1680 C   0  0  1  0  0  0  0  0  0  0  0  0
   -2.2523    1.1866   -0.7723 N   0  0  0  0  0  0  0  0  0  0  0  0
   -1.4054    0.0432   -0.7267 C   0  0  0  0  0  0  0  0  0  0  0  0
   -0.2249    0.2167   -1.0355 O   0  0  0  0  0  0  0  0  0  0  0  0
   -1.8432   -1.3171   -0.3367 C   0  0  1  0  0  0  0  0  0  0  0  0
   -0.6330   -2.1144   -0.3564 N   0  0  0  0  0  0  0  0  0  0  0  0
   -0.5161   -3.3902   -0.9884 C   0  0  0  0  0  0  0  0  0  0  0  0
   -1.5540   -3.8081   -1.5147 O   0  0  0  0  0  0  0  0  0  0  0  0
    0.7900   -4.1316   -0.9839 C   0  0  2  0  0  0  0  0  0  0  0  0
    1.7581   -3.2346   -0.3434 N   0  0  0  0  0  0  0  0  0  0  0  0
    2.2392   -3.4632    0.9867 C   0  0  0  0  0  0  0  0  0  0  0  0
    1.7645   -4.4749    1.5357 O   0  0  0  0  0  0  0  0  0  0  0  0
    3.2101   -2.5991    1.6787 C   0  0  2  0  0  0  0  0  0  0  0  0
    3.4344   -1.3631    0.8732 N   0  0  0  0  0  0  0  0  0  0  0  0
    3.1197   -0.0730    1.3985 C   0  0  0  0  0  0  0  0  0  0  0  0
    2.6206   -0.0805    2.5347 O   0  0  0  0  0  0  0  0  0  0  0  0
    4.5290   -3.2079    2.0057 C   0  0  0  0  0  0  0  0  0  0  0  0
    5.4289   -3.6632    0.9535 C   0  0  0  0  0  0  0  0  0  0  0  0
    5.0512   -4.7151    0.0199 C   0  0  0  0  0  0  0  0  0  0  0  0
    4.0223   -5.3974   -0.0376 O   0  0  0  0  0  0  0  0  0  0  0  0
    6.0140   -5.0105   -0.9893 O   0  0  0  0  0  0  0  0  0  0  0  0
    1.2422   -4.5531   -2.3398 C   0  0  0  0  0  0  0  0  0  0  0  0
    0.3041   -5.4522   -3.0490 C   0  0  0  0  0  0  0  0  0  0  0  0
   -0.6734   -5.0152   -3.9147 C   0  0  0  0  0  0  0  0  0  0  0  0
   -1.5383   -5.8837   -4.5541 C   0  0  0  0  0  0  0  0  0  0  0  0
   -1.4490   -7.2545   -4.3413 C   0  0  0  0  0  0  0  0  0  0  0  0
   -0.4676   -7.7140   -3.4705 C   0  0  0  0  0  0  0  0  0  0  0  0
    0.3823   -6.8259   -2.8455 C   0  0  0  0  0  0  0  0  0  0  0  0
   -2.3306   -1.3283    1.1219 C   0  0  0  0  0  0  0  0  0  0  0  0
   -2.7363   -2.7883    1.3534 C   0  0  0  0  0  0  0  0  0  0  0  0
   -3.2582   -2.9978    2.7552 C   0  0  0  0  0  0  0  0  0  0  0  0
   -4.4305   -2.1703    3.0057 N   0  0  0  0  0  0  0  0  0  0  0  0
   -5.1049   -2.1618    4.0793 C   0  0  0  0  0  0  0  0  0  0  0  0
   -6.2350   -1.2788    4.1514 N   0  0  0  0  0  0  0  0  0  0  0  0
   -4.7968   -2.9727    5.1927 N   0  0  0  0  0  0  0  0  0  0  0  0
   -2.3856    3.2036   -2.2085 C   0  0  0  0  0  0  0  0  0  0  0  0
   -3.6955    3.7429   -1.8489 C   0  0  0  0  0  0  0  0  0  0  0  0
   -4.4694    3.6269   -0.7191 C   0  0  0  0  0  0  0  0  0  0  0  0
   -5.6214    4.3057   -0.8407 N   0  0  0  0  0  0  0  0  0  0  0  0
   -5.6094    4.8673   -2.0443 C   0  0  0  0  0  0  0  0  0  0  0  0
   -4.4465    4.5530   -2.7067 C   0  0  0  0  0  0  0  0  0  0  0  0
   -4.2758    5.0580   -3.9685 C   0  0  0  0  0  0  0  0  0  0  0  0
   -5.2272    5.8559   -4.5691 C   0  0  0  0  0  0  0  0  0  0  0  0
   -6.3848    6.1580   -3.8869 C   0  0  0  0  0  0  0  0  0  0  0  0
   -6.6005    5.6739   -2.6181 C   0  0  0  0  0  0  0  0  0  0  0  0
   -1.1741    6.6651    0.9832 C   0  0  0  0  0  0  0  0  0  0  0  0
   -1.0408    7.5297    1.9021 O   0  0  0  0  0  0  0  0  0  0  0  0
   -2.0391    6.8760   -0.1303 N   0  0  0  0  0  0  0  0  0  0  0  0
    8.2737    0.3385    1.9581 H   0  0  0  0  0  0  0  0  0  0  0  0
    7.4840    1.7800    2.8075 H   0  0  0  0  0  0  0  0  0  0  0  0
    7.3701    0.0893    3.4961 H   0  0  0  0  0  0  0  0  0  0  0  0
    5.3104    0.2436    2.4930 H   0  0  0  0  0  0  0  0  0  0  0  0
    6.3005   -0.6005    1.3105 H   0  0  0  0  0  0  0  0  0  0  0  0
    5.9986    2.4815    1.1991 H   0  0  0  0  0  0  0  0  0  0  0  0
    6.7890    1.4103    0.0730 H   0  0  0  0  0  0  0  0  0  0  0  0
    4.6421    2.0227   -0.8710 H   0  0  0  0  0  0  0  0  0  0  0  0
    4.7954    0.3005   -0.5962 H   0  0  0  0  0  0  0  0  0  0  0  0
    2.6137    1.1874   -0.1819 H   0  0  0  0  0  0  0  0  0  0  0  0
    3.3762    2.5177    2.3297 H   0  0  0  0  0  0  0  0  0  0  0  0
    1.4353    4.1266    2.7519 H   0  0  0  0  0  0  0  0  0  0  0  0
    2.8989    4.9365    2.1968 H   0  0  0  0  0  0  0  0  0  0  0  0
    1.4849    6.1442    0.4266 H   0  0  0  0  0  0  0  0  0  0  0  0
    1.0961    6.4614    2.1494 H   0  0  0  0  0  0  0  0  0  0  0  0
   -0.7977    4.9212    2.0347 H   0  0  0  0  0  0  0  0  0  0  0  0
   -0.3808    4.7612   -0.9943 H   0  0  0  0  0  0  0  0  0  0  0  0
   -0.6126    2.2813   -1.5713 H   0  0  0  0  0  0  0  0  0  0  0  0
   -3.2219    1.0179   -0.5193 H   0  0  0  0  0  0  0  0  0  0  0  0
   -2.6356   -1.7214   -0.9743 H   0  0  0  0  0  0  0  0  0  0  0  0
    0.2142   -1.7770    0.1016 H   0  0  0  0  0  0  0  0  0  0  0  0
    0.6580   -4.9984   -0.2887 H   0  0  0  0  0  0  0  0  0  0  0  0
    2.1495   -2.4011   -0.7916 H   0  0  0  0  0  0  0  0  0  0  0  0
    2.7569   -2.2511    2.6234 H   0  0  0  0  0  0  0  0  0  0  0  0
    3.8104   -1.3760   -0.0671 H   0  0  0  0  0  0  0  0  0  0  0  0
    5.0826   -2.5461    2.7151 H   0  0  0  0  0  0  0  0  0  0  0  0
    4.2885   -4.1120    2.6526 H   0  0  0  0  0  0  0  0  0  0  0  0
    5.9296   -2.8059    0.3960 H   0  0  0  0  0  0  0  0  0  0  0  0
    6.3472   -4.0900    1.5044 H   0  0  0  0  0  0  0  0  0  0  0  0
    5.9721   -5.9037   -1.4706 H   0  0  0  0  0  0  0  0  0  0  0  0
    2.1981   -5.1428   -2.2333 H   0  0  0  0  0  0  0  0  0  0  0  0
    1.5160   -3.7105   -2.9973 H   0  0  0  0  0  0  0  0  0  0  0  0
   -0.7786   -3.9574   -4.1172 H   0  0  0  0  0  0  0  0  0  0  0  0
   -2.2961   -5.5028   -5.2289 H   0  0  0  0  0  0  0  0  0  0  0  0
   -2.1282   -7.9289   -4.8442 H   0  0  0  0  0  0  0  0  0  0  0  0
   -0.3984   -8.7952   -3.3031 H   0  0  0  0  0  0  0  0  0  0  0  0
    1.1242   -7.2435   -2.1801 H   0  0  0  0  0  0  0  0  0  0  0  0
   -1.5566   -1.0112    1.8191 H   0  0  0  0  0  0  0  0  0  0  0  0
   -3.2555   -0.7200    1.1376 H   0  0  0  0  0  0  0  0  0  0  0  0
   -1.8936   -3.4784    1.2134 H   0  0  0  0  0  0  0  0  0  0  0  0
   -3.5175   -3.0643    0.6242 H   0  0  0  0  0  0  0  0  0  0  0  0
   -3.5987   -4.0518    2.8062 H   0  0  0  0  0  0  0  0  0  0  0  0
   -2.4745   -2.8821    3.5099 H   0  0  0  0  0  0  0  0  0  0  0  0
   -6.5867   -0.9019    5.0687 H   0  0  0  0  0  0  0  0  0  0  0  0
   -6.7588   -0.9726    3.2898 H   0  0  0  0  0  0  0  0  0  0  0  0
   -3.9976   -2.7749    5.8301 H   0  0  0  0  0  0  0  0  0  0  0  0
   -5.3662   -3.8272    5.4364 H   0  0  0  0  0  0  0  0  0  0  0  0
   -2.5406    2.5019   -3.0752 H   0  0  0  0  0  0  0  0  0  0  0  0
   -1.6969    3.9803   -2.6001 H   0  0  0  0  0  0  0  0  0  0  0  0
   -4.2144    3.0707    0.1651 H   0  0  0  0  0  0  0  0  0  0  0  0
   -6.3767    4.3612   -0.0957 H   0  0  0  0  0  0  0  0  0  0  0  0
   -3.3928    4.8430   -4.5217 H   0  0  0  0  0  0  0  0  0  0  0  0
   -5.1290    6.2724   -5.5611 H   0  0  0  0  0  0  0  0  0  0  0  0
   -7.1778    6.7820   -4.3006 H   0  0  0  0  0  0  0  0  0  0  0  0
   -7.5142    5.9071   -2.0690 H   0  0  0  0  0  0  0  0  0  0  0  0
   -1.5825    7.1198   -1.0387 H   0  0  0  0  0  0  0  0  0  0  0  0
   -3.0763    6.7967   -0.0663 H   0  0  0  0  0  0  0  0  0  0  0  0
  1  2  1  0
  2  3  1  0
  3  4  1  0
  4  5  1  0
  5  6  1  0
  6  7  1  0
  7  8  2  0
  7  9  1  0
  9 10  1  0
 10 11  1  0
 11 12  1  0
 12 13  1  0
 13 14  2  0
 13 15  1  0
 15 16  1  0
 16 17  1  0
 17 18  2  0
 17 19  1  0
 19 20  1  0
 20 21  1  0
 21 22  2  0
 21 23  1  0
 23 24  1  0
 24 25  1  0
 25 26  2  0
 25 27  1  0
 27 28  1  0
 28 29  1  0
 29 30  2  0
 27 31  1  0
 31 32  1  0
 32 33  1  0
 33 34  2  0
 33 35  1  0
 23 36  1  0
 36 37  1  0
 37 38  2  0
 38 39  1  0
 39 40  2  0
 40 41  1  0
 41 42  2  0
 19 43  1  0
 43 44  1  0
 44 45  1  0
 45 46  1  0
 46 47  2  3
 47 48  1  0
 47 49  1  0
 15 50  1  0
 50 51  1  0
 51 52  2  0
 52 53  1  0
 53 54  1  0
 54 55  2  0
 55 56  1  0
 56 57  2  0
 57 58  1  0
 58 59  2  0
 11 60  1  0
 60 61  2  0
 60 62  1  0
 29  5  1  0
 42 37  1  0
 55 51  1  0
 59 54  1  0
  1 63  1  0
  1 64  1  0
  1 65  1  0
  2 66  1  0
  2 67  1  0
  3 68  1  0
  3 69  1  0
  4 70  1  0
  4 71  1  0
  5 72  1  6
  6 73  1  0
  9 74  1  0
  9 75  1  0
 10 76  1  0
 10 77  1  0
 11 78  1  1
 12 79  1  0
 15 80  1  6
 16 81  1  0
 19 82  1  6
 20 83  1  0
 23 84  1  1
 24 85  1  0
 27 86  1  1
 28 87  1  0
 31 88  1  0
 31 89  1  0
 32 90  1  0
 32 91  1  0
 35 92  1  0
 36 93  1  0
 36 94  1  0
 38 95  1  0
 39 96  1  0
 40 97  1  0
 41 98  1  0
 42 99  1  0
 43100  1  0
 43101  1  0
 44102  1  0
 44103  1  0
 45104  1  0
 45105  1  0
 48106  1  0
 48107  1  0
 49108  1  0
 49109  1  0
 50110  1  0
 50111  1  0
 52112  1  0
 53113  1  0
 56114  1  0
 57115  1  0
 58116  1  0
 59117  1  0
 62118  1  0
 62119  1  0
M  END
>  <Ligand ID>  (1) 
LIG0001834

>  <Ligand>  (1) 
CHEMBL382369

>  <SMILES>  (1) 
CCCC[C@@H]1NC(=O)CC[C@H](NC(=O)[C@@H](NC(=O)[C@@H](NC(=O)[C@H](NC(=O)[C@H](NC1=O)CCC(=O)O)Cc1ccccc1)CCCN=C(N)N)Cc1c[nH]c2c1cccc2)C(=O)N

>  <CID>  (1) 
44408399.0

>  <ChEMBL ID>  (1) 
nan

>  <InChiKey>  (1) 
ZIKRFHYQHLHVCP-HSPZZYPGSA-N

>  <InChi>  (1) 
InChI=1S/C42H57N11O9/c1-2-3-13-29-37(58)51-31(17-19-35(55)56)39(60)52-32(21-24-10-5-4-6-11-24)40(61)50-30(15-9-20-46-42(44)45)38(59)53-33(22-25-23-47-27-14-8-7-12-26(25)27)41(62)49-28(36(43)57)16-18-34(54)48-29/h4-8,10-12,14,23,28-33,47H,2-3,9,13,15-22H2,1H3,(H2,43,57)(H,48,54)(H,49,62)(H,50,61)(H,51,58)(H,52,60)(H,53,59)(H,55,56)(H4,44,45,46)/t28-,29-,30-,31+,32+,33-/m0/s1

>  <IUPAC Name>  (1) 
3-[(2S,5R,8R,11S,14S,17S)-8-benzyl-2-butyl-17-carbamoyl-11-[3-(diaminomethylideneamino)propyl]-14-(1H-indol-3-ylmethyl)-3,6,9,12,15,20-hexaoxo-1,4,7,10,13,16-hexazacycloicos-5-yl]propanoic acid

$$$$
