
     RDKit          3D

152155  0  0  0  0  0  0  0  0999 V2000
   11.5171    6.9749    0.7656 C   0  0  0  0  0  0  0  0  0  0  0  0
   11.4333    5.5370    0.5190 C   0  0  0  0  0  0  0  0  0  0  0  0
   11.2074    5.1394   -0.6452 O   0  0  0  0  0  0  0  0  0  0  0  0
   11.6080    4.5953    1.6022 N   0  0  0  0  0  0  0  0  0  0  0  0
   11.5356    3.1759    1.3949 C   0  0  0  0  0  0  0  0  0  0  0  0
   10.2031    2.7068    0.8573 C   0  0  0  0  0  0  0  0  0  0  0  0
    9.1475    3.0707    1.8726 C   0  0  0  0  0  0  0  0  0  0  0  0
    7.7764    2.6370    1.4689 C   0  0  0  0  0  0  0  0  0  0  0  0
    7.6646    1.1351    1.2407 C   0  0  1  0  0  0  0  0  0  0  0  0
    8.0026    0.3905    2.4653 C   0  0  0  0  0  0  0  0  0  0  0  0
    7.1263   -0.3198    3.0088 O   0  0  0  0  0  0  0  0  0  0  0  0
    9.2793    0.4189    3.0954 N   0  0  0  0  0  0  0  0  0  0  0  0
    6.2689    0.8602    0.8788 N   0  0  0  0  0  0  0  0  0  0  0  0
    5.8960    0.4245   -0.4229 C   0  0  0  0  0  0  0  0  0  0  0  0
    6.8450    0.2888   -1.2560 O   0  0  0  0  0  0  0  0  0  0  0  0
    4.5143    0.1497   -0.7929 C   0  0  2  0  0  0  0  0  0  0  0  0
    4.1054    1.1102   -1.9014 C   0  0  0  0  0  0  0  0  0  0  0  0
    5.0188    0.8668   -3.0453 C   0  0  0  0  0  0  0  0  0  0  0  0
    6.0541    1.6616   -3.4649 C   0  0  0  0  0  0  0  0  0  0  0  0
    6.6253    1.0907   -4.5312 N   0  0  0  0  0  0  0  0  0  0  0  0
    6.0007   -0.0750   -4.8448 C   0  0  0  0  0  0  0  0  0  0  0  0
    4.9888   -0.2148   -3.9073 C   0  0  0  0  0  0  0  0  0  0  0  0
    4.1773   -1.3499   -4.0015 C   0  0  0  0  0  0  0  0  0  0  0  0
    4.3771   -2.2943   -4.9870 C   0  0  0  0  0  0  0  0  0  0  0  0
    5.3879   -2.1333   -5.9041 C   0  0  0  0  0  0  0  0  0  0  0  0
    6.2157   -1.0212   -5.8495 C   0  0  0  0  0  0  0  0  0  0  0  0
    3.6122    0.2437    0.3425 N   0  0  0  0  0  0  0  0  0  0  0  0
    2.6102   -0.7385    0.4499 C   0  0  0  0  0  0  0  0  0  0  0  0
    2.5152   -1.6617   -0.4517 O   0  0  0  0  0  0  0  0  0  0  0  0
    1.6081   -0.8346    1.5338 C   0  0  1  0  0  0  0  0  0  0  0  0
    0.7124   -1.9042    1.1864 N   0  0  0  0  0  0  0  0  0  0  0  0
   -0.7016   -1.6513    1.2945 C   0  0  0  0  0  0  0  0  0  0  0  0
   -1.1560   -0.5460    1.6879 O   0  0  0  0  0  0  0  0  0  0  0  0
   -1.6363   -2.7759    0.9128 C   0  0  2  0  0  0  0  0  0  0  0  0
   -2.9698   -2.3012    1.2036 N   0  0  0  0  0  0  0  0  0  0  0  0
   -3.8937   -1.9035    0.1880 C   0  0  0  0  0  0  0  0  0  0  0  0
   -3.4788   -1.9940   -1.0084 O   0  0  0  0  0  0  0  0  0  0  0  0
   -5.2216   -1.4256    0.5801 C   0  0  1  0  0  0  0  0  0  0  0  0
   -6.0617   -0.9861   -0.5219 N   0  0  0  0  0  0  0  0  0  0  0  0
   -6.5817    0.3029   -0.6265 C   0  0  0  0  0  0  0  0  0  0  0  0
   -6.2723    1.0911    0.3718 O   0  0  0  0  0  0  0  0  0  0  0  0
   -7.4015    0.9313   -1.6415 C   0  0  1  0  0  0  0  0  0  0  0  0
   -7.8552    2.2209   -1.1197 N   0  0  0  0  0  0  0  0  0  0  0  0
   -8.1330    3.3725   -1.8535 C   0  0  0  0  0  0  0  0  0  0  0  0
   -7.9846    3.4710   -3.1009 O   0  0  0  0  0  0  0  0  0  0  0  0
   -8.6487    4.6311   -1.1965 C   0  0  1  0  0  0  0  0  0  0  0  0
   -8.3675    5.7791   -2.0537 N   0  0  0  0  0  0  0  0  0  0  0  0
   -7.6737    6.8754   -1.4536 C   0  0  0  0  0  0  0  0  0  0  0  0
   -7.3437    6.7862   -0.2203 O   0  0  0  0  0  0  0  0  0  0  0  0
   -7.3197    8.1005   -2.1877 C   0  0  0  0  0  0  0  0  0  0  0  0
  -10.1701    4.5170   -1.0465 C   0  0  0  0  0  0  0  0  0  0  0  0
  -10.5905    3.3742   -0.2035 C   0  0  0  0  0  0  0  0  0  0  0  0
  -12.1311    3.3301   -0.1362 C   0  0  0  0  0  0  0  0  0  0  0  0
  -10.1453    3.5058    1.2431 C   0  0  0  0  0  0  0  0  0  0  0  0
   -6.7603    1.1201   -3.0091 C   0  0  0  0  0  0  0  0  0  0  0  0
   -6.3826   -0.0985   -3.7164 C   0  0  0  0  0  0  0  0  0  0  0  0
   -6.7870   -1.2568   -3.5717 O   0  0  0  0  0  0  0  0  0  0  0  0
   -5.3683    0.0626   -4.7582 N   0  0  0  0  0  0  0  0  0  0  0  0
   -5.9812   -2.3460    1.4794 C   0  0  0  0  0  0  0  0  0  0  0  0
   -6.2416   -3.6780    0.9366 C   0  0  0  0  0  0  0  0  0  0  0  0
   -6.9297   -4.6497    1.6982 C   0  0  0  0  0  0  0  0  0  0  0  0
   -7.0073   -5.7611    0.9511 N   0  0  0  0  0  0  0  0  0  0  0  0
   -6.4166   -5.5569   -0.2259 C   0  0  0  0  0  0  0  0  0  0  0  0
   -5.9594   -4.2842   -0.2112 N   0  0  0  0  0  0  0  0  0  0  0  0
   -1.2748   -3.9455    1.7594 C   0  0  0  0  0  0  0  0  0  0  0  0
   -2.0911   -5.1644    1.5157 C   0  0  0  0  0  0  0  0  0  0  0  0
   -3.2324   -5.4773    2.2327 C   0  0  0  0  0  0  0  0  0  0  0  0
   -3.9561   -6.6294    1.9543 C   0  0  0  0  0  0  0  0  0  0  0  0
   -3.4932   -7.4358    0.9449 C   0  0  0  0  0  0  0  0  0  0  0  0
   -2.3608   -7.1447    0.2196 C   0  0  0  0  0  0  0  0  0  0  0  0
   -1.6221   -5.9967    0.4835 C   0  0  0  0  0  0  0  0  0  0  0  0
    2.3973   -1.1250    2.7992 C   0  0  0  0  0  0  0  0  0  0  0  0
    3.1884   -2.4129    2.6562 C   0  0  0  0  0  0  0  0  0  0  0  0
    3.9946   -2.7487    3.8949 C   0  0  0  0  0  0  0  0  0  0  0  0
    4.7616   -3.9448    3.7859 N   0  0  0  0  0  0  0  0  0  0  0  0
    4.3975   -5.1156    3.4608 C   0  0  0  0  0  0  0  0  0  0  0  0
    5.4189   -6.1311    3.4399 N   0  0  0  0  0  0  0  0  0  0  0  0
    3.0619   -5.5004    3.1194 N   0  0  0  0  0  0  0  0  0  0  0  0
   12.0246    7.4585   -0.1086 H   0  0  0  0  0  0  0  0  0  0  0  0
   12.1238    7.2262    1.6576 H   0  0  0  0  0  0  0  0  0  0  0  0
   10.5351    7.4361    0.8998 H   0  0  0  0  0  0  0  0  0  0  0  0
   11.7897    5.0237    2.5449 H   0  0  0  0  0  0  0  0  0  0  0  0
   12.3731    2.8258    0.7287 H   0  0  0  0  0  0  0  0  0  0  0  0
   11.7269    2.6989    2.4023 H   0  0  0  0  0  0  0  0  0  0  0  0
   10.0239    3.2151   -0.0982 H   0  0  0  0  0  0  0  0  0  0  0  0
   10.2232    1.5885    0.7249 H   0  0  0  0  0  0  0  0  0  0  0  0
    9.4755    2.7597    2.8628 H   0  0  0  0  0  0  0  0  0  0  0  0
    9.1209    4.1984    1.8632 H   0  0  0  0  0  0  0  0  0  0  0  0
    7.4341    3.1736    0.5696 H   0  0  0  0  0  0  0  0  0  0  0  0
    7.0725    2.8921    2.2817 H   0  0  0  0  0  0  0  0  0  0  0  0
    8.3010    0.8313    0.4041 H   0  0  0  0  0  0  0  0  0  0  0  0
   10.1683    0.1463    2.6357 H   0  0  0  0  0  0  0  0  0  0  0  0
    9.3074    0.7387    4.0940 H   0  0  0  0  0  0  0  0  0  0  0  0
    5.5792    1.0104    1.6484 H   0  0  0  0  0  0  0  0  0  0  0  0
    4.4310   -0.8600   -1.2506 H   0  0  0  0  0  0  0  0  0  0  0  0
    3.0668    0.8690   -2.2835 H   0  0  0  0  0  0  0  0  0  0  0  0
    4.0623    2.1568   -1.5962 H   0  0  0  0  0  0  0  0  0  0  0  0
    6.3074    2.5912   -2.9661 H   0  0  0  0  0  0  0  0  0  0  0  0
    7.4390    1.4701   -5.0633 H   0  0  0  0  0  0  0  0  0  0  0  0
    3.3610   -1.5186   -3.2933 H   0  0  0  0  0  0  0  0  0  0  0  0
    3.7185   -3.1736   -5.0321 H   0  0  0  0  0  0  0  0  0  0  0  0
    5.5050   -2.8845   -6.6443 H   0  0  0  0  0  0  0  0  0  0  0  0
    7.0122   -0.8617   -6.5414 H   0  0  0  0  0  0  0  0  0  0  0  0
    3.6584    0.9848    1.0686 H   0  0  0  0  0  0  0  0  0  0  0  0
    1.1104    0.1169    1.6892 H   0  0  0  0  0  0  0  0  0  0  0  0
    1.0879   -2.8273    0.8652 H   0  0  0  0  0  0  0  0  0  0  0  0
   -1.5062   -2.9664   -0.1809 H   0  0  0  0  0  0  0  0  0  0  0  0
   -3.2650   -2.2467    2.2234 H   0  0  0  0  0  0  0  0  0  0  0  0
   -5.0282   -0.4786    1.1852 H   0  0  0  0  0  0  0  0  0  0  0  0
   -6.2953   -1.6655   -1.2390 H   0  0  0  0  0  0  0  0  0  0  0  0
   -8.3400    0.3551   -1.8604 H   0  0  0  0  0  0  0  0  0  0  0  0
   -7.9781    2.2437   -0.0694 H   0  0  0  0  0  0  0  0  0  0  0  0
   -8.2192    4.7816   -0.2254 H   0  0  0  0  0  0  0  0  0  0  0  0
   -8.6450    5.8275   -3.0641 H   0  0  0  0  0  0  0  0  0  0  0  0
   -6.3560    7.9457   -2.7472 H   0  0  0  0  0  0  0  0  0  0  0  0
   -8.1227    8.3329   -2.9240 H   0  0  0  0  0  0  0  0  0  0  0  0
   -7.1849    8.9374   -1.4742 H   0  0  0  0  0  0  0  0  0  0  0  0
  -10.5157    5.4635   -0.5901 H   0  0  0  0  0  0  0  0  0  0  0  0
  -10.5791    4.3596   -2.0683 H   0  0  0  0  0  0  0  0  0  0  0  0
  -10.2985    2.4014   -0.5952 H   0  0  0  0  0  0  0  0  0  0  0  0
  -12.4615    4.3532    0.1542 H   0  0  0  0  0  0  0  0  0  0  0  0
  -12.4647    2.5537    0.5433 H   0  0  0  0  0  0  0  0  0  0  0  0
  -12.4279    3.1790   -1.2102 H   0  0  0  0  0  0  0  0  0  0  0  0
   -9.6641    2.5575    1.5996 H   0  0  0  0  0  0  0  0  0  0  0  0
  -11.0143    3.6581    1.9425 H   0  0  0  0  0  0  0  0  0  0  0  0
   -9.4802    4.3748    1.4221 H   0  0  0  0  0  0  0  0  0  0  0  0
   -7.6443    1.5069   -3.6511 H   0  0  0  0  0  0  0  0  0  0  0  0
   -6.0061    1.9166   -3.0508 H   0  0  0  0  0  0  0  0  0  0  0  0
   -4.6098    0.7774   -4.6545 H   0  0  0  0  0  0  0  0  0  0  0  0
   -5.4307   -0.5689   -5.6218 H   0  0  0  0  0  0  0  0  0  0  0  0
   -6.9552   -1.8562    1.7356 H   0  0  0  0  0  0  0  0  0  0  0  0
   -5.4670   -2.4252    2.4821 H   0  0  0  0  0  0  0  0  0  0  0  0
   -7.3268   -4.5601    2.6838 H   0  0  0  0  0  0  0  0  0  0  0  0
   -6.3508   -6.3025   -1.0072 H   0  0  0  0  0  0  0  0  0  0  0  0
   -5.4599   -3.8635   -0.9922 H   0  0  0  0  0  0  0  0  0  0  0  0
   -1.3462   -3.6674    2.8556 H   0  0  0  0  0  0  0  0  0  0  0  0
   -0.2004   -4.2275    1.6356 H   0  0  0  0  0  0  0  0  0  0  0  0
   -3.5692   -4.8113    3.0359 H   0  0  0  0  0  0  0  0  0  0  0  0
   -4.8466   -6.9103    2.4899 H   0  0  0  0  0  0  0  0  0  0  0  0
   -4.0323   -8.3618    0.6850 H   0  0  0  0  0  0  0  0  0  0  0  0
   -2.0562   -7.8334   -0.5632 H   0  0  0  0  0  0  0  0  0  0  0  0
   -0.7320   -5.7502   -0.0794 H   0  0  0  0  0  0  0  0  0  0  0  0
    3.1619   -0.3037    2.8638 H   0  0  0  0  0  0  0  0  0  0  0  0
    1.8168   -1.0465    3.7216 H   0  0  0  0  0  0  0  0  0  0  0  0
    3.9411   -2.2247    1.8582 H   0  0  0  0  0  0  0  0  0  0  0  0
    2.5473   -3.2772    2.4431 H   0  0  0  0  0  0  0  0  0  0  0  0
    3.2985   -2.7730    4.7872 H   0  0  0  0  0  0  0  0  0  0  0  0
    4.6881   -1.9093    4.1114 H   0  0  0  0  0  0  0  0  0  0  0  0
    6.2384   -5.9042    2.8101 H   0  0  0  0  0  0  0  0  0  0  0  0
    5.3950   -6.9966    3.9666 H   0  0  0  0  0  0  0  0  0  0  0  0
    2.3151   -5.6267    3.8718 H   0  0  0  0  0  0  0  0  0  0  0  0
    2.7870   -5.6695    2.1036 H   0  0  0  0  0  0  0  0  0  0  0  0
  1  2  1  0
  2  3  2  0
  2  4  1  0
  4  5  1  0
  5  6  1  0
  6  7  1  0
  7  8  1  0
  8  9  1  0
  9 10  1  0
 10 11  2  0
 10 12  1  0
  9 13  1  0
 13 14  1  0
 14 15  2  0
 14 16  1  0
 16 17  1  0
 17 18  1  0
 18 19  2  0
 19 20  1  0
 20 21  1  0
 21 22  2  0
 22 23  1  0
 23 24  2  0
 24 25  1  0
 25 26  2  0
 16 27  1  0
 27 28  1  0
 28 29  2  0
 28 30  1  0
 30 31  1  0
 31 32  1  0
 32 33  2  0
 32 34  1  0
 34 35  1  0
 35 36  1  0
 36 37  2  0
 36 38  1  0
 38 39  1  0
 39 40  1  0
 40 41  2  0
 40 42  1  0
 42 43  1  0
 43 44  1  0
 44 45  2  0
 44 46  1  0
 46 47  1  0
 47 48  1  0
 48 49  2  0
 48 50  1  0
 46 51  1  0
 51 52  1  0
 52 53  1  0
 52 54  1  0
 42 55  1  0
 55 56  1  0
 56 57  2  0
 56 58  1  0
 38 59  1  0
 59 60  1  0
 60 61  2  0
 61 62  1  0
 62 63  2  0
 63 64  1  0
 34 65  1  0
 65 66  1  0
 66 67  2  0
 67 68  1  0
 68 69  2  0
 69 70  1  0
 70 71  2  0
 30 72  1  0
 72 73  1  0
 73 74  1  0
 74 75  1  0
 75 76  2  3
 76 77  1  0
 76 78  1  0
 22 18  1  0
 64 60  1  0
 71 66  1  0
 26 21  1  0
  1 79  1  0
  1 80  1  0
  1 81  1  0
  4 82  1  0
  5 83  1  0
  5 84  1  0
  6 85  1  0
  6 86  1  0
  7 87  1  0
  7 88  1  0
  8 89  1  0
  8 90  1  0
  9 91  1  6
 12 92  1  0
 12 93  1  0
 13 94  1  0
 16 95  1  6
 17 96  1  0
 17 97  1  0
 19 98  1  0
 20 99  1  0
 23100  1  0
 24101  1  0
 25102  1  0
 26103  1  0
 27104  1  0
 30105  1  1
 31106  1  0
 34107  1  6
 35108  1  0
 38109  1  1
 39110  1  0
 42111  1  6
 43112  1  0
 46113  1  1
 47114  1  0
 50115  1  0
 50116  1  0
 50117  1  0
 51118  1  0
 51119  1  0
 52120  1  0
 53121  1  0
 53122  1  0
 53123  1  0
 54124  1  0
 54125  1  0
 54126  1  0
 55127  1  0
 55128  1  0
 58129  1  0
 58130  1  0
 59131  1  0
 59132  1  0
 61133  1  0
 63134  1  0
 64135  1  0
 65136  1  0
 65137  1  0
 67138  1  0
 68139  1  0
 69140  1  0
 70141  1  0
 71142  1  0
 72143  1  0
 72144  1  0
 73145  1  0
 73146  1  0
 74147  1  0
 74148  1  0
 77149  1  0
 77150  1  0
 78151  1  0
 78152  1  0
M  END
>  <Ligand ID>  (1) 
LIG0003421

>  <Ligand>  (1) 
CHEMBL3358542

>  <SMILES>  (1) 
CC(=O)NCCCC[C@@H](C(=O)N)NC(=O)[C@H](Cc1c[nH]c2c1cccc2)NC(=O)[C@@H](NC(=O)[C@H](NC(=O)[C@@H](NC(=O)[C@@H](NC(=O)[C@@H](NC(=O)C)CC(C)C)CC(=O)N)Cc1cnc[nH]1)Cc1ccccc1)CCCN=C(N)N

>  <CID>  (1) 
118722934.0

>  <ChEMBL ID>  (1) 
nan

>  <InChiKey>  (1) 
VYNGHUMPDYNLGJ-ZRBRQIMBSA-N

>  <InChi>  (1) 
InChI=1S/C52H74N16O10/c1-29(2)21-39(62-31(4)70)47(74)68-43(25-44(53)71)51(78)67-42(24-34-27-57-28-61-34)50(77)65-40(22-32-13-6-5-7-14-32)48(75)64-38(18-12-20-59-52(55)56)46(73)66-41(23-33-26-60-36-16-9-8-15-35(33)36)49(76)63-37(45(54)72)17-10-11-19-58-30(3)69/h5-9,13-16,26-29,37-43,60H,10-12,17-25H2,1-4H3,(H2,53,71)(H2,54,72)(H,57,61)(H,58,69)(H,62,70)(H,63,76)(H,64,75)(H,65,77)(H,66,73)(H,67,78)(H,68,74)(H4,55,56,59)/t37-,38-,39-,40+,41-,42-,43-/m0/s1

>  <IUPAC Name>  (1) 
(2S)-N-[(2S)-1-[[(2R)-1-[[(2S)-1-[[(2S)-1-[[(2S)-6-acetamido-1-amino-1-oxohexan-2-yl]amino]-3-(1H-indol-3-yl)-1-oxopropan-2-yl]amino]-5-(diaminomethylideneamino)-1-oxopentan-2-yl]amino]-1-oxo-3-phenylpropan-2-yl]amino]-3-(1H-imidazol-5-yl)-1-oxopropan-2-yl]-2-[[(2S)-2-acetamido-4-methylpentanoyl]amino]butanediamide

$$$$
