
     RDKit          3D

 91 94  0  0  0  0  0  0  0  0999 V2000
    5.8731   -3.4288   -0.5943 C   0  0  0  0  0  0  0  0  0  0  0  0
    4.4927   -2.7420   -0.4910 C   0  0  0  0  0  0  0  0  0  0  0  0
    4.1447   -2.6087    0.9459 C   0  0  2  0  0  0  0  0  0  0  0  0
    2.8581   -1.9702    1.2998 C   0  0  2  0  0  0  0  0  0  0  0  0
    1.7353   -2.7694    0.6752 C   0  0  0  0  0  0  0  0  0  0  0  0
    0.8166   -1.8176    0.0715 N   0  0  0  0  0  0  0  0  0  0  0  0
    1.2298   -0.5290    0.6237 C   0  0  0  0  0  0  0  0  0  0  0  0
    0.4303    0.4177    0.7644 N   0  0  0  0  0  0  0  0  0  0  0  0
    2.6354   -0.6106    0.9435 N   0  0  0  0  0  0  0  0  0  0  0  0
    3.6340    0.4253    0.9273 C   0  0  0  0  0  0  0  0  0  0  0  0
    3.1742    1.8058    0.6128 C   0  0  0  0  0  0  0  0  0  0  0  0
    4.3986    2.7073    0.6044 C   0  0  0  0  0  0  0  0  0  0  0  0
    4.7927    3.3264    1.7919 C   0  0  0  0  0  0  0  0  0  0  0  0
    5.9046    4.1389    1.7672 C   0  0  0  0  0  0  0  0  0  0  0  0
    6.6043    4.3256    0.5780 C   0  0  0  0  0  0  0  0  0  0  0  0
    6.2115    3.7115   -0.5951 C   0  0  0  0  0  0  0  0  0  0  0  0
    5.1051    2.9003   -0.5797 C   0  0  0  0  0  0  0  0  0  0  0  0
    7.1566    4.0054   -2.0533 Cl  0  0  0  0  0  0  0  0  0  0  0  0
    8.0145    5.3724    0.6037 Cl  0  0  0  0  0  0  0  0  0  0  0  0
   -0.2752   -2.0213   -0.8414 C   0  0  2  0  0  0  0  0  0  0  0  0
    0.0873   -2.5590   -2.2084 C   0  0  0  0  0  0  0  0  0  0  0  0
    0.7285   -3.9238   -2.2089 C   0  0  0  0  0  0  0  0  0  0  0  0
    1.0683   -1.6463   -2.9186 C   0  0  0  0  0  0  0  0  0  0  0  0
   -1.4323   -1.1408   -0.7859 C   0  0  0  0  0  0  0  0  0  0  0  0
   -1.4948    0.2096   -0.9763 N   0  0  0  0  0  0  0  0  0  0  0  0
   -1.2769    0.8675   -2.2017 C   0  0  0  0  0  0  0  0  0  0  0  0
   -2.4520    0.5187   -3.0938 C   0  0  0  0  0  0  0  0  0  0  0  0
   -3.5726    0.6154   -2.0486 C   0  0  0  0  0  0  0  0  0  0  0  0
   -2.8399    0.6871   -0.7016 C   0  0  1  0  0  0  0  0  0  0  0  0
   -3.6401   -0.0061    0.2990 C   0  0  0  0  0  0  0  0  0  0  0  0
   -4.9455    0.6733    0.3819 N   0  0  0  0  0  0  0  0  0  0  0  0
   -6.2157    0.1671   -0.0143 C   0  0  0  0  0  0  0  0  0  0  0  0
   -7.0512    1.1049   -0.2358 N   0  0  0  0  0  0  0  0  0  0  0  0
   -6.3939    2.3975    0.0010 C   0  0  0  0  0  0  0  0  0  0  0  0
   -5.2047    2.0156    0.8915 C   0  0  1  0  0  0  0  0  0  0  0  0
   -5.5990    1.9935    2.3438 C   0  0  0  0  0  0  0  0  0  0  0  0
   -6.8507    1.1855    2.5876 C   0  0  0  0  0  0  0  0  0  0  0  0
   -5.7979    3.4024    2.8180 C   0  0  0  0  0  0  0  0  0  0  0  0
   -6.5156   -1.2332   -0.1470 N   0  0  0  0  0  0  0  0  0  0  0  0
    5.3448   -2.1036    1.7242 C   0  0  0  0  0  0  0  0  0  0  0  0
    6.6422   -2.6812   -0.3486 H   0  0  0  0  0  0  0  0  0  0  0  0
    6.0378   -3.7624   -1.6451 H   0  0  0  0  0  0  0  0  0  0  0  0
    5.9630   -4.2565    0.1282 H   0  0  0  0  0  0  0  0  0  0  0  0
    3.8052   -3.3771   -1.0933 H   0  0  0  0  0  0  0  0  0  0  0  0
    4.6474   -1.7616   -0.9630 H   0  0  0  0  0  0  0  0  0  0  0  0
    4.0384   -3.6922    1.3177 H   0  0  0  0  0  0  0  0  0  0  0  0
    2.7413   -2.1235    2.4226 H   0  0  0  0  0  0  0  0  0  0  0  0
    2.1065   -3.4896   -0.0482 H   0  0  0  0  0  0  0  0  0  0  0  0
    1.1922   -3.3876    1.4510 H   0  0  0  0  0  0  0  0  0  0  0  0
    0.3883    1.3502    1.0824 H   0  0  0  0  0  0  0  0  0  0  0  0
    4.1678    0.3701    1.9133 H   0  0  0  0  0  0  0  0  0  0  0  0
    4.4631    0.2126    0.1887 H   0  0  0  0  0  0  0  0  0  0  0  0
    2.4746    2.1848    1.3910 H   0  0  0  0  0  0  0  0  0  0  0  0
    2.7569    1.8671   -0.3988 H   0  0  0  0  0  0  0  0  0  0  0  0
    4.2108    3.1374    2.6617 H   0  0  0  0  0  0  0  0  0  0  0  0
    6.1906    4.6060    2.6953 H   0  0  0  0  0  0  0  0  0  0  0  0
    4.8034    2.4226   -1.5033 H   0  0  0  0  0  0  0  0  0  0  0  0
   -0.7362   -2.9945   -0.3885 H   0  0  0  0  0  0  0  0  0  0  0  0
   -0.8284   -2.6784   -2.8400 H   0  0  0  0  0  0  0  0  0  0  0  0
    1.8224   -3.8435   -2.3209 H   0  0  0  0  0  0  0  0  0  0  0  0
    0.4138   -4.4645   -1.2977 H   0  0  0  0  0  0  0  0  0  0  0  0
    0.3038   -4.5591   -3.0501 H   0  0  0  0  0  0  0  0  0  0  0  0
    1.6421   -1.0290   -2.2005 H   0  0  0  0  0  0  0  0  0  0  0  0
    1.8187   -2.2763   -3.4303 H   0  0  0  0  0  0  0  0  0  0  0  0
    0.5775   -1.0672   -3.7282 H   0  0  0  0  0  0  0  0  0  0  0  0
   -1.8593   -1.2968    0.2694 H   0  0  0  0  0  0  0  0  0  0  0  0
   -2.2359   -1.6341   -1.4158 H   0  0  0  0  0  0  0  0  0  0  0  0
   -0.3071    0.8680   -2.6597 H   0  0  0  0  0  0  0  0  0  0  0  0
   -1.4662    1.9684   -1.9753 H   0  0  0  0  0  0  0  0  0  0  0  0
   -2.6114    1.2520   -3.9025 H   0  0  0  0  0  0  0  0  0  0  0  0
   -2.3221   -0.5243   -3.4513 H   0  0  0  0  0  0  0  0  0  0  0  0
   -4.1558    1.5219   -2.2498 H   0  0  0  0  0  0  0  0  0  0  0  0
   -4.1366   -0.3357   -2.1283 H   0  0  0  0  0  0  0  0  0  0  0  0
   -2.7516    1.7617   -0.4433 H   0  0  0  0  0  0  0  0  0  0  0  0
   -3.2140    0.1323    1.3353 H   0  0  0  0  0  0  0  0  0  0  0  0
   -3.8715   -1.0526    0.1488 H   0  0  0  0  0  0  0  0  0  0  0  0
   -5.9675    2.7070   -0.9750 H   0  0  0  0  0  0  0  0  0  0  0  0
   -7.0633    3.1231    0.4615 H   0  0  0  0  0  0  0  0  0  0  0  0
   -4.3577    2.7027    0.7651 H   0  0  0  0  0  0  0  0  0  0  0  0
   -4.7769    1.4972    2.9007 H   0  0  0  0  0  0  0  0  0  0  0  0
   -6.7304    0.1174    2.3960 H   0  0  0  0  0  0  0  0  0  0  0  0
   -7.7261    1.5609    2.0296 H   0  0  0  0  0  0  0  0  0  0  0  0
   -7.1051    1.3150    3.6677 H   0  0  0  0  0  0  0  0  0  0  0  0
   -5.9203    4.0716    1.9433 H   0  0  0  0  0  0  0  0  0  0  0  0
   -6.7213    3.5121    3.4251 H   0  0  0  0  0  0  0  0  0  0  0  0
   -4.8933    3.7482    3.3841 H   0  0  0  0  0  0  0  0  0  0  0  0
   -5.7955   -1.9392   -0.4037 H   0  0  0  0  0  0  0  0  0  0  0  0
   -7.4900   -1.5527    0.0202 H   0  0  0  0  0  0  0  0  0  0  0  0
    5.9203   -1.4119    1.1125 H   0  0  0  0  0  0  0  0  0  0  0  0
    6.0428   -2.9536    1.9683 H   0  0  0  0  0  0  0  0  0  0  0  0
    4.9896   -1.7296    2.6877 H   0  0  0  0  0  0  0  0  0  0  0  0
  1  2  1  0
  2  3  1  0
  3  4  1  0
  4  5  1  0
  5  6  1  0
  6  7  1  0
  7  8  2  3
  7  9  1  0
  9 10  1  0
 10 11  1  0
 11 12  1  0
 12 13  2  0
 13 14  1  0
 14 15  2  0
 15 16  1  0
 16 17  2  0
 16 18  1  0
 15 19  1  0
  6 20  1  0
 20 21  1  0
 21 22  1  0
 21 23  1  0
 20 24  1  0
 24 25  1  0
 25 26  1  0
 26 27  1  0
 27 28  1  0
 28 29  1  0
 29 30  1  0
 30 31  1  0
 31 32  1  0
 32 33  2  0
 33 34  1  0
 34 35  1  0
 35 36  1  0
 36 37  1  0
 36 38  1  0
 32 39  1  0
  3 40  1  0
  9  4  1  0
 17 12  1  0
 29 25  1  0
 35 31  1  0
  1 41  1  0
  1 42  1  0
  1 43  1  0
  2 44  1  0
  2 45  1  0
  3 46  1  1
  4 47  1  1
  5 48  1  0
  5 49  1  0
  8 50  1  0
 10 51  1  0
 10 52  1  0
 11 53  1  0
 11 54  1  0
 13 55  1  0
 14 56  1  0
 17 57  1  0
 20 58  1  1
 21 59  1  0
 22 60  1  0
 22 61  1  0
 22 62  1  0
 23 63  1  0
 23 64  1  0
 23 65  1  0
 24 66  1  0
 24 67  1  0
 26 68  1  0
 26 69  1  0
 27 70  1  0
 27 71  1  0
 28 72  1  0
 28 73  1  0
 29 74  1  1
 30 75  1  0
 30 76  1  0
 34 77  1  0
 34 78  1  0
 35 79  1  1
 36 80  1  0
 37 81  1  0
 37 82  1  0
 37 83  1  0
 38 84  1  0
 38 85  1  0
 38 86  1  0
 39 87  1  0
 39 88  1  0
 40 89  1  0
 40 90  1  0
 40 91  1  0
M  END
>  <Ligand ID>  (1) 
LIG0003536

>  <Ligand>  (1) 
MLS002477291

>  <SMILES>  (1) 
CC[C@H]([C@@H]1CN(C(=N)N1CCc1ccc(c(c1)Cl)Cl)[C@H](C(C)C)CN1CCC[C@H]1CN1C(=NC[C@H]1C(C)C)N)C

>  <CID>  (1) 
44246590.0

>  <ChEMBL ID>  (1) 
nan

>  <InChiKey>  (1) 
HLJVKFVYBQDSAX-ISVKHVEWSA-N

>  <InChi>  (1) 
InChI=1S/C31H51Cl2N7/c1-7-22(6)29-19-40(31(35)38(29)14-12-23-10-11-25(32)26(33)15-23)28(21(4)5)18-37-13-8-9-24(37)17-39-27(20(2)3)16-36-30(39)34/h10-11,15,20-22,24,27-29,35H,7-9,12-14,16-19H2,1-6H3,(H2,34,36)/t22-,24+,27+,28+,29+/m1/s1

>  <IUPAC Name>  (1) 
(5R)-1-[[(2S)-1-[(2R)-2-[(4R)-4-[(2R)-butan-2-yl]-3-[2-(3,4-dichlorophenyl)ethyl]-2-iminoimidazolidin-1-yl]-3-methylbutyl]pyrrolidin-2-yl]methyl]-5-propan-2-yl-4,5-dihydroimidazol-2-amine

$$$$
