
     RDKit          3D

 71 77  0  0  0  0  0  0  0  0999 V2000
   -4.3562    4.6958    1.8541 C   0  0  0  0  0  0  0  0  0  0  0  0
   -3.5382    3.9061    1.0176 O   0  0  0  0  0  0  0  0  0  0  0  0
   -3.5519    2.5263    0.9729 C   0  0  0  0  0  0  0  0  0  0  0  0
   -4.4027    1.7559    1.7763 C   0  0  0  0  0  0  0  0  0  0  0  0
   -4.3865    0.3549    1.7023 C   0  0  0  0  0  0  0  0  0  0  0  0
   -3.5291   -0.2661    0.8343 C   0  0  0  0  0  0  0  0  0  0  0  0
   -2.7205    0.5395    0.0709 C   0  0  0  0  0  0  0  0  0  0  0  0
   -2.6871    1.8927    0.0966 C   0  0  0  0  0  0  0  0  0  0  0  0
   -1.7227    2.2789   -0.8285 O   0  0  0  0  0  0  0  0  0  0  0  0
   -1.0176    1.1460   -1.3293 C   0  0  2  0  0  0  0  0  0  0  0  0
   -1.8070   -0.0573   -0.9008 C   0  0  2  0  0  0  0  0  0  0  0  0
   -2.5762   -0.6927   -2.0027 C   0  0  0  0  0  0  0  0  0  0  0  0
   -2.5625   -2.1635   -2.1017 C   0  0  0  0  0  0  0  0  0  0  0  0
   -2.0300   -2.9082   -0.9991 N   0  0  0  0  0  0  0  0  0  0  0  0
   -2.0045   -2.1485    0.2373 C   0  0  2  0  0  0  0  0  0  0  0  0
   -3.3707   -1.7263    0.6760 C   0  0  0  0  0  0  0  0  0  0  0  0
   -1.0324   -1.0352   -0.0452 C   0  0  2  0  0  0  0  0  0  0  0  0
   -0.5725   -0.2848    1.1790 C   0  0  0  0  0  0  0  0  0  0  0  0
    0.3635    0.8206    0.7425 C   0  0  0  0  0  0  0  0  0  0  0  0
    0.3621    0.9618   -0.7475 C   0  0  2  0  0  0  0  0  0  0  0  0
    1.2210    1.9472   -1.1985 O   0  0  0  0  0  0  0  0  0  0  0  0
    0.8707    3.2345   -0.8965 C   0  0  0  0  0  0  0  0  0  0  0  0
    0.8758   -0.3333   -1.3669 C   0  0  2  0  0  0  0  0  0  0  0  0
    0.1886   -1.5379   -0.7726 C   0  0  0  0  0  0  0  0  0  0  0  0
    2.3529   -0.4313   -1.4442 C   0  0  0  0  0  0  0  0  0  0  0  0
    3.0536   -0.3746   -0.2757 O   0  0  0  0  0  0  0  0  0  0  0  0
    4.4151   -0.4894   -0.6451 C   0  0  0  0  0  0  0  0  0  0  0  0
    5.2301   -0.4396    0.5683 C   0  0  0  0  0  0  0  0  0  0  0  0
    5.5161    0.6952    1.2911 C   0  0  0  0  0  0  0  0  0  0  0  0
    5.0322    2.0732    0.9475 C   0  0  0  0  0  0  0  0  0  0  0  0
    6.2926    0.3317    2.3359 N   0  0  0  0  0  0  0  0  0  0  0  0
    6.4796   -0.9559    2.2675 O   0  0  0  0  0  0  0  0  0  0  0  0
    5.8679   -1.4722    1.2307 C   0  0  0  0  0  0  0  0  0  0  0  0
    5.8344   -2.8954    0.8022 C   0  0  0  0  0  0  0  0  0  0  0  0
   -2.7016   -4.1713   -0.8672 C   0  0  0  0  0  0  0  0  0  0  0  0
   -4.5606    5.6575    1.2957 H   0  0  0  0  0  0  0  0  0  0  0  0
   -3.8213    5.0305    2.7679 H   0  0  0  0  0  0  0  0  0  0  0  0
   -5.3222    4.2437    2.1132 H   0  0  0  0  0  0  0  0  0  0  0  0
   -5.0862    2.2512    2.4674 H   0  0  0  0  0  0  0  0  0  0  0  0
   -5.0299   -0.2598    2.3090 H   0  0  0  0  0  0  0  0  0  0  0  0
   -0.9038    1.2205   -2.4295 H   0  0  0  0  0  0  0  0  0  0  0  0
   -2.2410   -0.2146   -2.9740 H   0  0  0  0  0  0  0  0  0  0  0  0
   -3.6334   -0.3564   -1.9377 H   0  0  0  0  0  0  0  0  0  0  0  0
   -2.0020   -2.4669   -3.0110 H   0  0  0  0  0  0  0  0  0  0  0  0
   -3.5989   -2.5762   -2.2920 H   0  0  0  0  0  0  0  0  0  0  0  0
   -1.5673   -2.7929    1.0121 H   0  0  0  0  0  0  0  0  0  0  0  0
   -4.0994   -2.0617   -0.1143 H   0  0  0  0  0  0  0  0  0  0  0  0
   -3.7306   -2.2149    1.6064 H   0  0  0  0  0  0  0  0  0  0  0  0
   -1.3795    0.2109    1.7471 H   0  0  0  0  0  0  0  0  0  0  0  0
   -0.0775   -0.9811    1.8949 H   0  0  0  0  0  0  0  0  0  0  0  0
    0.1620    1.7746    1.2672 H   0  0  0  0  0  0  0  0  0  0  0  0
    1.3808    0.5242    1.0786 H   0  0  0  0  0  0  0  0  0  0  0  0
    0.8040    3.3913    0.2111 H   0  0  0  0  0  0  0  0  0  0  0  0
    0.0354    3.6632   -1.4610 H   0  0  0  0  0  0  0  0  0  0  0  0
    1.7623    3.8681   -1.1855 H   0  0  0  0  0  0  0  0  0  0  0  0
    0.5359   -0.3159   -2.4471 H   0  0  0  0  0  0  0  0  0  0  0  0
    0.8435   -2.0484   -0.0347 H   0  0  0  0  0  0  0  0  0  0  0  0
   -0.1335   -2.2697   -1.5303 H   0  0  0  0  0  0  0  0  0  0  0  0
    2.6952    0.4127   -2.1123 H   0  0  0  0  0  0  0  0  0  0  0  0
    2.6139   -1.3494   -1.9689 H   0  0  0  0  0  0  0  0  0  0  0  0
    4.5851   -1.4272   -1.2103 H   0  0  0  0  0  0  0  0  0  0  0  0
    4.6915    0.3565   -1.3016 H   0  0  0  0  0  0  0  0  0  0  0  0
    4.0670    1.9915    0.3703 H   0  0  0  0  0  0  0  0  0  0  0  0
    4.9120    2.6770    1.8706 H   0  0  0  0  0  0  0  0  0  0  0  0
    5.7933    2.5769    0.3003 H   0  0  0  0  0  0  0  0  0  0  0  0
    4.9149   -3.0915    0.1959 H   0  0  0  0  0  0  0  0  0  0  0  0
    5.8825   -3.5800    1.6713 H   0  0  0  0  0  0  0  0  0  0  0  0
    6.6745   -3.0611    0.0790 H   0  0  0  0  0  0  0  0  0  0  0  0
   -3.7849   -4.1059   -1.1040 H   0  0  0  0  0  0  0  0  0  0  0  0
   -2.5934   -4.5154    0.1770 H   0  0  0  0  0  0  0  0  0  0  0  0
   -2.1747   -4.9384   -1.5018 H   0  0  0  0  0  0  0  0  0  0  0  0
  1  2  1  0
  2  3  1  0
  3  4  2  0
  4  5  1  0
  5  6  2  0
  6  7  1  0
  7  8  2  0
  8  9  1  0
  9 10  1  0
 10 11  1  0
 11 12  1  6
 12 13  1  0
 13 14  1  0
 14 15  1  0
 15 16  1  0
 15 17  1  0
 17 18  1  1
 18 19  1  0
 19 20  1  0
 20 21  1  1
 21 22  1  0
 20 23  1  0
 23 24  1  0
 23 25  1  0
 25 26  1  0
 26 27  1  0
 27 28  1  0
 28 29  1  0
 29 30  1  0
 29 31  2  0
 31 32  1  0
 32 33  1  0
 33 34  1  0
 14 35  1  0
  8  3  1  0
 20 10  1  0
 33 28  2  0
 16  6  1  0
 24 17  1  0
 11  7  1  0
 17 11  1  0
  1 36  1  0
  1 37  1  0
  1 38  1  0
  4 39  1  0
  5 40  1  0
 10 41  1  6
 12 42  1  0
 12 43  1  0
 13 44  1  0
 13 45  1  0
 15 46  1  1
 16 47  1  0
 16 48  1  0
 18 49  1  0
 18 50  1  0
 19 51  1  0
 19 52  1  0
 22 53  1  0
 22 54  1  0
 22 55  1  0
 23 56  1  6
 24 57  1  0
 24 58  1  0
 25 59  1  0
 25 60  1  0
 27 61  1  0
 27 62  1  0
 30 63  1  0
 30 64  1  0
 30 65  1  0
 34 66  1  0
 34 67  1  0
 34 68  1  0
 35 69  1  0
 35 70  1  0
 35 71  1  0
M  END
>  <Ligand ID>  (1) 
LIG0003598

>  <Ligand>  (1) 
SCHEMBL10280488

>  <SMILES>  (1) 
COc1ccc2c3c1O[C@@H]1[C@@]43CCN([C@H](C2)[C@@]24CC[C@@]1(OC)[C@H](C2)COCc1c(C)noc1C)C

>  <CID>  (1) 
68090936.0

>  <ChEMBL ID>  (1) 
nan

>  <InChiKey>  (1) 
YSFWOXQJZZJOCO-SDNJBTIHSA-N

>  <InChi>  (1) 
InChI=1S/C28H36N2O5/c1-16-20(17(2)35-29-16)15-33-14-19-13-26-8-9-28(19,32-5)25-27(26)10-11-30(3)22(26)12-18-6-7-21(31-4)24(34-25)23(18)27/h6-7,19,22,25H,8-15H2,1-5H3/t19-,22-,25-,26-,27+,28-/m1/s1

>  <IUPAC Name>  (1) 
(1S,2S,6R,14R,15R,16R)-16-[(3,5-dimethyl-1,2-oxazol-4-yl)methoxymethyl]-11,15-dimethoxy-5-methyl-13-oxa-5-azahexacyclo[13.2.2.12,8.01,6.02,14.012,20]icosa-8(20),9,11-triene

$$$$
