
     RDKit          3D

 42 43  0  0  0  0  0  0  0  0999 V2000
    7.0005   -0.7523    0.0488 C   0  0  0  0  0  0  0  0  0  0  0  0
    5.8991   -0.5634   -0.9455 C   0  0  0  0  0  0  0  0  0  0  0  0
    4.5561   -0.4919   -0.2335 C   0  0  0  0  0  0  0  0  0  0  0  0
    3.4153   -0.2983   -1.2381 C   0  0  0  0  0  0  0  0  0  0  0  0
    2.1334   -0.2438   -0.3927 C   0  0  0  0  0  0  0  0  0  0  0  0
    0.9303   -0.0536   -1.2839 C   0  0  0  0  0  0  0  0  0  0  0  0
   -0.2904    0.0039   -0.5904 O   0  0  0  0  0  0  0  0  0  0  0  0
   -0.5925    0.9860    0.3799 C   0  0  0  0  0  0  0  0  0  0  0  0
    0.3887    1.9224    0.6285 N   0  0  0  0  0  0  0  0  0  0  0  0
   -0.3316    3.0232    1.9181 S   0  0  0  0  0  0  0  0  0  0  0  0
   -1.8311    2.1022    1.9582 N   0  0  0  0  0  0  0  0  0  0  0  0
   -1.7148    1.0604    1.0387 C   0  0  0  0  0  0  0  0  0  0  0  0
   -2.8895    0.1669    0.9271 C   0  0  0  0  0  0  0  0  0  0  0  0
   -2.9377   -0.8546    0.1093 C   0  0  0  0  0  0  0  0  0  0  0  0
   -4.2120   -1.6594    0.1238 C   0  0  0  0  0  0  0  0  0  0  0  0
   -5.4358   -0.8050    0.2611 C   0  0  0  0  0  0  0  0  0  0  0  0
   -5.2175    0.4856    0.8331 N   0  0  0  0  0  0  0  0  0  0  0  0
   -4.1157    0.3935    1.7693 C   0  0  0  0  0  0  0  0  0  0  0  0
   -4.9929    1.5175   -0.1589 C   0  0  0  0  0  0  0  0  0  0  0  0
    7.6347   -1.6550   -0.1849 H   0  0  0  0  0  0  0  0  0  0  0  0
    6.5938   -0.9468    1.0765 H   0  0  0  0  0  0  0  0  0  0  0  0
    7.6990    0.0890    0.1419 H   0  0  0  0  0  0  0  0  0  0  0  0
    6.0047    0.3215   -1.5904 H   0  0  0  0  0  0  0  0  0  0  0  0
    5.8573   -1.4417   -1.6263 H   0  0  0  0  0  0  0  0  0  0  0  0
    4.3752   -1.4296    0.3425 H   0  0  0  0  0  0  0  0  0  0  0  0
    4.5038    0.3519    0.4735 H   0  0  0  0  0  0  0  0  0  0  0  0
    3.5496    0.6916   -1.7002 H   0  0  0  0  0  0  0  0  0  0  0  0
    3.4024   -1.1351   -1.9391 H   0  0  0  0  0  0  0  0  0  0  0  0
    2.0678   -1.1649    0.2115 H   0  0  0  0  0  0  0  0  0  0  0  0
    2.2867    0.5840    0.2979 H   0  0  0  0  0  0  0  0  0  0  0  0
    1.0602    0.8892   -1.8962 H   0  0  0  0  0  0  0  0  0  0  0  0
    0.9322   -0.8746   -2.0245 H   0  0  0  0  0  0  0  0  0  0  0  0
   -2.1581   -1.1359   -0.5378 H   0  0  0  0  0  0  0  0  0  0  0  0
   -4.2809   -2.1587   -0.8849 H   0  0  0  0  0  0  0  0  0  0  0  0
   -4.1376   -2.4253    0.9182 H   0  0  0  0  0  0  0  0  0  0  0  0
   -6.1740   -1.3253    0.9373 H   0  0  0  0  0  0  0  0  0  0  0  0
   -5.9608   -0.6519   -0.7249 H   0  0  0  0  0  0  0  0  0  0  0  0
   -3.9807    1.3397    2.3100 H   0  0  0  0  0  0  0  0  0  0  0  0
   -4.2385   -0.4981    2.3902 H   0  0  0  0  0  0  0  0  0  0  0  0
   -5.9582    1.7793   -0.6134 H   0  0  0  0  0  0  0  0  0  0  0  0
   -4.2346    1.2210   -0.9077 H   0  0  0  0  0  0  0  0  0  0  0  0
   -4.6060    2.4081    0.3780 H   0  0  0  0  0  0  0  0  0  0  0  0
  1  2  1  0
  2  3  1  0
  3  4  1  0
  4  5  1  0
  5  6  1  0
  6  7  1  0
  7  8  1  0
  8  9  2  0
  9 10  1  0
 10 11  1  0
 11 12  2  0
 12 13  1  0
 13 14  2  0
 14 15  1  0
 15 16  1  0
 16 17  1  0
 17 18  1  0
 17 19  1  0
 12  8  1  0
 18 13  1  0
  1 20  1  0
  1 21  1  0
  1 22  1  0
  2 23  1  0
  2 24  1  0
  3 25  1  0
  3 26  1  0
  4 27  1  0
  4 28  1  0
  5 29  1  0
  5 30  1  0
  6 31  1  0
  6 32  1  0
 14 33  1  0
 15 34  1  0
 15 35  1  0
 16 36  1  0
 16 37  1  0
 18 38  1  0
 18 39  1  0
 19 40  1  0
 19 41  1  0
 19 42  1  0
M  END
>  <Ligand ID>  (1) 
LIG0001894

>  <Ligand>  (1) 
xanomeline

>  <SMILES>  (1) 
CCCCCCOc1nsnc1C1=CCCN(C1)C

>  <CID>  (1) 
60809.0

>  <ChEMBL ID>  (1) 
nan

>  <InChiKey>  (1) 
JOLJIIDDOBNFHW-UHFFFAOYSA-N

>  <InChi>  (1) 
InChI=1S/C14H23N3OS/c1-3-4-5-6-10-18-14-13(15-19-16-14)12-8-7-9-17(2)11-12/h8H,3-7,9-11H2,1-2H3

>  <IUPAC Name>  (1) 
3-hexoxy-4-(1-methyl-3,6-dihydro-2H-pyridin-5-yl)-1,2,5-thiadiazole

$$$$
