
     RDKit          3D

 49 53  0  0  0  0  0  0  0  0999 V2000
   -2.6505    3.8844   -0.0783 C   0  0  0  0  0  0  0  0  0  0  0  0
   -2.0866    2.6760    0.3834 O   0  0  0  0  0  0  0  0  0  0  0  0
   -1.0958    2.2459   -0.4619 C   0  0  2  0  0  0  0  0  0  0  0  0
   -1.3899    0.8801   -1.0383 C   0  0  0  0  0  0  0  0  0  0  0  0
   -1.3973   -0.1176    0.0602 C   0  0  1  0  0  0  0  0  0  0  0  0
   -1.5520   -1.5394   -0.4320 C   0  0  1  0  0  0  0  0  0  0  0  0
   -0.4272   -2.0490   -1.2617 C   0  0  0  0  0  0  0  0  0  0  0  0
    0.8709   -1.4190   -0.9441 C   0  0  0  0  0  0  0  0  0  0  0  0
    0.9489   -0.5238    0.0683 C   0  0  0  0  0  0  0  0  0  0  0  0
   -0.1785   -0.1031    0.9244 C   0  0  1  0  0  0  0  0  0  0  0  0
    0.3076    1.2297    1.3771 C   0  0  2  0  0  0  0  0  0  0  0  0
    0.2188    2.2477    0.2689 C   0  0  1  0  0  0  0  0  0  0  0  0
    1.2257    1.9553   -0.6595 O   0  0  0  0  0  0  0  0  0  0  0  0
    1.7154    0.9413    1.5166 O   0  0  0  0  0  0  0  0  0  0  0  0
    2.0854    0.1217    0.4488 C   0  0  0  0  0  0  0  0  0  0  0  0
    3.2451   -0.1494   -0.2397 C   0  0  0  0  0  0  0  0  0  0  0  0
    4.4033    0.5096    0.1497 O   0  0  0  0  0  0  0  0  0  0  0  0
    5.6633    0.3674   -0.4219 C   0  0  0  0  0  0  0  0  0  0  0  0
    3.2069   -1.0581   -1.2801 C   0  0  0  0  0  0  0  0  0  0  0  0
    2.0216   -1.7072   -1.6495 C   0  0  0  0  0  0  0  0  0  0  0  0
   -0.3391   -1.0937    2.0241 C   0  0  0  0  0  0  0  0  0  0  0  0
   -1.6204   -1.8764    1.9466 C   0  0  0  0  0  0  0  0  0  0  0  0
   -1.9096   -2.4236    0.6576 N   0  0  0  0  0  0  0  0  0  0  0  0
   -3.3199   -2.7755    0.6400 C   0  0  0  0  0  0  0  0  0  0  0  0
   -3.0638    3.6613   -1.0841 H   0  0  0  0  0  0  0  0  0  0  0  0
   -3.4221    4.2444    0.6242 H   0  0  0  0  0  0  0  0  0  0  0  0
   -1.8723    4.6555   -0.2454 H   0  0  0  0  0  0  0  0  0  0  0  0
   -0.9884    2.9595   -1.2971 H   0  0  0  0  0  0  0  0  0  0  0  0
   -0.7507    0.6613   -1.8971 H   0  0  0  0  0  0  0  0  0  0  0  0
   -2.4406    0.9458   -1.4324 H   0  0  0  0  0  0  0  0  0  0  0  0
   -2.2657    0.0846    0.7074 H   0  0  0  0  0  0  0  0  0  0  0  0
   -2.4551   -1.5055   -1.1091 H   0  0  0  0  0  0  0  0  0  0  0  0
   -0.6493   -2.0027   -2.3673 H   0  0  0  0  0  0  0  0  0  0  0  0
   -0.3206   -3.1388   -1.0590 H   0  0  0  0  0  0  0  0  0  0  0  0
   -0.1520    1.5361    2.3153 H   0  0  0  0  0  0  0  0  0  0  0  0
    0.4185    3.2435    0.6843 H   0  0  0  0  0  0  0  0  0  0  0  0
    0.8623    1.8894   -1.5877 H   0  0  0  0  0  0  0  0  0  0  0  0
    6.3063   -0.4034    0.0457 H   0  0  0  0  0  0  0  0  0  0  0  0
    6.1527    1.3826   -0.4265 H   0  0  0  0  0  0  0  0  0  0  0  0
    5.5504    0.1237   -1.5031 H   0  0  0  0  0  0  0  0  0  0  0  0
    4.1075   -1.2825   -1.8308 H   0  0  0  0  0  0  0  0  0  0  0  0
    2.0035   -2.4230   -2.4730 H   0  0  0  0  0  0  0  0  0  0  0  0
    0.5078   -1.8090    2.0767 H   0  0  0  0  0  0  0  0  0  0  0  0
   -0.3470   -0.5376    2.9836 H   0  0  0  0  0  0  0  0  0  0  0  0
   -1.5273   -2.7247    2.6557 H   0  0  0  0  0  0  0  0  0  0  0  0
   -2.4712   -1.2642    2.3559 H   0  0  0  0  0  0  0  0  0  0  0  0
   -3.9185   -1.8851    0.3028 H   0  0  0  0  0  0  0  0  0  0  0  0
   -3.5111   -3.6127   -0.0843 H   0  0  0  0  0  0  0  0  0  0  0  0
   -3.6996   -3.0220    1.6465 H   0  0  0  0  0  0  0  0  0  0  0  0
  1  2  1  0
  2  3  1  0
  3  4  1  0
  4  5  1  0
  5  6  1  0
  6  7  1  0
  7  8  1  0
  8  9  2  0
  9 10  1  0
 10 11  1  0
 11 12  1  0
 12 13  1  0
 11 14  1  0
 14 15  1  0
 15 16  2  0
 16 17  1  0
 17 18  1  0
 16 19  1  0
 19 20  2  0
 10 21  1  1
 21 22  1  0
 22 23  1  0
 23 24  1  0
 12  3  1  0
 10  5  1  0
 23  6  1  0
 20  8  1  0
 15  9  1  0
  1 25  1  0
  1 26  1  0
  1 27  1  0
  3 28  1  6
  4 29  1  0
  4 30  1  0
  5 31  1  1
  6 32  1  6
  7 33  1  0
  7 34  1  0
 11 35  1  1
 12 36  1  1
 13 37  1  0
 18 38  1  0
 18 39  1  0
 18 40  1  0
 19 41  1  0
 20 42  1  0
 21 43  1  0
 21 44  1  0
 22 45  1  0
 22 46  1  0
 24 47  1  0
 24 48  1  0
 24 49  1  0
M  END
>  <Ligand ID>  (1) 
LIG0001973

>  <Ligand>  (1) 
CHEMBL2418740

>  <SMILES>  (1) 
CO[C@@H]1C[C@H]2[C@H]3Cc4c5[C@]2([C@H]([C@H]1O)Oc5c(OC)cc4)CCN3C

>  <CID>  (1) 
71819402.0

>  <ChEMBL ID>  (1) 
nan

>  <InChiKey>  (1) 
VAIPMUQGZNZNFO-OBQUOYKWSA-N

>  <InChi>  (1) 
InChI=1S/C19H25NO4/c1-20-7-6-19-11-9-14(23-3)16(21)18(19)24-17-13(22-2)5-4-10(15(17)19)8-12(11)20/h4-5,11-12,14,16,18,21H,6-9H2,1-3H3/t11-,12+,14+,16-,18-,19-/m0/s1

>  <IUPAC Name>  (1) 
(4R,4aR,6R,7S,7aR,12bS)-6,9-dimethoxy-3-methyl-2,4,4a,5,6,7,7a,13-octahydro-1H-4,12-methanobenzofuro[3,2-e]isoquinolin-7-ol

$$$$
