
     RDKit          3D

149154  0  0  0  0  0  0  0  0999 V2000
   11.7989   -3.0342    1.9108 C   0  0  0  0  0  0  0  0  0  0  0  0
   10.6574   -2.1323    1.4772 C   0  0  0  0  0  0  0  0  0  0  0  0
   10.5699   -2.0076   -0.0292 C   0  0  0  0  0  0  0  0  0  0  0  0
    9.4492   -1.0989   -0.4699 C   0  0  0  0  0  0  0  0  0  0  0  0
    8.1557   -1.6014    0.0236 C   0  0  1  0  0  0  0  0  0  0  0  0
    6.9677   -0.7476   -0.3780 C   0  0  0  0  0  0  0  0  0  0  0  0
    7.1738    0.4596   -0.6632 O   0  0  0  0  0  0  0  0  0  0  0  0
    5.6355   -1.3177   -0.4214 N   0  0  0  0  0  0  0  0  0  0  0  0
    4.5879   -0.4509   -0.8289 C   0  0  1  0  0  0  0  0  0  0  0  0
    3.6026   -1.0633   -1.7491 C   0  0  0  0  0  0  0  0  0  0  0  0
    3.1079   -2.4163   -1.4032 C   0  0  0  0  0  0  0  0  0  0  0  0
    3.6437   -3.2165   -0.6245 O   0  0  0  0  0  0  0  0  0  0  0  0
    1.8923   -2.9532   -1.9868 N   0  0  0  0  0  0  0  0  0  0  0  0
    1.3837   -4.2532   -1.7859 C   0  0  0  0  0  0  0  0  0  0  0  0
    1.0468   -4.8883   -0.5372 C   0  0  0  0  0  0  0  0  0  0  0  0
    0.0322   -4.3943    0.4183 C   0  0  0  0  0  0  0  0  0  0  0  0
   -1.2964   -4.0420   -0.0970 C   0  0  0  0  0  0  0  0  0  0  0  0
   -2.3095   -3.8472    1.0549 C   0  0  2  0  0  0  0  0  0  0  0  0
   -3.3143   -2.9600    0.5122 N   0  0  0  0  0  0  0  0  0  0  0  0
   -4.6846   -3.1817    0.2182 C   0  0  0  0  0  0  0  0  0  0  0  0
   -5.1351   -4.2614    0.5884 O   0  0  0  0  0  0  0  0  0  0  0  0
   -5.5111   -2.1204   -0.5063 C   0  0  1  0  0  0  0  0  0  0  0  0
   -4.5395   -1.0875   -0.6899 N   0  0  0  0  0  0  0  0  0  0  0  0
   -4.5894    0.3228   -0.4971 C   0  0  0  0  0  0  0  0  0  0  0  0
   -5.7164    0.8166   -0.5343 O   0  0  0  0  0  0  0  0  0  0  0  0
   -3.3019    0.9690   -0.3071 C   0  0  1  0  0  0  0  0  0  0  0  0
   -2.8605    2.1208   -0.9643 N   0  0  0  0  0  0  0  0  0  0  0  0
   -1.4370    2.2652   -1.0327 C   0  0  0  0  0  0  0  0  0  0  0  0
   -0.8252    1.3421   -0.3680 O   0  0  0  0  0  0  0  0  0  0  0  0
   -0.5345    3.2131   -1.6740 C   0  0  2  0  0  0  0  0  0  0  0  0
    0.8382    2.8841   -1.2109 N   0  0  0  0  0  0  0  0  0  0  0  0
    1.1245    2.7805    0.2101 C   0  0  0  0  0  0  0  0  0  0  0  0
    0.2182    3.2054    0.9373 O   0  0  0  0  0  0  0  0  0  0  0  0
    2.3459    2.2494    0.7719 C   0  0  1  0  0  0  0  0  0  0  0  0
    3.1528    1.4972   -0.1785 N   0  0  0  0  0  0  0  0  0  0  0  0
    3.8534    0.2808    0.2273 C   0  0  0  0  0  0  0  0  0  0  0  0
    3.7571    0.0134    1.4125 O   0  0  0  0  0  0  0  0  0  0  0  0
    3.1963    3.1920    1.5837 C   0  0  0  0  0  0  0  0  0  0  0  0
    3.6989    4.3761    0.9273 C   0  0  0  0  0  0  0  0  0  0  0  0
    4.8881    4.4211    0.2492 N   0  0  0  0  0  0  0  0  0  0  0  0
    5.0770    5.6777   -0.2266 C   0  0  0  0  0  0  0  0  0  0  0  0
    4.0165    6.4530    0.1377 N   0  0  0  0  0  0  0  0  0  0  0  0
    3.2015    5.6576    0.8278 C   0  0  0  0  0  0  0  0  0  0  0  0
   -0.9493    4.5600   -1.8224 C   0  0  0  0  0  0  0  0  0  0  0  0
   -1.2948    5.4496   -0.7092 C   0  0  0  0  0  0  0  0  0  0  0  0
   -0.2844    6.1989   -0.1283 C   0  0  0  0  0  0  0  0  0  0  0  0
   -0.5359    7.0820    0.9001 C   0  0  0  0  0  0  0  0  0  0  0  0
   -1.8247    7.2376    1.3772 C   0  0  0  0  0  0  0  0  0  0  0  0
   -2.8272    6.5051    0.8113 C   0  0  0  0  0  0  0  0  0  0  0  0
   -2.5611    5.6354   -0.2052 C   0  0  0  0  0  0  0  0  0  0  0  0
   -4.1231    6.6736    1.2878 C   0  0  0  0  0  0  0  0  0  0  0  0
   -4.4011    7.5546    2.3059 C   0  0  0  0  0  0  0  0  0  0  0  0
   -3.3924    8.2970    2.8823 C   0  0  0  0  0  0  0  0  0  0  0  0
   -2.1001    8.1246    2.4010 C   0  0  0  0  0  0  0  0  0  0  0  0
   -3.1717    1.0472    1.2352 C   0  0  0  0  0  0  0  0  0  0  0  0
   -4.2798    1.8237    1.8864 C   0  0  0  0  0  0  0  0  0  0  0  0
   -4.4321    3.2449    1.5016 C   0  0  0  0  0  0  0  0  0  0  0  0
   -5.5409    3.7958    2.2565 N   0  0  0  0  0  0  0  0  0  0  0  0
   -6.6791    3.9991    1.6959 C   0  0  0  0  0  0  0  0  0  0  0  0
   -7.7177    4.5429    2.5022 N   0  0  0  0  0  0  0  0  0  0  0  0
   -6.9570    3.7141    0.3324 N   0  0  0  0  0  0  0  0  0  0  0  0
   -6.1273   -2.5727   -1.7801 C   0  0  0  0  0  0  0  0  0  0  0  0
   -7.0634   -3.6908   -1.7492 C   0  0  0  0  0  0  0  0  0  0  0  0
   -8.4420   -3.5119   -1.6136 C   0  0  0  0  0  0  0  0  0  0  0  0
   -9.0639   -4.7008   -1.5741 N   0  0  0  0  0  0  0  0  0  0  0  0
   -8.1395   -5.6906   -1.6810 C   0  0  0  0  0  0  0  0  0  0  0  0
   -6.9023   -5.0561   -1.7888 C   0  0  0  0  0  0  0  0  0  0  0  0
   -5.8052   -5.8443   -1.9250 C   0  0  0  0  0  0  0  0  0  0  0  0
   -5.9146   -7.2253   -1.9539 C   0  0  0  0  0  0  0  0  0  0  0  0
   -7.1231   -7.8713   -1.8475 C   0  0  0  0  0  0  0  0  0  0  0  0
   -8.2461   -7.0606   -1.7088 C   0  0  0  0  0  0  0  0  0  0  0  0
   -1.6239   -3.2347    2.1806 C   0  0  0  0  0  0  0  0  0  0  0  0
   -0.7712   -3.8899    2.8696 O   0  0  0  0  0  0  0  0  0  0  0  0
   -1.8107   -1.8899    2.6333 N   0  0  0  0  0  0  0  0  0  0  0  0
    7.8682   -2.9915   -0.2325 N   0  0  0  0  0  0  0  0  0  0  0  0
    7.2560   -3.4635   -1.4303 C   0  0  0  0  0  0  0  0  0  0  0  0
    6.9094   -2.7285   -2.3856 O   0  0  0  0  0  0  0  0  0  0  0  0
    6.9829   -4.9346   -1.6103 C   0  0  0  0  0  0  0  0  0  0  0  0
   11.4989   -4.0976    1.9583 H   0  0  0  0  0  0  0  0  0  0  0  0
   12.1324   -2.7745    2.9455 H   0  0  0  0  0  0  0  0  0  0  0  0
   12.6971   -2.8997    1.2799 H   0  0  0  0  0  0  0  0  0  0  0  0
    9.6888   -2.5757    1.8523 H   0  0  0  0  0  0  0  0  0  0  0  0
   10.7933   -1.1350    1.9365 H   0  0  0  0  0  0  0  0  0  0  0  0
   10.5055   -3.0084   -0.5022 H   0  0  0  0  0  0  0  0  0  0  0  0
   11.5757   -1.5913   -0.3409 H   0  0  0  0  0  0  0  0  0  0  0  0
    9.5175   -1.0245   -1.5731 H   0  0  0  0  0  0  0  0  0  0  0  0
    9.5926   -0.0642   -0.0738 H   0  0  0  0  0  0  0  0  0  0  0  0
    8.1239   -1.5003    1.1607 H   0  0  0  0  0  0  0  0  0  0  0  0
    5.5790   -2.3004   -0.1262 H   0  0  0  0  0  0  0  0  0  0  0  0
    5.1130    0.3719   -1.4357 H   0  0  0  0  0  0  0  0  0  0  0  0
    2.7567   -0.3684   -1.9627 H   0  0  0  0  0  0  0  0  0  0  0  0
    4.1310   -1.1957   -2.7422 H   0  0  0  0  0  0  0  0  0  0  0  0
    1.4086   -2.2716   -2.5848 H   0  0  0  0  0  0  0  0  0  0  0  0
    0.4590   -4.3676   -2.5000 H   0  0  0  0  0  0  0  0  0  0  0  0
    2.0681   -5.0215   -2.3369 H   0  0  0  0  0  0  0  0  0  0  0  0
    1.9936   -5.0381    0.0854 H   0  0  0  0  0  0  0  0  0  0  0  0
    0.7599   -5.9615   -0.7717 H   0  0  0  0  0  0  0  0  0  0  0  0
   -0.1181   -5.2394    1.1623 H   0  0  0  0  0  0  0  0  0  0  0  0
    0.4958   -3.5678    1.0452 H   0  0  0  0  0  0  0  0  0  0  0  0
   -1.6729   -4.8967   -0.7113 H   0  0  0  0  0  0  0  0  0  0  0  0
   -1.3246   -3.1508   -0.7545 H   0  0  0  0  0  0  0  0  0  0  0  0
   -2.7550   -4.8462    1.3009 H   0  0  0  0  0  0  0  0  0  0  0  0
   -2.9820   -1.9946    0.3415 H   0  0  0  0  0  0  0  0  0  0  0  0
   -6.3279   -1.8387    0.1818 H   0  0  0  0  0  0  0  0  0  0  0  0
   -3.6282   -1.3945   -1.1387 H   0  0  0  0  0  0  0  0  0  0  0  0
   -2.4836    0.1904   -0.5383 H   0  0  0  0  0  0  0  0  0  0  0  0
   -3.3733    2.8783   -1.4189 H   0  0  0  0  0  0  0  0  0  0  0  0
   -0.4302    2.7647   -2.7744 H   0  0  0  0  0  0  0  0  0  0  0  0
    1.6357    2.7279   -1.8034 H   0  0  0  0  0  0  0  0  0  0  0  0
    2.0603    1.4575    1.5385 H   0  0  0  0  0  0  0  0  0  0  0  0
    3.2934    1.7417   -1.1576 H   0  0  0  0  0  0  0  0  0  0  0  0
    2.6289    3.3963    2.5292 H   0  0  0  0  0  0  0  0  0  0  0  0
    4.0653    2.5599    1.9361 H   0  0  0  0  0  0  0  0  0  0  0  0
    5.5414    3.6188    0.1213 H   0  0  0  0  0  0  0  0  0  0  0  0
    5.9425    6.0253   -0.8098 H   0  0  0  0  0  0  0  0  0  0  0  0
    2.2622    5.9564    1.2709 H   0  0  0  0  0  0  0  0  0  0  0  0
   -1.8693    4.6479   -2.5167 H   0  0  0  0  0  0  0  0  0  0  0  0
   -0.1904    5.1159   -2.5040 H   0  0  0  0  0  0  0  0  0  0  0  0
    0.6993    6.0846   -0.5044 H   0  0  0  0  0  0  0  0  0  0  0  0
    0.2999    7.6245    1.2930 H   0  0  0  0  0  0  0  0  0  0  0  0
   -3.3649    5.0879   -0.6306 H   0  0  0  0  0  0  0  0  0  0  0  0
   -4.8788    6.0752    0.8002 H   0  0  0  0  0  0  0  0  0  0  0  0
   -5.4451    7.6548    2.6480 H   0  0  0  0  0  0  0  0  0  0  0  0
   -3.5650    9.0024    3.6863 H   0  0  0  0  0  0  0  0  0  0  0  0
   -1.2573    8.6865    2.8164 H   0  0  0  0  0  0  0  0  0  0  0  0
   -3.3845    0.0013    1.5506 H   0  0  0  0  0  0  0  0  0  0  0  0
   -2.1727    1.2690    1.5772 H   0  0  0  0  0  0  0  0  0  0  0  0
   -5.2304    1.2349    1.7855 H   0  0  0  0  0  0  0  0  0  0  0  0
   -4.1292    1.8341    3.0100 H   0  0  0  0  0  0  0  0  0  0  0  0
   -3.4951    3.7688    1.7663 H   0  0  0  0  0  0  0  0  0  0  0  0
   -4.6574    3.4302    0.4545 H   0  0  0  0  0  0  0  0  0  0  0  0
   -7.4598    5.3973    3.0609 H   0  0  0  0  0  0  0  0  0  0  0  0
   -8.6658    4.1168    2.5287 H   0  0  0  0  0  0  0  0  0  0  0  0
   -7.8057    3.1545    0.1016 H   0  0  0  0  0  0  0  0  0  0  0  0
   -6.3665    4.0275   -0.4656 H   0  0  0  0  0  0  0  0  0  0  0  0
   -5.3402   -2.8315   -2.5459 H   0  0  0  0  0  0  0  0  0  0  0  0
   -6.6933   -1.6676   -2.1809 H   0  0  0  0  0  0  0  0  0  0  0  0
   -8.9571   -2.5699   -1.5503 H   0  0  0  0  0  0  0  0  0  0  0  0
  -10.1152   -4.8224   -1.4731 H   0  0  0  0  0  0  0  0  0  0  0  0
   -4.8381   -5.3345   -2.0107 H   0  0  0  0  0  0  0  0  0  0  0  0
   -4.9979   -7.8221   -2.0664 H   0  0  0  0  0  0  0  0  0  0  0  0
   -7.1978   -8.9570   -1.8716 H   0  0  0  0  0  0  0  0  0  0  0  0
   -9.2392   -7.4776   -1.6167 H   0  0  0  0  0  0  0  0  0  0  0  0
   -2.4526   -1.7624    3.4720 H   0  0  0  0  0  0  0  0  0  0  0  0
   -1.3408   -1.0792    2.1658 H   0  0  0  0  0  0  0  0  0  0  0  0
    8.1082   -3.7435    0.4770 H   0  0  0  0  0  0  0  0  0  0  0  0
    6.0616   -5.0985   -2.1982 H   0  0  0  0  0  0  0  0  0  0  0  0
    7.8121   -5.3882   -2.2304 H   0  0  0  0  0  0  0  0  0  0  0  0
    6.9749   -5.4744   -0.6556 H   0  0  0  0  0  0  0  0  0  0  0  0
  1  2  1  0
  2  3  1  0
  3  4  1  0
  4  5  1  0
  5  6  1  0
  6  7  2  0
  6  8  1  0
  8  9  1  0
  9 10  1  0
 10 11  1  0
 11 12  2  0
 11 13  1  0
 13 14  1  0
 14 15  1  0
 15 16  1  0
 16 17  1  0
 17 18  1  0
 18 19  1  0
 19 20  1  0
 20 21  2  0
 20 22  1  0
 22 23  1  0
 23 24  1  0
 24 25  2  0
 24 26  1  0
 26 27  1  0
 27 28  1  0
 28 29  2  0
 28 30  1  0
 30 31  1  0
 31 32  1  0
 32 33  2  0
 32 34  1  0
 34 35  1  0
 35 36  1  0
 36 37  2  0
 34 38  1  0
 38 39  1  0
 39 40  1  0
 40 41  1  0
 41 42  2  0
 42 43  1  0
 30 44  1  0
 44 45  1  0
 45 46  2  0
 46 47  1  0
 47 48  2  0
 48 49  1  0
 49 50  2  0
 49 51  1  0
 51 52  2  0
 52 53  1  0
 53 54  2  0
 26 55  1  0
 55 56  1  0
 56 57  1  0
 57 58  1  0
 58 59  2  3
 59 60  1  0
 59 61  1  0
 22 62  1  0
 62 63  1  0
 63 64  2  0
 64 65  1  0
 65 66  1  0
 66 67  2  0
 67 68  1  0
 68 69  2  0
 69 70  1  0
 70 71  2  0
 18 72  1  0
 72 73  2  0
 72 74  1  0
  5 75  1  0
 75 76  1  0
 76 77  2  0
 76 78  1  0
 36  9  1  0
 43 39  2  0
 50 45  1  0
 67 63  1  0
 54 48  1  0
 71 66  1  0
  1 79  1  0
  1 80  1  0
  1 81  1  0
  2 82  1  0
  2 83  1  0
  3 84  1  0
  3 85  1  0
  4 86  1  0
  4 87  1  0
  5 88  1  1
  8 89  1  0
  9 90  1  6
 10 91  1  0
 10 92  1  0
 13 93  1  0
 14 94  1  0
 14 95  1  0
 15 96  1  0
 15 97  1  0
 16 98  1  0
 16 99  1  0
 17100  1  0
 17101  1  0
 18102  1  1
 19103  1  0
 22104  1  1
 23105  1  0
 26106  1  6
 27107  1  0
 30108  1  6
 31109  1  0
 34110  1  1
 35111  1  0
 38112  1  0
 38113  1  0
 40114  1  0
 41115  1  0
 43116  1  0
 44117  1  0
 44118  1  0
 46119  1  0
 47120  1  0
 50121  1  0
 51122  1  0
 52123  1  0
 53124  1  0
 54125  1  0
 55126  1  0
 55127  1  0
 56128  1  0
 56129  1  0
 57130  1  0
 57131  1  0
 60132  1  0
 60133  1  0
 61134  1  0
 61135  1  0
 62136  1  0
 62137  1  0
 64138  1  0
 65139  1  0
 68140  1  0
 69141  1  0
 70142  1  0
 71143  1  0
 74144  1  0
 74145  1  0
 75146  1  0
 78147  1  0
 78148  1  0
 78149  1  0
M  END
>  <Ligand ID>  (1) 
LIG0001774

>  <Ligand>  (1) 
CHEMBL3422426

>  <SMILES>  (1) 
CCCC[C@@H](C(=O)N[C@H]1CC(=O)NCCCC[C@H](NC(=O)[C@@H](NC(=O)[C@@H](NC(=O)[C@H](NC(=O)[C@@H](NC1=O)Cc1[nH]cnc1)Cc1ccc2c(c1)cccc2)CCCN=C(N)N)Cc1c[nH]c2c1cccc2)C(=O)N)NC(=O)C

>  <CID>  (1) 
9898183.0

>  <ChEMBL ID>  (1) 
nan

>  <InChiKey>  (1) 
GGYWLZFXFKFWKL-XOJVSUSESA-N

>  <InChi>  (1) 
InChI=1S/C54H71N15O9/c1-3-4-15-40(63-31(2)70)48(73)69-45-27-46(71)59-21-10-9-17-39(47(55)72)64-51(76)43(25-35-28-61-38-16-8-7-14-37(35)38)67-49(74)41(18-11-22-60-54(56)57)65-50(75)42(24-32-19-20-33-12-5-6-13-34(33)23-32)66-52(77)44(68-53(45)78)26-36-29-58-30-62-36/h5-8,12-14,16,19-20,23,28-30,39-45,61H,3-4,9-11,15,17-18,21-22,24-27H2,1-2H3,(H2,55,72)(H,58,62)(H,59,71)(H,63,70)(H,64,76)(H,65,75)(H,66,77)(H,67,74)(H,68,78)(H,69,73)(H4,56,57,60)/t39-,40-,41-,42+,43-,44-,45-/m0/s1

>  <IUPAC Name>  (1) 
(3S,6S,9R,12S,15S,23S)-15-[[(2S)-2-acetamidohexanoyl]amino]-6-[3-(diaminomethylideneamino)propyl]-12-(1H-imidazol-5-ylmethyl)-3-(1H-indol-3-ylmethyl)-9-(naphthalen-2-ylmethyl)-2,5,8,11,14,17-hexaoxo-1,4,7,10,13,18-hexazacyclotricosane-23-carboxamide

$$$$
