
     RDKit          3D

 23 23  0  0  0  0  0  0  0  0999 V2000
    4.7409    0.9682    0.5787 C   0  0  0  0  0  0  0  0  0  0  0  0
    3.6182    0.6199    0.3015 C   0  0  0  0  0  0  0  0  0  0  0  0
    2.2875    0.1822   -0.0323 C   0  0  0  0  0  0  0  0  0  0  0  0
    1.7585   -0.8639    0.7147 C   0  0  0  0  0  0  0  0  0  0  0  0
    0.4865   -1.2932    0.4059 C   0  0  0  0  0  0  0  0  0  0  0  0
   -0.2659   -0.7290   -0.6022 C   0  0  0  0  0  0  0  0  0  0  0  0
    0.2656    0.3122   -1.3428 C   0  0  0  0  0  0  0  0  0  0  0  0
    1.5505    0.7610   -1.0463 C   0  0  0  0  0  0  0  0  0  0  0  0
   -1.6205   -1.2825   -0.8335 C   0  0  0  0  0  0  0  0  0  0  0  0
   -2.6503   -0.5341    0.0201 C   0  0  0  0  0  0  0  0  0  0  0  0
   -2.6560    0.9070   -0.3339 C   0  0  0  0  0  0  0  0  0  0  0  0
   -3.2804    1.2586   -1.3718 O   0  0  0  0  0  0  0  0  0  0  0  0
   -2.0246    1.8748    0.3982 O   0  0  0  0  0  0  0  0  0  0  0  0
    5.7281    1.2899    0.8192 H   0  0  0  0  0  0  0  0  0  0  0  0
    2.3272   -1.3159    1.5028 H   0  0  0  0  0  0  0  0  0  0  0  0
    0.0926   -2.1178    1.0070 H   0  0  0  0  0  0  0  0  0  0  0  0
   -0.3298    0.7580   -2.1404 H   0  0  0  0  0  0  0  0  0  0  0  0
    1.9775    1.5865   -1.6308 H   0  0  0  0  0  0  0  0  0  0  0  0
   -1.9126   -1.1473   -1.8887 H   0  0  0  0  0  0  0  0  0  0  0  0
   -1.6176   -2.3604   -0.5825 H   0  0  0  0  0  0  0  0  0  0  0  0
   -2.4494   -0.6777    1.0967 H   0  0  0  0  0  0  0  0  0  0  0  0
   -3.6348   -1.0152   -0.2114 H   0  0  0  0  0  0  0  0  0  0  0  0
   -2.3912    2.8184    0.3616 H   0  0  0  0  0  0  0  0  0  0  0  0
  1  2  3  0
  2  3  1  0
  3  4  2  0
  4  5  1  0
  5  6  2  0
  6  7  1  0
  7  8  2  0
  6  9  1  0
  9 10  1  0
 10 11  1  0
 11 12  2  0
 11 13  1  0
  8  3  1  0
  1 14  1  0
  4 15  1  0
  5 16  1  0
  7 17  1  0
  8 18  1  0
  9 19  1  0
  9 20  1  0
 10 21  1  0
 10 22  1  0
 13 23  1  0
M  END
>  <Ligand ID>  (1) 
LIG0005596

>  <Ligand>  (1) 
3-(4-ethynylphenyl)propanoic acid

>  <SMILES>  (1) 
C#Cc1ccc(cc1)CCC(=O)O

>  <CID>  (1) 
54757519.0

>  <ChEMBL ID>  (1) 
nan

>  <InChiKey>  (1) 
BSEGSZWCQJVFRK-UHFFFAOYSA-N

>  <InChi>  (1) 
InChI=1S/C11H10O2/c1-2-9-3-5-10(6-4-9)7-8-11(12)13/h1,3-6H,7-8H2,(H,12,13)

>  <IUPAC Name>  (1) 
3-(4-ethynylphenyl)propanoic acid

$$$$
