
     RDKit          3D

 52 54  0  0  0  0  0  0  0  0999 V2000
   -8.0285   -0.8108   -0.1219 O   0  0  0  0  0  0  0  0  0  0  0  0
   -6.7112   -0.3806    0.0176 C   0  0  0  0  0  0  0  0  0  0  0  0
   -5.9166   -0.8247   -1.1765 C   0  0  0  0  0  0  0  0  0  0  0  0
   -4.5417   -0.4505   -1.1668 N   0  0  0  0  0  0  0  0  0  0  0  0
   -4.2646    0.9422   -1.3069 C   0  0  0  0  0  0  0  0  0  0  0  0
   -2.8386    1.1177   -1.7719 C   0  0  0  0  0  0  0  0  0  0  0  0
   -1.9716    0.2607   -0.9953 N   0  0  0  0  0  0  0  0  0  0  0  0
   -2.3274   -1.0498   -0.5131 C   0  0  2  0  0  0  0  0  0  0  0  0
   -3.7797   -1.0221   -0.1015 C   0  0  0  0  0  0  0  0  0  0  0  0
   -1.4756   -1.4761    0.6611 C   0  0  0  0  0  0  0  0  0  0  0  0
   -0.6425    0.7171   -0.6707 C   0  0  0  0  0  0  0  0  0  0  0  0
    0.4630   -0.0331   -1.0652 C   0  0  0  0  0  0  0  0  0  0  0  0
    1.7528    0.3446   -0.7901 C   0  0  0  0  0  0  0  0  0  0  0  0
    2.9913   -0.1859   -1.0481 N   0  0  0  0  0  0  0  0  0  0  0  0
    3.9057    0.6775   -0.5028 C   0  0  0  0  0  0  0  0  0  0  0  0
    3.2814    1.7044    0.0732 N   0  0  0  0  0  0  0  0  0  0  0  0
    1.9560    1.5385   -0.0809 C   0  0  0  0  0  0  0  0  0  0  0  0
    0.8481    2.2598    0.2972 C   0  0  0  0  0  0  0  0  0  0  0  0
   -0.4477    1.8846    0.0231 C   0  0  0  0  0  0  0  0  0  0  0  0
   -1.7744    2.8921    0.5630 Cl  0  0  0  0  0  0  0  0  0  0  0  0
    5.6658    0.3365   -0.6302 S   0  0  0  0  0  0  0  0  0  0  0  0
    6.1301   -0.6473    0.8327 C   0  0  0  0  0  0  0  0  0  0  0  0
    7.6155   -0.9420    0.7250 C   0  0  0  0  0  0  0  0  0  0  0  0
    5.8210    0.0617    2.1202 C   0  0  0  0  0  0  0  0  0  0  0  0
    5.3509   -1.9373    0.8035 C   0  0  0  0  0  0  0  0  0  0  0  0
   -8.4027   -0.9380    0.8070 H   0  0  0  0  0  0  0  0  0  0  0  0
   -6.7599    0.7173    0.1363 H   0  0  0  0  0  0  0  0  0  0  0  0
   -6.3116   -0.8205    0.9584 H   0  0  0  0  0  0  0  0  0  0  0  0
   -6.4221   -0.4791   -2.1029 H   0  0  0  0  0  0  0  0  0  0  0  0
   -5.9638   -1.9391   -1.2153 H   0  0  0  0  0  0  0  0  0  0  0  0
   -4.4075    1.5464   -0.3917 H   0  0  0  0  0  0  0  0  0  0  0  0
   -4.9074    1.3670   -2.1168 H   0  0  0  0  0  0  0  0  0  0  0  0
   -2.5255    2.1694   -1.7597 H   0  0  0  0  0  0  0  0  0  0  0  0
   -2.8278    0.7108   -2.8256 H   0  0  0  0  0  0  0  0  0  0  0  0
   -2.2303   -1.7945   -1.3371 H   0  0  0  0  0  0  0  0  0  0  0  0
   -3.8438   -0.3812    0.8018 H   0  0  0  0  0  0  0  0  0  0  0  0
   -4.1479   -2.0171    0.2160 H   0  0  0  0  0  0  0  0  0  0  0  0
   -2.1371   -2.0660    1.3417 H   0  0  0  0  0  0  0  0  0  0  0  0
   -1.1659   -0.5863    1.2477 H   0  0  0  0  0  0  0  0  0  0  0  0
   -0.6530   -2.1359    0.3643 H   0  0  0  0  0  0  0  0  0  0  0  0
    0.3503   -0.9734   -1.6209 H   0  0  0  0  0  0  0  0  0  0  0  0
    3.7385    2.5040    0.5607 H   0  0  0  0  0  0  0  0  0  0  0  0
    1.0173    3.1741    0.8418 H   0  0  0  0  0  0  0  0  0  0  0  0
    8.1429   -0.1856    1.3562 H   0  0  0  0  0  0  0  0  0  0  0  0
    7.9033   -0.8796   -0.3286 H   0  0  0  0  0  0  0  0  0  0  0  0
    7.8261   -1.9733    1.1161 H   0  0  0  0  0  0  0  0  0  0  0  0
    5.8702    1.1777    2.0157 H   0  0  0  0  0  0  0  0  0  0  0  0
    6.5154   -0.2238    2.9367 H   0  0  0  0  0  0  0  0  0  0  0  0
    4.7783   -0.1633    2.4614 H   0  0  0  0  0  0  0  0  0  0  0  0
    5.9377   -2.7315    1.3508 H   0  0  0  0  0  0  0  0  0  0  0  0
    4.3617   -1.7841    1.2584 H   0  0  0  0  0  0  0  0  0  0  0  0
    5.2031   -2.2974   -0.2471 H   0  0  0  0  0  0  0  0  0  0  0  0
  1  2  1  0
  2  3  1  0
  3  4  1  0
  4  5  1  0
  5  6  1  0
  6  7  1  0
  7  8  1  0
  8  9  1  0
  8 10  1  0
  7 11  1  0
 11 12  2  0
 12 13  1  0
 13 14  1  0
 14 15  2  0
 15 16  1  0
 16 17  1  0
 17 18  1  0
 18 19  2  0
 19 20  1  0
 15 21  1  0
 21 22  1  0
 22 23  1  0
 22 24  1  0
 22 25  1  0
  9  4  1  0
 19 11  1  0
 17 13  2  0
  1 26  1  0
  2 27  1  0
  2 28  1  0
  3 29  1  0
  3 30  1  0
  5 31  1  0
  5 32  1  0
  6 33  1  0
  6 34  1  0
  8 35  1  6
  9 36  1  0
  9 37  1  0
 10 38  1  0
 10 39  1  0
 10 40  1  0
 12 41  1  0
 16 42  1  0
 18 43  1  0
 23 44  1  0
 23 45  1  0
 23 46  1  0
 24 47  1  0
 24 48  1  0
 24 49  1  0
 25 50  1  0
 25 51  1  0
 25 52  1  0
M  END
>  <Ligand ID>  (1) 
LIG0005542

>  <Ligand>  (1) 
CHEMBL495402

>  <SMILES>  (1) 
OCCN1CCN([C@H](C1)C)c1cc2nc([nH]c2cc1Cl)SC(C)(C)C

>  <CID>  (1) 
44576628.0

>  <ChEMBL ID>  (1) 
nan

>  <InChiKey>  (1) 
PRUISXHHETXRED-LBPRGKRZSA-N

>  <InChi>  (1) 
InChI=1S/C18H27ClN4OS/c1-12-11-22(7-8-24)5-6-23(12)16-10-15-14(9-13(16)19)20-17(21-15)25-18(2,3)4/h9-10,12,24H,5-8,11H2,1-4H3,(H,20,21)/t12-/m0/s1

>  <IUPAC Name>  (1) 
2-[(3S)-4-(2-tert-butylsulfanyl-6-chloro-1H-benzimidazol-5-yl)-3-methylpiperazin-1-yl]ethanol

$$$$
