
     RDKit          3D

117121  0  0  0  0  0  0  0  0999 V2000
   -5.3048   -1.4475    3.9843 N   0  0  0  0  0  0  0  0  0  0  0  0
   -4.3200   -1.5779    2.9459 C   0  0  0  0  0  0  0  0  0  0  0  0
   -3.1605   -1.2334    3.2296 O   0  0  0  0  0  0  0  0  0  0  0  0
   -4.8015   -2.1045    1.6564 C   0  0  0  0  0  0  0  0  0  0  0  0
   -3.7274   -2.1757    0.7519 N   0  0  0  0  0  0  0  0  0  0  0  0
   -2.9167   -3.3794    0.4638 C   0  0  0  0  0  0  0  0  0  0  0  0
   -1.5340   -3.2221    1.0845 C   0  0  0  0  0  0  0  0  0  0  0  0
   -0.7469   -4.3700    0.6857 N   0  0  0  0  0  0  0  0  0  0  0  0
    0.7052   -4.3321    0.9708 C   0  0  0  0  0  0  0  0  0  0  0  0
    0.9923   -3.2607    1.5167 O   0  0  0  0  0  0  0  0  0  0  0  0
    1.5745   -5.4455    0.6031 C   0  0  0  0  0  0  0  0  0  0  0  0
    2.9141   -5.2291    0.0563 C   0  0  0  0  0  0  0  0  0  0  0  0
    3.9813   -4.6105    0.8093 C   0  0  0  0  0  0  0  0  0  0  0  0
    4.0027   -3.2569    1.3057 C   0  0  0  0  0  0  0  0  0  0  0  0
    3.6442   -3.0035    2.4663 O   0  0  0  0  0  0  0  0  0  0  0  0
    4.4178   -2.0544    0.6193 N   0  0  0  0  0  0  0  0  0  0  0  0
    4.8347   -2.1659   -0.7031 C   0  0  0  0  0  0  0  0  0  0  0  0
    6.2748   -2.1831   -1.0003 C   0  0  0  0  0  0  0  0  0  0  0  0
    6.9099   -0.9457   -1.1446 C   0  0  0  0  0  0  0  0  0  0  0  0
    8.2461   -0.8278   -1.4537 C   0  0  0  0  0  0  0  0  0  0  0  0
    9.0437   -1.9548   -1.6407 C   0  0  0  0  0  0  0  0  0  0  0  0
    8.4145   -3.1674   -1.4986 C   0  0  0  0  0  0  0  0  0  0  0  0
    7.0586   -3.2882   -1.1855 C   0  0  0  0  0  0  0  0  0  0  0  0
    4.3923   -0.7670    1.3653 C   0  0  0  0  0  0  0  0  0  0  0  0
    3.0495   -0.2107    1.1674 C   0  0  0  0  0  0  0  0  0  0  0  0
    2.2241   -0.7304    0.4440 O   0  0  0  0  0  0  0  0  0  0  0  0
    2.5692    1.0024    1.8166 N   0  0  0  0  0  0  0  0  0  0  0  0
    1.2054    1.3144    1.6343 C   0  0  0  0  0  0  0  0  0  0  0  0
    0.7114    2.2680    0.6507 C   0  0  0  0  0  0  0  0  0  0  0  0
    1.3353    3.0075   -0.1004 O   0  0  0  0  0  0  0  0  0  0  0  0
   -0.7007    2.3411    0.5369 N   0  0  0  0  0  0  0  0  0  0  0  0
   -1.5823    3.2269   -0.1382 C   0  0  2  0  0  0  0  0  0  0  0  0
   -2.9540    2.5831   -0.2052 C   0  0  0  0  0  0  0  0  0  0  0  0
   -4.0153    3.1750   -0.1848 O   0  0  0  0  0  0  0  0  0  0  0  0
   -2.9493    1.1908   -0.3154 N   0  0  0  0  0  0  0  0  0  0  0  0
   -4.0787    0.2553   -0.1625 C   0  0  2  0  0  0  0  0  0  0  0  0
   -3.4328   -1.0479   -0.0255 C   0  0  0  0  0  0  0  0  0  0  0  0
   -2.3942   -1.2174   -0.7157 O   0  0  0  0  0  0  0  0  0  0  0  0
   -4.9284    0.3439   -1.4434 C   0  0  0  0  0  0  0  0  0  0  0  0
   -6.0835   -0.5602   -1.4476 C   0  0  0  0  0  0  0  0  0  0  0  0
   -7.3837   -0.2593   -1.0788 C   0  0  0  0  0  0  0  0  0  0  0  0
   -8.1271   -1.3696   -1.1893 N   0  0  0  0  0  0  0  0  0  0  0  0
   -7.3891   -2.4105   -1.6176 C   0  0  0  0  0  0  0  0  0  0  0  0
   -6.1022   -1.9130   -1.7835 C   0  0  0  0  0  0  0  0  0  0  0  0
   -5.1382   -2.7972   -2.2396 C   0  0  0  0  0  0  0  0  0  0  0  0
   -5.4006   -4.1191   -2.5245 C   0  0  0  0  0  0  0  0  0  0  0  0
   -6.6922   -4.5968   -2.3494 C   0  0  0  0  0  0  0  0  0  0  0  0
   -7.6853   -3.7508   -1.8986 C   0  0  0  0  0  0  0  0  0  0  0  0
   -1.1559    3.2471   -1.6477 C   0  0  0  0  0  0  0  0  0  0  0  0
   -2.1107    4.1556   -2.3903 C   0  0  0  0  0  0  0  0  0  0  0  0
   -2.1805    5.5488   -1.8992 C   0  0  0  0  0  0  0  0  0  0  0  0
   -0.9511    6.3103   -1.9420 N   0  0  0  0  0  0  0  0  0  0  0  0
   -0.7271    7.2506   -1.0505 C   0  0  0  0  0  0  0  0  0  0  0  0
   -1.6567    7.5578   -0.0274 N   0  0  0  0  0  0  0  0  0  0  0  0
    0.4843    8.0123   -1.0889 N   0  0  0  0  0  0  0  0  0  0  0  0
    3.5618    1.7408    2.5130 C   0  0  0  0  0  0  0  0  0  0  0  0
    4.0566    2.9347    1.8095 C   0  0  0  0  0  0  0  0  0  0  0  0
    5.0862    2.9716    0.9081 C   0  0  0  0  0  0  0  0  0  0  0  0
    5.5013    4.1429    0.2702 C   0  0  0  0  0  0  0  0  0  0  0  0
    4.8826    5.3447    0.5226 C   0  0  0  0  0  0  0  0  0  0  0  0
    3.8363    5.3267    1.4342 C   0  0  0  0  0  0  0  0  0  0  0  0
    3.4211    4.1653    2.0695 C   0  0  0  0  0  0  0  0  0  0  0  0
   -6.1237   -0.8308    3.7838 H   0  0  0  0  0  0  0  0  0  0  0  0
   -5.1683   -1.9604    4.8734 H   0  0  0  0  0  0  0  0  0  0  0  0
   -5.2390   -3.1354    1.8356 H   0  0  0  0  0  0  0  0  0  0  0  0
   -5.6279   -1.4249    1.3426 H   0  0  0  0  0  0  0  0  0  0  0  0
   -2.8702   -3.6208   -0.5950 H   0  0  0  0  0  0  0  0  0  0  0  0
   -3.3650   -4.2608    0.9758 H   0  0  0  0  0  0  0  0  0  0  0  0
   -1.6121   -3.1731    2.1998 H   0  0  0  0  0  0  0  0  0  0  0  0
   -1.0394   -2.2724    0.7998 H   0  0  0  0  0  0  0  0  0  0  0  0
   -1.0445   -5.2139    0.2350 H   0  0  0  0  0  0  0  0  0  0  0  0
    0.9918   -6.0518   -0.1646 H   0  0  0  0  0  0  0  0  0  0  0  0
    1.6234   -6.1871    1.4731 H   0  0  0  0  0  0  0  0  0  0  0  0
    2.7994   -4.7442   -0.9869 H   0  0  0  0  0  0  0  0  0  0  0  0
    3.2538   -6.2998   -0.2550 H   0  0  0  0  0  0  0  0  0  0  0  0
    4.9329   -4.7162    0.1725 H   0  0  0  0  0  0  0  0  0  0  0  0
    4.1956   -5.3076    1.7301 H   0  0  0  0  0  0  0  0  0  0  0  0
    4.3869   -3.0334   -1.2649 H   0  0  0  0  0  0  0  0  0  0  0  0
    4.3689   -1.2817   -1.2491 H   0  0  0  0  0  0  0  0  0  0  0  0
    6.3711   -0.0083   -1.0256 H   0  0  0  0  0  0  0  0  0  0  0  0
    8.7109    0.1408   -1.5555 H   0  0  0  0  0  0  0  0  0  0  0  0
   10.0822   -1.8672   -1.8798 H   0  0  0  0  0  0  0  0  0  0  0  0
    9.0121   -4.0844   -1.6367 H   0  0  0  0  0  0  0  0  0  0  0  0
    6.6877   -4.2748   -1.1182 H   0  0  0  0  0  0  0  0  0  0  0  0
    5.2032   -0.1479    0.9949 H   0  0  0  0  0  0  0  0  0  0  0  0
    4.5036   -0.9840    2.4575 H   0  0  0  0  0  0  0  0  0  0  0  0
    0.7233    1.6422    2.6233 H   0  0  0  0  0  0  0  0  0  0  0  0
    0.6069    0.3519    1.4464 H   0  0  0  0  0  0  0  0  0  0  0  0
   -1.1839    1.5537    1.0845 H   0  0  0  0  0  0  0  0  0  0  0  0
   -1.5462    4.2560    0.1925 H   0  0  0  0  0  0  0  0  0  0  0  0
   -2.0393    0.7568   -0.5539 H   0  0  0  0  0  0  0  0  0  0  0  0
   -4.6864    0.5529    0.6726 H   0  0  0  0  0  0  0  0  0  0  0  0
   -5.2421    1.4232   -1.5262 H   0  0  0  0  0  0  0  0  0  0  0  0
   -4.2548    0.1696   -2.3097 H   0  0  0  0  0  0  0  0  0  0  0  0
   -7.7855    0.7009   -0.7444 H   0  0  0  0  0  0  0  0  0  0  0  0
   -9.1426   -1.4686   -0.9810 H   0  0  0  0  0  0  0  0  0  0  0  0
   -4.1367   -2.4564   -2.3960 H   0  0  0  0  0  0  0  0  0  0  0  0
   -4.6070   -4.7527   -2.8709 H   0  0  0  0  0  0  0  0  0  0  0  0
   -6.8527   -5.6361   -2.5811 H   0  0  0  0  0  0  0  0  0  0  0  0
   -8.6976   -4.1041   -1.7608 H   0  0  0  0  0  0  0  0  0  0  0  0
   -1.2670    2.2340   -2.0530 H   0  0  0  0  0  0  0  0  0  0  0  0
   -0.1631    3.6767   -1.7065 H   0  0  0  0  0  0  0  0  0  0  0  0
   -1.7412    4.1660   -3.4496 H   0  0  0  0  0  0  0  0  0  0  0  0
   -3.1357    3.7280   -2.4314 H   0  0  0  0  0  0  0  0  0  0  0  0
   -2.8752    6.0981   -2.6042 H   0  0  0  0  0  0  0  0  0  0  0  0
   -2.6711    5.5960   -0.9002 H   0  0  0  0  0  0  0  0  0  0  0  0
   -2.6969    7.4882   -0.1546 H   0  0  0  0  0  0  0  0  0  0  0  0
   -1.3151    7.8700    0.9044 H   0  0  0  0  0  0  0  0  0  0  0  0
    1.0198    8.0453   -0.1743 H   0  0  0  0  0  0  0  0  0  0  0  0
    0.8294    8.5085   -1.9392 H   0  0  0  0  0  0  0  0  0  0  0  0
    3.2566    1.9623    3.5558 H   0  0  0  0  0  0  0  0  0  0  0  0
    4.4700    1.0797    2.6548 H   0  0  0  0  0  0  0  0  0  0  0  0
    5.6136    2.0918    0.6609 H   0  0  0  0  0  0  0  0  0  0  0  0
    6.3234    4.1365   -0.4435 H   0  0  0  0  0  0  0  0  0  0  0  0
    5.2303    6.2121    0.0142 H   0  0  0  0  0  0  0  0  0  0  0  0
    3.3287    6.2688    1.6491 H   0  0  0  0  0  0  0  0  0  0  0  0
    2.6046    4.1579    2.7798 H   0  0  0  0  0  0  0  0  0  0  0  0
  1  2  1  0
  2  3  2  0
  2  4  1  0
  4  5  1  0
  5  6  1  0
  6  7  1  0
  7  8  1  0
  8  9  1  0
  9 10  2  0
  9 11  1  0
 11 12  1  0
 12 13  1  0
 13 14  1  0
 14 15  2  0
 14 16  1  0
 16 17  1  0
 17 18  1  0
 18 19  2  0
 19 20  1  0
 20 21  2  0
 21 22  1  0
 22 23  2  0
 16 24  1  0
 24 25  1  0
 25 26  2  0
 25 27  1  0
 27 28  1  0
 28 29  1  0
 29 30  2  0
 29 31  1  0
 31 32  1  0
 32 33  1  0
 33 34  2  0
 33 35  1  0
 35 36  1  0
 36 37  1  0
 37 38  2  0
 36 39  1  0
 39 40  1  0
 40 41  2  0
 41 42  1  0
 42 43  1  0
 43 44  2  0
 44 45  1  0
 45 46  2  0
 46 47  1  0
 47 48  2  0
 32 49  1  0
 49 50  1  0
 50 51  1  0
 51 52  1  0
 52 53  2  3
 53 54  1  0
 53 55  1  0
 27 56  1  0
 56 57  1  0
 57 58  2  0
 58 59  1  0
 59 60  2  0
 60 61  1  0
 61 62  2  0
 37  5  1  0
 44 40  1  0
 62 57  1  0
 23 18  1  0
 48 43  1  0
  1 63  1  0
  1 64  1  0
  4 65  1  0
  4 66  1  0
  6 67  1  0
  6 68  1  0
  7 69  1  0
  7 70  1  0
  8 71  1  0
 11 72  1  0
 11 73  1  0
 12 74  1  0
 12 75  1  0
 13 76  1  0
 13 77  1  0
 17 78  1  0
 17 79  1  0
 19 80  1  0
 20 81  1  0
 21 82  1  0
 22 83  1  0
 23 84  1  0
 24 85  1  0
 24 86  1  0
 28 87  1  0
 28 88  1  0
 31 89  1  0
 32 90  1  1
 35 91  1  0
 36 92  1  1
 39 93  1  0
 39 94  1  0
 41 95  1  0
 42 96  1  0
 45 97  1  0
 46 98  1  0
 47 99  1  0
 48100  1  0
 49101  1  0
 49102  1  0
 50103  1  0
 50104  1  0
 51105  1  0
 51106  1  0
 54107  1  0
 54108  1  0
 55109  1  0
 55110  1  0
 56111  1  0
 56112  1  0
 58113  1  0
 59114  1  0
 60115  1  0
 61116  1  0
 62117  1  0
M  END
>  <Ligand ID>  (1) 
LIG0001326

>  <Ligand>  (1) 
CHEMBL602852

>  <SMILES>  (1) 
NC(=O)CN1CCNC(=O)CCCC(=O)N(Cc2ccccc2)CC(=O)N(CC(=O)N[C@H](C(=O)N[C@H](C1=O)Cc1c[nH]c2c1cccc2)CCCN=C(N)N)Cc1ccccc1

>  <CID>  (1) 
46232225.0

>  <ChEMBL ID>  (1) 
nan

>  <InChiKey>  (1) 
SMOLPOMQFBNJFJ-ZPGRZCPFSA-N

>  <InChi>  (1) 
InChI=1S/C44H55N11O7/c45-37(56)27-53-22-21-48-38(57)18-9-19-40(59)55(26-31-13-5-2-6-14-31)29-41(60)54(25-30-11-3-1-4-12-30)28-39(58)51-35(17-10-20-49-44(46)47)42(61)52-36(43(53)62)23-32-24-50-34-16-8-7-15-33(32)34/h1-8,11-16,24,35-36,50H,9-10,17-23,25-29H2,(H2,45,56)(H,48,57)(H,51,58)(H,52,61)(H4,46,47,49)/t35-,36-/m0/s1

>  <IUPAC Name>  (1) 
2-[(6S,9S)-13,16-dibenzyl-9-[3-(diaminomethylideneamino)propyl]-6-(1H-indol-3-ylmethyl)-5,8,11,14,17,21-hexaoxo-1,4,7,10,13,16-hexazacyclohenicos-4-yl]acetamide

$$$$
