
     RDKit          3D

 21 21  0  0  0  0  0  0  0  0999 V2000
    4.5521    0.0764   -0.5157 N   0  0  0  0  0  0  0  0  0  0  0  0
    3.2031    0.2179   -0.0807 C   0  0  0  0  0  0  0  0  0  0  0  0
    2.9959    0.9158    0.9862 N   0  0  0  0  0  0  0  0  0  0  0  0
    1.8760   -0.5520   -0.9976 S   0  0  0  0  0  0  0  0  0  0  0  0
    0.3287   -0.1475   -0.1403 C   0  0  0  0  0  0  0  0  0  0  0  0
   -0.8670   -0.7574   -0.8423 C   0  0  0  0  0  0  0  0  0  0  0  0
   -2.0963   -0.3873   -0.0891 C   0  0  0  0  0  0  0  0  0  0  0  0
   -2.7176   -1.0514    0.9483 C   0  0  0  0  0  0  0  0  0  0  0  0
   -3.7997   -0.3405    1.3141 N   0  0  0  0  0  0  0  0  0  0  0  0
   -3.8769    0.7436    0.5426 C   0  0  0  0  0  0  0  0  0  0  0  0
   -2.8456    0.7225   -0.3125 N   0  0  0  0  0  0  0  0  0  0  0  0
    4.7821    0.0719   -1.5475 H   0  0  0  0  0  0  0  0  0  0  0  0
    5.3392   -0.0254    0.1630 H   0  0  0  0  0  0  0  0  0  0  0  0
    3.8013    1.3459    1.4877 H   0  0  0  0  0  0  0  0  0  0  0  0
    0.4211   -0.6080    0.8663 H   0  0  0  0  0  0  0  0  0  0  0  0
    0.2465    0.9381   -0.0427 H   0  0  0  0  0  0  0  0  0  0  0  0
   -0.7873   -1.8391   -0.9451 H   0  0  0  0  0  0  0  0  0  0  0  0
   -0.9545   -0.3132   -1.8619 H   0  0  0  0  0  0  0  0  0  0  0  0
   -2.3769   -1.9845    1.3806 H   0  0  0  0  0  0  0  0  0  0  0  0
   -4.6136    1.5502    0.5426 H   0  0  0  0  0  0  0  0  0  0  0  0
   -2.6109    1.4242   -1.0523 H   0  0  0  0  0  0  0  0  0  0  0  0
  1  2  1  0
  2  3  2  3
  2  4  1  0
  4  5  1  0
  5  6  1  0
  6  7  1  0
  7  8  2  0
  8  9  1  0
  9 10  2  0
 10 11  1  0
 11  7  1  0
  1 12  1  0
  1 13  1  0
  3 14  1  0
  5 15  1  0
  5 16  1  0
  6 17  1  0
  6 18  1  0
  8 19  1  0
 10 20  1  0
 11 21  1  0
M  END
>  <Ligand ID>  (1) 
LIG0002462

>  <Ligand>  (1) 
imetit

>  <SMILES>  (1) 
NC(=N)SCCc1cnc[nH]1

>  <CID>  (1) 
3692.0

>  <ChEMBL ID>  (1) 
nan

>  <InChiKey>  (1) 
PEHSVUKQDJULKE-UHFFFAOYSA-N

>  <InChi>  (1) 
InChI=1S/C6H10N4S/c7-6(8)11-2-1-5-3-9-4-10-5/h3-4H,1-2H2,(H3,7,8)(H,9,10)

>  <IUPAC Name>  (1) 
2-(1H-imidazol-5-yl)ethyl carbamimidothioate

$$$$
