
     RDKit          3D

 38 39  0  0  0  0  0  0  0  0999 V2000
    1.6953   -2.5029   -2.0406 O   0  0  0  0  0  0  0  0  0  0  0  0
    1.8895   -2.0766   -0.7238 N   0  0  0  0  0  0  0  0  0  0  0  0
    2.4816   -2.8437    0.0715 O   0  0  0  0  0  0  0  0  0  0  0  0
    1.4044   -0.7933   -0.3445 C   0  0  0  0  0  0  0  0  0  0  0  0
    2.3845    0.2051   -0.2466 C   0  0  0  0  0  0  0  0  0  0  0  0
    3.8188   -0.0971   -0.5159 C   0  0  0  0  0  0  0  0  0  0  0  0
    2.0460    1.4885    0.1031 C   0  0  0  0  0  0  0  0  0  0  0  0
    0.7220    1.7715    0.3557 C   0  0  0  0  0  0  0  0  0  0  0  0
   -0.2464    0.7644    0.2549 C   0  0  0  0  0  0  0  0  0  0  0  0
    0.0696   -0.5305   -0.0951 C   0  0  0  0  0  0  0  0  0  0  0  0
   -1.1370   -1.3648   -0.1137 C   0  0  0  0  0  0  0  0  0  0  0  0
   -1.6708   -1.7248   -1.4553 C   0  0  0  0  0  0  0  0  0  0  0  0
   -0.9334   -2.6737    0.6634 C   0  0  0  0  0  0  0  0  0  0  0  0
   -2.1439   -0.5112    0.6757 C   0  0  0  0  0  0  0  0  0  0  0  0
   -1.7010    0.9136    0.5091 C   0  0  0  0  0  0  0  0  0  0  0  0
   -1.9894    1.7769    1.7040 C   0  0  0  0  0  0  0  0  0  0  0  0
   -2.2980    1.5894   -0.6997 C   0  0  0  0  0  0  0  0  0  0  0  0
    2.9701    2.5583    0.2187 N   0  0  0  0  0  0  0  0  0  0  0  0
    4.0054    2.6641   -0.4629 O   0  0  0  0  0  0  0  0  0  0  0  0
    2.6996    3.5551    1.1540 O   0  0  0  0  0  0  0  0  0  0  0  0
    4.2567    0.5130   -1.3248 H   0  0  0  0  0  0  0  0  0  0  0  0
    3.9615   -1.1533   -0.8228 H   0  0  0  0  0  0  0  0  0  0  0  0
    4.4058    0.0724    0.4039 H   0  0  0  0  0  0  0  0  0  0  0  0
    0.4368    2.7953    0.6386 H   0  0  0  0  0  0  0  0  0  0  0  0
   -2.0205   -0.8515   -2.0530 H   0  0  0  0  0  0  0  0  0  0  0  0
   -2.5910   -2.3503   -1.2808 H   0  0  0  0  0  0  0  0  0  0  0  0
   -0.9975   -2.3525   -2.0294 H   0  0  0  0  0  0  0  0  0  0  0  0
   -0.1844   -2.4089    1.4459 H   0  0  0  0  0  0  0  0  0  0  0  0
   -0.5407   -3.4802    0.0467 H   0  0  0  0  0  0  0  0  0  0  0  0
   -1.9171   -2.9289    1.1064 H   0  0  0  0  0  0  0  0  0  0  0  0
   -3.1673   -0.6937    0.3058 H   0  0  0  0  0  0  0  0  0  0  0  0
   -2.0454   -0.7661    1.7456 H   0  0  0  0  0  0  0  0  0  0  0  0
   -1.2584    2.6153    1.7538 H   0  0  0  0  0  0  0  0  0  0  0  0
   -1.9998    1.1676    2.6446 H   0  0  0  0  0  0  0  0  0  0  0  0
   -3.0043    2.2303    1.5535 H   0  0  0  0  0  0  0  0  0  0  0  0
   -1.5802    1.6993   -1.5404 H   0  0  0  0  0  0  0  0  0  0  0  0
   -3.1767    1.0810   -1.1185 H   0  0  0  0  0  0  0  0  0  0  0  0
   -2.6443    2.6428   -0.4869 H   0  0  0  0  0  0  0  0  0  0  0  0
  1  2  1  0
  2  3  2  0
  2  4  1  0
  4  5  2  0
  5  6  1  0
  5  7  1  0
  7  8  2  0
  8  9  1  0
  9 10  2  0
 10 11  1  0
 11 12  1  0
 11 13  1  0
 11 14  1  0
 14 15  1  0
 15 16  1  0
 15 17  1  0
  7 18  1  0
 18 19  2  0
 18 20  1  0
 10  4  1  0
 15  9  1  0
  6 21  1  0
  6 22  1  0
  6 23  1  0
  8 24  1  0
 12 25  1  0
 12 26  1  0
 12 27  1  0
 13 28  1  0
 13 29  1  0
 13 30  1  0
 14 31  1  0
 14 32  1  0
 16 33  1  0
 16 34  1  0
 16 35  1  0
 17 36  1  0
 17 37  1  0
 17 38  1  0
M  CHG  4   1  -1   2   1  18   1  20  -1
M  END
>  <Ligand ID>  (1) 
LIG0001016

>  <Ligand>  (1) 
Moskene

>  <SMILES>  (1) 
[O-][N+](=O)c1c(C)c(cc2c1C(C)(C)CC2(C)C)[N+](=O)[O-]

>  <CID>  (1) 
67005.0

>  <ChEMBL ID>  (1) 
nan

>  <InChiKey>  (1) 
UHWURQRPEIFIAK-UHFFFAOYSA-N

>  <InChi>  (1) 
InChI=1S/C14H18N2O4/c1-8-10(15(17)18)6-9-11(12(8)16(19)20)14(4,5)7-13(9,2)3/h6H,7H2,1-5H3

>  <IUPAC Name>  (1) 
1,1,3,3,5-pentamethyl-4,6-dinitro-2H-indene

$$$$
