
     RDKit          3D

 11 10  0  0  0  0  0  0  0  0999 V2000
    1.7155   -1.4090    0.9123 O   0  0  0  0  0  0  0  0  0  0  0  0
    1.4209   -0.3218    0.0932 C   0  0  0  0  0  0  0  0  0  0  0  0
    2.2632    0.5820   -0.1674 O   0  0  0  0  0  0  0  0  0  0  0  0
    0.0445   -0.2186   -0.5060 C   0  0  0  0  0  0  0  0  0  0  0  0
   -0.6090   -1.4497   -0.3939 O   0  0  0  0  0  0  0  0  0  0  0  0
   -0.7140    0.8330    0.2611 C   0  0  0  0  0  0  0  0  0  0  0  0
    0.1975    0.0548   -1.5688 H   0  0  0  0  0  0  0  0  0  0  0  0
   -1.5196   -1.3126   -0.0313 H   0  0  0  0  0  0  0  0  0  0  0  0
   -1.2593    1.5183   -0.4344 H   0  0  0  0  0  0  0  0  0  0  0  0
   -0.0472    1.3827    0.9526 H   0  0  0  0  0  0  0  0  0  0  0  0
   -1.4925    0.3410    0.8828 H   0  0  0  0  0  0  0  0  0  0  0  0
  1  2  1  0
  2  3  2  0
  2  4  1  0
  4  5  1  0
  4  6  1  0
  4  7  1  0
  5  8  1  0
  6  9  1  0
  6 10  1  0
  6 11  1  0
M  CHG  1   1  -1
M  END
>  <Ligand ID>  (1) 
LIG0004975

>  <Ligand>  (1) 
2-hydroxypropanoate

>  <SMILES>  (1) 
[O-]C(=O)C(O)C

>  <CID>  (1) 
91435.0

>  <ChEMBL ID>  (1) 
nan

>  <InChiKey>  (1) 
JVTAAEKCZFNVCJ-UHFFFAOYSA-M

>  <InChi>  (1) 
InChI=1S/C3H6O3/c1-2(4)3(5)6/h2,4H,1H3,(H,5,6)/p-1

>  <IUPAC Name>  (1) 
2-hydroxypropanoate

$$$$
