
     RDKit          3D

 47 50  0  0  0  0  0  0  0  0999 V2000
   -6.4339   -4.3911    0.4058 F   0  0  0  0  0  0  0  0  0  0  0  0
   -5.6038   -3.3221    0.4477 C   0  0  0  0  0  0  0  0  0  0  0  0
   -4.8248   -3.0110   -0.6486 C   0  0  0  0  0  0  0  0  0  0  0  0
   -3.9790   -1.9200   -0.6038 C   0  0  0  0  0  0  0  0  0  0  0  0
   -3.8747   -1.1050    0.5184 C   0  0  0  0  0  0  0  0  0  0  0  0
   -4.6535   -1.4179    1.6109 C   0  0  0  0  0  0  0  0  0  0  0  0
   -5.5112   -2.5117    1.5855 C   0  0  0  0  0  0  0  0  0  0  0  0
   -2.9704    0.0454    0.5568 C   0  0  0  0  0  0  0  0  0  0  0  0
   -2.9624    0.7808    1.5884 O   0  0  0  0  0  0  0  0  0  0  0  0
   -2.0980    0.3813   -0.5053 N   0  0  0  0  0  0  0  0  0  0  0  0
   -1.2143    1.4993   -0.4785 C   0  0  0  0  0  0  0  0  0  0  0  0
   -1.5090    2.7387   -0.9308 N   0  0  0  0  0  0  0  0  0  0  0  0
   -0.4300    3.5023   -0.7254 C   0  0  0  0  0  0  0  0  0  0  0  0
    0.5805    2.7368   -0.1280 C   0  0  0  0  0  0  0  0  0  0  0  0
    0.0420    1.5124    0.0003 N   0  0  0  0  0  0  0  0  0  0  0  0
    0.7786    0.4006    0.5954 C   0  0  0  0  0  0  0  0  0  0  0  0
    1.5688   -0.3904   -0.3906 C   0  0  0  0  0  0  0  0  0  0  0  0
    2.2839   -1.4790    0.1964 N   0  0  0  0  0  0  0  0  0  0  0  0
    3.3608   -1.0751    1.0503 C   0  0  0  0  0  0  0  0  0  0  0  0
    4.6349   -1.2657    0.2222 C   0  0  0  0  0  0  0  0  0  0  0  0
    4.2945   -2.5855   -0.4579 C   0  0  0  0  0  0  0  0  0  0  0  0
    2.8210   -2.4133   -0.7585 C   0  0  0  0  0  0  0  0  0  0  0  0
    1.8021    3.2956    0.1880 C   0  0  0  0  0  0  0  0  0  0  0  0
    2.0832    4.6263   -0.0686 C   0  0  0  0  0  0  0  0  0  0  0  0
    1.1017    5.3873   -0.6533 C   0  0  0  0  0  0  0  0  0  0  0  0
   -0.1127    4.8183   -0.9635 C   0  0  0  0  0  0  0  0  0  0  0  0
   -4.8631   -3.6150   -1.5691 H   0  0  0  0  0  0  0  0  0  0  0  0
   -3.3936   -1.7250   -1.4912 H   0  0  0  0  0  0  0  0  0  0  0  0
   -4.5814   -0.7845    2.4994 H   0  0  0  0  0  0  0  0  0  0  0  0
   -6.1299   -2.7761    2.4238 H   0  0  0  0  0  0  0  0  0  0  0  0
   -2.0701   -0.1995   -1.3781 H   0  0  0  0  0  0  0  0  0  0  0  0
    1.4294    0.7469    1.4199 H   0  0  0  0  0  0  0  0  0  0  0  0
   -0.0043   -0.2204    1.1034 H   0  0  0  0  0  0  0  0  0  0  0  0
    2.3321    0.2924   -0.8679 H   0  0  0  0  0  0  0  0  0  0  0  0
    0.9111   -0.7149   -1.2080 H   0  0  0  0  0  0  0  0  0  0  0  0
    3.2754   -0.0699    1.4574 H   0  0  0  0  0  0  0  0  0  0  0  0
    3.4281   -1.8736    1.8470 H   0  0  0  0  0  0  0  0  0  0  0  0
    4.7015   -0.5038   -0.5819 H   0  0  0  0  0  0  0  0  0  0  0  0
    5.5222   -1.3050    0.8528 H   0  0  0  0  0  0  0  0  0  0  0  0
    4.3816   -3.3790    0.3124 H   0  0  0  0  0  0  0  0  0  0  0  0
    4.9105   -2.7629   -1.3635 H   0  0  0  0  0  0  0  0  0  0  0  0
    2.5986   -2.1347   -1.7964 H   0  0  0  0  0  0  0  0  0  0  0  0
    2.2764   -3.3830   -0.6021 H   0  0  0  0  0  0  0  0  0  0  0  0
    2.5431    2.6570    0.6467 H   0  0  0  0  0  0  0  0  0  0  0  0
    3.0624    4.9960    0.2067 H   0  0  0  0  0  0  0  0  0  0  0  0
    1.3376    6.4242   -0.8457 H   0  0  0  0  0  0  0  0  0  0  0  0
   -0.8419    5.4936   -1.4272 H   0  0  0  0  0  0  0  0  0  0  0  0
  1  2  1  0
  2  3  2  0
  3  4  1  0
  4  5  2  0
  5  6  1  0
  6  7  2  0
  5  8  1  0
  8  9  2  0
  8 10  1  0
 10 11  1  0
 11 12  2  0
 12 13  1  0
 13 14  2  0
 14 15  1  0
 15 16  1  0
 16 17  1  0
 17 18  1  0
 18 19  1  0
 19 20  1  0
 20 21  1  0
 21 22  1  0
 14 23  1  0
 23 24  2  0
 24 25  1  0
 25 26  2  0
  7  2  1  0
 15 11  1  0
 22 18  1  0
 26 13  1  0
  3 27  1  0
  4 28  1  0
  6 29  1  0
  7 30  1  0
 10 31  1  0
 16 32  1  0
 16 33  1  0
 17 34  1  0
 17 35  1  0
 19 36  1  0
 19 37  1  0
 20 38  1  0
 20 39  1  0
 21 40  1  0
 21 41  1  0
 22 42  1  0
 22 43  1  0
 23 44  1  0
 24 45  1  0
 25 46  1  0
 26 47  1  0
M  END
>  <Ligand ID>  (1) 
LIG0003085

>  <Ligand>  (1) 
CHEMBL3393881

>  <SMILES>  (1) 
Fc1ccc(cc1)C(=O)Nc1nc2c(n1CCN1CCCC1)cccc2

>  <CID>  (1) 
118725741.0

>  <ChEMBL ID>  (1) 
nan

>  <InChiKey>  (1) 
VVPWLARQAKUWAS-UHFFFAOYSA-N

>  <InChi>  (1) 
InChI=1S/C20H21FN4O/c21-16-9-7-15(8-10-16)19(26)23-20-22-17-5-1-2-6-18(17)25(20)14-13-24-11-3-4-12-24/h1-2,5-10H,3-4,11-14H2,(H,22,23,26)

>  <IUPAC Name>  (1) 
4-fluoro-N-[1-(2-pyrrolidin-1-ylethyl)benzimidazol-2-yl]benzamide

$$$$
