
     RDKit          3D

 33 34  0  0  0  0  0  0  0  0999 V2000
   -1.3930   -2.5631    0.7179 C   0  0  0  0  0  0  0  0  0  0  0  0
   -1.0776   -1.7618   -0.4988 C   0  0  0  0  0  0  0  0  0  0  0  0
   -0.2412   -0.5581   -0.1576 N   0  0  0  0  0  0  0  0  0  0  0  0
   -0.8526    0.7094   -0.2308 C   0  0  0  0  0  0  0  0  0  0  0  0
   -0.2118    1.9145   -0.0582 C   0  0  0  0  0  0  0  0  0  0  0  0
   -0.8496    3.1489   -0.0968 C   0  0  0  0  0  0  0  0  0  0  0  0
   -2.2042    3.2374   -0.3179 C   0  0  0  0  0  0  0  0  0  0  0  0
   -2.8742    2.0492   -0.4945 C   0  0  0  0  0  0  0  0  0  0  0  0
   -2.2328    0.8118   -0.4550 C   0  0  0  0  0  0  0  0  0  0  0  0
    1.0633   -0.9345    0.2400 C   0  0  0  0  0  0  0  0  0  0  0  0
    2.0868   -0.0233    0.6404 C   0  0  0  0  0  0  0  0  0  0  0  0
    2.3133    0.4566    1.9425 C   0  0  0  0  0  0  0  0  0  0  0  0
    3.3956    1.2514    1.8769 N   0  0  0  0  0  0  0  0  0  0  0  0
    3.8364    1.2776    0.6017 C   0  0  0  0  0  0  0  0  0  0  0  0
    3.0463    0.5001   -0.1784 N   0  0  0  0  0  0  0  0  0  0  0  0
   -0.2302   -2.6106   -1.4827 C   0  0  0  0  0  0  0  0  0  0  0  0
   -0.9016   -3.5765    0.6669 H   0  0  0  0  0  0  0  0  0  0  0  0
   -1.0610   -2.0268    1.6312 H   0  0  0  0  0  0  0  0  0  0  0  0
   -2.4742   -2.8027    0.8209 H   0  0  0  0  0  0  0  0  0  0  0  0
   -1.9538   -1.5008   -1.0563 H   0  0  0  0  0  0  0  0  0  0  0  0
    0.8407    1.9566    0.1089 H   0  0  0  0  0  0  0  0  0  0  0  0
   -0.2942    4.0711    0.0465 H   0  0  0  0  0  0  0  0  0  0  0  0
   -2.6599    4.1975   -0.3414 H   0  0  0  0  0  0  0  0  0  0  0  0
   -3.9414    2.1188   -0.6688 H   0  0  0  0  0  0  0  0  0  0  0  0
   -2.8835   -0.0272   -0.5948 H   0  0  0  0  0  0  0  0  0  0  0  0
    1.5374   -1.6461   -0.5184 H   0  0  0  0  0  0  0  0  0  0  0  0
    0.9067   -1.6482    1.1333 H   0  0  0  0  0  0  0  0  0  0  0  0
    1.7395    0.2392    2.8339 H   0  0  0  0  0  0  0  0  0  0  0  0
    4.6934    1.8235    0.1993 H   0  0  0  0  0  0  0  0  0  0  0  0
    3.1184    0.3120   -1.1943 H   0  0  0  0  0  0  0  0  0  0  0  0
    0.4052   -3.2969   -0.9001 H   0  0  0  0  0  0  0  0  0  0  0  0
   -0.9341   -3.2111   -2.1042 H   0  0  0  0  0  0  0  0  0  0  0  0
    0.2881   -1.8878   -2.1117 H   0  0  0  0  0  0  0  0  0  0  0  0
  1  2  1  0
  2  3  1  0
  3  4  1  0
  4  5  2  0
  5  6  1  0
  6  7  2  0
  7  8  1  0
  8  9  2  0
  3 10  1  0
 10 11  1  0
 11 12  2  0
 12 13  1  0
 13 14  2  0
 14 15  1  0
  2 16  1  0
  9  4  1  0
 15 11  1  0
  1 17  1  0
  1 18  1  0
  1 19  1  0
  2 20  1  0
  5 21  1  0
  6 22  1  0
  7 23  1  0
  8 24  1  0
  9 25  1  0
 10 26  1  0
 10 27  1  0
 12 28  1  0
 14 29  1  0
 15 30  1  0
 16 31  1  0
 16 32  1  0
 16 33  1  0
M  END
>  <Ligand ID>  (1) 
LIG0003476

>  <Ligand>  (1) 
CHEMBL2206404

>  <SMILES>  (1) 
CC(N(c1ccccc1)Cc1cnc[nH]1)C

>  <CID>  (1) 
24946961.0

>  <ChEMBL ID>  (1) 
nan

>  <InChiKey>  (1) 
ZJORNDARWIBRJD-UHFFFAOYSA-N

>  <InChi>  (1) 
InChI=1S/C13H17N3/c1-11(2)16(9-12-8-14-10-15-12)13-6-4-3-5-7-13/h3-8,10-11H,9H2,1-2H3,(H,14,15)

>  <IUPAC Name>  (1) 
N-(1H-imidazol-5-ylmethyl)-N-propan-2-ylaniline

$$$$
