
     RDKit          3D

 39 41  0  0  0  0  0  0  0  0999 V2000
    5.9983    0.4819   -0.0462 C   0  0  0  0  0  0  0  0  0  0  0  0
    5.1841   -0.4318    0.8162 C   0  0  0  0  0  0  0  0  0  0  0  0
    3.7870   -0.0286    0.6897 N   0  0  0  0  0  0  0  0  0  0  0  0
    3.1634    0.8688    1.4596 C   0  0  0  0  0  0  0  0  0  0  0  0
    1.8547    0.9196    0.9655 C   0  0  0  0  0  0  0  0  0  0  0  0
    1.7092    0.0596   -0.0887 C   0  0  0  0  0  0  0  0  0  0  0  0
    2.9547   -0.4960   -0.2009 N   0  0  0  0  0  0  0  0  0  0  0  0
    0.6125   -0.3498   -0.9246 C   0  0  0  0  0  0  0  0  0  0  0  0
    0.8253   -1.4753   -1.7393 C   0  0  0  0  0  0  0  0  0  0  0  0
   -0.1612   -2.0471   -2.4955 C   0  0  0  0  0  0  0  0  0  0  0  0
   -1.4362   -1.5397   -2.4975 C   0  0  0  0  0  0  0  0  0  0  0  0
   -1.6626   -0.4345   -1.7062 C   0  0  0  0  0  0  0  0  0  0  0  0
   -0.6518    0.1515   -0.9336 C   0  0  0  0  0  0  0  0  0  0  0  0
   -0.9794    1.3424   -0.2798 N   0  0  0  0  0  0  0  0  0  0  0  0
   -2.3808    1.8083   -0.2826 C   0  0  0  0  0  0  0  0  0  0  0  0
   -3.2615    0.8381    0.4642 C   0  0  0  0  0  0  0  0  0  0  0  0
   -2.8413   -0.2250    1.0473 N   0  0  0  0  0  0  0  0  0  0  0  0
   -3.9527   -0.9052    1.6557 C   0  0  0  0  0  0  0  0  0  0  0  0
   -5.1324   -0.3947    0.8637 C   0  0  0  0  0  0  0  0  0  0  0  0
   -4.6747    0.9835    0.6149 N   0  0  0  0  0  0  0  0  0  0  0  0
    6.2813    1.4290    0.4256 H   0  0  0  0  0  0  0  0  0  0  0  0
    5.4073    0.6881   -0.9576 H   0  0  0  0  0  0  0  0  0  0  0  0
    6.9495   -0.0483   -0.3271 H   0  0  0  0  0  0  0  0  0  0  0  0
    5.5170   -0.4230    1.8765 H   0  0  0  0  0  0  0  0  0  0  0  0
    5.2765   -1.4630    0.4500 H   0  0  0  0  0  0  0  0  0  0  0  0
    3.5745    1.4423    2.2935 H   0  0  0  0  0  0  0  0  0  0  0  0
    1.1340    1.5449    1.4271 H   0  0  0  0  0  0  0  0  0  0  0  0
    1.8090   -1.9487   -1.8032 H   0  0  0  0  0  0  0  0  0  0  0  0
    0.0548   -2.8974   -3.0923 H   0  0  0  0  0  0  0  0  0  0  0  0
   -2.2353   -1.9710   -3.0830 H   0  0  0  0  0  0  0  0  0  0  0  0
   -2.6709   -0.0422   -1.7222 H   0  0  0  0  0  0  0  0  0  0  0  0
   -0.3427    1.9996    0.2009 H   0  0  0  0  0  0  0  0  0  0  0  0
   -2.7477    1.9426   -1.3206 H   0  0  0  0  0  0  0  0  0  0  0  0
   -2.4972    2.7819    0.2163 H   0  0  0  0  0  0  0  0  0  0  0  0
   -4.0762   -0.6350    2.7336 H   0  0  0  0  0  0  0  0  0  0  0  0
   -3.8930   -2.0078    1.5384 H   0  0  0  0  0  0  0  0  0  0  0  0
   -6.0877   -0.3962    1.4216 H   0  0  0  0  0  0  0  0  0  0  0  0
   -5.1595   -0.9738   -0.0848 H   0  0  0  0  0  0  0  0  0  0  0  0
   -5.2486    1.8519    0.5626 H   0  0  0  0  0  0  0  0  0  0  0  0
  1  2  1  0
  2  3  1  0
  3  4  1  0
  4  5  2  0
  5  6  1  0
  6  7  2  0
  6  8  1  0
  8  9  2  0
  9 10  1  0
 10 11  2  0
 11 12  1  0
 12 13  2  0
 13 14  1  0
 14 15  1  0
 15 16  1  0
 16 17  2  0
 17 18  1  0
 18 19  1  0
 19 20  1  0
  7  3  1  0
 13  8  1  0
 20 16  1  0
  1 21  1  0
  1 22  1  0
  1 23  1  0
  2 24  1  0
  2 25  1  0
  4 26  1  0
  5 27  1  0
  9 28  1  0
 10 29  1  0
 11 30  1  0
 12 31  1  0
 14 32  1  0
 15 33  1  0
 15 34  1  0
 18 35  1  0
 18 36  1  0
 19 37  1  0
 19 38  1  0
 20 39  1  0
M  END
>  <Ligand ID>  (1) 
LIG0004391

>  <Ligand>  (1) 
CHEMBL417999

>  <SMILES>  (1) 
CCn1ccc(n1)c1ccccc1NCC1=NCCN1

>  <CID>  (1) 
10221066.0

>  <ChEMBL ID>  (1) 
nan

>  <InChiKey>  (1) 
XQGXNWSIVZTZLW-UHFFFAOYSA-N

>  <InChi>  (1) 
InChI=1S/C15H19N5/c1-2-20-10-7-14(19-20)12-5-3-4-6-13(12)18-11-15-16-8-9-17-15/h3-7,10,18H,2,8-9,11H2,1H3,(H,16,17)

>  <IUPAC Name>  (1) 
N-(4,5-dihydro-1H-imidazol-2-ylmethyl)-2-(1-ethylpyrazol-3-yl)aniline

$$$$
