
     RDKit          3D

 36 38  0  0  0  0  0  0  0  0999 V2000
   -4.0683    1.9904    1.3273 O   0  0  0  0  0  0  0  0  0  0  0  0
   -2.9586    1.3923    0.7478 C   0  0  0  0  0  0  0  0  0  0  0  0
   -2.5686    0.1040    1.0530 C   0  0  0  0  0  0  0  0  0  0  0  0
   -1.4608   -0.4715    0.4643 C   0  0  0  0  0  0  0  0  0  0  0  0
   -1.2804   -1.8335    0.9670 C   0  0  0  0  0  0  0  0  0  0  0  0
   -1.0983   -2.7195   -0.2682 C   0  0  0  0  0  0  0  0  0  0  0  0
    0.2901   -2.6007   -0.5728 N   0  0  0  0  0  0  0  0  0  0  0  0
    0.6627   -1.6232   -1.5226 C   0  0  0  0  0  0  0  0  0  0  0  0
    0.4933   -0.1983   -1.1822 C   0  0  0  0  0  0  0  0  0  0  0  0
   -0.6899    0.2058   -0.4541 C   0  0  0  0  0  0  0  0  0  0  0  0
   -1.0908    1.5021   -0.7546 C   0  0  0  0  0  0  0  0  0  0  0  0
   -2.1978    2.0890   -0.1719 C   0  0  0  0  0  0  0  0  0  0  0  0
   -2.5905    3.3883   -0.4802 O   0  0  0  0  0  0  0  0  0  0  0  0
    1.6901    0.2593   -0.4157 C   0  0  0  0  0  0  0  0  0  0  0  0
    2.2545    1.5009   -0.6361 C   0  0  0  0  0  0  0  0  0  0  0  0
    3.3654    1.9499    0.0618 C   0  0  0  0  0  0  0  0  0  0  0  0
    3.9515    1.1397    1.0238 C   0  0  0  0  0  0  0  0  0  0  0  0
    3.4050   -0.1099    1.2640 C   0  0  0  0  0  0  0  0  0  0  0  0
    2.2965   -0.5266    0.5499 C   0  0  0  0  0  0  0  0  0  0  0  0
   -4.9981    1.7797    0.9946 H   0  0  0  0  0  0  0  0  0  0  0  0
   -3.1454   -0.4654    1.7698 H   0  0  0  0  0  0  0  0  0  0  0  0
   -0.3698   -1.8851    1.6106 H   0  0  0  0  0  0  0  0  0  0  0  0
   -2.1078   -2.1786    1.5924 H   0  0  0  0  0  0  0  0  0  0  0  0
   -1.3893   -3.7764   -0.0234 H   0  0  0  0  0  0  0  0  0  0  0  0
   -1.7687   -2.3270   -1.0418 H   0  0  0  0  0  0  0  0  0  0  0  0
    0.8678   -3.4361   -0.4739 H   0  0  0  0  0  0  0  0  0  0  0  0
    1.7423   -1.8169   -1.7405 H   0  0  0  0  0  0  0  0  0  0  0  0
    0.1388   -1.8588   -2.4785 H   0  0  0  0  0  0  0  0  0  0  0  0
    0.5088    0.3840   -2.1434 H   0  0  0  0  0  0  0  0  0  0  0  0
   -0.5481    2.1137   -1.4648 H   0  0  0  0  0  0  0  0  0  0  0  0
   -3.5502    3.6979   -0.4589 H   0  0  0  0  0  0  0  0  0  0  0  0
    1.8489    2.1819   -1.3700 H   0  0  0  0  0  0  0  0  0  0  0  0
    3.8005    2.9182   -0.1144 H   0  0  0  0  0  0  0  0  0  0  0  0
    4.8070    1.4959    1.5553 H   0  0  0  0  0  0  0  0  0  0  0  0
    3.8440   -0.7657    2.0123 H   0  0  0  0  0  0  0  0  0  0  0  0
    1.9142   -1.4998    0.7742 H   0  0  0  0  0  0  0  0  0  0  0  0
  1  2  1  0
  2  3  2  0
  3  4  1  0
  4  5  1  0
  5  6  1  0
  6  7  1  0
  7  8  1  0
  8  9  1  0
  9 10  1  0
 10 11  1  0
 11 12  2  0
 12 13  1  0
  9 14  1  0
 14 15  2  0
 15 16  1  0
 16 17  2  0
 17 18  1  0
 18 19  2  0
 12  2  1  0
 19 14  1  0
 10  4  2  0
  1 20  1  0
  3 21  1  0
  5 22  1  0
  5 23  1  0
  6 24  1  0
  6 25  1  0
  7 26  1  0
  8 27  1  0
  8 28  1  0
  9 29  1  0
 11 30  1  0
 13 31  1  0
 15 32  1  0
 16 33  1  0
 17 34  1  0
 18 35  1  0
 19 36  1  0
M  END
>  <Ligand ID>  (1) 
LIG0003232

>  <Ligand>  (1) 
SKF 38393

>  <SMILES>  (1) 
Oc1cc2CCNCC(c2cc1O)c1ccccc1

>  <CID>  (1) 
1242.0

>  <ChEMBL ID>  (1) 
nan

>  <InChiKey>  (1) 
JUDKOGFHZYMDMF-UHFFFAOYSA-N

>  <InChi>  (1) 
InChI=1S/C16H17NO2/c18-15-8-12-6-7-17-10-14(13(12)9-16(15)19)11-4-2-1-3-5-11/h1-5,8-9,14,17-19H,6-7,10H2

>  <IUPAC Name>  (1) 
5-phenyl-2,3,4,5-tetrahydro-1H-3-benzazepine-7,8-diol

$$$$
