
     RDKit          3D

 35 34  0  0  0  0  0  0  0  0999 V2000
    5.4512   -0.2012    0.6036 C   0  0  0  0  0  0  0  0  0  0  0  0
    4.9547    1.1697    0.2642 C   0  0  0  0  0  0  0  0  0  0  0  0
    3.6388    1.1606   -0.3581 N   0  0  0  0  0  0  0  0  0  0  0  0
    2.5551    0.6132    0.3580 C   0  0  0  0  0  0  0  0  0  0  0  0
    2.6993    0.1349    1.5169 O   0  0  0  0  0  0  0  0  0  0  0  0
    1.2180    0.6174   -0.3048 C   0  0  0  0  0  0  0  0  0  0  0  0
    0.1533    0.0166    0.5420 C   0  0  0  0  0  0  0  0  0  0  0  0
   -1.1884    0.0482   -0.1760 C   0  0  1  0  0  0  0  0  0  0  0  0
   -1.1622   -0.7271   -1.4310 C   0  0  0  0  0  0  0  0  0  0  0  0
   -0.2027   -1.4777   -1.7809 O   0  0  0  0  0  0  0  0  0  0  0  0
   -2.2257   -0.6766   -2.3378 O   0  0  0  0  0  0  0  0  0  0  0  0
   -2.2725   -0.4013    0.7589 C   0  0  0  0  0  0  0  0  0  0  0  0
   -3.6499   -0.4114    0.1637 C   0  0  1  0  0  0  0  0  0  0  0  0
   -4.6398   -0.8620    1.1903 C   0  0  0  0  0  0  0  0  0  0  0  0
   -5.5955   -0.1217    1.5142 O   0  0  0  0  0  0  0  0  0  0  0  0
   -4.4450   -2.1071    1.7455 O   0  0  0  0  0  0  0  0  0  0  0  0
   -3.9463    0.9025   -0.3515 N   0  0  0  0  0  0  0  0  0  0  0  0
    5.9312   -0.2014    1.6078 H   0  0  0  0  0  0  0  0  0  0  0  0
    4.6550   -0.9737    0.6361 H   0  0  0  0  0  0  0  0  0  0  0  0
    6.1658   -0.5478   -0.1865 H   0  0  0  0  0  0  0  0  0  0  0  0
    5.7036    1.6516   -0.4036 H   0  0  0  0  0  0  0  0  0  0  0  0
    4.8906    1.8250    1.1578 H   0  0  0  0  0  0  0  0  0  0  0  0
    3.5190    1.5578   -1.3204 H   0  0  0  0  0  0  0  0  0  0  0  0
    0.9856    1.6919   -0.5301 H   0  0  0  0  0  0  0  0  0  0  0  0
    1.3136    0.0956   -1.2495 H   0  0  0  0  0  0  0  0  0  0  0  0
    0.0266    0.6007    1.4810 H   0  0  0  0  0  0  0  0  0  0  0  0
    0.3815   -1.0179    0.8714 H   0  0  0  0  0  0  0  0  0  0  0  0
   -1.3798    1.1168   -0.4468 H   0  0  0  0  0  0  0  0  0  0  0  0
   -2.2839   -1.3303   -3.1104 H   0  0  0  0  0  0  0  0  0  0  0  0
   -2.2280    0.1496    1.7158 H   0  0  0  0  0  0  0  0  0  0  0  0
   -2.0426   -1.4695    1.0370 H   0  0  0  0  0  0  0  0  0  0  0  0
   -3.7126   -1.1402   -0.6909 H   0  0  0  0  0  0  0  0  0  0  0  0
   -4.8581   -2.3357    2.6412 H   0  0  0  0  0  0  0  0  0  0  0  0
   -3.4370    1.5820    0.2678 H   0  0  0  0  0  0  0  0  0  0  0  0
   -4.9729    1.0685   -0.2686 H   0  0  0  0  0  0  0  0  0  0  0  0
  1  2  1  0
  2  3  1  0
  3  4  1  0
  4  5  2  0
  4  6  1  0
  6  7  1  0
  7  8  1  0
  8  9  1  0
  9 10  2  0
  9 11  1  0
  8 12  1  0
 12 13  1  0
 13 14  1  0
 14 15  2  0
 14 16  1  0
 13 17  1  0
  1 18  1  0
  1 19  1  0
  1 20  1  0
  2 21  1  0
  2 22  1  0
  3 23  1  0
  6 24  1  0
  6 25  1  0
  7 26  1  0
  7 27  1  0
  8 28  1  6
 11 29  1  0
 12 30  1  0
 12 31  1  0
 13 32  1  6
 16 33  1  0
 17 34  1  0
 17 35  1  0
M  END
>  <Ligand ID>  (1) 
LIG0000984

>  <Ligand>  (1) 
CHEMBL479805

>  <SMILES>  (1) 
CCNC(=O)CC[C@@H](C(=O)O)C[C@@H](C(=O)O)N

>  <CID>  (1) 
44568312.0

>  <ChEMBL ID>  (1) 
nan

>  <InChiKey>  (1) 
ZSSSYSCTVWUGPI-RQJHMYQMSA-N

>  <InChi>  (1) 
InChI=1S/C10H18N2O5/c1-2-12-8(13)4-3-6(9(14)15)5-7(11)10(16)17/h6-7H,2-5,11H2,1H3,(H,12,13)(H,14,15)(H,16,17)/t6-,7+/m1/s1

>  <IUPAC Name>  (1) 
(2S,4R)-2-amino-4-[3-(ethylamino)-3-oxopropyl]pentanedioic acid

$$$$
