
     RDKit          3D

 46 49  0  0  0  0  0  0  0  0999 V2000
    5.5446    1.1298   -0.5441 O   0  0  0  0  0  0  0  0  0  0  0  0
    4.3215    0.9246   -0.6834 C   0  0  0  0  0  0  0  0  0  0  0  0
    3.8989   -0.2373   -1.5072 C   0  0  0  0  0  0  0  0  0  0  0  0
    2.3956   -0.3136   -1.6297 C   0  0  0  0  0  0  0  0  0  0  0  0
    1.6785   -0.0426   -0.3221 C   0  0  1  0  0  0  0  0  0  0  0  0
    2.0348    1.3313    0.0954 C   0  0  0  0  0  0  0  0  0  0  0  0
    3.2933    1.7460   -0.0938 C   0  0  0  0  0  0  0  0  0  0  0  0
    1.0970    2.2783    0.7074 C   0  0  0  0  0  0  0  0  0  0  0  0
   -0.2908    2.0489    0.1770 C   0  0  0  0  0  0  0  0  0  0  0  0
   -0.6999    0.6172    0.2425 C   0  0  2  0  0  0  0  0  0  0  0  0
    0.2456   -0.2955   -0.5496 C   0  0  2  0  0  0  0  0  0  0  0  0
   -0.1397   -1.7131   -0.1905 C   0  0  0  0  0  0  0  0  0  0  0  0
   -1.5680   -2.0351   -0.4566 C   0  0  0  0  0  0  0  0  0  0  0  0
   -2.5260   -1.0348    0.0863 C   0  0  1  0  0  0  0  0  0  0  0  0
   -2.0018    0.3326   -0.3542 C   0  0  1  0  0  0  0  0  0  0  0  0
   -3.1887    1.1419   -0.0228 C   0  0  0  0  0  0  0  0  0  0  0  0
   -4.2533    0.3039   -0.6976 C   0  0  0  0  0  0  0  0  0  0  0  0
   -3.8318   -0.9773   -0.6162 C   0  0  0  0  0  0  0  0  0  0  0  0
   -2.8094   -1.1276    1.5378 C   0  0  0  0  0  0  0  0  0  0  0  0
    2.2799   -1.0261    0.6845 C   0  0  0  0  0  0  0  0  0  0  0  0
    4.2718   -0.0401   -2.5356 H   0  0  0  0  0  0  0  0  0  0  0  0
    4.3122   -1.1929   -1.1796 H   0  0  0  0  0  0  0  0  0  0  0  0
    2.1423   -1.3050   -2.0450 H   0  0  0  0  0  0  0  0  0  0  0  0
    2.0647    0.4350   -2.3752 H   0  0  0  0  0  0  0  0  0  0  0  0
    3.5787    2.7639    0.2096 H   0  0  0  0  0  0  0  0  0  0  0  0
    1.1404    2.2578    1.8146 H   0  0  0  0  0  0  0  0  0  0  0  0
    1.3784    3.3059    0.4028 H   0  0  0  0  0  0  0  0  0  0  0  0
   -0.4437    2.5243   -0.7986 H   0  0  0  0  0  0  0  0  0  0  0  0
   -0.9681    2.5845    0.8856 H   0  0  0  0  0  0  0  0  0  0  0  0
   -0.5572    0.2951    1.2920 H   0  0  0  0  0  0  0  0  0  0  0  0
   -0.0212   -0.1927   -1.6414 H   0  0  0  0  0  0  0  0  0  0  0  0
    0.5005   -2.3907   -0.8021 H   0  0  0  0  0  0  0  0  0  0  0  0
    0.1399   -1.9407    0.8770 H   0  0  0  0  0  0  0  0  0  0  0  0
   -1.7787   -3.0024    0.0780 H   0  0  0  0  0  0  0  0  0  0  0  0
   -1.7348   -2.2618   -1.5217 H   0  0  0  0  0  0  0  0  0  0  0  0
   -1.9214    0.2736   -1.4640 H   0  0  0  0  0  0  0  0  0  0  0  0
   -3.4451    1.1567    1.0491 H   0  0  0  0  0  0  0  0  0  0  0  0
   -3.1394    2.1580   -0.4832 H   0  0  0  0  0  0  0  0  0  0  0  0
   -5.1653    0.6789   -1.1497 H   0  0  0  0  0  0  0  0  0  0  0  0
   -4.3878   -1.8040   -1.0135 H   0  0  0  0  0  0  0  0  0  0  0  0
   -2.8696   -2.2001    1.8046 H   0  0  0  0  0  0  0  0  0  0  0  0
   -3.8299   -0.7255    1.7786 H   0  0  0  0  0  0  0  0  0  0  0  0
   -2.1341   -0.6088    2.2186 H   0  0  0  0  0  0  0  0  0  0  0  0
    1.7822   -1.0035    1.6596 H   0  0  0  0  0  0  0  0  0  0  0  0
    3.3403   -0.7706    0.8139 H   0  0  0  0  0  0  0  0  0  0  0  0
    2.2646   -2.0465    0.2455 H   0  0  0  0  0  0  0  0  0  0  0  0
  1  2  2  0
  2  3  1  0
  3  4  1  0
  4  5  1  0
  5  6  1  0
  6  7  2  0
  6  8  1  0
  8  9  1  0
  9 10  1  0
 10 11  1  0
 11 12  1  0
 12 13  1  0
 13 14  1  0
 14 15  1  0
 15 16  1  0
 16 17  1  0
 17 18  2  0
 14 19  1  1
  5 20  1  1
  7  2  1  0
 15 10  1  0
 11  5  1  0
 18 14  1  0
  3 21  1  0
  3 22  1  0
  4 23  1  0
  4 24  1  0
  7 25  1  0
  8 26  1  0
  8 27  1  0
  9 28  1  0
  9 29  1  0
 10 30  1  1
 11 31  1  6
 12 32  1  0
 12 33  1  0
 13 34  1  0
 13 35  1  0
 15 36  1  6
 16 37  1  0
 16 38  1  0
 17 39  1  0
 18 40  1  0
 19 41  1  0
 19 42  1  0
 19 43  1  0
 20 44  1  0
 20 45  1  0
 20 46  1  0
M  END
>  <Ligand ID>  (1) 
LIG0000032

>  <Ligand>  (1) 
androstadienone

>  <SMILES>  (1) 
O=C1CC[C@]2(C(=C1)CC[C@@H]1[C@@H]2CC[C@]2([C@H]1CC=C2)C)C

>  <CID>  (1) 
92979.0

>  <ChEMBL ID>  (1) 
nan

>  <InChiKey>  (1) 
HNDHDMOSWUAEAW-VMXHOPILSA-N

>  <InChi>  (1) 
InChI=1S/C19H26O/c1-18-9-3-4-16(18)15-6-5-13-12-14(20)7-11-19(13,2)17(15)8-10-18/h3,9,12,15-17H,4-8,10-11H2,1-2H3/t15-,16-,17-,18-,19-/m0/s1

>  <IUPAC Name>  (1) 
(8S,9S,10R,13R,14S)-10,13-dimethyl-1,2,6,7,8,9,11,12,14,15-decahydrocyclopenta[a]phenanthren-3-one

$$$$
