
     RDKit          3D

 56 58  0  0  0  0  0  0  0  0999 V2000
   -3.3643   -3.1648   -1.3294 C   0  0  0  0  0  0  0  0  0  0  0  0
   -2.6868   -3.4956   -0.0065 C   0  0  0  0  0  0  0  0  0  0  0  0
   -1.9167   -2.3883    0.4343 O   0  0  0  0  0  0  0  0  0  0  0  0
   -0.8787   -1.9038   -0.3519 C   0  0  0  0  0  0  0  0  0  0  0  0
   -0.5760   -2.3972   -1.4503 O   0  0  0  0  0  0  0  0  0  0  0  0
   -0.1276   -0.7291    0.2078 C   0  0  0  0  0  0  0  0  0  0  0  0
   -1.1852    0.3661    0.3680 C   0  0  0  0  0  0  0  0  0  0  0  0
   -1.8329    0.7325   -0.9105 C   0  0  0  0  0  0  0  0  0  0  0  0
   -2.7842    1.7168   -0.7488 O   0  0  0  0  0  0  0  0  0  0  0  0
   -3.9476    1.8225   -0.0919 C   0  0  0  0  0  0  0  0  0  0  0  0
   -4.6155    3.0632   -0.1779 C   0  0  0  0  0  0  0  0  0  0  0  0
   -5.8080    3.2944    0.4449 C   0  0  0  0  0  0  0  0  0  0  0  0
   -6.4157    2.3282    1.1866 C   0  0  0  0  0  0  0  0  0  0  0  0
   -5.8039    1.1083    1.2976 C   0  0  0  0  0  0  0  0  0  0  0  0
   -4.5930    0.8754    0.6639 C   0  0  0  0  0  0  0  0  0  0  0  0
    0.2716   -1.0863    1.6121 C   0  0  0  0  0  0  0  0  0  0  0  0
    1.5998   -1.8136    1.5664 C   0  0  0  0  0  0  0  0  0  0  0  0
    2.5200   -0.8411    1.0158 N   0  0  0  0  0  0  0  0  0  0  0  0
    2.3359   -0.7631   -0.3851 C   0  0  0  0  0  0  0  0  0  0  0  0
    0.9623   -0.2437   -0.6710 C   0  0  0  0  0  0  0  0  0  0  0  0
    3.8390   -0.9429    1.5132 C   0  0  0  0  0  0  0  0  0  0  0  0
    4.6751    0.1111    0.8661 C   0  0  0  0  0  0  0  0  0  0  0  0
    4.9013    1.3707    1.2768 C   0  0  0  0  0  0  0  0  0  0  0  0
    5.7023    2.1562    0.5238 C   0  0  0  0  0  0  0  0  0  0  0  0
    6.2324    1.6489   -0.5914 C   0  0  0  0  0  0  0  0  0  0  0  0
    5.5975   -0.0629   -0.6487 S   0  0  0  0  0  0  0  0  0  0  0  0
    7.1343    2.2242   -1.6255 C   0  0  0  0  0  0  0  0  0  0  0  0
   -3.7160   -2.1208   -1.2359 H   0  0  0  0  0  0  0  0  0  0  0  0
   -2.6324   -3.3358   -2.1206 H   0  0  0  0  0  0  0  0  0  0  0  0
   -4.2063   -3.8832   -1.4378 H   0  0  0  0  0  0  0  0  0  0  0  0
   -2.0699   -4.3951   -0.0425 H   0  0  0  0  0  0  0  0  0  0  0  0
   -3.4915   -3.6811    0.7526 H   0  0  0  0  0  0  0  0  0  0  0  0
   -0.6393    1.2565    0.8016 H   0  0  0  0  0  0  0  0  0  0  0  0
   -1.9246    0.0860    1.1223 H   0  0  0  0  0  0  0  0  0  0  0  0
   -1.1197    1.0714   -1.6975 H   0  0  0  0  0  0  0  0  0  0  0  0
   -2.3426   -0.1583   -1.3845 H   0  0  0  0  0  0  0  0  0  0  0  0
   -4.1784    3.8805   -0.7593 H   0  0  0  0  0  0  0  0  0  0  0  0
   -6.2759    4.2774    0.3401 H   0  0  0  0  0  0  0  0  0  0  0  0
   -7.3626    2.5777    1.6556 H   0  0  0  0  0  0  0  0  0  0  0  0
   -6.2739    0.3291    1.8836 H   0  0  0  0  0  0  0  0  0  0  0  0
   -4.1741   -0.0912    0.7726 H   0  0  0  0  0  0  0  0  0  0  0  0
    0.4632   -0.1553    2.2122 H   0  0  0  0  0  0  0  0  0  0  0  0
   -0.5256   -1.7024    2.0656 H   0  0  0  0  0  0  0  0  0  0  0  0
    1.4755   -2.6475    0.8270 H   0  0  0  0  0  0  0  0  0  0  0  0
    1.9121   -2.2049    2.5387 H   0  0  0  0  0  0  0  0  0  0  0  0
    2.5104   -1.7095   -0.9323 H   0  0  0  0  0  0  0  0  0  0  0  0
    3.0540   -0.0355   -0.8163 H   0  0  0  0  0  0  0  0  0  0  0  0
    0.9981    0.8683   -0.6260 H   0  0  0  0  0  0  0  0  0  0  0  0
    0.7118   -0.5947   -1.7128 H   0  0  0  0  0  0  0  0  0  0  0  0
    4.3034   -1.9417    1.4085 H   0  0  0  0  0  0  0  0  0  0  0  0
    3.8336   -0.7176    2.5992 H   0  0  0  0  0  0  0  0  0  0  0  0
    4.4346    1.7533    2.2200 H   0  0  0  0  0  0  0  0  0  0  0  0
    5.9175    3.2155    0.8309 H   0  0  0  0  0  0  0  0  0  0  0  0
    8.1738    2.0464   -1.2972 H   0  0  0  0  0  0  0  0  0  0  0  0
    6.9134    3.2988   -1.6517 H   0  0  0  0  0  0  0  0  0  0  0  0
    6.9958    1.7274   -2.6068 H   0  0  0  0  0  0  0  0  0  0  0  0
  1  2  1  0
  2  3  1  0
  3  4  1  0
  4  5  2  0
  4  6  1  0
  6  7  1  0
  7  8  1  0
  8  9  1  0
  9 10  1  0
 10 11  2  0
 11 12  1  0
 12 13  2  0
 13 14  1  0
 14 15  2  0
  6 16  1  0
 16 17  1  0
 17 18  1  0
 18 19  1  0
 19 20  1  0
 18 21  1  0
 21 22  1  0
 22 23  2  0
 23 24  1  0
 24 25  2  0
 25 26  1  0
 25 27  1  0
 20  6  1  0
 26 22  1  0
 15 10  1  0
  1 28  1  0
  1 29  1  0
  1 30  1  0
  2 31  1  0
  2 32  1  0
  7 33  1  0
  7 34  1  0
  8 35  1  0
  8 36  1  0
 11 37  1  0
 12 38  1  0
 13 39  1  0
 14 40  1  0
 15 41  1  0
 16 42  1  0
 16 43  1  0
 17 44  1  0
 17 45  1  0
 19 46  1  0
 19 47  1  0
 20 48  1  0
 20 49  1  0
 21 50  1  0
 21 51  1  0
 23 52  1  0
 24 53  1  0
 27 54  1  0
 27 55  1  0
 27 56  1  0
M  END
>  <Ligand ID>  (1) 
LIG0004432

>  <Ligand>  (1) 
MLS000735095

>  <SMILES>  (1) 
CCOC(=O)C1(CCOc2ccccc2)CCN(CC1)Cc1ccc(s1)C

>  <CID>  (1) 
16188315.0

>  <ChEMBL ID>  (1) 
nan

>  <InChiKey>  (1) 
KTCKKCPJMYCGME-UHFFFAOYSA-N

>  <InChi>  (1) 
InChI=1S/C22H29NO3S/c1-3-25-21(24)22(13-16-26-19-7-5-4-6-8-19)11-14-23(15-12-22)17-20-10-9-18(2)27-20/h4-10H,3,11-17H2,1-2H3

>  <IUPAC Name>  (1) 
ethyl 1-[(5-methylthiophen-2-yl)methyl]-4-(2-phenoxyethyl)piperidine-4-carboxylate

$$$$
