
     RDKit          3D

 74 79  0  0  0  0  0  0  0  0999 V2000
   -6.0452    4.3502    0.6361 C   0  0  0  0  0  0  0  0  0  0  0  0
   -4.6954    4.5233    1.2897 C   0  0  0  0  0  0  0  0  0  0  0  0
   -3.8726    3.4529    0.9128 O   0  0  0  0  0  0  0  0  0  0  0  0
   -4.1954    2.1602    1.2300 C   0  0  0  0  0  0  0  0  0  0  0  0
   -5.2976    1.7476    1.9305 C   0  0  0  0  0  0  0  0  0  0  0  0
   -5.5672    0.4174    2.2172 C   0  0  0  0  0  0  0  0  0  0  0  0
   -4.6927   -0.5780    1.7861 C   0  0  0  0  0  0  0  0  0  0  0  0
   -3.5748   -0.1830    1.0783 C   0  0  0  0  0  0  0  0  0  0  0  0
   -3.3206    1.1646    0.7990 C   0  0  0  0  0  0  0  0  0  0  0  0
   -2.6058   -1.1067    0.5826 N   0  0  0  0  0  0  0  0  0  0  0  0
   -1.3043   -1.1991    0.8716 C   0  0  0  0  0  0  0  0  0  0  0  0
   -0.8051   -2.2475    0.1374 C   0  0  0  0  0  0  0  0  0  0  0  0
   -1.8407   -2.7644   -0.5848 N   0  0  0  0  0  0  0  0  0  0  0  0
   -2.9615   -2.0662   -0.3175 C   0  0  0  0  0  0  0  0  0  0  0  0
   -4.2851   -2.3062   -0.8871 C   0  0  0  0  0  0  0  0  0  0  0  0
   -4.9816   -1.3599   -1.6059 C   0  0  0  0  0  0  0  0  0  0  0  0
   -6.2339   -1.7148   -2.0957 C   0  0  0  0  0  0  0  0  0  0  0  0
   -6.7638   -2.9873   -1.8647 C   0  0  0  0  0  0  0  0  0  0  0  0
   -6.0555   -3.9285   -1.1421 C   0  0  0  0  0  0  0  0  0  0  0  0
   -4.8134   -3.5779   -0.6557 C   0  0  0  0  0  0  0  0  0  0  0  0
   -8.1025   -3.2847   -2.4204 C   0  0  0  0  0  0  0  0  0  0  0  0
    0.5328   -2.7992    0.0538 C   0  0  0  0  0  0  0  0  0  0  0  0
    0.6683   -4.0166    0.3516 O   0  0  0  0  0  0  0  0  0  0  0  0
    1.6732   -2.0294   -0.3443 N   0  0  0  0  0  0  0  0  0  0  0  0
    1.5850   -0.6276   -0.6975 C   0  0  0  0  0  0  0  0  0  0  0  0
    2.7631    0.0791   -0.0348 C   0  0  0  0  0  0  0  0  0  0  0  0
    4.0095   -0.5150   -0.4942 N   0  0  0  0  0  0  0  0  0  0  0  0
    3.9277   -1.7793   -1.1709 C   0  0  0  0  0  0  0  0  0  0  0  0
    2.9643   -2.6611   -0.4002 C   0  0  0  0  0  0  0  0  0  0  0  0
    5.2193    0.1901   -0.2405 C   0  0  0  0  0  0  0  0  0  0  0  0
    5.1103    1.3401    0.5383 C   0  0  0  0  0  0  0  0  0  0  0  0
    6.2686    2.0689    0.8131 C   0  0  0  0  0  0  0  0  0  0  0  0
    6.1300    3.1990    1.5846 C   0  0  0  0  0  0  0  0  0  0  0  0
    7.2415    3.9583    1.8882 C   0  0  0  0  0  0  0  0  0  0  0  0
    8.4456    3.5227    1.3855 C   0  0  0  0  0  0  0  0  0  0  0  0
    8.5852    2.3881    0.6107 C   0  0  0  0  0  0  0  0  0  0  0  0
    7.4820    1.6334    0.3087 C   0  0  0  0  0  0  0  0  0  0  0  0
    7.6247    0.5105   -0.4583 C   0  0  0  0  0  0  0  0  0  0  0  0
    6.4454   -0.1991   -0.7164 C   0  0  0  0  0  0  0  0  0  0  0  0
    8.8603    0.0124   -1.0062 C   0  0  0  0  0  0  0  0  0  0  0  0
   10.0002    0.4938   -0.8895 O   0  0  0  0  0  0  0  0  0  0  0  0
    8.8086   -1.1700   -1.7790 O   0  0  0  0  0  0  0  0  0  0  0  0
   -6.1127    3.3681    0.1091 H   0  0  0  0  0  0  0  0  0  0  0  0
   -6.1971    5.1218   -0.1580 H   0  0  0  0  0  0  0  0  0  0  0  0
   -6.8390    4.4888    1.3802 H   0  0  0  0  0  0  0  0  0  0  0  0
   -4.2383    5.5085    1.0435 H   0  0  0  0  0  0  0  0  0  0  0  0
   -4.8314    4.5218    2.4120 H   0  0  0  0  0  0  0  0  0  0  0  0
   -6.0066    2.4687    2.2977 H   0  0  0  0  0  0  0  0  0  0  0  0
   -6.4647    0.1306    2.7830 H   0  0  0  0  0  0  0  0  0  0  0  0
   -4.8592   -1.6143    1.9835 H   0  0  0  0  0  0  0  0  0  0  0  0
   -2.4197    1.4493    0.2316 H   0  0  0  0  0  0  0  0  0  0  0  0
   -0.7451   -0.5871    1.5404 H   0  0  0  0  0  0  0  0  0  0  0  0
   -4.5444   -0.3827   -1.7679 H   0  0  0  0  0  0  0  0  0  0  0  0
   -6.8158   -1.0057   -2.6637 H   0  0  0  0  0  0  0  0  0  0  0  0
   -6.4976   -4.8925   -0.9880 H   0  0  0  0  0  0  0  0  0  0  0  0
   -4.2810   -4.3318   -0.0939 H   0  0  0  0  0  0  0  0  0  0  0  0
   -8.7424   -2.4021   -2.5138 H   0  0  0  0  0  0  0  0  0  0  0  0
   -8.6495   -4.0020   -1.7466 H   0  0  0  0  0  0  0  0  0  0  0  0
   -8.0197   -3.8314   -3.3832 H   0  0  0  0  0  0  0  0  0  0  0  0
    1.6685   -0.5232   -1.7901 H   0  0  0  0  0  0  0  0  0  0  0  0
    0.6242   -0.1929   -0.3829 H   0  0  0  0  0  0  0  0  0  0  0  0
    2.7542    1.1391   -0.3893 H   0  0  0  0  0  0  0  0  0  0  0  0
    2.6792    0.0096    1.0557 H   0  0  0  0  0  0  0  0  0  0  0  0
    4.8920   -2.2917   -1.1992 H   0  0  0  0  0  0  0  0  0  0  0  0
    3.5835   -1.6150   -2.2138 H   0  0  0  0  0  0  0  0  0  0  0  0
    3.3509   -2.8761    0.6007 H   0  0  0  0  0  0  0  0  0  0  0  0
    2.8401   -3.6214   -0.9703 H   0  0  0  0  0  0  0  0  0  0  0  0
    4.1846    1.6974    0.9400 H   0  0  0  0  0  0  0  0  0  0  0  0
    5.1818    3.5159    1.9626 H   0  0  0  0  0  0  0  0  0  0  0  0
    7.1910    4.8629    2.4961 H   0  0  0  0  0  0  0  0  0  0  0  0
    9.3260    4.1261    1.6272 H   0  0  0  0  0  0  0  0  0  0  0  0
    9.5769    2.1555    0.2800 H   0  0  0  0  0  0  0  0  0  0  0  0
    6.4897   -1.0927   -1.3170 H   0  0  0  0  0  0  0  0  0  0  0  0
    9.5907   -1.4124   -2.3660 H   0  0  0  0  0  0  0  0  0  0  0  0
  1  2  1  0
  2  3  1  0
  3  4  1  0
  4  5  2  0
  5  6  1  0
  6  7  2  0
  7  8  1  0
  8  9  2  0
  8 10  1  0
 10 11  1  0
 11 12  2  0
 12 13  1  0
 13 14  2  0
 14 15  1  0
 15 16  2  0
 16 17  1  0
 17 18  2  0
 18 19  1  0
 19 20  2  0
 18 21  1  0
 12 22  1  0
 22 23  2  0
 22 24  1  0
 24 25  1  0
 25 26  1  0
 26 27  1  0
 27 28  1  0
 28 29  1  0
 27 30  1  0
 30 31  2  0
 31 32  1  0
 32 33  2  0
 33 34  1  0
 34 35  2  0
 35 36  1  0
 36 37  2  0
 37 38  1  0
 38 39  2  0
 38 40  1  0
 40 41  2  0
 40 42  1  0
  9  4  1  0
 14 10  1  0
 20 15  1  0
 29 24  1  0
 39 30  1  0
 37 32  1  0
  1 43  1  0
  1 44  1  0
  1 45  1  0
  2 46  1  0
  2 47  1  0
  5 48  1  0
  6 49  1  0
  7 50  1  0
  9 51  1  0
 11 52  1  0
 16 53  1  0
 17 54  1  0
 19 55  1  0
 20 56  1  0
 21 57  1  0
 21 58  1  0
 21 59  1  0
 25 60  1  0
 25 61  1  0
 26 62  1  0
 26 63  1  0
 28 64  1  0
 28 65  1  0
 29 66  1  0
 29 67  1  0
 31 68  1  0
 33 69  1  0
 34 70  1  0
 35 71  1  0
 36 72  1  0
 39 73  1  0
 42 74  1  0
M  END
>  <Ligand ID>  (1) 
LIG0004487

>  <Ligand>  (1) 
CHEMBL505727

>  <SMILES>  (1) 
CCOc1cccc(c1)n1cc(nc1c1ccc(cc1)C)C(=O)N1CCN(CC1)c1cc2ccccc2c(c1)C(=O)O

>  <CID>  (1) 
16755781.0

>  <ChEMBL ID>  (1) 
nan

>  <InChiKey>  (1) 
HMGSYODAZJHCRL-UHFFFAOYSA-N

>  <InChi>  (1) 
InChI=1S/C34H32N4O4/c1-3-42-28-9-6-8-26(20-28)38-22-31(35-32(38)24-13-11-23(2)12-14-24)33(39)37-17-15-36(16-18-37)27-19-25-7-4-5-10-29(25)30(21-27)34(40)41/h4-14,19-22H,3,15-18H2,1-2H3,(H,40,41)

>  <IUPAC Name>  (1) 
3-[4-[1-(3-ethoxyphenyl)-2-(4-methylphenyl)imidazole-4-carbonyl]piperazin-1-yl]naphthalene-1-carboxylic acid

$$$$
