
     RDKit          3D

 32 33  0  0  0  0  0  0  0  0999 V2000
    4.4854    2.7167    1.6012 F   0  0  0  0  0  0  0  0  0  0  0  0
    5.0314    1.6541    0.9101 C   0  0  0  0  0  0  0  0  0  0  0  0
    3.9645    0.6639    0.6353 C   0  0  0  0  0  0  0  0  0  0  0  0
    3.2405    0.7717   -0.5314 C   0  0  0  0  0  0  0  0  0  0  0  0
    2.2290   -0.1409   -0.8250 C   0  0  0  0  0  0  0  0  0  0  0  0
    1.9116   -1.1692    0.0171 C   0  0  0  0  0  0  0  0  0  0  0  0
    2.6816   -1.2366    1.1976 C   0  0  0  0  0  0  0  0  0  0  0  0
    3.6500   -0.3472    1.4582 N   0  0  0  0  0  0  0  0  0  0  0  0
    2.3921   -2.5026    2.3765 Cl  0  0  0  0  0  0  0  0  0  0  0  0
    0.9677   -2.1214   -0.1345 O   0  0  0  0  0  0  0  0  0  0  0  0
    0.0383   -2.3578   -1.1240 C   0  0  0  0  0  0  0  0  0  0  0  0
   -0.9707   -1.2480   -1.2536 C   0  0  0  0  0  0  0  0  0  0  0  0
   -1.6438   -1.1335   -0.0077 O   0  0  0  0  0  0  0  0  0  0  0  0
   -2.6453   -0.2146    0.2527 C   0  0  0  0  0  0  0  0  0  0  0  0
   -3.0403    0.6670   -0.7496 C   0  0  0  0  0  0  0  0  0  0  0  0
   -4.0351    1.5903   -0.5136 C   0  0  0  0  0  0  0  0  0  0  0  0
   -4.6442    1.6390    0.7308 C   0  0  0  0  0  0  0  0  0  0  0  0
   -4.2692    0.7758    1.7382 C   0  0  0  0  0  0  0  0  0  0  0  0
   -3.2710   -0.1444    1.4879 C   0  0  0  0  0  0  0  0  0  0  0  0
   -2.7825   -1.2511    2.7626 Cl  0  0  0  0  0  0  0  0  0  0  0  0
   -5.9189    2.8365    1.0024 Cl  0  0  0  0  0  0  0  0  0  0  0  0
    5.7989    1.1168    1.5241 H   0  0  0  0  0  0  0  0  0  0  0  0
    5.4947    1.9653   -0.0279 H   0  0  0  0  0  0  0  0  0  0  0  0
    3.4598    1.5746   -1.2284 H   0  0  0  0  0  0  0  0  0  0  0  0
    1.7258   -0.0092   -1.7436 H   0  0  0  0  0  0  0  0  0  0  0  0
   -0.5306   -3.2954   -0.9041 H   0  0  0  0  0  0  0  0  0  0  0  0
    0.5149   -2.5756   -2.1272 H   0  0  0  0  0  0  0  0  0  0  0  0
   -0.5075   -0.3260   -1.5631 H   0  0  0  0  0  0  0  0  0  0  0  0
   -1.6941   -1.5857   -2.0529 H   0  0  0  0  0  0  0  0  0  0  0  0
   -2.5363    0.5889   -1.6988 H   0  0  0  0  0  0  0  0  0  0  0  0
   -4.3538    2.2830   -1.2828 H   0  0  0  0  0  0  0  0  0  0  0  0
   -4.7431    0.8157    2.7022 H   0  0  0  0  0  0  0  0  0  0  0  0
  1  2  1  0
  2  3  1  0
  3  4  2  0
  4  5  1  0
  5  6  2  0
  6  7  1  0
  7  8  2  0
  7  9  1  0
  6 10  1  0
 10 11  1  0
 11 12  1  0
 12 13  1  0
 13 14  1  0
 14 15  2  0
 15 16  1  0
 16 17  2  0
 17 18  1  0
 18 19  2  0
 19 20  1  0
 17 21  1  0
  8  3  1  0
 19 14  1  0
  2 22  1  0
  2 23  1  0
  4 24  1  0
  5 25  1  0
 11 26  1  0
 11 27  1  0
 12 28  1  0
 12 29  1  0
 15 30  1  0
 16 31  1  0
 18 32  1  0
M  END
>  <Ligand ID>  (1) 
LIG0001218

>  <Ligand>  (1) 
CYM50260

>  <SMILES>  (1) 
FCc1ccc(c(n1)Cl)OCCOc1ccc(cc1Cl)Cl

>  <CID>  (1) 
44620894.0

>  <ChEMBL ID>  (1) 
nan

>  <InChiKey>  (1) 
FHPOTBQOUBMMCI-UHFFFAOYSA-N

>  <InChi>  (1) 
InChI=1S/C14H11Cl3FNO2/c15-9-1-3-12(11(16)7-9)20-5-6-21-13-4-2-10(8-18)19-14(13)17/h1-4,7H,5-6,8H2

>  <IUPAC Name>  (1) 
2-chloro-3-[2-(2,4-dichlorophenoxy)ethoxy]-6-(fluoromethyl)pyridine

$$$$
