
     RDKit          3D

 19 19  0  0  0  0  0  0  0  0999 V2000
    3.5154   -1.3697   -0.3969 O   0  0  0  0  0  0  0  0  0  0  0  0
    2.3924   -0.9378   -0.0401 C   0  0  0  0  0  0  0  0  0  0  0  0
    1.9175   -0.6430    1.2823 N   0  0  0  0  0  0  0  0  0  0  0  0
    0.5768   -0.3490    1.2127 O   0  0  0  0  0  0  0  0  0  0  0  0
    0.5233    0.3438    0.0112 C   0  0  1  0  0  0  0  0  0  0  0  0
    1.2080   -0.6024   -0.9189 C   0  0  0  0  0  0  0  0  0  0  0  0
   -0.8234    0.8030   -0.3761 C   0  0  1  0  0  0  0  0  0  0  0  0
   -1.8341   -0.2354   -0.5739 C   0  0  0  0  0  0  0  0  0  0  0  0
   -1.6897   -1.1596   -1.4401 O   0  0  0  0  0  0  0  0  0  0  0  0
   -3.0344   -0.2976    0.1677 O   0  0  0  0  0  0  0  0  0  0  0  0
   -1.2981    1.6898    0.6772 N   0  0  0  0  0  0  0  0  0  0  0  0
    2.5060   -0.6532    2.1527 H   0  0  0  0  0  0  0  0  0  0  0  0
    1.1830    1.2283    0.1117 H   0  0  0  0  0  0  0  0  0  0  0  0
    0.6895   -1.5708   -1.0515 H   0  0  0  0  0  0  0  0  0  0  0  0
    1.5326   -0.1885   -1.8749 H   0  0  0  0  0  0  0  0  0  0  0  0
   -0.7484    1.4356   -1.2791 H   0  0  0  0  0  0  0  0  0  0  0  0
   -3.8826   -0.6841   -0.2162 H   0  0  0  0  0  0  0  0  0  0  0  0
   -0.5867    1.8819    1.3950 H   0  0  0  0  0  0  0  0  0  0  0  0
   -2.1470    1.3087    1.1570 H   0  0  0  0  0  0  0  0  0  0  0  0
  1  2  2  0
  2  3  1  0
  3  4  1  0
  4  5  1  0
  5  6  1  0
  5  7  1  0
  7  8  1  0
  8  9  2  0
  8 10  1  0
  7 11  1  0
  6  2  1  0
  3 12  1  0
  5 13  1  1
  6 14  1  0
  6 15  1  0
  7 16  1  6
 10 17  1  0
 11 18  1  0
 11 19  1  0
M  END
>  <Ligand ID>  (1) 
LIG0001204

>  <Ligand>  (1) 
Tricholomic acid

>  <SMILES>  (1) 
O=C1NO[C@@H](C1)[C@@H](C(=O)O)N

>  <CID>  (1) 
441456.0

>  <ChEMBL ID>  (1) 
nan

>  <InChiKey>  (1) 
NTHMUJMQOXQYBR-OKKQSCSOSA-N

>  <InChi>  (1) 
InChI=1S/C5H8N2O4/c6-4(5(9)10)2-1-3(8)7-11-2/h2,4H,1,6H2,(H,7,8)(H,9,10)/t2-,4-/m0/s1

>  <IUPAC Name>  (1) 
(2S)-2-amino-2-[(5S)-3-oxo-1,2-oxazolidin-5-yl]acetic acid

$$$$
