
     RDKit          3D

 24 24  0  0  0  0  0  0  0  0999 V2000
   -0.2617   -1.7495   -1.5702 O   0  0  0  0  0  0  0  0  0  0  0  0
   -0.4865   -1.0947   -0.3605 C   0  0  0  0  0  0  0  0  0  0  0  0
    0.7481   -0.3273   -0.0164 C   0  0  0  0  0  0  0  0  0  0  0  0
    1.3467    0.4047   -1.0255 C   0  0  0  0  0  0  0  0  0  0  0  0
    2.4887    1.1490   -0.8200 C   0  0  0  0  0  0  0  0  0  0  0  0
    3.0401    1.1538    0.4377 C   0  0  0  0  0  0  0  0  0  0  0  0
    2.4516    0.4271    1.4527 C   0  0  0  0  0  0  0  0  0  0  0  0
    1.2966   -0.3263    1.2471 C   0  0  0  0  0  0  0  0  0  0  0  0
   -1.6083   -0.0895   -0.5363 C   0  0  0  0  0  0  0  0  0  0  0  0
   -2.8079   -0.8279   -0.9508 N   0  0  0  0  0  0  0  0  0  0  0  0
   -1.9484    0.6031    0.7456 C   0  0  0  0  0  0  0  0  0  0  0  0
   -0.7032   -2.6284   -1.6104 H   0  0  0  0  0  0  0  0  0  0  0  0
   -0.7356   -1.8638    0.3944 H   0  0  0  0  0  0  0  0  0  0  0  0
    0.8983    0.3934   -2.0241 H   0  0  0  0  0  0  0  0  0  0  0  0
    2.9001    1.6977   -1.6625 H   0  0  0  0  0  0  0  0  0  0  0  0
    3.9322    1.7269    0.6253 H   0  0  0  0  0  0  0  0  0  0  0  0
    2.9188    0.4600    2.4244 H   0  0  0  0  0  0  0  0  0  0  0  0
    0.8315   -0.8978    2.0401 H   0  0  0  0  0  0  0  0  0  0  0  0
   -1.3362    0.5949   -1.3488 H   0  0  0  0  0  0  0  0  0  0  0  0
   -3.3780   -0.1630   -1.5513 H   0  0  0  0  0  0  0  0  0  0  0  0
   -3.3935   -1.0688   -0.1109 H   0  0  0  0  0  0  0  0  0  0  0  0
   -2.5359    1.5164    0.4846 H   0  0  0  0  0  0  0  0  0  0  0  0
   -2.5818   -0.0258    1.3886 H   0  0  0  0  0  0  0  0  0  0  0  0
   -1.0757    0.9357    1.3419 H   0  0  0  0  0  0  0  0  0  0  0  0
  1  2  1  0
  2  3  1  0
  3  4  2  0
  4  5  1  0
  5  6  2  0
  6  7  1  0
  7  8  2  0
  2  9  1  0
  9 10  1  0
  9 11  1  0
  8  3  1  0
  1 12  1  0
  2 13  1  0
  4 14  1  0
  5 15  1  0
  6 16  1  0
  7 17  1  0
  8 18  1  0
  9 19  1  0
 10 20  1  0
 10 21  1  0
 11 22  1  0
 11 23  1  0
 11 24  1  0
M  END
>  <Ligand ID>  (1) 
LIG0001471

>  <Ligand>  (1) 
phenylpropanolamine

>  <SMILES>  (1) 
OC(c1ccccc1)C(N)C

>  <CID>  (1) 
4786.0

>  <ChEMBL ID>  (1) 
nan

>  <InChiKey>  (1) 
DLNKOYKMWOXYQA-UHFFFAOYSA-N

>  <InChi>  (1) 
InChI=1S/C9H13NO/c1-7(10)9(11)8-5-3-2-4-6-8/h2-7,9,11H,10H2,1H3

>  <IUPAC Name>  (1) 
2-amino-1-phenylpropan-1-ol

$$$$
