
     RDKit          3D

 27 28  0  0  0  0  0  0  0  0999 V2000
    3.7423   -0.4450   -0.1837 N   0  0  0  0  0  0  0  0  0  0  0  0
    3.2084    0.8249    0.3356 C   0  0  0  0  0  0  0  0  0  0  0  0
    1.7267    0.8724    0.0063 C   0  0  1  0  0  0  0  0  0  0  0  0
    1.4492    0.8022   -1.4881 C   0  0  0  0  0  0  0  0  0  0  0  0
    1.0936   -0.3227   -0.5976 C   0  0  2  0  0  0  0  0  0  0  0  0
   -0.3615   -0.5986   -0.3454 C   0  0  0  0  0  0  0  0  0  0  0  0
   -0.7352   -1.9149   -0.1741 C   0  0  0  0  0  0  0  0  0  0  0  0
   -2.0529   -2.2232    0.0593 C   0  0  0  0  0  0  0  0  0  0  0  0
   -2.9584   -1.2015    0.1142 C   0  0  0  0  0  0  0  0  0  0  0  0
   -2.5823    0.1217   -0.0581 C   0  0  0  0  0  0  0  0  0  0  0  0
   -1.2472    0.4563   -0.2965 C   0  0  0  0  0  0  0  0  0  0  0  0
   -3.6093    1.2205    0.0092 C   0  0  0  0  0  0  0  0  0  0  0  0
   -4.2711   -1.5148    0.3472 F   0  0  0  0  0  0  0  0  0  0  0  0
    3.8743   -0.3692   -1.2296 H   0  0  0  0  0  0  0  0  0  0  0  0
    4.6535   -0.6950    0.2620 H   0  0  0  0  0  0  0  0  0  0  0  0
    3.4044    0.9152    1.4081 H   0  0  0  0  0  0  0  0  0  0  0  0
    3.7963    1.6039   -0.1892 H   0  0  0  0  0  0  0  0  0  0  0  0
    1.1493    1.5903    0.6048 H   0  0  0  0  0  0  0  0  0  0  0  0
    2.2970    0.6833   -2.1984 H   0  0  0  0  0  0  0  0  0  0  0  0
    0.6818    1.5287   -1.8368 H   0  0  0  0  0  0  0  0  0  0  0  0
    1.7486   -1.2185   -0.6244 H   0  0  0  0  0  0  0  0  0  0  0  0
   -0.0240   -2.7221   -0.2168 H   0  0  0  0  0  0  0  0  0  0  0  0
   -2.3553   -3.2552    0.1951 H   0  0  0  0  0  0  0  0  0  0  0  0
   -0.9368    1.4692   -0.4319 H   0  0  0  0  0  0  0  0  0  0  0  0
   -3.8475    1.5805   -1.0286 H   0  0  0  0  0  0  0  0  0  0  0  0
   -4.5383    0.7775    0.4163 H   0  0  0  0  0  0  0  0  0  0  0  0
   -3.3058    2.0338    0.6676 H   0  0  0  0  0  0  0  0  0  0  0  0
  1  2  1  0
  2  3  1  0
  3  4  1  0
  4  5  1  0
  5  6  1  0
  6  7  2  0
  7  8  1  0
  8  9  2  0
  9 10  1  0
 10 11  2  0
 10 12  1  0
  9 13  1  0
  5  3  1  0
 11  6  1  0
  1 14  1  0
  1 15  1  0
  2 16  1  0
  2 17  1  0
  3 18  1  1
  4 19  1  0
  4 20  1  0
  5 21  1  6
  7 22  1  0
  8 23  1  0
 11 24  1  0
 12 25  1  0
 12 26  1  0
 12 27  1  0
M  END
>  <Ligand ID>  (1) 
LIG0003618

>  <Ligand>  (1) 
CHEMBL474633

>  <SMILES>  (1) 
NC[C@H]1C[C@@H]1c1ccc(c(c1)C)F

>  <CID>  (1) 
44572172.0

>  <ChEMBL ID>  (1) 
nan

>  <InChiKey>  (1) 
XDUONOGZHMPKJK-NXEZZACHSA-N

>  <InChi>  (1) 
InChI=1S/C11H14FN/c1-7-4-8(2-3-11(7)12)10-5-9(10)6-13/h2-4,9-10H,5-6,13H2,1H3/t9-,10-/m1/s1

>  <IUPAC Name>  (1) 
[(1S,2S)-2-(4-fluoro-3-methylphenyl)cyclopropyl]methanamine

$$$$
