
     RDKit          3D

 52 54  0  0  0  0  0  0  0  0999 V2000
   -1.3571   -3.8950    0.8598 O   0  0  0  0  0  0  0  0  0  0  0  0
   -0.5895   -3.3090    0.0601 C   0  0  0  0  0  0  0  0  0  0  0  0
    0.4616   -3.8725   -0.8414 C   0  0  0  0  0  0  0  0  0  0  0  0
    1.5536   -2.8069   -0.6235 C   0  0  0  0  0  0  0  0  0  0  0  0
    0.8601   -1.4953   -0.3921 C   0  0  1  0  0  0  0  0  0  0  0  0
   -0.5487   -1.9114   -0.1759 N   0  0  0  0  0  0  0  0  0  0  0  0
   -1.6790   -1.0155   -0.1994 C   0  0  0  0  0  0  0  0  0  0  0  0
   -2.9594   -1.4509    0.0613 C   0  0  0  0  0  0  0  0  0  0  0  0
   -4.0591   -0.6154    0.0386 C   0  0  0  0  0  0  0  0  0  0  0  0
   -3.8815    0.7261   -0.2588 C   0  0  0  0  0  0  0  0  0  0  0  0
   -2.6121    1.1979   -0.5256 C   0  0  0  0  0  0  0  0  0  0  0  0
   -1.5224    0.3218   -0.4933 C   0  0  0  0  0  0  0  0  0  0  0  0
   -5.0910    1.5893   -0.2727 C   0  0  0  0  0  0  0  0  0  0  0  0
   -4.7565    3.0234   -0.6061 C   0  0  0  0  0  0  0  0  0  0  0  0
   -5.7093    1.5727    1.1076 C   0  0  0  0  0  0  0  0  0  0  0  0
   -6.0950    1.0198   -1.2522 C   0  0  0  0  0  0  0  0  0  0  0  0
    1.3787   -0.8038    0.8257 C   0  0  0  0  0  0  0  0  0  0  0  0
    2.6279   -0.3153    0.7055 O   0  0  0  0  0  0  0  0  0  0  0  0
    3.7063   -1.0758    0.4589 C   0  0  0  0  0  0  0  0  0  0  0  0
    4.8900   -0.1263    0.4373 C   0  0  0  0  0  0  0  0  0  0  0  0
    5.6760    0.2300    1.5622 C   0  0  0  0  0  0  0  0  0  0  0  0
    6.6741    1.0857    1.3116 C   0  0  0  0  0  0  0  0  0  0  0  0
    6.8733    1.5433    0.0664 C   0  0  0  0  0  0  0  0  0  0  0  0
    5.5674    0.7360   -0.9056 S   0  0  0  0  0  0  0  0  0  0  0  0
    7.8363    2.4501   -0.5141 C   0  0  0  0  0  0  0  0  0  0  0  0
    7.8139    2.7265   -1.7396 O   0  0  0  0  0  0  0  0  0  0  0  0
    8.7868    3.0058    0.3265 O   0  0  0  0  0  0  0  0  0  0  0  0
    0.1358   -3.8882   -1.8864 H   0  0  0  0  0  0  0  0  0  0  0  0
    0.7783   -4.8280   -0.4169 H   0  0  0  0  0  0  0  0  0  0  0  0
    2.1084   -2.8239   -1.6053 H   0  0  0  0  0  0  0  0  0  0  0  0
    2.2135   -3.1251    0.1822 H   0  0  0  0  0  0  0  0  0  0  0  0
    0.8432   -0.8507   -1.2912 H   0  0  0  0  0  0  0  0  0  0  0  0
   -3.1321   -2.4892    0.2961 H   0  0  0  0  0  0  0  0  0  0  0  0
   -5.0448   -1.0391    0.2574 H   0  0  0  0  0  0  0  0  0  0  0  0
   -2.4619    2.2259   -0.7555 H   0  0  0  0  0  0  0  0  0  0  0  0
   -0.5623    0.7587   -0.7159 H   0  0  0  0  0  0  0  0  0  0  0  0
   -3.9348    3.4264   -0.0196 H   0  0  0  0  0  0  0  0  0  0  0  0
   -4.4390    3.0213   -1.6700 H   0  0  0  0  0  0  0  0  0  0  0  0
   -5.6405    3.6630   -0.5233 H   0  0  0  0  0  0  0  0  0  0  0  0
   -6.5479    2.3205    1.0865 H   0  0  0  0  0  0  0  0  0  0  0  0
   -6.1011    0.5478    1.3041 H   0  0  0  0  0  0  0  0  0  0  0  0
   -5.0044    1.9069    1.8857 H   0  0  0  0  0  0  0  0  0  0  0  0
   -5.9946   -0.0739   -1.2680 H   0  0  0  0  0  0  0  0  0  0  0  0
   -5.8504    1.4357   -2.2570 H   0  0  0  0  0  0  0  0  0  0  0  0
   -7.1277    1.2879   -0.9497 H   0  0  0  0  0  0  0  0  0  0  0  0
    1.3321   -1.5552    1.6889 H   0  0  0  0  0  0  0  0  0  0  0  0
    0.7050    0.0292    1.1526 H   0  0  0  0  0  0  0  0  0  0  0  0
    3.7231   -1.4975   -0.5749 H   0  0  0  0  0  0  0  0  0  0  0  0
    3.8910   -1.8603    1.2317 H   0  0  0  0  0  0  0  0  0  0  0  0
    5.4183   -0.2095    2.5376 H   0  0  0  0  0  0  0  0  0  0  0  0
    7.3524    1.4256    2.1471 H   0  0  0  0  0  0  0  0  0  0  0  0
    9.4947    3.6563    0.0116 H   0  0  0  0  0  0  0  0  0  0  0  0
  1  2  2  0
  2  3  1  0
  3  4  1  0
  4  5  1  0
  5  6  1  0
  6  7  1  0
  7  8  2  0
  8  9  1  0
  9 10  2  0
 10 11  1  0
 11 12  2  0
 10 13  1  0
 13 14  1  0
 13 15  1  0
 13 16  1  0
  5 17  1  0
 17 18  1  0
 18 19  1  0
 19 20  1  0
 20 21  2  0
 21 22  1  0
 22 23  2  0
 23 24  1  0
 23 25  1  0
 25 26  2  0
 25 27  1  0
  6  2  1  0
 12  7  1  0
 24 20  1  0
  3 28  1  0
  3 29  1  0
  4 30  1  0
  4 31  1  0
  5 32  1  6
  8 33  1  0
  9 34  1  0
 11 35  1  0
 12 36  1  0
 14 37  1  0
 14 38  1  0
 14 39  1  0
 15 40  1  0
 15 41  1  0
 15 42  1  0
 16 43  1  0
 16 44  1  0
 16 45  1  0
 17 46  1  0
 17 47  1  0
 19 48  1  0
 19 49  1  0
 21 50  1  0
 22 51  1  0
 27 52  1  0
M  END
>  <Ligand ID>  (1) 
LIG0000684

>  <Ligand>  (1) 
SCHEMBL1309617

>  <SMILES>  (1) 
O=C1CC[C@@H](N1c1ccc(cc1)C(C)(C)C)COCc1ccc(s1)C(=O)O

>  <CID>  (1) 
11855325.0

>  <ChEMBL ID>  (1) 
nan

>  <InChiKey>  (1) 
BKVIUNNZVOCFGC-MRXNPFEDSA-N

>  <InChi>  (1) 
InChI=1S/C21H25NO4S/c1-21(2,3)14-4-6-15(7-5-14)22-16(8-11-19(22)23)12-26-13-17-9-10-18(27-17)20(24)25/h4-7,9-10,16H,8,11-13H2,1-3H3,(H,24,25)/t16-/m1/s1

>  <IUPAC Name>  (1) 
5-[[(2R)-1-(4-tert-butylphenyl)-5-oxopyrrolidin-2-yl]methoxymethyl]thiophene-2-carboxylic acid

$$$$
