
     RDKit          3D

 43 42  0  0  0  0  0  0  0  0999 V2000
   -5.5294    0.7677    1.2192 O   0  0  0  0  0  0  0  0  0  0  0  0
   -5.6076    0.4163    0.0583 C   0  0  0  0  0  0  0  0  0  0  0  0
   -4.4657    0.3014   -0.8709 C   0  0  0  0  0  0  0  0  0  0  0  0
   -3.7534   -1.0263   -0.6728 C   0  0  0  0  0  0  0  0  0  0  0  0
   -3.2408   -1.1261    0.6952 C   0  0  0  0  0  0  0  0  0  0  0  0
   -2.3115   -0.1689    1.2874 C   0  0  0  0  0  0  0  0  0  0  0  0
   -0.9778   -0.0129    0.6817 C   0  0  0  0  0  0  0  0  0  0  0  0
   -0.9073    0.5337   -0.6929 C   0  0  0  0  0  0  0  0  0  0  0  0
    0.5468    0.6764   -1.1935 C   0  0  0  0  0  0  0  0  0  0  0  0
    1.2726   -0.6292   -1.2407 C   0  0  0  0  0  0  0  0  0  0  0  0
    2.6490   -0.3980   -1.7401 C   0  0  0  0  0  0  0  0  0  0  0  0
    3.5793    0.4461   -0.9785 C   0  0  0  0  0  0  0  0  0  0  0  0
    4.0150   -0.0421    0.3571 C   0  0  0  0  0  0  0  0  0  0  0  0
    2.9398   -0.2362    1.3408 C   0  0  0  0  0  0  0  0  0  0  0  0
    5.0422    0.9782    0.8658 C   0  0  0  0  0  0  0  0  0  0  0  0
   -6.6190    0.1687   -0.3094 H   0  0  0  0  0  0  0  0  0  0  0  0
   -4.7766    0.3776   -1.9375 H   0  0  0  0  0  0  0  0  0  0  0  0
   -3.7179    1.1038   -0.7262 H   0  0  0  0  0  0  0  0  0  0  0  0
   -3.1473   -1.2625   -1.5253 H   0  0  0  0  0  0  0  0  0  0  0  0
   -4.5779   -1.8514   -0.7246 H   0  0  0  0  0  0  0  0  0  0  0  0
   -4.1691   -1.1180    1.3875 H   0  0  0  0  0  0  0  0  0  0  0  0
   -2.8865   -2.2144    0.9004 H   0  0  0  0  0  0  0  0  0  0  0  0
   -2.7957    0.8617    1.2844 H   0  0  0  0  0  0  0  0  0  0  0  0
   -2.1553   -0.3639    2.4001 H   0  0  0  0  0  0  0  0  0  0  0  0
   -0.3371    0.6304    1.3874 H   0  0  0  0  0  0  0  0  0  0  0  0
   -0.4612   -1.0218    0.6749 H   0  0  0  0  0  0  0  0  0  0  0  0
   -1.3108    1.5992   -0.6906 H   0  0  0  0  0  0  0  0  0  0  0  0
   -1.4730    0.0367   -1.4766 H   0  0  0  0  0  0  0  0  0  0  0  0
    1.0321    1.4001   -0.5571 H   0  0  0  0  0  0  0  0  0  0  0  0
    0.4607    1.0359   -2.2666 H   0  0  0  0  0  0  0  0  0  0  0  0
    1.2206   -1.2514   -0.3489 H   0  0  0  0  0  0  0  0  0  0  0  0
    0.6955   -1.2382   -2.0266 H   0  0  0  0  0  0  0  0  0  0  0  0
    2.5225    0.1012   -2.7590 H   0  0  0  0  0  0  0  0  0  0  0  0
    3.1561   -1.3966   -1.9648 H   0  0  0  0  0  0  0  0  0  0  0  0
    4.5157    0.6962   -1.5911 H   0  0  0  0  0  0  0  0  0  0  0  0
    3.1668    1.4886   -0.7959 H   0  0  0  0  0  0  0  0  0  0  0  0
    4.5566   -1.0273    0.1857 H   0  0  0  0  0  0  0  0  0  0  0  0
    2.7135   -1.3439    1.4277 H   0  0  0  0  0  0  0  0  0  0  0  0
    2.0138    0.3074    1.2350 H   0  0  0  0  0  0  0  0  0  0  0  0
    3.3102    0.0651    2.3864 H   0  0  0  0  0  0  0  0  0  0  0  0
    4.8952    1.9771    0.3990 H   0  0  0  0  0  0  0  0  0  0  0  0
    4.8548    1.1185    1.9465 H   0  0  0  0  0  0  0  0  0  0  0  0
    6.0619    0.6413    0.6620 H   0  0  0  0  0  0  0  0  0  0  0  0
  1  2  2  0
  2  3  1  0
  3  4  1  0
  4  5  1  0
  5  6  1  0
  6  7  1  0
  7  8  1  0
  8  9  1  0
  9 10  1  0
 10 11  1  0
 11 12  1  0
 12 13  1  0
 13 14  1  0
 13 15  1  0
  2 16  1  0
  3 17  1  0
  3 18  1  0
  4 19  1  0
  4 20  1  0
  5 21  1  0
  5 22  1  0
  6 23  1  0
  6 24  1  0
  7 25  1  0
  7 26  1  0
  8 27  1  0
  8 28  1  0
  9 29  1  0
  9 30  1  0
 10 31  1  0
 10 32  1  0
 11 33  1  0
 11 34  1  0
 12 35  1  0
 12 36  1  0
 13 37  1  0
 14 38  1  0
 14 39  1  0
 14 40  1  0
 15 41  1  0
 15 42  1  0
 15 43  1  0
M  END
>  <Ligand ID>  (1) 
LIG0000641

>  <Ligand>  (1) 
12-Methyltridecanal

>  <SMILES>  (1) 
O=CCCCCCCCCCCC(C)C

>  <CID>  (1) 
3018619.0

>  <ChEMBL ID>  (1) 
nan

>  <InChiKey>  (1) 
OQWNKUAZQSLNSR-UHFFFAOYSA-N

>  <InChi>  (1) 
InChI=1S/C14H28O/c1-14(2)12-10-8-6-4-3-5-7-9-11-13-15/h13-14H,3-12H2,1-2H3

>  <IUPAC Name>  (1) 
12-methyltridecanal

$$$$
