
     RDKit          3D

 32 31  0  0  0  0  0  0  0  0999 V2000
   -3.6608   -0.5580    1.5871 C   0  0  0  0  0  0  0  0  0  0  0  0
   -4.1719   -0.1169    0.2389 C   0  0  0  0  0  0  0  0  0  0  0  0
   -3.2126    0.8627   -0.4453 C   0  0  0  0  0  0  0  0  0  0  0  0
   -1.9159    0.0895   -0.5882 C   0  0  0  0  0  0  0  0  0  0  0  0
   -0.8332    0.8672   -1.2384 C   0  0  0  0  0  0  0  0  0  0  0  0
    0.4084   -0.0028   -1.3385 C   0  0  0  0  0  0  0  0  0  0  0  0
    0.9183   -0.4606   -0.0423 C   0  0  0  0  0  0  0  0  0  0  0  0
    2.0959   -0.2253    0.4801 C   0  0  0  0  0  0  0  0  0  0  0  0
    3.1918    0.5637   -0.1234 C   0  0  0  0  0  0  0  0  0  0  0  0
    4.4611   -0.2235   -0.3385 C   0  0  0  0  0  0  0  0  0  0  0  0
    4.9937   -0.7304    0.9304 C   0  0  0  0  0  0  0  0  0  0  0  0
    4.5272   -0.5453    2.0352 O   0  0  0  0  0  0  0  0  0  0  0  0
   -4.5329   -1.0342    2.0970 H   0  0  0  0  0  0  0  0  0  0  0  0
   -3.3419    0.3312    2.1582 H   0  0  0  0  0  0  0  0  0  0  0  0
   -2.8949   -1.3401    1.5251 H   0  0  0  0  0  0  0  0  0  0  0  0
   -4.2392   -1.0071   -0.4180 H   0  0  0  0  0  0  0  0  0  0  0  0
   -5.1742    0.3185    0.3249 H   0  0  0  0  0  0  0  0  0  0  0  0
   -3.1342    1.7756    0.1439 H   0  0  0  0  0  0  0  0  0  0  0  0
   -3.6558    1.0763   -1.4333 H   0  0  0  0  0  0  0  0  0  0  0  0
   -1.5735   -0.2211    0.4317 H   0  0  0  0  0  0  0  0  0  0  0  0
   -2.1359   -0.7876   -1.2269 H   0  0  0  0  0  0  0  0  0  0  0  0
   -0.5526    1.7949   -0.6849 H   0  0  0  0  0  0  0  0  0  0  0  0
   -1.1631    1.1864   -2.2373 H   0  0  0  0  0  0  0  0  0  0  0  0
    1.1612    0.5863   -1.8793 H   0  0  0  0  0  0  0  0  0  0  0  0
    0.1564   -0.9526   -1.9102 H   0  0  0  0  0  0  0  0  0  0  0  0
    0.2341   -1.0784    0.5616 H   0  0  0  0  0  0  0  0  0  0  0  0
    2.3034   -0.6533    1.4742 H   0  0  0  0  0  0  0  0  0  0  0  0
    3.4189    1.3730    0.6369 H   0  0  0  0  0  0  0  0  0  0  0  0
    2.9145    1.0306   -1.0795 H   0  0  0  0  0  0  0  0  0  0  0  0
    4.3001   -1.0335   -1.0975 H   0  0  0  0  0  0  0  0  0  0  0  0
    5.2030    0.4543   -0.8142 H   0  0  0  0  0  0  0  0  0  0  0  0
    5.9049   -1.3393    0.8901 H   0  0  0  0  0  0  0  0  0  0  0  0
  1  2  1  0
  2  3  1  0
  3  4  1  0
  4  5  1  0
  5  6  1  0
  6  7  1  0
  7  8  2  0
  8  9  1  0
  9 10  1  0
 10 11  1  0
 11 12  2  0
  1 13  1  0
  1 14  1  0
  1 15  1  0
  2 16  1  0
  2 17  1  0
  3 18  1  0
  3 19  1  0
  4 20  1  0
  4 21  1  0
  5 22  1  0
  5 23  1  0
  6 24  1  0
  6 25  1  0
  7 26  1  0
  8 27  1  0
  9 28  1  0
  9 29  1  0
 10 30  1  0
 10 31  1  0
 11 32  1  0
M  END
>  <Ligand ID>  (1) 
LIG0000005

>  <Ligand>  (1) 
(Z)-4-undecenal

>  <SMILES>  (1) 
CCCCCC/C=C\CCC=O

>  <CID>  (1) 
5362881.0

>  <ChEMBL ID>  (1) 
nan

>  <InChiKey>  (1) 
QGNDNDFXCNBMKI-FPLPWBNLSA-N

>  <InChi>  (1) 
InChI=1S/C11H20O/c1-2-3-4-5-6-7-8-9-10-11-12/h7-8,11H,2-6,9-10H2,1H3/b8-7-

>  <IUPAC Name>  (1) 
(Z)-undec-4-enal

$$$$
