
     RDKit          3D

 82 87  0  0  0  0  0  0  0  0999 V2000
   -2.2682   -6.0432    1.4566 Cl  0  0  0  0  0  0  0  0  0  0  0  0
   -0.9933   -4.8629    1.7501 C   0  0  0  0  0  0  0  0  0  0  0  0
    0.2350   -5.0409    1.1328 C   0  0  0  0  0  0  0  0  0  0  0  0
    1.2366   -4.1198    1.3618 C   0  0  0  0  0  0  0  0  0  0  0  0
    1.0499   -3.0208    2.1913 C   0  0  0  0  0  0  0  0  0  0  0  0
   -0.1908   -2.8489    2.8092 C   0  0  0  0  0  0  0  0  0  0  0  0
   -1.2045   -3.7668    2.5877 C   0  0  0  0  0  0  0  0  0  0  0  0
    2.1407   -2.0885    2.4334 C   0  0  0  0  0  0  0  0  0  0  0  0
    2.2715   -0.9634    1.4166 C   0  0  1  0  0  0  0  0  0  0  0  0
    1.1019   -0.1044    1.3075 C   0  0  0  0  0  0  0  0  0  0  0  0
    1.1467    1.0121    1.9375 O   0  0  0  0  0  0  0  0  0  0  0  0
   -0.0847   -0.3452    0.5884 N   0  0  0  0  0  0  0  0  0  0  0  0
   -1.1433    0.6655    0.6660 C   0  0  0  0  0  0  0  0  0  0  0  0
   -2.3676    0.0646    0.0630 C   0  0  0  0  0  0  0  0  0  0  0  0
   -2.2250   -0.2901   -1.4060 C   0  0  0  0  0  0  0  0  0  0  0  0
   -0.8462   -0.9131   -1.5793 C   0  0  0  0  0  0  0  0  0  0  0  0
   -0.3498   -1.4836   -0.2552 C   0  0  0  0  0  0  0  0  0  0  0  0
   -2.2680    0.9279   -2.2657 C   0  0  0  0  0  0  0  0  0  0  0  0
   -3.5040    1.7202   -2.1718 C   0  0  0  0  0  0  0  0  0  0  0  0
   -4.5994    1.4767   -3.0107 C   0  0  0  0  0  0  0  0  0  0  0  0
   -5.7512    2.2543   -2.8847 C   0  0  0  0  0  0  0  0  0  0  0  0
   -5.7924    3.2541   -1.9322 C   0  0  0  0  0  0  0  0  0  0  0  0
   -4.7289    3.5178   -1.0910 C   0  0  0  0  0  0  0  0  0  0  0  0
   -3.5944    2.7433   -1.2236 C   0  0  0  0  0  0  0  0  0  0  0  0
   -3.2328   -1.3355   -1.7011 C   0  0  0  0  0  0  0  0  0  0  0  0
   -3.2638   -1.8287   -3.0928 C   0  0  0  0  0  0  0  0  0  0  0  0
   -2.4935   -1.4497   -4.1262 N   0  0  0  0  0  0  0  0  0  0  0  0
   -2.8726   -2.1533   -5.1737 N   0  0  0  0  0  0  0  0  0  0  0  0
   -3.8554   -2.9477   -4.7946 N   0  0  0  0  0  0  0  0  0  0  0  0
   -4.1190   -2.7725   -3.5206 N   0  0  0  0  0  0  0  0  0  0  0  0
   -5.1477   -3.4919   -2.7915 C   0  0  0  0  0  0  0  0  0  0  0  0
    3.3204   -0.1026    2.0523 N   0  0  0  0  0  0  0  0  0  0  0  0
    4.5800   -0.0023    1.4393 C   0  0  0  0  0  0  0  0  0  0  0  0
    4.7982   -0.6345    0.3750 O   0  0  0  0  0  0  0  0  0  0  0  0
    5.7094    0.8164    1.9662 C   0  0  2  0  0  0  0  0  0  0  0  0
    5.3337    1.4573    3.1548 N   0  0  0  0  0  0  0  0  0  0  0  0
    5.1579    2.8587    3.1882 C   0  0  0  0  0  0  0  0  0  0  0  0
    4.5980    3.3432    1.9040 C   0  0  0  0  0  0  0  0  0  0  0  0
    5.0472    2.8171    0.6868 C   0  0  0  0  0  0  0  0  0  0  0  0
    6.0903    1.7529    0.8250 C   0  0  0  0  0  0  0  0  0  0  0  0
    4.5784    3.2247   -0.5223 C   0  0  0  0  0  0  0  0  0  0  0  0
    3.6095    4.2065   -0.5607 C   0  0  0  0  0  0  0  0  0  0  0  0
    3.1235    4.7664    0.6049 C   0  0  0  0  0  0  0  0  0  0  0  0
    3.6286    4.3231    1.8165 C   0  0  0  0  0  0  0  0  0  0  0  0
    0.4496   -5.8735    0.4726 H   0  0  0  0  0  0  0  0  0  0  0  0
    2.2249   -4.2192    0.8943 H   0  0  0  0  0  0  0  0  0  0  0  0
   -0.3692   -2.0029    3.4622 H   0  0  0  0  0  0  0  0  0  0  0  0
   -2.1803   -3.6972    3.0293 H   0  0  0  0  0  0  0  0  0  0  0  0
    2.0717   -1.6677    3.4710 H   0  0  0  0  0  0  0  0  0  0  0  0
    3.1009   -2.6833    2.4549 H   0  0  0  0  0  0  0  0  0  0  0  0
    2.6407   -1.3827    0.4807 H   0  0  0  0  0  0  0  0  0  0  0  0
   -1.3294    0.8677    1.7189 H   0  0  0  0  0  0  0  0  0  0  0  0
   -0.8300    1.6032    0.1667 H   0  0  0  0  0  0  0  0  0  0  0  0
   -2.5959   -0.8734    0.6286 H   0  0  0  0  0  0  0  0  0  0  0  0
   -3.2080    0.7554    0.2636 H   0  0  0  0  0  0  0  0  0  0  0  0
   -0.8673   -1.7195   -2.3378 H   0  0  0  0  0  0  0  0  0  0  0  0
   -0.0950   -0.1747   -1.9079 H   0  0  0  0  0  0  0  0  0  0  0  0
    0.5707   -2.0383   -0.5125 H   0  0  0  0  0  0  0  0  0  0  0  0
   -1.0741   -2.2033    0.1618 H   0  0  0  0  0  0  0  0  0  0  0  0
   -1.4333    1.5916   -1.8886 H   0  0  0  0  0  0  0  0  0  0  0  0
   -1.9694    0.7121   -3.3112 H   0  0  0  0  0  0  0  0  0  0  0  0
   -4.5530    0.6791   -3.7637 H   0  0  0  0  0  0  0  0  0  0  0  0
   -6.6170    2.0661   -3.5398 H   0  0  0  0  0  0  0  0  0  0  0  0
   -6.7040    3.8602   -1.8414 H   0  0  0  0  0  0  0  0  0  0  0  0
   -4.8391    4.3161   -0.3746 H   0  0  0  0  0  0  0  0  0  0  0  0
   -2.7779    2.9713   -0.5508 H   0  0  0  0  0  0  0  0  0  0  0  0
   -3.0545   -2.2261   -1.0626 H   0  0  0  0  0  0  0  0  0  0  0  0
   -4.2672   -1.0016   -1.3950 H   0  0  0  0  0  0  0  0  0  0  0  0
   -6.0453   -3.5287   -3.4260 H   0  0  0  0  0  0  0  0  0  0  0  0
   -4.8541   -4.5524   -2.6162 H   0  0  0  0  0  0  0  0  0  0  0  0
   -5.3437   -3.0523   -1.7892 H   0  0  0  0  0  0  0  0  0  0  0  0
    3.0989    0.3959    2.9171 H   0  0  0  0  0  0  0  0  0  0  0  0
    6.5887    0.1265    2.1297 H   0  0  0  0  0  0  0  0  0  0  0  0
    4.7944    0.9431    3.8349 H   0  0  0  0  0  0  0  0  0  0  0  0
    4.4481    3.0876    4.0341 H   0  0  0  0  0  0  0  0  0  0  0  0
    6.1426    3.3529    3.3989 H   0  0  0  0  0  0  0  0  0  0  0  0
    6.1202    1.2084   -0.1282 H   0  0  0  0  0  0  0  0  0  0  0  0
    7.0933    2.1578    1.0251 H   0  0  0  0  0  0  0  0  0  0  0  0
    4.9518    2.7902   -1.4504 H   0  0  0  0  0  0  0  0  0  0  0  0
    3.2449    4.5213   -1.5345 H   0  0  0  0  0  0  0  0  0  0  0  0
    2.3597    5.5355    0.5357 H   0  0  0  0  0  0  0  0  0  0  0  0
    3.2457    4.7625    2.7395 H   0  0  0  0  0  0  0  0  0  0  0  0
  1  2  1  0
  2  3  2  0
  3  4  1  0
  4  5  2  0
  5  6  1  0
  6  7  2  0
  5  8  1  0
  8  9  1  0
  9 10  1  0
 10 11  2  0
 10 12  1  0
 12 13  1  0
 13 14  1  0
 14 15  1  0
 15 16  1  0
 16 17  1  0
 15 18  1  0
 18 19  1  0
 19 20  2  0
 20 21  1  0
 21 22  2  0
 22 23  1  0
 23 24  2  0
 15 25  1  0
 25 26  1  0
 26 27  2  0
 27 28  1  0
 28 29  2  0
 29 30  1  0
 30 31  1  0
  9 32  1  0
 32 33  1  0
 33 34  2  0
 33 35  1  0
 35 36  1  0
 36 37  1  0
 37 38  1  0
 38 39  2  0
 39 40  1  0
 39 41  1  0
 41 42  2  0
 42 43  1  0
 43 44  2  0
  7  2  1  0
 17 12  1  0
 24 19  1  0
 30 26  1  0
 40 35  1  0
 44 38  1  0
  3 45  1  0
  4 46  1  0
  6 47  1  0
  7 48  1  0
  8 49  1  0
  8 50  1  0
  9 51  1  6
 13 52  1  0
 13 53  1  0
 14 54  1  0
 14 55  1  0
 16 56  1  0
 16 57  1  0
 17 58  1  0
 17 59  1  0
 18 60  1  0
 18 61  1  0
 20 62  1  0
 21 63  1  0
 22 64  1  0
 23 65  1  0
 24 66  1  0
 25 67  1  0
 25 68  1  0
 31 69  1  0
 31 70  1  0
 31 71  1  0
 32 72  1  0
 35 73  1  1
 36 74  1  0
 37 75  1  0
 37 76  1  0
 40 77  1  0
 40 78  1  0
 41 79  1  0
 42 80  1  0
 43 81  1  0
 44 82  1  0
M  END
>  <Ligand ID>  (1) 
LIG0004567

>  <Ligand>  (1) 
CHEMBL398487

>  <SMILES>  (1) 
Clc1ccc(cc1)C[C@@H](C(=O)N1CCC(CC1)(Cc1ccccc1)Cc1nnnn1C)NC(=O)[C@@H]1NCc2c(C1)cccc2

>  <CID>  (1) 
44441646.0

>  <ChEMBL ID>  (1) 
nan

>  <InChiKey>  (1) 
RHHUKGGTCWPXCS-IHLOFXLRSA-N

>  <InChi>  (1) 
InChI=1S/C34H38ClN7O2/c1-41-31(38-39-40-41)22-34(21-25-7-3-2-4-8-25)15-17-42(18-16-34)33(44)30(19-24-11-13-28(35)14-12-24)37-32(43)29-20-26-9-5-6-10-27(26)23-36-29/h2-14,29-30,36H,15-23H2,1H3,(H,37,43)/t29-,30+/m1/s1

>  <IUPAC Name>  (1) 
(3R)-N-[(2S)-1-[4-benzyl-4-[(1-methyltetrazol-5-yl)methyl]piperidin-1-yl]-3-(4-chlorophenyl)-1-oxopropan-2-yl]-1,2,3,4-tetrahydroisoquinoline-3-carboxamide

$$$$
