
     RDKit          3D

 97100  0  0  0  0  0  0  0  0999 V2000
   -9.4339    2.2462   -5.7185 C   0  0  0  0  0  0  0  0  0  0  0  0
   -8.0633    1.1499   -5.2362 S   0  0  0  0  0  0  0  0  0  0  0  0
   -7.7458    1.3749   -3.4816 C   0  0  0  0  0  0  0  0  0  0  0  0
   -6.6381    0.4930   -2.9862 C   0  0  0  0  0  0  0  0  0  0  0  0
   -6.0988   -0.2364   -3.8513 O   0  0  0  0  0  0  0  0  0  0  0  0
   -6.3115    0.5599   -1.6279 N   0  0  0  0  0  0  0  0  0  0  0  0
   -5.3083   -0.1968   -0.9326 C   0  0  2  0  0  0  0  0  0  0  0  0
   -4.0461    0.5039   -0.8526 C   0  0  0  0  0  0  0  0  0  0  0  0
   -3.9056    1.5916   -1.5137 O   0  0  0  0  0  0  0  0  0  0  0  0
   -2.9216    0.0836   -0.0859 N   0  0  0  0  0  0  0  0  0  0  0  0
   -1.7373    0.9127   -0.1500 C   0  0  2  0  0  0  0  0  0  0  0  0
   -0.5096    0.2032    0.1678 C   0  0  0  0  0  0  0  0  0  0  0  0
   -0.6121   -0.9472    0.6858 O   0  0  0  0  0  0  0  0  0  0  0  0
    0.8128    0.6885   -0.0514 N   0  0  0  0  0  0  0  0  0  0  0  0
    1.9115   -0.1493    0.3618 C   0  0  2  0  0  0  0  0  0  0  0  0
    2.9363    0.6840    1.0234 C   0  0  0  0  0  0  0  0  0  0  0  0
    3.9199    0.1584    1.6658 O   0  0  0  0  0  0  0  0  0  0  0  0
    2.9365    2.0998    1.0129 N   0  0  0  0  0  0  0  0  0  0  0  0
    3.9317    2.9327    1.6621 C   0  0  2  0  0  0  0  0  0  0  0  0
    3.2375    3.9687    2.4424 C   0  0  0  0  0  0  0  0  0  0  0  0
    3.8021    4.8426    3.1432 O   0  0  0  0  0  0  0  0  0  0  0  0
    1.7912    4.0279    2.4342 N   0  0  0  0  0  0  0  0  0  0  0  0
    4.8827    3.5299    0.6230 C   0  0  0  0  0  0  0  0  0  0  0  0
    5.5404    2.3455   -0.0301 C   0  0  0  0  0  0  0  0  0  0  0  0
    5.2803    1.7496   -1.2363 C   0  0  0  0  0  0  0  0  0  0  0  0
    6.1366    0.6975   -1.3415 N   0  0  0  0  0  0  0  0  0  0  0  0
    6.9138    0.6424   -0.2216 C   0  0  0  0  0  0  0  0  0  0  0  0
    6.5734    1.6596    0.6265 C   0  0  0  0  0  0  0  0  0  0  0  0
    7.1959    1.8656    1.8605 C   0  0  0  0  0  0  0  0  0  0  0  0
    8.2166    1.0054    2.2710 C   0  0  0  0  0  0  0  0  0  0  0  0
    8.5565   -0.0148    1.4192 C   0  0  0  0  0  0  0  0  0  0  0  0
    7.9318   -0.2144    0.1895 C   0  0  0  0  0  0  0  0  0  0  0  0
    2.4652   -0.9829   -0.7524 C   0  0  0  0  0  0  0  0  0  0  0  0
    3.5894   -1.8388   -0.2303 C   0  0  0  0  0  0  0  0  0  0  0  0
    4.1333   -2.7596   -1.3190 C   0  0  0  0  0  0  0  0  0  0  0  0
    5.1964   -3.5372   -0.6992 N   0  0  0  0  0  0  0  0  0  0  0  0
    4.9532   -4.7779   -0.4619 C   0  0  0  0  0  0  0  0  0  0  0  0
    5.9532   -5.5912    0.1438 N   0  0  0  0  0  0  0  0  0  0  0  0
    3.7192   -5.4175   -0.7699 N   0  0  0  0  0  0  0  0  0  0  0  0
   -1.9157    1.9157    1.0438 C   0  0  0  0  0  0  0  0  0  0  0  0
   -1.9991    1.1270    2.3196 C   0  0  0  0  0  0  0  0  0  0  0  0
   -0.8463    0.8642    3.0584 C   0  0  0  0  0  0  0  0  0  0  0  0
   -0.9127    0.1333    4.2331 C   0  0  0  0  0  0  0  0  0  0  0  0
   -2.1540   -0.3408    4.6717 C   0  0  0  0  0  0  0  0  0  0  0  0
   -3.3053   -0.0927    3.9573 C   0  0  0  0  0  0  0  0  0  0  0  0
   -3.2248    0.6456    2.7751 C   0  0  0  0  0  0  0  0  0  0  0  0
   -5.1390   -1.6265   -1.5120 C   0  0  0  0  0  0  0  0  0  0  0  0
   -6.4043   -2.3538   -1.3341 C   0  0  0  0  0  0  0  0  0  0  0  0
   -7.5104   -2.5396   -2.0905 C   0  0  0  0  0  0  0  0  0  0  0  0
   -8.3939   -3.3390   -1.4346 N   0  0  0  0  0  0  0  0  0  0  0  0
   -7.8343   -3.6657   -0.2362 C   0  0  0  0  0  0  0  0  0  0  0  0
   -6.6418   -3.0706   -0.1848 N   0  0  0  0  0  0  0  0  0  0  0  0
  -10.4069    1.8744   -5.2806 H   0  0  0  0  0  0  0  0  0  0  0  0
   -9.2074    3.2578   -5.3184 H   0  0  0  0  0  0  0  0  0  0  0  0
   -9.5263    2.3684   -6.8139 H   0  0  0  0  0  0  0  0  0  0  0  0
   -8.6802    1.2248   -2.9176 H   0  0  0  0  0  0  0  0  0  0  0  0
   -7.4378    2.4405   -3.3113 H   0  0  0  0  0  0  0  0  0  0  0  0
   -6.8656    1.2529   -1.0291 H   0  0  0  0  0  0  0  0  0  0  0  0
   -5.7960   -0.4697    0.0634 H   0  0  0  0  0  0  0  0  0  0  0  0
   -2.9999   -0.7913    0.4759 H   0  0  0  0  0  0  0  0  0  0  0  0
   -1.7129    1.5422   -1.0186 H   0  0  0  0  0  0  0  0  0  0  0  0
    0.8893    1.6152   -0.5090 H   0  0  0  0  0  0  0  0  0  0  0  0
    1.5171   -0.8815    1.1010 H   0  0  0  0  0  0  0  0  0  0  0  0
    2.1772    2.6469    0.5095 H   0  0  0  0  0  0  0  0  0  0  0  0
    4.5688    2.3318    2.3619 H   0  0  0  0  0  0  0  0  0  0  0  0
    1.2772    4.6755    1.8091 H   0  0  0  0  0  0  0  0  0  0  0  0
    1.3352    3.3652    3.1078 H   0  0  0  0  0  0  0  0  0  0  0  0
    4.2963    4.0713   -0.1326 H   0  0  0  0  0  0  0  0  0  0  0  0
    5.6054    4.1933    1.1261 H   0  0  0  0  0  0  0  0  0  0  0  0
    4.5401    2.0652   -1.9500 H   0  0  0  0  0  0  0  0  0  0  0  0
    6.1715    0.0400   -2.1733 H   0  0  0  0  0  0  0  0  0  0  0  0
    6.9003    2.6999    2.5143 H   0  0  0  0  0  0  0  0  0  0  0  0
    8.6696    1.1983    3.2272 H   0  0  0  0  0  0  0  0  0  0  0  0
    9.3486   -0.7021    1.7174 H   0  0  0  0  0  0  0  0  0  0  0  0
    8.2218   -1.0286   -0.4614 H   0  0  0  0  0  0  0  0  0  0  0  0
    2.8834   -0.3005   -1.5353 H   0  0  0  0  0  0  0  0  0  0  0  0
    1.7045   -1.6707   -1.1416 H   0  0  0  0  0  0  0  0  0  0  0  0
    4.5071   -1.2226    0.0426 H   0  0  0  0  0  0  0  0  0  0  0  0
    3.3521   -2.4259    0.6705 H   0  0  0  0  0  0  0  0  0  0  0  0
    3.3569   -3.4142   -1.7547 H   0  0  0  0  0  0  0  0  0  0  0  0
    4.5820   -2.1467   -2.1162 H   0  0  0  0  0  0  0  0  0  0  0  0
    6.0666   -5.6199    1.1997 H   0  0  0  0  0  0  0  0  0  0  0  0
    6.6190   -6.1938   -0.3841 H   0  0  0  0  0  0  0  0  0  0  0  0
    2.8250   -5.1900   -0.2763 H   0  0  0  0  0  0  0  0  0  0  0  0
    3.7457   -6.1349   -1.5225 H   0  0  0  0  0  0  0  0  0  0  0  0
   -0.9710    2.4821    1.0891 H   0  0  0  0  0  0  0  0  0  0  0  0
   -2.8123    2.5267    0.8685 H   0  0  0  0  0  0  0  0  0  0  0  0
    0.0657    1.2656    2.6520 H   0  0  0  0  0  0  0  0  0  0  0  0
   -0.0019   -0.0533    4.7911 H   0  0  0  0  0  0  0  0  0  0  0  0
   -2.2192   -0.9190    5.5959 H   0  0  0  0  0  0  0  0  0  0  0  0
   -4.2431   -0.4815    4.3360 H   0  0  0  0  0  0  0  0  0  0  0  0
   -4.1399    0.8134    2.2576 H   0  0  0  0  0  0  0  0  0  0  0  0
   -4.3387   -2.0848   -0.9024 H   0  0  0  0  0  0  0  0  0  0  0  0
   -4.7614   -1.6043   -2.5433 H   0  0  0  0  0  0  0  0  0  0  0  0
   -7.7279   -2.1580   -3.0625 H   0  0  0  0  0  0  0  0  0  0  0  0
   -8.2762   -4.3027    0.5474 H   0  0  0  0  0  0  0  0  0  0  0  0
   -6.0057   -3.1658    0.6414 H   0  0  0  0  0  0  0  0  0  0  0  0
  1  2  1  0
  2  3  1  0
  3  4  1  0
  4  5  2  0
  4  6  1  0
  6  7  1  0
  7  8  1  0
  8  9  2  0
  8 10  1  0
 10 11  1  0
 11 12  1  0
 12 13  2  0
 12 14  1  0
 14 15  1  0
 15 16  1  0
 16 17  2  0
 16 18  1  0
 18 19  1  0
 19 20  1  0
 20 21  2  0
 20 22  1  0
 19 23  1  0
 23 24  1  0
 24 25  2  0
 25 26  1  0
 26 27  1  0
 27 28  2  0
 28 29  1  0
 29 30  2  0
 30 31  1  0
 31 32  2  0
 15 33  1  0
 33 34  1  0
 34 35  1  0
 35 36  1  0
 36 37  2  3
 37 38  1  0
 37 39  1  0
 11 40  1  0
 40 41  1  0
 41 42  2  0
 42 43  1  0
 43 44  2  0
 44 45  1  0
 45 46  2  0
  7 47  1  0
 47 48  1  0
 48 49  2  0
 49 50  1  0
 50 51  2  0
 51 52  1  0
 28 24  1  0
 46 41  1  0
 52 48  1  0
 32 27  1  0
  1 53  1  0
  1 54  1  0
  1 55  1  0
  3 56  1  0
  3 57  1  0
  6 58  1  0
  7 59  1  1
 10 60  1  0
 11 61  1  6
 14 62  1  0
 15 63  1  1
 18 64  1  0
 19 65  1  1
 22 66  1  0
 22 67  1  0
 23 68  1  0
 23 69  1  0
 25 70  1  0
 26 71  1  0
 29 72  1  0
 30 73  1  0
 31 74  1  0
 32 75  1  0
 33 76  1  0
 33 77  1  0
 34 78  1  0
 34 79  1  0
 35 80  1  0
 35 81  1  0
 38 82  1  0
 38 83  1  0
 39 84  1  0
 39 85  1  0
 40 86  1  0
 40 87  1  0
 42 88  1  0
 43 89  1  0
 44 90  1  0
 45 91  1  0
 46 92  1  0
 47 93  1  0
 47 94  1  0
 49 95  1  0
 51 96  1  0
 52 97  1  0
M  END
>  <Ligand ID>  (1) 
LIG0004968

>  <Ligand>  (1) 
CHEMBL327450

>  <SMILES>  (1) 
CSCC(=O)N[C@H](C(=O)N[C@H](C(=O)N[C@H](C(=O)N[C@H](C(=O)N)Cc1c[nH]c2c1cccc2)CCCN=C(N)N)Cc1ccccc1)Cc1cnc[nH]1

>  <CID>  (1) 
44323015.0

>  <ChEMBL ID>  (1) 
nan

>  <InChiKey>  (1) 
VDEUVZJQPRWULE-DZUOILHNSA-N

>  <InChi>  (1) 
InChI=1S/C35H45N11O5S/c1-52-19-30(47)43-29(16-23-18-39-20-42-23)34(51)46-28(14-21-8-3-2-4-9-21)33(50)44-26(12-7-13-40-35(37)38)32(49)45-27(31(36)48)15-22-17-41-25-11-6-5-10-24(22)25/h2-6,8-11,17-18,20,26-29,41H,7,12-16,19H2,1H3,(H2,36,48)(H,39,42)(H,43,47)(H,44,50)(H,45,49)(H,46,51)(H4,37,38,40)/t26-,27-,28-,29-/m0/s1

>  <IUPAC Name>  (1) 
(2S)-N-[(2S)-1-amino-3-(1H-indol-3-yl)-1-oxopropan-2-yl]-5-(diaminomethylideneamino)-2-[[(2S)-2-[[(2S)-3-(1H-imidazol-5-yl)-2-[(2-methylsulfanylacetyl)amino]propanoyl]amino]-3-phenylpropanoyl]amino]pentanamide

$$$$
