
     RDKit          3D

 40 42  0  0  0  0  0  0  0  0999 V2000
   -4.5422    1.9407   -1.5847 C   0  0  0  0  0  0  0  0  0  0  0  0
   -3.7129    0.8650   -1.2705 O   0  0  0  0  0  0  0  0  0  0  0  0
   -4.1550   -0.3197   -0.6888 C   0  0  0  0  0  0  0  0  0  0  0  0
   -5.4922   -0.5320   -0.3659 C   0  0  0  0  0  0  0  0  0  0  0  0
   -5.9107   -1.7308    0.2177 C   0  0  0  0  0  0  0  0  0  0  0  0
   -4.9854   -2.7174    0.4772 C   0  0  0  0  0  0  0  0  0  0  0  0
   -3.6538   -2.5082    0.1566 C   0  0  0  0  0  0  0  0  0  0  0  0
   -3.2197   -1.3211   -0.4247 C   0  0  0  0  0  0  0  0  0  0  0  0
   -1.8508   -1.1139   -0.7510 N   0  0  0  0  0  0  0  0  0  0  0  0
   -0.9792   -0.5335    0.2091 C   0  0  0  0  0  0  0  0  0  0  0  0
   -1.3849   -0.1984    1.3387 O   0  0  0  0  0  0  0  0  0  0  0  0
    0.4131   -0.3171   -0.1082 C   0  0  0  0  0  0  0  0  0  0  0  0
    1.1383   -0.7597   -1.7197 S   0  0  0  0  0  0  0  0  0  0  0  0
    2.8210   -0.1516   -1.2007 C   0  0  0  0  0  0  0  0  0  0  0  0
    2.6473    0.3031    0.0935 C   0  0  0  0  0  0  0  0  0  0  0  0
    1.4326    0.2162    0.6355 C   0  0  0  0  0  0  0  0  0  0  0  0
    1.1280    0.6654    1.9963 N   0  0  0  0  0  0  0  0  0  0  0  0
    3.8384    0.8096    0.6584 C   0  0  0  0  0  0  0  0  0  0  0  0
    3.8721    1.3465    2.0379 C   0  0  0  0  0  0  0  0  0  0  0  0
    5.0021    0.8100   -0.0772 C   0  0  0  0  0  0  0  0  0  0  0  0
    5.1065    0.3413   -1.3642 C   0  0  0  0  0  0  0  0  0  0  0  0
    3.9464   -0.1462   -1.8992 N   0  0  0  0  0  0  0  0  0  0  0  0
    6.3312    0.3308   -2.1671 C   0  0  0  0  0  0  0  0  0  0  0  0
   -3.9168    2.8603   -1.5742 H   0  0  0  0  0  0  0  0  0  0  0  0
   -5.0746    1.7979   -2.5376 H   0  0  0  0  0  0  0  0  0  0  0  0
   -5.2986    2.0215   -0.7722 H   0  0  0  0  0  0  0  0  0  0  0  0
   -6.2211    0.2148   -0.5573 H   0  0  0  0  0  0  0  0  0  0  0  0
   -6.9602   -1.8985    0.4717 H   0  0  0  0  0  0  0  0  0  0  0  0
   -5.3323   -3.6526    0.9361 H   0  0  0  0  0  0  0  0  0  0  0  0
   -2.9496   -3.3147    0.3778 H   0  0  0  0  0  0  0  0  0  0  0  0
   -1.5082   -1.3962   -1.7030 H   0  0  0  0  0  0  0  0  0  0  0  0
    0.9742    1.6876    2.1814 H   0  0  0  0  0  0  0  0  0  0  0  0
    1.0701   -0.0527    2.7626 H   0  0  0  0  0  0  0  0  0  0  0  0
    3.3859    0.5973    2.7308 H   0  0  0  0  0  0  0  0  0  0  0  0
    3.3116    2.2943    2.1364 H   0  0  0  0  0  0  0  0  0  0  0  0
    4.8989    1.4835    2.3611 H   0  0  0  0  0  0  0  0  0  0  0  0
    5.8981    1.2038    0.3809 H   0  0  0  0  0  0  0  0  0  0  0  0
    6.1464    0.6229   -3.2381 H   0  0  0  0  0  0  0  0  0  0  0  0
    7.0964    0.9868   -1.7095 H   0  0  0  0  0  0  0  0  0  0  0  0
    6.6893   -0.7351   -2.2505 H   0  0  0  0  0  0  0  0  0  0  0  0
  1  2  1  0
  2  3  1  0
  3  4  2  0
  4  5  1  0
  5  6  2  0
  6  7  1  0
  7  8  2  0
  8  9  1  0
  9 10  1  0
 10 11  2  0
 10 12  1  0
 12 13  1  0
 13 14  1  0
 14 15  2  0
 15 16  1  0
 16 17  1  0
 15 18  1  0
 18 19  1  0
 18 20  2  0
 20 21  1  0
 21 22  2  0
 21 23  1  0
  8  3  1  0
 16 12  2  0
 22 14  1  0
  1 24  1  0
  1 25  1  0
  1 26  1  0
  4 27  1  0
  5 28  1  0
  6 29  1  0
  7 30  1  0
  9 31  1  0
 17 32  1  0
 17 33  1  0
 19 34  1  0
 19 35  1  0
 19 36  1  0
 20 37  1  0
 23 38  1  0
 23 39  1  0
 23 40  1  0
M  END
>  <Ligand ID>  (1) 
LIG0003786

>  <Ligand>  (1) 
MLS001075983

>  <SMILES>  (1) 
COc1ccccc1NC(=O)c1sc2c(c1N)c(C)cc(n2)C

>  <CID>  (1) 
798349.0

>  <ChEMBL ID>  (1) 
nan

>  <InChiKey>  (1) 
QQBGCPDJJLOYKT-UHFFFAOYSA-N

>  <InChi>  (1) 
InChI=1S/C17H17N3O2S/c1-9-8-10(2)19-17-13(9)14(18)15(23-17)16(21)20-11-6-4-5-7-12(11)22-3/h4-8H,18H2,1-3H3,(H,20,21)

>  <IUPAC Name>  (1) 
3-amino-N-(2-methoxyphenyl)-4,6-dimethylthieno[2,3-b]pyridine-2-carboxamide

$$$$
