
     RDKit          3D

 16 16  0  0  0  0  0  0  0  0999 V2000
    2.4958   -0.2354   -0.9211 O   0  0  0  0  0  0  0  0  0  0  0  0
    1.9554   -0.0247    0.3666 C   0  0  0  0  0  0  0  0  0  0  0  0
    0.4702    0.0586    0.3044 C   0  0  0  0  0  0  0  0  0  0  0  0
   -0.1733    1.2697    0.1132 C   0  0  0  0  0  0  0  0  0  0  0  0
   -1.5705    1.2918    0.0626 C   0  0  0  0  0  0  0  0  0  0  0  0
   -2.2686    0.1019    0.2052 C   0  0  0  0  0  0  0  0  0  0  0  0
   -1.6202   -1.1124    0.3971 C   0  0  0  0  0  0  0  0  0  0  0  0
   -0.2218   -1.1352    0.4478 C   0  0  0  0  0  0  0  0  0  0  0  0
    3.2795   -0.8003   -0.8233 H   0  0  0  0  0  0  0  0  0  0  0  0
    2.3878    0.9394    0.7162 H   0  0  0  0  0  0  0  0  0  0  0  0
    2.2309   -0.8149    1.0678 H   0  0  0  0  0  0  0  0  0  0  0  0
    0.3882    2.1932    0.0031 H   0  0  0  0  0  0  0  0  0  0  0  0
   -2.0983    2.2462   -0.0889 H   0  0  0  0  0  0  0  0  0  0  0  0
   -3.3597    0.1071    0.1674 H   0  0  0  0  0  0  0  0  0  0  0  0
   -2.2001   -2.0109    0.5030 H   0  0  0  0  0  0  0  0  0  0  0  0
    0.3045   -2.0742    0.5970 H   0  0  0  0  0  0  0  0  0  0  0  0
  1  2  1  0
  2  3  1  0
  3  4  2  0
  4  5  1  0
  5  6  2  0
  6  7  1  0
  7  8  2  0
  8  3  1  0
  1  9  1  0
  2 10  1  0
  2 11  1  0
  4 12  1  0
  5 13  1  0
  6 14  1  0
  7 15  1  0
  8 16  1  0
M  END
>  <Ligand ID>  (1) 
LIG0000237

>  <Ligand>  (1) 
Benzyl Alcohol

>  <SMILES>  (1) 
OCc1ccccc1

>  <CID>  (1) 
244.0

>  <ChEMBL ID>  (1) 
nan

>  <InChiKey>  (1) 
WVDDGKGOMKODPV-UHFFFAOYSA-N

>  <InChi>  (1) 
InChI=1S/C7H8O/c8-6-7-4-2-1-3-5-7/h1-5,8H,6H2

>  <IUPAC Name>  (1) 
phenylmethanol

$$$$
