
     RDKit          3D

 48 49  0  0  0  0  0  0  0  0999 V2000
    6.6511    0.8672   -2.6766 C   0  0  0  0  0  0  0  0  0  0  0  0
    6.4748    0.5310   -1.2153 C   0  0  0  0  0  0  0  0  0  0  0  0
    5.0958    0.2439   -1.0113 O   0  0  0  0  0  0  0  0  0  0  0  0
    4.6209   -0.1270    0.2509 C   0  0  0  0  0  0  0  0  0  0  0  0
    5.5223   -0.1786    1.1567 O   0  0  0  0  0  0  0  0  0  0  0  0
    3.2616   -0.4221    0.5122 N   0  0  0  0  0  0  0  0  0  0  0  0
    2.2811   -0.3336   -0.5583 C   0  0  0  0  0  0  0  0  0  0  0  0
    0.9854    0.0711    0.1791 C   0  0  0  0  0  0  0  0  0  0  0  0
    0.5800   -1.1368    0.9471 C   0  0  0  0  0  0  0  0  0  0  0  0
    1.6063   -1.5171    1.9998 C   0  0  0  0  0  0  0  0  0  0  0  0
    2.9025   -0.8082    1.8611 C   0  0  0  0  0  0  0  0  0  0  0  0
   -0.7455   -1.2263    1.4154 N   0  0  0  0  0  0  0  0  0  0  0  0
   -1.2892   -0.2511    2.2590 C   0  0  0  0  0  0  0  0  0  0  0  0
   -1.6102    1.0921    1.7101 C   0  0  0  0  0  0  0  0  0  0  0  0
   -2.5937    1.0452    0.6212 N   0  0  0  0  0  0  0  0  0  0  0  0
   -3.8966    0.5161    0.8956 C   0  0  0  0  0  0  0  0  0  0  0  0
   -4.2279    0.0931    2.0357 O   0  0  0  0  0  0  0  0  0  0  0  0
   -4.9342    0.4344   -0.1408 C   0  0  0  0  0  0  0  0  0  0  0  0
   -5.4113    1.5599   -0.7964 C   0  0  0  0  0  0  0  0  0  0  0  0
   -6.3814    1.4062   -1.7511 C   0  0  0  0  0  0  0  0  0  0  0  0
   -6.9214    0.1774   -2.1055 C   0  0  0  0  0  0  0  0  0  0  0  0
   -6.4337   -0.9513   -1.4378 C   0  0  0  0  0  0  0  0  0  0  0  0
   -5.4600   -0.8077   -0.4780 C   0  0  0  0  0  0  0  0  0  0  0  0
   -4.8386   -2.2336    0.3712 Cl  0  0  0  0  0  0  0  0  0  0  0  0
    6.2706   -0.0114   -3.2395 H   0  0  0  0  0  0  0  0  0  0  0  0
    5.9589    1.6981   -2.9383 H   0  0  0  0  0  0  0  0  0  0  0  0
    7.7043    1.0684   -2.9480 H   0  0  0  0  0  0  0  0  0  0  0  0
    7.0396   -0.3649   -0.9298 H   0  0  0  0  0  0  0  0  0  0  0  0
    6.8130    1.3577   -0.5545 H   0  0  0  0  0  0  0  0  0  0  0  0
    2.4826    0.4448   -1.2899 H   0  0  0  0  0  0  0  0  0  0  0  0
    2.1974   -1.3143   -1.0192 H   0  0  0  0  0  0  0  0  0  0  0  0
    0.2222    0.3476   -0.5396 H   0  0  0  0  0  0  0  0  0  0  0  0
    1.3007    0.9371    0.8017 H   0  0  0  0  0  0  0  0  0  0  0  0
    0.6818   -1.9969    0.1822 H   0  0  0  0  0  0  0  0  0  0  0  0
    1.1652   -1.2739    2.9989 H   0  0  0  0  0  0  0  0  0  0  0  0
    1.7515   -2.6267    2.0308 H   0  0  0  0  0  0  0  0  0  0  0  0
    2.9798    0.0658    2.5622 H   0  0  0  0  0  0  0  0  0  0  0  0
    3.7328   -1.4917    2.2107 H   0  0  0  0  0  0  0  0  0  0  0  0
   -1.3336   -1.9903    1.0841 H   0  0  0  0  0  0  0  0  0  0  0  0
   -0.5099   -0.0541    3.0709 H   0  0  0  0  0  0  0  0  0  0  0  0
   -2.1640   -0.6040    2.8651 H   0  0  0  0  0  0  0  0  0  0  0  0
   -0.7705    1.6719    1.3535 H   0  0  0  0  0  0  0  0  0  0  0  0
   -2.0493    1.6912    2.5655 H   0  0  0  0  0  0  0  0  0  0  0  0
   -2.3514    1.3948   -0.3511 H   0  0  0  0  0  0  0  0  0  0  0  0
   -5.0118    2.5537   -0.5474 H   0  0  0  0  0  0  0  0  0  0  0  0
   -6.8023    2.2602   -2.3073 H   0  0  0  0  0  0  0  0  0  0  0  0
   -7.6946    0.0889   -2.8739 H   0  0  0  0  0  0  0  0  0  0  0  0
   -6.8511   -1.8960   -1.7117 H   0  0  0  0  0  0  0  0  0  0  0  0
  1  2  1  0
  2  3  1  0
  3  4  1  0
  4  5  2  0
  4  6  1  0
  6  7  1  0
  7  8  1  0
  8  9  1  0
  9 10  1  0
 10 11  1  0
  9 12  1  0
 12 13  1  0
 13 14  1  0
 14 15  1  0
 15 16  1  0
 16 17  2  0
 16 18  1  0
 18 19  2  0
 19 20  1  0
 20 21  2  0
 21 22  1  0
 22 23  2  0
 23 24  1  0
 11  6  1  0
 23 18  1  0
  1 25  1  0
  1 26  1  0
  1 27  1  0
  2 28  1  0
  2 29  1  0
  7 30  1  0
  7 31  1  0
  8 32  1  0
  8 33  1  0
  9 34  1  0
 10 35  1  0
 10 36  1  0
 11 37  1  0
 11 38  1  0
 12 39  1  0
 13 40  1  0
 13 41  1  0
 14 42  1  0
 14 43  1  0
 15 44  1  0
 19 45  1  0
 20 46  1  0
 21 47  1  0
 22 48  1  0
M  END
>  <Ligand ID>  (1) 
LIG0004460

>  <Ligand>  (1) 
VU0207811

>  <SMILES>  (1) 
CCOC(=O)N1CCC(CC1)NCCNC(=O)c1ccccc1Cl

>  <CID>  (1) 
644390.0

>  <ChEMBL ID>  (1) 
nan

>  <InChiKey>  (1) 
CKDRIMCQYYURDN-UHFFFAOYSA-N

>  <InChi>  (1) 
InChI=1S/C17H24ClN3O3/c1-2-24-17(23)21-11-7-13(8-12-21)19-9-10-20-16(22)14-5-3-4-6-15(14)18/h3-6,13,19H,2,7-12H2,1H3,(H,20,22)

>  <IUPAC Name>  (1) 
ethyl 4-[2-[(2-chlorobenzoyl)amino]ethylamino]piperidine-1-carboxylate

$$$$
