
     RDKit          3D

 59 62  0  0  0  0  0  0  0  0999 V2000
    1.1812   -4.3436   -2.6264 C   0  0  0  0  0  0  0  0  0  0  0  0
    0.8584   -3.0411   -2.2020 O   0  0  0  0  0  0  0  0  0  0  0  0
    1.8041   -2.0348   -2.0473 C   0  0  0  0  0  0  0  0  0  0  0  0
    3.1503   -2.2316   -2.2995 C   0  0  0  0  0  0  0  0  0  0  0  0
    4.0822   -1.2126   -2.1391 C   0  0  0  0  0  0  0  0  0  0  0  0
    3.6814    0.0469   -1.7159 C   0  0  0  0  0  0  0  0  0  0  0  0
    2.3356    0.2342   -1.4665 C   0  0  0  0  0  0  0  0  0  0  0  0
    1.4017   -0.7809   -1.6255 C   0  0  0  0  0  0  0  0  0  0  0  0
    0.0446   -0.4624   -1.3365 N   0  0  0  0  0  0  0  0  0  0  0  0
   -0.5352   -0.6154   -0.0484 C   0  0  0  0  0  0  0  0  0  0  0  0
    0.2387   -1.0627    0.8571 O   0  0  0  0  0  0  0  0  0  0  0  0
   -1.9290   -0.2826    0.2250 C   0  0  0  0  0  0  0  0  0  0  0  0
   -2.8003    0.1991   -0.7066 C   0  0  0  0  0  0  0  0  0  0  0  0
   -4.1165    0.5068   -0.4220 C   0  0  0  0  0  0  0  0  0  0  0  0
   -4.5840    0.3244    0.8549 C   0  0  0  0  0  0  0  0  0  0  0  0
   -3.7221   -0.1612    1.8132 C   0  0  0  0  0  0  0  0  0  0  0  0
   -2.3956   -0.4673    1.5102 C   0  0  0  0  0  0  0  0  0  0  0  0
   -5.9440    0.6505    1.1160 N   0  0  0  0  0  0  0  0  0  0  0  0
   -6.2961    1.8152    1.6699 N   0  0  0  0  0  0  0  0  0  0  0  0
   -7.6432    1.8723    1.8087 C   0  0  0  0  0  0  0  0  0  0  0  0
   -8.1510    0.6877    1.3181 C   0  0  0  0  0  0  0  0  0  0  0  0
   -7.0590   -0.0666    0.8868 C   0  0  0  0  0  0  0  0  0  0  0  0
   -7.0994   -1.4185    0.2815 C   0  0  0  0  0  0  0  0  0  0  0  0
   -8.3559    3.0386    2.3937 C   0  0  0  0  0  0  0  0  0  0  0  0
    4.8623    1.3193   -1.5181 S   0  0  0  0  0  0  0  0  0  0  0  0
    5.9854    1.0147   -2.4976 O   0  0  0  0  0  0  0  0  0  0  0  0
    4.3116    2.6791   -1.8150 O   0  0  0  0  0  0  0  0  0  0  0  0
    5.4772    1.2901    0.0981 N   0  0  0  0  0  0  0  0  0  0  0  0
    6.1387    0.0567    0.3982 C   0  0  0  0  0  0  0  0  0  0  0  0
    6.4631    0.0200    1.8668 C   0  0  0  0  0  0  0  0  0  0  0  0
    6.3911    1.3080    2.3861 O   0  0  0  0  0  0  0  0  0  0  0  0
    7.1069    2.2152    1.6001 C   0  0  0  0  0  0  0  0  0  0  0  0
    6.4193    2.3779    0.2791 C   0  0  0  0  0  0  0  0  0  0  0  0
    0.2355   -4.8332   -2.9427 H   0  0  0  0  0  0  0  0  0  0  0  0
    1.5367   -4.9507   -1.7498 H   0  0  0  0  0  0  0  0  0  0  0  0
    1.8966   -4.3634   -3.4680 H   0  0  0  0  0  0  0  0  0  0  0  0
    3.4925   -3.1998   -2.6298 H   0  0  0  0  0  0  0  0  0  0  0  0
    5.1365   -1.3922   -2.3440 H   0  0  0  0  0  0  0  0  0  0  0  0
    2.0036    1.2184   -1.1331 H   0  0  0  0  0  0  0  0  0  0  0  0
   -0.5224   -0.1009   -2.1362 H   0  0  0  0  0  0  0  0  0  0  0  0
   -2.4665    0.3534   -1.7155 H   0  0  0  0  0  0  0  0  0  0  0  0
   -4.7828    0.8920   -1.2024 H   0  0  0  0  0  0  0  0  0  0  0  0
   -4.1037   -0.3006    2.8170 H   0  0  0  0  0  0  0  0  0  0  0  0
   -1.7827   -0.8444    2.3198 H   0  0  0  0  0  0  0  0  0  0  0  0
   -9.1913    0.4270    1.2881 H   0  0  0  0  0  0  0  0  0  0  0  0
   -7.2699   -1.3386   -0.8297 H   0  0  0  0  0  0  0  0  0  0  0  0
   -6.1169   -1.9205    0.4086 H   0  0  0  0  0  0  0  0  0  0  0  0
   -7.9336   -2.0473    0.6650 H   0  0  0  0  0  0  0  0  0  0  0  0
   -8.1396    3.0960    3.4957 H   0  0  0  0  0  0  0  0  0  0  0  0
   -7.9083    3.9415    1.9474 H   0  0  0  0  0  0  0  0  0  0  0  0
   -9.4370    2.9161    2.2018 H   0  0  0  0  0  0  0  0  0  0  0  0
    7.0709   -0.0125   -0.1851 H   0  0  0  0  0  0  0  0  0  0  0  0
    5.4411   -0.7803    0.1765 H   0  0  0  0  0  0  0  0  0  0  0  0
    7.4766   -0.4071    1.9970 H   0  0  0  0  0  0  0  0  0  0  0  0
    5.7029   -0.5700    2.4546 H   0  0  0  0  0  0  0  0  0  0  0  0
    8.1742    1.9109    1.4785 H   0  0  0  0  0  0  0  0  0  0  0  0
    7.1138    3.1754    2.1683 H   0  0  0  0  0  0  0  0  0  0  0  0
    7.1435    2.2912   -0.5601 H   0  0  0  0  0  0  0  0  0  0  0  0
    5.9273    3.3639    0.2583 H   0  0  0  0  0  0  0  0  0  0  0  0
  1  2  1  0
  2  3  1  0
  3  4  2  0
  4  5  1  0
  5  6  2  0
  6  7  1  0
  7  8  2  0
  8  9  1  0
  9 10  1  0
 10 11  2  0
 10 12  1  0
 12 13  2  0
 13 14  1  0
 14 15  2  0
 15 16  1  0
 16 17  2  0
 15 18  1  0
 18 19  1  0
 19 20  2  0
 20 21  1  0
 21 22  2  0
 22 23  1  0
 20 24  1  0
  6 25  1  0
 25 26  2  0
 25 27  2  0
 25 28  1  0
 28 29  1  0
 29 30  1  0
 30 31  1  0
 31 32  1  0
 32 33  1  0
  8  3  1  0
 17 12  1  0
 22 18  1  0
 33 28  1  0
  1 34  1  0
  1 35  1  0
  1 36  1  0
  4 37  1  0
  5 38  1  0
  7 39  1  0
  9 40  1  0
 13 41  1  0
 14 42  1  0
 16 43  1  0
 17 44  1  0
 21 45  1  0
 23 46  1  0
 23 47  1  0
 23 48  1  0
 24 49  1  0
 24 50  1  0
 24 51  1  0
 29 52  1  0
 29 53  1  0
 30 54  1  0
 30 55  1  0
 32 56  1  0
 32 57  1  0
 33 58  1  0
 33 59  1  0
M  END
>  <Ligand ID>  (1) 
LIG0001720

>  <Ligand>  (1) 
MLS-0311344.0001

>  <SMILES>  (1) 
COc1ccc(cc1NC(=O)c1ccc(cc1)n1nc(cc1C)C)S(=O)(=O)N1CCOCC1

>  <CID>  (1) 
3538139.0

>  <ChEMBL ID>  (1) 
nan

>  <InChiKey>  (1) 
QKXYXSPMMQZDDM-UHFFFAOYSA-N

>  <InChi>  (1) 
InChI=1S/C23H26N4O5S/c1-16-14-17(2)27(25-16)19-6-4-18(5-7-19)23(28)24-21-15-20(8-9-22(21)31-3)33(29,30)26-10-12-32-13-11-26/h4-9,14-15H,10-13H2,1-3H3,(H,24,28)

>  <IUPAC Name>  (1) 
4-(3,5-dimethylpyrazol-1-yl)-N-(2-methoxy-5-morpholin-4-ylsulfonylphenyl)benzamide

$$$$
