
     RDKit          3D

 25 26  0  0  0  0  0  0  0  0999 V2000
    3.1624    0.5916   -1.2182 N   0  0  0  0  0  0  0  0  0  0  0  0
    3.0943   -0.6294   -0.4976 C   0  0  0  0  0  0  0  0  0  0  0  0
    1.7579   -0.7296    0.2469 C   0  0  1  0  0  0  0  0  0  0  0  0
    1.4783    0.3468    1.2500 C   0  0  0  0  0  0  0  0  0  0  0  0
    0.7569    0.3131   -0.0457 C   0  0  2  0  0  0  0  0  0  0  0  0
   -0.6914    0.0712    0.0182 C   0  0  0  0  0  0  0  0  0  0  0  0
   -1.1925   -0.8912    0.8709 C   0  0  0  0  0  0  0  0  0  0  0  0
   -2.5424   -1.1686    0.9796 C   0  0  0  0  0  0  0  0  0  0  0  0
   -3.4303   -0.4361    0.1863 C   0  0  0  0  0  0  0  0  0  0  0  0
   -2.9564    0.5259   -0.6691 C   0  0  0  0  0  0  0  0  0  0  0  0
   -1.6033    0.7820   -0.7573 C   0  0  0  0  0  0  0  0  0  0  0  0
   -3.7859    1.2941   -1.4894 O   0  0  0  0  0  0  0  0  0  0  0  0
    3.1506    1.4642   -0.6890 H   0  0  0  0  0  0  0  0  0  0  0  0
    3.6021    0.5816   -2.1398 H   0  0  0  0  0  0  0  0  0  0  0  0
    3.0949   -1.4553   -1.2376 H   0  0  0  0  0  0  0  0  0  0  0  0
    3.9222   -0.8040    0.2249 H   0  0  0  0  0  0  0  0  0  0  0  0
    1.4412   -1.7697    0.4726 H   0  0  0  0  0  0  0  0  0  0  0  0
    2.2375    1.1359    1.4537 H   0  0  0  0  0  0  0  0  0  0  0  0
    0.9120    0.0833    2.1588 H   0  0  0  0  0  0  0  0  0  0  0  0
    1.0441    1.1215   -0.7771 H   0  0  0  0  0  0  0  0  0  0  0  0
   -0.5371   -1.4884    1.5099 H   0  0  0  0  0  0  0  0  0  0  0  0
   -2.8977   -1.9272    1.6563 H   0  0  0  0  0  0  0  0  0  0  0  0
   -4.5092   -0.6272    0.2443 H   0  0  0  0  0  0  0  0  0  0  0  0
   -1.2317    1.5510   -1.4418 H   0  0  0  0  0  0  0  0  0  0  0  0
   -4.2763    2.0645   -1.0736 H   0  0  0  0  0  0  0  0  0  0  0  0
  1  2  1  0
  2  3  1  0
  3  4  1  0
  4  5  1  0
  5  6  1  0
  6  7  2  0
  7  8  1  0
  8  9  2  0
  9 10  1  0
 10 11  2  0
 10 12  1  0
  5  3  1  0
 11  6  1  0
  1 13  1  0
  1 14  1  0
  2 15  1  0
  2 16  1  0
  3 17  1  1
  4 18  1  0
  4 19  1  0
  5 20  1  6
  7 21  1  0
  8 22  1  0
  9 23  1  0
 11 24  1  0
 12 25  1  0
M  END
>  <Ligand ID>  (1) 
LIG0002378

>  <Ligand>  (1) 
CHEMBL510383

>  <SMILES>  (1) 
NC[C@H]1C[C@@H]1c1cccc(c1)O

>  <CID>  (1) 
44572808.0

>  <ChEMBL ID>  (1) 
nan

>  <InChiKey>  (1) 
NZTVPKOZOOULAP-PSASIEDQSA-N

>  <InChi>  (1) 
InChI=1S/C10H13NO/c11-6-8-5-10(8)7-2-1-3-9(12)4-7/h1-4,8,10,12H,5-6,11H2/t8-,10-/m1/s1

>  <IUPAC Name>  (1) 
3-[(1S,2S)-2-(aminomethyl)cyclopropyl]phenol

$$$$
