
     RDKit          3D

 75 76  0  0  0  0  0  0  0  0999 V2000
   -6.6916    1.1054    4.3994 O   0  0  0  0  0  0  0  0  0  0  0  0
   -7.1485    0.2824    3.3669 C   0  0  0  0  0  0  0  0  0  0  0  0
   -6.8278    0.9721    2.0904 C   0  0  0  0  0  0  0  0  0  0  0  0
   -5.7726    0.5687    1.2868 C   0  0  0  0  0  0  0  0  0  0  0  0
   -5.5094    1.2278    0.1191 C   0  0  0  0  0  0  0  0  0  0  0  0
   -6.3258    2.2998   -0.2265 C   0  0  0  0  0  0  0  0  0  0  0  0
   -7.3793    2.7151    0.5599 C   0  0  0  0  0  0  0  0  0  0  0  0
   -7.6426    2.0466    1.7396 C   0  0  0  0  0  0  0  0  0  0  0  0
   -8.7022    2.4563    2.5405 O   0  0  0  0  0  0  0  0  0  0  0  0
   -4.4193    0.8967   -0.8239 C   0  0  2  0  0  0  0  0  0  0  0  0
   -3.3384    0.0708   -0.2432 C   0  0  0  0  0  0  0  0  0  0  0  0
   -3.6362   -1.2515    0.1459 N   0  0  0  0  0  0  0  0  0  0  0  0
   -3.9336   -2.1957   -0.8644 C   0  0  0  0  0  0  0  0  0  0  0  0
   -2.7783   -2.5679   -1.7675 C   0  0  0  0  0  0  0  0  0  0  0  0
   -1.6696   -3.1665   -0.9639 C   0  0  0  0  0  0  0  0  0  0  0  0
   -0.5181   -3.5411   -1.8722 C   0  0  0  0  0  0  0  0  0  0  0  0
    0.0601   -2.3630   -2.6211 C   0  0  0  0  0  0  0  0  0  0  0  0
    0.5544   -1.3765   -1.5945 C   0  0  0  0  0  0  0  0  0  0  0  0
    1.1133   -0.2367   -2.0977 O   0  0  0  0  0  0  0  0  0  0  0  0
    2.2105   -0.3843   -2.9013 C   0  0  0  0  0  0  0  0  0  0  0  0
    3.3826   -1.0603   -2.2338 C   0  0  0  0  0  0  0  0  0  0  0  0
    3.8820   -0.3267   -1.0371 C   0  0  0  0  0  0  0  0  0  0  0  0
    4.3542    1.0722   -1.3146 C   0  0  0  0  0  0  0  0  0  0  0  0
    4.8110    1.6305   -0.0048 C   0  0  0  0  0  0  0  0  0  0  0  0
    3.9635    2.3068    0.8498 C   0  0  0  0  0  0  0  0  0  0  0  0
    4.5074    2.7742    2.0288 C   0  0  0  0  0  0  0  0  0  0  0  0
    5.8566    2.5693    2.3387 C   0  0  0  0  0  0  0  0  0  0  0  0
    6.6917    1.8928    1.4771 C   0  0  0  0  0  0  0  0  0  0  0  0
    6.1558    1.4225    0.2971 C   0  0  0  0  0  0  0  0  0  0  0  0
    8.3675    1.6673    1.9171 S   0  0  0  0  0  0  0  0  0  0  0  0
    9.2012    1.6594    0.6613 O   0  0  0  0  0  0  0  0  0  0  0  0
    8.7619    2.8321    2.7758 O   0  0  0  0  0  0  0  0  0  0  0  0
    8.5962    0.2111    2.7912 N   0  0  0  0  0  0  0  0  0  0  0  0
    8.2266   -0.9417    1.9987 C   0  0  0  0  0  0  0  0  0  0  0  0
   -3.8304    2.1531   -1.1332 O   0  0  0  0  0  0  0  0  0  0  0  0
   -7.2445    1.0465    5.2225 H   0  0  0  0  0  0  0  0  0  0  0  0
   -6.5789   -0.6885    3.4328 H   0  0  0  0  0  0  0  0  0  0  0  0
   -8.2135    0.0470    3.4246 H   0  0  0  0  0  0  0  0  0  0  0  0
   -5.1711   -0.2639    1.5994 H   0  0  0  0  0  0  0  0  0  0  0  0
   -6.1476    2.8554   -1.1565 H   0  0  0  0  0  0  0  0  0  0  0  0
   -7.9787    3.5679    0.2221 H   0  0  0  0  0  0  0  0  0  0  0  0
   -9.6325    2.3209    2.1657 H   0  0  0  0  0  0  0  0  0  0  0  0
   -4.7916    0.5429   -1.8046 H   0  0  0  0  0  0  0  0  0  0  0  0
   -2.4520    0.1198   -0.9432 H   0  0  0  0  0  0  0  0  0  0  0  0
   -2.9623    0.6245    0.6660 H   0  0  0  0  0  0  0  0  0  0  0  0
   -2.9057   -1.6222    0.7825 H   0  0  0  0  0  0  0  0  0  0  0  0
   -4.8434   -1.9789   -1.4535 H   0  0  0  0  0  0  0  0  0  0  0  0
   -4.1861   -3.1607   -0.3317 H   0  0  0  0  0  0  0  0  0  0  0  0
   -3.1977   -3.3383   -2.4752 H   0  0  0  0  0  0  0  0  0  0  0  0
   -2.4815   -1.7094   -2.3746 H   0  0  0  0  0  0  0  0  0  0  0  0
   -1.9987   -4.1478   -0.5199 H   0  0  0  0  0  0  0  0  0  0  0  0
   -1.3570   -2.5662   -0.1062 H   0  0  0  0  0  0  0  0  0  0  0  0
    0.2765   -4.0764   -1.3197 H   0  0  0  0  0  0  0  0  0  0  0  0
   -0.9482   -4.2441   -2.6254 H   0  0  0  0  0  0  0  0  0  0  0  0
   -0.6839   -1.9141   -3.2886 H   0  0  0  0  0  0  0  0  0  0  0  0
    0.8868   -2.7825   -3.2339 H   0  0  0  0  0  0  0  0  0  0  0  0
    1.1687   -1.8937   -0.8286 H   0  0  0  0  0  0  0  0  0  0  0  0
   -0.3599   -1.0479   -1.0305 H   0  0  0  0  0  0  0  0  0  0  0  0
    2.5312    0.6632   -3.1768 H   0  0  0  0  0  0  0  0  0  0  0  0
    1.9725   -0.8453   -3.8802 H   0  0  0  0  0  0  0  0  0  0  0  0
    3.0668   -2.0670   -1.8805 H   0  0  0  0  0  0  0  0  0  0  0  0
    4.1557   -1.2172   -2.9897 H   0  0  0  0  0  0  0  0  0  0  0  0
    4.7956   -0.8901   -0.6881 H   0  0  0  0  0  0  0  0  0  0  0  0
    3.1988   -0.3194   -0.1911 H   0  0  0  0  0  0  0  0  0  0  0  0
    5.1848    1.1151   -2.0419 H   0  0  0  0  0  0  0  0  0  0  0  0
    3.5208    1.7426   -1.6390 H   0  0  0  0  0  0  0  0  0  0  0  0
    2.9258    2.4496    0.5838 H   0  0  0  0  0  0  0  0  0  0  0  0
    3.8755    3.3115    2.7294 H   0  0  0  0  0  0  0  0  0  0  0  0
    6.2681    2.9446    3.2721 H   0  0  0  0  0  0  0  0  0  0  0  0
    6.8104    0.8802   -0.4005 H   0  0  0  0  0  0  0  0  0  0  0  0
    8.1027    0.2596    3.7011 H   0  0  0  0  0  0  0  0  0  0  0  0
    7.1666   -1.2155    2.0696 H   0  0  0  0  0  0  0  0  0  0  0  0
    8.8555   -1.8173    2.3176 H   0  0  0  0  0  0  0  0  0  0  0  0
    8.5042   -0.7158    0.9328 H   0  0  0  0  0  0  0  0  0  0  0  0
   -3.7051    2.6099   -0.2543 H   0  0  0  0  0  0  0  0  0  0  0  0
  1  2  1  0
  2  3  1  0
  3  4  2  0
  4  5  1  0
  5  6  2  0
  6  7  1  0
  7  8  2  0
  8  9  1  0
  5 10  1  0
 10 11  1  0
 11 12  1  0
 12 13  1  0
 13 14  1  0
 14 15  1  0
 15 16  1  0
 16 17  1  0
 17 18  1  0
 18 19  1  0
 19 20  1  0
 20 21  1  0
 21 22  1  0
 22 23  1  0
 23 24  1  0
 24 25  2  0
 25 26  1  0
 26 27  2  0
 27 28  1  0
 28 29  2  0
 28 30  1  0
 30 31  2  0
 30 32  2  0
 30 33  1  0
 33 34  1  0
 10 35  1  0
  8  3  1  0
 29 24  1  0
  1 36  1  0
  2 37  1  0
  2 38  1  0
  4 39  1  0
  6 40  1  0
  7 41  1  0
  9 42  1  0
 10 43  1  6
 11 44  1  0
 11 45  1  0
 12 46  1  0
 13 47  1  0
 13 48  1  0
 14 49  1  0
 14 50  1  0
 15 51  1  0
 15 52  1  0
 16 53  1  0
 16 54  1  0
 17 55  1  0
 17 56  1  0
 18 57  1  0
 18 58  1  0
 20 59  1  0
 20 60  1  0
 21 61  1  0
 21 62  1  0
 22 63  1  0
 22 64  1  0
 23 65  1  0
 23 66  1  0
 25 67  1  0
 26 68  1  0
 27 69  1  0
 29 70  1  0
 33 71  1  0
 34 72  1  0
 34 73  1  0
 34 74  1  0
 35 75  1  0
M  END
>  <Ligand ID>  (1) 
LIG0004687

>  <Ligand>  (1) 
CHEMBL516056

>  <SMILES>  (1) 
OCc1cc(ccc1O)[C@H](CNCCCCCCOCCCCc1cccc(c1)S(=O)(=O)NC)O

>  <CID>  (1) 
42625515.0

>  <ChEMBL ID>  (1) 
nan

>  <InChiKey>  (1) 
CSADUEMBOBFXBI-SANMLTNESA-N

>  <InChi>  (1) 
InChI=1S/C26H40N2O6S/c1-27-35(32,33)24-11-8-10-21(17-24)9-4-7-16-34-15-6-3-2-5-14-28-19-26(31)22-12-13-25(30)23(18-22)20-29/h8,10-13,17-18,26-31H,2-7,9,14-16,19-20H2,1H3/t26-/m0/s1

>  <IUPAC Name>  (1) 
3-[4-[6-[[(2R)-2-hydroxy-2-[4-hydroxy-3-(hydroxymethyl)phenyl]ethyl]amino]hexoxy]butyl]-N-methylbenzenesulfonamide

$$$$
