
     RDKit          3D

 23 24  0  0  0  0  0  0  0  0999 V2000
   -3.1325    1.2980   -0.0016 N   0  0  0  0  0  0  0  0  0  0  0  0
   -2.7818    0.0323    0.5299 C   0  0  0  0  0  0  0  0  0  0  0  0
   -1.6044   -0.5087   -0.2065 C   0  0  1  0  0  0  0  0  0  0  0  0
   -0.5397    0.4090   -0.0397 O   0  0  0  0  0  0  0  0  0  0  0  0
    0.5083   -0.3829   -0.5519 C   0  0  2  0  0  0  0  0  0  0  0  0
    0.2817   -1.6486    0.2100 C   0  0  0  0  0  0  0  0  0  0  0  0
   -1.0335   -1.7448    0.4355 C   0  0  0  0  0  0  0  0  0  0  0  0
    1.8345    0.1970   -0.3767 C   0  0  0  0  0  0  0  0  0  0  0  0
    2.8318    0.2592   -1.3292 C   0  0  0  0  0  0  0  0  0  0  0  0
    3.8755    0.8585   -0.7770 N   0  0  0  0  0  0  0  0  0  0  0  0
    3.5402    1.1653    0.4940 C   0  0  0  0  0  0  0  0  0  0  0  0
    2.2811    0.7634    0.7588 N   0  0  0  0  0  0  0  0  0  0  0  0
   -2.4428    2.0236   -0.0420 H   0  0  0  0  0  0  0  0  0  0  0  0
   -4.0784    1.4532   -0.2989 H   0  0  0  0  0  0  0  0  0  0  0  0
   -3.6588   -0.6411    0.4580 H   0  0  0  0  0  0  0  0  0  0  0  0
   -2.5129    0.1564    1.6060 H   0  0  0  0  0  0  0  0  0  0  0  0
   -1.7857   -0.6360   -1.2737 H   0  0  0  0  0  0  0  0  0  0  0  0
    0.2291   -0.5937   -1.5883 H   0  0  0  0  0  0  0  0  0  0  0  0
    1.0063   -2.3850    0.5429 H   0  0  0  0  0  0  0  0  0  0  0  0
   -1.5940   -2.5097    0.9506 H   0  0  0  0  0  0  0  0  0  0  0  0
    2.7214   -0.1300   -2.3326 H   0  0  0  0  0  0  0  0  0  0  0  0
    4.2457    1.6688    1.1527 H   0  0  0  0  0  0  0  0  0  0  0  0
    1.8089    0.8960    1.6798 H   0  0  0  0  0  0  0  0  0  0  0  0
  1  2  1  0
  2  3  1  0
  3  4  1  0
  4  5  1  0
  5  6  1  0
  6  7  2  0
  5  8  1  0
  8  9  2  0
  9 10  1  0
 10 11  2  0
 11 12  1  0
  7  3  1  0
 12  8  1  0
  1 13  1  0
  1 14  1  0
  2 15  1  0
  2 16  1  0
  3 17  1  6
  5 18  1  6
  6 19  1  0
  7 20  1  0
  9 21  1  0
 11 22  1  0
 12 23  1  0
M  END
>  <Ligand ID>  (1) 
LIG0005766

>  <Ligand>  (1) 
CHEMBL320279

>  <SMILES>  (1) 
NC[C@H]1O[C@H](C=C1)c1cnc[nH]1

>  <CID>  (1) 
10702196.0

>  <ChEMBL ID>  (1) 
nan

>  <InChiKey>  (1) 
DCDBUDNURLZBED-POYBYMJQSA-N

>  <InChi>  (1) 
InChI=1S/C8H11N3O/c9-3-6-1-2-8(12-6)7-4-10-5-11-7/h1-2,4-6,8H,3,9H2,(H,10,11)/t6-,8+/m0/s1

>  <IUPAC Name>  (1) 
[(2S,5R)-5-(1H-imidazol-5-yl)-2,5-dihydrofuran-2-yl]methanamine

$$$$
