
     RDKit          3D

 88 90  0  0  0  0  0  0  0  0999 V2000
    8.8910    2.7958   -4.2212 O   0  0  0  0  0  0  0  0  0  0  0  0
    8.9828    1.4136   -4.4142 C   0  0  0  0  0  0  0  0  0  0  0  0
    8.9015    0.6877   -3.1026 C   0  0  0  0  0  0  0  0  0  0  0  0
    7.7681    0.0252   -2.7005 C   0  0  0  0  0  0  0  0  0  0  0  0
    7.6967   -0.6446   -1.4818 C   0  0  0  0  0  0  0  0  0  0  0  0
    8.8124   -0.6142   -0.6970 C   0  0  0  0  0  0  0  0  0  0  0  0
    9.9588    0.0506   -1.0953 C   0  0  0  0  0  0  0  0  0  0  0  0
   10.0348    0.7225   -2.3153 C   0  0  0  0  0  0  0  0  0  0  0  0
   11.1926    1.3828   -2.6954 O   0  0  0  0  0  0  0  0  0  0  0  0
    6.4332   -1.3264   -1.1680 C   0  0  2  0  0  0  0  0  0  0  0  0
    6.5342   -2.3179   -0.0164 C   0  0  0  0  0  0  0  0  0  0  0  0
    6.8252   -1.7326    1.2109 N   0  0  0  0  0  0  0  0  0  0  0  0
    5.9830   -0.8939    1.9145 C   0  0  0  0  0  0  0  0  0  0  0  0
    4.7660   -1.3521    2.6364 C   0  0  0  0  0  0  0  0  0  0  0  0
    3.7267   -2.0150    1.7976 C   0  0  0  0  0  0  0  0  0  0  0  0
    2.4958   -2.3901    2.6318 C   0  0  0  0  0  0  0  0  0  0  0  0
    1.8648   -1.1791    3.2433 C   0  0  0  0  0  0  0  0  0  0  0  0
    1.3923   -0.1591    2.2161 C   0  0  0  0  0  0  0  0  0  0  0  0
    0.4673   -0.6757    1.3547 O   0  0  0  0  0  0  0  0  0  0  0  0
   -0.7006   -1.1513    1.9303 C   0  0  0  0  0  0  0  0  0  0  0  0
   -1.4515   -0.0775    2.6411 C   0  0  0  0  0  0  0  0  0  0  0  0
   -2.7127   -0.6046    3.2573 C   0  0  0  0  0  0  0  0  0  0  0  0
   -3.6429   -1.1157    2.1950 C   0  0  0  0  0  0  0  0  0  0  0  0
   -4.0488   -0.0443    1.2650 C   0  0  0  0  0  0  0  0  0  0  0  0
   -3.4204    0.2886    0.0989 C   0  0  0  0  0  0  0  0  0  0  0  0
   -3.8678    1.3176   -0.7280 C   0  0  0  0  0  0  0  0  0  0  0  0
   -4.9903    2.0198   -0.3452 C   0  0  0  0  0  0  0  0  0  0  0  0
   -5.6506    1.7182    0.8149 C   0  0  0  0  0  0  0  0  0  0  0  0
   -5.1877    0.6971    1.6160 C   0  0  0  0  0  0  0  0  0  0  0  0
   -7.0757    2.6620    1.2027 S   0  0  0  0  0  0  0  0  0  0  0  0
   -7.1573    2.7572    2.6988 O   0  0  0  0  0  0  0  0  0  0  0  0
   -6.9853    4.0639    0.6711 O   0  0  0  0  0  0  0  0  0  0  0  0
   -8.4797    1.8275    0.6644 N   0  0  0  0  0  0  0  0  0  0  0  0
   -8.5127    1.6104   -0.7644 C   0  0  0  0  0  0  0  0  0  0  0  0
   -8.4467    0.1704   -1.1374 C   0  0  0  0  0  0  0  0  0  0  0  0
   -9.7915   -0.2721   -1.6647 C   0  0  0  0  0  0  0  0  0  0  0  0
  -10.0325    0.3958   -3.0153 C   0  0  0  0  0  0  0  0  0  0  0  0
   -9.5910    1.8533   -2.9369 C   0  0  0  0  0  0  0  0  0  0  0  0
   -9.6123    2.3103   -1.4834 C   0  0  0  0  0  0  0  0  0  0  0  0
    6.1023   -2.0989   -2.3129 O   0  0  0  0  0  0  0  0  0  0  0  0
    9.7758    3.1126   -3.8816 H   0  0  0  0  0  0  0  0  0  0  0  0
    8.1226    1.0748   -5.0255 H   0  0  0  0  0  0  0  0  0  0  0  0
    9.9291    1.1115   -4.8997 H   0  0  0  0  0  0  0  0  0  0  0  0
    6.9192    0.0366   -3.3646 H   0  0  0  0  0  0  0  0  0  0  0  0
    8.8398   -1.1083    0.2452 H   0  0  0  0  0  0  0  0  0  0  0  0
   10.8544    0.0808   -0.4860 H   0  0  0  0  0  0  0  0  0  0  0  0
   12.0575    0.8640   -2.8528 H   0  0  0  0  0  0  0  0  0  0  0  0
    5.6070   -0.6145   -1.0537 H   0  0  0  0  0  0  0  0  0  0  0  0
    5.6915   -2.9850   -0.0919 H   0  0  0  0  0  0  0  0  0  0  0  0
    7.4306   -2.9575   -0.3144 H   0  0  0  0  0  0  0  0  0  0  0  0
    7.4173   -2.3147    1.8079 H   0  0  0  0  0  0  0  0  0  0  0  0
    6.6112   -0.3532    2.7150 H   0  0  0  0  0  0  0  0  0  0  0  0
    5.5991   -0.0179    1.2533 H   0  0  0  0  0  0  0  0  0  0  0  0
    4.2772   -0.3933    3.0253 H   0  0  0  0  0  0  0  0  0  0  0  0
    5.0271   -1.9867    3.5333 H   0  0  0  0  0  0  0  0  0  0  0  0
    4.1556   -2.9958    1.4231 H   0  0  0  0  0  0  0  0  0  0  0  0
    3.4101   -1.3728    0.9641 H   0  0  0  0  0  0  0  0  0  0  0  0
    2.8767   -3.0105    3.4652 H   0  0  0  0  0  0  0  0  0  0  0  0
    1.8150   -2.9452    1.9591 H   0  0  0  0  0  0  0  0  0  0  0  0
    0.9958   -1.4623    3.9046 H   0  0  0  0  0  0  0  0  0  0  0  0
    2.5539   -0.6499    3.9297 H   0  0  0  0  0  0  0  0  0  0  0  0
    2.2775    0.1339    1.6081 H   0  0  0  0  0  0  0  0  0  0  0  0
    1.0576    0.7355    2.7735 H   0  0  0  0  0  0  0  0  0  0  0  0
   -1.2737   -1.6212    1.1136 H   0  0  0  0  0  0  0  0  0  0  0  0
   -0.4623   -2.0186    2.6228 H   0  0  0  0  0  0  0  0  0  0  0  0
   -0.8328    0.4906    3.3665 H   0  0  0  0  0  0  0  0  0  0  0  0
   -1.7868    0.7076    1.8989 H   0  0  0  0  0  0  0  0  0  0  0  0
   -3.2342    0.2557    3.7734 H   0  0  0  0  0  0  0  0  0  0  0  0
   -2.5157   -1.4121    4.0010 H   0  0  0  0  0  0  0  0  0  0  0  0
   -3.1584   -1.9322    1.6216 H   0  0  0  0  0  0  0  0  0  0  0  0
   -4.5446   -1.6148    2.6495 H   0  0  0  0  0  0  0  0  0  0  0  0
   -2.5463   -0.2364   -0.2345 H   0  0  0  0  0  0  0  0  0  0  0  0
   -3.3472    1.5620   -1.6519 H   0  0  0  0  0  0  0  0  0  0  0  0
   -5.3007    2.8248   -1.0294 H   0  0  0  0  0  0  0  0  0  0  0  0
   -5.7335    0.4855    2.5241 H   0  0  0  0  0  0  0  0  0  0  0  0
   -9.3345    2.4072    0.8772 H   0  0  0  0  0  0  0  0  0  0  0  0
   -7.5526    2.0746   -1.1455 H   0  0  0  0  0  0  0  0  0  0  0  0
   -7.6497   -0.0897   -1.8694 H   0  0  0  0  0  0  0  0  0  0  0  0
   -8.2603   -0.4919   -0.2388 H   0  0  0  0  0  0  0  0  0  0  0  0
  -10.6073   -0.1468   -0.9561 H   0  0  0  0  0  0  0  0  0  0  0  0
   -9.6958   -1.3699   -1.8960 H   0  0  0  0  0  0  0  0  0  0  0  0
  -11.1224    0.3969   -3.1796 H   0  0  0  0  0  0  0  0  0  0  0  0
   -9.5657   -0.1533   -3.8518 H   0  0  0  0  0  0  0  0  0  0  0  0
   -8.5622    1.8924   -3.3032 H   0  0  0  0  0  0  0  0  0  0  0  0
  -10.2721    2.4391   -3.5682 H   0  0  0  0  0  0  0  0  0  0  0  0
  -10.6241    2.0416   -1.1158 H   0  0  0  0  0  0  0  0  0  0  0  0
   -9.5422    3.4084   -1.3978 H   0  0  0  0  0  0  0  0  0  0  0  0
    6.7518   -1.9867   -3.0381 H   0  0  0  0  0  0  0  0  0  0  0  0
  1  2  1  0
  2  3  1  0
  3  4  2  0
  4  5  1  0
  5  6  2  0
  6  7  1  0
  7  8  2  0
  8  9  1  0
  5 10  1  0
 10 11  1  0
 11 12  1  0
 12 13  1  0
 13 14  1  0
 14 15  1  0
 15 16  1  0
 16 17  1  0
 17 18  1  0
 18 19  1  0
 19 20  1  0
 20 21  1  0
 21 22  1  0
 22 23  1  0
 23 24  1  0
 24 25  2  0
 25 26  1  0
 26 27  2  0
 27 28  1  0
 28 29  2  0
 28 30  1  0
 30 31  2  0
 30 32  2  0
 30 33  1  0
 33 34  1  0
 34 35  1  0
 35 36  1  0
 36 37  1  0
 37 38  1  0
 38 39  1  0
 10 40  1  0
  8  3  1  0
 29 24  1  0
 39 34  1  0
  1 41  1  0
  2 42  1  0
  2 43  1  0
  4 44  1  0
  6 45  1  0
  7 46  1  0
  9 47  1  0
 10 48  1  1
 11 49  1  0
 11 50  1  0
 12 51  1  0
 13 52  1  0
 13 53  1  0
 14 54  1  0
 14 55  1  0
 15 56  1  0
 15 57  1  0
 16 58  1  0
 16 59  1  0
 17 60  1  0
 17 61  1  0
 18 62  1  0
 18 63  1  0
 20 64  1  0
 20 65  1  0
 21 66  1  0
 21 67  1  0
 22 68  1  0
 22 69  1  0
 23 70  1  0
 23 71  1  0
 25 72  1  0
 26 73  1  0
 27 74  1  0
 29 75  1  0
 33 76  1  0
 34 77  1  0
 35 78  1  0
 35 79  1  0
 36 80  1  0
 36 81  1  0
 37 82  1  0
 37 83  1  0
 38 84  1  0
 38 85  1  0
 39 86  1  0
 39 87  1  0
 40 88  1  0
M  END
>  <Ligand ID>  (1) 
LIG0003067

>  <Ligand>  (1) 
CHEMBL500782

>  <SMILES>  (1) 
OCc1cc(ccc1O)[C@H](CNCCCCCCOCCCCc1cccc(c1)S(=O)(=O)NC1CCCCC1)O

>  <CID>  (1) 
42625823.0

>  <ChEMBL ID>  (1) 
nan

>  <InChiKey>  (1) 
KRUHXYQNFRROCO-HKBQPEDESA-N

>  <InChi>  (1) 
InChI=1S/C31H48N2O6S/c34-24-27-22-26(16-17-30(27)35)31(36)23-32-18-7-1-2-8-19-39-20-9-6-11-25-12-10-15-29(21-25)40(37,38)33-28-13-4-3-5-14-28/h10,12,15-17,21-22,28,31-36H,1-9,11,13-14,18-20,23-24H2/t31-/m0/s1

>  <IUPAC Name>  (1) 
N-cyclohexyl-3-[4-[6-[[(2R)-2-hydroxy-2-[4-hydroxy-3-(hydroxymethyl)phenyl]ethyl]amino]hexoxy]butyl]benzenesulfonamide

$$$$
