
     RDKit          3D

147151  0  0  0  0  0  0  0  0999 V2000
    8.2154    1.9810    1.6507 C   0  0  0  0  0  0  0  0  0  0  0  0
    8.4022    0.4560    1.4775 C   0  0  0  0  0  0  0  0  0  0  0  0
    7.1904   -0.2484    2.0006 C   0  0  0  0  0  0  0  0  0  0  0  0
    7.1853   -1.7314    1.9471 C   0  0  0  0  0  0  0  0  0  0  0  0
    7.3600   -2.4410    0.6764 C   0  0  1  0  0  0  0  0  0  0  0  0
    6.4747   -2.2578   -0.4436 C   0  0  0  0  0  0  0  0  0  0  0  0
    7.0371   -2.2876   -1.6164 O   0  0  0  0  0  0  0  0  0  0  0  0
    5.0763   -2.0512   -0.4800 N   0  0  0  0  0  0  0  0  0  0  0  0
    4.3028   -1.9127   -1.6843 C   0  0  1  0  0  0  0  0  0  0  0  0
    3.6051   -3.1206   -2.1258 C   0  0  0  0  0  0  0  0  0  0  0  0
    2.5001   -3.6965   -1.3239 C   0  0  0  0  0  0  0  0  0  0  0  0
    1.8100   -3.0970   -0.5074 O   0  0  0  0  0  0  0  0  0  0  0  0
    2.2276   -5.0613   -1.5265 N   0  0  0  0  0  0  0  0  0  0  0  0
    1.2674   -5.9735   -1.0205 C   0  0  0  0  0  0  0  0  0  0  0  0
   -0.1059   -5.7063   -1.4617 C   0  0  0  0  0  0  0  0  0  0  0  0
   -1.0770   -4.8665   -0.7002 C   0  0  0  0  0  0  0  0  0  0  0  0
   -2.2980   -4.7693   -1.6245 C   0  0  0  0  0  0  0  0  0  0  0  0
   -3.5937   -4.4442   -1.0600 C   0  0  2  0  0  0  0  0  0  0  0  0
   -3.8831   -3.3383   -0.2411 N   0  0  0  0  0  0  0  0  0  0  0  0
   -3.9197   -1.9442   -0.6038 C   0  0  0  0  0  0  0  0  0  0  0  0
   -3.4017   -1.6943   -1.7037 O   0  0  0  0  0  0  0  0  0  0  0  0
   -4.5235   -0.9641    0.3173 C   0  0  1  0  0  0  0  0  0  0  0  0
   -4.0455    0.3806    0.1000 N   0  0  0  0  0  0  0  0  0  0  0  0
   -4.1285    1.3279    1.2448 C   0  0  0  0  0  0  0  0  0  0  0  0
   -4.6212    0.7725    2.2294 O   0  0  0  0  0  0  0  0  0  0  0  0
   -3.6615    2.7060    1.1053 C   0  0  1  0  0  0  0  0  0  0  0  0
   -2.9823    2.7954   -0.2238 N   0  0  0  0  0  0  0  0  0  0  0  0
   -1.5701    2.7965   -0.2997 C   0  0  0  0  0  0  0  0  0  0  0  0
   -0.9609    2.7257    0.7762 O   0  0  0  0  0  0  0  0  0  0  0  0
   -0.7559    2.8734   -1.5389 C   0  0  2  0  0  0  0  0  0  0  0  0
    0.6666    2.7795   -1.1700 N   0  0  0  0  0  0  0  0  0  0  0  0
    1.5483    1.8105   -1.8100 C   0  0  0  0  0  0  0  0  0  0  0  0
    0.9853    1.1673   -2.6982 O   0  0  0  0  0  0  0  0  0  0  0  0
    2.9035    1.7564   -1.3194 C   0  0  1  0  0  0  0  0  0  0  0  0
    3.6771    0.5595   -1.2951 N   0  0  0  0  0  0  0  0  0  0  0  0
    3.4842   -0.7006   -1.8520 C   0  0  0  0  0  0  0  0  0  0  0  0
    2.4879   -0.8005   -2.6057 O   0  0  0  0  0  0  0  0  0  0  0  0
    4.8866    1.0312   -0.5881 C   0  0  0  0  0  0  0  0  0  0  0  0
    5.1429    2.3965   -1.2140 C   0  0  1  0  0  0  0  0  0  0  0  0
    3.9083    2.6481   -2.0813 C   0  0  0  0  0  0  0  0  0  0  0  0
    5.1177    3.4616   -0.2133 N   0  0  0  0  0  0  0  0  0  0  0  0
    5.4695    4.6543   -0.5662 C   0  0  0  0  0  0  0  0  0  0  0  0
    5.4835    5.7656    0.3192 N   0  0  0  0  0  0  0  0  0  0  0  0
    5.8782    4.9071   -1.9147 N   0  0  0  0  0  0  0  0  0  0  0  0
   -0.9956    4.1816   -2.2802 C   0  0  0  0  0  0  0  0  0  0  0  0
   -0.6577    5.3691   -1.4616 C   0  0  0  0  0  0  0  0  0  0  0  0
   -1.6341    5.9761   -0.6852 C   0  0  0  0  0  0  0  0  0  0  0  0
   -1.3735    7.0808    0.1009 C   0  0  0  0  0  0  0  0  0  0  0  0
   -0.0927    7.5950    0.1076 C   0  0  0  0  0  0  0  0  0  0  0  0
    0.9299    7.0288   -0.6519 C   0  0  0  0  0  0  0  0  0  0  0  0
    0.6017    5.9291   -1.4111 C   0  0  0  0  0  0  0  0  0  0  0  0
   -4.5627    3.8338    1.3017 C   0  0  0  0  0  0  0  0  0  0  0  0
   -5.1742    4.1006    2.5988 C   0  0  0  0  0  0  0  0  0  0  0  0
   -6.0567    3.1684    3.3099 C   0  0  0  0  0  0  0  0  0  0  0  0
   -7.2020    2.7402    2.5503 N   0  0  0  0  0  0  0  0  0  0  0  0
   -8.3542    3.3327    2.6703 C   0  0  0  0  0  0  0  0  0  0  0  0
   -8.4316    4.4181    3.5838 N   0  0  0  0  0  0  0  0  0  0  0  0
   -9.4737    2.9050    1.9168 N   0  0  0  0  0  0  0  0  0  0  0  0
   -6.0035   -0.8720   -0.2386 C   0  0  0  0  0  0  0  0  0  0  0  0
   -6.6736   -2.1566   -0.1808 C   0  0  0  0  0  0  0  0  0  0  0  0
   -6.8249   -3.0048   -1.2872 C   0  0  0  0  0  0  0  0  0  0  0  0
   -7.4880   -4.1111   -0.9239 N   0  0  0  0  0  0  0  0  0  0  0  0
   -7.7756   -4.0122    0.3924 C   0  0  0  0  0  0  0  0  0  0  0  0
   -7.2820   -2.8192    0.8620 C   0  0  0  0  0  0  0  0  0  0  0  0
   -7.4486   -2.4661    2.1907 C   0  0  0  0  0  0  0  0  0  0  0  0
   -8.1223   -3.3555    3.0006 C   0  0  0  0  0  0  0  0  0  0  0  0
   -8.6254   -4.5649    2.5297 C   0  0  0  0  0  0  0  0  0  0  0  0
   -8.4557   -4.9101    1.2080 C   0  0  0  0  0  0  0  0  0  0  0  0
   -4.3226   -5.6867   -0.5920 C   0  0  0  0  0  0  0  0  0  0  0  0
   -5.0471   -5.6759    0.4317 O   0  0  0  0  0  0  0  0  0  0  0  0
   -4.1852   -6.8993   -1.3265 N   0  0  0  0  0  0  0  0  0  0  0  0
    8.7694   -2.5070    0.2405 N   0  0  0  0  0  0  0  0  0  0  0  0
    9.5841   -3.6411    0.4991 C   0  0  0  0  0  0  0  0  0  0  0  0
    9.2040   -4.6676    1.1070 O   0  0  0  0  0  0  0  0  0  0  0  0
   11.0072   -3.6123    0.0080 C   0  0  0  0  0  0  0  0  0  0  0  0
    7.5539    2.3689    0.8550 H   0  0  0  0  0  0  0  0  0  0  0  0
    7.7043    2.1120    2.6335 H   0  0  0  0  0  0  0  0  0  0  0  0
    9.1909    2.4679    1.6222 H   0  0  0  0  0  0  0  0  0  0  0  0
    8.4373    0.3451    0.3674 H   0  0  0  0  0  0  0  0  0  0  0  0
    9.3426    0.1981    1.9556 H   0  0  0  0  0  0  0  0  0  0  0  0
    6.2493    0.2223    1.7086 H   0  0  0  0  0  0  0  0  0  0  0  0
    7.2233   -0.0090    3.1387 H   0  0  0  0  0  0  0  0  0  0  0  0
    6.2294   -2.0462    2.4821 H   0  0  0  0  0  0  0  0  0  0  0  0
    7.9863   -2.0588    2.7022 H   0  0  0  0  0  0  0  0  0  0  0  0
    7.1843   -3.5714    0.9787 H   0  0  0  0  0  0  0  0  0  0  0  0
    4.6025   -2.0014    0.4700 H   0  0  0  0  0  0  0  0  0  0  0  0
    5.1670   -1.8285   -2.5016 H   0  0  0  0  0  0  0  0  0  0  0  0
    3.1262   -2.9082   -3.1352 H   0  0  0  0  0  0  0  0  0  0  0  0
    4.3645   -3.9277   -2.3291 H   0  0  0  0  0  0  0  0  0  0  0  0
    2.9174   -5.5040   -2.2308 H   0  0  0  0  0  0  0  0  0  0  0  0
    1.3015   -5.9918    0.1292 H   0  0  0  0  0  0  0  0  0  0  0  0
    1.5071   -7.0384   -1.2806 H   0  0  0  0  0  0  0  0  0  0  0  0
   -0.1122   -5.2323   -2.5204 H   0  0  0  0  0  0  0  0  0  0  0  0
   -0.6496   -6.6929   -1.7117 H   0  0  0  0  0  0  0  0  0  0  0  0
   -0.7172   -3.8727   -0.4267 H   0  0  0  0  0  0  0  0  0  0  0  0
   -1.3441   -5.3842    0.2594 H   0  0  0  0  0  0  0  0  0  0  0  0
   -2.3318   -5.7220   -2.2550 H   0  0  0  0  0  0  0  0  0  0  0  0
   -2.0234   -3.9907   -2.4113 H   0  0  0  0  0  0  0  0  0  0  0  0
   -4.2207   -4.1770   -2.0401 H   0  0  0  0  0  0  0  0  0  0  0  0
   -4.0947   -3.4957    0.7632 H   0  0  0  0  0  0  0  0  0  0  0  0
   -4.5792   -1.2297    1.3629 H   0  0  0  0  0  0  0  0  0  0  0  0
   -3.6513    0.7961   -0.7233 H   0  0  0  0  0  0  0  0  0  0  0  0
   -2.7831    2.7693    1.8499 H   0  0  0  0  0  0  0  0  0  0  0  0
   -3.4878    2.8586   -1.0999 H   0  0  0  0  0  0  0  0  0  0  0  0
   -0.9992    2.0845   -2.2696 H   0  0  0  0  0  0  0  0  0  0  0  0
    1.1053    3.3623   -0.4714 H   0  0  0  0  0  0  0  0  0  0  0  0
    2.9551    2.2017   -0.2495 H   0  0  0  0  0  0  0  0  0  0  0  0
    4.5469    1.2345    0.4435 H   0  0  0  0  0  0  0  0  0  0  0  0
    5.7269    0.3791   -0.6228 H   0  0  0  0  0  0  0  0  0  0  0  0
    6.0460    2.4335   -1.8199 H   0  0  0  0  0  0  0  0  0  0  0  0
    4.0217    2.2951   -3.1045 H   0  0  0  0  0  0  0  0  0  0  0  0
    3.5310    3.6670   -2.0122 H   0  0  0  0  0  0  0  0  0  0  0  0
    4.6993    6.4489    0.3848 H   0  0  0  0  0  0  0  0  0  0  0  0
    6.2991    5.9337    0.9466 H   0  0  0  0  0  0  0  0  0  0  0  0
    6.6824    4.3777   -2.3544 H   0  0  0  0  0  0  0  0  0  0  0  0
    5.4101    5.6167   -2.5246 H   0  0  0  0  0  0  0  0  0  0  0  0
   -0.4179    4.1594   -3.2068 H   0  0  0  0  0  0  0  0  0  0  0  0
   -2.0723    4.1770   -2.5477 H   0  0  0  0  0  0  0  0  0  0  0  0
   -2.6116    5.5439   -0.7317 H   0  0  0  0  0  0  0  0  0  0  0  0
   -2.1606    7.5511    0.7152 H   0  0  0  0  0  0  0  0  0  0  0  0
    0.1493    8.4599    0.7161 H   0  0  0  0  0  0  0  0  0  0  0  0
    1.8912    7.4784   -0.5984 H   0  0  0  0  0  0  0  0  0  0  0  0
    1.4050    5.4957   -2.0003 H   0  0  0  0  0  0  0  0  0  0  0  0
   -5.3350    3.9046    0.4539 H   0  0  0  0  0  0  0  0  0  0  0  0
   -3.9374    4.7836    1.0704 H   0  0  0  0  0  0  0  0  0  0  0  0
   -5.7353    5.1154    2.5883 H   0  0  0  0  0  0  0  0  0  0  0  0
   -4.3566    4.3848    3.3775 H   0  0  0  0  0  0  0  0  0  0  0  0
   -6.5257    3.7638    4.2310 H   0  0  0  0  0  0  0  0  0  0  0  0
   -5.5555    2.3538    3.8052 H   0  0  0  0  0  0  0  0  0  0  0  0
   -8.5179    4.2827    4.6281 H   0  0  0  0  0  0  0  0  0  0  0  0
   -8.4082    5.4263    3.2860 H   0  0  0  0  0  0  0  0  0  0  0  0
  -10.0707    2.1473    2.2983 H   0  0  0  0  0  0  0  0  0  0  0  0
   -9.6868    3.3450    0.9997 H   0  0  0  0  0  0  0  0  0  0  0  0
   -6.4888   -0.0354    0.2567 H   0  0  0  0  0  0  0  0  0  0  0  0
   -5.8073   -0.5684   -1.2965 H   0  0  0  0  0  0  0  0  0  0  0  0
   -6.4736   -2.8313   -2.3053 H   0  0  0  0  0  0  0  0  0  0  0  0
   -7.7545   -4.9363   -1.5389 H   0  0  0  0  0  0  0  0  0  0  0  0
   -7.0514   -1.5356    2.5092 H   0  0  0  0  0  0  0  0  0  0  0  0
   -8.2745   -3.1086    4.0512 H   0  0  0  0  0  0  0  0  0  0  0  0
   -9.1376   -5.1917    3.2385 H   0  0  0  0  0  0  0  0  0  0  0  0
   -8.8362   -5.8407    0.8118 H   0  0  0  0  0  0  0  0  0  0  0  0
   -4.5784   -7.0120   -2.3080 H   0  0  0  0  0  0  0  0  0  0  0  0
   -3.6705   -7.6841   -0.8441 H   0  0  0  0  0  0  0  0  0  0  0  0
    9.2184   -1.7249   -0.2828 H   0  0  0  0  0  0  0  0  0  0  0  0
   11.6131   -4.4114    0.4903 H   0  0  0  0  0  0  0  0  0  0  0  0
   11.0580   -3.6963   -1.0950 H   0  0  0  0  0  0  0  0  0  0  0  0
   11.4132   -2.6285    0.3678 H   0  0  0  0  0  0  0  0  0  0  0  0
  1  2  1  0
  2  3  1  0
  3  4  1  0
  4  5  1  0
  5  6  1  0
  6  7  2  0
  6  8  1  0
  8  9  1  0
  9 10  1  0
 10 11  1  0
 11 12  2  0
 11 13  1  0
 13 14  1  0
 14 15  1  0
 15 16  1  0
 16 17  1  0
 17 18  1  0
 18 19  1  0
 19 20  1  0
 20 21  2  0
 20 22  1  0
 22 23  1  0
 23 24  1  0
 24 25  2  0
 24 26  1  0
 26 27  1  0
 27 28  1  0
 28 29  2  0
 28 30  1  0
 30 31  1  0
 31 32  1  0
 32 33  2  0
 32 34  1  0
 34 35  1  0
 35 36  1  0
 36 37  2  0
 35 38  1  0
 38 39  1  0
 39 40  1  0
 39 41  1  0
 41 42  2  3
 42 43  1  0
 42 44  1  0
 30 45  1  0
 45 46  1  0
 46 47  2  0
 47 48  1  0
 48 49  2  0
 49 50  1  0
 50 51  2  0
 26 52  1  0
 52 53  1  0
 53 54  1  0
 54 55  1  0
 55 56  2  3
 56 57  1  0
 56 58  1  0
 22 59  1  0
 59 60  1  0
 60 61  2  0
 61 62  1  0
 62 63  1  0
 63 64  2  0
 64 65  1  0
 65 66  2  0
 66 67  1  0
 67 68  2  0
 18 69  1  0
 69 70  2  0
 69 71  1  0
  5 72  1  0
 72 73  1  0
 73 74  2  0
 73 75  1  0
 36  9  1  0
 51 46  1  0
 64 60  1  0
 40 34  1  0
 68 63  1  0
  1 76  1  0
  1 77  1  0
  1 78  1  0
  2 79  1  0
  2 80  1  0
  3 81  1  0
  3 82  1  0
  4 83  1  0
  4 84  1  0
  5 85  1  1
  8 86  1  0
  9 87  1  6
 10 88  1  0
 10 89  1  0
 13 90  1  0
 14 91  1  0
 14 92  1  0
 15 93  1  0
 15 94  1  0
 16 95  1  0
 16 96  1  0
 17 97  1  0
 17 98  1  0
 18 99  1  6
 19100  1  0
 22101  1  1
 23102  1  0
 26103  1  1
 27104  1  0
 30105  1  6
 31106  1  0
 34107  1  1
 38108  1  0
 38109  1  0
 39110  1  6
 40111  1  0
 40112  1  0
 43113  1  0
 43114  1  0
 44115  1  0
 44116  1  0
 45117  1  0
 45118  1  0
 47119  1  0
 48120  1  0
 49121  1  0
 50122  1  0
 51123  1  0
 52124  1  0
 52125  1  0
 53126  1  0
 53127  1  0
 54128  1  0
 54129  1  0
 57130  1  0
 57131  1  0
 58132  1  0
 58133  1  0
 59134  1  0
 59135  1  0
 61136  1  0
 62137  1  0
 65138  1  0
 66139  1  0
 67140  1  0
 68141  1  0
 71142  1  0
 71143  1  0
 72144  1  0
 75145  1  0
 75146  1  0
 75147  1  0
M  END
>  <Ligand ID>  (1) 
LIG0001778

>  <Ligand>  (1) 
CHEMBL500743

>  <SMILES>  (1) 
CCCC[C@@H](C(=O)N[C@H]1CC(=O)NCCCC[C@H](NC(=O)[C@@H](NC(=O)[C@@H](NC(=O)[C@H](NC(=O)[C@H]2N(C1=O)C[C@@H](C2)N=C(N)N)Cc1ccccc1)CCCN=C(N)N)Cc1c[nH]c2c1cccc2)C(=O)N)NC(=O)C

>  <CID>  (1) 
44158168.0

>  <ChEMBL ID>  (1) 
nan

>  <InChiKey>  (1) 
UMHVNRYGRKBTCG-NEIMRPMKSA-N

>  <InChi>  (1) 
InChI=1S/C50H72N16O9/c1-3-4-16-35(59-28(2)67)43(70)65-39-25-41(68)56-20-11-10-18-34(42(51)69)61-46(73)38(23-30-26-58-33-17-9-8-15-32(30)33)63-44(71)36(19-12-21-57-49(52)53)62-45(72)37(22-29-13-6-5-7-14-29)64-47(74)40-24-31(60-50(54)55)27-66(40)48(39)75/h5-9,13-15,17,26,31,34-40,58H,3-4,10-12,16,18-25,27H2,1-2H3,(H2,51,69)(H,56,68)(H,59,67)(H,61,73)(H,62,72)(H,63,71)(H,64,74)(H,65,70)(H4,52,53,57)(H4,54,55,60)/t31-,34+,35+,36+,37-,38+,39+,40+/m1/s1

>  <IUPAC Name>  (1) 
(3S,11S,14S,17S,20R,23S,25R)-3-[[(2S)-2-acetamidohexanoyl]amino]-20-benzyl-25-(diaminomethylideneamino)-17-[3-(diaminomethylideneamino)propyl]-14-(1H-indol-3-ylmethyl)-2,5,13,16,19,22-hexaoxo-1,6,12,15,18,21-hexazabicyclo[21.3.0]hexacosane-11-carboxamide

$$$$
