
     RDKit          3D

 42 45  0  0  0  0  0  0  0  0999 V2000
   -3.2699   -2.2479   -0.1767 C   0  0  0  0  0  0  0  0  0  0  0  0
   -3.2261   -1.0307    0.7221 C   0  0  2  0  0  0  0  0  0  0  0  0
   -4.6069   -0.5566    1.1001 C   0  0  0  0  0  0  0  0  0  0  0  0
   -4.5128    0.9341    0.8822 C   0  0  0  0  0  0  0  0  0  0  0  0
   -3.6102    0.9761   -0.3472 C   0  0  1  0  0  0  0  0  0  0  0  0
   -2.5507    0.0982    0.1139 N   0  0  0  0  0  0  0  0  0  0  0  0
   -1.1454    0.2907    0.0007 C   0  0  0  0  0  0  0  0  0  0  0  0
   -0.6601    1.4275   -0.6104 C   0  0  0  0  0  0  0  0  0  0  0  0
    0.7073    1.5740   -0.6988 C   0  0  0  0  0  0  0  0  0  0  0  0
    1.5487    0.6048   -0.1871 C   0  0  0  0  0  0  0  0  0  0  0  0
    1.0146   -0.4812    0.3972 N   0  0  0  0  0  0  0  0  0  0  0  0
   -0.3153   -0.6387    0.4912 N   0  0  0  0  0  0  0  0  0  0  0  0
    2.9962    0.8100   -0.3074 C   0  0  0  0  0  0  0  0  0  0  0  0
    3.6629    1.8818   -0.8849 C   0  0  0  0  0  0  0  0  0  0  0  0
    4.9978    1.6654   -0.7792 N   0  0  0  0  0  0  0  0  0  0  0  0
    5.2176    0.4945   -0.1554 C   0  0  0  0  0  0  0  0  0  0  0  0
    3.9721   -0.0526    0.1461 C   0  0  0  0  0  0  0  0  0  0  0  0
    3.8845   -1.2801    0.8024 C   0  0  0  0  0  0  0  0  0  0  0  0
    5.0746   -1.9173    1.1340 C   0  0  0  0  0  0  0  0  0  0  0  0
    6.3098   -1.4043    0.8509 C   0  0  0  0  0  0  0  0  0  0  0  0
    6.3718   -0.1906    0.2021 C   0  0  0  0  0  0  0  0  0  0  0  0
   -4.2909    0.5025   -1.5902 C   0  0  0  0  0  0  0  0  0  0  0  0
   -4.3136   -2.5932   -0.3142 H   0  0  0  0  0  0  0  0  0  0  0  0
   -2.7974   -2.0904   -1.1610 H   0  0  0  0  0  0  0  0  0  0  0  0
   -2.7481   -3.1255    0.3059 H   0  0  0  0  0  0  0  0  0  0  0  0
   -2.7375   -1.3368    1.6784 H   0  0  0  0  0  0  0  0  0  0  0  0
   -4.8696   -0.7907    2.1666 H   0  0  0  0  0  0  0  0  0  0  0  0
   -5.4017   -0.9617    0.4160 H   0  0  0  0  0  0  0  0  0  0  0  0
   -3.9087    1.3277    1.7248 H   0  0  0  0  0  0  0  0  0  0  0  0
   -5.4770    1.4227    0.7419 H   0  0  0  0  0  0  0  0  0  0  0  0
   -3.2590    2.0081   -0.5411 H   0  0  0  0  0  0  0  0  0  0  0  0
   -1.2869    2.2064   -1.0221 H   0  0  0  0  0  0  0  0  0  0  0  0
    1.0983    2.4702   -1.1807 H   0  0  0  0  0  0  0  0  0  0  0  0
    3.1499    2.7288   -1.3335 H   0  0  0  0  0  0  0  0  0  0  0  0
    5.7244    2.3263   -1.1376 H   0  0  0  0  0  0  0  0  0  0  0  0
    2.9596   -1.7453    1.0577 H   0  0  0  0  0  0  0  0  0  0  0  0
    5.0155   -2.8674    1.6419 H   0  0  0  0  0  0  0  0  0  0  0  0
    7.2335   -1.9006    1.1091 H   0  0  0  0  0  0  0  0  0  0  0  0
    7.3463    0.2294   -0.0295 H   0  0  0  0  0  0  0  0  0  0  0  0
   -4.8374    1.3704   -2.0231 H   0  0  0  0  0  0  0  0  0  0  0  0
   -4.9817   -0.3306   -1.4776 H   0  0  0  0  0  0  0  0  0  0  0  0
   -3.4785    0.1928   -2.2947 H   0  0  0  0  0  0  0  0  0  0  0  0
  1  2  1  0
  2  3  1  0
  3  4  1  0
  4  5  1  0
  5  6  1  0
  6  7  1  0
  7  8  2  0
  8  9  1  0
  9 10  2  0
 10 11  1  0
 11 12  2  0
 10 13  1  0
 13 14  2  0
 14 15  1  0
 15 16  1  0
 16 17  2  0
 17 18  1  0
 18 19  2  0
 19 20  1  0
 20 21  2  0
  5 22  1  0
  6  2  1  0
 12  7  1  0
 17 13  1  0
 21 16  1  0
  1 23  1  0
  1 24  1  0
  1 25  1  0
  2 26  1  1
  3 27  1  0
  3 28  1  0
  4 29  1  0
  4 30  1  0
  5 31  1  6
  8 32  1  0
  9 33  1  0
 14 34  1  0
 15 35  1  0
 18 36  1  0
 19 37  1  0
 20 38  1  0
 21 39  1  0
 22 40  1  0
 22 41  1  0
 22 42  1  0
M  END
>  <Ligand ID>  (1) 
LIG0005240

>  <Ligand>  (1) 
CHEMBL595244

>  <SMILES>  (1) 
C[C@@H]1CC[C@@H](N1c1ccc(nn1)c1c[nH]c2c1cccc2)C

>  <CID>  (1) 
46226112.0

>  <ChEMBL ID>  (1) 
nan

>  <InChiKey>  (1) 
PFZMCDNBEBHNGO-BETUJISGSA-N

>  <InChi>  (1) 
InChI=1S/C18H20N4/c1-12-7-8-13(2)22(12)18-10-9-17(20-21-18)15-11-19-16-6-4-3-5-14(15)16/h3-6,9-13,19H,7-8H2,1-2H3/t12-,13+

>  <IUPAC Name>  (1) 
3-[6-[(2S,5R)-2,5-dimethylpyrrolidin-1-yl]pyridazin-3-yl]-1H-indole

$$$$
