
     RDKit          3D

 95 98  0  0  0  0  0  0  0  0999 V2000
    3.2099    0.4680   -2.5022 O   0  0  0  0  0  0  0  0  0  0  0  0
    3.6600    0.6958   -1.3429 C   0  0  0  0  0  0  0  0  0  0  0  0
    5.1320    0.5564   -1.0657 C   0  0  1  0  0  0  0  0  0  0  0  0
    5.3619    0.8799    0.2910 N   0  0  0  0  0  0  0  0  0  0  0  0
    6.5288    0.3979    0.9263 C   0  0  0  0  0  0  0  0  0  0  0  0
    7.4696   -0.1772   -0.1406 C   0  0  0  0  0  0  0  0  0  0  0  0
    6.7351   -1.2627   -0.7314 N   0  0  0  0  0  0  0  0  0  0  0  0
    5.5258   -0.8371   -1.4594 C   0  0  0  0  0  0  0  0  0  0  0  0
    7.0105   -2.6295   -0.6923 C   0  0  0  0  0  0  0  0  0  0  0  0
    6.1952   -3.4153   -1.3259 O   0  0  0  0  0  0  0  0  0  0  0  0
    8.1146   -3.3366   -0.0235 C   0  0  1  0  0  0  0  0  0  0  0  0
    8.9932   -2.4987    0.7356 N   0  0  0  0  0  0  0  0  0  0  0  0
    7.4659   -4.3211    0.9712 C   0  0  0  0  0  0  0  0  0  0  0  0
    2.7718    1.0764   -0.3323 N   0  0  0  0  0  0  0  0  0  0  0  0
    1.3336    1.2394   -0.5074 C   0  0  1  0  0  0  0  0  0  0  0  0
    0.6320    0.2777    0.3693 C   0  0  0  0  0  0  0  0  0  0  0  0
    1.3547   -0.4449    1.1221 O   0  0  0  0  0  0  0  0  0  0  0  0
   -0.7693    0.0988    0.4357 N   0  0  0  0  0  0  0  0  0  0  0  0
   -1.2566   -0.8944    1.3778 C   0  0  0  0  0  0  0  0  0  0  0  0
   -2.3893   -1.6399    0.7671 C   0  0  0  0  0  0  0  0  0  0  0  0
   -3.4725   -0.6889    0.2243 C   0  0  0  0  0  0  0  0  0  0  0  0
   -2.8319    0.0648   -0.8866 C   0  0  0  0  0  0  0  0  0  0  0  0
   -1.6366    0.8871   -0.4143 C   0  0  0  0  0  0  0  0  0  0  0  0
   -3.9211    0.1593    1.3675 C   0  0  0  0  0  0  0  0  0  0  0  0
   -4.9762    1.1738    1.0606 C   0  0  0  0  0  0  0  0  0  0  0  0
   -4.9070    2.2051    2.1937 C   0  0  0  0  0  0  0  0  0  0  0  0
   -5.0913    1.5085    3.4987 C   0  0  0  0  0  0  0  0  0  0  0  0
   -5.4865    0.0820    3.3152 C   0  0  0  0  0  0  0  0  0  0  0  0
   -4.4534   -0.6795    2.5281 C   0  0  0  0  0  0  0  0  0  0  0  0
   -4.5387   -1.5570   -0.3342 C   0  0  0  0  0  0  0  0  0  0  0  0
   -4.4267   -2.8119   -0.2332 O   0  0  0  0  0  0  0  0  0  0  0  0
   -5.6982   -1.0579   -0.9875 N   0  0  0  0  0  0  0  0  0  0  0  0
   -6.6478   -2.0520   -1.4740 C   0  0  0  0  0  0  0  0  0  0  0  0
   -7.1630   -2.9016   -0.3067 C   0  0  0  0  0  0  0  0  0  0  0  0
   -7.9012   -1.3662   -2.0225 C   0  0  0  0  0  0  0  0  0  0  0  0
   -6.0640   -2.9698   -2.5010 C   0  0  0  0  0  0  0  0  0  0  0  0
    1.0406    2.6426    0.0004 C   0  0  0  0  0  0  0  0  0  0  0  0
    1.8007    3.6584   -0.7872 C   0  0  0  0  0  0  0  0  0  0  0  0
    3.0704    4.0668   -0.4234 C   0  0  0  0  0  0  0  0  0  0  0  0
    3.8037    4.9883   -1.1114 C   0  0  0  0  0  0  0  0  0  0  0  0
    3.2626    5.5577   -2.2400 C   0  0  0  0  0  0  0  0  0  0  0  0
    1.9994    5.1763   -2.6343 C   0  0  0  0  0  0  0  0  0  0  0  0
    1.2688    4.2366   -1.9207 C   0  0  0  0  0  0  0  0  0  0  0  0
    4.0047    6.4741   -2.9160 F   0  0  0  0  0  0  0  0  0  0  0  0
    5.6682    1.3015   -1.7097 H   0  0  0  0  0  0  0  0  0  0  0  0
    5.0804    1.8148    0.5892 H   0  0  0  0  0  0  0  0  0  0  0  0
    6.3695   -0.3327    1.7426 H   0  0  0  0  0  0  0  0  0  0  0  0
    7.0884    1.2962    1.3153 H   0  0  0  0  0  0  0  0  0  0  0  0
    8.4291   -0.3817    0.2950 H   0  0  0  0  0  0  0  0  0  0  0  0
    7.6315    0.6468   -0.8865 H   0  0  0  0  0  0  0  0  0  0  0  0
    5.8025   -0.8344   -2.5272 H   0  0  0  0  0  0  0  0  0  0  0  0
    4.7136   -1.5613   -1.3160 H   0  0  0  0  0  0  0  0  0  0  0  0
    8.6696   -3.9935   -0.7384 H   0  0  0  0  0  0  0  0  0  0  0  0
    8.7300   -2.3227    1.7117 H   0  0  0  0  0  0  0  0  0  0  0  0
   10.0046   -2.7693    0.6329 H   0  0  0  0  0  0  0  0  0  0  0  0
    8.2519   -4.8409    1.5584 H   0  0  0  0  0  0  0  0  0  0  0  0
    6.8884   -5.0487    0.4001 H   0  0  0  0  0  0  0  0  0  0  0  0
    6.7840   -3.7494    1.6494 H   0  0  0  0  0  0  0  0  0  0  0  0
    3.1175    1.2737    0.6530 H   0  0  0  0  0  0  0  0  0  0  0  0
    1.0012    1.0569   -1.5300 H   0  0  0  0  0  0  0  0  0  0  0  0
   -1.4925   -0.4448    2.3644 H   0  0  0  0  0  0  0  0  0  0  0  0
   -0.4559   -1.6367    1.5841 H   0  0  0  0  0  0  0  0  0  0  0  0
   -2.0015   -2.2907   -0.0332 H   0  0  0  0  0  0  0  0  0  0  0  0
   -2.8768   -2.2984    1.5145 H   0  0  0  0  0  0  0  0  0  0  0  0
   -3.4993    0.8005   -1.3790 H   0  0  0  0  0  0  0  0  0  0  0  0
   -2.4562   -0.5895   -1.6985 H   0  0  0  0  0  0  0  0  0  0  0  0
   -1.0866    1.2816   -1.2986 H   0  0  0  0  0  0  0  0  0  0  0  0
   -2.0722    1.7505    0.1334 H   0  0  0  0  0  0  0  0  0  0  0  0
   -3.0616    0.7173    1.7945 H   0  0  0  0  0  0  0  0  0  0  0  0
   -6.0192    0.7933    1.1120 H   0  0  0  0  0  0  0  0  0  0  0  0
   -4.7715    1.7653    0.1303 H   0  0  0  0  0  0  0  0  0  0  0  0
   -5.6131    3.0391    1.9989 H   0  0  0  0  0  0  0  0  0  0  0  0
   -3.8519    2.5920    2.1568 H   0  0  0  0  0  0  0  0  0  0  0  0
   -4.1392    1.4939    4.1043 H   0  0  0  0  0  0  0  0  0  0  0  0
   -5.8690    2.0665    4.0951 H   0  0  0  0  0  0  0  0  0  0  0  0
   -6.5128    0.0140    2.9178 H   0  0  0  0  0  0  0  0  0  0  0  0
   -5.5391   -0.4178    4.3177 H   0  0  0  0  0  0  0  0  0  0  0  0
   -3.6564   -0.9856    3.2361 H   0  0  0  0  0  0  0  0  0  0  0  0
   -4.8880   -1.6193    2.1552 H   0  0  0  0  0  0  0  0  0  0  0  0
   -5.8326   -0.0325   -1.1018 H   0  0  0  0  0  0  0  0  0  0  0  0
   -7.1072   -2.2513    0.5959 H   0  0  0  0  0  0  0  0  0  0  0  0
   -8.2330   -3.1586   -0.4370 H   0  0  0  0  0  0  0  0  0  0  0  0
   -6.6064   -3.8428   -0.1934 H   0  0  0  0  0  0  0  0  0  0  0  0
   -7.7168   -0.7867   -2.9247 H   0  0  0  0  0  0  0  0  0  0  0  0
   -8.5822   -2.1990   -2.3126 H   0  0  0  0  0  0  0  0  0  0  0  0
   -8.4222   -0.8306   -1.2128 H   0  0  0  0  0  0  0  0  0  0  0  0
   -6.2111   -4.0359   -2.2361 H   0  0  0  0  0  0  0  0  0  0  0  0
   -4.9553   -2.7670   -2.5276 H   0  0  0  0  0  0  0  0  0  0  0  0
   -6.5150   -2.8370   -3.5045 H   0  0  0  0  0  0  0  0  0  0  0  0
    1.4783    2.6753    1.0385 H   0  0  0  0  0  0  0  0  0  0  0  0
   -0.0014    2.9282    0.0049 H   0  0  0  0  0  0  0  0  0  0  0  0
    3.5124    3.6327    0.4590 H   0  0  0  0  0  0  0  0  0  0  0  0
    4.8066    5.2561   -0.7536 H   0  0  0  0  0  0  0  0  0  0  0  0
    1.6158    5.6541   -3.5318 H   0  0  0  0  0  0  0  0  0  0  0  0
    0.2884    3.9787   -2.2762 H   0  0  0  0  0  0  0  0  0  0  0  0
  1  2  2  0
  2  3  1  0
  3  4  1  0
  4  5  1  0
  5  6  1  0
  6  7  1  0
  7  8  1  0
  7  9  1  0
  9 10  2  0
  9 11  1  0
 11 12  1  0
 11 13  1  0
  2 14  1  0
 14 15  1  0
 15 16  1  0
 16 17  2  0
 16 18  1  0
 18 19  1  0
 19 20  1  0
 20 21  1  0
 21 22  1  0
 22 23  1  0
 21 24  1  0
 24 25  1  0
 25 26  1  0
 26 27  1  0
 27 28  1  0
 28 29  1  0
 21 30  1  0
 30 31  2  0
 30 32  1  0
 32 33  1  0
 33 34  1  0
 33 35  1  0
 33 36  1  0
 15 37  1  0
 37 38  1  0
 38 39  2  0
 39 40  1  0
 40 41  2  0
 41 42  1  0
 42 43  2  0
 41 44  1  0
  8  3  1  0
 23 18  1  0
 29 24  1  0
 43 38  1  0
  3 45  1  6
  4 46  1  0
  5 47  1  0
  5 48  1  0
  6 49  1  0
  6 50  1  0
  8 51  1  0
  8 52  1  0
 11 53  1  6
 12 54  1  0
 12 55  1  0
 13 56  1  0
 13 57  1  0
 13 58  1  0
 14 59  1  0
 15 60  1  6
 19 61  1  0
 19 62  1  0
 20 63  1  0
 20 64  1  0
 22 65  1  0
 22 66  1  0
 23 67  1  0
 23 68  1  0
 24 69  1  0
 25 70  1  0
 25 71  1  0
 26 72  1  0
 26 73  1  0
 27 74  1  0
 27 75  1  0
 28 76  1  0
 28 77  1  0
 29 78  1  0
 29 79  1  0
 32 80  1  0
 34 81  1  0
 34 82  1  0
 34 83  1  0
 35 84  1  0
 35 85  1  0
 35 86  1  0
 36 87  1  0
 36 88  1  0
 36 89  1  0
 37 90  1  0
 37 91  1  0
 39 92  1  0
 40 93  1  0
 42 94  1  0
 43 95  1  0
M  END
>  <Ligand ID>  (1) 
LIG0005165

>  <Ligand>  (1) 
CHEMBL1184624

>  <SMILES>  (1) 
O=C([C@H]1NCCN(C1)C(=O)[C@@H](N)C)N[C@@H](C(=O)N1CCC(CC1)(C1CCCCC1)C(=O)NC(C)(C)C)Cc1ccc(cc1)F

>  <CID>  (1) 
44391940.0

>  <ChEMBL ID>  (1) 
nan

>  <InChiKey>  (1) 
XZKBSIVDFMHENZ-FDJWOJMMSA-N

>  <InChi>  (1) 
InChI=1S/C33H51FN6O4/c1-22(35)29(42)40-19-16-36-27(21-40)28(41)37-26(20-23-10-12-25(34)13-11-23)30(43)39-17-14-33(15-18-39,24-8-6-5-7-9-24)31(44)38-32(2,3)4/h10-13,22,24,26-27,36H,5-9,14-21,35H2,1-4H3,(H,37,41)(H,38,44)/t22-,26+,27-/m0/s1

>  <IUPAC Name>  (1) 
(2S)-4-[(2S)-2-aminopropanoyl]-N-[(2R)-1-[4-(tert-butylcarbamoyl)-4-cyclohexylpiperidin-1-yl]-3-(4-fluorophenyl)-1-oxopropan-2-yl]piperazine-2-carboxamide

$$$$
