
     RDKit          3D

 29 28  0  0  0  0  0  0  0  0999 V2000
   -4.5654   -0.8170   -0.0818 C   0  0  0  0  0  0  0  0  0  0  0  0
   -3.0927   -0.6429   -0.4589 C   0  0  0  0  0  0  0  0  0  0  0  0
   -2.6553    0.6831    0.1225 C   0  0  0  0  0  0  0  0  0  0  0  0
   -1.1997    0.9717   -0.1867 C   0  0  0  0  0  0  0  0  0  0  0  0
   -0.2826   -0.0786    0.3736 C   0  0  0  0  0  0  0  0  0  0  0  0
    1.1511    0.3183   -0.0001 C   0  0  0  0  0  0  0  0  0  0  0  0
    2.0367   -0.7392    0.5675 C   0  0  0  0  0  0  0  0  0  0  0  0
    3.4771   -0.5019    0.2909 C   0  0  0  0  0  0  0  0  0  0  0  0
    3.9080    0.5507   -0.3936 C   0  0  0  0  0  0  0  0  0  0  0  0
    5.3315    0.6859   -0.6060 C   0  0  0  0  0  0  0  0  0  0  0  0
    6.1022   -0.2021   -0.1318 O   0  0  0  0  0  0  0  0  0  0  0  0
   -4.8788   -1.8517   -0.3045 H   0  0  0  0  0  0  0  0  0  0  0  0
   -4.6763   -0.6695    1.0236 H   0  0  0  0  0  0  0  0  0  0  0  0
   -5.2146   -0.0958   -0.5999 H   0  0  0  0  0  0  0  0  0  0  0  0
   -3.0494   -0.6465   -1.5611 H   0  0  0  0  0  0  0  0  0  0  0  0
   -2.5421   -1.5014   -0.0534 H   0  0  0  0  0  0  0  0  0  0  0  0
   -3.2493    1.4636   -0.4282 H   0  0  0  0  0  0  0  0  0  0  0  0
   -2.9149    0.7511    1.1788 H   0  0  0  0  0  0  0  0  0  0  0  0
   -1.1104    0.8944   -1.3076 H   0  0  0  0  0  0  0  0  0  0  0  0
   -0.9599    1.9902    0.1300 H   0  0  0  0  0  0  0  0  0  0  0  0
   -0.5536   -1.0473   -0.0715 H   0  0  0  0  0  0  0  0  0  0  0  0
   -0.3199   -0.1365    1.4755 H   0  0  0  0  0  0  0  0  0  0  0  0
    1.1842    0.3851   -1.1029 H   0  0  0  0  0  0  0  0  0  0  0  0
    1.3412    1.2849    0.4971 H   0  0  0  0  0  0  0  0  0  0  0  0
    1.7790   -1.6931    0.0317 H   0  0  0  0  0  0  0  0  0  0  0  0
    1.8011   -0.8965    1.6222 H   0  0  0  0  0  0  0  0  0  0  0  0
    4.1681   -1.2411    0.6811 H   0  0  0  0  0  0  0  0  0  0  0  0
    3.2054    1.2756   -0.7739 H   0  0  0  0  0  0  0  0  0  0  0  0
    5.7794    1.5067   -1.1498 H   0  0  0  0  0  0  0  0  0  0  0  0
  1  2  1  0
  2  3  1  0
  3  4  1  0
  4  5  1  0
  5  6  1  0
  6  7  1  0
  7  8  1  0
  8  9  2  0
  9 10  1  0
 10 11  2  0
  1 12  1  0
  1 13  1  0
  1 14  1  0
  2 15  1  0
  2 16  1  0
  3 17  1  0
  3 18  1  0
  4 19  1  0
  4 20  1  0
  5 21  1  0
  5 22  1  0
  6 23  1  0
  6 24  1  0
  7 25  1  0
  7 26  1  0
  8 27  1  0
  9 28  1  0
 10 29  1  0
M  END
>  <Ligand ID>  (1) 
LIG0000037

>  <Ligand>  (1) 
2-decenal

>  <SMILES>  (1) 
CCCCCCC/C=C/C=O

>  <CID>  (1) 
5283345.0

>  <ChEMBL ID>  (1) 
nan

>  <InChiKey>  (1) 
MMFCJPPRCYDLLZ-CMDGGOBGSA-N

>  <InChi>  (1) 
InChI=1S/C10H18O/c1-2-3-4-5-6-7-8-9-10-11/h8-10H,2-7H2,1H3/b9-8+

>  <IUPAC Name>  (1) 
(E)-dec-2-enal

$$$$
