
     RDKit          3D

115118  0  0  0  0  0  0  0  0999 V2000
    3.9026    0.1940   -0.3973 O   0  0  0  0  0  0  0  0  0  0  0  0
    3.8256   -0.1328   -1.6138 C   0  0  0  0  0  0  0  0  0  0  0  0
    2.5741   -0.2736   -2.2673 N   0  0  0  0  0  0  0  0  0  0  0  0
    1.3941   -0.0043   -1.4005 C   0  0  2  0  0  0  0  0  0  0  0  0
    0.3981   -1.0500   -1.6642 C   0  0  0  0  0  0  0  0  0  0  0  0
    0.2541   -1.5674   -2.7825 O   0  0  0  0  0  0  0  0  0  0  0  0
   -0.4339   -1.5185   -0.6008 N   0  0  0  0  0  0  0  0  0  0  0  0
   -1.4185   -2.5416   -0.7055 C   0  0  0  0  0  0  0  0  0  0  0  0
   -2.5927   -2.1620   -1.5356 C   0  0  0  0  0  0  0  0  0  0  0  0
   -3.3243   -1.0501   -0.8364 C   0  0  0  0  0  0  0  0  0  0  0  0
   -2.6509   -0.3380   -0.0363 O   0  0  0  0  0  0  0  0  0  0  0  0
   -4.7243   -0.8146   -1.0681 N   0  0  0  0  0  0  0  0  0  0  0  0
   -5.4901   -1.5954   -1.9731 C   0  0  0  0  0  0  0  0  0  0  0  0
   -5.6176   -1.2919   -3.3168 C   0  0  0  0  0  0  0  0  0  0  0  0
   -6.3649   -2.0368   -4.1978 C   0  0  0  0  0  0  0  0  0  0  0  0
   -7.0399   -3.1554   -3.7561 C   0  0  0  0  0  0  0  0  0  0  0  0
   -6.9399   -3.4946   -2.4240 C   0  0  0  0  0  0  0  0  0  0  0  0
   -6.1863   -2.7368   -1.5564 C   0  0  0  0  0  0  0  0  0  0  0  0
   -5.3089    0.2897   -0.2893 C   0  0  0  0  0  0  0  0  0  0  0  0
   -6.1543   -0.2423    0.8402 C   0  0  0  0  0  0  0  0  0  0  0  0
   -7.6562   -0.1033    0.5931 C   0  0  0  0  0  0  0  0  0  0  0  0
   -7.9995    1.1641    0.1105 N   0  0  0  0  0  0  0  0  0  0  0  0
   -7.3656    1.5496   -1.0894 C   0  0  0  0  0  0  0  0  0  0  0  0
   -5.8873    1.3753   -1.0922 C   0  0  0  0  0  0  0  0  0  0  0  0
   -8.8231    2.0434    0.7992 C   0  0  0  0  0  0  0  0  0  0  0  0
  -10.2605    1.6707    0.8344 C   0  0  0  0  0  0  0  0  0  0  0  0
  -10.5264    0.3720    1.4526 C   0  0  0  0  0  0  0  0  0  0  0  0
  -10.6328    0.2924    2.8313 C   0  0  0  0  0  0  0  0  0  0  0  0
  -10.9286   -0.9366    3.4345 C   0  0  0  0  0  0  0  0  0  0  0  0
  -11.1177   -2.0766    2.6829 C   0  0  0  0  0  0  0  0  0  0  0  0
  -11.0127   -1.9984    1.3232 C   0  0  0  0  0  0  0  0  0  0  0  0
  -10.7255   -0.8060    0.7384 C   0  0  0  0  0  0  0  0  0  0  0  0
    0.9099    1.3336   -1.8982 C   0  0  0  0  0  0  0  0  0  0  0  0
   -0.2481    1.9299   -1.3090 C   0  0  0  0  0  0  0  0  0  0  0  0
   -0.1792    2.6174   -0.1271 C   0  0  0  0  0  0  0  0  0  0  0  0
   -1.2670    3.2786    0.4262 C   0  0  0  0  0  0  0  0  0  0  0  0
   -2.4527    3.2141   -0.2823 C   0  0  0  0  0  0  0  0  0  0  0  0
   -2.5784    2.5429   -1.4660 C   0  0  0  0  0  0  0  0  0  0  0  0
   -1.4601    1.8900   -1.9873 C   0  0  0  0  0  0  0  0  0  0  0  0
    5.1333   -0.3539   -2.3086 C   0  0  0  0  0  0  0  0  0  0  0  0
    6.2191   -0.0674   -1.3678 N   0  0  0  0  0  0  0  0  0  0  0  0
    6.2634    1.2593   -0.8726 C   0  0  0  0  0  0  0  0  0  0  0  0
    5.3791    2.0963   -1.2843 O   0  0  0  0  0  0  0  0  0  0  0  0
    7.2406    1.7896    0.0907 C   0  0  2  0  0  0  0  0  0  0  0  0
    8.2532    0.8590    0.5195 N   0  0  0  0  0  0  0  0  0  0  0  0
    9.6054    1.3114    0.4665 C   0  0  0  0  0  0  0  0  0  0  0  0
    9.8042    2.4885    0.0438 O   0  0  0  0  0  0  0  0  0  0  0  0
   10.7744    0.5263    0.8620 C   0  0  2  0  0  0  0  0  0  0  0  0
   10.7018    0.0236    2.2815 C   0  0  0  0  0  0  0  0  0  0  0  0
   11.9102   -0.7511    2.6444 C   0  0  0  0  0  0  0  0  0  0  0  0
   12.0524   -2.1031    2.4573 C   0  0  0  0  0  0  0  0  0  0  0  0
   13.2320   -2.7547    2.8392 C   0  0  0  0  0  0  0  0  0  0  0  0
   14.2770   -2.0794    3.4069 C   0  0  0  0  0  0  0  0  0  0  0  0
   14.1368   -0.7184    3.5963 C   0  0  0  0  0  0  0  0  0  0  0  0
   12.9868   -0.0649    3.2271 C   0  0  0  0  0  0  0  0  0  0  0  0
   15.4502   -2.7428    3.7841 O   0  0  0  0  0  0  0  0  0  0  0  0
   11.9473    1.3481    0.6496 N   0  0  0  0  0  0  0  0  0  0  0  0
    6.4149    2.2626    1.2873 C   0  0  0  0  0  0  0  0  0  0  0  0
    0.6829    0.0000    0.0000 Cl  0  0  0  0  0  0  0  0  0  0  0  0
    2.4826   -0.5392   -3.2586 H   0  0  0  0  0  0  0  0  0  0  0  0
    1.7305    0.0406   -0.3580 H   0  0  0  0  0  0  0  0  0  0  0  0
   -0.2946   -1.0583    0.3300 H   0  0  0  0  0  0  0  0  0  0  0  0
   -1.8066   -2.8148    0.3151 H   0  0  0  0  0  0  0  0  0  0  0  0
   -0.9682   -3.4511   -1.1891 H   0  0  0  0  0  0  0  0  0  0  0  0
   -2.2083   -1.8052   -2.5320 H   0  0  0  0  0  0  0  0  0  0  0  0
   -3.2482   -3.0103   -1.7488 H   0  0  0  0  0  0  0  0  0  0  0  0
   -5.1064   -0.4247   -3.7427 H   0  0  0  0  0  0  0  0  0  0  0  0
   -6.4554   -1.7841   -5.2517 H   0  0  0  0  0  0  0  0  0  0  0  0
   -7.6209   -3.7251   -4.4590 H   0  0  0  0  0  0  0  0  0  0  0  0
   -7.4699   -4.3770   -2.0666 H   0  0  0  0  0  0  0  0  0  0  0  0
   -6.1577   -3.0771   -0.5278 H   0  0  0  0  0  0  0  0  0  0  0  0
   -4.3877    0.7003    0.2612 H   0  0  0  0  0  0  0  0  0  0  0  0
   -5.9476   -1.3073    1.0111 H   0  0  0  0  0  0  0  0  0  0  0  0
   -5.9569    0.3026    1.7985 H   0  0  0  0  0  0  0  0  0  0  0  0
   -8.1105   -0.2768    1.5947 H   0  0  0  0  0  0  0  0  0  0  0  0
   -8.0094   -0.9243   -0.0685 H   0  0  0  0  0  0  0  0  0  0  0  0
   -7.5812    2.6525   -1.2306 H   0  0  0  0  0  0  0  0  0  0  0  0
   -7.8661    1.0534   -1.9567 H   0  0  0  0  0  0  0  0  0  0  0  0
   -5.5276    1.2591   -2.1427 H   0  0  0  0  0  0  0  0  0  0  0  0
   -5.4541    2.3648   -0.7512 H   0  0  0  0  0  0  0  0  0  0  0  0
   -8.4991    2.2117    1.8751 H   0  0  0  0  0  0  0  0  0  0  0  0
   -8.7929    3.0974    0.3665 H   0  0  0  0  0  0  0  0  0  0  0  0
  -10.6625    1.6426   -0.2190 H   0  0  0  0  0  0  0  0  0  0  0  0
  -10.8791    2.4772    1.3402 H   0  0  0  0  0  0  0  0  0  0  0  0
  -10.4962    1.1499    3.4810 H   0  0  0  0  0  0  0  0  0  0  0  0
  -11.0180   -1.0298    4.5177 H   0  0  0  0  0  0  0  0  0  0  0  0
  -11.3453   -3.0345    3.1136 H   0  0  0  0  0  0  0  0  0  0  0  0
  -11.1480   -2.8564    0.6568 H   0  0  0  0  0  0  0  0  0  0  0  0
  -10.6309   -0.6907   -0.3523 H   0  0  0  0  0  0  0  0  0  0  0  0
    0.7288    1.1666   -3.0118 H   0  0  0  0  0  0  0  0  0  0  0  0
    1.7419    2.0942   -1.8530 H   0  0  0  0  0  0  0  0  0  0  0  0
    0.7621    2.6541    0.4108 H   0  0  0  0  0  0  0  0  0  0  0  0
   -1.2284    3.8227    1.3516 H   0  0  0  0  0  0  0  0  0  0  0  0
   -3.3367    3.7192    0.1130 H   0  0  0  0  0  0  0  0  0  0  0  0
   -3.4688    2.4728   -2.0596 H   0  0  0  0  0  0  0  0  0  0  0  0
   -1.5594    1.3464   -2.9387 H   0  0  0  0  0  0  0  0  0  0  0  0
    5.2144    0.2079   -3.2532 H   0  0  0  0  0  0  0  0  0  0  0  0
    5.1856   -1.4373   -2.5155 H   0  0  0  0  0  0  0  0  0  0  0  0
    6.9201   -0.7460   -1.0603 H   0  0  0  0  0  0  0  0  0  0  0  0
    7.6647    2.7315   -0.3311 H   0  0  0  0  0  0  0  0  0  0  0  0
    8.0772   -0.0878    0.8536 H   0  0  0  0  0  0  0  0  0  0  0  0
   10.8734   -0.3560    0.1645 H   0  0  0  0  0  0  0  0  0  0  0  0
    9.7672   -0.5446    2.4749 H   0  0  0  0  0  0  0  0  0  0  0  0
   10.6598    0.9195    2.9471 H   0  0  0  0  0  0  0  0  0  0  0  0
   11.2624   -2.6598    2.0204 H   0  0  0  0  0  0  0  0  0  0  0  0
   13.3010   -3.8233    2.6728 H   0  0  0  0  0  0  0  0  0  0  0  0
   14.9425   -0.1243    4.0489 H   0  0  0  0  0  0  0  0  0  0  0  0
   12.8897    1.0075    3.3828 H   0  0  0  0  0  0  0  0  0  0  0  0
   16.1758   -2.1932    4.2709 H   0  0  0  0  0  0  0  0  0  0  0  0
   12.8328    0.9149    0.9784 H   0  0  0  0  0  0  0  0  0  0  0  0
   11.8175    2.2322    1.1860 H   0  0  0  0  0  0  0  0  0  0  0  0
    6.9987    2.9679    1.9201 H   0  0  0  0  0  0  0  0  0  0  0  0
    5.5788    2.8569    0.8640 H   0  0  0  0  0  0  0  0  0  0  0  0
    5.9625    1.4226    1.8409 H   0  0  0  0  0  0  0  0  0  0  0  0
   -0.6829    0.0000    0.0000 H   0  0  0  0  0  0  0  0  0  0  0  0
  1  2  2  0
  2  3  1  0
  3  4  1  0
  4  5  1  0
  5  6  2  0
  5  7  1  0
  7  8  1  0
  8  9  1  0
  9 10  1  0
 10 11  2  0
 10 12  1  0
 12 13  1  0
 13 14  2  0
 14 15  1  0
 15 16  2  0
 16 17  1  0
 17 18  2  0
 12 19  1  0
 19 20  1  0
 20 21  1  0
 21 22  1  0
 22 23  1  0
 23 24  1  0
 22 25  1  0
 25 26  1  0
 26 27  1  0
 27 28  2  0
 28 29  1  0
 29 30  2  0
 30 31  1  0
 31 32  2  0
  4 33  1  0
 33 34  1  0
 34 35  2  0
 35 36  1  0
 36 37  2  0
 37 38  1  0
 38 39  2  0
  2 40  1  0
 40 41  1  0
 41 42  1  0
 42 43  2  0
 42 44  1  0
 44 45  1  0
 45 46  1  0
 46 47  2  0
 46 48  1  0
 48 49  1  0
 49 50  1  0
 50 51  2  0
 51 52  1  0
 52 53  2  0
 53 54  1  0
 54 55  2  0
 53 56  1  0
 48 57  1  0
 44 58  1  0
 18 13  1  0
 24 19  1  0
 32 27  1  0
 39 34  1  0
 55 50  1  0
  3 60  1  0
  4 61  1  1
  7 62  1  0
  8 63  1  0
  8 64  1  0
  9 65  1  0
  9 66  1  0
 14 67  1  0
 15 68  1  0
 16 69  1  0
 17 70  1  0
 18 71  1  0
 19 72  1  0
 20 73  1  0
 20 74  1  0
 21 75  1  0
 21 76  1  0
 23 77  1  0
 23 78  1  0
 24 79  1  0
 24 80  1  0
 25 81  1  0
 25 82  1  0
 26 83  1  0
 26 84  1  0
 28 85  1  0
 29 86  1  0
 30 87  1  0
 31 88  1  0
 32 89  1  0
 33 90  1  0
 33 91  1  0
 35 92  1  0
 36 93  1  0
 37 94  1  0
 38 95  1  0
 39 96  1  0
 40 97  1  0
 40 98  1  0
 41 99  1  0
 44100  1  6
 45101  1  0
 48102  1  6
 49103  1  0
 49104  1  0
 51105  1  0
 52106  1  0
 54107  1  0
 55108  1  0
 56109  1  0
 57110  1  0
 57111  1  0
 58112  1  0
 58113  1  0
 58114  1  0
 59115  1  0
M  END
>  <Ligand ID>  (1) 
LIG0005396

>  <Ligand>  (1) 
CHEMBL2387337

>  <SMILES>  (1) 
O=C(N[C@H](C(=O)NCCC(=O)N(c1ccccc1)C1CCN(CC1)CCc1ccccc1)Cc1ccccc1)CNC(=O)[C@H](NC(=O)[C@H](Cc1ccc(cc1)O)N)C.Cl

>  <CID>  (1) 
73345883.0

>  <ChEMBL ID>  (1) 
nan

>  <InChiKey>  (1) 
NBIFFUUTIJLCTP-LJSWWFPMSA-N

>  <InChi>  (1) 
InChI=1S/C45H55N7O6.ClH/c1-32(49-44(57)39(46)29-35-17-19-38(53)20-18-35)43(56)48-31-41(54)50-40(30-34-13-7-3-8-14-34)45(58)47-25-21-42(55)52(36-15-9-4-10-16-36)37-23-27-51(28-24-37)26-22-33-11-5-2-6-12-33;/h2-20,32,37,39-40,53H,21-31,46H2,1H3,(H,47,58)(H,48,56)(H,49,57)(H,50,54);1H/t32-,39+,40+;/m1./s1

>  <IUPAC Name>  (1) 
(2S)-2-amino-3-(4-hydroxyphenyl)-N-[(2R)-1-oxo-1-[[2-oxo-2-[[(2S)-1-oxo-1-[[3-oxo-3-(N-[1-(2-phenylethyl)piperidin-4-yl]anilino)propyl]amino]-3-phenylpropan-2-yl]amino]ethyl]amino]propan-2-yl]propanamide;hydrochloride

$$$$
