
     RDKit          3D

128132  0  0  0  0  0  0  0  0999 V2000
   -8.2288    1.6871   -1.3850 C   0  0  0  0  0  0  0  0  0  0  0  0
   -7.3592    2.8567   -0.9311 C   0  0  0  0  0  0  0  0  0  0  0  0
   -5.9749    2.3197   -0.5772 C   0  0  0  0  0  0  0  0  0  0  0  0
   -5.3985    1.6889   -1.8010 C   0  0  0  0  0  0  0  0  0  0  0  0
   -4.0653    1.0955   -1.6286 C   0  0  2  0  0  0  0  0  0  0  0  0
   -3.9886    0.0255   -0.6183 N   0  0  0  0  0  0  0  0  0  0  0  0
   -3.0208   -0.9729   -0.8466 C   0  0  0  0  0  0  0  0  0  0  0  0
   -2.3396   -0.8711   -1.8743 O   0  0  0  0  0  0  0  0  0  0  0  0
   -2.7371   -2.1407    0.0455 C   0  0  2  0  0  0  0  0  0  0  0  0
   -2.6087   -1.6223    1.4741 C   0  0  0  0  0  0  0  0  0  0  0  0
   -2.3343   -2.7136    2.4616 C   0  0  0  0  0  0  0  0  0  0  0  0
   -3.4122   -3.7520    2.5174 C   0  0  0  0  0  0  0  0  0  0  0  0
   -3.0046   -4.7954    3.5538 C   0  0  0  0  0  0  0  0  0  0  0  0
   -1.4764   -2.6406   -0.4486 N   0  0  0  0  0  0  0  0  0  0  0  0
   -1.1045   -3.9821   -0.7103 C   0  0  0  0  0  0  0  0  0  0  0  0
   -1.9387   -4.8464   -0.4683 O   0  0  0  0  0  0  0  0  0  0  0  0
    0.2641   -4.1848   -1.2456 C   0  0  0  0  0  0  0  0  0  0  0  0
    0.8040   -5.5646   -1.2470 C   0  0  0  0  0  0  0  0  0  0  0  0
    2.2364   -5.4225   -1.8080 C   0  0  2  0  0  0  0  0  0  0  0  0
    2.9446   -4.4018   -1.0649 N   0  0  0  0  0  0  0  0  0  0  0  0
    3.1867   -3.0805   -1.4646 C   0  0  0  0  0  0  0  0  0  0  0  0
    2.6846   -2.7842   -2.6054 O   0  0  0  0  0  0  0  0  0  0  0  0
    3.8893   -1.9774   -0.8165 C   0  0  1  0  0  0  0  0  0  0  0  0
    3.4321   -0.7478   -1.4316 N   0  0  0  0  0  0  0  0  0  0  0  0
    2.9028    0.3803   -0.7657 C   0  0  0  0  0  0  0  0  0  0  0  0
    2.7962    0.3062    0.4616 O   0  0  0  0  0  0  0  0  0  0  0  0
    2.4709    1.6269   -1.5361 C   0  0  1  0  0  0  0  0  0  0  0  0
    1.5744    2.3434   -0.6111 N   0  0  0  0  0  0  0  0  0  0  0  0
    0.1997    2.0284   -0.7424 C   0  0  0  0  0  0  0  0  0  0  0  0
   -0.1039    1.2219   -1.6263 O   0  0  0  0  0  0  0  0  0  0  0  0
   -0.9087    2.5799    0.0936 C   0  0  2  0  0  0  0  0  0  0  0  0
   -2.1102    1.8446   -0.2606 N   0  0  0  0  0  0  0  0  0  0  0  0
   -2.9382    2.0621   -1.3897 C   0  0  0  0  0  0  0  0  0  0  0  0
   -2.6797    3.0275   -2.1000 O   0  0  0  0  0  0  0  0  0  0  0  0
   -1.0194    4.0678    0.0392 C   0  0  0  0  0  0  0  0  0  0  0  0
   -2.0557    4.6562    0.8918 C   0  0  0  0  0  0  0  0  0  0  0  0
   -1.6943    4.9112    2.2247 C   0  0  0  0  0  0  0  0  0  0  0  0
   -2.5603    5.4627    3.1321 C   0  0  0  0  0  0  0  0  0  0  0  0
   -3.8383    5.7770    2.7099 C   0  0  0  0  0  0  0  0  0  0  0  0
   -4.2456    5.5526    1.4274 C   0  0  0  0  0  0  0  0  0  0  0  0
   -3.3289    4.9901    0.5411 C   0  0  0  0  0  0  0  0  0  0  0  0
   -5.5325    5.8751    1.0352 C   0  0  0  0  0  0  0  0  0  0  0  0
   -6.4260    6.4351    1.9549 C   0  0  0  0  0  0  0  0  0  0  0  0
   -5.9551    6.6404    3.2452 C   0  0  0  0  0  0  0  0  0  0  0  0
   -4.6856    6.3265    3.6465 C   0  0  0  0  0  0  0  0  0  0  0  0
    3.6378    2.4178   -1.9734 C   0  0  0  0  0  0  0  0  0  0  0  0
    4.4984    2.9134   -0.8325 C   0  0  0  0  0  0  0  0  0  0  0  0
    5.6469    3.6920   -1.4386 C   0  0  0  0  0  0  0  0  0  0  0  0
    6.4223    2.8001   -2.3152 N   0  0  0  0  0  0  0  0  0  0  0  0
    6.6089    3.0987   -3.5532 C   0  0  0  0  0  0  0  0  0  0  0  0
    7.3403    2.2824   -4.4282 N   0  0  0  0  0  0  0  0  0  0  0  0
    6.0465    4.3104   -4.0650 N   0  0  0  0  0  0  0  0  0  0  0  0
    4.0352   -1.9643    0.6572 C   0  0  0  0  0  0  0  0  0  0  0  0
    4.8429   -3.0638    1.2345 C   0  0  0  0  0  0  0  0  0  0  0  0
    5.7403   -3.9274    0.6373 C   0  0  0  0  0  0  0  0  0  0  0  0
    6.3019   -4.7454    1.5393 N   0  0  0  0  0  0  0  0  0  0  0  0
    5.7699   -4.4131    2.7163 C   0  0  0  0  0  0  0  0  0  0  0  0
    4.8705   -3.3883    2.5819 C   0  0  0  0  0  0  0  0  0  0  0  0
    4.2297   -2.9044    3.7150 C   0  0  0  0  0  0  0  0  0  0  0  0
    4.4672   -3.4199    4.9826 C   0  0  0  0  0  0  0  0  0  0  0  0
    5.3885   -4.4552    5.0564 C   0  0  0  0  0  0  0  0  0  0  0  0
    6.0441   -4.9673    3.9720 C   0  0  0  0  0  0  0  0  0  0  0  0
    2.3015   -5.4070   -3.2568 C   0  0  0  0  0  0  0  0  0  0  0  0
    2.9884   -4.7046   -4.0225 O   0  0  0  0  0  0  0  0  0  0  0  0
    1.4314   -6.3554   -3.9437 N   0  0  0  0  0  0  0  0  0  0  0  0
   -7.9920    0.8049   -0.7514 H   0  0  0  0  0  0  0  0  0  0  0  0
   -8.1029    1.4867   -2.4680 H   0  0  0  0  0  0  0  0  0  0  0  0
   -9.2834    1.9480   -1.2100 H   0  0  0  0  0  0  0  0  0  0  0  0
   -7.8571    3.3700   -0.1048 H   0  0  0  0  0  0  0  0  0  0  0  0
   -7.2900    3.5440   -1.8167 H   0  0  0  0  0  0  0  0  0  0  0  0
   -5.3753    3.1307   -0.1760 H   0  0  0  0  0  0  0  0  0  0  0  0
   -6.1061    1.5462    0.2077 H   0  0  0  0  0  0  0  0  0  0  0  0
   -6.1487    0.9932   -2.2340 H   0  0  0  0  0  0  0  0  0  0  0  0
   -5.2973    2.5151   -2.5651 H   0  0  0  0  0  0  0  0  0  0  0  0
   -3.7406    0.6320   -2.6170 H   0  0  0  0  0  0  0  0  0  0  0  0
   -4.5601   -0.0498    0.2066 H   0  0  0  0  0  0  0  0  0  0  0  0
   -3.5274   -2.8752    0.0674 H   0  0  0  0  0  0  0  0  0  0  0  0
   -1.8108   -0.8556    1.5841 H   0  0  0  0  0  0  0  0  0  0  0  0
   -3.5695   -1.1620    1.7456 H   0  0  0  0  0  0  0  0  0  0  0  0
   -2.3166   -2.2225    3.4708 H   0  0  0  0  0  0  0  0  0  0  0  0
   -1.3443   -3.1840    2.3515 H   0  0  0  0  0  0  0  0  0  0  0  0
   -3.6227   -4.2795    1.5892 H   0  0  0  0  0  0  0  0  0  0  0  0
   -4.3778   -3.3113    2.8586 H   0  0  0  0  0  0  0  0  0  0  0  0
   -2.0044   -5.1857    3.2141 H   0  0  0  0  0  0  0  0  0  0  0  0
   -2.8863   -4.3531    4.5714 H   0  0  0  0  0  0  0  0  0  0  0  0
   -3.7057   -5.6646    3.5532 H   0  0  0  0  0  0  0  0  0  0  0  0
   -0.7441   -1.9363   -0.6323 H   0  0  0  0  0  0  0  0  0  0  0  0
    0.9110   -3.4824   -0.6600 H   0  0  0  0  0  0  0  0  0  0  0  0
    0.2231   -3.8272   -2.3046 H   0  0  0  0  0  0  0  0  0  0  0  0
    0.1964   -6.1617   -1.9715 H   0  0  0  0  0  0  0  0  0  0  0  0
    0.7812   -6.0719   -0.2815 H   0  0  0  0  0  0  0  0  0  0  0  0
    2.7699   -6.4039   -1.5233 H   0  0  0  0  0  0  0  0  0  0  0  0
    3.2793   -4.6650   -0.1327 H   0  0  0  0  0  0  0  0  0  0  0  0
    4.9954   -2.0177   -1.2329 H   0  0  0  0  0  0  0  0  0  0  0  0
    3.4922   -0.6767   -2.4508 H   0  0  0  0  0  0  0  0  0  0  0  0
    1.9466    1.1992   -2.4023 H   0  0  0  0  0  0  0  0  0  0  0  0
    1.8408    3.0140    0.0798 H   0  0  0  0  0  0  0  0  0  0  0  0
   -0.7045    2.3474    1.1817 H   0  0  0  0  0  0  0  0  0  0  0  0
   -2.4099    1.0873    0.3627 H   0  0  0  0  0  0  0  0  0  0  0  0
   -0.0277    4.4642    0.3759 H   0  0  0  0  0  0  0  0  0  0  0  0
   -1.1198    4.4540   -0.9989 H   0  0  0  0  0  0  0  0  0  0  0  0
   -0.6958    4.6758    2.5879 H   0  0  0  0  0  0  0  0  0  0  0  0
   -2.2382    5.6452    4.1569 H   0  0  0  0  0  0  0  0  0  0  0  0
   -3.6814    4.8359   -0.4576 H   0  0  0  0  0  0  0  0  0  0  0  0
   -5.8702    5.7030    0.0180 H   0  0  0  0  0  0  0  0  0  0  0  0
   -7.4304    6.6957    1.6794 H   0  0  0  0  0  0  0  0  0  0  0  0
   -6.6871    7.0792    3.9301 H   0  0  0  0  0  0  0  0  0  0  0  0
   -4.3681    6.5045    4.6503 H   0  0  0  0  0  0  0  0  0  0  0  0
    4.3059    1.7972   -2.6103 H   0  0  0  0  0  0  0  0  0  0  0  0
    3.3169    3.2947   -2.5714 H   0  0  0  0  0  0  0  0  0  0  0  0
    4.8490    2.1020   -0.1975 H   0  0  0  0  0  0  0  0  0  0  0  0
    3.8676    3.6798   -0.3065 H   0  0  0  0  0  0  0  0  0  0  0  0
    5.2650    4.5236   -2.0516 H   0  0  0  0  0  0  0  0  0  0  0  0
    6.3120    4.0873   -0.6380 H   0  0  0  0  0  0  0  0  0  0  0  0
    8.1330    2.7371   -4.9560 H   0  0  0  0  0  0  0  0  0  0  0  0
    7.1472    1.2520   -4.5874 H   0  0  0  0  0  0  0  0  0  0  0  0
    6.4914    5.1996   -3.7524 H   0  0  0  0  0  0  0  0  0  0  0  0
    5.2181    4.2802   -4.7268 H   0  0  0  0  0  0  0  0  0  0  0  0
    4.5824   -1.0124    0.9362 H   0  0  0  0  0  0  0  0  0  0  0  0
    3.0470   -1.8958    1.1888 H   0  0  0  0  0  0  0  0  0  0  0  0
    5.9127   -3.8839   -0.4472 H   0  0  0  0  0  0  0  0  0  0  0  0
    7.0039   -5.4668    1.2713 H   0  0  0  0  0  0  0  0  0  0  0  0
    3.5150   -2.0994    3.6358 H   0  0  0  0  0  0  0  0  0  0  0  0
    3.9807   -3.0537    5.8710 H   0  0  0  0  0  0  0  0  0  0  0  0
    5.5617   -4.8436    6.0599 H   0  0  0  0  0  0  0  0  0  0  0  0
    6.7668   -5.7916    4.0752 H   0  0  0  0  0  0  0  0  0  0  0  0
    1.6127   -7.3785   -3.8983 H   0  0  0  0  0  0  0  0  0  0  0  0
    0.6475   -5.9046   -4.4602 H   0  0  0  0  0  0  0  0  0  0  0  0
  1  2  1  0
  2  3  1  0
  3  4  1  0
  4  5  1  0
  5  6  1  0
  6  7  1  0
  7  8  2  0
  7  9  1  0
  9 10  1  0
 10 11  1  0
 11 12  1  0
 12 13  1  0
  9 14  1  0
 14 15  1  0
 15 16  2  0
 15 17  1  0
 17 18  1  0
 18 19  1  0
 19 20  1  0
 20 21  1  0
 21 22  2  0
 21 23  1  0
 23 24  1  0
 24 25  1  0
 25 26  2  0
 25 27  1  0
 27 28  1  0
 28 29  1  0
 29 30  2  0
 29 31  1  0
 31 32  1  0
 32 33  1  0
 33 34  2  0
 31 35  1  0
 35 36  1  0
 36 37  2  0
 37 38  1  0
 38 39  2  0
 39 40  1  0
 40 41  2  0
 40 42  1  0
 42 43  2  0
 43 44  1  0
 44 45  2  0
 27 46  1  0
 46 47  1  0
 47 48  1  0
 48 49  1  0
 49 50  2  3
 50 51  1  0
 50 52  1  0
 23 53  1  0
 53 54  1  0
 54 55  2  0
 55 56  1  0
 56 57  1  0
 57 58  2  0
 58 59  1  0
 59 60  2  0
 60 61  1  0
 61 62  2  0
 19 63  1  0
 63 64  2  0
 63 65  1  0
 33  5  1  0
 41 36  1  0
 58 54  1  0
 45 39  1  0
 62 57  1  0
  1 66  1  0
  1 67  1  0
  1 68  1  0
  2 69  1  0
  2 70  1  0
  3 71  1  0
  3 72  1  0
  4 73  1  0
  4 74  1  0
  5 75  1  6
  6 76  1  0
  9 77  1  1
 10 78  1  0
 10 79  1  0
 11 80  1  0
 11 81  1  0
 12 82  1  0
 12 83  1  0
 13 84  1  0
 13 85  1  0
 13 86  1  0
 14 87  1  0
 17 88  1  0
 17 89  1  0
 18 90  1  0
 18 91  1  0
 19 92  1  1
 20 93  1  0
 23 94  1  6
 24 95  1  0
 27 96  1  6
 28 97  1  0
 31 98  1  1
 32 99  1  0
 35100  1  0
 35101  1  0
 37102  1  0
 38103  1  0
 41104  1  0
 42105  1  0
 43106  1  0
 44107  1  0
 45108  1  0
 46109  1  0
 46110  1  0
 47111  1  0
 47112  1  0
 48113  1  0
 48114  1  0
 51115  1  0
 51116  1  0
 52117  1  0
 52118  1  0
 53119  1  0
 53120  1  0
 55121  1  0
 56122  1  0
 59123  1  0
 60124  1  0
 61125  1  0
 62126  1  0
 65127  1  0
 65128  1  0
M  END
>  <Ligand ID>  (1) 
LIG0001846

>  <Ligand>  (1) 
CHEMBL204864

>  <SMILES>  (1) 
CCCC[C@@H]1NC(=O)[C@H](CCCC)NC(=O)CC[C@H](NC(=O)[C@@H](NC(=O)[C@@H](NC(=O)[C@H](NC1=O)Cc1ccc2c(c1)cccc2)CCCN=C(N)N)Cc1c[nH]c2c1cccc2)C(=O)N

>  <CID>  (1) 
11700739.0

>  <ChEMBL ID>  (1) 
nan

>  <InChiKey>  (1) 
TYFFXNLNRYRUAU-LFSOJSGESA-N

>  <InChi>  (1) 
InChI=1S/C47H63N11O7/c1-3-5-15-35-42(61)55-36(16-6-4-2)43(62)57-38(25-28-19-20-29-12-7-8-13-30(29)24-28)45(64)56-37(18-11-23-51-47(49)50)44(63)58-39(26-31-27-52-33-17-10-9-14-32(31)33)46(65)54-34(41(48)60)21-22-40(59)53-35/h7-10,12-14,17,19-20,24,27,34-39,52H,3-6,11,15-16,18,21-23,25-26H2,1-2H3,(H2,48,60)(H,53,59)(H,54,65)(H,55,61)(H,56,64)(H,57,62)(H,58,63)(H4,49,50,51)/t34-,35-,36-,37-,38+,39-/m0/s1

>  <IUPAC Name>  (1) 
(2S,5S,8R,11S,14S,17S)-2,5-dibutyl-11-[3-(diaminomethylideneamino)propyl]-14-(1H-indol-3-ylmethyl)-8-(naphthalen-2-ylmethyl)-3,6,9,12,15,20-hexaoxo-1,4,7,10,13,16-hexazacycloicosane-17-carboxamide

$$$$
