
     RDKit          3D

 36 36  0  0  0  0  0  0  0  0999 V2000
    3.6966    1.9976   -0.8077 C   0  0  0  0  0  0  0  0  0  0  0  0
    4.3229    0.7036   -0.3825 C   0  0  0  0  0  0  0  0  0  0  0  0
    3.3722   -0.0352    0.5310 C   0  0  0  0  0  0  0  0  0  0  0  0
    2.1050   -0.3106   -0.2267 C   0  0  0  0  0  0  0  0  0  0  0  0
    1.0854   -1.0496    0.6137 C   0  0  0  0  0  0  0  0  0  0  0  0
   -0.1279   -1.2653   -0.2679 C   0  0  0  0  0  0  0  0  0  0  0  0
   -1.2317   -1.9712    0.4071 C   0  0  0  0  0  0  0  0  0  0  0  0
   -2.4243   -1.4885    0.6312 C   0  0  0  0  0  0  0  0  0  0  0  0
   -2.8924   -0.1650    0.2618 C   0  0  0  0  0  0  0  0  0  0  0  0
   -4.1348   -0.0433   -0.3216 C   0  0  0  0  0  0  0  0  0  0  0  0
   -4.6783    1.1701   -0.6910 C   0  0  0  0  0  0  0  0  0  0  0  0
   -3.9719    2.3163   -0.4786 C   0  0  0  0  0  0  0  0  0  0  0  0
   -2.7212    2.2017    0.1084 C   0  0  0  0  0  0  0  0  0  0  0  0
   -2.1797    0.9931    0.4766 C   0  0  0  0  0  0  0  0  0  0  0  0
   -0.9438   -3.3491    0.8644 C   0  0  0  0  0  0  0  0  0  0  0  0
    0.1729   -3.8942    0.6922 O   0  0  0  0  0  0  0  0  0  0  0  0
    2.9199    1.7948   -1.5512 H   0  0  0  0  0  0  0  0  0  0  0  0
    3.2776    2.4752    0.1113 H   0  0  0  0  0  0  0  0  0  0  0  0
    4.4302    2.6817   -1.2928 H   0  0  0  0  0  0  0  0  0  0  0  0
    4.5827    0.0554   -1.2701 H   0  0  0  0  0  0  0  0  0  0  0  0
    5.2643    0.9135    0.1670 H   0  0  0  0  0  0  0  0  0  0  0  0
    3.1652    0.6247    1.3962 H   0  0  0  0  0  0  0  0  0  0  0  0
    3.8294   -1.0040    0.8367 H   0  0  0  0  0  0  0  0  0  0  0  0
    2.3646   -0.8728   -1.1421 H   0  0  0  0  0  0  0  0  0  0  0  0
    1.6210    0.6362   -0.5262 H   0  0  0  0  0  0  0  0  0  0  0  0
    1.5201   -2.0093    0.9460 H   0  0  0  0  0  0  0  0  0  0  0  0
    0.7916   -0.4666    1.5105 H   0  0  0  0  0  0  0  0  0  0  0  0
   -0.4080   -0.3543   -0.7922 H   0  0  0  0  0  0  0  0  0  0  0  0
    0.2370   -1.9620   -1.0930 H   0  0  0  0  0  0  0  0  0  0  0  0
   -3.1683   -2.1181    1.1472 H   0  0  0  0  0  0  0  0  0  0  0  0
   -4.7423   -0.9173   -0.5153 H   0  0  0  0  0  0  0  0  0  0  0  0
   -5.6756    1.2303   -1.1565 H   0  0  0  0  0  0  0  0  0  0  0  0
   -4.3645    3.3045   -0.7578 H   0  0  0  0  0  0  0  0  0  0  0  0
   -2.1886    3.1473    0.2596 H   0  0  0  0  0  0  0  0  0  0  0  0
   -1.2104    0.9775    0.9409 H   0  0  0  0  0  0  0  0  0  0  0  0
   -1.6951   -3.9472    1.3716 H   0  0  0  0  0  0  0  0  0  0  0  0
  1  2  1  0
  2  3  1  0
  3  4  1  0
  4  5  1  0
  5  6  1  0
  6  7  1  0
  7  8  2  3
  8  9  1  0
  9 10  2  0
 10 11  1  0
 11 12  2  0
 12 13  1  0
 13 14  2  0
  7 15  1  0
 15 16  2  0
 14  9  1  0
  1 17  1  0
  1 18  1  0
  1 19  1  0
  2 20  1  0
  2 21  1  0
  3 22  1  0
  3 23  1  0
  4 24  1  0
  4 25  1  0
  5 26  1  0
  5 27  1  0
  6 28  1  0
  6 29  1  0
  8 30  1  0
 10 31  1  0
 11 32  1  0
 12 33  1  0
 13 34  1  0
 14 35  1  0
 15 36  1  0
M  END
>  <Ligand ID>  (1) 
LIG0000623

>  <Ligand>  (1) 
2-benzylideneoctanal

>  <SMILES>  (1) 
CCCCCCC(=Cc1ccccc1)C=O

>  <CID>  (1) 
7585.0

>  <ChEMBL ID>  (1) 
nan

>  <InChiKey>  (1) 
GUUHFMWKWLOQMM-UHFFFAOYSA-N

>  <InChi>  (1) 
InChI=1S/C15H20O/c1-2-3-4-6-11-15(13-16)12-14-9-7-5-8-10-14/h5,7-10,12-13H,2-4,6,11H2,1H3

>  <IUPAC Name>  (1) 
2-benzylideneoctanal

$$$$
