
     RDKit          3D

 18 18  0  0  0  0  0  0  0  0999 V2000
    2.5914   -0.7008    0.2127 C   0  0  0  0  0  0  0  0  0  0  0  0
    1.4912    0.2912    0.1235 C   0  0  0  0  0  0  0  0  0  0  0  0
    1.8168    1.5058    0.1590 O   0  0  0  0  0  0  0  0  0  0  0  0
    0.1090   -0.1577    0.0011 C   0  0  0  0  0  0  0  0  0  0  0  0
   -0.1683   -1.4737   -0.0308 N   0  0  0  0  0  0  0  0  0  0  0  0
   -1.4113   -1.9807   -0.1415 C   0  0  0  0  0  0  0  0  0  0  0  0
   -2.4444   -1.0697   -0.2254 C   0  0  0  0  0  0  0  0  0  0  0  0
   -2.1691    0.2461   -0.1936 N   0  0  0  0  0  0  0  0  0  0  0  0
   -0.9185    0.7512   -0.0823 C   0  0  0  0  0  0  0  0  0  0  0  0
   -0.6582    2.2147   -0.0510 C   0  0  0  0  0  0  0  0  0  0  0  0
    3.1390   -0.6750   -0.7522 H   0  0  0  0  0  0  0  0  0  0  0  0
    2.1914   -1.7302    0.4001 H   0  0  0  0  0  0  0  0  0  0  0  0
    3.2722   -0.4760    1.0708 H   0  0  0  0  0  0  0  0  0  0  0  0
   -1.5537   -3.0539   -0.1603 H   0  0  0  0  0  0  0  0  0  0  0  0
   -3.4557   -1.4543   -0.3153 H   0  0  0  0  0  0  0  0  0  0  0  0
   -0.1872    2.4764    0.9069 H   0  0  0  0  0  0  0  0  0  0  0  0
    0.0018    2.5671   -0.8650 H   0  0  0  0  0  0  0  0  0  0  0  0
   -1.6463    2.7195   -0.0566 H   0  0  0  0  0  0  0  0  0  0  0  0
  1  2  1  0
  2  3  2  0
  2  4  1  0
  4  5  2  0
  5  6  1  0
  6  7  2  0
  7  8  1  0
  8  9  2  0
  9 10  1  0
  9  4  1  0
  1 11  1  0
  1 12  1  0
  1 13  1  0
  6 14  1  0
  7 15  1  0
 10 16  1  0
 10 17  1  0
 10 18  1  0
M  END
>  <Ligand ID>  (1) 
LIG0000294

>  <Ligand>  (1) 
2-Acetyl-3-methylpyrazine

>  <SMILES>  (1) 
CC(=O)c1nccnc1C

>  <CID>  (1) 
32093.0

>  <ChEMBL ID>  (1) 
nan

>  <InChiKey>  (1) 
QUNOTZOHYZZWKQ-UHFFFAOYSA-N

>  <InChi>  (1) 
InChI=1S/C7H8N2O/c1-5-7(6(2)10)9-4-3-8-5/h3-4H,1-2H3

>  <IUPAC Name>  (1) 
1-(3-methylpyrazin-2-yl)ethanone

$$$$
