
     RDKit          3D

100104  0  0  0  0  0  0  0  0999 V2000
    4.5121    7.2648   -1.4287 N   0  0  0  0  0  0  0  0  0  0  0  0
    4.0077    6.6944   -0.2102 C   0  0  0  0  0  0  0  0  0  0  0  0
    3.5263    5.5116   -0.2130 N   0  0  0  0  0  0  0  0  0  0  0  0
    2.9885    4.8328    0.9563 C   0  0  0  0  0  0  0  0  0  0  0  0
    2.7583    3.3584    0.6247 C   0  0  0  0  0  0  0  0  0  0  0  0
    1.7824    3.3112   -0.5257 C   0  0  0  0  0  0  0  0  0  0  0  0
    1.4522    1.9147   -0.9638 C   0  0  1  0  0  0  0  0  0  0  0  0
    2.6600    1.1456   -1.4181 C   0  0  0  0  0  0  0  0  0  0  0  0
    3.4613    1.7152   -2.2074 O   0  0  0  0  0  0  0  0  0  0  0  0
    2.8148   -0.1671   -0.9277 N   0  0  0  0  0  0  0  0  0  0  0  0
    3.9236   -1.0490   -1.2634 C   0  0  2  0  0  0  0  0  0  0  0  0
    3.2333   -2.0795   -2.1367 C   0  0  0  0  0  0  0  0  0  0  0  0
    1.9987   -1.9972   -2.3835 O   0  0  0  0  0  0  0  0  0  0  0  0
    3.9941   -3.1645   -2.6912 N   0  0  0  0  0  0  0  0  0  0  0  0
    4.3722   -1.6191    0.0025 C   0  0  0  0  0  0  0  0  0  0  0  0
    5.4645   -2.5582    0.0823 C   0  0  0  0  0  0  0  0  0  0  0  0
    5.2996   -3.9436    0.2272 C   0  0  0  0  0  0  0  0  0  0  0  0
    6.4958   -4.5482    0.2578 N   0  0  0  0  0  0  0  0  0  0  0  0
    7.4553   -3.6141    0.1387 C   0  0  0  0  0  0  0  0  0  0  0  0
    6.8303   -2.3671    0.0283 C   0  0  0  0  0  0  0  0  0  0  0  0
    7.6060   -1.2302   -0.1024 C   0  0  0  0  0  0  0  0  0  0  0  0
    8.9904   -1.3402   -0.1218 C   0  0  0  0  0  0  0  0  0  0  0  0
    9.6019   -2.5953   -0.0103 C   0  0  0  0  0  0  0  0  0  0  0  0
    8.8302   -3.7448    0.1211 C   0  0  0  0  0  0  0  0  0  0  0  0
    0.6828    1.1622   -0.0110 N   0  0  0  0  0  0  0  0  0  0  0  0
   -0.6120    0.6197   -0.2633 C   0  0  0  0  0  0  0  0  0  0  0  0
   -1.2160    0.7490   -1.3554 O   0  0  0  0  0  0  0  0  0  0  0  0
   -1.2145   -0.1370    0.8994 C   0  0  2  0  0  0  0  0  0  0  0  0
   -2.4979   -0.6609    0.5151 N   0  0  0  0  0  0  0  0  0  0  0  0
   -3.5727    0.1189    0.0091 C   0  0  0  0  0  0  0  0  0  0  0  0
   -3.4326    1.3690   -0.1299 O   0  0  0  0  0  0  0  0  0  0  0  0
   -4.8391   -0.5868   -0.3394 C   0  0  0  0  0  0  0  0  0  0  0  0
   -5.3800   -1.3518    0.8507 C   0  0  0  0  0  0  0  0  0  0  0  0
   -6.6409   -2.0602    0.4970 C   0  0  0  0  0  0  0  0  0  0  0  0
   -6.8339   -2.3324   -0.9318 C   0  0  0  0  0  0  0  0  0  0  0  0
   -5.8518   -2.1426   -1.8884 C   0  0  0  0  0  0  0  0  0  0  0  0
   -4.5322   -1.6296   -1.4196 C   0  0  0  0  0  0  0  0  0  0  0  0
   -6.1104   -2.4267   -3.2174 C   0  0  0  0  0  0  0  0  0  0  0  0
   -7.3551   -2.9051   -3.6133 C   0  0  0  0  0  0  0  0  0  0  0  0
   -8.3176   -3.0859   -2.6422 C   0  0  0  0  0  0  0  0  0  0  0  0
   -8.0768   -2.8103   -1.3292 C   0  0  0  0  0  0  0  0  0  0  0  0
   -5.8625    0.3155   -0.8018 N   0  0  0  0  0  0  0  0  0  0  0  0
   -5.6767    1.1338   -1.9650 C   0  0  0  0  0  0  0  0  0  0  0  0
   -4.6175    1.1113   -2.6417 O   0  0  0  0  0  0  0  0  0  0  0  0
   -6.7534    2.0666   -2.4331 C   0  0  0  0  0  0  0  0  0  0  0  0
   -1.3068    0.7625    2.1169 C   0  0  0  0  0  0  0  0  0  0  0  0
   -1.8870    0.0798    3.2988 C   0  0  0  0  0  0  0  0  0  0  0  0
   -0.9912   -0.5773    4.1468 C   0  0  0  0  0  0  0  0  0  0  0  0
   -1.5156   -1.2299    5.2707 C   0  0  0  0  0  0  0  0  0  0  0  0
   -2.8627   -1.2277    5.5365 C   0  0  0  0  0  0  0  0  0  0  0  0
   -3.7223   -0.5698    4.6807 C   0  0  0  0  0  0  0  0  0  0  0  0
   -3.2393    0.0807    3.5678 C   0  0  0  0  0  0  0  0  0  0  0  0
    4.0828    7.5168    0.9604 N   0  0  0  0  0  0  0  0  0  0  0  0
    4.0106    7.2064   -2.3337 H   0  0  0  0  0  0  0  0  0  0  0  0
    5.4342    7.7569   -1.3653 H   0  0  0  0  0  0  0  0  0  0  0  0
    3.7713    4.8738    1.7660 H   0  0  0  0  0  0  0  0  0  0  0  0
    2.0675    5.3322    1.3129 H   0  0  0  0  0  0  0  0  0  0  0  0
    3.7223    2.9210    0.3623 H   0  0  0  0  0  0  0  0  0  0  0  0
    2.3031    2.9271    1.5441 H   0  0  0  0  0  0  0  0  0  0  0  0
    2.1122    3.9109   -1.3716 H   0  0  0  0  0  0  0  0  0  0  0  0
    0.8153    3.7591   -0.1797 H   0  0  0  0  0  0  0  0  0  0  0  0
    0.8350    2.0141   -1.9045 H   0  0  0  0  0  0  0  0  0  0  0  0
    2.0960   -0.5636   -0.2739 H   0  0  0  0  0  0  0  0  0  0  0  0
    4.6028   -0.4317   -1.8518 H   0  0  0  0  0  0  0  0  0  0  0  0
    3.4818   -4.0242   -2.9702 H   0  0  0  0  0  0  0  0  0  0  0  0
    5.0478   -3.0773   -2.8059 H   0  0  0  0  0  0  0  0  0  0  0  0
    3.4828   -2.0488    0.5094 H   0  0  0  0  0  0  0  0  0  0  0  0
    4.6438   -0.7442    0.6716 H   0  0  0  0  0  0  0  0  0  0  0  0
    4.3453   -4.4759    0.3068 H   0  0  0  0  0  0  0  0  0  0  0  0
    6.6084   -5.6015    0.3619 H   0  0  0  0  0  0  0  0  0  0  0  0
    7.0862   -0.2876   -0.1844 H   0  0  0  0  0  0  0  0  0  0  0  0
    9.5877   -0.4445   -0.2223 H   0  0  0  0  0  0  0  0  0  0  0  0
   10.6581   -2.7242   -0.0196 H   0  0  0  0  0  0  0  0  0  0  0  0
    9.3054   -4.7309    0.2079 H   0  0  0  0  0  0  0  0  0  0  0  0
    1.1483    1.0210    0.9402 H   0  0  0  0  0  0  0  0  0  0  0  0
   -0.5135   -1.0028    1.0930 H   0  0  0  0  0  0  0  0  0  0  0  0
   -2.6597   -1.6972    0.6134 H   0  0  0  0  0  0  0  0  0  0  0  0
   -4.5720   -2.0775    1.1482 H   0  0  0  0  0  0  0  0  0  0  0  0
   -5.5783   -0.6347    1.7008 H   0  0  0  0  0  0  0  0  0  0  0  0
   -6.6739   -3.0252    1.0752 H   0  0  0  0  0  0  0  0  0  0  0  0
   -7.5117   -1.4504    0.8807 H   0  0  0  0  0  0  0  0  0  0  0  0
   -3.9472   -1.1921   -2.2552 H   0  0  0  0  0  0  0  0  0  0  0  0
   -4.0205   -2.4761   -0.9125 H   0  0  0  0  0  0  0  0  0  0  0  0
   -5.3411   -2.2782   -3.9670 H   0  0  0  0  0  0  0  0  0  0  0  0
   -7.5325   -3.1214   -4.6700 H   0  0  0  0  0  0  0  0  0  0  0  0
   -9.2689   -3.4515   -2.9429 H   0  0  0  0  0  0  0  0  0  0  0  0
   -8.8525   -2.9627   -0.5932 H   0  0  0  0  0  0  0  0  0  0  0  0
   -6.7929    0.4195   -0.3125 H   0  0  0  0  0  0  0  0  0  0  0  0
   -7.0169    1.8468   -3.4939 H   0  0  0  0  0  0  0  0  0  0  0  0
   -7.6579    1.8898   -1.8123 H   0  0  0  0  0  0  0  0  0  0  0  0
   -6.4819    3.1202   -2.3046 H   0  0  0  0  0  0  0  0  0  0  0  0
   -0.3206    1.2145    2.3307 H   0  0  0  0  0  0  0  0  0  0  0  0
   -1.9822    1.6192    1.8419 H   0  0  0  0  0  0  0  0  0  0  0  0
    0.0826   -0.5849    3.9444 H   0  0  0  0  0  0  0  0  0  0  0  0
   -0.7863   -1.7213    5.8938 H   0  0  0  0  0  0  0  0  0  0  0  0
   -3.1902   -1.7541    6.4238 H   0  0  0  0  0  0  0  0  0  0  0  0
   -4.7942   -0.5762    4.9038 H   0  0  0  0  0  0  0  0  0  0  0  0
   -3.9050    0.5999    2.8931 H   0  0  0  0  0  0  0  0  0  0  0  0
    3.3950    8.2768    1.1652 H   0  0  0  0  0  0  0  0  0  0  0  0
    4.8501    7.3690    1.6532 H   0  0  0  0  0  0  0  0  0  0  0  0
  1  2  1  0
  2  3  2  3
  3  4  1  0
  4  5  1  0
  5  6  1  0
  6  7  1  0
  7  8  1  0
  8  9  2  0
  8 10  1  0
 10 11  1  0
 11 12  1  0
 12 13  2  0
 12 14  1  0
 11 15  1  0
 15 16  1  0
 16 17  2  0
 17 18  1  0
 18 19  1  0
 19 20  2  0
 20 21  1  0
 21 22  2  0
 22 23  1  0
 23 24  2  0
  7 25  1  0
 25 26  1  0
 26 27  2  0
 26 28  1  0
 28 29  1  0
 29 30  1  0
 30 31  2  0
 30 32  1  0
 32 33  1  0
 33 34  1  0
 34 35  1  0
 35 36  2  0
 36 37  1  0
 36 38  1  0
 38 39  2  0
 39 40  1  0
 40 41  2  0
 32 42  1  0
 42 43  1  0
 43 44  2  0
 43 45  1  0
 28 46  1  0
 46 47  1  0
 47 48  2  0
 48 49  1  0
 49 50  2  0
 50 51  1  0
 51 52  2  0
  2 53  1  0
 20 16  1  0
 37 32  1  0
 52 47  1  0
 24 19  1  0
 41 35  1  0
  1 54  1  0
  1 55  1  0
  4 56  1  0
  4 57  1  0
  5 58  1  0
  5 59  1  0
  6 60  1  0
  6 61  1  0
  7 62  1  6
 10 63  1  0
 11 64  1  6
 14 65  1  0
 14 66  1  0
 15 67  1  0
 15 68  1  0
 17 69  1  0
 18 70  1  0
 21 71  1  0
 22 72  1  0
 23 73  1  0
 24 74  1  0
 25 75  1  0
 28 76  1  1
 29 77  1  0
 33 78  1  0
 33 79  1  0
 34 80  1  0
 34 81  1  0
 37 82  1  0
 37 83  1  0
 38 84  1  0
 39 85  1  0
 40 86  1  0
 41 87  1  0
 42 88  1  0
 45 89  1  0
 45 90  1  0
 45 91  1  0
 46 92  1  0
 46 93  1  0
 48 94  1  0
 49 95  1  0
 50 96  1  0
 51 97  1  0
 52 98  1  0
 53 99  1  0
 53100  1  0
M  END
>  <Ligand ID>  (1) 
LIG0003325

>  <Ligand>  (1) 
CHEMBL96531

>  <SMILES>  (1) 
NC(=NCCC[C@@H](C(=O)N[C@H](C(=O)N)Cc1c[nH]c2c1cccc2)NC(=O)[C@H](NC(=O)C1(CCc2c(C1)cccc2)NC(=O)C)Cc1ccccc1)N

>  <CID>  (1) 
11828678.0

>  <ChEMBL ID>  (1) 
nan

>  <InChiKey>  (1) 
OQLULEULDRFDPX-BQWZEOMXSA-N

>  <InChi>  (1) 
InChI=1S/C39H47N9O5/c1-24(49)48-39(18-17-26-12-5-6-13-27(26)22-39)37(53)47-33(20-25-10-3-2-4-11-25)36(52)45-31(16-9-19-43-38(41)42)35(51)46-32(34(40)50)21-28-23-44-30-15-8-7-14-29(28)30/h2-8,10-15,23,31-33,44H,9,16-22H2,1H3,(H2,40,50)(H,45,52)(H,46,51)(H,47,53)(H,48,49)(H4,41,42,43)/t31-,32-,33+,39?/m0/s1

>  <IUPAC Name>  (1) 
2-acetamido-N-[(2R)-1-[[(2S)-1-[[(2S)-1-amino-3-(1H-indol-3-yl)-1-oxopropan-2-yl]amino]-5-(diaminomethylideneamino)-1-oxopentan-2-yl]amino]-1-oxo-3-phenylpropan-2-yl]-3,4-dihydro-1H-naphthalene-2-carboxamide

$$$$
