
     RDKit          3D

 26 28  0  0  0  0  0  0  0  0999 V2000
    3.1800    2.0903   -2.0663 Cl  0  0  0  0  0  0  0  0  0  0  0  0
    2.5858    0.8262   -0.9929 C   0  0  0  0  0  0  0  0  0  0  0  0
    3.4566    0.0105   -0.2861 C   0  0  0  0  0  0  0  0  0  0  0  0
    2.9512   -0.9772    0.5523 C   0  0  0  0  0  0  0  0  0  0  0  0
    1.5914   -1.1691    0.7007 C   0  0  0  0  0  0  0  0  0  0  0  0
    0.7094   -0.3580   -0.0025 C   0  0  0  0  0  0  0  0  0  0  0  0
    1.2291    0.6342   -0.8441 C   0  0  0  0  0  0  0  0  0  0  0  0
    0.2676    1.4895   -1.5753 C   0  0  0  0  0  0  0  0  0  0  0  0
    0.6474    2.4020   -2.3512 O   0  0  0  0  0  0  0  0  0  0  0  0
   -1.1357    1.2199   -1.3502 N   0  0  0  0  0  0  0  0  0  0  0  0
   -1.4811    0.7621   -0.0295 C   0  0  2  0  0  0  0  0  0  0  0  0
   -0.7204   -0.5612    0.1447 C   0  0  2  0  0  0  0  0  0  0  0  0
   -1.2490   -0.8852    1.4942 C   0  0  0  0  0  0  0  0  0  0  0  0
   -2.6855   -0.5918    1.3587 N   0  0  0  0  0  0  0  0  0  0  0  0
   -2.8454    0.2097    0.1526 C   0  0  0  0  0  0  0  0  0  0  0  0
    4.5437    0.1406   -0.3850 H   0  0  0  0  0  0  0  0  0  0  0  0
    3.6643   -1.6035    1.0956 H   0  0  0  0  0  0  0  0  0  0  0  0
    1.2302   -1.9614    1.3736 H   0  0  0  0  0  0  0  0  0  0  0  0
   -1.7903    1.3698   -2.1322 H   0  0  0  0  0  0  0  0  0  0  0  0
   -1.1704    1.4319    0.7805 H   0  0  0  0  0  0  0  0  0  0  0  0
   -1.1152   -1.3182   -0.5615 H   0  0  0  0  0  0  0  0  0  0  0  0
   -0.8952   -0.1534    2.2693 H   0  0  0  0  0  0  0  0  0  0  0  0
   -1.1127   -1.9135    1.8359 H   0  0  0  0  0  0  0  0  0  0  0  0
   -3.1867   -1.5014    1.2769 H   0  0  0  0  0  0  0  0  0  0  0  0
   -3.0128   -0.5284   -0.6788 H   0  0  0  0  0  0  0  0  0  0  0  0
   -3.6563    0.9354    0.2208 H   0  0  0  0  0  0  0  0  0  0  0  0
  1  2  1  0
  2  3  2  0
  3  4  1  0
  4  5  2  0
  5  6  1  0
  6  7  2  0
  7  8  1  0
  8  9  2  0
  8 10  1  0
 10 11  1  0
 11 12  1  0
 12 13  1  0
 13 14  1  0
 14 15  1  0
  7  2  1  0
 15 11  1  0
 12  6  1  0
  3 16  1  0
  4 17  1  0
  5 18  1  0
 10 19  1  0
 11 20  1  1
 12 21  1  6
 13 22  1  0
 13 23  1  0
 14 24  1  0
 15 25  1  0
 15 26  1  0
M  END
>  <Ligand ID>  (1) 
LIG0002443

>  <Ligand>  (1) 
CHEMBL2337493

>  <SMILES>  (1) 
Clc1cccc2c1C(=O)N[C@@H]1[C@@H]2CNC1

>  <CID>  (1) 
57799306.0

>  <ChEMBL ID>  (1) 
nan

>  <InChiKey>  (1) 
DVZXEHLFWHKLRI-APPZFPTMSA-N

>  <InChi>  (1) 
InChI=1S/C11H11ClN2O/c12-8-3-1-2-6-7-4-13-5-9(7)14-11(15)10(6)8/h1-3,7,9,13H,4-5H2,(H,14,15)/t7-,9+/m1/s1

>  <IUPAC Name>  (1) 
(3aR,9bS)-6-chloro-1,2,3,3a,4,9b-hexahydropyrrolo[3,4-c]isoquinolin-5-one

$$$$
