
     RDKit          3D

210217  0  0  0  0  0  0  0  0999 V2000
   11.6988    1.9000   -4.4592 N   0  0  0  0  0  0  0  0  0  0  0  0
   12.0472    0.4917   -4.3553 C   0  0  0  0  0  0  0  0  0  0  0  0
   11.6421    0.0128   -2.9396 C   0  0  0  0  0  0  0  0  0  0  0  0
   10.1833    0.2277   -2.8352 C   0  0  0  0  0  0  0  0  0  0  0  0
    9.4612   -0.0673   -1.6094 C   0  0  0  0  0  0  0  0  0  0  0  0
    9.3566   -1.4838   -1.0735 C   0  0  1  0  0  0  0  0  0  0  0  0
   10.6978   -2.0551   -0.7835 C   0  0  0  0  0  0  0  0  0  0  0  0
   11.1129   -2.9266   -1.5775 O   0  0  0  0  0  0  0  0  0  0  0  0
   11.5808   -1.7007    0.3192 C   0  0  0  0  0  0  0  0  0  0  0  0
   11.1420   -0.6426    1.1818 N   0  0  0  0  0  0  0  0  0  0  0  0
   12.3080   -0.2718    2.0158 C   0  0  2  0  0  0  0  0  0  0  0  0
   12.6313   -1.2720    3.0280 C   0  0  0  0  0  0  0  0  0  0  0  0
   11.9430   -2.3316    3.2397 O   0  0  0  0  0  0  0  0  0  0  0  0
   13.7688   -1.1287    3.8669 N   0  0  0  0  0  0  0  0  0  0  0  0
   12.1609    1.1392    2.5127 C   0  0  0  0  0  0  0  0  0  0  0  0
   13.3283    1.5138    3.3112 C   0  0  0  0  0  0  0  0  0  0  0  0
   13.4086    1.4059    4.5726 O   0  0  0  0  0  0  0  0  0  0  0  0
   14.4582    2.0375    2.6500 O   0  0  0  0  0  0  0  0  0  0  0  0
    8.5712   -1.4225    0.1416 N   0  0  0  0  0  0  0  0  0  0  0  0
    8.2136   -2.6285    0.7444 C   0  0  0  0  0  0  0  0  0  0  0  0
    7.2187   -3.5241    0.1758 C   0  0  0  0  0  0  0  0  0  0  0  0
    7.2177   -4.6815    0.7503 O   0  0  0  0  0  0  0  0  0  0  0  0
    6.2146   -3.4468   -0.8808 C   0  0  2  0  0  0  0  0  0  0  0  0
    6.6687   -4.2124   -2.1240 C   0  0  0  0  0  0  0  0  0  0  0  0
    6.6706   -3.2599   -3.2638 C   0  0  0  0  0  0  0  0  0  0  0  0
    6.1315   -1.9493   -2.6860 C   0  0  0  0  0  0  0  0  0  0  0  0
    5.7542   -2.2333   -1.3711 N   0  0  0  0  0  0  0  0  0  0  0  0
    5.4258   -1.2319   -0.4507 C   0  0  0  0  0  0  0  0  0  0  0  0
    4.1716   -0.4941   -0.8307 C   0  0  0  0  0  0  0  0  0  0  0  0
    3.5704   -1.0053   -1.7988 O   0  0  0  0  0  0  0  0  0  0  0  0
    3.6307    0.7015   -0.2145 C   0  0  2  0  0  0  0  0  0  0  0  0
    4.5985    1.8998   -0.5252 C   0  0  0  0  0  0  0  0  0  0  0  0
    5.4565    2.0233    0.6836 C   0  0  0  0  0  0  0  0  0  0  0  0
    4.8569    1.0702    1.6921 C   0  0  0  0  0  0  0  0  0  0  0  0
    3.4850    0.8080    1.1961 N   0  0  0  0  0  0  0  0  0  0  0  0
    2.4063    0.7728    2.1032 C   0  0  0  0  0  0  0  0  0  0  0  0
    2.7994    0.9173    3.3445 O   0  0  0  0  0  0  0  0  0  0  0  0
    0.9872    0.6285    1.9222 C   0  0  0  0  0  0  0  0  0  0  0  0
    0.3307    2.0108    2.3162 C   0  0  0  0  0  0  0  0  0  0  0  0
   -1.3660    2.1401    1.7397 S   0  0  0  0  0  0  0  0  0  0  0  0
   -1.2324    2.2945   -0.4014 S   0  0  0  0  0  0  0  0  0  0  0  0
   -1.0993    4.0542   -0.8281 C   0  0  0  0  0  0  0  0  0  0  0  0
    0.2026    4.5641   -0.2483 C   0  0  0  0  0  0  0  0  0  0  0  0
   -0.9618    4.1813   -2.3336 C   0  0  0  0  0  0  0  0  0  0  0  0
   -2.2730    4.7752   -0.2719 C   0  0  0  0  0  0  0  0  0  0  0  0
   -2.3474    6.2178   -0.5438 C   0  0  0  0  0  0  0  0  0  0  0  0
   -2.2433    7.0360    0.3952 O   0  0  0  0  0  0  0  0  0  0  0  0
   -2.5452    6.8279   -1.8837 C   0  0  0  0  0  0  0  0  0  0  0  0
   -3.5582    4.0966   -0.6809 C   0  0  0  0  0  0  0  0  0  0  0  0
   -3.5804    3.0323   -1.3245 O   0  0  0  0  0  0  0  0  0  0  0  0
   -4.8332    4.6316   -0.3551 N   0  0  0  0  0  0  0  0  0  0  0  0
   -6.0852    3.9152   -0.7506 C   0  0  2  0  0  0  0  0  0  0  0  0
   -6.7315    4.7407   -1.8119 C   0  0  0  0  0  0  0  0  0  0  0  0
   -8.0004    4.2241   -2.3842 C   0  0  0  0  0  0  0  0  0  0  0  0
   -8.4077    5.2171   -3.4470 C   0  0  0  0  0  0  0  0  0  0  0  0
   -7.7175    5.2788   -4.5062 O   0  0  0  0  0  0  0  0  0  0  0  0
   -9.5036    6.0510   -3.2920 O   0  0  0  0  0  0  0  0  0  0  0  0
   -6.7863    3.8622    0.5446 C   0  0  0  0  0  0  0  0  0  0  0  0
   -6.2678    4.4908    1.4935 O   0  0  0  0  0  0  0  0  0  0  0  0
   -7.9839    3.1778    0.8605 N   0  0  0  0  0  0  0  0  0  0  0  0
   -8.4822    3.2917    2.2199 C   0  0  2  0  0  0  0  0  0  0  0  0
   -8.3701    1.9777    2.9263 C   0  0  0  0  0  0  0  0  0  0  0  0
   -8.5424    1.8072    4.1312 O   0  0  0  0  0  0  0  0  0  0  0  0
   -8.0445    0.7612    2.1957 N   0  0  0  0  0  0  0  0  0  0  0  0
   -7.8537   -0.4664    2.9387 C   0  0  2  0  0  0  0  0  0  0  0  0
   -6.8381   -1.3756    2.4082 C   0  0  0  0  0  0  0  0  0  0  0  0
   -6.5686   -2.4136    3.0406 O   0  0  0  0  0  0  0  0  0  0  0  0
   -6.0922   -1.2045    1.2018 N   0  0  0  0  0  0  0  0  0  0  0  0
   -5.0604   -2.2276    0.8298 C   0  0  2  0  0  0  0  0  0  0  0  0
   -3.8573   -1.5472    0.3422 C   0  0  0  0  0  0  0  0  0  0  0  0
   -3.9609   -0.3412    0.0124 O   0  0  0  0  0  0  0  0  0  0  0  0
   -2.5561   -2.0737    0.1970 N   0  0  0  0  0  0  0  0  0  0  0  0
   -1.4359   -1.2726   -0.3689 C   0  0  1  0  0  0  0  0  0  0  0  0
   -0.6881   -0.7651    0.7769 C   0  0  0  0  0  0  0  0  0  0  0  0
   -0.9295   -1.1783    1.9111 O   0  0  0  0  0  0  0  0  0  0  0  0
    0.3699    0.2423    0.7072 N   0  0  0  0  0  0  0  0  0  0  0  0
   -0.6836   -2.1605   -1.3176 C   0  0  0  0  0  0  0  0  0  0  0  0
   -0.1582   -3.3992   -0.7459 C   0  0  0  0  0  0  0  0  0  0  0  0
   -0.8214   -4.6367   -0.9355 C   0  0  0  0  0  0  0  0  0  0  0  0
   -0.1285   -5.5921   -0.2783 N   0  0  0  0  0  0  0  0  0  0  0  0
    0.9400   -5.0596    0.3256 C   0  0  0  0  0  0  0  0  0  0  0  0
    0.9108   -3.7222    0.0320 C   0  0  0  0  0  0  0  0  0  0  0  0
    1.9197   -2.9412    0.5373 C   0  0  0  0  0  0  0  0  0  0  0  0
    2.9175   -3.4916    1.3113 C   0  0  0  0  0  0  0  0  0  0  0  0
    2.9085   -4.8405    1.5824 C   0  0  0  0  0  0  0  0  0  0  0  0
    1.9011   -5.6778    1.0878 C   0  0  0  0  0  0  0  0  0  0  0  0
   -5.6905   -3.0834   -0.2666 C   0  0  0  0  0  0  0  0  0  0  0  0
   -4.7979   -4.1822   -0.7334 C   0  0  0  0  0  0  0  0  0  0  0  0
   -4.4798   -5.1082    0.4304 C   0  0  0  0  0  0  0  0  0  0  0  0
   -3.6349   -6.1967   -0.0380 N   0  0  0  0  0  0  0  0  0  0  0  0
   -3.7445   -7.3616    0.4712 C   0  0  0  0  0  0  0  0  0  0  0  0
   -4.6997   -7.5930    1.5010 N   0  0  0  0  0  0  0  0  0  0  0  0
   -2.9011   -8.3901   -0.0206 N   0  0  0  0  0  0  0  0  0  0  0  0
   -9.2396   -1.1137    3.0722 C   0  0  0  0  0  0  0  0  0  0  0  0
   -9.7980   -1.3829    1.7550 C   0  0  0  0  0  0  0  0  0  0  0  0
   -9.5511   -2.5708    1.0822 C   0  0  0  0  0  0  0  0  0  0  0  0
  -10.1165   -2.8382   -0.1605 C   0  0  0  0  0  0  0  0  0  0  0  0
  -10.9475   -1.9374   -0.7854 C   0  0  0  0  0  0  0  0  0  0  0  0
  -11.2053   -0.7409   -0.1271 C   0  0  0  0  0  0  0  0  0  0  0  0
  -10.6430   -0.4810    1.1059 C   0  0  0  0  0  0  0  0  0  0  0  0
  -12.0460    0.2086   -0.7122 C   0  0  0  0  0  0  0  0  0  0  0  0
  -12.5983   -0.0898   -1.9485 C   0  0  0  0  0  0  0  0  0  0  0  0
  -12.3321   -1.2914   -2.5992 C   0  0  0  0  0  0  0  0  0  0  0  0
  -11.4916   -2.2404   -2.0140 C   0  0  0  0  0  0  0  0  0  0  0  0
   -9.8982    3.7829    2.3122 C   0  0  0  0  0  0  0  0  0  0  0  0
  -10.1197    5.1159    1.7340 C   0  0  0  0  0  0  0  0  0  0  0  0
  -10.0037    6.2954    2.4186 N   0  0  0  0  0  0  0  0  0  0  0  0
  -10.2762    7.3175    1.6094 C   0  0  0  0  0  0  0  0  0  0  0  0
  -10.5709    6.8255    0.3954 N   0  0  0  0  0  0  0  0  0  0  0  0
  -10.4809    5.4975    0.4538 C   0  0  0  0  0  0  0  0  0  0  0  0
   12.1549    2.2476   -5.3277 H   0  0  0  0  0  0  0  0  0  0  0  0
   12.0775    2.4166   -3.6120 H   0  0  0  0  0  0  0  0  0  0  0  0
   11.4648   -0.0859   -5.0685 H   0  0  0  0  0  0  0  0  0  0  0  0
   13.1370    0.3361   -4.3885 H   0  0  0  0  0  0  0  0  0  0  0  0
   12.0408   -0.9829   -2.8678 H   0  0  0  0  0  0  0  0  0  0  0  0
   12.1448    0.7589   -2.2697 H   0  0  0  0  0  0  0  0  0  0  0  0
   10.0168    1.3373   -3.0558 H   0  0  0  0  0  0  0  0  0  0  0  0
    9.6715   -0.2409   -3.7601 H   0  0  0  0  0  0  0  0  0  0  0  0
    9.8087    0.6213   -0.7825 H   0  0  0  0  0  0  0  0  0  0  0  0
    8.3903    0.2836   -1.7442 H   0  0  0  0  0  0  0  0  0  0  0  0
    8.8405   -2.0840   -1.8090 H   0  0  0  0  0  0  0  0  0  0  0  0
   12.6157   -1.4407   -0.0575 H   0  0  0  0  0  0  0  0  0  0  0  0
   11.7728   -2.5976    0.9659 H   0  0  0  0  0  0  0  0  0  0  0  0
   10.4126   -1.0093    1.8576 H   0  0  0  0  0  0  0  0  0  0  0  0
   13.2206   -0.2327    1.3248 H   0  0  0  0  0  0  0  0  0  0  0  0
   13.7350   -1.2915    4.8935 H   0  0  0  0  0  0  0  0  0  0  0  0
   14.6638   -0.8426    3.3755 H   0  0  0  0  0  0  0  0  0  0  0  0
   11.1958    1.2874    3.0537 H   0  0  0  0  0  0  0  0  0  0  0  0
   12.1499    1.7940    1.5906 H   0  0  0  0  0  0  0  0  0  0  0  0
   15.1393    2.5898    3.1581 H   0  0  0  0  0  0  0  0  0  0  0  0
    8.4476   -0.5782    0.6360 H   0  0  0  0  0  0  0  0  0  0  0  0
    7.9664   -2.3995    1.8434 H   0  0  0  0  0  0  0  0  0  0  0  0
    9.2035   -3.2393    0.8642 H   0  0  0  0  0  0  0  0  0  0  0  0
    5.2796   -4.0493   -0.5533 H   0  0  0  0  0  0  0  0  0  0  0  0
    7.7221   -4.6032   -1.9641 H   0  0  0  0  0  0  0  0  0  0  0  0
    6.0109   -5.0795   -2.3232 H   0  0  0  0  0  0  0  0  0  0  0  0
    6.0345   -3.6057   -4.1267 H   0  0  0  0  0  0  0  0  0  0  0  0
    7.6880   -3.0284   -3.6811 H   0  0  0  0  0  0  0  0  0  0  0  0
    6.8701   -1.1333   -2.7659 H   0  0  0  0  0  0  0  0  0  0  0  0
    5.2778   -1.6563   -3.3555 H   0  0  0  0  0  0  0  0  0  0  0  0
    6.2143   -0.4441   -0.3772 H   0  0  0  0  0  0  0  0  0  0  0  0
    5.3326   -1.6646    0.5929 H   0  0  0  0  0  0  0  0  0  0  0  0
    2.6788    0.9608   -0.7066 H   0  0  0  0  0  0  0  0  0  0  0  0
    3.9739    2.7872   -0.6148 H   0  0  0  0  0  0  0  0  0  0  0  0
    5.1691    1.6182   -1.4043 H   0  0  0  0  0  0  0  0  0  0  0  0
    5.4566    3.0611    1.1093 H   0  0  0  0  0  0  0  0  0  0  0  0
    6.5303    1.7162    0.5168 H   0  0  0  0  0  0  0  0  0  0  0  0
    4.7741    1.6236    2.6869 H   0  0  0  0  0  0  0  0  0  0  0  0
    5.4790    0.1997    1.7874 H   0  0  0  0  0  0  0  0  0  0  0  0
    0.6180   -0.0021    2.7912 H   0  0  0  0  0  0  0  0  0  0  0  0
    0.9321    2.7875    1.8056 H   0  0  0  0  0  0  0  0  0  0  0  0
    0.3567    2.1282    3.4123 H   0  0  0  0  0  0  0  0  0  0  0  0
    0.5963    5.4530   -0.8070 H   0  0  0  0  0  0  0  0  0  0  0  0
    1.0175    3.8047   -0.3461 H   0  0  0  0  0  0  0  0  0  0  0  0
    0.1187    4.7928    0.8380 H   0  0  0  0  0  0  0  0  0  0  0  0
   -1.9248    4.4201   -2.8146 H   0  0  0  0  0  0  0  0  0  0  0  0
   -0.4777    3.2777   -2.7762 H   0  0  0  0  0  0  0  0  0  0  0  0
   -0.2674    5.0093   -2.5404 H   0  0  0  0  0  0  0  0  0  0  0  0
   -2.2858    4.6546    0.8540 H   0  0  0  0  0  0  0  0  0  0  0  0
   -3.3520    6.3197   -2.4559 H   0  0  0  0  0  0  0  0  0  0  0  0
   -2.9237    7.8867   -1.7805 H   0  0  0  0  0  0  0  0  0  0  0  0
   -1.6641    6.8955   -2.5136 H   0  0  0  0  0  0  0  0  0  0  0  0
   -4.8381    5.5089    0.1458 H   0  0  0  0  0  0  0  0  0  0  0  0
   -5.8442    2.9390   -1.1777 H   0  0  0  0  0  0  0  0  0  0  0  0
   -6.8532    5.7913   -1.4118 H   0  0  0  0  0  0  0  0  0  0  0  0
   -5.9974    4.7569   -2.6714 H   0  0  0  0  0  0  0  0  0  0  0  0
   -7.8302    3.2540   -2.9064 H   0  0  0  0  0  0  0  0  0  0  0  0
   -8.8246    4.0433   -1.6923 H   0  0  0  0  0  0  0  0  0  0  0  0
   -9.7932    6.7294   -4.0022 H   0  0  0  0  0  0  0  0  0  0  0  0
   -8.4174    2.6391    0.1215 H   0  0  0  0  0  0  0  0  0  0  0  0
   -7.8736    3.9905    2.8460 H   0  0  0  0  0  0  0  0  0  0  0  0
   -7.9818    0.8886    1.1925 H   0  0  0  0  0  0  0  0  0  0  0  0
   -7.6068   -0.1789    4.0325 H   0  0  0  0  0  0  0  0  0  0  0  0
   -6.2993   -0.3932    0.6509 H   0  0  0  0  0  0  0  0  0  0  0  0
   -4.8640   -2.9071    1.6652 H   0  0  0  0  0  0  0  0  0  0  0  0
   -2.3847   -3.0212    0.5037 H   0  0  0  0  0  0  0  0  0  0  0  0
   -1.8945   -0.4474   -0.9743 H   0  0  0  0  0  0  0  0  0  0  0  0
    0.5315    0.5527   -0.2447 H   0  0  0  0  0  0  0  0  0  0  0  0
   -1.3502   -2.3657   -2.1818 H   0  0  0  0  0  0  0  0  0  0  0  0
    0.1452   -1.5160   -1.7504 H   0  0  0  0  0  0  0  0  0  0  0  0
   -1.7355   -4.7877   -1.5193 H   0  0  0  0  0  0  0  0  0  0  0  0
   -0.4368   -6.5980   -0.2758 H   0  0  0  0  0  0  0  0  0  0  0  0
    1.9275   -1.9036    0.3103 H   0  0  0  0  0  0  0  0  0  0  0  0
    3.7000   -2.9048    1.7166 H   0  0  0  0  0  0  0  0  0  0  0  0
    3.7099   -5.2388    2.1963 H   0  0  0  0  0  0  0  0  0  0  0  0
    1.9189   -6.7308    1.3157 H   0  0  0  0  0  0  0  0  0  0  0  0
   -6.0047   -2.4196   -1.0864 H   0  0  0  0  0  0  0  0  0  0  0  0
   -6.6153   -3.5174    0.2186 H   0  0  0  0  0  0  0  0  0  0  0  0
   -5.3339   -4.7754   -1.5273 H   0  0  0  0  0  0  0  0  0  0  0  0
   -3.8549   -3.7675   -1.1206 H   0  0  0  0  0  0  0  0  0  0  0  0
   -5.4203   -5.5864    0.8162 H   0  0  0  0  0  0  0  0  0  0  0  0
   -3.9166   -4.6252    1.2381 H   0  0  0  0  0  0  0  0  0  0  0  0
   -5.6930   -7.7659    1.1971 H   0  0  0  0  0  0  0  0  0  0  0  0
   -4.4354   -7.5981    2.5308 H   0  0  0  0  0  0  0  0  0  0  0  0
   -2.4653   -8.3702   -0.9703 H   0  0  0  0  0  0  0  0  0  0  0  0
   -2.6602   -9.2471    0.5640 H   0  0  0  0  0  0  0  0  0  0  0  0
   -9.1304   -2.0934    3.6096 H   0  0  0  0  0  0  0  0  0  0  0  0
   -9.8404   -0.3854    3.6665 H   0  0  0  0  0  0  0  0  0  0  0  0
   -8.9168   -3.3293    1.5038 H   0  0  0  0  0  0  0  0  0  0  0  0
   -9.9040   -3.7822   -0.6719 H   0  0  0  0  0  0  0  0  0  0  0  0
  -10.8566    0.4772    1.6172 H   0  0  0  0  0  0  0  0  0  0  0  0
  -12.2661    1.1434   -0.2216 H   0  0  0  0  0  0  0  0  0  0  0  0
  -13.2701    0.6023   -2.4704 H   0  0  0  0  0  0  0  0  0  0  0  0
  -12.7964   -1.4771   -3.5693 H   0  0  0  0  0  0  0  0  0  0  0  0
  -11.2834   -3.1659   -2.5128 H   0  0  0  0  0  0  0  0  0  0  0  0
  -10.5346    3.0529    1.7350 H   0  0  0  0  0  0  0  0  0  0  0  0
  -10.2716    3.6926    3.3504 H   0  0  0  0  0  0  0  0  0  0  0  0
   -9.7357    6.3428    3.4320 H   0  0  0  0  0  0  0  0  0  0  0  0
  -10.2626    8.3674    1.8829 H   0  0  0  0  0  0  0  0  0  0  0  0
  -10.6633    4.8143   -0.3719 H   0  0  0  0  0  0  0  0  0  0  0  0
  1  2  1  0
  2  3  1  0
  3  4  1  0
  4  5  1  0
  5  6  1  0
  6  7  1  0
  7  8  2  0
  7  9  1  0
  9 10  1  0
 10 11  1  0
 11 12  1  0
 12 13  2  0
 12 14  1  0
 11 15  1  0
 15 16  1  0
 16 17  2  0
 16 18  1  0
  6 19  1  0
 19 20  1  0
 20 21  1  0
 21 22  2  0
 21 23  1  0
 23 24  1  0
 24 25  1  0
 25 26  1  0
 26 27  1  0
 27 28  1  0
 28 29  1  0
 29 30  2  0
 29 31  1  0
 31 32  1  0
 32 33  1  0
 33 34  1  0
 34 35  1  0
 35 36  1  0
 36 37  2  0
 36 38  1  0
 38 39  1  0
 39 40  1  0
 40 41  1  0
 41 42  1  0
 42 43  1  0
 42 44  1  0
 42 45  1  0
 45 46  1  0
 46 47  2  0
 46 48  1  0
 45 49  1  0
 49 50  2  0
 49 51  1  0
 51 52  1  0
 52 53  1  0
 53 54  1  0
 54 55  1  0
 55 56  2  0
 55 57  1  0
 52 58  1  0
 58 59  2  0
 58 60  1  0
 60 61  1  0
 61 62  1  0
 62 63  2  0
 62 64  1  0
 64 65  1  0
 65 66  1  0
 66 67  2  0
 66 68  1  0
 68 69  1  0
 69 70  1  0
 70 71  2  0
 70 72  1  0
 72 73  1  0
 73 74  1  0
 74 75  2  0
 74 76  1  0
 73 77  1  0
 77 78  1  0
 78 79  2  0
 79 80  1  0
 80 81  1  0
 81 82  2  0
 82 83  1  0
 83 84  2  0
 84 85  1  0
 85 86  2  0
 69 87  1  0
 87 88  1  0
 88 89  1  0
 89 90  1  0
 90 91  2  3
 91 92  1  0
 91 93  1  0
 65 94  1  0
 94 95  1  0
 95 96  2  0
 96 97  1  0
 97 98  2  0
 98 99  1  0
 99100  2  0
 99101  1  0
101102  2  0
102103  1  0
103104  2  0
 61105  1  0
105106  1  0
106107  1  0
107108  1  0
108109  2  0
109110  1  0
 27 23  1  0
 35 31  1  0
 76 38  1  0
 82 78  1  0
100 95  1  0
110106  2  0
 86 81  1  0
104 98  1  0
  1111  1  0
  1112  1  0
  2113  1  0
  2114  1  0
  3115  1  0
  3116  1  0
  4117  1  0
  4118  1  0
  5119  1  0
  5120  1  0
  6121  1  6
  9122  1  0
  9123  1  0
 10124  1  0
 11125  1  6
 14126  1  0
 14127  1  0
 15128  1  0
 15129  1  0
 18130  1  0
 19131  1  0
 20132  1  0
 20133  1  0
 23134  1  1
 24135  1  0
 24136  1  0
 25137  1  0
 25138  1  0
 26139  1  0
 26140  1  0
 28141  1  0
 28142  1  0
 31143  1  6
 32144  1  0
 32145  1  0
 33146  1  0
 33147  1  0
 34148  1  0
 34149  1  0
 38150  1  0
 39151  1  0
 39152  1  0
 43153  1  0
 43154  1  0
 43155  1  0
 44156  1  0
 44157  1  0
 44158  1  0
 45159  1  0
 48160  1  0
 48161  1  0
 48162  1  0
 51163  1  0
 52164  1  6
 53165  1  0
 53166  1  0
 54167  1  0
 54168  1  0
 57169  1  0
 60170  1  0
 61171  1  1
 64172  1  0
 65173  1  1
 68174  1  0
 69175  1  1
 72176  1  0
 73177  1  6
 76178  1  0
 77179  1  0
 77180  1  0
 79181  1  0
 80182  1  0
 83183  1  0
 84184  1  0
 85185  1  0
 86186  1  0
 87187  1  0
 87188  1  0
 88189  1  0
 88190  1  0
 89191  1  0
 89192  1  0
 92193  1  0
 92194  1  0
 93195  1  0
 93196  1  0
 94197  1  0
 94198  1  0
 96199  1  0
 97200  1  0
100201  1  0
101202  1  0
102203  1  0
103204  1  0
104205  1  0
105206  1  0
105207  1  0
107208  1  0
108209  1  0
110210  1  0
M  END
>  <Ligand ID>  (1) 
LIG0003274

>  <Ligand>  (1) 
CHEMBL263585

>  <SMILES>  (1) 
NCCCC[C@@H](C(=O)CN[C@H](C(=O)N)CC(=O)O)NCC(=O)[C@@H]1CCCN1CC(=O)[C@@H]1CCCN1C(=O)C1CSSC(C)(C)C(C(=O)C)C(=O)N[C@H](CCC(=O)O)C(=O)N[C@H](C(=O)N[C@H](C(=O)N[C@H](C(=O)N[C@@H](C(=O)N1)Cc1c[nH]c2c1cccc2)CCCN=C(N)N)Cc1ccc2c(c1)cccc2)Cc1[nH]cnc1

>  <CID>  (1) 
44347838.0

>  <ChEMBL ID>  (1) 
nan

>  <InChiKey>  (1) 
GYFGNZUSQUDKII-HUYHNIRLSA-N

>  <InChi>  (1) 
InChI=1S/C74H100N18O16S2/c1-41(93)64-71(107)86-51(23-24-62(97)98)67(103)89-55(32-46-35-79-40-84-46)70(106)87-53(30-42-21-22-43-13-4-5-14-44(43)29-42)68(104)85-50(18-10-26-80-73(77)78)66(102)88-54(31-45-34-81-48-16-7-6-15-47(45)48)69(105)90-56(39-109-110-74(64,2)3)72(108)92-28-12-20-58(92)61(96)38-91-27-11-19-57(91)60(95)37-82-49(17-8-9-25-75)59(94)36-83-52(65(76)101)33-63(99)100/h4-7,13-16,21-22,29,34-35,40,49-58,64,81-83H,8-12,17-20,23-28,30-33,36-39,75H2,1-3H3,(H2,76,101)(H,79,84)(H,85,104)(H,86,107)(H,87,106)(H,88,102)(H,89,103)(H,90,105)(H,97,98)(H,99,100)(H4,77,78,80)/t49-,50-,51+,52-,53-,54+,55-,56?,57-,58-,64?/m0/s1

>  <IUPAC Name>  (1) 
(3S)-3-[[(3S)-3-[[2-[(2S)-1-[2-[(2S)-1-[(7R,10S,13S,16S,19R)-22-acetyl-19-(2-carboxyethyl)-10-[3-(diaminomethylideneamino)propyl]-16-(1H-imidazol-5-ylmethyl)-7-(1H-indol-3-ylmethyl)-23,23-dimethyl-13-(naphthalen-2-ylmethyl)-6,9,12,15,18,21-hexaoxo-1,2-dithia-5,8,11,14,17,20-hexazacyclotricosane-4-carbonyl]pyrrolidin-2-yl]-2-oxoethyl]pyrrolidin-2-yl]-2-oxoethyl]amino]-7-amino-2-oxoheptyl]amino]-4-amino-4-oxobutanoic acid

$$$$
