
     RDKit          3D

105108  0  0  0  0  0  0  0  0999 V2000
  -10.4795   -3.4226   -2.0912 C   0  0  0  0  0  0  0  0  0  0  0  0
   -9.3588   -3.0952   -1.1160 C   0  0  0  0  0  0  0  0  0  0  0  0
   -8.7594   -1.7275   -1.4603 C   0  0  0  0  0  0  0  0  0  0  0  0
   -7.6502   -1.4730   -0.4638 C   0  0  0  0  0  0  0  0  0  0  0  0
   -6.9822   -0.1488   -0.6755 C   0  0  0  0  0  0  0  0  0  0  0  0
   -7.4423    0.6288   -1.5486 O   0  0  0  0  0  0  0  0  0  0  0  0
   -5.8661    0.1308    0.1345 N   0  0  0  0  0  0  0  0  0  0  0  0
   -5.0808    1.3344    0.0996 C   0  0  2  0  0  0  0  0  0  0  0  0
   -3.7457    1.0629   -0.5531 C   0  0  0  0  0  0  0  0  0  0  0  0
   -3.5994   -0.0878   -1.0228 O   0  0  0  0  0  0  0  0  0  0  0  0
   -2.7230    2.0324   -0.6334 N   0  0  0  0  0  0  0  0  0  0  0  0
   -1.4886    1.6038   -1.3066 C   0  0  2  0  0  0  0  0  0  0  0  0
   -0.5267    1.0561   -0.3473 C   0  0  0  0  0  0  0  0  0  0  0  0
   -0.8090    1.2151    0.8936 O   0  0  0  0  0  0  0  0  0  0  0  0
    0.6679    0.3669   -0.6722 N   0  0  0  0  0  0  0  0  0  0  0  0
    1.4713   -0.1122    0.4246 C   0  0  2  0  0  0  0  0  0  0  0  0
    2.9165    0.1457    0.1973 C   0  0  0  0  0  0  0  0  0  0  0  0
    3.3639    0.7705   -0.7976 O   0  0  0  0  0  0  0  0  0  0  0  0
    3.8053   -0.3650    1.1855 N   0  0  0  0  0  0  0  0  0  0  0  0
    5.2416   -0.2246    1.1376 C   0  0  2  0  0  0  0  0  0  0  0  0
    5.8802   -1.5618    0.8609 C   0  0  0  0  0  0  0  0  0  0  0  0
    5.1368   -2.5883    0.7244 O   0  0  0  0  0  0  0  0  0  0  0  0
    7.2840   -1.7209    0.7460 N   0  0  0  0  0  0  0  0  0  0  0  0
    5.7632    0.3754    2.4151 C   0  0  0  0  0  0  0  0  0  0  0  0
    7.2437    0.5258    2.3940 C   0  0  0  0  0  0  0  0  0  0  0  0
    8.1750   -0.2835    3.0515 C   0  0  0  0  0  0  0  0  0  0  0  0
    9.4113    0.1718    2.7802 N   0  0  0  0  0  0  0  0  0  0  0  0
    9.2812    1.2342    1.9787 C   0  0  0  0  0  0  0  0  0  0  0  0
    7.9551    1.5005    1.7056 C   0  0  0  0  0  0  0  0  0  0  0  0
    7.5439    2.5479    0.9046 C   0  0  0  0  0  0  0  0  0  0  0  0
    8.5215    3.3574    0.3587 C   0  0  0  0  0  0  0  0  0  0  0  0
    9.8620    3.1032    0.6229 C   0  0  0  0  0  0  0  0  0  0  0  0
   10.2531    2.0389    1.4354 C   0  0  0  0  0  0  0  0  0  0  0  0
    1.3149   -1.6524    0.4198 C   0  0  0  0  0  0  0  0  0  0  0  0
    1.8064   -2.2129   -0.8854 C   0  0  0  0  0  0  0  0  0  0  0  0
    1.6410   -3.7184   -0.8684 C   0  0  0  0  0  0  0  0  0  0  0  0
    2.3798   -4.3253    0.2139 N   0  0  0  0  0  0  0  0  0  0  0  0
    3.2991   -5.2109    0.0635 C   0  0  0  0  0  0  0  0  0  0  0  0
    3.9155   -5.6911    1.2756 N   0  0  0  0  0  0  0  0  0  0  0  0
    3.7229   -5.7193   -1.1885 N   0  0  0  0  0  0  0  0  0  0  0  0
   -0.9818    2.6768   -2.1996 C   0  0  0  0  0  0  0  0  0  0  0  0
    0.2365    2.4402   -2.9558 C   0  0  0  0  0  0  0  0  0  0  0  0
    0.1081    1.7873   -4.1920 C   0  0  0  0  0  0  0  0  0  0  0  0
    1.2254    1.5598   -4.9685 C   0  0  0  0  0  0  0  0  0  0  0  0
    2.4918    1.9519   -4.5806 C   0  0  0  0  0  0  0  0  0  0  0  0
    2.6112    2.5931   -3.3650 C   0  0  0  0  0  0  0  0  0  0  0  0
    1.5118    2.8455   -2.5441 C   0  0  0  0  0  0  0  0  0  0  0  0
   -4.7914    1.9460    1.4338 C   0  0  0  0  0  0  0  0  0  0  0  0
   -6.0058    2.3306    2.2033 C   0  0  0  0  0  0  0  0  0  0  0  0
   -6.5885    3.5823    2.1030 C   0  0  0  0  0  0  0  0  0  0  0  0
   -7.7030    3.9644    2.8038 C   0  0  0  0  0  0  0  0  0  0  0  0
   -8.2775    3.0420    3.6609 C   0  0  0  0  0  0  0  0  0  0  0  0
   -7.7399    1.7650    3.8079 C   0  0  0  0  0  0  0  0  0  0  0  0
   -6.6212    1.4469    3.0762 C   0  0  0  0  0  0  0  0  0  0  0  0
   -9.7129    3.5227    4.5711 Cl  0  0  0  0  0  0  0  0  0  0  0  0
  -10.9144   -4.4059   -1.8614 H   0  0  0  0  0  0  0  0  0  0  0  0
  -11.2783   -2.6734   -2.0859 H   0  0  0  0  0  0  0  0  0  0  0  0
  -10.0128   -3.5040   -3.0939 H   0  0  0  0  0  0  0  0  0  0  0  0
   -9.7543   -3.1042   -0.0929 H   0  0  0  0  0  0  0  0  0  0  0  0
   -8.5675   -3.8483   -1.1977 H   0  0  0  0  0  0  0  0  0  0  0  0
   -8.2780   -1.7582   -2.4606 H   0  0  0  0  0  0  0  0  0  0  0  0
   -9.5292   -0.9711   -1.3266 H   0  0  0  0  0  0  0  0  0  0  0  0
   -8.1396   -1.4432    0.5360 H   0  0  0  0  0  0  0  0  0  0  0  0
   -6.9146   -2.3015   -0.4081 H   0  0  0  0  0  0  0  0  0  0  0  0
   -5.5502   -0.5969    0.8506 H   0  0  0  0  0  0  0  0  0  0  0  0
   -5.6402    2.0868   -0.5171 H   0  0  0  0  0  0  0  0  0  0  0  0
   -2.8431    2.9903   -0.2419 H   0  0  0  0  0  0  0  0  0  0  0  0
   -1.7806    0.7219   -1.9356 H   0  0  0  0  0  0  0  0  0  0  0  0
    0.9235    0.2187   -1.6670 H   0  0  0  0  0  0  0  0  0  0  0  0
    1.1097    0.2736    1.3960 H   0  0  0  0  0  0  0  0  0  0  0  0
    3.4235   -0.8854    2.0223 H   0  0  0  0  0  0  0  0  0  0  0  0
    5.5639    0.4250    0.2939 H   0  0  0  0  0  0  0  0  0  0  0  0
    7.7980   -1.0436    0.1540 H   0  0  0  0  0  0  0  0  0  0  0  0
    7.7101   -2.5146    1.2692 H   0  0  0  0  0  0  0  0  0  0  0  0
    5.5122   -0.3514    3.2310 H   0  0  0  0  0  0  0  0  0  0  0  0
    5.2764    1.3558    2.5780 H   0  0  0  0  0  0  0  0  0  0  0  0
    7.9439   -1.1339    3.6750 H   0  0  0  0  0  0  0  0  0  0  0  0
   10.3055   -0.2569    3.1509 H   0  0  0  0  0  0  0  0  0  0  0  0
    6.4963    2.7567    0.6908 H   0  0  0  0  0  0  0  0  0  0  0  0
    8.3143    4.2024   -0.2808 H   0  0  0  0  0  0  0  0  0  0  0  0
   10.6188    3.7432    0.1909 H   0  0  0  0  0  0  0  0  0  0  0  0
   11.3093    1.9187    1.5820 H   0  0  0  0  0  0  0  0  0  0  0  0
    1.8501   -2.0978    1.2962 H   0  0  0  0  0  0  0  0  0  0  0  0
    0.2055   -1.8436    0.4659 H   0  0  0  0  0  0  0  0  0  0  0  0
    2.8125   -1.8811   -1.1622 H   0  0  0  0  0  0  0  0  0  0  0  0
    1.1087   -1.8273   -1.6848 H   0  0  0  0  0  0  0  0  0  0  0  0
    0.5500   -3.9167   -0.7001 H   0  0  0  0  0  0  0  0  0  0  0  0
    1.8820   -4.1266   -1.8663 H   0  0  0  0  0  0  0  0  0  0  0  0
    3.8577   -6.7118    1.5479 H   0  0  0  0  0  0  0  0  0  0  0  0
    4.4348   -5.0326    1.9128 H   0  0  0  0  0  0  0  0  0  0  0  0
    3.0645   -6.1190   -1.9069 H   0  0  0  0  0  0  0  0  0  0  0  0
    4.7561   -5.6827   -1.3850 H   0  0  0  0  0  0  0  0  0  0  0  0
   -1.7718    3.0888   -2.8759 H   0  0  0  0  0  0  0  0  0  0  0  0
   -0.7592    3.5649   -1.5215 H   0  0  0  0  0  0  0  0  0  0  0  0
   -0.8887    1.4671   -4.5148 H   0  0  0  0  0  0  0  0  0  0  0  0
    1.0565    1.0430   -5.9267 H   0  0  0  0  0  0  0  0  0  0  0  0
    3.3464    1.7574   -5.2161 H   0  0  0  0  0  0  0  0  0  0  0  0
    3.6145    2.8916   -3.0806 H   0  0  0  0  0  0  0  0  0  0  0  0
    1.6328    3.3491   -1.5971 H   0  0  0  0  0  0  0  0  0  0  0  0
   -4.1083    2.8263    1.3223 H   0  0  0  0  0  0  0  0  0  0  0  0
   -4.2222    1.2622    2.1161 H   0  0  0  0  0  0  0  0  0  0  0  0
   -6.1540    4.3322    1.4307 H   0  0  0  0  0  0  0  0  0  0  0  0
   -8.1229    4.9335    2.7013 H   0  0  0  0  0  0  0  0  0  0  0  0
   -8.1925    1.0389    4.4828 H   0  0  0  0  0  0  0  0  0  0  0  0
   -6.1633    0.4681    3.1521 H   0  0  0  0  0  0  0  0  0  0  0  0
  1  2  1  0
  2  3  1  0
  3  4  1  0
  4  5  1  0
  5  6  2  0
  5  7  1  0
  7  8  1  0
  8  9  1  0
  9 10  2  0
  9 11  1  0
 11 12  1  0
 12 13  1  0
 13 14  2  0
 13 15  1  0
 15 16  1  0
 16 17  1  0
 17 18  2  0
 17 19  1  0
 19 20  1  0
 20 21  1  0
 21 22  2  0
 21 23  1  0
 20 24  1  0
 24 25  1  0
 25 26  2  0
 26 27  1  0
 27 28  1  0
 28 29  2  0
 29 30  1  0
 30 31  2  0
 31 32  1  0
 32 33  2  0
 16 34  1  0
 34 35  1  0
 35 36  1  0
 36 37  1  0
 37 38  2  3
 38 39  1  0
 38 40  1  0
 12 41  1  0
 41 42  1  0
 42 43  2  0
 43 44  1  0
 44 45  2  0
 45 46  1  0
 46 47  2  0
  8 48  1  0
 48 49  1  0
 49 50  2  0
 50 51  1  0
 51 52  2  0
 52 53  1  0
 53 54  2  0
 52 55  1  0
 29 25  1  0
 47 42  1  0
 54 49  1  0
 33 28  1  0
  1 56  1  0
  1 57  1  0
  1 58  1  0
  2 59  1  0
  2 60  1  0
  3 61  1  0
  3 62  1  0
  4 63  1  0
  4 64  1  0
  7 65  1  0
  8 66  1  6
 11 67  1  0
 12 68  1  6
 15 69  1  0
 16 70  1  1
 19 71  1  0
 20 72  1  6
 23 73  1  0
 23 74  1  0
 24 75  1  0
 24 76  1  0
 26 77  1  0
 27 78  1  0
 30 79  1  0
 31 80  1  0
 32 81  1  0
 33 82  1  0
 34 83  1  0
 34 84  1  0
 35 85  1  0
 35 86  1  0
 36 87  1  0
 36 88  1  0
 39 89  1  0
 39 90  1  0
 40 91  1  0
 40 92  1  0
 41 93  1  0
 41 94  1  0
 43 95  1  0
 44 96  1  0
 45 97  1  0
 46 98  1  0
 47 99  1  0
 48100  1  0
 48101  1  0
 50102  1  0
 51103  1  0
 53104  1  0
 54105  1  0
M  END
>  <Ligand ID>  (1) 
LIG0004186

>  <Ligand>  (1) 
CHEMBL434544

>  <SMILES>  (1) 
CCCCC(=O)N[C@H](C(=O)N[C@H](C(=O)N[C@H](C(=O)N[C@H](C(=O)N)Cc1c[nH]c2c1cccc2)CCCN=C(N)N)Cc1ccccc1)Cc1ccc(cc1)Cl

>  <CID>  (1) 
44394582.0

>  <ChEMBL ID>  (1) 
nan

>  <InChiKey>  (1) 
GNUKIGFUVHROSL-CUPIEXAXSA-N

>  <InChi>  (1) 
InChI=1S/C40H50ClN9O5/c1-2-3-15-35(51)47-33(22-26-16-18-28(41)19-17-26)38(54)50-34(21-25-10-5-4-6-11-25)39(55)48-31(14-9-20-45-40(43)44)37(53)49-32(36(42)52)23-27-24-46-30-13-8-7-12-29(27)30/h4-8,10-13,16-19,24,31-34,46H,2-3,9,14-15,20-23H2,1H3,(H2,42,52)(H,47,51)(H,48,55)(H,49,53)(H,50,54)(H4,43,44,45)/t31-,32-,33-,34-/m0/s1

>  <IUPAC Name>  (1) 
(2S)-N-[(2S)-1-amino-3-(1H-indol-3-yl)-1-oxopropan-2-yl]-2-[[(2S)-2-[[(2S)-3-(4-chlorophenyl)-2-(pentanoylamino)propanoyl]amino]-3-phenylpropanoyl]amino]-5-(diaminomethylideneamino)pentanamide

$$$$
