
     RDKit          3D

 22 22  0  0  0  0  0  0  0  0999 V2000
   -3.5233   -0.9777    0.1145 N   0  0  0  0  0  0  0  0  0  0  0  0
   -3.3449    0.3404    0.5915 C   0  0  0  0  0  0  0  0  0  0  0  0
   -2.2176    0.9261    0.6954 N   0  0  0  0  0  0  0  0  0  0  0  0
   -1.0349    0.2661    0.3254 N   0  0  0  0  0  0  0  0  0  0  0  0
    0.0889    0.9188    0.3640 C   0  0  0  0  0  0  0  0  0  0  0  0
    1.3432    0.2768   -0.0107 C   0  0  0  0  0  0  0  0  0  0  0  0
    1.3692   -1.0299   -0.4128 C   0  0  0  0  0  0  0  0  0  0  0  0
    2.5924   -1.6102   -0.7641 C   0  0  0  0  0  0  0  0  0  0  0  0
    3.7718   -0.8734   -0.7077 C   0  0  0  0  0  0  0  0  0  0  0  0
    3.7352    0.4564   -0.2971 C   0  0  0  0  0  0  0  0  0  0  0  0
    2.5042    1.0016    0.0447 C   0  0  0  0  0  0  0  0  0  0  0  0
    5.3297    1.5070   -0.2041 Br  0  0  0  0  0  0  0  0  0  0  0  0
    5.4478   -1.6855   -1.1943 Br  0  0  0  0  0  0  0  0  0  0  0  0
   -4.5125    1.0769    0.9886 N   0  0  0  0  0  0  0  0  0  0  0  0
   -4.3778   -1.5316    0.4089 H   0  0  0  0  0  0  0  0  0  0  0  0
   -2.8758   -1.4789   -0.5210 H   0  0  0  0  0  0  0  0  0  0  0  0
    0.0537    1.9435    0.6814 H   0  0  0  0  0  0  0  0  0  0  0  0
    0.4924   -1.6464   -0.4757 H   0  0  0  0  0  0  0  0  0  0  0  0
    2.6290   -2.6431   -1.0843 H   0  0  0  0  0  0  0  0  0  0  0  0
    2.4674    2.0443    0.3678 H   0  0  0  0  0  0  0  0  0  0  0  0
   -5.4741    0.6681    0.9233 H   0  0  0  0  0  0  0  0  0  0  0  0
   -4.4638    2.0507    1.3602 H   0  0  0  0  0  0  0  0  0  0  0  0
  1  2  1  0
  2  3  2  0
  3  4  1  0
  4  5  2  0
  5  6  1  0
  6  7  2  0
  7  8  1  0
  8  9  2  0
  9 10  1  0
 10 11  2  0
 10 12  1  0
  9 13  1  0
  2 14  1  0
 11  6  1  0
  1 15  1  0
  1 16  1  0
  5 17  1  0
  7 18  1  0
  8 19  1  0
 11 20  1  0
 14 21  1  0
 14 22  1  0
M  END
>  <Ligand ID>  (1) 
LIG0005780

>  <Ligand>  (1) 
CHEMBL573297

>  <SMILES>  (1) 
NC(=N/N=C/c1ccc(c(c1)Br)Br)N

>  <CID>  (1) 
44542176.0

>  <ChEMBL ID>  (1) 
nan

>  <InChiKey>  (1) 
VMYFCUKMGMFQNH-YIXHJXPBSA-N

>  <InChi>  (1) 
InChI=1S/C8H8Br2N4/c9-6-2-1-5(3-7(6)10)4-13-14-8(11)12/h1-4H,(H4,11,12,14)/b13-4+

>  <IUPAC Name>  (1) 
2-[(E)-(3,4-dibromophenyl)methylideneamino]guanidine

$$$$
