
     RDKit          3D

110117  0  0  0  0  0  0  0  0999 V2000
   -1.3847   -2.5972    3.5430 O   0  0  0  0  0  0  0  0  0  0  0  0
   -0.1697   -2.2523    3.3325 C   0  0  0  0  0  0  0  0  0  0  0  0
   -0.0062   -1.0323    2.6976 O   0  0  0  0  0  0  0  0  0  0  0  0
   -1.1460   -0.2734    2.3316 C   0  0  0  0  0  0  0  0  0  0  0  0
   -1.6642    0.7008    3.1517 C   0  0  0  0  0  0  0  0  0  0  0  0
   -2.7914    1.3904    2.7046 C   0  0  0  0  0  0  0  0  0  0  0  0
   -3.3780    1.1179    1.4870 C   0  0  0  0  0  0  0  0  0  0  0  0
   -2.8014    0.1188    0.7063 C   0  0  0  0  0  0  0  0  0  0  0  0
   -1.6946   -0.5907    1.0932 C   0  0  0  0  0  0  0  0  0  0  0  0
   -3.5087   -0.1202   -0.6006 C   0  0  1  0  0  0  0  0  0  0  0  0
   -3.1759   -1.4500   -1.2008 C   0  0  0  0  0  0  0  0  0  0  0  0
   -3.6848   -2.5810   -0.3921 C   0  0  0  0  0  0  0  0  0  0  0  0
   -4.5586   -2.2562    0.7694 C   0  0  0  0  0  0  0  0  0  0  0  0
   -5.4658   -1.0865    0.6075 C   0  0  0  0  0  0  0  0  0  0  0  0
   -5.0058   -0.0583   -0.3825 C   0  0  1  0  0  0  0  0  0  0  0  0
   -5.3699    1.3406   -0.0297 C   0  0  1  0  0  0  0  0  0  0  0  0
   -4.5660    1.8878    1.0865 C   0  0  0  0  0  0  0  0  0  0  0  0
   -5.3193    2.1504   -1.2377 N   0  0  0  0  0  0  0  0  0  0  0  0
   -4.2798    1.7031   -2.1379 C   0  0  0  0  0  0  0  0  0  0  0  0
   -3.1219    1.0345   -1.4829 C   0  0  0  0  0  0  0  0  0  0  0  0
   -6.5542    2.0534   -1.9998 C   0  0  0  0  0  0  0  0  0  0  0  0
   -7.7399    2.6746   -1.3457 C   0  0  0  0  0  0  0  0  0  0  0  0
   -7.6881    4.1340   -1.0396 C   0  0  0  0  0  0  0  0  0  0  0  0
   -8.8150    4.3894   -1.9859 C   0  0  0  0  0  0  0  0  0  0  0  0
   -8.8148    2.9459   -2.3768 C   0  0  0  0  0  0  0  0  0  0  0  0
    0.9318   -3.1435    3.7629 C   0  0  0  0  0  0  0  0  0  0  0  0
    1.1238   -4.1554    2.6505 C   0  0  0  0  0  0  0  0  0  0  0  0
    1.4990   -3.4754    1.4219 N   0  0  0  0  0  0  0  0  0  0  0  0
    2.7176   -2.7534    1.4414 C   0  0  0  0  0  0  0  0  0  0  0  0
    3.4676   -2.6949    2.4706 O   0  0  0  0  0  0  0  0  0  0  0  0
    3.2397   -1.9912    0.2530 C   0  0  2  0  0  0  0  0  0  0  0  0
    3.2663   -2.8420   -0.9654 C   0  0  0  0  0  0  0  0  0  0  0  0
    4.4680   -3.7000   -1.0622 C   0  0  0  0  0  0  0  0  0  0  0  0
    4.4051   -4.7613   -1.9746 C   0  0  0  0  0  0  0  0  0  0  0  0
    5.4747   -5.6013   -2.1249 C   0  0  0  0  0  0  0  0  0  0  0  0
    6.6087   -5.3735   -1.3565 C   0  0  0  0  0  0  0  0  0  0  0  0
    6.6621   -4.3317   -0.4652 C   0  0  0  0  0  0  0  0  0  0  0  0
    5.5808   -3.4631   -0.2973 C   0  0  0  0  0  0  0  0  0  0  0  0
    5.7305   -2.3766    0.6842 C   0  0  0  0  0  0  0  0  0  0  0  0
    4.5553   -1.5362    0.6500 N   0  0  0  0  0  0  0  0  0  0  0  0
    4.7266   -0.1836    1.0642 C   0  0  0  0  0  0  0  0  0  0  0  0
    5.9080    0.1296    1.4322 O   0  0  0  0  0  0  0  0  0  0  0  0
    3.6954    0.8377    1.1062 C   0  0  2  0  0  0  0  0  0  0  0  0
    3.4159    1.5798   -0.1814 C   0  0  0  0  0  0  0  0  0  0  0  0
    4.5711    2.3311   -0.7145 C   0  0  0  0  0  0  0  0  0  0  0  0
    5.6005    1.7251   -1.4385 C   0  0  0  0  0  0  0  0  0  0  0  0
    5.5827    0.2902   -1.8053 C   0  0  0  0  0  0  0  0  0  0  0  0
    6.6943    2.4524   -1.8955 C   0  0  0  0  0  0  0  0  0  0  0  0
    6.8163    3.8015   -1.6602 C   0  0  0  0  0  0  0  0  0  0  0  0
    5.8161    4.4061   -0.9558 C   0  0  0  0  0  0  0  0  0  0  0  0
    4.7027    3.7025   -0.4814 C   0  0  0  0  0  0  0  0  0  0  0  0
    3.6982    4.5043    0.2458 C   0  0  0  0  0  0  0  0  0  0  0  0
    7.9217    4.4757   -2.1354 O   0  0  0  0  0  0  0  0  0  0  0  0
    4.1664    1.8679    2.0706 N   0  0  0  0  0  0  0  0  0  0  0  0
   -1.2083    0.9159    4.1031 H   0  0  0  0  0  0  0  0  0  0  0  0
   -3.2109    2.1612    3.3399 H   0  0  0  0  0  0  0  0  0  0  0  0
   -1.2740   -1.3579    0.4612 H   0  0  0  0  0  0  0  0  0  0  0  0
   -2.0827   -1.5774   -1.3847 H   0  0  0  0  0  0  0  0  0  0  0  0
   -3.6995   -1.4568   -2.2098 H   0  0  0  0  0  0  0  0  0  0  0  0
   -2.7901   -3.1524    0.0107 H   0  0  0  0  0  0  0  0  0  0  0  0
   -4.1778   -3.3185   -1.0906 H   0  0  0  0  0  0  0  0  0  0  0  0
   -3.9782   -2.2170    1.7386 H   0  0  0  0  0  0  0  0  0  0  0  0
   -5.2096   -3.1716    0.9276 H   0  0  0  0  0  0  0  0  0  0  0  0
   -5.5717   -0.6038    1.6057 H   0  0  0  0  0  0  0  0  0  0  0  0
   -6.4891   -1.4555    0.3676 H   0  0  0  0  0  0  0  0  0  0  0  0
   -5.4590   -0.3335   -1.3574 H   0  0  0  0  0  0  0  0  0  0  0  0
   -6.4461    1.3278    0.2638 H   0  0  0  0  0  0  0  0  0  0  0  0
   -5.2571    2.0581    1.9706 H   0  0  0  0  0  0  0  0  0  0  0  0
   -4.1930    2.9245    0.8708 H   0  0  0  0  0  0  0  0  0  0  0  0
   -3.8710    2.6562   -2.5921 H   0  0  0  0  0  0  0  0  0  0  0  0
   -4.6677    1.1453   -3.0137 H   0  0  0  0  0  0  0  0  0  0  0  0
   -2.4929    0.5865   -2.3093 H   0  0  0  0  0  0  0  0  0  0  0  0
   -2.4259    1.7593   -0.9987 H   0  0  0  0  0  0  0  0  0  0  0  0
   -6.3524    2.5922   -2.9561 H   0  0  0  0  0  0  0  0  0  0  0  0
   -6.7796    0.9851   -2.1622 H   0  0  0  0  0  0  0  0  0  0  0  0
   -8.1751    2.0358   -0.5451 H   0  0  0  0  0  0  0  0  0  0  0  0
   -7.9720    4.3109    0.0375 H   0  0  0  0  0  0  0  0  0  0  0  0
   -6.7406    4.6595   -1.2600 H   0  0  0  0  0  0  0  0  0  0  0  0
   -8.5347    5.1047   -2.7837 H   0  0  0  0  0  0  0  0  0  0  0  0
   -9.7505    4.6501   -1.4488 H   0  0  0  0  0  0  0  0  0  0  0  0
   -8.4878    2.8344   -3.4350 H   0  0  0  0  0  0  0  0  0  0  0  0
   -9.7656    2.3926   -2.2257 H   0  0  0  0  0  0  0  0  0  0  0  0
    0.5294   -3.7257    4.6436 H   0  0  0  0  0  0  0  0  0  0  0  0
    1.8330   -2.6387    4.0928 H   0  0  0  0  0  0  0  0  0  0  0  0
    0.1343   -4.6202    2.4755 H   0  0  0  0  0  0  0  0  0  0  0  0
    1.8291   -4.9494    2.9163 H   0  0  0  0  0  0  0  0  0  0  0  0
    0.9259   -3.4957    0.5519 H   0  0  0  0  0  0  0  0  0  0  0  0
    2.5451   -1.1245    0.1654 H   0  0  0  0  0  0  0  0  0  0  0  0
    2.3565   -3.5056   -1.0295 H   0  0  0  0  0  0  0  0  0  0  0  0
    3.2413   -2.1683   -1.8711 H   0  0  0  0  0  0  0  0  0  0  0  0
    3.5130   -4.9334   -2.5733 H   0  0  0  0  0  0  0  0  0  0  0  0
    5.4108   -6.4178   -2.8359 H   0  0  0  0  0  0  0  0  0  0  0  0
    7.4671   -6.0521   -1.4807 H   0  0  0  0  0  0  0  0  0  0  0  0
    7.5650   -4.1857    0.1160 H   0  0  0  0  0  0  0  0  0  0  0  0
    5.7318   -2.8257    1.7239 H   0  0  0  0  0  0  0  0  0  0  0  0
    6.6613   -1.7910    0.5256 H   0  0  0  0  0  0  0  0  0  0  0  0
    2.7656    0.4282    1.5250 H   0  0  0  0  0  0  0  0  0  0  0  0
    3.0666    0.8897   -0.9838 H   0  0  0  0  0  0  0  0  0  0  0  0
    2.5510    2.2323    0.0243 H   0  0  0  0  0  0  0  0  0  0  0  0
    5.8910    0.2249   -2.9014 H   0  0  0  0  0  0  0  0  0  0  0  0
    4.5890   -0.1691   -1.7905 H   0  0  0  0  0  0  0  0  0  0  0  0
    6.3817   -0.2677   -1.2875 H   0  0  0  0  0  0  0  0  0  0  0  0
    7.4953    1.9650   -2.4614 H   0  0  0  0  0  0  0  0  0  0  0  0
    5.9151    5.4718   -0.7710 H   0  0  0  0  0  0  0  0  0  0  0  0
    3.8090    5.5794   -0.0589 H   0  0  0  0  0  0  0  0  0  0  0  0
    3.8473    4.4877    1.3390 H   0  0  0  0  0  0  0  0  0  0  0  0
    2.6575    4.2028    0.0283 H   0  0  0  0  0  0  0  0  0  0  0  0
    8.8016    4.4388   -1.6098 H   0  0  0  0  0  0  0  0  0  0  0  0
    4.0111    1.4725    3.0219 H   0  0  0  0  0  0  0  0  0  0  0  0
    5.1948    1.9581    1.8847 H   0  0  0  0  0  0  0  0  0  0  0  0
  1  2  2  0
  2  3  1  0
  3  4  1  0
  4  5  2  0
  5  6  1  0
  6  7  2  0
  7  8  1  0
  8  9  2  0
  8 10  1  0
 10 11  1  6
 11 12  1  0
 12 13  1  0
 13 14  1  0
 14 15  1  0
 15 16  1  0
 16 17  1  0
 16 18  1  0
 18 19  1  0
 19 20  1  0
 18 21  1  0
 21 22  1  0
 22 23  1  0
 23 24  1  0
 24 25  1  0
  2 26  1  0
 26 27  1  0
 27 28  1  0
 28 29  1  0
 29 30  2  0
 29 31  1  0
 31 32  1  0
 32 33  1  0
 33 34  2  0
 34 35  1  0
 35 36  2  0
 36 37  1  0
 37 38  2  0
 38 39  1  0
 39 40  1  0
 40 41  1  0
 41 42  2  0
 41 43  1  0
 43 44  1  0
 44 45  1  0
 45 46  2  0
 46 47  1  0
 46 48  1  0
 48 49  2  0
 49 50  1  0
 50 51  2  0
 51 52  1  0
 49 53  1  0
 43 54  1  0
  9  4  1  0
 20 10  1  0
 25 22  1  0
 40 31  1  0
 51 45  1  0
 17  7  1  0
 38 33  1  0
 15 10  1  0
  5 55  1  0
  6 56  1  0
  9 57  1  0
 11 58  1  0
 11 59  1  0
 12 60  1  0
 12 61  1  0
 13 62  1  0
 13 63  1  0
 14 64  1  0
 14 65  1  0
 15 66  1  6
 16 67  1  1
 17 68  1  0
 17 69  1  0
 19 70  1  0
 19 71  1  0
 20 72  1  0
 20 73  1  0
 21 74  1  0
 21 75  1  0
 22 76  1  0
 23 77  1  0
 23 78  1  0
 24 79  1  0
 24 80  1  0
 25 81  1  0
 25 82  1  0
 26 83  1  0
 26 84  1  0
 27 85  1  0
 27 86  1  0
 28 87  1  0
 31 88  1  6
 32 89  1  0
 32 90  1  0
 34 91  1  0
 35 92  1  0
 36 93  1  0
 37 94  1  0
 39 95  1  0
 39 96  1  0
 43 97  1  1
 44 98  1  0
 44 99  1  0
 47100  1  0
 47101  1  0
 47102  1  0
 48103  1  0
 50104  1  0
 52105  1  0
 52106  1  0
 52107  1  0
 53108  1  0
 54109  1  0
 54110  1  0
M  END
>  <Ligand ID>  (1) 
LIG0003763

>  <Ligand>  (1) 
CHEMBL373984

>  <SMILES>  (1) 
O=C(Oc1ccc2c(c1)[C@]13CCCC[C@H]3[C@@H](C2)N(CC1)CC1CCC1)CCNC(=O)[C@@H]1Cc2ccccc2CN1C(=O)[C@H](Cc1c(C)cc(cc1C)O)N

>  <CID>  (1) 
16083055.0

>  <ChEMBL ID>  (1) 
nan

>  <InChiKey>  (1) 
FYEXOHKTNZXZQH-KKEISOQISA-N

>  <InChi>  (1) 
InChI=1S/C45H56N4O5/c1-28-20-34(50)21-29(2)36(28)25-39(46)44(53)49-27-33-11-4-3-10-31(33)22-41(49)43(52)47-18-15-42(51)54-35-14-13-32-23-40-37-12-5-6-16-45(37,38(32)24-35)17-19-48(40)26-30-8-7-9-30/h3-4,10-11,13-14,20-21,24,30,37,39-41,50H,5-9,12,15-19,22-23,25-27,46H2,1-2H3,(H,47,52)/t37-,39-,40+,41-,45+/m0/s1

>  <IUPAC Name>  (1) 
[(1R,9R,10R)-17-(cyclobutylmethyl)-17-azatetracyclo[7.5.3.01,10.02,7]heptadeca-2(7),3,5-trien-4-yl] 3-[[(3S)-2-[(2S)-2-amino-3-(4-hydroxy-2,6-dimethylphenyl)propanoyl]-3,4-dihydro-1H-isoquinoline-3-carbonyl]amino]propanoate

$$$$
