
     RDKit          3D

 87 91  0  0  0  0  0  0  0  0999 V2000
   -4.6431    0.4980   -2.3504 O   0  0  0  0  0  0  0  0  0  0  0  0
   -4.6862    0.2487   -1.0969 C   0  0  0  0  0  0  0  0  0  0  0  0
   -5.9487    0.5698   -0.3458 C   0  0  2  0  0  0  0  0  0  0  0  0
   -6.1802    2.0424   -0.4029 C   0  0  0  0  0  0  0  0  0  0  0  0
   -6.9112    2.6765    0.7022 C   0  0  0  0  0  0  0  0  0  0  0  0
   -7.3769    1.8304    1.8340 C   0  0  0  0  0  0  0  0  0  0  0  0
   -7.0778    0.3619    1.6619 C   0  0  0  0  0  0  0  0  0  0  0  0
   -5.8049    0.1620    1.0329 N   0  0  0  0  0  0  0  0  0  0  0  0
   -3.6215   -0.3073   -0.3821 N   0  0  0  0  0  0  0  0  0  0  0  0
   -2.3262   -0.6722   -0.9991 C   0  0  1  0  0  0  0  0  0  0  0  0
   -1.2639    0.2196   -0.4761 C   0  0  0  0  0  0  0  0  0  0  0  0
   -1.6392    0.9960    0.4779 O   0  0  0  0  0  0  0  0  0  0  0  0
    0.0589    0.2861   -0.9133 N   0  0  0  0  0  0  0  0  0  0  0  0
    0.7906   -0.3975   -1.9801 C   0  0  0  0  0  0  0  0  0  0  0  0
    2.0651   -0.8594   -1.2957 C   0  0  1  0  0  0  0  0  0  0  0  0
    2.2108    0.1001   -0.1390 C   0  0  0  0  0  0  0  0  0  0  0  0
    1.1255    1.1067   -0.3322 C   0  0  2  0  0  0  0  0  0  0  0  0
    0.7294    1.8275    0.9088 C   0  0  0  0  0  0  0  0  0  0  0  0
    1.9734    2.6071    1.3581 C   0  0  0  0  0  0  0  0  0  0  0  0
    1.6794    3.3853    2.6247 C   0  0  0  0  0  0  0  0  0  0  0  0
    2.9377    4.0725    2.9484 N   0  0  0  0  0  0  0  0  0  0  0  0
    2.9389    5.3515    2.8080 C   0  0  0  0  0  0  0  0  0  0  0  0
    4.1081    6.1348    3.0927 N   0  0  0  0  0  0  0  0  0  0  0  0
    1.7977    6.0914    2.3643 N   0  0  0  0  0  0  0  0  0  0  0  0
    1.9376   -2.1690   -0.8415 O   0  0  0  0  0  0  0  0  0  0  0  0
    2.9541   -2.9622   -1.2654 C   0  0  0  0  0  0  0  0  0  0  0  0
    4.3119   -2.5865   -0.8747 C   0  0  0  0  0  0  0  0  0  0  0  0
    4.7297   -2.9735    0.4050 C   0  0  0  0  0  0  0  0  0  0  0  0
    5.9839   -2.7022    0.8875 C   0  0  0  0  0  0  0  0  0  0  0  0
    6.8575   -2.0217    0.0718 C   0  0  0  0  0  0  0  0  0  0  0  0
    6.4789   -1.6224   -1.2033 C   0  0  0  0  0  0  0  0  0  0  0  0
    5.2113   -1.9069   -1.6674 C   0  0  0  0  0  0  0  0  0  0  0  0
    7.3926   -0.9437   -1.9828 C   0  0  0  0  0  0  0  0  0  0  0  0
    8.6602   -0.6546   -1.5308 C   0  0  0  0  0  0  0  0  0  0  0  0
    9.0033   -1.0696   -0.2502 C   0  0  0  0  0  0  0  0  0  0  0  0
    8.1303   -1.7497    0.5677 C   0  0  0  0  0  0  0  0  0  0  0  0
   -1.9912   -2.0885   -0.5794 C   0  0  0  0  0  0  0  0  0  0  0  0
   -2.9811   -3.0915   -0.9977 C   0  0  0  0  0  0  0  0  0  0  0  0
   -4.0840   -3.4272   -0.2274 C   0  0  0  0  0  0  0  0  0  0  0  0
   -4.9216   -4.3962   -0.7360 C   0  0  0  0  0  0  0  0  0  0  0  0
   -4.7344   -5.0336   -1.9307 C   0  0  0  0  0  0  0  0  0  0  0  0
   -3.6206   -4.6909   -2.7036 C   0  0  0  0  0  0  0  0  0  0  0  0
   -2.7657   -3.7226   -2.2160 C   0  0  0  0  0  0  0  0  0  0  0  0
   -6.7693   -0.0067   -0.8386 H   0  0  0  0  0  0  0  0  0  0  0  0
   -6.6778    2.2292   -1.4021 H   0  0  0  0  0  0  0  0  0  0  0  0
   -5.1687    2.5265   -0.5482 H   0  0  0  0  0  0  0  0  0  0  0  0
   -6.2895    3.5190    1.1287 H   0  0  0  0  0  0  0  0  0  0  0  0
   -7.8151    3.2142    0.3041 H   0  0  0  0  0  0  0  0  0  0  0  0
   -6.8842    2.1171    2.7883 H   0  0  0  0  0  0  0  0  0  0  0  0
   -8.4656    1.9190    2.0280 H   0  0  0  0  0  0  0  0  0  0  0  0
   -7.8903   -0.0704    1.0060 H   0  0  0  0  0  0  0  0  0  0  0  0
   -7.1236   -0.1785    2.6213 H   0  0  0  0  0  0  0  0  0  0  0  0
   -5.1200    0.7809    1.5033 H   0  0  0  0  0  0  0  0  0  0  0  0
   -3.6548   -0.5127    0.6579 H   0  0  0  0  0  0  0  0  0  0  0  0
   -2.4087   -0.5207   -2.0763 H   0  0  0  0  0  0  0  0  0  0  0  0
    0.2890   -1.2175   -2.4547 H   0  0  0  0  0  0  0  0  0  0  0  0
    1.1362    0.3432   -2.7459 H   0  0  0  0  0  0  0  0  0  0  0  0
    2.9515   -0.6944   -1.9410 H   0  0  0  0  0  0  0  0  0  0  0  0
    1.9975   -0.4429    0.8287 H   0  0  0  0  0  0  0  0  0  0  0  0
    3.2246    0.5585   -0.1053 H   0  0  0  0  0  0  0  0  0  0  0  0
    1.4770    1.8664   -1.0693 H   0  0  0  0  0  0  0  0  0  0  0  0
    0.3224    1.2263    1.7189 H   0  0  0  0  0  0  0  0  0  0  0  0
    0.0087    2.6257    0.6093 H   0  0  0  0  0  0  0  0  0  0  0  0
    2.3301    3.2455    0.5517 H   0  0  0  0  0  0  0  0  0  0  0  0
    2.7729    1.8779    1.6093 H   0  0  0  0  0  0  0  0  0  0  0  0
    0.8614    4.0805    2.4427 H   0  0  0  0  0  0  0  0  0  0  0  0
    1.3695    2.7183    3.4507 H   0  0  0  0  0  0  0  0  0  0  0  0
    4.8990    5.7444    3.6637 H   0  0  0  0  0  0  0  0  0  0  0  0
    4.2359    7.1083    2.7583 H   0  0  0  0  0  0  0  0  0  0  0  0
    1.6593    6.2670    1.3378 H   0  0  0  0  0  0  0  0  0  0  0  0
    1.0788    6.4763    3.0147 H   0  0  0  0  0  0  0  0  0  0  0  0
    2.7378   -3.9953   -0.8487 H   0  0  0  0  0  0  0  0  0  0  0  0
    2.9698   -3.0944   -2.3822 H   0  0  0  0  0  0  0  0  0  0  0  0
    4.0380   -3.5169    1.0640 H   0  0  0  0  0  0  0  0  0  0  0  0
    6.2438   -3.0264    1.8837 H   0  0  0  0  0  0  0  0  0  0  0  0
    4.9604   -1.5908   -2.6673 H   0  0  0  0  0  0  0  0  0  0  0  0
    7.1493   -0.6080   -2.9942 H   0  0  0  0  0  0  0  0  0  0  0  0
    9.4110   -0.1326   -2.0817 H   0  0  0  0  0  0  0  0  0  0  0  0
    9.9941   -0.8733    0.1738 H   0  0  0  0  0  0  0  0  0  0  0  0
    8.4049   -2.0698    1.5656 H   0  0  0  0  0  0  0  0  0  0  0  0
   -0.9898   -2.3360   -0.9110 H   0  0  0  0  0  0  0  0  0  0  0  0
   -1.9850   -2.0538    0.5430 H   0  0  0  0  0  0  0  0  0  0  0  0
   -4.2515   -2.9319    0.7268 H   0  0  0  0  0  0  0  0  0  0  0  0
   -5.7931   -4.6745   -0.1462 H   0  0  0  0  0  0  0  0  0  0  0  0
   -5.4122   -5.7985   -2.3094 H   0  0  0  0  0  0  0  0  0  0  0  0
   -3.4087   -5.1486   -3.6496 H   0  0  0  0  0  0  0  0  0  0  0  0
   -1.9036   -3.4690   -2.8335 H   0  0  0  0  0  0  0  0  0  0  0  0
  1  2  2  0
  2  3  1  0
  3  4  1  0
  4  5  1  0
  5  6  1  0
  6  7  1  0
  7  8  1  0
  2  9  1  0
  9 10  1  0
 10 11  1  0
 11 12  2  0
 11 13  1  0
 13 14  1  0
 14 15  1  0
 15 16  1  0
 16 17  1  0
 17 18  1  0
 18 19  1  0
 19 20  1  0
 20 21  1  0
 21 22  2  3
 22 23  1  0
 22 24  1  0
 15 25  1  0
 25 26  1  0
 26 27  1  0
 27 28  2  0
 28 29  1  0
 29 30  2  0
 30 31  1  0
 31 32  2  0
 31 33  1  0
 33 34  2  0
 34 35  1  0
 35 36  2  0
 10 37  1  0
 37 38  1  0
 38 39  2  0
 39 40  1  0
 40 41  2  0
 41 42  1  0
 42 43  2  0
  8  3  1  0
 17 13  1  0
 32 27  1  0
 43 38  1  0
 36 30  1  0
  3 44  1  6
  4 45  1  0
  4 46  1  0
  5 47  1  0
  5 48  1  0
  6 49  1  0
  6 50  1  0
  7 51  1  0
  7 52  1  0
  8 53  1  0
  9 54  1  0
 10 55  1  6
 14 56  1  0
 14 57  1  0
 15 58  1  6
 16 59  1  0
 16 60  1  0
 17 61  1  6
 18 62  1  0
 18 63  1  0
 19 64  1  0
 19 65  1  0
 20 66  1  0
 20 67  1  0
 23 68  1  0
 23 69  1  0
 24 70  1  0
 24 71  1  0
 26 72  1  0
 26 73  1  0
 28 74  1  0
 29 75  1  0
 32 76  1  0
 33 77  1  0
 34 78  1  0
 35 79  1  0
 36 80  1  0
 37 81  1  0
 37 82  1  0
 39 83  1  0
 40 84  1  0
 41 85  1  0
 42 86  1  0
 43 87  1  0
M  END
>  <Ligand ID>  (1) 
LIG0003102

>  <Ligand>  (1) 
CHEMBL213956

>  <SMILES>  (1) 
O=C([C@@H]1CCCCN1)N[C@@H](C(=O)N1C[C@@H](C[C@@H]1CCCN=C(N)N)OCc1ccc2c(c1)cccc2)Cc1ccccc1

>  <CID>  (1) 
11846669.0

>  <ChEMBL ID>  (1) 
nan

>  <InChiKey>  (1) 
AIBOPTDBFGOAQA-XFBWMNOSSA-N

>  <InChi>  (1) 
InChI=1S/C34H44N6O3/c35-34(36)38-18-8-13-28-21-29(43-23-25-15-16-26-11-4-5-12-27(26)19-25)22-40(28)33(42)31(20-24-9-2-1-3-10-24)39-32(41)30-14-6-7-17-37-30/h1-5,9-12,15-16,19,28-31,37H,6-8,13-14,17-18,20-23H2,(H,39,41)(H4,35,36,38)/t28-,29+,30-,31+/m0/s1

>  <IUPAC Name>  (1) 
(2S)-N-[(2R)-1-[(2S,4R)-2-[3-(diaminomethylideneamino)propyl]-4-(naphthalen-2-ylmethoxy)pyrrolidin-1-yl]-1-oxo-3-phenylpropan-2-yl]piperidine-2-carboxamide

$$$$
