
     RDKit          3D

 64 69  0  0  0  0  0  0  0  0999 V2000
   -6.0110    4.3249    1.6941 C   0  0  0  0  0  0  0  0  0  0  0  0
   -4.9466    3.5837    1.3118 O   0  0  0  0  0  0  0  0  0  0  0  0
   -4.6539    2.4075    0.7557 C   0  0  0  0  0  0  0  0  0  0  0  0
   -5.5916    1.4703    0.3004 C   0  0  0  0  0  0  0  0  0  0  0  0
   -5.2217    0.2655   -0.2681 C   0  0  0  0  0  0  0  0  0  0  0  0
   -3.8767   -0.0516   -0.4014 C   0  0  0  0  0  0  0  0  0  0  0  0
   -2.9830    0.8558    0.0403 C   0  0  0  0  0  0  0  0  0  0  0  0
   -3.3208    2.0541    0.6064 C   0  0  0  0  0  0  0  0  0  0  0  0
   -2.0862    2.6563    0.9190 O   0  0  0  0  0  0  0  0  0  0  0  0
   -1.1953    1.5361    1.2399 C   0  0  2  0  0  0  0  0  0  0  0  0
   -1.4959    0.6870    0.0256 C   0  0  2  0  0  0  0  0  0  0  0  0
   -0.9786    1.2846   -1.2358 C   0  0  0  0  0  0  0  0  0  0  0  0
   -1.5789    0.5584   -2.4074 C   0  0  0  0  0  0  0  0  0  0  0  0
   -1.3340   -0.8613   -2.2676 N   0  0  0  0  0  0  0  0  0  0  0  0
   -1.9110   -1.3901   -1.0617 C   0  0  2  0  0  0  0  0  0  0  0  0
   -3.3743   -1.3157   -0.9744 C   0  0  0  0  0  0  0  0  0  0  0  0
   -1.1294   -0.7474    0.0994 C   0  0  2  0  0  0  0  0  0  0  0  0
   -1.5339   -1.4117    1.3829 C   0  0  0  0  0  0  0  0  0  0  0  0
   -2.1663   -0.5458    2.4068 C   0  0  0  0  0  0  0  0  0  0  0  0
   -1.7791    0.8847    2.4102 C   0  0  0  0  0  0  0  0  0  0  0  0
   -1.9718    1.5163    3.4463 O   0  0  0  0  0  0  0  0  0  0  0  0
    0.2606   -0.9536   -0.2284 N   0  0  0  0  0  0  0  0  0  0  0  0
    1.3480   -0.6860    0.6499 C   0  0  0  0  0  0  0  0  0  0  0  0
    1.1114   -0.2512    1.7845 O   0  0  0  0  0  0  0  0  0  0  0  0
    2.7465   -0.8980    0.2816 C   0  0  0  0  0  0  0  0  0  0  0  0
    3.7142   -0.6430    1.1417 C   0  0  0  0  0  0  0  0  0  0  0  0
    5.1295   -0.8257    0.8672 C   0  0  0  0  0  0  0  0  0  0  0  0
    6.0322   -0.5224    1.8532 C   0  0  0  0  0  0  0  0  0  0  0  0
    7.3854   -0.6444    1.7654 C   0  0  0  0  0  0  0  0  0  0  0  0
    7.8802   -1.1293    0.5406 C   0  0  0  0  0  0  0  0  0  0  0  0
    6.9759   -1.4376   -0.4630 C   0  0  0  0  0  0  0  0  0  0  0  0
    5.6106   -1.2952   -0.3238 C   0  0  0  0  0  0  0  0  0  0  0  0
    9.3453   -1.3047    0.3433 C   0  0  0  0  0  0  0  0  0  0  0  0
   -1.6104   -1.5951   -3.4642 C   0  0  0  0  0  0  0  0  0  0  0  0
   -5.8775    4.7438    2.7325 H   0  0  0  0  0  0  0  0  0  0  0  0
   -6.9432    3.7351    1.7456 H   0  0  0  0  0  0  0  0  0  0  0  0
   -6.1749    5.1969    1.0158 H   0  0  0  0  0  0  0  0  0  0  0  0
   -6.6566    1.7124    0.4084 H   0  0  0  0  0  0  0  0  0  0  0  0
   -5.9582   -0.4404   -0.6134 H   0  0  0  0  0  0  0  0  0  0  0  0
   -0.2315    1.9891    1.3078 H   0  0  0  0  0  0  0  0  0  0  0  0
   -1.2869    2.3589   -1.2347 H   0  0  0  0  0  0  0  0  0  0  0  0
    0.1400    1.2587   -1.2593 H   0  0  0  0  0  0  0  0  0  0  0  0
   -2.6640    0.7817   -2.4394 H   0  0  0  0  0  0  0  0  0  0  0  0
   -1.1114    0.8967   -3.3340 H   0  0  0  0  0  0  0  0  0  0  0  0
   -1.6083   -2.4792   -1.0360 H   0  0  0  0  0  0  0  0  0  0  0  0
   -3.7965   -2.1833   -0.4189 H   0  0  0  0  0  0  0  0  0  0  0  0
   -3.7923   -1.3854   -1.9890 H   0  0  0  0  0  0  0  0  0  0  0  0
   -0.6540   -1.9458    1.8502 H   0  0  0  0  0  0  0  0  0  0  0  0
   -2.2288   -2.2510    1.1683 H   0  0  0  0  0  0  0  0  0  0  0  0
   -1.9118   -0.9407    3.4361 H   0  0  0  0  0  0  0  0  0  0  0  0
   -3.2925   -0.6435    2.3926 H   0  0  0  0  0  0  0  0  0  0  0  0
    0.5698   -1.3321   -1.1887 H   0  0  0  0  0  0  0  0  0  0  0  0
    2.9817   -1.2695   -0.7091 H   0  0  0  0  0  0  0  0  0  0  0  0
    3.3846   -0.2833    2.1257 H   0  0  0  0  0  0  0  0  0  0  0  0
    5.6432   -0.1413    2.8062 H   0  0  0  0  0  0  0  0  0  0  0  0
    8.0624   -0.3981    2.5679 H   0  0  0  0  0  0  0  0  0  0  0  0
    7.3442   -1.8140   -1.4243 H   0  0  0  0  0  0  0  0  0  0  0  0
    4.9529   -1.5422   -1.1316 H   0  0  0  0  0  0  0  0  0  0  0  0
    9.7344   -0.7422   -0.5304 H   0  0  0  0  0  0  0  0  0  0  0  0
    9.6535   -2.3663    0.3527 H   0  0  0  0  0  0  0  0  0  0  0  0
    9.8517   -0.8448    1.2388 H   0  0  0  0  0  0  0  0  0  0  0  0
   -0.8015   -2.3359   -3.6268 H   0  0  0  0  0  0  0  0  0  0  0  0
   -2.6151   -2.0424   -3.5258 H   0  0  0  0  0  0  0  0  0  0  0  0
   -1.5031   -0.8674   -4.3137 H   0  0  0  0  0  0  0  0  0  0  0  0
  1  2  1  0
  2  3  1  0
  3  4  2  0
  4  5  1  0
  5  6  2  0
  6  7  1  0
  7  8  2  0
  8  9  1  0
  9 10  1  0
 10 11  1  0
 11 12  1  6
 12 13  1  0
 13 14  1  0
 14 15  1  0
 15 16  1  0
 15 17  1  0
 17 18  1  0
 18 19  1  0
 19 20  1  0
 20 21  2  0
 17 22  1  6
 22 23  1  0
 23 24  2  0
 23 25  1  0
 25 26  2  0
 26 27  1  0
 27 28  2  0
 28 29  1  0
 29 30  2  0
 30 31  1  0
 31 32  2  0
 30 33  1  0
 14 34  1  0
  8  3  1  0
 20 10  1  0
 32 27  1  0
 16  6  1  0
 11  7  1  0
 17 11  1  0
  1 35  1  0
  1 36  1  0
  1 37  1  0
  4 38  1  0
  5 39  1  0
 10 40  1  1
 12 41  1  0
 12 42  1  0
 13 43  1  0
 13 44  1  0
 15 45  1  6
 16 46  1  0
 16 47  1  0
 18 48  1  0
 18 49  1  0
 19 50  1  0
 19 51  1  0
 22 52  1  0
 25 53  1  0
 26 54  1  0
 28 55  1  0
 29 56  1  0
 31 57  1  0
 32 58  1  0
 33 59  1  0
 33 60  1  0
 33 61  1  0
 34 62  1  0
 34 63  1  0
 34 64  1  0
M  END
>  <Ligand ID>  (1) 
LIG0003796

>  <Ligand>  (1) 
CHEMBL607127

>  <SMILES>  (1) 
COc1ccc2c3c1O[C@@H]1[C@@]43CCN([C@H](C2)[C@@]4(CCC1=O)NC(=O)/C=C/c1ccc(cc1)C)C

>  <CID>  (1) 
11849283.0

>  <ChEMBL ID>  (1) 
nan

>  <InChiKey>  (1) 
DXMFOUDANJICCW-BSUKXFEISA-N

>  <InChi>  (1) 
InChI=1S/C28H30N2O4/c1-17-4-6-18(7-5-17)8-11-23(32)29-28-13-12-20(31)26-27(28)14-15-30(2)22(28)16-19-9-10-21(33-3)25(34-26)24(19)27/h4-11,22,26H,12-16H2,1-3H3,(H,29,32)/b11-8+/t22-,26+,27+,28-/m1/s1

>  <IUPAC Name>  (1) 
(E)-N-[(4R,4aS,7aR,12bR)-9-methoxy-3-methyl-7-oxo-2,4,5,6,7a,13-hexahydro-1H-4,12-methanobenzofuro[3,2-e]isoquinolin-4a-yl]-3-(4-methylphenyl)prop-2-enamide

$$$$
