
     RDKit          3D

 80 81  0  0  0  0  0  0  0  0999 V2000
   -8.9350    4.0748    0.2061 O   0  0  0  0  0  0  0  0  0  0  0  0
   -9.4403    3.1213   -0.6804 C   0  0  0  0  0  0  0  0  0  0  0  0
   -8.5663    1.9134   -0.7315 C   0  0  0  0  0  0  0  0  0  0  0  0
   -7.7068    1.6727   -1.8039 C   0  0  0  0  0  0  0  0  0  0  0  0
   -6.9153    0.5434   -1.8134 C   0  0  0  0  0  0  0  0  0  0  0  0
   -6.9938   -0.3329   -0.7474 C   0  0  0  0  0  0  0  0  0  0  0  0
   -7.8315   -0.1260    0.3279 C   0  0  0  0  0  0  0  0  0  0  0  0
   -8.6322    1.0189    0.3343 C   0  0  0  0  0  0  0  0  0  0  0  0
   -9.5037    1.2922    1.3900 O   0  0  0  0  0  0  0  0  0  0  0  0
   -5.9976    0.3028   -2.9752 C   0  0  2  0  0  0  0  0  0  0  0  0
   -5.0637   -0.8338   -2.7073 C   0  0  0  0  0  0  0  0  0  0  0  0
   -4.1916   -0.6867   -1.5979 N   0  0  0  0  0  0  0  0  0  0  0  0
   -3.1631    0.3000   -1.7029 C   0  0  0  0  0  0  0  0  0  0  0  0
   -2.2769    0.3270   -0.4744 C   0  0  0  0  0  0  0  0  0  0  0  0
   -1.5723   -0.9988   -0.2264 C   0  0  0  0  0  0  0  0  0  0  0  0
   -0.6964   -1.4027   -1.3557 C   0  0  0  0  0  0  0  0  0  0  0  0
    0.0111   -2.7160   -1.2138 C   0  0  0  0  0  0  0  0  0  0  0  0
    0.9250   -2.7718   -0.0272 C   0  0  0  0  0  0  0  0  0  0  0  0
    0.2501   -2.6086    1.1466 O   0  0  0  0  0  0  0  0  0  0  0  0
    0.9948   -2.6569    2.2965 C   0  0  0  0  0  0  0  0  0  0  0  0
    2.0815   -1.6302    2.4086 C   0  0  0  0  0  0  0  0  0  0  0  0
    2.7694   -1.8635    3.7374 C   0  0  0  0  0  0  0  0  0  0  0  0
    3.8926   -0.9041    3.9890 C   0  0  0  0  0  0  0  0  0  0  0  0
    4.8960   -1.0717    2.9063 C   0  0  0  0  0  0  0  0  0  0  0  0
    5.8860   -2.0210    3.1296 C   0  0  0  0  0  0  0  0  0  0  0  0
    6.8772   -2.2623    2.1928 C   0  0  0  0  0  0  0  0  0  0  0  0
    6.8582   -1.5319    1.0235 C   0  0  0  0  0  0  0  0  0  0  0  0
    5.8613   -0.5854    0.8143 C   0  0  0  0  0  0  0  0  0  0  0  0
    4.8728   -0.3426    1.7447 C   0  0  0  0  0  0  0  0  0  0  0  0
    5.9241    0.1221   -0.4204 N   0  0  0  0  0  0  0  0  0  0  0  0
    6.7050    1.3318   -0.4046 C   0  0  0  0  0  0  0  0  0  0  0  0
    7.2387    1.6177    0.6946 O   0  0  0  0  0  0  0  0  0  0  0  0
    6.8644    2.1427   -1.5410 N   0  0  0  0  0  0  0  0  0  0  0  0
    7.6578    3.3713   -1.5327 C   0  0  0  0  0  0  0  0  0  0  0  0
    9.0370    2.9576   -1.1620 C   0  0  0  0  0  0  0  0  0  0  0  0
    9.3048    1.7297   -0.9293 O   0  0  0  0  0  0  0  0  0  0  0  0
   10.1205    3.8677   -1.0441 N   0  0  0  0  0  0  0  0  0  0  0  0
   -5.3580    1.4916   -3.2396 O   0  0  0  0  0  0  0  0  0  0  0  0
   -8.8323    3.6128    1.0920 H   0  0  0  0  0  0  0  0  0  0  0  0
   -9.4588    3.6007   -1.6869 H   0  0  0  0  0  0  0  0  0  0  0  0
  -10.4740    2.8064   -0.4193 H   0  0  0  0  0  0  0  0  0  0  0  0
   -7.6903    2.3932   -2.6060 H   0  0  0  0  0  0  0  0  0  0  0  0
   -6.3673   -1.2293   -0.7528 H   0  0  0  0  0  0  0  0  0  0  0  0
   -7.9079   -0.7975    1.1710 H   0  0  0  0  0  0  0  0  0  0  0  0
   -9.5879    0.6036    2.1092 H   0  0  0  0  0  0  0  0  0  0  0  0
   -6.6597    0.0895   -3.8490 H   0  0  0  0  0  0  0  0  0  0  0  0
   -4.4149   -1.0229   -3.6050 H   0  0  0  0  0  0  0  0  0  0  0  0
   -5.6174   -1.8047   -2.5833 H   0  0  0  0  0  0  0  0  0  0  0  0
   -3.9489   -1.5413   -1.0916 H   0  0  0  0  0  0  0  0  0  0  0  0
   -2.5675    0.1214   -2.6009 H   0  0  0  0  0  0  0  0  0  0  0  0
   -3.5768    1.3350   -1.8147 H   0  0  0  0  0  0  0  0  0  0  0  0
   -2.9500    0.4809    0.4065 H   0  0  0  0  0  0  0  0  0  0  0  0
   -1.5705    1.1682   -0.4883 H   0  0  0  0  0  0  0  0  0  0  0  0
   -2.2932   -1.7575    0.0522 H   0  0  0  0  0  0  0  0  0  0  0  0
   -0.9061   -0.7709    0.6572 H   0  0  0  0  0  0  0  0  0  0  0  0
   -1.2769   -1.4101   -2.3295 H   0  0  0  0  0  0  0  0  0  0  0  0
    0.1270   -0.6437   -1.5441 H   0  0  0  0  0  0  0  0  0  0  0  0
   -0.7181   -3.5749   -1.1870 H   0  0  0  0  0  0  0  0  0  0  0  0
    0.5861   -2.8806   -2.1729 H   0  0  0  0  0  0  0  0  0  0  0  0
    1.4418   -3.7699   -0.0788 H   0  0  0  0  0  0  0  0  0  0  0  0
    1.7103   -1.9993   -0.1984 H   0  0  0  0  0  0  0  0  0  0  0  0
    1.4722   -3.6460    2.4755 H   0  0  0  0  0  0  0  0  0  0  0  0
    0.2964   -2.5121    3.1566 H   0  0  0  0  0  0  0  0  0  0  0  0
    2.8393   -1.8550    1.6131 H   0  0  0  0  0  0  0  0  0  0  0  0
    1.7236   -0.5910    2.3459 H   0  0  0  0  0  0  0  0  0  0  0  0
    3.1815   -2.9019    3.7656 H   0  0  0  0  0  0  0  0  0  0  0  0
    2.0233   -1.8273    4.5538 H   0  0  0  0  0  0  0  0  0  0  0  0
    3.4659    0.1231    3.9319 H   0  0  0  0  0  0  0  0  0  0  0  0
    4.3174   -1.0833    4.9885 H   0  0  0  0  0  0  0  0  0  0  0  0
    5.9164   -2.6037    4.0417 H   0  0  0  0  0  0  0  0  0  0  0  0
    7.6347   -3.0146    2.4054 H   0  0  0  0  0  0  0  0  0  0  0  0
    7.6372   -1.7235    0.2891 H   0  0  0  0  0  0  0  0  0  0  0  0
    4.1015    0.3951    1.5730 H   0  0  0  0  0  0  0  0  0  0  0  0
    5.4489   -0.1882   -1.2935 H   0  0  0  0  0  0  0  0  0  0  0  0
    6.3850    1.8365   -2.4244 H   0  0  0  0  0  0  0  0  0  0  0  0
    7.2780    4.0123   -0.7131 H   0  0  0  0  0  0  0  0  0  0  0  0
    7.6167    3.8333   -2.5338 H   0  0  0  0  0  0  0  0  0  0  0  0
   10.7661    3.7950   -0.2140 H   0  0  0  0  0  0  0  0  0  0  0  0
   10.3258    4.6212   -1.7397 H   0  0  0  0  0  0  0  0  0  0  0  0
   -5.6604    2.2529   -2.7121 H   0  0  0  0  0  0  0  0  0  0  0  0
  1  2  1  0
  2  3  1  0
  3  4  2  0
  4  5  1  0
  5  6  2  0
  6  7  1  0
  7  8  2  0
  8  9  1  0
  5 10  1  0
 10 11  1  0
 11 12  1  0
 12 13  1  0
 13 14  1  0
 14 15  1  0
 15 16  1  0
 16 17  1  0
 17 18  1  0
 18 19  1  0
 19 20  1  0
 20 21  1  0
 21 22  1  0
 22 23  1  0
 23 24  1  0
 24 25  2  0
 25 26  1  0
 26 27  2  0
 27 28  1  0
 28 29  2  0
 28 30  1  0
 30 31  1  0
 31 32  2  0
 31 33  1  0
 33 34  1  0
 34 35  1  0
 35 36  2  0
 35 37  1  0
 10 38  1  0
  8  3  1  0
 29 24  1  0
  1 39  1  0
  2 40  1  0
  2 41  1  0
  4 42  1  0
  6 43  1  0
  7 44  1  0
  9 45  1  0
 10 46  1  6
 11 47  1  0
 11 48  1  0
 12 49  1  0
 13 50  1  0
 13 51  1  0
 14 52  1  0
 14 53  1  0
 15 54  1  0
 15 55  1  0
 16 56  1  0
 16 57  1  0
 17 58  1  0
 17 59  1  0
 18 60  1  0
 18 61  1  0
 20 62  1  0
 20 63  1  0
 21 64  1  0
 21 65  1  0
 22 66  1  0
 22 67  1  0
 23 68  1  0
 23 69  1  0
 25 70  1  0
 26 71  1  0
 27 72  1  0
 29 73  1  0
 30 74  1  0
 33 75  1  0
 34 76  1  0
 34 77  1  0
 37 78  1  0
 37 79  1  0
 38 80  1  0
M  END
>  <Ligand ID>  (1) 
LIG0001230

>  <Ligand>  (1) 
CHEMBL1835859

>  <SMILES>  (1) 
OCc1cc(ccc1O)[C@H](CNCCCCCCOCCCCc1cccc(c1)NC(=O)NCC(=O)N)O

>  <CID>  (1) 
56672271.0

>  <ChEMBL ID>  (1) 
nan

>  <InChiKey>  (1) 
JBVGMTUYOJIQQO-SANMLTNESA-N

>  <InChi>  (1) 
InChI=1S/C28H42N4O6/c29-27(36)19-31-28(37)32-24-10-7-9-21(16-24)8-3-6-15-38-14-5-2-1-4-13-30-18-26(35)22-11-12-25(34)23(17-22)20-33/h7,9-12,16-17,26,30,33-35H,1-6,8,13-15,18-20H2,(H2,29,36)(H2,31,32,37)/t26-/m0/s1

>  <IUPAC Name>  (1) 
2-[[3-[4-[6-[[(2R)-2-hydroxy-2-[4-hydroxy-3-(hydroxymethyl)phenyl]ethyl]amino]hexoxy]butyl]phenyl]carbamoylamino]acetamide

$$$$
