
     RDKit          3D

 58 60  0  0  0  0  0  0  0  0999 V2000
   -7.4490   -0.4585   -1.1243 C   0  0  0  0  0  0  0  0  0  0  0  0
   -6.7163   -0.6617    0.2115 C   0  0  0  0  0  0  0  0  0  0  0  0
   -6.0404    0.5100    0.4945 O   0  0  0  0  0  0  0  0  0  0  0  0
   -5.1073    0.8745   -0.4231 C   0  0  0  0  0  0  0  0  0  0  0  0
   -3.9515   -0.0268   -0.6401 C   0  0  0  0  0  0  0  0  0  0  0  0
   -3.0532   -0.2760    0.5076 C   0  0  0  0  0  0  0  0  0  0  0  0
   -3.5483   -0.8822    1.7582 C   0  0  0  0  0  0  0  0  0  0  0  0
   -2.3007   -1.7772    1.7559 C   0  0  0  0  0  0  0  0  0  0  0  0
   -2.2279   -1.5479    0.2697 C   0  0  0  0  0  0  0  0  0  0  0  0
   -2.0867    0.8517    0.8222 C   0  0  1  0  0  0  0  0  0  0  0  0
   -1.1716    1.1635   -0.3095 C   0  0  0  0  0  0  0  0  0  0  0  0
    0.1529    1.0259   -0.1436 C   0  0  0  0  0  0  0  0  0  0  0  0
    1.1225    1.3250   -1.2454 C   0  0  1  0  0  0  0  0  0  0  0  0
    1.2470    2.8507   -1.3629 C   0  0  0  0  0  0  0  0  0  0  0  0
    1.8305    3.1273   -0.0856 O   0  0  0  0  0  0  0  0  0  0  0  0
    2.6392    2.0413    0.3037 C   0  0  0  0  0  0  0  0  0  0  0  0
    3.3771    1.9490    1.3195 O   0  0  0  0  0  0  0  0  0  0  0  0
    2.4540    1.0316   -0.7108 N   0  0  0  0  0  0  0  0  0  0  0  0
    3.3843    0.0028   -1.0699 C   0  0  0  0  0  0  0  0  0  0  0  0
    3.0758   -1.2164   -0.1974 C   0  0  0  0  0  0  0  0  0  0  0  0
    4.2740   -2.5059   -0.6662 S   0  0  0  0  0  0  0  0  0  0  0  0
    5.9024   -1.8992   -0.1503 C   0  0  0  0  0  0  0  0  0  0  0  0
    6.4779   -2.3492    1.6344 S   0  0  0  0  0  0  0  0  0  0  0  0
    8.0224   -1.4542    1.3560 C   0  0  0  0  0  0  0  0  0  0  0  0
    7.9329   -0.9541    0.0418 C   0  0  0  0  0  0  0  0  0  0  0  0
    6.7835   -1.3015   -0.5193 N   0  0  0  0  0  0  0  0  0  0  0  0
    8.9863   -0.1627   -0.5813 C   0  0  0  0  0  0  0  0  0  0  0  0
    8.9162    0.2886   -1.7539 O   0  0  0  0  0  0  0  0  0  0  0  0
   10.1538    0.1366    0.1197 O   0  0  0  0  0  0  0  0  0  0  0  0
   -2.7766    2.0499    1.0877 O   0  0  0  0  0  0  0  0  0  0  0  0
   -7.7379    0.5896   -1.2842 H   0  0  0  0  0  0  0  0  0  0  0  0
   -6.7564   -0.7888   -1.9121 H   0  0  0  0  0  0  0  0  0  0  0  0
   -8.3465   -1.0770   -1.1883 H   0  0  0  0  0  0  0  0  0  0  0  0
   -7.5101   -0.7641    0.9790 H   0  0  0  0  0  0  0  0  0  0  0  0
   -6.1297   -1.5723    0.1779 H   0  0  0  0  0  0  0  0  0  0  0  0
   -5.6364    1.0065   -1.4061 H   0  0  0  0  0  0  0  0  0  0  0  0
   -4.7372    1.8919   -0.1695 H   0  0  0  0  0  0  0  0  0  0  0  0
   -4.2687   -0.9897   -1.1241 H   0  0  0  0  0  0  0  0  0  0  0  0
   -3.3215    0.4577   -1.4415 H   0  0  0  0  0  0  0  0  0  0  0  0
   -4.4168   -1.5279    1.7772 H   0  0  0  0  0  0  0  0  0  0  0  0
   -3.5451   -0.1589    2.6297 H   0  0  0  0  0  0  0  0  0  0  0  0
   -2.5110   -2.8377    2.0420 H   0  0  0  0  0  0  0  0  0  0  0  0
   -1.5188   -1.2948    2.3719 H   0  0  0  0  0  0  0  0  0  0  0  0
   -2.8335   -2.3296   -0.2621 H   0  0  0  0  0  0  0  0  0  0  0  0
   -1.2207   -1.3663   -0.1523 H   0  0  0  0  0  0  0  0  0  0  0  0
   -1.5030    0.6351    1.7359 H   0  0  0  0  0  0  0  0  0  0  0  0
   -1.5716    1.4991   -1.2593 H   0  0  0  0  0  0  0  0  0  0  0  0
    0.4764    0.6827    0.8425 H   0  0  0  0  0  0  0  0  0  0  0  0
    0.9027    0.8325   -2.1872 H   0  0  0  0  0  0  0  0  0  0  0  0
    0.2731    3.3356   -1.4875 H   0  0  0  0  0  0  0  0  0  0  0  0
    1.9816    3.0978   -2.1373 H   0  0  0  0  0  0  0  0  0  0  0  0
    3.3218   -0.2676   -2.1533 H   0  0  0  0  0  0  0  0  0  0  0  0
    4.4090    0.2923   -0.8136 H   0  0  0  0  0  0  0  0  0  0  0  0
    2.0393   -1.5235   -0.3865 H   0  0  0  0  0  0  0  0  0  0  0  0
    3.2768   -0.9040    0.8471 H   0  0  0  0  0  0  0  0  0  0  0  0
    8.8413   -1.3453    2.0899 H   0  0  0  0  0  0  0  0  0  0  0  0
   10.8898    0.7193   -0.2664 H   0  0  0  0  0  0  0  0  0  0  0  0
   -3.1501    1.9524    1.9983 H   0  0  0  0  0  0  0  0  0  0  0  0
  1  2  1  0
  2  3  1  0
  3  4  1  0
  4  5  1  0
  5  6  1  0
  6  7  1  0
  7  8  1  0
  8  9  1  0
  6 10  1  0
 10 11  1  0
 11 12  2  0
 12 13  1  0
 13 14  1  0
 14 15  1  0
 15 16  1  0
 16 17  2  0
 16 18  1  0
 18 19  1  0
 19 20  1  0
 20 21  1  0
 21 22  1  0
 22 23  1  0
 23 24  1  0
 24 25  2  0
 25 26  1  0
 25 27  1  0
 27 28  2  0
 27 29  1  0
 10 30  1  0
  9  6  1  0
 18 13  1  0
 26 22  2  0
  1 31  1  0
  1 32  1  0
  1 33  1  0
  2 34  1  0
  2 35  1  0
  4 36  1  0
  4 37  1  0
  5 38  1  0
  5 39  1  0
  7 40  1  0
  7 41  1  0
  8 42  1  0
  8 43  1  0
  9 44  1  0
  9 45  1  0
 10 46  1  1
 11 47  1  0
 12 48  1  0
 13 49  1  6
 14 50  1  0
 14 51  1  0
 19 52  1  0
 19 53  1  0
 20 54  1  0
 20 55  1  0
 24 56  1  0
 29 57  1  0
 30 58  1  0
M  END
>  <Ligand ID>  (1) 
LIG0004493

>  <Ligand>  (1) 
CHEMBL3753898

>  <SMILES>  (1) 
CCOCCC1(CCC1)[C@@H](/C=C/[C@H]1COC(=O)N1CCSc1scc(n1)C(=O)O)O

>  <CID>  (1) 
127026652.0

>  <ChEMBL ID>  (1) 
nan

>  <InChiKey>  (1) 
MBTIZDRIHGGGKX-WIJLQKJISA-N

>  <InChi>  (1) 
InChI=1S/C20H28N2O6S2/c1-2-27-10-8-20(6-3-7-20)16(23)5-4-14-12-28-19(26)22(14)9-11-29-18-21-15(13-30-18)17(24)25/h4-5,13-14,16,23H,2-3,6-12H2,1H3,(H,24,25)/b5-4+/t14-,16+/m0/s1

>  <IUPAC Name>  (1) 
2-[2-[(4S)-4-[(E,3R)-3-[1-(2-ethoxyethyl)cyclobutyl]-3-hydroxyprop-1-enyl]-2-oxo-1,3-oxazolidin-3-yl]ethylsulfanyl]-1,3-thiazole-4-carboxylic acid

$$$$
