
     RDKit          3D

 45 47  0  0  0  0  0  0  0  0999 V2000
    5.4957   -0.2928   -2.5365 C   0  0  0  0  0  0  0  0  0  0  0  0
    5.0936   -0.6061   -1.1607 N   0  0  0  0  0  0  0  0  0  0  0  0
    3.9135   -0.0780   -0.5810 C   0  0  0  0  0  0  0  0  0  0  0  0
    3.1681    0.6897   -1.2522 O   0  0  0  0  0  0  0  0  0  0  0  0
    3.5578   -0.4279    0.8104 C   0  0  0  0  0  0  0  0  0  0  0  0
    4.3738   -1.2528    1.5096 N   0  0  0  0  0  0  0  0  0  0  0  0
    4.1154   -1.6174    2.7846 C   0  0  0  0  0  0  0  0  0  0  0  0
    2.9646   -1.1011    3.3452 C   0  0  0  0  0  0  0  0  0  0  0  0
    2.1115   -0.2596    2.6640 C   0  0  0  0  0  0  0  0  0  0  0  0
    2.3997    0.1014    1.3511 C   0  0  0  0  0  0  0  0  0  0  0  0
    0.9091    0.2437    3.3370 C   0  0  0  0  0  0  0  0  0  0  0  0
   -0.5152   -0.8394    3.1001 S   0  0  0  0  0  0  0  0  0  0  0  0
   -1.0462   -0.8845    1.4009 C   0  0  0  0  0  0  0  0  0  0  0  0
   -0.5489   -1.7864    0.5072 N   0  0  0  0  0  0  0  0  0  0  0  0
   -0.9609   -1.8109   -0.7807 C   0  0  0  0  0  0  0  0  0  0  0  0
   -0.4146   -2.7764   -1.6965 N   0  0  0  0  0  0  0  0  0  0  0  0
   -1.9057   -0.9138   -1.2288 C   0  0  0  0  0  0  0  0  0  0  0  0
   -2.4240    0.0123   -0.3339 C   0  0  0  0  0  0  0  0  0  0  0  0
   -2.0028    0.0422    0.9954 C   0  0  0  0  0  0  0  0  0  0  0  0
   -2.5470    1.0042    1.9078 C   0  0  0  0  0  0  0  0  0  0  0  0
   -2.9983    1.7887    2.6364 N   0  0  0  0  0  0  0  0  0  0  0  0
   -3.4390    0.9833   -0.7950 C   0  0  0  0  0  0  0  0  0  0  0  0
   -4.7816    0.6366   -0.7054 C   0  0  0  0  0  0  0  0  0  0  0  0
   -5.7956    1.4798   -1.1112 C   0  0  0  0  0  0  0  0  0  0  0  0
   -7.1095    1.1504   -1.0277 F   0  0  0  0  0  0  0  0  0  0  0  0
   -5.4189    2.7194   -1.6259 C   0  0  0  0  0  0  0  0  0  0  0  0
   -4.0831    3.0850   -1.7239 C   0  0  0  0  0  0  0  0  0  0  0  0
   -3.0833    2.2093   -1.3047 C   0  0  0  0  0  0  0  0  0  0  0  0
   -3.7303    4.3051   -2.2312 F   0  0  0  0  0  0  0  0  0  0  0  0
   -2.3349   -0.9456   -2.5861 C   0  0  0  0  0  0  0  0  0  0  0  0
   -2.6893   -0.9553   -3.6914 N   0  0  0  0  0  0  0  0  0  0  0  0
    6.5992   -0.0905   -2.5411 H   0  0  0  0  0  0  0  0  0  0  0  0
    5.3157   -1.1393   -3.2299 H   0  0  0  0  0  0  0  0  0  0  0  0
    4.9527    0.5890   -2.9149 H   0  0  0  0  0  0  0  0  0  0  0  0
    5.7045   -1.2405   -0.5984 H   0  0  0  0  0  0  0  0  0  0  0  0
    4.7602   -2.2751    3.3507 H   0  0  0  0  0  0  0  0  0  0  0  0
    2.7170   -1.3721    4.3797 H   0  0  0  0  0  0  0  0  0  0  0  0
    1.7431    0.7629    0.7937 H   0  0  0  0  0  0  0  0  0  0  0  0
    0.6333    1.2744    3.0197 H   0  0  0  0  0  0  0  0  0  0  0  0
    1.1173    0.3136    4.4178 H   0  0  0  0  0  0  0  0  0  0  0  0
   -0.5415   -3.7806   -1.4118 H   0  0  0  0  0  0  0  0  0  0  0  0
    0.0713   -2.4918   -2.5786 H   0  0  0  0  0  0  0  0  0  0  0  0
   -5.0945   -0.3391   -0.3011 H   0  0  0  0  0  0  0  0  0  0  0  0
   -6.2055    3.3847   -1.9454 H   0  0  0  0  0  0  0  0  0  0  0  0
   -2.0463    2.5013   -1.3840 H   0  0  0  0  0  0  0  0  0  0  0  0
  1  2  1  0
  2  3  1  0
  3  4  2  0
  3  5  1  0
  5  6  2  0
  6  7  1  0
  7  8  2  0
  8  9  1  0
  9 10  2  0
  9 11  1  0
 11 12  1  0
 12 13  1  0
 13 14  2  0
 14 15  1  0
 15 16  1  0
 15 17  2  0
 17 18  1  0
 18 19  2  0
 19 20  1  0
 20 21  3  0
 18 22  1  0
 22 23  2  0
 23 24  1  0
 24 25  1  0
 24 26  2  0
 26 27  1  0
 27 28  2  0
 27 29  1  0
 17 30  1  0
 30 31  3  0
 10  5  1  0
 19 13  1  0
 28 22  1  0
  1 32  1  0
  1 33  1  0
  1 34  1  0
  2 35  1  0
  7 36  1  0
  8 37  1  0
 10 38  1  0
 11 39  1  0
 11 40  1  0
 16 41  1  0
 16 42  1  0
 23 43  1  0
 26 44  1  0
 28 45  1  0
M  END
>  <Ligand ID>  (1) 
LIG0004661

>  <Ligand>  (1) 
SCHEMBL3358933

>  <SMILES>  (1) 
CNC(=O)c1nccc(c1)CSc1nc(N)c(c(c1C#N)c1cc(F)cc(c1)F)C#N

>  <CID>  (1) 
68612245.0

>  <ChEMBL ID>  (1) 
nan

>  <InChiKey>  (1) 
GAXJRISCTLYMFU-UHFFFAOYSA-N

>  <InChi>  (1) 
InChI=1S/C21H14F2N6OS/c1-27-20(30)17-4-11(2-3-28-17)10-31-21-16(9-25)18(15(8-24)19(26)29-21)12-5-13(22)7-14(23)6-12/h2-7H,10H2,1H3,(H2,26,29)(H,27,30)

>  <IUPAC Name>  (1) 
4-[[6-amino-3,5-dicyano-4-(3,5-difluorophenyl)pyridin-2-yl]sulfanylmethyl]-N-methylpyridine-2-carboxamide

$$$$
