
     RDKit          3D

 34 33  0  0  0  0  0  0  0  0999 V2000
    3.8358    1.1963   -0.7854 C   0  0  0  0  0  0  0  0  0  0  0  0
    3.0013    0.5773    0.3210 C   0  0  0  0  0  0  0  0  0  0  0  0
    1.5764    1.0182    0.2694 C   0  0  0  0  0  0  0  0  0  0  0  0
    0.7989    0.3851    1.3893 C   0  0  0  0  0  0  0  0  0  0  0  0
    0.7999   -1.1030    1.3375 C   0  0  0  0  0  0  0  0  0  0  0  0
    0.1782   -1.5483    0.0094 C   0  0  0  0  0  0  0  0  0  0  0  0
   -1.2021   -1.0285   -0.0493 C   0  0  0  0  0  0  0  0  0  0  0  0
   -1.6506   -0.2024   -0.9865 C   0  0  0  0  0  0  0  0  0  0  0  0
   -3.0381    0.3156   -1.0391 C   0  0  0  0  0  0  0  0  0  0  0  0
   -3.1271    1.8183   -0.9622 C   0  0  0  0  0  0  0  0  0  0  0  0
   -2.1535   -1.4573    1.0097 C   0  0  0  0  0  0  0  0  0  0  0  0
    0.1262   -2.9544    0.0235 O   0  0  0  0  0  0  0  0  0  0  0  0
    3.1610    1.5701   -1.5840 H   0  0  0  0  0  0  0  0  0  0  0  0
    4.6330    0.5154   -1.1514 H   0  0  0  0  0  0  0  0  0  0  0  0
    4.3295    2.1003   -0.3744 H   0  0  0  0  0  0  0  0  0  0  0  0
    3.0266   -0.5349    0.2276 H   0  0  0  0  0  0  0  0  0  0  0  0
    3.4894    0.8250    1.2842 H   0  0  0  0  0  0  0  0  0  0  0  0
    1.4640    2.1273    0.3181 H   0  0  0  0  0  0  0  0  0  0  0  0
    1.1168    0.7226   -0.6990 H   0  0  0  0  0  0  0  0  0  0  0  0
    1.2322    0.6757    2.3860 H   0  0  0  0  0  0  0  0  0  0  0  0
   -0.2277    0.8115    1.3967 H   0  0  0  0  0  0  0  0  0  0  0  0
    1.8077   -1.5032    1.4964 H   0  0  0  0  0  0  0  0  0  0  0  0
    0.1781   -1.4897    2.1818 H   0  0  0  0  0  0  0  0  0  0  0  0
    0.8145   -1.2825   -0.8395 H   0  0  0  0  0  0  0  0  0  0  0  0
   -0.9647    0.1106   -1.7553 H   0  0  0  0  0  0  0  0  0  0  0  0
   -3.5712   -0.1207   -0.1557 H   0  0  0  0  0  0  0  0  0  0  0  0
   -3.4805   -0.0712   -1.9952 H   0  0  0  0  0  0  0  0  0  0  0  0
   -3.2514    2.2367   -1.9794 H   0  0  0  0  0  0  0  0  0  0  0  0
   -4.0689    2.0676   -0.4116 H   0  0  0  0  0  0  0  0  0  0  0  0
   -2.2995    2.2763   -0.4103 H   0  0  0  0  0  0  0  0  0  0  0  0
   -2.9822   -1.9679    0.4787 H   0  0  0  0  0  0  0  0  0  0  0  0
   -2.5637   -0.5808    1.5621 H   0  0  0  0  0  0  0  0  0  0  0  0
   -1.7014   -2.1747    1.7158 H   0  0  0  0  0  0  0  0  0  0  0  0
    0.7132   -3.3302    0.7215 H   0  0  0  0  0  0  0  0  0  0  0  0
  1  2  1  0
  2  3  1  0
  3  4  1  0
  4  5  1  0
  5  6  1  0
  6  7  1  0
  7  8  2  0
  8  9  1  0
  9 10  1  0
  7 11  1  0
  6 12  1  0
  1 13  1  0
  1 14  1  0
  1 15  1  0
  2 16  1  0
  2 17  1  0
  3 18  1  0
  3 19  1  0
  4 20  1  0
  4 21  1  0
  5 22  1  0
  5 23  1  0
  6 24  1  0
  8 25  1  0
  9 26  1  0
  9 27  1  0
 10 28  1  0
 10 29  1  0
 10 30  1  0
 11 31  1  0
 11 32  1  0
 11 33  1  0
 12 34  1  0
M  END
>  <Ligand ID>  (1) 
LIG0000405

>  <Ligand>  (1) 
4-Methyl-3-decen-5-ol, (3E)-

>  <SMILES>  (1) 
CCCCCC(/C(=C/CC)/C)O

>  <CID>  (1) 
6441135.0

>  <ChEMBL ID>  (1) 
nan

>  <InChiKey>  (1) 
WSTQLNQRVZNEDV-CSKARUKUSA-N

>  <InChi>  (1) 
InChI=1S/C11H22O/c1-4-6-7-9-11(12)10(3)8-5-2/h8,11-12H,4-7,9H2,1-3H3/b10-8+

>  <IUPAC Name>  (1) 
(E)-4-methyldec-3-en-5-ol

$$$$
