
     RDKit          3D

 40 40  0  0  0  0  0  0  0  0999 V2000
   -7.0014    1.9904   -0.7548 O   0  0  0  0  0  0  0  0  0  0  0  0
   -6.0486    1.2221   -0.0994 C   0  0  0  0  0  0  0  0  0  0  0  0
   -5.0378    1.8017    0.3714 O   0  0  0  0  0  0  0  0  0  0  0  0
   -6.2888   -0.2384    0.0016 C   0  0  0  0  0  0  0  0  0  0  0  0
   -5.2709   -0.9256    0.6494 O   0  0  0  0  0  0  0  0  0  0  0  0
   -3.9527   -1.0266    0.2916 C   0  0  0  0  0  0  0  0  0  0  0  0
   -3.1263   -1.7765    1.1222 C   0  0  0  0  0  0  0  0  0  0  0  0
   -1.7799   -1.9450    0.8561 C   0  0  0  0  0  0  0  0  0  0  0  0
   -1.2068   -1.3582   -0.2697 C   0  0  0  0  0  0  0  0  0  0  0  0
   -2.0282   -0.6233   -1.0795 C   0  0  0  0  0  0  0  0  0  0  0  0
   -3.3721   -0.4603   -0.8060 C   0  0  0  0  0  0  0  0  0  0  0  0
    0.2372   -1.5312   -0.5668 C   0  0  0  0  0  0  0  0  0  0  0  0
    1.1539   -0.1748    0.2442 P   0  0  0  0  0  0  0  0  0  0  0  0
    0.8785    1.1195   -0.4902 O   0  0  0  0  0  0  0  0  0  0  0  0
    2.9233   -0.5433    0.0590 C   0  0  0  0  0  0  0  0  0  0  0  0
    3.7273    0.7126    0.4039 C   0  0  0  0  0  0  0  0  0  0  0  0
    5.1977    0.4205    0.2543 C   0  0  2  0  0  0  0  0  0  0  0  0
    5.9507    1.6732    0.6004 C   0  0  0  0  0  0  0  0  0  0  0  0
    5.8945    2.1795    1.7544 O   0  0  0  0  0  0  0  0  0  0  0  0
    6.7429    2.3340   -0.3282 O   0  0  0  0  0  0  0  0  0  0  0  0
    5.4603    0.0882   -1.1383 N   0  0  0  0  0  0  0  0  0  0  0  0
    0.7386   -0.0572    1.8719 O   0  0  0  0  0  0  0  0  0  0  0  0
   -7.1261    2.9780   -0.5732 H   0  0  0  0  0  0  0  0  0  0  0  0
   -6.4679   -0.5835   -1.0417 H   0  0  0  0  0  0  0  0  0  0  0  0
   -7.2472   -0.4350    0.5458 H   0  0  0  0  0  0  0  0  0  0  0  0
   -3.5288   -2.2466    2.0020 H   0  0  0  0  0  0  0  0  0  0  0  0
   -1.1212   -2.5265    1.4931 H   0  0  0  0  0  0  0  0  0  0  0  0
   -1.6209   -0.1519   -1.9632 H   0  0  0  0  0  0  0  0  0  0  0  0
   -3.9581    0.1178   -1.4747 H   0  0  0  0  0  0  0  0  0  0  0  0
    0.4062   -1.4712   -1.6485 H   0  0  0  0  0  0  0  0  0  0  0  0
    0.5599   -2.5056   -0.2004 H   0  0  0  0  0  0  0  0  0  0  0  0
    3.2321   -1.3848    0.6988 H   0  0  0  0  0  0  0  0  0  0  0  0
    3.1294   -0.8610   -0.9827 H   0  0  0  0  0  0  0  0  0  0  0  0
    3.4676    1.0224    1.4249 H   0  0  0  0  0  0  0  0  0  0  0  0
    3.4798    1.5019   -0.3325 H   0  0  0  0  0  0  0  0  0  0  0  0
    5.5138   -0.3803    0.9451 H   0  0  0  0  0  0  0  0  0  0  0  0
    6.8225    3.3472   -0.3645 H   0  0  0  0  0  0  0  0  0  0  0  0
    5.2872   -0.9045   -1.3494 H   0  0  0  0  0  0  0  0  0  0  0  0
    4.9162    0.7333   -1.7444 H   0  0  0  0  0  0  0  0  0  0  0  0
    0.4640    0.8691    2.0373 H   0  0  0  0  0  0  0  0  0  0  0  0
  1  2  1  0
  2  3  2  0
  2  4  1  0
  4  5  1  0
  5  6  1  0
  6  7  2  0
  7  8  1  0
  8  9  2  0
  9 10  1  0
 10 11  2  0
  9 12  1  0
 12 13  1  0
 13 14  2  0
 13 15  1  0
 15 16  1  0
 16 17  1  0
 17 18  1  0
 18 19  2  0
 18 20  1  0
 17 21  1  0
 13 22  1  0
 11  6  1  0
  1 23  1  0
  4 24  1  0
  4 25  1  0
  7 26  1  0
  8 27  1  0
 10 28  1  0
 11 29  1  0
 12 30  1  0
 12 31  1  0
 15 32  1  0
 15 33  1  0
 16 34  1  0
 16 35  1  0
 17 36  1  1
 20 37  1  0
 21 38  1  0
 21 39  1  0
 22 40  1  0
M  END
>  <Ligand ID>  (1) 
LIG0001237

>  <Ligand>  (1) 
US9212196, Derivative 30

>  <SMILES>  (1) 
OC(=O)COc1ccc(cc1)CP(=O)(CC[C@H](C(=O)O)N)O

>  <CID>  (1) 
122197960.0

>  <ChEMBL ID>  (1) 
nan

>  <InChiKey>  (1) 
XHNVTQBHEJKWLF-LLVKDONJSA-N

>  <InChi>  (1) 
InChI=1S/C13H18NO7P/c14-11(13(17)18)5-6-22(19,20)8-9-1-3-10(4-2-9)21-7-12(15)16/h1-4,11H,5-8,14H2,(H,15,16)(H,17,18)(H,19,20)/t11-/m1/s1

>  <IUPAC Name>  (1) 
(2R)-2-amino-4-[[4-(carboxymethoxy)phenyl]methyl-hydroxyphosphoryl]butanoic acid

$$$$
