
     RDKit          3D

 46 46  0  0  0  0  0  0  0  0999 V2000
    3.2024    2.5241   -1.6447 C   0  0  0  0  0  0  0  0  0  0  0  0
    1.5018    2.1019   -1.3139 S   0  0  0  0  0  0  0  0  0  0  0  0
    1.2681    0.8379   -0.1083 C   0  0  0  0  0  0  0  0  0  0  0  0
    2.1150    0.1863    0.5505 N   0  0  0  0  0  0  0  0  0  0  0  0
    3.4982    0.2818    0.5118 C   0  0  0  0  0  0  0  0  0  0  0  0
    4.1972   -0.7178   -0.1803 C   0  0  0  0  0  0  0  0  0  0  0  0
    5.5789   -0.7013   -0.2519 C   0  0  0  0  0  0  0  0  0  0  0  0
    6.3236    0.2902    0.3491 C   0  0  0  0  0  0  0  0  0  0  0  0
    5.6517    1.2770    1.0313 C   0  0  0  0  0  0  0  0  0  0  0  0
    4.2666    1.2613    1.1036 C   0  0  0  0  0  0  0  0  0  0  0  0
   -0.1269    0.4899    0.1709 N   0  0  0  0  0  0  0  0  0  0  0  0
   -0.7501   -0.3154   -0.6173 C   0  0  0  0  0  0  0  0  0  0  0  0
   -0.1310   -0.8971   -1.7755 N   0  0  0  0  0  0  0  0  0  0  0  0
   -0.3497   -0.3642   -3.1099 C   0  0  0  0  0  0  0  0  0  0  0  0
    0.7479   -2.0626   -1.6118 C   0  0  0  0  0  0  0  0  0  0  0  0
   -2.4479   -0.7624   -0.3104 S   0  0  0  0  0  0  0  0  0  0  0  0
   -3.0082    0.0722    1.1711 C   0  0  0  0  0  0  0  0  0  0  0  0
   -4.4194   -0.2207    1.5363 C   0  0  0  0  0  0  0  0  0  0  0  0
   -5.4412    0.5715    1.0458 C   0  0  0  0  0  0  0  0  0  0  0  0
   -6.7474    0.2884    1.3929 C   0  0  0  0  0  0  0  0  0  0  0  0
   -7.0953   -0.7614    2.2179 C   0  0  0  0  0  0  0  0  0  0  0  0
   -6.0591   -1.5600    2.7117 C   0  0  0  0  0  0  0  0  0  0  0  0
   -4.7363   -1.2930    2.3751 C   0  0  0  0  0  0  0  0  0  0  0  0
    0.8659    0.0000    0.0000 I   0  0  0  0  0  0  0  0  0  0  0  0
    3.8794    1.6539   -1.7269 H   0  0  0  0  0  0  0  0  0  0  0  0
    3.2233    3.1015   -2.6240 H   0  0  0  0  0  0  0  0  0  0  0  0
    3.5499    3.2353   -0.8397 H   0  0  0  0  0  0  0  0  0  0  0  0
    3.6551   -1.5168   -0.6680 H   0  0  0  0  0  0  0  0  0  0  0  0
    6.1337   -1.4735   -0.7874 H   0  0  0  0  0  0  0  0  0  0  0  0
    7.4012    0.3342    0.3135 H   0  0  0  0  0  0  0  0  0  0  0  0
    6.1552    2.1021    1.5383 H   0  0  0  0  0  0  0  0  0  0  0  0
    3.7265    2.0351    1.6393 H   0  0  0  0  0  0  0  0  0  0  0  0
   -0.4678    0.7304   -3.1143 H   0  0  0  0  0  0  0  0  0  0  0  0
   -1.2828   -0.8432   -3.4873 H   0  0  0  0  0  0  0  0  0  0  0  0
    0.5016   -0.6988   -3.7590 H   0  0  0  0  0  0  0  0  0  0  0  0
    1.6112   -1.9422   -2.3149 H   0  0  0  0  0  0  0  0  0  0  0  0
    1.1029   -2.1712   -0.5820 H   0  0  0  0  0  0  0  0  0  0  0  0
    0.2146   -2.9873   -1.9718 H   0  0  0  0  0  0  0  0  0  0  0  0
   -2.3892   -0.3356    2.0212 H   0  0  0  0  0  0  0  0  0  0  0  0
   -2.9052    1.1742    1.1376 H   0  0  0  0  0  0  0  0  0  0  0  0
   -5.2393    1.4263    0.3825 H   0  0  0  0  0  0  0  0  0  0  0  0
   -7.5160    0.9419    0.9807 H   0  0  0  0  0  0  0  0  0  0  0  0
   -8.1343   -0.9801    2.4891 H   0  0  0  0  0  0  0  0  0  0  0  0
   -6.3138   -2.3844    3.3577 H   0  0  0  0  0  0  0  0  0  0  0  0
   -3.9450   -1.9284    2.7714 H   0  0  0  0  0  0  0  0  0  0  0  0
   -0.8659    0.0000    0.0000 H   0  0  0  0  0  0  0  0  0  0  0  0
  1  2  1  0
  2  3  1  0
  3  4  2  3
  4  5  1  0
  5  6  2  0
  6  7  1  0
  7  8  2  0
  8  9  1  0
  9 10  2  0
  3 11  1  0
 11 12  2  3
 12 13  1  0
 13 14  1  0
 13 15  1  0
 12 16  1  0
 16 17  1  0
 17 18  1  0
 18 19  2  0
 19 20  1  0
 20 21  2  0
 21 22  1  0
 22 23  2  0
 10  5  1  0
 23 18  1  0
  1 25  1  0
  1 26  1  0
  1 27  1  0
  6 28  1  0
  7 29  1  0
  8 30  1  0
  9 31  1  0
 10 32  1  0
 14 33  1  0
 14 34  1  0
 14 35  1  0
 15 36  1  0
 15 37  1  0
 15 38  1  0
 17 39  1  0
 17 40  1  0
 19 41  1  0
 20 42  1  0
 21 43  1  0
 22 44  1  0
 23 45  1  0
 24 46  1  0
M  END
>  <Ligand ID>  (1) 
LIG0004506

>  <Ligand>  (1) 
MLS002701781

>  <SMILES>  (1) 
CSC(=Nc1ccccc1)N=C(N(C)C)SCc1ccccc1.I

>  <CID>  (1) 
360443.0

>  <ChEMBL ID>  (1) 
nan

>  <InChiKey>  (1) 
GLYBAERSCQCHDX-UHFFFAOYSA-N

>  <InChi>  (1) 
InChI=1S/C18H21N3S2.HI/c1-21(2)18(23-14-15-10-6-4-7-11-15)20-17(22-3)19-16-12-8-5-9-13-16;/h4-13H,14H2,1-3H3;1H

>  <IUPAC Name>  (1) 
benzyl N,N-dimethyl-N'-(C-methylsulfanyl-N-phenylcarbonimidoyl)carbamimidothioate;hydroiodide

$$$$
