
     RDKit          3D

 65 68  0  0  0  0  0  0  0  0999 V2000
    7.2123    0.1942   -2.2695 C   0  0  0  0  0  0  0  0  0  0  0  0
    6.1800   -0.7061   -1.6798 C   0  0  0  0  0  0  0  0  0  0  0  0
    5.7947   -0.2190   -0.3626 N   0  0  0  0  0  0  0  0  0  0  0  0
    4.5189    0.4173   -0.1352 C   0  0  0  0  0  0  0  0  0  0  0  0
    4.1331    0.8483    1.1206 C   0  0  0  0  0  0  0  0  0  0  0  0
    2.9025    1.4796    1.3392 C   0  0  0  0  0  0  0  0  0  0  0  0
    2.0177    1.7006    0.3085 C   0  0  0  0  0  0  0  0  0  0  0  0
    2.3922    1.2771   -0.9421 C   0  0  0  0  0  0  0  0  0  0  0  0
    3.6242    0.6450   -1.1590 C   0  0  0  0  0  0  0  0  0  0  0  0
    0.7469    2.3825    0.6199 C   0  0  0  0  0  0  0  0  0  0  0  0
   -0.2702    1.4792    1.0670 N   0  0  0  0  0  0  0  0  0  0  0  0
   -0.7854    0.3853    0.3256 C   0  0  0  0  0  0  0  0  0  0  0  0
   -0.3986   -0.0096   -0.8961 N   0  0  0  0  0  0  0  0  0  0  0  0
   -1.0952   -1.0749   -1.3089 C   0  0  0  0  0  0  0  0  0  0  0  0
   -1.9713   -1.3659   -0.2854 C   0  0  0  0  0  0  0  0  0  0  0  0
   -1.7650   -0.4715    0.6876 N   0  0  0  0  0  0  0  0  0  0  0  0
   -2.4979   -0.3840    1.9604 C   0  0  0  0  0  0  0  0  0  0  0  0
   -3.6134    0.5648    1.7749 C   0  0  0  0  0  0  0  0  0  0  0  0
   -4.6052    0.2902    0.8075 N   0  0  0  0  0  0  0  0  0  0  0  0
   -5.4809    1.4898    0.8065 C   0  0  0  0  0  0  0  0  0  0  0  0
   -6.8010    1.1637    0.1578 C   0  0  0  0  0  0  0  0  0  0  0  0
   -6.6584    0.0370   -0.8527 C   0  0  0  0  0  0  0  0  0  0  0  0
   -6.2783   -1.2032   -0.0865 C   0  0  0  0  0  0  0  0  0  0  0  0
   -5.5019   -0.7977    1.1279 C   0  0  0  0  0  0  0  0  0  0  0  0
   -2.8071   -2.4439   -0.4728 C   0  0  0  0  0  0  0  0  0  0  0  0
   -2.7776   -3.2048   -1.6304 C   0  0  0  0  0  0  0  0  0  0  0  0
   -1.8874   -2.8980   -2.6561 C   0  0  0  0  0  0  0  0  0  0  0  0
   -1.0386   -1.8104   -2.4749 C   0  0  0  0  0  0  0  0  0  0  0  0
    6.7655   -0.3759    0.6861 C   0  0  0  0  0  0  0  0  0  0  0  0
    7.9757    0.4826    0.6187 C   0  0  0  0  0  0  0  0  0  0  0  0
    8.2166   -0.2672   -2.3329 H   0  0  0  0  0  0  0  0  0  0  0  0
    7.3175    1.1655   -1.7579 H   0  0  0  0  0  0  0  0  0  0  0  0
    6.9022    0.4990   -3.3268 H   0  0  0  0  0  0  0  0  0  0  0  0
    6.5806   -1.7653   -1.5800 H   0  0  0  0  0  0  0  0  0  0  0  0
    5.2921   -0.7369   -2.3222 H   0  0  0  0  0  0  0  0  0  0  0  0
    4.7379    0.7346    1.9982 H   0  0  0  0  0  0  0  0  0  0  0  0
    2.6297    1.8074    2.3451 H   0  0  0  0  0  0  0  0  0  0  0  0
    1.7296    1.4455   -1.7775 H   0  0  0  0  0  0  0  0  0  0  0  0
    3.7991    0.3674   -2.1879 H   0  0  0  0  0  0  0  0  0  0  0  0
    0.3992    3.0245   -0.2260 H   0  0  0  0  0  0  0  0  0  0  0  0
    0.9243    3.1283    1.4503 H   0  0  0  0  0  0  0  0  0  0  0  0
   -0.6972    1.6126    2.0324 H   0  0  0  0  0  0  0  0  0  0  0  0
   -1.7767    0.0256    2.6920 H   0  0  0  0  0  0  0  0  0  0  0  0
   -2.7784   -1.3779    2.3276 H   0  0  0  0  0  0  0  0  0  0  0  0
   -4.1588    0.7121    2.7571 H   0  0  0  0  0  0  0  0  0  0  0  0
   -3.2215    1.5983    1.5618 H   0  0  0  0  0  0  0  0  0  0  0  0
   -5.6427    1.7427    1.8513 H   0  0  0  0  0  0  0  0  0  0  0  0
   -4.9895    2.2724    0.2019 H   0  0  0  0  0  0  0  0  0  0  0  0
   -7.6112    0.9559    0.8729 H   0  0  0  0  0  0  0  0  0  0  0  0
   -7.1151    2.0595   -0.4119 H   0  0  0  0  0  0  0  0  0  0  0  0
   -7.6944   -0.1646   -1.2559 H   0  0  0  0  0  0  0  0  0  0  0  0
   -5.9395    0.2639   -1.6370 H   0  0  0  0  0  0  0  0  0  0  0  0
   -7.1718   -1.8052    0.2150 H   0  0  0  0  0  0  0  0  0  0  0  0
   -5.6287   -1.8427   -0.7207 H   0  0  0  0  0  0  0  0  0  0  0  0
   -5.0635   -1.6227    1.6890 H   0  0  0  0  0  0  0  0  0  0  0  0
   -6.2689   -0.3674    1.8432 H   0  0  0  0  0  0  0  0  0  0  0  0
   -3.5025   -2.7104    0.3048 H   0  0  0  0  0  0  0  0  0  0  0  0
   -3.4583   -4.0547   -1.7432 H   0  0  0  0  0  0  0  0  0  0  0  0
   -1.8693   -3.4948   -3.5579 H   0  0  0  0  0  0  0  0  0  0  0  0
   -0.3320   -1.5377   -3.2470 H   0  0  0  0  0  0  0  0  0  0  0  0
    7.1295   -1.4697    0.6854 H   0  0  0  0  0  0  0  0  0  0  0  0
    6.3098   -0.2535    1.6705 H   0  0  0  0  0  0  0  0  0  0  0  0
    8.4774    0.3920    1.6385 H   0  0  0  0  0  0  0  0  0  0  0  0
    7.7037    1.5633    0.5220 H   0  0  0  0  0  0  0  0  0  0  0  0
    8.7405    0.2278   -0.1045 H   0  0  0  0  0  0  0  0  0  0  0  0
  1  2  1  0
  2  3  1  0
  3  4  1  0
  4  5  2  0
  5  6  1  0
  6  7  2  0
  7  8  1  0
  8  9  2  0
  7 10  1  0
 10 11  1  0
 11 12  1  0
 12 13  2  0
 13 14  1  0
 14 15  2  0
 15 16  1  0
 16 17  1  0
 17 18  1  0
 18 19  1  0
 19 20  1  0
 20 21  1  0
 21 22  1  0
 22 23  1  0
 23 24  1  0
 15 25  1  0
 25 26  2  0
 26 27  1  0
 27 28  2  0
  3 29  1  0
 29 30  1  0
  9  4  1  0
 16 12  1  0
 24 19  1  0
 28 14  1  0
  1 31  1  0
  1 32  1  0
  1 33  1  0
  2 34  1  0
  2 35  1  0
  5 36  1  0
  6 37  1  0
  8 38  1  0
  9 39  1  0
 10 40  1  0
 10 41  1  0
 11 42  1  0
 17 43  1  0
 17 44  1  0
 18 45  1  0
 18 46  1  0
 20 47  1  0
 20 48  1  0
 21 49  1  0
 21 50  1  0
 22 51  1  0
 22 52  1  0
 23 53  1  0
 23 54  1  0
 24 55  1  0
 24 56  1  0
 25 57  1  0
 26 58  1  0
 27 59  1  0
 28 60  1  0
 29 61  1  0
 29 62  1  0
 30 63  1  0
 30 64  1  0
 30 65  1  0
M  END
>  <Ligand ID>  (1) 
LIG0004373

>  <Ligand>  (1) 
MLS000624931

>  <SMILES>  (1) 
CCN(c1ccc(cc1)CNc1nc2c(n1CCN1CCCCC1)cccc2)CC

>  <CID>  (1) 
1290899.0

>  <ChEMBL ID>  (1) 
nan

>  <InChiKey>  (1) 
UBXVEORGGYZAAZ-UHFFFAOYSA-N

>  <InChi>  (1) 
InChI=1S/C25H35N5/c1-3-29(4-2)22-14-12-21(13-15-22)20-26-25-27-23-10-6-7-11-24(23)30(25)19-18-28-16-8-5-9-17-28/h6-7,10-15H,3-5,8-9,16-20H2,1-2H3,(H,26,27)

>  <IUPAC Name>  (1) 
N-[[4-(diethylamino)phenyl]methyl]-1-(2-piperidin-1-ylethyl)benzimidazol-2-amine

$$$$
