
     RDKit          3D

 71 78  0  0  0  0  0  0  0  0999 V2000
   -0.6716   -5.9710   -0.6269 O   0  0  0  0  0  0  0  0  0  0  0  0
   -1.3030   -4.7370   -0.5862 C   0  0  0  0  0  0  0  0  0  0  0  0
   -2.5614   -4.5223   -1.1491 C   0  0  0  0  0  0  0  0  0  0  0  0
   -3.1866   -3.2692   -1.1011 C   0  0  0  0  0  0  0  0  0  0  0  0
   -2.5412   -2.1995   -0.4735 C   0  0  0  0  0  0  0  0  0  0  0  0
   -1.3202   -2.4955    0.0519 C   0  0  0  0  0  0  0  0  0  0  0  0
   -0.6629   -3.6839    0.0335 C   0  0  0  0  0  0  0  0  0  0  0  0
    0.5601   -3.4778    0.6870 O   0  0  0  0  0  0  0  0  0  0  0  0
    0.8218   -2.0868    0.7872 C   0  0  2  0  0  0  0  0  0  0  0  0
   -0.5672   -1.4505    0.7736 C   0  0  2  0  0  0  0  0  0  0  0  0
   -1.0958   -1.2721    2.1349 C   0  0  0  0  0  0  0  0  0  0  0  0
   -2.3468   -0.4611    2.1855 C   0  0  0  0  0  0  0  0  0  0  0  0
   -2.2185    0.6490    1.2935 N   0  0  0  0  0  0  0  0  0  0  0  0
   -2.0867    0.2301   -0.0864 C   0  0  2  0  0  0  0  0  0  0  0  0
   -3.0860   -0.8355   -0.4365 C   0  0  0  0  0  0  0  0  0  0  0  0
   -0.6720   -0.2679   -0.1742 C   0  0  2  0  0  0  0  0  0  0  0  0
   -0.4102   -0.8704   -1.5471 C   0  0  0  0  0  0  0  0  0  0  0  0
    0.7043   -1.6257   -1.5877 C   0  0  0  0  0  0  0  0  0  0  0  0
    1.5690   -1.4695   -0.3515 C   0  0  2  0  0  0  0  0  0  0  0  0
    2.7677   -2.0725   -0.6471 O   0  0  0  0  0  0  0  0  0  0  0  0
    3.3548   -1.3715   -1.6927 C   0  0  0  0  0  0  0  0  0  0  0  0
    3.7964   -0.1625   -1.2234 O   0  0  0  0  0  0  0  0  0  0  0  0
    2.8062    0.6901   -0.7579 C   0  0  2  0  0  0  0  0  0  0  0  0
    1.7319   -0.0018    0.0029 C   0  0  1  0  0  0  0  0  0  0  0  0
    0.4130    0.7191    0.0296 C   0  0  0  0  0  0  0  0  0  0  0  0
    2.3165    1.4832   -1.9388 C   0  0  0  0  0  0  0  0  0  0  0  0
    3.5579    1.6632    0.1615 C   0  0  0  0  0  0  0  0  0  0  0  0
    4.6179    2.4127   -0.5976 C   0  0  0  0  0  0  0  0  0  0  0  0
    2.6655    2.6368    0.8500 C   0  0  0  0  0  0  0  0  0  0  0  0
    4.2952    0.8792    1.2459 C   0  0  0  0  0  0  0  0  0  0  0  0
   -3.0461    1.7560    1.5281 C   0  0  0  0  0  0  0  0  0  0  0  0
   -2.8833    2.9093    0.5666 C   0  0  0  0  0  0  0  0  0  0  0  0
   -3.8061    4.0819    0.8693 C   0  0  0  0  0  0  0  0  0  0  0  0
   -4.0090    3.2675   -0.3480 C   0  0  0  0  0  0  0  0  0  0  0  0
   -1.2072   -6.7970   -0.8065 H   0  0  0  0  0  0  0  0  0  0  0  0
   -3.0690   -5.3624   -1.6409 H   0  0  0  0  0  0  0  0  0  0  0  0
   -4.1622   -3.1024   -1.5387 H   0  0  0  0  0  0  0  0  0  0  0  0
    1.2603   -1.8052    1.7615 H   0  0  0  0  0  0  0  0  0  0  0  0
   -1.3658   -2.2883    2.5209 H   0  0  0  0  0  0  0  0  0  0  0  0
   -0.3785   -0.7730    2.8372 H   0  0  0  0  0  0  0  0  0  0  0  0
   -3.2683   -1.0662    2.0677 H   0  0  0  0  0  0  0  0  0  0  0  0
   -2.4333   -0.0221    3.2122 H   0  0  0  0  0  0  0  0  0  0  0  0
   -2.2134    1.0900   -0.7297 H   0  0  0  0  0  0  0  0  0  0  0  0
   -3.4679   -0.5980   -1.4642 H   0  0  0  0  0  0  0  0  0  0  0  0
   -3.9924   -0.8336    0.2198 H   0  0  0  0  0  0  0  0  0  0  0  0
   -1.0553   -0.7017   -2.3847 H   0  0  0  0  0  0  0  0  0  0  0  0
    0.9602   -2.2679   -2.3968 H   0  0  0  0  0  0  0  0  0  0  0  0
    2.7147   -1.2471   -2.5789 H   0  0  0  0  0  0  0  0  0  0  0  0
    4.2533   -1.9364   -2.0157 H   0  0  0  0  0  0  0  0  0  0  0  0
    2.0843   -0.0220    1.0764 H   0  0  0  0  0  0  0  0  0  0  0  0
    0.3463    1.4539   -0.8202 H   0  0  0  0  0  0  0  0  0  0  0  0
    0.2171    1.2373    0.9905 H   0  0  0  0  0  0  0  0  0  0  0  0
    1.8858    2.4635   -1.6951 H   0  0  0  0  0  0  0  0  0  0  0  0
    1.6403    0.8957   -2.5817 H   0  0  0  0  0  0  0  0  0  0  0  0
    3.2067    1.7118   -2.5806 H   0  0  0  0  0  0  0  0  0  0  0  0
    4.1980    3.1996   -1.2564 H   0  0  0  0  0  0  0  0  0  0  0  0
    5.3024    1.7145   -1.1467 H   0  0  0  0  0  0  0  0  0  0  0  0
    5.2540    2.9246    0.1566 H   0  0  0  0  0  0  0  0  0  0  0  0
    3.3112    3.4976    1.1592 H   0  0  0  0  0  0  0  0  0  0  0  0
    2.2932    2.2194    1.8265 H   0  0  0  0  0  0  0  0  0  0  0  0
    1.8637    3.0720    0.2504 H   0  0  0  0  0  0  0  0  0  0  0  0
    4.7945   -0.0124    0.8434 H   0  0  0  0  0  0  0  0  0  0  0  0
    3.6674    0.6977    2.1419 H   0  0  0  0  0  0  0  0  0  0  0  0
    5.1064    1.5598    1.6125 H   0  0  0  0  0  0  0  0  0  0  0  0
   -2.7978    2.1709    2.5326 H   0  0  0  0  0  0  0  0  0  0  0  0
   -4.1197    1.4755    1.5942 H   0  0  0  0  0  0  0  0  0  0  0  0
   -1.8463    3.2125    0.3338 H   0  0  0  0  0  0  0  0  0  0  0  0
   -3.4549    5.1168    0.7032 H   0  0  0  0  0  0  0  0  0  0  0  0
   -4.5559    3.9855    1.6660 H   0  0  0  0  0  0  0  0  0  0  0  0
   -3.6684    3.5859   -1.3568 H   0  0  0  0  0  0  0  0  0  0  0  0
   -4.8070    2.4770   -0.3881 H   0  0  0  0  0  0  0  0  0  0  0  0
  1  2  1  0
  2  3  2  0
  3  4  1  0
  4  5  2  0
  5  6  1  0
  6  7  2  0
  7  8  1  0
  8  9  1  0
  9 10  1  0
 10 11  1  1
 11 12  1  0
 12 13  1  0
 13 14  1  0
 14 15  1  0
 14 16  1  0
 16 17  1  0
 17 18  2  0
 18 19  1  0
 19 20  1  6
 20 21  1  0
 21 22  1  0
 22 23  1  0
 23 24  1  0
 24 25  1  0
 23 26  1  6
 23 27  1  0
 27 28  1  0
 27 29  1  0
 27 30  1  0
 13 31  1  0
 31 32  1  0
 32 33  1  0
 33 34  1  0
  7  2  1  0
 19  9  1  0
 34 32  1  0
 15  5  1  0
 16 25  1  1
 10  6  1  0
 24 19  1  0
 16 10  1  0
  1 35  1  0
  3 36  1  0
  4 37  1  0
  9 38  1  1
 11 39  1  0
 11 40  1  0
 12 41  1  0
 12 42  1  0
 14 43  1  6
 15 44  1  0
 15 45  1  0
 17 46  1  0
 18 47  1  0
 21 48  1  0
 21 49  1  0
 24 50  1  1
 25 51  1  0
 25 52  1  0
 26 53  1  0
 26 54  1  0
 26 55  1  0
 28 56  1  0
 28 57  1  0
 28 58  1  0
 29 59  1  0
 29 60  1  0
 29 61  1  0
 30 62  1  0
 30 63  1  0
 30 64  1  0
 31 65  1  0
 31 66  1  0
 32 67  1  0
 33 68  1  0
 33 69  1  0
 34 70  1  0
 34 71  1  0
M  END
>  <Ligand ID>  (1) 
LIG0005108

>  <Ligand>  (1) 
SCHEMBL15486097

>  <SMILES>  (1) 
Oc1ccc2c3c1O[C@@H]1[C@@]43CCN([C@H](C2)[C@@]24C=C[C@@]31OCO[C@]([C@H]3C2)(C)C(C)(C)C)CC1CC1

>  <CID>  (1) 
89978807.0

>  <ChEMBL ID>  (1) 
nan

>  <InChiKey>  (1) 
OOAABOYCKWLINM-IHFGGWKQSA-N

>  <InChi>  (1) 
InChI=1S/C29H37NO4/c1-25(2,3)26(4)20-14-27-9-10-29(20,33-16-32-26)24-28(27)11-12-30(15-17-5-6-17)21(27)13-18-7-8-19(31)23(34-24)22(18)28/h7-10,17,20-21,24,31H,5-6,11-16H2,1-4H3/t20-,21-,24-,26+,27-,28+,29-/m1/s1

>  <IUPAC Name>  (1) 
(1R,2S,6R,14R,15R,19S,20R)-19-tert-butyl-5-(cyclopropylmethyl)-19-methyl-13,16,18-trioxa-5-azaheptacyclo[13.6.2.12,8.01,6.02,14.015,20.012,24]tetracosa-8(24),9,11,22-tetraen-11-ol

$$$$
