
     RDKit          3D

 70 72  0  0  0  0  0  0  0  0999 V2000
    7.1167   -1.0755   -2.2048 O   0  0  0  0  0  0  0  0  0  0  0  0
    6.8219   -0.1228   -1.2360 C   0  0  2  0  0  0  0  0  0  0  0  0
    8.1257    0.2670   -0.5894 C   0  0  0  0  0  0  0  0  0  0  0  0
    8.2973    1.4586    0.0716 C   0  0  0  0  0  0  0  0  0  0  0  0
    9.5487    1.7225    0.6086 C   0  0  0  0  0  0  0  0  0  0  0  0
   10.5739    0.8321    0.4832 C   0  0  0  0  0  0  0  0  0  0  0  0
   10.4062   -0.3589   -0.1701 C   0  0  0  0  0  0  0  0  0  0  0  0
    9.1871   -0.6295   -0.7002 C   0  0  0  0  0  0  0  0  0  0  0  0
    5.9616   -0.6616   -0.1285 C   0  0  0  0  0  0  0  0  0  0  0  0
    4.6914   -1.2271   -0.6270 N   0  0  0  0  0  0  0  0  0  0  0  0
    3.9741   -1.7873    0.4570 C   0  0  0  0  0  0  0  0  0  0  0  0
    3.2902   -0.8914    1.3877 C   0  0  0  0  0  0  0  0  0  0  0  0
    2.1571   -0.1068    0.8465 C   0  0  0  0  0  0  0  0  0  0  0  0
    1.1923   -0.8651    0.1763 C   0  0  0  0  0  0  0  0  0  0  0  0
   -0.0224   -0.3667   -0.1380 C   0  0  0  0  0  0  0  0  0  0  0  0
   -0.3298    0.9496    0.2162 C   0  0  0  0  0  0  0  0  0  0  0  0
    0.6001    1.7480    0.8701 C   0  0  0  0  0  0  0  0  0  0  0  0
    1.8771    1.2136    1.1954 C   0  0  0  0  0  0  0  0  0  0  0  0
   -1.7362    1.3491    0.0059 C   0  0  0  0  0  0  0  0  0  0  0  0
   -2.1909    2.5923   -0.2790 C   0  0  0  0  0  0  0  0  0  0  0  0
   -3.5291    2.8246   -0.4065 C   0  0  0  0  0  0  0  0  0  0  0  0
   -4.5124    1.8455   -0.2565 C   0  0  0  0  0  0  0  0  0  0  0  0
   -4.0950    0.5668    0.0298 C   0  0  0  0  0  0  0  0  0  0  0  0
   -2.6729    0.3690    0.1543 C   0  0  0  0  0  0  0  0  0  0  0  0
   -4.7725   -0.5325    0.2117 O   0  0  0  0  0  0  0  0  0  0  0  0
   -5.4342   -1.5999    0.3932 C   0  0  0  0  0  0  0  0  0  0  0  0
   -5.7225   -2.0849    1.6843 C   0  0  0  0  0  0  0  0  0  0  0  0
   -6.4342   -3.2332    1.8990 C   0  0  0  0  0  0  0  0  0  0  0  0
   -6.8833   -3.9431    0.7860 C   0  0  0  0  0  0  0  0  0  0  0  0
   -6.6299   -3.5192   -0.5119 C   0  0  0  0  0  0  0  0  0  0  0  0
   -5.9133   -2.3584   -0.6801 C   0  0  0  0  0  0  0  0  0  0  0  0
   -5.8942    2.2476   -0.4178 C   0  0  0  0  0  0  0  0  0  0  0  0
   -6.1051    3.5018   -0.6618 O   0  0  0  0  0  0  0  0  0  0  0  0
   -7.0403    1.4608   -0.3360 N   0  0  0  0  0  0  0  0  0  0  0  0
   -8.6654    2.0143   -0.5249 S   0  0  0  0  0  0  0  0  0  0  0  0
   -9.5468    1.1394    0.3495 O   0  0  0  0  0  0  0  0  0  0  0  0
   -8.8634    3.4097    0.0377 O   0  0  0  0  0  0  0  0  0  0  0  0
   -9.2715    1.9205   -2.1661 C   0  0  0  0  0  0  0  0  0  0  0  0
    0.6856    0.0000    0.0000 Cl  0  0  0  0  0  0  0  0  0  0  0  0
    6.5098   -0.8801   -2.9851 H   0  0  0  0  0  0  0  0  0  0  0  0
    6.3752    0.7701   -1.6952 H   0  0  0  0  0  0  0  0  0  0  0  0
    7.4557    2.1606    0.1584 H   0  0  0  0  0  0  0  0  0  0  0  0
    9.7154    2.6256    1.1181 H   0  0  0  0  0  0  0  0  0  0  0  0
   11.5523    1.0684    0.9132 H   0  0  0  0  0  0  0  0  0  0  0  0
   11.2576   -1.0493   -0.2529 H   0  0  0  0  0  0  0  0  0  0  0  0
    9.0170   -1.5667   -1.2319 H   0  0  0  0  0  0  0  0  0  0  0  0
    5.6802    0.2262    0.5243 H   0  0  0  0  0  0  0  0  0  0  0  0
    6.4718   -1.3725    0.5198 H   0  0  0  0  0  0  0  0  0  0  0  0
    4.9207   -1.9445   -1.3676 H   0  0  0  0  0  0  0  0  0  0  0  0
    4.7303   -2.3753    1.1235 H   0  0  0  0  0  0  0  0  0  0  0  0
    3.3066   -2.6460    0.1212 H   0  0  0  0  0  0  0  0  0  0  0  0
    4.0490   -0.0937    1.7049 H   0  0  0  0  0  0  0  0  0  0  0  0
    2.9482   -1.4033    2.3341 H   0  0  0  0  0  0  0  0  0  0  0  0
    1.4141   -1.9237   -0.1045 H   0  0  0  0  0  0  0  0  0  0  0  0
   -0.7611   -0.9657   -0.6818 H   0  0  0  0  0  0  0  0  0  0  0  0
    0.3607    2.7729    1.1367 H   0  0  0  0  0  0  0  0  0  0  0  0
    2.6087    1.8325    1.7083 H   0  0  0  0  0  0  0  0  0  0  0  0
   -1.4893    3.3980   -0.4335 H   0  0  0  0  0  0  0  0  0  0  0  0
   -3.8108    3.8645   -0.6418 H   0  0  0  0  0  0  0  0  0  0  0  0
   -2.3378   -0.6364    0.3887 H   0  0  0  0  0  0  0  0  0  0  0  0
   -5.3769   -1.5446    2.5514 H   0  0  0  0  0  0  0  0  0  0  0  0
   -6.6125   -3.5702    2.8951 H   0  0  0  0  0  0  0  0  0  0  0  0
   -7.4296   -4.8582    0.8877 H   0  0  0  0  0  0  0  0  0  0  0  0
   -7.0106   -4.1275   -1.3699 H   0  0  0  0  0  0  0  0  0  0  0  0
   -5.7161   -2.0201   -1.7097 H   0  0  0  0  0  0  0  0  0  0  0  0
   -6.9301    0.4418   -0.1662 H   0  0  0  0  0  0  0  0  0  0  0  0
  -10.1172    2.6913   -2.2230 H   0  0  0  0  0  0  0  0  0  0  0  0
   -9.7677    0.9269   -2.3291 H   0  0  0  0  0  0  0  0  0  0  0  0
   -8.5701    2.1299   -2.9665 H   0  0  0  0  0  0  0  0  0  0  0  0
   -0.6856    0.0000    0.0000 H   0  0  0  0  0  0  0  0  0  0  0  0
  1  2  1  0
  2  3  1  0
  3  4  2  0
  4  5  1  0
  5  6  2  0
  6  7  1  0
  7  8  2  0
  2  9  1  0
  9 10  1  0
 10 11  1  0
 11 12  1  0
 12 13  1  0
 13 14  2  0
 14 15  1  0
 15 16  2  0
 16 17  1  0
 17 18  2  0
 16 19  1  0
 19 20  2  0
 20 21  1  0
 21 22  2  0
 22 23  1  0
 23 24  2  0
 23 25  1  0
 25 26  1  0
 26 27  2  0
 27 28  1  0
 28 29  2  0
 29 30  1  0
 30 31  2  0
 22 32  1  0
 32 33  2  0
 32 34  1  0
 34 35  1  0
 35 36  2  0
 35 37  2  0
 35 38  1  0
  8  3  1  0
 18 13  1  0
 24 19  1  0
 31 26  1  0
  1 40  1  0
  2 41  1  6
  4 42  1  0
  5 43  1  0
  6 44  1  0
  7 45  1  0
  8 46  1  0
  9 47  1  0
  9 48  1  0
 10 49  1  0
 11 50  1  0
 11 51  1  0
 12 52  1  0
 12 53  1  0
 14 54  1  0
 15 55  1  0
 17 56  1  0
 18 57  1  0
 20 58  1  0
 21 59  1  0
 24 60  1  0
 27 61  1  0
 28 62  1  0
 29 63  1  0
 30 64  1  0
 31 65  1  0
 34 66  1  0
 38 67  1  0
 38 68  1  0
 38 69  1  0
 39 70  1  0
M  END
>  <Ligand ID>  (1) 
LIG0004926

>  <Ligand>  (1) 
CHEMBL469396

>  <SMILES>  (1) 
O[C@H](c1ccccc1)CNCCc1ccc(cc1)c1ccc(c(c1)Oc1ccccc1)C(=O)NS(=O)(=O)C.Cl

>  <CID>  (1) 
42639809.0

>  <ChEMBL ID>  (1) 
nan

>  <InChiKey>  (1) 
CLVFKLZXDQEISU-JCOPYZAKSA-N

>  <InChi>  (1) 
InChI=1S/C30H30N2O5S.ClH/c1-38(35,36)32-30(34)27-17-16-25(20-29(27)37-26-10-6-3-7-11-26)23-14-12-22(13-15-23)18-19-31-21-28(33)24-8-4-2-5-9-24;/h2-17,20,28,31,33H,18-19,21H2,1H3,(H,32,34);1H/t28-;/m0./s1

>  <IUPAC Name>  (1) 
4-[4-[2-[[(2R)-2-hydroxy-2-phenylethyl]amino]ethyl]phenyl]-N-methylsulfonyl-2-phenoxybenzamide;hydrochloride

$$$$
