
     RDKit          3D

 31 30  0  0  0  0  0  0  0  0999 V2000
    3.6936    0.4510    1.1788 C   0  0  0  0  0  0  0  0  0  0  0  0
    3.7571   -0.9023    0.5200 C   0  0  0  0  0  0  0  0  0  0  0  0
    3.0197   -0.9459   -0.7509 C   0  0  0  0  0  0  0  0  0  0  0  0
    1.5834   -0.6875   -0.8077 C   0  0  0  0  0  0  0  0  0  0  0  0
    1.0198    0.5943   -0.3703 C   0  0  0  0  0  0  0  0  0  0  0  0
   -0.4984    0.6944   -0.5249 C   0  0  0  0  0  0  0  0  0  0  0  0
   -1.2392   -0.3489    0.2724 C   0  0  0  0  0  0  0  0  0  0  0  0
   -2.7045   -0.0931    0.0084 C   0  0  0  0  0  0  0  0  0  0  0  0
   -3.5245    0.1988    1.0114 C   0  0  0  0  0  0  0  0  0  0  0  0
   -4.9790    0.4464    0.7004 C   0  0  0  0  0  0  0  0  0  0  0  0
   -5.1817    0.3092   -0.6720 O   0  0  0  0  0  0  0  0  0  0  0  0
    4.7333    0.6765    1.5656 H   0  0  0  0  0  0  0  0  0  0  0  0
    3.4656    1.2651    0.4946 H   0  0  0  0  0  0  0  0  0  0  0  0
    3.0693    0.4046    2.1001 H   0  0  0  0  0  0  0  0  0  0  0  0
    3.5345   -1.7279    1.2264 H   0  0  0  0  0  0  0  0  0  0  0  0
    4.8497   -1.0671    0.2735 H   0  0  0  0  0  0  0  0  0  0  0  0
    3.1951   -1.9589   -1.2286 H   0  0  0  0  0  0  0  0  0  0  0  0
    3.5734   -0.2643   -1.4678 H   0  0  0  0  0  0  0  0  0  0  0  0
    1.0094   -1.5116   -0.2818 H   0  0  0  0  0  0  0  0  0  0  0  0
    1.2510   -0.8377   -1.8799 H   0  0  0  0  0  0  0  0  0  0  0  0
    1.1610    0.7370    0.7448 H   0  0  0  0  0  0  0  0  0  0  0  0
    1.4207    1.4962   -0.8196 H   0  0  0  0  0  0  0  0  0  0  0  0
   -0.6830    0.5060   -1.6009 H   0  0  0  0  0  0  0  0  0  0  0  0
   -0.8676    1.6894   -0.2827 H   0  0  0  0  0  0  0  0  0  0  0  0
   -0.9791   -1.3757   -0.0587 H   0  0  0  0  0  0  0  0  0  0  0  0
   -1.0212   -0.2038    1.3434 H   0  0  0  0  0  0  0  0  0  0  0  0
   -3.0212   -0.1641   -1.0257 H   0  0  0  0  0  0  0  0  0  0  0  0
   -3.1878    0.2646    2.0362 H   0  0  0  0  0  0  0  0  0  0  0  0
   -5.6231   -0.2516    1.2932 H   0  0  0  0  0  0  0  0  0  0  0  0
   -5.2669    1.4689    1.0192 H   0  0  0  0  0  0  0  0  0  0  0  0
   -5.5593    1.1379   -1.0579 H   0  0  0  0  0  0  0  0  0  0  0  0
  1  2  1  0
  2  3  1  0
  3  4  1  0
  4  5  1  0
  5  6  1  0
  6  7  1  0
  7  8  1  0
  8  9  2  0
  9 10  1  0
 10 11  1  0
  1 12  1  0
  1 13  1  0
  1 14  1  0
  2 15  1  0
  2 16  1  0
  3 17  1  0
  3 18  1  0
  4 19  1  0
  4 20  1  0
  5 21  1  0
  5 22  1  0
  6 23  1  0
  6 24  1  0
  7 25  1  0
  7 26  1  0
  8 27  1  0
  9 28  1  0
 10 29  1  0
 10 30  1  0
 11 31  1  0
M  END
>  <Ligand ID>  (1) 
LIG0000410

>  <Ligand>  (1) 
2-Decenol, (2E)-

>  <SMILES>  (1) 
CCCCCCC/C=C/CO

>  <CID>  (1) 
5364942.0

>  <ChEMBL ID>  (1) 
nan

>  <InChiKey>  (1) 
QOPYYRPCXHTOQZ-CMDGGOBGSA-N

>  <InChi>  (1) 
InChI=1S/C10H20O/c1-2-3-4-5-6-7-8-9-10-11/h8-9,11H,2-7,10H2,1H3/b9-8+

>  <IUPAC Name>  (1) 
(E)-dec-2-en-1-ol

$$$$
