
     RDKit          3D

 30 31  0  0  0  0  0  0  0  0999 V2000
   -3.2062    1.9154   -0.6977 O   0  0  0  0  0  0  0  0  0  0  0  0
   -2.2833    1.2029   -1.4533 C   0  0  0  0  0  0  0  0  0  0  0  0
   -2.5697    1.0122   -2.6639 O   0  0  0  0  0  0  0  0  0  0  0  0
   -1.0196    0.6963   -0.8424 C   0  0  2  0  0  0  0  0  0  0  0  0
   -0.8207   -0.7005   -1.2641 C   0  0  1  0  0  0  0  0  0  0  0  0
    0.4561   -1.4363   -0.7162 C   0  0  2  0  0  0  0  0  0  0  0  0
   -0.8703   -1.8872   -0.4262 C   0  0  1  0  0  0  0  0  0  0  0  0
   -1.5802   -1.9611    0.8591 C   0  0  0  0  0  0  0  0  0  0  0  0
   -1.5391   -1.1004    1.7759 O   0  0  0  0  0  0  0  0  0  0  0  0
   -2.4168   -3.0725    1.1885 O   0  0  0  0  0  0  0  0  0  0  0  0
    1.3479   -0.5411    0.0010 C   0  0  0  0  0  0  0  0  0  0  0  0
    2.0651    0.3937   -0.7702 C   0  0  0  0  0  0  0  0  0  0  0  0
    2.9510    1.2739   -0.2009 C   0  0  0  0  0  0  0  0  0  0  0  0
    3.1747    1.2801    1.1404 C   0  0  0  0  0  0  0  0  0  0  0  0
    2.4910    0.3789    1.9275 C   0  0  0  0  0  0  0  0  0  0  0  0
    1.5942   -0.5109    1.3422 C   0  0  0  0  0  0  0  0  0  0  0  0
   -0.9226    1.0340    0.5264 N   0  0  0  0  0  0  0  0  0  0  0  0
   -3.7824    2.6496   -1.0623 H   0  0  0  0  0  0  0  0  0  0  0  0
   -0.2194    1.3380   -1.3613 H   0  0  0  0  0  0  0  0  0  0  0  0
   -0.9541   -0.8261   -2.4019 H   0  0  0  0  0  0  0  0  0  0  0  0
    1.0247   -1.9273   -1.5883 H   0  0  0  0  0  0  0  0  0  0  0  0
   -1.1489   -2.8421   -1.0370 H   0  0  0  0  0  0  0  0  0  0  0  0
   -2.8667   -3.1317    2.0914 H   0  0  0  0  0  0  0  0  0  0  0  0
    1.9437    0.4491   -1.8435 H   0  0  0  0  0  0  0  0  0  0  0  0
    3.4866    1.9810   -0.8256 H   0  0  0  0  0  0  0  0  0  0  0  0
    3.8640    1.9545    1.6440 H   0  0  0  0  0  0  0  0  0  0  0  0
    2.6673    0.3793    3.0084 H   0  0  0  0  0  0  0  0  0  0  0  0
    1.1061   -1.1913    1.9865 H   0  0  0  0  0  0  0  0  0  0  0  0
   -1.8214    1.4752    0.8985 H   0  0  0  0  0  0  0  0  0  0  0  0
   -0.1509    1.7144    0.7649 H   0  0  0  0  0  0  0  0  0  0  0  0
  1  2  1  0
  2  3  2  0
  2  4  1  0
  4  5  1  0
  5  6  1  0
  6  7  1  0
  7  8  1  0
  8  9  2  0
  8 10  1  0
  6 11  1  0
 11 12  2  0
 12 13  1  0
 13 14  2  0
 14 15  1  0
 15 16  2  0
  4 17  1  0
  7  5  1  0
 16 11  1  0
  1 18  1  0
  4 19  1  6
  5 20  1  6
  6 21  1  6
  7 22  1  6
 10 23  1  0
 12 24  1  0
 13 25  1  0
 14 26  1  0
 15 27  1  0
 16 28  1  0
 17 29  1  0
 17 30  1  0
M  END
>  <Ligand ID>  (1) 
LIG0002580

>  <Ligand>  (1) 
CHEMBL2114105

>  <SMILES>  (1) 
OC(=O)[C@H]([C@H]1[C@H]([C@H]1C(=O)O)c1ccccc1)N

>  <CID>  (1) 
7157252.0

>  <ChEMBL ID>  (1) 
nan

>  <InChiKey>  (1) 
IFLWVSHRWAIVQF-RGOKHQFPSA-N

>  <InChi>  (1) 
InChI=1S/C12H13NO4/c13-10(12(16)17)8-7(9(8)11(14)15)6-4-2-1-3-5-6/h1-5,7-10H,13H2,(H,14,15)(H,16,17)/t7-,8+,9-,10+/m1/s1

>  <IUPAC Name>  (1) 
(1R,2S,3R)-2-[(S)-amino(carboxy)methyl]-3-phenylcyclopropane-1-carboxylic acid

$$$$
