
     RDKit          3D

 26 27  0  0  0  0  0  0  0  0999 V2000
   -3.8047    2.9441    0.6533 N   0  0  0  0  0  0  0  0  0  0  0  0
   -2.6189    2.6967    0.7827 N   0  0  0  0  0  0  0  0  0  0  0  0
   -1.4106    2.4294    0.9217 N   0  0  0  0  0  0  0  0  0  0  0  0
   -0.8863    1.3444    0.1537 C   0  0  1  0  0  0  0  0  0  0  0  0
    0.6139    1.5386    0.0644 C   0  0  0  0  0  0  0  0  0  0  0  0
    1.2320    0.1798   -0.1249 C   0  0  1  0  0  0  0  0  0  0  0  0
    0.2846   -0.7300    0.6047 C   0  0  1  0  0  0  0  0  0  0  0  0
   -0.9799    0.0057    0.8394 C   0  0  2  0  0  0  0  0  0  0  0  0
   -0.9513   -1.2011   -0.0610 C   0  0  2  0  0  0  0  0  0  0  0  0
   -1.5716   -2.4547    0.4212 C   0  0  0  0  0  0  0  0  0  0  0  0
   -1.4592   -2.7134    1.6571 O   0  0  0  0  0  0  0  0  0  0  0  0
   -2.2571   -3.3386   -0.4127 O   0  0  0  0  0  0  0  0  0  0  0  0
    1.3598   -0.0995   -1.5241 N   0  0  0  0  0  0  0  0  0  0  0  0
    2.5741    0.2186    0.5180 C   0  0  0  0  0  0  0  0  0  0  0  0
    2.6792    0.4495    1.7438 O   0  0  0  0  0  0  0  0  0  0  0  0
    3.7411   -0.0002   -0.2255 O   0  0  0  0  0  0  0  0  0  0  0  0
   -1.2863    1.2793   -0.8805 H   0  0  0  0  0  0  0  0  0  0  0  0
    0.9538    1.9325    1.0471 H   0  0  0  0  0  0  0  0  0  0  0  0
    0.8533    2.2507   -0.7490 H   0  0  0  0  0  0  0  0  0  0  0  0
    0.6867   -1.3196    1.4496 H   0  0  0  0  0  0  0  0  0  0  0  0
   -1.5191   -0.0729    1.8067 H   0  0  0  0  0  0  0  0  0  0  0  0
   -1.0700   -1.0050   -1.1567 H   0  0  0  0  0  0  0  0  0  0  0  0
   -3.0924   -3.8102   -0.0305 H   0  0  0  0  0  0  0  0  0  0  0  0
    0.9752   -1.0280   -1.7307 H   0  0  0  0  0  0  0  0  0  0  0  0
    2.3421    0.0433   -1.8425 H   0  0  0  0  0  0  0  0  0  0  0  0
    4.6118    0.4605    0.0242 H   0  0  0  0  0  0  0  0  0  0  0  0
  1  2  2  0
  2  3  2  0
  3  4  1  0
  4  5  1  0
  5  6  1  0
  6  7  1  0
  7  8  1  0
  8  9  1  0
  9 10  1  0
 10 11  2  0
 10 12  1  0
  6 13  1  6
  6 14  1  0
 14 15  2  0
 14 16  1  0
  8  4  1  0
  9  7  1  0
  4 17  1  6
  5 18  1  0
  5 19  1  0
  7 20  1  1
  8 21  1  1
  9 22  1  6
 12 23  1  0
 13 24  1  0
 13 25  1  0
 16 26  1  0
M  CHG  2   1  -1   2   1
M  END
>  <Ligand ID>  (1) 
LIG0002397

>  <Ligand>  (1) 
CHEMBL2381645

>  <SMILES>  (1) 
[N-]=[N+]=N[C@H]1C[C@@]([C@H]2[C@@H]1[C@@H]2C(=O)O)(N)C(=O)O

>  <CID>  (1) 
71681825.0

>  <ChEMBL ID>  (1) 
nan

>  <InChiKey>  (1) 
OBUIZKQQNAWVEW-FJNNMDBYSA-N

>  <InChi>  (1) 
InChI=1S/C8H10N4O4/c9-8(7(15)16)1-2(11-12-10)3-4(5(3)8)6(13)14/h2-5H,1,9H2,(H,13,14)(H,15,16)/t2-,3-,4-,5-,8-/m0/s1

>  <IUPAC Name>  (1) 
(1S,2S,4S,5R,6S)-2-amino-4-azidobicyclo[3.1.0]hexane-2,6-dicarboxylic acid

$$$$
