
     RDKit          3D

 32 34  0  0  0  0  0  0  0  0999 V2000
   -3.1651   -0.6369    1.3092 C   0  0  0  0  0  0  0  0  0  0  0  0
   -2.4066    0.5818    0.8512 C   0  0  1  0  0  0  0  0  0  0  0  0
   -1.7758    0.4253   -0.5001 C   0  0  0  0  0  0  0  0  0  0  0  0
   -0.8303   -0.6378   -0.5952 N   0  0  0  0  0  0  0  0  0  0  0  0
   -1.1802   -1.9081   -0.9550 C   0  0  0  0  0  0  0  0  0  0  0  0
   -0.0609   -2.7141   -0.9606 C   0  0  0  0  0  0  0  0  0  0  0  0
    1.0064   -1.9273   -0.5967 C   0  0  0  0  0  0  0  0  0  0  0  0
    0.4987   -0.6752   -0.3835 C   0  0  0  0  0  0  0  0  0  0  0  0
    1.3681    0.3165   -0.0036 C   0  0  0  0  0  0  0  0  0  0  0  0
    0.9302    1.5461    0.2159 N   0  0  0  0  0  0  0  0  0  0  0  0
    1.6947    2.5830    0.5893 C   0  0  0  0  0  0  0  0  0  0  0  0
    3.0506    2.3873    0.7679 C   0  0  0  0  0  0  0  0  0  0  0  0
    3.5377    1.1097    0.5452 C   0  0  0  0  0  0  0  0  0  0  0  0
    2.7280    0.0597    0.1612 C   0  0  0  0  0  0  0  0  0  0  0  0
    3.2068   -1.2086   -0.0606 C   0  0  0  0  0  0  0  0  0  0  0  0
    2.3558   -2.2228   -0.4428 C   0  0  0  0  0  0  0  0  0  0  0  0
   -3.3414    1.6901    0.7480 N   0  0  0  0  0  0  0  0  0  0  0  0
   -3.8083   -0.3195    2.1562 H   0  0  0  0  0  0  0  0  0  0  0  0
   -3.7943   -1.0798    0.5397 H   0  0  0  0  0  0  0  0  0  0  0  0
   -2.4104   -1.3230    1.7613 H   0  0  0  0  0  0  0  0  0  0  0  0
   -1.6375    0.8598    1.5684 H   0  0  0  0  0  0  0  0  0  0  0  0
   -1.2520    1.3815   -0.7100 H   0  0  0  0  0  0  0  0  0  0  0  0
   -2.5595    0.3619   -1.3010 H   0  0  0  0  0  0  0  0  0  0  0  0
   -2.1772   -2.2532   -1.2024 H   0  0  0  0  0  0  0  0  0  0  0  0
   -0.0524   -3.7777   -1.2118 H   0  0  0  0  0  0  0  0  0  0  0  0
    1.3134    3.5675    0.7599 H   0  0  0  0  0  0  0  0  0  0  0  0
    3.7041    3.2065    1.0712 H   0  0  0  0  0  0  0  0  0  0  0  0
    4.5950    0.9444    0.6815 H   0  0  0  0  0  0  0  0  0  0  0  0
    4.2642   -1.3983    0.0700 H   0  0  0  0  0  0  0  0  0  0  0  0
    2.7582   -3.2177   -0.6122 H   0  0  0  0  0  0  0  0  0  0  0  0
   -3.7460    1.6691   -0.2145 H   0  0  0  0  0  0  0  0  0  0  0  0
   -2.8139    2.6098    0.8096 H   0  0  0  0  0  0  0  0  0  0  0  0
  1  2  1  0
  2  3  1  0
  3  4  1  0
  4  5  1  0
  5  6  2  0
  6  7  1  0
  7  8  2  0
  8  9  1  0
  9 10  2  0
 10 11  1  0
 11 12  2  0
 12 13  1  0
 13 14  2  0
 14 15  1  0
 15 16  2  0
  2 17  1  0
  8  4  1  0
 14  9  1  0
 16  7  1  0
  1 18  1  0
  1 19  1  0
  1 20  1  0
  2 21  1  1
  3 22  1  0
  3 23  1  0
  5 24  1  0
  6 25  1  0
 11 26  1  0
 12 27  1  0
 13 28  1  0
 15 29  1  0
 16 30  1  0
 17 31  1  0
 17 32  1  0
M  END
>  <Ligand ID>  (1) 
LIG0002151

>  <Ligand>  (1) 
CHEMBL201062

>  <SMILES>  (1) 
C[C@@H](Cn1ccc2c1c1ncccc1cc2)N

>  <CID>  (1) 
18715561.0

>  <ChEMBL ID>  (1) 
nan

>  <InChiKey>  (1) 
IXEONLGAFBTDDR-JTQLQIEISA-N

>  <InChi>  (1) 
InChI=1S/C14H15N3/c1-10(15)9-17-8-6-12-5-4-11-3-2-7-16-13(11)14(12)17/h2-8,10H,9,15H2,1H3/t10-/m0/s1

>  <IUPAC Name>  (1) 
(2S)-1-pyrrolo[3,2-h]quinolin-1-ylpropan-2-amine

$$$$
