
     RDKit          3D

 55 58  0  0  0  0  0  0  0  0999 V2000
    6.9780   -4.2649   -0.3532 N   0  0  0  0  0  0  0  0  0  0  0  0
    6.8842   -3.1382   -0.5714 C   0  0  0  0  0  0  0  0  0  0  0  0
    6.7504   -1.7189   -0.8306 C   0  0  0  0  0  0  0  0  0  0  0  0
    7.0846   -1.1654   -2.0590 C   0  0  0  0  0  0  0  0  0  0  0  0
    6.9594    0.1641   -2.2863 N   0  0  0  0  0  0  0  0  0  0  0  0
    6.5160    1.0116   -1.3656 C   0  0  0  0  0  0  0  0  0  0  0  0
    6.1673    0.4946   -0.1087 C   0  0  0  0  0  0  0  0  0  0  0  0
    6.2886   -0.8698    0.1471 C   0  0  0  0  0  0  0  0  0  0  0  0
    5.8984   -1.3409    1.5159 C   0  0  0  0  0  0  0  0  0  0  0  0
    4.9876   -0.4475    2.0818 O   0  0  0  0  0  0  0  0  0  0  0  0
    3.7419   -0.1395    1.5730 C   0  0  0  0  0  0  0  0  0  0  0  0
    2.9700    0.7727    2.2458 C   0  0  0  0  0  0  0  0  0  0  0  0
    1.7595    1.0737    1.7577 N   0  0  0  0  0  0  0  0  0  0  0  0
    1.2775    0.5079    0.6286 C   0  0  0  0  0  0  0  0  0  0  0  0
    2.0415   -0.4024   -0.0474 N   0  0  0  0  0  0  0  0  0  0  0  0
    3.2766   -0.7407    0.4060 C   0  0  0  0  0  0  0  0  0  0  0  0
    0.0134    0.7940    0.0742 N   0  0  0  0  0  0  0  0  0  0  0  0
   -0.6381   -0.1524   -0.8652 C   0  0  0  0  0  0  0  0  0  0  0  0
   -1.9161   -0.6550   -0.1944 C   0  0  0  0  0  0  0  0  0  0  0  0
   -2.6793    0.4612    0.3580 N   0  0  0  0  0  0  0  0  0  0  0  0
   -1.9944    1.5349    1.0914 C   0  0  0  0  0  0  0  0  0  0  0  0
   -0.7630    1.9880    0.3381 C   0  0  1  0  0  0  0  0  0  0  0  0
    0.0024    3.0085    1.0994 C   0  0  0  0  0  0  0  0  0  0  0  0
   -4.0955    0.5406    0.2228 C   0  0  0  0  0  0  0  0  0  0  0  0
   -4.7264    1.5466    0.6974 O   0  0  0  0  0  0  0  0  0  0  0  0
   -4.8485   -0.4424   -0.4118 O   0  0  0  0  0  0  0  0  0  0  0  0
   -6.2410   -0.2999   -0.5116 C   0  0  2  0  0  0  0  0  0  0  0  0
   -7.0279   -1.3735    0.2006 C   0  0  0  0  0  0  0  0  0  0  0  0
   -8.0541   -1.7614   -0.6431 O   0  0  0  0  0  0  0  0  0  0  0  0
   -8.2318   -0.7554   -1.5779 C   0  0  0  0  0  0  0  0  0  0  0  0
   -6.7783   -0.3785   -1.9021 C   0  0  0  0  0  0  0  0  0  0  0  0
    7.4620   -1.8069   -2.8731 H   0  0  0  0  0  0  0  0  0  0  0  0
    6.4073    2.0874   -1.5320 H   0  0  0  0  0  0  0  0  0  0  0  0
    5.7940    1.1314    0.6866 H   0  0  0  0  0  0  0  0  0  0  0  0
    6.8212   -1.3617    2.1281 H   0  0  0  0  0  0  0  0  0  0  0  0
    5.5020   -2.3847    1.4210 H   0  0  0  0  0  0  0  0  0  0  0  0
    3.2778    1.2768    3.1618 H   0  0  0  0  0  0  0  0  0  0  0  0
    3.8770   -1.4715   -0.1433 H   0  0  0  0  0  0  0  0  0  0  0  0
    0.0250   -0.9927   -1.0528 H   0  0  0  0  0  0  0  0  0  0  0  0
   -0.9317    0.3580   -1.7865 H   0  0  0  0  0  0  0  0  0  0  0  0
   -1.5790   -1.2642    0.6698 H   0  0  0  0  0  0  0  0  0  0  0  0
   -2.5369   -1.1831   -0.9182 H   0  0  0  0  0  0  0  0  0  0  0  0
   -2.6988    2.3632    1.3101 H   0  0  0  0  0  0  0  0  0  0  0  0
   -1.6071    1.1231    2.0693 H   0  0  0  0  0  0  0  0  0  0  0  0
   -1.0869    2.4722   -0.6235 H   0  0  0  0  0  0  0  0  0  0  0  0
   -0.4021    4.0320    0.9170 H   0  0  0  0  0  0  0  0  0  0  0  0
    1.0566    3.0568    0.6964 H   0  0  0  0  0  0  0  0  0  0  0  0
    0.0574    2.8180    2.1903 H   0  0  0  0  0  0  0  0  0  0  0  0
   -6.5419    0.6580   -0.0499 H   0  0  0  0  0  0  0  0  0  0  0  0
   -7.4915   -0.9845    1.1374 H   0  0  0  0  0  0  0  0  0  0  0  0
   -6.4653   -2.2712    0.4611 H   0  0  0  0  0  0  0  0  0  0  0  0
   -8.6594    0.1884   -1.1353 H   0  0  0  0  0  0  0  0  0  0  0  0
   -8.7968   -1.0990   -2.4385 H   0  0  0  0  0  0  0  0  0  0  0  0
   -6.7149    0.5827   -2.4545 H   0  0  0  0  0  0  0  0  0  0  0  0
   -6.3706   -1.1802   -2.5115 H   0  0  0  0  0  0  0  0  0  0  0  0
  1  2  3  0
  2  3  1  0
  3  4  2  0
  4  5  1  0
  5  6  2  0
  6  7  1  0
  7  8  2  0
  8  9  1  0
  9 10  1  0
 10 11  1  0
 11 12  2  0
 12 13  1  0
 13 14  2  0
 14 15  1  0
 15 16  2  0
 14 17  1  0
 17 18  1  0
 18 19  1  0
 19 20  1  0
 20 21  1  0
 21 22  1  0
 22 23  1  0
 20 24  1  0
 24 25  2  0
 24 26  1  0
 26 27  1  0
 27 28  1  0
 28 29  1  0
 29 30  1  0
 30 31  1  0
  8  3  1  0
 16 11  1  0
 22 17  1  0
 31 27  1  0
  4 32  1  0
  6 33  1  0
  7 34  1  0
  9 35  1  0
  9 36  1  0
 12 37  1  0
 16 38  1  0
 18 39  1  0
 18 40  1  0
 19 41  1  0
 19 42  1  0
 21 43  1  0
 21 44  1  0
 22 45  1  6
 23 46  1  0
 23 47  1  0
 23 48  1  0
 27 49  1  1
 28 50  1  0
 28 51  1  0
 30 52  1  0
 30 53  1  0
 31 54  1  0
 31 55  1  0
M  END
>  <Ligand ID>  (1) 
LIG0005290

>  <Ligand>  (1) 
CHEMBL3220243

>  <SMILES>  (1) 
N#Cc1cnccc1COc1cnc(nc1)N1CCN(C[C@H]1C)C(=O)O[C@@H]1COCC1

>  <CID>  (1) 
90666915.0

>  <ChEMBL ID>  (1) 
nan

>  <InChiKey>  (1) 
ZUDZPIGJFSGJEW-QAPCUYQASA-N

>  <InChi>  (1) 
InChI=1S/C21H24N6O4/c1-15-12-26(21(28)31-18-3-7-29-14-18)5-6-27(15)20-24-10-19(11-25-20)30-13-16-2-4-23-9-17(16)8-22/h2,4,9-11,15,18H,3,5-7,12-14H2,1H3/t15-,18+/m1/s1

>  <IUPAC Name>  (1) 
[(3S)-oxolan-3-yl] (3R)-4-[5-[(3-cyanopyridin-4-yl)methoxy]pyrimidin-2-yl]-3-methylpiperazine-1-carboxylate

$$$$
