
     RDKit          3D

 55 57  0  0  0  0  0  0  0  0999 V2000
   -4.2265   -2.4946    0.7695 O   0  0  0  0  0  0  0  0  0  0  0  0
   -4.4130   -2.5042   -0.6120 C   0  0  0  0  0  0  0  0  0  0  0  0
   -4.2732   -1.0405   -1.0505 C   0  0  0  0  0  0  0  0  0  0  0  0
   -5.3116   -0.2310   -0.2940 C   0  0  0  0  0  0  0  0  0  0  0  0
   -6.5955   -0.6171   -0.5897 O   0  0  0  0  0  0  0  0  0  0  0  0
   -7.7923    0.2407    0.2154 P   0  0  0  0  0  0  0  0  0  0  0  0
   -9.0882    0.2284   -0.5768 O   0  0  0  0  0  0  0  0  0  0  0  0
   -7.3592    1.8343    0.5547 O   0  0  0  0  0  0  0  0  0  0  0  0
   -8.0910   -0.5223    1.6978 O   0  0  0  0  0  0  0  0  0  0  0  0
   -2.8917   -0.6170   -0.6655 C   0  0  0  0  0  0  0  0  0  0  0  0
   -2.5529    0.8047   -1.0140 C   0  0  0  0  0  0  0  0  0  0  0  0
   -1.1516    1.0343   -0.5564 C   0  0  0  0  0  0  0  0  0  0  0  0
   -0.1538    0.7545   -1.4815 C   0  0  0  0  0  0  0  0  0  0  0  0
    1.1703    0.9536   -1.0992 C   0  0  0  0  0  0  0  0  0  0  0  0
    1.4562    1.4192    0.1758 C   0  0  0  0  0  0  0  0  0  0  0  0
    0.4601    1.6909    1.0777 C   0  0  0  0  0  0  0  0  0  0  0  0
   -0.8620    1.4986    0.7144 C   0  0  0  0  0  0  0  0  0  0  0  0
    2.8635    1.6046    0.5079 C   0  0  0  0  0  0  0  0  0  0  0  0
    3.4394    2.0481    1.6813 C   0  0  0  0  0  0  0  0  0  0  0  0
    4.7592    2.0562    1.5250 O   0  0  0  0  0  0  0  0  0  0  0  0
    5.0530    1.6421    0.3167 C   0  0  0  0  0  0  0  0  0  0  0  0
    3.8877    1.3574   -0.3285 N   0  0  0  0  0  0  0  0  0  0  0  0
    6.3749    1.4737   -0.3378 C   0  0  0  0  0  0  0  0  0  0  0  0
    6.8841    0.1069   -0.0945 C   0  0  0  0  0  0  0  0  0  0  0  0
    6.5728   -0.9000   -0.9845 C   0  0  0  0  0  0  0  0  0  0  0  0
    7.0029   -2.1977   -0.8365 C   0  0  0  0  0  0  0  0  0  0  0  0
    7.7934   -2.4817    0.2806 C   0  0  0  0  0  0  0  0  0  0  0  0
    8.1165   -1.4862    1.1845 C   0  0  0  0  0  0  0  0  0  0  0  0
    7.6700   -0.1778    1.0152 C   0  0  0  0  0  0  0  0  0  0  0  0
    8.2265   -3.7695    0.4373 F   0  0  0  0  0  0  0  0  0  0  0  0
   -4.4437   -0.8948   -2.4695 N   0  0  0  0  0  0  0  0  0  0  0  0
   -4.7979   -3.2106    1.1642 H   0  0  0  0  0  0  0  0  0  0  0  0
   -5.4149   -2.8859   -0.8192 H   0  0  0  0  0  0  0  0  0  0  0  0
   -3.6358   -3.1186   -1.1017 H   0  0  0  0  0  0  0  0  0  0  0  0
   -5.1367   -0.4586    0.7881 H   0  0  0  0  0  0  0  0  0  0  0  0
   -5.1446    0.8520   -0.4463 H   0  0  0  0  0  0  0  0  0  0  0  0
   -6.7398    2.1281   -0.1601 H   0  0  0  0  0  0  0  0  0  0  0  0
   -8.7156   -0.0111    2.2738 H   0  0  0  0  0  0  0  0  0  0  0  0
   -2.1587   -1.2649   -1.1897 H   0  0  0  0  0  0  0  0  0  0  0  0
   -2.7596   -0.8133    0.4084 H   0  0  0  0  0  0  0  0  0  0  0  0
   -3.2009    1.4701   -0.4077 H   0  0  0  0  0  0  0  0  0  0  0  0
   -2.6302    0.9569   -2.0934 H   0  0  0  0  0  0  0  0  0  0  0  0
   -0.3597    0.3934   -2.4723 H   0  0  0  0  0  0  0  0  0  0  0  0
    1.9431    0.7318   -1.8301 H   0  0  0  0  0  0  0  0  0  0  0  0
    0.6982    2.0533    2.0679 H   0  0  0  0  0  0  0  0  0  0  0  0
   -1.6892    1.7038    1.4058 H   0  0  0  0  0  0  0  0  0  0  0  0
    2.8970    2.3382    2.5734 H   0  0  0  0  0  0  0  0  0  0  0  0
    7.0800    2.2473    0.0671 H   0  0  0  0  0  0  0  0  0  0  0  0
    6.3085    1.6353   -1.4318 H   0  0  0  0  0  0  0  0  0  0  0  0
    5.9626   -0.6529   -1.8357 H   0  0  0  0  0  0  0  0  0  0  0  0
    6.7588   -2.9884   -1.5349 H   0  0  0  0  0  0  0  0  0  0  0  0
    8.7310   -1.7070    2.0529 H   0  0  0  0  0  0  0  0  0  0  0  0
    7.8987    0.6187    1.6920 H   0  0  0  0  0  0  0  0  0  0  0  0
   -3.5114   -0.8646   -2.9624 H   0  0  0  0  0  0  0  0  0  0  0  0
   -4.9072    0.0331   -2.6207 H   0  0  0  0  0  0  0  0  0  0  0  0
  1  2  1  0
  2  3  1  0
  3  4  1  0
  4  5  1  0
  5  6  1  0
  6  7  2  0
  6  8  1  0
  6  9  1  0
  3 10  1  0
 10 11  1  0
 11 12  1  0
 12 13  2  0
 13 14  1  0
 14 15  2  0
 15 16  1  0
 16 17  2  0
 15 18  1  0
 18 19  2  0
 19 20  1  0
 20 21  1  0
 21 22  2  0
 21 23  1  0
 23 24  1  0
 24 25  2  0
 25 26  1  0
 26 27  2  0
 27 28  1  0
 28 29  2  0
 27 30  1  0
  3 31  1  0
 17 12  1  0
 22 18  1  0
 29 24  1  0
  1 32  1  0
  2 33  1  0
  2 34  1  0
  4 35  1  0
  4 36  1  0
  8 37  1  0
  9 38  1  0
 10 39  1  0
 10 40  1  0
 11 41  1  0
 11 42  1  0
 13 43  1  0
 14 44  1  0
 16 45  1  0
 17 46  1  0
 19 47  1  0
 23 48  1  0
 23 49  1  0
 25 50  1  0
 26 51  1  0
 28 52  1  0
 29 53  1  0
 31 54  1  0
 31 55  1  0
M  END
>  <Ligand ID>  (1) 
LIG0005927

>  <Ligand>  (1) 
CHEMBL3341931

>  <SMILES>  (1) 
OCC(COP(=O)(O)O)(CCc1ccc(cc1)c1coc(n1)Cc1ccc(cc1)F)N

>  <CID>  (1) 
118716153.0

>  <ChEMBL ID>  (1) 
nan

>  <InChiKey>  (1) 
ROWLEXIRBHVEMB-UHFFFAOYSA-N

>  <InChi>  (1) 
InChI=1S/C21H24FN2O6P/c22-18-7-3-16(4-8-18)11-20-24-19(12-29-20)17-5-1-15(2-6-17)9-10-21(23,13-25)14-30-31(26,27)28/h1-8,12,25H,9-11,13-14,23H2,(H2,26,27,28)

>  <IUPAC Name>  (1) 
[2-amino-4-[4-[2-[(4-fluorophenyl)methyl]-1,3-oxazol-4-yl]phenyl]-2-(hydroxymethyl)butyl] dihydrogen phosphate

$$$$
