
     RDKit          3D

 71 73  0  0  0  0  0  0  0  0999 V2000
  -10.8298    1.3914   -0.6655 C   0  0  0  0  0  0  0  0  0  0  0  0
   -9.8004    1.0224    0.4054 C   0  0  0  0  0  0  0  0  0  0  0  0
   -8.9161    0.0973   -0.2289 O   0  0  0  0  0  0  0  0  0  0  0  0
   -9.4230   -1.0939   -0.7253 C   0  0  0  0  0  0  0  0  0  0  0  0
  -10.6274   -1.4196   -0.6524 O   0  0  0  0  0  0  0  0  0  0  0  0
   -8.5115   -2.0841   -1.3986 C   0  0  0  0  0  0  0  0  0  0  0  0
   -7.1704   -1.5797   -1.4288 N   0  0  0  0  0  0  0  0  0  0  0  0
   -6.4286   -1.2552   -0.2602 C   0  0  0  0  0  0  0  0  0  0  0  0
   -7.0415   -1.4442    0.8449 O   0  0  0  0  0  0  0  0  0  0  0  0
   -5.0653   -0.7419   -0.2902 C   0  0  0  0  0  0  0  0  0  0  0  0
   -4.3484   -0.5113   -1.4263 C   0  0  0  0  0  0  0  0  0  0  0  0
   -3.0526   -0.0191   -1.3796 C   0  0  0  0  0  0  0  0  0  0  0  0
   -2.4086    0.2675   -0.1808 C   0  0  0  0  0  0  0  0  0  0  0  0
   -3.1408    0.0315    0.9664 C   0  0  0  0  0  0  0  0  0  0  0  0
   -4.4507   -0.4661    0.9146 C   0  0  0  0  0  0  0  0  0  0  0  0
   -1.0904    0.7566   -0.1221 N   0  0  0  0  0  0  0  0  0  0  0  0
   -0.4790    1.3167    1.0938 C   0  0  0  0  0  0  0  0  0  0  0  0
    0.6295    0.4155    1.4793 C   0  0  0  0  0  0  0  0  0  0  0  0
    1.1518   -0.5305    0.4511 C   0  0  0  0  0  0  0  0  0  0  0  0
    0.9234   -0.2380   -0.9752 C   0  0  0  0  0  0  0  0  0  0  0  0
   -0.1741    0.7454   -1.2721 C   0  0  0  0  0  0  0  0  0  0  0  0
    2.4101   -1.0924    0.7000 N   0  0  0  0  0  0  0  0  0  0  0  0
    3.5513   -0.3982    1.0195 C   0  0  0  0  0  0  0  0  0  0  0  0
    4.1288    0.4562   -0.0753 C   0  0  1  0  0  0  0  0  0  0  0  0
    5.4566    1.0435    0.3730 C   0  0  0  0  0  0  0  0  0  0  0  0
    5.5674    2.3630    0.7357 C   0  0  0  0  0  0  0  0  0  0  0  0
    6.7905    2.8523    1.1321 C   0  0  0  0  0  0  0  0  0  0  0  0
    7.8717    2.0122    1.1562 C   0  0  0  0  0  0  0  0  0  0  0  0
    7.7997    0.6681    0.7958 C   0  0  0  0  0  0  0  0  0  0  0  0
    6.5623    0.2101    0.4044 C   0  0  0  0  0  0  0  0  0  0  0  0
    8.9508   -0.1521    0.8428 N   0  0  0  0  0  0  0  0  0  0  0  0
    8.9461   -1.8053    0.3117 S   0  0  0  0  0  0  0  0  0  0  0  0
    7.9061   -2.5916    1.0557 O   0  0  0  0  0  0  0  0  0  0  0  0
   10.2693   -2.4485    0.5633 O   0  0  0  0  0  0  0  0  0  0  0  0
    8.5377   -1.8430   -1.4125 C   0  0  0  0  0  0  0  0  0  0  0  0
    9.1191    2.4722    1.5501 O   0  0  0  0  0  0  0  0  0  0  0  0
    4.4685   -0.2935   -1.2085 O   0  0  0  0  0  0  0  0  0  0  0  0
  -11.1531    2.4187   -0.4307 H   0  0  0  0  0  0  0  0  0  0  0  0
  -10.3161    1.3818   -1.6620 H   0  0  0  0  0  0  0  0  0  0  0  0
  -11.6593    0.6765   -0.7273 H   0  0  0  0  0  0  0  0  0  0  0  0
  -10.3571    0.4579    1.1948 H   0  0  0  0  0  0  0  0  0  0  0  0
   -9.2734    1.9097    0.7630 H   0  0  0  0  0  0  0  0  0  0  0  0
   -8.6129   -3.0428   -0.8467 H   0  0  0  0  0  0  0  0  0  0  0  0
   -8.8484   -2.2881   -2.4264 H   0  0  0  0  0  0  0  0  0  0  0  0
   -6.6865   -1.4333   -2.3489 H   0  0  0  0  0  0  0  0  0  0  0  0
   -4.7997   -0.7168   -2.3863 H   0  0  0  0  0  0  0  0  0  0  0  0
   -2.5707    0.1319   -2.3204 H   0  0  0  0  0  0  0  0  0  0  0  0
   -2.7701    0.2015    1.9645 H   0  0  0  0  0  0  0  0  0  0  0  0
   -5.0122   -0.6449    1.8414 H   0  0  0  0  0  0  0  0  0  0  0  0
   -1.2286    1.4030    1.8669 H   0  0  0  0  0  0  0  0  0  0  0  0
   -0.1459    2.3287    0.7614 H   0  0  0  0  0  0  0  0  0  0  0  0
    1.5041    1.0307    1.8532 H   0  0  0  0  0  0  0  0  0  0  0  0
    0.3158   -0.1163    2.4137 H   0  0  0  0  0  0  0  0  0  0  0  0
    0.4541   -1.4476    0.6239 H   0  0  0  0  0  0  0  0  0  0  0  0
    1.8089    0.1402   -1.5140 H   0  0  0  0  0  0  0  0  0  0  0  0
    0.6540   -1.1662   -1.5779 H   0  0  0  0  0  0  0  0  0  0  0  0
   -0.6462    0.5185   -2.2108 H   0  0  0  0  0  0  0  0  0  0  0  0
    0.2850    1.7746   -1.2972 H   0  0  0  0  0  0  0  0  0  0  0  0
    2.5050   -2.1126    0.4960 H   0  0  0  0  0  0  0  0  0  0  0  0
    4.3645   -1.1596    1.2440 H   0  0  0  0  0  0  0  0  0  0  0  0
    3.5490    0.2307    1.9294 H   0  0  0  0  0  0  0  0  0  0  0  0
    3.4722    1.2794   -0.3541 H   0  0  0  0  0  0  0  0  0  0  0  0
    4.7027    3.0215    0.7131 H   0  0  0  0  0  0  0  0  0  0  0  0
    6.8664    3.9007    1.4177 H   0  0  0  0  0  0  0  0  0  0  0  0
    6.4249   -0.8205    0.1118 H   0  0  0  0  0  0  0  0  0  0  0  0
    9.8380    0.2407    1.2072 H   0  0  0  0  0  0  0  0  0  0  0  0
    8.0164   -0.8856   -1.6714 H   0  0  0  0  0  0  0  0  0  0  0  0
    7.8136   -2.6586   -1.5997 H   0  0  0  0  0  0  0  0  0  0  0  0
    9.4474   -1.9402   -2.0474 H   0  0  0  0  0  0  0  0  0  0  0  0
    9.8390    2.4910    0.8188 H   0  0  0  0  0  0  0  0  0  0  0  0
    4.1369   -1.2183   -1.1531 H   0  0  0  0  0  0  0  0  0  0  0  0
  1  2  1  0
  2  3  1  0
  3  4  1  0
  4  5  2  0
  4  6  1  0
  6  7  1  0
  7  8  1  0
  8  9  2  0
  8 10  1  0
 10 11  2  0
 11 12  1  0
 12 13  2  0
 13 14  1  0
 14 15  2  0
 13 16  1  0
 16 17  1  0
 17 18  1  0
 18 19  1  0
 19 20  1  0
 20 21  1  0
 19 22  1  0
 22 23  1  0
 23 24  1  0
 24 25  1  0
 25 26  2  0
 26 27  1  0
 27 28  2  0
 28 29  1  0
 29 30  2  0
 29 31  1  0
 31 32  1  0
 32 33  2  0
 32 34  2  0
 32 35  1  0
 28 36  1  0
 24 37  1  0
 15 10  1  0
 21 16  1  0
 30 25  1  0
  1 38  1  0
  1 39  1  0
  1 40  1  0
  2 41  1  0
  2 42  1  0
  6 43  1  0
  6 44  1  0
  7 45  1  0
 11 46  1  0
 12 47  1  0
 14 48  1  0
 15 49  1  0
 17 50  1  0
 17 51  1  0
 18 52  1  0
 18 53  1  0
 19 54  1  0
 20 55  1  0
 20 56  1  0
 21 57  1  0
 21 58  1  0
 22 59  1  0
 23 60  1  0
 23 61  1  0
 24 62  1  6
 26 63  1  0
 27 64  1  0
 30 65  1  0
 31 66  1  0
 35 67  1  0
 35 68  1  0
 35 69  1  0
 36 70  1  0
 37 71  1  0
M  END
>  <Ligand ID>  (1) 
LIG0004456

>  <Ligand>  (1) 
CHEMBL286868

>  <SMILES>  (1) 
CCOC(=O)CNC(=O)c1ccc(cc1)N1CCC(CC1)NC[C@@H](c1ccc(c(c1)NS(=O)(=O)C)O)O

>  <CID>  (1) 
10626150.0

>  <ChEMBL ID>  (1) 
nan

>  <InChiKey>  (1) 
SZTDHZDMVLKTOM-QHCPKHFHSA-N

>  <InChi>  (1) 
InChI=1S/C25H34N4O7S/c1-3-36-24(32)16-27-25(33)17-4-7-20(8-5-17)29-12-10-19(11-13-29)26-15-23(31)18-6-9-22(30)21(14-18)28-37(2,34)35/h4-9,14,19,23,26,28,30-31H,3,10-13,15-16H2,1-2H3,(H,27,33)/t23-/m0/s1

>  <IUPAC Name>  (1) 
ethyl 2-[[4-[4-[[(2R)-2-hydroxy-2-[4-hydroxy-3-(methanesulfonamido)phenyl]ethyl]amino]piperidin-1-yl]benzoyl]amino]acetate

$$$$
