
     RDKit          3D

 66 67  0  0  0  0  0  0  0  0999 V2000
    9.8204    0.1117   -1.8298 O   0  0  0  0  0  0  0  0  0  0  0  0
    9.4121    0.1192   -0.4999 C   0  0  0  0  0  0  0  0  0  0  0  0
    8.0192    0.6757   -0.3453 C   0  0  0  0  0  0  0  0  0  0  0  0
    6.9329   -0.1412   -0.1153 C   0  0  0  0  0  0  0  0  0  0  0  0
    5.6399    0.3526    0.0341 C   0  0  0  0  0  0  0  0  0  0  0  0
    5.4360    1.6938   -0.0497 C   0  0  0  0  0  0  0  0  0  0  0  0
    6.5144    2.5553   -0.2827 C   0  0  0  0  0  0  0  0  0  0  0  0
    7.7923    2.0437   -0.4282 C   0  0  0  0  0  0  0  0  0  0  0  0
    8.8838    2.9000   -0.6625 O   0  0  0  0  0  0  0  0  0  0  0  0
    4.5792   -0.6581    0.2710 C   0  0  2  0  0  0  0  0  0  0  0  0
    3.3484   -0.0852    0.9339 C   0  0  0  0  0  0  0  0  0  0  0  0
    2.4640   -1.2124    1.2200 N   0  0  0  0  0  0  0  0  0  0  0  0
    1.8967   -1.8206    0.0635 C   0  0  0  0  0  0  0  0  0  0  0  0
    0.8760   -0.9746   -0.6603 C   0  0  0  0  0  0  0  0  0  0  0  0
   -0.3122   -0.6592    0.2263 C   0  0  0  0  0  0  0  0  0  0  0  0
   -1.2804    0.1695   -0.5487 C   0  0  0  0  0  0  0  0  0  0  0  0
   -2.5347    0.5422    0.2235 C   0  0  0  0  0  0  0  0  0  0  0  0
   -3.2943   -0.6667    0.6610 C   0  0  0  0  0  0  0  0  0  0  0  0
   -4.4510   -0.2969    1.3533 O   0  0  0  0  0  0  0  0  0  0  0  0
   -5.0286   -1.4576    1.8080 C   0  0  0  0  0  0  0  0  0  0  0  0
   -5.4632   -2.4546    0.7705 C   0  0  0  0  0  0  0  0  0  0  0  0
   -6.3460   -2.0913   -0.0606 O   0  0  0  0  0  0  0  0  0  0  0  0
   -6.7783   -1.3384   -0.9865 C   0  0  0  0  0  0  0  0  0  0  0  0
   -6.9209    0.1380   -0.7051 C   0  0  0  0  0  0  0  0  0  0  0  0
   -8.0917    0.5186   -0.0427 C   0  0  0  0  0  0  0  0  0  0  0  0
   -8.3049    1.8777    0.2241 C   0  0  0  0  0  0  0  0  0  0  0  0
   -7.3510    2.8259   -0.1735 C   0  0  0  0  0  0  0  0  0  0  0  0
   -6.1984    2.3859   -0.8338 C   0  0  0  0  0  0  0  0  0  0  0  0
   -5.9763    1.0535   -1.1020 C   0  0  0  0  0  0  0  0  0  0  0  0
   -5.2491    3.3224   -1.2312 O   0  0  0  0  0  0  0  0  0  0  0  0
    5.1402   -1.5631    1.2036 O   0  0  0  0  0  0  0  0  0  0  0  0
    9.6582   -0.8184   -2.1848 H   0  0  0  0  0  0  0  0  0  0  0  0
   10.0692    0.7545    0.1327 H   0  0  0  0  0  0  0  0  0  0  0  0
    9.3555   -0.9260   -0.1130 H   0  0  0  0  0  0  0  0  0  0  0  0
    7.1262   -1.1970   -0.0517 H   0  0  0  0  0  0  0  0  0  0  0  0
    4.4378    2.0856    0.0649 H   0  0  0  0  0  0  0  0  0  0  0  0
    6.3325    3.6222   -0.3463 H   0  0  0  0  0  0  0  0  0  0  0  0
    9.6342    2.8309    0.0424 H   0  0  0  0  0  0  0  0  0  0  0  0
    4.3020   -1.1450   -0.6724 H   0  0  0  0  0  0  0  0  0  0  0  0
    2.8985    0.6263    0.2088 H   0  0  0  0  0  0  0  0  0  0  0  0
    3.5691    0.3849    1.9137 H   0  0  0  0  0  0  0  0  0  0  0  0
    3.0673   -1.9358    1.6817 H   0  0  0  0  0  0  0  0  0  0  0  0
    2.6318   -2.2514   -0.6210 H   0  0  0  0  0  0  0  0  0  0  0  0
    1.3056   -2.7108    0.4444 H   0  0  0  0  0  0  0  0  0  0  0  0
    0.5128   -1.4763   -1.5662 H   0  0  0  0  0  0  0  0  0  0  0  0
    1.3684   -0.0288   -0.9614 H   0  0  0  0  0  0  0  0  0  0  0  0
    0.1058   -0.1047    1.1007 H   0  0  0  0  0  0  0  0  0  0  0  0
   -0.7578   -1.5825    0.6503 H   0  0  0  0  0  0  0  0  0  0  0  0
   -0.7840    1.1385   -0.7825 H   0  0  0  0  0  0  0  0  0  0  0  0
   -1.5714   -0.2718   -1.5018 H   0  0  0  0  0  0  0  0  0  0  0  0
   -3.1582    1.1584   -0.4346 H   0  0  0  0  0  0  0  0  0  0  0  0
   -2.2565    1.2061    1.0782 H   0  0  0  0  0  0  0  0  0  0  0  0
   -3.6828   -1.1691   -0.2721 H   0  0  0  0  0  0  0  0  0  0  0  0
   -2.6959   -1.3944    1.2300 H   0  0  0  0  0  0  0  0  0  0  0  0
   -5.9115   -1.2598    2.4695 H   0  0  0  0  0  0  0  0  0  0  0  0
   -4.2322   -1.9418    2.4624 H   0  0  0  0  0  0  0  0  0  0  0  0
   -4.4984   -2.9042    0.3290 H   0  0  0  0  0  0  0  0  0  0  0  0
   -5.8924   -3.3285    1.4234 H   0  0  0  0  0  0  0  0  0  0  0  0
   -7.7774   -1.6903   -1.4326 H   0  0  0  0  0  0  0  0  0  0  0  0
   -6.1166   -1.3560   -1.9349 H   0  0  0  0  0  0  0  0  0  0  0  0
   -8.8279   -0.2299    0.2616 H   0  0  0  0  0  0  0  0  0  0  0  0
   -9.2192    2.1845    0.7416 H   0  0  0  0  0  0  0  0  0  0  0  0
   -7.5073    3.8943    0.0291 H   0  0  0  0  0  0  0  0  0  0  0  0
   -5.1100    0.6657   -1.6153 H   0  0  0  0  0  0  0  0  0  0  0  0
   -4.7331    3.7548   -0.4476 H   0  0  0  0  0  0  0  0  0  0  0  0
    5.1831   -2.4499    0.7484 H   0  0  0  0  0  0  0  0  0  0  0  0
  1  2  1  0
  2  3  1  0
  3  4  2  0
  4  5  1  0
  5  6  2  0
  6  7  1  0
  7  8  2  0
  8  9  1  0
  5 10  1  0
 10 11  1  0
 11 12  1  0
 12 13  1  0
 13 14  1  0
 14 15  1  0
 15 16  1  0
 16 17  1  0
 17 18  1  0
 18 19  1  0
 19 20  1  0
 20 21  1  0
 21 22  1  0
 22 23  1  0
 23 24  1  0
 24 25  2  0
 25 26  1  0
 26 27  2  0
 27 28  1  0
 28 29  2  0
 28 30  1  0
 10 31  1  0
  8  3  1  0
 29 24  1  0
  1 32  1  0
  2 33  1  0
  2 34  1  0
  4 35  1  0
  6 36  1  0
  7 37  1  0
  9 38  1  0
 10 39  1  6
 11 40  1  0
 11 41  1  0
 12 42  1  0
 13 43  1  0
 13 44  1  0
 14 45  1  0
 14 46  1  0
 15 47  1  0
 15 48  1  0
 16 49  1  0
 16 50  1  0
 17 51  1  0
 17 52  1  0
 18 53  1  0
 18 54  1  0
 20 55  1  0
 20 56  1  0
 21 57  1  0
 21 58  1  0
 23 59  1  0
 23 60  1  0
 25 61  1  0
 26 62  1  0
 27 63  1  0
 29 64  1  0
 30 65  1  0
 31 66  1  0
M  END
>  <Ligand ID>  (1) 
LIG0002521

>  <Ligand>  (1) 
CHEMBL1086536

>  <SMILES>  (1) 
OCc1cc(ccc1O)[C@H](CNCCCCCCOCCOCc1cccc(c1)O)O

>  <CID>  (1) 
10203169.0

>  <ChEMBL ID>  (1) 
nan

>  <InChiKey>  (1) 
ZXQRIBVIRUROHJ-DEOSSOPVSA-N

>  <InChi>  (1) 
InChI=1S/C24H35NO6/c26-17-21-15-20(8-9-23(21)28)24(29)16-25-10-3-1-2-4-11-30-12-13-31-18-19-6-5-7-22(27)14-19/h5-9,14-15,24-29H,1-4,10-13,16-18H2/t24-/m0/s1

>  <IUPAC Name>  (1) 
4-[(1R)-1-hydroxy-2-[6-[2-[(3-hydroxyphenyl)methoxy]ethoxy]hexylamino]ethyl]-2-(hydroxymethyl)phenol

$$$$
