
     RDKit          3D

 57 60  0  0  0  0  0  0  0  0999 V2000
   -0.5527    1.5319    0.0408 O   0  0  0  0  0  0  0  0  0  0  0  0
   -0.6180    0.3194    0.4312 C   0  0  0  0  0  0  0  0  0  0  0  0
    0.5720   -0.4128    0.8634 C   0  0  0  0  0  0  0  0  0  0  0  0
    0.4909   -1.7224    1.2833 C   0  0  0  0  0  0  0  0  0  0  0  0
    1.6607   -2.3370    1.6743 C   0  0  0  0  0  0  0  0  0  0  0  0
    2.8781   -1.6478    1.6419 C   0  0  0  0  0  0  0  0  0  0  0  0
    2.9767   -0.3502    1.2268 C   0  0  0  0  0  0  0  0  0  0  0  0
    1.7751    0.2577    0.8339 C   0  0  0  0  0  0  0  0  0  0  0  0
    4.4235    0.5804    1.0836 S   0  0  0  0  0  0  0  0  0  0  0  0
    4.0532    2.0568    0.9250 O   0  0  0  0  0  0  0  0  0  0  0  0
    5.1972    0.5679    2.4127 O   0  0  0  0  0  0  0  0  0  0  0  0
    5.4845    0.1720   -0.1430 N   0  0  0  0  0  0  0  0  0  0  0  0
    6.1017   -1.0864   -0.2021 C   0  0  0  0  0  0  0  0  0  0  0  0
    7.2025   -0.9552   -1.2694 C   0  0  0  0  0  0  0  0  0  0  0  0
    7.5651    0.5209   -1.1967 C   0  0  0  0  0  0  0  0  0  0  0  0
    6.4750    1.1738   -0.3880 C   0  0  0  0  0  0  0  0  0  0  0  0
    4.4031   -2.5656    2.2654 Br  0  0  0  0  0  0  0  0  0  0  0  0
   -1.9180   -0.2571    0.4140 N   0  0  0  0  0  0  0  0  0  0  0  0
   -3.0617    0.5031   -0.0200 C   0  0  1  0  0  0  0  0  0  0  0  0
   -3.7652   -0.0851   -1.1970 C   0  0  2  0  0  0  0  0  0  0  0  0
   -2.9265   -0.9202   -2.0905 C   0  0  0  0  0  0  0  0  0  0  0  0
   -4.5779    0.9832   -1.8512 C   0  0  0  0  0  0  0  0  0  0  0  0
   -5.6022    1.3021   -0.7620 C   0  0  0  0  0  0  0  0  0  0  0  0
   -5.3790    0.2920    0.3288 C   0  0  2  0  0  0  0  0  0  0  0  0
   -4.1183    0.6532    1.0577 C   0  0  0  0  0  0  0  0  0  0  0  0
   -4.1535    2.0626    1.6097 C   0  0  0  0  0  0  0  0  0  0  0  0
   -3.9453   -0.2881    2.2039 C   0  0  0  0  0  0  0  0  0  0  0  0
   -4.8756   -0.8828   -0.5120 C   0  0  0  0  0  0  0  0  0  0  0  0
   -0.4338   -2.2635    1.3137 H   0  0  0  0  0  0  0  0  0  0  0  0
    1.6146   -3.3661    2.0072 H   0  0  0  0  0  0  0  0  0  0  0  0
    1.7933    1.3006    0.4921 H   0  0  0  0  0  0  0  0  0  0  0  0
    6.6662   -1.3344    0.7215 H   0  0  0  0  0  0  0  0  0  0  0  0
    5.4888   -1.9453   -0.4908 H   0  0  0  0  0  0  0  0  0  0  0  0
    6.8523   -1.2591   -2.2686 H   0  0  0  0  0  0  0  0  0  0  0  0
    8.0794   -1.5494   -1.0092 H   0  0  0  0  0  0  0  0  0  0  0  0
    8.5652    0.6446   -0.6897 H   0  0  0  0  0  0  0  0  0  0  0  0
    7.6928    0.9600   -2.2096 H   0  0  0  0  0  0  0  0  0  0  0  0
    6.1062    2.0744   -0.9111 H   0  0  0  0  0  0  0  0  0  0  0  0
    6.8717    1.5023    0.5997 H   0  0  0  0  0  0  0  0  0  0  0  0
   -2.0706   -1.2332    0.7124 H   0  0  0  0  0  0  0  0  0  0  0  0
   -2.7421    1.5199   -0.3051 H   0  0  0  0  0  0  0  0  0  0  0  0
   -3.5694   -1.2804   -2.9156 H   0  0  0  0  0  0  0  0  0  0  0  0
   -2.1377   -0.2930   -2.5047 H   0  0  0  0  0  0  0  0  0  0  0  0
   -2.5505   -1.7760   -1.5297 H   0  0  0  0  0  0  0  0  0  0  0  0
   -5.1322    0.5233   -2.6918 H   0  0  0  0  0  0  0  0  0  0  0  0
   -4.0002    1.8683   -2.1592 H   0  0  0  0  0  0  0  0  0  0  0  0
   -5.3958    2.3052   -0.3422 H   0  0  0  0  0  0  0  0  0  0  0  0
   -6.6342    1.2813   -1.1554 H   0  0  0  0  0  0  0  0  0  0  0  0
   -6.2349    0.0524    0.9354 H   0  0  0  0  0  0  0  0  0  0  0  0
   -5.1913    2.3304    1.9124 H   0  0  0  0  0  0  0  0  0  0  0  0
   -3.5319    2.0997    2.5285 H   0  0  0  0  0  0  0  0  0  0  0  0
   -3.8122    2.7983    0.8577 H   0  0  0  0  0  0  0  0  0  0  0  0
   -3.2177    0.1115    2.9674 H   0  0  0  0  0  0  0  0  0  0  0  0
   -3.7655   -1.3345    1.9487 H   0  0  0  0  0  0  0  0  0  0  0  0
   -4.9264   -0.2703    2.7623 H   0  0  0  0  0  0  0  0  0  0  0  0
   -5.6421   -1.2157   -1.2387 H   0  0  0  0  0  0  0  0  0  0  0  0
   -4.5073   -1.7177    0.0847 H   0  0  0  0  0  0  0  0  0  0  0  0
  1  2  2  0
  2  3  1  0
  3  4  2  0
  4  5  1  0
  5  6  2  0
  6  7  1  0
  7  8  2  0
  7  9  1  0
  9 10  2  0
  9 11  2  0
  9 12  1  0
 12 13  1  0
 13 14  1  0
 14 15  1  0
 15 16  1  0
  6 17  1  0
  2 18  1  0
 18 19  1  0
 19 20  1  0
 20 21  1  6
 20 22  1  0
 22 23  1  0
 23 24  1  0
 24 25  1  0
 25 26  1  0
 25 27  1  0
 24 28  1  0
  8  3  1  0
 16 12  1  0
 25 19  1  0
 28 20  1  0
  4 29  1  0
  5 30  1  0
  8 31  1  0
 13 32  1  0
 13 33  1  0
 14 34  1  0
 14 35  1  0
 15 36  1  0
 15 37  1  0
 16 38  1  0
 16 39  1  0
 18 40  1  0
 19 41  1  6
 21 42  1  0
 21 43  1  0
 21 44  1  0
 22 45  1  0
 22 46  1  0
 23 47  1  0
 23 48  1  0
 24 49  1  1
 26 50  1  0
 26 51  1  0
 26 52  1  0
 27 53  1  0
 27 54  1  0
 27 55  1  0
 28 56  1  0
 28 57  1  0
M  END
>  <Ligand ID>  (1) 
LIG0005146

>  <Ligand>  (1) 
CHEMBL256753

>  <SMILES>  (1) 
O=C(c1ccc(c(c1)S(=O)(=O)N1CCCC1)Br)N[C@H]1[C@]2(C)CC[C@H](C1(C)C)C2

>  <CID>  (1) 
44449157.0

>  <ChEMBL ID>  (1) 
nan

>  <InChiKey>  (1) 
DARUPYPUJIPCQB-NYSBEXSLSA-N

>  <InChi>  (1) 
InChI=1S/C21H29BrN2O3S/c1-20(2)15-8-9-21(3,13-15)19(20)23-18(25)14-6-7-16(22)17(12-14)28(26,27)24-10-4-5-11-24/h6-7,12,15,19H,4-5,8-11,13H2,1-3H3,(H,23,25)/t15-,19+,21+/m0/s1

>  <IUPAC Name>  (1) 
4-bromo-3-pyrrolidin-1-ylsulfonyl-N-[(1R,2S,4S)-1,3,3-trimethyl-2-bicyclo[2.2.1]heptanyl]benzamide

$$$$
