
     RDKit          3D

 27 26  0  0  0  0  0  0  0  0999 V2000
    3.2002    0.4643    0.4399 C   0  0  0  0  0  0  0  0  0  0  0  0
    2.3829   -0.7642    0.0989 C   0  0  0  0  0  0  0  0  0  0  0  0
    1.5823   -0.6218   -1.1411 C   0  0  0  0  0  0  0  0  0  0  0  0
    0.5815    0.4636   -1.1944 C   0  0  0  0  0  0  0  0  0  0  0  0
   -0.5131    0.4458   -0.1846 C   0  0  0  0  0  0  0  0  0  0  0  0
   -1.3585   -0.7901   -0.2413 C   0  0  0  0  0  0  0  0  0  0  0  0
   -2.4745   -0.7995    0.7803 C   0  0  0  0  0  0  0  0  0  0  0  0
   -3.4111    0.3741    0.5837 C   0  0  0  0  0  0  0  0  0  0  0  0
   -0.1485    0.6989    1.1066 O   0  0  0  0  0  0  0  0  0  0  0  0
    2.6319    1.2382    0.9917 H   0  0  0  0  0  0  0  0  0  0  0  0
    3.9903    0.1255    1.1446 H   0  0  0  0  0  0  0  0  0  0  0  0
    3.6686    0.8081   -0.4833 H   0  0  0  0  0  0  0  0  0  0  0  0
    3.1748   -1.5418   -0.1491 H   0  0  0  0  0  0  0  0  0  0  0  0
    1.8625   -1.2109    0.9675 H   0  0  0  0  0  0  0  0  0  0  0  0
    1.1870   -1.6242   -1.4078 H   0  0  0  0  0  0  0  0  0  0  0  0
    2.3250   -0.4053   -1.9657 H   0  0  0  0  0  0  0  0  0  0  0  0
    1.1063    1.4337   -1.2590 H   0  0  0  0  0  0  0  0  0  0  0  0
    0.0709    0.3703   -2.1995 H   0  0  0  0  0  0  0  0  0  0  0  0
   -1.2004    1.3017   -0.4804 H   0  0  0  0  0  0  0  0  0  0  0  0
   -0.7356   -1.7011   -0.0830 H   0  0  0  0  0  0  0  0  0  0  0  0
   -1.8186   -0.9428   -1.2463 H   0  0  0  0  0  0  0  0  0  0  0  0
   -3.0323   -1.7588    0.7566 H   0  0  0  0  0  0  0  0  0  0  0  0
   -2.0467   -0.7294    1.7897 H   0  0  0  0  0  0  0  0  0  0  0  0
   -2.9292    1.3100    0.9343 H   0  0  0  0  0  0  0  0  0  0  0  0
   -3.6973    0.3833   -0.4693 H   0  0  0  0  0  0  0  0  0  0  0  0
   -4.2585    0.1971    1.2878 H   0  0  0  0  0  0  0  0  0  0  0  0
   -0.1398   -0.1315    1.6229 H   0  0  0  0  0  0  0  0  0  0  0  0
  1  2  1  0
  2  3  1  0
  3  4  1  0
  4  5  1  0
  5  6  1  0
  6  7  1  0
  7  8  1  0
  5  9  1  0
  1 10  1  0
  1 11  1  0
  1 12  1  0
  2 13  1  0
  2 14  1  0
  3 15  1  0
  3 16  1  0
  4 17  1  0
  4 18  1  0
  5 19  1  0
  6 20  1  0
  6 21  1  0
  7 22  1  0
  7 23  1  0
  8 24  1  0
  8 25  1  0
  8 26  1  0
  9 27  1  0
M  END
>  <Ligand ID>  (1) 
LIG0005018

>  <Ligand>  (1) 
octan-4-ol

>  <SMILES>  (1) 
CCCCC(CCC)O

>  <CID>  (1) 
11515.0

>  <ChEMBL ID>  (1) 
nan

>  <InChiKey>  (1) 
WOFPPJOZXUTRAU-UHFFFAOYSA-N

>  <InChi>  (1) 
InChI=1S/C8H18O/c1-3-5-7-8(9)6-4-2/h8-9H,3-7H2,1-2H3

>  <IUPAC Name>  (1) 
octan-4-ol

$$$$
