
     RDKit          3D

 45 48  0  0  0  0  0  0  0  0999 V2000
    0.3296    1.2742   -0.1718 C   0  0  0  0  0  0  0  0  0  0  0  0
    0.7682   -0.1484   -0.0148 C   0  0  1  0  0  0  0  0  0  0  0  0
   -0.2580   -1.1239    0.4525 C   0  0  0  0  0  0  0  0  0  0  0  0
   -1.4017   -1.2339   -0.3839 N   0  0  0  0  0  0  0  0  0  0  0  0
   -1.4388   -2.0528   -1.4772 C   0  0  0  0  0  0  0  0  0  0  0  0
   -2.6386   -1.9614   -2.1303 C   0  0  0  0  0  0  0  0  0  0  0  0
   -3.3855   -1.0545   -1.4261 C   0  0  0  0  0  0  0  0  0  0  0  0
   -2.6056   -0.6272   -0.3659 C   0  0  0  0  0  0  0  0  0  0  0  0
   -3.1759    0.2876    0.4762 C   0  0  0  0  0  0  0  0  0  0  0  0
   -2.4900    0.7700    1.5579 C   0  0  0  0  0  0  0  0  0  0  0  0
   -3.0948    1.7039    2.4117 C   0  0  0  0  0  0  0  0  0  0  0  0
   -4.3717    2.1015    2.1206 C   0  0  0  0  0  0  0  0  0  0  0  0
   -5.0658    1.6442    1.0667 N   0  0  0  0  0  0  0  0  0  0  0  0
   -4.4584    0.7367    0.2499 C   0  0  0  0  0  0  0  0  0  0  0  0
   -5.2356    0.3056   -0.8149 C   0  0  0  0  0  0  0  0  0  0  0  0
   -4.6658   -0.6134   -1.6626 C   0  0  0  0  0  0  0  0  0  0  0  0
    1.5132   -0.6262   -1.1640 N   0  0  0  0  0  0  0  0  0  0  0  0
    2.7204    0.0620   -1.4421 C   0  0  0  0  0  0  0  0  0  0  0  0
    3.7212    0.0395   -0.3530 C   0  0  0  0  0  0  0  0  0  0  0  0
    4.6690   -0.9526   -0.2517 C   0  0  0  0  0  0  0  0  0  0  0  0
    5.6109   -0.9917    0.7549 C   0  0  0  0  0  0  0  0  0  0  0  0
    5.6463   -0.0155    1.7283 C   0  0  0  0  0  0  0  0  0  0  0  0
    4.7011    0.9994    1.6516 C   0  0  0  0  0  0  0  0  0  0  0  0
    3.7665    1.0241    0.6392 C   0  0  0  0  0  0  0  0  0  0  0  0
    0.2656    1.7606    0.8274 H   0  0  0  0  0  0  0  0  0  0  0  0
    1.0834    1.8413   -0.7377 H   0  0  0  0  0  0  0  0  0  0  0  0
   -0.6903    1.3624   -0.6202 H   0  0  0  0  0  0  0  0  0  0  0  0
    1.5544   -0.1106    0.8075 H   0  0  0  0  0  0  0  0  0  0  0  0
    0.2932   -2.1493    0.2966 H   0  0  0  0  0  0  0  0  0  0  0  0
   -0.3601   -1.1605    1.5259 H   0  0  0  0  0  0  0  0  0  0  0  0
   -0.6440   -2.7172   -1.8354 H   0  0  0  0  0  0  0  0  0  0  0  0
   -2.9387   -2.4954   -3.0212 H   0  0  0  0  0  0  0  0  0  0  0  0
   -1.4951    0.5060    1.8334 H   0  0  0  0  0  0  0  0  0  0  0  0
   -2.5810    2.1020    3.2713 H   0  0  0  0  0  0  0  0  0  0  0  0
   -4.8279    2.8214    2.7852 H   0  0  0  0  0  0  0  0  0  0  0  0
   -6.2389    0.6618   -0.9863 H   0  0  0  0  0  0  0  0  0  0  0  0
   -5.2226   -0.9735   -2.4930 H   0  0  0  0  0  0  0  0  0  0  0  0
    1.6335   -1.6422   -1.1626 H   0  0  0  0  0  0  0  0  0  0  0  0
    3.2164   -0.4975   -2.2934 H   0  0  0  0  0  0  0  0  0  0  0  0
    2.6138    1.0808   -1.8118 H   0  0  0  0  0  0  0  0  0  0  0  0
    4.6776   -1.7383   -0.9939 H   0  0  0  0  0  0  0  0  0  0  0  0
    6.3532   -1.7826    0.8210 H   0  0  0  0  0  0  0  0  0  0  0  0
    6.3678   -0.0208    2.5230 H   0  0  0  0  0  0  0  0  0  0  0  0
    4.7239    1.7663    2.4107 H   0  0  0  0  0  0  0  0  0  0  0  0
    3.0555    1.8381    0.6292 H   0  0  0  0  0  0  0  0  0  0  0  0
  1  2  1  0
  2  3  1  0
  3  4  1  0
  4  5  1  0
  5  6  2  0
  6  7  1  0
  7  8  2  0
  8  9  1  0
  9 10  2  0
 10 11  1  0
 11 12  2  0
 12 13  1  0
 13 14  2  0
 14 15  1  0
 15 16  2  0
  2 17  1  0
 17 18  1  0
 18 19  1  0
 19 20  2  0
 20 21  1  0
 21 22  2  0
 22 23  1  0
 23 24  2  0
  8  4  1  0
 14  9  1  0
 24 19  1  0
 16  7  1  0
  1 25  1  0
  1 26  1  0
  1 27  1  0
  2 28  1  1
  3 29  1  0
  3 30  1  0
  5 31  1  0
  6 32  1  0
 10 33  1  0
 11 34  1  0
 12 35  1  0
 15 36  1  0
 16 37  1  0
 17 38  1  0
 18 39  1  0
 18 40  1  0
 20 41  1  0
 21 42  1  0
 22 43  1  0
 23 44  1  0
 24 45  1  0
M  END
>  <Ligand ID>  (1) 
LIG0002145

>  <Ligand>  (1) 
CHEMBL380763

>  <SMILES>  (1) 
C[C@@H](Cn1ccc2c1c1cccnc1cc2)NCc1ccccc1

>  <CID>  (1) 
44407460.0

>  <ChEMBL ID>  (1) 
nan

>  <InChiKey>  (1) 
OCWOUQYVSKKXRS-INIZCTEOSA-N

>  <InChi>  (1) 
InChI=1S/C21H21N3/c1-16(23-14-17-6-3-2-4-7-17)15-24-13-11-18-9-10-20-19(21(18)24)8-5-12-22-20/h2-13,16,23H,14-15H2,1H3/t16-/m0/s1

>  <IUPAC Name>  (1) 
(2S)-N-benzyl-1-pyrrolo[2,3-f]quinolin-1-ylpropan-2-amine

$$$$
