
     RDKit          3D

 29 28  0  0  0  0  0  0  0  0999 V2000
   -4.6305    0.0681   -0.1228 C   0  0  0  0  0  0  0  0  0  0  0  0
   -3.1920   -0.3929    0.1050 C   0  0  0  0  0  0  0  0  0  0  0  0
   -2.3535    0.8082    0.4048 C   0  0  0  0  0  0  0  0  0  0  0  0
   -0.8970    0.4937    0.6529 C   0  0  0  0  0  0  0  0  0  0  0  0
   -0.2256   -0.1701   -0.5215 C   0  0  0  0  0  0  0  0  0  0  0  0
    1.2242   -0.4516   -0.1967 C   0  0  0  0  0  0  0  0  0  0  0  0
    2.0041    0.7810    0.1222 C   0  0  0  0  0  0  0  0  0  0  0  0
    3.4259    0.4010    0.4294 C   0  0  0  0  0  0  0  0  0  0  0  0
    4.1155   -0.2423   -0.7057 C   0  0  0  0  0  0  0  0  0  0  0  0
    3.6687   -0.4392   -1.8359 O   0  0  0  0  0  0  0  0  0  0  0  0
    5.4340   -0.6778   -0.4604 O   0  0  0  0  0  0  0  0  0  0  0  0
   -5.1720   -0.6508   -0.7443 H   0  0  0  0  0  0  0  0  0  0  0  0
   -4.6406    1.0883   -0.5218 H   0  0  0  0  0  0  0  0  0  0  0  0
   -5.0814    0.1616    0.9083 H   0  0  0  0  0  0  0  0  0  0  0  0
   -2.8191   -0.8920   -0.8138 H   0  0  0  0  0  0  0  0  0  0  0  0
   -3.1118   -1.0972    0.9307 H   0  0  0  0  0  0  0  0  0  0  0  0
   -2.3754    1.5655   -0.4068 H   0  0  0  0  0  0  0  0  0  0  0  0
   -2.7238    1.2584    1.3508 H   0  0  0  0  0  0  0  0  0  0  0  0
   -0.8102   -0.1123    1.5568 H   0  0  0  0  0  0  0  0  0  0  0  0
   -0.3994    1.4609    0.8210 H   0  0  0  0  0  0  0  0  0  0  0  0
   -0.3616    0.3999   -1.4569 H   0  0  0  0  0  0  0  0  0  0  0  0
   -0.7046   -1.1703   -0.6489 H   0  0  0  0  0  0  0  0  0  0  0  0
    1.6742   -1.0623   -0.9639 H   0  0  0  0  0  0  0  0  0  0  0  0
    1.2045   -1.0904    0.7325 H   0  0  0  0  0  0  0  0  0  0  0  0
    1.9572    1.5370   -0.7158 H   0  0  0  0  0  0  0  0  0  0  0  0
    1.6166    1.2719    1.0578 H   0  0  0  0  0  0  0  0  0  0  0  0
    4.0129    1.2460    0.8478 H   0  0  0  0  0  0  0  0  0  0  0  0
    3.3444   -0.4133    1.2120 H   0  0  0  0  0  0  0  0  0  0  0  0
    5.8163   -1.4499   -1.0167 H   0  0  0  0  0  0  0  0  0  0  0  0
  1  2  1  0
  2  3  1  0
  3  4  1  0
  4  5  1  0
  5  6  1  0
  6  7  1  0
  7  8  1  0
  8  9  1  0
  9 10  2  0
  9 11  1  0
  1 12  1  0
  1 13  1  0
  1 14  1  0
  2 15  1  0
  2 16  1  0
  3 17  1  0
  3 18  1  0
  4 19  1  0
  4 20  1  0
  5 21  1  0
  5 22  1  0
  6 23  1  0
  6 24  1  0
  7 25  1  0
  7 26  1  0
  8 27  1  0
  8 28  1  0
 11 29  1  0
M  END
>  <Ligand ID>  (1) 
LIG0000069

>  <Ligand>  (1) 
nonanoic acid

>  <SMILES>  (1) 
CCCCCCCCC(=O)O

>  <CID>  (1) 
8158.0

>  <ChEMBL ID>  (1) 
nan

>  <InChiKey>  (1) 
FBUKVWPVBMHYJY-UHFFFAOYSA-N

>  <InChi>  (1) 
InChI=1S/C9H18O2/c1-2-3-4-5-6-7-8-9(10)11/h2-8H2,1H3,(H,10,11)

>  <IUPAC Name>  (1) 
nonanoic acid

$$$$
