
     RDKit          3D

 43 45  0  0  0  0  0  0  0  0999 V2000
   -6.6843    1.6832   -1.1530 C   0  0  0  0  0  0  0  0  0  0  0  0
   -6.7041    0.6415   -0.0536 C   0  0  0  0  0  0  0  0  0  0  0  0
   -5.3533    0.1604    0.2827 C   0  0  0  0  0  0  0  0  0  0  0  0
   -4.8670   -0.9444   -0.4183 C   0  0  0  0  0  0  0  0  0  0  0  0
   -3.6044   -1.4193   -0.1263 C   0  0  0  0  0  0  0  0  0  0  0  0
   -2.8095   -0.8338    0.8380 C   0  0  0  0  0  0  0  0  0  0  0  0
   -3.2775    0.2585    1.5382 C   0  0  0  0  0  0  0  0  0  0  0  0
   -4.5535    0.7344    1.2395 C   0  0  0  0  0  0  0  0  0  0  0  0
   -1.5259   -1.4072    1.0550 N   0  0  0  0  0  0  0  0  0  0  0  0
   -0.3570   -1.0169    0.3714 C   0  0  0  0  0  0  0  0  0  0  0  0
   -0.2883   -0.1323   -0.5010 O   0  0  0  0  0  0  0  0  0  0  0  0
    0.8554   -1.7098    0.7225 N   0  0  0  0  0  0  0  0  0  0  0  0
    2.1009   -1.4105    0.1065 C   0  0  0  0  0  0  0  0  0  0  0  0
    2.5396   -2.0472   -1.0391 C   0  0  0  0  0  0  0  0  0  0  0  0
    3.7633   -1.6831   -1.5566 C   0  0  0  0  0  0  0  0  0  0  0  0
    4.5599   -0.7298   -0.9970 C   0  0  0  0  0  0  0  0  0  0  0  0
    4.1417   -0.0940    0.1313 C   0  0  0  0  0  0  0  0  0  0  0  0
    2.9144   -0.4444    0.6688 C   0  0  0  0  0  0  0  0  0  0  0  0
    4.9388    0.8994    0.7409 N   0  0  0  0  0  0  0  0  0  0  0  0
    4.3941    1.5234    1.9550 C   0  0  0  0  0  0  0  0  0  0  0  0
    6.1970    1.3280    0.2770 C   0  0  0  0  0  0  0  0  0  0  0  0
    6.9729    1.8507    1.1486 O   0  0  0  0  0  0  0  0  0  0  0  0
    6.6828    1.2256   -1.1029 C   0  0  0  0  0  0  0  0  0  0  0  0
    6.1211   -0.3698   -1.7881 S   0  0  0  0  0  0  0  0  0  0  0  0
   -5.9069    1.3870   -1.8870 H   0  0  0  0  0  0  0  0  0  0  0  0
   -7.6946    1.7489   -1.6225 H   0  0  0  0  0  0  0  0  0  0  0  0
   -6.4618    2.6604   -0.6917 H   0  0  0  0  0  0  0  0  0  0  0  0
   -7.1659    1.0834    0.8550 H   0  0  0  0  0  0  0  0  0  0  0  0
   -7.3101   -0.2090   -0.3814 H   0  0  0  0  0  0  0  0  0  0  0  0
   -5.4716   -1.4090   -1.1687 H   0  0  0  0  0  0  0  0  0  0  0  0
   -3.2601   -2.2812   -0.6928 H   0  0  0  0  0  0  0  0  0  0  0  0
   -2.6579    0.7160    2.2908 H   0  0  0  0  0  0  0  0  0  0  0  0
   -4.9575    1.5985    1.7744 H   0  0  0  0  0  0  0  0  0  0  0  0
   -1.4921   -2.1748    1.7875 H   0  0  0  0  0  0  0  0  0  0  0  0
    0.8651   -2.4639    1.4483 H   0  0  0  0  0  0  0  0  0  0  0  0
    1.9046   -2.8044   -1.4819 H   0  0  0  0  0  0  0  0  0  0  0  0
    4.0775   -2.2100   -2.4659 H   0  0  0  0  0  0  0  0  0  0  0  0
    2.5655    0.0463    1.5604 H   0  0  0  0  0  0  0  0  0  0  0  0
    4.1076    0.7359    2.7081 H   0  0  0  0  0  0  0  0  0  0  0  0
    5.0993    2.2327    2.4073 H   0  0  0  0  0  0  0  0  0  0  0  0
    3.4925    2.0825    1.6286 H   0  0  0  0  0  0  0  0  0  0  0  0
    7.7866    1.1654   -1.0966 H   0  0  0  0  0  0  0  0  0  0  0  0
    6.3226    2.0321   -1.7809 H   0  0  0  0  0  0  0  0  0  0  0  0
  1  2  1  0
  2  3  1  0
  3  4  2  0
  4  5  1  0
  5  6  2  0
  6  7  1  0
  7  8  2  0
  6  9  1  0
  9 10  1  0
 10 11  2  0
 10 12  1  0
 12 13  1  0
 13 14  2  0
 14 15  1  0
 15 16  2  0
 16 17  1  0
 17 18  2  0
 17 19  1  0
 19 20  1  0
 19 21  1  0
 21 22  2  0
 21 23  1  0
 23 24  1  0
  8  3  1  0
 18 13  1  0
 24 16  1  0
  1 25  1  0
  1 26  1  0
  1 27  1  0
  2 28  1  0
  2 29  1  0
  4 30  1  0
  5 31  1  0
  7 32  1  0
  8 33  1  0
  9 34  1  0
 12 35  1  0
 14 36  1  0
 15 37  1  0
 18 38  1  0
 20 39  1  0
 20 40  1  0
 20 41  1  0
 23 42  1  0
 23 43  1  0
M  END
>  <Ligand ID>  (1) 
LIG0004113

>  <Ligand>  (1) 
MLS000522702

>  <SMILES>  (1) 
CCc1ccc(cc1)NC(=O)Nc1ccc2c(c1)N(C)C(=O)CS2

>  <CID>  (1) 
9551332.0

>  <ChEMBL ID>  (1) 
nan

>  <InChiKey>  (1) 
OZHGRZAHCQCAIX-UHFFFAOYSA-N

>  <InChi>  (1) 
InChI=1S/C18H19N3O2S/c1-3-12-4-6-13(7-5-12)19-18(23)20-14-8-9-16-15(10-14)21(2)17(22)11-24-16/h4-10H,3,11H2,1-2H3,(H2,19,20,23)

>  <IUPAC Name>  (1) 
1-(4-ethylphenyl)-3-(4-methyl-3-oxo-1,4-benzothiazin-6-yl)urea

$$$$
