
     RDKit          3D

129133  0  0  0  0  0  0  0  0999 V2000
   -2.5716    3.3540    1.3543 C   0  0  0  0  0  0  0  0  0  0  0  0
   -1.5302    2.8767    2.3143 C   0  0  0  0  0  0  0  0  0  0  0  0
   -1.0362    1.4959    2.1013 C   0  0  0  0  0  0  0  0  0  0  0  0
   -0.3922    1.1444    0.8385 C   0  0  1  0  0  0  0  0  0  0  0  0
   -1.2073    1.2912   -0.4134 C   0  0  0  0  0  0  0  0  0  0  0  0
   -0.7355    1.7873   -1.4625 O   0  0  0  0  0  0  0  0  0  0  0  0
   -2.6005    0.8378   -0.4225 N   0  0  0  0  0  0  0  0  0  0  0  0
   -3.2532    1.0116   -1.6797 C   0  0  0  0  0  0  0  0  0  0  0  0
   -4.6008    0.5996   -1.8367 C   0  0  0  0  0  0  0  0  0  0  0  0
   -5.1103    0.8532   -3.0410 O   0  0  0  0  0  0  0  0  0  0  0  0
   -5.5835   -0.0263   -1.0344 N   0  0  0  0  0  0  0  0  0  0  0  0
   -6.9085    0.0601   -1.6441 C   0  0  0  0  0  0  0  0  0  0  0  0
   -7.2605   -0.9114   -2.5878 C   0  0  0  0  0  0  0  0  0  0  0  0
   -8.4844   -0.9012   -3.2214 C   0  0  0  0  0  0  0  0  0  0  0  0
   -9.3515    0.1106   -2.8851 C   0  0  0  0  0  0  0  0  0  0  0  0
   -9.0480    1.1008   -1.9515 C   0  0  0  0  0  0  0  0  0  0  0  0
   -7.8007    1.0419   -1.3455 C   0  0  0  0  0  0  0  0  0  0  0  0
   -5.4713   -0.7953    0.1463 C   0  0  0  0  0  0  0  0  0  0  0  0
   -5.7153    0.0461    1.4013 C   0  0  0  0  0  0  0  0  0  0  0  0
   -7.0851    0.0851    1.9460 C   0  0  0  0  0  0  0  0  0  0  0  0
   -7.8214   -1.1076    1.6322 N   0  0  0  0  0  0  0  0  0  0  0  0
   -6.9033   -2.2302    1.5875 C   0  0  0  0  0  0  0  0  0  0  0  0
   -6.1780   -2.0941    0.2425 C   0  0  0  0  0  0  0  0  0  0  0  0
   -8.9359   -1.2947    2.5334 C   0  0  0  0  0  0  0  0  0  0  0  0
   -9.8017   -2.4633    2.2745 C   0  0  0  0  0  0  0  0  0  0  0  0
  -10.4687   -2.4221    0.9461 C   0  0  0  0  0  0  0  0  0  0  0  0
   -9.9060   -3.0029   -0.1769 C   0  0  0  0  0  0  0  0  0  0  0  0
  -10.5745   -2.9401   -1.4052 C   0  0  0  0  0  0  0  0  0  0  0  0
  -11.8152   -2.2911   -1.4942 C   0  0  0  0  0  0  0  0  0  0  0  0
  -12.3813   -1.7112   -0.3767 C   0  0  0  0  0  0  0  0  0  0  0  0
  -11.7115   -1.7755    0.8371 C   0  0  0  0  0  0  0  0  0  0  0  0
    0.9346    1.7179    0.6155 N   0  0  0  0  0  0  0  0  0  0  0  0
    1.9838    0.9963   -0.0067 C   0  0  0  0  0  0  0  0  0  0  0  0
    1.6644   -0.1973   -0.3538 O   0  0  0  0  0  0  0  0  0  0  0  0
    3.3218    1.4534   -0.2787 C   0  0  2  0  0  0  0  0  0  0  0  0
    3.6873    2.8093   -0.6553 C   0  0  0  0  0  0  0  0  0  0  0  0
    3.4224    3.9461    0.2359 C   0  0  0  0  0  0  0  0  0  0  0  0
    2.4152    4.8667    0.0758 C   0  0  0  0  0  0  0  0  0  0  0  0
    2.3206    5.8987    0.9851 C   0  0  0  0  0  0  0  0  0  0  0  0
    3.1596    6.0763    2.0468 C   0  0  0  0  0  0  0  0  0  0  0  0
    4.1794    5.1419    2.2103 C   0  0  0  0  0  0  0  0  0  0  0  0
    4.3271    4.0731    1.3171 C   0  0  0  0  0  0  0  0  0  0  0  0
    4.0560    0.4720   -1.1311 N   0  0  0  0  0  0  0  0  0  0  0  0
    3.5282    0.0255   -2.3543 C   0  0  0  0  0  0  0  0  0  0  0  0
    2.3785    0.4784   -2.7178 O   0  0  0  0  0  0  0  0  0  0  0  0
    4.1598   -0.9188   -3.2926 C   0  0  0  0  0  0  0  0  0  0  0  0
    5.4113   -1.4158   -2.8095 N   0  0  0  0  0  0  0  0  0  0  0  0
    5.5519   -2.2214   -1.6589 C   0  0  0  0  0  0  0  0  0  0  0  0
    4.4981   -2.5218   -1.0287 O   0  0  0  0  0  0  0  0  0  0  0  0
    6.8332   -2.7462   -1.1401 C   0  0  2  0  0  0  0  0  0  0  0  0
    8.0018   -2.1216   -1.7629 N   0  0  0  0  0  0  0  0  0  0  0  0
    9.0682   -1.7174   -0.8314 C   0  0  0  0  0  0  0  0  0  0  0  0
    8.9053   -1.9306    0.4053 O   0  0  0  0  0  0  0  0  0  0  0  0
   10.2409   -1.0819   -1.4337 C   0  0  2  0  0  0  0  0  0  0  0  0
   11.5386   -1.8396   -1.1841 C   0  0  0  0  0  0  0  0  0  0  0  0
   11.8100   -1.9408    0.2651 C   0  0  0  0  0  0  0  0  0  0  0  0
   11.4451   -3.0871    0.9887 C   0  0  0  0  0  0  0  0  0  0  0  0
   11.7117   -3.1664    2.3287 C   0  0  0  0  0  0  0  0  0  0  0  0
   12.3370   -2.1169    2.9546 C   0  0  0  0  0  0  0  0  0  0  0  0
   12.7128   -0.9670    2.2795 C   0  0  0  0  0  0  0  0  0  0  0  0
   12.4435   -0.8820    0.9182 C   0  0  0  0  0  0  0  0  0  0  0  0
   12.5967   -2.2317    4.3140 O   0  0  0  0  0  0  0  0  0  0  0  0
   10.4548    0.1912   -0.7100 N   0  0  0  0  0  0  0  0  0  0  0  0
    6.8171   -4.2406   -1.5680 C   0  0  0  0  0  0  0  0  0  0  0  0
   -0.4749    3.9290    2.5032 C   0  0  0  0  0  0  0  0  0  0  0  0
   -2.9195    4.3601    1.7343 H   0  0  0  0  0  0  0  0  0  0  0  0
   -3.4794    2.7117    1.4532 H   0  0  0  0  0  0  0  0  0  0  0  0
   -2.2396    3.5425    0.3346 H   0  0  0  0  0  0  0  0  0  0  0  0
   -2.0687    2.8412    3.3228 H   0  0  0  0  0  0  0  0  0  0  0  0
   -1.9013    0.7706    2.2593 H   0  0  0  0  0  0  0  0  0  0  0  0
   -0.3432    1.2415    2.9554 H   0  0  0  0  0  0  0  0  0  0  0  0
   -0.1911    0.0177    0.8444 H   0  0  0  0  0  0  0  0  0  0  0  0
   -2.9132    0.4782    0.4663 H   0  0  0  0  0  0  0  0  0  0  0  0
   -3.0785    2.0904   -2.0272 H   0  0  0  0  0  0  0  0  0  0  0  0
   -2.5952    0.4411   -2.4200 H   0  0  0  0  0  0  0  0  0  0  0  0
   -6.5484   -1.7103   -2.8571 H   0  0  0  0  0  0  0  0  0  0  0  0
   -8.6893   -1.6777   -3.9366 H   0  0  0  0  0  0  0  0  0  0  0  0
  -10.3331    0.1599   -3.3406 H   0  0  0  0  0  0  0  0  0  0  0  0
   -9.7787    1.8502   -1.7406 H   0  0  0  0  0  0  0  0  0  0  0  0
   -7.5275    1.8031   -0.6303 H   0  0  0  0  0  0  0  0  0  0  0  0
   -4.3494   -1.0037    0.2578 H   0  0  0  0  0  0  0  0  0  0  0  0
   -5.0689   -0.4073    2.2123 H   0  0  0  0  0  0  0  0  0  0  0  0
   -5.2562    1.0572    1.2448 H   0  0  0  0  0  0  0  0  0  0  0  0
   -7.0941    0.1224    3.0822 H   0  0  0  0  0  0  0  0  0  0  0  0
   -7.6704    0.9409    1.5444 H   0  0  0  0  0  0  0  0  0  0  0  0
   -6.1002   -2.1813    2.3473 H   0  0  0  0  0  0  0  0  0  0  0  0
   -7.4397   -3.1851    1.5794 H   0  0  0  0  0  0  0  0  0  0  0  0
   -6.8856   -2.2106   -0.5878 H   0  0  0  0  0  0  0  0  0  0  0  0
   -5.4268   -2.9238    0.0946 H   0  0  0  0  0  0  0  0  0  0  0  0
   -9.5581   -0.3795    2.5025 H   0  0  0  0  0  0  0  0  0  0  0  0
   -8.5078   -1.3171    3.5708 H   0  0  0  0  0  0  0  0  0  0  0  0
   -9.3308   -3.4526    2.3571 H   0  0  0  0  0  0  0  0  0  0  0  0
  -10.6231   -2.4420    3.0411 H   0  0  0  0  0  0  0  0  0  0  0  0
   -8.9747   -3.5156   -0.1821 H   0  0  0  0  0  0  0  0  0  0  0  0
  -10.0976   -3.4022   -2.2601 H   0  0  0  0  0  0  0  0  0  0  0  0
  -12.3101   -2.2547   -2.4524 H   0  0  0  0  0  0  0  0  0  0  0  0
  -13.3342   -1.2021   -0.3961 H   0  0  0  0  0  0  0  0  0  0  0  0
  -12.1653   -1.3097    1.7337 H   0  0  0  0  0  0  0  0  0  0  0  0
    1.1049    2.6752    0.9321 H   0  0  0  0  0  0  0  0  0  0  0  0
    3.8606    1.2660    0.7395 H   0  0  0  0  0  0  0  0  0  0  0  0
    4.8237    2.8056   -0.8151 H   0  0  0  0  0  0  0  0  0  0  0  0
    3.3043    3.1327   -1.6647 H   0  0  0  0  0  0  0  0  0  0  0  0
    1.7139    4.7570   -0.7583 H   0  0  0  0  0  0  0  0  0  0  0  0
    1.5060    6.6153    0.8265 H   0  0  0  0  0  0  0  0  0  0  0  0
    3.0583    6.9109    2.7617 H   0  0  0  0  0  0  0  0  0  0  0  0
    4.8431    5.2722    3.0593 H   0  0  0  0  0  0  0  0  0  0  0  0
    5.0986    3.3526    1.4390 H   0  0  0  0  0  0  0  0  0  0  0  0
    4.9817    0.1010   -0.8446 H   0  0  0  0  0  0  0  0  0  0  0  0
    4.3914   -0.2965   -4.2202 H   0  0  0  0  0  0  0  0  0  0  0  0
    3.4682   -1.7415   -3.6096 H   0  0  0  0  0  0  0  0  0  0  0  0
    6.3107   -1.1873   -3.3230 H   0  0  0  0  0  0  0  0  0  0  0  0
    6.9607   -2.7601   -0.0667 H   0  0  0  0  0  0  0  0  0  0  0  0
    8.1057   -1.9521   -2.7709 H   0  0  0  0  0  0  0  0  0  0  0  0
   10.1283   -0.8399   -2.4942 H   0  0  0  0  0  0  0  0  0  0  0  0
   11.4678   -2.8425   -1.6082 H   0  0  0  0  0  0  0  0  0  0  0  0
   12.3913   -1.2712   -1.6647 H   0  0  0  0  0  0  0  0  0  0  0  0
   10.9658   -3.9080    0.5095 H   0  0  0  0  0  0  0  0  0  0  0  0
   11.4360   -4.0619    2.8750 H   0  0  0  0  0  0  0  0  0  0  0  0
   13.2097   -0.1630    2.8263 H   0  0  0  0  0  0  0  0  0  0  0  0
   12.7335    0.0269    0.3973 H   0  0  0  0  0  0  0  0  0  0  0  0
   13.4573   -2.7459    4.5328 H   0  0  0  0  0  0  0  0  0  0  0  0
    9.5402    0.7145   -0.6390 H   0  0  0  0  0  0  0  0  0  0  0  0
   11.1150    0.7538   -1.2984 H   0  0  0  0  0  0  0  0  0  0  0  0
    7.6559   -4.7678   -1.1055 H   0  0  0  0  0  0  0  0  0  0  0  0
    5.8361   -4.5925   -1.1983 H   0  0  0  0  0  0  0  0  0  0  0  0
    6.8366   -4.2973   -2.6799 H   0  0  0  0  0  0  0  0  0  0  0  0
   -0.8478    4.7391    3.2160 H   0  0  0  0  0  0  0  0  0  0  0  0
   -0.2557    4.4885    1.5834 H   0  0  0  0  0  0  0  0  0  0  0  0
    0.4006    3.5024    3.0285 H   0  0  0  0  0  0  0  0  0  0  0  0
  1  2  1  0
  2  3  1  0
  3  4  1  0
  4  5  1  0
  5  6  2  0
  5  7  1  0
  7  8  1  0
  8  9  1  0
  9 10  2  0
  9 11  1  0
 11 12  1  0
 12 13  2  0
 13 14  1  0
 14 15  2  0
 15 16  1  0
 16 17  2  0
 11 18  1  0
 18 19  1  0
 19 20  1  0
 20 21  1  0
 21 22  1  0
 22 23  1  0
 21 24  1  0
 24 25  1  0
 25 26  1  0
 26 27  2  0
 27 28  1  0
 28 29  2  0
 29 30  1  0
 30 31  2  0
  4 32  1  0
 32 33  1  0
 33 34  2  0
 33 35  1  0
 35 36  1  0
 36 37  1  0
 37 38  2  0
 38 39  1  0
 39 40  2  0
 40 41  1  0
 41 42  2  0
 35 43  1  0
 43 44  1  0
 44 45  2  0
 44 46  1  0
 46 47  1  0
 47 48  1  0
 48 49  2  0
 48 50  1  0
 50 51  1  0
 51 52  1  0
 52 53  2  0
 52 54  1  0
 54 55  1  0
 55 56  1  0
 56 57  2  0
 57 58  1  0
 58 59  2  0
 59 60  1  0
 60 61  2  0
 59 62  1  0
 54 63  1  0
 50 64  1  0
  2 65  1  0
 17 12  1  0
 23 18  1  0
 31 26  1  0
 42 37  1  0
 61 56  1  0
  1 66  1  0
  1 67  1  0
  1 68  1  0
  2 69  1  0
  3 70  1  0
  3 71  1  0
  4 72  1  1
  7 73  1  0
  8 74  1  0
  8 75  1  0
 13 76  1  0
 14 77  1  0
 15 78  1  0
 16 79  1  0
 17 80  1  0
 18 81  1  0
 19 82  1  0
 19 83  1  0
 20 84  1  0
 20 85  1  0
 22 86  1  0
 22 87  1  0
 23 88  1  0
 23 89  1  0
 24 90  1  0
 24 91  1  0
 25 92  1  0
 25 93  1  0
 27 94  1  0
 28 95  1  0
 29 96  1  0
 30 97  1  0
 31 98  1  0
 32 99  1  0
 35100  1  1
 36101  1  0
 36102  1  0
 38103  1  0
 39104  1  0
 40105  1  0
 41106  1  0
 42107  1  0
 43108  1  0
 46109  1  0
 46110  1  0
 47111  1  0
 50112  1  1
 51113  1  0
 54114  1  6
 55115  1  0
 55116  1  0
 57117  1  0
 58118  1  0
 60119  1  0
 61120  1  0
 62121  1  0
 63122  1  0
 63123  1  0
 64124  1  0
 64125  1  0
 64126  1  0
 65127  1  0
 65128  1  0
 65129  1  0
M  END
>  <Ligand ID>  (1) 
LIG0005374

>  <Ligand>  (1) 
CHEMBL2387341

>  <SMILES>  (1) 
CC(C[C@@H](C(=O)NCC(=O)N(c1ccccc1)C1CCN(CC1)CCc1ccccc1)NC(=O)[C@H](Cc1ccccc1)NC(=O)CNC(=O)[C@H](NC(=O)[C@H](Cc1ccc(cc1)O)N)C)C

>  <CID>  (1) 
71625601.0

>  <ChEMBL ID>  (1) 
nan

>  <InChiKey>  (1) 
FSWZYRBMNOBTEJ-HIUUOTSJSA-N

>  <InChi>  (1) 
InChI=1S/C50H64N8O7/c1-34(2)29-43(49(64)53-33-46(61)58(39-17-11-6-12-18-39)40-24-27-57(28-25-40)26-23-36-13-7-4-8-14-36)56-50(65)44(31-37-15-9-5-10-16-37)55-45(60)32-52-47(62)35(3)54-48(63)42(51)30-38-19-21-41(59)22-20-38/h4-22,34-35,40,42-44,59H,23-33,51H2,1-3H3,(H,52,62)(H,53,64)(H,54,63)(H,55,60)(H,56,65)/t35-,42+,43+,44+/m1/s1

>  <IUPAC Name>  (1) 
(2S)-2-[[(2S)-2-[[2-[[(2R)-2-[[(2S)-2-amino-3-(4-hydroxyphenyl)propanoyl]amino]propanoyl]amino]acetyl]amino]-3-phenylpropanoyl]amino]-4-methyl-N-[2-oxo-2-(N-[1-(2-phenylethyl)piperidin-4-yl]anilino)ethyl]pentanamide

$$$$
