
     RDKit          3D

 60 65  0  0  0  0  0  0  0  0999 V2000
    0.5993   -5.0448   -2.3867 O   0  0  0  0  0  0  0  0  0  0  0  0
    0.8579   -4.0736   -1.4245 C   0  0  0  0  0  0  0  0  0  0  0  0
    1.6824   -4.4240   -0.3883 C   0  0  0  0  0  0  0  0  0  0  0  0
    1.9432   -3.4712    0.5643 C   0  0  0  0  0  0  0  0  0  0  0  0
    1.3898   -2.2125    0.4709 C   0  0  0  0  0  0  0  0  0  0  0  0
    0.5524   -1.8191   -0.5579 C   0  0  0  0  0  0  0  0  0  0  0  0
    0.3013   -2.8056   -1.5182 C   0  0  0  0  0  0  0  0  0  0  0  0
   -0.0366   -0.4588   -0.6561 C   0  0  2  0  0  0  0  0  0  0  0  0
    0.8150    0.2680   -1.6898 C   0  0  0  0  0  0  0  0  0  0  0  0
    1.9937    0.9864   -1.1604 C   0  0  0  0  0  0  0  0  0  0  0  0
    2.5010    0.5116    0.0671 N   0  0  0  0  0  0  0  0  0  0  0  0
    1.5124    0.1785    1.0821 C   0  0  2  0  0  0  0  0  0  0  0  0
    1.7684   -1.2482    1.5433 C   0  0  0  0  0  0  0  0  0  0  0  0
    0.1123    0.3112    0.6087 C   0  0  1  0  0  0  0  0  0  0  0  0
   -0.2011    1.6560    0.3848 O   0  0  0  0  0  0  0  0  0  0  0  0
   -0.8417   -0.1374    1.6977 C   0  0  0  0  0  0  0  0  0  0  0  0
   -2.2022    0.1548    1.1281 C   0  0  0  0  0  0  0  0  0  0  0  0
   -3.1032    0.8884    1.7501 C   0  0  0  0  0  0  0  0  0  0  0  0
   -4.4266    1.1690    1.1767 C   0  0  0  0  0  0  0  0  0  0  0  0
   -4.5699    1.6221   -0.1393 C   0  0  0  0  0  0  0  0  0  0  0  0
   -5.8056    1.8777   -0.6931 C   0  0  0  0  0  0  0  0  0  0  0  0
   -6.9441    1.6858    0.0609 C   0  0  0  0  0  0  0  0  0  0  0  0
   -6.8384    1.2384    1.3675 C   0  0  0  0  0  0  0  0  0  0  0  0
   -5.5895    0.9765    1.9375 C   0  0  0  0  0  0  0  0  0  0  0  0
   -2.4945   -0.4458   -0.1583 C   0  0  0  0  0  0  0  0  0  0  0  0
   -3.6779   -0.8655   -0.3441 O   0  0  0  0  0  0  0  0  0  0  0  0
   -1.4241   -0.5430   -1.1766 C   0  0  0  0  0  0  0  0  0  0  0  0
    3.5695    1.2402    0.6753 C   0  0  0  0  0  0  0  0  0  0  0  0
    4.8964    1.2822    0.0561 C   0  0  0  0  0  0  0  0  0  0  0  0
    5.2087    1.8604   -1.2889 C   0  0  0  0  0  0  0  0  0  0  0  0
    5.5894    2.6151   -0.0575 C   0  0  0  0  0  0  0  0  0  0  0  0
    1.2523   -5.1149   -3.1585 H   0  0  0  0  0  0  0  0  0  0  0  0
    2.1371   -5.3919   -0.2697 H   0  0  0  0  0  0  0  0  0  0  0  0
    2.5976   -3.7310    1.3986 H   0  0  0  0  0  0  0  0  0  0  0  0
   -0.3184   -2.6362   -2.3831 H   0  0  0  0  0  0  0  0  0  0  0  0
    1.0980   -0.4492   -2.4924 H   0  0  0  0  0  0  0  0  0  0  0  0
    0.1469    1.0075   -2.2005 H   0  0  0  0  0  0  0  0  0  0  0  0
    1.8902    2.1059   -1.2065 H   0  0  0  0  0  0  0  0  0  0  0  0
    2.8147    0.7894   -1.9311 H   0  0  0  0  0  0  0  0  0  0  0  0
    1.6347    0.7995    2.0041 H   0  0  0  0  0  0  0  0  0  0  0  0
    2.8724   -1.3463    1.6642 H   0  0  0  0  0  0  0  0  0  0  0  0
    1.3046   -1.4879    2.5123 H   0  0  0  0  0  0  0  0  0  0  0  0
   -1.0463    1.6952   -0.1196 H   0  0  0  0  0  0  0  0  0  0  0  0
   -0.7666   -1.1932    1.9505 H   0  0  0  0  0  0  0  0  0  0  0  0
   -0.7022    0.5357    2.5734 H   0  0  0  0  0  0  0  0  0  0  0  0
   -2.8298    1.2952    2.7364 H   0  0  0  0  0  0  0  0  0  0  0  0
   -3.7102    1.8002   -0.7794 H   0  0  0  0  0  0  0  0  0  0  0  0
   -5.8825    2.2310   -1.7263 H   0  0  0  0  0  0  0  0  0  0  0  0
   -7.9115    1.8907   -0.3903 H   0  0  0  0  0  0  0  0  0  0  0  0
   -7.7317    1.0889    1.9620 H   0  0  0  0  0  0  0  0  0  0  0  0
   -5.5087    0.6295    2.9572 H   0  0  0  0  0  0  0  0  0  0  0  0
   -1.6580   -1.4323   -1.7789 H   0  0  0  0  0  0  0  0  0  0  0  0
   -1.5988    0.3242   -1.8942 H   0  0  0  0  0  0  0  0  0  0  0  0
    3.2605    2.3047    0.9198 H   0  0  0  0  0  0  0  0  0  0  0  0
    3.6976    0.7932    1.7127 H   0  0  0  0  0  0  0  0  0  0  0  0
    5.6543    0.4937    0.4334 H   0  0  0  0  0  0  0  0  0  0  0  0
    4.4396    2.3313   -1.9133 H   0  0  0  0  0  0  0  0  0  0  0  0
    6.0519    1.4213   -1.8773 H   0  0  0  0  0  0  0  0  0  0  0  0
    6.6613    2.7365    0.1231 H   0  0  0  0  0  0  0  0  0  0  0  0
    5.0135    3.5367    0.2419 H   0  0  0  0  0  0  0  0  0  0  0  0
  1  2  1  0
  2  3  2  0
  3  4  1  0
  4  5  2  0
  5  6  1  0
  6  7  2  0
  6  8  1  0
  8  9  1  6
  9 10  1  0
 10 11  1  0
 11 12  1  0
 12 13  1  0
 12 14  1  0
 14 15  1  6
 14 16  1  0
 16 17  1  0
 17 18  2  0
 18 19  1  0
 19 20  2  0
 20 21  1  0
 21 22  2  0
 22 23  1  0
 23 24  2  0
 17 25  1  0
 25 26  2  0
 25 27  1  0
 11 28  1  0
 28 29  1  0
 29 30  1  0
 30 31  1  0
  7  2  1  0
 27  8  1  0
 31 29  1  0
 13  5  1  0
 24 19  1  0
 14  8  1  0
  1 32  1  0
  3 33  1  0
  4 34  1  0
  7 35  1  0
  9 36  1  0
  9 37  1  0
 10 38  1  0
 10 39  1  0
 12 40  1  1
 13 41  1  0
 13 42  1  0
 15 43  1  0
 16 44  1  0
 16 45  1  0
 18 46  1  0
 20 47  1  0
 21 48  1  0
 22 49  1  0
 23 50  1  0
 24 51  1  0
 27 52  1  0
 27 53  1  0
 28 54  1  0
 28 55  1  0
 29 56  1  0
 30 57  1  0
 30 58  1  0
 31 59  1  0
 31 60  1  0
M  END
>  <Ligand ID>  (1) 
LIG0002957

>  <Ligand>  (1) 
CHEMBL3785265

>  <SMILES>  (1) 
Oc1ccc2c(c1)[C@@]13CCN([C@H](C2)[C@]3(O)C/C(=C/c2ccccc2)/C(=O)C1)CC1CC1

>  <CID>  (1) 
127032213.0

>  <ChEMBL ID>  (1) 
nan

>  <InChiKey>  (1) 
IGVCBUFJKDIFNJ-SLSARJKRSA-N

>  <InChi>  (1) 
InChI=1S/C27H29NO3/c29-22-9-8-20-13-25-27(31)15-21(12-18-4-2-1-3-5-18)24(30)16-26(27,23(20)14-22)10-11-28(25)17-19-6-7-19/h1-5,8-9,12,14,19,25,29,31H,6-7,10-11,13,15-17H2/b21-12-/t25-,26-,27-/m1/s1

>  <IUPAC Name>  (1) 
(1R,9R,10S,12Z)-12-benzylidene-17-(cyclopropylmethyl)-4,10-dihydroxy-17-azatetracyclo[7.5.3.01,10.02,7]heptadeca-2(7),3,5-trien-13-one

$$$$
