
     RDKit          3D

 32 31  0  0  0  0  0  0  0  0999 V2000
   -2.9871    1.2789   -0.2734 C   0  0  0  0  0  0  0  0  0  0  0  0
   -2.9078   -0.2082   -0.5319 C   0  0  0  0  0  0  0  0  0  0  0  0
   -1.5365   -0.5795   -1.0648 C   0  0  0  0  0  0  0  0  0  0  0  0
   -0.5499   -0.1680    0.0019 C   0  0  0  0  0  0  0  0  0  0  0  0
    0.8849   -0.4544   -0.3447 C   0  0  0  0  0  0  0  0  0  0  0  0
    1.7367    0.0022    0.7950 C   0  0  0  0  0  0  0  0  0  0  0  0
    1.6447    1.4508    1.1277 C   0  0  0  0  0  0  0  0  0  0  0  0
    2.0715    2.3058   -0.0010 C   0  0  0  0  0  0  0  0  0  0  0  0
    2.5004    1.9035   -1.0947 O   0  0  0  0  0  0  0  0  0  0  0  0
    1.9832    3.6820    0.1828 O   0  0  0  0  0  0  0  0  0  0  0  0
    1.0812   -1.9247   -0.6392 C   0  0  0  0  0  0  0  0  0  0  0  0
    0.7416   -2.8449    0.4753 C   0  0  0  0  0  0  0  0  0  0  0  0
   -2.5521    1.4656    0.7425 H   0  0  0  0  0  0  0  0  0  0  0  0
   -4.0735    1.5297   -0.1540 H   0  0  0  0  0  0  0  0  0  0  0  0
   -2.4846    1.8890   -1.0493 H   0  0  0  0  0  0  0  0  0  0  0  0
   -3.6795   -0.5352   -1.2704 H   0  0  0  0  0  0  0  0  0  0  0  0
   -3.1123   -0.7170    0.4342 H   0  0  0  0  0  0  0  0  0  0  0  0
   -1.4621   -1.6372   -1.3303 H   0  0  0  0  0  0  0  0  0  0  0  0
   -1.4093    0.0227   -1.9870 H   0  0  0  0  0  0  0  0  0  0  0  0
   -0.6781    0.9353    0.1205 H   0  0  0  0  0  0  0  0  0  0  0  0
   -0.7807   -0.6454    0.9683 H   0  0  0  0  0  0  0  0  0  0  0  0
    1.1765    0.0610   -1.2785 H   0  0  0  0  0  0  0  0  0  0  0  0
    1.4894   -0.5790    1.7326 H   0  0  0  0  0  0  0  0  0  0  0  0
    2.8184   -0.2509    0.5887 H   0  0  0  0  0  0  0  0  0  0  0  0
    0.6157    1.7440    1.4621 H   0  0  0  0  0  0  0  0  0  0  0  0
    2.2850    1.6994    2.0255 H   0  0  0  0  0  0  0  0  0  0  0  0
    2.5511    4.2664   -0.4162 H   0  0  0  0  0  0  0  0  0  0  0  0
    2.1615   -2.0672   -0.9139 H   0  0  0  0  0  0  0  0  0  0  0  0
    0.4846   -2.1728   -1.5252 H   0  0  0  0  0  0  0  0  0  0  0  0
    1.0129   -2.5431    1.4824 H   0  0  0  0  0  0  0  0  0  0  0  0
    1.3216   -3.7963    0.2896 H   0  0  0  0  0  0  0  0  0  0  0  0
   -0.3474   -3.1124    0.5141 H   0  0  0  0  0  0  0  0  0  0  0  0
  1  2  1  0
  2  3  1  0
  3  4  1  0
  4  5  1  0
  5  6  1  0
  6  7  1  0
  7  8  1  0
  8  9  2  0
  8 10  1  0
  5 11  1  0
 11 12  1  0
  1 13  1  0
  1 14  1  0
  1 15  1  0
  2 16  1  0
  2 17  1  0
  3 18  1  0
  3 19  1  0
  4 20  1  0
  4 21  1  0
  5 22  1  0
  6 23  1  0
  6 24  1  0
  7 25  1  0
  7 26  1  0
 10 27  1  0
 11 28  1  0
 11 29  1  0
 12 30  1  0
 12 31  1  0
 12 32  1  0
M  END
>  <Ligand ID>  (1) 
LIG0002069

>  <Ligand>  (1) 
4-ethyloctanoic acid

>  <SMILES>  (1) 
CCCCC(CCC(=O)O)CC

>  <CID>  (1) 
61840.0

>  <ChEMBL ID>  (1) 
nan

>  <InChiKey>  (1) 
PWKJMPFEQOHBAC-UHFFFAOYSA-N

>  <InChi>  (1) 
InChI=1S/C10H20O2/c1-3-5-6-9(4-2)7-8-10(11)12/h9H,3-8H2,1-2H3,(H,11,12)

>  <IUPAC Name>  (1) 
4-ethyloctanoic acid

$$$$
