
     RDKit          3D

 39 42  0  0  0  0  0  0  0  0999 V2000
    4.2303   -4.1988    0.9645 Cl  0  0  0  0  0  0  0  0  0  0  0  0
    3.6708   -2.5984    0.4716 C   0  0  0  0  0  0  0  0  0  0  0  0
    4.5996   -1.6349    0.1200 C   0  0  0  0  0  0  0  0  0  0  0  0
    4.1373   -0.3755   -0.2669 C   0  0  0  0  0  0  0  0  0  0  0  0
    2.7836   -0.1228   -0.2900 C   0  0  0  0  0  0  0  0  0  0  0  0
    1.8434   -1.0964    0.0654 C   0  0  0  0  0  0  0  0  0  0  0  0
    2.3070   -2.3382    0.4465 C   0  0  0  0  0  0  0  0  0  0  0  0
    0.4151   -0.9821    0.0902 N   0  0  0  0  0  0  0  0  0  0  0  0
   -0.3261    0.0603    0.0213 C   0  0  0  0  0  0  0  0  0  0  0  0
   -1.7300   -0.2314    0.0793 N   0  0  0  0  0  0  0  0  0  0  0  0
   -2.4061   -0.5217    1.3338 C   0  0  0  0  0  0  0  0  0  0  0  0
   -2.8762   -1.9753    1.2528 C   0  0  0  0  0  0  0  0  0  0  0  0
   -3.1289   -2.4023   -0.0894 N   0  0  0  0  0  0  0  0  0  0  0  0
   -3.6146   -1.3339   -0.9059 C   0  0  0  0  0  0  0  0  0  0  0  0
   -2.5519   -0.2506   -1.1268 C   0  0  0  0  0  0  0  0  0  0  0  0
    0.0762    1.4550   -0.1046 C   0  0  0  0  0  0  0  0  0  0  0  0
    1.3257    1.9445   -0.4272 C   0  0  0  0  0  0  0  0  0  0  0  0
    2.5173    1.2249   -0.7139 N   0  0  0  0  0  0  0  0  0  0  0  0
    1.5716    3.3200   -0.5134 C   0  0  0  0  0  0  0  0  0  0  0  0
    0.4999    4.1632   -0.2591 C   0  0  0  0  0  0  0  0  0  0  0  0
   -0.7605    3.6723    0.0663 C   0  0  0  0  0  0  0  0  0  0  0  0
   -0.9835    2.2981    0.1467 C   0  0  0  0  0  0  0  0  0  0  0  0
    5.6715   -1.8271    0.1357 H   0  0  0  0  0  0  0  0  0  0  0  0
    4.8357    0.4166   -0.5531 H   0  0  0  0  0  0  0  0  0  0  0  0
    1.6151   -3.1149    0.7275 H   0  0  0  0  0  0  0  0  0  0  0  0
   -1.7052   -0.4814    2.1907 H   0  0  0  0  0  0  0  0  0  0  0  0
   -3.2784    0.1094    1.5276 H   0  0  0  0  0  0  0  0  0  0  0  0
   -3.7463   -2.1348    1.9499 H   0  0  0  0  0  0  0  0  0  0  0  0
   -2.0853   -2.6643    1.6658 H   0  0  0  0  0  0  0  0  0  0  0  0
   -2.3241   -2.8525   -0.5588 H   0  0  0  0  0  0  0  0  0  0  0  0
   -4.5514   -0.8869   -0.4854 H   0  0  0  0  0  0  0  0  0  0  0  0
   -3.8914   -1.6946   -1.9147 H   0  0  0  0  0  0  0  0  0  0  0  0
   -1.9870   -0.4931   -2.0405 H   0  0  0  0  0  0  0  0  0  0  0  0
   -3.1154    0.6648   -1.3017 H   0  0  0  0  0  0  0  0  0  0  0  0
    3.2616    1.6962   -1.2715 H   0  0  0  0  0  0  0  0  0  0  0  0
    2.5543    3.6589   -0.7664 H   0  0  0  0  0  0  0  0  0  0  0  0
    0.6586    5.2492   -0.3183 H   0  0  0  0  0  0  0  0  0  0  0  0
   -1.5590    4.3802    0.2544 H   0  0  0  0  0  0  0  0  0  0  0  0
   -1.9532    1.8984    0.3975 H   0  0  0  0  0  0  0  0  0  0  0  0
  1  2  1  0
  2  3  2  0
  3  4  1  0
  4  5  2  0
  5  6  1  0
  6  7  2  0
  6  8  1  0
  8  9  2  0
  9 10  1  0
 10 11  1  0
 11 12  1  0
 12 13  1  0
 13 14  1  0
 14 15  1  0
  9 16  1  0
 16 17  2  0
 17 18  1  0
 17 19  1  0
 19 20  2  0
 20 21  1  0
 21 22  2  0
  7  2  1  0
 15 10  1  0
 22 16  1  0
 18  5  1  0
  3 23  1  0
  4 24  1  0
  7 25  1  0
 11 26  1  0
 11 27  1  0
 12 28  1  0
 12 29  1  0
 13 30  1  0
 14 31  1  0
 14 32  1  0
 15 33  1  0
 15 34  1  0
 18 35  1  0
 19 36  1  0
 20 37  1  0
 21 38  1  0
 22 39  1  0
M  END
>  <Ligand ID>  (1) 
LIG0003151

>  <Ligand>  (1) 
N-DESMETHYLCLOZAPINE

>  <SMILES>  (1) 
Clc1ccc2c(c1)N=C(N1CCNCC1)c1c(N2)cccc1

>  <CID>  (1) 
135409468.0

>  <ChEMBL ID>  (1) 
nan

>  <InChiKey>  (1) 
JNNOSTQEZICQQP-UHFFFAOYSA-N

>  <InChi>  (1) 
InChI=1S/C17H17ClN4/c18-12-5-6-15-16(11-12)21-17(22-9-7-19-8-10-22)13-3-1-2-4-14(13)20-15/h1-6,11,19-20H,7-10H2

>  <IUPAC Name>  (1) 
3-chloro-6-piperazin-1-yl-11H-benzo[b][1,4]benzodiazepine

$$$$
