
     RDKit          3D

 36 36  0  0  0  0  0  0  0  0999 V2000
   -4.6268   -0.9583    0.7903 C   0  0  0  0  0  0  0  0  0  0  0  0
   -3.4966   -0.0848    1.2923 C   0  0  0  0  0  0  0  0  0  0  0  0
   -2.2667   -0.2572    0.4806 C   0  0  0  0  0  0  0  0  0  0  0  0
   -1.1861   -0.6648    1.0157 O   0  0  0  0  0  0  0  0  0  0  0  0
   -2.2812    0.0343   -0.9203 N   0  0  0  0  0  0  0  0  0  0  0  0
   -1.0891   -0.1307   -1.7173 C   0  0  0  0  0  0  0  0  0  0  0  0
   -0.0486   -0.5493   -1.0755 N   0  0  0  0  0  0  0  0  0  0  0  0
    1.1677   -0.7342   -1.8076 C   0  0  0  0  0  0  0  0  0  0  0  0
    2.3884   -0.7425   -0.9211 C   0  0  0  0  0  0  0  0  0  0  0  0
    2.5569    0.5372   -0.1556 C   0  0  0  0  0  0  0  0  0  0  0  0
    3.7829    0.4195    0.6799 C   0  0  0  0  0  0  0  0  0  0  0  0
    3.7709   -0.0670    1.9483 N   0  0  0  0  0  0  0  0  0  0  0  0
    5.0391   -0.0286    2.3936 C   0  0  0  0  0  0  0  0  0  0  0  0
    5.8560    0.4682    1.4446 N   0  0  0  0  0  0  0  0  0  0  0  0
    5.0870    0.7514    0.3723 C   0  0  0  0  0  0  0  0  0  0  0  0
   -1.0808    0.1533   -3.1127 N   0  0  0  0  0  0  0  0  0  0  0  0
   -3.9619    1.3429    1.3486 C   0  0  0  0  0  0  0  0  0  0  0  0
   -4.5968   -0.9022   -0.3364 H   0  0  0  0  0  0  0  0  0  0  0  0
   -4.4649   -1.9996    1.1001 H   0  0  0  0  0  0  0  0  0  0  0  0
   -5.6193   -0.5447    1.0546 H   0  0  0  0  0  0  0  0  0  0  0  0
   -3.2830   -0.4105    2.3267 H   0  0  0  0  0  0  0  0  0  0  0  0
   -3.1760    0.3728   -1.3681 H   0  0  0  0  0  0  0  0  0  0  0  0
    1.3252    0.0352   -2.6047 H   0  0  0  0  0  0  0  0  0  0  0  0
    1.1216   -1.7313   -2.2977 H   0  0  0  0  0  0  0  0  0  0  0  0
    3.2807   -0.9050   -1.5392 H   0  0  0  0  0  0  0  0  0  0  0  0
    2.3017   -1.5608   -0.1776 H   0  0  0  0  0  0  0  0  0  0  0  0
    1.6992    0.7487    0.5011 H   0  0  0  0  0  0  0  0  0  0  0  0
    2.6907    1.3699   -0.9009 H   0  0  0  0  0  0  0  0  0  0  0  0
    2.9100   -0.4044    2.4612 H   0  0  0  0  0  0  0  0  0  0  0  0
    5.4051   -0.3391    3.3637 H   0  0  0  0  0  0  0  0  0  0  0  0
    5.3961    1.1651   -0.5776 H   0  0  0  0  0  0  0  0  0  0  0  0
   -0.9573    1.1521   -3.3875 H   0  0  0  0  0  0  0  0  0  0  0  0
   -1.1927   -0.5986   -3.8365 H   0  0  0  0  0  0  0  0  0  0  0  0
   -5.0295    1.3005    1.6958 H   0  0  0  0  0  0  0  0  0  0  0  0
   -4.0065    1.8340    0.3555 H   0  0  0  0  0  0  0  0  0  0  0  0
   -3.4155    1.9287    2.1115 H   0  0  0  0  0  0  0  0  0  0  0  0
  1  2  1  0
  2  3  1  0
  3  4  2  0
  3  5  1  0
  5  6  1  0
  6  7  2  3
  7  8  1  0
  8  9  1  0
  9 10  1  0
 10 11  1  0
 11 12  1  0
 12 13  1  0
 13 14  2  0
 14 15  1  0
  6 16  1  0
  2 17  1  0
 15 11  2  0
  1 18  1  0
  1 19  1  0
  1 20  1  0
  2 21  1  0
  5 22  1  0
  8 23  1  0
  8 24  1  0
  9 25  1  0
  9 26  1  0
 10 27  1  0
 10 28  1  0
 12 29  1  0
 13 30  1  0
 15 31  1  0
 16 32  1  0
 16 33  1  0
 17 34  1  0
 17 35  1  0
 17 36  1  0
M  END
>  <Ligand ID>  (1) 
LIG0000908

>  <Ligand>  (1) 
CHEMBL471724

>  <SMILES>  (1) 
CC(C(=O)NC(=NCCCc1[nH]cnc1)N)C

>  <CID>  (1) 
42625304.0

>  <ChEMBL ID>  (1) 
nan

>  <InChiKey>  (1) 
GCEYKTZXUXSFFO-UHFFFAOYSA-N

>  <InChi>  (1) 
InChI=1S/C11H19N5O/c1-8(2)10(17)16-11(12)14-5-3-4-9-6-13-7-15-9/h6-8H,3-5H2,1-2H3,(H,13,15)(H3,12,14,16,17)

>  <IUPAC Name>  (1) 
N-[N'-[3-(1H-imidazol-5-yl)propyl]carbamimidoyl]-2-methylpropanamide

$$$$
