
     RDKit          3D

 29 28  0  0  0  0  0  0  0  0999 V2000
    4.2075    1.7562    0.2149 O   0  0  0  0  0  0  0  0  0  0  0  0
    2.8080    1.7956    0.1907 C   0  0  0  0  0  0  0  0  0  0  0  0
    2.2030    0.8535   -0.7599 C   0  0  0  0  0  0  0  0  0  0  0  0
    1.3525   -0.1282   -0.3916 C   0  0  0  0  0  0  0  0  0  0  0  0
    0.7766   -1.0428   -1.3852 C   0  0  0  0  0  0  0  0  0  0  0  0
   -0.7276   -1.0164   -1.4580 C   0  0  0  0  0  0  0  0  0  0  0  0
   -1.3976   -1.3840   -0.1877 C   0  0  0  0  0  0  0  0  0  0  0  0
   -2.2118   -0.5162    0.4164 C   0  0  0  0  0  0  0  0  0  0  0  0
   -2.3984    0.7989   -0.2427 C   0  0  0  0  0  0  0  0  0  0  0  0
   -2.8824   -0.8832    1.6872 C   0  0  0  0  0  0  0  0  0  0  0  0
    1.0534   -0.2075    1.0623 C   0  0  0  0  0  0  0  0  0  0  0  0
    4.5957    1.7886   -0.6870 H   0  0  0  0  0  0  0  0  0  0  0  0
    2.5653    2.8263   -0.1990 H   0  0  0  0  0  0  0  0  0  0  0  0
    2.4080    1.7734    1.1994 H   0  0  0  0  0  0  0  0  0  0  0  0
    2.4508    0.9507   -1.8064 H   0  0  0  0  0  0  0  0  0  0  0  0
    1.1027   -2.0904   -1.1503 H   0  0  0  0  0  0  0  0  0  0  0  0
    1.1325   -0.7465   -2.3934 H   0  0  0  0  0  0  0  0  0  0  0  0
   -1.0879   -0.0402   -1.8280 H   0  0  0  0  0  0  0  0  0  0  0  0
   -1.0234   -1.7836   -2.2056 H   0  0  0  0  0  0  0  0  0  0  0  0
   -1.2044   -2.3698    0.2260 H   0  0  0  0  0  0  0  0  0  0  0  0
   -2.9135    0.6618   -1.2055 H   0  0  0  0  0  0  0  0  0  0  0  0
   -1.4214    1.3331   -0.3459 H   0  0  0  0  0  0  0  0  0  0  0  0
   -3.0210    1.4657    0.4155 H   0  0  0  0  0  0  0  0  0  0  0  0
   -3.2174   -1.9479    1.7212 H   0  0  0  0  0  0  0  0  0  0  0  0
   -3.8088   -0.2915    1.8336 H   0  0  0  0  0  0  0  0  0  0  0  0
   -2.2463   -0.6933    2.5797 H   0  0  0  0  0  0  0  0  0  0  0  0
    0.3090    0.5136    1.4136 H   0  0  0  0  0  0  0  0  0  0  0  0
    1.9551   -0.1522    1.6968 H   0  0  0  0  0  0  0  0  0  0  0  0
    0.6422   -1.2237    1.2426 H   0  0  0  0  0  0  0  0  0  0  0  0
  1  2  1  0
  2  3  1  0
  3  4  2  0
  4  5  1  0
  5  6  1  0
  6  7  1  0
  7  8  2  3
  8  9  1  0
  8 10  1  0
  4 11  1  0
  1 12  1  0
  2 13  1  0
  2 14  1  0
  3 15  1  0
  5 16  1  0
  5 17  1  0
  6 18  1  0
  6 19  1  0
  7 20  1  0
  9 21  1  0
  9 22  1  0
  9 23  1  0
 10 24  1  0
 10 25  1  0
 10 26  1  0
 11 27  1  0
 11 28  1  0
 11 29  1  0
M  END
>  <Ligand ID>  (1) 
LIG0000075

>  <Ligand>  (1) 
Geraniol

>  <SMILES>  (1) 
OC/C=C(/CCC=C(C)C)\C

>  <CID>  (1) 
637566.0

>  <ChEMBL ID>  (1) 
nan

>  <InChiKey>  (1) 
GLZPCOQZEFWAFX-JXMROGBWSA-N

>  <InChi>  (1) 
InChI=1S/C10H18O/c1-9(2)5-4-6-10(3)7-8-11/h5,7,11H,4,6,8H2,1-3H3/b10-7+

>  <IUPAC Name>  (1) 
(2E)-3,7-dimethylocta-2,6-dien-1-ol

$$$$
