
     RDKit          3D

 31 31  0  0  0  0  0  0  0  0999 V2000
    0.3393   -4.0531   -0.5075 C   0  0  0  0  0  0  0  0  0  0  0  0
   -0.2442   -2.7593   -0.3834 O   0  0  0  0  0  0  0  0  0  0  0  0
    0.5596   -1.6299   -0.2367 C   0  0  0  0  0  0  0  0  0  0  0  0
    1.9315   -1.7164   -0.2062 C   0  0  0  0  0  0  0  0  0  0  0  0
    2.7326   -0.6205   -0.0632 C   0  0  0  0  0  0  0  0  0  0  0  0
    4.6362   -0.8091   -0.0283 Br  0  0  0  0  0  0  0  0  0  0  0  0
    2.1659    0.6414    0.0579 C   0  0  0  0  0  0  0  0  0  0  0  0
    0.8036    0.7375    0.0286 C   0  0  0  0  0  0  0  0  0  0  0  0
   -0.0274   -0.3640   -0.1158 C   0  0  0  0  0  0  0  0  0  0  0  0
   -1.4871   -0.2993   -0.1513 C   0  0  0  0  0  0  0  0  0  0  0  0
   -2.0934    1.0649   -0.0203 C   0  0  2  0  0  0  0  0  0  0  0  0
   -1.8039    1.7639    1.1565 N   0  0  0  0  0  0  0  0  0  0  0  0
   -3.6059    0.8650   -0.0897 C   0  0  0  0  0  0  0  0  0  0  0  0
    3.0286    1.7149    0.2002 O   0  0  0  0  0  0  0  0  0  0  0  0
    2.5500    3.0327    0.3300 C   0  0  0  0  0  0  0  0  0  0  0  0
   -0.4533   -4.7124   -0.8791 H   0  0  0  0  0  0  0  0  0  0  0  0
    0.7361   -4.3802    0.4693 H   0  0  0  0  0  0  0  0  0  0  0  0
    1.1356   -4.0371   -1.2875 H   0  0  0  0  0  0  0  0  0  0  0  0
    2.4239   -2.6807   -0.2970 H   0  0  0  0  0  0  0  0  0  0  0  0
    0.3428    1.6925    0.1194 H   0  0  0  0  0  0  0  0  0  0  0  0
   -1.8026   -0.6633   -1.1723 H   0  0  0  0  0  0  0  0  0  0  0  0
   -1.9986   -0.9651    0.5517 H   0  0  0  0  0  0  0  0  0  0  0  0
   -1.8441    1.7003   -0.8968 H   0  0  0  0  0  0  0  0  0  0  0  0
   -1.8264    1.2781    2.0435 H   0  0  0  0  0  0  0  0  0  0  0  0
   -1.5906    2.7485    1.1168 H   0  0  0  0  0  0  0  0  0  0  0  0
   -3.7722    0.1338   -0.9034 H   0  0  0  0  0  0  0  0  0  0  0  0
   -3.8919    0.3678    0.8603 H   0  0  0  0  0  0  0  0  0  0  0  0
   -4.1301    1.8230   -0.2544 H   0  0  0  0  0  0  0  0  0  0  0  0
    1.6883    3.1502   -0.3615 H   0  0  0  0  0  0  0  0  0  0  0  0
    3.3458    3.7711    0.0682 H   0  0  0  0  0  0  0  0  0  0  0  0
    2.1518    3.2048    1.3599 H   0  0  0  0  0  0  0  0  0  0  0  0
  1  2  1  0
  2  3  1  0
  3  4  2  0
  4  5  1  0
  5  6  1  0
  5  7  2  0
  7  8  1  0
  8  9  2  0
  9 10  1  0
 10 11  1  0
 11 12  1  0
 11 13  1  0
  7 14  1  0
 14 15  1  0
  9  3  1  0
  1 16  1  0
  1 17  1  0
  1 18  1  0
  4 19  1  0
  8 20  1  0
 10 21  1  0
 10 22  1  0
 11 23  1  6
 12 24  1  0
 12 25  1  0
 13 26  1  0
 13 27  1  0
 13 28  1  0
 15 29  1  0
 15 30  1  0
 15 31  1  0
M  END
>  <Ligand ID>  (1) 
LIG0002202

>  <Ligand>  (1) 
UNII-C918IS60W6

>  <SMILES>  (1) 
COc1cc(Br)c(cc1C[C@H](N)C)OC

>  <CID>  (1) 
12626561.0

>  <ChEMBL ID>  (1) 
nan

>  <InChiKey>  (1) 
FXMWUTGUCAKGQL-SSDOTTSWSA-N

>  <InChi>  (1) 
InChI=1S/C11H16BrNO2/c1-7(13)4-8-5-11(15-3)9(12)6-10(8)14-2/h5-7H,4,13H2,1-3H3/t7-/m1/s1

>  <IUPAC Name>  (1) 
(2R)-1-(4-bromo-2,5-dimethoxyphenyl)propan-2-amine

$$$$
