
     RDKit          3D

 46 48  0  0  0  0  0  0  0  0999 V2000
   -5.2247   -0.4232   -1.0405 C   0  0  0  0  0  0  0  0  0  0  0  0
   -4.0248   -0.6882   -0.1607 C   0  0  2  0  0  0  0  0  0  0  0  0
   -4.6034   -1.3722    1.0958 C   0  0  0  0  0  0  0  0  0  0  0  0
   -5.3306   -0.1877    1.6971 C   0  0  0  0  0  0  0  0  0  0  0  0
   -4.7856    1.0301    0.9867 C   0  0  0  0  0  0  0  0  0  0  0  0
   -3.4875    0.5170    0.4618 N   0  0  0  0  0  0  0  0  0  0  0  0
   -2.9270    1.4631   -0.4347 C   0  0  0  0  0  0  0  0  0  0  0  0
   -1.4983    1.3202   -0.8353 C   0  0  0  0  0  0  0  0  0  0  0  0
   -1.1489    0.0324   -1.4876 C   0  0  0  0  0  0  0  0  0  0  0  0
    0.1619   -0.0980   -1.9351 O   0  0  0  0  0  0  0  0  0  0  0  0
    1.3502   -0.1011   -1.2941 C   0  0  0  0  0  0  0  0  0  0  0  0
    1.5764    0.0136    0.0551 C   0  0  0  0  0  0  0  0  0  0  0  0
    2.8480    0.0012    0.6132 C   0  0  0  0  0  0  0  0  0  0  0  0
    3.9540   -0.1291   -0.1742 C   0  0  0  0  0  0  0  0  0  0  0  0
    3.7606   -0.2481   -1.5456 C   0  0  0  0  0  0  0  0  0  0  0  0
    2.5007   -0.2344   -2.0850 C   0  0  0  0  0  0  0  0  0  0  0  0
    5.3211   -0.1538    0.2967 C   0  0  0  0  0  0  0  0  0  0  0  0
    5.7807    0.5252    1.3984 C   0  0  0  0  0  0  0  0  0  0  0  0
    7.0440    0.4840    1.8067 N   0  0  0  0  0  0  0  0  0  0  0  0
    7.9251   -0.2489    1.1246 N   0  0  0  0  0  0  0  0  0  0  0  0
    7.5732   -0.9434    0.0412 C   0  0  0  0  0  0  0  0  0  0  0  0
    8.4299   -1.6368   -0.5961 O   0  0  0  0  0  0  0  0  0  0  0  0
    6.2731   -0.9113   -0.3931 C   0  0  0  0  0  0  0  0  0  0  0  0
   -5.2747   -1.3259   -1.7270 H   0  0  0  0  0  0  0  0  0  0  0  0
   -6.1900   -0.4750   -0.4894 H   0  0  0  0  0  0  0  0  0  0  0  0
   -5.1326    0.4266   -1.7127 H   0  0  0  0  0  0  0  0  0  0  0  0
   -3.3313   -1.3802   -0.5891 H   0  0  0  0  0  0  0  0  0  0  0  0
   -3.7432   -1.6126    1.7306 H   0  0  0  0  0  0  0  0  0  0  0  0
   -5.2672   -2.2001    0.8417 H   0  0  0  0  0  0  0  0  0  0  0  0
   -5.1203   -0.1259    2.8009 H   0  0  0  0  0  0  0  0  0  0  0  0
   -6.4261   -0.2912    1.5220 H   0  0  0  0  0  0  0  0  0  0  0  0
   -5.3908    1.2882    0.1013 H   0  0  0  0  0  0  0  0  0  0  0  0
   -4.6284    1.8693    1.6728 H   0  0  0  0  0  0  0  0  0  0  0  0
   -3.5806    1.6603   -1.3245 H   0  0  0  0  0  0  0  0  0  0  0  0
   -2.9774    2.4633    0.1165 H   0  0  0  0  0  0  0  0  0  0  0  0
   -0.8351    1.5986    0.0269 H   0  0  0  0  0  0  0  0  0  0  0  0
   -1.2956    2.1592   -1.5703 H   0  0  0  0  0  0  0  0  0  0  0  0
   -1.2279   -0.7497   -0.6662 H   0  0  0  0  0  0  0  0  0  0  0  0
   -1.8394   -0.1526   -2.3214 H   0  0  0  0  0  0  0  0  0  0  0  0
    0.7605    0.1063    0.7475 H   0  0  0  0  0  0  0  0  0  0  0  0
    2.9888    0.0938    1.6801 H   0  0  0  0  0  0  0  0  0  0  0  0
    4.6029   -0.3546   -2.2182 H   0  0  0  0  0  0  0  0  0  0  0  0
    2.3999   -0.3310   -3.1714 H   0  0  0  0  0  0  0  0  0  0  0  0
    5.0833    1.1172    1.9559 H   0  0  0  0  0  0  0  0  0  0  0  0
    8.9366   -0.3092    1.4137 H   0  0  0  0  0  0  0  0  0  0  0  0
    6.0204   -1.4852   -1.2742 H   0  0  0  0  0  0  0  0  0  0  0  0
  1  2  1  0
  2  3  1  0
  3  4  1  0
  4  5  1  0
  5  6  1  0
  6  7  1  0
  7  8  1  0
  8  9  1  0
  9 10  1  0
 10 11  1  0
 11 12  2  0
 12 13  1  0
 13 14  2  0
 14 15  1  0
 15 16  2  0
 14 17  1  0
 17 18  1  0
 18 19  2  0
 19 20  1  0
 20 21  1  0
 21 22  2  0
 21 23  1  0
  6  2  1  0
 16 11  1  0
 23 17  2  0
  1 24  1  0
  1 25  1  0
  1 26  1  0
  2 27  1  6
  3 28  1  0
  3 29  1  0
  4 30  1  0
  4 31  1  0
  5 32  1  0
  5 33  1  0
  7 34  1  0
  7 35  1  0
  8 36  1  0
  8 37  1  0
  9 38  1  0
  9 39  1  0
 12 40  1  0
 13 41  1  0
 15 42  1  0
 16 43  1  0
 18 44  1  0
 20 45  1  0
 23 46  1  0
M  END
>  <Ligand ID>  (1) 
LIG0005249

>  <Ligand>  (1) 
CHEMBL1813065

>  <SMILES>  (1) 
C[C@@H]1CCCN1CCCOc1ccc(cc1)c1cn[nH]c(=O)c1

>  <CID>  (1) 
53363442.0

>  <ChEMBL ID>  (1) 
nan

>  <InChiKey>  (1) 
DNVBBWNTRFFIHW-CQSZACIVSA-N

>  <InChi>  (1) 
InChI=1S/C18H23N3O2/c1-14-4-2-9-21(14)10-3-11-23-17-7-5-15(6-8-17)16-12-18(22)20-19-13-16/h5-8,12-14H,2-4,9-11H2,1H3,(H,20,22)/t14-/m1/s1

>  <IUPAC Name>  (1) 
4-[4-[3-[(2R)-2-methylpyrrolidin-1-yl]propoxy]phenyl]-1H-pyridazin-6-one

$$$$
