
     RDKit          3D

 54 57  0  0  0  0  0  0  0  0999 V2000
    6.1451   -3.0453    1.6937 N   0  0  0  0  0  0  0  0  0  0  0  0
    5.5573   -2.1506    1.2539 C   0  0  0  0  0  0  0  0  0  0  0  0
    4.8121   -1.0578    0.6990 C   0  0  0  0  0  0  0  0  0  0  0  0
    3.4516   -1.0387    0.9027 C   0  0  0  0  0  0  0  0  0  0  0  0
    2.7069   -0.0012    0.3851 C   0  0  0  0  0  0  0  0  0  0  0  0
    1.2270    0.0784    0.5646 C   0  0  0  0  0  0  0  0  0  0  0  0
    0.5856   -0.6004   -0.5203 O   0  0  0  0  0  0  0  0  0  0  0  0
   -0.7949   -0.6752   -0.5965 C   0  0  0  0  0  0  0  0  0  0  0  0
   -1.3260   -1.3465   -1.6737 C   0  0  0  0  0  0  0  0  0  0  0  0
   -2.6807   -1.4966   -1.8746 C   0  0  0  0  0  0  0  0  0  0  0  0
   -3.5417   -0.9348   -0.9302 C   0  0  0  0  0  0  0  0  0  0  0  0
   -3.0248   -0.2656    0.1438 C   0  0  0  0  0  0  0  0  0  0  0  0
   -1.6491   -0.1240    0.3298 C   0  0  0  0  0  0  0  0  0  0  0  0
   -4.1321    0.1611    0.8733 C   0  0  0  0  0  0  0  0  0  0  0  0
   -3.9383    1.0556    2.3739 Cl  0  0  0  0  0  0  0  0  0  0  0  0
   -5.2960   -0.2461    0.2441 C   0  0  0  0  0  0  0  0  0  0  0  0
   -4.8987   -0.9097   -0.8459 N   0  0  0  0  0  0  0  0  0  0  0  0
   -6.0301   -1.4011   -1.5622 C   0  0  0  0  0  0  0  0  0  0  0  0
   -7.2500   -0.8658   -0.8931 C   0  0  0  0  0  0  0  0  0  0  0  0
   -6.7443   -0.1931    0.3619 C   0  0  2  0  0  0  0  0  0  0  0  0
   -7.3592    1.1804    0.3804 C   0  0  0  0  0  0  0  0  0  0  0  0
   -6.9318    2.0668    1.4487 C   0  0  0  0  0  0  0  0  0  0  0  0
   -6.1868    3.0586    1.1247 O   0  0  0  0  0  0  0  0  0  0  0  0
   -7.2904    1.8848    2.7811 O   0  0  0  0  0  0  0  0  0  0  0  0
    3.3274    0.9907   -0.3197 C   0  0  0  0  0  0  0  0  0  0  0  0
    4.7062    0.9481   -0.5121 C   0  0  0  0  0  0  0  0  0  0  0  0
    5.4788   -0.0629   -0.0157 C   0  0  0  0  0  0  0  0  0  0  0  0
    6.8324   -0.1975   -0.1484 O   0  0  0  0  0  0  0  0  0  0  0  0
    7.6566    0.7019   -0.8292 C   0  0  0  0  0  0  0  0  0  0  0  0
    8.4100   -0.0169   -1.9697 C   0  0  0  0  0  0  0  0  0  0  0  0
    8.6917    1.2488    0.1378 C   0  0  0  0  0  0  0  0  0  0  0  0
    2.9129   -1.8048    1.4562 H   0  0  0  0  0  0  0  0  0  0  0  0
    0.9860   -0.4854    1.4728 H   0  0  0  0  0  0  0  0  0  0  0  0
    0.8794    1.1114    0.6525 H   0  0  0  0  0  0  0  0  0  0  0  0
   -0.6567   -1.7846   -2.4107 H   0  0  0  0  0  0  0  0  0  0  0  0
   -3.0530   -2.0304   -2.7300 H   0  0  0  0  0  0  0  0  0  0  0  0
   -1.2523    0.3985    1.1702 H   0  0  0  0  0  0  0  0  0  0  0  0
   -5.9986   -1.1571   -2.6493 H   0  0  0  0  0  0  0  0  0  0  0  0
   -6.0665   -2.5282   -1.4292 H   0  0  0  0  0  0  0  0  0  0  0  0
   -7.6862   -0.1005   -1.5824 H   0  0  0  0  0  0  0  0  0  0  0  0
   -8.0001   -1.6577   -0.6566 H   0  0  0  0  0  0  0  0  0  0  0  0
   -7.1148   -0.8024    1.2276 H   0  0  0  0  0  0  0  0  0  0  0  0
   -8.4609    1.0091    0.5068 H   0  0  0  0  0  0  0  0  0  0  0  0
   -7.2357    1.6445   -0.6154 H   0  0  0  0  0  0  0  0  0  0  0  0
   -7.3430    2.7349    3.3526 H   0  0  0  0  0  0  0  0  0  0  0  0
    2.7406    1.8109   -0.7278 H   0  0  0  0  0  0  0  0  0  0  0  0
    5.1380    1.7411   -1.0655 H   0  0  0  0  0  0  0  0  0  0  0  0
    7.1142    1.5847   -1.2523 H   0  0  0  0  0  0  0  0  0  0  0  0
    9.0088    0.7376   -2.4756 H   0  0  0  0  0  0  0  0  0  0  0  0
    9.0938   -0.7524   -1.4543 H   0  0  0  0  0  0  0  0  0  0  0  0
    7.6830   -0.5448   -2.6023 H   0  0  0  0  0  0  0  0  0  0  0  0
    8.3933    0.9448    1.1586 H   0  0  0  0  0  0  0  0  0  0  0  0
    8.6975    2.3683    0.0969 H   0  0  0  0  0  0  0  0  0  0  0  0
    9.7061    0.8173   -0.1045 H   0  0  0  0  0  0  0  0  0  0  0  0
  1  2  3  0
  2  3  1  0
  3  4  2  0
  4  5  1  0
  5  6  1  0
  6  7  1  0
  7  8  1  0
  8  9  2  0
  9 10  1  0
 10 11  2  0
 11 12  1  0
 12 13  2  0
 12 14  1  0
 14 15  1  0
 14 16  2  0
 16 17  1  0
 17 18  1  0
 18 19  1  0
 19 20  1  0
 20 21  1  0
 21 22  1  0
 22 23  2  0
 22 24  1  0
  5 25  2  0
 25 26  1  0
 26 27  2  0
 27 28  1  0
 28 29  1  0
 29 30  1  0
 29 31  1  0
 27  3  1  0
 13  8  1  0
 20 16  1  0
 17 11  1  0
  4 32  1  0
  6 33  1  0
  6 34  1  0
  9 35  1  0
 10 36  1  0
 13 37  1  0
 18 38  1  0
 18 39  1  0
 19 40  1  0
 19 41  1  0
 20 42  1  1
 21 43  1  0
 21 44  1  0
 24 45  1  0
 25 46  1  0
 26 47  1  0
 29 48  1  0
 30 49  1  0
 30 50  1  0
 30 51  1  0
 31 52  1  0
 31 53  1  0
 31 54  1  0
M  END
>  <Ligand ID>  (1) 
LIG0000688

>  <Ligand>  (1) 
CHEMBL3359522

>  <SMILES>  (1) 
N#Cc1cc(COc2ccc3c(c2)c(Cl)c2n3CC[C@@H]2CC(=O)O)ccc1OC(C)C

>  <CID>  (1) 
67250226.0

>  <ChEMBL ID>  (1) 
nan

>  <InChiKey>  (1) 
RWFBHHNEDFDSPE-MRXNPFEDSA-N

>  <InChi>  (1) 
InChI=1S/C24H23ClN2O4/c1-14(2)31-21-6-3-15(9-17(21)12-26)13-30-18-4-5-20-19(11-18)23(25)24-16(10-22(28)29)7-8-27(20)24/h3-6,9,11,14,16H,7-8,10,13H2,1-2H3,(H,28,29)/t16-/m1/s1

>  <IUPAC Name>  (1) 
2-[(3R)-4-chloro-6-[(3-cyano-4-propan-2-yloxyphenyl)methoxy]-2,3-dihydro-1H-pyrrolo[1,2-a]indol-3-yl]acetic acid

$$$$
