
     RDKit          3D

 13 12  0  0  0  0  0  0  0  0999 V2000
    1.2408   -0.6053    0.1139 C   0  0  0  0  0  0  0  0  0  0  0  0
   -0.0543   -0.0351    0.3382 N   0  0  0  0  0  0  0  0  0  0  0  0
   -1.1531   -0.7703   -0.1932 C   0  0  0  0  0  0  0  0  0  0  0  0
   -0.1221    1.3784    0.1512 C   0  0  0  0  0  0  0  0  0  0  0  0
    1.1505   -1.3847   -0.6547 H   0  0  0  0  0  0  0  0  0  0  0  0
    1.9825    0.1352   -0.2724 H   0  0  0  0  0  0  0  0  0  0  0  0
    1.5818   -0.9950    1.1058 H   0  0  0  0  0  0  0  0  0  0  0  0
   -0.8948   -1.8396   -0.2277 H   0  0  0  0  0  0  0  0  0  0  0  0
   -2.0240   -0.6382    0.4921 H   0  0  0  0  0  0  0  0  0  0  0  0
   -1.3740   -0.3880   -1.2163 H   0  0  0  0  0  0  0  0  0  0  0  0
    0.6776    1.6603   -0.5822 H   0  0  0  0  0  0  0  0  0  0  0  0
   -1.1333    1.6387   -0.2004 H   0  0  0  0  0  0  0  0  0  0  0  0
    0.1223    1.8435    1.1456 H   0  0  0  0  0  0  0  0  0  0  0  0
  1  2  1  0
  2  3  1  0
  2  4  1  0
  1  5  1  0
  1  6  1  0
  1  7  1  0
  3  8  1  0
  3  9  1  0
  3 10  1  0
  4 11  1  0
  4 12  1  0
  4 13  1  0
M  END
>  <Ligand ID>  (1) 
LIG0001014

>  <Ligand>  (1) 
trimethylamine

>  <SMILES>  (1) 
CN(C)C

>  <CID>  (1) 
1146.0

>  <ChEMBL ID>  (1) 
nan

>  <InChiKey>  (1) 
GETQZCLCWQTVFV-UHFFFAOYSA-N

>  <InChi>  (1) 
InChI=1S/C3H9N/c1-4(2)3/h1-3H3

>  <IUPAC Name>  (1) 
N,N-dimethylmethanamine

$$$$
