
     RDKit          3D

 34 34  0  0  0  0  0  0  0  0999 V2000
    2.6719    2.9350    1.2781 C   0  0  0  0  0  0  0  0  0  0  0  0
    2.5440    2.1021    0.2506 C   0  0  0  0  0  0  0  0  0  0  0  0
    2.4061    0.6243    0.4132 C   0  0  0  0  0  0  0  0  0  0  0  0
    1.1764    0.2640   -0.1566 O   0  0  0  0  0  0  0  0  0  0  0  0
    0.7628   -1.0422   -0.1616 C   0  0  0  0  0  0  0  0  0  0  0  0
    1.6033   -2.0006    0.4144 C   0  0  0  0  0  0  0  0  0  0  0  0
    1.2360   -3.3247    0.4315 C   0  0  0  0  0  0  0  0  0  0  0  0
    0.0511   -3.6811   -0.1172 C   0  0  0  0  0  0  0  0  0  0  0  0
   -0.7686   -2.7414   -0.6793 C   0  0  0  0  0  0  0  0  0  0  0  0
   -0.4315   -1.3710   -0.7184 C   0  0  0  0  0  0  0  0  0  0  0  0
   -1.4326   -0.4994   -1.3317 C   0  0  0  0  0  0  0  0  0  0  0  0
   -2.7141   -0.4601   -0.4759 C   0  0  0  0  0  0  0  0  0  0  0  0
   -2.0111    0.7530   -0.9068 C   0  0  0  0  0  0  0  0  0  0  0  0
   -1.3895    1.7298    0.0139 C   0  0  0  0  0  0  0  0  0  0  0  0
   -2.2620    2.8890    0.2605 N   0  0  0  0  0  0  0  0  0  0  0  0
   -1.9421   -3.1817   -1.2094 F   0  0  0  0  0  0  0  0  0  0  0  0
   -0.3090   -4.9990   -0.0980 F   0  0  0  0  0  0  0  0  0  0  0  0
    0.6867    0.0000    0.0000 Cl  0  0  0  0  0  0  0  0  0  0  0  0
    2.7689    4.0056    1.0949 H   0  0  0  0  0  0  0  0  0  0  0  0
    2.6825    2.5819    2.2863 H   0  0  0  0  0  0  0  0  0  0  0  0
    2.5354    2.4772   -0.7633 H   0  0  0  0  0  0  0  0  0  0  0  0
    3.2695    0.1789   -0.1590 H   0  0  0  0  0  0  0  0  0  0  0  0
    2.5078    0.3001    1.4654 H   0  0  0  0  0  0  0  0  0  0  0  0
    2.5560   -1.6738    0.8494 H   0  0  0  0  0  0  0  0  0  0  0  0
    1.8655   -4.0614    0.8659 H   0  0  0  0  0  0  0  0  0  0  0  0
   -1.5946   -0.7830   -2.4168 H   0  0  0  0  0  0  0  0  0  0  0  0
   -2.6583   -0.8223    0.5781 H   0  0  0  0  0  0  0  0  0  0  0  0
   -3.6238   -0.8181   -1.0140 H   0  0  0  0  0  0  0  0  0  0  0  0
   -2.5891    1.3035   -1.7410 H   0  0  0  0  0  0  0  0  0  0  0  0
   -1.0776    1.2920    0.9439 H   0  0  0  0  0  0  0  0  0  0  0  0
   -0.5114    2.1824   -0.5326 H   0  0  0  0  0  0  0  0  0  0  0  0
   -3.2655    2.6314    0.1167 H   0  0  0  0  0  0  0  0  0  0  0  0
   -2.0566    3.2096    1.2189 H   0  0  0  0  0  0  0  0  0  0  0  0
   -0.6867    0.0000    0.0000 H   0  0  0  0  0  0  0  0  0  0  0  0
  1  2  2  0
  2  3  1  0
  3  4  1  0
  4  5  1  0
  5  6  2  0
  6  7  1  0
  7  8  2  0
  8  9  1  0
  9 10  2  0
 10 11  1  0
 11 12  1  0
 12 13  1  0
 13 14  1  0
 14 15  1  0
  9 16  1  0
  8 17  1  0
 10  5  1  0
 13 11  1  0
  1 19  1  0
  1 20  1  0
  2 21  1  0
  3 22  1  0
  3 23  1  0
  6 24  1  0
  7 25  1  0
 11 26  1  0
 12 27  1  0
 12 28  1  0
 13 29  1  0
 14 30  1  0
 14 31  1  0
 15 32  1  0
 15 33  1  0
 18 34  1  0
M  END
>  <Ligand ID>  (1) 
LIG0005650

>  <Ligand>  (1) 
CHEMBL3769499

>  <SMILES>  (1) 
C=CCOc1ccc(c(c1C1CC1CN)F)F.Cl

>  <CID>  (1) 
127029036.0

>  <ChEMBL ID>  (1) 
nan

>  <InChiKey>  (1) 
YASCELUJQFTHGR-UHFFFAOYSA-N

>  <InChi>  (1) 
InChI=1S/C13H15F2NO.ClH/c1-2-5-17-11-4-3-10(14)13(15)12(11)9-6-8(9)7-16;/h2-4,8-9H,1,5-7,16H2;1H

>  <IUPAC Name>  (1) 
[2-(2,3-difluoro-6-prop-2-enoxyphenyl)cyclopropyl]methanamine;hydrochloride

$$$$
