
     RDKit          3D

 42 43  0  0  0  0  0  0  0  0999 V2000
   -2.3440    1.0188    0.6029 O   0  0  0  0  0  0  0  0  0  0  0  0
   -1.8678    0.1948   -0.1946 C   0  0  0  0  0  0  0  0  0  0  0  0
   -0.6076   -0.4173    0.1363 N   0  0  0  0  0  0  0  0  0  0  0  0
    0.1074   -0.0943    1.3668 C   0  0  0  0  0  0  0  0  0  0  0  0
    0.0517   -1.3101    2.2251 C   0  0  0  0  0  0  0  0  0  0  0  0
    0.7412   -2.7779    1.5901 Cl  0  0  0  0  0  0  0  0  0  0  0  0
    0.8610   -0.9972    3.8082 Cl  0  0  0  0  0  0  0  0  0  0  0  0
   -1.6576   -1.6928    2.6614 Cl  0  0  0  0  0  0  0  0  0  0  0  0
    1.3404    0.5556    1.1975 N   0  0  0  0  0  0  0  0  0  0  0  0
    2.4756    0.1151    0.4314 C   0  0  0  0  0  0  0  0  0  0  0  0
    2.3137   -1.2755   -0.3714 S   0  0  0  0  0  0  0  0  0  0  0  0
    3.6242    0.9372    0.4203 N   0  0  0  0  0  0  0  0  0  0  0  0
    4.8455    0.7460   -0.2324 C   0  0  0  0  0  0  0  0  0  0  0  0
    5.8398    1.7339   -0.0872 C   0  0  0  0  0  0  0  0  0  0  0  0
    7.0637    1.6342   -0.6856 C   0  0  0  0  0  0  0  0  0  0  0  0
    7.3918    0.5532   -1.4688 C   0  0  0  0  0  0  0  0  0  0  0  0
    6.4519   -0.4253   -1.6325 C   0  0  0  0  0  0  0  0  0  0  0  0
    5.2031   -0.3147   -1.0166 C   0  0  0  0  0  0  0  0  0  0  0  0
    8.5835    0.4030   -2.0831 F   0  0  0  0  0  0  0  0  0  0  0  0
   -2.4579   -0.1689   -1.3617 O   0  0  0  0  0  0  0  0  0  0  0  0
   -3.6641    0.3091   -1.8423 C   0  0  0  0  0  0  0  0  0  0  0  0
   -4.7576    0.0011   -0.9089 C   0  0  0  0  0  0  0  0  0  0  0  0
   -5.2590    0.8199    0.0491 C   0  0  0  0  0  0  0  0  0  0  0  0
   -6.2746    0.4333    0.8841 C   0  0  0  0  0  0  0  0  0  0  0  0
   -6.8399   -0.8111    0.7920 C   0  0  0  0  0  0  0  0  0  0  0  0
   -6.3508   -1.6808   -0.1817 C   0  0  0  0  0  0  0  0  0  0  0  0
   -5.3278   -1.2736   -1.0130 C   0  0  0  0  0  0  0  0  0  0  0  0
   -0.1990   -1.1216   -0.5387 H   0  0  0  0  0  0  0  0  0  0  0  0
   -0.5968    0.6602    1.8690 H   0  0  0  0  0  0  0  0  0  0  0  0
    1.4771    1.4987    1.6930 H   0  0  0  0  0  0  0  0  0  0  0  0
    3.5364    1.8339    0.9984 H   0  0  0  0  0  0  0  0  0  0  0  0
    5.6624    2.6214    0.5153 H   0  0  0  0  0  0  0  0  0  0  0  0
    7.8203    2.3988   -0.5674 H   0  0  0  0  0  0  0  0  0  0  0  0
    6.6819   -1.2992   -2.2501 H   0  0  0  0  0  0  0  0  0  0  0  0
    4.5315   -1.1209   -1.1957 H   0  0  0  0  0  0  0  0  0  0  0  0
   -3.5984    1.4141   -2.0220 H   0  0  0  0  0  0  0  0  0  0  0  0
   -3.8498   -0.2178   -2.8241 H   0  0  0  0  0  0  0  0  0  0  0  0
   -4.8692    1.8138    0.1681 H   0  0  0  0  0  0  0  0  0  0  0  0
   -6.6751    1.0931    1.6532 H   0  0  0  0  0  0  0  0  0  0  0  0
   -7.6534   -1.1323    1.4547 H   0  0  0  0  0  0  0  0  0  0  0  0
   -6.7740   -2.6735   -0.2841 H   0  0  0  0  0  0  0  0  0  0  0  0
   -4.9799   -1.9840   -1.7550 H   0  0  0  0  0  0  0  0  0  0  0  0
  1  2  2  0
  2  3  1  0
  3  4  1  0
  4  5  1  0
  5  6  1  0
  5  7  1  0
  5  8  1  0
  4  9  1  0
  9 10  1  0
 10 11  2  0
 10 12  1  0
 12 13  1  0
 13 14  2  0
 14 15  1  0
 15 16  2  0
 16 17  1  0
 17 18  2  0
 16 19  1  0
  2 20  1  0
 20 21  1  0
 21 22  1  0
 22 23  2  0
 23 24  1  0
 24 25  2  0
 25 26  1  0
 26 27  2  0
 18 13  1  0
 27 22  1  0
  3 28  1  0
  4 29  1  0
  9 30  1  0
 12 31  1  0
 14 32  1  0
 15 33  1  0
 17 34  1  0
 18 35  1  0
 21 36  1  0
 21 37  1  0
 23 38  1  0
 24 39  1  0
 25 40  1  0
 26 41  1  0
 27 42  1  0
M  END
>  <Ligand ID>  (1) 
LIG0002701

>  <Ligand>  (1) 
MLS-0425699.0001

>  <SMILES>  (1) 
O=C(NC(C(Cl)(Cl)Cl)NC(=S)Nc1ccc(cc1)F)OCc1ccccc1

>  <CID>  (1) 
3091277.0

>  <ChEMBL ID>  (1) 
nan

>  <InChiKey>  (1) 
LAQGRWPEOFXCKF-UHFFFAOYSA-N

>  <InChi>  (1) 
InChI=1S/C17H15Cl3FN3O2S/c18-17(19,20)14(23-15(27)22-13-8-6-12(21)7-9-13)24-16(25)26-10-11-4-2-1-3-5-11/h1-9,14H,10H2,(H,24,25)(H2,22,23,27)

>  <IUPAC Name>  (1) 
benzyl N-[2,2,2-trichloro-1-[(4-fluorophenyl)carbamothioylamino]ethyl]carbamate

$$$$
