
     RDKit          3D

 33 35  0  0  0  0  0  0  0  0999 V2000
    4.4468    0.8774   -0.6768 C   0  0  0  0  0  0  0  0  0  0  0  0
    4.4779   -0.4037   -1.4802 C   0  0  0  0  0  0  0  0  0  0  0  0
    3.4637   -1.2377   -0.9093 N   0  0  0  0  0  0  0  0  0  0  0  0
    2.6726   -0.5361   -0.1663 C   0  0  0  0  0  0  0  0  0  0  0  0
    3.0882    0.8370   -0.1732 N   0  0  0  0  0  0  0  0  0  0  0  0
    1.4920   -0.9943    0.6112 C   0  0  0  0  0  0  0  0  0  0  0  0
    0.2612   -0.3154    0.1769 N   0  0  0  0  0  0  0  0  0  0  0  0
   -0.9618   -0.6459    0.8012 C   0  0  0  0  0  0  0  0  0  0  0  0
   -0.8962   -1.5235    1.8927 C   0  0  0  0  0  0  0  0  0  0  0  0
   -2.0021   -1.8459    2.6407 C   0  0  0  0  0  0  0  0  0  0  0  0
   -3.1946   -1.2660    2.2726 C   0  0  0  0  0  0  0  0  0  0  0  0
   -3.2578   -0.4085    1.2030 C   0  0  0  0  0  0  0  0  0  0  0  0
   -2.1373   -0.0716    0.4288 C   0  0  0  0  0  0  0  0  0  0  0  0
   -2.3760    0.7477   -0.7293 C   0  0  0  0  0  0  0  0  0  0  0  0
   -3.4779    1.6223   -0.7965 C   0  0  0  0  0  0  0  0  0  0  0  0
   -3.4351    2.3272   -1.9760 C   0  0  0  0  0  0  0  0  0  0  0  0
   -2.3403    1.8971   -2.6129 N   0  0  0  0  0  0  0  0  0  0  0  0
   -1.7290    0.9706   -1.8718 N   0  0  0  0  0  0  0  0  0  0  0  0
    5.1958    0.8673    0.1420 H   0  0  0  0  0  0  0  0  0  0  0  0
    4.6461    1.7634   -1.3138 H   0  0  0  0  0  0  0  0  0  0  0  0
    4.2195   -0.2353   -2.5455 H   0  0  0  0  0  0  0  0  0  0  0  0
    5.4650   -0.8945   -1.3744 H   0  0  0  0  0  0  0  0  0  0  0  0
    2.5071    1.6495    0.1320 H   0  0  0  0  0  0  0  0  0  0  0  0
    1.3211   -2.0713    0.4153 H   0  0  0  0  0  0  0  0  0  0  0  0
    1.6437   -0.8505    1.7020 H   0  0  0  0  0  0  0  0  0  0  0  0
    0.4077    0.3945   -0.5574 H   0  0  0  0  0  0  0  0  0  0  0  0
    0.0383   -1.9881    2.1923 H   0  0  0  0  0  0  0  0  0  0  0  0
   -1.9434   -2.5169    3.4726 H   0  0  0  0  0  0  0  0  0  0  0  0
   -4.0749   -1.5004    2.8422 H   0  0  0  0  0  0  0  0  0  0  0  0
   -4.2427    0.0057    0.9804 H   0  0  0  0  0  0  0  0  0  0  0  0
   -4.2596    1.7573   -0.0672 H   0  0  0  0  0  0  0  0  0  0  0  0
   -4.1440    3.0834   -2.3278 H   0  0  0  0  0  0  0  0  0  0  0  0
   -0.8738    0.5051   -2.2302 H   0  0  0  0  0  0  0  0  0  0  0  0
  1  2  1  0
  2  3  1  0
  3  4  2  0
  4  5  1  0
  4  6  1  0
  6  7  1  0
  7  8  1  0
  8  9  2  0
  9 10  1  0
 10 11  2  0
 11 12  1  0
 12 13  2  0
 13 14  1  0
 14 15  2  0
 15 16  1  0
 16 17  2  0
 17 18  1  0
  5  1  1  0
 13  8  1  0
 18 14  1  0
  1 19  1  0
  1 20  1  0
  2 21  1  0
  2 22  1  0
  5 23  1  0
  6 24  1  0
  6 25  1  0
  7 26  1  0
  9 27  1  0
 10 28  1  0
 11 29  1  0
 12 30  1  0
 15 31  1  0
 16 32  1  0
 18 33  1  0
M  END
>  <Ligand ID>  (1) 
LIG0003175

>  <Ligand>  (1) 
CHEMBL277375

>  <SMILES>  (1) 
C1CN=C(N1)CNc1ccccc1c1ccn[nH]1

>  <CID>  (1) 
22493258.0

>  <ChEMBL ID>  (1) 
nan

>  <InChiKey>  (1) 
XQORNBVCMJFJOC-UHFFFAOYSA-N

>  <InChi>  (1) 
InChI=1S/C13H15N5/c1-2-4-11(16-9-13-14-7-8-15-13)10(3-1)12-5-6-17-18-12/h1-6,16H,7-9H2,(H,14,15)(H,17,18)

>  <IUPAC Name>  (1) 
N-(4,5-dihydro-1H-imidazol-2-ylmethyl)-2-(1H-pyrazol-5-yl)aniline

$$$$
