
     RDKit          3D

111114  0  0  0  0  0  0  0  0999 V2000
   10.4783   -0.5519    3.9372 C   0  0  0  0  0  0  0  0  0  0  0  0
   10.5794   -1.0020    2.2008 S   0  0  0  0  0  0  0  0  0  0  0  0
    9.1062   -1.5693    1.4483 C   0  0  0  0  0  0  0  0  0  0  0  0
    8.0295   -0.7892    0.9048 C   0  0  0  0  0  0  0  0  0  0  0  0
    7.3000    0.2509    1.6075 C   0  0  1  0  0  0  0  0  0  0  0  0
    7.9072    1.5050    2.0090 C   0  0  0  0  0  0  0  0  0  0  0  0
    7.1296    2.5499    1.8272 O   0  0  0  0  0  0  0  0  0  0  0  0
    9.1458    1.8347    2.5440 N   0  0  0  0  0  0  0  0  0  0  0  0
    6.0267    0.5960    0.9213 N   0  0  0  0  0  0  0  0  0  0  0  0
    4.8085   -0.0275    1.2299 C   0  0  0  0  0  0  0  0  0  0  0  0
    4.8848   -0.9213    2.1737 O   0  0  0  0  0  0  0  0  0  0  0  0
    3.4900    0.1634    0.6624 C   0  0  1  0  0  0  0  0  0  0  0  0
    3.1676    1.3722   -0.0589 N   0  0  0  0  0  0  0  0  0  0  0  0
    3.6103    1.9253   -1.3029 C   0  0  0  0  0  0  0  0  0  0  0  0
    3.0094    3.3224   -1.3676 C   0  0  2  0  0  0  0  0  0  0  0  0
    1.6835    3.1117   -0.6811 C   0  0  2  0  0  0  0  0  0  0  0  0
    2.1885    2.2975    0.4955 C   0  0  0  0  0  0  0  0  0  0  0  0
    1.7882    2.4617    1.6515 O   0  0  0  0  0  0  0  0  0  0  0  0
    0.9320    2.2499   -1.6097 N   0  0  0  0  0  0  0  0  0  0  0  0
    1.3429    2.6035   -2.9352 C   0  0  0  0  0  0  0  0  0  0  0  0
    2.5059    3.6061   -2.7837 C   0  0  0  0  0  0  0  0  0  0  0  0
   -0.0061    1.3297   -1.0972 C   0  0  0  0  0  0  0  0  0  0  0  0
   -0.1794    1.4295    0.1883 O   0  0  0  0  0  0  0  0  0  0  0  0
   -0.7850    0.3111   -1.7586 C   0  0  2  0  0  0  0  0  0  0  0  0
   -1.3790    0.7270   -3.0681 C   0  0  0  0  0  0  0  0  0  0  0  0
   -2.1359   -0.3839   -3.7099 C   0  0  0  0  0  0  0  0  0  0  0  0
   -1.3477   -1.2708   -4.4604 C   0  0  0  0  0  0  0  0  0  0  0  0
   -1.9259   -2.3264   -5.1181 C   0  0  0  0  0  0  0  0  0  0  0  0
   -3.2834   -2.5721   -5.0804 C   0  0  0  0  0  0  0  0  0  0  0  0
   -4.0464   -1.6899   -4.3374 C   0  0  0  0  0  0  0  0  0  0  0  0
   -3.4647   -0.6090   -3.6631 C   0  0  0  0  0  0  0  0  0  0  0  0
   -1.7439   -0.3147   -0.8428 N   0  0  0  0  0  0  0  0  0  0  0  0
   -2.9965    0.2673   -0.5222 C   0  0  0  0  0  0  0  0  0  0  0  0
   -3.3652    1.3899   -1.0164 O   0  0  0  0  0  0  0  0  0  0  0  0
   -3.9843   -0.3610    0.3986 C   0  0  2  0  0  0  0  0  0  0  0  0
   -4.1673   -1.8244    0.1442 C   0  0  0  0  0  0  0  0  0  0  0  0
   -5.1817   -2.4211    1.0828 C   0  0  0  0  0  0  0  0  0  0  0  0
   -4.7434   -2.8956    2.2933 C   0  0  0  0  0  0  0  0  0  0  0  0
   -5.6794   -3.4436    3.1587 C   0  0  0  0  0  0  0  0  0  0  0  0
   -7.0047   -3.4924    2.7747 C   0  0  0  0  0  0  0  0  0  0  0  0
   -7.4533   -3.0206    1.5643 C   0  0  0  0  0  0  0  0  0  0  0  0
   -6.5227   -2.4695    0.6913 C   0  0  0  0  0  0  0  0  0  0  0  0
   -5.2470    0.2976    0.4128 N   0  0  0  0  0  0  0  0  0  0  0  0
   -5.7337    1.1523    1.4477 C   0  0  0  0  0  0  0  0  0  0  0  0
   -5.0100    1.3653    2.4305 O   0  0  0  0  0  0  0  0  0  0  0  0
   -7.0893    1.7146    1.2373 C   0  0  0  0  0  0  0  0  0  0  0  0
   -7.5253    2.7235    2.2440 C   0  0  0  0  0  0  0  0  0  0  0  0
   -7.5781    2.2302    3.6623 C   0  0  0  0  0  0  0  0  0  0  0  0
   -8.5329    1.0427    3.8196 C   0  0  0  0  0  0  0  0  0  0  0  0
   -9.8408    1.4511    3.4106 N   0  0  0  0  0  0  0  0  0  0  0  0
    2.8673   -1.0922    0.1184 C   0  0  0  0  0  0  0  0  0  0  0  0
    3.4889   -1.8840   -0.9304 C   0  0  0  0  0  0  0  0  0  0  0  0
    3.7702   -1.2668   -2.2586 C   0  0  0  0  0  0  0  0  0  0  0  0
    4.6422   -2.7889   -0.5276 C   0  0  0  0  0  0  0  0  0  0  0  0
   10.8963   -1.3525    4.6028 H   0  0  0  0  0  0  0  0  0  0  0  0
    9.4100   -0.3665    4.1882 H   0  0  0  0  0  0  0  0  0  0  0  0
   11.0479    0.3676    4.1238 H   0  0  0  0  0  0  0  0  0  0  0  0
    9.4532   -2.3695    0.6551 H   0  0  0  0  0  0  0  0  0  0  0  0
    8.6644   -2.3620    2.2108 H   0  0  0  0  0  0  0  0  0  0  0  0
    8.3826   -0.4289   -0.1378 H   0  0  0  0  0  0  0  0  0  0  0  0
    7.1975   -1.5787    0.6321 H   0  0  0  0  0  0  0  0  0  0  0  0
    6.8982   -0.2643    2.5599 H   0  0  0  0  0  0  0  0  0  0  0  0
    9.3439    2.0562    3.5611 H   0  0  0  0  0  0  0  0  0  0  0  0
    9.9747    1.8817    1.8994 H   0  0  0  0  0  0  0  0  0  0  0  0
    6.1044    1.3240    0.2145 H   0  0  0  0  0  0  0  0  0  0  0  0
    2.8287    0.2763    1.6242 H   0  0  0  0  0  0  0  0  0  0  0  0
    4.7079    2.0891   -1.3820 H   0  0  0  0  0  0  0  0  0  0  0  0
    3.2244    1.4153   -2.2150 H   0  0  0  0  0  0  0  0  0  0  0  0
    3.6366    4.1003   -0.9518 H   0  0  0  0  0  0  0  0  0  0  0  0
    1.1553    4.0012   -0.3798 H   0  0  0  0  0  0  0  0  0  0  0  0
    0.5096    3.0926   -3.4906 H   0  0  0  0  0  0  0  0  0  0  0  0
    1.7088    1.7125   -3.4571 H   0  0  0  0  0  0  0  0  0  0  0  0
    3.2953    3.3824   -3.4966 H   0  0  0  0  0  0  0  0  0  0  0  0
    2.0779    4.5979   -2.9082 H   0  0  0  0  0  0  0  0  0  0  0  0
   -0.0616   -0.5339   -2.0613 H   0  0  0  0  0  0  0  0  0  0  0  0
   -2.0698    1.5773   -2.9167 H   0  0  0  0  0  0  0  0  0  0  0  0
   -0.5182    1.0218   -3.7193 H   0  0  0  0  0  0  0  0  0  0  0  0
   -0.2794   -1.1558   -4.5445 H   0  0  0  0  0  0  0  0  0  0  0  0
   -1.3222   -3.0074   -5.6931 H   0  0  0  0  0  0  0  0  0  0  0  0
   -3.6830   -3.4142   -5.6177 H   0  0  0  0  0  0  0  0  0  0  0  0
   -5.1128   -1.8561   -4.2868 H   0  0  0  0  0  0  0  0  0  0  0  0
   -4.1517    0.0158   -3.1292 H   0  0  0  0  0  0  0  0  0  0  0  0
   -1.5250   -1.2480   -0.3806 H   0  0  0  0  0  0  0  0  0  0  0  0
   -3.5652   -0.2270    1.4487 H   0  0  0  0  0  0  0  0  0  0  0  0
   -4.5861   -1.9279   -0.8772 H   0  0  0  0  0  0  0  0  0  0  0  0
   -3.1899   -2.3489    0.2846 H   0  0  0  0  0  0  0  0  0  0  0  0
   -3.7294   -2.8690    2.6111 H   0  0  0  0  0  0  0  0  0  0  0  0
   -5.4412   -3.8390    4.1242 H   0  0  0  0  0  0  0  0  0  0  0  0
   -7.7473   -3.9315    3.4592 H   0  0  0  0  0  0  0  0  0  0  0  0
   -8.5008   -3.0969    1.3419 H   0  0  0  0  0  0  0  0  0  0  0  0
   -6.8335   -2.0879   -0.2686 H   0  0  0  0  0  0  0  0  0  0  0  0
   -5.8746    0.1345   -0.4212 H   0  0  0  0  0  0  0  0  0  0  0  0
   -7.8634    0.8833    1.2322 H   0  0  0  0  0  0  0  0  0  0  0  0
   -7.1881    2.2028    0.2349 H   0  0  0  0  0  0  0  0  0  0  0  0
   -8.4667    3.2421    1.9508 H   0  0  0  0  0  0  0  0  0  0  0  0
   -6.7363    3.5296    2.2405 H   0  0  0  0  0  0  0  0  0  0  0  0
   -7.9983    3.0398    4.3264 H   0  0  0  0  0  0  0  0  0  0  0  0
   -6.5781    1.9811    4.0258 H   0  0  0  0  0  0  0  0  0  0  0  0
   -8.5769    0.7557    4.8991 H   0  0  0  0  0  0  0  0  0  0  0  0
   -8.1543    0.1564    3.2832 H   0  0  0  0  0  0  0  0  0  0  0  0
   -9.9439    2.4210    3.0957 H   0  0  0  0  0  0  0  0  0  0  0  0
  -10.3587    0.7353    2.8481 H   0  0  0  0  0  0  0  0  0  0  0  0
    2.6453   -1.7599    0.9781 H   0  0  0  0  0  0  0  0  0  0  0  0
    1.8420   -0.7783   -0.2426 H   0  0  0  0  0  0  0  0  0  0  0  0
    2.6677   -2.6650   -1.2008 H   0  0  0  0  0  0  0  0  0  0  0  0
    4.1291   -2.1190   -2.9176 H   0  0  0  0  0  0  0  0  0  0  0  0
    4.6463   -0.5865   -2.2399 H   0  0  0  0  0  0  0  0  0  0  0  0
    2.8834   -0.8596   -2.7788 H   0  0  0  0  0  0  0  0  0  0  0  0
    5.5995   -2.4139   -0.9306 H   0  0  0  0  0  0  0  0  0  0  0  0
    4.6456   -3.0305    0.5401 H   0  0  0  0  0  0  0  0  0  0  0  0
    4.5505   -3.8088   -1.0269 H   0  0  0  0  0  0  0  0  0  0  0  0
  1  2  1  0
  2  3  1  0
  3  4  1  0
  4  5  1  0
  5  6  1  0
  6  7  2  0
  6  8  1  0
  5  9  1  0
  9 10  1  0
 10 11  2  0
 10 12  1  0
 12 13  1  0
 13 14  1  0
 14 15  1  0
 15 16  1  0
 16 17  1  0
 17 18  2  0
 16 19  1  0
 19 20  1  0
 20 21  1  0
 19 22  1  0
 22 23  2  0
 22 24  1  0
 24 25  1  0
 25 26  1  0
 26 27  2  0
 27 28  1  0
 28 29  2  0
 29 30  1  0
 30 31  2  0
 24 32  1  0
 32 33  1  0
 33 34  2  0
 33 35  1  0
 35 36  1  0
 36 37  1  0
 37 38  2  0
 38 39  1  0
 39 40  2  0
 40 41  1  0
 41 42  2  0
 35 43  1  0
 43 44  1  0
 44 45  2  0
 44 46  1  0
 46 47  1  0
 47 48  1  0
 48 49  1  0
 49 50  1  0
 12 51  1  0
 51 52  1  0
 52 53  1  0
 52 54  1  0
 17 13  1  0
 31 26  1  0
 42 37  1  0
 21 15  1  0
  1 55  1  0
  1 56  1  0
  1 57  1  0
  3 58  1  0
  3 59  1  0
  4 60  1  0
  4 61  1  0
  5 62  1  1
  8 63  1  0
  8 64  1  0
  9 65  1  0
 12 66  1  1
 14 67  1  0
 14 68  1  0
 15 69  1  1
 16 70  1  1
 20 71  1  0
 20 72  1  0
 21 73  1  0
 21 74  1  0
 24 75  1  6
 25 76  1  0
 25 77  1  0
 27 78  1  0
 28 79  1  0
 29 80  1  0
 30 81  1  0
 31 82  1  0
 32 83  1  0
 35 84  1  1
 36 85  1  0
 36 86  1  0
 38 87  1  0
 39 88  1  0
 40 89  1  0
 41 90  1  0
 42 91  1  0
 43 92  1  0
 46 93  1  0
 46 94  1  0
 47 95  1  0
 47 96  1  0
 48 97  1  0
 48 98  1  0
 49 99  1  0
 49100  1  0
 50101  1  0
 50102  1  0
 51103  1  0
 51104  1  0
 52105  1  0
 53106  1  0
 53107  1  0
 53108  1  0
 54109  1  0
 54110  1  0
 54111  1  0
M  END
>  <Ligand ID>  (1) 
LIG0003423

>  <Ligand>  (1) 
CHEMBL134012

>  <SMILES>  (1) 
CSCC[C@@H](C(=O)N)NC(=O)[C@@H](N1C[C@@H]2[C@H](C1=O)N(CC2)C(=O)[C@H](Cc1ccccc1)NC(=O)[C@H](Cc1ccccc1)NC(=O)CCCCN)CC(C)C

>  <CID>  (1) 
10462850.0

>  <ChEMBL ID>  (1) 
nan

>  <InChiKey>  (1) 
URIRKOHAMZPMCD-ZBFBRDKDSA-N

>  <InChi>  (1) 
InChI=1S/C40H57N7O6S/c1-26(2)22-33(38(51)44-30(36(42)49)18-21-54-3)47-25-29-17-20-46(35(29)40(47)53)39(52)32(24-28-14-8-5-9-15-28)45-37(50)31(23-27-12-6-4-7-13-27)43-34(48)16-10-11-19-41/h4-9,12-15,26,29-33,35H,10-11,16-25,41H2,1-3H3,(H2,42,49)(H,43,48)(H,44,51)(H,45,50)/t29-,30+,31+,32+,33+,35-/m1/s1

>  <IUPAC Name>  (1) 
(2S)-2-[(3aR,6aR)-1-[(2S)-2-[[(2S)-2-(5-aminopentanoylamino)-3-phenylpropanoyl]amino]-3-phenylpropanoyl]-6-oxo-3,3a,4,6a-tetrahydro-2H-pyrrolo[2,3-c]pyrrol-5-yl]-N-[(2S)-1-amino-4-methylsulfanyl-1-oxobutan-2-yl]-4-methylpentanamide

$$$$
