
     RDKit          3D

 32 34  0  0  0  0  0  0  0  0999 V2000
    3.0626    1.6027    0.7789 C   0  0  0  0  0  0  0  0  0  0  0  0
    2.6867    0.3030    0.1601 C   0  0  0  0  0  0  0  0  0  0  0  0
    3.6152   -0.6431   -0.2245 C   0  0  0  0  0  0  0  0  0  0  0  0
    3.2150   -1.8336   -0.7944 C   0  0  0  0  0  0  0  0  0  0  0  0
    1.8761   -2.1103   -0.9953 C   0  0  0  0  0  0  0  0  0  0  0  0
    0.9287   -1.1618   -0.6108 C   0  0  0  0  0  0  0  0  0  0  0  0
    1.3410    0.0239   -0.0423 C   0  0  0  0  0  0  0  0  0  0  0  0
    0.3412    1.0069    0.3605 C   0  0  0  0  0  0  0  0  0  0  0  0
    0.6263    2.1138    0.8854 O   0  0  0  0  0  0  0  0  0  0  0  0
   -1.0241    0.6535    0.1282 N   0  0  0  0  0  0  0  0  0  0  0  0
   -1.3295   -0.7647    0.1241 C   0  0  2  0  0  0  0  0  0  0  0  0
   -0.4922   -1.5116   -0.8552 C   0  0  0  0  0  0  0  0  0  0  0  0
   -2.8100   -0.8781   -0.1436 C   0  0  0  0  0  0  0  0  0  0  0  0
   -3.5011   -0.0639    0.8140 N   0  0  0  0  0  0  0  0  0  0  0  0
   -3.2962    1.3554    0.6256 C   0  0  0  0  0  0  0  0  0  0  0  0
   -2.0233    1.6829   -0.0863 C   0  0  0  0  0  0  0  0  0  0  0  0
    2.7252    1.6919    1.8286 H   0  0  0  0  0  0  0  0  0  0  0  0
    4.1783    1.6049    0.8402 H   0  0  0  0  0  0  0  0  0  0  0  0
    2.8140    2.4673    0.1384 H   0  0  0  0  0  0  0  0  0  0  0  0
    4.6540   -0.4090   -0.0597 H   0  0  0  0  0  0  0  0  0  0  0  0
    4.0074   -2.5242   -1.0687 H   0  0  0  0  0  0  0  0  0  0  0  0
    1.5918   -3.0552   -1.4458 H   0  0  0  0  0  0  0  0  0  0  0  0
   -1.1380   -1.2262    1.1266 H   0  0  0  0  0  0  0  0  0  0  0  0
   -0.7270   -1.1655   -1.9022 H   0  0  0  0  0  0  0  0  0  0  0  0
   -0.6677   -2.5920   -0.7642 H   0  0  0  0  0  0  0  0  0  0  0  0
   -3.1954   -1.9094   -0.0734 H   0  0  0  0  0  0  0  0  0  0  0  0
   -3.0220   -0.4547   -1.1658 H   0  0  0  0  0  0  0  0  0  0  0  0
   -3.1146   -0.2854    1.7752 H   0  0  0  0  0  0  0  0  0  0  0  0
   -3.3583    1.9266    1.5599 H   0  0  0  0  0  0  0  0  0  0  0  0
   -4.1497    1.7106   -0.0234 H   0  0  0  0  0  0  0  0  0  0  0  0
   -2.1699    1.7956   -1.1832 H   0  0  0  0  0  0  0  0  0  0  0  0
   -1.6447    2.6498    0.2929 H   0  0  0  0  0  0  0  0  0  0  0  0
  1  2  1  0
  2  3  2  0
  3  4  1  0
  4  5  2  0
  5  6  1  0
  6  7  2  0
  7  8  1  0
  8  9  2  0
  8 10  1  0
 10 11  1  0
 11 12  1  0
 11 13  1  0
 13 14  1  0
 14 15  1  0
 15 16  1  0
  7  2  1  0
 16 10  1  0
 12  6  1  0
  1 17  1  0
  1 18  1  0
  1 19  1  0
  3 20  1  0
  4 21  1  0
  5 22  1  0
 11 23  1  1
 12 24  1  0
 12 25  1  0
 13 26  1  0
 13 27  1  0
 14 28  1  0
 15 29  1  0
 15 30  1  0
 16 31  1  0
 16 32  1  0
M  END
>  <Ligand ID>  (1) 
LIG0003884

>  <Ligand>  (1) 
SCHEMBL3556773

>  <SMILES>  (1) 
Cc1cccc2c1C(=O)N1[C@H](C2)CNCC1

>  <CID>  (1) 
24826790.0

>  <ChEMBL ID>  (1) 
nan

>  <InChiKey>  (1) 
MAFYWOPXNIVLKX-LLVKDONJSA-N

>  <InChi>  (1) 
InChI=1S/C13H16N2O/c1-9-3-2-4-10-7-11-8-14-5-6-15(11)13(16)12(9)10/h2-4,11,14H,5-8H2,1H3/t11-/m1/s1

>  <IUPAC Name>  (1) 
(11aR)-7-methyl-1,2,3,4,11,11a-hexahydropyrazino[1,2-b]isoquinolin-6-one

$$$$
