
     RDKit          3D

167171  0  0  0  0  0  0  0  0999 V2000
   -8.7839    4.9179   -2.1207 C   0  0  0  0  0  0  0  0  0  0  0  0
   -9.0297    4.3137   -0.8409 N   0  0  0  0  0  0  0  0  0  0  0  0
   -9.4336    5.0522    0.1440 C   0  0  0  0  0  0  0  0  0  0  0  0
   -9.6964    4.5245    1.4456 N   0  0  0  0  0  0  0  0  0  0  0  0
   -8.8806    3.3538    1.8328 C   0  0  0  0  0  0  0  0  0  0  0  0
   -9.2655    3.0160    3.2255 C   0  0  0  0  0  0  0  0  0  0  0  0
   -8.5681    1.8933    3.8784 C   0  0  0  0  0  0  0  0  0  0  0  0
   -8.6794    0.5296    3.3004 C   0  0  1  0  0  0  0  0  0  0  0  0
  -10.0244   -0.0355    3.2208 C   0  0  0  0  0  0  0  0  0  0  0  0
  -10.7576    0.0456    4.2474 O   0  0  0  0  0  0  0  0  0  0  0  0
  -10.5070   -0.6559    2.0438 N   0  0  0  0  0  0  0  0  0  0  0  0
  -11.8600   -1.2377    1.9400 C   0  0  2  0  0  0  0  0  0  0  0  0
  -11.8819   -2.5928    1.4303 C   0  0  0  0  0  0  0  0  0  0  0  0
  -12.9245   -3.3306    1.3982 O   0  0  0  0  0  0  0  0  0  0  0  0
  -10.7004   -3.2050    0.9172 N   0  0  0  0  0  0  0  0  0  0  0  0
  -12.6192   -0.2755    1.0609 C   0  0  0  0  0  0  0  0  0  0  0  0
  -13.9971   -0.6266    0.7370 C   0  0  0  0  0  0  0  0  0  0  0  0
  -15.1486   -0.2294    1.4277 C   0  0  0  0  0  0  0  0  0  0  0  0
  -16.2352   -0.8006    0.8321 N   0  0  0  0  0  0  0  0  0  0  0  0
  -15.8348   -1.5518   -0.2193 C   0  0  0  0  0  0  0  0  0  0  0  0
  -14.4461   -1.4582   -0.2971 C   0  0  0  0  0  0  0  0  0  0  0  0
  -13.8332   -2.1441   -1.3196 C   0  0  0  0  0  0  0  0  0  0  0  0
  -14.5074   -2.9078   -2.2517 C   0  0  0  0  0  0  0  0  0  0  0  0
  -15.8794   -2.9978   -2.1679 C   0  0  0  0  0  0  0  0  0  0  0  0
  -16.5322   -2.3216   -1.1561 C   0  0  0  0  0  0  0  0  0  0  0  0
   -7.9232    0.3255    2.0615 N   0  0  0  0  0  0  0  0  0  0  0  0
   -6.5436   -0.0683    2.1075 C   0  0  0  0  0  0  0  0  0  0  0  0
   -6.0018   -0.2077    3.2563 O   0  0  0  0  0  0  0  0  0  0  0  0
   -5.7551   -0.3143    0.8719 C   0  0  1  0  0  0  0  0  0  0  0  0
   -4.3772   -0.5609    1.2476 N   0  0  0  0  0  0  0  0  0  0  0  0
   -3.2905    0.0950    0.5582 C   0  0  0  0  0  0  0  0  0  0  0  0
   -3.6098    0.8522   -0.3611 O   0  0  0  0  0  0  0  0  0  0  0  0
   -1.9823   -0.1628    0.9624 N   0  0  0  0  0  0  0  0  0  0  0  0
   -0.7747    0.2885    0.4640 N   0  0  0  0  0  0  0  0  0  0  0  0
   -0.5102    1.0694   -0.6677 C   0  0  0  0  0  0  0  0  0  0  0  0
   -1.5033    1.4569   -1.3784 O   0  0  0  0  0  0  0  0  0  0  0  0
    0.8027    1.5125   -1.1666 C   0  0  1  0  0  0  0  0  0  0  0  0
    1.8518    1.1412   -0.2818 N   0  0  0  0  0  0  0  0  0  0  0  0
    3.1907    1.6663   -0.5191 C   0  0  0  0  0  0  0  0  0  0  0  0
    3.3643    2.4209   -1.5206 O   0  0  0  0  0  0  0  0  0  0  0  0
    4.2721    1.2815    0.4127 C   0  0  2  0  0  0  0  0  0  0  0  0
    4.3033    2.1538    1.6627 C   0  0  2  0  0  0  0  0  0  0  0  0
    5.3630    1.6650    2.4315 O   0  0  0  0  0  0  0  0  0  0  0  0
    3.0548    1.8832    2.4611 C   0  0  0  0  0  0  0  0  0  0  0  0
    5.5442    1.4010   -0.2886 N   0  0  0  0  0  0  0  0  0  0  0  0
    6.3967    0.2879   -0.2713 C   0  0  0  0  0  0  0  0  0  0  0  0
    5.9999   -0.7515    0.3689 O   0  0  0  0  0  0  0  0  0  0  0  0
    7.7210    0.1496   -0.9074 C   0  0  1  0  0  0  0  0  0  0  0  0
    8.1820   -1.1859   -0.5474 N   0  0  0  0  0  0  0  0  0  0  0  0
    9.4314   -1.4732    0.0395 C   0  0  0  0  0  0  0  0  0  0  0  0
   10.2074   -0.5000    0.2540 O   0  0  0  0  0  0  0  0  0  0  0  0
    9.8330   -2.8417    0.3979 C   0  0  0  0  0  0  0  0  0  0  0  0
    8.9564   -3.8861    0.2546 C   0  0  0  0  0  0  0  0  0  0  0  0
    9.3578   -5.1636    0.6325 C   0  0  0  0  0  0  0  0  0  0  0  0
   10.6011   -5.4152    1.1440 C   0  0  0  0  0  0  0  0  0  0  0  0
   11.4993   -4.3697    1.2945 C   0  0  0  0  0  0  0  0  0  0  0  0
   11.0690   -3.0941    0.9056 C   0  0  0  0  0  0  0  0  0  0  0  0
   11.9641   -1.9646    1.0141 N   0  0  0  0  0  0  0  0  0  0  0  0
   12.7752   -1.7386   -0.1359 C   0  0  0  0  0  0  0  0  0  0  0  0
   12.6060   -2.5608   -1.1046 O   0  0  0  0  0  0  0  0  0  0  0  0
   13.7556   -0.6535   -0.2569 C   0  0  1  0  0  0  0  0  0  0  0  0
   13.5153    0.2455   -1.4453 C   0  0  0  0  0  0  0  0  0  0  0  0
   14.6130    1.2638   -1.3987 C   0  0  0  0  0  0  0  0  0  0  0  0
   14.5088    2.4542   -0.7210 C   0  0  0  0  0  0  0  0  0  0  0  0
   15.5897    3.3158   -0.7403 C   0  0  0  0  0  0  0  0  0  0  0  0
   16.7399    2.9649   -1.4336 C   0  0  0  0  0  0  0  0  0  0  0  0
   16.8556    1.7673   -2.1218 C   0  0  0  0  0  0  0  0  0  0  0  0
   15.7710    0.9196   -2.0927 C   0  0  0  0  0  0  0  0  0  0  0  0
   17.8575    3.8139   -1.4750 O   0  0  0  0  0  0  0  0  0  0  0  0
   13.7270    0.1817    0.9400 N   0  0  0  0  0  0  0  0  0  0  0  0
   14.8405    0.3508    1.8028 C   0  0  0  0  0  0  0  0  0  0  0  0
   15.9117   -0.2687    1.4933 O   0  0  0  0  0  0  0  0  0  0  0  0
   14.7004    1.2106    2.9777 C   0  0  0  0  0  0  0  0  0  0  0  0
    7.6972    0.3232   -2.4035 C   0  0  0  0  0  0  0  0  0  0  0  0
    6.8069   -0.6780   -3.0190 C   0  0  0  0  0  0  0  0  0  0  0  0
    6.1198   -1.5285   -2.4207 O   0  0  0  0  0  0  0  0  0  0  0  0
    6.7099   -0.6856   -4.4532 N   0  0  0  0  0  0  0  0  0  0  0  0
    0.9561    0.7185   -2.5019 C   0  0  0  0  0  0  0  0  0  0  0  0
    0.9484   -0.7377   -2.2659 C   0  0  0  0  0  0  0  0  0  0  0  0
   -0.1822   -1.5205   -2.2312 C   0  0  0  0  0  0  0  0  0  0  0  0
   -0.0519   -2.8548   -2.0030 C   0  0  0  0  0  0  0  0  0  0  0  0
    1.1692   -3.4308   -1.8071 C   0  0  0  0  0  0  0  0  0  0  0  0
    2.3294   -2.6827   -1.8335 C   0  0  0  0  0  0  0  0  0  0  0  0
    2.2125   -1.3231   -2.0665 C   0  0  0  0  0  0  0  0  0  0  0  0
   -6.2508   -1.6174    0.2579 C   0  0  0  0  0  0  0  0  0  0  0  0
   -5.5666   -2.0354   -0.9873 C   0  0  0  0  0  0  0  0  0  0  0  0
   -5.6373   -1.0983   -2.1424 C   0  0  0  0  0  0  0  0  0  0  0  0
   -6.1638   -3.3777   -1.4482 C   0  0  0  0  0  0  0  0  0  0  0  0
   -9.6512    6.4661   -0.0104 N   0  0  0  0  0  0  0  0  0  0  0  0
   -9.2258    5.9436   -2.1212 H   0  0  0  0  0  0  0  0  0  0  0  0
   -9.1935    4.3413   -2.9553 H   0  0  0  0  0  0  0  0  0  0  0  0
   -7.6899    5.0599   -2.2970 H   0  0  0  0  0  0  0  0  0  0  0  0
  -10.4031    4.9387    2.0573 H   0  0  0  0  0  0  0  0  0  0  0  0
   -7.8048    3.5691    1.7890 H   0  0  0  0  0  0  0  0  0  0  0  0
   -9.1441    2.5943    1.0825 H   0  0  0  0  0  0  0  0  0  0  0  0
  -10.3670    2.9262    3.3341 H   0  0  0  0  0  0  0  0  0  0  0  0
   -9.0268    3.9379    3.8452 H   0  0  0  0  0  0  0  0  0  0  0  0
   -8.9510    1.8267    4.9286 H   0  0  0  0  0  0  0  0  0  0  0  0
   -7.4818    2.1164    3.9920 H   0  0  0  0  0  0  0  0  0  0  0  0
   -8.0795   -0.1154    4.0383 H   0  0  0  0  0  0  0  0  0  0  0  0
   -9.9368   -0.7432    1.1777 H   0  0  0  0  0  0  0  0  0  0  0  0
  -12.3152   -1.1860    2.9628 H   0  0  0  0  0  0  0  0  0  0  0  0
   -9.9785   -3.6616    1.5195 H   0  0  0  0  0  0  0  0  0  0  0  0
  -10.5815   -3.1803   -0.1219 H   0  0  0  0  0  0  0  0  0  0  0  0
  -12.0959   -0.0888    0.0934 H   0  0  0  0  0  0  0  0  0  0  0  0
  -12.6516    0.7502    1.5384 H   0  0  0  0  0  0  0  0  0  0  0  0
  -15.2135    0.4156    2.2940 H   0  0  0  0  0  0  0  0  0  0  0  0
  -17.2315   -0.7040    1.1034 H   0  0  0  0  0  0  0  0  0  0  0  0
  -12.7605   -2.0797   -1.3955 H   0  0  0  0  0  0  0  0  0  0  0  0
  -13.9399   -3.4132   -3.0184 H   0  0  0  0  0  0  0  0  0  0  0  0
  -16.3883   -3.6043   -2.9095 H   0  0  0  0  0  0  0  0  0  0  0  0
  -17.6250   -2.3992   -1.0980 H   0  0  0  0  0  0  0  0  0  0  0  0
   -8.3232    0.4400    1.1201 H   0  0  0  0  0  0  0  0  0  0  0  0
   -5.8402    0.5268    0.2022 H   0  0  0  0  0  0  0  0  0  0  0  0
   -4.2204   -1.2275    2.0291 H   0  0  0  0  0  0  0  0  0  0  0  0
   -1.8922   -0.8303    1.8087 H   0  0  0  0  0  0  0  0  0  0  0  0
    0.0714    0.0027    1.0282 H   0  0  0  0  0  0  0  0  0  0  0  0
    0.9162    2.5523   -1.4725 H   0  0  0  0  0  0  0  0  0  0  0  0
    1.7989    0.5146    0.5416 H   0  0  0  0  0  0  0  0  0  0  0  0
    4.1805    0.2536    0.7774 H   0  0  0  0  0  0  0  0  0  0  0  0
    4.3694    3.2214    1.4629 H   0  0  0  0  0  0  0  0  0  0  0  0
    6.2259    2.0411    2.1971 H   0  0  0  0  0  0  0  0  0  0  0  0
    2.1943    2.3878    1.9674 H   0  0  0  0  0  0  0  0  0  0  0  0
    2.9146    0.7959    2.6070 H   0  0  0  0  0  0  0  0  0  0  0  0
    3.2169    2.3076    3.4838 H   0  0  0  0  0  0  0  0  0  0  0  0
    5.8559    2.2486   -0.7973 H   0  0  0  0  0  0  0  0  0  0  0  0
    8.4551    0.8766   -0.4736 H   0  0  0  0  0  0  0  0  0  0  0  0
    7.5376   -1.9613   -0.7296 H   0  0  0  0  0  0  0  0  0  0  0  0
    7.9618   -3.8013   -0.1346 H   0  0  0  0  0  0  0  0  0  0  0  0
    8.6680   -6.0108    0.5257 H   0  0  0  0  0  0  0  0  0  0  0  0
   10.8401   -6.4384    1.4192 H   0  0  0  0  0  0  0  0  0  0  0  0
   12.4931   -4.5434    1.7000 H   0  0  0  0  0  0  0  0  0  0  0  0
   12.0216   -1.3554    1.8459 H   0  0  0  0  0  0  0  0  0  0  0  0
   14.7545   -1.0913   -0.3634 H   0  0  0  0  0  0  0  0  0  0  0  0
   12.5473    0.7920   -1.2816 H   0  0  0  0  0  0  0  0  0  0  0  0
   13.5414   -0.2841   -2.4110 H   0  0  0  0  0  0  0  0  0  0  0  0
   13.5952    2.6757   -0.2009 H   0  0  0  0  0  0  0  0  0  0  0  0
   15.5448    4.2622   -0.2212 H   0  0  0  0  0  0  0  0  0  0  0  0
   17.7413    1.4754   -2.6652 H   0  0  0  0  0  0  0  0  0  0  0  0
   15.8486   -0.0290   -2.6292 H   0  0  0  0  0  0  0  0  0  0  0  0
   18.7662    3.3786   -1.3092 H   0  0  0  0  0  0  0  0  0  0  0  0
   12.7983    0.6641    1.1246 H   0  0  0  0  0  0  0  0  0  0  0  0
   13.6919    1.1009    3.4113 H   0  0  0  0  0  0  0  0  0  0  0  0
   15.5147    0.9975    3.7144 H   0  0  0  0  0  0  0  0  0  0  0  0
   14.7668    2.2874    2.6597 H   0  0  0  0  0  0  0  0  0  0  0  0
    7.4428    1.3566   -2.6891 H   0  0  0  0  0  0  0  0  0  0  0  0
    8.7342    0.0517   -2.7575 H   0  0  0  0  0  0  0  0  0  0  0  0
    6.5171    0.2103   -4.9668 H   0  0  0  0  0  0  0  0  0  0  0  0
    6.8338   -1.5947   -4.9558 H   0  0  0  0  0  0  0  0  0  0  0  0
    0.0314    0.9753   -3.0689 H   0  0  0  0  0  0  0  0  0  0  0  0
    1.8120    1.0536   -3.0779 H   0  0  0  0  0  0  0  0  0  0  0  0
   -1.1431   -1.0641   -2.3879 H   0  0  0  0  0  0  0  0  0  0  0  0
   -0.9209   -3.5029   -1.9734 H   0  0  0  0  0  0  0  0  0  0  0  0
    1.2981   -4.4944   -1.6247 H   0  0  0  0  0  0  0  0  0  0  0  0
    3.3217   -3.1322   -1.6836 H   0  0  0  0  0  0  0  0  0  0  0  0
    3.1068   -0.7527   -2.0890 H   0  0  0  0  0  0  0  0  0  0  0  0
   -6.0796   -2.4037    1.0285 H   0  0  0  0  0  0  0  0  0  0  0  0
   -7.3386   -1.6021    0.0669 H   0  0  0  0  0  0  0  0  0  0  0  0
   -4.4919   -2.2836   -0.8001 H   0  0  0  0  0  0  0  0  0  0  0  0
   -6.0073   -0.0898   -1.8965 H   0  0  0  0  0  0  0  0  0  0  0  0
   -6.3507   -1.4984   -2.8922 H   0  0  0  0  0  0  0  0  0  0  0  0
   -4.6606   -1.0480   -2.7119 H   0  0  0  0  0  0  0  0  0  0  0  0
   -6.1828   -3.4124   -2.5596 H   0  0  0  0  0  0  0  0  0  0  0  0
   -5.6117   -4.2361   -1.0439 H   0  0  0  0  0  0  0  0  0  0  0  0
   -7.2331   -3.3514   -1.1242 H   0  0  0  0  0  0  0  0  0  0  0  0
  -10.6147    6.7984   -0.1463 H   0  0  0  0  0  0  0  0  0  0  0  0
   -8.8149    7.0989    0.0232 H   0  0  0  0  0  0  0  0  0  0  0  0
  1  2  1  0
  2  3  2  3
  3  4  1  0
  4  5  1  0
  5  6  1  0
  6  7  1  0
  7  8  1  0
  8  9  1  0
  9 10  2  0
  9 11  1  0
 11 12  1  0
 12 13  1  0
 13 14  2  0
 13 15  1  0
 12 16  1  0
 16 17  1  0
 17 18  2  0
 18 19  1  0
 19 20  1  0
 20 21  2  0
 21 22  1  0
 22 23  2  0
 23 24  1  0
 24 25  2  0
  8 26  1  0
 26 27  1  0
 27 28  2  0
 27 29  1  0
 29 30  1  0
 30 31  1  0
 31 32  2  0
 31 33  1  0
 33 34  1  0
 34 35  1  0
 35 36  2  0
 35 37  1  0
 37 38  1  0
 38 39  1  0
 39 40  2  0
 39 41  1  0
 41 42  1  0
 42 43  1  0
 42 44  1  0
 41 45  1  0
 45 46  1  0
 46 47  2  0
 46 48  1  0
 48 49  1  0
 49 50  1  0
 50 51  2  0
 50 52  1  0
 52 53  2  0
 53 54  1  0
 54 55  2  0
 55 56  1  0
 56 57  2  0
 57 58  1  0
 58 59  1  0
 59 60  2  0
 59 61  1  0
 61 62  1  0
 62 63  1  0
 63 64  2  0
 64 65  1  0
 65 66  2  0
 66 67  1  0
 67 68  2  0
 66 69  1  0
 61 70  1  0
 70 71  1  0
 71 72  2  0
 71 73  1  0
 48 74  1  0
 74 75  1  0
 75 76  2  0
 75 77  1  0
 37 78  1  0
 78 79  1  0
 79 80  2  0
 80 81  1  0
 81 82  2  0
 82 83  1  0
 83 84  2  0
 29 85  1  0
 85 86  1  0
 86 87  1  0
 86 88  1  0
  3 89  1  0
 21 17  1  0
 57 52  1  0
 68 63  1  0
 84 79  1  0
 25 20  1  0
  1 90  1  0
  1 91  1  0
  1 92  1  0
  4 93  1  0
  5 94  1  0
  5 95  1  0
  6 96  1  0
  6 97  1  0
  7 98  1  0
  7 99  1  0
  8100  1  1
 11101  1  0
 12102  1  1
 15103  1  0
 15104  1  0
 16105  1  0
 16106  1  0
 18107  1  0
 19108  1  0
 22109  1  0
 23110  1  0
 24111  1  0
 25112  1  0
 26113  1  0
 29114  1  6
 30115  1  0
 33116  1  0
 34117  1  0
 37118  1  6
 38119  1  0
 41120  1  1
 42121  1  6
 43122  1  0
 44123  1  0
 44124  1  0
 44125  1  0
 45126  1  0
 48127  1  1
 49128  1  0
 53129  1  0
 54130  1  0
 55131  1  0
 56132  1  0
 58133  1  0
 61134  1  6
 62135  1  0
 62136  1  0
 64137  1  0
 65138  1  0
 67139  1  0
 68140  1  0
 69141  1  0
 70142  1  0
 73143  1  0
 73144  1  0
 73145  1  0
 74146  1  0
 74147  1  0
 77148  1  0
 77149  1  0
 78150  1  0
 78151  1  0
 80152  1  0
 81153  1  0
 82154  1  0
 83155  1  0
 84156  1  0
 85157  1  0
 85158  1  0
 86159  1  0
 87160  1  0
 87161  1  0
 87162  1  0
 88163  1  0
 88164  1  0
 88165  1  0
 89166  1  0
 89167  1  0
M  END
>  <Ligand ID>  (1) 
LIG0005353

>  <Ligand>  (1) 
CHEMBL3938759

>  <SMILES>  (1) 
CN=C(NCCC[C@@H](C(=O)N[C@H](C(=O)N)Cc1c[nH]c2c1cccc2)NC(=O)[C@@H](NC(=O)NNC(=O)[C@@H](NC(=O)[C@H]([C@H](O)C)NC(=O)[C@@H](NC(=O)c1ccccc1NC(=O)[C@@H](Cc1ccc(cc1)O)NC(=O)C)CC(=O)N)Cc1ccccc1)CC(C)C)N

>  <CID>  (1) 
25075978.0

>  <ChEMBL ID>  (1) 
nan

>  <InChiKey>  (1) 
LNIKCJTWMKURPI-CGEFZVLASA-N

>  <InChi>  (1) 
InChI=1S/C60H78N16O13/c1-32(2)26-45(54(84)69-43(20-13-25-65-59(63)64-5)53(83)70-44(51(62)81)29-37-31-66-41-18-11-9-16-39(37)41)73-60(89)76-75-57(87)47(27-35-14-7-6-8-15-35)72-58(88)50(33(3)77)74-56(86)48(30-49(61)80)71-52(82)40-17-10-12-19-42(40)68-55(85)46(67-34(4)78)28-36-21-23-38(79)24-22-36/h6-12,14-19,21-24,31-33,43-48,50,66,77,79H,13,20,25-30H2,1-5H3,(H2,61,80)(H2,62,81)(H,67,78)(H,68,85)(H,69,84)(H,70,83)(H,71,82)(H,72,88)(H,74,86)(H,75,87)(H3,63,64,65)(H2,73,76,89)/t33-,43+,44+,45+,46-,47+,48+,50+/m1/s1

>  <IUPAC Name>  (1) 
(2S)-2-[[2-[[(2R)-2-acetamido-3-(4-hydroxyphenyl)propanoyl]amino]benzoyl]amino]-N-[(2S,3R)-1-[[(2S)-1-[2-[[(2S)-1-[[(2S)-1-[[(2S)-1-amino-3-(1H-indol-3-yl)-1-oxopropan-2-yl]amino]-5-[(N'-methylcarbamimidoyl)amino]-1-oxopentan-2-yl]amino]-4-methyl-1-oxopentan-2-yl]carbamoyl]hydrazinyl]-1-oxo-3-phenylpropan-2-yl]amino]-3-hydroxy-1-oxobutan-2-yl]butanediamide

$$$$
