
     RDKit          3D

 29 28  0  0  0  0  0  0  0  0999 V2000
   -4.2573    0.3479   -0.0277 C   0  0  0  0  0  0  0  0  0  0  0  0
   -3.2287    0.5696    1.0451 C   0  0  0  0  0  0  0  0  0  0  0  0
   -1.8128    0.4666    0.4938 C   0  0  0  0  0  0  0  0  0  0  0  0
   -1.5496   -0.8857   -0.1036 C   0  0  0  0  0  0  0  0  0  0  0  0
   -0.1415   -0.9050   -0.6346 C   0  0  0  0  0  0  0  0  0  0  0  0
    0.8955   -0.6546    0.4327 C   0  0  0  0  0  0  0  0  0  0  0  0
    2.2982   -0.7058   -0.1993 C   0  0  0  0  0  0  0  0  0  0  0  0
    3.2732   -0.4556    0.8821 C   0  0  0  0  0  0  0  0  0  0  0  0
    4.1290    0.5518    0.8935 C   0  0  0  0  0  0  0  0  0  0  0  0
    4.2240    1.5402   -0.1480 C   0  0  0  0  0  0  0  0  0  0  0  0
    5.0712    2.4502   -0.0327 O   0  0  0  0  0  0  0  0  0  0  0  0
   -3.8424    0.2051   -1.0369 H   0  0  0  0  0  0  0  0  0  0  0  0
   -5.0761    1.1134    0.0061 H   0  0  0  0  0  0  0  0  0  0  0  0
   -4.7737   -0.6245    0.2127 H   0  0  0  0  0  0  0  0  0  0  0  0
   -3.3668   -0.1046    1.9202 H   0  0  0  0  0  0  0  0  0  0  0  0
   -3.3425    1.6112    1.4178 H   0  0  0  0  0  0  0  0  0  0  0  0
   -1.1094    0.6338    1.3362 H   0  0  0  0  0  0  0  0  0  0  0  0
   -1.6853    1.2180   -0.2888 H   0  0  0  0  0  0  0  0  0  0  0  0
   -2.2268   -1.0651   -0.9767 H   0  0  0  0  0  0  0  0  0  0  0  0
   -1.6226   -1.7058    0.6379 H   0  0  0  0  0  0  0  0  0  0  0  0
    0.0972   -1.8372   -1.1801 H   0  0  0  0  0  0  0  0  0  0  0  0
   -0.0278   -0.0772   -1.3879 H   0  0  0  0  0  0  0  0  0  0  0  0
    0.8142    0.3960    0.8389 H   0  0  0  0  0  0  0  0  0  0  0  0
    0.8206   -1.3615    1.2639 H   0  0  0  0  0  0  0  0  0  0  0  0
    2.4312   -1.7257   -0.6287 H   0  0  0  0  0  0  0  0  0  0  0  0
    2.3548    0.0207   -1.0000 H   0  0  0  0  0  0  0  0  0  0  0  0
    3.2561   -1.1765    1.7156 H   0  0  0  0  0  0  0  0  0  0  0  0
    4.7851    0.5972    1.7676 H   0  0  0  0  0  0  0  0  0  0  0  0
    3.6128    1.5628   -1.0392 H   0  0  0  0  0  0  0  0  0  0  0  0
  1  2  1  0
  2  3  1  0
  3  4  1  0
  4  5  1  0
  5  6  1  0
  6  7  1  0
  7  8  1  0
  8  9  2  0
  9 10  1  0
 10 11  2  0
  1 12  1  0
  1 13  1  0
  1 14  1  0
  2 15  1  0
  2 16  1  0
  3 17  1  0
  3 18  1  0
  4 19  1  0
  4 20  1  0
  5 21  1  0
  5 22  1  0
  6 23  1  0
  6 24  1  0
  7 25  1  0
  7 26  1  0
  8 27  1  0
  9 28  1  0
 10 29  1  0
M  END
>  <Ligand ID>  (1) 
LIG0000228

>  <Ligand>  (1) 
(Z)-2-Decenal

>  <SMILES>  (1) 
CCCCCCC/C=C\C=O

>  <CID>  (1) 
5354834.0

>  <ChEMBL ID>  (1) 
nan

>  <InChiKey>  (1) 
MMFCJPPRCYDLLZ-HJWRWDBZSA-N

>  <InChi>  (1) 
InChI=1S/C10H18O/c1-2-3-4-5-6-7-8-9-10-11/h8-10H,2-7H2,1H3/b9-8-

>  <IUPAC Name>  (1) 
(Z)-dec-2-enal

$$$$
