
     RDKit          3D

 42 43  0  0  0  0  0  0  0  0999 V2000
   -2.3047   -1.1497   -3.1518 O   0  0  0  0  0  0  0  0  0  0  0  0
   -1.4262   -0.5358   -2.2642 C   0  0  0  0  0  0  0  0  0  0  0  0
   -0.4055    0.2060   -2.8111 C   0  0  0  0  0  0  0  0  0  0  0  0
    0.4654    0.8141   -1.9353 C   0  0  0  0  0  0  0  0  0  0  0  0
    0.3323    0.6925   -0.5468 C   0  0  0  0  0  0  0  0  0  0  0  0
   -0.6973   -0.0548   -0.0094 C   0  0  0  0  0  0  0  0  0  0  0  0
   -1.5826   -0.6732   -0.8748 C   0  0  0  0  0  0  0  0  0  0  0  0
   -2.6629   -1.4869   -0.4722 N   0  0  0  0  0  0  0  0  0  0  0  0
   -4.2701   -0.9435   -0.2218 S   0  0  0  0  0  0  0  0  0  0  0  0
   -5.1692   -2.1319    0.0466 O   0  0  0  0  0  0  0  0  0  0  0  0
   -4.8167   -0.3204   -1.5012 O   0  0  0  0  0  0  0  0  0  0  0  0
   -4.4381    0.2657    1.0471 C   0  0  0  0  0  0  0  0  0  0  0  0
   -0.8974   -0.2356    1.4550 C   0  0  0  0  0  0  0  0  0  0  0  0
    0.4011    0.1154    2.1677 C   0  0  0  0  0  0  0  0  0  0  0  0
    0.8880    1.4904    1.6730 C   0  0  0  0  0  0  0  0  0  0  0  0
    1.3606    1.3960    0.2541 C   0  0  0  0  0  0  0  0  0  0  0  0
    2.6955    0.7315    0.2059 C   0  0  0  0  0  0  0  0  0  0  0  0
    3.2911    0.2289    1.2522 N   0  0  0  0  0  0  0  0  0  0  0  0
    4.5716   -0.3499    0.8992 C   0  0  0  0  0  0  0  0  0  0  0  0
    4.3554   -0.6262   -0.5787 C   0  0  0  0  0  0  0  0  0  0  0  0
    3.5267    0.5303   -0.9319 N   0  0  0  0  0  0  0  0  0  0  0  0
    0.7622    0.0000    0.0000 Br  0  0  0  0  0  0  0  0  0  0  0  0
   -2.8017   -1.9623   -2.8097 H   0  0  0  0  0  0  0  0  0  0  0  0
   -0.3095    0.2946   -3.8838 H   0  0  0  0  0  0  0  0  0  0  0  0
    1.2616    1.3987   -2.3838 H   0  0  0  0  0  0  0  0  0  0  0  0
   -2.4506   -2.5014   -0.3175 H   0  0  0  0  0  0  0  0  0  0  0  0
   -3.7939    1.1497    0.8731 H   0  0  0  0  0  0  0  0  0  0  0  0
   -4.1014   -0.1521    2.0190 H   0  0  0  0  0  0  0  0  0  0  0  0
   -5.4790    0.6405    1.1037 H   0  0  0  0  0  0  0  0  0  0  0  0
   -1.0917   -1.3079    1.6585 H   0  0  0  0  0  0  0  0  0  0  0  0
   -1.7280    0.3973    1.8312 H   0  0  0  0  0  0  0  0  0  0  0  0
    0.1418    0.2598    3.2352 H   0  0  0  0  0  0  0  0  0  0  0  0
    1.1636   -0.6568    2.1016 H   0  0  0  0  0  0  0  0  0  0  0  0
    0.0383    2.1681    1.7952 H   0  0  0  0  0  0  0  0  0  0  0  0
    1.7328    1.7713    2.3611 H   0  0  0  0  0  0  0  0  0  0  0  0
    1.4260    2.4505   -0.1229 H   0  0  0  0  0  0  0  0  0  0  0  0
    5.3436    0.4141    1.0522 H   0  0  0  0  0  0  0  0  0  0  0  0
    4.7917   -1.2720    1.4769 H   0  0  0  0  0  0  0  0  0  0  0  0
    3.8083   -1.5806   -0.7129 H   0  0  0  0  0  0  0  0  0  0  0  0
    5.2922   -0.5580   -1.1705 H   0  0  0  0  0  0  0  0  0  0  0  0
    3.5388    1.0835   -1.8082 H   0  0  0  0  0  0  0  0  0  0  0  0
   -0.7622    0.0000    0.0000 H   0  0  0  0  0  0  0  0  0  0  0  0
  1  2  1  0
  2  3  2  0
  3  4  1  0
  4  5  2  0
  5  6  1  0
  6  7  2  0
  7  8  1  0
  8  9  1  0
  9 10  2  0
  9 11  2  0
  9 12  1  0
  6 13  1  0
 13 14  1  0
 14 15  1  0
 15 16  1  0
 16 17  1  0
 17 18  2  0
 18 19  1  0
 19 20  1  0
 20 21  1  0
  7  2  1  0
 21 17  1  0
 16  5  1  0
  1 23  1  0
  3 24  1  0
  4 25  1  0
  8 26  1  0
 12 27  1  0
 12 28  1  0
 12 29  1  0
 13 30  1  0
 13 31  1  0
 14 32  1  0
 14 33  1  0
 15 34  1  0
 15 35  1  0
 16 36  1  0
 19 37  1  0
 19 38  1  0
 20 39  1  0
 20 40  1  0
 21 41  1  0
 22 42  1  0
M  END
>  <Ligand ID>  (1) 
LIG0004951

>  <Ligand>  (1) 
A 61603 HYDROBROMIDE

>  <SMILES>  (1) 
Oc1ccc2c(c1NS(=O)(=O)C)CCCC2C1=NCCN1.Br

>  <CID>  (1) 
9865178.0

>  <ChEMBL ID>  (1) 
nan

>  <InChiKey>  (1) 
LRFLWCZMTGTUEP-UHFFFAOYSA-N

>  <InChi>  (1) 
InChI=1S/C14H19N3O3S.BrH/c1-21(19,20)17-13-10-3-2-4-11(14-15-7-8-16-14)9(10)5-6-12(13)18;/h5-6,11,17-18H,2-4,7-8H2,1H3,(H,15,16);1H

>  <IUPAC Name>  (1) 
N-[5-(4,5-dihydro-1H-imidazol-2-yl)-2-hydroxy-5,6,7,8-tetrahydronaphthalen-1-yl]methanesulfonamide;hydrobromide

$$$$
