
     RDKit          3D

 50 52  0  0  0  0  0  0  0  0999 V2000
    5.5871   -0.3705   -0.7536 N   0  0  0  0  0  0  0  0  0  0  0  0
    5.2543   -1.0758    0.4394 C   0  0  0  0  0  0  0  0  0  0  0  0
    4.3864   -2.0041    0.5120 N   0  0  0  0  0  0  0  0  0  0  0  0
    3.6160   -2.4740   -0.6041 C   0  0  0  0  0  0  0  0  0  0  0  0
    2.1497   -2.0032   -0.5468 C   0  0  0  0  0  0  0  0  0  0  0  0
    2.1920   -0.5295   -0.5559 C   0  0  0  0  0  0  0  0  0  0  0  0
    0.9532    0.2519   -0.5187 C   0  0  0  0  0  0  0  0  0  0  0  0
    1.2599    1.6947   -0.5481 N   0  0  0  0  0  0  0  0  0  0  0  0
    0.3964    2.8238   -0.5268 C   0  0  0  0  0  0  0  0  0  0  0  0
    0.7974    3.8760   -1.1316 O   0  0  0  0  0  0  0  0  0  0  0  0
   -0.9069    2.8792    0.1280 C   0  0  0  0  0  0  0  0  0  0  0  0
   -1.6136    1.8384    0.7293 C   0  0  0  0  0  0  0  0  0  0  0  0
   -1.3055    0.4541    0.8761 N   0  0  0  0  0  0  0  0  0  0  0  0
   -0.0066   -0.0989    0.5240 C   0  0  0  0  0  0  0  0  0  0  0  0
    0.2672   -1.0627    1.3225 O   0  0  0  0  0  0  0  0  0  0  0  0
   -2.2947   -0.4504    1.3935 C   0  0  0  0  0  0  0  0  0  0  0  0
   -3.1242   -1.1303    0.3653 C   0  0  0  0  0  0  0  0  0  0  0  0
   -4.3309   -0.6431   -0.0954 C   0  0  0  0  0  0  0  0  0  0  0  0
   -5.0813   -1.2924   -1.0597 C   0  0  0  0  0  0  0  0  0  0  0  0
   -4.6603   -2.4689   -1.6152 C   0  0  0  0  0  0  0  0  0  0  0  0
   -3.4596   -2.9844   -1.1785 C   0  0  0  0  0  0  0  0  0  0  0  0
   -2.7146   -2.3389   -0.2206 C   0  0  0  0  0  0  0  0  0  0  0  0
   -2.8222    2.1767    1.2854 C   0  0  0  0  0  0  0  0  0  0  0  0
   -3.3041    3.4658    1.2491 C   0  0  0  0  0  0  0  0  0  0  0  0
   -2.6008    4.4914    0.6524 C   0  0  0  0  0  0  0  0  0  0  0  0
   -1.3843    4.1647    0.0900 C   0  0  0  0  0  0  0  0  0  0  0  0
    5.9576   -0.6962    1.6228 N   0  0  0  0  0  0  0  0  0  0  0  0
    5.1625    0.5934   -0.8851 H   0  0  0  0  0  0  0  0  0  0  0  0
    6.2240   -0.7670   -1.4874 H   0  0  0  0  0  0  0  0  0  0  0  0
    4.1093   -2.0946   -1.5155 H   0  0  0  0  0  0  0  0  0  0  0  0
    3.6885   -3.5764   -0.6263 H   0  0  0  0  0  0  0  0  0  0  0  0
    1.7130   -2.4105   -1.4807 H   0  0  0  0  0  0  0  0  0  0  0  0
    1.7580   -2.4934    0.3610 H   0  0  0  0  0  0  0  0  0  0  0  0
    2.8611   -0.2375   -1.4194 H   0  0  0  0  0  0  0  0  0  0  0  0
    2.8175   -0.2221    0.3363 H   0  0  0  0  0  0  0  0  0  0  0  0
    0.4390    0.0726   -1.5084 H   0  0  0  0  0  0  0  0  0  0  0  0
    2.2936    1.9475   -0.5947 H   0  0  0  0  0  0  0  0  0  0  0  0
   -1.6516   -1.3309    1.7736 H   0  0  0  0  0  0  0  0  0  0  0  0
   -2.7970   -0.1915    2.3197 H   0  0  0  0  0  0  0  0  0  0  0  0
   -4.7539    0.2772    0.2795 H   0  0  0  0  0  0  0  0  0  0  0  0
   -6.0267   -0.8773   -1.3970 H   0  0  0  0  0  0  0  0  0  0  0  0
   -5.2059   -2.9970   -2.3562 H   0  0  0  0  0  0  0  0  0  0  0  0
   -3.0435   -3.9190   -1.5651 H   0  0  0  0  0  0  0  0  0  0  0  0
   -1.7593   -2.7702    0.1119 H   0  0  0  0  0  0  0  0  0  0  0  0
   -3.4281    1.4414    1.7728 H   0  0  0  0  0  0  0  0  0  0  0  0
   -4.2635    3.7428    1.6884 H   0  0  0  0  0  0  0  0  0  0  0  0
   -2.9719    5.5060    0.6194 H   0  0  0  0  0  0  0  0  0  0  0  0
   -0.8202    4.9473   -0.3794 H   0  0  0  0  0  0  0  0  0  0  0  0
    5.7629    0.2137    2.1215 H   0  0  0  0  0  0  0  0  0  0  0  0
    6.6844   -1.3477    1.9964 H   0  0  0  0  0  0  0  0  0  0  0  0
  1  2  1  0
  2  3  2  3
  3  4  1  0
  4  5  1  0
  5  6  1  0
  6  7  1  0
  7  8  1  0
  8  9  1  0
  9 10  2  0
  9 11  1  0
 11 12  2  0
 12 13  1  0
 13 14  1  0
 14 15  2  0
 13 16  1  0
 16 17  1  0
 17 18  2  0
 18 19  1  0
 19 20  2  0
 20 21  1  0
 21 22  2  0
 12 23  1  0
 23 24  2  0
 24 25  1  0
 25 26  2  0
  2 27  1  0
 14  7  1  0
 22 17  1  0
 26 11  1  0
  1 28  1  0
  1 29  1  0
  4 30  1  0
  4 31  1  0
  5 32  1  0
  5 33  1  0
  6 34  1  0
  6 35  1  0
  7 36  1  0
  8 37  1  0
 16 38  1  0
 16 39  1  0
 18 40  1  0
 19 41  1  0
 20 42  1  0
 21 43  1  0
 22 44  1  0
 23 45  1  0
 24 46  1  0
 25 47  1  0
 26 48  1  0
 27 49  1  0
 27 50  1  0
M  END
>  <Ligand ID>  (1) 
LIG0001264

>  <Ligand>  (1) 
CHEMBL272662

>  <SMILES>  (1) 
NC(=NCCCC1NC(=O)c2c(N(C1=O)Cc1ccccc1)cccc2)N

>  <CID>  (1) 
44457034.0

>  <ChEMBL ID>  (1) 
nan

>  <InChiKey>  (1) 
ISYKEWZFNMQKFW-UHFFFAOYSA-N

>  <InChi>  (1) 
InChI=1S/C20H23N5O2/c21-20(22)23-12-6-10-16-19(27)25(13-14-7-2-1-3-8-14)17-11-5-4-9-15(17)18(26)24-16/h1-5,7-9,11,16H,6,10,12-13H2,(H,24,26)(H4,21,22,23)

>  <IUPAC Name>  (1) 
2-[3-(1-benzyl-2,5-dioxo-3,4-dihydro-1,4-benzodiazepin-3-yl)propyl]guanidine

$$$$
