
     RDKit          3D

 51 54  0  0  0  0  0  0  0  0999 V2000
    8.3210    1.7818    1.7811 O   0  0  0  0  0  0  0  0  0  0  0  0
    7.1604    1.8044    1.0314 C   0  0  0  0  0  0  0  0  0  0  0  0
    7.0637    2.6416    0.1015 O   0  0  0  0  0  0  0  0  0  0  0  0
    6.0896    0.8358    1.3672 C   0  0  0  0  0  0  0  0  0  0  0  0
    4.9020    1.0118    0.4412 C   0  0  0  0  0  0  0  0  0  0  0  0
    3.7830    0.0343    0.7562 C   0  0  0  0  0  0  0  0  0  0  0  0
    2.6141    0.2434   -0.1925 C   0  0  0  0  0  0  0  0  0  0  0  0
    3.0613    0.0306   -1.5577 N   0  0  0  0  0  0  0  0  0  0  0  0
    1.9685    0.2225   -2.4902 C   0  0  0  0  0  0  0  0  0  0  0  0
    0.8683   -0.6645   -2.2775 C   0  0  0  0  0  0  0  0  0  0  0  0
    0.7780   -2.3430   -3.1438 S   0  0  0  0  0  0  0  0  0  0  0  0
   -0.8386   -2.7614   -2.3442 C   0  0  0  0  0  0  0  0  0  0  0  0
   -1.1295   -1.6581   -1.5513 C   0  0  0  0  0  0  0  0  0  0  0  0
   -0.2770   -0.6388   -1.5337 C   0  0  0  0  0  0  0  0  0  0  0  0
   -2.3509   -1.7942   -0.8532 C   0  0  0  0  0  0  0  0  0  0  0  0
   -3.1205   -2.9252   -0.9914 C   0  0  0  0  0  0  0  0  0  0  0  0
   -2.7764   -3.9803   -1.7920 C   0  0  0  0  0  0  0  0  0  0  0  0
   -1.5907   -3.8772   -2.4847 C   0  0  0  0  0  0  0  0  0  0  0  0
   -2.8385   -0.7661    0.0488 C   0  0  0  0  0  0  0  0  0  0  0  0
   -2.0825   -0.1944    1.0480 C   0  0  0  0  0  0  0  0  0  0  0  0
   -2.6569    0.7947    1.8474 C   0  0  0  0  0  0  0  0  0  0  0  0
   -3.9657    1.2058    1.6521 C   0  0  0  0  0  0  0  0  0  0  0  0
   -4.7250    0.6331    0.6507 C   0  0  0  0  0  0  0  0  0  0  0  0
   -4.1486   -0.3453   -0.1364 C   0  0  0  0  0  0  0  0  0  0  0  0
   -6.0433    1.0068    0.4099 C   0  0  0  0  0  0  0  0  0  0  0  0
   -6.5929    1.9862    1.2112 C   0  0  0  0  0  0  0  0  0  0  0  0
   -5.8696    2.5897    2.2286 C   0  0  0  0  0  0  0  0  0  0  0  0
   -4.5657    2.1811    2.4241 C   0  0  0  0  0  0  0  0  0  0  0  0
    9.1921    2.2253    1.5053 H   0  0  0  0  0  0  0  0  0  0  0  0
    6.4925   -0.1897    1.3425 H   0  0  0  0  0  0  0  0  0  0  0  0
    5.7856    1.0589    2.4123 H   0  0  0  0  0  0  0  0  0  0  0  0
    5.2403    0.8948   -0.6086 H   0  0  0  0  0  0  0  0  0  0  0  0
    4.5437    2.0510    0.5586 H   0  0  0  0  0  0  0  0  0  0  0  0
    4.1695   -0.9875    0.7260 H   0  0  0  0  0  0  0  0  0  0  0  0
    3.4380    0.2241    1.7933 H   0  0  0  0  0  0  0  0  0  0  0  0
    2.2664    1.2748   -0.0878 H   0  0  0  0  0  0  0  0  0  0  0  0
    1.8488   -0.5232    0.0342 H   0  0  0  0  0  0  0  0  0  0  0  0
    3.4809   -0.9225   -1.6296 H   0  0  0  0  0  0  0  0  0  0  0  0
    2.4175    0.0260   -3.5068 H   0  0  0  0  0  0  0  0  0  0  0  0
    1.6572    1.2636   -2.4811 H   0  0  0  0  0  0  0  0  0  0  0  0
   -0.4569    0.2875   -0.9183 H   0  0  0  0  0  0  0  0  0  0  0  0
   -4.0477   -2.9990   -0.4460 H   0  0  0  0  0  0  0  0  0  0  0  0
   -3.3589   -4.8790   -1.9202 H   0  0  0  0  0  0  0  0  0  0  0  0
   -1.2261   -4.6591   -3.1469 H   0  0  0  0  0  0  0  0  0  0  0  0
   -1.0685   -0.5111    1.2132 H   0  0  0  0  0  0  0  0  0  0  0  0
   -2.1016    1.2725    2.6444 H   0  0  0  0  0  0  0  0  0  0  0  0
   -4.7601   -0.7765   -0.9100 H   0  0  0  0  0  0  0  0  0  0  0  0
   -6.6036    0.5221   -0.3970 H   0  0  0  0  0  0  0  0  0  0  0  0
   -7.6239    2.2694    1.0129 H   0  0  0  0  0  0  0  0  0  0  0  0
   -6.3141    3.3641    2.8572 H   0  0  0  0  0  0  0  0  0  0  0  0
   -4.0083    2.6584    3.2214 H   0  0  0  0  0  0  0  0  0  0  0  0
  1  2  1  0
  2  3  2  0
  2  4  1  0
  4  5  1  0
  5  6  1  0
  6  7  1  0
  7  8  1  0
  8  9  1  0
  9 10  1  0
 10 11  1  0
 11 12  1  0
 12 13  2  0
 13 14  1  0
 13 15  1  0
 15 16  2  0
 16 17  1  0
 17 18  2  0
 15 19  1  0
 19 20  2  0
 20 21  1  0
 21 22  2  0
 22 23  1  0
 23 24  2  0
 23 25  1  0
 25 26  2  0
 26 27  1  0
 27 28  2  0
 14 10  2  0
 24 19  1  0
 18 12  1  0
 28 22  1  0
  1 29  1  0
  4 30  1  0
  4 31  1  0
  5 32  1  0
  5 33  1  0
  6 34  1  0
  6 35  1  0
  7 36  1  0
  7 37  1  0
  8 38  1  0
  9 39  1  0
  9 40  1  0
 14 41  1  0
 16 42  1  0
 17 43  1  0
 18 44  1  0
 20 45  1  0
 21 46  1  0
 24 47  1  0
 25 48  1  0
 26 49  1  0
 27 50  1  0
 28 51  1  0
M  END
>  <Ligand ID>  (1) 
LIG0001277

>  <Ligand>  (1) 
CHEMBL3883572

>  <SMILES>  (1) 
OC(=O)CCCCNCc1sc2c(c1)c(ccc2)c1ccc2c(c1)cccc2

>  <CID>  (1) 
134130884.0

>  <ChEMBL ID>  (1) 
nan

>  <InChiKey>  (1) 
DOOZBFNXMHQNIG-UHFFFAOYSA-N

>  <InChi>  (1) 
InChI=1S/C24H23NO2S/c26-24(27)10-3-4-13-25-16-20-15-22-21(8-5-9-23(22)28-20)19-12-11-17-6-1-2-7-18(17)14-19/h1-2,5-9,11-12,14-15,25H,3-4,10,13,16H2,(H,26,27)

>  <IUPAC Name>  (1) 
5-[(4-naphthalen-2-yl-1-benzothiophen-2-yl)methylamino]pentanoic acid

$$$$
