
     RDKit          3D

 32 33  0  0  0  0  0  0  0  0999 V2000
   -1.7994    2.0256   -3.1283 O   0  0  0  0  0  0  0  0  0  0  0  0
   -1.5986    1.2567   -2.2314 N   0  0  0  0  0  0  0  0  0  0  0  0
   -2.4253    1.3338   -1.0557 C   0  0  0  0  0  0  0  0  0  0  0  0
   -2.5001    0.0517   -0.3152 C   0  0  0  0  0  0  0  0  0  0  0  0
   -3.6428   -0.7328   -0.4102 C   0  0  0  0  0  0  0  0  0  0  0  0
   -3.7476   -1.9239    0.2638 C   0  0  0  0  0  0  0  0  0  0  0  0
   -2.6923   -2.3199    1.0354 C   0  0  0  0  0  0  0  0  0  0  0  0
   -1.5514   -1.5507    1.1388 C   0  0  0  0  0  0  0  0  0  0  0  0
   -1.4271   -0.3413    0.4633 C   0  0  0  0  0  0  0  0  0  0  0  0
   -0.3357    0.4685    0.5170 O   0  0  0  0  0  0  0  0  0  0  0  0
    0.8527    0.3111    1.2129 C   0  0  0  0  0  0  0  0  0  0  0  0
    2.0552    0.3176    0.3091 C   0  0  0  0  0  0  0  0  0  0  0  0
    3.0529    1.1359    0.3097 N   0  0  0  0  0  0  0  0  0  0  0  0
    4.0156    0.8048   -0.7241 C   0  0  0  0  0  0  0  0  0  0  0  0
    3.6980   -0.6516   -0.9934 C   0  0  0  0  0  0  0  0  0  0  0  0
    2.2670   -0.6486   -0.7442 N   0  0  0  0  0  0  0  0  0  0  0  0
    1.0704    1.4326    2.2188 C   0  0  0  0  0  0  0  0  0  0  0  0
   -2.1122    2.1742   -0.4002 H   0  0  0  0  0  0  0  0  0  0  0  0
   -3.4445    1.5994   -1.4142 H   0  0  0  0  0  0  0  0  0  0  0  0
   -4.4739   -0.4002   -1.0308 H   0  0  0  0  0  0  0  0  0  0  0  0
   -4.6688   -2.5039    0.1562 H   0  0  0  0  0  0  0  0  0  0  0  0
   -2.7318   -3.2557    1.5856 H   0  0  0  0  0  0  0  0  0  0  0  0
   -0.7436   -1.9035    1.7597 H   0  0  0  0  0  0  0  0  0  0  0  0
    0.8248   -0.6311    1.8078 H   0  0  0  0  0  0  0  0  0  0  0  0
    5.0529    0.9228   -0.3920 H   0  0  0  0  0  0  0  0  0  0  0  0
    3.8084    1.3407   -1.6879 H   0  0  0  0  0  0  0  0  0  0  0  0
    3.9469   -0.9447   -2.0320 H   0  0  0  0  0  0  0  0  0  0  0  0
    4.2292   -1.2371   -0.2435 H   0  0  0  0  0  0  0  0  0  0  0  0
    1.5110   -1.2100   -1.2038 H   0  0  0  0  0  0  0  0  0  0  0  0
    1.8417    1.0831    2.9402 H   0  0  0  0  0  0  0  0  0  0  0  0
    1.4911    2.3332    1.7261 H   0  0  0  0  0  0  0  0  0  0  0  0
    0.1774    1.6632    2.8212 H   0  0  0  0  0  0  0  0  0  0  0  0
  1  2  2  0
  2  3  1  0
  3  4  1  0
  4  5  2  0
  5  6  1  0
  6  7  2  0
  7  8  1  0
  8  9  2  0
  9 10  1  0
 10 11  1  0
 11 12  1  0
 12 13  2  0
 13 14  1  0
 14 15  1  0
 15 16  1  0
 11 17  1  0
  9  4  1  0
 16 12  1  0
  3 18  1  0
  3 19  1  0
  5 20  1  0
  6 21  1  0
  7 22  1  0
  8 23  1  0
 11 24  1  0
 14 25  1  0
 14 26  1  0
 15 27  1  0
 15 28  1  0
 16 29  1  0
 17 30  1  0
 17 31  1  0
 17 32  1  0
M  END
>  <Ligand ID>  (1) 
LIG0003520

>  <Ligand>  (1) 
BDBM50412249

>  <SMILES>  (1) 
O=NCc1ccccc1OC(C1=NCCN1)C

>  <CID>  (1) 
91900410.0

>  <ChEMBL ID>  (1) 
nan

>  <InChiKey>  (1) 
FZLNIHYBYXMHEO-UHFFFAOYSA-N

>  <InChi>  (1) 
InChI=1S/C12H15N3O2/c1-9(12-13-6-7-14-12)17-11-5-3-2-4-10(11)8-15-16/h2-5,9H,6-8H2,1H3,(H,13,14)

>  <IUPAC Name>  (1) 
2-[1-[2-(nitrosomethyl)phenoxy]ethyl]-4,5-dihydro-1H-imidazole

$$$$
