
     RDKit          3D

 66 68  0  0  0  0  0  0  0  0999 V2000
    3.0544    0.1494    1.4677 C   0  0  0  0  0  0  0  0  0  0  0  0
    3.7256    0.5238    0.1759 C   0  0  2  0  0  0  0  0  0  0  0  0
    2.8622    0.4819   -1.0384 C   0  0  0  0  0  0  0  0  0  0  0  0
    1.7482    1.3672   -0.8835 N   0  0  0  0  0  0  0  0  0  0  0  0
    0.5140    1.0594   -0.2668 C   0  0  0  0  0  0  0  0  0  0  0  0
    0.1659   -0.1842    0.2105 C   0  0  0  0  0  0  0  0  0  0  0  0
   -1.0531   -0.4406    0.8279 C   0  0  0  0  0  0  0  0  0  0  0  0
   -1.9900    0.5570    0.9944 C   0  0  0  0  0  0  0  0  0  0  0  0
   -1.6589    1.8090    0.5219 C   0  0  0  0  0  0  0  0  0  0  0  0
   -0.4507    2.0594   -0.0887 C   0  0  0  0  0  0  0  0  0  0  0  0
   -3.2531    0.2235    1.6534 C   0  0  0  0  0  0  0  0  0  0  0  0
   -4.2460   -0.2304    0.6053 C   0  0  0  0  0  0  0  0  0  0  0  0
   -4.4312    0.8646   -0.3373 N   0  0  0  0  0  0  0  0  0  0  0  0
   -5.5683    0.3870   -1.5636 S   0  0  0  0  0  0  0  0  0  0  0  0
   -5.6939    1.5221   -2.5130 O   0  0  0  0  0  0  0  0  0  0  0  0
   -5.0157   -0.8363   -2.2254 O   0  0  0  0  0  0  0  0  0  0  0  0
   -7.1015    0.0436   -0.7959 C   0  0  0  0  0  0  0  0  0  0  0  0
   -7.4461   -1.2043   -0.3289 C   0  0  0  0  0  0  0  0  0  0  0  0
   -8.6677   -1.4266    0.2692 C   0  0  0  0  0  0  0  0  0  0  0  0
   -9.5498   -0.3718    0.3951 C   0  0  0  0  0  0  0  0  0  0  0  0
   -9.1943    0.8666   -0.0745 C   0  0  0  0  0  0  0  0  0  0  0  0
   -7.9822    1.1211   -0.6764 C   0  0  0  0  0  0  0  0  0  0  0  0
  -10.8979   -0.5299    1.0333 C   0  0  0  0  0  0  0  0  0  0  0  0
    4.8569   -0.3800   -0.0091 N   0  0  0  0  0  0  0  0  0  0  0  0
    5.5913   -0.1212   -1.2165 C   0  0  0  0  0  0  0  0  0  0  0  0
    6.7825   -1.0882   -1.2992 C   0  0  1  0  0  0  0  0  0  0  0  0
    7.7331   -0.8884   -0.1910 C   0  0  0  0  0  0  0  0  0  0  0  0
    7.6032   -1.4590    1.0576 C   0  0  0  0  0  0  0  0  0  0  0  0
    8.5201   -1.2365    2.0761 C   0  0  0  0  0  0  0  0  0  0  0  0
    9.6144   -0.4225    1.8731 C   0  0  0  0  0  0  0  0  0  0  0  0
    9.7650    0.1590    0.6314 C   0  0  0  0  0  0  0  0  0  0  0  0
    8.8507   -0.0659   -0.3757 C   0  0  0  0  0  0  0  0  0  0  0  0
   11.1209    1.2180    0.2491 Cl  0  0  0  0  0  0  0  0  0  0  0  0
    6.3519   -2.4086   -1.3172 O   0  0  0  0  0  0  0  0  0  0  0  0
    2.7303   -0.8898    1.4901 H   0  0  0  0  0  0  0  0  0  0  0  0
    2.2909    0.8951    1.7871 H   0  0  0  0  0  0  0  0  0  0  0  0
    3.8364    0.2230    2.2892 H   0  0  0  0  0  0  0  0  0  0  0  0
    4.1877    1.5522    0.2599 H   0  0  0  0  0  0  0  0  0  0  0  0
    2.5526   -0.5613   -1.2813 H   0  0  0  0  0  0  0  0  0  0  0  0
    3.4224    0.8612   -1.9416 H   0  0  0  0  0  0  0  0  0  0  0  0
    1.8346    2.3611   -1.2606 H   0  0  0  0  0  0  0  0  0  0  0  0
    0.8297   -1.0079    0.1050 H   0  0  0  0  0  0  0  0  0  0  0  0
   -1.2746   -1.4365    1.1847 H   0  0  0  0  0  0  0  0  0  0  0  0
   -2.3922    2.5863    0.6531 H   0  0  0  0  0  0  0  0  0  0  0  0
   -0.2669    3.0795   -0.4348 H   0  0  0  0  0  0  0  0  0  0  0  0
   -3.0775   -0.6110    2.3807 H   0  0  0  0  0  0  0  0  0  0  0  0
   -3.6219    1.0780    2.2556 H   0  0  0  0  0  0  0  0  0  0  0  0
   -5.1934   -0.5951    1.0102 H   0  0  0  0  0  0  0  0  0  0  0  0
   -3.7081   -1.0289    0.0167 H   0  0  0  0  0  0  0  0  0  0  0  0
   -3.5512    1.0725   -0.8590 H   0  0  0  0  0  0  0  0  0  0  0  0
   -6.7187   -2.0105   -0.4486 H   0  0  0  0  0  0  0  0  0  0  0  0
   -8.9516   -2.4001    0.6402 H   0  0  0  0  0  0  0  0  0  0  0  0
   -9.8969    1.6942    0.0288 H   0  0  0  0  0  0  0  0  0  0  0  0
   -7.7541    2.1064   -1.0257 H   0  0  0  0  0  0  0  0  0  0  0  0
  -10.7882   -0.2528    2.1095 H   0  0  0  0  0  0  0  0  0  0  0  0
  -11.6119    0.1657    0.5714 H   0  0  0  0  0  0  0  0  0  0  0  0
  -11.2330   -1.5822    0.9176 H   0  0  0  0  0  0  0  0  0  0  0  0
    5.5347   -0.1571    0.7853 H   0  0  0  0  0  0  0  0  0  0  0  0
    5.9494    0.9242   -1.2847 H   0  0  0  0  0  0  0  0  0  0  0  0
    4.9774   -0.2875   -2.1385 H   0  0  0  0  0  0  0  0  0  0  0  0
    7.3476   -0.8808   -2.2617 H   0  0  0  0  0  0  0  0  0  0  0  0
    6.7818   -2.1031    1.2740 H   0  0  0  0  0  0  0  0  0  0  0  0
    8.4081   -1.6891    3.0506 H   0  0  0  0  0  0  0  0  0  0  0  0
   10.3596   -0.2135    2.6286 H   0  0  0  0  0  0  0  0  0  0  0  0
    8.9585    0.3914   -1.3711 H   0  0  0  0  0  0  0  0  0  0  0  0
    5.3784   -2.4022   -1.4783 H   0  0  0  0  0  0  0  0  0  0  0  0
  1  2  1  0
  2  3  1  0
  3  4  1  0
  4  5  1  0
  5  6  2  0
  6  7  1  0
  7  8  2  0
  8  9  1  0
  9 10  2  0
  8 11  1  0
 11 12  1  0
 12 13  1  0
 13 14  1  0
 14 15  2  0
 14 16  2  0
 14 17  1  0
 17 18  2  0
 18 19  1  0
 19 20  2  0
 20 21  1  0
 21 22  2  0
 20 23  1  0
  2 24  1  0
 24 25  1  0
 25 26  1  0
 26 27  1  0
 27 28  2  0
 28 29  1  0
 29 30  2  0
 30 31  1  0
 31 32  2  0
 31 33  1  0
 26 34  1  0
 10  5  1  0
 22 17  1  0
 32 27  1  0
  1 35  1  0
  1 36  1  0
  1 37  1  0
  2 38  1  1
  3 39  1  0
  3 40  1  0
  4 41  1  0
  6 42  1  0
  7 43  1  0
  9 44  1  0
 10 45  1  0
 11 46  1  0
 11 47  1  0
 12 48  1  0
 12 49  1  0
 13 50  1  0
 18 51  1  0
 19 52  1  0
 21 53  1  0
 22 54  1  0
 23 55  1  0
 23 56  1  0
 23 57  1  0
 24 58  1  0
 25 59  1  0
 25 60  1  0
 26 61  1  6
 28 62  1  0
 29 63  1  0
 30 64  1  0
 32 65  1  0
 34 66  1  0
M  END
>  <Ligand ID>  (1) 
LIG0003839

>  <Ligand>  (1) 
CHEMBL348269

>  <SMILES>  (1) 
C[C@H](CNc1ccc(cc1)CCNS(=O)(=O)c1ccc(cc1)C)NC[C@@H](c1cccc(c1)Cl)O

>  <CID>  (1) 
11005613.0

>  <ChEMBL ID>  (1) 
nan

>  <InChiKey>  (1) 
QZSYRRXEBNSEIL-IBVKSMDESA-N

>  <InChi>  (1) 
InChI=1S/C26H32ClN3O3S/c1-19-6-12-25(13-7-19)34(32,33)30-15-14-21-8-10-24(11-9-21)29-17-20(2)28-18-26(31)22-4-3-5-23(27)16-22/h3-13,16,20,26,28-31H,14-15,17-18H2,1-2H3/t20-,26+/m1/s1

>  <IUPAC Name>  (1) 
N-[2-[4-[[(2R)-2-[[(2R)-2-(3-chlorophenyl)-2-hydroxyethyl]amino]propyl]amino]phenyl]ethyl]-4-methylbenzenesulfonamide

$$$$
