
     RDKit          3D

 72 76  0  0  0  0  0  0  0  0999 V2000
    2.1010   -1.4630    1.5120 O   0  0  0  0  0  0  0  0  0  0  0  0
    1.7287   -1.2010    0.3162 C   0  0  0  0  0  0  0  0  0  0  0  0
    2.7701   -0.5174   -0.5196 C   0  0  2  0  0  0  0  0  0  0  0  0
    3.2969    0.5993    0.3146 C   0  0  0  0  0  0  0  0  0  0  0  0
    4.3443    1.4181   -0.3097 C   0  0  0  0  0  0  0  0  0  0  0  0
    5.6298    0.9209   -0.4029 C   0  0  0  0  0  0  0  0  0  0  0  0
    6.0463   -0.3991    0.0831 C   0  0  0  0  0  0  0  0  0  0  0  0
    6.6154    1.7147   -0.9992 C   0  0  0  0  0  0  0  0  0  0  0  0
    6.3644    2.9624   -1.4949 C   0  0  0  0  0  0  0  0  0  0  0  0
    5.0906    3.4548   -1.4026 C   0  0  0  0  0  0  0  0  0  0  0  0
    4.1007    2.6815   -0.8144 C   0  0  0  0  0  0  0  0  0  0  0  0
    2.7425    3.2211   -0.7222 C   0  0  0  0  0  0  0  0  0  0  0  0
    7.3642    3.7391   -2.0871 O   0  0  0  0  0  0  0  0  0  0  0  0
    2.3743   -0.2080   -1.8386 N   0  0  0  0  0  0  0  0  0  0  0  0
    0.4508   -1.5355   -0.1467 N   0  0  0  0  0  0  0  0  0  0  0  0
   -0.4824   -2.1908    0.7299 C   0  0  2  0  0  0  0  0  0  0  0  0
   -0.8336   -3.5676    0.2767 C   0  0  0  0  0  0  0  0  0  0  0  0
   -2.1180   -4.0994    0.9282 C   0  0  0  0  0  0  0  0  0  0  0  0
   -3.1449   -3.1658    0.5337 N   0  0  0  0  0  0  0  0  0  0  0  0
   -2.9654   -1.8061    0.9516 C   0  0  0  0  0  0  0  0  0  0  0  0
   -1.6519   -1.3277    1.0394 C   0  0  0  0  0  0  0  0  0  0  0  0
   -1.4019   -0.0295    1.4289 C   0  0  0  0  0  0  0  0  0  0  0  0
   -2.4885    0.7710    1.7261 C   0  0  0  0  0  0  0  0  0  0  0  0
   -3.7949    0.3275    1.6493 C   0  0  0  0  0  0  0  0  0  0  0  0
   -4.0441   -0.9865    1.2549 C   0  0  0  0  0  0  0  0  0  0  0  0
   -2.2063    2.1853    2.1505 C   0  0  0  0  0  0  0  0  0  0  0  0
   -2.1542    3.0937    0.9846 C   0  0  0  0  0  0  0  0  0  0  0  0
   -3.2607    3.7544    0.4945 C   0  0  0  0  0  0  0  0  0  0  0  0
   -3.1739    4.6000   -0.6033 C   0  0  0  0  0  0  0  0  0  0  0  0
   -1.9499    4.7921   -1.2301 C   0  0  0  0  0  0  0  0  0  0  0  0
   -0.8748    4.1189   -0.7144 C   0  0  0  0  0  0  0  0  0  0  0  0
   -0.9448    3.2811    0.3684 C   0  0  0  0  0  0  0  0  0  0  0  0
   -4.2839   -3.4827   -0.2381 C   0  0  0  0  0  0  0  0  0  0  0  0
   -5.1252   -2.6209   -0.6395 O   0  0  0  0  0  0  0  0  0  0  0  0
   -4.6142   -4.8911   -0.6636 C   0  0  0  0  0  0  0  0  0  0  0  0
   -6.1015   -5.2364   -0.5383 C   0  0  0  0  0  0  0  0  0  0  0  0
   -5.4339   -5.1195   -1.8788 C   0  0  0  0  0  0  0  0  0  0  0  0
    3.5927   -1.2885   -0.5959 H   0  0  0  0  0  0  0  0  0  0  0  0
    3.7305    0.1387    1.2409 H   0  0  0  0  0  0  0  0  0  0  0  0
    2.4613    1.2381    0.7320 H   0  0  0  0  0  0  0  0  0  0  0  0
    5.5461   -0.7491    0.9971 H   0  0  0  0  0  0  0  0  0  0  0  0
    7.1390   -0.3889    0.3444 H   0  0  0  0  0  0  0  0  0  0  0  0
    5.9785   -1.1162   -0.7609 H   0  0  0  0  0  0  0  0  0  0  0  0
    7.6391    1.3421   -1.0834 H   0  0  0  0  0  0  0  0  0  0  0  0
    4.8891    4.4424   -1.7945 H   0  0  0  0  0  0  0  0  0  0  0  0
    2.4463    3.2422    0.3553 H   0  0  0  0  0  0  0  0  0  0  0  0
    1.9633    2.6817   -1.2577 H   0  0  0  0  0  0  0  0  0  0  0  0
    2.6903    4.2809   -1.0806 H   0  0  0  0  0  0  0  0  0  0  0  0
    7.8763    4.4294   -1.5599 H   0  0  0  0  0  0  0  0  0  0  0  0
    2.1711   -1.1025   -2.3353 H   0  0  0  0  0  0  0  0  0  0  0  0
    1.5568    0.4032   -1.9455 H   0  0  0  0  0  0  0  0  0  0  0  0
    0.2003   -1.2982   -1.1323 H   0  0  0  0  0  0  0  0  0  0  0  0
    0.0648   -2.2966    1.7135 H   0  0  0  0  0  0  0  0  0  0  0  0
   -1.0872   -3.5922   -0.8234 H   0  0  0  0  0  0  0  0  0  0  0  0
   -0.0464   -4.2922    0.5389 H   0  0  0  0  0  0  0  0  0  0  0  0
   -2.2835   -5.0961    0.5310 H   0  0  0  0  0  0  0  0  0  0  0  0
   -1.9659   -4.0757    2.0272 H   0  0  0  0  0  0  0  0  0  0  0  0
   -0.4098    0.3786    1.5093 H   0  0  0  0  0  0  0  0  0  0  0  0
   -4.6249    0.9952    1.8940 H   0  0  0  0  0  0  0  0  0  0  0  0
   -5.0376   -1.3853    1.1876 H   0  0  0  0  0  0  0  0  0  0  0  0
   -1.2723    2.1603    2.7281 H   0  0  0  0  0  0  0  0  0  0  0  0
   -3.0608    2.5445    2.7770 H   0  0  0  0  0  0  0  0  0  0  0  0
   -4.2179    3.6229    0.9609 H   0  0  0  0  0  0  0  0  0  0  0  0
   -4.0332    5.1270   -1.0010 H   0  0  0  0  0  0  0  0  0  0  0  0
   -1.8795    5.4545   -2.0916 H   0  0  0  0  0  0  0  0  0  0  0  0
    0.0780    4.2618   -1.1941 H   0  0  0  0  0  0  0  0  0  0  0  0
   -0.0390    2.7929    0.7029 H   0  0  0  0  0  0  0  0  0  0  0  0
   -3.9374   -5.7075   -0.3644 H   0  0  0  0  0  0  0  0  0  0  0  0
   -6.3532   -6.2482   -0.1371 H   0  0  0  0  0  0  0  0  0  0  0  0
   -6.7850   -4.4249   -0.2586 H   0  0  0  0  0  0  0  0  0  0  0  0
   -5.6577   -4.2092   -2.4823 H   0  0  0  0  0  0  0  0  0  0  0  0
   -5.3033   -6.0529   -2.4273 H   0  0  0  0  0  0  0  0  0  0  0  0
  1  2  2  0
  2  3  1  0
  3  4  1  0
  4  5  1  0
  5  6  2  0
  6  7  1  0
  6  8  1  0
  8  9  2  0
  9 10  1  0
 10 11  2  0
 11 12  1  0
  9 13  1  0
  3 14  1  0
  2 15  1  0
 15 16  1  0
 16 17  1  0
 17 18  1  0
 18 19  1  0
 19 20  1  0
 20 21  2  0
 21 22  1  0
 22 23  2  0
 23 24  1  0
 24 25  2  0
 23 26  1  0
 26 27  1  0
 27 28  2  0
 28 29  1  0
 29 30  2  0
 30 31  1  0
 31 32  2  0
 19 33  1  0
 33 34  2  0
 33 35  1  0
 35 36  1  0
 36 37  1  0
 11  5  1  0
 21 16  1  0
 32 27  1  0
 37 35  1  0
 25 20  1  0
  3 38  1  6
  4 39  1  0
  4 40  1  0
  7 41  1  0
  7 42  1  0
  7 43  1  0
  8 44  1  0
 10 45  1  0
 12 46  1  0
 12 47  1  0
 12 48  1  0
 13 49  1  0
 14 50  1  0
 14 51  1  0
 15 52  1  0
 16 53  1  1
 17 54  1  0
 17 55  1  0
 18 56  1  0
 18 57  1  0
 22 58  1  0
 24 59  1  0
 25 60  1  0
 26 61  1  0
 26 62  1  0
 28 63  1  0
 29 64  1  0
 30 65  1  0
 31 66  1  0
 32 67  1  0
 35 68  1  0
 36 69  1  0
 36 70  1  0
 37 71  1  0
 37 72  1  0
M  END
>  <Ligand ID>  (1) 
LIG0003756

>  <Ligand>  (1) 
CHEMBL3823231

>  <SMILES>  (1) 
O=C([C@H](Cc1c(C)cc(cc1C)O)N)N[C@@H]1CCN(c2c1cc(cc2)Cc1ccccc1)C(=O)C1CC1

>  <CID>  (1) 
127049272.0

>  <ChEMBL ID>  (1) 
nan

>  <InChiKey>  (1) 
DJFAPAQDMDGGSM-WUFINQPMSA-N

>  <InChi>  (1) 
InChI=1S/C31H35N3O3/c1-19-14-24(35)15-20(2)25(19)18-27(32)30(36)33-28-12-13-34(31(37)23-9-10-23)29-11-8-22(17-26(28)29)16-21-6-4-3-5-7-21/h3-8,11,14-15,17,23,27-28,35H,9-10,12-13,16,18,32H2,1-2H3,(H,33,36)/t27-,28+/m0/s1

>  <IUPAC Name>  (1) 
(2S)-2-amino-N-[(4R)-6-benzyl-1-(cyclopropanecarbonyl)-3,4-dihydro-2H-quinolin-4-yl]-3-(4-hydroxy-2,6-dimethylphenyl)propanamide

$$$$
