
     RDKit          3D

 64 66  0  0  0  0  0  0  0  0999 V2000
    7.6659    3.4620   -1.3541 C   0  0  0  0  0  0  0  0  0  0  0  0
    8.1182    2.2096   -1.1654 C   0  0  0  0  0  0  0  0  0  0  0  0
    8.1213    1.6660    0.2009 C   0  0  0  0  0  0  0  0  0  0  0  0
    7.4267    0.3610    0.3950 C   0  0  0  0  0  0  0  0  0  0  0  0
    6.1224    0.3085    0.1014 O   0  0  0  0  0  0  0  0  0  0  0  0
    5.6441    0.4830   -1.1487 C   0  0  0  0  0  0  0  0  0  0  0  0
    4.1053    0.3243   -1.0364 C   0  0  0  0  0  0  0  0  0  0  0  0
    3.9412   -0.9764   -0.5453 O   0  0  0  0  0  0  0  0  0  0  0  0
    2.5857   -1.2040   -0.4133 C   0  0  1  0  0  0  0  0  0  0  0  0
    2.0919   -2.3815   -1.1848 C   0  0  0  0  0  0  0  0  0  0  0  0
    0.6225   -2.5591   -0.9792 C   0  0  0  0  0  0  0  0  0  0  0  0
    0.0431   -1.7799    0.1245 C   0  0  0  0  0  0  0  0  0  0  0  0
    0.7934   -1.2306    1.1463 C   0  0  0  0  0  0  0  0  0  0  0  0
    2.2766   -1.4804    1.0652 C   0  0  0  0  0  0  0  0  0  0  0  0
    0.2394   -0.4996    2.1793 C   0  0  0  0  0  0  0  0  0  0  0  0
   -1.1261   -0.3089    2.1919 C   0  0  0  0  0  0  0  0  0  0  0  0
   -1.8944   -0.8591    1.1651 C   0  0  0  0  0  0  0  0  0  0  0  0
   -1.3231   -1.5868    0.1408 C   0  0  0  0  0  0  0  0  0  0  0  0
   -3.3440   -0.6492    1.1900 C   0  0  2  0  0  0  0  0  0  0  0  0
   -4.1350   -1.9595    1.2956 C   0  0  0  0  0  0  0  0  0  0  0  0
   -5.5435   -1.3711    1.1290 C   0  0  0  0  0  0  0  0  0  0  0  0
   -5.3110   -0.5573   -0.1274 C   0  0  1  0  0  0  0  0  0  0  0  0
   -3.9061   -0.0228   -0.0414 C   0  0  0  0  0  0  0  0  0  0  0  0
   -5.4049   -1.4921   -1.2428 N   0  0  0  0  0  0  0  0  0  0  0  0
   -6.3319    0.5378   -0.3218 C   0  0  0  0  0  0  0  0  0  0  0  0
   -6.3345    1.4879    0.6819 O   0  0  0  0  0  0  0  0  0  0  0  0
   -7.4817    2.6950    0.4322 P   0  0  0  0  0  0  0  0  0  0  0  0
   -8.8750    2.1949    0.2685 O   0  0  0  0  0  0  0  0  0  0  0  0
   -7.0649    3.4584   -1.0383 O   0  0  0  0  0  0  0  0  0  0  0  0
   -7.3254    3.8462    1.6599 O   0  0  0  0  0  0  0  0  0  0  0  0
    7.3344    3.9675   -0.4404 H   0  0  0  0  0  0  0  0  0  0  0  0
    7.6365    3.9224   -2.3336 H   0  0  0  0  0  0  0  0  0  0  0  0
    8.4779    1.5864   -1.9666 H   0  0  0  0  0  0  0  0  0  0  0  0
    9.2013    1.5031    0.4860 H   0  0  0  0  0  0  0  0  0  0  0  0
    7.7071    2.4225    0.9356 H   0  0  0  0  0  0  0  0  0  0  0  0
    8.0183   -0.4524   -0.1244 H   0  0  0  0  0  0  0  0  0  0  0  0
    7.5278    0.1362    1.5128 H   0  0  0  0  0  0  0  0  0  0  0  0
    5.8870    1.3778   -1.7036 H   0  0  0  0  0  0  0  0  0  0  0  0
    5.9155   -0.3950   -1.8222 H   0  0  0  0  0  0  0  0  0  0  0  0
    3.6767    0.4719   -2.0412 H   0  0  0  0  0  0  0  0  0  0  0  0
    3.7516    1.0889   -0.3047 H   0  0  0  0  0  0  0  0  0  0  0  0
    1.9941   -0.3130   -0.7258 H   0  0  0  0  0  0  0  0  0  0  0  0
    2.3743   -2.3106   -2.2677 H   0  0  0  0  0  0  0  0  0  0  0  0
    2.5927   -3.2922   -0.7694 H   0  0  0  0  0  0  0  0  0  0  0  0
    0.3426   -3.6244   -0.8708 H   0  0  0  0  0  0  0  0  0  0  0  0
    0.1312   -2.1950   -1.9280 H   0  0  0  0  0  0  0  0  0  0  0  0
    2.8559   -0.8480    1.7459 H   0  0  0  0  0  0  0  0  0  0  0  0
    2.4459   -2.5620    1.2388 H   0  0  0  0  0  0  0  0  0  0  0  0
    0.8842   -0.0924    2.9554 H   0  0  0  0  0  0  0  0  0  0  0  0
   -1.5779    0.2635    2.9971 H   0  0  0  0  0  0  0  0  0  0  0  0
   -1.9549   -1.9947   -0.6335 H   0  0  0  0  0  0  0  0  0  0  0  0
   -3.6210   -0.0451    2.0756 H   0  0  0  0  0  0  0  0  0  0  0  0
   -4.0029   -2.4534    2.2579 H   0  0  0  0  0  0  0  0  0  0  0  0
   -3.9228   -2.5795    0.4135 H   0  0  0  0  0  0  0  0  0  0  0  0
   -6.2678   -2.1844    0.9499 H   0  0  0  0  0  0  0  0  0  0  0  0
   -5.7582   -0.7575    2.0111 H   0  0  0  0  0  0  0  0  0  0  0  0
   -3.3078   -0.3929   -0.9136 H   0  0  0  0  0  0  0  0  0  0  0  0
   -3.8698    1.0877   -0.0226 H   0  0  0  0  0  0  0  0  0  0  0  0
   -6.2603   -2.0583   -1.1156 H   0  0  0  0  0  0  0  0  0  0  0  0
   -5.3795   -0.9728   -2.1417 H   0  0  0  0  0  0  0  0  0  0  0  0
   -6.0254    1.0683   -1.2484 H   0  0  0  0  0  0  0  0  0  0  0  0
   -7.3098    0.0898   -0.5478 H   0  0  0  0  0  0  0  0  0  0  0  0
   -7.5208    4.3433   -1.1087 H   0  0  0  0  0  0  0  0  0  0  0  0
   -6.3728    4.0784    1.7199 H   0  0  0  0  0  0  0  0  0  0  0  0
  1  2  2  0
  2  3  1  0
  3  4  1  0
  4  5  1  0
  5  6  1  0
  6  7  1  0
  7  8  1  0
  8  9  1  0
  9 10  1  0
 10 11  1  0
 11 12  1  0
 12 13  2  0
 13 14  1  0
 13 15  1  0
 15 16  2  0
 16 17  1  0
 17 18  2  0
 17 19  1  0
 19 20  1  0
 20 21  1  0
 21 22  1  0
 22 23  1  0
 22 24  1  6
 22 25  1  0
 25 26  1  0
 26 27  1  0
 27 28  2  0
 27 29  1  0
 27 30  1  0
 14  9  1  0
 23 19  1  0
 18 12  1  0
  1 31  1  0
  1 32  1  0
  2 33  1  0
  3 34  1  0
  3 35  1  0
  4 36  1  0
  4 37  1  0
  6 38  1  0
  6 39  1  0
  7 40  1  0
  7 41  1  0
  9 42  1  6
 10 43  1  0
 10 44  1  0
 11 45  1  0
 11 46  1  0
 14 47  1  0
 14 48  1  0
 15 49  1  0
 16 50  1  0
 18 51  1  0
 19 52  1  1
 20 53  1  0
 20 54  1  0
 21 55  1  0
 21 56  1  0
 23 57  1  0
 23 58  1  0
 24 59  1  0
 24 60  1  0
 25 61  1  0
 25 62  1  0
 29 63  1  0
 30 64  1  0
M  END
>  <Ligand ID>  (1) 
LIG0005622

>  <Ligand>  (1) 
BDBM65259

>  <SMILES>  (1) 
C=CCCOCCO[C@H]1CCc2c(C1)ccc(c2)[C@@H]1CC[C@@](C1)(N)COP(=O)(O)O

>  <CID>  (1) 
131953721.0

>  <ChEMBL ID>  (1) 
nan

>  <InChiKey>  (1) 
LMRNAKLLZIFOLG-FSSWDIPSSA-N

>  <InChi>  (1) 
InChI=1S/C22H34NO6P/c1-2-3-10-27-11-12-28-21-7-6-17-13-18(4-5-19(17)14-21)20-8-9-22(23,15-20)16-29-30(24,25)26/h2,4-5,13,20-21H,1,3,6-12,14-16,23H2,(H2,24,25,26)/t20-,21+,22+/m1/s1

>  <IUPAC Name>  (1) 
[(1S,3R)-1-amino-3-[(6S)-6-(2-but-3-enoxyethoxy)-5,6,7,8-tetrahydronaphthalen-2-yl]cyclopentyl]methyl dihydrogen phosphate

$$$$
