
     RDKit          3D

111114  0  0  0  0  0  0  0  0999 V2000
  -10.7003    2.0004   -0.1674 C   0  0  0  0  0  0  0  0  0  0  0  0
  -10.2881    1.1590    1.3792 S   0  0  0  0  0  0  0  0  0  0  0  0
   -8.8020    0.1459    1.0873 C   0  0  0  0  0  0  0  0  0  0  0  0
   -9.1435   -0.9583    0.1203 C   0  0  0  0  0  0  0  0  0  0  0  0
   -7.9464   -1.8083   -0.1237 C   0  0  1  0  0  0  0  0  0  0  0  0
   -8.2604   -2.9271   -1.0931 C   0  0  0  0  0  0  0  0  0  0  0  0
   -7.5298   -3.1363   -2.1035 O   0  0  0  0  0  0  0  0  0  0  0  0
   -9.3994   -3.7545   -0.8574 N   0  0  0  0  0  0  0  0  0  0  0  0
   -6.7679   -1.1114   -0.5613 N   0  0  0  0  0  0  0  0  0  0  0  0
   -5.4599   -1.3595    0.0074 C   0  0  0  0  0  0  0  0  0  0  0  0
   -5.2900   -2.2067    0.9185 O   0  0  0  0  0  0  0  0  0  0  0  0
   -4.3584   -0.5432   -0.5714 C   0  0  2  0  0  0  0  0  0  0  0  0
   -3.0923   -1.0420   -0.1589 N   0  0  0  0  0  0  0  0  0  0  0  0
   -2.4064   -1.1214    1.1006 C   0  0  0  0  0  0  0  0  0  0  0  0
   -1.4959   -2.3547    1.0050 C   0  0  1  0  0  0  0  0  0  0  0  0
   -0.9469   -2.0881   -0.4048 C   0  0  1  0  0  0  0  0  0  0  0  0
   -2.1807   -1.6693   -1.1147 C   0  0  0  0  0  0  0  0  0  0  0  0
   -2.3422   -1.8574   -2.3368 O   0  0  0  0  0  0  0  0  0  0  0  0
   -0.0974   -0.9267   -0.0428 N   0  0  0  0  0  0  0  0  0  0  0  0
    0.7087   -1.4080    1.0283 C   0  0  0  0  0  0  0  0  0  0  0  0
   -0.2880   -2.1727    1.8932 C   0  0  0  0  0  0  0  0  0  0  0  0
   -0.2515    0.3053   -0.7005 C   0  0  0  0  0  0  0  0  0  0  0  0
   -1.1967    0.3562   -1.5646 O   0  0  0  0  0  0  0  0  0  0  0  0
    0.5212    1.5353   -0.5263 C   0  0  2  0  0  0  0  0  0  0  0  0
    0.6553    2.2240   -1.8474 C   0  0  0  0  0  0  0  0  0  0  0  0
    1.4053    3.4837   -1.8081 C   0  0  0  0  0  0  0  0  0  0  0  0
    0.7180    4.6461   -1.5408 C   0  0  0  0  0  0  0  0  0  0  0  0
    1.3612    5.8701   -1.4906 C   0  0  0  0  0  0  0  0  0  0  0  0
    2.6971    5.9853   -1.7015 C   0  0  0  0  0  0  0  0  0  0  0  0
    3.4210    4.8309   -1.9743 C   0  0  0  0  0  0  0  0  0  0  0  0
    2.7627    3.6006   -2.0229 C   0  0  0  0  0  0  0  0  0  0  0  0
    1.7129    1.2861    0.1996 N   0  0  0  0  0  0  0  0  0  0  0  0
    2.7635    0.5715   -0.4486 C   0  0  0  0  0  0  0  0  0  0  0  0
    2.6162    0.1594   -1.6455 O   0  0  0  0  0  0  0  0  0  0  0  0
    4.0657    0.2596    0.1828 C   0  0  2  0  0  0  0  0  0  0  0  0
    4.7927    1.5310    0.5982 C   0  0  0  0  0  0  0  0  0  0  0  0
    6.1072    1.2363    1.2209 C   0  0  0  0  0  0  0  0  0  0  0  0
    7.2300    1.1851    0.4154 C   0  0  0  0  0  0  0  0  0  0  0  0
    8.4937    0.9160    0.8882 C   0  0  0  0  0  0  0  0  0  0  0  0
    8.6075    0.6888    2.2535 C   0  0  0  0  0  0  0  0  0  0  0  0
    7.4862    0.7372    3.0751 C   0  0  0  0  0  0  0  0  0  0  0  0
    6.2319    1.0089    2.5765 C   0  0  0  0  0  0  0  0  0  0  0  0
    4.8756   -0.4829   -0.7771 N   0  0  0  0  0  0  0  0  0  0  0  0
    5.4610   -1.7354   -0.4191 C   0  0  0  0  0  0  0  0  0  0  0  0
    5.2477   -2.1530    0.7352 O   0  0  0  0  0  0  0  0  0  0  0  0
    6.2651   -2.4189   -1.4491 C   0  0  0  0  0  0  0  0  0  0  0  0
    6.9558   -3.6684   -0.9551 C   0  0  0  0  0  0  0  0  0  0  0  0
    7.9239   -3.3727    0.1648 C   0  0  0  0  0  0  0  0  0  0  0  0
    8.5484   -4.6985    0.5626 C   0  0  0  0  0  0  0  0  0  0  0  0
    9.5044   -4.5231    1.6414 N   0  0  0  0  0  0  0  0  0  0  0  0
   -4.6006    0.9063   -0.5802 C   0  0  0  0  0  0  0  0  0  0  0  0
   -4.8848    1.6652    0.6463 C   0  0  0  0  0  0  0  0  0  0  0  0
   -5.1255    3.1636    0.3008 C   0  0  0  0  0  0  0  0  0  0  0  0
   -3.8024    1.7100    1.6896 C   0  0  0  0  0  0  0  0  0  0  0  0
  -10.2106    1.4799   -0.9940 H   0  0  0  0  0  0  0  0  0  0  0  0
  -11.8106    1.9987   -0.2414 H   0  0  0  0  0  0  0  0  0  0  0  0
  -10.3749    3.0720   -0.1554 H   0  0  0  0  0  0  0  0  0  0  0  0
   -8.1020    0.8315    0.5231 H   0  0  0  0  0  0  0  0  0  0  0  0
   -8.3353   -0.2127    2.0039 H   0  0  0  0  0  0  0  0  0  0  0  0
   -9.9247   -1.6287    0.5692 H   0  0  0  0  0  0  0  0  0  0  0  0
   -9.5130   -0.5371   -0.8387 H   0  0  0  0  0  0  0  0  0  0  0  0
   -7.7133   -2.3670    0.8302 H   0  0  0  0  0  0  0  0  0  0  0  0
   -9.8531   -3.7671    0.0616 H   0  0  0  0  0  0  0  0  0  0  0  0
   -9.7605   -4.3438   -1.6311 H   0  0  0  0  0  0  0  0  0  0  0  0
   -6.8969   -0.3991   -1.3283 H   0  0  0  0  0  0  0  0  0  0  0  0
   -4.4066   -0.7970   -1.7260 H   0  0  0  0  0  0  0  0  0  0  0  0
   -1.7606   -0.2244    1.2143 H   0  0  0  0  0  0  0  0  0  0  0  0
   -3.0254   -1.2831    1.9791 H   0  0  0  0  0  0  0  0  0  0  0  0
   -2.0311   -3.2830    1.1066 H   0  0  0  0  0  0  0  0  0  0  0  0
   -0.4122   -2.9247   -0.7984 H   0  0  0  0  0  0  0  0  0  0  0  0
    1.2357   -0.6417    1.6270 H   0  0  0  0  0  0  0  0  0  0  0  0
    1.4836   -2.1185    0.6833 H   0  0  0  0  0  0  0  0  0  0  0  0
   -0.6060   -1.5705    2.7768 H   0  0  0  0  0  0  0  0  0  0  0  0
    0.0788   -3.1541    2.2029 H   0  0  0  0  0  0  0  0  0  0  0  0
   -0.1188    2.1700    0.1591 H   0  0  0  0  0  0  0  0  0  0  0  0
    1.0414    1.5343   -2.6151 H   0  0  0  0  0  0  0  0  0  0  0  0
   -0.3814    2.4609   -2.1832 H   0  0  0  0  0  0  0  0  0  0  0  0
   -0.3445    4.5910   -1.3673 H   0  0  0  0  0  0  0  0  0  0  0  0
    0.8057    6.7839   -1.2784 H   0  0  0  0  0  0  0  0  0  0  0  0
    3.2639    6.9022   -1.6774 H   0  0  0  0  0  0  0  0  0  0  0  0
    4.5032    4.8607   -2.1539 H   0  0  0  0  0  0  0  0  0  0  0  0
    3.3486    2.7444   -2.2351 H   0  0  0  0  0  0  0  0  0  0  0  0
    1.8977    1.5940    1.2009 H   0  0  0  0  0  0  0  0  0  0  0  0
    3.9587   -0.3536    1.0934 H   0  0  0  0  0  0  0  0  0  0  0  0
    4.9924    2.1286   -0.3252 H   0  0  0  0  0  0  0  0  0  0  0  0
    4.1980    2.1440    1.2770 H   0  0  0  0  0  0  0  0  0  0  0  0
    7.1147    1.3696   -0.6614 H   0  0  0  0  0  0  0  0  0  0  0  0
    9.3421    0.8888    0.2142 H   0  0  0  0  0  0  0  0  0  0  0  0
    9.5989    0.4801    2.6159 H   0  0  0  0  0  0  0  0  0  0  0  0
    7.6595    0.5462    4.1369 H   0  0  0  0  0  0  0  0  0  0  0  0
    5.3692    1.0413    3.2397 H   0  0  0  0  0  0  0  0  0  0  0  0
    5.0089   -0.0651   -1.7258 H   0  0  0  0  0  0  0  0  0  0  0  0
    7.0378   -1.7167   -1.8553 H   0  0  0  0  0  0  0  0  0  0  0  0
    5.6310   -2.6768   -2.3340 H   0  0  0  0  0  0  0  0  0  0  0  0
    7.5722   -4.0437   -1.8169 H   0  0  0  0  0  0  0  0  0  0  0  0
    6.1845   -4.4075   -0.6482 H   0  0  0  0  0  0  0  0  0  0  0  0
    7.3962   -2.9096    1.0048 H   0  0  0  0  0  0  0  0  0  0  0  0
    8.6992   -2.6583   -0.1705 H   0  0  0  0  0  0  0  0  0  0  0  0
    9.1090   -5.0881   -0.3079 H   0  0  0  0  0  0  0  0  0  0  0  0
    7.7787   -5.3992    0.8932 H   0  0  0  0  0  0  0  0  0  0  0  0
   10.4409   -4.9413    1.4258 H   0  0  0  0  0  0  0  0  0  0  0  0
    9.6679   -3.5325    1.8664 H   0  0  0  0  0  0  0  0  0  0  0  0
   -3.7071    1.3951   -1.1081 H   0  0  0  0  0  0  0  0  0  0  0  0
   -5.4370    1.1597   -1.3131 H   0  0  0  0  0  0  0  0  0  0  0  0
   -5.8705    1.3630    1.1163 H   0  0  0  0  0  0  0  0  0  0  0  0
   -5.8874    3.5977    0.9754 H   0  0  0  0  0  0  0  0  0  0  0  0
   -5.5328    3.2147   -0.7306 H   0  0  0  0  0  0  0  0  0  0  0  0
   -4.1644    3.6698    0.4018 H   0  0  0  0  0  0  0  0  0  0  0  0
   -3.9628    0.8628    2.3854 H   0  0  0  0  0  0  0  0  0  0  0  0
   -2.8040    1.8182    1.2750 H   0  0  0  0  0  0  0  0  0  0  0  0
   -3.9532    2.6727    2.2966 H   0  0  0  0  0  0  0  0  0  0  0  0
  1  2  1  0
  2  3  1  0
  3  4  1  0
  4  5  1  0
  5  6  1  0
  6  7  2  0
  6  8  1  0
  5  9  1  0
  9 10  1  0
 10 11  2  0
 10 12  1  0
 12 13  1  0
 13 14  1  0
 14 15  1  0
 15 16  1  0
 16 17  1  0
 17 18  2  0
 16 19  1  0
 19 20  1  0
 20 21  1  0
 19 22  1  0
 22 23  2  0
 22 24  1  0
 24 25  1  0
 25 26  1  0
 26 27  2  0
 27 28  1  0
 28 29  2  0
 29 30  1  0
 30 31  2  0
 24 32  1  0
 32 33  1  0
 33 34  2  0
 33 35  1  0
 35 36  1  0
 36 37  1  0
 37 38  2  0
 38 39  1  0
 39 40  2  0
 40 41  1  0
 41 42  2  0
 35 43  1  0
 43 44  1  0
 44 45  2  0
 44 46  1  0
 46 47  1  0
 47 48  1  0
 48 49  1  0
 49 50  1  0
 12 51  1  0
 51 52  1  0
 52 53  1  0
 52 54  1  0
 17 13  1  0
 31 26  1  0
 42 37  1  0
 21 15  1  0
  1 55  1  0
  1 56  1  0
  1 57  1  0
  3 58  1  0
  3 59  1  0
  4 60  1  0
  4 61  1  0
  5 62  1  1
  8 63  1  0
  8 64  1  0
  9 65  1  0
 12 66  1  6
 14 67  1  0
 14 68  1  0
 15 69  1  6
 16 70  1  6
 20 71  1  0
 20 72  1  0
 21 73  1  0
 21 74  1  0
 24 75  1  1
 25 76  1  0
 25 77  1  0
 27 78  1  0
 28 79  1  0
 29 80  1  0
 30 81  1  0
 31 82  1  0
 32 83  1  0
 35 84  1  1
 36 85  1  0
 36 86  1  0
 38 87  1  0
 39 88  1  0
 40 89  1  0
 41 90  1  0
 42 91  1  0
 43 92  1  0
 46 93  1  0
 46 94  1  0
 47 95  1  0
 47 96  1  0
 48 97  1  0
 48 98  1  0
 49 99  1  0
 49100  1  0
 50101  1  0
 50102  1  0
 51103  1  0
 51104  1  0
 52105  1  0
 53106  1  0
 53107  1  0
 53108  1  0
 54109  1  0
 54110  1  0
 54111  1  0
M  END
>  <Ligand ID>  (1) 
LIG0003450

>  <Ligand>  (1) 
CHEMBL339391

>  <SMILES>  (1) 
CSCC[C@@H](C(=O)N)NC(=O)[C@H](N1C[C@H]2[C@@H](C1=O)N(CC2)C(=O)[C@H](Cc1ccccc1)NC(=O)[C@H](Cc1ccccc1)NC(=O)CCCCN)CC(C)C

>  <CID>  (1) 
10350201.0

>  <ChEMBL ID>  (1) 
nan

>  <InChiKey>  (1) 
URIRKOHAMZPMCD-ZOLLQGMZSA-N

>  <InChi>  (1) 
InChI=1S/C40H57N7O6S/c1-26(2)22-33(38(51)44-30(36(42)49)18-21-54-3)47-25-29-17-20-46(35(29)40(47)53)39(52)32(24-28-14-8-5-9-15-28)45-37(50)31(23-27-12-6-4-7-13-27)43-34(48)16-10-11-19-41/h4-9,12-15,26,29-33,35H,10-11,16-25,41H2,1-3H3,(H2,42,49)(H,43,48)(H,44,51)(H,45,50)/t29-,30-,31-,32-,33+,35-/m0/s1

>  <IUPAC Name>  (1) 
(2R)-2-[(3aS,6aS)-1-[(2S)-2-[[(2S)-2-(5-aminopentanoylamino)-3-phenylpropanoyl]amino]-3-phenylpropanoyl]-6-oxo-3,3a,4,6a-tetrahydro-2H-pyrrolo[2,3-c]pyrrol-5-yl]-N-[(2S)-1-amino-4-methylsulfanyl-1-oxobutan-2-yl]-4-methylpentanamide

$$$$
