
     RDKit          3D

 90 95  0  0  0  0  0  0  0  0999 V2000
    3.3625    2.1674    1.4854 O   0  0  0  0  0  0  0  0  0  0  0  0
    3.9409    1.4974    0.5891 C   0  0  0  0  0  0  0  0  0  0  0  0
    5.2797    1.8583    0.0480 C   0  0  2  0  0  0  0  0  0  0  0  0
    5.7211    0.9206   -0.9688 N   0  0  0  0  0  0  0  0  0  0  0  0
    6.9267    1.4897   -1.5742 C   0  0  0  0  0  0  0  0  0  0  0  0
    7.9994    1.3085   -0.5446 C   0  0  0  0  0  0  0  0  0  0  0  0
    7.6496    1.6178    0.7553 C   0  0  0  0  0  0  0  0  0  0  0  0
    6.2943    2.1034    1.1237 C   0  0  0  0  0  0  0  0  0  0  0  0
    8.6114    1.4603    1.7203 C   0  0  0  0  0  0  0  0  0  0  0  0
    9.8750    1.0117    1.4051 C   0  0  0  0  0  0  0  0  0  0  0  0
   10.2173    0.7042    0.1005 C   0  0  0  0  0  0  0  0  0  0  0  0
    9.2603    0.8565   -0.8868 C   0  0  0  0  0  0  0  0  0  0  0  0
    3.2902    0.3312    0.0569 N   0  0  0  0  0  0  0  0  0  0  0  0
    1.9630   -0.0441    0.5787 C   0  0  1  0  0  0  0  0  0  0  0  0
    1.0605   -0.1486   -0.5875 C   0  0  0  0  0  0  0  0  0  0  0  0
    1.6267    0.0060   -1.7302 O   0  0  0  0  0  0  0  0  0  0  0  0
   -0.3236   -0.3965   -0.5183 N   0  0  0  0  0  0  0  0  0  0  0  0
   -1.0867   -0.5643    0.6847 C   0  0  0  0  0  0  0  0  0  0  0  0
   -2.4090    0.1919    0.6246 C   0  0  0  0  0  0  0  0  0  0  0  0
   -3.2617   -0.1960   -0.5333 C   0  0  0  0  0  0  0  0  0  0  0  0
   -2.4086   -1.0554   -1.4608 C   0  0  0  0  0  0  0  0  0  0  0  0
   -1.0719   -0.4995   -1.7826 C   0  0  0  0  0  0  0  0  0  0  0  0
   -3.7468    0.9205   -1.3636 C   0  0  0  0  0  0  0  0  0  0  0  0
   -4.5475    1.9431   -0.8084 N   0  0  0  0  0  0  0  0  0  0  0  0
   -4.1755    3.2365   -0.2016 C   0  0  0  0  0  0  0  0  0  0  0  0
   -5.1322    3.2750    0.9710 C   0  0  0  0  0  0  0  0  0  0  0  0
   -6.3565    2.6673    0.4761 N   0  0  0  0  0  0  0  0  0  0  0  0
   -5.9960    1.9691   -0.7204 C   0  0  0  0  0  0  0  0  0  0  0  0
   -6.8191    1.4748   -1.5350 O   0  0  0  0  0  0  0  0  0  0  0  0
   -7.6331    2.7958    1.1222 C   0  0  0  0  0  0  0  0  0  0  0  0
   -4.3327   -1.1870   -0.0751 C   0  0  0  0  0  0  0  0  0  0  0  0
   -5.1613   -1.6618   -1.2276 C   0  0  0  0  0  0  0  0  0  0  0  0
   -6.2531   -2.5866   -0.7138 C   0  0  0  0  0  0  0  0  0  0  0  0
   -7.1905   -1.7136    0.0522 C   0  0  0  0  0  0  0  0  0  0  0  0
   -6.5462   -1.0036    1.1890 C   0  0  0  0  0  0  0  0  0  0  0  0
   -5.0824   -0.8024    1.1390 C   0  0  0  0  0  0  0  0  0  0  0  0
    2.1574   -1.3936    1.2852 C   0  0  0  0  0  0  0  0  0  0  0  0
    2.6653   -2.4127    0.3106 C   0  0  0  0  0  0  0  0  0  0  0  0
    4.0412   -2.5245    0.1868 C   0  0  0  0  0  0  0  0  0  0  0  0
    4.6383   -3.4193   -0.6755 C   0  0  0  0  0  0  0  0  0  0  0  0
    3.8020   -4.2190   -1.4294 C   0  0  0  0  0  0  0  0  0  0  0  0
    2.4379   -4.1057   -1.3043 C   0  0  0  0  0  0  0  0  0  0  0  0
    1.8282   -3.2069   -0.4380 C   0  0  0  0  0  0  0  0  0  0  0  0
    4.5694   -5.3529   -2.5255 Cl  0  0  0  0  0  0  0  0  0  0  0  0
    5.1070    2.8233   -0.5119 H   0  0  0  0  0  0  0  0  0  0  0  0
    4.9983    0.9604   -1.7438 H   0  0  0  0  0  0  0  0  0  0  0  0
    6.7824    2.5709   -1.7149 H   0  0  0  0  0  0  0  0  0  0  0  0
    7.1650    1.0243   -2.5297 H   0  0  0  0  0  0  0  0  0  0  0  0
    5.9651    1.7229    2.1161 H   0  0  0  0  0  0  0  0  0  0  0  0
    6.4084    3.2149    1.2803 H   0  0  0  0  0  0  0  0  0  0  0  0
    8.3445    1.6999    2.7351 H   0  0  0  0  0  0  0  0  0  0  0  0
   10.6349    0.8868    2.1643 H   0  0  0  0  0  0  0  0  0  0  0  0
   11.1921    0.3498   -0.1968 H   0  0  0  0  0  0  0  0  0  0  0  0
    9.4722    0.6307   -1.9201 H   0  0  0  0  0  0  0  0  0  0  0  0
    3.7385   -0.2463   -0.6856 H   0  0  0  0  0  0  0  0  0  0  0  0
    1.6871    0.6752    1.3389 H   0  0  0  0  0  0  0  0  0  0  0  0
   -0.4624   -0.0965    1.5019 H   0  0  0  0  0  0  0  0  0  0  0  0
   -1.3032   -1.5812    0.9911 H   0  0  0  0  0  0  0  0  0  0  0  0
   -2.9414   -0.1100    1.5645 H   0  0  0  0  0  0  0  0  0  0  0  0
   -2.1318    1.2390    0.7128 H   0  0  0  0  0  0  0  0  0  0  0  0
   -2.9628   -1.1511   -2.4317 H   0  0  0  0  0  0  0  0  0  0  0  0
   -2.2843   -2.0418   -0.9682 H   0  0  0  0  0  0  0  0  0  0  0  0
   -0.5563   -1.2658   -2.4069 H   0  0  0  0  0  0  0  0  0  0  0  0
   -1.1584    0.4624   -2.2854 H   0  0  0  0  0  0  0  0  0  0  0  0
   -2.8194    1.4388   -1.7571 H   0  0  0  0  0  0  0  0  0  0  0  0
   -4.2015    0.5189   -2.3190 H   0  0  0  0  0  0  0  0  0  0  0  0
   -4.4070    4.0652   -0.9046 H   0  0  0  0  0  0  0  0  0  0  0  0
   -3.1633    3.2692    0.1789 H   0  0  0  0  0  0  0  0  0  0  0  0
   -4.7632    2.6419    1.8015 H   0  0  0  0  0  0  0  0  0  0  0  0
   -5.3071    4.3101    1.3297 H   0  0  0  0  0  0  0  0  0  0  0  0
   -7.5231    2.7487    2.2193 H   0  0  0  0  0  0  0  0  0  0  0  0
   -8.1262    3.7759    0.8878 H   0  0  0  0  0  0  0  0  0  0  0  0
   -8.3474    1.9933    0.8296 H   0  0  0  0  0  0  0  0  0  0  0  0
   -3.7401   -2.0895    0.2039 H   0  0  0  0  0  0  0  0  0  0  0  0
   -4.5536   -2.3288   -1.9172 H   0  0  0  0  0  0  0  0  0  0  0  0
   -5.5832   -0.9091   -1.8774 H   0  0  0  0  0  0  0  0  0  0  0  0
   -6.8129   -2.9566   -1.6145 H   0  0  0  0  0  0  0  0  0  0  0  0
   -5.8373   -3.4156   -0.1106 H   0  0  0  0  0  0  0  0  0  0  0  0
   -8.0550   -2.3529    0.3641 H   0  0  0  0  0  0  0  0  0  0  0  0
   -7.6416   -0.9997   -0.6858 H   0  0  0  0  0  0  0  0  0  0  0  0
   -7.1404   -0.0496    1.3309 H   0  0  0  0  0  0  0  0  0  0  0  0
   -6.8683   -1.5813    2.1101 H   0  0  0  0  0  0  0  0  0  0  0  0
   -4.6479   -1.2699    2.0760 H   0  0  0  0  0  0  0  0  0  0  0  0
   -4.9185    0.2937    1.3657 H   0  0  0  0  0  0  0  0  0  0  0  0
    1.2281   -1.7344    1.7760 H   0  0  0  0  0  0  0  0  0  0  0  0
    2.8827   -1.2180    2.1048 H   0  0  0  0  0  0  0  0  0  0  0  0
    4.6945   -1.9048    0.7721 H   0  0  0  0  0  0  0  0  0  0  0  0
    5.7160   -3.4777   -0.7464 H   0  0  0  0  0  0  0  0  0  0  0  0
    1.8008   -4.7324   -1.8946 H   0  0  0  0  0  0  0  0  0  0  0  0
    0.7558   -3.1159   -0.3395 H   0  0  0  0  0  0  0  0  0  0  0  0
  1  2  2  0
  2  3  1  0
  3  4  1  0
  4  5  1  0
  5  6  1  0
  6  7  2  0
  7  8  1  0
  7  9  1  0
  9 10  2  0
 10 11  1  0
 11 12  2  0
  2 13  1  0
 13 14  1  0
 14 15  1  0
 15 16  2  0
 15 17  1  0
 17 18  1  0
 18 19  1  0
 19 20  1  0
 20 21  1  0
 21 22  1  0
 20 23  1  0
 23 24  1  0
 24 25  1  0
 25 26  1  0
 26 27  1  0
 27 28  1  0
 28 29  2  0
 27 30  1  0
 20 31  1  0
 31 32  1  0
 32 33  1  0
 33 34  1  0
 34 35  1  0
 35 36  1  0
 14 37  1  0
 37 38  1  0
 38 39  2  0
 39 40  1  0
 40 41  2  0
 41 42  1  0
 42 43  2  0
 41 44  1  0
  8  3  1  0
 22 17  1  0
 28 24  1  0
 36 31  1  0
 43 38  1  0
 12  6  1  0
  3 45  1  6
  4 46  1  0
  5 47  1  0
  5 48  1  0
  8 49  1  0
  8 50  1  0
  9 51  1  0
 10 52  1  0
 11 53  1  0
 12 54  1  0
 13 55  1  0
 14 56  1  1
 18 57  1  0
 18 58  1  0
 19 59  1  0
 19 60  1  0
 21 61  1  0
 21 62  1  0
 22 63  1  0
 22 64  1  0
 23 65  1  0
 23 66  1  0
 25 67  1  0
 25 68  1  0
 26 69  1  0
 26 70  1  0
 30 71  1  0
 30 72  1  0
 30 73  1  0
 31 74  1  0
 32 75  1  0
 32 76  1  0
 33 77  1  0
 33 78  1  0
 34 79  1  0
 34 80  1  0
 35 81  1  0
 35 82  1  0
 36 83  1  0
 36 84  1  0
 37 85  1  0
 37 86  1  0
 39 87  1  0
 40 88  1  0
 42 89  1  0
 43 90  1  0
M  END
>  <Ligand ID>  (1) 
LIG0001975

>  <Ligand>  (1) 
CHEMBL438259

>  <SMILES>  (1) 
O=C([C@@H]1NCc2c(C1)cccc2)N[C@@H](C(=O)N1CCC(CC1)(CN1CCN(C1=O)C)C1CCCCC1)Cc1ccc(cc1)Cl

>  <CID>  (1) 
44408189.0

>  <ChEMBL ID>  (1) 
nan

>  <InChiKey>  (1) 
OBNLGUMWGVRYJW-FIRIVFDPSA-N

>  <InChi>  (1) 
InChI=1S/C35H46ClN5O3/c1-39-19-20-41(34(39)44)24-35(28-9-3-2-4-10-28)15-17-40(18-16-35)33(43)31(21-25-11-13-29(36)14-12-25)38-32(42)30-22-26-7-5-6-8-27(26)23-37-30/h5-8,11-14,28,30-31,37H,2-4,9-10,15-24H2,1H3,(H,38,42)/t30-,31-/m1/s1

>  <IUPAC Name>  (1) 
(3R)-N-[(2R)-3-(4-chlorophenyl)-1-[4-cyclohexyl-4-[(3-methyl-2-oxoimidazolidin-1-yl)methyl]piperidin-1-yl]-1-oxopropan-2-yl]-1,2,3,4-tetrahydroisoquinoline-3-carboxamide

$$$$
