
     RDKit          3D

 40 41  0  0  0  0  0  0  0  0999 V2000
   -4.2315   -0.8818   -1.3117 C   0  0  0  0  0  0  0  0  0  0  0  0
   -3.4096   -1.5504   -0.3559 N   0  0  0  0  0  0  0  0  0  0  0  0
   -2.1203   -0.9205   -0.2061 C   0  0  0  0  0  0  0  0  0  0  0  0
   -2.3843    0.4610    0.3282 C   0  0  0  0  0  0  0  0  0  0  0  0
   -1.7649    1.6122   -0.1604 C   0  0  0  0  0  0  0  0  0  0  0  0
   -2.2668    2.6807    0.5842 C   0  0  0  0  0  0  0  0  0  0  0  0
   -3.1637    2.1082    1.4824 C   0  0  0  0  0  0  0  0  0  0  0  0
   -3.1904    0.7980    1.2839 O   0  0  0  0  0  0  0  0  0  0  0  0
   -1.2562   -1.6129    0.7904 C   0  0  0  0  0  0  0  0  0  0  0  0
    0.0342   -0.9418    0.9081 N   0  0  0  0  0  0  0  0  0  0  0  0
    0.9233   -0.7946   -0.1897 C   0  0  0  0  0  0  0  0  0  0  0  0
    0.6150   -1.2531   -1.3303 O   0  0  0  0  0  0  0  0  0  0  0  0
    2.2159   -0.1281   -0.0959 C   0  0  0  0  0  0  0  0  0  0  0  0
    2.9963   -0.0403   -1.2136 C   0  0  0  0  0  0  0  0  0  0  0  0
    4.2428    0.5927   -1.1596 C   0  0  0  0  0  0  0  0  0  0  0  0
    4.7172    1.1442    0.0205 C   0  0  0  0  0  0  0  0  0  0  0  0
    3.9220    1.0485    1.1367 C   0  0  0  0  0  0  0  0  0  0  0  0
    2.7029    0.4257    1.0696 C   0  0  0  0  0  0  0  0  0  0  0  0
    6.0306    1.8236    0.1244 C   0  0  0  0  0  0  0  0  0  0  0  0
    6.9596    1.2771   -0.7304 F   0  0  0  0  0  0  0  0  0  0  0  0
    5.9214    3.1761   -0.1192 F   0  0  0  0  0  0  0  0  0  0  0  0
    6.5410    1.7125    1.4181 F   0  0  0  0  0  0  0  0  0  0  0  0
   -3.3692   -2.9719   -0.5050 C   0  0  0  0  0  0  0  0  0  0  0  0
   -5.2689   -0.8508   -0.8736 H   0  0  0  0  0  0  0  0  0  0  0  0
   -4.2939   -1.4217   -2.2745 H   0  0  0  0  0  0  0  0  0  0  0  0
   -3.8876    0.1540   -1.5197 H   0  0  0  0  0  0  0  0  0  0  0  0
   -1.6808   -0.8683   -1.2207 H   0  0  0  0  0  0  0  0  0  0  0  0
   -1.0424    1.6342   -0.9604 H   0  0  0  0  0  0  0  0  0  0  0  0
   -1.9888    3.7072    0.4537 H   0  0  0  0  0  0  0  0  0  0  0  0
   -3.7389    2.6714    2.2206 H   0  0  0  0  0  0  0  0  0  0  0  0
   -1.0533   -2.6754    0.5365 H   0  0  0  0  0  0  0  0  0  0  0  0
   -1.7627   -1.6097    1.7581 H   0  0  0  0  0  0  0  0  0  0  0  0
    0.3208   -0.5523    1.8329 H   0  0  0  0  0  0  0  0  0  0  0  0
    2.7158   -0.4363   -2.1724 H   0  0  0  0  0  0  0  0  0  0  0  0
    4.8791    0.6781   -2.0192 H   0  0  0  0  0  0  0  0  0  0  0  0
    4.2879    1.4799    2.0692 H   0  0  0  0  0  0  0  0  0  0  0  0
    2.1202    0.3791    1.9748 H   0  0  0  0  0  0  0  0  0  0  0  0
   -3.2795   -3.4191    0.5255 H   0  0  0  0  0  0  0  0  0  0  0  0
   -2.6237   -3.3587   -1.2106 H   0  0  0  0  0  0  0  0  0  0  0  0
   -4.3686   -3.2764   -0.8886 H   0  0  0  0  0  0  0  0  0  0  0  0
  1  2  1  0
  2  3  1  0
  3  4  1  0
  4  5  2  0
  5  6  1  0
  6  7  2  0
  7  8  1  0
  3  9  1  0
  9 10  1  0
 10 11  1  0
 11 12  2  0
 11 13  1  0
 13 14  2  0
 14 15  1  0
 15 16  2  0
 16 17  1  0
 17 18  2  0
 16 19  1  0
 19 20  1  0
 19 21  1  0
 19 22  1  0
  2 23  1  0
  8  4  1  0
 18 13  1  0
  1 24  1  0
  1 25  1  0
  1 26  1  0
  3 27  1  0
  5 28  1  0
  6 29  1  0
  7 30  1  0
  9 31  1  0
  9 32  1  0
 10 33  1  0
 14 34  1  0
 15 35  1  0
 17 36  1  0
 18 37  1  0
 23 38  1  0
 23 39  1  0
 23 40  1  0
M  END
>  <Ligand ID>  (1) 
LIG0004515

>  <Ligand>  (1) 
MLS001150110

>  <SMILES>  (1) 
CN(C(c1ccco1)CNC(=O)c1ccc(cc1)C(F)(F)F)C

>  <CID>  (1) 
16394140.0

>  <ChEMBL ID>  (1) 
nan

>  <InChiKey>  (1) 
GWZXJYKYGBWOPM-UHFFFAOYSA-N

>  <InChi>  (1) 
InChI=1S/C16H17F3N2O2/c1-21(2)13(14-4-3-9-23-14)10-20-15(22)11-5-7-12(8-6-11)16(17,18)19/h3-9,13H,10H2,1-2H3,(H,20,22)

>  <IUPAC Name>  (1) 
N-[2-(dimethylamino)-2-(furan-2-yl)ethyl]-4-(trifluoromethyl)benzamide

$$$$
