
     RDKit          3D

137138  0  0  0  0  0  0  0  0999 V2000
    4.8102    0.4477   -4.2784 O   0  0  0  0  0  0  0  0  0  0  0  0
    4.5330   -0.6168   -3.4682 C   0  0  0  0  0  0  0  0  0  0  0  0
    4.8577   -0.3404   -1.9877 C   0  0  0  0  0  0  0  0  0  0  0  0
    4.2361    0.9877   -1.6940 C   0  0  0  0  0  0  0  0  0  0  0  0
    4.0808    1.2769   -0.2305 N   0  0  0  0  0  0  0  0  0  0  0  0
    3.0074    0.5635    0.3313 C   0  0  0  0  0  0  0  0  0  0  0  0
    2.8417    0.2043    1.5165 O   0  0  0  0  0  0  0  0  0  0  0  0
    1.9326    0.2848   -0.7502 C   0  0  2  0  0  0  0  0  0  0  0  0
    0.7907    1.1946   -0.0851 C   0  0  0  0  0  0  0  0  0  0  0  0
    0.4971    2.3512   -0.9470 C   0  0  0  0  0  0  0  0  0  0  0  0
   -0.1303    3.7454    0.0387 S   0  0  0  0  0  0  0  0  0  0  0  0
   -1.8854    3.6601    0.1090 C   0  0  0  0  0  0  0  0  0  0  0  0
   -2.5133    2.4645    0.7768 C   0  0  0  0  0  0  0  0  0  0  0  0
   -3.9633    2.6156    0.2827 C   0  0  0  0  0  0  0  0  0  0  0  0
   -4.2597    2.2040   -0.9003 O   0  0  0  0  0  0  0  0  0  0  0  0
   -4.9529    3.1675    1.0036 N   0  0  0  0  0  0  0  0  0  0  0  0
   -6.4272    3.1773    0.9151 C   0  0  1  0  0  0  0  0  0  0  0  0
   -6.6691    3.7482   -0.4161 C   0  0  0  0  0  0  0  0  0  0  0  0
   -7.8570    4.5878   -0.5896 C   0  0  0  0  0  0  0  0  0  0  0  0
   -8.5421    4.6797   -1.7400 C   0  0  0  0  0  0  0  0  0  0  0  0
   -9.4629    5.7065   -1.7789 C   0  0  0  0  0  0  0  0  0  0  0  0
   -9.7183    6.6031   -0.8044 C   0  0  0  0  0  0  0  0  0  0  0  0
   -8.9998    6.5414    0.4230 C   0  0  0  0  0  0  0  0  0  0  0  0
   -8.0890    5.4871    0.4513 C   0  0  0  0  0  0  0  0  0  0  0  0
   -6.8342    1.7286    1.1816 C   0  0  0  0  0  0  0  0  0  0  0  0
   -8.0505    1.5016    1.5406 O   0  0  0  0  0  0  0  0  0  0  0  0
   -6.0417    0.6191    1.0231 N   0  0  0  0  0  0  0  0  0  0  0  0
   -5.9684   -0.6424    1.7372 C   0  0  2  0  0  0  0  0  0  0  0  0
   -4.7650   -1.3585    1.8078 C   0  0  0  0  0  0  0  0  0  0  0  0
   -4.4001   -1.9199    2.8907 O   0  0  0  0  0  0  0  0  0  0  0  0
   -3.8674   -1.5183    0.7130 N   0  0  0  0  0  0  0  0  0  0  0  0
   -2.9289   -2.5519    0.5372 C   0  0  2  0  0  0  0  0  0  0  0  0
   -1.5190   -2.2474    0.2558 C   0  0  0  0  0  0  0  0  0  0  0  0
   -1.2869   -1.4437   -0.6791 O   0  0  0  0  0  0  0  0  0  0  0  0
   -0.4131   -2.8521    0.9406 N   0  0  0  0  0  0  0  0  0  0  0  0
    0.8176   -3.0792    0.2337 C   0  0  2  0  0  0  0  0  0  0  0  0
    1.8003   -2.0173    0.0945 C   0  0  0  0  0  0  0  0  0  0  0  0
    2.8564   -2.0542    0.7832 O   0  0  0  0  0  0  0  0  0  0  0  0
    1.4573   -0.9923   -0.8217 N   0  0  0  0  0  0  0  0  0  0  0  0
    0.6971   -3.8217   -1.0660 C   0  0  0  0  0  0  0  0  0  0  0  0
    0.4021   -5.2593   -0.9183 C   0  0  0  0  0  0  0  0  0  0  0  0
    0.5832   -5.8612    0.1693 O   0  0  0  0  0  0  0  0  0  0  0  0
   -0.0991   -5.9583   -2.0773 N   0  0  0  0  0  0  0  0  0  0  0  0
   -3.2369   -3.7321   -0.3779 C   0  0  0  0  0  0  0  0  0  0  0  0
   -4.2191   -4.7693   -0.0191 C   0  0  0  0  0  0  0  0  0  0  0  0
   -3.9745   -5.9275   -1.0131 C   0  0  0  0  0  0  0  0  0  0  0  0
   -2.7538   -6.1226   -1.1557 O   0  0  0  0  0  0  0  0  0  0  0  0
   -4.9124   -6.7437   -1.6226 N   0  0  0  0  0  0  0  0  0  0  0  0
   -7.0713   -1.5367    1.1074 C   0  0  2  0  0  0  0  0  0  0  0  0
   -8.4184   -1.3225    1.6208 C   0  0  0  0  0  0  0  0  0  0  0  0
   -9.4575   -1.8116    0.6533 C   0  0  0  0  0  0  0  0  0  0  0  0
   -6.6560   -2.9410    0.9884 C   0  0  0  0  0  0  0  0  0  0  0  0
    4.8858    2.2801    0.4007 C   0  0  0  0  0  0  0  0  0  0  0  0
    6.1599    1.6698    0.6503 C   0  0  0  0  0  0  0  0  0  0  0  0
    7.1676    2.4472    0.4339 O   0  0  0  0  0  0  0  0  0  0  0  0
    6.3674    0.3186    1.1471 N   0  0  0  0  0  0  0  0  0  0  0  0
    7.7995    0.0150    1.0325 C   0  0  2  0  0  0  0  0  0  0  0  0
    8.8029    0.5828    1.7823 C   0  0  0  0  0  0  0  0  0  0  0  0
    9.2332    1.7796    1.5662 O   0  0  0  0  0  0  0  0  0  0  0  0
    9.4225   -0.2051    2.8745 N   0  0  0  0  0  0  0  0  0  0  0  0
   10.4659    0.5510    3.4646 C   0  0  0  0  0  0  0  0  0  0  0  0
   10.1711    2.0134    3.5728 C   0  0  0  0  0  0  0  0  0  0  0  0
    9.1191    2.5801    3.8687 O   0  0  0  0  0  0  0  0  0  0  0  0
   11.4565    2.7362    3.3327 N   0  0  0  0  0  0  0  0  0  0  0  0
    7.9785    0.1140   -0.4965 C   0  0  0  0  0  0  0  0  0  0  0  0
    9.2755    0.3859   -1.0871 C   0  0  0  0  0  0  0  0  0  0  0  0
   10.4167   -0.4826   -0.8137 C   0  0  0  0  0  0  0  0  0  0  0  0
    9.0516    0.4888   -2.6240 C   0  0  0  0  0  0  0  0  0  0  0  0
    3.9055    0.8953   -4.5158 H   0  0  0  0  0  0  0  0  0  0  0  0
    3.5352   -1.0073   -3.5330 H   0  0  0  0  0  0  0  0  0  0  0  0
    5.3121   -1.4020   -3.7539 H   0  0  0  0  0  0  0  0  0  0  0  0
    5.9010   -0.4959   -1.8661 H   0  0  0  0  0  0  0  0  0  0  0  0
    4.3056   -1.0790   -1.3235 H   0  0  0  0  0  0  0  0  0  0  0  0
    3.6775    1.4951   -2.4130 H   0  0  0  0  0  0  0  0  0  0  0  0
    5.2900    1.6510   -1.8656 H   0  0  0  0  0  0  0  0  0  0  0  0
    2.1676    0.8233   -1.6676 H   0  0  0  0  0  0  0  0  0  0  0  0
    0.0352    0.5514    0.3078 H   0  0  0  0  0  0  0  0  0  0  0  0
    1.2715    1.6428    0.8587 H   0  0  0  0  0  0  0  0  0  0  0  0
    1.2905    2.6512   -1.5829 H   0  0  0  0  0  0  0  0  0  0  0  0
   -0.4118    2.0361   -1.6361 H   0  0  0  0  0  0  0  0  0  0  0  0
   -2.3266    3.7833   -0.8973 H   0  0  0  0  0  0  0  0  0  0  0  0
   -2.3200    4.5470    0.7204 H   0  0  0  0  0  0  0  0  0  0  0  0
   -2.1933    1.5349    0.2492 H   0  0  0  0  0  0  0  0  0  0  0  0
   -2.4509    2.4563    1.8357 H   0  0  0  0  0  0  0  0  0  0  0  0
   -4.6163    3.9544    1.6987 H   0  0  0  0  0  0  0  0  0  0  0  0
   -6.8269    3.6688    1.7897 H   0  0  0  0  0  0  0  0  0  0  0  0
   -6.9271    2.7709   -1.0868 H   0  0  0  0  0  0  0  0  0  0  0  0
   -5.7923    4.1365   -0.9083 H   0  0  0  0  0  0  0  0  0  0  0  0
   -8.3325    3.9730   -2.4928 H   0  0  0  0  0  0  0  0  0  0  0  0
  -10.0112    5.8134   -2.7174 H   0  0  0  0  0  0  0  0  0  0  0  0
  -10.4369    7.4203   -0.8514 H   0  0  0  0  0  0  0  0  0  0  0  0
   -9.1729    7.1815    1.2456 H   0  0  0  0  0  0  0  0  0  0  0  0
   -7.5839    5.3530    1.3934 H   0  0  0  0  0  0  0  0  0  0  0  0
   -5.4388    0.5843    0.1414 H   0  0  0  0  0  0  0  0  0  0  0  0
   -6.4221   -0.4577    2.7740 H   0  0  0  0  0  0  0  0  0  0  0  0
   -3.8738   -0.6853    0.0710 H   0  0  0  0  0  0  0  0  0  0  0  0
   -2.9038   -3.1750    1.5410 H   0  0  0  0  0  0  0  0  0  0  0  0
   -0.5540   -2.9568    1.9664 H   0  0  0  0  0  0  0  0  0  0  0  0
    1.2367   -3.9455    0.9249 H   0  0  0  0  0  0  0  0  0  0  0  0
    0.9309   -1.3539   -1.6619 H   0  0  0  0  0  0  0  0  0  0  0  0
   -0.2628   -3.3482   -1.5586 H   0  0  0  0  0  0  0  0  0  0  0  0
    1.5268   -3.6057   -1.7164 H   0  0  0  0  0  0  0  0  0  0  0  0
    0.2490   -5.8092   -3.0368 H   0  0  0  0  0  0  0  0  0  0  0  0
   -0.8697   -6.6708   -2.0190 H   0  0  0  0  0  0  0  0  0  0  0  0
   -4.0174   -3.0685   -1.1357 H   0  0  0  0  0  0  0  0  0  0  0  0
   -2.5347   -3.9425   -1.1893 H   0  0  0  0  0  0  0  0  0  0  0  0
   -5.2657   -4.6639   -0.0935 H   0  0  0  0  0  0  0  0  0  0  0  0
   -4.0042   -5.1433    1.0224 H   0  0  0  0  0  0  0  0  0  0  0  0
   -5.4007   -7.4989   -1.1040 H   0  0  0  0  0  0  0  0  0  0  0  0
   -5.1019   -6.5519   -2.6470 H   0  0  0  0  0  0  0  0  0  0  0  0
   -7.0451   -1.1648   -0.0227 H   0  0  0  0  0  0  0  0  0  0  0  0
   -8.4928   -2.4373    2.3280 H   0  0  0  0  0  0  0  0  0  0  0  0
   -8.6503   -0.7647    2.4859 H   0  0  0  0  0  0  0  0  0  0  0  0
   -9.6256   -0.8768   -0.0650 H   0  0  0  0  0  0  0  0  0  0  0  0
   -9.0186   -2.5089   -0.0553 H   0  0  0  0  0  0  0  0  0  0  0  0
  -10.4066   -2.1125    1.0242 H   0  0  0  0  0  0  0  0  0  0  0  0
   -6.1724   -3.0282   -0.0790 H   0  0  0  0  0  0  0  0  0  0  0  0
   -5.8258   -3.1355    1.7328 H   0  0  0  0  0  0  0  0  0  0  0  0
   -7.3443   -3.7609    1.0714 H   0  0  0  0  0  0  0  0  0  0  0  0
    4.3375    2.2832    1.5033 H   0  0  0  0  0  0  0  0  0  0  0  0
    4.7718    3.2661    0.1239 H   0  0  0  0  0  0  0  0  0  0  0  0
    5.6397   -0.2616    1.5526 H   0  0  0  0  0  0  0  0  0  0  0  0
    7.7842   -1.1382    1.2076 H   0  0  0  0  0  0  0  0  0  0  0  0
    9.0794   -1.1689    3.0324 H   0  0  0  0  0  0  0  0  0  0  0  0
    9.9262    0.3602    4.6776 H   0  0  0  0  0  0  0  0  0  0  0  0
   11.3989    0.1672    3.7352 H   0  0  0  0  0  0  0  0  0  0  0  0
   11.3347    3.4639    2.5666 H   0  0  0  0  0  0  0  0  0  0  0  0
   12.3210    2.4901    3.7859 H   0  0  0  0  0  0  0  0  0  0  0  0
    7.2000    0.6960   -0.9320 H   0  0  0  0  0  0  0  0  0  0  0  0
    7.7922   -1.0018   -0.8608 H   0  0  0  0  0  0  0  0  0  0  0  0
    9.5543    1.4878   -0.8492 H   0  0  0  0  0  0  0  0  0  0  0  0
   10.1557   -1.5611   -0.7053 H   0  0  0  0  0  0  0  0  0  0  0  0
   10.9436   -0.1270    0.1508 H   0  0  0  0  0  0  0  0  0  0  0  0
   11.1899   -0.3123   -1.6051 H   0  0  0  0  0  0  0  0  0  0  0  0
    9.9341    1.0121   -3.0550 H   0  0  0  0  0  0  0  0  0  0  0  0
    8.8270   -0.4818   -3.0641 H   0  0  0  0  0  0  0  0  0  0  0  0
    8.1777    1.1719   -2.7614 H   0  0  0  0  0  0  0  0  0  0  0  0
  1  2  1  0
  2  3  1  0
  3  4  1  0
  4  5  1  0
  5  6  1  0
  6  7  2  0
  6  8  1  0
  8  9  1  0
  9 10  1  0
 10 11  1  0
 11 12  1  0
 12 13  1  0
 13 14  1  0
 14 15  2  0
 14 16  1  0
 16 17  1  0
 17 18  1  0
 18 19  1  0
 19 20  2  0
 20 21  1  0
 21 22  2  0
 22 23  1  0
 23 24  2  0
 17 25  1  0
 25 26  2  0
 25 27  1  0
 27 28  1  0
 28 29  1  0
 29 30  2  0
 29 31  1  0
 31 32  1  0
 32 33  1  0
 33 34  2  0
 33 35  1  0
 35 36  1  0
 36 37  1  0
 37 38  2  0
 37 39  1  0
 36 40  1  0
 40 41  1  0
 41 42  2  0
 41 43  1  0
 32 44  1  0
 44 45  1  0
 45 46  1  0
 46 47  2  0
 46 48  1  0
 28 49  1  0
 49 50  1  0
 50 51  1  0
 49 52  1  0
  5 53  1  0
 53 54  1  0
 54 55  2  0
 54 56  1  0
 56 57  1  0
 57 58  1  0
 58 59  2  0
 58 60  1  0
 60 61  1  0
 61 62  1  0
 62 63  2  0
 62 64  1  0
 57 65  1  0
 65 66  1  0
 66 67  1  0
 66 68  1  0
 39  8  1  0
 24 19  1  0
  1 69  1  0
  2 70  1  0
  2 71  1  0
  3 72  1  0
  3 73  1  0
  4 74  1  0
  4 75  1  0
  8 76  1  6
  9 77  1  0
  9 78  1  0
 10 79  1  0
 10 80  1  0
 12 81  1  0
 12 82  1  0
 13 83  1  0
 13 84  1  0
 16 85  1  0
 17 86  1  1
 18 87  1  0
 18 88  1  0
 20 89  1  0
 21 90  1  0
 22 91  1  0
 23 92  1  0
 24 93  1  0
 27 94  1  0
 28 95  1  1
 31 96  1  0
 32 97  1  1
 35 98  1  0
 36 99  1  1
 39100  1  0
 40101  1  0
 40102  1  0
 43103  1  0
 43104  1  0
 44105  1  0
 44106  1  0
 45107  1  0
 45108  1  0
 48109  1  0
 48110  1  0
 49111  1  6
 50112  1  0
 50113  1  0
 51114  1  0
 51115  1  0
 51116  1  0
 52117  1  0
 52118  1  0
 52119  1  0
 53120  1  0
 53121  1  0
 56122  1  0
 57123  1  1
 60124  1  0
 61125  1  0
 61126  1  0
 64127  1  0
 64128  1  0
 65129  1  0
 65130  1  0
 66131  1  0
 67132  1  0
 67133  1  0
 67134  1  0
 68135  1  0
 68136  1  0
 68137  1  0
M  END
>  <Ligand ID>  (1) 
LIG0001566

>  <Ligand>  (1) 
CHEMBL3352839

>  <SMILES>  (1) 
OCCCN(C(=O)[C@@H]1CCSCCC(=O)N[C@@H](Cc2ccccc2)C(=O)N[C@H](C(=O)N[C@H](C(=O)N[C@H](C(=O)N1)CC(=O)N)CCC(=O)N)[C@H](CC)C)CC(=O)N[C@H](C(=O)NCC(=O)N)CC(C)C

>  <CID>  (1) 
118720270.0

>  <ChEMBL ID>  (1) 
nan

>  <InChiKey>  (1) 
HIPNAYFBTPFCTB-DHTODDSISA-N

>  <InChi>  (1) 
InChI=1S/C44H69N11O12S/c1-5-26(4)38-43(66)51-28(12-13-33(45)57)40(63)53-32(22-34(46)58)41(64)52-29(14-18-68-19-15-36(60)49-31(42(65)54-38)21-27-10-7-6-8-11-27)44(67)55(16-9-17-56)24-37(61)50-30(20-25(2)3)39(62)48-23-35(47)59/h6-8,10-11,25-26,28-32,38,56H,5,9,12-24H2,1-4H3,(H2,45,57)(H2,46,58)(H2,47,59)(H,48,62)(H,49,60)(H,50,61)(H,51,66)(H,52,64)(H,53,63)(H,54,65)/t26-,28-,29-,30-,31-,32-,38-/m0/s1

>  <IUPAC Name>  (1) 
(4S,7S,10S,13S,16S)-7-(2-amino-2-oxoethyl)-N-[2-[[(2S)-1-[(2-amino-2-oxoethyl)amino]-4-methyl-1-oxopentan-2-yl]amino]-2-oxoethyl]-10-(3-amino-3-oxopropyl)-16-benzyl-13-[(2S)-butan-2-yl]-N-(3-hydroxypropyl)-6,9,12,15,18-pentaoxo-1-thia-5,8,11,14,17-pentazacycloicosane-4-carboxamide

$$$$
