
     RDKit          3D

 57 57  0  0  0  0  0  0  0  0999 V2000
    7.9721    0.3898   -1.4163 C   0  0  0  0  0  0  0  0  0  0  0  0
    7.5717    1.3502   -0.3174 C   0  0  0  0  0  0  0  0  0  0  0  0
    6.3288    0.8233    0.3844 C   0  0  0  0  0  0  0  0  0  0  0  0
    5.1949    0.6993   -0.6218 C   0  0  0  0  0  0  0  0  0  0  0  0
    3.9481    0.1814    0.0244 C   0  0  0  0  0  0  0  0  0  0  0  0
    2.8114    0.0542   -0.9674 C   0  0  1  0  0  0  0  0  0  0  0  0
    1.5937   -0.4664   -0.2804 C   0  0  0  0  0  0  0  0  0  0  0  0
    0.8060    0.3143    0.4704 C   0  0  0  0  0  0  0  0  0  0  0  0
   -0.3637   -0.3095    1.0966 C   0  0  1  0  0  0  0  0  0  0  0  0
   -0.4804   -0.0312    2.5907 C   0  0  2  0  0  0  0  0  0  0  0  0
    0.1950   -0.9799    3.3209 O   0  0  0  0  0  0  0  0  0  0  0  0
   -1.9814   -0.2018    2.8937 C   0  0  0  0  0  0  0  0  0  0  0  0
   -2.5688   -0.5214    1.5453 C   0  0  0  0  0  0  0  0  0  0  0  0
   -3.4657   -1.2526    1.2420 O   0  0  0  0  0  0  0  0  0  0  0  0
   -1.6960    0.3492    0.6341 C   0  0  2  0  0  0  0  0  0  0  0  0
   -2.0310    0.0017   -0.7732 C   0  0  0  0  0  0  0  0  0  0  0  0
   -3.2117    0.6641   -1.2828 C   0  0  0  0  0  0  0  0  0  0  0  0
   -4.3322    0.1866   -1.7700 C   0  0  0  0  0  0  0  0  0  0  0  0
   -4.7245   -1.2089   -1.9327 C   0  0  0  0  0  0  0  0  0  0  0  0
   -6.0324   -1.6348   -1.4055 C   0  0  0  0  0  0  0  0  0  0  0  0
   -6.4365   -1.4305   -0.0076 C   0  0  0  0  0  0  0  0  0  0  0  0
   -6.5602   -0.0375    0.4401 C   0  0  0  0  0  0  0  0  0  0  0  0
   -5.6354    0.7174    0.8083 O   0  0  0  0  0  0  0  0  0  0  0  0
   -7.8407    0.5371    0.4697 O   0  0  0  0  0  0  0  0  0  0  0  0
    2.5360    1.2810   -1.5803 O   0  0  0  0  0  0  0  0  0  0  0  0
    7.4872   -0.5731   -1.2465 H   0  0  0  0  0  0  0  0  0  0  0  0
    7.7215    0.8305   -2.4092 H   0  0  0  0  0  0  0  0  0  0  0  0
    9.0699    0.2516   -1.3952 H   0  0  0  0  0  0  0  0  0  0  0  0
    7.3733    2.3508   -0.7766 H   0  0  0  0  0  0  0  0  0  0  0  0
    8.4096    1.4210    0.4143 H   0  0  0  0  0  0  0  0  0  0  0  0
    6.5636   -0.1948    0.7551 H   0  0  0  0  0  0  0  0  0  0  0  0
    6.0724    1.5121    1.2066 H   0  0  0  0  0  0  0  0  0  0  0  0
    5.5011    0.0409   -1.4470 H   0  0  0  0  0  0  0  0  0  0  0  0
    5.0178    1.7091   -1.0531 H   0  0  0  0  0  0  0  0  0  0  0  0
    4.1252   -0.8195    0.4564 H   0  0  0  0  0  0  0  0  0  0  0  0
    3.6421    0.8473    0.8600 H   0  0  0  0  0  0  0  0  0  0  0  0
    3.1199   -0.6439   -1.7537 H   0  0  0  0  0  0  0  0  0  0  0  0
    1.3424   -1.5283   -0.4006 H   0  0  0  0  0  0  0  0  0  0  0  0
    1.0341    1.3534    0.6009 H   0  0  0  0  0  0  0  0  0  0  0  0
   -0.4450   -1.3868    0.9477 H   0  0  0  0  0  0  0  0  0  0  0  0
   -0.2234    0.9991    2.8536 H   0  0  0  0  0  0  0  0  0  0  0  0
    0.2181   -0.7197    4.2702 H   0  0  0  0  0  0  0  0  0  0  0  0
   -2.4298    0.7247    3.2653 H   0  0  0  0  0  0  0  0  0  0  0  0
   -2.1586   -1.0193    3.6081 H   0  0  0  0  0  0  0  0  0  0  0  0
   -1.7287    1.3904    0.9133 H   0  0  0  0  0  0  0  0  0  0  0  0
   -2.0708   -1.1127   -0.8215 H   0  0  0  0  0  0  0  0  0  0  0  0
   -1.1516    0.3735   -1.3908 H   0  0  0  0  0  0  0  0  0  0  0  0
   -3.1688    1.7916   -1.2613 H   0  0  0  0  0  0  0  0  0  0  0  0
   -5.0907    0.9370   -2.1061 H   0  0  0  0  0  0  0  0  0  0  0  0
   -3.9115   -1.9277   -1.6470 H   0  0  0  0  0  0  0  0  0  0  0  0
   -4.7763   -1.3740   -3.0603 H   0  0  0  0  0  0  0  0  0  0  0  0
   -6.1717   -2.7312   -1.6377 H   0  0  0  0  0  0  0  0  0  0  0  0
   -6.8858   -1.1712   -2.0297 H   0  0  0  0  0  0  0  0  0  0  0  0
   -7.5010   -1.8712    0.0534 H   0  0  0  0  0  0  0  0  0  0  0  0
   -5.9141   -2.0538    0.7528 H   0  0  0  0  0  0  0  0  0  0  0  0
   -7.8942    1.5610    0.3676 H   0  0  0  0  0  0  0  0  0  0  0  0
    3.2265    1.5580   -2.2013 H   0  0  0  0  0  0  0  0  0  0  0  0
  1  2  1  0
  2  3  1  0
  3  4  1  0
  4  5  1  0
  5  6  1  0
  6  7  1  0
  7  8  2  0
  8  9  1  0
  9 10  1  0
 10 11  1  0
 10 12  1  0
 12 13  1  0
 13 14  2  0
 13 15  1  0
 15 16  1  0
 16 17  1  0
 17 18  2  0
 18 19  1  0
 19 20  1  0
 20 21  1  0
 21 22  1  0
 22 23  2  0
 22 24  1  0
  6 25  1  0
 15  9  1  0
  1 26  1  0
  1 27  1  0
  1 28  1  0
  2 29  1  0
  2 30  1  0
  3 31  1  0
  3 32  1  0
  4 33  1  0
  4 34  1  0
  5 35  1  0
  5 36  1  0
  6 37  1  6
  7 38  1  0
  8 39  1  0
  9 40  1  1
 10 41  1  6
 11 42  1  0
 12 43  1  0
 12 44  1  0
 15 45  1  6
 16 46  1  0
 16 47  1  0
 17 48  1  0
 18 49  1  0
 19 50  1  0
 19 51  1  0
 20 52  1  0
 20 53  1  0
 21 54  1  0
 21 55  1  0
 24 56  1  0
 25 57  1  0
M  END
>  <Ligand ID>  (1) 
LIG0000442

>  <Ligand>  (1) 
PGE2

>  <SMILES>  (1) 
CCCCC[C@@H](/C=C/[C@H]1[C@H](O)CC(=O)[C@@H]1C/C=C\CCCC(=O)O)O

>  <CID>  (1) 
5280360.0

>  <ChEMBL ID>  (1) 
nan

>  <InChiKey>  (1) 
XEYBRNLFEZDVAW-ARSRFYASSA-N

>  <InChi>  (1) 
InChI=1S/C20H32O5/c1-2-3-6-9-15(21)12-13-17-16(18(22)14-19(17)23)10-7-4-5-8-11-20(24)25/h4,7,12-13,15-17,19,21,23H,2-3,5-6,8-11,14H2,1H3,(H,24,25)/b7-4-,13-12+/t15-,16+,17+,19+/m0/s1

>  <IUPAC Name>  (1) 
(Z)-7-[(1R,2R,3R)-3-hydroxy-2-[(E,3S)-3-hydroxyoct-1-enyl]-5-oxocyclopentyl]hept-5-enoic acid

$$$$
