
     RDKit          3D

 43 46  0  0  0  0  0  0  0  0999 V2000
   -3.0710   -0.2148    2.5966 C   0  0  0  0  0  0  0  0  0  0  0  0
   -3.7158    0.4040    1.3766 C   0  0  2  0  0  0  0  0  0  0  0  0
   -4.9853   -0.2917    0.9624 C   0  0  0  0  0  0  0  0  0  0  0  0
   -5.1201    0.1946   -0.4856 C   0  0  0  0  0  0  0  0  0  0  0  0
   -3.6977    0.2292   -1.0091 C   0  0  1  0  0  0  0  0  0  0  0  0
   -2.8919    0.3041    0.1917 N   0  0  0  0  0  0  0  0  0  0  0  0
   -1.4547    0.2854    0.2121 C   0  0  0  0  0  0  0  0  0  0  0  0
   -0.7139    0.2253   -0.9420 C   0  0  0  0  0  0  0  0  0  0  0  0
    0.6848    0.2086   -0.8595 C   0  0  0  0  0  0  0  0  0  0  0  0
    1.3444    0.2502    0.3361 C   0  0  0  0  0  0  0  0  0  0  0  0
    0.5476    0.3091    1.4436 N   0  0  0  0  0  0  0  0  0  0  0  0
   -0.7787    0.3253    1.3731 N   0  0  0  0  0  0  0  0  0  0  0  0
    2.7641    0.2388    0.5519 C   0  0  0  0  0  0  0  0  0  0  0  0
    3.2136    0.2888    1.8775 C   0  0  0  0  0  0  0  0  0  0  0  0
    4.5704    0.2816    2.1702 C   0  0  0  0  0  0  0  0  0  0  0  0
    5.5216    0.2260    1.1892 C   0  0  0  0  0  0  0  0  0  0  0  0
    5.1032    0.1766   -0.1116 C   0  0  0  0  0  0  0  0  0  0  0  0
    3.7417    0.1840   -0.4015 C   0  0  0  0  0  0  0  0  0  0  0  0
    3.4105    0.1339   -1.6916 N   0  0  0  0  0  0  0  0  0  0  0  0
    4.2683    0.0778   -2.7167 C   0  0  0  0  0  0  0  0  0  0  0  0
    5.6320    0.0704   -2.4251 C   0  0  0  0  0  0  0  0  0  0  0  0
    6.0512    0.1203   -1.1119 C   0  0  0  0  0  0  0  0  0  0  0  0
   -3.3934   -0.9792   -1.8349 C   0  0  0  0  0  0  0  0  0  0  0  0
   -2.4767    0.5710    3.0834 H   0  0  0  0  0  0  0  0  0  0  0  0
   -2.5151   -1.1229    2.3446 H   0  0  0  0  0  0  0  0  0  0  0  0
   -3.9011   -0.5122    3.2788 H   0  0  0  0  0  0  0  0  0  0  0  0
   -3.9427    1.4769    1.5433 H   0  0  0  0  0  0  0  0  0  0  0  0
   -4.8022   -1.3931    0.8933 H   0  0  0  0  0  0  0  0  0  0  0  0
   -5.8645   -0.0483    1.5612 H   0  0  0  0  0  0  0  0  0  0  0  0
   -5.7948   -0.4480   -1.0642 H   0  0  0  0  0  0  0  0  0  0  0  0
   -5.4944    1.2297   -0.4334 H   0  0  0  0  0  0  0  0  0  0  0  0
   -3.5017    1.1366   -1.6109 H   0  0  0  0  0  0  0  0  0  0  0  0
   -1.1848    0.1917   -1.9106 H   0  0  0  0  0  0  0  0  0  0  0  0
    1.2091    0.1621   -1.7685 H   0  0  0  0  0  0  0  0  0  0  0  0
    2.5478    0.3342    2.7177 H   0  0  0  0  0  0  0  0  0  0  0  0
    4.8889    0.3209    3.2006 H   0  0  0  0  0  0  0  0  0  0  0  0
    6.5629    0.2217    1.4424 H   0  0  0  0  0  0  0  0  0  0  0  0
    3.9094    0.0394   -3.7395 H   0  0  0  0  0  0  0  0  0  0  0  0
    6.3622    0.0253   -3.2358 H   0  0  0  0  0  0  0  0  0  0  0  0
    7.1150    0.1140   -0.8982 H   0  0  0  0  0  0  0  0  0  0  0  0
   -4.3201   -1.6073   -1.8710 H   0  0  0  0  0  0  0  0  0  0  0  0
   -2.6352   -1.6328   -1.3563 H   0  0  0  0  0  0  0  0  0  0  0  0
   -3.1929   -0.6986   -2.8684 H   0  0  0  0  0  0  0  0  0  0  0  0
  1  2  1  0
  2  3  1  0
  3  4  1  0
  4  5  1  0
  5  6  1  0
  6  7  1  0
  7  8  2  0
  8  9  1  0
  9 10  2  0
 10 11  1  0
 11 12  2  0
 10 13  1  0
 13 14  2  0
 14 15  1  0
 15 16  2  0
 16 17  1  0
 17 18  2  0
 18 19  1  0
 19 20  2  0
 20 21  1  0
 21 22  2  0
  5 23  1  0
  6  2  1  0
 12  7  1  0
 18 13  1  0
 22 17  1  0
  1 24  1  0
  1 25  1  0
  1 26  1  0
  2 27  1  1
  3 28  1  0
  3 29  1  0
  4 30  1  0
  4 31  1  0
  5 32  1  6
  8 33  1  0
  9 34  1  0
 14 35  1  0
 15 36  1  0
 16 37  1  0
 20 38  1  0
 21 39  1  0
 22 40  1  0
 23 41  1  0
 23 42  1  0
 23 43  1  0
M  END
>  <Ligand ID>  (1) 
LIG0005237

>  <Ligand>  (1) 
CHEMBL593582

>  <SMILES>  (1) 
C[C@@H]1CC[C@@H](N1c1ccc(nn1)c1cccc2c1nccc2)C

>  <CID>  (1) 
46226148.0

>  <ChEMBL ID>  (1) 
nan

>  <InChiKey>  (1) 
XQOPWYVOLGNCPQ-OKILXGFUSA-N

>  <InChi>  (1) 
InChI=1S/C19H20N4/c1-13-8-9-14(2)23(13)18-11-10-17(21-22-18)16-7-3-5-15-6-4-12-20-19(15)16/h3-7,10-14H,8-9H2,1-2H3/t13-,14+

>  <IUPAC Name>  (1) 
8-[6-[(2R,5S)-2,5-dimethylpyrrolidin-1-yl]pyridazin-3-yl]quinoline

$$$$
