
     RDKit          3D

 70 69  0  0  0  0  0  0  0  0999 V2000
    6.8246    3.8251    2.2391 C   0  0  0  0  0  0  0  0  0  0  0  0
    6.4057    3.3219    0.8641 C   0  0  0  0  0  0  0  0  0  0  0  0
    6.6037    1.8239    0.8560 C   0  0  0  0  0  0  0  0  0  0  0  0
    6.2146    1.2139   -0.4721 C   0  0  0  0  0  0  0  0  0  0  0  0
    4.7841    1.4556   -0.8220 C   0  0  0  0  0  0  0  0  0  0  0  0
    4.4529    0.8262   -2.1551 C   0  0  0  0  0  0  0  0  0  0  0  0
    4.6567   -0.6519   -2.2047 C   0  0  0  0  0  0  0  0  0  0  0  0
    3.8048   -1.4065   -1.1873 C   0  0  0  0  0  0  0  0  0  0  0  0
    2.3923   -1.1140   -1.4886 C   0  0  0  0  0  0  0  0  0  0  0  0
    1.4634   -2.0394   -1.8195 C   0  0  0  0  0  0  0  0  0  0  0  0
    1.7464   -3.4755   -1.9239 C   0  0  0  0  0  0  0  0  0  0  0  0
    1.0193   -4.3935   -1.0110 C   0  0  0  0  0  0  0  0  0  0  0  0
   -0.4368   -4.5497   -1.0735 C   0  0  0  0  0  0  0  0  0  0  0  0
   -1.3309   -3.3975   -0.8252 C   0  0  0  0  0  0  0  0  0  0  0  0
   -1.1177   -2.7692    0.5307 C   0  0  0  0  0  0  0  0  0  0  0  0
   -2.0427   -1.5963    0.7479 C   0  0  0  0  0  0  0  0  0  0  0  0
   -3.4910   -1.9626    0.6772 C   0  0  0  0  0  0  0  0  0  0  0  0
   -4.2775   -0.7124    0.9083 C   0  0  0  0  0  0  0  0  0  0  0  0
   -3.5949    0.3377    1.0977 O   0  0  0  0  0  0  0  0  0  0  0  0
   -5.6888   -0.7267    0.9104 N   0  0  0  0  0  0  0  0  0  0  0  0
   -6.4925    0.4849    1.1333 C   0  0  0  0  0  0  0  0  0  0  0  0
   -6.2375    1.5415    0.1112 C   0  0  0  0  0  0  0  0  0  0  0  0
   -7.0334    2.8013    0.2914 C   0  0  0  0  0  0  0  0  0  0  0  0
   -6.7260    3.6099    1.8608 P   0  0  0  0  0  0  0  0  0  0  0  0
   -5.2914    4.0570    2.0084 O   0  0  0  0  0  0  0  0  0  0  0  0
   -7.6865    5.0262    1.9059 O   0  0  0  0  0  0  0  0  0  0  0  0
   -7.1588    2.6781    3.1926 O   0  0  0  0  0  0  0  0  0  0  0  0
   -6.6637    3.6839   -0.7239 O   0  0  0  0  0  0  0  0  0  0  0  0
    6.1522    3.3246    2.9773 H   0  0  0  0  0  0  0  0  0  0  0  0
    7.8608    3.4472    2.4685 H   0  0  0  0  0  0  0  0  0  0  0  0
    6.7627    4.9162    2.3363 H   0  0  0  0  0  0  0  0  0  0  0  0
    7.0949    3.8207    0.1528 H   0  0  0  0  0  0  0  0  0  0  0  0
    5.3793    3.6246    0.6599 H   0  0  0  0  0  0  0  0  0  0  0  0
    6.0048    1.3474    1.6566 H   0  0  0  0  0  0  0  0  0  0  0  0
    7.6692    1.6257    1.0836 H   0  0  0  0  0  0  0  0  0  0  0  0
    6.8254    1.7225   -1.2614 H   0  0  0  0  0  0  0  0  0  0  0  0
    6.3854    0.1265   -0.4398 H   0  0  0  0  0  0  0  0  0  0  0  0
    4.5747    2.5573   -0.9648 H   0  0  0  0  0  0  0  0  0  0  0  0
    4.0583    1.0735   -0.0815 H   0  0  0  0  0  0  0  0  0  0  0  0
    5.1785    1.2653   -2.8912 H   0  0  0  0  0  0  0  0  0  0  0  0
    3.4329    1.0657   -2.4947 H   0  0  0  0  0  0  0  0  0  0  0  0
    4.4192   -0.9775   -3.2388 H   0  0  0  0  0  0  0  0  0  0  0  0
    5.7025   -0.9620   -2.0325 H   0  0  0  0  0  0  0  0  0  0  0  0
    4.0890   -2.4463   -1.0992 H   0  0  0  0  0  0  0  0  0  0  0  0
    4.0442   -0.9597   -0.1657 H   0  0  0  0  0  0  0  0  0  0  0  0
    2.1052   -0.0440   -1.4285 H   0  0  0  0  0  0  0  0  0  0  0  0
    0.4847   -1.5855   -2.0188 H   0  0  0  0  0  0  0  0  0  0  0  0
    1.4576   -3.8260   -2.9870 H   0  0  0  0  0  0  0  0  0  0  0  0
    2.8470   -3.6927   -1.9271 H   0  0  0  0  0  0  0  0  0  0  0  0
    1.4483   -5.4480   -1.1804 H   0  0  0  0  0  0  0  0  0  0  0  0
    1.3776   -4.2151    0.0609 H   0  0  0  0  0  0  0  0  0  0  0  0
   -0.7000   -5.4249   -0.4057 H   0  0  0  0  0  0  0  0  0  0  0  0
   -0.6867   -4.9443   -2.1040 H   0  0  0  0  0  0  0  0  0  0  0  0
   -1.3490   -2.7060   -1.6663 H   0  0  0  0  0  0  0  0  0  0  0  0
   -2.3911   -3.8433   -0.8541 H   0  0  0  0  0  0  0  0  0  0  0  0
   -1.2399   -3.4729    1.3531 H   0  0  0  0  0  0  0  0  0  0  0  0
   -0.0821   -2.3877    0.5772 H   0  0  0  0  0  0  0  0  0  0  0  0
   -1.8185   -0.8123   -0.0092 H   0  0  0  0  0  0  0  0  0  0  0  0
   -1.8546   -1.1879    1.7549 H   0  0  0  0  0  0  0  0  0  0  0  0
   -3.7805   -2.4796   -0.2454 H   0  0  0  0  0  0  0  0  0  0  0  0
   -3.7353   -2.6508    1.5229 H   0  0  0  0  0  0  0  0  0  0  0  0
   -6.1488   -1.6623    0.7425 H   0  0  0  0  0  0  0  0  0  0  0  0
   -7.5407    0.1883    1.1286 H   0  0  0  0  0  0  0  0  0  0  0  0
   -6.2145    0.8041    2.1661 H   0  0  0  0  0  0  0  0  0  0  0  0
   -5.1388    1.7827    0.1025 H   0  0  0  0  0  0  0  0  0  0  0  0
   -6.4508    1.1021   -0.8825 H   0  0  0  0  0  0  0  0  0  0  0  0
   -8.1045    2.5423    0.2252 H   0  0  0  0  0  0  0  0  0  0  0  0
   -8.5911    4.7899    1.5561 H   0  0  0  0  0  0  0  0  0  0  0  0
   -7.4455    3.2867    3.9226 H   0  0  0  0  0  0  0  0  0  0  0  0
   -7.1804    3.4236   -1.5376 H   0  0  0  0  0  0  0  0  0  0  0  0
  1  2  1  0
  2  3  1  0
  3  4  1  0
  4  5  1  0
  5  6  1  0
  6  7  1  0
  7  8  1  0
  8  9  1  0
  9 10  2  0
 10 11  1  0
 11 12  1  0
 12 13  1  0
 13 14  1  0
 14 15  1  0
 15 16  1  0
 16 17  1  0
 17 18  1  0
 18 19  2  0
 18 20  1  0
 20 21  1  0
 21 22  1  0
 22 23  1  0
 23 24  1  0
 24 25  2  0
 24 26  1  0
 24 27  1  0
 23 28  1  0
  1 29  1  0
  1 30  1  0
  1 31  1  0
  2 32  1  0
  2 33  1  0
  3 34  1  0
  3 35  1  0
  4 36  1  0
  4 37  1  0
  5 38  1  0
  5 39  1  0
  6 40  1  0
  6 41  1  0
  7 42  1  0
  7 43  1  0
  8 44  1  0
  8 45  1  0
  9 46  1  0
 10 47  1  0
 11 48  1  0
 11 49  1  0
 12 50  1  0
 12 51  1  0
 13 52  1  0
 13 53  1  0
 14 54  1  0
 14 55  1  0
 15 56  1  0
 15 57  1  0
 16 58  1  0
 16 59  1  0
 17 60  1  0
 17 61  1  0
 20 62  1  0
 21 63  1  0
 21 64  1  0
 22 65  1  0
 22 66  1  0
 23 67  1  0
 26 68  1  0
 27 69  1  0
 28 70  1  0
M  END
>  <Ligand ID>  (1) 
LIG0004220

>  <Ligand>  (1) 
SCHEMBL3448131

>  <SMILES>  (1) 
CCCCCCCC/C=C\CCCCCCCC(=O)NCCC(P(=O)(O)O)O

>  <CID>  (1) 
10180382.0

>  <ChEMBL ID>  (1) 
nan

>  <InChiKey>  (1) 
MZENGNOXTCCUDF-KTKRTIGZSA-N

>  <InChi>  (1) 
InChI=1S/C21H42NO5P/c1-2-3-4-5-6-7-8-9-10-11-12-13-14-15-16-17-20(23)22-19-18-21(24)28(25,26)27/h9-10,21,24H,2-8,11-19H2,1H3,(H,22,23)(H2,25,26,27)/b10-9-

>  <IUPAC Name>  (1) 
[1-hydroxy-3-[[(Z)-octadec-9-enoyl]amino]propyl]phosphonic acid

$$$$
