
     RDKit          3D

 58 61  0  0  0  0  0  0  0  0999 V2000
   -3.3151   -5.9961    0.2408 C   0  0  0  0  0  0  0  0  0  0  0  0
   -3.1094   -4.8660   -0.5515 O   0  0  0  0  0  0  0  0  0  0  0  0
   -3.4113   -3.5706   -0.1530 C   0  0  0  0  0  0  0  0  0  0  0  0
   -3.9503   -3.2890    1.0852 C   0  0  0  0  0  0  0  0  0  0  0  0
   -4.2207   -1.9592    1.3974 C   0  0  0  0  0  0  0  0  0  0  0  0
   -3.9478   -0.9464    0.4701 C   0  0  0  0  0  0  0  0  0  0  0  0
   -3.4071   -1.2425   -0.7682 C   0  0  0  0  0  0  0  0  0  0  0  0
   -3.1386   -2.5613   -1.0785 C   0  0  0  0  0  0  0  0  0  0  0  0
   -3.1484   -0.1226   -1.7054 C   0  0  0  0  0  0  0  0  0  0  0  0
   -1.8236    0.5160   -1.5209 C   0  0  0  0  0  0  0  0  0  0  0  0
   -1.7950    1.7593   -0.8768 C   0  0  0  0  0  0  0  0  0  0  0  0
   -0.6173    2.4279   -0.6642 C   0  0  0  0  0  0  0  0  0  0  0  0
    0.5113    1.8263   -1.1071 N   0  0  0  0  0  0  0  0  0  0  0  0
    0.5124    0.6645   -1.7121 N   0  0  0  0  0  0  0  0  0  0  0  0
   -0.6369   -0.0084   -1.9304 C   0  0  0  0  0  0  0  0  0  0  0  0
   -0.6263   -1.1233   -2.5122 O   0  0  0  0  0  0  0  0  0  0  0  0
    1.7925    0.1301   -2.1339 C   0  0  0  0  0  0  0  0  0  0  0  0
    2.4208   -0.6942   -1.0672 C   0  0  0  0  0  0  0  0  0  0  0  0
    1.7942   -0.8094    0.0058 O   0  0  0  0  0  0  0  0  0  0  0  0
    3.6613   -1.3040   -1.2811 N   0  0  0  0  0  0  0  0  0  0  0  0
    4.3829   -2.1073   -0.3762 C   0  0  0  0  0  0  0  0  0  0  0  0
    5.6000   -2.6469   -0.7794 C   0  0  0  0  0  0  0  0  0  0  0  0
    6.3626   -3.4376    0.0504 C   0  0  0  0  0  0  0  0  0  0  0  0
    5.9646   -3.7477    1.3458 C   0  0  0  0  0  0  0  0  0  0  0  0
    4.7600   -3.2162    1.7505 C   0  0  0  0  0  0  0  0  0  0  0  0
    3.9882   -2.4133    0.9045 C   0  0  0  0  0  0  0  0  0  0  0  0
    6.7397   -4.5178    2.1112 F   0  0  0  0  0  0  0  0  0  0  0  0
   -0.5280    3.7213    0.0001 C   0  0  0  0  0  0  0  0  0  0  0  0
   -1.6229    4.4064    0.4826 C   0  0  0  0  0  0  0  0  0  0  0  0
   -1.4992    5.6333    1.1100 C   0  0  0  0  0  0  0  0  0  0  0  0
   -0.2629    6.2196    1.2762 C   0  0  0  0  0  0  0  0  0  0  0  0
    0.8411    5.5398    0.7954 C   0  0  0  0  0  0  0  0  0  0  0  0
    0.7029    4.3172    0.1719 C   0  0  0  0  0  0  0  0  0  0  0  0
   -0.1601    7.5241    1.9470 C   0  0  0  0  0  0  0  0  0  0  0  0
   -3.4685   -6.8872   -0.4076 H   0  0  0  0  0  0  0  0  0  0  0  0
   -4.2424   -5.8843    0.8386 H   0  0  0  0  0  0  0  0  0  0  0  0
   -2.4960   -6.2166    0.9531 H   0  0  0  0  0  0  0  0  0  0  0  0
   -4.1570   -4.0843    1.7946 H   0  0  0  0  0  0  0  0  0  0  0  0
   -4.6379   -1.7623    2.3621 H   0  0  0  0  0  0  0  0  0  0  0  0
   -4.1775    0.0678    0.7658 H   0  0  0  0  0  0  0  0  0  0  0  0
   -2.7185   -2.8188   -2.0413 H   0  0  0  0  0  0  0  0  0  0  0  0
   -3.1195   -0.5945   -2.7321 H   0  0  0  0  0  0  0  0  0  0  0  0
   -3.9480    0.6432   -1.6609 H   0  0  0  0  0  0  0  0  0  0  0  0
   -2.7213    2.1876   -0.5470 H   0  0  0  0  0  0  0  0  0  0  0  0
    2.4226    0.9790   -2.4481 H   0  0  0  0  0  0  0  0  0  0  0  0
    1.6132   -0.5073   -3.0127 H   0  0  0  0  0  0  0  0  0  0  0  0
    4.1034   -1.1372   -2.2363 H   0  0  0  0  0  0  0  0  0  0  0  0
    5.9864   -2.4488   -1.7910 H   0  0  0  0  0  0  0  0  0  0  0  0
    7.2948   -3.8193   -0.3343 H   0  0  0  0  0  0  0  0  0  0  0  0
    4.4025   -3.4319    2.7633 H   0  0  0  0  0  0  0  0  0  0  0  0
    3.0758   -2.0523    1.3141 H   0  0  0  0  0  0  0  0  0  0  0  0
   -2.6133    3.9901    0.3772 H   0  0  0  0  0  0  0  0  0  0  0  0
   -2.3908    6.1363    1.4741 H   0  0  0  0  0  0  0  0  0  0  0  0
    1.8391    5.9856    0.9154 H   0  0  0  0  0  0  0  0  0  0  0  0
    1.5926    3.8325   -0.1832 H   0  0  0  0  0  0  0  0  0  0  0  0
   -0.8399    8.2951    1.4938 H   0  0  0  0  0  0  0  0  0  0  0  0
    0.8499    7.9444    1.9464 H   0  0  0  0  0  0  0  0  0  0  0  0
   -0.4631    7.4770    3.0289 H   0  0  0  0  0  0  0  0  0  0  0  0
  1  2  1  0
  2  3  1  0
  3  4  2  0
  4  5  1  0
  5  6  2  0
  6  7  1  0
  7  8  2  0
  7  9  1  0
  9 10  1  0
 10 11  2  0
 11 12  1  0
 12 13  2  0
 13 14  1  0
 14 15  1  0
 15 16  2  0
 14 17  1  0
 17 18  1  0
 18 19  2  0
 18 20  1  0
 20 21  1  0
 21 22  2  0
 22 23  1  0
 23 24  2  0
 24 25  1  0
 25 26  2  0
 24 27  1  0
 12 28  1  0
 28 29  2  0
 29 30  1  0
 30 31  2  0
 31 32  1  0
 32 33  2  0
 31 34  1  0
  8  3  1  0
 15 10  1  0
 26 21  1  0
 33 28  1  0
  1 35  1  0
  1 36  1  0
  1 37  1  0
  4 38  1  0
  5 39  1  0
  6 40  1  0
  8 41  1  0
  9 42  1  0
  9 43  1  0
 11 44  1  0
 17 45  1  0
 17 46  1  0
 20 47  1  0
 22 48  1  0
 23 49  1  0
 25 50  1  0
 26 51  1  0
 29 52  1  0
 30 53  1  0
 32 54  1  0
 33 55  1  0
 34 56  1  0
 34 57  1  0
 34 58  1  0
M  END
>  <Ligand ID>  (1) 
LIG0003806

>  <Ligand>  (1) 
CHEMBL2391272

>  <SMILES>  (1) 
COc1cccc(c1)Cc1cc(nn(c1=O)CC(=O)Nc1ccc(cc1)F)c1ccc(cc1)C

>  <CID>  (1) 
71698795.0

>  <ChEMBL ID>  (1) 
nan

>  <InChiKey>  (1) 
PIGFTYCSVKYXPU-UHFFFAOYSA-N

>  <InChi>  (1) 
InChI=1S/C27H24FN3O3/c1-18-6-8-20(9-7-18)25-16-21(14-19-4-3-5-24(15-19)34-2)27(33)31(30-25)17-26(32)29-23-12-10-22(28)11-13-23/h3-13,15-16H,14,17H2,1-2H3,(H,29,32)

>  <IUPAC Name>  (1) 
N-(4-fluorophenyl)-2-[5-[(3-methoxyphenyl)methyl]-3-(4-methylphenyl)-6-oxopyridazin-1-yl]acetamide

$$$$
