
     RDKit          3D

 53 55  0  0  0  0  0  0  0  0999 V2000
   -6.3672   -0.3584    3.0223 N   0  0  0  0  0  0  0  0  0  0  0  0
   -6.8500    0.2323    2.1325 C   0  0  0  0  0  0  0  0  0  0  0  0
   -7.4606    0.9465    1.0572 C   0  0  0  0  0  0  0  0  0  0  0  0
   -8.7019    1.5259    1.1799 C   0  0  0  0  0  0  0  0  0  0  0  0
   -9.3156    2.2054    0.2009 N   0  0  0  0  0  0  0  0  0  0  0  0
   -8.7011    2.3433   -0.9835 C   0  0  0  0  0  0  0  0  0  0  0  0
   -7.4417    1.7822   -1.1788 C   0  0  0  0  0  0  0  0  0  0  0  0
   -6.8220    1.0854   -0.1618 C   0  0  0  0  0  0  0  0  0  0  0  0
   -5.4707    0.4663   -0.3244 C   0  0  0  0  0  0  0  0  0  0  0  0
   -4.4550    1.1870    0.3021 O   0  0  0  0  0  0  0  0  0  0  0  0
   -3.1539    0.7324    0.2350 C   0  0  0  0  0  0  0  0  0  0  0  0
   -2.1817    1.4844    0.8742 C   0  0  0  0  0  0  0  0  0  0  0  0
   -0.8734    1.1137    0.8614 N   0  0  0  0  0  0  0  0  0  0  0  0
   -0.5527    0.0029    0.2143 C   0  0  0  0  0  0  0  0  0  0  0  0
   -1.4661   -0.7655   -0.4250 N   0  0  0  0  0  0  0  0  0  0  0  0
   -2.7784   -0.4191   -0.4284 C   0  0  0  0  0  0  0  0  0  0  0  0
    0.8125   -0.3943    0.1933 N   0  0  0  0  0  0  0  0  0  0  0  0
    1.8264    0.4037    0.8621 C   0  0  0  0  0  0  0  0  0  0  0  0
    3.0794    0.5106   -0.0174 C   0  0  0  0  0  0  0  0  0  0  0  0
    3.5537   -0.8738   -0.1363 N   0  0  0  0  0  0  0  0  0  0  0  0
    2.6587   -1.9944   -0.0265 C   0  0  0  0  0  0  0  0  0  0  0  0
    1.2768   -1.5961   -0.4818 C   0  0  1  0  0  0  0  0  0  0  0  0
    0.2915   -2.7257   -0.3344 C   0  0  0  0  0  0  0  0  0  0  0  0
    4.9531   -1.1125   -0.3700 C   0  0  0  0  0  0  0  0  0  0  0  0
    5.3851   -2.2882   -0.4754 O   0  0  0  0  0  0  0  0  0  0  0  0
    5.8214   -0.0575   -0.4788 O   0  0  0  0  0  0  0  0  0  0  0  0
    7.1859   -0.2987   -0.7073 C   0  0  0  0  0  0  0  0  0  0  0  0
    7.9785    0.2205    0.4626 C   0  0  0  0  0  0  0  0  0  0  0  0
    7.6166    0.3419   -2.0077 C   0  0  0  0  0  0  0  0  0  0  0  0
   -9.1929    1.4066    2.1502 H   0  0  0  0  0  0  0  0  0  0  0  0
   -9.2045    2.9014   -1.7883 H   0  0  0  0  0  0  0  0  0  0  0  0
   -6.9429    1.8944   -2.1408 H   0  0  0  0  0  0  0  0  0  0  0  0
   -5.5360   -0.5610    0.0932 H   0  0  0  0  0  0  0  0  0  0  0  0
   -5.3347    0.3524   -1.4218 H   0  0  0  0  0  0  0  0  0  0  0  0
   -2.3967    2.3947    1.4130 H   0  0  0  0  0  0  0  0  0  0  0  0
   -3.5247   -1.0142   -0.9303 H   0  0  0  0  0  0  0  0  0  0  0  0
    2.1579   -0.0637    1.8083 H   0  0  0  0  0  0  0  0  0  0  0  0
    1.5239    1.4317    1.0769 H   0  0  0  0  0  0  0  0  0  0  0  0
    3.7950    1.1406    0.5116 H   0  0  0  0  0  0  0  0  0  0  0  0
    2.8250    0.9091   -1.0187 H   0  0  0  0  0  0  0  0  0  0  0  0
    2.5678   -2.3493    1.0219 H   0  0  0  0  0  0  0  0  0  0  0  0
    2.9971   -2.8208   -0.6842 H   0  0  0  0  0  0  0  0  0  0  0  0
    1.3448   -1.3412   -1.5588 H   0  0  0  0  0  0  0  0  0  0  0  0
   -0.4136   -2.7584   -1.1872 H   0  0  0  0  0  0  0  0  0  0  0  0
   -0.3059   -2.5768    0.5977 H   0  0  0  0  0  0  0  0  0  0  0  0
    0.8358   -3.6865   -0.2973 H   0  0  0  0  0  0  0  0  0  0  0  0
    7.3271   -1.3907   -0.7633 H   0  0  0  0  0  0  0  0  0  0  0  0
    9.0245   -0.1501    0.4585 H   0  0  0  0  0  0  0  0  0  0  0  0
    7.8848    1.3180    0.5772 H   0  0  0  0  0  0  0  0  0  0  0  0
    7.5065   -0.2158    1.3809 H   0  0  0  0  0  0  0  0  0  0  0  0
    8.6128   -0.0578   -2.3240 H   0  0  0  0  0  0  0  0  0  0  0  0
    7.6894    1.4339   -1.9126 H   0  0  0  0  0  0  0  0  0  0  0  0
    6.9118    0.1033   -2.8111 H   0  0  0  0  0  0  0  0  0  0  0  0
  1  2  3  0
  2  3  1  0
  3  4  2  0
  4  5  1  0
  5  6  2  0
  6  7  1  0
  7  8  2  0
  8  9  1  0
  9 10  1  0
 10 11  1  0
 11 12  2  0
 12 13  1  0
 13 14  2  0
 14 15  1  0
 15 16  2  0
 14 17  1  0
 17 18  1  0
 18 19  1  0
 19 20  1  0
 20 21  1  0
 21 22  1  0
 22 23  1  0
 20 24  1  0
 24 25  2  0
 24 26  1  0
 26 27  1  0
 27 28  1  0
 27 29  1  0
  8  3  1  0
 16 11  1  0
 22 17  1  0
  4 30  1  0
  6 31  1  0
  7 32  1  0
  9 33  1  0
  9 34  1  0
 12 35  1  0
 16 36  1  0
 18 37  1  0
 18 38  1  0
 19 39  1  0
 19 40  1  0
 21 41  1  0
 21 42  1  0
 22 43  1  6
 23 44  1  0
 23 45  1  0
 23 46  1  0
 27 47  1  0
 28 48  1  0
 28 49  1  0
 28 50  1  0
 29 51  1  0
 29 52  1  0
 29 53  1  0
M  END
>  <Ligand ID>  (1) 
LIG0005293

>  <Ligand>  (1) 
CHEMBL2086685

>  <SMILES>  (1) 
N#Cc1cnccc1COc1cnc(nc1)N1CCN(C[C@H]1C)C(=O)OC(C)C

>  <CID>  (1) 
51030336.0

>  <ChEMBL ID>  (1) 
nan

>  <InChiKey>  (1) 
JMKRHCQIVVXVRS-OAHLLOKOSA-N

>  <InChi>  (1) 
InChI=1S/C20H24N6O3/c1-14(2)29-20(27)25-6-7-26(15(3)12-25)19-23-10-18(11-24-19)28-13-16-4-5-22-9-17(16)8-21/h4-5,9-11,14-15H,6-7,12-13H2,1-3H3/t15-/m1/s1

>  <IUPAC Name>  (1) 
propan-2-yl (3R)-4-[5-[(3-cyanopyridin-4-yl)methoxy]pyrimidin-2-yl]-3-methylpiperazine-1-carboxylate

$$$$
