
     RDKit          3D

 74 78  0  0  0  0  0  0  0  0999 V2000
    6.3957   -2.4706   -3.4015 O   0  0  0  0  0  0  0  0  0  0  0  0
    5.7992   -1.6864   -2.4175 C   0  0  2  0  0  0  0  0  0  0  0  0
    6.9341   -1.1678   -1.5200 C   0  0  0  0  0  0  0  0  0  0  0  0
    6.3921   -0.3704   -0.5100 O   0  0  0  0  0  0  0  0  0  0  0  0
    7.1991    0.2294    0.4525 C   0  0  0  0  0  0  0  0  0  0  0  0
    8.5876    0.0523    0.4373 C   0  0  0  0  0  0  0  0  0  0  0  0
    9.3447    0.6790    1.4304 C   0  0  0  0  0  0  0  0  0  0  0  0
    8.7276    1.4627    2.4134 C   0  0  0  0  0  0  0  0  0  0  0  0
    7.3564    1.5950    2.3684 C   0  0  0  0  0  0  0  0  0  0  0  0
    6.5692    0.9913    1.4025 C   0  0  0  0  0  0  0  0  0  0  0  0
    5.0040   -2.6207   -1.4912 C   0  0  0  0  0  0  0  0  0  0  0  0
    4.3555   -1.8299   -0.4432 N   0  0  0  0  0  0  0  0  0  0  0  0
    3.6435   -2.7502    0.4162 C   0  0  0  0  0  0  0  0  0  0  0  0
    2.9351   -1.9872    1.5446 C   0  0  0  0  0  0  0  0  0  0  0  0
    1.9790   -1.0575    0.8926 C   0  0  0  0  0  0  0  0  0  0  0  0
    2.3100    0.2174    0.4841 C   0  0  0  0  0  0  0  0  0  0  0  0
    1.3790    1.0402   -0.1073 C   0  0  0  0  0  0  0  0  0  0  0  0
    0.0546    0.6321   -0.3254 C   0  0  0  0  0  0  0  0  0  0  0  0
   -0.2517   -0.6289    0.0840 C   0  0  0  0  0  0  0  0  0  0  0  0
    0.6818   -1.4782    0.6863 C   0  0  0  0  0  0  0  0  0  0  0  0
   -0.8167    1.5477   -0.9500 N   0  0  0  0  0  0  0  0  0  0  0  0
   -2.2000    1.3989   -1.1467 C   0  0  0  0  0  0  0  0  0  0  0  0
   -2.7958    0.3810   -0.7476 O   0  0  0  0  0  0  0  0  0  0  0  0
   -2.9342    2.5079   -1.8509 C   0  0  0  0  0  0  0  0  0  0  0  0
   -3.8981    3.1353   -0.9196 C   0  0  0  0  0  0  0  0  0  0  0  0
   -3.4811    4.0177    0.0369 N   0  0  0  0  0  0  0  0  0  0  0  0
   -4.5321    4.4736    0.7382 C   0  0  0  0  0  0  0  0  0  0  0  0
   -5.6319    3.8411    0.1840 C   0  0  0  0  0  0  0  0  0  0  0  0
   -5.2286    3.0248   -0.8301 N   0  0  0  0  0  0  0  0  0  0  0  0
   -6.1701    2.2361   -1.5873 C   0  0  0  0  0  0  0  0  0  0  0  0
   -6.4457    0.9265   -0.9704 C   0  0  0  0  0  0  0  0  0  0  0  0
   -5.8610   -0.2614   -1.3281 C   0  0  0  0  0  0  0  0  0  0  0  0
   -6.2137   -1.4156   -0.6558 C   0  0  0  0  0  0  0  0  0  0  0  0
   -7.1344   -1.4440    0.3710 C   0  0  0  0  0  0  0  0  0  0  0  0
   -7.7235   -0.2512    0.7324 C   0  0  0  0  0  0  0  0  0  0  0  0
   -7.3698    0.8941    0.0606 C   0  0  0  0  0  0  0  0  0  0  0  0
   -8.6603   -0.2134    1.7644 C   0  0  0  0  0  0  0  0  0  0  0  0
   -9.0029   -1.3943    2.4353 C   0  0  0  0  0  0  0  0  0  0  0  0
   -8.4110   -2.5888    2.0707 C   0  0  0  0  0  0  0  0  0  0  0  0
   -7.4781   -2.6078    1.0385 C   0  0  0  0  0  0  0  0  0  0  0  0
    7.3331   -2.7294   -3.1325 H   0  0  0  0  0  0  0  0  0  0  0  0
    5.2012   -0.8641   -2.8133 H   0  0  0  0  0  0  0  0  0  0  0  0
    7.6870   -0.6096   -2.1188 H   0  0  0  0  0  0  0  0  0  0  0  0
    7.3759   -2.0944   -1.0639 H   0  0  0  0  0  0  0  0  0  0  0  0
    9.0406   -0.5587   -0.3352 H   0  0  0  0  0  0  0  0  0  0  0  0
   10.4226    0.5567    1.4390 H   0  0  0  0  0  0  0  0  0  0  0  0
    9.3199    1.9548    3.1937 H   0  0  0  0  0  0  0  0  0  0  0  0
    6.8504    2.2083    3.1313 H   0  0  0  0  0  0  0  0  0  0  0  0
    5.5015    1.1412    1.4320 H   0  0  0  0  0  0  0  0  0  0  0  0
    4.2387   -3.1923   -2.0451 H   0  0  0  0  0  0  0  0  0  0  0  0
    5.7596   -3.2551   -0.9845 H   0  0  0  0  0  0  0  0  0  0  0  0
    3.6259   -1.2642   -0.9650 H   0  0  0  0  0  0  0  0  0  0  0  0
    2.8963   -3.3229   -0.1815 H   0  0  0  0  0  0  0  0  0  0  0  0
    4.3774   -3.4831    0.8117 H   0  0  0  0  0  0  0  0  0  0  0  0
    3.6924   -1.3589    2.0600 H   0  0  0  0  0  0  0  0  0  0  0  0
    2.4246   -2.6886    2.2185 H   0  0  0  0  0  0  0  0  0  0  0  0
    3.3140    0.5659    0.6334 H   0  0  0  0  0  0  0  0  0  0  0  0
    1.7228    2.0300   -0.3987 H   0  0  0  0  0  0  0  0  0  0  0  0
   -1.2263   -1.0241   -0.0442 H   0  0  0  0  0  0  0  0  0  0  0  0
    0.3685   -2.4702    0.9868 H   0  0  0  0  0  0  0  0  0  0  0  0
   -0.3885    2.4519   -1.3161 H   0  0  0  0  0  0  0  0  0  0  0  0
   -3.4523    2.0204   -2.7132 H   0  0  0  0  0  0  0  0  0  0  0  0
   -2.2292    3.2237   -2.3012 H   0  0  0  0  0  0  0  0  0  0  0  0
   -4.4778    5.1828    1.5520 H   0  0  0  0  0  0  0  0  0  0  0  0
   -6.6363    4.0094    0.5440 H   0  0  0  0  0  0  0  0  0  0  0  0
   -7.1078    2.8423   -1.6888 H   0  0  0  0  0  0  0  0  0  0  0  0
   -5.7814    2.1112   -2.6274 H   0  0  0  0  0  0  0  0  0  0  0  0
   -5.1424   -0.2295   -2.1344 H   0  0  0  0  0  0  0  0  0  0  0  0
   -5.7261   -2.3292   -0.9724 H   0  0  0  0  0  0  0  0  0  0  0  0
   -7.8631    1.8203    0.3779 H   0  0  0  0  0  0  0  0  0  0  0  0
   -9.1114    0.7422    2.0290 H   0  0  0  0  0  0  0  0  0  0  0  0
   -9.7406   -1.3754    3.2512 H   0  0  0  0  0  0  0  0  0  0  0  0
   -8.6681   -3.5167    2.5842 H   0  0  0  0  0  0  0  0  0  0  0  0
   -7.0088   -3.5543    0.7497 H   0  0  0  0  0  0  0  0  0  0  0  0
  1  2  1  0
  2  3  1  0
  3  4  1  0
  4  5  1  0
  5  6  2  0
  6  7  1  0
  7  8  2  0
  8  9  1  0
  9 10  2  0
  2 11  1  0
 11 12  1  0
 12 13  1  0
 13 14  1  0
 14 15  1  0
 15 16  2  0
 16 17  1  0
 17 18  2  0
 18 19  1  0
 19 20  2  0
 18 21  1  0
 21 22  1  0
 22 23  2  0
 22 24  1  0
 24 25  1  0
 25 26  2  0
 26 27  1  0
 27 28  2  0
 28 29  1  0
 29 30  1  0
 30 31  1  0
 31 32  2  0
 32 33  1  0
 33 34  2  0
 34 35  1  0
 35 36  2  0
 35 37  1  0
 37 38  2  0
 38 39  1  0
 39 40  2  0
 10  5  1  0
 20 15  1  0
 29 25  1  0
 36 31  1  0
 40 34  1  0
  1 41  1  0
  2 42  1  6
  3 43  1  0
  3 44  1  0
  6 45  1  0
  7 46  1  0
  8 47  1  0
  9 48  1  0
 10 49  1  0
 11 50  1  0
 11 51  1  0
 12 52  1  0
 13 53  1  0
 13 54  1  0
 14 55  1  0
 14 56  1  0
 16 57  1  0
 17 58  1  0
 19 59  1  0
 20 60  1  0
 21 61  1  0
 24 62  1  0
 24 63  1  0
 27 64  1  0
 28 65  1  0
 30 66  1  0
 30 67  1  0
 32 68  1  0
 33 69  1  0
 36 70  1  0
 37 71  1  0
 38 72  1  0
 39 73  1  0
 40 74  1  0
M  END
>  <Ligand ID>  (1) 
LIG0002728

>  <Ligand>  (1) 
CHEMBL467103

>  <SMILES>  (1) 
O[C@H](COc1ccccc1)CNCCc1ccc(cc1)NC(=O)Cc1nccn1Cc1ccc2c(c1)cccc2

>  <CID>  (1) 
44574868.0

>  <ChEMBL ID>  (1) 
nan

>  <InChiKey>  (1) 
QMKCPJFVWUHBTI-PMERELPUSA-N

>  <InChi>  (1) 
InChI=1S/C33H34N4O3/c38-30(24-40-31-8-2-1-3-9-31)22-34-17-16-25-11-14-29(15-12-25)36-33(39)21-32-35-18-19-37(32)23-26-10-13-27-6-4-5-7-28(27)20-26/h1-15,18-20,30,34,38H,16-17,21-24H2,(H,36,39)/t30-/m0/s1

>  <IUPAC Name>  (1) 
N-[4-[2-[[(2S)-2-hydroxy-3-phenoxypropyl]amino]ethyl]phenyl]-2-[1-(naphthalen-2-ylmethyl)imidazol-2-yl]acetamide

$$$$
