
     RDKit          3D

 62 63  0  0  0  0  0  0  0  0999 V2000
    4.4449   -1.1113   -0.2409 O   0  0  0  0  0  0  0  0  0  0  0  0
    4.9420    0.0584   -0.3127 C   0  0  0  0  0  0  0  0  0  0  0  0
    6.3656    0.2117   -0.7201 C   0  0  2  0  0  0  0  0  0  0  0  0
    7.2907   -0.5784    0.1789 C   0  0  0  0  0  0  0  0  0  0  0  0
    8.5697   -0.4766   -0.3092 O   0  0  0  0  0  0  0  0  0  0  0  0
    9.7173   -1.3089    0.5906 P   0  0  0  0  0  0  0  0  0  0  0  0
   11.0736   -1.0056   -0.0092 O   0  0  0  0  0  0  0  0  0  0  0  0
    9.7033   -0.6610    2.1571 O   0  0  0  0  0  0  0  0  0  0  0  0
    9.4108   -2.9455    0.6897 O   0  0  0  0  0  0  0  0  0  0  0  0
    6.7597    1.6042   -0.7504 N   0  0  0  0  0  0  0  0  0  0  0  0
    6.4410   -0.3028   -2.1523 C   0  0  0  0  0  0  0  0  0  0  0  0
    4.1044    1.1669    0.0027 N   0  0  0  0  0  0  0  0  0  0  0  0
    2.7658    0.8726    0.3763 C   0  0  0  0  0  0  0  0  0  0  0  0
    1.7251    0.7852   -0.5228 C   0  0  0  0  0  0  0  0  0  0  0  0
    0.4245    0.4913   -0.0941 C   0  0  0  0  0  0  0  0  0  0  0  0
    0.1119    0.2773    1.2216 C   0  0  0  0  0  0  0  0  0  0  0  0
    1.1873    0.3706    2.1201 C   0  0  0  0  0  0  0  0  0  0  0  0
    2.4658    0.6586    1.7025 C   0  0  0  0  0  0  0  0  0  0  0  0
   -1.0991   -0.0074    1.7559 O   0  0  0  0  0  0  0  0  0  0  0  0
   -2.2930   -0.1080    1.0775 C   0  0  0  0  0  0  0  0  0  0  0  0
   -2.7809    1.1712    0.4499 C   0  0  0  0  0  0  0  0  0  0  0  0
   -4.0585    0.9314   -0.2962 C   0  0  0  0  0  0  0  0  0  0  0  0
   -5.1227    0.4373    0.6383 C   0  0  0  0  0  0  0  0  0  0  0  0
   -6.3899    0.2446   -0.1982 C   0  0  0  0  0  0  0  0  0  0  0  0
   -6.1795   -0.7528   -1.3018 C   0  0  0  0  0  0  0  0  0  0  0  0
   -7.3927   -1.6608   -1.3633 C   0  0  0  0  0  0  0  0  0  0  0  0
   -8.6917   -0.8889   -1.2840 C   0  0  0  0  0  0  0  0  0  0  0  0
   -8.8043   -0.3283    0.0955 C   0  0  0  0  0  0  0  0  0  0  0  0
   -7.4563   -0.2403    0.7535 C   0  0  0  0  0  0  0  0  0  0  0  0
    7.2945   -0.0124    1.1563 H   0  0  0  0  0  0  0  0  0  0  0  0
    6.9268   -1.5822    0.3940 H   0  0  0  0  0  0  0  0  0  0  0  0
    9.8902   -1.3872    2.8049 H   0  0  0  0  0  0  0  0  0  0  0  0
    9.3019   -3.3944   -0.1684 H   0  0  0  0  0  0  0  0  0  0  0  0
    6.3182    2.0456   -1.5930 H   0  0  0  0  0  0  0  0  0  0  0  0
    6.5838    2.1217    0.1232 H   0  0  0  0  0  0  0  0  0  0  0  0
    7.3866   -0.0538   -2.6500 H   0  0  0  0  0  0  0  0  0  0  0  0
    6.4181   -1.4263   -2.0452 H   0  0  0  0  0  0  0  0  0  0  0  0
    5.5376   -0.0091   -2.6866 H   0  0  0  0  0  0  0  0  0  0  0  0
    4.4952    2.1340   -0.0505 H   0  0  0  0  0  0  0  0  0  0  0  0
    1.9413    0.9506   -1.5731 H   0  0  0  0  0  0  0  0  0  0  0  0
   -0.3048    0.4229   -0.8808 H   0  0  0  0  0  0  0  0  0  0  0  0
    1.0245    0.2136    3.1828 H   0  0  0  0  0  0  0  0  0  0  0  0
    3.2517    0.7169    2.4423 H   0  0  0  0  0  0  0  0  0  0  0  0
   -2.1663   -0.8818    0.2747 H   0  0  0  0  0  0  0  0  0  0  0  0
   -3.0477   -0.4810    1.8199 H   0  0  0  0  0  0  0  0  0  0  0  0
   -2.0136    1.6594   -0.1459 H   0  0  0  0  0  0  0  0  0  0  0  0
   -3.0452    1.8897    1.2929 H   0  0  0  0  0  0  0  0  0  0  0  0
   -3.9195    0.2484   -1.1691 H   0  0  0  0  0  0  0  0  0  0  0  0
   -4.4246    1.9112   -0.6938 H   0  0  0  0  0  0  0  0  0  0  0  0
   -4.8737   -0.5245    1.1393 H   0  0  0  0  0  0  0  0  0  0  0  0
   -5.3416    1.2405    1.3705 H   0  0  0  0  0  0  0  0  0  0  0  0
   -6.7091    1.2481   -0.5523 H   0  0  0  0  0  0  0  0  0  0  0  0
   -6.0077   -0.2232   -2.2450 H   0  0  0  0  0  0  0  0  0  0  0  0
   -5.3185   -1.3957   -0.9901 H   0  0  0  0  0  0  0  0  0  0  0  0
   -7.3754   -2.3783   -0.5183 H   0  0  0  0  0  0  0  0  0  0  0  0
   -7.3782   -2.2789   -2.3029 H   0  0  0  0  0  0  0  0  0  0  0  0
   -8.7682   -0.1217   -2.0781 H   0  0  0  0  0  0  0  0  0  0  0  0
   -9.5032   -1.6135   -1.4654 H   0  0  0  0  0  0  0  0  0  0  0  0
   -9.4392   -1.0085    0.7077 H   0  0  0  0  0  0  0  0  0  0  0  0
   -9.2837    0.6875    0.0446 H   0  0  0  0  0  0  0  0  0  0  0  0
   -7.5204    0.4851    1.6012 H   0  0  0  0  0  0  0  0  0  0  0  0
   -7.1644   -1.2179    1.1989 H   0  0  0  0  0  0  0  0  0  0  0  0
  1  2  2  0
  2  3  1  0
  3  4  1  0
  4  5  1  0
  5  6  1  0
  6  7  2  0
  6  8  1  0
  6  9  1  0
  3 10  1  6
  3 11  1  0
  2 12  1  0
 12 13  1  0
 13 14  2  0
 14 15  1  0
 15 16  2  0
 16 17  1  0
 17 18  2  0
 16 19  1  0
 19 20  1  0
 20 21  1  0
 21 22  1  0
 22 23  1  0
 23 24  1  0
 24 25  1  0
 25 26  1  0
 26 27  1  0
 27 28  1  0
 28 29  1  0
 18 13  1  0
 29 24  1  0
  4 30  1  0
  4 31  1  0
  8 32  1  0
  9 33  1  0
 10 34  1  0
 10 35  1  0
 11 36  1  0
 11 37  1  0
 11 38  1  0
 12 39  1  0
 14 40  1  0
 15 41  1  0
 17 42  1  0
 18 43  1  0
 20 44  1  0
 20 45  1  0
 21 46  1  0
 21 47  1  0
 22 48  1  0
 22 49  1  0
 23 50  1  0
 23 51  1  0
 24 52  1  0
 25 53  1  0
 25 54  1  0
 26 55  1  0
 26 56  1  0
 27 57  1  0
 27 58  1  0
 28 59  1  0
 28 60  1  0
 29 61  1  0
 29 62  1  0
M  END
>  <Ligand ID>  (1) 
LIG0005100

>  <Ligand>  (1) 
CHEMBL473562

>  <SMILES>  (1) 
O=C([C@](COP(=O)(O)O)(N)C)Nc1ccc(cc1)OCCCCC1CCCCC1

>  <CID>  (1) 
44565622.0

>  <ChEMBL ID>  (1) 
nan

>  <InChiKey>  (1) 
IOBZROVFXAOQQI-FQEVSTJZSA-N

>  <InChi>  (1) 
InChI=1S/C20H33N2O6P/c1-20(21,15-28-29(24,25)26)19(23)22-17-10-12-18(13-11-17)27-14-6-5-9-16-7-3-2-4-8-16/h10-13,16H,2-9,14-15,21H2,1H3,(H,22,23)(H2,24,25,26)/t20-/m0/s1

>  <IUPAC Name>  (1) 
[(2S)-2-amino-3-[4-(4-cyclohexylbutoxy)anilino]-2-methyl-3-oxopropyl] dihydrogen phosphate

$$$$
