
     RDKit          3D

 67 66  0  0  0  0  0  0  0  0999 V2000
   -7.8755   -1.5146   -1.1937 C   0  0  0  0  0  0  0  0  0  0  0  0
   -7.0594   -0.8129   -2.2506 C   0  0  0  0  0  0  0  0  0  0  0  0
   -6.9105    0.6550   -1.9257 C   0  0  0  0  0  0  0  0  0  0  0  0
   -6.1921    0.7805   -0.5478 C   0  0  0  0  0  0  0  0  0  0  0  0
   -6.0743    2.2189   -0.2879 C   0  0  0  0  0  0  0  0  0  0  0  0
   -5.5019    2.7684    0.9326 C   0  0  0  0  0  0  0  0  0  0  0  0
   -4.1289    2.5150    1.3757 C   0  0  0  0  0  0  0  0  0  0  0  0
   -3.7354    1.1266    1.7212 C   0  0  0  0  0  0  0  0  0  0  0  0
   -2.2994    1.0419    2.1587 C   0  0  0  0  0  0  0  0  0  0  0  0
   -1.3650    0.3360    1.5761 C   0  0  0  0  0  0  0  0  0  0  0  0
   -1.4669   -0.5204    0.3947 C   0  0  0  0  0  0  0  0  0  0  0  0
   -1.1277   -1.9373    0.5972 C   0  0  0  0  0  0  0  0  0  0  0  0
    0.1455   -2.3921    1.1312 C   0  0  0  0  0  0  0  0  0  0  0  0
    1.4518   -2.1013    0.4872 C   0  0  0  0  0  0  0  0  0  0  0  0
    1.8317   -0.6606    0.4745 C   0  0  0  0  0  0  0  0  0  0  0  0
    3.1888   -0.4727   -0.2218 C   0  0  0  0  0  0  0  0  0  0  0  0
    4.2212   -1.2506    0.5411 C   0  0  0  0  0  0  0  0  0  0  0  0
    5.5307   -0.9904   -0.1831 C   0  0  0  0  0  0  0  0  0  0  0  0
    5.4574   -0.2392   -1.1671 O   0  0  0  0  0  0  0  0  0  0  0  0
    6.7138   -1.5828    0.2692 N   0  0  0  0  0  0  0  0  0  0  0  0
    8.0208   -1.4335   -0.2981 C   0  0  0  0  0  0  0  0  0  0  0  0
    8.5659   -0.0341   -0.2969 C   0  0  0  0  0  0  0  0  0  0  0  0
    7.7730    0.8354   -1.0126 O   0  0  0  0  0  0  0  0  0  0  0  0
    8.4881    2.3650   -0.9813 P   0  0  0  0  0  0  0  0  0  0  0  0
    9.6036    2.3866    0.0126 O   0  0  0  0  0  0  0  0  0  0  0  0
    7.3362    3.5281   -0.5148 O   0  0  0  0  0  0  0  0  0  0  0  0
    9.0747    2.7472   -2.5263 O   0  0  0  0  0  0  0  0  0  0  0  0
   -7.2412   -2.1835   -0.5533 H   0  0  0  0  0  0  0  0  0  0  0  0
   -8.4298   -0.7765   -0.5884 H   0  0  0  0  0  0  0  0  0  0  0  0
   -8.6394   -2.1959   -1.6506 H   0  0  0  0  0  0  0  0  0  0  0  0
   -6.0682   -1.2903   -2.3219 H   0  0  0  0  0  0  0  0  0  0  0  0
   -7.6105   -0.9264   -3.2050 H   0  0  0  0  0  0  0  0  0  0  0  0
   -7.8659    1.1774   -1.8502 H   0  0  0  0  0  0  0  0  0  0  0  0
   -6.2585    1.1476   -2.6716 H   0  0  0  0  0  0  0  0  0  0  0  0
   -6.8124    0.2170    0.1523 H   0  0  0  0  0  0  0  0  0  0  0  0
   -5.2591    0.2147   -0.7456 H   0  0  0  0  0  0  0  0  0  0  0  0
   -7.1425    2.6295   -0.3554 H   0  0  0  0  0  0  0  0  0  0  0  0
   -5.6176    2.7260   -1.2097 H   0  0  0  0  0  0  0  0  0  0  0  0
   -6.1697    2.5542    1.8472 H   0  0  0  0  0  0  0  0  0  0  0  0
   -5.6532    3.9064    0.8640 H   0  0  0  0  0  0  0  0  0  0  0  0
   -3.9939    3.1048    2.3450 H   0  0  0  0  0  0  0  0  0  0  0  0
   -3.3575    3.0253    0.7192 H   0  0  0  0  0  0  0  0  0  0  0  0
   -4.3054    0.8934    2.6908 H   0  0  0  0  0  0  0  0  0  0  0  0
   -3.9945    0.3189    1.0681 H   0  0  0  0  0  0  0  0  0  0  0  0
   -2.0644    1.6473    3.0539 H   0  0  0  0  0  0  0  0  0  0  0  0
   -0.3579    0.3981    2.0459 H   0  0  0  0  0  0  0  0  0  0  0  0
   -0.9727   -0.0725   -0.4729 H   0  0  0  0  0  0  0  0  0  0  0  0
   -2.5637   -0.5449    0.0312 H   0  0  0  0  0  0  0  0  0  0  0  0
   -1.2210   -2.4147   -0.4516 H   0  0  0  0  0  0  0  0  0  0  0  0
   -1.9659   -2.4935    1.1297 H   0  0  0  0  0  0  0  0  0  0  0  0
    0.2230   -1.9873    2.2065 H   0  0  0  0  0  0  0  0  0  0  0  0
    0.0847   -3.5345    1.2704 H   0  0  0  0  0  0  0  0  0  0  0  0
    2.2246   -2.7188    1.0332 H   0  0  0  0  0  0  0  0  0  0  0  0
    1.4920   -2.4762   -0.5731 H   0  0  0  0  0  0  0  0  0  0  0  0
    2.0264   -0.2708    1.5137 H   0  0  0  0  0  0  0  0  0  0  0  0
    1.0923    0.0033    0.0359 H   0  0  0  0  0  0  0  0  0  0  0  0
    3.3879    0.5978   -0.2670 H   0  0  0  0  0  0  0  0  0  0  0  0
    3.0484   -0.9378   -1.2261 H   0  0  0  0  0  0  0  0  0  0  0  0
    4.3128   -0.9342    1.5857 H   0  0  0  0  0  0  0  0  0  0  0  0
    4.0270   -2.3394    0.4288 H   0  0  0  0  0  0  0  0  0  0  0  0
    6.6210   -2.2108    1.1299 H   0  0  0  0  0  0  0  0  0  0  0  0
    8.7518   -2.0623    0.2578 H   0  0  0  0  0  0  0  0  0  0  0  0
    8.0186   -1.8046   -1.3662 H   0  0  0  0  0  0  0  0  0  0  0  0
    8.6215    0.3643    0.7500 H   0  0  0  0  0  0  0  0  0  0  0  0
    9.6104   -0.0098   -0.6997 H   0  0  0  0  0  0  0  0  0  0  0  0
    7.4050    4.3505   -1.0710 H   0  0  0  0  0  0  0  0  0  0  0  0
    8.9516    1.9889   -3.1439 H   0  0  0  0  0  0  0  0  0  0  0  0
  1  2  1  0
  2  3  1  0
  3  4  1  0
  4  5  1  0
  5  6  1  0
  6  7  1  0
  7  8  1  0
  8  9  1  0
  9 10  2  0
 10 11  1  0
 11 12  1  0
 12 13  1  0
 13 14  1  0
 14 15  1  0
 15 16  1  0
 16 17  1  0
 17 18  1  0
 18 19  2  0
 18 20  1  0
 20 21  1  0
 21 22  1  0
 22 23  1  0
 23 24  1  0
 24 25  2  0
 24 26  1  0
 24 27  1  0
  1 28  1  0
  1 29  1  0
  1 30  1  0
  2 31  1  0
  2 32  1  0
  3 33  1  0
  3 34  1  0
  4 35  1  0
  4 36  1  0
  5 37  1  0
  5 38  1  0
  6 39  1  0
  6 40  1  0
  7 41  1  0
  7 42  1  0
  8 43  1  0
  8 44  1  0
  9 45  1  0
 10 46  1  0
 11 47  1  0
 11 48  1  0
 12 49  1  0
 12 50  1  0
 13 51  1  0
 13 52  1  0
 14 53  1  0
 14 54  1  0
 15 55  1  0
 15 56  1  0
 16 57  1  0
 16 58  1  0
 17 59  1  0
 17 60  1  0
 20 61  1  0
 21 62  1  0
 21 63  1  0
 22 64  1  0
 22 65  1  0
 26 66  1  0
 27 67  1  0
M  END
>  <Ligand ID>  (1) 
LIG0004224

>  <Ligand>  (1) 
NAEPA

>  <SMILES>  (1) 
CCCCCCCC/C=C\CCCCCCCC(=O)NCCOP(=O)(O)O

>  <CID>  (1) 
44343825.0

>  <ChEMBL ID>  (1) 
nan

>  <InChiKey>  (1) 
BCSUWOZFWWBYSX-KTKRTIGZSA-N

>  <InChi>  (1) 
InChI=1S/C20H40NO5P/c1-2-3-4-5-6-7-8-9-10-11-12-13-14-15-16-17-20(22)21-18-19-26-27(23,24)25/h9-10H,2-8,11-19H2,1H3,(H,21,22)(H2,23,24,25)/b10-9-

>  <IUPAC Name>  (1) 
2-[[(Z)-octadec-9-enoyl]amino]ethyl dihydrogen phosphate

$$$$
