
     RDKit          3D

 73 76  0  0  0  0  0  0  0  0999 V2000
    3.0030   -2.6111   -0.3177 C   0  0  0  0  0  0  0  0  0  0  0  0
    2.2402   -2.5546   -1.5849 C   0  0  0  0  0  0  0  0  0  0  0  0
    1.7544   -1.2379   -2.0287 C   0  0  0  0  0  0  0  0  0  0  0  0
    0.7961   -0.4735   -1.2169 C   0  0  2  0  0  0  0  0  0  0  0  0
    1.1919   -0.0715    0.0921 N   0  0  0  0  0  0  0  0  0  0  0  0
    0.6215   -0.7484    1.2539 C   0  0  0  0  0  0  0  0  0  0  0  0
   -0.9161   -0.5681    1.1699 C   0  0  0  0  0  0  0  0  0  0  0  0
   -1.3571   -1.2399   -0.0484 N   0  0  0  0  0  0  0  0  0  0  0  0
   -0.5007   -1.2451   -1.1835 C   0  0  0  0  0  0  0  0  0  0  0  0
   -0.7829   -1.9052   -2.2408 O   0  0  0  0  0  0  0  0  0  0  0  0
   -2.6458   -1.8962   -0.0932 C   0  0  2  0  0  0  0  0  0  0  0  0
   -2.4132   -3.3359   -0.3633 C   0  0  0  0  0  0  0  0  0  0  0  0
   -1.2464   -3.8027   -0.4873 O   0  0  0  0  0  0  0  0  0  0  0  0
   -3.4791   -4.2784   -0.4996 N   0  0  0  0  0  0  0  0  0  0  0  0
   -3.0751   -5.6568   -0.7648 C   0  0  0  0  0  0  0  0  0  0  0  0
   -3.5174   -1.2524   -1.1394 C   0  0  0  0  0  0  0  0  0  0  0  0
   -3.7405    0.1783   -0.8404 C   0  0  0  0  0  0  0  0  0  0  0  0
   -2.9634    1.2053   -1.3098 C   0  0  0  0  0  0  0  0  0  0  0  0
   -3.2396    2.5266   -0.9755 C   0  0  0  0  0  0  0  0  0  0  0  0
   -4.3052    2.8419   -0.1607 C   0  0  0  0  0  0  0  0  0  0  0  0
   -5.0896    1.8089    0.3132 C   0  0  0  0  0  0  0  0  0  0  0  0
   -4.8171    0.4883   -0.0184 C   0  0  0  0  0  0  0  0  0  0  0  0
   -6.1791    2.0400    1.1382 C   0  0  0  0  0  0  0  0  0  0  0  0
   -6.5090    3.3455    1.5115 C   0  0  0  0  0  0  0  0  0  0  0  0
   -5.7140    4.3874    1.0305 C   0  0  0  0  0  0  0  0  0  0  0  0
   -4.6290    4.1296    0.2061 C   0  0  0  0  0  0  0  0  0  0  0  0
    2.0921    1.0499    0.2345 C   0  0  0  0  0  0  0  0  0  0  0  0
    2.4497    1.5949   -0.8439 O   0  0  0  0  0  0  0  0  0  0  0  0
    2.5703    1.5523    1.5218 C   0  0  1  0  0  0  0  0  0  0  0  0
    3.8794    0.9624    2.0005 C   0  0  0  0  0  0  0  0  0  0  0  0
    5.0288    1.2251    1.1459 C   0  0  0  0  0  0  0  0  0  0  0  0
    5.7524    2.3979    1.4040 C   0  0  0  0  0  0  0  0  0  0  0  0
    6.8612    2.7460    0.6637 C   0  0  0  0  0  0  0  0  0  0  0  0
    7.3153    1.9559   -0.3704 C   0  0  0  0  0  0  0  0  0  0  0  0
    6.6214    0.8035   -0.6400 C   0  0  0  0  0  0  0  0  0  0  0  0
    5.4964    0.4565    0.1161 C   0  0  0  0  0  0  0  0  0  0  0  0
    8.4029    2.2919   -1.1012 F   0  0  0  0  0  0  0  0  0  0  0  0
    2.7717    3.0065    1.3180 N   0  0  0  0  0  0  0  0  0  0  0  0
    2.5265   -3.2920    0.4387 H   0  0  0  0  0  0  0  0  0  0  0  0
    4.0183   -3.0460   -0.4776 H   0  0  0  0  0  0  0  0  0  0  0  0
    3.0569   -1.6315    0.1804 H   0  0  0  0  0  0  0  0  0  0  0  0
    2.8784   -2.9705   -2.4122 H   0  0  0  0  0  0  0  0  0  0  0  0
    1.4136   -3.3175   -1.4991 H   0  0  0  0  0  0  0  0  0  0  0  0
    2.6759   -0.5992   -2.2069 H   0  0  0  0  0  0  0  0  0  0  0  0
    1.3216   -1.3801   -3.0788 H   0  0  0  0  0  0  0  0  0  0  0  0
    0.5043    0.4615   -1.7880 H   0  0  0  0  0  0  0  0  0  0  0  0
    0.9408   -0.3352    2.2112 H   0  0  0  0  0  0  0  0  0  0  0  0
    0.7680   -1.8325    1.1596 H   0  0  0  0  0  0  0  0  0  0  0  0
   -1.4113   -0.9212    2.0675 H   0  0  0  0  0  0  0  0  0  0  0  0
   -1.0749    0.5154    1.0675 H   0  0  0  0  0  0  0  0  0  0  0  0
   -3.1350   -1.7641    0.9056 H   0  0  0  0  0  0  0  0  0  0  0  0
   -4.4580   -3.9744   -0.4111 H   0  0  0  0  0  0  0  0  0  0  0  0
   -2.0559   -5.8557   -0.3642 H   0  0  0  0  0  0  0  0  0  0  0  0
   -3.0587   -5.8849   -1.8434 H   0  0  0  0  0  0  0  0  0  0  0  0
   -3.7566   -6.3096   -0.1725 H   0  0  0  0  0  0  0  0  0  0  0  0
   -3.0642   -1.3003   -2.1490 H   0  0  0  0  0  0  0  0  0  0  0  0
   -4.4821   -1.8023   -1.2240 H   0  0  0  0  0  0  0  0  0  0  0  0
   -2.1231    0.9939   -1.9528 H   0  0  0  0  0  0  0  0  0  0  0  0
   -2.6216    3.3465   -1.3490 H   0  0  0  0  0  0  0  0  0  0  0  0
   -5.4572   -0.2963    0.3742 H   0  0  0  0  0  0  0  0  0  0  0  0
   -6.7964    1.2302    1.5131 H   0  0  0  0  0  0  0  0  0  0  0  0
   -7.3589    3.5210    2.1546 H   0  0  0  0  0  0  0  0  0  0  0  0
   -6.0033    5.3774    1.3431 H   0  0  0  0  0  0  0  0  0  0  0  0
   -4.0228    4.9579   -0.1567 H   0  0  0  0  0  0  0  0  0  0  0  0
    1.8273    1.4466    2.3105 H   0  0  0  0  0  0  0  0  0  0  0  0
    3.7113   -0.1320    2.1055 H   0  0  0  0  0  0  0  0  0  0  0  0
    4.0769    1.3543    3.0184 H   0  0  0  0  0  0  0  0  0  0  0  0
    5.4318    3.0652    2.2202 H   0  0  0  0  0  0  0  0  0  0  0  0
    7.4145    3.6514    0.8685 H   0  0  0  0  0  0  0  0  0  0  0  0
    6.9599    0.1827   -1.4371 H   0  0  0  0  0  0  0  0  0  0  0  0
    5.0068   -0.4575   -0.1493 H   0  0  0  0  0  0  0  0  0  0  0  0
    2.4918    3.5134    2.2024 H   0  0  0  0  0  0  0  0  0  0  0  0
    2.1268    3.3685    0.5674 H   0  0  0  0  0  0  0  0  0  0  0  0
  1  2  1  0
  2  3  1  0
  3  4  1  0
  4  5  1  0
  5  6  1  0
  6  7  1  0
  7  8  1  0
  8  9  1  0
  9 10  2  0
  8 11  1  0
 11 12  1  0
 12 13  2  0
 12 14  1  0
 14 15  1  0
 11 16  1  0
 16 17  1  0
 17 18  2  0
 18 19  1  0
 19 20  2  0
 20 21  1  0
 21 22  2  0
 21 23  1  0
 23 24  2  0
 24 25  1  0
 25 26  2  0
  5 27  1  0
 27 28  2  0
 27 29  1  0
 29 30  1  0
 30 31  1  0
 31 32  2  0
 32 33  1  0
 33 34  2  0
 34 35  1  0
 35 36  2  0
 34 37  1  0
 29 38  1  0
  9  4  1  0
 22 17  1  0
 36 31  1  0
 26 20  1  0
  1 39  1  0
  1 40  1  0
  1 41  1  0
  2 42  1  0
  2 43  1  0
  3 44  1  0
  3 45  1  0
  4 46  1  6
  6 47  1  0
  6 48  1  0
  7 49  1  0
  7 50  1  0
 11 51  1  1
 14 52  1  0
 15 53  1  0
 15 54  1  0
 15 55  1  0
 16 56  1  0
 16 57  1  0
 18 58  1  0
 19 59  1  0
 22 60  1  0
 23 61  1  0
 24 62  1  0
 25 63  1  0
 26 64  1  0
 29 65  1  1
 30 66  1  0
 30 67  1  0
 32 68  1  0
 33 69  1  0
 35 70  1  0
 36 71  1  0
 38 72  1  0
 38 73  1  0
M  END
>  <Ligand ID>  (1) 
LIG0004068

>  <Ligand>  (1) 
CHEMBL460138

>  <SMILES>  (1) 
CCC[C@@H]1N(CCN(C1=O)[C@H](C(=O)NC)Cc1ccc2c(c1)cccc2)C(=O)[C@@H](Cc1ccc(cc1)F)N

>  <CID>  (1) 
25133907.0

>  <ChEMBL ID>  (1) 
nan

>  <InChiKey>  (1) 
FBIBREHNRFMLIZ-PVHODMMVSA-N

>  <InChi>  (1) 
InChI=1S/C30H35FN4O3/c1-3-6-26-30(38)35(16-15-34(26)29(37)25(32)18-20-10-13-24(31)14-11-20)27(28(36)33-2)19-21-9-12-22-7-4-5-8-23(22)17-21/h4-5,7-14,17,25-27H,3,6,15-16,18-19,32H2,1-2H3,(H,33,36)/t25-,26+,27+/m1/s1

>  <IUPAC Name>  (1) 
(2S)-2-[(3S)-4-[(2R)-2-amino-3-(4-fluorophenyl)propanoyl]-2-oxo-3-propylpiperazin-1-yl]-N-methyl-3-naphthalen-2-ylpropanamide

$$$$
