
     RDKit          3D

 13 12  0  0  0  0  0  0  0  0999 V2000
   -1.3694    0.4813   -0.2195 C   0  0  0  0  0  0  0  0  0  0  0  0
   -0.4094   -0.6576   -0.4614 C   0  0  0  0  0  0  0  0  0  0  0  0
    0.7550   -0.6222    0.5093 C   0  0  0  0  0  0  0  0  0  0  0  0
    1.4743    0.6653    0.3255 C   0  0  0  0  0  0  0  0  0  0  0  0
    2.2279    0.7443   -0.6283 O   0  0  0  0  0  0  0  0  0  0  0  0
   -1.5343    0.6761    0.8542 H   0  0  0  0  0  0  0  0  0  0  0  0
   -0.9949    1.4174   -0.6745 H   0  0  0  0  0  0  0  0  0  0  0  0
   -2.3588    0.2555   -0.6608 H   0  0  0  0  0  0  0  0  0  0  0  0
   -0.0275   -0.5638   -1.4985 H   0  0  0  0  0  0  0  0  0  0  0  0
   -0.9242   -1.6392   -0.4313 H   0  0  0  0  0  0  0  0  0  0  0  0
    0.4226   -0.7919    1.5522 H   0  0  0  0  0  0  0  0  0  0  0  0
    1.4180   -1.4663    0.2466 H   0  0  0  0  0  0  0  0  0  0  0  0
    1.3206    1.5011    1.0304 H   0  0  0  0  0  0  0  0  0  0  0  0
  1  2  1  0
  2  3  1  0
  3  4  1  0
  4  5  2  0
  1  6  1  0
  1  7  1  0
  1  8  1  0
  2  9  1  0
  2 10  1  0
  3 11  1  0
  3 12  1  0
  4 13  1  0
M  END
>  <Ligand ID>  (1) 
LIG0000168

>  <Ligand>  (1) 
Butyraldehyde

>  <SMILES>  (1) 
CCCC=O

>  <CID>  (1) 
261.0

>  <ChEMBL ID>  (1) 
nan

>  <InChiKey>  (1) 
ZTQSAGDEMFDKMZ-UHFFFAOYSA-N

>  <InChi>  (1) 
InChI=1S/C4H8O/c1-2-3-4-5/h4H,2-3H2,1H3

>  <IUPAC Name>  (1) 
butanal

$$$$
