
     RDKit          3D

 74 73  0  0  0  0  0  0  0  0999 V2000
    8.7105    0.2209   -2.5937 C   0  0  0  0  0  0  0  0  0  0  0  0
    7.6175    0.8971   -1.8167 C   0  0  0  0  0  0  0  0  0  0  0  0
    7.7013    0.7017   -0.3333 C   0  0  0  0  0  0  0  0  0  0  0  0
    7.6117   -0.7470    0.0994 C   0  0  0  0  0  0  0  0  0  0  0  0
    7.6605   -0.9063    1.5634 C   0  0  0  0  0  0  0  0  0  0  0  0
    6.5957   -0.3740    2.4264 C   0  0  0  0  0  0  0  0  0  0  0  0
    5.2407   -0.9334    2.3897 C   0  0  0  0  0  0  0  0  0  0  0  0
    4.3813   -0.9060    1.2001 C   0  0  0  0  0  0  0  0  0  0  0  0
    4.0194    0.4560    0.7020 C   0  0  0  0  0  0  0  0  0  0  0  0
    3.1433    0.3725   -0.5208 C   0  0  0  0  0  0  0  0  0  0  0  0
    1.8667   -0.3527   -0.2269 C   0  0  0  0  0  0  0  0  0  0  0  0
    1.0295    0.3024    0.8428 C   0  0  0  0  0  0  0  0  0  0  0  0
   -0.2678   -0.4532    1.1131 C   0  0  0  0  0  0  0  0  0  0  0  0
   -1.1529   -0.5695   -0.0758 C   0  0  0  0  0  0  0  0  0  0  0  0
   -2.4357   -1.3126    0.2186 C   0  0  0  0  0  0  0  0  0  0  0  0
   -3.1945   -0.5817    1.2708 C   0  0  0  0  0  0  0  0  0  0  0  0
   -4.5169   -1.2038    1.6527 C   0  0  0  0  0  0  0  0  0  0  0  0
   -5.4632   -1.3234    0.5341 C   0  0  0  0  0  0  0  0  0  0  0  0
   -5.6242   -2.3892   -0.1265 O   0  0  0  0  0  0  0  0  0  0  0  0
   -6.2357   -0.2393    0.1506 O   0  0  0  0  0  0  0  0  0  0  0  0
   -7.1405   -0.3358   -0.9040 C   0  0  0  0  0  0  0  0  0  0  0  0
   -8.5383   -0.1269   -0.3646 C   0  0  0  0  0  0  0  0  0  0  0  0
   -8.6664    1.1023    0.2191 O   0  0  0  0  0  0  0  0  0  0  0  0
  -10.1480    1.4365    0.9069 P   0  0  0  0  0  0  0  0  0  0  0  0
  -10.9245    0.0371    1.5513 S   0  0  0  0  0  0  0  0  0  0  0  0
  -11.1556    2.1677   -0.2671 O   0  0  0  0  0  0  0  0  0  0  0  0
  -10.0213    2.5702    2.1676 O   0  0  0  0  0  0  0  0  0  0  0  0
   -6.9200    0.5759   -2.0587 C   0  0  0  0  0  0  0  0  0  0  0  0
   -6.9400    1.9260   -1.8259 O   0  0  0  0  0  0  0  0  0  0  0  0
   -5.9706    2.4078   -0.9748 C   0  0  0  0  0  0  0  0  0  0  0  0
    9.3950    1.0453   -2.9502 H   0  0  0  0  0  0  0  0  0  0  0  0
    9.2961   -0.4807   -2.0012 H   0  0  0  0  0  0  0  0  0  0  0  0
    8.3171   -0.2669   -3.5310 H   0  0  0  0  0  0  0  0  0  0  0  0
    6.6071    0.5535   -2.1841 H   0  0  0  0  0  0  0  0  0  0  0  0
    7.5952    2.0018   -2.0077 H   0  0  0  0  0  0  0  0  0  0  0  0
    8.7722    1.0076   -0.0516 H   0  0  0  0  0  0  0  0  0  0  0  0
    7.0907    1.4078    0.2166 H   0  0  0  0  0  0  0  0  0  0  0  0
    6.7655   -1.2194   -0.4167 H   0  0  0  0  0  0  0  0  0  0  0  0
    8.5338   -1.2917   -0.3068 H   0  0  0  0  0  0  0  0  0  0  0  0
    7.8578   -2.0018    1.7656 H   0  0  0  0  0  0  0  0  0  0  0  0
    8.6483   -0.4369    1.9061 H   0  0  0  0  0  0  0  0  0  0  0  0
    6.6048    0.7542    2.2893 H   0  0  0  0  0  0  0  0  0  0  0  0
    6.9609   -0.4697    3.5054 H   0  0  0  0  0  0  0  0  0  0  0  0
    4.6066   -0.4657    3.2342 H   0  0  0  0  0  0  0  0  0  0  0  0
    5.3082   -2.0126    2.7583 H   0  0  0  0  0  0  0  0  0  0  0  0
    4.6558   -1.5751    0.3580 H   0  0  0  0  0  0  0  0  0  0  0  0
    3.3731   -1.3489    1.5642 H   0  0  0  0  0  0  0  0  0  0  0  0
    4.8855    1.0676    0.4359 H   0  0  0  0  0  0  0  0  0  0  0  0
    3.4397    0.9547    1.5338 H   0  0  0  0  0  0  0  0  0  0  0  0
    2.8754    1.4049   -0.8827 H   0  0  0  0  0  0  0  0  0  0  0  0
    3.6693   -0.1298   -1.3552 H   0  0  0  0  0  0  0  0  0  0  0  0
    2.0827   -1.4207    0.0155 H   0  0  0  0  0  0  0  0  0  0  0  0
    1.2712   -0.3216   -1.1740 H   0  0  0  0  0  0  0  0  0  0  0  0
    0.8686    1.3537    0.5999 H   0  0  0  0  0  0  0  0  0  0  0  0
    1.5635    0.3039    1.8342 H   0  0  0  0  0  0  0  0  0  0  0  0
   -0.7447    0.0861    1.9615 H   0  0  0  0  0  0  0  0  0  0  0  0
    0.0454   -1.4463    1.5010 H   0  0  0  0  0  0  0  0  0  0  0  0
   -1.3945    0.4726   -0.4064 H   0  0  0  0  0  0  0  0  0  0  0  0
   -0.5979   -1.0498   -0.9222 H   0  0  0  0  0  0  0  0  0  0  0  0
   -3.0106   -1.4654   -0.7184 H   0  0  0  0  0  0  0  0  0  0  0  0
   -2.1284   -2.3361    0.5336 H   0  0  0  0  0  0  0  0  0  0  0  0
   -3.3191    0.4884    1.0626 H   0  0  0  0  0  0  0  0  0  0  0  0
   -2.5839   -0.6341    2.2228 H   0  0  0  0  0  0  0  0  0  0  0  0
   -4.2636   -2.1960    2.1054 H   0  0  0  0  0  0  0  0  0  0  0  0
   -4.9561   -0.5869    2.4457 H   0  0  0  0  0  0  0  0  0  0  0  0
   -7.1493   -1.3829   -1.3312 H   0  0  0  0  0  0  0  0  0  0  0  0
   -9.3093   -0.2057   -1.1690 H   0  0  0  0  0  0  0  0  0  0  0  0
   -8.7878   -0.8882    0.4318 H   0  0  0  0  0  0  0  0  0  0  0  0
  -12.1161    1.9719   -0.0832 H   0  0  0  0  0  0  0  0  0  0  0  0
   -6.0359    0.2777   -2.6802 H   0  0  0  0  0  0  0  0  0  0  0  0
   -7.7893    0.3814   -2.7647 H   0  0  0  0  0  0  0  0  0  0  0  0
   -4.9879    2.1274   -1.4424 H   0  0  0  0  0  0  0  0  0  0  0  0
   -6.0543    3.5360   -0.9966 H   0  0  0  0  0  0  0  0  0  0  0  0
   -6.1227    2.0165    0.0331 H   0  0  0  0  0  0  0  0  0  0  0  0
  1  2  1  0
  2  3  1  0
  3  4  1  0
  4  5  1  0
  5  6  1  0
  6  7  1  0
  7  8  1  0
  8  9  1  0
  9 10  1  0
 10 11  1  0
 11 12  1  0
 12 13  1  0
 13 14  1  0
 14 15  1  0
 15 16  1  0
 16 17  1  0
 17 18  1  0
 18 19  2  0
 18 20  1  0
 20 21  1  0
 21 22  1  0
 22 23  1  0
 23 24  1  0
 24 25  2  0
 24 26  1  0
 24 27  1  0
 21 28  1  0
 28 29  1  0
 29 30  1  0
  1 31  1  0
  1 32  1  0
  1 33  1  0
  2 34  1  0
  2 35  1  0
  3 36  1  0
  3 37  1  0
  4 38  1  0
  4 39  1  0
  5 40  1  0
  5 41  1  0
  6 42  1  0
  6 43  1  0
  7 44  1  0
  7 45  1  0
  8 46  1  0
  8 47  1  0
  9 48  1  0
  9 49  1  0
 10 50  1  0
 10 51  1  0
 11 52  1  0
 11 53  1  0
 12 54  1  0
 12 55  1  0
 13 56  1  0
 13 57  1  0
 14 58  1  0
 14 59  1  0
 15 60  1  0
 15 61  1  0
 16 62  1  0
 16 63  1  0
 17 64  1  0
 17 65  1  0
 21 66  1  0
 22 67  1  0
 22 68  1  0
 26 69  1  0
 28 70  1  0
 28 71  1  0
 30 72  1  0
 30 73  1  0
 30 74  1  0
M  CHG  1  27  -1
M  END
>  <Ligand ID>  (1) 
LIG0000694

>  <Ligand>  (1) 
CHEMBL2335051

>  <SMILES>  (1) 
CCCCCCCCCCCCCCCCCC(=O)OC(COP(=S)(O)[O-])COC

>  <CID>  (1) 
91900066.0

>  <ChEMBL ID>  (1) 
nan

>  <InChiKey>  (1) 
VJXVPXYYOISTFL-UHFFFAOYSA-M

>  <InChi>  (1) 
InChI=1S/C22H45O6PS/c1-3-4-5-6-7-8-9-10-11-12-13-14-15-16-17-18-22(23)28-21(19-26-2)20-27-29(24,25)30/h21H,3-20H2,1-2H3,(H2,24,25,30)/p-1

>  <IUPAC Name>  (1) 
[1-[hydroxy(oxido)phosphinothioyl]oxy-3-methoxypropan-2-yl] octadecanoate

$$$$
