
     RDKit          3D

 63 69  0  0  0  0  0  0  0  0999 V2000
    5.4589    2.1274   -2.4874 C   0  0  0  0  0  0  0  0  0  0  0  0
    5.2977    2.3646   -1.1230 C   0  0  0  0  0  0  0  0  0  0  0  0
    4.6481    1.4366   -0.3047 C   0  0  0  0  0  0  0  0  0  0  0  0
    4.1643    0.2730   -0.8695 C   0  0  0  0  0  0  0  0  0  0  0  0
    4.3432    0.0664   -2.2433 C   0  0  0  0  0  0  0  0  0  0  0  0
    4.9720    0.9807   -2.9954 N   0  0  0  0  0  0  0  0  0  0  0  0
    3.4644   -0.7834   -0.1285 C   0  0  0  0  0  0  0  0  0  0  0  0
    2.0777   -0.7066   -0.0167 N   0  0  0  0  0  0  0  0  0  0  0  0
    1.2817   -0.7094   -1.1974 C   0  0  0  0  0  0  0  0  0  0  0  0
   -0.0624   -0.8009   -0.5390 C   0  0  1  0  0  0  0  0  0  0  0  0
    0.1548    0.2940    0.5066 C   0  0  0  0  0  0  0  0  0  0  0  0
    1.4848    0.1450    0.9583 C   0  0  1  0  0  0  0  0  0  0  0  0
    1.5910   -0.3303    2.3480 C   0  0  0  0  0  0  0  0  0  0  0  0
    1.3285   -1.6497    2.6693 C   0  0  0  0  0  0  0  0  0  0  0  0
    1.4177   -2.1328    3.9627 C   0  0  0  0  0  0  0  0  0  0  0  0
    1.7805   -1.2939    5.0018 C   0  0  0  0  0  0  0  0  0  0  0  0
    2.0495    0.0375    4.7040 C   0  0  0  0  0  0  0  0  0  0  0  0
    1.9538    0.4924    3.4117 C   0  0  0  0  0  0  0  0  0  0  0  0
   -1.1309    0.1945    1.2063 C   0  0  0  0  0  0  0  0  0  0  0  0
   -1.6755    0.7095   -0.1092 C   0  0  0  0  0  0  0  0  0  0  0  0
   -1.2260   -0.2025   -1.2166 C   0  0  0  0  0  0  0  0  0  0  0  0
   -2.2085   -1.1709   -1.6844 C   0  0  0  0  0  0  0  0  0  0  0  0
   -2.7344   -2.2091   -0.9497 C   0  0  0  0  0  0  0  0  0  0  0  0
   -3.6710   -3.0950   -1.4572 C   0  0  0  0  0  0  0  0  0  0  0  0
   -4.1332   -2.9792   -2.7505 C   0  0  0  0  0  0  0  0  0  0  0  0
   -3.6196   -1.9460   -3.5047 C   0  0  0  0  0  0  0  0  0  0  0  0
   -2.6892   -1.0671   -2.9983 C   0  0  0  0  0  0  0  0  0  0  0  0
   -0.3952    1.5787   -0.0717 C   0  0  0  0  0  0  0  0  0  0  0  0
   -2.9371    1.3596   -0.1318 C   0  0  0  0  0  0  0  0  0  0  0  0
   -3.6741    1.5286    1.0298 C   0  0  0  0  0  0  0  0  0  0  0  0
   -4.9068    2.1615    1.0209 C   0  0  0  0  0  0  0  0  0  0  0  0
   -5.4049    2.6331   -0.1855 C   0  0  0  0  0  0  0  0  0  0  0  0
   -4.6804    2.4633   -1.3072 N   0  0  0  0  0  0  0  0  0  0  0  0
   -3.4830    1.8470   -1.2896 C   0  0  0  0  0  0  0  0  0  0  0  0
    5.9437    2.7974   -3.1539 H   0  0  0  0  0  0  0  0  0  0  0  0
    5.6854    3.2790   -0.7148 H   0  0  0  0  0  0  0  0  0  0  0  0
    4.5118    1.5976    0.7511 H   0  0  0  0  0  0  0  0  0  0  0  0
    3.9718   -0.8421   -2.7147 H   0  0  0  0  0  0  0  0  0  0  0  0
    3.8937   -0.8701    0.8920 H   0  0  0  0  0  0  0  0  0  0  0  0
    3.6990   -1.7845   -0.5926 H   0  0  0  0  0  0  0  0  0  0  0  0
    1.3489    0.1785   -1.8239 H   0  0  0  0  0  0  0  0  0  0  0  0
    1.4946   -1.6112   -1.7976 H   0  0  0  0  0  0  0  0  0  0  0  0
   -0.2248   -1.7879   -0.0947 H   0  0  0  0  0  0  0  0  0  0  0  0
    2.0395    1.1254    0.9277 H   0  0  0  0  0  0  0  0  0  0  0  0
    1.0418   -2.3303    1.8743 H   0  0  0  0  0  0  0  0  0  0  0  0
    1.2000   -3.1779    4.1551 H   0  0  0  0  0  0  0  0  0  0  0  0
    1.8454   -1.6869    6.0056 H   0  0  0  0  0  0  0  0  0  0  0  0
    2.3349    0.7219    5.4843 H   0  0  0  0  0  0  0  0  0  0  0  0
    2.1674    1.5342    3.1982 H   0  0  0  0  0  0  0  0  0  0  0  0
   -1.2933    0.9849    1.9746 H   0  0  0  0  0  0  0  0  0  0  0  0
   -1.3781   -0.8158    1.5102 H   0  0  0  0  0  0  0  0  0  0  0  0
   -0.9296    0.4720   -2.0579 H   0  0  0  0  0  0  0  0  0  0  0  0
   -2.4194   -2.3546    0.0509 H   0  0  0  0  0  0  0  0  0  0  0  0
   -4.0670   -3.9000   -0.8598 H   0  0  0  0  0  0  0  0  0  0  0  0
   -4.8489   -3.6182   -3.2101 H   0  0  0  0  0  0  0  0  0  0  0  0
   -3.9522   -1.8089   -4.5367 H   0  0  0  0  0  0  0  0  0  0  0  0
   -2.3162   -0.2699   -3.6343 H   0  0  0  0  0  0  0  0  0  0  0  0
   -0.0149    1.8549   -1.0668 H   0  0  0  0  0  0  0  0  0  0  0  0
   -0.4157    2.3336    0.7120 H   0  0  0  0  0  0  0  0  0  0  0  0
   -3.3287    1.1788    1.9933 H   0  0  0  0  0  0  0  0  0  0  0  0
   -5.4745    2.2868    1.9424 H   0  0  0  0  0  0  0  0  0  0  0  0
   -6.3751    3.1368   -0.2237 H   0  0  0  0  0  0  0  0  0  0  0  0
   -2.9761    1.7595   -2.2486 H   0  0  0  0  0  0  0  0  0  0  0  0
  1  2  2  0
  2  3  1  0
  3  4  2  0
  4  5  1  0
  5  6  2  0
  4  7  1  0
  7  8  1  0
  8  9  1  0
  9 10  1  0
 10 11  1  0
 11 12  1  0
 12 13  1  0
 13 14  2  0
 14 15  1  0
 15 16  2  0
 16 17  1  0
 17 18  2  0
 11 19  1  0
 19 20  1  0
 20 21  1  0
 21 22  1  0
 22 23  2  0
 23 24  1  0
 24 25  2  0
 25 26  1  0
 26 27  2  0
 20 28  1  0
 20 29  1  0
 29 30  2  0
 30 31  1  0
 31 32  2  0
 32 33  1  0
 33 34  2  0
  6  1  1  0
 12  8  1  0
 18 13  1  0
 27 22  1  0
 34 29  1  0
 21 10  1  0
 28 11  1  0
  1 35  1  0
  2 36  1  0
  3 37  1  0
  5 38  1  0
  7 39  1  0
  7 40  1  0
  9 41  1  0
  9 42  1  0
 10 43  1  1
 12 44  1  1
 14 45  1  0
 15 46  1  0
 16 47  1  0
 17 48  1  0
 18 49  1  0
 19 50  1  0
 19 51  1  0
 21 52  1  0
 23 53  1  0
 24 54  1  0
 25 55  1  0
 26 56  1  0
 27 57  1  0
 28 58  1  0
 28 59  1  0
 30 60  1  0
 31 61  1  0
 32 62  1  0
 34 63  1  0
M  END
>  <Ligand ID>  (1) 
LIG0002412

>  <Ligand>  (1) 
MLS000877799

>  <SMILES>  (1) 
c1ccc(cn1)CN1C[C@H]2C3([C@H]1c1ccccc1)CC(C2c1ccccc1)(C3)c1cccnc1

>  <CID>  (1) 
11949196.0

>  <ChEMBL ID>  (1) 
nan

>  <InChiKey>  (1) 
NUJHFKHMMFVVEU-JWNZYNCUSA-N

>  <InChi>  (1) 
InChI=1S/C31H29N3/c1-3-10-24(11-4-1)28-27-20-34(19-23-9-7-15-32-17-23)29(25-12-5-2-6-13-25)31(27)21-30(28,22-31)26-14-8-16-33-18-26/h1-18,27-29H,19-22H2/t27-,28?,29-,30?,31?/m1/s1

>  <IUPAC Name>  (1) 
(2S,5R)-2,6-diphenyl-7-pyridin-3-yl-3-(pyridin-3-ylmethyl)-3-azatricyclo[5.1.1.01,5]nonane

$$$$
