
     RDKit          3D

 31 32  0  0  0  0  0  0  0  0999 V2000
   -0.4088   -1.6056   -1.1289 O   0  0  0  0  0  0  0  0  0  0  0  0
   -0.6270   -0.3747   -1.1272 C   0  0  0  0  0  0  0  0  0  0  0  0
   -1.9243    0.1991   -1.5306 C   0  0  0  0  0  0  0  0  0  0  0  0
   -3.0132    0.0702   -0.5742 C   0  0  0  0  0  0  0  0  0  0  0  0
   -3.1407   -0.8899    0.3915 C   0  0  0  0  0  0  0  0  0  0  0  0
   -4.2404   -0.8976    1.2275 C   0  0  0  0  0  0  0  0  0  0  0  0
   -5.2536    0.0506    1.1345 C   0  0  0  0  0  0  0  0  0  0  0  0
   -5.1299    1.0174    0.1637 C   0  0  0  0  0  0  0  0  0  0  0  0
   -4.0408    1.0275   -0.6671 C   0  0  0  0  0  0  0  0  0  0  0  0
    0.3721    0.4827   -0.7344 O   0  0  0  0  0  0  0  0  0  0  0  0
    1.6470    0.1915   -0.3371 C   0  0  0  0  0  0  0  0  0  0  0  0
    2.1592   -1.0091    0.0317 C   0  0  0  0  0  0  0  0  0  0  0  0
    3.4873   -1.2019    0.4205 C   0  0  0  0  0  0  0  0  0  0  0  0
    4.3313   -0.1133    0.4356 C   0  0  0  0  0  0  0  0  0  0  0  0
    3.8491    1.1433    0.0672 C   0  0  0  0  0  0  0  0  0  0  0  0
    2.5428    1.2750   -0.3066 C   0  0  0  0  0  0  0  0  0  0  0  0
    5.7727   -0.2264    0.8302 C   0  0  0  0  0  0  0  0  0  0  0  0
   -1.8048    1.3051   -1.7626 H   0  0  0  0  0  0  0  0  0  0  0  0
   -2.2190   -0.3229   -2.4860 H   0  0  0  0  0  0  0  0  0  0  0  0
   -2.3989   -1.6411    0.5183 H   0  0  0  0  0  0  0  0  0  0  0  0
   -4.3691   -1.6431    2.0097 H   0  0  0  0  0  0  0  0  0  0  0  0
   -6.1234    0.0640    1.7731 H   0  0  0  0  0  0  0  0  0  0  0  0
   -5.8871    1.7764    0.0411 H   0  0  0  0  0  0  0  0  0  0  0  0
   -3.9959    1.8186   -1.4211 H   0  0  0  0  0  0  0  0  0  0  0  0
    1.5283   -1.8749    0.0359 H   0  0  0  0  0  0  0  0  0  0  0  0
    3.8379   -2.2006    0.7031 H   0  0  0  0  0  0  0  0  0  0  0  0
    4.5457    1.9773    0.0971 H   0  0  0  0  0  0  0  0  0  0  0  0
    2.1668    2.2689   -0.5934 H   0  0  0  0  0  0  0  0  0  0  0  0
    6.2877    0.7227    0.5641 H   0  0  0  0  0  0  0  0  0  0  0  0
    6.2164   -1.0771    0.2868 H   0  0  0  0  0  0  0  0  0  0  0  0
    5.8327   -0.3121    1.9376 H   0  0  0  0  0  0  0  0  0  0  0  0
  1  2  2  0
  2  3  1  0
  3  4  1  0
  4  5  2  0
  5  6  1  0
  6  7  2  0
  7  8  1  0
  8  9  2  0
  2 10  1  0
 10 11  1  0
 11 12  2  0
 12 13  1  0
 13 14  2  0
 14 15  1  0
 15 16  2  0
 14 17  1  0
  9  4  1  0
 16 11  1  0
  3 18  1  0
  3 19  1  0
  5 20  1  0
  6 21  1  0
  7 22  1  0
  8 23  1  0
  9 24  1  0
 12 25  1  0
 13 26  1  0
 15 27  1  0
 16 28  1  0
 17 29  1  0
 17 30  1  0
 17 31  1  0
M  END
>  <Ligand ID>  (1) 
LIG0000173

>  <Ligand>  (1) 
p-CRESYL PHENYLACETATE

>  <SMILES>  (1) 
O=C(Cc1ccccc1)Oc1ccc(cc1)C

>  <CID>  (1) 
60997.0

>  <ChEMBL ID>  (1) 
nan

>  <InChiKey>  (1) 
OJEQSSJFSNLMLB-UHFFFAOYSA-N

>  <InChi>  (1) 
InChI=1S/C15H14O2/c1-12-7-9-14(10-8-12)17-15(16)11-13-5-3-2-4-6-13/h2-10H,11H2,1H3

>  <IUPAC Name>  (1) 
(4-methylphenyl) 2-phenylacetate

$$$$
