
     RDKit          3D

 29 30  0  0  0  0  0  0  0  0999 V2000
   -4.6694    0.9053   -0.2872 C   0  0  0  0  0  0  0  0  0  0  0  0
   -3.4208    0.2358    0.1847 C   0  0  0  0  0  0  0  0  0  0  0  0
   -3.1765    0.1280    1.4300 O   0  0  0  0  0  0  0  0  0  0  0  0
   -2.5609   -0.2512   -0.7738 O   0  0  0  0  0  0  0  0  0  0  0  0
   -1.3609   -0.8980   -0.4817 C   0  0  0  0  0  0  0  0  0  0  0  0
   -1.3579   -2.2492   -0.3217 C   0  0  0  0  0  0  0  0  0  0  0  0
   -0.1999   -2.9421   -0.0316 C   0  0  0  0  0  0  0  0  0  0  0  0
    0.9609   -2.2096    0.0907 C   0  0  0  0  0  0  0  0  0  0  0  0
    0.9971   -0.8403   -0.0645 C   0  0  0  0  0  0  0  0  0  0  0  0
   -0.1841   -0.1967   -0.3529 C   0  0  0  0  0  0  0  0  0  0  0  0
    0.0550    1.2613   -0.4826 C   0  0  0  0  0  0  0  0  0  0  0  0
    1.4800    1.3523   -0.2356 C   0  0  0  0  0  0  0  0  0  0  0  0
    2.0927    0.1676    0.0141 C   0  0  0  0  0  0  0  0  0  0  0  0
    3.3781    0.1836    0.2435 N   0  0  0  0  0  0  0  0  0  0  0  0
    4.0819    1.2490    0.2447 C   0  0  0  0  0  0  0  0  0  0  0  0
    2.8777    2.5061   -0.1199 S   0  0  0  0  0  0  0  0  0  0  0  0
    5.4740    1.4411    0.4726 N   0  0  0  0  0  0  0  0  0  0  0  0
    0.8586    0.0000    0.0000 I   0  0  0  0  0  0  0  0  0  0  0  0
   -4.5012    1.5322   -1.1819 H   0  0  0  0  0  0  0  0  0  0  0  0
   -4.9720    1.5959    0.5311 H   0  0  0  0  0  0  0  0  0  0  0  0
   -5.4706    0.1819   -0.5260 H   0  0  0  0  0  0  0  0  0  0  0  0
   -2.2627   -2.8250   -0.4164 H   0  0  0  0  0  0  0  0  0  0  0  0
   -0.2121   -4.0341    0.0951 H   0  0  0  0  0  0  0  0  0  0  0  0
    1.8655   -2.7549    0.3177 H   0  0  0  0  0  0  0  0  0  0  0  0
   -0.2660    1.6040   -1.5015 H   0  0  0  0  0  0  0  0  0  0  0  0
   -0.5115    1.8284    0.2810 H   0  0  0  0  0  0  0  0  0  0  0  0
    5.7543    2.3395    0.9269 H   0  0  0  0  0  0  0  0  0  0  0  0
    6.1095    0.6894    0.1778 H   0  0  0  0  0  0  0  0  0  0  0  0
   -0.8586    0.0000    0.0000 H   0  0  0  0  0  0  0  0  0  0  0  0
  1  2  1  0
  2  3  2  0
  2  4  1  0
  4  5  1  0
  5  6  2  0
  6  7  1  0
  7  8  2  0
  8  9  1  0
  9 10  2  0
 10 11  1  0
 11 12  1  0
 12 13  2  0
 13 14  1  0
 14 15  2  0
 15 16  1  0
 15 17  1  0
 10  5  1  0
 16 12  1  0
 13  9  1  0
  1 19  1  0
  1 20  1  0
  1 21  1  0
  6 22  1  0
  7 23  1  0
  8 24  1  0
 11 25  1  0
 11 26  1  0
 17 27  1  0
 17 28  1  0
 18 29  1  0
M  END
>  <Ligand ID>  (1) 
LIG0003366

>  <Ligand>  (1) 
CHEMBL39388

>  <SMILES>  (1) 
CC(=O)Oc1cccc2c1Cc1c2nc(s1)N.I

>  <CID>  (1) 
9976651.0

>  <ChEMBL ID>  (1) 
nan

>  <InChiKey>  (1) 
OYFWSJUVLXBPKC-UHFFFAOYSA-N

>  <InChi>  (1) 
InChI=1S/C12H10N2O2S.HI/c1-6(15)16-9-4-2-3-7-8(9)5-10-11(7)14-12(13)17-10;/h2-4H,5H2,1H3,(H2,13,14);1H

>  <IUPAC Name>  (1) 
(2-amino-4H-indeno[1,2-d][1,3]thiazol-5-yl) acetate;hydroiodide

$$$$
