
     RDKit          3D

 79 80  0  0  0  0  0  0  0  0999 V2000
   -0.9780   -0.0444   -0.0413 C   0  0  0  0  0  0  0  0  0  0  0  0
    0.4709    0.2604    0.0594 C   0  0  0  0  0  0  0  0  0  0  0  0
    0.8139    1.4056    0.5021 O   0  0  0  0  0  0  0  0  0  0  0  0
    1.4280   -0.6758   -0.3179 O   0  0  0  0  0  0  0  0  0  0  0  0
    9.7901    2.4192   -1.6404 O   0  0  0  0  0  0  0  0  0  0  0  0
    9.5116    2.4200   -0.2618 C   0  0  0  0  0  0  0  0  0  0  0  0
    8.5895    1.2975    0.0545 C   0  0  0  0  0  0  0  0  0  0  0  0
    7.2455    1.4698    0.3074 C   0  0  0  0  0  0  0  0  0  0  0  0
    6.3947    0.4223    0.6009 C   0  0  0  0  0  0  0  0  0  0  0  0
    6.9925   -0.8436    0.6256 C   0  0  0  0  0  0  0  0  0  0  0  0
    8.3336   -1.0256    0.3745 C   0  0  0  0  0  0  0  0  0  0  0  0
    9.1741    0.0266    0.0823 C   0  0  0  0  0  0  0  0  0  0  0  0
   10.5249   -0.1516   -0.1713 O   0  0  0  0  0  0  0  0  0  0  0  0
    4.9649    0.5531    0.8745 C   0  0  2  0  0  0  0  0  0  0  0  0
    4.0986    0.7913   -0.3347 C   0  0  0  0  0  0  0  0  0  0  0  0
    2.7243    0.8435    0.0609 N   0  0  0  0  0  0  0  0  0  0  0  0
    2.1691   -0.3952    0.5258 C   0  0  0  0  0  0  0  0  0  0  0  0
    2.0523   -1.4009   -0.5855 C   0  0  0  0  0  0  0  0  0  0  0  0
    1.1596   -0.8997   -1.6822 C   0  0  0  0  0  0  0  0  0  0  0  0
   -0.2557   -0.6283   -1.2140 C   0  0  0  0  0  0  0  0  0  0  0  0
   -0.8473   -1.9214   -0.6793 C   0  0  0  0  0  0  0  0  0  0  0  0
   -2.2830   -1.6606   -0.2097 C   0  0  0  0  0  0  0  0  0  0  0  0
   -2.7842   -2.8419    0.2614 O   0  0  0  0  0  0  0  0  0  0  0  0
   -4.0928   -2.8003    0.7262 C   0  0  0  0  0  0  0  0  0  0  0  0
   -5.0797   -2.3809   -0.3029 C   0  0  0  0  0  0  0  0  0  0  0  0
   -6.3488   -2.3686    0.2237 O   0  0  0  0  0  0  0  0  0  0  0  0
   -6.6009   -1.5230    1.2593 C   0  0  0  0  0  0  0  0  0  0  0  0
   -6.3889   -0.1045    0.9255 C   0  0  0  0  0  0  0  0  0  0  0  0
   -5.3264    0.6534    1.3589 C   0  0  0  0  0  0  0  0  0  0  0  0
   -5.1703    1.9945    1.0306 C   0  0  0  0  0  0  0  0  0  0  0  0
   -6.1155    2.6106    0.2337 C   0  0  0  0  0  0  0  0  0  0  0  0
   -7.1926    1.8828   -0.2186 C   0  0  0  0  0  0  0  0  0  0  0  0
   -7.3288    0.5435    0.1217 C   0  0  0  0  0  0  0  0  0  0  0  0
   -8.4357   -0.1024   -0.3780 C   0  0  0  0  0  0  0  0  0  0  0  0
   -9.3772    0.5287   -1.1792 C   0  0  0  0  0  0  0  0  0  0  0  0
   -9.2181    1.8599   -1.5020 C   0  0  0  0  0  0  0  0  0  0  0  0
   -8.1152    2.5303   -1.0128 C   0  0  0  0  0  0  0  0  0  0  0  0
    4.7703    1.6192    1.7537 O   0  0  0  0  0  0  0  0  0  0  0  0
   -1.5843    0.8516    0.0676 H   0  0  0  0  0  0  0  0  0  0  0  0
   -1.2114   -0.5532   -1.0126 H   0  0  0  0  0  0  0  0  0  0  0  0
   -1.3097   -0.7540    0.7446 H   0  0  0  0  0  0  0  0  0  0  0  0
    2.3707   -0.4902   -0.0019 H   0  0  0  0  0  0  0  0  0  0  0  0
    9.5963    3.2950   -2.0682 H   0  0  0  0  0  0  0  0  0  0  0  0
   10.4322    2.3480    0.3473 H   0  0  0  0  0  0  0  0  0  0  0  0
    8.9308    3.3476   -0.0690 H   0  0  0  0  0  0  0  0  0  0  0  0
    6.8282    2.4624    0.2778 H   0  0  0  0  0  0  0  0  0  0  0  0
    6.3917   -1.7384    0.8503 H   0  0  0  0  0  0  0  0  0  0  0  0
    8.7466   -2.0409    0.4079 H   0  0  0  0  0  0  0  0  0  0  0  0
   11.1752   -0.3690    0.5955 H   0  0  0  0  0  0  0  0  0  0  0  0
    4.6046   -0.4051    1.3153 H   0  0  0  0  0  0  0  0  0  0  0  0
    4.3072    1.8069   -0.7898 H   0  0  0  0  0  0  0  0  0  0  0  0
    4.2601    0.0477   -1.1273 H   0  0  0  0  0  0  0  0  0  0  0  0
    2.4733    1.6759    0.6078 H   0  0  0  0  0  0  0  0  0  0  0  0
    2.6144   -0.8053    1.4392 H   0  0  0  0  0  0  0  0  0  0  0  0
    1.1066   -0.1475    0.8203 H   0  0  0  0  0  0  0  0  0  0  0  0
    1.7429   -2.3991   -0.2051 H   0  0  0  0  0  0  0  0  0  0  0  0
    3.0568   -1.5621   -1.0207 H   0  0  0  0  0  0  0  0  0  0  0  0
    1.5781    0.0748   -2.0096 H   0  0  0  0  0  0  0  0  0  0  0  0
    1.1229   -1.5796   -2.5338 H   0  0  0  0  0  0  0  0  0  0  0  0
   -0.3594    0.2221   -0.5410 H   0  0  0  0  0  0  0  0  0  0  0  0
   -0.8455   -0.3688   -2.1265 H   0  0  0  0  0  0  0  0  0  0  0  0
   -0.8391   -2.6349   -1.5216 H   0  0  0  0  0  0  0  0  0  0  0  0
   -0.2641   -2.3514    0.1383 H   0  0  0  0  0  0  0  0  0  0  0  0
   -2.8100   -1.2405   -1.0701 H   0  0  0  0  0  0  0  0  0  0  0  0
   -2.2547   -0.9502    0.6397 H   0  0  0  0  0  0  0  0  0  0  0  0
   -4.4217   -3.7450    1.1568 H   0  0  0  0  0  0  0  0  0  0  0  0
   -4.0884   -2.0622    1.5500 H   0  0  0  0  0  0  0  0  0  0  0  0
   -4.8818   -1.3582   -0.7114 H   0  0  0  0  0  0  0  0  0  0  0  0
   -5.1266   -3.1229   -1.1562 H   0  0  0  0  0  0  0  0  0  0  0  0
   -5.9760   -1.7760    2.1499 H   0  0  0  0  0  0  0  0  0  0  0  0
   -7.6809   -1.6851    1.5384 H   0  0  0  0  0  0  0  0  0  0  0  0
   -4.5711    0.2164    1.9821 H   0  0  0  0  0  0  0  0  0  0  0  0
   -4.3103    2.5399    1.4031 H   0  0  0  0  0  0  0  0  0  0  0  0
   -5.9816    3.6671   -0.0177 H   0  0  0  0  0  0  0  0  0  0  0  0
   -8.6238   -1.1453   -0.1674 H   0  0  0  0  0  0  0  0  0  0  0  0
  -10.2513   -0.0200   -1.5621 H   0  0  0  0  0  0  0  0  0  0  0  0
   -9.9719    2.3194   -2.1283 H   0  0  0  0  0  0  0  0  0  0  0  0
   -7.9870    3.5881   -1.2677 H   0  0  0  0  0  0  0  0  0  0  0  0
    4.7435    2.4787    1.2310 H   0  0  0  0  0  0  0  0  0  0  0  0
  1  2  1  0
  2  3  2  0
  2  4  1  0
  5  6  1  0
  6  7  1  0
  7  8  2  0
  8  9  1  0
  9 10  2  0
 10 11  1  0
 11 12  2  0
 12 13  1  0
  9 14  1  0
 14 15  1  0
 15 16  1  0
 16 17  1  0
 17 18  1  0
 18 19  1  0
 19 20  1  0
 20 21  1  0
 21 22  1  0
 22 23  1  0
 23 24  1  0
 24 25  1  0
 25 26  1  0
 26 27  1  0
 27 28  1  0
 28 29  2  0
 29 30  1  0
 30 31  2  0
 31 32  1  0
 32 33  2  0
 33 34  1  0
 34 35  2  0
 35 36  1  0
 36 37  2  0
 14 38  1  0
 12  7  1  0
 33 28  1  0
 37 32  1  0
  1 39  1  0
  1 40  1  0
  1 41  1  0
  4 42  1  0
  5 43  1  0
  6 44  1  0
  6 45  1  0
  8 46  1  0
 10 47  1  0
 11 48  1  0
 13 49  1  0
 14 50  1  1
 15 51  1  0
 15 52  1  0
 16 53  1  0
 17 54  1  0
 17 55  1  0
 18 56  1  0
 18 57  1  0
 19 58  1  0
 19 59  1  0
 20 60  1  0
 20 61  1  0
 21 62  1  0
 21 63  1  0
 22 64  1  0
 22 65  1  0
 24 66  1  0
 24 67  1  0
 25 68  1  0
 25 69  1  0
 27 70  1  0
 27 71  1  0
 29 72  1  0
 30 73  1  0
 31 74  1  0
 34 75  1  0
 35 76  1  0
 36 77  1  0
 37 78  1  0
 38 79  1  0
M  END
>  <Ligand ID>  (1) 
LIG0003348

>  <Ligand>  (1) 
CHEMBL1085837

>  <SMILES>  (1) 
CC(=O)O.OCc1cc(ccc1O)[C@H](CNCCCCCCOCCOCc1cccc2c1cccc2)O

>  <CID>  (1) 
46832231.0

>  <ChEMBL ID>  (1) 
nan

>  <InChiKey>  (1) 
APEHTRASELHRSR-JCOPYZAKSA-N

>  <InChi>  (1) 
InChI=1S/C28H37NO5.C2H4O2/c30-20-25-18-23(12-13-27(25)31)28(32)19-29-14-5-1-2-6-15-33-16-17-34-21-24-10-7-9-22-8-3-4-11-26(22)24;1-2(3)4/h3-4,7-13,18,28-32H,1-2,5-6,14-17,19-21H2;1H3,(H,3,4)/t28-;/m0./s1

>  <IUPAC Name>  (1) 
acetic acid;2-(hydroxymethyl)-4-[(1R)-1-hydroxy-2-[6-[2-(naphthalen-1-ylmethoxy)ethoxy]hexylamino]ethyl]phenol

$$$$
