
     RDKit          3D

 62 61  0  0  0  0  0  0  0  0999 V2000
    8.1256   -0.4936    0.5069 C   0  0  0  0  0  0  0  0  0  0  0  0
    7.6230   -0.7846   -0.8721 C   0  0  0  0  0  0  0  0  0  0  0  0
    6.1687   -0.3909   -0.9612 C   0  0  0  0  0  0  0  0  0  0  0  0
    6.0081    1.0790   -0.6775 C   0  0  0  0  0  0  0  0  0  0  0  0
    4.5517    1.5155   -0.7598 C   0  0  0  0  0  0  0  0  0  0  0  0
    3.7137    0.7925    0.2208 C   0  0  0  0  0  0  0  0  0  0  0  0
    2.2395    1.1550    0.2194 C   0  0  0  0  0  0  0  0  0  0  0  0
    1.9478    2.5496    0.5037 C   0  0  0  0  0  0  0  0  0  0  0  0
    0.5441    2.9916    0.5857 C   0  0  0  0  0  0  0  0  0  0  0  0
   -0.4487    2.8577   -0.4568 C   0  0  0  0  0  0  0  0  0  0  0  0
   -1.2039    1.7490   -0.9607 C   0  0  0  0  0  0  0  0  0  0  0  0
   -0.9447    0.4437   -1.5075 C   0  0  0  0  0  0  0  0  0  0  0  0
   -0.4122   -0.7061   -0.7767 C   0  0  0  0  0  0  0  0  0  0  0  0
   -1.2467   -1.1051    0.4365 C   0  0  0  0  0  0  0  0  0  0  0  0
   -2.5573   -1.4455   -0.0174 N   0  0  0  0  0  0  0  0  0  0  0  0
   -3.5703   -1.8668    0.9034 C   0  0  0  0  0  0  0  0  0  0  0  0
   -3.3500   -1.9553    2.1454 O   0  0  0  0  0  0  0  0  0  0  0  0
   -4.9466   -2.2280    0.4587 C   0  0  1  0  0  0  0  0  0  0  0  0
   -6.0089   -1.4416    1.1884 C   0  0  0  0  0  0  0  0  0  0  0  0
   -7.2452   -1.8696    0.7334 O   0  0  0  0  0  0  0  0  0  0  0  0
   -8.4631   -1.0567    1.5622 P   0  0  0  0  0  0  0  0  0  0  0  0
   -7.9080   -0.0709    2.5648 O   0  0  0  0  0  0  0  0  0  0  0  0
   -9.3545   -2.2037    2.4348 O   0  0  0  0  0  0  0  0  0  0  0  0
   -9.5047   -0.2590    0.5181 O   0  0  0  0  0  0  0  0  0  0  0  0
   -5.0034   -2.0413   -0.9717 N   0  0  0  0  0  0  0  0  0  0  0  0
    8.8289    0.3417    0.5123 H   0  0  0  0  0  0  0  0  0  0  0  0
    8.6052   -1.4256    0.8874 H   0  0  0  0  0  0  0  0  0  0  0  0
    7.3035   -0.2861    1.2325 H   0  0  0  0  0  0  0  0  0  0  0  0
    7.6658   -1.8821   -1.1123 H   0  0  0  0  0  0  0  0  0  0  0  0
    8.1932   -0.2737   -1.6678 H   0  0  0  0  0  0  0  0  0  0  0  0
    5.7419   -0.5879   -1.9519 H   0  0  0  0  0  0  0  0  0  0  0  0
    5.6391   -0.9817   -0.1757 H   0  0  0  0  0  0  0  0  0  0  0  0
    6.3868    1.3139    0.3567 H   0  0  0  0  0  0  0  0  0  0  0  0
    6.6411    1.6508   -1.3730 H   0  0  0  0  0  0  0  0  0  0  0  0
    4.5188    2.6088   -0.6970 H   0  0  0  0  0  0  0  0  0  0  0  0
    4.2448    1.2818   -1.8161 H   0  0  0  0  0  0  0  0  0  0  0  0
    4.1136    0.8816    1.2385 H   0  0  0  0  0  0  0  0  0  0  0  0
    3.7376   -0.2964   -0.0383 H   0  0  0  0  0  0  0  0  0  0  0  0
    1.8748    0.9365   -0.8415 H   0  0  0  0  0  0  0  0  0  0  0  0
    1.7132    0.4733    0.8900 H   0  0  0  0  0  0  0  0  0  0  0  0
    2.4445    2.9288    1.4537 H   0  0  0  0  0  0  0  0  0  0  0  0
    2.4214    3.1566   -0.3588 H   0  0  0  0  0  0  0  0  0  0  0  0
    0.0821    2.5720    1.5681 H   0  0  0  0  0  0  0  0  0  0  0  0
    0.5240    4.1215    0.8964 H   0  0  0  0  0  0  0  0  0  0  0  0
   -1.2908    3.6866   -0.2439 H   0  0  0  0  0  0  0  0  0  0  0  0
   -0.0198    3.4680   -1.4068 H   0  0  0  0  0  0  0  0  0  0  0  0
   -1.9175    2.2772   -1.7817 H   0  0  0  0  0  0  0  0  0  0  0  0
   -2.1006    1.6353   -0.1720 H   0  0  0  0  0  0  0  0  0  0  0  0
   -0.2691    0.5648   -2.4276 H   0  0  0  0  0  0  0  0  0  0  0  0
   -1.9091    0.0542   -2.0306 H   0  0  0  0  0  0  0  0  0  0  0  0
   -0.6729   -1.6182   -1.4943 H   0  0  0  0  0  0  0  0  0  0  0  0
    0.6324   -0.8906   -0.6362 H   0  0  0  0  0  0  0  0  0  0  0  0
   -1.2417   -0.3596    1.2329 H   0  0  0  0  0  0  0  0  0  0  0  0
   -0.7450   -2.0200    0.8396 H   0  0  0  0  0  0  0  0  0  0  0  0
   -2.8723   -1.4159   -1.0281 H   0  0  0  0  0  0  0  0  0  0  0  0
   -5.0751   -3.3057    0.7275 H   0  0  0  0  0  0  0  0  0  0  0  0
   -5.8745   -1.5523    2.2725 H   0  0  0  0  0  0  0  0  0  0  0  0
   -5.8843   -0.3607    0.9753 H   0  0  0  0  0  0  0  0  0  0  0  0
   -9.5537   -3.0191    1.8877 H   0  0  0  0  0  0  0  0  0  0  0  0
   -9.6612   -0.8129   -0.2798 H   0  0  0  0  0  0  0  0  0  0  0  0
   -5.1241   -1.0171   -1.1721 H   0  0  0  0  0  0  0  0  0  0  0  0
   -5.8551   -2.5892   -1.2865 H   0  0  0  0  0  0  0  0  0  0  0  0
  1  2  1  0
  2  3  1  0
  3  4  1  0
  4  5  1  0
  5  6  1  0
  6  7  1  0
  7  8  1  0
  8  9  1  0
  9 10  1  0
 10 11  1  0
 11 12  1  0
 12 13  1  0
 13 14  1  0
 14 15  1  0
 15 16  1  0
 16 17  2  0
 16 18  1  0
 18 19  1  0
 19 20  1  0
 20 21  1  0
 21 22  2  0
 21 23  1  0
 21 24  1  0
 18 25  1  0
  1 26  1  0
  1 27  1  0
  1 28  1  0
  2 29  1  0
  2 30  1  0
  3 31  1  0
  3 32  1  0
  4 33  1  0
  4 34  1  0
  5 35  1  0
  5 36  1  0
  6 37  1  0
  6 38  1  0
  7 39  1  0
  7 40  1  0
  8 41  1  0
  8 42  1  0
  9 43  1  0
  9 44  1  0
 10 45  1  0
 10 46  1  0
 11 47  1  0
 11 48  1  0
 12 49  1  0
 12 50  1  0
 13 51  1  0
 13 52  1  0
 14 53  1  0
 14 54  1  0
 15 55  1  0
 18 56  1  6
 19 57  1  0
 19 58  1  0
 23 59  1  0
 24 60  1  0
 25 61  1  0
 25 62  1  0
M  END
>  <Ligand ID>  (1) 
LIG0004272

>  <Ligand>  (1) 
CHEMBL332472

>  <SMILES>  (1) 
CCCCCCCCCCCCCCNC(=O)[C@@H](COP(=O)(O)O)N

>  <CID>  (1) 
9821227.0

>  <ChEMBL ID>  (1) 
nan

>  <InChiKey>  (1) 
MBCYDVXEMDWKEJ-MRXNPFEDSA-N

>  <InChi>  (1) 
InChI=1S/C17H37N2O5P/c1-2-3-4-5-6-7-8-9-10-11-12-13-14-19-17(20)16(18)15-24-25(21,22)23/h16H,2-15,18H2,1H3,(H,19,20)(H2,21,22,23)/t16-/m1/s1

>  <IUPAC Name>  (1) 
[(2R)-2-amino-3-oxo-3-(tetradecylamino)propyl] dihydrogen phosphate

$$$$
