
     RDKit          3D

 28 29  0  0  0  0  0  0  0  0999 V2000
   -1.2227   -2.6165   -0.2730 O   0  0  0  0  0  0  0  0  0  0  0  0
   -2.1865   -1.6648   -0.4677 C   0  0  0  0  0  0  0  0  0  0  0  0
   -3.3272   -1.9122    0.0624 O   0  0  0  0  0  0  0  0  0  0  0  0
   -2.0726   -0.4115   -1.2059 C   0  0  0  0  0  0  0  0  0  0  0  0
   -1.3039    0.6722   -0.5810 C   0  0  0  0  0  0  0  0  0  0  0  0
   -1.7868    1.9976   -0.5595 C   0  0  0  0  0  0  0  0  0  0  0  0
   -0.8882    2.7826    0.0592 N   0  0  0  0  0  0  0  0  0  0  0  0
    0.1500    2.0202    0.4357 N   0  0  0  0  0  0  0  0  0  0  0  0
   -0.0985    0.7469    0.0509 C   0  0  0  0  0  0  0  0  0  0  0  0
    0.8113   -0.3683    0.2898 C   0  0  0  0  0  0  0  0  0  0  0  0
    2.1822    0.0047    0.8048 C   0  0  0  0  0  0  0  0  0  0  0  0
    3.0483   -1.2499    1.0045 C   0  0  0  0  0  0  0  0  0  0  0  0
    3.3581   -0.2650   -0.0596 C   0  0  0  0  0  0  0  0  0  0  0  0
    1.2216    2.5617    1.0899 O   0  0  0  0  0  0  0  0  0  0  0  0
   -3.4629    0.0490   -1.3833 N   0  0  0  0  0  0  0  0  0  0  0  0
   -1.1449   -3.0423    0.6611 H   0  0  0  0  0  0  0  0  0  0  0  0
   -1.6853   -0.6498   -2.2200 H   0  0  0  0  0  0  0  0  0  0  0  0
   -2.7170    2.3678   -0.9607 H   0  0  0  0  0  0  0  0  0  0  0  0
    0.9551   -1.0447   -0.5720 H   0  0  0  0  0  0  0  0  0  0  0  0
    0.3386   -0.9971    1.1087 H   0  0  0  0  0  0  0  0  0  0  0  0
    2.2615    0.6415    1.7181 H   0  0  0  0  0  0  0  0  0  0  0  0
    3.7179   -1.3289    1.8655 H   0  0  0  0  0  0  0  0  0  0  0  0
    2.6768   -2.2298    0.6583 H   0  0  0  0  0  0  0  0  0  0  0  0
    4.2968    0.3301    0.1164 H   0  0  0  0  0  0  0  0  0  0  0  0
    3.2279   -0.5382   -1.1007 H   0  0  0  0  0  0  0  0  0  0  0  0
    1.0416    2.9648    2.0221 H   0  0  0  0  0  0  0  0  0  0  0  0
   -3.8630    0.3608   -0.4711 H   0  0  0  0  0  0  0  0  0  0  0  0
   -3.5283    0.8189   -2.0926 H   0  0  0  0  0  0  0  0  0  0  0  0
  1  2  1  0
  2  3  2  0
  2  4  1  0
  4  5  1  0
  5  6  1  0
  6  7  2  0
  7  8  1  0
  8  9  1  0
  9 10  1  0
 10 11  1  0
 11 12  1  0
 12 13  1  0
  8 14  1  0
  4 15  1  0
  9  5  2  0
 13 11  1  0
  1 16  1  0
  4 17  1  0
  6 18  1  0
 10 19  1  0
 10 20  1  0
 11 21  1  0
 12 22  1  0
 12 23  1  0
 13 24  1  0
 13 25  1  0
 14 26  1  0
 15 27  1  0
 15 28  1  0
M  END
>  <Ligand ID>  (1) 
LIG0001333

>  <Ligand>  (1) 
CHEMBL389999

>  <SMILES>  (1) 
OC(=O)C(c1cnn(c1CC1CC1)O)N

>  <CID>  (1) 
44428734.0

>  <ChEMBL ID>  (1) 
nan

>  <InChiKey>  (1) 
MOTBOCIBPUKRGT-UHFFFAOYSA-N

>  <InChi>  (1) 
InChI=1S/C9H13N3O3/c10-8(9(13)14)6-4-11-12(15)7(6)3-5-1-2-5/h4-5,8,15H,1-3,10H2,(H,13,14)

>  <IUPAC Name>  (1) 
2-amino-2-[5-(cyclopropylmethyl)-1-hydroxypyrazol-4-yl]acetic acid

$$$$
