
     RDKit          3D

140143  0  0  0  0  0  0  0  0999 V2000
   -3.4951    4.2467   -1.4047 N   0  0  0  0  0  0  0  0  0  0  0  0
   -3.0670    3.0297   -0.8134 C   0  0  0  0  0  0  0  0  0  0  0  0
   -3.9830    2.3149   -0.2966 O   0  0  0  0  0  0  0  0  0  0  0  0
   -1.6865    2.5530   -0.7572 C   0  0  0  0  0  0  0  0  0  0  0  0
   -1.2675    1.6813   -1.9393 C   0  0  2  0  0  0  0  0  0  0  0  0
   -2.0507    0.4957   -2.1008 N   0  0  0  0  0  0  0  0  0  0  0  0
   -3.3019    0.3628   -2.7724 C   0  0  0  0  0  0  0  0  0  0  0  0
   -3.8230    1.3835   -3.1884 O   0  0  0  0  0  0  0  0  0  0  0  0
   -3.8866   -1.0278   -2.8955 C   0  0  2  0  0  0  0  0  0  0  0  0
   -3.5755   -1.4882   -4.2656 C   0  0  0  0  0  0  0  0  0  0  0  0
   -4.1208   -0.6597   -5.3873 C   0  0  0  0  0  0  0  0  0  0  0  0
   -3.6762   -1.3059   -6.6610 C   0  0  0  0  0  0  0  0  0  0  0  0
   -2.9868   -2.3519   -6.7027 O   0  0  0  0  0  0  0  0  0  0  0  0
   -4.1009   -0.6346   -7.8699 N   0  0  0  0  0  0  0  0  0  0  0  0
   -5.2884   -0.9759   -2.5289 N   0  0  0  0  0  0  0  0  0  0  0  0
   -5.6227   -1.6818   -1.3415 C   0  0  0  0  0  0  0  0  0  0  0  0
   -4.7291   -2.3606   -0.8241 O   0  0  0  0  0  0  0  0  0  0  0  0
   -6.9744   -1.6683   -0.6648 C   0  0  2  0  0  0  0  0  0  0  0  0
   -7.8225   -0.5290   -0.9577 C   0  0  0  0  0  0  0  0  0  0  0  0
   -9.1289   -0.6062   -0.2566 C   0  0  0  0  0  0  0  0  0  0  0  0
   -9.3555    0.0300    0.9435 C   0  0  0  0  0  0  0  0  0  0  0  0
  -10.5903   -0.0903    1.5612 C   0  0  0  0  0  0  0  0  0  0  0  0
  -11.6032   -0.8351    1.0012 C   0  0  0  0  0  0  0  0  0  0  0  0
  -11.3869   -1.4776   -0.2034 C   0  0  0  0  0  0  0  0  0  0  0  0
  -10.1510   -1.3536   -0.8160 C   0  0  0  0  0  0  0  0  0  0  0  0
   -6.7507   -2.0304    0.7515 N   0  0  0  0  0  0  0  0  0  0  0  0
   -5.5783   -1.5488    1.3808 C   0  0  0  0  0  0  0  0  0  0  0  0
   -4.9566   -0.6614    0.6950 O   0  0  0  0  0  0  0  0  0  0  0  0
   -4.9741   -1.8790    2.6583 C   0  0  2  0  0  0  0  0  0  0  0  0
   -5.7108   -1.6687    3.9122 C   0  0  0  0  0  0  0  0  0  0  0  0
   -6.1465   -0.3229    4.2538 C   0  0  0  0  0  0  0  0  0  0  0  0
   -7.4084    0.0991    3.9046 C   0  0  0  0  0  0  0  0  0  0  0  0
   -7.9078    1.3509    4.1774 C   0  0  0  0  0  0  0  0  0  0  0  0
   -7.1042    2.2587    4.8452 C   0  0  0  0  0  0  0  0  0  0  0  0
   -5.8179    1.8753    5.2189 C   0  0  0  0  0  0  0  0  0  0  0  0
   -5.3416    0.6025    4.9287 C   0  0  0  0  0  0  0  0  0  0  0  0
   -7.5972    3.5276    5.1269 O   0  0  0  0  0  0  0  0  0  0  0  0
   -3.6718   -1.1569    2.6716 N   0  0  0  0  0  0  0  0  0  0  0  0
   -2.4212   -1.8073    2.8078 C   0  0  0  0  0  0  0  0  0  0  0  0
   -2.4180   -3.0041    3.0232 O   0  0  0  0  0  0  0  0  0  0  0  0
   -1.1851   -0.9321    2.6742 C   0  0  2  0  0  0  0  0  0  0  0  0
   -1.1507   -0.5975    1.1749 C   0  0  0  0  0  0  0  0  0  0  0  0
   -0.6883   -2.1551    0.3322 S   0  0  0  0  0  0  0  0  0  0  0  0
    1.4471   -2.3670    0.4012 S   0  0  0  0  0  0  0  0  0  0  0  0
    2.2478   -1.7473   -1.0533 C   0  0  0  0  0  0  0  0  0  0  0  0
    2.0953   -0.3094   -1.3996 C   0  0  2  0  0  0  0  0  0  0  0  0
    0.6643   -0.0230   -1.7546 N   0  0  0  0  0  0  0  0  0  0  0  0
    0.1333    1.2893   -1.6608 C   0  0  0  0  0  0  0  0  0  0  0  0
    0.9585    2.1561   -1.3154 O   0  0  0  0  0  0  0  0  0  0  0  0
    2.9024    0.0567   -2.5897 C   0  0  0  0  0  0  0  0  0  0  0  0
    2.1554    0.2970   -3.6381 O   0  0  0  0  0  0  0  0  0  0  0  0
    4.2578    0.1935   -2.8112 N   0  0  0  0  0  0  0  0  0  0  0  0
    4.6761    0.5091   -4.2524 C   0  0  0  0  0  0  0  0  0  0  0  0
    5.6580    1.6210   -4.0306 C   0  0  0  0  0  0  0  0  0  0  0  0
    6.0562    1.5658   -2.5802 C   0  0  0  0  0  0  0  0  0  0  0  0
    5.5131    0.1740   -2.1687 C   0  0  1  0  0  0  0  0  0  0  0  0
    5.6644   -0.0220   -0.7461 C   0  0  0  0  0  0  0  0  0  0  0  0
    4.8182   -0.2346    0.1322 O   0  0  0  0  0  0  0  0  0  0  0  0
    7.0389    0.0408   -0.2518 N   0  0  0  0  0  0  0  0  0  0  0  0
    7.3538   -0.1385    1.1371 C   0  0  2  0  0  0  0  0  0  0  0  0
    8.0195    1.0446    1.7180 C   0  0  0  0  0  0  0  0  0  0  0  0
    8.4666    1.1201    2.8831 O   0  0  0  0  0  0  0  0  0  0  0  0
    8.1487    2.1946    0.8606 N   0  0  0  0  0  0  0  0  0  0  0  0
    8.7402    3.4330    1.2388 C   0  0  0  0  0  0  0  0  0  0  0  0
   10.1545    3.3622    1.6380 C   0  0  0  0  0  0  0  0  0  0  0  0
   10.7028    4.4600    1.9869 O   0  0  0  0  0  0  0  0  0  0  0  0
   10.9590    2.2165    1.6736 N   0  0  0  0  0  0  0  0  0  0  0  0
    8.2160   -1.3553    1.3067 C   0  0  0  0  0  0  0  0  0  0  0  0
    9.4909   -1.2093    0.5543 C   0  0  0  0  0  0  0  0  0  0  0  0
   10.3788   -2.4320    0.6300 C   0  0  0  0  0  0  0  0  0  0  0  0
   10.7787   -2.8364    1.9262 N   0  0  0  0  0  0  0  0  0  0  0  0
   11.1620   -2.2196    2.9391 C   0  0  0  0  0  0  0  0  0  0  0  0
   11.3060   -0.7995    3.0456 N   0  0  0  0  0  0  0  0  0  0  0  0
   11.4970   -2.9789    4.1131 N   0  0  0  0  0  0  0  0  0  0  0  0
   -0.0173   -1.6328    3.0816 N   0  0  0  0  0  0  0  0  0  0  0  0
   -4.2252    4.2842   -2.1447 H   0  0  0  0  0  0  0  0  0  0  0  0
   -3.0157    5.1200   -1.0375 H   0  0  0  0  0  0  0  0  0  0  0  0
   -1.4212    2.0439    0.1705 H   0  0  0  0  0  0  0  0  0  0  0  0
   -0.9478    3.4200   -0.8135 H   0  0  0  0  0  0  0  0  0  0  0  0
   -1.3488    2.3387   -2.8457 H   0  0  0  0  0  0  0  0  0  0  0  0
   -1.7178   -0.3780   -1.6812 H   0  0  0  0  0  0  0  0  0  0  0  0
   -3.3246   -1.6572   -2.1908 H   0  0  0  0  0  0  0  0  0  0  0  0
   -3.7431   -2.5841   -4.4231 H   0  0  0  0  0  0  0  0  0  0  0  0
   -2.4532   -1.4019   -4.3629 H   0  0  0  0  0  0  0  0  0  0  0  0
   -3.6340    0.3495   -5.4009 H   0  0  0  0  0  0  0  0  0  0  0  0
   -5.2062   -0.4830   -5.3594 H   0  0  0  0  0  0  0  0  0  0  0  0
   -4.2510    0.3950   -7.8928 H   0  0  0  0  0  0  0  0  0  0  0  0
   -4.2419   -1.2616   -8.7137 H   0  0  0  0  0  0  0  0  0  0  0  0
   -6.0431   -0.5100   -3.0070 H   0  0  0  0  0  0  0  0  0  0  0  0
   -7.3904   -2.6673   -1.0761 H   0  0  0  0  0  0  0  0  0  0  0  0
   -7.9652   -0.3188   -2.0481 H   0  0  0  0  0  0  0  0  0  0  0  0
   -7.3172    0.3991   -0.5453 H   0  0  0  0  0  0  0  0  0  0  0  0
   -8.5422    0.6075    1.3413 H   0  0  0  0  0  0  0  0  0  0  0  0
  -10.7513    0.4146    2.5000 H   0  0  0  0  0  0  0  0  0  0  0  0
  -12.5693   -0.9274    1.4869 H   0  0  0  0  0  0  0  0  0  0  0  0
  -12.1625   -2.0794   -0.6848 H   0  0  0  0  0  0  0  0  0  0  0  0
  -10.0195   -1.8703   -1.7537 H   0  0  0  0  0  0  0  0  0  0  0  0
   -7.3776   -2.5924    1.3098 H   0  0  0  0  0  0  0  0  0  0  0  0
   -4.6904   -2.9676    2.6306 H   0  0  0  0  0  0  0  0  0  0  0  0
   -5.0119   -1.9867    4.7468 H   0  0  0  0  0  0  0  0  0  0  0  0
   -6.5475   -2.4243    4.0164 H   0  0  0  0  0  0  0  0  0  0  0  0
   -8.0331   -0.6092    3.3906 H   0  0  0  0  0  0  0  0  0  0  0  0
   -8.9314    1.6032    3.8596 H   0  0  0  0  0  0  0  0  0  0  0  0
   -5.2029    2.6156    5.7468 H   0  0  0  0  0  0  0  0  0  0  0  0
   -4.3368    0.3163    5.2265 H   0  0  0  0  0  0  0  0  0  0  0  0
   -8.3108    3.7109    5.8056 H   0  0  0  0  0  0  0  0  0  0  0  0
   -3.6663   -0.1475    2.5845 H   0  0  0  0  0  0  0  0  0  0  0  0
   -1.3192   -0.0046    3.2203 H   0  0  0  0  0  0  0  0  0  0  0  0
   -2.1214   -0.2896    0.7979 H   0  0  0  0  0  0  0  0  0  0  0  0
   -0.4011    0.1817    0.9859 H   0  0  0  0  0  0  0  0  0  0  0  0
    1.7259   -2.2953   -1.9350 H   0  0  0  0  0  0  0  0  0  0  0  0
    3.3204   -2.0379   -1.1343 H   0  0  0  0  0  0  0  0  0  0  0  0
    2.3687    0.3782   -0.6153 H   0  0  0  0  0  0  0  0  0  0  0  0
    0.0737   -0.7623   -2.0763 H   0  0  0  0  0  0  0  0  0  0  0  0
    5.2151   -0.3907   -4.5736 H   0  0  0  0  0  0  0  0  0  0  0  0
    3.8186    0.7962   -4.8442 H   0  0  0  0  0  0  0  0  0  0  0  0
    6.5392    1.5042   -4.6968 H   0  0  0  0  0  0  0  0  0  0  0  0
    5.1486    2.5784   -4.2939 H   0  0  0  0  0  0  0  0  0  0  0  0
    5.4387    2.3027   -2.0363 H   0  0  0  0  0  0  0  0  0  0  0  0
    7.1246    1.6360   -2.3860 H   0  0  0  0  0  0  0  0  0  0  0  0
    6.2097   -0.5604   -2.6777 H   0  0  0  0  0  0  0  0  0  0  0  0
    7.8071    0.2319   -0.9355 H   0  0  0  0  0  0  0  0  0  0  0  0
    6.3537   -0.3033    1.6658 H   0  0  0  0  0  0  0  0  0  0  0  0
    7.7712    2.1100   -0.1290 H   0  0  0  0  0  0  0  0  0  0  0  0
    8.6051    4.1716    0.4113 H   0  0  0  0  0  0  0  0  0  0  0  0
    8.1672    3.7921    2.1500 H   0  0  0  0  0  0  0  0  0  0  0  0
   11.3125    1.9224    2.6300 H   0  0  0  0  0  0  0  0  0  0  0  0
   11.1713    1.7259    0.8006 H   0  0  0  0  0  0  0  0  0  0  0  0
    7.6671   -2.2911    1.0138 H   0  0  0  0  0  0  0  0  0  0  0  0
    8.4912   -1.4999    2.3822 H   0  0  0  0  0  0  0  0  0  0  0  0
    9.2646   -1.0332   -0.5198 H   0  0  0  0  0  0  0  0  0  0  0  0
   10.0196   -0.3278    0.9679 H   0  0  0  0  0  0  0  0  0  0  0  0
   11.3285   -2.2122    0.0563 H   0  0  0  0  0  0  0  0  0  0  0  0
    9.8628   -3.2798    0.0835 H   0  0  0  0  0  0  0  0  0  0  0  0
   10.6902   -0.2804    3.6865 H   0  0  0  0  0  0  0  0  0  0  0  0
   12.0499   -0.3720    2.4475 H   0  0  0  0  0  0  0  0  0  0  0  0
   11.6217   -2.5460    5.0512 H   0  0  0  0  0  0  0  0  0  0  0  0
   11.6324   -4.0196    4.0787 H   0  0  0  0  0  0  0  0  0  0  0  0
   -0.2890   -2.5212    3.5464 H   0  0  0  0  0  0  0  0  0  0  0  0
    0.5914   -1.0216    3.6341 H   0  0  0  0  0  0  0  0  0  0  0  0
  1  2  1  0
  2  3  2  0
  2  4  1  0
  4  5  1  0
  5  6  1  0
  6  7  1  0
  7  8  2  0
  7  9  1  0
  9 10  1  0
 10 11  1  0
 11 12  1  0
 12 13  2  0
 12 14  1  0
  9 15  1  0
 15 16  1  0
 16 17  2  0
 16 18  1  0
 18 19  1  0
 19 20  1  0
 20 21  2  0
 21 22  1  0
 22 23  2  0
 23 24  1  0
 24 25  2  0
 18 26  1  0
 26 27  1  0
 27 28  2  0
 27 29  1  0
 29 30  1  0
 30 31  1  0
 31 32  2  0
 32 33  1  0
 33 34  2  0
 34 35  1  0
 35 36  2  0
 34 37  1  0
 29 38  1  0
 38 39  1  0
 39 40  2  0
 39 41  1  0
 41 42  1  0
 42 43  1  0
 43 44  1  0
 44 45  1  0
 45 46  1  0
 46 47  1  0
 47 48  1  0
 48 49  2  0
 46 50  1  0
 50 51  2  0
 50 52  1  0
 52 53  1  0
 53 54  1  0
 54 55  1  0
 55 56  1  0
 56 57  1  0
 57 58  2  0
 57 59  1  0
 59 60  1  0
 60 61  1  0
 61 62  2  0
 61 63  1  0
 63 64  1  0
 64 65  1  0
 65 66  2  0
 65 67  1  0
 60 68  1  0
 68 69  1  0
 69 70  1  0
 70 71  1  0
 71 72  2  3
 72 73  1  0
 72 74  1  0
 41 75  1  0
 48  5  1  0
 56 52  1  0
 25 20  1  0
 36 31  1  0
  1 76  1  0
  1 77  1  0
  4 78  1  0
  4 79  1  0
  5 80  1  6
  6 81  1  0
  9 82  1  1
 10 83  1  0
 10 84  1  0
 11 85  1  0
 11 86  1  0
 14 87  1  0
 14 88  1  0
 15 89  1  0
 18 90  1  6
 19 91  1  0
 19 92  1  0
 21 93  1  0
 22 94  1  0
 23 95  1  0
 24 96  1  0
 25 97  1  0
 26 98  1  0
 29 99  1  6
 30100  1  0
 30101  1  0
 32102  1  0
 33103  1  0
 35104  1  0
 36105  1  0
 37106  1  0
 38107  1  0
 41108  1  1
 42109  1  0
 42110  1  0
 45111  1  0
 45112  1  0
 46113  1  1
 47114  1  0
 53115  1  0
 53116  1  0
 54117  1  0
 54118  1  0
 55119  1  0
 55120  1  0
 56121  1  6
 59122  1  0
 60123  1  1
 63124  1  0
 64125  1  0
 64126  1  0
 67127  1  0
 67128  1  0
 68129  1  0
 68130  1  0
 69131  1  0
 69132  1  0
 70133  1  0
 70134  1  0
 73135  1  0
 73136  1  0
 74137  1  0
 74138  1  0
 75139  1  0
 75140  1  0
M  END
>  <Ligand ID>  (1) 
LIG0000841

>  <Ligand>  (1) 
vasopressin

>  <SMILES>  (1) 
NC(=O)C[C@@H]1NC(=O)[C@H](CCC(=O)N)NC(=O)[C@H](Cc2ccccc2)NC(=O)[C@H](Cc2ccc(cc2)O)NC(=O)[C@H](CSSC[C@H](NC1=O)C(=O)N1CCC[C@H]1C(=O)N[C@H](C(=O)NCC(=O)N)CCCN=C(N)N)N

>  <CID>  (1) 
644077.0

>  <ChEMBL ID>  (1) 
nan

>  <InChiKey>  (1) 
KBZOIRJILGZLEJ-LGYYRGKSSA-N

>  <InChi>  (1) 
InChI=1S/C46H65N15O12S2/c47-27-22-74-75-23-33(45(73)61-17-5-9-34(61)44(72)56-28(8-4-16-53-46(51)52)39(67)54-21-37(50)65)60-43(71)32(20-36(49)64)59-40(68)29(14-15-35(48)63)55-41(69)31(18-24-6-2-1-3-7-24)58-42(70)30(57-38(27)66)19-25-10-12-26(62)13-11-25/h1-3,6-7,10-13,27-34,62H,4-5,8-9,14-23,47H2,(H2,48,63)(H2,49,64)(H2,50,65)(H,54,67)(H,55,69)(H,56,72)(H,57,66)(H,58,70)(H,59,68)(H,60,71)(H4,51,52,53)/t27-,28-,29-,30-,31-,32-,33-,34-/m0/s1

>  <IUPAC Name>  (1) 
(2S)-1-[(4R,7S,10S,13S,16S,19R)-19-amino-7-(2-amino-2-oxoethyl)-10-(3-amino-3-oxopropyl)-13-benzyl-16-[(4-hydroxyphenyl)methyl]-6,9,12,15,18-pentaoxo-1,2-dithia-5,8,11,14,17-pentazacycloicosane-4-carbonyl]-N-[(2S)-1-[(2-amino-2-oxoethyl)amino]-5-(diaminomethylideneamino)-1-oxopentan-2-yl]pyrrolidine-2-carboxamide

$$$$
