
     RDKit          3D

 85 90  0  0  0  0  0  0  0  0999 V2000
   -3.1026    1.3816   -1.0800 O   0  0  0  0  0  0  0  0  0  0  0  0
   -3.5431    0.9841    0.0427 C   0  0  0  0  0  0  0  0  0  0  0  0
   -4.7777    1.6586    0.5302 C   0  0  1  0  0  0  0  0  0  0  0  0
   -5.2267    2.6631   -0.4143 N   0  0  0  0  0  0  0  0  0  0  0  0
   -6.1515    3.5650    0.2506 C   0  0  0  0  0  0  0  0  0  0  0  0
   -7.2865    2.7813    0.8359 C   0  0  0  0  0  0  0  0  0  0  0  0
   -7.1407    1.4303    1.0470 C   0  0  0  0  0  0  0  0  0  0  0  0
   -5.9045    0.6732    0.7269 C   0  0  0  0  0  0  0  0  0  0  0  0
   -8.2314    0.7652    1.5920 C   0  0  0  0  0  0  0  0  0  0  0  0
   -9.4071    1.4392    1.9049 C   0  0  0  0  0  0  0  0  0  0  0  0
   -9.5232    2.7920    1.6820 C   0  0  0  0  0  0  0  0  0  0  0  0
   -8.4572    3.4561    1.1469 C   0  0  0  0  0  0  0  0  0  0  0  0
   -2.9063   -0.0280    0.7784 N   0  0  0  0  0  0  0  0  0  0  0  0
   -1.6900   -0.6226    0.1914 C   0  0  1  0  0  0  0  0  0  0  0  0
   -0.5509   -0.4647    1.1300 C   0  0  0  0  0  0  0  0  0  0  0  0
   -0.8639    0.0383    2.2706 O   0  0  0  0  0  0  0  0  0  0  0  0
    0.7859   -0.8248    0.8304 N   0  0  0  0  0  0  0  0  0  0  0  0
    1.2258   -1.3755   -0.4315 C   0  0  0  0  0  0  0  0  0  0  0  0
    2.5802   -0.6845   -0.7033 C   0  0  0  0  0  0  0  0  0  0  0  0
    3.5338   -1.2004    0.2523 N   0  0  0  0  0  0  0  0  0  0  0  0
    3.0938   -1.2396    1.6431 C   0  0  0  0  0  0  0  0  0  0  0  0
    1.7714   -0.6138    1.8854 C   0  0  0  0  0  0  0  0  0  0  0  0
    4.8312   -1.6667   -0.0565 C   0  0  0  0  0  0  0  0  0  0  0  0
    5.0372   -3.0392    0.1584 C   0  0  0  0  0  0  0  0  0  0  0  0
    6.2416   -3.6498   -0.0890 C   0  0  0  0  0  0  0  0  0  0  0  0
    7.2684   -2.8731   -0.5629 C   0  0  0  0  0  0  0  0  0  0  0  0
    7.0621   -1.5302   -0.7718 C   0  0  0  0  0  0  0  0  0  0  0  0
    5.8440   -0.8996   -0.5242 C   0  0  0  0  0  0  0  0  0  0  0  0
    5.7853    0.4839   -0.8162 N   0  0  0  0  0  0  0  0  0  0  0  0
    5.3438    0.9858   -2.4377 S   0  0  0  0  0  0  0  0  0  0  0  0
    6.4183    1.9168   -2.9715 O   0  0  0  0  0  0  0  0  0  0  0  0
    5.3016   -0.1780   -3.3762 O   0  0  0  0  0  0  0  0  0  0  0  0
    3.8318    1.8975   -2.4409 C   0  0  0  0  0  0  0  0  0  0  0  0
    6.0216    1.5450    0.1164 C   0  0  0  0  0  0  0  0  0  0  0  0
    7.3896    2.1121    0.1790 C   0  0  0  0  0  0  0  0  0  0  0  0
    8.6012    1.3507    0.5429 C   0  0  0  0  0  0  0  0  0  0  0  0
    7.9929    2.2600    1.5555 C   0  0  0  0  0  0  0  0  0  0  0  0
   -1.9212   -2.1048   -0.0155 C   0  0  0  0  0  0  0  0  0  0  0  0
   -3.0599   -2.3617   -0.9265 C   0  0  0  0  0  0  0  0  0  0  0  0
   -2.9205   -2.4811   -2.2996 C   0  0  0  0  0  0  0  0  0  0  0  0
   -4.0136   -2.7204   -3.1072 C   0  0  0  0  0  0  0  0  0  0  0  0
   -5.2959   -2.8523   -2.5888 C   0  0  0  0  0  0  0  0  0  0  0  0
   -5.4429   -2.7339   -1.2139 C   0  0  0  0  0  0  0  0  0  0  0  0
   -4.3385   -2.4945   -0.4223 C   0  0  0  0  0  0  0  0  0  0  0  0
   -6.6493   -3.1532   -3.6301 Cl  0  0  0  0  0  0  0  0  0  0  0  0
   -4.6276    2.1773    1.4925 H   0  0  0  0  0  0  0  0  0  0  0  0
   -4.4646    3.2404   -0.8008 H   0  0  0  0  0  0  0  0  0  0  0  0
   -5.6883    4.1328    1.0632 H   0  0  0  0  0  0  0  0  0  0  0  0
   -6.5901    4.2396   -0.5056 H   0  0  0  0  0  0  0  0  0  0  0  0
   -6.0897    0.0688   -0.1972 H   0  0  0  0  0  0  0  0  0  0  0  0
   -5.6499   -0.0284    1.5607 H   0  0  0  0  0  0  0  0  0  0  0  0
   -8.1473   -0.2974    1.7696 H   0  0  0  0  0  0  0  0  0  0  0  0
  -10.2682    0.9394    2.3300 H   0  0  0  0  0  0  0  0  0  0  0  0
  -10.4290    3.3580    1.9145 H   0  0  0  0  0  0  0  0  0  0  0  0
   -8.4973    4.5313    0.9496 H   0  0  0  0  0  0  0  0  0  0  0  0
   -3.2734   -0.3497    1.7020 H   0  0  0  0  0  0  0  0  0  0  0  0
   -1.5112   -0.1215   -0.7717 H   0  0  0  0  0  0  0  0  0  0  0  0
    0.6106   -1.1068   -1.2970 H   0  0  0  0  0  0  0  0  0  0  0  0
    1.3635   -2.4723   -0.4276 H   0  0  0  0  0  0  0  0  0  0  0  0
    2.4042    0.3697   -0.4434 H   0  0  0  0  0  0  0  0  0  0  0  0
    2.8228   -0.8910   -1.7453 H   0  0  0  0  0  0  0  0  0  0  0  0
    3.8439   -0.6627    2.2610 H   0  0  0  0  0  0  0  0  0  0  0  0
    3.1313   -2.2622    2.0719 H   0  0  0  0  0  0  0  0  0  0  0  0
    1.3144   -1.1175    2.7874 H   0  0  0  0  0  0  0  0  0  0  0  0
    1.8311    0.4551    2.1869 H   0  0  0  0  0  0  0  0  0  0  0  0
    4.2398   -3.6739    0.5324 H   0  0  0  0  0  0  0  0  0  0  0  0
    6.3943   -4.7083    0.0788 H   0  0  0  0  0  0  0  0  0  0  0  0
    8.2299   -3.3250   -0.7677 H   0  0  0  0  0  0  0  0  0  0  0  0
    7.9214   -0.9710   -1.1527 H   0  0  0  0  0  0  0  0  0  0  0  0
    3.9051    2.8304   -3.0438 H   0  0  0  0  0  0  0  0  0  0  0  0
    3.0170    1.2444   -2.8064 H   0  0  0  0  0  0  0  0  0  0  0  0
    3.6324    2.1785   -1.3792 H   0  0  0  0  0  0  0  0  0  0  0  0
    5.2522    2.3525   -0.0595 H   0  0  0  0  0  0  0  0  0  0  0  0
    5.7558    1.1294    1.1308 H   0  0  0  0  0  0  0  0  0  0  0  0
    7.6222    3.0236   -0.4554 H   0  0  0  0  0  0  0  0  0  0  0  0
    9.5945    1.6687    0.1361 H   0  0  0  0  0  0  0  0  0  0  0  0
    8.5957    0.2712    0.7704 H   0  0  0  0  0  0  0  0  0  0  0  0
    7.4808    1.7682    2.4162 H   0  0  0  0  0  0  0  0  0  0  0  0
    8.5622    3.1421    1.8456 H   0  0  0  0  0  0  0  0  0  0  0  0
   -0.9899   -2.5673   -0.3373 H   0  0  0  0  0  0  0  0  0  0  0  0
   -2.1478   -2.5293    0.9990 H   0  0  0  0  0  0  0  0  0  0  0  0
   -1.9070   -2.3750   -2.6854 H   0  0  0  0  0  0  0  0  0  0  0  0
   -3.8254   -2.8004   -4.1641 H   0  0  0  0  0  0  0  0  0  0  0  0
   -6.4472   -2.8351   -0.7883 H   0  0  0  0  0  0  0  0  0  0  0  0
   -4.5272   -2.4140    0.6428 H   0  0  0  0  0  0  0  0  0  0  0  0
  1  2  2  0
  2  3  1  0
  3  4  1  0
  4  5  1  0
  5  6  1  0
  6  7  2  0
  7  8  1  0
  7  9  1  0
  9 10  2  0
 10 11  1  0
 11 12  2  0
  2 13  1  0
 13 14  1  0
 14 15  1  0
 15 16  2  0
 15 17  1  0
 17 18  1  0
 18 19  1  0
 19 20  1  0
 20 21  1  0
 21 22  1  0
 20 23  1  0
 23 24  2  0
 24 25  1  0
 25 26  2  0
 26 27  1  0
 27 28  2  0
 28 29  1  0
 29 30  1  0
 30 31  2  0
 30 32  2  0
 30 33  1  0
 29 34  1  0
 34 35  1  0
 35 36  1  0
 36 37  1  0
 14 38  1  0
 38 39  1  0
 39 40  2  0
 40 41  1  0
 41 42  2  0
 42 43  1  0
 43 44  2  0
 42 45  1  0
  8  3  1  0
 22 17  1  0
 28 23  1  0
 37 35  1  0
 44 39  1  0
 12  6  1  0
  3 46  1  1
  4 47  1  0
  5 48  1  0
  5 49  1  0
  8 50  1  0
  8 51  1  0
  9 52  1  0
 10 53  1  0
 11 54  1  0
 12 55  1  0
 13 56  1  0
 14 57  1  6
 18 58  1  0
 18 59  1  0
 19 60  1  0
 19 61  1  0
 21 62  1  0
 21 63  1  0
 22 64  1  0
 22 65  1  0
 24 66  1  0
 25 67  1  0
 26 68  1  0
 27 69  1  0
 33 70  1  0
 33 71  1  0
 33 72  1  0
 34 73  1  0
 34 74  1  0
 35 75  1  0
 36 76  1  0
 36 77  1  0
 37 78  1  0
 37 79  1  0
 38 80  1  0
 38 81  1  0
 40 82  1  0
 41 83  1  0
 43 84  1  0
 44 85  1  0
M  END
>  <Ligand ID>  (1) 
LIG0004918

>  <Ligand>  (1) 
CHEMBL181162

>  <SMILES>  (1) 
O=C([C@H]1NCc2c(C1)cccc2)N[C@@H](C(=O)N1CCN(CC1)c1ccccc1N(S(=O)(=O)C)CC1CC1)Cc1ccc(cc1)Cl

>  <CID>  (1) 
10146211.0

>  <ChEMBL ID>  (1) 
nan

>  <InChiKey>  (1) 
VLUNLEWDGMQENF-XZWHSSHBSA-N

>  <InChi>  (1) 
InChI=1S/C34H40ClN5O4S/c1-45(43,44)40(23-25-10-11-25)32-9-5-4-8-31(32)38-16-18-39(19-17-38)34(42)30(20-24-12-14-28(35)15-13-24)37-33(41)29-21-26-6-2-3-7-27(26)22-36-29/h2-9,12-15,25,29-30,36H,10-11,16-23H2,1H3,(H,37,41)/t29-,30+/m0/s1

>  <IUPAC Name>  (1) 
(3S)-N-[(2R)-3-(4-chlorophenyl)-1-[4-[2-[cyclopropylmethyl(methylsulfonyl)amino]phenyl]piperazin-1-yl]-1-oxopropan-2-yl]-1,2,3,4-tetrahydroisoquinoline-3-carboxamide

$$$$
