
     RDKit          3D

 20 19  0  0  0  0  0  0  0  0999 V2000
   -2.6923    0.7225    0.4029 O   0  0  0  0  0  0  0  0  0  0  0  0
   -2.3018   -0.5467    0.8064 C   0  0  0  0  0  0  0  0  0  0  0  0
   -3.0432   -1.1129    1.6603 O   0  0  0  0  0  0  0  0  0  0  0  0
   -1.0925   -1.2345    0.2906 C   0  0  0  0  0  0  0  0  0  0  0  0
   -0.3504   -0.4026   -0.6957 C   0  0  0  0  0  0  0  0  0  0  0  0
    0.1540    0.9081   -0.2047 C   0  0  0  0  0  0  0  0  0  0  0  0
    1.1127    0.8021    0.9483 C   0  0  0  0  0  0  0  0  0  0  0  0
    2.3141    0.0059    0.5696 C   0  0  0  0  0  0  0  0  0  0  0  0
    2.2900   -1.2514    0.5423 O   0  0  0  0  0  0  0  0  0  0  0  0
    3.5271    0.6233    0.2264 O   0  0  0  0  0  0  0  0  0  0  0  0
   -3.7066    0.8931    0.3741 H   0  0  0  0  0  0  0  0  0  0  0  0
   -0.4863   -1.6418    1.1059 H   0  0  0  0  0  0  0  0  0  0  0  0
   -1.4794   -2.1342   -0.2641 H   0  0  0  0  0  0  0  0  0  0  0  0
   -1.0830   -0.1572   -1.5223 H   0  0  0  0  0  0  0  0  0  0  0  0
    0.5079   -0.9503   -1.1341 H   0  0  0  0  0  0  0  0  0  0  0  0
    0.7559    1.3373   -1.0617 H   0  0  0  0  0  0  0  0  0  0  0  0
   -0.6115    1.6810   -0.0156 H   0  0  0  0  0  0  0  0  0  0  0  0
    0.6664    0.3732    1.8552 H   0  0  0  0  0  0  0  0  0  0  0  0
    1.4818    1.8247    1.1787 H   0  0  0  0  0  0  0  0  0  0  0  0
    4.0371    0.2604   -0.5925 H   0  0  0  0  0  0  0  0  0  0  0  0
  1  2  1  0
  2  3  2  0
  2  4  1  0
  4  5  1  0
  5  6  1  0
  6  7  1  0
  7  8  1  0
  8  9  2  0
  8 10  1  0
  1 11  1  0
  4 12  1  0
  4 13  1  0
  5 14  1  0
  5 15  1  0
  6 16  1  0
  6 17  1  0
  7 18  1  0
  7 19  1  0
 10 20  1  0
M  END
>  <Ligand ID>  (1) 
LIG0000267

>  <Ligand>  (1) 
Adipic Acid

>  <SMILES>  (1) 
OC(=O)CCCCC(=O)O

>  <CID>  (1) 
196.0

>  <ChEMBL ID>  (1) 
nan

>  <InChiKey>  (1) 
WNLRTRBMVRJNCN-UHFFFAOYSA-N

>  <InChi>  (1) 
InChI=1S/C6H10O4/c7-5(8)3-1-2-4-6(9)10/h1-4H2,(H,7,8)(H,9,10)

>  <IUPAC Name>  (1) 
hexanedioic acid

$$$$
