
     RDKit          3D

 16 16  0  0  0  0  0  0  0  0999 V2000
   -1.0117    0.6649   -0.4915 C   0  0  0  0  0  0  0  0  0  0  0  0
    0.2547    1.2219    0.0565 C   0  0  0  0  0  0  0  0  0  0  0  0
    1.3256    0.2155    0.3344 C   0  0  0  0  0  0  0  0  0  0  0  0
    0.8722   -1.2086    0.1684 C   0  0  0  0  0  0  0  0  0  0  0  0
   -0.3906   -1.3527    0.7004 O   0  0  0  0  0  0  0  0  0  0  0  0
   -1.3788   -0.7009   -0.0019 C   0  0  0  0  0  0  0  0  0  0  0  0
   -1.0020    0.7217   -1.6115 H   0  0  0  0  0  0  0  0  0  0  0  0
   -1.8276    1.3585   -0.1590 H   0  0  0  0  0  0  0  0  0  0  0  0
    0.6509    1.9552   -0.6913 H   0  0  0  0  0  0  0  0  0  0  0  0
    0.0701    1.8136    0.9887 H   0  0  0  0  0  0  0  0  0  0  0  0
    1.7070    0.2936    1.3839 H   0  0  0  0  0  0  0  0  0  0  0  0
    2.2234    0.3825   -0.3073 H   0  0  0  0  0  0  0  0  0  0  0  0
    0.9551   -1.5003   -0.8943 H   0  0  0  0  0  0  0  0  0  0  0  0
    1.5493   -1.8748    0.7559 H   0  0  0  0  0  0  0  0  0  0  0  0
   -1.7133   -1.2964   -0.8916 H   0  0  0  0  0  0  0  0  0  0  0  0
   -2.2843   -0.6937    0.6601 H   0  0  0  0  0  0  0  0  0  0  0  0
  1  2  1  0
  2  3  1  0
  3  4  1  0
  4  5  1  0
  5  6  1  0
  6  1  1  0
  1  7  1  0
  1  8  1  0
  2  9  1  0
  2 10  1  0
  3 11  1  0
  3 12  1  0
  4 13  1  0
  4 14  1  0
  6 15  1  0
  6 16  1  0
M  END
>  <Ligand ID>  (1) 
LIG0000184

>  <Ligand>  (1) 
Tetrahydropyran

>  <SMILES>  (1) 
C1CCCOC1

>  <CID>  (1) 
8894.0

>  <ChEMBL ID>  (1) 
nan

>  <InChiKey>  (1) 
DHXVGJBLRPWPCS-UHFFFAOYSA-N

>  <InChi>  (1) 
InChI=1S/C5H10O/c1-2-4-6-5-3-1/h1-5H2

>  <IUPAC Name>  (1) 
oxane

$$$$
