
     RDKit          3D

 46 48  0  0  0  0  0  0  0  0999 V2000
   -6.5655    1.6401    0.3746 O   0  0  0  0  0  0  0  0  0  0  0  0
   -5.4835    1.0776   -0.2887 C   0  0  0  0  0  0  0  0  0  0  0  0
   -5.2727    1.3976   -1.4865 O   0  0  0  0  0  0  0  0  0  0  0  0
   -4.6421    0.1268    0.4729 C   0  0  0  0  0  0  0  0  0  0  0  0
   -3.5021   -0.4127   -0.3576 C   0  0  0  0  0  0  0  0  0  0  0  0
   -2.6506   -1.3916    0.4541 C   0  0  0  0  0  0  0  0  0  0  0  0
   -1.3948   -1.6237   -0.3810 C   0  0  0  0  0  0  0  0  0  0  0  0
   -0.4367   -0.4642   -0.0760 C   0  0  0  0  0  0  0  0  0  0  0  0
   -1.3283    0.7565    0.0304 C   0  0  0  0  0  0  0  0  0  0  0  0
   -2.5705    0.6512   -0.8319 C   0  0  0  0  0  0  0  0  0  0  0  0
    0.4164   -0.2508   -1.2900 C   0  0  0  0  0  0  0  0  0  0  0  0
    1.7087   -1.0488   -1.2667 C   0  0  0  0  0  0  0  0  0  0  0  0
    2.3832   -0.6002   -0.0473 N   0  0  0  0  0  0  0  0  0  0  0  0
    1.7213   -0.8933    1.2000 C   0  0  0  0  0  0  0  0  0  0  0  0
    0.2639   -0.6691    1.2055 C   0  0  0  0  0  0  0  0  0  0  0  0
    3.6377    0.0944   -0.1005 C   0  0  0  0  0  0  0  0  0  0  0  0
    3.7338    1.3840    0.4246 C   0  0  0  0  0  0  0  0  0  0  0  0
    4.9191    2.0748    0.3892 C   0  0  0  0  0  0  0  0  0  0  0  0
    6.0186    1.4800   -0.1724 C   0  0  0  0  0  0  0  0  0  0  0  0
    5.9574    0.1937   -0.7059 C   0  0  0  0  0  0  0  0  0  0  0  0
    4.7589   -0.4814   -0.6600 C   0  0  0  0  0  0  0  0  0  0  0  0
    4.6002   -2.1049   -1.3106 Cl  0  0  0  0  0  0  0  0  0  0  0  0
   -6.9979    2.4679    0.0290 H   0  0  0  0  0  0  0  0  0  0  0  0
   -5.2976   -0.7009    0.8115 H   0  0  0  0  0  0  0  0  0  0  0  0
   -4.2604    0.6313    1.3935 H   0  0  0  0  0  0  0  0  0  0  0  0
   -3.9366   -1.0007   -1.1914 H   0  0  0  0  0  0  0  0  0  0  0  0
   -2.3909   -0.9860    1.4461 H   0  0  0  0  0  0  0  0  0  0  0  0
   -3.1985   -2.3403    0.6392 H   0  0  0  0  0  0  0  0  0  0  0  0
   -1.6917   -1.6058   -1.4324 H   0  0  0  0  0  0  0  0  0  0  0  0
   -0.8999   -2.5760   -0.0663 H   0  0  0  0  0  0  0  0  0  0  0  0
   -1.6244    0.9835    1.0604 H   0  0  0  0  0  0  0  0  0  0  0  0
   -0.7523    1.6421   -0.3316 H   0  0  0  0  0  0  0  0  0  0  0  0
   -2.2890    0.4453   -1.8888 H   0  0  0  0  0  0  0  0  0  0  0  0
   -3.0566    1.6358   -0.7827 H   0  0  0  0  0  0  0  0  0  0  0  0
    0.7358    0.8259   -1.3270 H   0  0  0  0  0  0  0  0  0  0  0  0
   -0.1918   -0.4776   -2.1849 H   0  0  0  0  0  0  0  0  0  0  0  0
    2.2766   -0.7103   -2.1730 H   0  0  0  0  0  0  0  0  0  0  0  0
    1.5403   -2.1321   -1.2698 H   0  0  0  0  0  0  0  0  0  0  0  0
    2.0044   -1.9610    1.4388 H   0  0  0  0  0  0  0  0  0  0  0  0
    2.2497   -0.3121    1.9854 H   0  0  0  0  0  0  0  0  0  0  0  0
   -0.1967   -1.5612    1.7206 H   0  0  0  0  0  0  0  0  0  0  0  0
    0.0463    0.1672    1.9328 H   0  0  0  0  0  0  0  0  0  0  0  0
    2.8655    1.8775    0.8783 H   0  0  0  0  0  0  0  0  0  0  0  0
    4.9944    3.0740    0.7958 H   0  0  0  0  0  0  0  0  0  0  0  0
    6.9845    1.9671   -0.2337 H   0  0  0  0  0  0  0  0  0  0  0  0
    6.8144   -0.2896   -1.1521 H   0  0  0  0  0  0  0  0  0  0  0  0
  1  2  1  0
  2  3  2  0
  2  4  1  0
  4  5  1  0
  5  6  1  0
  6  7  1  0
  7  8  1  0
  8  9  1  0
  9 10  1  0
  8 11  1  0
 11 12  1  0
 12 13  1  0
 13 14  1  0
 14 15  1  0
 13 16  1  0
 16 17  2  0
 17 18  1  0
 18 19  2  0
 19 20  1  0
 20 21  2  0
 21 22  1  0
 10  5  1  0
 21 16  1  0
 15  8  1  0
  1 23  1  0
  4 24  1  0
  4 25  1  0
  5 26  1  0
  6 27  1  0
  6 28  1  0
  7 29  1  0
  7 30  1  0
  9 31  1  0
  9 32  1  0
 10 33  1  0
 10 34  1  0
 11 35  1  0
 11 36  1  0
 12 37  1  0
 12 38  1  0
 14 39  1  0
 14 40  1  0
 15 41  1  0
 15 42  1  0
 17 43  1  0
 18 44  1  0
 19 45  1  0
 20 46  1  0
M  END
>  <Ligand ID>  (1) 
LIG0002983

>  <Ligand>  (1) 
CHEMBL3920891

>  <SMILES>  (1) 
OC(=O)CC1CCC2(CC1)CCN(CC2)c1ccccc1Cl

>  <CID>  (1) 
134140070.0

>  <ChEMBL ID>  (1) 
nan

>  <InChiKey>  (1) 
SDSAFMLNHFPXQO-UHFFFAOYSA-N

>  <InChi>  (1) 
InChI=1S/C18H24ClNO2/c19-15-3-1-2-4-16(15)20-11-9-18(10-12-20)7-5-14(6-8-18)13-17(21)22/h1-4,14H,5-13H2,(H,21,22)

>  <IUPAC Name>  (1) 
2-[3-(2-chlorophenyl)-3-azaspiro[5.5]undecan-9-yl]acetic acid

$$$$
