
     RDKit          3D

110114  0  0  0  0  0  0  0  0999 V2000
    5.3010    1.1322    0.9253 O   0  0  0  0  0  0  0  0  0  0  0  0
    4.9303    1.1111   -0.2604 C   0  0  0  0  0  0  0  0  0  0  0  0
    3.6360    1.6751   -0.5372 N   0  0  0  0  0  0  0  0  0  0  0  0
    2.7791    2.2418    0.4505 C   0  0  2  0  0  0  0  0  0  0  0  0
    1.5276    1.4336    0.6825 C   0  0  0  0  0  0  0  0  0  0  0  0
    0.7291    1.9135    1.5286 O   0  0  0  0  0  0  0  0  0  0  0  0
    1.2848    0.2144   -0.0167 N   0  0  0  0  0  0  0  0  0  0  0  0
    0.0706   -0.4872    0.2678 C   0  0  1  0  0  0  0  0  0  0  0  0
   -0.7891   -0.7844   -0.8724 C   0  0  0  0  0  0  0  0  0  0  0  0
   -0.4586   -0.4460   -2.0290 O   0  0  0  0  0  0  0  0  0  0  0  0
   -2.0031   -1.4579   -0.6715 N   0  0  0  0  0  0  0  0  0  0  0  0
   -2.9477   -1.8104   -1.7125 C   0  0  2  0  0  0  0  0  0  0  0  0
   -4.2054   -1.0764   -1.3602 C   0  0  0  0  0  0  0  0  0  0  0  0
   -5.2665   -1.2048   -2.0619 O   0  0  0  0  0  0  0  0  0  0  0  0
   -4.3022   -0.2074   -0.2505 N   0  0  0  0  0  0  0  0  0  0  0  0
   -5.5644    0.5061    0.0762 C   0  0  1  0  0  0  0  0  0  0  0  0
   -5.9731    0.2058    1.4406 C   0  0  0  0  0  0  0  0  0  0  0  0
   -7.0593    0.5118    1.9832 O   0  0  0  0  0  0  0  0  0  0  0  0
   -5.0480   -0.5198    2.2795 N   0  0  0  0  0  0  0  0  0  0  0  0
   -5.3412    1.9560   -0.1702 C   0  0  0  0  0  0  0  0  0  0  0  0
   -6.4893    2.8128    0.1331 C   0  0  0  0  0  0  0  0  0  0  0  0
   -7.4516    3.1501   -0.8191 C   0  0  0  0  0  0  0  0  0  0  0  0
   -8.4076    3.9128   -0.2654 N   0  0  0  0  0  0  0  0  0  0  0  0
   -8.0989    4.0871    1.0273 C   0  0  0  0  0  0  0  0  0  0  0  0
   -6.9098    3.4116    1.2964 C   0  0  0  0  0  0  0  0  0  0  0  0
   -6.3783    3.4663    2.5746 C   0  0  0  0  0  0  0  0  0  0  0  0
   -7.0068    4.1696    3.5633 C   0  0  0  0  0  0  0  0  0  0  0  0
   -8.1847    4.8481    3.3330 C   0  0  0  0  0  0  0  0  0  0  0  0
   -8.7087    4.7912    2.0604 C   0  0  0  0  0  0  0  0  0  0  0  0
   -3.1982   -3.2844   -1.5976 C   0  0  0  0  0  0  0  0  0  0  0  0
   -4.1492   -3.8626   -2.5896 C   0  0  0  0  0  0  0  0  0  0  0  0
   -4.2221   -5.3640   -2.2605 C   0  0  0  0  0  0  0  0  0  0  0  0
   -4.7031   -5.5005   -0.8970 N   0  0  0  0  0  0  0  0  0  0  0  0
   -5.9226   -5.4009   -0.5326 C   0  0  0  0  0  0  0  0  0  0  0  0
   -6.3277   -5.5475    0.8368 N   0  0  0  0  0  0  0  0  0  0  0  0
   -6.9460   -5.1372   -1.4845 N   0  0  0  0  0  0  0  0  0  0  0  0
    0.3846   -1.7200    1.0887 C   0  0  0  0  0  0  0  0  0  0  0  0
    1.2854   -2.6733    0.4451 C   0  0  0  0  0  0  0  0  0  0  0  0
    0.8705   -3.7239   -0.3436 C   0  0  0  0  0  0  0  0  0  0  0  0
    1.7357   -4.6147   -0.9435 C   0  0  0  0  0  0  0  0  0  0  0  0
    3.1085   -4.4394   -0.7382 C   0  0  0  0  0  0  0  0  0  0  0  0
    3.5607   -3.3943    0.0485 C   0  0  0  0  0  0  0  0  0  0  0  0
    2.6515   -2.5347    0.6233 C   0  0  0  0  0  0  0  0  0  0  0  0
    2.4155    3.6890    0.2175 C   0  0  0  0  0  0  0  0  0  0  0  0
    3.6560    4.4938    0.2111 C   0  0  0  0  0  0  0  0  0  0  0  0
    4.2090    5.0866    1.3533 C   0  0  0  0  0  0  0  0  0  0  0  0
    5.3592    5.7646    0.9984 C   0  0  0  0  0  0  0  0  0  0  0  0
    5.5228    5.5993   -0.3378 N   0  0  0  0  0  0  0  0  0  0  0  0
    4.5036    4.8403   -0.8032 C   0  0  0  0  0  0  0  0  0  0  0  0
    5.6705    0.5716   -1.4116 C   0  0  0  0  0  0  0  0  0  0  0  0
    7.0091    0.0532   -0.9919 C   0  0  0  0  0  0  0  0  0  0  0  0
    7.9286    1.0629   -0.3965 C   0  0  0  0  0  0  0  0  0  0  0  0
    9.2059    0.3525   -0.0607 C   0  0  0  0  0  0  0  0  0  0  0  0
    9.3971   -0.2486    1.1816 C   0  0  0  0  0  0  0  0  0  0  0  0
   10.6002   -0.8820    1.4020 C   0  0  0  0  0  0  0  0  0  0  0  0
   11.6011   -0.9475    0.4730 C   0  0  0  0  0  0  0  0  0  0  0  0
   11.4224   -0.3526   -0.7676 C   0  0  0  0  0  0  0  0  0  0  0  0
   10.2369    0.2754   -0.9955 C   0  0  0  0  0  0  0  0  0  0  0  0
    3.2782    1.6780   -1.5372 H   0  0  0  0  0  0  0  0  0  0  0  0
    3.2622    2.2322    1.4753 H   0  0  0  0  0  0  0  0  0  0  0  0
    2.0105   -0.0846   -0.6904 H   0  0  0  0  0  0  0  0  0  0  0  0
   -0.5262    0.1755    0.9679 H   0  0  0  0  0  0  0  0  0  0  0  0
   -2.2793   -1.7450    0.3073 H   0  0  0  0  0  0  0  0  0  0  0  0
   -2.5952   -1.5081   -2.7168 H   0  0  0  0  0  0  0  0  0  0  0  0
   -3.4580   -0.0674    0.3523 H   0  0  0  0  0  0  0  0  0  0  0  0
   -6.3421    0.1232   -0.6414 H   0  0  0  0  0  0  0  0  0  0  0  0
   -4.4669    0.1066    2.9043 H   0  0  0  0  0  0  0  0  0  0  0  0
   -4.9693   -1.5520    2.2602 H   0  0  0  0  0  0  0  0  0  0  0  0
   -4.9894    2.0991   -1.2372 H   0  0  0  0  0  0  0  0  0  0  0  0
   -4.4675    2.3444    0.4390 H   0  0  0  0  0  0  0  0  0  0  0  0
   -7.4686    2.8586   -1.8779 H   0  0  0  0  0  0  0  0  0  0  0  0
   -9.2461    4.3055   -0.7481 H   0  0  0  0  0  0  0  0  0  0  0  0
   -5.4431    2.9163    2.7214 H   0  0  0  0  0  0  0  0  0  0  0  0
   -6.5637    4.1961    4.5688 H   0  0  0  0  0  0  0  0  0  0  0  0
   -8.6953    5.4141    4.1185 H   0  0  0  0  0  0  0  0  0  0  0  0
   -9.6331    5.2955    1.7855 H   0  0  0  0  0  0  0  0  0  0  0  0
   -2.2390   -3.8704   -1.7179 H   0  0  0  0  0  0  0  0  0  0  0  0
   -3.5243   -3.5450   -0.5593 H   0  0  0  0  0  0  0  0  0  0  0  0
   -5.1504   -3.4357   -2.6162 H   0  0  0  0  0  0  0  0  0  0  0  0
   -3.6942   -3.8133   -3.6135 H   0  0  0  0  0  0  0  0  0  0  0  0
   -3.2001   -5.7896   -2.2906 H   0  0  0  0  0  0  0  0  0  0  0  0
   -4.8107   -5.9204   -3.0031 H   0  0  0  0  0  0  0  0  0  0  0  0
   -5.9520   -4.8672    1.5188 H   0  0  0  0  0  0  0  0  0  0  0  0
   -6.9721   -6.2997    1.1569 H   0  0  0  0  0  0  0  0  0  0  0  0
   -7.2096   -5.9471   -2.1083 H   0  0  0  0  0  0  0  0  0  0  0  0
   -7.4230   -4.2174   -1.5849 H   0  0  0  0  0  0  0  0  0  0  0  0
   -0.5674   -2.2072    1.4475 H   0  0  0  0  0  0  0  0  0  0  0  0
    0.8786   -1.3515    2.0214 H   0  0  0  0  0  0  0  0  0  0  0  0
   -0.1959   -3.8307   -0.4808 H   0  0  0  0  0  0  0  0  0  0  0  0
    1.3346   -5.4092   -1.5441 H   0  0  0  0  0  0  0  0  0  0  0  0
    3.8082   -5.1423   -1.2105 H   0  0  0  0  0  0  0  0  0  0  0  0
    4.6320   -3.3049    0.1737 H   0  0  0  0  0  0  0  0  0  0  0  0
    3.0577   -1.7351    1.2288 H   0  0  0  0  0  0  0  0  0  0  0  0
    1.8004    4.0152    1.0901 H   0  0  0  0  0  0  0  0  0  0  0  0
    1.8560    3.8204   -0.7406 H   0  0  0  0  0  0  0  0  0  0  0  0
    3.7812    5.0093    2.3444 H   0  0  0  0  0  0  0  0  0  0  0  0
    6.0012    6.3245    1.6877 H   0  0  0  0  0  0  0  0  0  0  0  0
    6.3275    6.0218   -0.8385 H   0  0  0  0  0  0  0  0  0  0  0  0
    4.3850    4.5542   -1.8305 H   0  0  0  0  0  0  0  0  0  0  0  0
    5.1033   -0.3266   -1.7943 H   0  0  0  0  0  0  0  0  0  0  0  0
    5.7383    1.3037   -2.2447 H   0  0  0  0  0  0  0  0  0  0  0  0
    6.9119   -0.7897   -0.2452 H   0  0  0  0  0  0  0  0  0  0  0  0
    7.5386   -0.4461   -1.8531 H   0  0  0  0  0  0  0  0  0  0  0  0
    7.5030    1.4782    0.5175 H   0  0  0  0  0  0  0  0  0  0  0  0
    8.1466    1.8643   -1.1443 H   0  0  0  0  0  0  0  0  0  0  0  0
    8.6161   -0.2059    1.9297 H   0  0  0  0  0  0  0  0  0  0  0  0
   10.7417   -1.3456    2.3663 H   0  0  0  0  0  0  0  0  0  0  0  0
   12.5389   -1.4472    0.6555 H   0  0  0  0  0  0  0  0  0  0  0  0
   12.2087   -0.3914   -1.5292 H   0  0  0  0  0  0  0  0  0  0  0  0
   10.0916    0.7429   -1.9633 H   0  0  0  0  0  0  0  0  0  0  0  0
  1  2  2  0
  2  3  1  0
  3  4  1  0
  4  5  1  0
  5  6  2  0
  5  7  1  0
  7  8  1  0
  8  9  1  0
  9 10  2  0
  9 11  1  0
 11 12  1  0
 12 13  1  0
 13 14  2  0
 13 15  1  0
 15 16  1  0
 16 17  1  0
 17 18  2  0
 17 19  1  0
 16 20  1  0
 20 21  1  0
 21 22  2  0
 22 23  1  0
 23 24  1  0
 24 25  2  0
 25 26  1  0
 26 27  2  0
 27 28  1  0
 28 29  2  0
 12 30  1  0
 30 31  1  0
 31 32  1  0
 32 33  1  0
 33 34  2  3
 34 35  1  0
 34 36  1  0
  8 37  1  0
 37 38  1  0
 38 39  2  0
 39 40  1  0
 40 41  2  0
 41 42  1  0
 42 43  2  0
  4 44  1  0
 44 45  1  0
 45 46  1  0
 46 47  2  0
 47 48  1  0
 48 49  1  0
  2 50  1  0
 50 51  1  0
 51 52  1  0
 52 53  1  0
 53 54  2  0
 54 55  1  0
 55 56  2  0
 56 57  1  0
 57 58  2  0
 25 21  1  0
 43 38  1  0
 49 45  2  0
 58 53  1  0
 29 24  1  0
  3 59  1  0
  4 60  1  1
  7 61  1  0
  8 62  1  1
 11 63  1  0
 12 64  1  6
 15 65  1  0
 16 66  1  6
 19 67  1  0
 19 68  1  0
 20 69  1  0
 20 70  1  0
 22 71  1  0
 23 72  1  0
 26 73  1  0
 27 74  1  0
 28 75  1  0
 29 76  1  0
 30 77  1  0
 30 78  1  0
 31 79  1  0
 31 80  1  0
 32 81  1  0
 32 82  1  0
 35 83  1  0
 35 84  1  0
 36 85  1  0
 36 86  1  0
 37 87  1  0
 37 88  1  0
 39 89  1  0
 40 90  1  0
 41 91  1  0
 42 92  1  0
 43 93  1  0
 44 94  1  0
 44 95  1  0
 46 96  1  0
 47 97  1  0
 48 98  1  0
 49 99  1  0
 50100  1  0
 50101  1  0
 51102  1  0
 51103  1  0
 52104  1  0
 52105  1  0
 54106  1  0
 55107  1  0
 56108  1  0
 57109  1  0
 58110  1  0
M  END
>  <Ligand ID>  (1) 
LIG0000828

>  <Ligand>  (1) 
BDBM50301155

>  <SMILES>  (1) 
O=C(N[C@H](C(=O)N[C@@H](C(=O)N[C@H](C(=O)N[C@@H](C(=O)N)Cc1c[nH]c2c1cccc2)CCCN=C(N)N)Cc1ccccc1)Cc1cc[nH]c1)CCCc1ccccc1

>  <CID>  (1) 
91934137.0

>  <ChEMBL ID>  (1) 
nan

>  <InChiKey>  (1) 
PQSNGDOXBHHSOR-TWHRXLCVSA-N

>  <InChi>  (1) 
InChI=1S/C43H52N10O5/c44-39(55)35(25-31-27-49-33-17-8-7-16-32(31)33)52-40(56)34(18-10-21-48-43(45)46)51-42(58)37(23-29-13-5-2-6-14-29)53-41(57)36(24-30-20-22-47-26-30)50-38(54)19-9-15-28-11-3-1-4-12-28/h1-8,11-14,16-17,20,22,26-27,34-37,47,49H,9-10,15,18-19,21,23-25H2,(H2,44,55)(H,50,54)(H,51,58)(H,52,56)(H,53,57)(H4,45,46,48)/t34-,35+,36-,37+/m0/s1

>  <IUPAC Name>  (1) 
(2S)-N-[(2R)-1-amino-3-(1H-indol-3-yl)-1-oxopropan-2-yl]-5-(diaminomethylideneamino)-2-[[(2R)-3-phenyl-2-[[(2S)-2-(4-phenylbutanoylamino)-3-(1H-pyrrol-3-yl)propanoyl]amino]propanoyl]amino]pentanamide

$$$$
