
     RDKit          3D

 98101  0  0  0  0  0  0  0  0999 V2000
    2.0342   -6.0272   -0.5948 C   0  0  0  0  0  0  0  0  0  0  0  0
    2.6559   -4.7340   -0.6141 N   0  0  0  0  0  0  0  0  0  0  0  0
    2.3300   -3.7615    0.3858 C   0  0  0  0  0  0  0  0  0  0  0  0
    1.5106   -3.9972    1.3132 O   0  0  0  0  0  0  0  0  0  0  0  0
    2.9886   -2.5061    0.2694 N   0  0  0  0  0  0  0  0  0  0  0  0
    2.7905   -1.4001    1.1842 C   0  0  2  0  0  0  0  0  0  0  0  0
    1.9356   -0.3463    0.5025 C   0  0  0  0  0  0  0  0  0  0  0  0
    1.5891   -0.6478   -0.6638 O   0  0  0  0  0  0  0  0  0  0  0  0
    1.5790    0.8625    1.1610 N   0  0  0  0  0  0  0  0  0  0  0  0
    0.7845    1.8729    0.5394 C   0  0  2  0  0  0  0  0  0  0  0  0
   -0.5900    1.9690    0.9962 C   0  0  0  0  0  0  0  0  0  0  0  0
   -0.8913    1.3936    2.0956 O   0  0  0  0  0  0  0  0  0  0  0  0
   -1.6573    2.6386    0.3457 N   0  0  0  0  0  0  0  0  0  0  0  0
   -2.9555    2.6622    0.9315 C   0  0  2  0  0  0  0  0  0  0  0  0
   -3.7171    1.3858    0.6096 C   0  0  0  0  0  0  0  0  0  0  0  0
   -4.9527    1.3097    0.8801 O   0  0  0  0  0  0  0  0  0  0  0  0
   -2.9924    0.3237    0.0206 N   0  0  0  0  0  0  0  0  0  0  0  0
   -3.6762   -0.9587   -0.3067 C   0  0  2  0  0  0  0  0  0  0  0  0
   -3.5722   -1.8854    0.8178 C   0  0  0  0  0  0  0  0  0  0  0  0
   -4.1451   -2.9911    0.9287 O   0  0  0  0  0  0  0  0  0  0  0  0
   -2.7264   -1.4969    1.9181 N   0  0  0  0  0  0  0  0  0  0  0  0
   -3.2073   -1.3738   -1.6369 C   0  0  0  0  0  0  0  0  0  0  0  0
   -3.7723   -2.6534   -2.0790 C   0  0  0  0  0  0  0  0  0  0  0  0
   -4.8968   -2.7500   -2.8882 C   0  0  0  0  0  0  0  0  0  0  0  0
   -5.1571   -4.0798   -3.0865 N   0  0  0  0  0  0  0  0  0  0  0  0
   -4.2515   -4.8259   -2.4419 C   0  0  0  0  0  0  0  0  0  0  0  0
   -3.3919   -3.9530   -1.8167 C   0  0  0  0  0  0  0  0  0  0  0  0
   -2.3298   -4.4896   -1.0758 C   0  0  0  0  0  0  0  0  0  0  0  0
   -2.1651   -5.8611   -0.9840 C   0  0  0  0  0  0  0  0  0  0  0  0
   -3.0143   -6.7349   -1.6001 C   0  0  0  0  0  0  0  0  0  0  0  0
   -4.0681   -6.2113   -2.3368 C   0  0  0  0  0  0  0  0  0  0  0  0
   -3.7445    3.8664    0.7054 C   0  0  0  0  0  0  0  0  0  0  0  0
   -3.2176    5.1706    1.2207 C   0  0  0  0  0  0  0  0  0  0  0  0
   -1.9241    5.5370    0.5912 C   0  0  0  0  0  0  0  0  0  0  0  0
   -2.1087    5.6641   -0.8465 N   0  0  0  0  0  0  0  0  0  0  0  0
   -2.7192    6.7108   -1.2941 C   0  0  0  0  0  0  0  0  0  0  0  0
   -2.8792    6.7979   -2.7081 N   0  0  0  0  0  0  0  0  0  0  0  0
   -3.2185    7.7462   -0.4420 N   0  0  0  0  0  0  0  0  0  0  0  0
    1.0609    2.1746   -0.9098 C   0  0  0  0  0  0  0  0  0  0  0  0
    2.4563    2.6630   -1.1005 C   0  0  0  0  0  0  0  0  0  0  0  0
    3.5202    1.9100   -1.4919 C   0  0  0  0  0  0  0  0  0  0  0  0
    4.7989    2.4637   -1.6014 C   0  0  0  0  0  0  0  0  0  0  0  0
    5.0172    3.8035   -1.3128 C   0  0  0  0  0  0  0  0  0  0  0  0
    3.9477    4.5828   -0.9138 C   0  0  0  0  0  0  0  0  0  0  0  0
    2.6792    3.9999   -0.8131 C   0  0  0  0  0  0  0  0  0  0  0  0
    4.0722   -0.7242    1.5739 C   0  0  0  0  0  0  0  0  0  0  0  0
    5.0055   -1.6737    2.2498 C   0  0  0  0  0  0  0  0  0  0  0  0
    5.8962   -2.3962    1.4830 C   0  0  0  0  0  0  0  0  0  0  0  0
    6.7668   -3.2972    2.1091 C   0  0  0  0  0  0  0  0  0  0  0  0
    6.7568   -3.4823    3.4778 C   0  0  0  0  0  0  0  0  0  0  0  0
    5.8496   -2.7380    4.2099 C   0  0  0  0  0  0  0  0  0  0  0  0
    4.9736   -1.8388    3.6333 C   0  0  0  0  0  0  0  0  0  0  0  0
    7.8506   -4.6189    4.2329 Cl  0  0  0  0  0  0  0  0  0  0  0  0
    2.5379   -6.7219   -1.3095 H   0  0  0  0  0  0  0  0  0  0  0  0
    0.9656   -5.9437   -0.9567 H   0  0  0  0  0  0  0  0  0  0  0  0
    2.0524   -6.5371    0.3801 H   0  0  0  0  0  0  0  0  0  0  0  0
    3.3403   -4.5311   -1.3642 H   0  0  0  0  0  0  0  0  0  0  0  0
    3.6736   -2.3271   -0.5121 H   0  0  0  0  0  0  0  0  0  0  0  0
    2.2025   -1.7019    2.0558 H   0  0  0  0  0  0  0  0  0  0  0  0
    1.9567    0.9426    2.1575 H   0  0  0  0  0  0  0  0  0  0  0  0
    1.2708    2.8508    1.0184 H   0  0  0  0  0  0  0  0  0  0  0  0
   -1.4350    3.0745   -0.5732 H   0  0  0  0  0  0  0  0  0  0  0  0
   -2.8454    2.5204    2.0820 H   0  0  0  0  0  0  0  0  0  0  0  0
   -1.9807    0.3472   -0.2222 H   0  0  0  0  0  0  0  0  0  0  0  0
   -4.7521   -0.6500   -0.3522 H   0  0  0  0  0  0  0  0  0  0  0  0
   -1.7550   -1.8022    2.0311 H   0  0  0  0  0  0  0  0  0  0  0  0
   -3.1934   -0.8528    2.6172 H   0  0  0  0  0  0  0  0  0  0  0  0
   -2.0886   -1.4067   -1.7146 H   0  0  0  0  0  0  0  0  0  0  0  0
   -3.4775   -0.5441   -2.3683 H   0  0  0  0  0  0  0  0  0  0  0  0
   -5.4556   -1.9135   -3.2855 H   0  0  0  0  0  0  0  0  0  0  0  0
   -5.9526   -4.4579   -3.6586 H   0  0  0  0  0  0  0  0  0  0  0  0
   -1.6667   -3.8059   -0.5920 H   0  0  0  0  0  0  0  0  0  0  0  0
   -1.3496   -6.2230   -0.4143 H   0  0  0  0  0  0  0  0  0  0  0  0
   -2.8739   -7.8168   -1.5185 H   0  0  0  0  0  0  0  0  0  0  0  0
   -4.7859   -6.8609   -2.8589 H   0  0  0  0  0  0  0  0  0  0  0  0
   -4.7520    3.7449    1.2378 H   0  0  0  0  0  0  0  0  0  0  0  0
   -4.0431    4.0029   -0.3815 H   0  0  0  0  0  0  0  0  0  0  0  0
   -3.1407    5.1570    2.3555 H   0  0  0  0  0  0  0  0  0  0  0  0
   -3.9744    5.9977    1.0518 H   0  0  0  0  0  0  0  0  0  0  0  0
   -1.0943    4.8745    0.8768 H   0  0  0  0  0  0  0  0  0  0  0  0
   -1.6859    6.5850    0.9583 H   0  0  0  0  0  0  0  0  0  0  0  0
   -3.2972    5.9681   -3.1825 H   0  0  0  0  0  0  0  0  0  0  0  0
   -2.6225    7.5966   -3.2903 H   0  0  0  0  0  0  0  0  0  0  0  0
   -4.2626    7.8733   -0.4017 H   0  0  0  0  0  0  0  0  0  0  0  0
   -2.5918    8.3669    0.1253 H   0  0  0  0  0  0  0  0  0  0  0  0
    0.9128    1.3238   -1.5764 H   0  0  0  0  0  0  0  0  0  0  0  0
    0.4180    2.9943   -1.2956 H   0  0  0  0  0  0  0  0  0  0  0  0
    3.4364    0.8777   -1.7416 H   0  0  0  0  0  0  0  0  0  0  0  0
    5.6184    1.8144   -1.9201 H   0  0  0  0  0  0  0  0  0  0  0  0
    6.0240    4.1726   -1.4199 H   0  0  0  0  0  0  0  0  0  0  0  0
    4.0944    5.6313   -0.6844 H   0  0  0  0  0  0  0  0  0  0  0  0
    1.8971    4.6795   -0.4952 H   0  0  0  0  0  0  0  0  0  0  0  0
    4.5293   -0.2689    0.6817 H   0  0  0  0  0  0  0  0  0  0  0  0
    3.8056    0.1342    2.2589 H   0  0  0  0  0  0  0  0  0  0  0  0
    5.9354   -2.2798    0.3908 H   0  0  0  0  0  0  0  0  0  0  0  0
    7.4330   -3.8291    1.4456 H   0  0  0  0  0  0  0  0  0  0  0  0
    5.8061   -2.8532    5.3061 H   0  0  0  0  0  0  0  0  0  0  0  0
    4.2590   -1.2567    4.2322 H   0  0  0  0  0  0  0  0  0  0  0  0
  1  2  1  0
  2  3  1  0
  3  4  2  0
  3  5  1  0
  5  6  1  0
  6  7  1  0
  7  8  2  0
  7  9  1  0
  9 10  1  0
 10 11  1  0
 11 12  2  0
 11 13  1  0
 13 14  1  0
 14 15  1  0
 15 16  2  0
 15 17  1  0
 17 18  1  0
 18 19  1  0
 19 20  2  0
 19 21  1  0
 18 22  1  0
 22 23  1  0
 23 24  2  0
 24 25  1  0
 25 26  1  0
 26 27  2  0
 27 28  1  0
 28 29  2  0
 29 30  1  0
 30 31  2  0
 14 32  1  0
 32 33  1  0
 33 34  1  0
 34 35  1  0
 35 36  2  3
 36 37  1  0
 36 38  1  0
 10 39  1  0
 39 40  1  0
 40 41  2  0
 41 42  1  0
 42 43  2  0
 43 44  1  0
 44 45  2  0
  6 46  1  0
 46 47  1  0
 47 48  2  0
 48 49  1  0
 49 50  2  0
 50 51  1  0
 51 52  2  0
 50 53  1  0
 27 23  1  0
 45 40  1  0
 52 47  1  0
 31 26  1  0
  1 54  1  0
  1 55  1  0
  1 56  1  0
  2 57  1  0
  5 58  1  0
  6 59  1  1
  9 60  1  0
 10 61  1  1
 13 62  1  0
 14 63  1  1
 17 64  1  0
 18 65  1  6
 21 66  1  0
 21 67  1  0
 22 68  1  0
 22 69  1  0
 24 70  1  0
 25 71  1  0
 28 72  1  0
 29 73  1  0
 30 74  1  0
 31 75  1  0
 32 76  1  0
 32 77  1  0
 33 78  1  0
 33 79  1  0
 34 80  1  0
 34 81  1  0
 37 82  1  0
 37 83  1  0
 38 84  1  0
 38 85  1  0
 39 86  1  0
 39 87  1  0
 41 88  1  0
 42 89  1  0
 43 90  1  0
 44 91  1  0
 45 92  1  0
 46 93  1  0
 46 94  1  0
 48 95  1  0
 49 96  1  0
 51 97  1  0
 52 98  1  0
M  END
>  <Ligand ID>  (1) 
LIG0004680

>  <Ligand>  (1) 
CHEMBL181161

>  <SMILES>  (1) 
CNC(=O)N[C@H](C(=O)N[C@H](C(=O)N[C@H](C(=O)N[C@H](C(=O)N)Cc1c[nH]c2c1cccc2)CCCN=C(N)N)Cc1ccccc1)Cc1ccc(cc1)Cl

>  <CID>  (1) 
44394731.0

>  <ChEMBL ID>  (1) 
nan

>  <InChiKey>  (1) 
ACTPUDHTSAXOLZ-ORYMTKCHSA-N

>  <InChi>  (1) 
InChI=1S/C37H45ClN10O5/c1-42-37(53)48-31(19-23-13-15-25(38)16-14-23)35(52)47-30(18-22-8-3-2-4-9-22)34(51)45-28(12-7-17-43-36(40)41)33(50)46-29(32(39)49)20-24-21-44-27-11-6-5-10-26(24)27/h2-6,8-11,13-16,21,28-31,44H,7,12,17-20H2,1H3,(H2,39,49)(H,45,51)(H,46,50)(H,47,52)(H4,40,41,43)(H2,42,48,53)/t28-,29-,30-,31-/m0/s1

>  <IUPAC Name>  (1) 
(2S)-N-[(2S)-1-amino-3-(1H-indol-3-yl)-1-oxopropan-2-yl]-2-[[(2S)-2-[[(2S)-3-(4-chlorophenyl)-2-(methylcarbamoylamino)propanoyl]amino]-3-phenylpropanoyl]amino]-5-(diaminomethylideneamino)pentanamide

$$$$
