
     RDKit          3D

185191  0  0  0  0  0  0  0  0999 V2000
   10.1542   -4.7008   -2.1785 N   0  0  0  0  0  0  0  0  0  0  0  0
   10.1649   -3.2869   -2.3040 C   0  0  0  0  0  0  0  0  0  0  0  0
   11.1428   -2.6759   -2.8425 N   0  0  0  0  0  0  0  0  0  0  0  0
    9.0607   -2.5412   -1.7979 N   0  0  0  0  0  0  0  0  0  0  0  0
    9.1111   -1.1604   -1.4242 C   0  0  0  0  0  0  0  0  0  0  0  0
    7.7785   -0.6848   -0.8523 C   0  0  0  0  0  0  0  0  0  0  0  0
    7.4411   -1.4944    0.3741 C   0  0  0  0  0  0  0  0  0  0  0  0
    6.2123   -1.1432    1.0713 C   0  0  2  0  0  0  0  0  0  0  0  0
    5.0244   -1.2962    0.2383 N   0  0  0  0  0  0  0  0  0  0  0  0
    3.9103   -2.1434    0.6730 C   0  0  0  0  0  0  0  0  0  0  0  0
    4.1148   -2.6996    1.7288 O   0  0  0  0  0  0  0  0  0  0  0  0
    2.7113   -2.1963   -0.2148 C   0  0  1  0  0  0  0  0  0  0  0  0
    3.0417   -2.6070   -1.6154 C   0  0  0  0  0  0  0  0  0  0  0  0
    3.6513   -3.9642   -1.6769 C   0  0  0  0  0  0  0  0  0  0  0  0
    5.0457   -4.1391   -1.6262 C   0  0  0  0  0  0  0  0  0  0  0  0
    5.5360   -5.4351   -1.6684 C   0  0  0  0  0  0  0  0  0  0  0  0
    4.7646   -6.5542   -1.7543 C   0  0  0  0  0  0  0  0  0  0  0  0
    3.3809   -6.3803   -1.8081 C   0  0  0  0  0  0  0  0  0  0  0  0
    2.8331   -5.1038   -1.7681 C   0  0  0  0  0  0  0  0  0  0  0  0
    1.5319   -2.8026    0.2937 N   0  0  0  0  0  0  0  0  0  0  0  0
    1.2057   -3.3851    1.5179 C   0  0  0  0  0  0  0  0  0  0  0  0
    2.0551   -3.6147    2.3499 O   0  0  0  0  0  0  0  0  0  0  0  0
   -0.2301   -3.7878    1.8994 C   0  0  2  0  0  0  0  0  0  0  0  0
   -0.3779   -5.2128    2.1705 C   0  0  0  0  0  0  0  0  0  0  0  0
   -1.7447   -5.6372    2.5650 C   0  0  0  0  0  0  0  0  0  0  0  0
   -2.7744   -6.0453    1.7474 C   0  0  0  0  0  0  0  0  0  0  0  0
   -3.8545   -6.3362    2.5148 N   0  0  0  0  0  0  0  0  0  0  0  0
   -3.5145   -6.1212    3.7828 C   0  0  0  0  0  0  0  0  0  0  0  0
   -2.2195   -5.6915    3.8090 N   0  0  0  0  0  0  0  0  0  0  0  0
   -1.1156   -3.1859    0.9229 N   0  0  0  0  0  0  0  0  0  0  0  0
   -1.2990   -1.7780    1.0354 C   0  0  0  0  0  0  0  0  0  0  0  0
   -0.6616   -1.2253    1.9527 O   0  0  0  0  0  0  0  0  0  0  0  0
   -2.1397   -0.9137    0.1881 C   0  0  1  0  0  0  0  0  0  0  0  0
   -3.0487   -1.8131   -0.5150 N   0  0  0  0  0  0  0  0  0  0  0  0
   -3.1548   -2.0882   -1.8674 C   0  0  0  0  0  0  0  0  0  0  0  0
   -2.3932   -1.5739   -2.7216 O   0  0  0  0  0  0  0  0  0  0  0  0
   -4.2494   -3.0502   -2.2798 C   0  0  2  0  0  0  0  0  0  0  0  0
   -4.6237   -4.0207   -1.2289 C   0  0  0  0  0  0  0  0  0  0  0  0
   -5.7044   -4.9629   -1.6547 C   0  0  0  0  0  0  0  0  0  0  0  0
   -7.0114   -4.5160   -1.4376 C   0  0  0  0  0  0  0  0  0  0  0  0
   -8.0951   -5.3420   -1.7736 C   0  0  0  0  0  0  0  0  0  0  0  0
   -7.8688   -6.5844   -2.3178 C   0  0  0  0  0  0  0  0  0  0  0  0
   -6.5522   -7.0150   -2.5301 C   0  0  0  0  0  0  0  0  0  0  0  0
   -5.4718   -6.1969   -2.1970 C   0  0  0  0  0  0  0  0  0  0  0  0
   -8.9577   -7.3683   -2.6373 O   0  0  0  0  0  0  0  0  0  0  0  0
   -3.9900   -3.6784   -3.5343 N   0  0  0  0  0  0  0  0  0  0  0  0
   -2.9975    0.0333    1.0434 C   0  0  0  0  0  0  0  0  0  0  0  0
   -3.5074    1.1240    0.2345 C   0  0  0  0  0  0  0  0  0  0  0  0
   -2.7756    1.5155   -0.7103 O   0  0  0  0  0  0  0  0  0  0  0  0
   -4.7055    1.8638    0.2620 N   0  0  0  0  0  0  0  0  0  0  0  0
   -5.7712    1.3437    1.0663 C   0  0  2  0  0  0  0  0  0  0  0  0
   -5.4578    1.2739    2.5005 C   0  0  0  0  0  0  0  0  0  0  0  0
   -6.3811    0.6974    3.2037 O   0  0  0  0  0  0  0  0  0  0  0  0
   -4.3341    1.7400    3.1606 N   0  0  0  0  0  0  0  0  0  0  0  0
   -6.2534    0.0379    0.5252 C   0  0  0  0  0  0  0  0  0  0  0  0
   -7.3506   -0.6485    1.2161 C   0  0  0  0  0  0  0  0  0  0  0  0
   -8.6470   -0.2860    0.8056 C   0  0  0  0  0  0  0  0  0  0  0  0
   -9.7653   -0.8837    1.3424 C   0  0  0  0  0  0  0  0  0  0  0  0
   -9.5678   -1.8521    2.3032 C   0  0  0  0  0  0  0  0  0  0  0  0
   -8.3308   -2.2482    2.7473 C   0  0  0  0  0  0  0  0  0  0  0  0
   -7.2395   -1.6206    2.1771 C   0  0  0  0  0  0  0  0  0  0  0  0
  -10.7011   -2.4523    2.8405 O   0  0  0  0  0  0  0  0  0  0  0  0
   -4.8287    3.1563   -0.4715 C   0  0  0  0  0  0  0  0  0  0  0  0
   -6.0553    3.8643   -0.1356 C   0  0  0  0  0  0  0  0  0  0  0  0
   -3.6343    3.9200   -0.2868 N   0  0  0  0  0  0  0  0  0  0  0  0
   -3.3145    5.1712   -0.8911 C   0  0  0  0  0  0  0  0  0  0  0  0
   -4.2096    5.6517   -1.6018 O   0  0  0  0  0  0  0  0  0  0  0  0
   -2.0326    5.8798   -0.7223 C   0  0  1  0  0  0  0  0  0  0  0  0
   -1.0495    5.0264   -0.0464 N   0  0  0  0  0  0  0  0  0  0  0  0
    0.1873    5.5406    0.4889 C   0  0  0  0  0  0  0  0  0  0  0  0
    0.3613    6.7508    0.3209 O   0  0  0  0  0  0  0  0  0  0  0  0
    1.0984    4.5940    1.1633 C   0  0  1  0  0  0  0  0  0  0  0  0
    2.4397    5.1542    1.3944 N   0  0  0  0  0  0  0  0  0  0  0  0
    3.5895    4.3297    1.2083 C   0  0  0  0  0  0  0  0  0  0  0  0
    3.3278    3.1494    0.9346 O   0  0  0  0  0  0  0  0  0  0  0  0
    5.0113    4.7226    1.3191 C   0  0  1  0  0  0  0  0  0  0  0  0
    5.7552    3.4284    1.5684 N   0  0  0  0  0  0  0  0  0  0  0  0
    6.1365    3.0518    2.8604 C   0  0  0  0  0  0  0  0  0  0  0  0
    5.8089    3.9334    3.7555 O   0  0  0  0  0  0  0  0  0  0  0  0
    6.8180    1.8968    3.3898 C   0  0  1  0  0  0  0  0  0  0  0  0
    7.1432    0.7684    2.5631 N   0  0  0  0  0  0  0  0  0  0  0  0
    6.1175    0.0937    1.8596 C   0  0  0  0  0  0  0  0  0  0  0  0
    4.9939    0.6417    1.9232 O   0  0  0  0  0  0  0  0  0  0  0  0
    8.5430    0.4781    2.5713 C   0  0  0  0  0  0  0  0  0  0  0  0
    9.1521    1.7271    3.1871 C   0  0  0  0  0  0  0  0  0  0  0  0
    8.1076    2.3338    4.0518 C   0  0  0  0  0  0  0  0  0  0  0  0
    5.6407    5.3853    0.1718 C   0  0  0  0  0  0  0  0  0  0  0  0
    5.0910    6.6583   -0.2265 C   0  0  0  0  0  0  0  0  0  0  0  0
    4.2469    7.3847    0.3304 O   0  0  0  0  0  0  0  0  0  0  0  0
    5.5867    7.2126   -1.4883 N   0  0  0  0  0  0  0  0  0  0  0  0
    0.4582    4.2225    2.4930 C   0  0  0  0  0  0  0  0  0  0  0  0
   -1.4604    6.2347   -2.1020 C   0  0  0  0  0  0  0  0  0  0  0  0
   -2.3108    7.1006   -2.9281 C   0  0  0  0  0  0  0  0  0  0  0  0
   -2.3002    8.4618   -2.8008 C   0  0  0  0  0  0  0  0  0  0  0  0
   -3.0465    9.3293   -3.5529 C   0  0  0  0  0  0  0  0  0  0  0  0
   -3.8771    8.8064   -4.5151 C   0  0  0  0  0  0  0  0  0  0  0  0
   -3.9392    7.4448   -4.7030 C   0  0  0  0  0  0  0  0  0  0  0  0
   -3.1708    6.6006   -3.9255 C   0  0  0  0  0  0  0  0  0  0  0  0
   -4.8950    2.7692   -1.9219 C   0  0  0  0  0  0  0  0  0  0  0  0
   -3.9094    3.1139   -2.6591 O   0  0  0  0  0  0  0  0  0  0  0  0
   -5.9287    2.0783   -2.4896 O   0  0  0  0  0  0  0  0  0  0  0  0
    9.6709   -5.1617   -1.3493 H   0  0  0  0  0  0  0  0  0  0  0  0
   10.5860   -5.3526   -2.8530 H   0  0  0  0  0  0  0  0  0  0  0  0
   11.1494   -1.6525   -2.9338 H   0  0  0  0  0  0  0  0  0  0  0  0
    8.1664   -3.0601   -1.7119 H   0  0  0  0  0  0  0  0  0  0  0  0
    9.3105   -0.5141   -2.3240 H   0  0  0  0  0  0  0  0  0  0  0  0
    9.8938   -0.9332   -0.6596 H   0  0  0  0  0  0  0  0  0  0  0  0
    7.0105   -0.7609   -1.6212 H   0  0  0  0  0  0  0  0  0  0  0  0
    7.8884    0.3885   -0.5616 H   0  0  0  0  0  0  0  0  0  0  0  0
    7.2194   -2.5385   -0.0811 H   0  0  0  0  0  0  0  0  0  0  0  0
    8.3205   -1.7445    1.0003 H   0  0  0  0  0  0  0  0  0  0  0  0
    6.1088   -1.9506    1.9144 H   0  0  0  0  0  0  0  0  0  0  0  0
    4.8779   -0.8529   -0.6633 H   0  0  0  0  0  0  0  0  0  0  0  0
    2.4462   -1.0710   -0.2552 H   0  0  0  0  0  0  0  0  0  0  0  0
    3.7282   -1.8532   -2.0498 H   0  0  0  0  0  0  0  0  0  0  0  0
    2.1063   -2.5957   -2.2039 H   0  0  0  0  0  0  0  0  0  0  0  0
    5.6550   -3.2910   -1.5670 H   0  0  0  0  0  0  0  0  0  0  0  0
    6.6291   -5.5514   -1.6311 H   0  0  0  0  0  0  0  0  0  0  0  0
    5.1803   -7.5751   -1.7870 H   0  0  0  0  0  0  0  0  0  0  0  0
    2.7144   -7.2435   -1.8854 H   0  0  0  0  0  0  0  0  0  0  0  0
    1.7673   -4.9345   -1.8138 H   0  0  0  0  0  0  0  0  0  0  0  0
    0.7116   -2.8307   -0.3953 H   0  0  0  0  0  0  0  0  0  0  0  0
   -0.3823   -3.1967    2.8435 H   0  0  0  0  0  0  0  0  0  0  0  0
   -0.0861   -5.8860    1.3356 H   0  0  0  0  0  0  0  0  0  0  0  0
    0.3231   -5.4794    3.0208 H   0  0  0  0  0  0  0  0  0  0  0  0
   -2.7544   -6.1273    0.6449 H   0  0  0  0  0  0  0  0  0  0  0  0
   -4.0623   -6.2353    4.7146 H   0  0  0  0  0  0  0  0  0  0  0  0
   -1.6747   -5.4346    4.6641 H   0  0  0  0  0  0  0  0  0  0  0  0
   -1.6204   -3.6421    0.1757 H   0  0  0  0  0  0  0  0  0  0  0  0
   -1.6162   -0.3212   -0.5520 H   0  0  0  0  0  0  0  0  0  0  0  0
   -3.6950   -2.3291    0.1719 H   0  0  0  0  0  0  0  0  0  0  0  0
   -5.1411   -2.3588   -2.4878 H   0  0  0  0  0  0  0  0  0  0  0  0
   -5.0176   -3.4891   -0.3039 H   0  0  0  0  0  0  0  0  0  0  0  0
   -3.7472   -4.6124   -0.9131 H   0  0  0  0  0  0  0  0  0  0  0  0
   -7.1983   -3.5437   -1.0203 H   0  0  0  0  0  0  0  0  0  0  0  0
   -9.1051   -4.9475   -1.5877 H   0  0  0  0  0  0  0  0  0  0  0  0
   -6.3847   -8.0178   -2.9564 H   0  0  0  0  0  0  0  0  0  0  0  0
   -4.4588   -6.5241   -2.3564 H   0  0  0  0  0  0  0  0  0  0  0  0
   -9.1940   -8.1143   -1.9688 H   0  0  0  0  0  0  0  0  0  0  0  0
   -3.0111   -3.9680   -3.6579 H   0  0  0  0  0  0  0  0  0  0  0  0
   -4.6114   -4.4882   -3.7365 H   0  0  0  0  0  0  0  0  0  0  0  0
   -2.2160    0.5087    1.7286 H   0  0  0  0  0  0  0  0  0  0  0  0
   -3.6458   -0.5005    1.7152 H   0  0  0  0  0  0  0  0  0  0  0  0
   -6.6532    2.0415    0.9893 H   0  0  0  0  0  0  0  0  0  0  0  0
   -4.0069    2.7617    3.1603 H   0  0  0  0  0  0  0  0  0  0  0  0
   -3.6795    1.1254    3.7472 H   0  0  0  0  0  0  0  0  0  0  0  0
   -6.5407    0.2354   -0.5589 H   0  0  0  0  0  0  0  0  0  0  0  0
   -5.4383   -0.7236    0.4115 H   0  0  0  0  0  0  0  0  0  0  0  0
   -8.7939    0.4652    0.0488 H   0  0  0  0  0  0  0  0  0  0  0  0
  -10.7337   -0.5679    0.9858 H   0  0  0  0  0  0  0  0  0  0  0  0
   -8.2551   -3.0096    3.5121 H   0  0  0  0  0  0  0  0  0  0  0  0
   -6.2639   -1.9168    2.5194 H   0  0  0  0  0  0  0  0  0  0  0  0
  -11.6547   -2.2505    2.5098 H   0  0  0  0  0  0  0  0  0  0  0  0
   -6.1981    4.0303    0.9803 H   0  0  0  0  0  0  0  0  0  0  0  0
   -6.0244    4.8859   -0.5553 H   0  0  0  0  0  0  0  0  0  0  0  0
   -6.9893    3.4148   -0.5655 H   0  0  0  0  0  0  0  0  0  0  0  0
   -2.9328    3.5626    0.3667 H   0  0  0  0  0  0  0  0  0  0  0  0
   -2.1910    6.8491   -0.2302 H   0  0  0  0  0  0  0  0  0  0  0  0
   -1.1493    4.0190    0.0910 H   0  0  0  0  0  0  0  0  0  0  0  0
    1.2235    3.6385    0.6283 H   0  0  0  0  0  0  0  0  0  0  0  0
    2.6148    6.0976    1.7118 H   0  0  0  0  0  0  0  0  0  0  0  0
    5.1150    5.2908    2.2383 H   0  0  0  0  0  0  0  0  0  0  0  0
    5.9893    2.8367    0.7934 H   0  0  0  0  0  0  0  0  0  0  0  0
    6.1923    1.5088    4.2708 H   0  0  0  0  0  0  0  0  0  0  0  0
    8.9964    0.2841    1.5772 H   0  0  0  0  0  0  0  0  0  0  0  0
    8.8175   -0.3606    3.2356 H   0  0  0  0  0  0  0  0  0  0  0  0
    9.5742    2.4020    2.4133 H   0  0  0  0  0  0  0  0  0  0  0  0
    9.9816    1.3795    3.8373 H   0  0  0  0  0  0  0  0  0  0  0  0
    8.1695    1.9593    5.1007 H   0  0  0  0  0  0  0  0  0  0  0  0
    8.1821    3.4350    4.0933 H   0  0  0  0  0  0  0  0  0  0  0  0
    5.7001    4.6744   -0.7322 H   0  0  0  0  0  0  0  0  0  0  0  0
    6.7182    5.6019    0.4825 H   0  0  0  0  0  0  0  0  0  0  0  0
    6.5373    6.8811   -1.8371 H   0  0  0  0  0  0  0  0  0  0  0  0
    5.0420    7.8955   -2.0351 H   0  0  0  0  0  0  0  0  0  0  0  0
    0.8947    4.9004    3.2657 H   0  0  0  0  0  0  0  0  0  0  0  0
    0.6298    3.1548    2.7314 H   0  0  0  0  0  0  0  0  0  0  0  0
   -0.6242    4.3967    2.4039 H   0  0  0  0  0  0  0  0  0  0  0  0
   -1.3231    5.2794   -2.6505 H   0  0  0  0  0  0  0  0  0  0  0  0
   -0.4202    6.6517   -1.9841 H   0  0  0  0  0  0  0  0  0  0  0  0
   -1.6443    8.8905   -2.0519 H   0  0  0  0  0  0  0  0  0  0  0  0
   -2.9626   10.4084   -3.3665 H   0  0  0  0  0  0  0  0  0  0  0  0
   -4.4866    9.4796   -5.1308 H   0  0  0  0  0  0  0  0  0  0  0  0
   -4.6072    7.0372   -5.4713 H   0  0  0  0  0  0  0  0  0  0  0  0
   -3.2334    5.5402   -4.1281 H   0  0  0  0  0  0  0  0  0  0  0  0
   -6.0992    2.0497   -3.5018 H   0  0  0  0  0  0  0  0  0  0  0  0
  1  2  1  0
  2  3  2  3
  2  4  1  0
  4  5  1  0
  5  6  1  0
  6  7  1  0
  7  8  1  0
  8  9  1  0
  9 10  1  0
 10 11  2  0
 10 12  1  0
 12 13  1  0
 13 14  1  0
 14 15  2  0
 15 16  1  0
 16 17  2  0
 17 18  1  0
 18 19  2  0
 12 20  1  0
 20 21  1  0
 21 22  2  0
 21 23  1  0
 23 24  1  0
 24 25  1  0
 25 26  2  0
 26 27  1  0
 27 28  2  0
 28 29  1  0
 23 30  1  0
 30 31  1  0
 31 32  2  0
 31 33  1  0
 33 34  1  0
 34 35  1  0
 35 36  2  0
 35 37  1  0
 37 38  1  0
 38 39  1  0
 39 40  2  0
 40 41  1  0
 41 42  2  0
 42 43  1  0
 43 44  2  0
 42 45  1  0
 37 46  1  0
 33 47  1  0
 47 48  1  0
 48 49  2  0
 48 50  1  0
 50 51  1  0
 51 52  1  0
 52 53  2  0
 52 54  1  0
 51 55  1  0
 55 56  1  0
 56 57  2  0
 57 58  1  0
 58 59  2  0
 59 60  1  0
 60 61  2  0
 59 62  1  0
 50 63  1  0
 63 64  1  0
 63 65  1  0
 65 66  1  0
 66 67  2  0
 66 68  1  0
 68 69  1  0
 69 70  1  0
 70 71  2  0
 70 72  1  0
 72 73  1  0
 73 74  1  0
 74 75  2  0
 74 76  1  0
 76 77  1  0
 77 78  1  0
 78 79  2  0
 78 80  1  0
 80 81  1  0
 81 82  1  0
 82 83  2  0
 81 84  1  0
 84 85  1  0
 85 86  1  0
 76 87  1  0
 87 88  1  0
 88 89  2  0
 88 90  1  0
 72 91  1  0
 68 92  1  0
 92 93  1  0
 93 94  2  0
 94 95  1  0
 95 96  2  0
 96 97  1  0
 97 98  2  0
 63 99  1  0
 99100  2  0
 99101  1  0
 82  8  1  0
 98 93  1  0
 19 14  1  0
 29 25  1  0
 44 39  1  0
 61 56  1  0
 86 80  1  0
  1102  1  0
  1103  1  0
  3104  1  0
  4105  1  0
  5106  1  0
  5107  1  0
  6108  1  0
  6109  1  0
  7110  1  0
  7111  1  0
  8112  1  1
  9113  1  0
 12114  1  6
 13115  1  0
 13116  1  0
 15117  1  0
 16118  1  0
 17119  1  0
 18120  1  0
 19121  1  0
 20122  1  0
 23123  1  1
 24124  1  0
 24125  1  0
 26126  1  0
 28127  1  0
 29128  1  0
 30129  1  0
 33130  1  6
 34131  1  0
 37132  1  6
 38133  1  0
 38134  1  0
 40135  1  0
 41136  1  0
 43137  1  0
 44138  1  0
 45139  1  0
 46140  1  0
 46141  1  0
 47142  1  0
 47143  1  0
 51144  1  1
 54145  1  0
 54146  1  0
 55147  1  0
 55148  1  0
 57149  1  0
 58150  1  0
 60151  1  0
 61152  1  0
 62153  1  0
 64154  1  0
 64155  1  0
 64156  1  0
 65157  1  0
 68158  1  1
 69159  1  0
 72160  1  6
 73161  1  0
 76162  1  1
 77163  1  0
 80164  1  1
 84165  1  0
 84166  1  0
 85167  1  0
 85168  1  0
 86169  1  0
 86170  1  0
 87171  1  0
 87172  1  0
 90173  1  0
 90174  1  0
 91175  1  0
 91176  1  0
 91177  1  0
 92178  1  0
 92179  1  0
 94180  1  0
 95181  1  0
 96182  1  0
 97183  1  0
 98184  1  0
101185  1  0
M  END
>  <Ligand ID>  (1) 
LIG0001168

>  <Ligand>  (1) 
CHEMBL2096716

>  <SMILES>  (1) 
NC(=N)NCCC[C@@H]1NC(=O)[C@@H](Cc2ccccc2)NC(=O)[C@H](Cc2cnc[nH]2)NC(=O)[C@@H](NC(=O)[C@H](Cc2ccc(cc2)O)N)CC(=O)N([C@H](C(=O)N)Cc2ccc(cc2)O)C(C)(NC(=O)[C@@H](NC(=O)[C@@H](NC(=O)[C@@H](NC(=O)[C@H]2N(C1=O)CCC2)CC(=O)N)C)Cc1ccccc1)C(=O)O

>  <CID>  (1) 
91900698.0

>  <ChEMBL ID>  (1) 
nan

>  <InChiKey>  (1) 
DFSDYEQMHZIDQN-GZFWIBJLSA-N

>  <InChi>  (1) 
InChI=1S/C67H84N18O16/c1-36-56(91)78-47(29-38-13-7-4-8-14-38)62(97)83-67(2,65(100)101)85(52(55(70)90)30-40-19-23-43(87)24-20-40)54(89)33-50(79-57(92)44(68)27-39-17-21-42(86)22-18-39)61(96)81-48(31-41-34-73-35-75-41)60(95)80-46(28-37-11-5-3-6-12-37)59(94)77-45(15-9-25-74-66(71)72)64(99)84-26-10-16-51(84)63(98)82-49(32-53(69)88)58(93)76-36/h3-8,11-14,17-24,34-36,44-52,86-87H,9-10,15-16,25-33,68H2,1-2H3,(H2,69,88)(H2,70,90)(H,73,75)(H,76,93)(H,77,94)(H,78,91)(H,79,92)(H,80,95)(H,81,96)(H,82,98)(H,83,97)(H,100,101)(H4,71,72,74)/t36-,44-,45-,46+,47-,48-,49-,50-,51-,52-,67?/m0/s1

>  <IUPAC Name>  (1) 
(3S,6R,9S,12S,19S,22S,25S,28S)-15-[(2S)-1-amino-3-(4-hydroxyphenyl)-1-oxopropan-2-yl]-12-[[(2S)-2-amino-3-(4-hydroxyphenyl)propanoyl]amino]-25-(2-amino-2-oxoethyl)-6,19-dibenzyl-3-(3-carbamimidamidopropyl)-9-(1H-imidazol-5-ylmethyl)-16,22-dimethyl-2,5,8,11,14,18,21,24,27-nonaoxo-1,4,7,10,15,17,20,23,26-nonazabicyclo[26.3.0]hentriacontane-16-carboxylic acid

$$$$
