
     RDKit          3D

 51 54  0  0  0  0  0  0  0  0999 V2000
    1.7704   -2.8018   -0.7921 C   0  0  0  0  0  0  0  0  0  0  0  0
    1.5473   -1.4263   -1.2947 C   0  0  1  0  0  0  0  0  0  0  0  0
    0.1479   -1.3419   -1.8995 C   0  0  0  0  0  0  0  0  0  0  0  0
   -0.7479   -0.5855   -1.0805 N   0  0  0  0  0  0  0  0  0  0  0  0
   -0.7058   -0.8904    0.3088 C   0  0  0  0  0  0  0  0  0  0  0  0
    0.6620   -0.5882    0.8797 C   0  0  0  0  0  0  0  0  0  0  0  0
    1.6067   -0.3226   -0.2789 C   0  0  1  0  0  0  0  0  0  0  0  0
    2.9385    0.1218    0.1149 C   0  0  0  0  0  0  0  0  0  0  0  0
    3.9909   -0.7405    0.3660 C   0  0  0  0  0  0  0  0  0  0  0  0
    5.2467   -0.3084    0.7383 C   0  0  0  0  0  0  0  0  0  0  0  0
    5.5146    1.0308    0.8797 C   0  0  0  0  0  0  0  0  0  0  0  0
    4.4890    1.9183    0.6374 C   0  0  0  0  0  0  0  0  0  0  0  0
    3.2365    1.4826    0.2658 C   0  0  0  0  0  0  0  0  0  0  0  0
    2.2187    2.3578    0.0251 F   0  0  0  0  0  0  0  0  0  0  0  0
    6.8546    1.5244    1.2786 C   0  0  0  0  0  0  0  0  0  0  0  0
    7.8626    0.8544    0.5901 F   0  0  0  0  0  0  0  0  0  0  0  0
    7.0524    1.2315    2.6141 F   0  0  0  0  0  0  0  0  0  0  0  0
    6.9186    2.8895    1.1106 F   0  0  0  0  0  0  0  0  0  0  0  0
   -2.0312   -0.5055   -1.6778 C   0  0  0  0  0  0  0  0  0  0  0  0
   -3.0328    0.2675   -0.8951 C   0  0  0  0  0  0  0  0  0  0  0  0
   -3.2202    1.6092   -1.0311 N   0  0  0  0  0  0  0  0  0  0  0  0
   -4.2033    1.9958   -0.1770 C   0  0  0  0  0  0  0  0  0  0  0  0
   -4.6309    0.8610    0.5016 C   0  0  0  0  0  0  0  0  0  0  0  0
   -3.9019   -0.1553    0.0401 N   0  0  0  0  0  0  0  0  0  0  0  0
   -4.0468   -1.5180    0.4977 C   0  0  0  0  0  0  0  0  0  0  0  0
   -5.6482    1.0207    1.4423 C   0  0  0  0  0  0  0  0  0  0  0  0
   -6.1703    2.2960    1.6439 C   0  0  0  0  0  0  0  0  0  0  0  0
   -5.7183    3.3980    0.9494 C   0  0  0  0  0  0  0  0  0  0  0  0
   -4.7335    3.2120    0.0461 N   0  0  0  0  0  0  0  0  0  0  0  0
    1.7382   -2.9294    0.3098 H   0  0  0  0  0  0  0  0  0  0  0  0
    0.9676   -3.4694   -1.1692 H   0  0  0  0  0  0  0  0  0  0  0  0
    2.7036   -3.2539   -1.2436 H   0  0  0  0  0  0  0  0  0  0  0  0
    2.2642   -1.1765   -2.1088 H   0  0  0  0  0  0  0  0  0  0  0  0
   -0.3112   -2.3396   -2.0491 H   0  0  0  0  0  0  0  0  0  0  0  0
    0.1696   -0.8484   -2.8927 H   0  0  0  0  0  0  0  0  0  0  0  0
   -0.9546   -1.9676    0.4778 H   0  0  0  0  0  0  0  0  0  0  0  0
   -1.4216   -0.2052    0.8148 H   0  0  0  0  0  0  0  0  0  0  0  0
    0.9966   -1.4244    1.5087 H   0  0  0  0  0  0  0  0  0  0  0  0
    0.6845    0.3243    1.5153 H   0  0  0  0  0  0  0  0  0  0  0  0
    1.1197    0.5636   -0.7913 H   0  0  0  0  0  0  0  0  0  0  0  0
    3.8546   -1.8049    0.2754 H   0  0  0  0  0  0  0  0  0  0  0  0
    6.0590   -0.9956    0.9311 H   0  0  0  0  0  0  0  0  0  0  0  0
    4.7009    2.9638    0.7487 H   0  0  0  0  0  0  0  0  0  0  0  0
   -1.9449   -0.1341   -2.7191 H   0  0  0  0  0  0  0  0  0  0  0  0
   -2.4655   -1.5392   -1.7977 H   0  0  0  0  0  0  0  0  0  0  0  0
   -3.3020   -2.2076    0.0589 H   0  0  0  0  0  0  0  0  0  0  0  0
   -5.0967   -1.8561    0.2727 H   0  0  0  0  0  0  0  0  0  0  0  0
   -3.9782   -1.5897    1.6151 H   0  0  0  0  0  0  0  0  0  0  0  0
   -5.9868    0.1590    1.9711 H   0  0  0  0  0  0  0  0  0  0  0  0
   -6.9604    2.4468    2.3685 H   0  0  0  0  0  0  0  0  0  0  0  0
   -6.1028    4.3974    1.0834 H   0  0  0  0  0  0  0  0  0  0  0  0
  1  2  1  0
  2  3  1  0
  3  4  1  0
  4  5  1  0
  5  6  1  0
  6  7  1  0
  7  8  1  0
  8  9  2  0
  9 10  1  0
 10 11  2  0
 11 12  1  0
 12 13  2  0
 13 14  1  0
 11 15  1  0
 15 16  1  0
 15 17  1  0
 15 18  1  0
  4 19  1  0
 19 20  1  0
 20 21  2  0
 21 22  1  0
 22 23  2  0
 23 24  1  0
 24 25  1  0
 23 26  1  0
 26 27  2  0
 27 28  1  0
 28 29  2  0
  7  2  1  0
 13  8  1  0
 24 20  1  0
 29 22  1  0
  1 30  1  0
  1 31  1  0
  1 32  1  0
  2 33  1  6
  3 34  1  0
  3 35  1  0
  5 36  1  0
  5 37  1  0
  6 38  1  0
  6 39  1  0
  7 40  1  6
  9 41  1  0
 10 42  1  0
 12 43  1  0
 19 44  1  0
 19 45  1  0
 25 46  1  0
 25 47  1  0
 25 48  1  0
 26 49  1  0
 27 50  1  0
 28 51  1  0
M  END
>  <Ligand ID>  (1) 
LIG0005535

>  <Ligand>  (1) 
CHEMBL1774233

>  <SMILES>  (1) 
C[C@H]1CN(CC[C@H]1c1ccc(cc1F)C(F)(F)F)Cc1nc2c(n1C)cccn2

>  <CID>  (1) 
51357937.0

>  <ChEMBL ID>  (1) 
nan

>  <InChiKey>  (1) 
FVYBXACUKLZYDM-DZGCQCFKSA-N

>  <InChi>  (1) 
InChI=1S/C21H22F4N4/c1-13-11-29(12-19-27-20-18(28(19)2)4-3-8-26-20)9-7-15(13)16-6-5-14(10-17(16)22)21(23,24)25/h3-6,8,10,13,15H,7,9,11-12H2,1-2H3/t13-,15+/m0/s1

>  <IUPAC Name>  (1) 
2-[[(3R,4R)-4-[2-fluoro-4-(trifluoromethyl)phenyl]-3-methylpiperidin-1-yl]methyl]-1-methylimidazo[4,5-b]pyridine

$$$$
