
     RDKit          3D

 53 56  0  0  0  0  0  0  0  0999 V2000
    7.7992   -1.8915   -0.5869 C   0  0  0  0  0  0  0  0  0  0  0  0
    6.5008   -1.7383    0.0473 N   0  0  0  0  0  0  0  0  0  0  0  0
    5.7892   -0.5129   -0.0804 C   0  0  0  0  0  0  0  0  0  0  0  0
    6.3486    0.3948   -0.7594 O   0  0  0  0  0  0  0  0  0  0  0  0
    4.4837   -0.2964    0.5316 C   0  0  0  0  0  0  0  0  0  0  0  0
    3.8415   -1.2264    1.2594 N   0  0  0  0  0  0  0  0  0  0  0  0
    2.6323   -0.9850    1.8156 C   0  0  0  0  0  0  0  0  0  0  0  0
    1.9754    0.2243    1.6775 C   0  0  0  0  0  0  0  0  0  0  0  0
    2.6143    1.1940    0.9355 C   0  0  0  0  0  0  0  0  0  0  0  0
    3.8648    0.9247    0.3679 C   0  0  0  0  0  0  0  0  0  0  0  0
    2.0628    2.5472    0.6945 C   0  0  0  0  0  0  0  0  0  0  0  0
    1.0483    2.5321   -0.7810 S   0  0  0  0  0  0  0  0  0  0  0  0
   -0.4285    1.5495   -0.6050 C   0  0  0  0  0  0  0  0  0  0  0  0
   -1.5254    2.1836   -0.1232 N   0  0  0  0  0  0  0  0  0  0  0  0
   -2.7141    1.5976    0.0704 C   0  0  0  0  0  0  0  0  0  0  0  0
   -3.8041    2.3604    0.5893 N   0  0  0  0  0  0  0  0  0  0  0  0
   -3.9929    3.7486    0.9739 C   0  0  0  0  0  0  0  0  0  0  0  0
   -5.3321    3.4109    1.5629 C   0  0  0  0  0  0  0  0  0  0  0  0
   -5.1625    2.0569    0.9473 C   0  0  0  0  0  0  0  0  0  0  0  0
   -6.4027    4.1596    1.0726 O   0  0  0  0  0  0  0  0  0  0  0  0
   -2.8274    0.2562   -0.2433 C   0  0  0  0  0  0  0  0  0  0  0  0
   -1.7186   -0.4144   -0.7384 C   0  0  0  0  0  0  0  0  0  0  0  0
   -0.4981    0.2156   -0.9295 C   0  0  0  0  0  0  0  0  0  0  0  0
    0.6590   -0.4397   -1.4342 C   0  0  0  0  0  0  0  0  0  0  0  0
    1.6046   -0.9822   -1.8674 N   0  0  0  0  0  0  0  0  0  0  0  0
   -1.7903   -1.8339   -1.0877 C   0  0  0  0  0  0  0  0  0  0  0  0
   -2.1504   -2.2147   -2.3615 C   0  0  0  0  0  0  0  0  0  0  0  0
   -2.2131   -3.5437   -2.6815 C   0  0  0  0  0  0  0  0  0  0  0  0
   -1.9226   -4.5371   -1.7540 C   0  0  0  0  0  0  0  0  0  0  0  0
   -1.5573   -4.1631   -0.4623 C   0  0  0  0  0  0  0  0  0  0  0  0
   -1.5026   -2.7986   -0.1676 C   0  0  0  0  0  0  0  0  0  0  0  0
   -1.2685   -5.1004    0.4601 F   0  0  0  0  0  0  0  0  0  0  0  0
   -1.9833   -5.8597   -2.0689 F   0  0  0  0  0  0  0  0  0  0  0  0
   -4.0806   -0.4147   -0.0528 C   0  0  0  0  0  0  0  0  0  0  0  0
   -5.0991   -0.9566    0.0826 N   0  0  0  0  0  0  0  0  0  0  0  0
    8.0026   -1.0270   -1.2444 H   0  0  0  0  0  0  0  0  0  0  0  0
    7.9219   -2.8173   -1.1492 H   0  0  0  0  0  0  0  0  0  0  0  0
    8.5763   -1.9256    0.2256 H   0  0  0  0  0  0  0  0  0  0  0  0
    6.0959   -2.5335    0.5959 H   0  0  0  0  0  0  0  0  0  0  0  0
    2.1440   -1.7712    2.4010 H   0  0  0  0  0  0  0  0  0  0  0  0
    1.0167    0.4401    2.1083 H   0  0  0  0  0  0  0  0  0  0  0  0
    4.3783    1.6742   -0.2171 H   0  0  0  0  0  0  0  0  0  0  0  0
    2.8864    3.2685    0.5266 H   0  0  0  0  0  0  0  0  0  0  0  0
    1.4853    2.9311    1.5557 H   0  0  0  0  0  0  0  0  0  0  0  0
   -3.2176    4.1308    1.6467 H   0  0  0  0  0  0  0  0  0  0  0  0
   -4.0822    4.3538    0.0311 H   0  0  0  0  0  0  0  0  0  0  0  0
   -5.2901    3.4569    2.6571 H   0  0  0  0  0  0  0  0  0  0  0  0
   -5.8655    1.8930    0.1212 H   0  0  0  0  0  0  0  0  0  0  0  0
   -5.2367    1.2827    1.7563 H   0  0  0  0  0  0  0  0  0  0  0  0
   -5.9762    4.9413    0.5991 H   0  0  0  0  0  0  0  0  0  0  0  0
   -2.3748   -1.4291   -3.0745 H   0  0  0  0  0  0  0  0  0  0  0  0
   -2.4923   -3.8468   -3.6704 H   0  0  0  0  0  0  0  0  0  0  0  0
   -1.2219   -2.4685    0.8276 H   0  0  0  0  0  0  0  0  0  0  0  0
  1  2  1  0
  2  3  1  0
  3  4  2  0
  3  5  1  0
  5  6  2  0
  6  7  1  0
  7  8  2  0
  8  9  1  0
  9 10  2  0
  9 11  1  0
 11 12  1  0
 12 13  1  0
 13 14  2  0
 14 15  1  0
 15 16  1  0
 16 17  1  0
 17 18  1  0
 18 19  1  0
 18 20  1  0
 15 21  2  0
 21 22  1  0
 22 23  2  0
 23 24  1  0
 24 25  3  0
 22 26  1  0
 26 27  2  0
 27 28  1  0
 28 29  2  0
 29 30  1  0
 30 31  2  0
 30 32  1  0
 29 33  1  0
 21 34  1  0
 34 35  3  0
 10  5  1  0
 23 13  1  0
 31 26  1  0
 19 16  1  0
  1 36  1  0
  1 37  1  0
  1 38  1  0
  2 39  1  0
  7 40  1  0
  8 41  1  0
 10 42  1  0
 11 43  1  0
 11 44  1  0
 17 45  1  0
 17 46  1  0
 18 47  1  0
 19 48  1  0
 19 49  1  0
 20 50  1  0
 27 51  1  0
 28 52  1  0
 31 53  1  0
M  END
>  <Ligand ID>  (1) 
LIG0004668

>  <Ligand>  (1) 
SCHEMBL3358194

>  <SMILES>  (1) 
CNC(=O)c1nccc(c1)CSc1nc(N2CC(C2)O)c(c(c1C#N)c1ccc(c(c1)F)F)C#N

>  <CID>  (1) 
68611912.0

>  <ChEMBL ID>  (1) 
nan

>  <InChiKey>  (1) 
XTHDMKNADLTFBY-UHFFFAOYSA-N

>  <InChi>  (1) 
InChI=1S/C24H18F2N6O2S/c1-29-23(34)20-6-13(4-5-30-20)12-35-24-17(9-28)21(14-2-3-18(25)19(26)7-14)16(8-27)22(31-24)32-10-15(33)11-32/h2-7,15,33H,10-12H2,1H3,(H,29,34)

>  <IUPAC Name>  (1) 
4-[[3,5-dicyano-4-(3,4-difluorophenyl)-6-(3-hydroxyazetidin-1-yl)pyridin-2-yl]sulfanylmethyl]-N-methylpyridine-2-carboxamide

$$$$
