
     RDKit          3D

 74 77  0  0  0  0  0  0  0  0999 V2000
   -7.4161   -5.0478    0.9136 N   0  0  0  0  0  0  0  0  0  0  0  0
   -6.1865   -4.2634    0.9155 C   0  0  0  0  0  0  0  0  0  0  0  0
   -5.7902   -4.0910   -0.5290 C   0  0  0  0  0  0  0  0  0  0  0  0
   -4.5093   -3.2837   -0.6746 C   0  0  0  0  0  0  0  0  0  0  0  0
   -4.7417   -1.9195   -0.0650 C   0  0  0  0  0  0  0  0  0  0  0  0
   -3.5122   -1.1621   -0.2121 N   0  0  0  0  0  0  0  0  0  0  0  0
   -3.3995    0.1942    0.2724 C   0  0  0  0  0  0  0  0  0  0  0  0
   -4.4155    0.6881    0.8266 O   0  0  0  0  0  0  0  0  0  0  0  0
   -2.1295    0.9638    0.1167 C   0  0  2  0  0  0  0  0  0  0  0  0
   -2.3455    2.2449   -0.6823 C   0  0  0  0  0  0  0  0  0  0  0  0
   -3.3126    3.1367   -0.0408 C   0  0  0  0  0  0  0  0  0  0  0  0
   -4.6275    3.3759   -0.3805 C   0  0  0  0  0  0  0  0  0  0  0  0
   -5.1837    4.2689    0.4616 N   0  0  0  0  0  0  0  0  0  0  0  0
   -4.2168    4.6079    1.3525 C   0  0  0  0  0  0  0  0  0  0  0  0
   -3.0508    3.9210    1.0624 C   0  0  0  0  0  0  0  0  0  0  0  0
   -1.9017    4.0779    1.8139 C   0  0  0  0  0  0  0  0  0  0  0  0
   -1.8848    4.9328    2.8858 C   0  0  0  0  0  0  0  0  0  0  0  0
   -3.0441    5.6179    3.1769 C   0  0  0  0  0  0  0  0  0  0  0  0
   -4.2054    5.4803    2.4434 C   0  0  0  0  0  0  0  0  0  0  0  0
   -1.1658    0.1161   -0.5558 N   0  0  0  0  0  0  0  0  0  0  0  0
    0.0608   -0.2978    0.0835 C   0  0  0  0  0  0  0  0  0  0  0  0
    0.2259    0.1261    1.2502 O   0  0  0  0  0  0  0  0  0  0  0  0
    0.9662   -1.1234   -0.6160 N   0  0  0  0  0  0  0  0  0  0  0  0
    2.1569   -1.6142   -0.1827 N   0  0  0  0  0  0  0  0  0  0  0  0
    2.6331   -1.3422    1.1051 C   0  0  0  0  0  0  0  0  0  0  0  0
    3.6245   -0.1774    1.0264 C   0  0  0  0  0  0  0  0  0  0  0  0
    4.9381   -0.7159    0.4355 C   0  0  0  0  0  0  0  0  0  0  0  0
    4.5612   -1.6768   -0.6415 C   0  0  0  0  0  0  0  0  0  0  0  0
    3.1756   -1.4193   -1.1964 C   0  0  0  0  0  0  0  0  0  0  0  0
    5.6518    0.4909   -0.1171 C   0  0  0  0  0  0  0  0  0  0  0  0
    6.9426    0.2276   -0.7429 C   0  0  0  0  0  0  0  0  0  0  0  0
    8.0702    0.2056    0.0526 C   0  0  0  0  0  0  0  0  0  0  0  0
    9.3320   -0.0219   -0.4358 C   0  0  0  0  0  0  0  0  0  0  0  0
    9.5232   -0.2469   -1.8032 C   0  0  0  0  0  0  0  0  0  0  0  0
    8.3941   -0.2287   -2.6263 C   0  0  0  0  0  0  0  0  0  0  0  0
    7.1414    0.0044   -2.0943 C   0  0  0  0  0  0  0  0  0  0  0  0
   -7.2195   -6.0510    1.1191 H   0  0  0  0  0  0  0  0  0  0  0  0
   -7.9460   -4.9137    0.0074 H   0  0  0  0  0  0  0  0  0  0  0  0
   -5.4093   -4.7555    1.5208 H   0  0  0  0  0  0  0  0  0  0  0  0
   -6.4362   -3.2972    1.4066 H   0  0  0  0  0  0  0  0  0  0  0  0
   -6.6124   -3.6219   -1.0755 H   0  0  0  0  0  0  0  0  0  0  0  0
   -5.6413   -5.1304   -0.9252 H   0  0  0  0  0  0  0  0  0  0  0  0
   -4.2555   -3.1809   -1.7343 H   0  0  0  0  0  0  0  0  0  0  0  0
   -3.6797   -3.7867   -0.1403 H   0  0  0  0  0  0  0  0  0  0  0  0
   -4.9240   -1.9883    1.0264 H   0  0  0  0  0  0  0  0  0  0  0  0
   -5.5995   -1.4795   -0.5963 H   0  0  0  0  0  0  0  0  0  0  0  0
   -2.6609   -1.5541   -0.6683 H   0  0  0  0  0  0  0  0  0  0  0  0
   -1.7214    1.2044    1.1391 H   0  0  0  0  0  0  0  0  0  0  0  0
   -2.5842    1.9820   -1.7146 H   0  0  0  0  0  0  0  0  0  0  0  0
   -1.3414    2.7416   -0.7043 H   0  0  0  0  0  0  0  0  0  0  0  0
   -5.1208    2.8958   -1.2176 H   0  0  0  0  0  0  0  0  0  0  0  0
   -6.1642    4.6172    0.4210 H   0  0  0  0  0  0  0  0  0  0  0  0
   -0.9918    3.5363    1.5804 H   0  0  0  0  0  0  0  0  0  0  0  0
   -1.0131    5.0706    3.4788 H   0  0  0  0  0  0  0  0  0  0  0  0
   -3.0594    6.3089    4.0308 H   0  0  0  0  0  0  0  0  0  0  0  0
   -5.1083    6.0377    2.6985 H   0  0  0  0  0  0  0  0  0  0  0  0
   -1.3886   -0.1854   -1.5176 H   0  0  0  0  0  0  0  0  0  0  0  0
    0.6673   -1.3887   -1.6081 H   0  0  0  0  0  0  0  0  0  0  0  0
    1.9349   -1.2697    1.9301 H   0  0  0  0  0  0  0  0  0  0  0  0
    3.3066   -2.2112    1.3919 H   0  0  0  0  0  0  0  0  0  0  0  0
    3.2884    0.6010    0.3406 H   0  0  0  0  0  0  0  0  0  0  0  0
    3.8139    0.2431    2.0271 H   0  0  0  0  0  0  0  0  0  0  0  0
    5.5378   -1.2103    1.2305 H   0  0  0  0  0  0  0  0  0  0  0  0
    4.4935   -2.7152   -0.1916 H   0  0  0  0  0  0  0  0  0  0  0  0
    5.2674   -1.6634   -1.4861 H   0  0  0  0  0  0  0  0  0  0  0  0
    3.0009   -2.1849   -1.9807 H   0  0  0  0  0  0  0  0  0  0  0  0
    3.0407   -0.4211   -1.6289 H   0  0  0  0  0  0  0  0  0  0  0  0
    5.7020    1.2352    0.7059 H   0  0  0  0  0  0  0  0  0  0  0  0
    4.9801    0.9574   -0.8844 H   0  0  0  0  0  0  0  0  0  0  0  0
    7.9903    0.3732    1.1259 H   0  0  0  0  0  0  0  0  0  0  0  0
   10.2057   -0.0350    0.2017 H   0  0  0  0  0  0  0  0  0  0  0  0
   10.5037   -0.4290   -2.2183 H   0  0  0  0  0  0  0  0  0  0  0  0
    8.4814   -0.3968   -3.6908 H   0  0  0  0  0  0  0  0  0  0  0  0
    6.3045    0.0166   -2.7704 H   0  0  0  0  0  0  0  0  0  0  0  0
  1  2  1  0
  2  3  1  0
  3  4  1  0
  4  5  1  0
  5  6  1  0
  6  7  1  0
  7  8  2  0
  7  9  1  0
  9 10  1  0
 10 11  1  0
 11 12  2  0
 12 13  1  0
 13 14  1  0
 14 15  2  0
 15 16  1  0
 16 17  2  0
 17 18  1  0
 18 19  2  0
  9 20  1  0
 20 21  1  0
 21 22  2  0
 21 23  1  0
 23 24  1  0
 24 25  1  0
 25 26  1  0
 26 27  1  0
 27 28  1  0
 28 29  1  0
 27 30  1  0
 30 31  1  0
 31 32  2  0
 32 33  1  0
 33 34  2  0
 34 35  1  0
 35 36  2  0
 15 11  1  0
 29 24  1  0
 36 31  1  0
 19 14  1  0
  1 37  1  0
  1 38  1  0
  2 39  1  0
  2 40  1  0
  3 41  1  0
  3 42  1  0
  4 43  1  0
  4 44  1  0
  5 45  1  0
  5 46  1  0
  6 47  1  0
  9 48  1  1
 10 49  1  0
 10 50  1  0
 12 51  1  0
 13 52  1  0
 16 53  1  0
 17 54  1  0
 18 55  1  0
 19 56  1  0
 20 57  1  0
 23 58  1  0
 25 59  1  0
 25 60  1  0
 26 61  1  0
 26 62  1  0
 27 63  1  0
 28 64  1  0
 28 65  1  0
 29 66  1  0
 29 67  1  0
 30 68  1  0
 30 69  1  0
 32 70  1  0
 33 71  1  0
 34 72  1  0
 35 73  1  0
 36 74  1  0
M  END
>  <Ligand ID>  (1) 
LIG0001381

>  <Ligand>  (1) 
CHEMBL63850

>  <SMILES>  (1) 
NCCCCNC(=O)[C@H](Cc1c[nH]c2c1cccc2)NC(=O)NN1CCC(CC1)Cc1ccccc1

>  <CID>  (1) 
44305763.0

>  <ChEMBL ID>  (1) 
nan

>  <InChiKey>  (1) 
VUYFAMFIIFAPOD-SANMLTNESA-N

>  <InChi>  (1) 
InChI=1S/C28H38N6O2/c29-14-6-7-15-30-27(35)26(19-23-20-31-25-11-5-4-10-24(23)25)32-28(36)33-34-16-12-22(13-17-34)18-21-8-2-1-3-9-21/h1-5,8-11,20,22,26,31H,6-7,12-19,29H2,(H,30,35)(H2,32,33,36)/t26-/m0/s1

>  <IUPAC Name>  (1) 
(2S)-N-(4-aminobutyl)-2-[(4-benzylpiperidin-1-yl)carbamoylamino]-3-(1H-indol-3-yl)propanamide

$$$$
