
     RDKit          3D

 51 54  0  0  0  0  0  0  0  0999 V2000
   -7.8223   -0.4709    1.6469 O   0  0  0  0  0  0  0  0  0  0  0  0
   -6.4794   -0.8970    1.6693 C   0  0  0  0  0  0  0  0  0  0  0  0
   -5.6963    0.2557    1.0331 C   0  0  1  0  0  0  0  0  0  0  0  0
   -4.3566   -0.0131    0.9834 O   0  0  0  0  0  0  0  0  0  0  0  0
   -3.8830    0.5023   -0.2300 C   0  0  2  0  0  0  0  0  0  0  0  0
   -4.9485   -0.0528   -1.1653 C   0  0  1  0  0  0  0  0  0  0  0  0
   -6.2012    0.3381   -0.4022 C   0  0  2  0  0  0  0  0  0  0  0  0
   -6.5232    1.6812   -0.6525 O   0  0  0  0  0  0  0  0  0  0  0  0
   -4.8917    0.5498   -2.4146 O   0  0  0  0  0  0  0  0  0  0  0  0
   -2.5762    0.0080   -0.5500 N   0  0  0  0  0  0  0  0  0  0  0  0
   -2.3209   -1.1118   -1.2431 C   0  0  0  0  0  0  0  0  0  0  0  0
   -0.9737   -1.2408   -1.3384 N   0  0  0  0  0  0  0  0  0  0  0  0
   -0.4091   -0.2120   -0.7111 C   0  0  0  0  0  0  0  0  0  0  0  0
   -1.4153    0.5948   -0.2021 C   0  0  0  0  0  0  0  0  0  0  0  0
   -1.0977    1.6967    0.4731 N   0  0  0  0  0  0  0  0  0  0  0  0
    0.1870    2.0254    0.6605 C   0  0  0  0  0  0  0  0  0  0  0  0
    1.1634    1.2460    0.1687 N   0  0  0  0  0  0  0  0  0  0  0  0
    0.9410    0.1150   -0.5256 C   0  0  0  0  0  0  0  0  0  0  0  0
    1.9768   -0.7044   -1.0457 N   0  0  0  0  0  0  0  0  0  0  0  0
    3.3869   -0.4214   -0.8862 C   0  0  1  0  0  0  0  0  0  0  0  0
    3.7247   -0.4207    0.5934 C   0  0  0  0  0  0  0  0  0  0  0  0
    5.1897   -0.1291    0.7901 C   0  0  0  0  0  0  0  0  0  0  0  0
    5.6051    1.1891    0.9337 C   0  0  0  0  0  0  0  0  0  0  0  0
    6.9359    1.4680    1.1134 C   0  0  0  0  0  0  0  0  0  0  0  0
    7.9048    0.4836    1.1599 C   0  0  0  0  0  0  0  0  0  0  0  0
    7.4647   -0.8262    1.0140 C   0  0  0  0  0  0  0  0  0  0  0  0
    6.1300   -1.1406    0.8313 C   0  0  0  0  0  0  0  0  0  0  0  0
    4.2126   -1.4193   -1.6483 C   0  0  0  0  0  0  0  0  0  0  0  0
   -7.8132    0.4906    1.8584 H   0  0  0  0  0  0  0  0  0  0  0  0
   -6.1198   -1.1645    2.6631 H   0  0  0  0  0  0  0  0  0  0  0  0
   -6.4149   -1.7975    1.0259 H   0  0  0  0  0  0  0  0  0  0  0  0
   -5.9071    1.1977    1.5788 H   0  0  0  0  0  0  0  0  0  0  0  0
   -3.9725    1.5863   -0.1831 H   0  0  0  0  0  0  0  0  0  0  0  0
   -4.9163   -1.1441   -1.1776 H   0  0  0  0  0  0  0  0  0  0  0  0
   -7.0497   -0.3214   -0.6110 H   0  0  0  0  0  0  0  0  0  0  0  0
   -6.7408    2.1346    0.2186 H   0  0  0  0  0  0  0  0  0  0  0  0
   -3.9653    0.4171   -2.7491 H   0  0  0  0  0  0  0  0  0  0  0  0
   -3.0113   -1.8349   -1.6805 H   0  0  0  0  0  0  0  0  0  0  0  0
    0.3884    2.9349    1.2185 H   0  0  0  0  0  0  0  0  0  0  0  0
    1.6916   -1.5588   -1.5725 H   0  0  0  0  0  0  0  0  0  0  0  0
    3.6531    0.5841   -1.2967 H   0  0  0  0  0  0  0  0  0  0  0  0
    3.1247    0.3349    1.1250 H   0  0  0  0  0  0  0  0  0  0  0  0
    3.4796   -1.3882    1.0676 H   0  0  0  0  0  0  0  0  0  0  0  0
    4.8913    2.0221    0.9071 H   0  0  0  0  0  0  0  0  0  0  0  0
    7.2661    2.4997    1.2264 H   0  0  0  0  0  0  0  0  0  0  0  0
    8.9562    0.7170    1.3029 H   0  0  0  0  0  0  0  0  0  0  0  0
    8.2272   -1.5945    1.0510 H   0  0  0  0  0  0  0  0  0  0  0  0
    5.7967   -2.1727    0.7179 H   0  0  0  0  0  0  0  0  0  0  0  0
    5.2392   -1.0692   -1.8524 H   0  0  0  0  0  0  0  0  0  0  0  0
    3.7147   -1.5741   -2.6372 H   0  0  0  0  0  0  0  0  0  0  0  0
    4.2546   -2.3924   -1.1199 H   0  0  0  0  0  0  0  0  0  0  0  0
  1  2  1  0
  2  3  1  0
  3  4  1  0
  4  5  1  0
  5  6  1  0
  6  7  1  0
  7  8  1  0
  6  9  1  0
  5 10  1  0
 10 11  1  0
 11 12  2  0
 12 13  1  0
 13 14  2  0
 14 15  1  0
 15 16  2  0
 16 17  1  0
 17 18  2  0
 18 19  1  0
 19 20  1  0
 20 21  1  0
 21 22  1  0
 22 23  2  0
 23 24  1  0
 24 25  2  0
 25 26  1  0
 26 27  2  0
 20 28  1  0
  7  3  1  0
 14 10  1  0
 27 22  1  0
 18 13  1  0
  1 29  1  0
  2 30  1  0
  2 31  1  0
  3 32  1  1
  5 33  1  1
  6 34  1  6
  7 35  1  1
  8 36  1  0
  9 37  1  0
 11 38  1  0
 16 39  1  0
 19 40  1  0
 20 41  1  6
 21 42  1  0
 21 43  1  0
 23 44  1  0
 24 45  1  0
 25 46  1  0
 26 47  1  0
 27 48  1  0
 28 49  1  0
 28 50  1  0
 28 51  1  0
M  END
>  <Ligand ID>  (1) 
LIG0005462

>  <Ligand>  (1) 
(R)-PIA

>  <SMILES>  (1) 
OC[C@H]1O[C@H]([C@@H]([C@@H]1O)O)n1cnc2c1ncnc2N[C@@H](Cc1ccccc1)C

>  <CID>  (1) 
93205.0

>  <ChEMBL ID>  (1) 
nan

>  <InChiKey>  (1) 
RIRGCFBBHQEQQH-SSFGXONLSA-N

>  <InChi>  (1) 
InChI=1S/C19H23N5O4/c1-11(7-12-5-3-2-4-6-12)23-17-14-18(21-9-20-17)24(10-22-14)19-16(27)15(26)13(8-25)28-19/h2-6,9-11,13,15-16,19,25-27H,7-8H2,1H3,(H,20,21,23)/t11-,13-,15-,16-,19-/m1/s1

>  <IUPAC Name>  (1) 
(2R,3S,4R,5R)-2-(hydroxymethyl)-5-[6-[[(2R)-1-phenylpropan-2-yl]amino]purin-9-yl]oxolane-3,4-diol

$$$$
