
     RDKit          3D

 65 67  0  0  0  0  0  0  0  0999 V2000
   11.6976    1.2778    1.3962 O   0  0  0  0  0  0  0  0  0  0  0  0
   10.6544    2.1443    1.7034 C   0  0  0  0  0  0  0  0  0  0  0  0
   10.9411    3.2937    2.1280 O   0  0  0  0  0  0  0  0  0  0  0  0
    9.2147    1.7205    1.5333 C   0  0  0  0  0  0  0  0  0  0  0  0
    9.1732    0.3189    1.0177 C   0  0  0  0  0  0  0  0  0  0  0  0
    7.8162   -0.1346    0.8470 N   0  0  0  0  0  0  0  0  0  0  0  0
    7.1983    0.5813   -0.2197 C   0  0  0  0  0  0  0  0  0  0  0  0
    5.7801    0.1331   -0.4506 C   0  0  0  0  0  0  0  0  0  0  0  0
    4.7176    0.9000   -0.0216 C   0  0  0  0  0  0  0  0  0  0  0  0
    3.4318    0.4634   -0.2431 C   0  0  0  0  0  0  0  0  0  0  0  0
    3.1302   -0.7264   -0.8851 C   0  0  0  0  0  0  0  0  0  0  0  0
    4.1973   -1.4815   -1.3077 C   0  0  0  0  0  0  0  0  0  0  0  0
    5.5147   -1.0574   -1.0934 C   0  0  0  0  0  0  0  0  0  0  0  0
    6.9955   -2.1046   -1.6795 Br  0  0  0  0  0  0  0  0  0  0  0  0
    1.7278   -1.1349   -1.0815 C   0  0  0  0  0  0  0  0  0  0  0  0
    0.8393   -0.3537   -0.6343 N   0  0  0  0  0  0  0  0  0  0  0  0
   -0.4558   -0.4517   -0.6614 O   0  0  0  0  0  0  0  0  0  0  0  0
   -1.3097   -1.2458   -1.3901 C   0  0  0  0  0  0  0  0  0  0  0  0
   -2.7113   -0.8462   -0.9381 C   0  0  0  0  0  0  0  0  0  0  0  0
   -3.4081    0.1471   -1.5872 C   0  0  0  0  0  0  0  0  0  0  0  0
   -4.6680    0.4408   -1.0972 C   0  0  0  0  0  0  0  0  0  0  0  0
   -5.2033   -0.2404    0.0037 C   0  0  0  0  0  0  0  0  0  0  0  0
   -4.5074   -1.2348    0.6538 C   0  0  0  0  0  0  0  0  0  0  0  0
   -3.2360   -1.5164    0.1431 C   0  0  0  0  0  0  0  0  0  0  0  0
   -5.0183   -1.9796    1.7895 C   0  0  0  0  0  0  0  0  0  0  0  0
   -4.0475   -2.9103    2.1964 F   0  0  0  0  0  0  0  0  0  0  0  0
   -6.2172   -2.6178    1.6330 F   0  0  0  0  0  0  0  0  0  0  0  0
   -5.1385   -1.1281    2.8698 F   0  0  0  0  0  0  0  0  0  0  0  0
   -6.5419    0.1753    0.4412 C   0  0  0  0  0  0  0  0  0  0  0  0
   -6.3871    1.4652    1.2282 C   0  0  0  0  0  0  0  0  0  0  0  0
   -7.7909    2.0707    1.3265 C   0  0  0  0  0  0  0  0  0  0  0  0
   -8.8413    0.9761    1.3070 C   0  0  0  0  0  0  0  0  0  0  0  0
   -8.9019    0.2985   -0.0578 C   0  0  0  0  0  0  0  0  0  0  0  0
   -7.5083    0.4704   -0.6696 C   0  0  0  0  0  0  0  0  0  0  0  0
    1.3323   -2.3818   -1.7610 C   0  0  0  0  0  0  0  0  0  0  0  0
   12.6683    1.5564    1.3525 H   0  0  0  0  0  0  0  0  0  0  0  0
    8.7833    2.4858    0.8738 H   0  0  0  0  0  0  0  0  0  0  0  0
    8.6632    1.8198    2.5002 H   0  0  0  0  0  0  0  0  0  0  0  0
    9.6734    0.3288    0.0120 H   0  0  0  0  0  0  0  0  0  0  0  0
    9.7333   -0.3111    1.7383 H   0  0  0  0  0  0  0  0  0  0  0  0
    7.7385   -1.1677    0.7710 H   0  0  0  0  0  0  0  0  0  0  0  0
    7.7958    0.5561   -1.1421 H   0  0  0  0  0  0  0  0  0  0  0  0
    7.1412    1.6598    0.0697 H   0  0  0  0  0  0  0  0  0  0  0  0
    4.8853    1.8519    0.4932 H   0  0  0  0  0  0  0  0  0  0  0  0
    2.6201    1.0791    0.1003 H   0  0  0  0  0  0  0  0  0  0  0  0
    4.0974   -2.4201   -1.8142 H   0  0  0  0  0  0  0  0  0  0  0  0
   -1.2190   -2.3481   -1.2334 H   0  0  0  0  0  0  0  0  0  0  0  0
   -1.3509   -1.0269   -2.4970 H   0  0  0  0  0  0  0  0  0  0  0  0
   -2.9960    0.6593   -2.4210 H   0  0  0  0  0  0  0  0  0  0  0  0
   -5.2243    1.2194   -1.6001 H   0  0  0  0  0  0  0  0  0  0  0  0
   -2.6275   -2.3017    0.6186 H   0  0  0  0  0  0  0  0  0  0  0  0
   -6.9836   -0.5239    1.2044 H   0  0  0  0  0  0  0  0  0  0  0  0
   -5.7096    2.1701    0.6677 H   0  0  0  0  0  0  0  0  0  0  0  0
   -6.0480    1.3023    2.2678 H   0  0  0  0  0  0  0  0  0  0  0  0
   -7.9214    2.6131    2.2794 H   0  0  0  0  0  0  0  0  0  0  0  0
   -8.0153    2.7645    0.5040 H   0  0  0  0  0  0  0  0  0  0  0  0
   -8.6993    0.2471    2.1312 H   0  0  0  0  0  0  0  0  0  0  0  0
   -9.8093    1.4614    1.4764 H   0  0  0  0  0  0  0  0  0  0  0  0
   -9.0195   -0.8177    0.0732 H   0  0  0  0  0  0  0  0  0  0  0  0
   -9.6988    0.7060   -0.6813 H   0  0  0  0  0  0  0  0  0  0  0  0
   -7.4481    1.5241   -1.0086 H   0  0  0  0  0  0  0  0  0  0  0  0
   -7.3806   -0.1515   -1.5656 H   0  0  0  0  0  0  0  0  0  0  0  0
    0.9698   -3.1804   -1.0723 H   0  0  0  0  0  0  0  0  0  0  0  0
    2.2491   -2.8520   -2.2277 H   0  0  0  0  0  0  0  0  0  0  0  0
    0.6629   -2.2351   -2.6374 H   0  0  0  0  0  0  0  0  0  0  0  0
  1  2  1  0
  2  3  2  0
  2  4  1  0
  4  5  1  0
  5  6  1  0
  6  7  1  0
  7  8  1  0
  8  9  2  0
  9 10  1  0
 10 11  2  0
 11 12  1  0
 12 13  2  0
 13 14  1  0
 11 15  1  0
 15 16  2  0
 16 17  1  0
 17 18  1  0
 18 19  1  0
 19 20  2  0
 20 21  1  0
 21 22  2  0
 22 23  1  0
 23 24  2  0
 23 25  1  0
 25 26  1  0
 25 27  1  0
 25 28  1  0
 22 29  1  0
 29 30  1  0
 30 31  1  0
 31 32  1  0
 32 33  1  0
 33 34  1  0
 15 35  1  0
 13  8  1  0
 24 19  1  0
 34 29  1  0
  1 36  1  0
  4 37  1  0
  4 38  1  0
  5 39  1  0
  5 40  1  0
  6 41  1  0
  7 42  1  0
  7 43  1  0
  9 44  1  0
 10 45  1  0
 12 46  1  0
 18 47  1  0
 18 48  1  0
 20 49  1  0
 21 50  1  0
 24 51  1  0
 29 52  1  0
 30 53  1  0
 30 54  1  0
 31 55  1  0
 31 56  1  0
 32 57  1  0
 32 58  1  0
 33 59  1  0
 33 60  1  0
 34 61  1  0
 34 62  1  0
 35 63  1  0
 35 64  1  0
 35 65  1  0
M  END
>  <Ligand ID>  (1) 
LIG0005571

>  <Ligand>  (1) 
CHEMBL2336066

>  <SMILES>  (1) 
OC(=O)CCNCc1ccc(cc1Br)/C(=N/OCc1ccc(c(c1)C(F)(F)F)C1CCCCC1)/C

>  <CID>  (1) 
44625752.0

>  <ChEMBL ID>  (1) 
nan

>  <InChiKey>  (1) 
MKLBCKJXIOCLSN-VTNSRFBWSA-N

>  <InChi>  (1) 
InChI=1S/C26H30BrF3N2O3/c1-17(20-8-9-21(24(27)14-20)15-31-12-11-25(33)34)32-35-16-18-7-10-22(19-5-3-2-4-6-19)23(13-18)26(28,29)30/h7-10,13-14,19,31H,2-6,11-12,15-16H2,1H3,(H,33,34)/b32-17+

>  <IUPAC Name>  (1) 
3-[[2-bromo-4-[(E)-N-[[4-cyclohexyl-3-(trifluoromethyl)phenyl]methoxy]-C-methylcarbonimidoyl]phenyl]methylamino]propanoic acid

$$$$
