
     RDKit          3D

 62 64  0  0  0  0  0  0  0  0999 V2000
   -8.1936    3.3132   -0.9141 O   0  0  0  0  0  0  0  0  0  0  0  0
   -7.2056    3.4661    0.0256 C   0  0  0  0  0  0  0  0  0  0  0  0
   -7.3863    4.2328    1.0152 O   0  0  0  0  0  0  0  0  0  0  0  0
   -5.8831    2.7612   -0.0457 C   0  0  0  0  0  0  0  0  0  0  0  0
   -5.7948    1.8889   -1.2566 C   0  0  0  0  0  0  0  0  0  0  0  0
   -4.4668    1.2038   -1.3003 C   0  0  0  0  0  0  0  0  0  0  0  0
   -4.1815    0.3204   -0.1135 C   0  0  0  0  0  0  0  0  0  0  0  0
   -2.8259   -0.3268   -0.2478 C   0  0  0  0  0  0  0  0  0  0  0  0
   -1.9517   -0.0386    0.7382 C   0  0  0  0  0  0  0  0  0  0  0  0
   -0.5649   -0.5265    0.8657 C   0  0  0  0  0  0  0  0  0  0  0  0
   -0.4612   -2.0227    0.7857 C   0  0  1  0  0  0  0  0  0  0  0  0
   -1.4605   -2.6219   -0.1820 C   0  0  1  0  0  0  0  0  0  0  0  0
   -1.4465   -1.8480   -1.3341 O   0  0  0  0  0  0  0  0  0  0  0  0
   -2.6668   -1.1847   -1.4522 C   0  0  0  0  0  0  0  0  0  0  0  0
   -0.8636   -3.9651   -0.5246 C   0  0  0  0  0  0  0  0  0  0  0  0
    0.5523   -3.9609    0.0121 C   0  0  2  0  0  0  0  0  0  0  0  0
    0.8335   -2.4767    0.1390 C   0  0  2  0  0  0  0  0  0  0  0  0
    2.0102   -2.1966    0.9942 C   0  0  0  0  0  0  0  0  0  0  0  0
    3.0245   -1.4180    0.6243 C   0  0  0  0  0  0  0  0  0  0  0  0
    4.1965   -1.1523    1.5034 C   0  0  2  0  0  0  0  0  0  0  0  0
    4.2455    0.2292    2.0345 C   0  0  0  0  0  0  0  0  0  0  0  0
    4.3277    1.2498    1.1559 O   0  0  0  0  0  0  0  0  0  0  0  0
    5.1409    1.7688    0.2411 C   0  0  0  0  0  0  0  0  0  0  0  0
    4.6725    2.9028   -0.4493 C   0  0  0  0  0  0  0  0  0  0  0  0
    5.3925    3.5439   -1.4092 C   0  0  0  0  0  0  0  0  0  0  0  0
    6.6360    3.0962   -1.7489 C   0  0  0  0  0  0  0  0  0  0  0  0
    7.1494    1.9960   -1.1124 C   0  0  0  0  0  0  0  0  0  0  0  0
    6.3999    1.3520   -0.1323 C   0  0  0  0  0  0  0  0  0  0  0  0
    5.3178   -1.4617    0.7802 O   0  0  0  0  0  0  0  0  0  0  0  0
    1.4451   -4.5591   -0.8669 O   0  0  0  0  0  0  0  0  0  0  0  0
   -9.0641    3.8491   -0.8829 H   0  0  0  0  0  0  0  0  0  0  0  0
   -5.0882    3.5178   -0.0358 H   0  0  0  0  0  0  0  0  0  0  0  0
   -5.8512    2.1057    0.8694 H   0  0  0  0  0  0  0  0  0  0  0  0
   -6.6397    1.1678   -1.2617 H   0  0  0  0  0  0  0  0  0  0  0  0
   -5.8939    2.4762   -2.1784 H   0  0  0  0  0  0  0  0  0  0  0  0
   -4.4322    0.5830   -2.2283 H   0  0  0  0  0  0  0  0  0  0  0  0
   -3.6768    1.9832   -1.3865 H   0  0  0  0  0  0  0  0  0  0  0  0
   -4.9236   -0.4843   -0.0093 H   0  0  0  0  0  0  0  0  0  0  0  0
   -4.1929    0.9330    0.8192 H   0  0  0  0  0  0  0  0  0  0  0  0
   -2.3556    0.6352    1.5094 H   0  0  0  0  0  0  0  0  0  0  0  0
   -0.1817   -0.2140    1.8594 H   0  0  0  0  0  0  0  0  0  0  0  0
    0.0668   -0.0799    0.0671 H   0  0  0  0  0  0  0  0  0  0  0  0
   -0.5904   -2.5355    1.7474 H   0  0  0  0  0  0  0  0  0  0  0  0
   -2.4709   -2.7089    0.2611 H   0  0  0  0  0  0  0  0  0  0  0  0
   -3.4477   -1.9823   -1.4109 H   0  0  0  0  0  0  0  0  0  0  0  0
   -2.7005   -0.5917   -2.3804 H   0  0  0  0  0  0  0  0  0  0  0  0
   -0.7710   -4.1327   -1.6291 H   0  0  0  0  0  0  0  0  0  0  0  0
   -1.4735   -4.7794   -0.0861 H   0  0  0  0  0  0  0  0  0  0  0  0
    0.6167   -4.3935    1.0384 H   0  0  0  0  0  0  0  0  0  0  0  0
    0.9026   -2.0535   -0.8629 H   0  0  0  0  0  0  0  0  0  0  0  0
    2.0294   -2.6613    1.9754 H   0  0  0  0  0  0  0  0  0  0  0  0
    2.9987   -0.9528   -0.3660 H   0  0  0  0  0  0  0  0  0  0  0  0
    4.1431   -1.9250    2.3266 H   0  0  0  0  0  0  0  0  0  0  0  0
    5.2139    0.2577    2.6586 H   0  0  0  0  0  0  0  0  0  0  0  0
    3.4839    0.3976    2.8558 H   0  0  0  0  0  0  0  0  0  0  0  0
    3.6893    3.2997   -0.2171 H   0  0  0  0  0  0  0  0  0  0  0  0
    4.9822    4.4138   -1.9093 H   0  0  0  0  0  0  0  0  0  0  0  0
    7.1776    3.6187   -2.5054 H   0  0  0  0  0  0  0  0  0  0  0  0
    8.1505    1.6233   -1.3755 H   0  0  0  0  0  0  0  0  0  0  0  0
    6.8737    0.5184    0.3347 H   0  0  0  0  0  0  0  0  0  0  0  0
    5.1731   -1.4724   -0.2040 H   0  0  0  0  0  0  0  0  0  0  0  0
    2.2609   -3.9785   -0.8948 H   0  0  0  0  0  0  0  0  0  0  0  0
  1  2  1  0
  2  3  2  0
  2  4  1  0
  4  5  1  0
  5  6  1  0
  6  7  1  0
  7  8  1  0
  8  9  2  0
  9 10  1  0
 10 11  1  0
 11 12  1  0
 12 13  1  0
 13 14  1  0
 12 15  1  0
 15 16  1  0
 16 17  1  0
 17 18  1  0
 18 19  2  0
 19 20  1  0
 20 21  1  0
 21 22  1  0
 22 23  1  0
 23 24  2  0
 24 25  1  0
 25 26  2  0
 26 27  1  0
 27 28  2  0
 20 29  1  0
 16 30  1  0
 14  8  1  0
 28 23  1  0
 17 11  1  0
  1 31  1  0
  4 32  1  0
  4 33  1  0
  5 34  1  0
  5 35  1  0
  6 36  1  0
  6 37  1  0
  7 38  1  0
  7 39  1  0
  9 40  1  0
 10 41  1  0
 10 42  1  0
 11 43  1  1
 12 44  1  1
 14 45  1  0
 14 46  1  0
 15 47  1  0
 15 48  1  0
 16 49  1  1
 17 50  1  6
 18 51  1  0
 19 52  1  0
 20 53  1  1
 21 54  1  0
 21 55  1  0
 24 56  1  0
 25 57  1  0
 26 58  1  0
 27 59  1  0
 28 60  1  0
 29 61  1  0
 30 62  1  0
M  END
>  <Ligand ID>  (1) 
LIG0002911

>  <Ligand>  (1) 
CHEMBL3904644

>  <SMILES>  (1) 
OC(=O)CCCCC1=CC[C@H]2[C@@H](OC1)C[C@H]([C@@H]2/C=C/[C@H](COc1ccccc1)O)O

>  <CID>  (1) 
68751402.0

>  <ChEMBL ID>  (1) 
nan

>  <InChiKey>  (1) 
GFDQGLQBMQZFJT-MCWCYXQTSA-N

>  <InChi>  (1) 
InChI=1S/C24H32O6/c25-18(16-29-19-7-2-1-3-8-19)11-13-20-21-12-10-17(6-4-5-9-24(27)28)15-30-23(21)14-22(20)26/h1-3,7-8,10-11,13,18,20-23,25-26H,4-6,9,12,14-16H2,(H,27,28)/b13-11+/t18-,20-,21-,22-,23+/m1/s1

>  <IUPAC Name>  (1) 
5-[(5aR,6R,7R,8aS)-7-hydroxy-6-[(E,3R)-3-hydroxy-4-phenoxybut-1-enyl]-5,5a,6,7,8,8a-hexahydro-2H-cyclopenta[b]oxepin-3-yl]pentanoic acid

$$$$
