
     RDKit          3D

 30 29  0  0  0  0  0  0  0  0999 V2000
    5.5072    0.3755    1.0050 O   0  0  0  0  0  0  0  0  0  0  0  0
    4.1976    0.0841    1.1617 N   0  0  0  0  0  0  0  0  0  0  0  0
    3.2787    0.2832    0.0807 C   0  0  0  0  0  0  0  0  0  0  0  0
    3.6293    0.7263   -1.0385 O   0  0  0  0  0  0  0  0  0  0  0  0
    1.8591   -0.0675    0.3538 C   0  0  0  0  0  0  0  0  0  0  0  0
    0.9832    0.1802   -0.8475 C   0  0  0  0  0  0  0  0  0  0  0  0
   -0.4837   -0.1802   -0.5771 C   0  0  1  0  0  0  0  0  0  0  0  0
   -0.6243   -1.5890   -0.2222 C   0  0  0  0  0  0  0  0  0  0  0  0
   -1.0187   -2.0741    0.8441 O   0  0  0  0  0  0  0  0  0  0  0  0
   -0.2649   -2.5248   -1.2223 O   0  0  0  0  0  0  0  0  0  0  0  0
   -1.0617    0.8161    0.3512 C   0  0  0  0  0  0  0  0  0  0  0  0
   -2.4893    0.6687    0.7326 C   0  0  1  0  0  0  0  0  0  0  0  0
   -3.3241    0.7275   -0.5070 C   0  0  0  0  0  0  0  0  0  0  0  0
   -4.2290   -0.1205   -0.7085 O   0  0  0  0  0  0  0  0  0  0  0  0
   -3.0482    1.7475   -1.3996 O   0  0  0  0  0  0  0  0  0  0  0  0
   -2.8248   -0.4009    1.6038 N   0  0  0  0  0  0  0  0  0  0  0  0
    6.0134   -0.4279    0.7205 H   0  0  0  0  0  0  0  0  0  0  0  0
    3.8626   -0.2889    2.0826 H   0  0  0  0  0  0  0  0  0  0  0  0
    1.5497    0.5697    1.2066 H   0  0  0  0  0  0  0  0  0  0  0  0
    1.7910   -1.1159    0.6849 H   0  0  0  0  0  0  0  0  0  0  0  0
    1.3653   -0.2997   -1.7602 H   0  0  0  0  0  0  0  0  0  0  0  0
    0.9860    1.2852   -1.0545 H   0  0  0  0  0  0  0  0  0  0  0  0
   -0.9928   -0.0411   -1.5755 H   0  0  0  0  0  0  0  0  0  0  0  0
   -0.3109   -3.5130   -1.0590 H   0  0  0  0  0  0  0  0  0  0  0  0
   -0.4459    0.9538    1.2829 H   0  0  0  0  0  0  0  0  0  0  0  0
   -0.9877    1.8160   -0.1816 H   0  0  0  0  0  0  0  0  0  0  0  0
   -2.7487    1.6196    1.2965 H   0  0  0  0  0  0  0  0  0  0  0  0
   -3.6025    1.8050   -2.2527 H   0  0  0  0  0  0  0  0  0  0  0  0
   -3.6685   -0.9072    1.2608 H   0  0  0  0  0  0  0  0  0  0  0  0
   -2.8973   -0.1077    2.6030 H   0  0  0  0  0  0  0  0  0  0  0  0
  1  2  1  0
  2  3  1  0
  3  4  2  0
  3  5  1  0
  5  6  1  0
  6  7  1  0
  7  8  1  0
  8  9  2  0
  8 10  1  0
  7 11  1  0
 11 12  1  0
 12 13  1  0
 13 14  2  0
 13 15  1  0
 12 16  1  0
  1 17  1  0
  2 18  1  0
  5 19  1  0
  5 20  1  0
  6 21  1  0
  6 22  1  0
  7 23  1  6
 10 24  1  0
 11 25  1  0
 11 26  1  0
 12 27  1  1
 15 28  1  0
 16 29  1  0
 16 30  1  0
M  END
>  <Ligand ID>  (1) 
LIG0000577

>  <Ligand>  (1) 
CHEMBL2312683

>  <SMILES>  (1) 
ONC(=O)CC[C@@H](C(=O)O)C[C@@H](C(=O)O)N

>  <CID>  (1) 
71574838.0

>  <ChEMBL ID>  (1) 
nan

>  <InChiKey>  (1) 
VMZWGONYFYNQHE-UHNVWZDZSA-N

>  <InChi>  (1) 
InChI=1S/C8H14N2O6/c9-5(8(14)15)3-4(7(12)13)1-2-6(11)10-16/h4-5,16H,1-3,9H2,(H,10,11)(H,12,13)(H,14,15)/t4-,5+/m1/s1

>  <IUPAC Name>  (1) 
(2S,4R)-2-amino-4-[3-(hydroxyamino)-3-oxopropyl]pentanedioic acid

$$$$
