
     RDKit          3D

 21 22  0  0  0  0  0  0  0  0999 V2000
    2.9604    0.5037   -0.8471 N   0  0  0  0  0  0  0  0  0  0  0  0
    1.6753    1.0967   -0.3955 C   0  0  0  0  0  0  0  0  0  0  0  0
    1.1872    0.1701    0.6579 C   0  0  2  0  0  0  0  0  0  0  0  0
    0.9642   -1.2505    0.0650 C   0  0  0  0  0  0  0  0  0  0  0  0
   -0.0937   -0.4535    0.8413 C   0  0  2  0  0  0  0  0  0  0  0  0
   -1.3675   -0.1173    0.1903 C   0  0  0  0  0  0  0  0  0  0  0  0
   -1.7312    0.8590   -0.6876 C   0  0  0  0  0  0  0  0  0  0  0  0
   -3.0469    0.7118   -0.9942 N   0  0  0  0  0  0  0  0  0  0  0  0
   -3.5124   -0.3394   -0.3230 C   0  0  0  0  0  0  0  0  0  0  0  0
   -2.5003   -0.8448    0.3955 N   0  0  0  0  0  0  0  0  0  0  0  0
    3.7347    0.8352   -0.2343 H   0  0  0  0  0  0  0  0  0  0  0  0
    3.1235    0.6351   -1.8483 H   0  0  0  0  0  0  0  0  0  0  0  0
    1.0607    1.0698   -1.3300 H   0  0  0  0  0  0  0  0  0  0  0  0
    1.8708    2.1166   -0.0403 H   0  0  0  0  0  0  0  0  0  0  0  0
    1.9071    0.1659    1.5486 H   0  0  0  0  0  0  0  0  0  0  0  0
    1.5111   -2.0615    0.5350 H   0  0  0  0  0  0  0  0  0  0  0  0
    0.7423   -1.3405   -1.0032 H   0  0  0  0  0  0  0  0  0  0  0  0
   -0.2305   -0.9784    1.8544 H   0  0  0  0  0  0  0  0  0  0  0  0
   -1.1463    1.6533   -1.1097 H   0  0  0  0  0  0  0  0  0  0  0  0
   -4.5156   -0.7439   -0.3285 H   0  0  0  0  0  0  0  0  0  0  0  0
   -2.5929   -1.6875    1.0236 H   0  0  0  0  0  0  0  0  0  0  0  0
  1  2  1  0
  2  3  1  0
  3  4  1  0
  4  5  1  0
  5  6  1  0
  6  7  2  0
  7  8  1  0
  8  9  2  0
  9 10  1  0
  5  3  1  0
 10  6  1  0
  1 11  1  0
  1 12  1  0
  2 13  1  0
  2 14  1  0
  3 15  1  1
  4 16  1  0
  4 17  1  0
  5 18  1  1
  7 19  1  0
  9 20  1  0
 10 21  1  0
M  END
>  <Ligand ID>  (1) 
LIG0001195

>  <Ligand>  (1) 
CHEMBL305135

>  <SMILES>  (1) 
NC[C@@H]1C[C@@H]1c1cnc[nH]1

>  <CID>  (1) 
11126319.0

>  <ChEMBL ID>  (1) 
nan

>  <InChiKey>  (1) 
LMFNLINKCDGRTE-WDSKDSINSA-N

>  <InChi>  (1) 
InChI=1S/C7H11N3/c8-2-5-1-6(5)7-3-9-4-10-7/h3-6H,1-2,8H2,(H,9,10)/t5-,6-/m0/s1

>  <IUPAC Name>  (1) 
[(1R,2S)-2-(1H-imidazol-5-yl)cyclopropyl]methanamine

$$$$
