
     RDKit          3D

 49 52  0  0  0  0  0  0  0  0999 V2000
    2.8183   -0.2039   -3.1166 C   0  0  0  0  0  0  0  0  0  0  0  0
    3.6975    0.8441   -2.4715 C   0  0  0  0  0  0  0  0  0  0  0  0
    4.2674    0.4178   -1.2532 O   0  0  0  0  0  0  0  0  0  0  0  0
    3.5392    0.0383   -0.1473 C   0  0  0  0  0  0  0  0  0  0  0  0
    2.1630    0.0274   -0.0865 C   0  0  0  0  0  0  0  0  0  0  0  0
    1.4512   -0.3536    1.0228 C   0  0  0  0  0  0  0  0  0  0  0  0
    2.1349   -0.7487    2.1428 C   0  0  0  0  0  0  0  0  0  0  0  0
    3.5260   -0.7495    2.1154 C   0  0  0  0  0  0  0  0  0  0  0  0
    4.2271   -0.3594    0.9801 C   0  0  0  0  0  0  0  0  0  0  0  0
    5.6156   -0.3623    0.9589 O   0  0  0  0  0  0  0  0  0  0  0  0
    6.4134   -0.7439    2.0376 C   0  0  0  0  0  0  0  0  0  0  0  0
    7.9047   -0.6356    1.6947 C   0  0  0  0  0  0  0  0  0  0  0  0
   -0.0191   -0.3412    1.0185 C   0  0  0  0  0  0  0  0  0  0  0  0
   -0.8053   -0.6765    1.9985 O   0  0  0  0  0  0  0  0  0  0  0  0
   -2.0444   -0.5279    1.5979 N   0  0  0  0  0  0  0  0  0  0  0  0
   -2.0607   -0.0856    0.3277 C   0  0  0  0  0  0  0  0  0  0  0  0
   -0.7799    0.0299   -0.0312 N   0  0  0  0  0  0  0  0  0  0  0  0
   -3.1943    0.2237   -0.5363 C   0  0  0  0  0  0  0  0  0  0  0  0
   -3.0115    0.6740   -1.8344 C   0  0  0  0  0  0  0  0  0  0  0  0
   -4.0656    0.9731   -2.6711 C   0  0  0  0  0  0  0  0  0  0  0  0
   -5.3763    0.8296   -2.2299 C   0  0  0  0  0  0  0  0  0  0  0  0
   -5.5601    0.3816   -0.9382 C   0  0  0  0  0  0  0  0  0  0  0  0
   -4.4997    0.0858   -0.1115 C   0  0  0  0  0  0  0  0  0  0  0  0
   -4.9917   -0.3716    1.2140 C   0  0  0  0  0  0  0  0  0  0  0  0
   -6.4804   -0.2196    1.1767 C   0  0  0  0  0  0  0  0  0  0  0  0
   -6.8518    0.1435   -0.2258 C   0  0  0  0  0  0  0  0  0  0  0  0
   -7.6542    1.2858   -0.2802 O   0  0  0  0  0  0  0  0  0  0  0  0
    3.2267   -0.4907   -4.1176 H   0  0  0  0  0  0  0  0  0  0  0  0
    1.8213    0.2297   -3.3347 H   0  0  0  0  0  0  0  0  0  0  0  0
    2.7688   -1.1017   -2.4664 H   0  0  0  0  0  0  0  0  0  0  0  0
    4.5094    1.1099   -3.1900 H   0  0  0  0  0  0  0  0  0  0  0  0
    3.1009    1.7871   -2.3302 H   0  0  0  0  0  0  0  0  0  0  0  0
    1.5924    0.3343   -0.9522 H   0  0  0  0  0  0  0  0  0  0  0  0
    1.6197   -1.0620    3.0532 H   0  0  0  0  0  0  0  0  0  0  0  0
    4.0625   -1.0593    2.9935 H   0  0  0  0  0  0  0  0  0  0  0  0
    6.2200   -0.1666    2.9610 H   0  0  0  0  0  0  0  0  0  0  0  0
    6.2446   -1.8236    2.2558 H   0  0  0  0  0  0  0  0  0  0  0  0
    8.2460   -1.5147    1.1082 H   0  0  0  0  0  0  0  0  0  0  0  0
    8.5105   -0.6204    2.6241 H   0  0  0  0  0  0  0  0  0  0  0  0
    8.0967    0.3203    1.1635 H   0  0  0  0  0  0  0  0  0  0  0  0
   -2.0010    0.7977   -2.2123 H   0  0  0  0  0  0  0  0  0  0  0  0
   -3.8805    1.3213   -3.6756 H   0  0  0  0  0  0  0  0  0  0  0  0
   -6.1922    1.0689   -2.8998 H   0  0  0  0  0  0  0  0  0  0  0  0
   -4.6630   -1.4159    1.3853 H   0  0  0  0  0  0  0  0  0  0  0  0
   -4.5165    0.2893    1.9930 H   0  0  0  0  0  0  0  0  0  0  0  0
   -6.7605    0.6072    1.8661 H   0  0  0  0  0  0  0  0  0  0  0  0
   -6.9954   -1.1402    1.5455 H   0  0  0  0  0  0  0  0  0  0  0  0
   -7.3380   -0.7334   -0.7019 H   0  0  0  0  0  0  0  0  0  0  0  0
   -8.0353    1.5396    0.5796 H   0  0  0  0  0  0  0  0  0  0  0  0
  1  2  1  0
  2  3  1  0
  3  4  1  0
  4  5  2  0
  5  6  1  0
  6  7  2  0
  7  8  1  0
  8  9  2  0
  9 10  1  0
 10 11  1  0
 11 12  1  0
  6 13  1  0
 13 14  1  0
 14 15  1  0
 15 16  2  0
 16 17  1  0
 16 18  1  0
 18 19  2  0
 19 20  1  0
 20 21  2  0
 21 22  1  0
 22 23  2  0
 23 24  1  0
 24 25  1  0
 25 26  1  0
 26 27  1  0
  9  4  1  0
 17 13  2  0
 23 18  1  0
 26 22  1  0
  1 28  1  0
  1 29  1  0
  1 30  1  0
  2 31  1  0
  2 32  1  0
  5 33  1  0
  7 34  1  0
  8 35  1  0
 11 36  1  0
 11 37  1  0
 12 38  1  0
 12 39  1  0
 12 40  1  0
 19 41  1  0
 20 42  1  0
 21 43  1  0
 24 44  1  0
 24 45  1  0
 25 46  1  0
 25 47  1  0
 26 48  1  0
 27 49  1  0
M  END
>  <Ligand ID>  (1) 
LIG0001955

>  <Ligand>  (1) 
SCHEMBL1413281

>  <SMILES>  (1) 
CCOc1cc(ccc1OCC)c1onc(n1)c1cccc2c1CCC2O

>  <CID>  (1) 
25110382.0

>  <ChEMBL ID>  (1) 
nan

>  <InChiKey>  (1) 
RFNAOFFZMHTEFM-UHFFFAOYSA-N

>  <InChi>  (1) 
InChI=1S/C21H22N2O4/c1-3-25-18-11-8-13(12-19(18)26-4-2)21-22-20(23-27-21)16-7-5-6-15-14(16)9-10-17(15)24/h5-8,11-12,17,24H,3-4,9-10H2,1-2H3

>  <IUPAC Name>  (1) 
4-[5-(3,4-diethoxyphenyl)-1,2,4-oxadiazol-3-yl]-2,3-dihydro-1H-inden-1-ol

$$$$
