
     RDKit          3D

 52 54  0  0  0  0  0  0  0  0999 V2000
   -4.5482   -1.4148   -1.6121 O   0  0  0  0  0  0  0  0  0  0  0  0
   -4.8047   -0.0748   -1.9008 C   0  0  0  0  0  0  0  0  0  0  0  0
   -4.4937    0.8550   -0.7556 C   0  0  0  0  0  0  0  0  0  0  0  0
   -5.3697    0.5007    0.4284 C   0  0  0  0  0  0  0  0  0  0  0  0
   -5.0100   -0.7938    0.8479 O   0  0  0  0  0  0  0  0  0  0  0  0
   -6.0051   -1.1703    2.1751 P   0  0  0  0  0  0  0  0  0  0  0  0
   -5.5777   -0.3377    3.3459 O   0  0  0  0  0  0  0  0  0  0  0  0
   -5.9027   -2.8299    2.4565 O   0  0  0  0  0  0  0  0  0  0  0  0
   -7.6190   -0.7532    1.8154 O   0  0  0  0  0  0  0  0  0  0  0  0
   -3.0574    0.7494   -0.3046 C   0  0  0  0  0  0  0  0  0  0  0  0
   -2.1592    1.1006   -1.4431 C   0  0  0  0  0  0  0  0  0  0  0  0
   -0.7054    1.0167   -1.0445 C   0  0  0  0  0  0  0  0  0  0  0  0
   -0.0700    2.1359   -0.5262 C   0  0  0  0  0  0  0  0  0  0  0  0
    1.2675    2.0746   -0.1548 C   0  0  0  0  0  0  0  0  0  0  0  0
    1.9288    0.8735   -0.3196 C   0  0  0  0  0  0  0  0  0  0  0  0
    1.3209   -0.2548   -0.8326 C   0  0  0  0  0  0  0  0  0  0  0  0
   -0.0156   -0.1735   -1.1979 C   0  0  0  0  0  0  0  0  0  0  0  0
    3.3333    0.8081    0.0702 C   0  0  0  0  0  0  0  0  0  0  0  0
    4.0500    1.8382    0.5858 N   0  0  0  0  0  0  0  0  0  0  0  0
    5.2685    1.4164    0.8154 N   0  0  0  0  0  0  0  0  0  0  0  0
    5.3800    0.1514    0.4713 N   0  0  0  0  0  0  0  0  0  0  0  0
    4.1885   -0.2739   -0.0026 C   0  0  0  0  0  0  0  0  0  0  0  0
    6.5683   -0.5996    0.5941 C   0  0  0  0  0  0  0  0  0  0  0  0
    6.6523   -1.6678    1.4718 C   0  0  0  0  0  0  0  0  0  0  0  0
    7.7861   -2.4271    1.6257 C   0  0  0  0  0  0  0  0  0  0  0  0
    8.9029   -2.1104    0.8658 C   0  0  0  0  0  0  0  0  0  0  0  0
    8.8267   -1.0352   -0.0213 C   0  0  0  0  0  0  0  0  0  0  0  0
    7.6777   -0.2848   -0.1609 C   0  0  0  0  0  0  0  0  0  0  0  0
   10.3955   -3.0372    1.0060 Cl  0  0  0  0  0  0  0  0  0  0  0  0
   -4.8206    2.2034   -1.2450 N   0  0  0  0  0  0  0  0  0  0  0  0
   -3.5770   -1.5136   -1.4851 H   0  0  0  0  0  0  0  0  0  0  0  0
   -5.9070    0.0762   -2.1126 H   0  0  0  0  0  0  0  0  0  0  0  0
   -4.2741    0.2376   -2.8113 H   0  0  0  0  0  0  0  0  0  0  0  0
   -6.4474    0.5731    0.2097 H   0  0  0  0  0  0  0  0  0  0  0  0
   -5.1445    1.1619    1.2878 H   0  0  0  0  0  0  0  0  0  0  0  0
   -6.5295   -3.0522    3.2105 H   0  0  0  0  0  0  0  0  0  0  0  0
   -7.7036    0.2449    1.8643 H   0  0  0  0  0  0  0  0  0  0  0  0
   -2.9196   -0.3010    0.0165 H   0  0  0  0  0  0  0  0  0  0  0  0
   -2.9131    1.4642    0.5341 H   0  0  0  0  0  0  0  0  0  0  0  0
   -2.4316    2.0923   -1.8298 H   0  0  0  0  0  0  0  0  0  0  0  0
   -2.3345    0.3792   -2.2672 H   0  0  0  0  0  0  0  0  0  0  0  0
   -0.6393    3.0621   -0.4164 H   0  0  0  0  0  0  0  0  0  0  0  0
    1.7487    2.9598    0.2489 H   0  0  0  0  0  0  0  0  0  0  0  0
    1.8584   -1.1905   -0.9546 H   0  0  0  0  0  0  0  0  0  0  0  0
   -0.5645   -1.0143   -1.6081 H   0  0  0  0  0  0  0  0  0  0  0  0
    3.9326   -1.2645   -0.3721 H   0  0  0  0  0  0  0  0  0  0  0  0
    5.7588   -1.8939    2.0564 H   0  0  0  0  0  0  0  0  0  0  0  0
    7.8448   -3.2665    2.3186 H   0  0  0  0  0  0  0  0  0  0  0  0
    9.7244   -0.8222   -0.5966 H   0  0  0  0  0  0  0  0  0  0  0  0
    7.6420    0.5401   -0.8515 H   0  0  0  0  0  0  0  0  0  0  0  0
   -4.7480    2.9081   -0.4785 H   0  0  0  0  0  0  0  0  0  0  0  0
   -5.7642    2.1343   -1.6604 H   0  0  0  0  0  0  0  0  0  0  0  0
  1  2  1  0
  2  3  1  0
  3  4  1  0
  4  5  1  0
  5  6  1  0
  6  7  2  0
  6  8  1  0
  6  9  1  0
  3 10  1  0
 10 11  1  0
 11 12  1  0
 12 13  2  0
 13 14  1  0
 14 15  2  0
 15 16  1  0
 16 17  2  0
 15 18  1  0
 18 19  1  0
 19 20  2  0
 20 21  1  0
 21 22  1  0
 21 23  1  0
 23 24  2  0
 24 25  1  0
 25 26  2  0
 26 27  1  0
 27 28  2  0
 26 29  1  0
  3 30  1  0
 17 12  1  0
 22 18  2  0
 28 23  1  0
  1 31  1  0
  2 32  1  0
  2 33  1  0
  4 34  1  0
  4 35  1  0
  8 36  1  0
  9 37  1  0
 10 38  1  0
 10 39  1  0
 11 40  1  0
 11 41  1  0
 13 42  1  0
 14 43  1  0
 16 44  1  0
 17 45  1  0
 22 46  1  0
 24 47  1  0
 25 48  1  0
 27 49  1  0
 28 50  1  0
 30 51  1  0
 30 52  1  0
M  END
>  <Ligand ID>  (1) 
LIG0005914

>  <Ligand>  (1) 
CHEMBL3342005

>  <SMILES>  (1) 
OCC(COP(=O)(O)O)(CCc1ccc(cc1)c1nnn(c1)c1ccc(cc1)Cl)N

>  <CID>  (1) 
118716180.0

>  <ChEMBL ID>  (1) 
nan

>  <InChiKey>  (1) 
LAFSMQLHDNOBNZ-UHFFFAOYSA-N

>  <InChi>  (1) 
InChI=1S/C19H22ClN4O5P/c20-16-5-7-17(8-6-16)24-11-18(22-23-24)15-3-1-14(2-4-15)9-10-19(21,12-25)13-29-30(26,27)28/h1-8,11,25H,9-10,12-13,21H2,(H2,26,27,28)

>  <IUPAC Name>  (1) 
[2-amino-4-[4-[1-(4-chlorophenyl)triazol-4-yl]phenyl]-2-(hydroxymethyl)butyl] dihydrogen phosphate

$$$$
