
     RDKit          3D

 58 62  0  0  0  0  0  0  0  0999 V2000
   -2.6082    4.8776    1.7318 C   0  0  0  0  0  0  0  0  0  0  0  0
   -3.0464    4.2685    0.6397 C   0  0  0  0  0  0  0  0  0  0  0  0
   -2.1708    3.3031   -0.1455 C   0  0  0  0  0  0  0  0  0  0  0  0
   -2.9024    2.0515   -0.1046 N   0  0  0  0  0  0  0  0  0  0  0  0
   -2.6747    1.1342    0.8397 C   0  0  0  0  0  0  0  0  0  0  0  0
   -1.3491    1.1706    2.0095 S   0  0  0  0  0  0  0  0  0  0  0  0
    0.0034    0.1387    1.4479 C   0  0  0  0  0  0  0  0  0  0  0  0
    0.7099    0.5575    0.2342 C   0  0  0  0  0  0  0  0  0  0  0  0
    0.4961    1.5527   -0.4739 O   0  0  0  0  0  0  0  0  0  0  0  0
    1.7940   -0.2970   -0.1919 N   0  0  0  0  0  0  0  0  0  0  0  0
    2.1471   -1.5028    0.5358 C   0  0  0  0  0  0  0  0  0  0  0  0
    3.6310   -1.4988    0.8220 C   0  0  0  0  0  0  0  0  0  0  0  0
    4.3923   -1.1249   -0.3665 N   0  0  0  0  0  0  0  0  0  0  0  0
    3.6593   -0.9791   -1.5915 C   0  0  0  0  0  0  0  0  0  0  0  0
    2.5652    0.0302   -1.3628 C   0  0  0  0  0  0  0  0  0  0  0  0
    5.7797   -0.9410   -0.2108 C   0  0  0  0  0  0  0  0  0  0  0  0
    6.3376   -1.1529    1.0368 C   0  0  0  0  0  0  0  0  0  0  0  0
    7.7090   -0.9846    1.2538 C   0  0  0  0  0  0  0  0  0  0  0  0
    8.5528   -0.5964    0.2094 C   0  0  0  0  0  0  0  0  0  0  0  0
    7.9873   -0.3886   -1.0268 C   0  0  0  0  0  0  0  0  0  0  0  0
    6.6393   -0.5600   -1.2147 C   0  0  0  0  0  0  0  0  0  0  0  0
   -3.4803    0.0312    0.8552 N   0  0  0  0  0  0  0  0  0  0  0  0
   -4.4669   -0.1420   -0.0395 C   0  0  0  0  0  0  0  0  0  0  0  0
   -4.7075    0.8073   -1.0272 C   0  0  0  0  0  0  0  0  0  0  0  0
   -3.8900    1.9192   -1.0345 C   0  0  0  0  0  0  0  0  0  0  0  0
   -4.0822    2.8006   -1.9187 O   0  0  0  0  0  0  0  0  0  0  0  0
   -5.7401    0.3502   -1.7512 N   0  0  0  0  0  0  0  0  0  0  0  0
   -6.1510   -0.8482   -1.2506 C   0  0  0  0  0  0  0  0  0  0  0  0
   -5.3647   -1.1840   -0.1694 C   0  0  0  0  0  0  0  0  0  0  0  0
   -5.5710   -2.3670    0.5313 C   0  0  0  0  0  0  0  0  0  0  0  0
   -6.5642   -3.2504    0.1784 C   0  0  0  0  0  0  0  0  0  0  0  0
   -7.3594   -2.9200   -0.9076 C   0  0  0  0  0  0  0  0  0  0  0  0
   -7.1589   -1.7382   -1.6135 C   0  0  0  0  0  0  0  0  0  0  0  0
   -3.2605    5.5618    2.2694 H   0  0  0  0  0  0  0  0  0  0  0  0
   -1.6017    4.6835    2.0758 H   0  0  0  0  0  0  0  0  0  0  0  0
   -4.0574    4.4336    0.2540 H   0  0  0  0  0  0  0  0  0  0  0  0
   -1.9891    3.6764   -1.1677 H   0  0  0  0  0  0  0  0  0  0  0  0
   -1.2272    3.2905    0.4237 H   0  0  0  0  0  0  0  0  0  0  0  0
    0.7372    0.0409    2.3210 H   0  0  0  0  0  0  0  0  0  0  0  0
   -0.3419   -0.9513    1.3492 H   0  0  0  0  0  0  0  0  0  0  0  0
    1.6020   -1.6065    1.4852 H   0  0  0  0  0  0  0  0  0  0  0  0
    1.9668   -2.3529   -0.1624 H   0  0  0  0  0  0  0  0  0  0  0  0
    3.8594   -0.8160    1.6678 H   0  0  0  0  0  0  0  0  0  0  0  0
    3.9764   -2.5106    1.1311 H   0  0  0  0  0  0  0  0  0  0  0  0
    3.1562   -1.9435   -1.8898 H   0  0  0  0  0  0  0  0  0  0  0  0
    4.2715   -0.6498   -2.4400 H   0  0  0  0  0  0  0  0  0  0  0  0
    1.9693    0.0637   -2.2987 H   0  0  0  0  0  0  0  0  0  0  0  0
    3.0824    1.0274   -1.2773 H   0  0  0  0  0  0  0  0  0  0  0  0
    5.7732   -1.4547    1.9050 H   0  0  0  0  0  0  0  0  0  0  0  0
    8.1343   -1.1580    2.2527 H   0  0  0  0  0  0  0  0  0  0  0  0
    9.6214   -0.4627    0.3688 H   0  0  0  0  0  0  0  0  0  0  0  0
    8.6637   -0.0855   -1.8333 H   0  0  0  0  0  0  0  0  0  0  0  0
    6.2591   -0.3807   -2.2082 H   0  0  0  0  0  0  0  0  0  0  0  0
   -6.1415    0.8598   -2.5653 H   0  0  0  0  0  0  0  0  0  0  0  0
   -4.9086   -2.5548    1.3685 H   0  0  0  0  0  0  0  0  0  0  0  0
   -6.7259   -4.1683    0.7208 H   0  0  0  0  0  0  0  0  0  0  0  0
   -8.1503   -3.5820   -1.2192 H   0  0  0  0  0  0  0  0  0  0  0  0
   -7.7848   -1.4776   -2.4676 H   0  0  0  0  0  0  0  0  0  0  0  0
  1  2  2  0
  2  3  1  0
  3  4  1  0
  4  5  1  0
  5  6  1  0
  6  7  1  0
  7  8  1  0
  8  9  2  0
  8 10  1  0
 10 11  1  0
 11 12  1  0
 12 13  1  0
 13 14  1  0
 14 15  1  0
 13 16  1  0
 16 17  2  0
 17 18  1  0
 18 19  2  0
 19 20  1  0
 20 21  2  0
  5 22  2  0
 22 23  1  0
 23 24  2  0
 24 25  1  0
 25 26  2  0
 24 27  1  0
 27 28  1  0
 28 29  2  0
 29 30  1  0
 30 31  2  0
 31 32  1  0
 32 33  2  0
 25  4  1  0
 33 28  1  0
 15 10  1  0
 21 16  1  0
 29 23  1  0
  1 34  1  0
  1 35  1  0
  2 36  1  0
  3 37  1  0
  3 38  1  0
  7 39  1  0
  7 40  1  0
 11 41  1  0
 11 42  1  0
 12 43  1  0
 12 44  1  0
 14 45  1  0
 14 46  1  0
 15 47  1  0
 15 48  1  0
 17 49  1  0
 18 50  1  0
 19 51  1  0
 20 52  1  0
 21 53  1  0
 27 54  1  0
 30 55  1  0
 31 56  1  0
 32 57  1  0
 33 58  1  0
M  END
>  <Ligand ID>  (1) 
LIG0005624

>  <Ligand>  (1) 
MLS001236003

>  <SMILES>  (1) 
C=CCn1c(SCC(=O)N2CCN(CC2)c2ccccc2)nc2c(c1=O)[nH]c1c2cccc1

>  <CID>  (1) 
22583638.0

>  <ChEMBL ID>  (1) 
nan

>  <InChiKey>  (1) 
YKRZCGYOGDQZDI-UHFFFAOYSA-N

>  <InChi>  (1) 
InChI=1S/C25H25N5O2S/c1-2-12-30-24(32)23-22(19-10-6-7-11-20(19)26-23)27-25(30)33-17-21(31)29-15-13-28(14-16-29)18-8-4-3-5-9-18/h2-11,26H,1,12-17H2

>  <IUPAC Name>  (1) 
2-[2-oxo-2-(4-phenylpiperazin-1-yl)ethyl]sulfanyl-3-prop-2-enyl-5H-pyrimido[5,4-b]indol-4-one

$$$$
