
     RDKit          3D

 29 32  0  0  0  0  0  0  0  0999 V2000
   -6.2532   -0.0238   -2.2272 Cl  0  0  0  0  0  0  0  0  0  0  0  0
   -4.8000   -0.0851   -1.2655 C   0  0  0  0  0  0  0  0  0  0  0  0
   -3.5488   -0.3267   -1.7888 C   0  0  0  0  0  0  0  0  0  0  0  0
   -2.4067   -0.3693   -0.9921 C   0  0  0  0  0  0  0  0  0  0  0  0
   -2.5199   -0.1645    0.3646 C   0  0  0  0  0  0  0  0  0  0  0  0
   -3.7914    0.0769    0.8669 C   0  0  0  0  0  0  0  0  0  0  0  0
   -4.9037    0.1180    0.0881 C   0  0  0  0  0  0  0  0  0  0  0  0
   -1.4494   -0.1819    1.2730 N   0  0  0  0  0  0  0  0  0  0  0  0
   -1.5336   -0.5317    2.5679 N   0  0  0  0  0  0  0  0  0  0  0  0
   -0.3638   -0.4442    3.1459 N   0  0  0  0  0  0  0  0  0  0  0  0
    0.5185   -0.0341    2.2431 N   0  0  0  0  0  0  0  0  0  0  0  0
   -0.1623    0.1242    1.0928 C   0  0  0  0  0  0  0  0  0  0  0  0
    0.5806    0.6639   -0.4236 S   0  0  0  0  0  0  0  0  0  0  0  0
    2.3244    0.9692   -0.2432 C   0  0  0  0  0  0  0  0  0  0  0  0
    2.7454    2.1875    0.1153 N   0  0  0  0  0  0  0  0  0  0  0  0
    4.0294    2.5446    0.2847 C   0  0  0  0  0  0  0  0  0  0  0  0
    4.9526    1.6005    0.0760 N   0  0  0  0  0  0  0  0  0  0  0  0
    4.5745    0.3491   -0.2893 C   0  0  0  0  0  0  0  0  0  0  0  0
    3.2834   -0.0470   -0.4697 C   0  0  0  0  0  0  0  0  0  0  0  0
    3.0412   -1.3157   -0.8321 C   0  0  0  0  0  0  0  0  0  0  0  0
    4.1507   -2.1308   -0.9950 C   0  0  0  0  0  0  0  0  0  0  0  0
    5.6085   -1.0635   -0.6206 S   0  0  0  0  0  0  0  0  0  0  0  0
   -3.4848   -0.4851   -2.8611 H   0  0  0  0  0  0  0  0  0  0  0  0
   -1.4284   -0.5592   -1.4082 H   0  0  0  0  0  0  0  0  0  0  0  0
   -3.9105    0.2441    1.9487 H   0  0  0  0  0  0  0  0  0  0  0  0
   -5.8527    0.3088    0.5386 H   0  0  0  0  0  0  0  0  0  0  0  0
    4.3071    3.5466    0.5757 H   0  0  0  0  0  0  0  0  0  0  0  0
    2.0406   -1.7603   -1.0099 H   0  0  0  0  0  0  0  0  0  0  0  0
    4.2526   -3.2106   -1.2864 H   0  0  0  0  0  0  0  0  0  0  0  0
  1  2  1  0
  2  3  2  0
  3  4  1  0
  4  5  2  0
  5  6  1  0
  6  7  2  0
  5  8  1  0
  8  9  1  0
  9 10  2  0
 10 11  1  0
 11 12  2  0
 12 13  1  0
 13 14  1  0
 14 15  2  0
 15 16  1  0
 16 17  2  0
 17 18  1  0
 18 19  2  0
 19 20  1  0
 20 21  2  0
 21 22  1  0
  7  2  1  0
 12  8  1  0
 19 14  1  0
 22 18  1  0
  3 23  1  0
  4 24  1  0
  6 25  1  0
  7 26  1  0
 16 27  1  0
 20 28  1  0
 21 29  1  0
M  END
>  <Ligand ID>  (1) 
LIG0005962

>  <Ligand>  (1) 
MLS000058692

>  <SMILES>  (1) 
Clc1ccc(cc1)n1nnnc1Sc1ncnc2c1ccs2

>  <CID>  (1) 
2112599.0

>  <ChEMBL ID>  (1) 
nan

>  <InChiKey>  (1) 
FEXPLGPKTJVGOT-UHFFFAOYSA-N

>  <InChi>  (1) 
InChI=1S/C13H7ClN6S2/c14-8-1-3-9(4-2-8)20-13(17-18-19-20)22-12-10-5-6-21-11(10)15-7-16-12/h1-7H

>  <IUPAC Name>  (1) 
4-[1-(4-chlorophenyl)tetrazol-5-yl]sulfanylthieno[2,3-d]pyrimidine

$$$$
