
     RDKit          3D

 52 54  0  0  0  0  0  0  0  0999 V2000
   -1.2678    1.8798   -0.1851 O   0  0  0  0  0  0  0  0  0  0  0  0
   -0.1396    1.3733   -0.4162 C   0  0  0  0  0  0  0  0  0  0  0  0
    1.0080    2.3240   -0.4857 C   0  0  2  0  0  0  0  0  0  0  0  0
    1.0351    3.1993    0.7641 C   0  0  0  0  0  0  0  0  0  0  0  0
    0.9136    3.2372   -1.6519 C   0  0  0  0  0  0  0  0  0  0  0  0
    2.3074    3.3176   -2.2128 C   0  0  0  0  0  0  0  0  0  0  0  0
    2.9218    1.9434   -1.8821 C   0  0  0  0  0  0  0  0  0  0  0  0
    2.2660    1.6465   -0.6208 N   0  0  0  0  0  0  0  0  0  0  0  0
    2.8851    0.7605    0.3365 C   0  0  0  0  0  0  0  0  0  0  0  0
    4.0985    0.1703    0.0540 C   0  0  0  0  0  0  0  0  0  0  0  0
    4.7344   -0.6894    0.9521 C   0  0  0  0  0  0  0  0  0  0  0  0
    4.1360   -0.9616    2.1620 C   0  0  0  0  0  0  0  0  0  0  0  0
    2.9339   -0.3848    2.4565 C   0  0  0  0  0  0  0  0  0  0  0  0
    2.3115    0.4698    1.5524 C   0  0  0  0  0  0  0  0  0  0  0  0
    4.7517   -1.8663    3.1689 C   0  0  0  0  0  0  0  0  0  0  0  0
    3.8054   -2.6366    3.8105 F   0  0  0  0  0  0  0  0  0  0  0  0
    5.5428   -1.1721    4.0641 F   0  0  0  0  0  0  0  0  0  0  0  0
    5.5876   -2.7494    2.4923 F   0  0  0  0  0  0  0  0  0  0  0  0
   -0.0366   -0.0135   -0.5897 N   0  0  0  0  0  0  0  0  0  0  0  0
   -1.1242   -0.9245   -0.5235 C   0  0  0  0  0  0  0  0  0  0  0  0
   -1.0629   -2.2799   -0.6856 N   0  0  0  0  0  0  0  0  0  0  0  0
   -2.2484   -2.7943   -0.5602 O   0  0  0  0  0  0  0  0  0  0  0  0
   -3.1519   -1.8762   -0.3172 C   0  0  0  0  0  0  0  0  0  0  0  0
   -2.4652   -0.6809   -0.2888 C   0  0  0  0  0  0  0  0  0  0  0  0
   -4.5839   -2.1196   -0.1233 C   0  0  0  0  0  0  0  0  0  0  0  0
   -4.8996   -3.5960   -0.2393 C   0  0  0  0  0  0  0  0  0  0  0  0
   -5.4517   -1.3843   -1.1143 C   0  0  0  0  0  0  0  0  0  0  0  0
   -5.0438   -1.6819    1.2669 C   0  0  0  0  0  0  0  0  0  0  0  0
    1.9815    3.1349    1.3147 H   0  0  0  0  0  0  0  0  0  0  0  0
    0.8205    4.2787    0.5047 H   0  0  0  0  0  0  0  0  0  0  0  0
    0.1746    2.9013    1.3937 H   0  0  0  0  0  0  0  0  0  0  0  0
    0.4995    4.2392   -1.4056 H   0  0  0  0  0  0  0  0  0  0  0  0
    0.1999    2.7725   -2.3754 H   0  0  0  0  0  0  0  0  0  0  0  0
    2.8605    4.0991   -1.6304 H   0  0  0  0  0  0  0  0  0  0  0  0
    2.3437    3.5215   -3.2999 H   0  0  0  0  0  0  0  0  0  0  0  0
    4.0027    2.0947   -1.6770 H   0  0  0  0  0  0  0  0  0  0  0  0
    2.7056    1.2425   -2.6869 H   0  0  0  0  0  0  0  0  0  0  0  0
    4.6286    0.3350   -0.8737 H   0  0  0  0  0  0  0  0  0  0  0  0
    5.6795   -1.1450    0.7242 H   0  0  0  0  0  0  0  0  0  0  0  0
    2.4346   -0.5862    3.4172 H   0  0  0  0  0  0  0  0  0  0  0  0
    1.3738    0.8862    1.8391 H   0  0  0  0  0  0  0  0  0  0  0  0
    0.9089   -0.4120   -0.7881 H   0  0  0  0  0  0  0  0  0  0  0  0
   -2.9232    0.2574   -0.1123 H   0  0  0  0  0  0  0  0  0  0  0  0
   -5.9242   -3.8313    0.0847 H   0  0  0  0  0  0  0  0  0  0  0  0
   -4.6887   -3.8760   -1.2985 H   0  0  0  0  0  0  0  0  0  0  0  0
   -4.1309   -4.1229    0.3690 H   0  0  0  0  0  0  0  0  0  0  0  0
   -5.2268   -1.6182   -2.1543 H   0  0  0  0  0  0  0  0  0  0  0  0
   -6.5029   -1.6883   -0.9248 H   0  0  0  0  0  0  0  0  0  0  0  0
   -5.4474   -0.2759   -0.9130 H   0  0  0  0  0  0  0  0  0  0  0  0
   -6.1482   -1.7745    1.2969 H   0  0  0  0  0  0  0  0  0  0  0  0
   -4.7972   -0.6204    1.4012 H   0  0  0  0  0  0  0  0  0  0  0  0
   -4.5877   -2.3230    2.0269 H   0  0  0  0  0  0  0  0  0  0  0  0
  1  2  2  0
  2  3  1  0
  3  4  1  1
  3  5  1  0
  5  6  1  0
  6  7  1  0
  7  8  1  0
  8  9  1  0
  9 10  2  0
 10 11  1  0
 11 12  2  0
 12 13  1  0
 13 14  2  0
 12 15  1  0
 15 16  1  0
 15 17  1  0
 15 18  1  0
  2 19  1  0
 19 20  1  0
 20 21  2  0
 21 22  1  0
 22 23  1  0
 23 24  2  0
 23 25  1  0
 25 26  1  0
 25 27  1  0
 25 28  1  0
  8  3  1  0
 14  9  1  0
 24 20  1  0
  4 29  1  0
  4 30  1  0
  4 31  1  0
  5 32  1  0
  5 33  1  0
  6 34  1  0
  6 35  1  0
  7 36  1  0
  7 37  1  0
 10 38  1  0
 11 39  1  0
 13 40  1  0
 14 41  1  0
 19 42  1  0
 24 43  1  0
 26 44  1  0
 26 45  1  0
 26 46  1  0
 27 47  1  0
 27 48  1  0
 27 49  1  0
 28 50  1  0
 28 51  1  0
 28 52  1  0
M  END
>  <Ligand ID>  (1) 
LIG0005116

>  <Ligand>  (1) 
CHEMBL3400944

>  <SMILES>  (1) 
O=C([C@]1(C)CCCN1c1ccc(cc1)C(F)(F)F)Nc1noc(c1)C(C)(C)C

>  <CID>  (1) 
67953287.0

>  <ChEMBL ID>  (1) 
nan

>  <InChiKey>  (1) 
VNBACJVORYHCRA-IBGZPJMESA-N

>  <InChi>  (1) 
InChI=1S/C20H24F3N3O2/c1-18(2,3)15-12-16(25-28-15)24-17(27)19(4)10-5-11-26(19)14-8-6-13(7-9-14)20(21,22)23/h6-9,12H,5,10-11H2,1-4H3,(H,24,25,27)/t19-/m0/s1

>  <IUPAC Name>  (1) 
(2S)-N-(5-tert-butyl-1,2-oxazol-3-yl)-2-methyl-1-[4-(trifluoromethyl)phenyl]pyrrolidine-2-carboxamide

$$$$
