
     RDKit          3D

 45 46  0  0  0  0  0  0  0  0999 V2000
   -6.4782   -0.2402   -0.4284 C   0  0  0  0  0  0  0  0  0  0  0  0
   -5.3243    0.4846   -1.0869 C   0  0  0  0  0  0  0  0  0  0  0  0
   -4.1281    0.4303   -0.2657 N   0  0  0  0  0  0  0  0  0  0  0  0
   -3.8181    1.3518    0.6601 C   0  0  0  0  0  0  0  0  0  0  0  0
   -4.6300    2.5534    0.9880 C   0  0  0  0  0  0  0  0  0  0  0  0
   -2.6285    0.9650    1.2265 C   0  0  0  0  0  0  0  0  0  0  0  0
   -2.1827   -0.2275    0.6415 C   0  0  0  0  0  0  0  0  0  0  0  0
   -3.1494   -0.5290   -0.2876 C   0  0  0  0  0  0  0  0  0  0  0  0
   -3.1918   -1.6931   -1.1957 C   0  0  0  0  0  0  0  0  0  0  0  0
   -0.9567   -0.8981    1.0180 C   0  0  0  0  0  0  0  0  0  0  0  0
   -0.2696   -0.3584    1.9349 O   0  0  0  0  0  0  0  0  0  0  0  0
   -0.4364   -2.1492    0.4334 C   0  0  0  0  0  0  0  0  0  0  0  0
    0.6164   -1.9155   -1.0019 S   0  0  0  0  0  0  0  0  0  0  0  0
    2.2007   -1.2197   -0.6717 C   0  0  0  0  0  0  0  0  0  0  0  0
    2.7363   -0.9574    0.5594 C   0  0  0  0  0  0  0  0  0  0  0  0
    3.9819   -0.3929    0.7452 C   0  0  0  0  0  0  0  0  0  0  0  0
    4.7747   -0.0548   -0.3393 C   0  0  0  0  0  0  0  0  0  0  0  0
    4.2568   -0.3100   -1.5792 C   0  0  0  0  0  0  0  0  0  0  0  0
    2.9940   -0.8820   -1.7712 C   0  0  0  0  0  0  0  0  0  0  0  0
    6.0342    0.5160   -0.0701 N   0  0  0  0  0  0  0  0  0  0  0  0
    6.9852    0.9260   -1.0274 C   0  0  0  0  0  0  0  0  0  0  0  0
    6.8169    0.8279   -2.2609 O   0  0  0  0  0  0  0  0  0  0  0  0
    8.2979    1.5238   -0.5900 C   0  0  0  0  0  0  0  0  0  0  0  0
   -6.3027   -0.2962    0.6823 H   0  0  0  0  0  0  0  0  0  0  0  0
   -6.5933   -1.2860   -0.7708 H   0  0  0  0  0  0  0  0  0  0  0  0
   -7.4630    0.2414   -0.6189 H   0  0  0  0  0  0  0  0  0  0  0  0
   -5.1295    0.1494   -2.1175 H   0  0  0  0  0  0  0  0  0  0  0  0
   -5.6183    1.5586   -1.1729 H   0  0  0  0  0  0  0  0  0  0  0  0
   -4.4463    2.8259    2.0563 H   0  0  0  0  0  0  0  0  0  0  0  0
   -4.3513    3.4395    0.3559 H   0  0  0  0  0  0  0  0  0  0  0  0
   -5.7068    2.3736    0.7914 H   0  0  0  0  0  0  0  0  0  0  0  0
   -2.1504    1.5421    2.0116 H   0  0  0  0  0  0  0  0  0  0  0  0
   -3.4538   -2.6211   -0.6313 H   0  0  0  0  0  0  0  0  0  0  0  0
   -3.9906   -1.5133   -1.9629 H   0  0  0  0  0  0  0  0  0  0  0  0
   -2.2347   -1.8261   -1.7261 H   0  0  0  0  0  0  0  0  0  0  0  0
   -1.2737   -2.8205    0.1921 H   0  0  0  0  0  0  0  0  0  0  0  0
    0.1546   -2.6889    1.2589 H   0  0  0  0  0  0  0  0  0  0  0  0
    2.1805   -1.2095    1.4351 H   0  0  0  0  0  0  0  0  0  0  0  0
    4.3273   -0.2186    1.7772 H   0  0  0  0  0  0  0  0  0  0  0  0
    4.8009   -0.0805   -2.4593 H   0  0  0  0  0  0  0  0  0  0  0  0
    2.6346   -1.0621   -2.7909 H   0  0  0  0  0  0  0  0  0  0  0  0
    6.3232    0.6642    0.9440 H   0  0  0  0  0  0  0  0  0  0  0  0
    8.2158    2.6300   -0.6228 H   0  0  0  0  0  0  0  0  0  0  0  0
    8.5096    1.2301    0.4579 H   0  0  0  0  0  0  0  0  0  0  0  0
    9.0667    1.2169   -1.2974 H   0  0  0  0  0  0  0  0  0  0  0  0
  1  2  1  0
  2  3  1  0
  3  4  1  0
  4  5  1  0
  4  6  2  0
  6  7  1  0
  7  8  2  0
  8  9  1  0
  7 10  1  0
 10 11  2  0
 10 12  1  0
 12 13  1  0
 13 14  1  0
 14 15  2  0
 15 16  1  0
 16 17  2  0
 17 18  1  0
 18 19  2  0
 17 20  1  0
 20 21  1  0
 21 22  2  0
 21 23  1  0
  8  3  1  0
 19 14  1  0
  1 24  1  0
  1 25  1  0
  1 26  1  0
  2 27  1  0
  2 28  1  0
  5 29  1  0
  5 30  1  0
  5 31  1  0
  6 32  1  0
  9 33  1  0
  9 34  1  0
  9 35  1  0
 12 36  1  0
 12 37  1  0
 15 38  1  0
 16 39  1  0
 18 40  1  0
 19 41  1  0
 20 42  1  0
 23 43  1  0
 23 44  1  0
 23 45  1  0
M  END
>  <Ligand ID>  (1) 
LIG0004386

>  <Ligand>  (1) 
AC1P03JT

>  <SMILES>  (1) 
CCn1c(C)cc(c1C)C(=O)CSc1ccc(cc1)NC(=O)C

>  <CID>  (1) 
8114882.0

>  <ChEMBL ID>  (1) 
nan

>  <InChiKey>  (1) 
IWGIGWVBRRPGPC-UHFFFAOYSA-N

>  <InChi>  (1) 
InChI=1S/C18H22N2O2S/c1-5-20-12(2)10-17(13(20)3)18(22)11-23-16-8-6-15(7-9-16)19-14(4)21/h6-10H,5,11H2,1-4H3,(H,19,21)

>  <IUPAC Name>  (1) 
N-[4-[2-(1-ethyl-2,5-dimethylpyrrol-3-yl)-2-oxoethyl]sulfanylphenyl]acetamide

$$$$
