
     RDKit          3D

 60 66  0  0  0  0  0  0  0  0999 V2000
   -2.4768    5.6882    1.0017 C   0  0  0  0  0  0  0  0  0  0  0  0
   -1.6700    4.8124    0.2426 O   0  0  0  0  0  0  0  0  0  0  0  0
   -1.5390    3.4681    0.6085 C   0  0  0  0  0  0  0  0  0  0  0  0
   -2.1957    2.9717    1.7227 C   0  0  0  0  0  0  0  0  0  0  0  0
   -2.0369    1.6583    2.0362 C   0  0  0  0  0  0  0  0  0  0  0  0
   -1.2302    0.8174    1.2571 C   0  0  0  0  0  0  0  0  0  0  0  0
   -0.5655    1.2907    0.1418 C   0  0  0  0  0  0  0  0  0  0  0  0
   -0.7406    2.6243   -0.1577 C   0  0  0  0  0  0  0  0  0  0  0  0
    0.2964    0.4033   -0.7121 C   0  0  2  0  0  0  0  0  0  0  0  0
   -0.6306    0.0887   -1.9178 C   0  0  0  0  0  0  0  0  0  0  0  0
   -1.9155   -0.5053   -1.4405 C   0  0  0  0  0  0  0  0  0  0  0  0
   -1.8614   -1.4284   -0.3834 N   0  0  0  0  0  0  0  0  0  0  0  0
   -0.7622   -1.4086    0.5062 C   0  0  2  0  0  0  0  0  0  0  0  0
   -1.1608   -0.5944    1.7135 C   0  0  0  0  0  0  0  0  0  0  0  0
    0.5283   -0.9304   -0.0991 C   0  0  2  0  0  0  0  0  0  0  0  0
    1.6567   -1.0297    0.8698 C   0  0  0  0  0  0  0  0  0  0  0  0
    2.8634   -0.3184    0.4342 C   0  0  0  0  0  0  0  0  0  0  0  0
    2.7495    0.6439   -0.5348 C   0  0  0  0  0  0  0  0  0  0  0  0
    1.5188    1.0597   -1.2099 C   0  0  0  0  0  0  0  0  0  0  0  0
    4.0101    1.1103   -0.7248 N   0  0  0  0  0  0  0  0  0  0  0  0
    4.8720    0.4740    0.0834 C   0  0  0  0  0  0  0  0  0  0  0  0
    4.1766   -0.4420    0.8348 C   0  0  0  0  0  0  0  0  0  0  0  0
    4.7783   -1.2624    1.7674 C   0  0  0  0  0  0  0  0  0  0  0  0
    6.1509   -1.1314    1.9296 C   0  0  0  0  0  0  0  0  0  0  0  0
    6.8768   -0.2182    1.1869 C   0  0  0  0  0  0  0  0  0  0  0  0
    6.2327    0.5877    0.2599 C   0  0  0  0  0  0  0  0  0  0  0  0
   -2.2888   -2.7635   -0.6988 C   0  0  0  0  0  0  0  0  0  0  0  0
   -3.7937   -2.7701   -0.9778 C   0  0  0  0  0  0  0  0  0  0  0  0
   -4.3649   -4.1294   -1.3261 C   0  0  0  0  0  0  0  0  0  0  0  0
   -4.7358   -3.4589   -0.0762 C   0  0  0  0  0  0  0  0  0  0  0  0
   -3.5476    5.4156    0.9165 H   0  0  0  0  0  0  0  0  0  0  0  0
   -2.3496    6.7269    0.6011 H   0  0  0  0  0  0  0  0  0  0  0  0
   -2.2232    5.7222    2.0692 H   0  0  0  0  0  0  0  0  0  0  0  0
   -2.8068    3.6592    2.2913 H   0  0  0  0  0  0  0  0  0  0  0  0
   -2.5579    1.2840    2.9105 H   0  0  0  0  0  0  0  0  0  0  0  0
   -0.2679    3.0885   -1.0120 H   0  0  0  0  0  0  0  0  0  0  0  0
   -0.8237    1.0422   -2.4301 H   0  0  0  0  0  0  0  0  0  0  0  0
   -0.0638   -0.6011   -2.5725 H   0  0  0  0  0  0  0  0  0  0  0  0
   -2.3717   -1.0181   -2.3295 H   0  0  0  0  0  0  0  0  0  0  0  0
   -2.6364    0.3140   -1.1666 H   0  0  0  0  0  0  0  0  0  0  0  0
   -0.5813   -2.4485    0.8815 H   0  0  0  0  0  0  0  0  0  0  0  0
   -2.1609   -0.9692    2.0215 H   0  0  0  0  0  0  0  0  0  0  0  0
   -0.4886   -0.6517    2.5633 H   0  0  0  0  0  0  0  0  0  0  0  0
    0.7325   -1.6493   -0.9477 H   0  0  0  0  0  0  0  0  0  0  0  0
    1.4204   -0.7808    1.9152 H   0  0  0  0  0  0  0  0  0  0  0  0
    1.9379   -2.1231    0.9003 H   0  0  0  0  0  0  0  0  0  0  0  0
    1.4814    2.1705   -1.2320 H   0  0  0  0  0  0  0  0  0  0  0  0
    1.6151    0.7834   -2.3074 H   0  0  0  0  0  0  0  0  0  0  0  0
    4.3219    1.8562   -1.3919 H   0  0  0  0  0  0  0  0  0  0  0  0
    4.1975   -1.9889    2.3568 H   0  0  0  0  0  0  0  0  0  0  0  0
    6.5986   -1.7852    2.6657 H   0  0  0  0  0  0  0  0  0  0  0  0
    7.9373   -0.1406    1.3341 H   0  0  0  0  0  0  0  0  0  0  0  0
    6.8250    1.3074   -0.3201 H   0  0  0  0  0  0  0  0  0  0  0  0
   -2.1852   -3.3592    0.2386 H   0  0  0  0  0  0  0  0  0  0  0  0
   -1.7060   -3.2634   -1.4774 H   0  0  0  0  0  0  0  0  0  0  0  0
   -4.1213   -1.8668   -1.5252 H   0  0  0  0  0  0  0  0  0  0  0  0
   -5.0150   -4.0853   -2.2254 H   0  0  0  0  0  0  0  0  0  0  0  0
   -3.7021   -5.0156   -1.2733 H   0  0  0  0  0  0  0  0  0  0  0  0
   -5.7628   -3.0015   -0.0192 H   0  0  0  0  0  0  0  0  0  0  0  0
   -4.4380   -3.9296    0.8796 H   0  0  0  0  0  0  0  0  0  0  0  0
  1  2  1  0
  2  3  1  0
  3  4  2  0
  4  5  1  0
  5  6  2  0
  6  7  1  0
  7  8  2  0
  7  9  1  0
  9 10  1  6
 10 11  1  0
 11 12  1  0
 12 13  1  0
 13 14  1  0
 13 15  1  0
 15 16  1  0
 16 17  1  0
 17 18  2  0
 18 19  1  0
 18 20  1  0
 20 21  1  0
 21 22  2  0
 22 23  1  0
 23 24  2  0
 24 25  1  0
 25 26  2  0
 12 27  1  0
 27 28  1  0
 28 29  1  0
 29 30  1  0
  8  3  1  0
 19  9  1  0
 26 21  1  0
 30 28  1  0
 14  6  1  0
 22 17  1  0
 15  9  1  0
  1 31  1  0
  1 32  1  0
  1 33  1  0
  4 34  1  0
  5 35  1  0
  8 36  1  0
 10 37  1  0
 10 38  1  0
 11 39  1  0
 11 40  1  0
 13 41  1  1
 14 42  1  0
 14 43  1  0
 15 44  1  6
 16 45  1  0
 16 46  1  0
 19 47  1  0
 19 48  1  0
 20 49  1  0
 23 50  1  0
 24 51  1  0
 25 52  1  0
 26 53  1  0
 27 54  1  0
 27 55  1  0
 28 56  1  0
 29 57  1  0
 29 58  1  0
 30 59  1  0
 30 60  1  0
M  END
>  <Ligand ID>  (1) 
LIG0004882

>  <Ligand>  (1) 
CHEMBL226113

>  <SMILES>  (1) 
COc1ccc2c(c1)[C@@]13CCN([C@H](C2)[C@@H]3Cc2c(C1)[nH]c1c2cccc1)CC1CC1

>  <CID>  (1) 
16720551.0

>  <ChEMBL ID>  (1) 
nan

>  <InChiKey>  (1) 
UMNQIJNFDZCVLX-HUROMRQRSA-N

>  <InChi>  (1) 
InChI=1S/C27H30N2O/c1-30-19-9-8-18-12-26-23-14-21-20-4-2-3-5-24(20)28-25(21)15-27(23,22(18)13-19)10-11-29(26)16-17-6-7-17/h2-5,8-9,13,17,23,26,28H,6-7,10-12,14-16H2,1H3/t23-,26+,27+/m0/s1

>  <IUPAC Name>  (1) 
(1S,13R,14R)-24-(cyclopropylmethyl)-19-methoxy-4,24-diazahexacyclo[12.7.3.01,13.03,11.05,10.016,21]tetracosa-3(11),5,7,9,16(21),17,19-heptaene

$$$$
