
     RDKit          3D

 51 54  0  0  0  0  0  0  0  0999 V2000
   -1.0349    2.3812   -2.6716 O   0  0  0  0  0  0  0  0  0  0  0  0
   -0.6941    1.9339   -1.4132 C   0  0  2  0  0  0  0  0  0  0  0  0
    0.7420    2.3240   -1.0319 C   0  0  0  0  0  0  0  0  0  0  0  0
    0.9424    1.4915    0.2128 C   0  0  1  0  0  0  0  0  0  0  0  0
    0.3259    0.1877   -0.1208 C   0  0  1  0  0  0  0  0  0  0  0  0
   -0.5850    0.4252   -1.3367 C   0  0  1  0  0  0  0  0  0  0  0  0
   -1.9106   -0.2444   -1.1875 C   0  0  0  0  0  0  0  0  0  0  0  0
   -2.6303    0.1198   -0.0429 O   0  0  0  0  0  0  0  0  0  0  0  0
   -3.8893   -0.4760    0.1554 C   0  0  0  0  0  0  0  0  0  0  0  0
   -4.3164   -1.3837   -0.8096 C   0  0  0  0  0  0  0  0  0  0  0  0
   -5.5585   -2.0122   -0.6742 C   0  0  0  0  0  0  0  0  0  0  0  0
   -6.3046   -1.6861    0.4367 C   0  0  0  0  0  0  0  0  0  0  0  0
   -5.8988   -0.7942    1.3969 C   0  0  0  0  0  0  0  0  0  0  0  0
   -4.6560   -0.1714    1.2522 C   0  0  0  0  0  0  0  0  0  0  0  0
   -6.7885   -0.5225    2.5500 C   0  0  0  0  0  0  0  0  0  0  0  0
   -7.8666   -2.4790    0.6035 Cl  0  0  0  0  0  0  0  0  0  0  0  0
    1.2279   -0.9674   -0.3459 C   0  0  0  0  0  0  0  0  0  0  0  0
    2.6896   -0.7157   -0.3226 C   0  0  0  0  0  0  0  0  0  0  0  0
    3.0793    0.7219   -0.1906 C   0  0  1  0  0  0  0  0  0  0  0  0
    2.2399    1.4387    0.6336 O   0  0  0  0  0  0  0  0  0  0  0  0
    4.4773    0.8657    0.3971 C   0  0  0  0  0  0  0  0  0  0  0  0
    4.8983    2.0880    0.8341 C   0  0  0  0  0  0  0  0  0  0  0  0
    6.6320    1.7570    1.4471 S   0  0  0  0  0  0  0  0  0  0  0  0
    6.5533    0.0597    1.0404 C   0  0  0  0  0  0  0  0  0  0  0  0
    5.3484   -0.1599    0.5149 C   0  0  0  0  0  0  0  0  0  0  0  0
    7.6510   -0.8983    1.2629 C   0  0  0  0  0  0  0  0  0  0  0  0
    8.7209   -0.4845    1.7775 O   0  0  0  0  0  0  0  0  0  0  0  0
    7.4896   -2.2070    0.9100 O   0  0  0  0  0  0  0  0  0  0  0  0
   -1.4916    1.6976   -3.2271 H   0  0  0  0  0  0  0  0  0  0  0  0
   -1.3290    2.3232   -0.6026 H   0  0  0  0  0  0  0  0  0  0  0  0
    1.3542    2.0028   -1.8734 H   0  0  0  0  0  0  0  0  0  0  0  0
    0.8080    3.4009   -0.8652 H   0  0  0  0  0  0  0  0  0  0  0  0
    0.3789    2.0351    1.0305 H   0  0  0  0  0  0  0  0  0  0  0  0
   -0.3914   -0.0485    0.7265 H   0  0  0  0  0  0  0  0  0  0  0  0
   -0.1045    0.0517   -2.2436 H   0  0  0  0  0  0  0  0  0  0  0  0
   -1.7020   -1.3516   -1.1643 H   0  0  0  0  0  0  0  0  0  0  0  0
   -2.4840   -0.0802   -2.1096 H   0  0  0  0  0  0  0  0  0  0  0  0
   -3.7282   -1.6320   -1.6724 H   0  0  0  0  0  0  0  0  0  0  0  0
   -5.8590   -2.7065   -1.4347 H   0  0  0  0  0  0  0  0  0  0  0  0
   -4.3337    0.5205    1.9904 H   0  0  0  0  0  0  0  0  0  0  0  0
   -6.6724   -1.2612    3.3634 H   0  0  0  0  0  0  0  0  0  0  0  0
   -7.8557   -0.4289    2.2234 H   0  0  0  0  0  0  0  0  0  0  0  0
   -6.5038    0.4516    2.9858 H   0  0  0  0  0  0  0  0  0  0  0  0
    0.9980   -1.3823   -1.3758 H   0  0  0  0  0  0  0  0  0  0  0  0
    0.9393   -1.8400    0.3210 H   0  0  0  0  0  0  0  0  0  0  0  0
    3.0807   -1.2219    0.6116 H   0  0  0  0  0  0  0  0  0  0  0  0
    3.2290   -1.2369   -1.1405 H   0  0  0  0  0  0  0  0  0  0  0  0
    3.0820    1.1813   -1.1951 H   0  0  0  0  0  0  0  0  0  0  0  0
    4.4690    3.0714    0.8813 H   0  0  0  0  0  0  0  0  0  0  0  0
    5.0600   -1.1928    0.1700 H   0  0  0  0  0  0  0  0  0  0  0  0
    8.1718   -2.9454    1.1438 H   0  0  0  0  0  0  0  0  0  0  0  0
  1  2  1  0
  2  3  1  0
  3  4  1  0
  4  5  1  0
  5  6  1  0
  6  7  1  0
  7  8  1  0
  8  9  1  0
  9 10  2  0
 10 11  1  0
 11 12  2  0
 12 13  1  0
 13 14  2  0
 13 15  1  0
 12 16  1  0
  5 17  1  0
 17 18  1  0
 18 19  1  0
 19 20  1  0
 19 21  1  0
 21 22  2  0
 22 23  1  0
 23 24  1  0
 24 25  2  0
 24 26  1  0
 26 27  2  0
 26 28  1  0
  6  2  1  0
 14  9  1  0
 25 21  1  0
 20  4  1  0
  1 29  1  0
  2 30  1  1
  3 31  1  0
  3 32  1  0
  4 33  1  1
  5 34  1  1
  6 35  1  6
  7 36  1  0
  7 37  1  0
 10 38  1  0
 11 39  1  0
 14 40  1  0
 15 41  1  0
 15 42  1  0
 15 43  1  0
 17 44  1  0
 17 45  1  0
 18 46  1  0
 18 47  1  0
 19 48  1  6
 22 49  1  0
 25 50  1  0
 28 51  1  0
M  END
>  <Ligand ID>  (1) 
LIG0000940

>  <Ligand>  (1) 
CHEMBL3794185

>  <SMILES>  (1) 
O[C@@H]1C[C@H]2[C@@H]([C@H]1COc1ccc(c(c1)C)Cl)CC[C@@H](O2)c1csc(c1)C(=O)O

>  <CID>  (1) 
126495427.0

>  <ChEMBL ID>  (1) 
nan

>  <InChiKey>  (1) 
BOUVPWYXHRMMHT-YRGVVPAESA-N

>  <InChi>  (1) 
InChI=1S/C21H23ClO5S/c1-11-6-13(2-4-16(11)22)26-9-15-14-3-5-18(27-19(14)8-17(15)23)12-7-20(21(24)25)28-10-12/h2,4,6-7,10,14-15,17-19,23H,3,5,8-9H2,1H3,(H,24,25)/t14-,15-,17-,18-,19+/m1/s1

>  <IUPAC Name>  (1) 
4-[(2R,4aR,5S,6R,7aS)-5-[(4-chloro-3-methylphenoxy)methyl]-6-hydroxy-2,3,4,4a,5,6,7,7a-octahydrocyclopenta[b]pyran-2-yl]thiophene-2-carboxylic acid

$$$$
