
     RDKit          3D

 52 54  0  0  0  0  0  0  0  0999 V2000
   -2.1154    1.3587   -2.5785 C   0  0  0  0  0  0  0  0  0  0  0  0
   -1.8830    1.7404   -1.1480 C   0  0  2  0  0  0  0  0  0  0  0  0
   -0.3995    1.7995   -0.8980 C   0  0  0  0  0  0  0  0  0  0  0  0
    0.2332    0.5393   -1.1929 N   0  0  0  0  0  0  0  0  0  0  0  0
    1.6159    0.4116   -0.8890 C   0  0  0  0  0  0  0  0  0  0  0  0
    2.2856    1.4729   -0.3371 C   0  0  0  0  0  0  0  0  0  0  0  0
    3.6183    1.3614   -0.0354 C   0  0  0  0  0  0  0  0  0  0  0  0
    4.3664    0.1958   -0.2612 C   0  0  0  0  0  0  0  0  0  0  0  0
    3.6668   -0.8486   -0.8181 C   0  0  0  0  0  0  0  0  0  0  0  0
    2.3015   -0.7473   -1.1304 C   0  0  0  0  0  0  0  0  0  0  0  0
    5.7960    0.1867    0.0029 C   0  0  0  0  0  0  0  0  0  0  0  0
    6.6149    1.7496   -0.1552 S   0  0  0  0  0  0  0  0  0  0  0  0
    8.2379    1.0560    0.2883 C   0  0  0  0  0  0  0  0  0  0  0  0
    8.0031   -0.2905    0.5163 C   0  0  0  0  0  0  0  0  0  0  0  0
    6.7266   -0.7063    0.3628 C   0  0  0  0  0  0  0  0  0  0  0  0
    6.3746   -2.1063    0.7695 C   0  0  0  0  0  0  0  0  0  0  0  0
    7.2816   -2.9654    0.9885 O   0  0  0  0  0  0  0  0  0  0  0  0
    5.0867   -2.5355    0.9375 O   0  0  0  0  0  0  0  0  0  0  0  0
   -2.5408    0.9976   -0.1573 N   0  0  0  0  0  0  0  0  0  0  0  0
   -2.2822   -0.3700    0.0286 C   0  0  0  0  0  0  0  0  0  0  0  0
   -3.1932   -0.8924    1.1144 C   0  0  1  0  0  0  0  0  0  0  0  0
   -4.6238   -0.6659    0.8995 C   0  0  0  0  0  0  0  0  0  0  0  0
   -5.2030    0.0119   -0.1248 C   0  0  0  0  0  0  0  0  0  0  0  0
   -6.5784    0.1638   -0.2029 C   0  0  0  0  0  0  0  0  0  0  0  0
   -7.4259   -0.3635    0.7509 C   0  0  0  0  0  0  0  0  0  0  0  0
   -6.8479   -1.0500    1.7885 C   0  0  0  0  0  0  0  0  0  0  0  0
   -5.4854   -1.1983    1.8627 C   0  0  0  0  0  0  0  0  0  0  0  0
   -7.8924   -1.7397    3.0274 Cl  0  0  0  0  0  0  0  0  0  0  0  0
   -2.9157   -2.2549    1.3372 O   0  0  0  0  0  0  0  0  0  0  0  0
   -1.2102    1.6283   -3.1571 H   0  0  0  0  0  0  0  0  0  0  0  0
   -3.0294    1.8318   -3.0047 H   0  0  0  0  0  0  0  0  0  0  0  0
   -2.2680    0.2619   -2.7212 H   0  0  0  0  0  0  0  0  0  0  0  0
   -2.2150    2.8335   -1.0987 H   0  0  0  0  0  0  0  0  0  0  0  0
   -0.2006    2.1214    0.1613 H   0  0  0  0  0  0  0  0  0  0  0  0
    0.0387    2.6361   -1.5074 H   0  0  0  0  0  0  0  0  0  0  0  0
   -0.2366   -0.2828   -1.6268 H   0  0  0  0  0  0  0  0  0  0  0  0
    1.7833    2.4173   -0.1283 H   0  0  0  0  0  0  0  0  0  0  0  0
    4.1032    2.2426    0.4057 H   0  0  0  0  0  0  0  0  0  0  0  0
    4.1009   -1.7907   -1.1112 H   0  0  0  0  0  0  0  0  0  0  0  0
    1.7584   -1.5746   -1.5665 H   0  0  0  0  0  0  0  0  0  0  0  0
    9.1947    1.6637    0.3457 H   0  0  0  0  0  0  0  0  0  0  0  0
    8.8743   -0.9182    0.8037 H   0  0  0  0  0  0  0  0  0  0  0  0
    4.7764   -3.4902    0.7364 H   0  0  0  0  0  0  0  0  0  0  0  0
   -2.7189    1.4855    0.7364 H   0  0  0  0  0  0  0  0  0  0  0  0
   -1.2419   -0.5170    0.4372 H   0  0  0  0  0  0  0  0  0  0  0  0
   -2.3987   -0.9755   -0.9059 H   0  0  0  0  0  0  0  0  0  0  0  0
   -2.9195   -0.3222    2.0492 H   0  0  0  0  0  0  0  0  0  0  0  0
   -4.6261    0.4415   -0.9040 H   0  0  0  0  0  0  0  0  0  0  0  0
   -7.0212    0.7178   -1.0432 H   0  0  0  0  0  0  0  0  0  0  0  0
   -8.4936   -0.2210    0.6506 H   0  0  0  0  0  0  0  0  0  0  0  0
   -5.1007   -1.7526    2.7101 H   0  0  0  0  0  0  0  0  0  0  0  0
   -3.7720   -2.7473    1.1993 H   0  0  0  0  0  0  0  0  0  0  0  0
  1  2  1  0
  2  3  1  0
  3  4  1  0
  4  5  1  0
  5  6  2  0
  6  7  1  0
  7  8  2  0
  8  9  1  0
  9 10  2  0
  8 11  1  0
 11 12  1  0
 12 13  1  0
 13 14  2  0
 14 15  1  0
 15 16  1  0
 16 17  2  0
 16 18  1  0
  2 19  1  0
 19 20  1  0
 20 21  1  0
 21 22  1  0
 22 23  2  0
 23 24  1  0
 24 25  2  0
 25 26  1  0
 26 27  2  0
 26 28  1  0
 21 29  1  0
 10  5  1  0
 15 11  2  0
 27 22  1  0
  1 30  1  0
  1 31  1  0
  1 32  1  0
  2 33  1  6
  3 34  1  0
  3 35  1  0
  4 36  1  0
  6 37  1  0
  7 38  1  0
  9 39  1  0
 10 40  1  0
 13 41  1  0
 14 42  1  0
 18 43  1  0
 19 44  1  0
 20 45  1  0
 20 46  1  0
 21 47  1  1
 23 48  1  0
 24 49  1  0
 25 50  1  0
 27 51  1  0
 29 52  1  0
M  END
>  <Ligand ID>  (1) 
LIG0002237

>  <Ligand>  (1) 
CHEMBL395834

>  <SMILES>  (1) 
C[C@H](CNc1ccc(cc1)c1sccc1C(=O)O)NC[C@@H](c1cccc(c1)Cl)O

>  <CID>  (1) 
44441235.0

>  <ChEMBL ID>  (1) 
nan

>  <InChiKey>  (1) 
MSMOXLIFEHLUGV-VLIAUNLRSA-N

>  <InChi>  (1) 
InChI=1S/C22H23ClN2O3S/c1-14(24-13-20(26)16-3-2-4-17(23)11-16)12-25-18-7-5-15(6-8-18)21-19(22(27)28)9-10-29-21/h2-11,14,20,24-26H,12-13H2,1H3,(H,27,28)/t14-,20+/m1/s1

>  <IUPAC Name>  (1) 
2-[4-[[(2R)-2-[[(2R)-2-(3-chlorophenyl)-2-hydroxyethyl]amino]propyl]amino]phenyl]thiophene-3-carboxylic acid

$$$$
