
     RDKit          3D

 48 52  0  0  0  0  0  0  0  0999 V2000
    4.5100    2.4482    0.7562 O   0  0  0  0  0  0  0  0  0  0  0  0
    5.3103    1.4821    0.1891 C   0  0  0  0  0  0  0  0  0  0  0  0
    4.7416    0.0893    0.3346 C   0  0  1  0  0  0  0  0  0  0  0  0
    4.4887   -0.4908    1.6744 C   0  0  0  0  0  0  0  0  0  0  0  0
    3.3598    0.0249    0.8644 C   0  0  2  0  0  0  0  0  0  0  0  0
    2.6151   -0.8653   -0.0927 C   0  0  2  0  0  0  0  0  0  0  0  0
    3.4700   -0.9770   -1.3367 C   0  0  1  0  0  0  0  0  0  0  0  0
    4.8714   -0.8685   -0.8002 C   0  0  2  0  0  0  0  0  0  0  0  0
    5.4268   -2.0905   -0.4653 O   0  0  0  0  0  0  0  0  0  0  0  0
    3.3427   -2.2273   -1.9318 O   0  0  0  0  0  0  0  0  0  0  0  0
    1.3457   -0.2332   -0.4124 N   0  0  0  0  0  0  0  0  0  0  0  0
    1.1922    0.8370   -1.2080 C   0  0  0  0  0  0  0  0  0  0  0  0
   -0.1195    1.1659   -1.2913 N   0  0  0  0  0  0  0  0  0  0  0  0
   -0.7842    0.2801   -0.5318 C   0  0  0  0  0  0  0  0  0  0  0  0
    0.1296   -0.5931    0.0168 C   0  0  0  0  0  0  0  0  0  0  0  0
   -0.3269   -1.5735    0.8218 N   0  0  0  0  0  0  0  0  0  0  0  0
   -1.6540   -1.7036    1.0900 C   0  0  0  0  0  0  0  0  0  0  0  0
   -2.5095   -0.8389    0.5404 N   0  0  0  0  0  0  0  0  0  0  0  0
   -2.1564    0.1740   -0.2761 C   0  0  0  0  0  0  0  0  0  0  0  0
   -3.0873    1.0609   -0.8326 N   0  0  0  0  0  0  0  0  0  0  0  0
   -4.4922    0.9807   -0.5932 C   0  0  0  0  0  0  0  0  0  0  0  0
   -4.8678    1.1153    0.8832 C   0  0  0  0  0  0  0  0  0  0  0  0
   -6.3543    0.7660    0.8186 C   0  0  0  0  0  0  0  0  0  0  0  0
   -6.5307   -0.1323   -0.3894 C   0  0  0  0  0  0  0  0  0  0  0  0
   -5.1133   -0.3532   -0.9346 C   0  0  0  0  0  0  0  0  0  0  0  0
    5.1088    3.0293    1.3193 H   0  0  0  0  0  0  0  0  0  0  0  0
    5.3847    1.6914   -0.8997 H   0  0  0  0  0  0  0  0  0  0  0  0
    6.3605    1.5147    0.5599 H   0  0  0  0  0  0  0  0  0  0  0  0
    4.5975   -1.5963    1.7737 H   0  0  0  0  0  0  0  0  0  0  0  0
    4.7541    0.0439    2.5946 H   0  0  0  0  0  0  0  0  0  0  0  0
    2.8556    0.9495    1.2421 H   0  0  0  0  0  0  0  0  0  0  0  0
    2.3957   -1.8515    0.3336 H   0  0  0  0  0  0  0  0  0  0  0  0
    3.3355   -0.1402   -2.0392 H   0  0  0  0  0  0  0  0  0  0  0  0
    5.5476   -0.3950   -1.5503 H   0  0  0  0  0  0  0  0  0  0  0  0
    4.7617   -2.8041   -0.5023 H   0  0  0  0  0  0  0  0  0  0  0  0
    2.4023   -2.5160   -1.8507 H   0  0  0  0  0  0  0  0  0  0  0  0
    1.9653    1.4028   -1.7375 H   0  0  0  0  0  0  0  0  0  0  0  0
   -1.9220   -2.5154    1.7426 H   0  0  0  0  0  0  0  0  0  0  0  0
   -2.7250    1.8233   -1.4586 H   0  0  0  0  0  0  0  0  0  0  0  0
   -5.0441    1.7880   -1.1172 H   0  0  0  0  0  0  0  0  0  0  0  0
   -4.7047    2.1391    1.2556 H   0  0  0  0  0  0  0  0  0  0  0  0
   -4.3773    0.3248    1.4958 H   0  0  0  0  0  0  0  0  0  0  0  0
   -6.6861    0.2406    1.7368 H   0  0  0  0  0  0  0  0  0  0  0  0
   -6.8925    1.7141    0.6819 H   0  0  0  0  0  0  0  0  0  0  0  0
   -7.0499   -1.0661   -0.1634 H   0  0  0  0  0  0  0  0  0  0  0  0
   -7.0627    0.4591   -1.1883 H   0  0  0  0  0  0  0  0  0  0  0  0
   -4.6959   -1.1638   -0.3350 H   0  0  0  0  0  0  0  0  0  0  0  0
   -5.1168   -0.5496   -2.0156 H   0  0  0  0  0  0  0  0  0  0  0  0
  1  2  1  0
  3  2  1  1
  3  4  1  0
  4  5  1  0
  5  6  1  0
  6  7  1  0
  7  8  1  0
  8  9  1  0
  7 10  1  0
  6 11  1  0
 11 12  1  0
 12 13  2  0
 13 14  1  0
 14 15  2  0
 15 16  1  0
 16 17  2  0
 17 18  1  0
 18 19  2  0
 19 20  1  0
 20 21  1  0
 21 22  1  0
 22 23  1  0
 23 24  1  0
 24 25  1  0
  8  3  1  0
 15 11  1  0
 25 21  1  0
  5  3  1  0
 19 14  1  0
  1 26  1  0
  2 27  1  0
  2 28  1  0
  4 29  1  0
  4 30  1  0
  5 31  1  1
  6 32  1  1
  7 33  1  6
  8 34  1  6
  9 35  1  0
 10 36  1  0
 12 37  1  0
 17 38  1  0
 20 39  1  0
 21 40  1  0
 22 41  1  0
 22 42  1  0
 23 43  1  0
 23 44  1  0
 24 45  1  0
 24 46  1  0
 25 47  1  0
 25 48  1  0
M  END
>  <Ligand ID>  (1) 
LIG0003038

>  <Ligand>  (1) 
CHEMBL27952

>  <SMILES>  (1) 
OC[C@]12C[C@@H]2[C@H]([C@@H]([C@@H]1O)O)n1cnc2c1ncnc2NC1CCCC1

>  <CID>  (1) 
9906178.0

>  <ChEMBL ID>  (1) 
nan

>  <InChiKey>  (1) 
PSTJTJSXZYZTNV-ZLQDYUCGSA-N

>  <InChi>  (1) 
InChI=1S/C17H23N5O3/c23-6-17-5-10(17)12(13(24)14(17)25)22-8-20-11-15(18-7-19-16(11)22)21-9-3-1-2-4-9/h7-10,12-14,23-25H,1-6H2,(H,18,19,21)/t10-,12-,13+,14+,17+/m1/s1

>  <IUPAC Name>  (1) 
(1R,2R,3S,4R,5S)-4-[6-(cyclopentylamino)purin-9-yl]-1-(hydroxymethyl)bicyclo[3.1.0]hexane-2,3-diol

$$$$
