
     RDKit          3D

 30 32  0  0  0  0  0  0  0  0999 V2000
   -0.2890    1.3392    3.8204 O   0  0  0  0  0  0  0  0  0  0  0  0
   -0.2229    0.9276    2.6420 C   0  0  0  0  0  0  0  0  0  0  0  0
   -1.3208    0.4725    1.9483 C   0  0  0  0  0  0  0  0  0  0  0  0
   -1.2281    0.0225    0.6496 C   0  0  0  0  0  0  0  0  0  0  0  0
   -0.0154    0.0410    0.0701 N   0  0  0  0  0  0  0  0  0  0  0  0
    1.0951    0.4708    0.6871 C   0  0  0  0  0  0  0  0  0  0  0  0
    0.9854    0.9161    1.9818 C   0  0  0  0  0  0  0  0  0  0  0  0
    2.3588    0.4468   -0.0369 C   0  0  0  0  0  0  0  0  0  0  0  0
    3.5548    0.8647    0.5025 C   0  0  0  0  0  0  0  0  0  0  0  0
    4.7373    0.8278   -0.2151 C   0  0  0  0  0  0  0  0  0  0  0  0
    4.7363    0.3619   -1.5094 C   0  0  0  0  0  0  0  0  0  0  0  0
    3.5263   -0.0506   -2.0265 C   0  0  0  0  0  0  0  0  0  0  0  0
    2.3867   -0.0036   -1.3032 N   0  0  0  0  0  0  0  0  0  0  0  0
   -2.3675   -0.4663   -0.1162 C   0  0  0  0  0  0  0  0  0  0  0  0
   -3.6500   -0.5266    0.3832 C   0  0  0  0  0  0  0  0  0  0  0  0
   -4.7029   -1.0003   -0.3856 C   0  0  0  0  0  0  0  0  0  0  0  0
   -4.4759   -1.4265   -1.6881 C   0  0  0  0  0  0  0  0  0  0  0  0
   -3.1735   -1.3510   -2.1557 C   0  0  0  0  0  0  0  0  0  0  0  0
   -2.1766   -0.8824   -1.3718 N   0  0  0  0  0  0  0  0  0  0  0  0
   -2.2639    0.4776    2.4530 H   0  0  0  0  0  0  0  0  0  0  0  0
    0.0694   -0.2949   -0.9074 H   0  0  0  0  0  0  0  0  0  0  0  0
    1.8415    1.2707    2.5219 H   0  0  0  0  0  0  0  0  0  0  0  0
    3.5962    1.2312    1.4996 H   0  0  0  0  0  0  0  0  0  0  0  0
    5.6846    1.1497    0.1869 H   0  0  0  0  0  0  0  0  0  0  0  0
    5.6460    0.3225   -2.0922 H   0  0  0  0  0  0  0  0  0  0  0  0
    3.4572   -0.4283   -3.0405 H   0  0  0  0  0  0  0  0  0  0  0  0
   -3.8552   -0.2019    1.3922 H   0  0  0  0  0  0  0  0  0  0  0  0
   -5.6806   -1.0331    0.0315 H   0  0  0  0  0  0  0  0  0  0  0  0
   -5.2943   -1.8032   -2.3094 H   0  0  0  0  0  0  0  0  0  0  0  0
   -2.9591   -1.6738   -3.1643 H   0  0  0  0  0  0  0  0  0  0  0  0
  1  2  2  0
  2  3  1  0
  3  4  2  0
  4  5  1  0
  5  6  1  0
  6  7  2  0
  6  8  1  0
  8  9  2  0
  9 10  1  0
 10 11  2  0
 11 12  1  0
 12 13  2  0
  4 14  1  0
 14 15  2  0
 15 16  1  0
 16 17  2  0
 17 18  1  0
 18 19  2  0
  7  2  1  0
 13  8  1  0
 19 14  1  0
  3 20  1  0
  5 21  1  0
  7 22  1  0
  9 23  1  0
 10 24  1  0
 11 25  1  0
 12 26  1  0
 15 27  1  0
 16 28  1  0
 17 29  1  0
 18 30  1  0
M  END
>  <Ligand ID>  (1) 
LIG0002757

>  <Ligand>  (1) 
128143-88-4

>  <SMILES>  (1) 
O=c1cc([nH]c(c1)c1ccccn1)c1ccccn1

>  <CID>  (1) 
619353.0

>  <ChEMBL ID>  (1) 
nan

>  <InChiKey>  (1) 
HRORSVNZQWCZTD-UHFFFAOYSA-N

>  <InChi>  (1) 
InChI=1S/C15H11N3O/c19-11-9-14(12-5-1-3-7-16-12)18-15(10-11)13-6-2-4-8-17-13/h1-10H,(H,18,19)

>  <IUPAC Name>  (1) 
2,6-dipyridin-2-yl-1H-pyridin-4-one

$$$$
