
     RDKit          3D

142147  0  0  0  0  0  0  0  0999 V2000
   -5.1918   -5.6079    3.2363 N   0  0  0  0  0  0  0  0  0  0  0  0
   -5.8725   -5.7723    1.9996 C   0  0  0  0  0  0  0  0  0  0  0  0
   -6.2696   -4.7047    1.3731 N   0  0  0  0  0  0  0  0  0  0  0  0
   -6.0114   -3.3964    1.9434 C   0  0  0  0  0  0  0  0  0  0  0  0
   -5.2915   -2.5051    0.9298 C   0  0  0  0  0  0  0  0  0  0  0  0
   -3.9950   -3.0696    0.5056 C   0  0  0  0  0  0  0  0  0  0  0  0
   -3.1956   -2.2817   -0.5012 C   0  0  2  0  0  0  0  0  0  0  0  0
   -1.9579   -3.0966   -0.7856 N   0  0  0  0  0  0  0  0  0  0  0  0
   -1.7463   -3.6275   -2.0892 C   0  0  0  0  0  0  0  0  0  0  0  0
   -2.6431   -3.3776   -2.9098 O   0  0  0  0  0  0  0  0  0  0  0  0
   -0.5176   -4.4322   -2.4336 C   0  0  2  0  0  0  0  0  0  0  0  0
   -0.8217   -5.7069   -3.1374 C   0  0  0  0  0  0  0  0  0  0  0  0
    0.4159   -6.4795   -3.4613 C   0  0  0  0  0  0  0  0  0  0  0  0
    0.8823   -7.4007   -2.5185 C   0  0  0  0  0  0  0  0  0  0  0  0
    2.0278   -8.1454   -2.7504 C   0  0  0  0  0  0  0  0  0  0  0  0
    2.7165   -7.9716   -3.9325 C   0  0  0  0  0  0  0  0  0  0  0  0
    2.2605   -7.0653   -4.8641 C   0  0  0  0  0  0  0  0  0  0  0  0
    1.1138   -6.3160   -4.6389 C   0  0  0  0  0  0  0  0  0  0  0  0
    0.3410   -4.5986   -1.2741 N   0  0  0  0  0  0  0  0  0  0  0  0
    1.3559   -3.6338   -1.0617 C   0  0  0  0  0  0  0  0  0  0  0  0
    1.3746   -2.6805   -1.8591 O   0  0  0  0  0  0  0  0  0  0  0  0
    2.3768   -3.6533    0.0112 C   0  0  2  0  0  0  0  0  0  0  0  0
    1.8196   -4.0136    1.3499 C   0  0  0  0  0  0  0  0  0  0  0  0
    2.9159   -4.0605    2.3407 C   0  0  0  0  0  0  0  0  0  0  0  0
    3.6174   -5.2190    2.5617 N   0  0  0  0  0  0  0  0  0  0  0  0
    4.5405   -5.0308    3.4965 C   0  0  0  0  0  0  0  0  0  0  0  0
    4.4721   -3.7436    3.9169 N   0  0  0  0  0  0  0  0  0  0  0  0
    3.4672   -3.1625    3.1951 C   0  0  0  0  0  0  0  0  0  0  0  0
    3.0754   -2.3512   -0.0254 N   0  0  0  0  0  0  0  0  0  0  0  0
    2.6190   -1.2124    0.6653 C   0  0  0  0  0  0  0  0  0  0  0  0
    1.6451   -1.2867    1.3864 O   0  0  0  0  0  0  0  0  0  0  0  0
    3.3109    0.1512    0.5464 C   0  0  2  0  0  0  0  0  0  0  0  0
    2.2715    1.1915    0.5071 C   0  0  0  0  0  0  0  0  0  0  0  0
    2.8833    2.8305    0.0812 S   0  0  0  0  0  0  0  0  0  0  0  0
    1.1825    4.1695    0.2697 S   0  0  0  0  0  0  0  0  0  0  0  0
    0.2731    4.1498   -1.3227 C   0  0  0  0  0  0  0  0  0  0  0  0
   -1.2050    4.4303   -0.9617 C   0  0  1  0  0  0  0  0  0  0  0  0
   -1.4916    3.4108    0.0199 N   0  0  0  0  0  0  0  0  0  0  0  0
   -2.2887    2.2471   -0.1819 C   0  0  0  0  0  0  0  0  0  0  0  0
   -2.7938    2.1276   -1.2971 O   0  0  0  0  0  0  0  0  0  0  0  0
   -2.4721    1.2438    0.9397 C   0  0  2  0  0  0  0  0  0  0  0  0
   -3.2633    0.1680    0.4093 N   0  0  0  0  0  0  0  0  0  0  0  0
   -2.6272   -1.0590    0.0749 C   0  0  0  0  0  0  0  0  0  0  0  0
   -1.3895   -1.0748    0.3133 O   0  0  0  0  0  0  0  0  0  0  0  0
   -2.9736    1.8694    2.1675 C   0  0  0  0  0  0  0  0  0  0  0  0
   -4.2606    2.5444    2.1489 C   0  0  0  0  0  0  0  0  0  0  0  0
   -4.4047    3.9008    1.8096 C   0  0  0  0  0  0  0  0  0  0  0  0
   -5.7062    4.2244    1.8129 N   0  0  0  0  0  0  0  0  0  0  0  0
   -6.4501    3.1553    2.1386 C   0  0  0  0  0  0  0  0  0  0  0  0
   -5.5555    2.1253    2.3455 C   0  0  0  0  0  0  0  0  0  0  0  0
   -6.0476    0.8960    2.7191 C   0  0  0  0  0  0  0  0  0  0  0  0
   -7.3888    0.6379    2.8939 C   0  0  0  0  0  0  0  0  0  0  0  0
   -8.3011    1.6789    2.6818 C   0  0  0  0  0  0  0  0  0  0  0  0
   -7.7962    2.9050    2.3107 C   0  0  0  0  0  0  0  0  0  0  0  0
   -1.3611    5.8099   -0.5054 C   0  0  0  0  0  0  0  0  0  0  0  0
   -1.6562    6.1680    0.6645 O   0  0  0  0  0  0  0  0  0  0  0  0
   -1.1674    6.8551   -1.4514 N   0  0  0  0  0  0  0  0  0  0  0  0
   -1.3249    8.2162   -0.9824 C   0  0  2  0  0  0  0  0  0  0  0  0
   -2.5119    8.8051   -1.6963 C   0  0  0  0  0  0  0  0  0  0  0  0
   -2.8337    9.9960   -1.4390 O   0  0  0  0  0  0  0  0  0  0  0  0
   -3.2737    8.0779   -2.6374 N   0  0  0  0  0  0  0  0  0  0  0  0
   -0.0980    9.0556   -1.3150 C   0  0  2  0  0  0  0  0  0  0  0  0
    1.0066    8.4789   -0.7066 O   0  0  0  0  0  0  0  0  0  0  0  0
   -0.3011   10.4618   -0.7973 C   0  0  0  0  0  0  0  0  0  0  0  0
    4.3020    0.1135   -0.4794 N   0  0  0  0  0  0  0  0  0  0  0  0
    5.6947   -0.1053   -0.2128 C   0  0  0  0  0  0  0  0  0  0  0  0
    6.0368   -0.2714    0.9984 O   0  0  0  0  0  0  0  0  0  0  0  0
    6.7016   -0.1433   -1.2882 C   0  0  1  0  0  0  0  0  0  0  0  0
    7.1000    1.2427   -1.7788 C   0  0  0  0  0  0  0  0  0  0  0  0
    7.6964    2.0301   -0.6416 C   0  0  0  0  0  0  0  0  0  0  0  0
    9.0767    1.9060   -0.4470 C   0  0  0  0  0  0  0  0  0  0  0  0
    9.7095    2.5878    0.5709 C   0  0  0  0  0  0  0  0  0  0  0  0
    8.9444    3.3947    1.3910 C   0  0  0  0  0  0  0  0  0  0  0  0
    7.5877    3.5082    1.1892 C   0  0  0  0  0  0  0  0  0  0  0  0
    6.9215    2.8293    0.1666 C   0  0  0  0  0  0  0  0  0  0  0  0
    7.9394   -0.6818   -0.6938 N   0  0  0  0  0  0  0  0  0  0  0  0
   -6.1306   -7.0355    1.4268 N   0  0  0  0  0  0  0  0  0  0  0  0
   -5.7770   -5.5492    4.1031 H   0  0  0  0  0  0  0  0  0  0  0  0
   -4.1558   -5.5428    3.3303 H   0  0  0  0  0  0  0  0  0  0  0  0
   -5.4500   -3.4658    2.8792 H   0  0  0  0  0  0  0  0  0  0  0  0
   -6.9935   -2.9295    2.1568 H   0  0  0  0  0  0  0  0  0  0  0  0
   -5.9974   -2.3828    0.0676 H   0  0  0  0  0  0  0  0  0  0  0  0
   -5.2162   -1.5288    1.3988 H   0  0  0  0  0  0  0  0  0  0  0  0
   -4.1787   -4.1184    0.1330 H   0  0  0  0  0  0  0  0  0  0  0  0
   -3.3604   -3.2508    1.4279 H   0  0  0  0  0  0  0  0  0  0  0  0
   -3.7436   -2.1299   -1.4312 H   0  0  0  0  0  0  0  0  0  0  0  0
   -1.2604   -3.2919   -0.0915 H   0  0  0  0  0  0  0  0  0  0  0  0
   -0.0062   -3.7454   -3.1860 H   0  0  0  0  0  0  0  0  0  0  0  0
   -1.4578   -6.3432   -2.4721 H   0  0  0  0  0  0  0  0  0  0  0  0
   -1.4478   -5.5357   -4.0360 H   0  0  0  0  0  0  0  0  0  0  0  0
    0.3098   -7.5123   -1.5946 H   0  0  0  0  0  0  0  0  0  0  0  0
    2.3648   -8.8565   -1.9916 H   0  0  0  0  0  0  0  0  0  0  0  0
    3.6204   -8.5340   -4.1555 H   0  0  0  0  0  0  0  0  0  0  0  0
    2.7975   -6.9210   -5.8001 H   0  0  0  0  0  0  0  0  0  0  0  0
    0.7471   -5.6010   -5.3671 H   0  0  0  0  0  0  0  0  0  0  0  0
    0.2870   -5.3452   -0.5846 H   0  0  0  0  0  0  0  0  0  0  0  0
    3.2018   -4.3946   -0.2134 H   0  0  0  0  0  0  0  0  0  0  0  0
    1.0017   -3.3811    1.7201 H   0  0  0  0  0  0  0  0  0  0  0  0
    1.3881   -5.0600    1.2316 H   0  0  0  0  0  0  0  0  0  0  0  0
    3.4735   -6.1413    2.0802 H   0  0  0  0  0  0  0  0  0  0  0  0
    5.2675   -5.7264    3.9137 H   0  0  0  0  0  0  0  0  0  0  0  0
    3.2081   -2.1344    3.3459 H   0  0  0  0  0  0  0  0  0  0  0  0
    3.9419   -2.2176   -0.5664 H   0  0  0  0  0  0  0  0  0  0  0  0
    3.8919    0.2641    1.5240 H   0  0  0  0  0  0  0  0  0  0  0  0
    1.8629    1.2917    1.5666 H   0  0  0  0  0  0  0  0  0  0  0  0
    1.4030    0.9353   -0.1611 H   0  0  0  0  0  0  0  0  0  0  0  0
    0.6919    4.8630   -2.0134 H   0  0  0  0  0  0  0  0  0  0  0  0
    0.3524    3.1301   -1.7269 H   0  0  0  0  0  0  0  0  0  0  0  0
   -1.7340    4.3034   -1.9243 H   0  0  0  0  0  0  0  0  0  0  0  0
   -1.0966    3.5140    0.9545 H   0  0  0  0  0  0  0  0  0  0  0  0
   -1.4142    0.9089    1.1480 H   0  0  0  0  0  0  0  0  0  0  0  0
   -4.2581    0.2221    0.2402 H   0  0  0  0  0  0  0  0  0  0  0  0
   -2.1475    2.5289    2.5739 H   0  0  0  0  0  0  0  0  0  0  0  0
   -3.0031    1.0445    2.9572 H   0  0  0  0  0  0  0  0  0  0  0  0
   -3.6293    4.6039    1.5796 H   0  0  0  0  0  0  0  0  0  0  0  0
   -6.1244    5.1767    1.5937 H   0  0  0  0  0  0  0  0  0  0  0  0
   -5.3509    0.1198    2.9053 H   0  0  0  0  0  0  0  0  0  0  0  0
   -7.7442   -0.3484    3.1890 H   0  0  0  0  0  0  0  0  0  0  0  0
   -9.3526    1.5004    2.8110 H   0  0  0  0  0  0  0  0  0  0  0  0
   -8.5245    3.7078    2.1493 H   0  0  0  0  0  0  0  0  0  0  0  0
   -0.9227    6.7128   -2.4464 H   0  0  0  0  0  0  0  0  0  0  0  0
   -1.5564    8.2947    0.0910 H   0  0  0  0  0  0  0  0  0  0  0  0
   -3.9308    7.3497   -2.2390 H   0  0  0  0  0  0  0  0  0  0  0  0
   -3.2006    8.2435   -3.6796 H   0  0  0  0  0  0  0  0  0  0  0  0
    0.0101    9.0738   -2.3996 H   0  0  0  0  0  0  0  0  0  0  0  0
    1.7463    8.3909   -1.3626 H   0  0  0  0  0  0  0  0  0  0  0  0
   -0.8851   10.4781    0.1423 H   0  0  0  0  0  0  0  0  0  0  0  0
    0.7241   10.8446   -0.5638 H   0  0  0  0  0  0  0  0  0  0  0  0
   -0.7339   11.1331   -1.5580 H   0  0  0  0  0  0  0  0  0  0  0  0
    4.0536    0.2472   -1.4932 H   0  0  0  0  0  0  0  0  0  0  0  0
    6.3306   -0.7258   -2.1260 H   0  0  0  0  0  0  0  0  0  0  0  0
    7.9020    1.1087   -2.5223 H   0  0  0  0  0  0  0  0  0  0  0  0
    6.2789    1.8114   -2.2148 H   0  0  0  0  0  0  0  0  0  0  0  0
    9.6802    1.2643   -1.0998 H   0  0  0  0  0  0  0  0  0  0  0  0
   10.7780    2.4612    0.6832 H   0  0  0  0  0  0  0  0  0  0  0  0
    9.4731    3.9166    2.1829 H   0  0  0  0  0  0  0  0  0  0  0  0
    7.0120    4.1449    1.8425 H   0  0  0  0  0  0  0  0  0  0  0  0
    5.8589    2.9300    0.0210 H   0  0  0  0  0  0  0  0  0  0  0  0
    7.7207   -1.5773   -0.1978 H   0  0  0  0  0  0  0  0  0  0  0  0
    8.5979   -0.8479   -1.5023 H   0  0  0  0  0  0  0  0  0  0  0  0
   -6.6552   -7.8033    1.8920 H   0  0  0  0  0  0  0  0  0  0  0  0
   -5.7565   -7.1974    0.4551 H   0  0  0  0  0  0  0  0  0  0  0  0
  1  2  1  0
  2  3  2  3
  3  4  1  0
  4  5  1  0
  5  6  1  0
  6  7  1  0
  7  8  1  0
  8  9  1  0
  9 10  2  0
  9 11  1  0
 11 12  1  0
 12 13  1  0
 13 14  2  0
 14 15  1  0
 15 16  2  0
 16 17  1  0
 17 18  2  0
 11 19  1  0
 19 20  1  0
 20 21  2  0
 20 22  1  0
 22 23  1  0
 23 24  1  0
 24 25  1  0
 25 26  1  0
 26 27  2  0
 27 28  1  0
 22 29  1  0
 29 30  1  0
 30 31  2  0
 30 32  1  0
 32 33  1  0
 33 34  1  0
 34 35  1  0
 35 36  1  0
 36 37  1  0
 37 38  1  0
 38 39  1  0
 39 40  2  0
 39 41  1  0
 41 42  1  0
 42 43  1  0
 43 44  2  0
 41 45  1  0
 45 46  1  0
 46 47  2  0
 47 48  1  0
 48 49  1  0
 49 50  2  0
 50 51  1  0
 51 52  2  0
 52 53  1  0
 53 54  2  0
 37 55  1  0
 55 56  2  0
 55 57  1  0
 57 58  1  0
 58 59  1  0
 59 60  2  0
 59 61  1  0
 58 62  1  0
 62 63  1  0
 62 64  1  0
 32 65  1  0
 65 66  1  0
 66 67  2  0
 66 68  1  0
 68 69  1  0
 69 70  1  0
 70 71  2  0
 71 72  1  0
 72 73  2  0
 73 74  1  0
 74 75  2  0
 68 76  1  0
  2 77  1  0
 43  7  1  0
 50 46  1  0
 75 70  1  0
 18 13  1  0
 28 24  2  0
 54 49  1  0
  1 78  1  0
  1 79  1  0
  4 80  1  0
  4 81  1  0
  5 82  1  0
  5 83  1  0
  6 84  1  0
  6 85  1  0
  7 86  1  6
  8 87  1  0
 11 88  1  6
 12 89  1  0
 12 90  1  0
 14 91  1  0
 15 92  1  0
 16 93  1  0
 17 94  1  0
 18 95  1  0
 19 96  1  0
 22 97  1  6
 23 98  1  0
 23 99  1  0
 25100  1  0
 26101  1  0
 28102  1  0
 29103  1  0
 32104  1  1
 33105  1  0
 33106  1  0
 36107  1  0
 36108  1  0
 37109  1  6
 38110  1  0
 41111  1  1
 42112  1  0
 45113  1  0
 45114  1  0
 47115  1  0
 48116  1  0
 51117  1  0
 52118  1  0
 53119  1  0
 54120  1  0
 57121  1  0
 58122  1  1
 61123  1  0
 61124  1  0
 62125  1  6
 63126  1  0
 64127  1  0
 64128  1  0
 64129  1  0
 65130  1  0
 68131  1  6
 69132  1  0
 69133  1  0
 71134  1  0
 72135  1  0
 73136  1  0
 74137  1  0
 75138  1  0
 76139  1  0
 76140  1  0
 77141  1  0
 77142  1  0
M  END
>  <Ligand ID>  (1) 
LIG0000805

>  <Ligand>  (1) 
CHEMBL410404

>  <SMILES>  (1) 
NC(=NCCC[C@@H]1NC(=O)[C@H](Cc2ccccc2)NC(=O)[C@H](Cc2[nH]cnc2)NC(=O)[C@H](CSSC[C@@H](NC(=O)[C@H](NC1=O)Cc1c[nH]c2c1cccc2)C(=O)N[C@H](C(=O)N)[C@H](O)C)NC(=O)[C@@H](Cc1ccccc1)N)N

>  <CID>  (1) 
44285261.0

>  <ChEMBL ID>  (1) 
nan

>  <InChiKey>  (1) 
HGUGDVPBNFFDAR-NVTBXEIASA-N

>  <InChi>  (1) 
InChI=1S/C51H65N15O9S2/c1-28(67)42(43(53)68)66-50(75)41-26-77-76-25-40(64-44(69)34(52)19-29-11-4-2-5-12-29)49(74)63-39(22-32-24-56-27-59-32)48(73)61-37(20-30-13-6-3-7-14-30)46(71)60-36(17-10-18-57-51(54)55)45(70)62-38(47(72)65-41)21-31-23-58-35-16-9-8-15-33(31)35/h2-9,11-16,23-24,27-28,34,36-42,58,67H,10,17-22,25-26,52H2,1H3,(H2,53,68)(H,56,59)(H,60,71)(H,61,73)(H,62,70)(H,63,74)(H,64,69)(H,65,72)(H,66,75)(H4,54,55,57)/t28-,34-,36+,37+,38-,39+,40+,41-,42+/m1/s1

>  <IUPAC Name>  (1) 
(4S,7R,10S,13S,16S,19R)-N-[(2S,3R)-1-amino-3-hydroxy-1-oxobutan-2-yl]-19-[[(2R)-2-amino-3-phenylpropanoyl]amino]-13-benzyl-10-[3-(diaminomethylideneamino)propyl]-16-(1H-imidazol-5-ylmethyl)-7-(1H-indol-3-ylmethyl)-6,9,12,15,18-pentaoxo-1,2-dithia-5,8,11,14,17-pentazacycloicosane-4-carboxamide

$$$$
