
     RDKit          3D

 27 28  0  0  0  0  0  0  0  0999 V2000
   -3.8853    1.3781    0.6272 N   0  0  0  0  0  0  0  0  0  0  0  0
   -3.4318    0.4655   -0.3791 C   0  0  0  0  0  0  0  0  0  0  0  0
   -2.1655   -0.2805    0.0828 C   0  0  1  0  0  0  0  0  0  0  0  0
   -1.5723   -1.2760   -0.8739 C   0  0  0  0  0  0  0  0  0  0  0  0
   -0.8829   -0.0056   -0.5620 C   0  0  2  0  0  0  0  0  0  0  0  0
    0.4260    0.0675    0.0636 C   0  0  0  0  0  0  0  0  0  0  0  0
    0.7087    0.3101    1.3786 C   0  0  0  0  0  0  0  0  0  0  0  0
   -0.5766    0.6103    2.5205 Cl  0  0  0  0  0  0  0  0  0  0  0  0
    2.0098    0.3467    1.8842 C   0  0  0  0  0  0  0  0  0  0  0  0
    3.0907    0.1341    1.0537 C   0  0  0  0  0  0  0  0  0  0  0  0
    2.8248   -0.1119   -0.2777 C   0  0  0  0  0  0  0  0  0  0  0  0
    1.5424   -0.1463   -0.7663 C   0  0  0  0  0  0  0  0  0  0  0  0
    1.3501   -0.3971   -2.1042 F   0  0  0  0  0  0  0  0  0  0  0  0
    3.9531   -0.3529   -1.2442 C   0  0  0  0  0  0  0  0  0  0  0  0
   -4.9389    1.3951    0.6979 H   0  0  0  0  0  0  0  0  0  0  0  0
   -3.4333    1.2267    1.5506 H   0  0  0  0  0  0  0  0  0  0  0  0
   -4.1969   -0.3460   -0.5110 H   0  0  0  0  0  0  0  0  0  0  0  0
   -3.2911    0.9318   -1.3700 H   0  0  0  0  0  0  0  0  0  0  0  0
   -2.2740   -0.5335    1.1409 H   0  0  0  0  0  0  0  0  0  0  0  0
   -1.2142   -2.2584   -0.5147 H   0  0  0  0  0  0  0  0  0  0  0  0
   -2.1378   -1.3859   -1.8225 H   0  0  0  0  0  0  0  0  0  0  0  0
   -0.9747    0.7506   -1.4076 H   0  0  0  0  0  0  0  0  0  0  0  0
    2.1994    0.5421    2.9367 H   0  0  0  0  0  0  0  0  0  0  0  0
    4.1144    0.1466    1.3679 H   0  0  0  0  0  0  0  0  0  0  0  0
    3.8888   -1.3878   -1.6172 H   0  0  0  0  0  0  0  0  0  0  0  0
    3.9344    0.4147   -2.0608 H   0  0  0  0  0  0  0  0  0  0  0  0
    4.9325   -0.2381   -0.7411 H   0  0  0  0  0  0  0  0  0  0  0  0
  1  2  1  0
  2  3  1  0
  3  4  1  0
  4  5  1  0
  5  6  1  0
  6  7  2  0
  7  8  1  0
  7  9  1  0
  9 10  2  0
 10 11  1  0
 11 12  2  0
 12 13  1  0
 11 14  1  0
  5  3  1  0
 12  6  1  0
  1 15  1  0
  1 16  1  0
  2 17  1  0
  2 18  1  0
  3 19  1  1
  4 20  1  0
  4 21  1  0
  5 22  1  6
  9 23  1  0
 10 24  1  0
 14 25  1  0
 14 26  1  0
 14 27  1  0
M  END
>  <Ligand ID>  (1) 
LIG0003580

>  <Ligand>  (1) 
CHEMBL508680

>  <SMILES>  (1) 
NC[C@H]1C[C@@H]1c1c(Cl)ccc(c1F)C

>  <CID>  (1) 
44572207.0

>  <ChEMBL ID>  (1) 
nan

>  <InChiKey>  (1) 
KKDCPAICZNOUFD-SFYZADRCSA-N

>  <InChi>  (1) 
InChI=1S/C11H13ClFN/c1-6-2-3-9(12)10(11(6)13)8-4-7(8)5-14/h2-3,7-8H,4-5,14H2,1H3/t7-,8+/m1/s1

>  <IUPAC Name>  (1) 
[(1S,2S)-2-(6-chloro-2-fluoro-3-methylphenyl)cyclopropyl]methanamine

$$$$
