
     RDKit          2D

170174  0  0  0  0  0  0  0  0999 V2000
   14.6516    3.8331    0.0000 C   0  0  0  0  0  0  0  0  0  0  0  0
   13.5369    2.8294    0.0000 N   0  0  0  0  0  0  0  0  0  0  0  0
   12.1103    3.2929    0.0000 C   0  0  0  0  0  0  0  0  0  0  0  0
   10.9956    2.2892    0.0000 N   0  0  0  0  0  0  0  0  0  0  0  0
    9.5690    2.7528    0.0000 C   0  0  0  0  0  0  0  0  0  0  0  0
    8.1424    3.2163    0.0000 C   0  0  0  0  0  0  0  0  0  0  0  0
    6.7158    3.6798    0.0000 C   0  0  0  0  0  0  0  0  0  0  0  0
    5.2892    4.1433    0.0000 C   0  0  0  0  0  0  0  0  0  0  0  0
    3.8627    4.6069    0.0000 C   0  0  0  0  0  0  0  0  0  0  0  0
    3.7674    5.6962    0.0000 O   0  0  0  0  0  0  0  0  0  0  0  0
    2.7479    3.6032    0.0000 N   0  0  0  0  0  0  0  0  0  0  0  0
    1.3213    4.0667    0.0000 C   0  0  0  0  0  0  0  0  0  0  0  0
    1.7849    5.4933    0.0000 C   0  0  0  0  0  0  0  0  0  0  0  0
    2.8188    5.8493    0.0000 O   0  0  0  0  0  0  0  0  0  0  0  0
    0.7812    6.6080    0.0000 N   0  0  0  0  0  0  0  0  0  0  0  0
    0.8578    2.6401    0.0000 C   0  0  0  0  0  0  0  0  0  0  0  0
    0.3943    1.2135    0.0000 C   0  0  0  0  0  0  0  0  0  0  0  0
    1.2760    0.0000    0.0000 C   0  0  0  0  0  0  0  0  0  0  0  0
    0.3943   -1.2135    0.0000 N   0  0  0  0  0  0  0  0  0  0  0  0
   -1.0323   -0.7500    0.0000 C   0  0  0  0  0  0  0  0  0  0  0  0
   -1.0323    0.7500    0.0000 C   0  0  0  0  0  0  0  0  0  0  0  0
   -2.3313    1.5000    0.0000 C   0  0  0  0  0  0  0  0  0  0  0  0
   -3.6304    0.7500    0.0000 C   0  0  0  0  0  0  0  0  0  0  0  0
   -3.6304   -0.7500    0.0000 C   0  0  0  0  0  0  0  0  0  0  0  0
   -2.3313   -1.5000    0.0000 C   0  0  0  0  0  0  0  0  0  0  0  0
    5.7528    5.5699    0.0000 N   0  0  0  0  0  0  0  0  0  0  0  0
    7.2200    5.8818    0.0000 C   0  0  0  0  0  0  0  0  0  0  0  0
    7.8885    5.3007    0.0000 O   0  0  0  0  0  0  0  0  0  0  0  0
    7.6835    7.3084    0.0000 C   0  0  0  0  0  0  0  0  0  0  0  0
    9.1101    6.8449    0.0000 N   0  0  0  0  0  0  0  0  0  0  0  0
   10.2248    7.8485    0.0000 C   0  0  0  0  0  0  0  0  0  0  0  0
   10.2592    8.8321    0.0000 O   0  0  0  0  0  0  0  0  0  0  0  0
   11.6514    7.3850    0.0000 N   0  0  0  0  0  0  0  0  0  0  0  0
   12.7661    8.3887    0.0000 N   0  0  0  0  0  0  0  0  0  0  0  0
   14.1927    7.9252    0.0000 C   0  0  0  0  0  0  0  0  0  0  0  0
   14.5046    6.4580    0.0000 O   0  0  0  0  0  0  0  0  0  0  0  0
   15.3074    8.9289    0.0000 C   0  0  0  0  0  0  0  0  0  0  0  0
   16.3111    7.8142    0.0000 N   0  0  0  0  0  0  0  0  0  0  0  0
   17.7783    8.1260    0.0000 C   0  0  0  0  0  0  0  0  0  0  0  0
   18.2419    9.5526    0.0000 O   0  0  0  0  0  0  0  0  0  0  0  0
   18.7820    7.0113    0.0000 C   0  0  0  0  0  0  0  0  0  0  0  0
   19.7857    5.8966    0.0000 C   0  0  0  0  0  0  0  0  0  0  0  0
   18.6710    4.8929    0.0000 O   0  0  0  0  0  0  0  0  0  0  0  0
   20.7894    4.7819    0.0000 C   0  0  0  0  0  0  0  0  0  0  0  0
   19.8967    8.0150    0.0000 N   0  0  0  0  0  0  0  0  0  0  0  0
   21.3233    7.5515    0.0000 C   0  0  0  0  0  0  0  0  0  0  0  0
   21.6794    6.5176    0.0000 O   0  0  0  0  0  0  0  0  0  0  0  0
   22.4380    8.5552    0.0000 C   0  0  0  0  0  0  0  0  0  0  0  0
   23.4417    7.4405    0.0000 N   0  0  0  0  0  0  0  0  0  0  0  0
   24.9090    7.7523    0.0000 C   0  0  0  0  0  0  0  0  0  0  0  0
   25.1951    9.2248    0.0000 O   0  0  0  0  0  0  0  0  0  0  0  0
   25.9127    6.6376    0.0000 C   0  0  0  0  0  0  0  0  0  0  0  0
   26.8362    7.8196    0.0000 C   0  0  0  0  0  0  0  0  0  0  0  0
   28.3216    7.6109    0.0000 C   0  0  0  0  0  0  0  0  0  0  0  0
   28.8835    6.2201    0.0000 C   0  0  0  0  0  0  0  0  0  0  0  0
   27.9600    5.0381    0.0000 C   0  0  0  0  0  0  0  0  0  0  0  0
   26.4746    5.2468    0.0000 N   0  0  0  0  0  0  0  0  0  0  0  0
   25.5511    4.0648    0.0000 C   0  0  0  0  0  0  0  0  0  0  0  0
   24.0657    4.2736    0.0000 O   0  0  0  0  0  0  0  0  0  0  0  0
   26.1130    2.6741    0.0000 C   0  0  0  0  0  0  0  0  0  0  0  0
   26.6749    1.2833    0.0000 C   0  0  0  0  0  0  0  0  0  0  0  0
   27.2368   -0.1075    0.0000 C   0  0  0  0  0  0  0  0  0  0  0  0
   26.3133   -1.2895    0.0000 C   0  0  0  0  0  0  0  0  0  0  0  0
   26.8752   -2.6803    0.0000 C   0  0  0  0  0  0  0  0  0  0  0  0
   28.3606   -2.8891    0.0000 C   0  0  0  0  0  0  0  0  0  0  0  0
   29.2841   -1.7070    0.0000 C   0  0  0  0  0  0  0  0  0  0  0  0
   28.7222   -0.3163    0.0000 C   0  0  0  0  0  0  0  0  0  0  0  0
   28.9225   -4.2798    0.0000 O   0  0  0  0  0  0  0  0  0  0  0  0
   24.7222    2.1121    0.0000 N   0  0  0  0  0  0  0  0  0  0  0  0
   24.5135    0.6267    0.0000 C   0  0  0  0  0  0  0  0  0  0  0  0
   25.6955   -0.2968    0.0000 O   0  0  0  0  0  0  0  0  0  0  0  0
   23.1227    0.0648    0.0000 C   0  0  0  0  0  0  0  0  0  0  0  0
   23.5528    9.5589    0.0000 C   0  0  0  0  0  0  0  0  0  0  0  0
   24.6675   10.5626    0.0000 C   0  0  0  0  0  0  0  0  0  0  0  0
   26.0941   10.0991    0.0000 O   0  0  0  0  0  0  0  0  0  0  0  0
   24.3556   12.0298    0.0000 N   0  0  0  0  0  0  0  0  0  0  0  0
   16.4221    9.9326    0.0000 C   0  0  0  0  0  0  0  0  0  0  0  0
   17.5368   10.9363    0.0000 C   0  0  0  0  0  0  0  0  0  0  0  0
   18.9634   10.4728    0.0000 C   0  0  0  0  0  0  0  0  0  0  0  0
   20.0782   11.4765    0.0000 C   0  0  0  0  0  0  0  0  0  0  0  0
   19.7663   12.9437    0.0000 C   0  0  0  0  0  0  0  0  0  0  0  0
   18.3397   13.4072    0.0000 C   0  0  0  0  0  0  0  0  0  0  0  0
   17.2250   12.4035    0.0000 C   0  0  0  0  0  0  0  0  0  0  0  0
    8.1470    8.7350    0.0000 C   0  0  0  0  0  0  0  0  0  0  0  0
    8.6106   10.1615    0.0000 C   0  0  0  0  0  0  0  0  0  0  0  0
    9.0741   11.5881    0.0000 C   0  0  0  0  0  0  0  0  0  0  0  0
   10.0371    9.6980    0.0000 C   0  0  0  0  0  0  0  0  0  0  0  0
   11.7984    4.7602    0.0000 N   0  0  0  0  0  0  0  0  0  0  0  0
   15.7663    4.8368    0.0000 H   0  0  0  0  0  0  0  0  0  0  0  0
   15.6553    2.7184    0.0000 H   0  0  0  0  0  0  0  0  0  0  0  0
   13.6479    4.9478    0.0000 H   0  0  0  0  0  0  0  0  0  0  0  0
   11.3074    0.8220    0.0000 H   0  0  0  0  0  0  0  0  0  0  0  0
    9.1055    1.3262    0.0000 H   0  0  0  0  0  0  0  0  0  0  0  0
   10.0325    4.1793    0.0000 H   0  0  0  0  0  0  0  0  0  0  0  0
    8.6559    4.3174    0.0000 H   0  0  0  0  0  0  0  0  0  0  0  0
    7.6789    1.7897    0.0000 H   0  0  0  0  0  0  0  0  0  0  0  0
    7.2953    4.6071    0.0000 H   0  0  0  0  0  0  0  0  0  0  0  0
    6.2523    2.2532    0.0000 H   0  0  0  0  0  0  0  0  0  0  0  0
    4.8257    2.7168    0.0000 H   0  0  0  0  0  0  0  0  0  0  0  0
    3.2363    2.1849    0.0000 H   0  0  0  0  0  0  0  0  0  0  0  0
   -0.1052    4.5302    0.0000 H   0  0  0  0  0  0  0  0  0  0  0  0
    1.2447    8.0346    0.0000 H   0  0  0  0  0  0  0  0  0  0  0  0
   -0.6860    6.2961    0.0000 H   0  0  0  0  0  0  0  0  0  0  0  0
    2.2173    2.0061    0.0000 H   0  0  0  0  0  0  0  0  0  0  0  0
   -0.5688    3.1036    0.0000 H   0  0  0  0  0  0  0  0  0  0  0  0
    2.7760    0.0000    0.0000 H   0  0  0  0  0  0  0  0  0  0  0  0
    0.8578   -2.6401    0.0000 H   0  0  0  0  0  0  0  0  0  0  0  0
   -2.3313    3.0000    0.0000 H   0  0  0  0  0  0  0  0  0  0  0  0
   -4.9294    1.5000    0.0000 H   0  0  0  0  0  0  0  0  0  0  0  0
   -4.9294   -1.5000    0.0000 H   0  0  0  0  0  0  0  0  0  0  0  0
   -2.3313   -3.0000    0.0000 H   0  0  0  0  0  0  0  0  0  0  0  0
    4.7491    6.6846    0.0000 H   0  0  0  0  0  0  0  0  0  0  0  0
    6.2569    7.7719    0.0000 H   0  0  0  0  0  0  0  0  0  0  0  0
    9.4220    5.3776    0.0000 H   0  0  0  0  0  0  0  0  0  0  0  0
   11.9633    5.9178    0.0000 H   0  0  0  0  0  0  0  0  0  0  0  0
   12.4542    9.8559    0.0000 H   0  0  0  0  0  0  0  0  0  0  0  0
   14.3037   10.0436    0.0000 H   0  0  0  0  0  0  0  0  0  0  0  0
   15.8476    6.3876    0.0000 H   0  0  0  0  0  0  0  0  0  0  0  0
   17.6673    6.0076    0.0000 H   0  0  0  0  0  0  0  0  0  0  0  0
   20.7513    6.4099    0.0000 H   0  0  0  0  0  0  0  0  0  0  0  0
   18.8017    3.3986    0.0000 H   0  0  0  0  0  0  0  0  0  0  0  0
   21.7931    3.6672    0.0000 H   0  0  0  0  0  0  0  0  0  0  0  0
   19.8054    3.6498    0.0000 H   0  0  0  0  0  0  0  0  0  0  0  0
   22.0182    5.6422    0.0000 H   0  0  0  0  0  0  0  0  0  0  0  0
   19.4084    9.4333    0.0000 H   0  0  0  0  0  0  0  0  0  0  0  0
   21.4344    9.6699    0.0000 H   0  0  0  0  0  0  0  0  0  0  0  0
   22.9782    6.0139    0.0000 H   0  0  0  0  0  0  0  0  0  0  0  0
   24.6406    5.8427    0.0000 H   0  0  0  0  0  0  0  0  0  0  0  0
   27.2997    9.2462    0.0000 H   0  0  0  0  0  0  0  0  0  0  0  0
   25.6074    8.6800    0.0000 H   0  0  0  0  0  0  0  0  0  0  0  0
   29.7888    7.9227    0.0000 H   0  0  0  0  0  0  0  0  0  0  0  0
   28.2692    9.1100    0.0000 H   0  0  0  0  0  0  0  0  0  0  0  0
   29.8872    5.1054    0.0000 H   0  0  0  0  0  0  0  0  0  0  0  0
   30.1555    7.0150    0.0000 H   0  0  0  0  0  0  0  0  0  0  0  0
   27.6738    3.5656    0.0000 H   0  0  0  0  0  0  0  0  0  0  0  0
   29.2844    4.3339    0.0000 H   0  0  0  0  0  0  0  0  0  0  0  0
   27.5619    3.0622    0.0000 H   0  0  0  0  0  0  0  0  0  0  0  0
   28.0657    1.8452    0.0000 H   0  0  0  0  0  0  0  0  0  0  0  0
   25.4614    0.4015    0.0000 H   0  0  0  0  0  0  0  0  0  0  0  0
   24.8279   -1.0808    0.0000 H   0  0  0  0  0  0  0  0  0  0  0  0
   25.9517   -3.8623    0.0000 H   0  0  0  0  0  0  0  0  0  0  0  0
   30.7695   -1.9158    0.0000 H   0  0  0  0  0  0  0  0  0  0  0  0
   29.6457    0.8658    0.0000 H   0  0  0  0  0  0  0  0  0  0  0  0
   30.4079   -4.4886    0.0000 H   0  0  0  0  0  0  0  0  0  0  0  0
   23.5402    3.0356    0.0000 H   0  0  0  0  0  0  0  0  0  0  0  0
   21.7319   -0.4971    0.0000 H   0  0  0  0  0  0  0  0  0  0  0  0
   23.6846   -1.3259    0.0000 H   0  0  0  0  0  0  0  0  0  0  0  0
   22.5608    1.4556    0.0000 H   0  0  0  0  0  0  0  0  0  0  0  0
   22.5491   10.6736    0.0000 H   0  0  0  0  0  0  0  0  0  0  0  0
   24.7964    8.7202    0.0000 H   0  0  0  0  0  0  0  0  0  0  0  0
   25.4703   13.0335    0.0000 H   0  0  0  0  0  0  0  0  0  0  0  0
   22.9290   12.4933    0.0000 H   0  0  0  0  0  0  0  0  0  0  0  0
   17.6657    9.0939    0.0000 H   0  0  0  0  0  0  0  0  0  0  0  0
   15.4184   11.0473    0.0000 H   0  0  0  0  0  0  0  0  0  0  0  0
   19.0941    8.9785    0.0000 H   0  0  0  0  0  0  0  0  0  0  0  0
   21.5047   11.0129    0.0000 H   0  0  0  0  0  0  0  0  0  0  0  0
   20.8810   13.9474    0.0000 H   0  0  0  0  0  0  0  0  0  0  0  0
   18.0278   14.8744    0.0000 H   0  0  0  0  0  0  0  0  0  0  0  0
   15.7984   12.8670    0.0000 H   0  0  0  0  0  0  0  0  0  0  0  0
    6.7204    9.1985    0.0000 H   0  0  0  0  0  0  0  0  0  0  0  0
    9.6195    8.4488    0.0000 H   0  0  0  0  0  0  0  0  0  0  0  0
    7.1840   10.6251    0.0000 H   0  0  0  0  0  0  0  0  0  0  0  0
    9.5376   13.0147    0.0000 H   0  0  0  0  0  0  0  0  0  0  0  0
    7.6475   12.0517    0.0000 H   0  0  0  0  0  0  0  0  0  0  0  0
   10.5465   11.3020    0.0000 H   0  0  0  0  0  0  0  0  0  0  0  0
   11.4637    9.2345    0.0000 H   0  0  0  0  0  0  0  0  0  0  0  0
   10.6711   11.0575    0.0000 H   0  0  0  0  0  0  0  0  0  0  0  0
    9.4032    8.3386    0.0000 H   0  0  0  0  0  0  0  0  0  0  0  0
   12.9131    5.7639    0.0000 H   0  0  0  0  0  0  0  0  0  0  0  0
   10.3718    5.2237    0.0000 H   0  0  0  0  0  0  0  0  0  0  0  0
  1  2  1  0
  2  3  2  3
  3  4  1  0
  4  5  1  0
  5  6  1  0
  6  7  1  0
  7  8  1  0
  8  9  1  0
  9 10  2  0
  9 11  1  0
 11 12  1  0
 12 13  1  0
 13 14  2  0
 13 15  1  0
 12 16  1  0
 16 17  1  0
 17 18  2  0
 18 19  1  0
 19 20  1  0
 20 21  2  0
 21 22  1  0
 22 23  2  0
 23 24  1  0
 24 25  2  0
  8 26  1  0
 26 27  1  0
 27 28  2  0
 27 29  1  0
 29 30  1  0
 30 31  1  0
 31 32  2  0
 31 33  1  0
 33 34  1  0
 34 35  1  0
 35 36  2  0
 35 37  1  0
 37 38  1  0
 38 39  1  0
 39 40  2  0
 39 41  1  0
 41 42  1  0
 42 43  1  0
 42 44  1  0
 41 45  1  0
 45 46  1  0
 46 47  2  0
 46 48  1  0
 48 49  1  0
 49 50  1  0
 50 51  2  0
 50 52  1  0
 52 53  1  0
 53 54  1  0
 54 55  1  0
 55 56  1  0
 56 57  1  0
 57 58  1  0
 58 59  2  0
 58 60  1  0
 60 61  1  0
 61 62  1  0
 62 63  2  0
 63 64  1  0
 64 65  2  0
 65 66  1  0
 66 67  2  0
 65 68  1  0
 60 69  1  0
 69 70  1  0
 70 71  2  0
 70 72  1  0
 48 73  1  0
 73 74  1  0
 74 75  2  0
 74 76  1  0
 37 77  1  0
 77 78  1  0
 78 79  2  0
 79 80  1  0
 80 81  2  0
 81 82  1  0
 82 83  2  0
 29 84  1  0
 84 85  1  0
 85 86  1  0
 85 87  1  0
  3 88  1  0
 21 17  1  0
 57 52  1  0
 67 62  1  0
 83 78  1  0
 25 20  1  0
  1 89  1  0
  1 90  1  0
  1 91  1  0
  4 92  1  0
  5 93  1  0
  5 94  1  0
  6 95  1  0
  6 96  1  0
  7 97  1  0
  7 98  1  0
  8 99  1  6
 11100  1  0
 12101  1  6
 15102  1  0
 15103  1  0
 16104  1  0
 16105  1  0
 18106  1  0
 19107  1  0
 22108  1  0
 23109  1  0
 24110  1  0
 25111  1  0
 26112  1  0
 29113  1  1
 30114  1  0
 33115  1  0
 34116  1  0
 37117  1  1
 38118  1  0
 41119  1  6
 42120  1  6
 43121  1  0
 44122  1  0
 44123  1  0
 44124  1  0
 45125  1  0
 48126  1  1
 49127  1  0
 52128  1  1
 53129  1  0
 53130  1  0
 54131  1  0
 54132  1  0
 55133  1  0
 55134  1  0
 56135  1  0
 56136  1  0
 60137  1  6
 61138  1  0
 61139  1  0
 63140  1  0
 64141  1  0
 66142  1  0
 67143  1  0
 68144  1  0
 69145  1  0
 72146  1  0
 72147  1  0
 72148  1  0
 73149  1  0
 73150  1  0
 76151  1  0
 76152  1  0
 77153  1  0
 77154  1  0
 79155  1  0
 80156  1  0
 81157  1  0
 82158  1  0
 83159  1  0
 84160  1  0
 84161  1  0
 85162  1  0
 86163  1  0
 86164  1  0
 86165  1  0
 87166  1  0
 87167  1  0
 87168  1  0
 88169  1  0
 88170  1  0
M  END
>  <Ligand ID>  (1) 
LIG0005347

>  <Ligand>  (1) 
CHEMBL3894943

>  <SMILES>  (1) 
CN=C(NCCC[C@@H](C(=O)N[C@H](C(=O)N)Cc1c[nH]c2c1cccc2)NC(=O)[C@@H](NC(=O)NNC(=O)[C@@H](NC(=O)[C@H]([C@H](O)C)NC(=O)[C@@H](NC(=O)[C@@H]1CCCCN1C(=O)[C@@H](Cc1ccc(cc1)O)NC(=O)C)CC(=O)N)Cc1ccccc1)CC(C)C)N

>  <CID>  (1) 
24995205.0

>  <ChEMBL ID>  (1) 
nan

>  <InChiKey>  (1) 
KJWLKJOZYHCFNA-JMXLRESJSA-N

>  <InChi>  (1) 
InChI=1S/C59H82N16O13/c1-32(2)26-43(52(82)67-41(18-13-24-64-58(62)63-5)51(81)68-42(50(61)80)29-37-31-65-40-17-10-9-16-39(37)40)71-59(88)74-73-54(84)44(27-35-14-7-6-8-15-35)70-56(86)49(33(3)76)72-53(83)45(30-48(60)79)69-55(85)47-19-11-12-25-75(47)57(87)46(66-34(4)77)28-36-20-22-38(78)23-21-36/h6-10,14-17,20-23,31-33,41-47,49,65,76,78H,11-13,18-19,24-30H2,1-5H3,(H2,60,79)(H2,61,80)(H,66,77)(H,67,82)(H,68,81)(H,69,85)(H,70,86)(H,72,83)(H,73,84)(H3,62,63,64)(H2,71,74,88)/t33-,41+,42+,43+,44+,45+,46-,47+,49+/m1/s1

>  <IUPAC Name>  (1) 
(2S)-2-[[(2S)-1-[(2R)-2-acetamido-3-(4-hydroxyphenyl)propanoyl]piperidine-2-carbonyl]amino]-N-[(2S,3R)-1-[[(2S)-1-[2-[[(2S)-1-[[(2S)-1-[[(2S)-1-amino-3-(1H-indol-3-yl)-1-oxopropan-2-yl]amino]-5-[(N'-methylcarbamimidoyl)amino]-1-oxopentan-2-yl]amino]-4-methyl-1-oxopentan-2-yl]carbamoyl]hydrazinyl]-1-oxo-3-phenylpropan-2-yl]amino]-3-hydroxy-1-oxobutan-2-yl]butanediamide

$$$$
