
     RDKit          3D

 59 63  0  0  0  0  0  0  0  0999 V2000
   -5.2547    1.2081    5.0233 Cl  0  0  0  0  0  0  0  0  0  0  0  0
   -4.5043    0.5622    3.5801 C   0  0  0  0  0  0  0  0  0  0  0  0
   -4.7185    1.1519    2.3524 C   0  0  0  0  0  0  0  0  0  0  0  0
   -4.1267    0.6455    1.2082 C   0  0  0  0  0  0  0  0  0  0  0  0
   -3.2959   -0.4698    1.2332 C   0  0  0  0  0  0  0  0  0  0  0  0
   -3.1065   -1.0341    2.4929 C   0  0  0  0  0  0  0  0  0  0  0  0
   -3.6949   -0.5304    3.6306 C   0  0  0  0  0  0  0  0  0  0  0  0
   -2.6673   -1.0259    0.0064 C   0  0  0  0  0  0  0  0  0  0  0  0
   -1.8112   -0.0614   -0.7155 C   0  0  0  0  0  0  0  0  0  0  0  0
   -2.1461    0.5150   -1.9191 C   0  0  0  0  0  0  0  0  0  0  0  0
   -1.3038    1.4161   -2.5286 C   0  0  0  0  0  0  0  0  0  0  0  0
   -0.0976    1.7513   -1.9239 C   0  0  0  0  0  0  0  0  0  0  0  0
    0.2759    1.1977   -0.7200 C   0  0  0  0  0  0  0  0  0  0  0  0
   -0.5893    0.3022   -0.1406 C   0  0  0  0  0  0  0  0  0  0  0  0
    1.4990    1.5454   -0.1167 C   0  0  0  0  0  0  0  0  0  0  0  0
    1.8900    1.0218    1.1118 N   0  0  0  0  0  0  0  0  0  0  0  0
    3.0963    1.2461    1.8470 C   0  0  0  0  0  0  0  0  0  0  0  0
    4.2941    0.5845    1.3020 C   0  0  0  0  0  0  0  0  0  0  0  0
    4.4482   -0.7707    1.6390 C   0  0  0  0  0  0  0  0  0  0  0  0
    5.5277   -1.5038    1.2241 C   0  0  0  0  0  0  0  0  0  0  0  0
    6.5118   -0.9334    0.4531 C   0  0  0  0  0  0  0  0  0  0  0  0
    6.3762    0.3959    0.1135 C   0  0  0  0  0  0  0  0  0  0  0  0
    5.2701    1.1318    0.5440 C   0  0  0  0  0  0  0  0  0  0  0  0
    7.4233    1.0494   -0.7230 C   0  0  0  0  0  0  0  0  0  0  0  0
    7.7395    2.3110   -0.2211 F   0  0  0  0  0  0  0  0  0  0  0  0
    7.0084    1.2488   -2.0240 F   0  0  0  0  0  0  0  0  0  0  0  0
    8.5764    0.3061   -0.6235 F   0  0  0  0  0  0  0  0  0  0  0  0
    2.2425    2.4662   -0.8452 C   0  0  0  0  0  0  0  0  0  0  0  0
    1.8240    2.9908   -2.0473 C   0  0  0  0  0  0  0  0  0  0  0  0
    2.5572    3.8194   -2.6444 O   0  0  0  0  0  0  0  0  0  0  0  0
    0.6563    2.6426   -2.5988 N   0  0  0  0  0  0  0  0  0  0  0  0
   -3.5513   -1.8415   -0.8237 C   0  0  0  0  0  0  0  0  0  0  0  0
   -3.2893   -3.2017   -1.0511 C   0  0  0  0  0  0  0  0  0  0  0  0
   -4.0779   -4.0112   -1.7980 C   0  0  0  0  0  0  0  0  0  0  0  0
   -5.2175   -3.5309   -2.3958 C   0  0  0  0  0  0  0  0  0  0  0  0
   -5.5202   -2.2051   -2.2047 C   0  0  0  0  0  0  0  0  0  0  0  0
   -4.7079   -1.3743   -1.4359 C   0  0  0  0  0  0  0  0  0  0  0  0
   -6.2611   -4.5408   -3.3666 Cl  0  0  0  0  0  0  0  0  0  0  0  0
   -5.3702    2.0244    2.3412 H   0  0  0  0  0  0  0  0  0  0  0  0
   -4.3405    1.1737    0.2917 H   0  0  0  0  0  0  0  0  0  0  0  0
   -2.4621   -1.9108    2.5614 H   0  0  0  0  0  0  0  0  0  0  0  0
   -3.5275   -0.9932    4.6024 H   0  0  0  0  0  0  0  0  0  0  0  0
   -1.9081   -1.7812    0.4378 H   0  0  0  0  0  0  0  0  0  0  0  0
   -3.0637    0.2824   -2.4254 H   0  0  0  0  0  0  0  0  0  0  0  0
   -1.5931    1.8543   -3.4761 H   0  0  0  0  0  0  0  0  0  0  0  0
   -0.3727   -0.1774    0.8000 H   0  0  0  0  0  0  0  0  0  0  0  0
    1.2053    0.3549    1.5940 H   0  0  0  0  0  0  0  0  0  0  0  0
    2.9812    1.0035    2.9280 H   0  0  0  0  0  0  0  0  0  0  0  0
    3.3353    2.3556    1.8299 H   0  0  0  0  0  0  0  0  0  0  0  0
    3.7103   -1.2860    2.2445 H   0  0  0  0  0  0  0  0  0  0  0  0
    5.6317   -2.5479    1.4926 H   0  0  0  0  0  0  0  0  0  0  0  0
    7.3551   -1.5430    0.1407 H   0  0  0  0  0  0  0  0  0  0  0  0
    5.2422    2.1517    0.2558 H   0  0  0  0  0  0  0  0  0  0  0  0
    3.1680    2.7974   -0.4610 H   0  0  0  0  0  0  0  0  0  0  0  0
    0.3964    3.0695   -3.5010 H   0  0  0  0  0  0  0  0  0  0  0  0
   -2.3942   -3.6534   -0.6034 H   0  0  0  0  0  0  0  0  0  0  0  0
   -3.8217   -5.0572   -1.9366 H   0  0  0  0  0  0  0  0  0  0  0  0
   -6.4249   -1.8165   -2.6771 H   0  0  0  0  0  0  0  0  0  0  0  0
   -5.0220   -0.3688   -1.3338 H   0  0  0  0  0  0  0  0  0  0  0  0
  1  2  1  0
  2  3  2  0
  3  4  1  0
  4  5  2  0
  5  6  1  0
  6  7  2  0
  5  8  1  0
  8  9  1  0
  9 10  2  0
 10 11  1  0
 11 12  2  0
 12 13  1  0
 13 14  2  0
 13 15  1  0
 15 16  1  0
 16 17  1  0
 17 18  1  0
 18 19  2  0
 19 20  1  0
 20 21  2  0
 21 22  1  0
 22 23  2  0
 22 24  1  0
 24 25  1  0
 24 26  1  0
 24 27  1  0
 15 28  2  0
 28 29  1  0
 29 30  2  0
 29 31  1  0
  8 32  1  0
 32 33  2  0
 33 34  1  0
 34 35  2  0
 35 36  1  0
 36 37  2  0
 35 38  1  0
  7  2  1  0
 14  9  1  0
 23 18  1  0
 37 32  1  0
 31 12  1  0
  3 39  1  0
  4 40  1  0
  6 41  1  0
  7 42  1  0
  8 43  1  0
 10 44  1  0
 11 45  1  0
 14 46  1  0
 16 47  1  0
 17 48  1  0
 17 49  1  0
 19 50  1  0
 20 51  1  0
 21 52  1  0
 23 53  1  0
 28 54  1  0
 31 55  1  0
 33 56  1  0
 34 57  1  0
 36 58  1  0
 37 59  1  0
M  END
>  <Ligand ID>  (1) 
LIG0005802

>  <Ligand>  (1) 
CHEMBL3900016

>  <SMILES>  (1) 
Clc1ccc(cc1)C(c1ccc2c(c1)c(NCc1cccc(c1)C(F)(F)F)cc(=O)[nH]2)c1ccc(cc1)Cl

>  <CID>  (1) 
118324118.0

>  <ChEMBL ID>  (1) 
nan

>  <InChiKey>  (1) 
XCVUFWLLCDRNMC-UHFFFAOYSA-N

>  <InChi>  (1) 
InChI=1S/C30H21Cl2F3N2O/c31-23-9-4-19(5-10-23)29(20-6-11-24(32)12-7-20)21-8-13-26-25(15-21)27(16-28(38)37-26)36-17-18-2-1-3-22(14-18)30(33,34)35/h1-16,29H,17H2,(H2,36,37,38)

>  <IUPAC Name>  (1) 
6-[bis(4-chlorophenyl)methyl]-4-[[3-(trifluoromethyl)phenyl]methylamino]-1H-quinolin-2-one

$$$$
