
     RDKit          3D

 58 64  0  0  0  0  0  0  0  0999 V2000
    0.6555    5.2354   -1.9102 O   0  0  0  0  0  0  0  0  0  0  0  0
    0.3448    4.3678   -0.8661 C   0  0  0  0  0  0  0  0  0  0  0  0
    0.5257    4.8797    0.4163 C   0  0  0  0  0  0  0  0  0  0  0  0
    0.2388    4.0777    1.5055 C   0  0  0  0  0  0  0  0  0  0  0  0
   -0.2204    2.7879    1.2876 C   0  0  0  0  0  0  0  0  0  0  0  0
   -0.3996    2.2804    0.0183 C   0  0  0  0  0  0  0  0  0  0  0  0
   -0.1125    3.0833   -1.0826 C   0  0  0  0  0  0  0  0  0  0  0  0
   -0.9053    0.8598    0.1187 C   0  0  2  0  0  0  0  0  0  0  0  0
   -2.4002    0.8648   -0.0074 C   0  0  0  0  0  0  0  0  0  0  0  0
   -3.1192    0.1054    1.0701 C   0  0  0  0  0  0  0  0  0  0  0  0
   -2.4206   -0.9360    1.6636 N   0  0  0  0  0  0  0  0  0  0  0  0
   -1.0720   -0.7179    2.0464 C   0  0  0  0  0  0  0  0  0  0  0  0
   -0.3811    0.4710    1.4508 C   0  0  2  0  0  0  0  0  0  0  0  0
   -0.5893    1.7517    2.2631 C   0  0  0  0  0  0  0  0  0  0  0  0
    1.0834    0.2338    1.5171 C   0  0  0  0  0  0  0  0  0  0  0  0
    1.7383   -0.2575    0.3156 C   0  0  0  0  0  0  0  0  0  0  0  0
    1.0566   -0.3372   -0.8772 C   0  0  0  0  0  0  0  0  0  0  0  0
   -0.3562    0.0500   -1.0340 C   0  0  0  0  0  0  0  0  0  0  0  0
    1.7016   -0.7953   -1.9647 N   0  0  0  0  0  0  0  0  0  0  0  0
    3.0055   -1.1781   -1.9084 C   0  0  0  0  0  0  0  0  0  0  0  0
    3.6560   -1.6458   -3.0332 C   0  0  0  0  0  0  0  0  0  0  0  0
    4.9960   -2.0324   -2.9495 C   0  0  0  0  0  0  0  0  0  0  0  0
    5.6727   -1.9491   -1.7474 C   0  0  0  0  0  0  0  0  0  0  0  0
    5.0299   -1.4850   -0.6273 C   0  0  0  0  0  0  0  0  0  0  0  0
    3.7077   -1.1103   -0.7383 C   0  0  0  0  0  0  0  0  0  0  0  0
    3.0589   -0.6431    0.3833 C   0  0  0  0  0  0  0  0  0  0  0  0
   -2.8187   -2.2755    1.5067 C   0  0  0  0  0  0  0  0  0  0  0  0
   -2.6644   -2.9340    0.1919 C   0  0  0  0  0  0  0  0  0  0  0  0
   -3.3058   -2.5254   -1.0806 C   0  0  0  0  0  0  0  0  0  0  0  0
   -3.8246   -3.7041   -0.3400 C   0  0  0  0  0  0  0  0  0  0  0  0
   -0.0742    5.4049   -2.5892 H   0  0  0  0  0  0  0  0  0  0  0  0
    0.8778    5.8693    0.6141 H   0  0  0  0  0  0  0  0  0  0  0  0
    0.3671    4.4468    2.5272 H   0  0  0  0  0  0  0  0  0  0  0  0
   -0.2447    2.7095   -2.0926 H   0  0  0  0  0  0  0  0  0  0  0  0
   -2.7098    0.5203   -1.0164 H   0  0  0  0  0  0  0  0  0  0  0  0
   -2.7763    1.9128    0.0343 H   0  0  0  0  0  0  0  0  0  0  0  0
   -4.0747   -0.2572    0.6554 H   0  0  0  0  0  0  0  0  0  0  0  0
   -3.4951    0.8387    1.8660 H   0  0  0  0  0  0  0  0  0  0  0  0
   -0.4934   -1.6222    1.7636 H   0  0  0  0  0  0  0  0  0  0  0  0
   -1.0181   -0.6421    3.1557 H   0  0  0  0  0  0  0  0  0  0  0  0
   -1.5492    1.8399    2.7401 H   0  0  0  0  0  0  0  0  0  0  0  0
    0.1700    1.7891    3.0993 H   0  0  0  0  0  0  0  0  0  0  0  0
    1.2957   -0.5272    2.3270 H   0  0  0  0  0  0  0  0  0  0  0  0
    1.6790    1.1405    1.8469 H   0  0  0  0  0  0  0  0  0  0  0  0
   -0.4706    0.6451   -1.9654 H   0  0  0  0  0  0  0  0  0  0  0  0
   -0.9893   -0.8547   -1.1030 H   0  0  0  0  0  0  0  0  0  0  0  0
    3.1307   -1.7134   -3.9738 H   0  0  0  0  0  0  0  0  0  0  0  0
    5.5231   -2.4003   -3.8156 H   0  0  0  0  0  0  0  0  0  0  0  0
    6.7121   -2.2375   -1.6359 H   0  0  0  0  0  0  0  0  0  0  0  0
    5.5472   -1.4110    0.3334 H   0  0  0  0  0  0  0  0  0  0  0  0
    3.6001   -0.5825    1.3230 H   0  0  0  0  0  0  0  0  0  0  0  0
   -3.9116   -2.3948    1.8315 H   0  0  0  0  0  0  0  0  0  0  0  0
   -2.2557   -2.8959    2.2776 H   0  0  0  0  0  0  0  0  0  0  0  0
   -1.6888   -3.5260    0.1212 H   0  0  0  0  0  0  0  0  0  0  0  0
   -3.8572   -1.6014   -1.1577 H   0  0  0  0  0  0  0  0  0  0  0  0
   -2.6683   -2.7065   -1.9973 H   0  0  0  0  0  0  0  0  0  0  0  0
   -4.8470   -3.5849    0.0837 H   0  0  0  0  0  0  0  0  0  0  0  0
   -3.6602   -4.6815   -0.8416 H   0  0  0  0  0  0  0  0  0  0  0  0
  1  2  1  0
  2  3  2  0
  3  4  1  0
  4  5  2  0
  5  6  1  0
  6  7  2  0
  6  8  1  0
  8  9  1  1
  9 10  1  0
 10 11  1  0
 11 12  1  0
 13 12  1  1
 13 14  1  0
 13 15  1  0
 15 16  1  0
 16 17  2  0
 17 18  1  0
 17 19  1  0
 19 20  2  0
 20 21  1  0
 21 22  2  0
 22 23  1  0
 23 24  2  0
 24 25  1  0
 25 26  2  0
 11 27  1  0
 27 28  1  0
 28 29  1  0
 29 30  1  0
  7  2  1  0
 18  8  1  0
 25 20  1  0
 30 28  1  0
 14  5  1  0
 26 16  1  0
 13  8  1  0
  1 31  1  0
  3 32  1  0
  4 33  1  0
  7 34  1  0
  9 35  1  0
  9 36  1  0
 10 37  1  0
 10 38  1  0
 12 39  1  0
 12 40  1  0
 14 41  1  0
 14 42  1  0
 15 43  1  0
 15 44  1  0
 18 45  1  0
 18 46  1  0
 21 47  1  0
 22 48  1  0
 23 49  1  0
 24 50  1  0
 26 51  1  0
 27 52  1  0
 27 53  1  0
 28 54  1  0
 29 55  1  0
 29 56  1  0
 30 57  1  0
 30 58  1  0
M  END
>  <Ligand ID>  (1) 
LIG0002962

>  <Ligand>  (1) 
CHEMBL3287467

>  <SMILES>  (1) 
Oc1ccc2c(c1)[C@@]13CCN(C[C@@]3(C2)Cc2c(C1)nc1ccccc1c2)CC1CC1

>  <CID>  (1) 
81689720.0

>  <ChEMBL ID>  (1) 
nan

>  <InChiKey>  (1) 
PXIODNLTTYWACV-KAYWLYCHSA-N

>  <InChi>  (1) 
InChI=1S/C27H28N2O/c30-22-8-7-20-13-26-14-21-11-19-3-1-2-4-24(19)28-25(21)15-27(26,23(20)12-22)9-10-29(17-26)16-18-5-6-18/h1-4,7-8,11-12,18,30H,5-6,9-10,13-17H2/t26-,27-/m1/s1

>  <IUPAC Name>  (1) 
(1S,14R)-23-(cyclopropylmethyl)-11,23-diazahexacyclo[12.7.4.01,14.03,12.05,10.015,20]pentacosa-3,5,7,9,11,15(20),16,18-octaen-17-ol

$$$$
