
     RDKit          3D

 31 33  0  0  0  0  0  0  0  0999 V2000
    3.8429    1.1965   -0.6350 C   0  0  0  0  0  0  0  0  0  0  0  0
    4.5658    0.2110    0.2597 C   0  0  0  0  0  0  0  0  0  0  0  0
    3.5303   -0.7098    0.6200 N   0  0  0  0  0  0  0  0  0  0  0  0
    2.5240   -0.6784   -0.1872 C   0  0  0  0  0  0  0  0  0  0  0  0
    2.8150    0.3056   -1.1947 N   0  0  0  0  0  0  0  0  0  0  0  0
    1.2811   -1.4950   -0.1154 C   0  0  0  0  0  0  0  0  0  0  0  0
    0.1867   -0.6403    0.0069 O   0  0  0  0  0  0  0  0  0  0  0  0
   -1.1366   -1.0363    0.1012 C   0  0  0  0  0  0  0  0  0  0  0  0
   -1.4380   -2.3934    0.0751 C   0  0  0  0  0  0  0  0  0  0  0  0
   -2.7600   -2.8202    0.1681 C   0  0  0  0  0  0  0  0  0  0  0  0
   -3.7762   -1.8916    0.2867 C   0  0  0  0  0  0  0  0  0  0  0  0
   -3.5024   -0.5452    0.3146 C   0  0  0  0  0  0  0  0  0  0  0  0
   -2.1890   -0.1521    0.2211 C   0  0  0  0  0  0  0  0  0  0  0  0
   -1.9046    1.2608    0.2506 C   0  0  0  0  0  0  0  0  0  0  0  0
   -2.6996    2.3667    0.3576 C   0  0  0  0  0  0  0  0  0  0  0  0
   -2.1459    3.5698    0.3571 C   0  0  0  0  0  0  0  0  0  0  0  0
   -0.7964    3.6792    0.2499 N   0  0  0  0  0  0  0  0  0  0  0  0
   -0.2112    1.9633    0.1373 S   0  0  0  0  0  0  0  0  0  0  0  0
    3.2661    1.9409   -0.0221 H   0  0  0  0  0  0  0  0  0  0  0  0
    4.4696    1.6531   -1.4062 H   0  0  0  0  0  0  0  0  0  0  0  0
    4.9906    0.7705    1.1069 H   0  0  0  0  0  0  0  0  0  0  0  0
    5.3459   -0.2658   -0.3660 H   0  0  0  0  0  0  0  0  0  0  0  0
    2.3584    0.3339   -2.1188 H   0  0  0  0  0  0  0  0  0  0  0  0
    1.3741   -2.1833    0.7548 H   0  0  0  0  0  0  0  0  0  0  0  0
    1.1959   -2.1828   -0.9973 H   0  0  0  0  0  0  0  0  0  0  0  0
   -0.6121   -3.0803   -0.0187 H   0  0  0  0  0  0  0  0  0  0  0  0
   -2.9550   -3.8792    0.1445 H   0  0  0  0  0  0  0  0  0  0  0  0
   -4.7950   -2.2333    0.3579 H   0  0  0  0  0  0  0  0  0  0  0  0
   -4.2869    0.2011    0.4073 H   0  0  0  0  0  0  0  0  0  0  0  0
   -3.8096    2.2184    0.4436 H   0  0  0  0  0  0  0  0  0  0  0  0
   -2.7279    4.5162    0.4405 H   0  0  0  0  0  0  0  0  0  0  0  0
  1  2  1  0
  2  3  1  0
  3  4  2  0
  4  5  1  0
  4  6  1  0
  6  7  1  0
  7  8  1  0
  8  9  2  0
  9 10  1  0
 10 11  2  0
 11 12  1  0
 12 13  2  0
 13 14  1  0
 14 15  2  0
 15 16  1  0
 16 17  2  0
 17 18  1  0
  5  1  1  0
 13  8  1  0
 18 14  1  0
  1 19  1  0
  1 20  1  0
  2 21  1  0
  2 22  1  0
  5 23  1  0
  6 24  1  0
  6 25  1  0
  9 26  1  0
 10 27  1  0
 11 28  1  0
 12 29  1  0
 15 30  1  0
 16 31  1  0
M  END
>  <Ligand ID>  (1) 
LIG0003196

>  <Ligand>  (1) 
CHEMBL142387

>  <SMILES>  (1) 
C1CN=C(N1)COc1ccccc1c1ccns1

>  <CID>  (1) 
44362149.0

>  <ChEMBL ID>  (1) 
nan

>  <InChiKey>  (1) 
YYCCOIONTNLQAS-UHFFFAOYSA-N

>  <InChi>  (1) 
InChI=1S/C13H13N3OS/c1-2-4-11(17-9-13-14-7-8-15-13)10(3-1)12-5-6-16-18-12/h1-6H,7-9H2,(H,14,15)

>  <IUPAC Name>  (1) 
5-[2-(4,5-dihydro-1H-imidazol-2-ylmethoxy)phenyl]-1,2-thiazole

$$$$
