
     RDKit          3D

 46 48  0  0  0  0  0  0  0  0999 V2000
    8.7631    0.0182    0.3468 O   0  0  0  0  0  0  0  0  0  0  0  0
    8.0600    1.0099   -0.3584 C   0  0  0  0  0  0  0  0  0  0  0  0
    8.3297    1.2870   -1.5651 O   0  0  0  0  0  0  0  0  0  0  0  0
    6.9754    1.7184    0.3946 C   0  0  0  0  0  0  0  0  0  0  0  0
    5.7488    0.7985    0.4861 C   0  0  0  0  0  0  0  0  0  0  0  0
    5.3441    0.4891   -0.9356 C   0  0  0  0  0  0  0  0  0  0  0  0
    4.2826   -0.3654   -1.0504 O   0  0  0  0  0  0  0  0  0  0  0  0
    2.9888   -0.3632   -0.6951 C   0  0  0  0  0  0  0  0  0  0  0  0
    2.2490   -1.5204   -1.0054 C   0  0  0  0  0  0  0  0  0  0  0  0
    0.9216   -1.6440   -0.6991 C   0  0  0  0  0  0  0  0  0  0  0  0
    0.2437   -0.6221   -0.0648 C   0  0  0  0  0  0  0  0  0  0  0  0
    0.9323    0.5215    0.2528 C   0  0  0  0  0  0  0  0  0  0  0  0
    2.2805    0.6292   -0.0648 C   0  0  0  0  0  0  0  0  0  0  0  0
   -1.1634   -0.8490    0.2186 C   0  0  0  0  0  0  0  0  0  0  0  0
   -2.0667    0.1593   -0.1177 C   0  0  0  0  0  0  0  0  0  0  0  0
   -3.4166   -0.0415    0.1274 C   0  0  0  0  0  0  0  0  0  0  0  0
   -3.8797   -1.2121    0.6948 C   0  0  0  0  0  0  0  0  0  0  0  0
   -2.9796   -2.2010    1.0238 C   0  0  0  0  0  0  0  0  0  0  0  0
   -1.6226   -2.0262    0.7890 C   0  0  0  0  0  0  0  0  0  0  0  0
   -0.7514   -2.9915    1.1134 F   0  0  0  0  0  0  0  0  0  0  0  0
   -4.2639    1.0036   -0.2341 O   0  0  0  0  0  0  0  0  0  0  0  0
   -5.6495    0.8117   -0.0707 C   0  0  0  0  0  0  0  0  0  0  0  0
   -6.2884    1.0805    1.1170 C   0  0  0  0  0  0  0  0  0  0  0  0
   -7.6424    0.8823    1.2392 C   0  0  0  0  0  0  0  0  0  0  0  0
   -8.3578    0.4181    0.1821 C   0  0  0  0  0  0  0  0  0  0  0  0
   -7.7413    0.1375   -1.0303 C   0  0  0  0  0  0  0  0  0  0  0  0
   -6.3599    0.3381   -1.1591 C   0  0  0  0  0  0  0  0  0  0  0  0
    9.6470   -0.2946   -0.0441 H   0  0  0  0  0  0  0  0  0  0  0  0
    7.2939    1.9314    1.4324 H   0  0  0  0  0  0  0  0  0  0  0  0
    6.6829    2.6556   -0.0775 H   0  0  0  0  0  0  0  0  0  0  0  0
    4.9995    1.3934    1.0424 H   0  0  0  0  0  0  0  0  0  0  0  0
    5.9997   -0.1533    0.9763 H   0  0  0  0  0  0  0  0  0  0  0  0
    5.2520    1.4349   -1.5167 H   0  0  0  0  0  0  0  0  0  0  0  0
    6.2485   -0.0102   -1.4009 H   0  0  0  0  0  0  0  0  0  0  0  0
    2.7309   -2.3511   -1.5072 H   0  0  0  0  0  0  0  0  0  0  0  0
    0.4076   -2.5609   -0.9603 H   0  0  0  0  0  0  0  0  0  0  0  0
    0.3807    1.3062    0.7428 H   0  0  0  0  0  0  0  0  0  0  0  0
    2.8035    1.5378    0.1846 H   0  0  0  0  0  0  0  0  0  0  0  0
   -1.7271    1.0952   -0.5665 H   0  0  0  0  0  0  0  0  0  0  0  0
   -4.9373   -1.3239    0.8690 H   0  0  0  0  0  0  0  0  0  0  0  0
   -3.3316   -3.1324    1.4758 H   0  0  0  0  0  0  0  0  0  0  0  0
   -5.6848    1.4465    1.9304 H   0  0  0  0  0  0  0  0  0  0  0  0
   -8.0706    1.1179    2.2169 H   0  0  0  0  0  0  0  0  0  0  0  0
   -9.4243    0.2593    0.2749 H   0  0  0  0  0  0  0  0  0  0  0  0
   -8.2971   -0.2371   -1.8922 H   0  0  0  0  0  0  0  0  0  0  0  0
   -5.9100    0.1111   -2.1149 H   0  0  0  0  0  0  0  0  0  0  0  0
  1  2  1  0
  2  3  2  0
  2  4  1  0
  4  5  1  0
  5  6  1  0
  6  7  1  0
  7  8  1  0
  8  9  2  0
  9 10  1  0
 10 11  2  0
 11 12  1  0
 12 13  2  0
 11 14  1  0
 14 15  2  0
 15 16  1  0
 16 17  2  0
 17 18  1  0
 18 19  2  0
 19 20  1  0
 16 21  1  0
 21 22  1  0
 22 23  2  0
 23 24  1  0
 24 25  2  0
 25 26  1  0
 26 27  2  0
 13  8  1  0
 19 14  1  0
 27 22  1  0
  1 28  1  0
  4 29  1  0
  4 30  1  0
  5 31  1  0
  5 32  1  0
  6 33  1  0
  6 34  1  0
  9 35  1  0
 10 36  1  0
 12 37  1  0
 13 38  1  0
 15 39  1  0
 17 40  1  0
 18 41  1  0
 23 42  1  0
 24 43  1  0
 25 44  1  0
 26 45  1  0
 27 46  1  0
M  END
>  <Ligand ID>  (1) 
LIG0002729

>  <Ligand>  (1) 
CHEMBL3985509

>  <SMILES>  (1) 
OC(=O)CCCOc1ccc(cc1)c1cc(ccc1F)Oc1ccccc1

>  <CID>  (1) 
134157586.0

>  <ChEMBL ID>  (1) 
nan

>  <InChiKey>  (1) 
ZSQHPVMBVGKLJL-UHFFFAOYSA-N

>  <InChi>  (1) 
InChI=1S/C22H19FO4/c23-21-13-12-19(27-18-5-2-1-3-6-18)15-20(21)16-8-10-17(11-9-16)26-14-4-7-22(24)25/h1-3,5-6,8-13,15H,4,7,14H2,(H,24,25)

>  <IUPAC Name>  (1) 
4-[4-(2-fluoro-5-phenoxyphenyl)phenoxy]butanoic acid

$$$$
