
     RDKit          3D

 49 52  0  0  0  0  0  0  0  0999 V2000
   -5.2198   -2.6699   -1.3702 C   0  0  0  0  0  0  0  0  0  0  0  0
   -5.0049   -1.4602   -0.6713 O   0  0  0  0  0  0  0  0  0  0  0  0
   -3.7637   -1.0290   -0.2219 C   0  0  0  0  0  0  0  0  0  0  0  0
   -2.6014   -1.7727   -0.4286 C   0  0  0  0  0  0  0  0  0  0  0  0
   -1.3827   -1.3100    0.0341 C   0  0  0  0  0  0  0  0  0  0  0  0
   -1.2826   -0.1179    0.7033 C   0  0  0  0  0  0  0  0  0  0  0  0
   -2.4357    0.6073    0.9016 C   0  0  0  0  0  0  0  0  0  0  0  0
   -3.6809    0.1753    0.4510 C   0  0  0  0  0  0  0  0  0  0  0  0
   -4.9102    0.9919    0.6867 C   0  0  0  0  0  0  0  0  0  0  0  0
   -2.4414    1.8406    1.5754 O   0  0  0  0  0  0  0  0  0  0  0  0
   -2.2595    3.0204    0.8157 C   0  0  0  0  0  0  0  0  0  0  0  0
   -0.0192    0.4432    1.2288 C   0  0  0  0  0  0  0  0  0  0  0  0
    0.4918    1.5429    0.3967 N   0  0  0  0  0  0  0  0  0  0  0  0
    1.6991    2.0609    0.9461 C   0  0  0  0  0  0  0  0  0  0  0  0
    2.8833    2.0551    0.0091 C   0  0  0  0  0  0  0  0  0  0  0  0
    2.9811    0.6500   -0.4897 C   0  0  0  0  0  0  0  0  0  0  0  0
    1.7877    0.1145   -0.9900 C   0  0  0  0  0  0  0  0  0  0  0  0
    0.6126    1.0272   -0.9468 C   0  0  0  0  0  0  0  0  0  0  0  0
    2.0685   -1.1169   -1.3776 N   0  0  0  0  0  0  0  0  0  0  0  0
    3.3842   -1.4070   -1.1538 C   0  0  0  0  0  0  0  0  0  0  0  0
    3.9867   -0.2890   -0.5857 C   0  0  0  0  0  0  0  0  0  0  0  0
    5.3142   -0.2510   -0.2366 C   0  0  0  0  0  0  0  0  0  0  0  0
    6.0836   -1.3718   -0.4596 C   0  0  0  0  0  0  0  0  0  0  0  0
    5.4991   -2.5078   -1.0298 C   0  0  0  0  0  0  0  0  0  0  0  0
    4.1602   -2.5319   -1.3766 C   0  0  0  0  0  0  0  0  0  0  0  0
   -6.2647   -2.6681   -1.7314 H   0  0  0  0  0  0  0  0  0  0  0  0
   -4.5791   -2.6176   -2.2887 H   0  0  0  0  0  0  0  0  0  0  0  0
   -4.9268   -3.5545   -0.7881 H   0  0  0  0  0  0  0  0  0  0  0  0
   -2.6795   -2.7187   -0.9586 H   0  0  0  0  0  0  0  0  0  0  0  0
   -0.4732   -1.8752   -0.1196 H   0  0  0  0  0  0  0  0  0  0  0  0
   -5.1910    1.5990   -0.1971 H   0  0  0  0  0  0  0  0  0  0  0  0
   -4.7527    1.6244    1.5929 H   0  0  0  0  0  0  0  0  0  0  0  0
   -5.7785    0.3232    0.9045 H   0  0  0  0  0  0  0  0  0  0  0  0
   -2.1330    2.8124   -0.2598 H   0  0  0  0  0  0  0  0  0  0  0  0
   -3.1177    3.7110    0.9363 H   0  0  0  0  0  0  0  0  0  0  0  0
   -1.3235    3.5048    1.2179 H   0  0  0  0  0  0  0  0  0  0  0  0
    0.7801   -0.3260    1.2756 H   0  0  0  0  0  0  0  0  0  0  0  0
   -0.1715    0.8129    2.2617 H   0  0  0  0  0  0  0  0  0  0  0  0
    2.0149    1.4243    1.8192 H   0  0  0  0  0  0  0  0  0  0  0  0
    1.5501    3.0612    1.3650 H   0  0  0  0  0  0  0  0  0  0  0  0
    3.7675    2.3759    0.5581 H   0  0  0  0  0  0  0  0  0  0  0  0
    2.7007    2.6829   -0.9028 H   0  0  0  0  0  0  0  0  0  0  0  0
    0.8553    1.8768   -1.6499 H   0  0  0  0  0  0  0  0  0  0  0  0
   -0.3165    0.5243   -1.2130 H   0  0  0  0  0  0  0  0  0  0  0  0
    1.3714   -1.7727   -1.7978 H   0  0  0  0  0  0  0  0  0  0  0  0
    5.6984    0.6601    0.2001 H   0  0  0  0  0  0  0  0  0  0  0  0
    7.1274   -1.3767   -0.1977 H   0  0  0  0  0  0  0  0  0  0  0  0
    6.1636   -3.3486   -1.1749 H   0  0  0  0  0  0  0  0  0  0  0  0
    3.7280   -3.4290   -1.8185 H   0  0  0  0  0  0  0  0  0  0  0  0
  1  2  1  0
  2  3  1  0
  3  4  2  0
  4  5  1  0
  5  6  2  0
  6  7  1  0
  7  8  2  0
  8  9  1  0
  7 10  1  0
 10 11  1  0
  6 12  1  0
 12 13  1  0
 13 14  1  0
 14 15  1  0
 15 16  1  0
 16 17  2  0
 17 18  1  0
 17 19  1  0
 19 20  1  0
 20 21  2  0
 21 22  1  0
 22 23  2  0
 23 24  1  0
 24 25  2  0
  8  3  1  0
 18 13  1  0
 25 20  1  0
 21 16  1  0
  1 26  1  0
  1 27  1  0
  1 28  1  0
  4 29  1  0
  5 30  1  0
  9 31  1  0
  9 32  1  0
  9 33  1  0
 11 34  1  0
 11 35  1  0
 11 36  1  0
 12 37  1  0
 12 38  1  0
 14 39  1  0
 14 40  1  0
 15 41  1  0
 15 42  1  0
 18 43  1  0
 18 44  1  0
 19 45  1  0
 22 46  1  0
 23 47  1  0
 24 48  1  0
 25 49  1  0
M  END
>  <Ligand ID>  (1) 
LIG0003656

>  <Ligand>  (1) 
MLS001000473

>  <SMILES>  (1) 
COc1ccc(c(c1C)OC)CN1CCc2c(C1)[nH]c1c2cccc1

>  <CID>  (1) 
785909.0

>  <ChEMBL ID>  (1) 
nan

>  <InChiKey>  (1) 
WNPVLKRCYNABSL-UHFFFAOYSA-N

>  <InChi>  (1) 
InChI=1S/C21H24N2O2/c1-14-20(24-2)9-8-15(21(14)25-3)12-23-11-10-17-16-6-4-5-7-18(16)22-19(17)13-23/h4-9,22H,10-13H2,1-3H3

>  <IUPAC Name>  (1) 
2-[(2,4-dimethoxy-3-methylphenyl)methyl]-1,3,4,9-tetrahydropyrido[3,4-b]indole

$$$$
