
     RDKit          3D

 42 44  0  0  0  0  0  0  0  0999 V2000
   -1.7617    0.0997   -1.8279 N   0  0  0  0  0  0  0  0  0  0  0  0
   -1.4047    0.5982   -0.5259 C   0  0  0  0  0  0  0  0  0  0  0  0
    0.0837    0.8136   -0.3926 C   0  0  0  0  0  0  0  0  0  0  0  0
    0.6518    1.9281    0.1818 C   0  0  0  0  0  0  0  0  0  0  0  0
    2.4266    1.6430    0.0624 S   0  0  0  0  0  0  0  0  0  0  0  0
    2.1572    0.0048   -0.7737 C   0  0  0  0  0  0  0  0  0  0  0  0
    0.9659   -0.0599   -0.8237 N   0  0  0  0  0  0  0  0  0  0  0  0
    3.3239   -0.7770   -1.1577 N   0  0  0  0  0  0  0  0  0  0  0  0
    4.6335   -0.2868   -0.8997 C   0  0  0  0  0  0  0  0  0  0  0  0
    5.2003    0.4950   -1.8631 N   0  0  0  0  0  0  0  0  0  0  0  0
    6.4309    1.0206   -1.7503 C   0  0  0  0  0  0  0  0  0  0  0  0
    7.1341    0.7406   -0.5939 C   0  0  0  0  0  0  0  0  0  0  0  0
    6.5886   -0.0480    0.4016 C   0  0  0  0  0  0  0  0  0  0  0  0
    5.3344   -0.5388    0.2020 N   0  0  0  0  0  0  0  0  0  0  0  0
    7.3562   -0.3467    1.6478 C   0  0  0  0  0  0  0  0  0  0  0  0
    8.0839   -1.5042    1.3444 F   0  0  0  0  0  0  0  0  0  0  0  0
    8.2320    0.6548    1.9829 F   0  0  0  0  0  0  0  0  0  0  0  0
    6.4771   -0.6748    2.6339 F   0  0  0  0  0  0  0  0  0  0  0  0
   -1.8954   -0.3632    0.5557 C   0  0  0  0  0  0  0  0  0  0  0  0
   -3.3795   -0.4622    0.4340 C   0  0  0  0  0  0  0  0  0  0  0  0
   -4.2027    0.4192    1.1406 C   0  0  0  0  0  0  0  0  0  0  0  0
   -5.5663    0.3370    1.0381 C   0  0  0  0  0  0  0  0  0  0  0  0
   -6.1789   -0.6187    0.2336 C   0  0  0  0  0  0  0  0  0  0  0  0
   -5.3642   -1.5032   -0.4761 C   0  0  0  0  0  0  0  0  0  0  0  0
   -3.9880   -1.4213   -0.3735 C   0  0  0  0  0  0  0  0  0  0  0  0
   -7.6656   -0.6805    0.1468 C   0  0  0  0  0  0  0  0  0  0  0  0
   -8.0385   -1.9958    0.1784 F   0  0  0  0  0  0  0  0  0  0  0  0
   -8.1528   -0.0338   -0.9780 F   0  0  0  0  0  0  0  0  0  0  0  0
   -8.2102   -0.0797    1.2824 F   0  0  0  0  0  0  0  0  0  0  0  0
   -0.9302   -0.0435   -2.4413 H   0  0  0  0  0  0  0  0  0  0  0  0
   -2.4901    0.7002   -2.2992 H   0  0  0  0  0  0  0  0  0  0  0  0
   -1.8824    1.5783   -0.3837 H   0  0  0  0  0  0  0  0  0  0  0  0
    0.1771    2.8456    0.6410 H   0  0  0  0  0  0  0  0  0  0  0  0
    3.1034   -1.6729   -1.6115 H   0  0  0  0  0  0  0  0  0  0  0  0
    6.8133    1.6304   -2.5549 H   0  0  0  0  0  0  0  0  0  0  0  0
    8.1145    1.1626   -0.5105 H   0  0  0  0  0  0  0  0  0  0  0  0
   -1.5978   -0.0035    1.5622 H   0  0  0  0  0  0  0  0  0  0  0  0
   -1.5174   -1.3823    0.3585 H   0  0  0  0  0  0  0  0  0  0  0  0
   -3.7280    1.1591    1.7632 H   0  0  0  0  0  0  0  0  0  0  0  0
   -6.1550    1.0411    1.6045 H   0  0  0  0  0  0  0  0  0  0  0  0
   -5.8031   -2.2496   -1.1025 H   0  0  0  0  0  0  0  0  0  0  0  0
   -3.3760   -2.1253   -0.9392 H   0  0  0  0  0  0  0  0  0  0  0  0
  1  2  1  0
  2  3  1  0
  3  4  2  0
  4  5  1  0
  5  6  1  0
  6  7  2  0
  6  8  1  0
  8  9  1  0
  9 10  2  0
 10 11  1  0
 11 12  2  0
 12 13  1  0
 13 14  2  0
 13 15  1  0
 15 16  1  0
 15 17  1  0
 15 18  1  0
  2 19  1  0
 19 20  1  0
 20 21  2  0
 21 22  1  0
 22 23  2  0
 23 24  1  0
 24 25  2  0
 23 26  1  0
 26 27  1  0
 26 28  1  0
 26 29  1  0
  7  3  1  0
 14  9  1  0
 25 20  1  0
  1 30  1  0
  1 31  1  0
  2 32  1  0
  4 33  1  0
  8 34  1  0
 11 35  1  0
 12 36  1  0
 19 37  1  0
 19 38  1  0
 21 39  1  0
 22 40  1  0
 24 41  1  0
 25 42  1  0
M  END
>  <Ligand ID>  (1) 
LIG0005908

>  <Ligand>  (1) 
MLS003123761

>  <SMILES>  (1) 
NC(c1csc(n1)Nc1nccc(n1)C(F)(F)F)Cc1ccc(cc1)C(F)(F)F

>  <CID>  (1) 
46948222.0

>  <ChEMBL ID>  (1) 
nan

>  <InChiKey>  (1) 
DRDVQMIHMJPJLH-UHFFFAOYSA-N

>  <InChi>  (1) 
InChI=1S/C17H13F6N5S/c18-16(19,20)10-3-1-9(2-4-10)7-11(24)12-8-29-15(26-12)28-14-25-6-5-13(27-14)17(21,22)23/h1-6,8,11H,7,24H2,(H,25,26,27,28)

>  <IUPAC Name>  (1) 
4-[1-amino-2-[4-(trifluoromethyl)phenyl]ethyl]-N-[4-(trifluoromethyl)pyrimidin-2-yl]-1,3-thiazol-2-amine

$$$$
