
     RDKit          3D

 52 55  0  0  0  0  0  0  0  0999 V2000
   -8.0450    1.5348   -0.7403 C   0  0  0  0  0  0  0  0  0  0  0  0
   -6.8521    1.2957   -1.4530 O   0  0  0  0  0  0  0  0  0  0  0  0
   -5.6384    1.3427   -0.8022 C   0  0  0  0  0  0  0  0  0  0  0  0
   -5.6783    1.6297    0.5572 C   0  0  0  0  0  0  0  0  0  0  0  0
   -4.5004    1.6916    1.2545 C   0  0  0  0  0  0  0  0  0  0  0  0
   -3.2857    1.4659    0.5971 C   0  0  0  0  0  0  0  0  0  0  0  0
   -3.2080    1.1816   -0.7297 C   0  0  0  0  0  0  0  0  0  0  0  0
   -4.4331    1.1268   -1.4170 C   0  0  0  0  0  0  0  0  0  0  0  0
   -1.9761    0.9651   -1.5158 C   0  0  0  0  0  0  0  0  0  0  0  0
   -1.0118    0.0463   -0.8729 C   0  0  0  0  0  0  0  0  0  0  0  0
   -1.0284   -1.3149   -1.0936 C   0  0  0  0  0  0  0  0  0  0  0  0
   -0.1104   -2.0625   -0.3817 C   0  0  0  0  0  0  0  0  0  0  0  0
    0.7650   -1.5340    0.4844 N   0  0  0  0  0  0  0  0  0  0  0  0
    0.7862   -0.2078    0.7025 N   0  0  0  0  0  0  0  0  0  0  0  0
   -0.0935    0.5688    0.0287 C   0  0  0  0  0  0  0  0  0  0  0  0
   -0.0322    1.8244    0.2633 O   0  0  0  0  0  0  0  0  0  0  0  0
    1.6675    0.4325    1.6173 C   0  0  0  0  0  0  0  0  0  0  0  0
    2.9549    0.8835    1.0498 C   0  0  0  0  0  0  0  0  0  0  0  0
    2.9544    1.8391    0.2332 O   0  0  0  0  0  0  0  0  0  0  0  0
    4.2060    0.3075    1.3710 N   0  0  0  0  0  0  0  0  0  0  0  0
    5.3528    0.8837    0.7147 C   0  0  0  0  0  0  0  0  0  0  0  0
    5.9473    1.9899    1.2823 C   0  0  0  0  0  0  0  0  0  0  0  0
    7.0406    2.5135    0.6318 C   0  0  0  0  0  0  0  0  0  0  0  0
    7.4908    1.9366   -0.5209 C   0  0  0  0  0  0  0  0  0  0  0  0
    6.8905    0.8230   -1.0882 C   0  0  0  0  0  0  0  0  0  0  0  0
    5.7970    0.2900   -0.4497 C   0  0  0  0  0  0  0  0  0  0  0  0
    8.5768    2.5026   -1.1139 F   0  0  0  0  0  0  0  0  0  0  0  0
   -0.0916   -3.5103   -0.5436 C   0  0  0  0  0  0  0  0  0  0  0  0
    0.6812   -4.5016   -0.0242 C   0  0  0  0  0  0  0  0  0  0  0  0
    0.4968   -5.7649   -0.3196 C   0  0  0  0  0  0  0  0  0  0  0  0
   -0.5669   -6.0855   -1.2253 C   0  0  0  0  0  0  0  0  0  0  0  0
   -1.2820   -4.4114   -1.6183 S   0  0  0  0  0  0  0  0  0  0  0  0
   -8.1474    0.8470    0.1399 H   0  0  0  0  0  0  0  0  0  0  0  0
   -7.9844    2.6035   -0.3787 H   0  0  0  0  0  0  0  0  0  0  0  0
   -8.9039    1.3967   -1.4500 H   0  0  0  0  0  0  0  0  0  0  0  0
   -6.6000    1.8062    1.0937 H   0  0  0  0  0  0  0  0  0  0  0  0
   -4.5135    1.9134    2.3279 H   0  0  0  0  0  0  0  0  0  0  0  0
   -2.4178    1.5245    1.2230 H   0  0  0  0  0  0  0  0  0  0  0  0
   -4.4515    0.9027   -2.4896 H   0  0  0  0  0  0  0  0  0  0  0  0
   -2.2268    0.6459   -2.5452 H   0  0  0  0  0  0  0  0  0  0  0  0
   -1.4502    1.9426   -1.6349 H   0  0  0  0  0  0  0  0  0  0  0  0
   -1.7323   -1.7557   -1.7977 H   0  0  0  0  0  0  0  0  0  0  0  0
    1.8676   -0.2078    2.5026 H   0  0  0  0  0  0  0  0  0  0  0  0
    1.2098    1.3700    2.0533 H   0  0  0  0  0  0  0  0  0  0  0  0
    4.2754   -0.4835    2.0403 H   0  0  0  0  0  0  0  0  0  0  0  0
    5.5915    2.4545    2.1961 H   0  0  0  0  0  0  0  0  0  0  0  0
    7.5335    3.3837    1.0449 H   0  0  0  0  0  0  0  0  0  0  0  0
    7.2428    0.3542   -1.9986 H   0  0  0  0  0  0  0  0  0  0  0  0
    5.2730   -0.5673   -0.8121 H   0  0  0  0  0  0  0  0  0  0  0  0
    1.5120   -4.1859    0.6904 H   0  0  0  0  0  0  0  0  0  0  0  0
    1.0726   -6.6225    0.0590 H   0  0  0  0  0  0  0  0  0  0  0  0
   -0.9243   -7.0045   -1.6200 H   0  0  0  0  0  0  0  0  0  0  0  0
  1  2  1  0
  2  3  1  0
  3  4  2  0
  4  5  1  0
  5  6  2  0
  6  7  1  0
  7  8  2  0
  7  9  1  0
  9 10  1  0
 10 11  2  0
 11 12  1  0
 12 13  2  0
 13 14  1  0
 14 15  1  0
 15 16  2  0
 14 17  1  0
 17 18  1  0
 18 19  2  0
 18 20  1  0
 20 21  1  0
 21 22  2  0
 22 23  1  0
 23 24  2  0
 24 25  1  0
 25 26  2  0
 24 27  1  0
 12 28  1  0
 28 29  2  0
 29 30  1  0
 30 31  2  0
 31 32  1  0
  8  3  1  0
 15 10  1  0
 26 21  1  0
 32 28  1  0
  1 33  1  0
  1 34  1  0
  1 35  1  0
  4 36  1  0
  5 37  1  0
  6 38  1  0
  8 39  1  0
  9 40  1  0
  9 41  1  0
 11 42  1  0
 17 43  1  0
 17 44  1  0
 20 45  1  0
 22 46  1  0
 23 47  1  0
 25 48  1  0
 26 49  1  0
 29 50  1  0
 30 51  1  0
 31 52  1  0
M  END
>  <Ligand ID>  (1) 
LIG0004845

>  <Ligand>  (1) 
CHEMBL2391263

>  <SMILES>  (1) 
COc1cccc(c1)Cc1cc(nn(c1=O)CC(=O)Nc1ccc(cc1)F)c1cccs1

>  <CID>  (1) 
71698623.0

>  <ChEMBL ID>  (1) 
nan

>  <InChiKey>  (1) 
SQNPGQUQGQNXHK-UHFFFAOYSA-N

>  <InChi>  (1) 
InChI=1S/C24H20FN3O3S/c1-31-20-5-2-4-16(13-20)12-17-14-21(22-6-3-11-32-22)27-28(24(17)30)15-23(29)26-19-9-7-18(25)8-10-19/h2-11,13-14H,12,15H2,1H3,(H,26,29)

>  <IUPAC Name>  (1) 
N-(4-fluorophenyl)-2-[5-[(3-methoxyphenyl)methyl]-6-oxo-3-thiophen-2-ylpyridazin-1-yl]acetamide

$$$$
