
     RDKit          3D

 65 68  0  0  0  0  0  0  0  0999 V2000
    8.0705   -1.1527    5.1066 N   0  0  0  0  0  0  0  0  0  0  0  0
    8.0118   -0.6391    3.7200 C   0  0  0  0  0  0  0  0  0  0  0  0
    6.7599   -1.1638    3.0712 C   0  0  0  0  0  0  0  0  0  0  0  0
    6.3709   -0.9097    1.8833 O   0  0  0  0  0  0  0  0  0  0  0  0
    5.9765   -0.6517    0.6709 C   0  0  0  0  0  0  0  0  0  0  0  0
    6.5318   -0.8687   -0.5655 C   0  0  0  0  0  0  0  0  0  0  0  0
    5.9088   -0.4997   -1.7444 C   0  0  0  0  0  0  0  0  0  0  0  0
    4.6632    0.1235   -1.7514 C   0  0  0  0  0  0  0  0  0  0  0  0
    4.0763    0.3552   -0.5189 C   0  0  0  0  0  0  0  0  0  0  0  0
    4.6892   -0.0067    0.5884 C   0  0  0  0  0  0  0  0  0  0  0  0
    3.8761    0.3484    1.6318 N   0  0  0  0  0  0  0  0  0  0  0  0
    2.7646    0.9261    1.1516 C   0  0  0  0  0  0  0  0  0  0  0  0
    2.8683    0.9399   -0.2529 C   0  0  0  0  0  0  0  0  0  0  0  0
    1.7568    1.4478   -1.0839 C   0  0  0  0  0  0  0  0  0  0  0  0
    0.9305    0.2585   -1.5078 C   0  0  2  0  0  0  0  0  0  0  0  0
   -0.2118    0.3930   -2.2574 N   0  0  0  0  0  0  0  0  0  0  0  0
   -1.1853    1.3714   -2.1254 C   0  0  0  0  0  0  0  0  0  0  0  0
   -1.9852    1.3928   -0.8983 C   0  0  1  0  0  0  0  0  0  0  0  0
   -2.9438    0.3097   -0.6400 C   0  0  0  0  0  0  0  0  0  0  0  0
   -2.6617   -1.0453   -0.9932 C   0  0  0  0  0  0  0  0  0  0  0  0
   -3.6094   -2.0319   -0.6667 C   0  0  0  0  0  0  0  0  0  0  0  0
   -4.8159   -1.6672   -0.0008 C   0  0  0  0  0  0  0  0  0  0  0  0
   -5.0222   -0.3997    0.2988 C   0  0  0  0  0  0  0  0  0  0  0  0
   -4.1028    0.5600   -0.0178 C   0  0  0  0  0  0  0  0  0  0  0  0
   -6.1895    0.0146    0.9879 N   0  0  0  0  0  0  0  0  0  0  0  0
   -7.2342    1.2826    0.4264 S   0  0  0  0  0  0  0  0  0  0  0  0
   -6.5080    2.5779    0.3017 O   0  0  0  0  0  0  0  0  0  0  0  0
   -8.3482    1.5218    1.4295 O   0  0  0  0  0  0  0  0  0  0  0  0
   -7.9126    0.8319   -1.0732 C   0  0  0  0  0  0  0  0  0  0  0  0
   -7.8732   -0.3118   -1.8504 C   0  0  0  0  0  0  0  0  0  0  0  0
   -8.5853   -0.3568   -2.9747 C   0  0  0  0  0  0  0  0  0  0  0  0
   -9.3383    0.6978   -3.3604 C   0  0  0  0  0  0  0  0  0  0  0  0
   -9.0780    1.9625   -2.0407 S   0  0  0  0  0  0  0  0  0  0  0  0
   -1.2590    1.5557    0.2994 O   0  0  0  0  0  0  0  0  0  0  0  0
    0.9620   -0.7702   -0.4038 C   0  0  0  0  0  0  0  0  0  0  0  0
    8.6637   -0.5057    5.6991 H   0  0  0  0  0  0  0  0  0  0  0  0
    8.4465   -2.1131    5.0743 H   0  0  0  0  0  0  0  0  0  0  0  0
    7.9469    0.4768    3.8545 H   0  0  0  0  0  0  0  0  0  0  0  0
    8.9507   -0.8687    3.2327 H   0  0  0  0  0  0  0  0  0  0  0  0
    6.8476   -2.3117    3.2483 H   0  0  0  0  0  0  0  0  0  0  0  0
    5.9213   -0.8600    3.8297 H   0  0  0  0  0  0  0  0  0  0  0  0
    7.4793   -1.3459   -0.6549 H   0  0  0  0  0  0  0  0  0  0  0  0
    6.3386   -0.6854   -2.7186 H   0  0  0  0  0  0  0  0  0  0  0  0
    4.1779    0.4269   -2.6292 H   0  0  0  0  0  0  0  0  0  0  0  0
    4.0296    0.2109    2.6546 H   0  0  0  0  0  0  0  0  0  0  0  0
    1.9664    1.2987    1.7594 H   0  0  0  0  0  0  0  0  0  0  0  0
    1.2126    2.2094   -0.5093 H   0  0  0  0  0  0  0  0  0  0  0  0
    2.2343    1.8946   -2.0011 H   0  0  0  0  0  0  0  0  0  0  0  0
    1.6923   -0.2495   -2.2775 H   0  0  0  0  0  0  0  0  0  0  0  0
   -0.2654   -0.1891   -3.1359 H   0  0  0  0  0  0  0  0  0  0  0  0
   -1.9569    1.1376   -2.9654 H   0  0  0  0  0  0  0  0  0  0  0  0
   -0.8673    2.4007   -2.4698 H   0  0  0  0  0  0  0  0  0  0  0  0
   -2.6191    2.3669   -0.8978 H   0  0  0  0  0  0  0  0  0  0  0  0
   -1.7541   -1.2675   -1.4857 H   0  0  0  0  0  0  0  0  0  0  0  0
   -3.4298   -3.0670   -0.9069 H   0  0  0  0  0  0  0  0  0  0  0  0
   -5.4562   -2.5265    0.1837 H   0  0  0  0  0  0  0  0  0  0  0  0
   -4.3272    1.6019    0.2520 H   0  0  0  0  0  0  0  0  0  0  0  0
   -6.4873   -0.4356    1.8945 H   0  0  0  0  0  0  0  0  0  0  0  0
   -7.2369   -1.1586   -1.5046 H   0  0  0  0  0  0  0  0  0  0  0  0
   -8.5848   -1.2784   -3.6295 H   0  0  0  0  0  0  0  0  0  0  0  0
   -9.9982    0.8860   -4.2407 H   0  0  0  0  0  0  0  0  0  0  0  0
   -1.3973    0.7478    0.8526 H   0  0  0  0  0  0  0  0  0  0  0  0
    0.6288   -0.3751    0.5702 H   0  0  0  0  0  0  0  0  0  0  0  0
    2.0300   -1.1051   -0.2163 H   0  0  0  0  0  0  0  0  0  0  0  0
    0.4613   -1.7112   -0.7177 H   0  0  0  0  0  0  0  0  0  0  0  0
  1  2  1  0
  2  3  1  0
  3  4  1  0
  4  5  1  0
  5  6  2  0
  6  7  1  0
  7  8  2  0
  8  9  1  0
  9 10  2  0
 10 11  1  0
 11 12  1  0
 12 13  2  0
 13 14  1  0
 14 15  1  0
 15 16  1  0
 16 17  1  0
 17 18  1  0
 18 19  1  0
 19 20  2  0
 20 21  1  0
 21 22  2  0
 22 23  1  0
 23 24  2  0
 23 25  1  0
 25 26  1  0
 26 27  2  0
 26 28  2  0
 26 29  1  0
 29 30  2  0
 30 31  1  0
 31 32  2  0
 32 33  1  0
 18 34  1  0
 15 35  1  0
 10  5  1  0
 24 19  1  0
 33 29  1  0
 13  9  1  0
  1 36  1  0
  1 37  1  0
  2 38  1  0
  2 39  1  0
  3 40  1  0
  3 41  1  0
  6 42  1  0
  7 43  1  0
  8 44  1  0
 11 45  1  0
 12 46  1  0
 14 47  1  0
 14 48  1  0
 15 49  1  6
 16 50  1  0
 17 51  1  0
 17 52  1  0
 18 53  1  6
 20 54  1  0
 21 55  1  0
 22 56  1  0
 24 57  1  0
 25 58  1  0
 30 59  1  0
 31 60  1  0
 32 61  1  0
 34 62  1  0
 35 63  1  0
 35 64  1  0
 35 65  1  0
M  END
>  <Ligand ID>  (1) 
LIG0005468

>  <Ligand>  (1) 
CHEMBL362136

>  <SMILES>  (1) 
NCCOc1cccc2c1[nH]cc2C[C@H](NC[C@@H](c1cccc(c1)NS(=O)(=O)c1cccs1)O)C

>  <CID>  (1) 
44396521.0

>  <ChEMBL ID>  (1) 
nan

>  <InChiKey>  (1) 
SHMZYLNMPWDEBQ-VGSWGCGISA-N

>  <InChi>  (1) 
InChI=1S/C25H30N4O4S2/c1-17(13-19-15-28-25-21(19)7-3-8-23(25)33-11-10-26)27-16-22(30)18-5-2-6-20(14-18)29-35(31,32)24-9-4-12-34-24/h2-9,12,14-15,17,22,27-30H,10-11,13,16,26H2,1H3/t17-,22+/m1/s1

>  <IUPAC Name>  (1) 
N-[3-[(1R)-2-[[(2R)-1-[7-(2-aminoethoxy)-1H-indol-3-yl]propan-2-yl]amino]-1-hydroxyethyl]phenyl]thiophene-2-sulfonamide

$$$$
