
     RDKit          3D

 58 62  0  0  0  0  0  0  0  0999 V2000
   -7.9326   -1.5103   -0.6375 C   0  0  0  0  0  0  0  0  0  0  0  0
   -6.8100   -0.9329    0.0044 O   0  0  0  0  0  0  0  0  0  0  0  0
   -5.6510   -1.6740    0.0965 C   0  0  0  0  0  0  0  0  0  0  0  0
   -5.5395   -2.9493   -0.4094 C   0  0  0  0  0  0  0  0  0  0  0  0
   -4.3469   -3.6250   -0.2778 C   0  0  0  0  0  0  0  0  0  0  0  0
   -3.2782   -3.0266    0.3547 C   0  0  0  0  0  0  0  0  0  0  0  0
   -3.3503   -1.7519    0.8742 C   0  0  0  0  0  0  0  0  0  0  0  0
   -4.5596   -1.0804    0.7350 C   0  0  0  0  0  0  0  0  0  0  0  0
   -2.2476   -1.0685    1.5543 C   0  0  0  0  0  0  0  0  0  0  0  0
   -1.4011   -0.2286    0.6932 C   0  0  0  0  0  0  0  0  0  0  0  0
   -1.5836    1.1541    0.7606 C   0  0  0  0  0  0  0  0  0  0  0  0
   -0.8321    2.0109   -0.0121 C   0  0  0  0  0  0  0  0  0  0  0  0
    0.0811    1.4311   -0.8287 N   0  0  0  0  0  0  0  0  0  0  0  0
    0.2687    0.1242   -0.9065 N   0  0  0  0  0  0  0  0  0  0  0  0
   -0.4500   -0.7362   -0.1643 C   0  0  0  0  0  0  0  0  0  0  0  0
   -0.2571   -1.9743   -0.2525 O   0  0  0  0  0  0  0  0  0  0  0  0
    1.3001   -0.3169   -1.8438 C   0  0  0  0  0  0  0  0  0  0  0  0
    2.6310   -0.4029   -1.1920 C   0  0  0  0  0  0  0  0  0  0  0  0
    3.3541    0.6454   -1.1780 O   0  0  0  0  0  0  0  0  0  0  0  0
    3.1353   -1.5850   -0.5883 N   0  0  0  0  0  0  0  0  0  0  0  0
    4.4323   -1.5028   -0.0032 C   0  0  0  0  0  0  0  0  0  0  0  0
    4.5534   -1.1527    1.3247 C   0  0  0  0  0  0  0  0  0  0  0  0
    5.7990   -1.0560    1.9355 C   0  0  0  0  0  0  0  0  0  0  0  0
    6.9016   -1.3256    1.1532 C   0  0  0  0  0  0  0  0  0  0  0  0
    6.7888   -1.6795   -0.1862 C   0  0  0  0  0  0  0  0  0  0  0  0
    5.5385   -1.7698   -0.7732 C   0  0  0  0  0  0  0  0  0  0  0  0
    8.0987   -1.8684   -0.6241 O   0  0  0  0  0  0  0  0  0  0  0  0
    8.9579   -1.1758    0.2789 C   0  0  0  0  0  0  0  0  0  0  0  0
    8.2645   -1.3036    1.5073 O   0  0  0  0  0  0  0  0  0  0  0  0
   -0.9762    3.4539    0.0129 C   0  0  0  0  0  0  0  0  0  0  0  0
   -1.8781    4.1247    0.8126 C   0  0  0  0  0  0  0  0  0  0  0  0
   -1.9781    5.5181    0.7978 C   0  0  0  0  0  0  0  0  0  0  0  0
   -1.1540    6.2462   -0.0380 C   0  0  0  0  0  0  0  0  0  0  0  0
   -0.2430    5.6014   -0.8482 C   0  0  0  0  0  0  0  0  0  0  0  0
   -0.1772    4.2259   -0.8025 C   0  0  0  0  0  0  0  0  0  0  0  0
   -1.2076    7.9998   -0.1253 Cl  0  0  0  0  0  0  0  0  0  0  0  0
   -7.6596   -1.7739   -1.6678 H   0  0  0  0  0  0  0  0  0  0  0  0
   -8.7519   -0.7514   -0.6184 H   0  0  0  0  0  0  0  0  0  0  0  0
   -8.3096   -2.4009   -0.0985 H   0  0  0  0  0  0  0  0  0  0  0  0
   -6.4068   -3.3839   -0.9011 H   0  0  0  0  0  0  0  0  0  0  0  0
   -4.2866   -4.6184   -0.6805 H   0  0  0  0  0  0  0  0  0  0  0  0
   -2.3586   -3.5886    0.4416 H   0  0  0  0  0  0  0  0  0  0  0  0
   -4.6408   -0.0781    1.1340 H   0  0  0  0  0  0  0  0  0  0  0  0
   -1.5781   -1.7939    2.0704 H   0  0  0  0  0  0  0  0  0  0  0  0
   -2.7015   -0.4758    2.3899 H   0  0  0  0  0  0  0  0  0  0  0  0
   -2.3302    1.5490    1.4340 H   0  0  0  0  0  0  0  0  0  0  0  0
    1.3789    0.3715   -2.7040 H   0  0  0  0  0  0  0  0  0  0  0  0
    1.0752   -1.3254   -2.2595 H   0  0  0  0  0  0  0  0  0  0  0  0
    2.5548   -2.4491   -0.5940 H   0  0  0  0  0  0  0  0  0  0  0  0
    3.6804   -0.9431    1.9250 H   0  0  0  0  0  0  0  0  0  0  0  0
    5.9130   -0.7832    2.9758 H   0  0  0  0  0  0  0  0  0  0  0  0
    5.4512   -2.0407   -1.8001 H   0  0  0  0  0  0  0  0  0  0  0  0
    9.0572   -0.1049    0.0555 H   0  0  0  0  0  0  0  0  0  0  0  0
    9.9221   -1.7050    0.2696 H   0  0  0  0  0  0  0  0  0  0  0  0
   -2.5279    3.5694    1.4705 H   0  0  0  0  0  0  0  0  0  0  0  0
   -2.6811    6.0534    1.4199 H   0  0  0  0  0  0  0  0  0  0  0  0
    0.4129    6.1208   -1.5080 H   0  0  0  0  0  0  0  0  0  0  0  0
    0.5357    3.7136   -1.4371 H   0  0  0  0  0  0  0  0  0  0  0  0
  1  2  1  0
  2  3  1  0
  3  4  2  0
  4  5  1  0
  5  6  2  0
  6  7  1  0
  7  8  2  0
  7  9  1  0
  9 10  1  0
 10 11  2  0
 11 12  1  0
 12 13  2  0
 13 14  1  0
 14 15  1  0
 15 16  2  0
 14 17  1  0
 17 18  1  0
 18 19  2  0
 18 20  1  0
 20 21  1  0
 21 22  2  0
 22 23  1  0
 23 24  2  0
 24 25  1  0
 25 26  2  0
 25 27  1  0
 27 28  1  0
 28 29  1  0
 12 30  1  0
 30 31  2  0
 31 32  1  0
 32 33  2  0
 33 34  1  0
 34 35  2  0
 33 36  1  0
  8  3  1  0
 15 10  1  0
 26 21  1  0
 35 30  1  0
 29 24  1  0
  1 37  1  0
  1 38  1  0
  1 39  1  0
  4 40  1  0
  5 41  1  0
  6 42  1  0
  8 43  1  0
  9 44  1  0
  9 45  1  0
 11 46  1  0
 17 47  1  0
 17 48  1  0
 20 49  1  0
 22 50  1  0
 23 51  1  0
 26 52  1  0
 28 53  1  0
 28 54  1  0
 31 55  1  0
 32 56  1  0
 34 57  1  0
 35 58  1  0
M  END
>  <Ligand ID>  (1) 
LIG0004846

>  <Ligand>  (1) 
CHEMBL2391268

>  <SMILES>  (1) 
COc1cccc(c1)Cc1cc(nn(c1=O)CC(=O)Nc1ccc2c(c1)OCO2)c1ccc(cc1)Cl

>  <CID>  (1) 
71698712.0

>  <ChEMBL ID>  (1) 
nan

>  <InChiKey>  (1) 
UVHMOGSFNIWYNK-UHFFFAOYSA-N

>  <InChi>  (1) 
InChI=1S/C27H22ClN3O5/c1-34-22-4-2-3-17(12-22)11-19-13-23(18-5-7-20(28)8-6-18)30-31(27(19)33)15-26(32)29-21-9-10-24-25(14-21)36-16-35-24/h2-10,12-14H,11,15-16H2,1H3,(H,29,32)

>  <IUPAC Name>  (1) 
N-(1,3-benzodioxol-5-yl)-2-[3-(4-chlorophenyl)-5-[(3-methoxyphenyl)methyl]-6-oxopyridazin-1-yl]acetamide

$$$$
