
     RDKit          3D

 53 56  0  0  0  0  0  0  0  0999 V2000
    1.5805   -0.4789   -1.8113 O   0  0  0  0  0  0  0  0  0  0  0  0
    1.2695    0.0619   -0.7225 C   0  0  0  0  0  0  0  0  0  0  0  0
   -0.1558    0.0534   -0.3381 C   0  0  0  0  0  0  0  0  0  0  0  0
   -0.7670    1.2735   -0.1481 C   0  0  0  0  0  0  0  0  0  0  0  0
   -2.1099    1.2326    0.2138 C   0  0  0  0  0  0  0  0  0  0  0  0
   -2.7580    0.0260    0.3644 C   0  0  0  0  0  0  0  0  0  0  0  0
   -2.1327   -1.1676    0.1713 N   0  0  0  0  0  0  0  0  0  0  0  0
   -0.8289   -1.1550   -0.1809 C   0  0  0  0  0  0  0  0  0  0  0  0
   -0.1349   -2.2147   -0.3925 N   0  0  0  0  0  0  0  0  0  0  0  0
   -2.7906   -2.4264    0.3250 C   0  0  0  0  0  0  0  0  0  0  0  0
   -4.0672   -2.3839    1.1285 C   0  0  0  0  0  0  0  0  0  0  0  0
   -3.0577   -3.0894   -0.9871 C   0  0  0  0  0  0  0  0  0  0  0  0
   -4.0494    0.0633    0.7129 N   0  0  0  0  0  0  0  0  0  0  0  0
   -4.6457    1.2528    0.8971 C   0  0  0  0  0  0  0  0  0  0  0  0
   -4.0197    2.4335    0.7520 N   0  0  0  0  0  0  0  0  0  0  0  0
   -2.7213    2.4542    0.4027 C   0  0  0  0  0  0  0  0  0  0  0  0
   -2.1145    3.5413    0.2609 O   0  0  0  0  0  0  0  0  0  0  0  0
   -4.6348    3.6200    0.9413 C   0  0  0  0  0  0  0  0  0  0  0  0
   -5.9720    3.7069    1.3032 C   0  0  0  0  0  0  0  0  0  0  0  0
   -6.6398    2.5054    1.4591 C   0  0  0  0  0  0  0  0  0  0  0  0
   -5.9958    1.2790    1.2612 C   0  0  0  0  0  0  0  0  0  0  0  0
    2.2048    0.6715    0.1443 N   0  0  0  0  0  0  0  0  0  0  0  0
    3.6057    0.7063   -0.1834 C   0  0  0  0  0  0  0  0  0  0  0  0
    4.2086   -0.6613   -0.3423 C   0  0  0  0  0  0  0  0  0  0  0  0
    5.6480   -0.4848   -0.6761 C   0  0  0  0  0  0  0  0  0  0  0  0
    6.0533   -0.3867   -1.9857 C   0  0  0  0  0  0  0  0  0  0  0  0
    7.4071   -0.2239   -2.2297 C   0  0  0  0  0  0  0  0  0  0  0  0
    8.3504   -0.1571   -1.2303 C   0  0  0  0  0  0  0  0  0  0  0  0
    7.9281   -0.2576    0.0882 C   0  0  0  0  0  0  0  0  0  0  0  0
    6.5952   -0.4188    0.3512 C   0  0  0  0  0  0  0  0  0  0  0  0
   -0.2084    2.1657   -0.2809 H   0  0  0  0  0  0  0  0  0  0  0  0
   -0.5016   -3.1810   -0.3136 H   0  0  0  0  0  0  0  0  0  0  0  0
   -2.0935   -3.0828    0.9248 H   0  0  0  0  0  0  0  0  0  0  0  0
   -3.9910   -1.8630    2.0870 H   0  0  0  0  0  0  0  0  0  0  0  0
   -4.9602   -2.1138    0.5202 H   0  0  0  0  0  0  0  0  0  0  0  0
   -4.2639   -3.4644    1.4074 H   0  0  0  0  0  0  0  0  0  0  0  0
   -4.1603   -3.2266   -1.1366 H   0  0  0  0  0  0  0  0  0  0  0  0
   -2.6262   -2.5178   -1.8515 H   0  0  0  0  0  0  0  0  0  0  0  0
   -2.6022   -4.0950   -1.0222 H   0  0  0  0  0  0  0  0  0  0  0  0
   -4.1180    4.5669    0.8208 H   0  0  0  0  0  0  0  0  0  0  0  0
   -6.4698    4.6638    1.4563 H   0  0  0  0  0  0  0  0  0  0  0  0
   -7.6829    2.5641    1.7412 H   0  0  0  0  0  0  0  0  0  0  0  0
   -6.5694    0.3697    1.3978 H   0  0  0  0  0  0  0  0  0  0  0  0
    1.8345    1.0985    1.0384 H   0  0  0  0  0  0  0  0  0  0  0  0
    3.7010    1.2074   -1.1718 H   0  0  0  0  0  0  0  0  0  0  0  0
    4.1360    1.2759    0.6124 H   0  0  0  0  0  0  0  0  0  0  0  0
    4.1875   -1.2292    0.6235 H   0  0  0  0  0  0  0  0  0  0  0  0
    3.7111   -1.2025   -1.1529 H   0  0  0  0  0  0  0  0  0  0  0  0
    5.3443   -0.4340   -2.8047 H   0  0  0  0  0  0  0  0  0  0  0  0
    7.7835   -0.1404   -3.2531 H   0  0  0  0  0  0  0  0  0  0  0  0
    9.4047   -0.0278   -1.4856 H   0  0  0  0  0  0  0  0  0  0  0  0
    8.6535   -0.2087    0.9134 H   0  0  0  0  0  0  0  0  0  0  0  0
    6.2356   -0.5005    1.3803 H   0  0  0  0  0  0  0  0  0  0  0  0
  1  2  2  0
  2  3  1  0
  3  4  2  0
  4  5  1  0
  5  6  2  0
  6  7  1  0
  7  8  1  0
  8  9  2  3
  7 10  1  0
 10 11  1  0
 10 12  1  0
  6 13  1  0
 13 14  2  0
 14 15  1  0
 15 16  1  0
 16 17  2  0
 15 18  1  0
 18 19  2  0
 19 20  1  0
 20 21  2  0
  2 22  1  0
 22 23  1  0
 23 24  1  0
 24 25  1  0
 25 26  2  0
 26 27  1  0
 27 28  2  0
 28 29  1  0
 29 30  2  0
  8  3  1  0
 21 14  1  0
 30 25  1  0
 16  5  1  0
  4 31  1  0
  9 32  1  0
 10 33  1  0
 11 34  1  0
 11 35  1  0
 11 36  1  0
 12 37  1  0
 12 38  1  0
 12 39  1  0
 18 40  1  0
 19 41  1  0
 20 42  1  0
 21 43  1  0
 22 44  1  0
 23 45  1  0
 23 46  1  0
 24 47  1  0
 24 48  1  0
 26 49  1  0
 27 50  1  0
 28 51  1  0
 29 52  1  0
 30 53  1  0
M  END
>  <Ligand ID>  (1) 
LIG0001521

>  <Ligand>  (1) 
MLS000033964

>  <SMILES>  (1) 
O=C(c1cc2c(n(c1=N)C(C)C)nc1n(c2=O)cccc1)NCCc1ccccc1

>  <CID>  (1) 
647592.0

>  <ChEMBL ID>  (1) 
nan

>  <InChiKey>  (1) 
GULGYCXYCGEVLX-UHFFFAOYSA-N

>  <InChi>  (1) 
InChI=1S/C23H23N5O2/c1-15(2)28-20(24)17(22(29)25-12-11-16-8-4-3-5-9-16)14-18-21(28)26-19-10-6-7-13-27(19)23(18)30/h3-10,13-15,24H,11-12H2,1-2H3,(H,25,29)

>  <IUPAC Name>  (1) 
6-imino-2-oxo-N-(2-phenylethyl)-7-propan-2-yl-1,7,9-triazatricyclo[8.4.0.03,8]tetradeca-3(8),4,9,11,13-pentaene-5-carboxamide

$$$$
