
     RDKit          3D

 30 31  0  0  0  0  0  0  0  0999 V2000
    4.6006    1.3590    0.4030 C   0  0  0  0  0  0  0  0  0  0  0  0
    3.1250    1.0463    0.2913 C   0  0  0  0  0  0  0  0  0  0  0  0
    2.8354   -0.4179    0.1271 C   0  0  0  0  0  0  0  0  0  0  0  0
    1.3497   -0.5932    0.0287 C   0  0  0  0  0  0  0  0  0  0  0  0
    0.8800   -1.8439   -0.1236 N   0  0  0  0  0  0  0  0  0  0  0  0
   -0.4318   -2.0941   -0.2202 N   0  0  0  0  0  0  0  0  0  0  0  0
   -0.9067   -3.4607   -0.3845 C   0  0  0  0  0  0  0  0  0  0  0  0
   -1.3302   -1.0985   -0.1680 C   0  0  0  0  0  0  0  0  0  0  0  0
   -0.8173    0.2670   -0.0017 C   0  0  0  0  0  0  0  0  0  0  0  0
    0.5051    0.4664    0.0903 N   0  0  0  0  0  0  0  0  0  0  0  0
   -1.7098    1.2933    0.0540 C   0  0  0  0  0  0  0  0  0  0  0  0
   -1.3339    2.4834    0.1950 O   0  0  0  0  0  0  0  0  0  0  0  0
   -3.0157    1.0209   -0.0445 N   0  0  0  0  0  0  0  0  0  0  0  0
   -3.4560   -0.2557   -0.1979 C   0  0  0  0  0  0  0  0  0  0  0  0
   -4.6931   -0.4343   -0.2831 O   0  0  0  0  0  0  0  0  0  0  0  0
   -2.6581   -1.3115   -0.2616 N   0  0  0  0  0  0  0  0  0  0  0  0
   -3.9689    2.1161    0.0148 C   0  0  0  0  0  0  0  0  0  0  0  0
    5.1163    1.2423   -0.5726 H   0  0  0  0  0  0  0  0  0  0  0  0
    5.1247    0.7476    1.1610 H   0  0  0  0  0  0  0  0  0  0  0  0
    4.6683    2.4175    0.7456 H   0  0  0  0  0  0  0  0  0  0  0  0
    2.7296    1.5924   -0.5734 H   0  0  0  0  0  0  0  0  0  0  0  0
    2.6570    1.3637    1.2458 H   0  0  0  0  0  0  0  0  0  0  0  0
    3.2680   -0.7175   -0.8603 H   0  0  0  0  0  0  0  0  0  0  0  0
    3.2766   -1.0559    0.8914 H   0  0  0  0  0  0  0  0  0  0  0  0
   -1.0112   -3.6754   -1.4884 H   0  0  0  0  0  0  0  0  0  0  0  0
   -0.1311   -4.1167    0.0806 H   0  0  0  0  0  0  0  0  0  0  0  0
   -1.9160   -3.5961    0.0768 H   0  0  0  0  0  0  0  0  0  0  0  0
   -4.0111    2.6593   -0.9626 H   0  0  0  0  0  0  0  0  0  0  0  0
   -3.7437    2.8420    0.8188 H   0  0  0  0  0  0  0  0  0  0  0  0
   -5.0018    1.7540    0.1848 H   0  0  0  0  0  0  0  0  0  0  0  0
  1  2  1  0
  2  3  1  0
  3  4  1  0
  4  5  2  0
  5  6  1  0
  6  7  1  0
  6  8  1  0
  8  9  1  0
  9 10  2  0
  9 11  1  0
 11 12  2  0
 11 13  1  0
 13 14  1  0
 14 15  2  0
 14 16  1  0
 13 17  1  0
 10  4  1  0
 16  8  2  0
  1 18  1  0
  1 19  1  0
  1 20  1  0
  2 21  1  0
  2 22  1  0
  3 23  1  0
  3 24  1  0
  7 25  1  0
  7 26  1  0
  7 27  1  0
 17 28  1  0
 17 29  1  0
 17 30  1  0
M  END
>  <Ligand ID>  (1) 
LIG0004184

>  <Ligand>  (1) 
MLS000718932

>  <SMILES>  (1) 
CCCc1nn(C)c2c(n1)c(=O)n(c(=O)n2)C

>  <CID>  (1) 
3164059.0

>  <ChEMBL ID>  (1) 
nan

>  <InChiKey>  (1) 
LKBYYUZEKINDPS-UHFFFAOYSA-N

>  <InChi>  (1) 
InChI=1S/C10H13N5O2/c1-4-5-6-11-7-8(15(3)13-6)12-10(17)14(2)9(7)16/h4-5H2,1-3H3

>  <IUPAC Name>  (1) 
1,6-dimethyl-3-propylpyrimido[5,4-e][1,2,4]triazine-5,7-dione

$$$$
