
     RDKit          3D

 34 36  0  0  0  0  0  0  0  0999 V2000
    7.5527   -0.0728   -0.0399 N   0  0  0  0  0  0  0  0  0  0  0  0
    6.1329   -0.1058    0.0381 C   0  0  0  0  0  0  0  0  0  0  0  0
    5.4933   -0.9251    0.9492 C   0  0  0  0  0  0  0  0  0  0  0  0
    4.0964   -0.9058    0.9696 C   0  0  0  0  0  0  0  0  0  0  0  0
    3.3586   -0.1104    0.1252 C   0  0  0  0  0  0  0  0  0  0  0  0
    4.0052    0.7025   -0.7791 C   0  0  0  0  0  0  0  0  0  0  0  0
    5.3985    0.6944   -0.8116 C   0  0  0  0  0  0  0  0  0  0  0  0
    1.9062   -0.1721    0.2354 C   0  0  0  0  0  0  0  0  0  0  0  0
    1.4192   -0.9490    1.0959 O   0  0  0  0  0  0  0  0  0  0  0  0
    1.0286    0.5977   -0.5769 N   0  0  0  0  0  0  0  0  0  0  0  0
   -0.3875    0.4856   -0.4129 C   0  0  0  0  0  0  0  0  0  0  0  0
   -1.3122    0.9968    0.2338 N   0  0  0  0  0  0  0  0  0  0  0  0
   -2.5656    0.6634    0.1626 C   0  0  0  0  0  0  0  0  0  0  0  0
   -2.8769   -0.3480   -0.7126 C   0  0  0  0  0  0  0  0  0  0  0  0
   -1.3199   -0.8132   -1.4362 S   0  0  0  0  0  0  0  0  0  0  0  0
   -4.1437   -0.8379   -0.9257 C   0  0  0  0  0  0  0  0  0  0  0  0
   -5.2283   -0.2975   -0.2218 C   0  0  0  0  0  0  0  0  0  0  0  0
   -4.9179    0.7123    0.6521 C   0  0  0  0  0  0  0  0  0  0  0  0
   -3.6562    1.2039    0.8678 C   0  0  0  0  0  0  0  0  0  0  0  0
   -6.5751   -0.8060   -0.4370 C   0  0  0  0  0  0  0  0  0  0  0  0
   -6.7283   -1.7358   -1.2667 O   0  0  0  0  0  0  0  0  0  0  0  0
   -7.6360   -0.2213    0.3034 N   0  0  0  0  0  0  0  0  0  0  0  0
    8.0376    0.6922    0.4858 H   0  0  0  0  0  0  0  0  0  0  0  0
    8.1055   -0.7722   -0.5923 H   0  0  0  0  0  0  0  0  0  0  0  0
    6.0469   -1.5638    1.6284 H   0  0  0  0  0  0  0  0  0  0  0  0
    3.6438   -1.5736    1.7102 H   0  0  0  0  0  0  0  0  0  0  0  0
    3.4547    1.3252   -1.4410 H   0  0  0  0  0  0  0  0  0  0  0  0
    5.8862    1.3435   -1.5329 H   0  0  0  0  0  0  0  0  0  0  0  0
    1.4221    1.2456   -1.2941 H   0  0  0  0  0  0  0  0  0  0  0  0
   -4.3335   -1.6349   -1.6258 H   0  0  0  0  0  0  0  0  0  0  0  0
   -5.7499    1.1442    1.2080 H   0  0  0  0  0  0  0  0  0  0  0  0
   -3.4989    2.0159    1.5879 H   0  0  0  0  0  0  0  0  0  0  0  0
   -8.2149    0.4920   -0.2085 H   0  0  0  0  0  0  0  0  0  0  0  0
   -7.8433   -0.4701    1.2919 H   0  0  0  0  0  0  0  0  0  0  0  0
  1  2  1  0
  2  3  2  0
  3  4  1  0
  4  5  2  0
  5  6  1  0
  6  7  2  0
  5  8  1  0
  8  9  2  0
  8 10  1  0
 10 11  1  0
 11 12  2  0
 12 13  1  0
 13 14  2  0
 14 15  1  0
 14 16  1  0
 16 17  2  0
 17 18  1  0
 18 19  2  0
 17 20  1  0
 20 21  2  0
 20 22  1  0
  7  2  1  0
 15 11  1  0
 19 13  1  0
  1 23  1  0
  1 24  1  0
  3 25  1  0
  4 26  1  0
  6 27  1  0
  7 28  1  0
 10 29  1  0
 16 30  1  0
 18 31  1  0
 19 32  1  0
 22 33  1  0
 22 34  1  0
M  END
>  <Ligand ID>  (1) 
LIG0005882

>  <Ligand>  (1) 
MLS000710780

>  <SMILES>  (1) 
Nc1ccc(cc1)C(=O)Nc1nc2c(s1)cc(cc2)C(=O)N

>  <CID>  (1) 
712274.0

>  <ChEMBL ID>  (1) 
nan

>  <InChiKey>  (1) 
GTBLZCPRMBVCGY-UHFFFAOYSA-N

>  <InChi>  (1) 
InChI=1S/C15H12N4O2S/c16-10-4-1-8(2-5-10)14(21)19-15-18-11-6-3-9(13(17)20)7-12(11)22-15/h1-7H,16H2,(H2,17,20)(H,18,19,21)

>  <IUPAC Name>  (1) 
2-[(4-aminobenzoyl)amino]-1,3-benzothiazole-6-carboxamide

$$$$
