
     RDKit          3D

 23 23  0  0  0  0  0  0  0  0999 V2000
    3.3078    0.5654    0.2423 C   0  0  0  0  0  0  0  0  0  0  0  0
    2.2325   -0.4840   -0.0494 C   0  0  0  0  0  0  0  0  0  0  0  0
    0.9591    0.1188   -0.0143 N   0  0  0  0  0  0  0  0  0  0  0  0
   -0.1717   -0.6995   -0.2725 C   0  0  0  0  0  0  0  0  0  0  0  0
   -1.4068    0.1701   -0.3286 C   0  0  0  0  0  0  0  0  0  0  0  0
   -1.4669    1.3731   -1.0110 C   0  0  0  0  0  0  0  0  0  0  0  0
   -2.7718    1.8211   -0.7946 C   0  0  0  0  0  0  0  0  0  0  0  0
   -3.2155    2.9079   -1.2683 O   0  0  0  0  0  0  0  0  0  0  0  0
   -3.4000    0.9093   -0.0301 N   0  0  0  0  0  0  0  0  0  0  0  0
   -2.5658   -0.0745    0.2400 O   0  0  0  0  0  0  0  0  0  0  0  0
   -0.3203   -1.6966    0.8049 C   0  0  0  0  0  0  0  0  0  0  0  0
    0.4085   -1.7936    1.8169 O   0  0  0  0  0  0  0  0  0  0  0  0
   -1.3607   -2.6112    0.6898 O   0  0  0  0  0  0  0  0  0  0  0  0
    3.8120    0.3635    1.2091 H   0  0  0  0  0  0  0  0  0  0  0  0
    2.8244    1.5761    0.3706 H   0  0  0  0  0  0  0  0  0  0  0  0
    4.0908    0.5952   -0.5437 H   0  0  0  0  0  0  0  0  0  0  0  0
    2.3285   -1.2577    0.7295 H   0  0  0  0  0  0  0  0  0  0  0  0
    2.4730   -0.9867   -1.0096 H   0  0  0  0  0  0  0  0  0  0  0  0
    0.8238    0.9777    0.5156 H   0  0  0  0  0  0  0  0  0  0  0  0
   -0.1214   -1.1797   -1.2763 H   0  0  0  0  0  0  0  0  0  0  0  0
   -0.6934    1.8667   -1.5839 H   0  0  0  0  0  0  0  0  0  0  0  0
   -4.4078    0.9920    0.2914 H   0  0  0  0  0  0  0  0  0  0  0  0
   -1.3584   -3.4532    1.2720 H   0  0  0  0  0  0  0  0  0  0  0  0
  1  2  1  0
  2  3  1  0
  3  4  1  0
  4  5  1  0
  5  6  2  0
  6  7  1  0
  7  8  2  0
  7  9  1  0
  9 10  1  0
  4 11  1  0
 11 12  2  0
 11 13  1  0
 10  5  1  0
  1 14  1  0
  1 15  1  0
  1 16  1  0
  2 17  1  0
  2 18  1  0
  3 19  1  0
  4 20  1  0
  6 21  1  0
  9 22  1  0
 13 23  1  0
M  END
>  <Ligand ID>  (1) 
LIG0004420

>  <Ligand>  (1) 
CHEMBL287737

>  <SMILES>  (1) 
CCNC(c1cc(=O)[nH]o1)C(=O)O

>  <CID>  (1) 
10103891.0

>  <ChEMBL ID>  (1) 
nan

>  <InChiKey>  (1) 
HSBVMXGJVKIWDF-UHFFFAOYSA-N

>  <InChi>  (1) 
InChI=1S/C7H10N2O4/c1-2-8-6(7(11)12)4-3-5(10)9-13-4/h3,6,8H,2H2,1H3,(H,9,10)(H,11,12)

>  <IUPAC Name>  (1) 
2-(ethylamino)-2-(3-oxo-1,2-oxazol-5-yl)acetic acid

$$$$
