
     RDKit          3D

 33 36  0  0  0  0  0  0  0  0999 V2000
    5.4053    1.1019    0.2785 C   0  0  0  0  0  0  0  0  0  0  0  0
    4.9052    0.5661   -0.8901 C   0  0  0  0  0  0  0  0  0  0  0  0
    3.8932   -0.3940   -0.8629 C   0  0  0  0  0  0  0  0  0  0  0  0
    3.4004   -0.7991    0.3396 C   0  0  0  0  0  0  0  0  0  0  0  0
    3.8994   -0.2655    1.4635 N   0  0  0  0  0  0  0  0  0  0  0  0
    4.8649    0.6514    1.4644 C   0  0  0  0  0  0  0  0  0  0  0  0
    2.3625   -1.7702    0.5021 N   0  0  0  0  0  0  0  0  0  0  0  0
    1.0302   -1.2672    0.3927 C   0  0  0  0  0  0  0  0  0  0  0  0
    0.4116   -0.1079    1.7945 S   0  0  0  0  0  0  0  0  0  0  0  0
   -1.1516    0.0841    1.0501 C   0  0  0  0  0  0  0  0  0  0  0  0
   -1.0786   -0.6762   -0.0919 C   0  0  0  0  0  0  0  0  0  0  0  0
    0.0683   -1.2762   -0.2645 N   0  0  0  0  0  0  0  0  0  0  0  0
   -2.2070   -0.8122   -1.0441 C   0  0  0  0  0  0  0  0  0  0  0  0
   -2.3695   -1.8194   -1.9624 C   0  0  0  0  0  0  0  0  0  0  0  0
   -3.5200   -1.5676   -2.6273 N   0  0  0  0  0  0  0  0  0  0  0  0
   -4.0789   -0.4519   -2.1641 N   0  0  0  0  0  0  0  0  0  0  0  0
   -3.2999    0.0273   -1.2000 C   0  0  0  0  0  0  0  0  0  0  0  0
   -3.5474    1.2743   -0.3885 C   0  0  0  0  0  0  0  0  0  0  0  0
   -3.4949    0.9771    1.0784 C   0  0  0  0  0  0  0  0  0  0  0  0
   -2.1461    0.9282    1.6934 C   0  0  0  0  0  0  0  0  0  0  0  0
    6.1970    1.8457    0.2469 H   0  0  0  0  0  0  0  0  0  0  0  0
    5.2647    0.8667   -1.8558 H   0  0  0  0  0  0  0  0  0  0  0  0
    3.4937   -0.8228   -1.7721 H   0  0  0  0  0  0  0  0  0  0  0  0
    5.2517    1.0693    2.3697 H   0  0  0  0  0  0  0  0  0  0  0  0
    2.5826   -2.7605    0.6838 H   0  0  0  0  0  0  0  0  0  0  0  0
   -1.6701   -2.6404   -2.0845 H   0  0  0  0  0  0  0  0  0  0  0  0
   -4.9790   -0.0308   -2.5044 H   0  0  0  0  0  0  0  0  0  0  0  0
   -2.7227    1.9858   -0.6306 H   0  0  0  0  0  0  0  0  0  0  0  0
   -4.5600    1.6636   -0.6087 H   0  0  0  0  0  0  0  0  0  0  0  0
   -4.0859    0.0512    1.2684 H   0  0  0  0  0  0  0  0  0  0  0  0
   -4.0491    1.8152    1.5863 H   0  0  0  0  0  0  0  0  0  0  0  0
   -1.8002    1.9947    1.8200 H   0  0  0  0  0  0  0  0  0  0  0  0
   -2.2696    0.5593    2.7392 H   0  0  0  0  0  0  0  0  0  0  0  0
  1  2  2  0
  2  3  1  0
  3  4  2  0
  4  5  1  0
  5  6  2  0
  4  7  1  0
  7  8  1  0
  8  9  1  0
  9 10  1  0
 10 11  2  0
 11 12  1  0
 11 13  1  0
 13 14  1  0
 14 15  2  0
 15 16  1  0
 16 17  1  0
 17 18  1  0
 18 19  1  0
 19 20  1  0
  6  1  1  0
 12  8  2  0
 17 13  2  0
 20 10  1  0
  1 21  1  0
  2 22  1  0
  3 23  1  0
  6 24  1  0
  7 25  1  0
 14 26  1  0
 16 27  1  0
 18 28  1  0
 18 29  1  0
 19 30  1  0
 19 31  1  0
 20 32  1  0
 20 33  1  0
M  END
>  <Ligand ID>  (1) 
LIG0000666

>  <Ligand>  (1) 
CHEMBL1830707

>  <SMILES>  (1) 
c1ccc(nc1)Nc1sc2c(n1)c1cn[nH]c1CCC2

>  <CID>  (1) 
46836562.0

>  <ChEMBL ID>  (1) 
nan

>  <InChiKey>  (1) 
DBISXWCOHGUFSF-UHFFFAOYSA-N

>  <InChi>  (1) 
InChI=1S/C14H13N5S/c1-2-7-15-12(6-1)17-14-18-13-9-8-16-19-10(9)4-3-5-11(13)20-14/h1-2,6-8H,3-5H2,(H,16,19)(H,15,17,18)

>  <IUPAC Name>  (1) 
N-pyridin-2-yl-5-thia-3,11,12-triazatricyclo[8.3.0.02,6]trideca-1(10),2(6),3,12-tetraen-4-amine

$$$$
