
     RDKit          3D

 50 52  0  0  0  0  0  0  0  0999 V2000
    9.5415    1.2839    0.2001 O   0  0  0  0  0  0  0  0  0  0  0  0
    8.5752    0.9927    1.1818 C   0  0  0  0  0  0  0  0  0  0  0  0
    9.0073    0.8851    2.3744 O   0  0  0  0  0  0  0  0  0  0  0  0
    7.1647    0.8289    0.8202 C   0  0  0  0  0  0  0  0  0  0  0  0
    6.6763   -0.6104    0.9018 C   0  0  0  0  0  0  0  0  0  0  0  0
    5.2301   -0.5542    0.4984 C   0  0  0  0  0  0  0  0  0  0  0  0
    4.2599   -0.3631    1.4596 C   0  0  0  0  0  0  0  0  0  0  0  0
    2.9428   -0.3166    1.0547 C   0  0  0  0  0  0  0  0  0  0  0  0
    2.6171   -0.4612   -0.3004 C   0  0  0  0  0  0  0  0  0  0  0  0
    3.6001   -0.6511   -1.2449 C   0  0  0  0  0  0  0  0  0  0  0  0
    4.9276   -0.6983   -0.8392 C   0  0  0  0  0  0  0  0  0  0  0  0
    3.2636   -0.8046   -2.6851 C   0  0  0  0  0  0  0  0  0  0  0  0
    1.2160   -0.4098   -0.7040 C   0  0  0  0  0  0  0  0  0  0  0  0
    0.6818   -0.5210   -1.9406 N   0  0  0  0  0  0  0  0  0  0  0  0
   -0.6144   -0.4214   -1.8729 O   0  0  0  0  0  0  0  0  0  0  0  0
   -0.9767   -0.2436   -0.6076 C   0  0  0  0  0  0  0  0  0  0  0  0
    0.1593   -0.2372    0.1115 N   0  0  0  0  0  0  0  0  0  0  0  0
   -2.3403   -0.0878   -0.1116 C   0  0  0  0  0  0  0  0  0  0  0  0
   -2.6413    0.0934    1.2227 C   0  0  0  0  0  0  0  0  0  0  0  0
   -3.9337    0.2360    1.6455 C   0  0  0  0  0  0  0  0  0  0  0  0
   -4.9980    0.2021    0.7301 C   0  0  0  0  0  0  0  0  0  0  0  0
   -4.6483    0.0210   -0.5761 C   0  0  0  0  0  0  0  0  0  0  0  0
   -3.3628   -0.1194   -0.9841 N   0  0  0  0  0  0  0  0  0  0  0  0
   -6.3382    0.3655    1.2728 C   0  0  0  0  0  0  0  0  0  0  0  0
   -7.4589    0.2963    0.2729 C   0  0  0  0  0  0  0  0  0  0  0  0
   -7.4948   -1.0333   -0.4445 C   0  0  0  0  0  0  0  0  0  0  0  0
   -7.3729    1.4351   -0.7057 C   0  0  0  0  0  0  0  0  0  0  0  0
   -6.5643   -0.5143    2.3389 F   0  0  0  0  0  0  0  0  0  0  0  0
   -6.4491    1.6324    1.8687 F   0  0  0  0  0  0  0  0  0  0  0  0
   10.5252    1.1988    0.4393 H   0  0  0  0  0  0  0  0  0  0  0  0
    6.4991    1.4374    1.4856 H   0  0  0  0  0  0  0  0  0  0  0  0
    7.0200    1.2004   -0.2137 H   0  0  0  0  0  0  0  0  0  0  0  0
    7.2328   -1.2810    0.2390 H   0  0  0  0  0  0  0  0  0  0  0  0
    6.6948   -0.9411    1.9508 H   0  0  0  0  0  0  0  0  0  0  0  0
    4.5613   -0.2573    2.4878 H   0  0  0  0  0  0  0  0  0  0  0  0
    2.1669   -0.1683    1.7859 H   0  0  0  0  0  0  0  0  0  0  0  0
    5.6723   -0.8459   -1.5840 H   0  0  0  0  0  0  0  0  0  0  0  0
    2.7083    0.1107   -3.0174 H   0  0  0  0  0  0  0  0  0  0  0  0
    4.1913   -0.9227   -3.2725 H   0  0  0  0  0  0  0  0  0  0  0  0
    2.5720   -1.6606   -2.8318 H   0  0  0  0  0  0  0  0  0  0  0  0
   -1.8314    0.1230    1.9517 H   0  0  0  0  0  0  0  0  0  0  0  0
   -4.1124    0.3757    2.7094 H   0  0  0  0  0  0  0  0  0  0  0  0
   -5.3932   -0.0171   -1.3501 H   0  0  0  0  0  0  0  0  0  0  0  0
   -8.4239    0.4024    0.8358 H   0  0  0  0  0  0  0  0  0  0  0  0
   -8.3907   -1.6256   -0.1183 H   0  0  0  0  0  0  0  0  0  0  0  0
   -6.6244   -1.6471   -0.1462 H   0  0  0  0  0  0  0  0  0  0  0  0
   -7.5915   -0.8845   -1.5350 H   0  0  0  0  0  0  0  0  0  0  0  0
   -6.4205    2.0032   -0.6373 H   0  0  0  0  0  0  0  0  0  0  0  0
   -7.4896    1.0423   -1.7262 H   0  0  0  0  0  0  0  0  0  0  0  0
   -8.2358    2.1323   -0.5182 H   0  0  0  0  0  0  0  0  0  0  0  0
  1  2  1  0
  2  3  2  0
  2  4  1  0
  4  5  1  0
  5  6  1  0
  6  7  2  0
  7  8  1  0
  8  9  2  0
  9 10  1  0
 10 11  2  0
 10 12  1  0
  9 13  1  0
 13 14  2  0
 14 15  1  0
 15 16  1  0
 16 17  2  0
 16 18  1  0
 18 19  2  0
 19 20  1  0
 20 21  2  0
 21 22  1  0
 22 23  2  0
 21 24  1  0
 24 25  1  0
 25 26  1  0
 25 27  1  0
 24 28  1  0
 24 29  1  0
 11  6  1  0
 17 13  1  0
 23 18  1  0
  1 30  1  0
  4 31  1  0
  4 32  1  0
  5 33  1  0
  5 34  1  0
  7 35  1  0
  8 36  1  0
 11 37  1  0
 12 38  1  0
 12 39  1  0
 12 40  1  0
 19 41  1  0
 20 42  1  0
 22 43  1  0
 25 44  1  0
 26 45  1  0
 26 46  1  0
 26 47  1  0
 27 48  1  0
 27 49  1  0
 27 50  1  0
M  END
>  <Ligand ID>  (1) 
LIG0001693

>  <Ligand>  (1) 
CHEMBL209567

>  <SMILES>  (1) 
OC(=O)CCc1ccc(c(c1)C)c1noc(n1)c1ccc(cn1)C(C(C)C)(F)F

>  <CID>  (1) 
11611053.0

>  <ChEMBL ID>  (1) 
nan

>  <InChiKey>  (1) 
MPJNTMGLPUJHMF-UHFFFAOYSA-N

>  <InChi>  (1) 
InChI=1S/C21H21F2N3O3/c1-12(2)21(22,23)15-6-8-17(24-11-15)20-25-19(26-29-20)16-7-4-14(10-13(16)3)5-9-18(27)28/h4,6-8,10-12H,5,9H2,1-3H3,(H,27,28)

>  <IUPAC Name>  (1) 
3-[4-[5-[5-(1,1-difluoro-2-methylpropyl)pyridin-2-yl]-1,2,4-oxadiazol-3-yl]-3-methylphenyl]propanoic acid

$$$$
