
     RDKit          3D

 42 45  0  0  0  0  0  0  0  0999 V2000
    6.5801    0.0896   -0.3873 O   0  0  0  0  0  0  0  0  0  0  0  0
    6.3475    1.2141    0.3813 C   0  0  0  0  0  0  0  0  0  0  0  0
    7.3488    1.6557    1.0354 O   0  0  0  0  0  0  0  0  0  0  0  0
    5.0723    1.9224    0.5002 C   0  0  0  0  0  0  0  0  0  0  0  0
    3.9774    1.3435   -0.2329 N   0  0  0  0  0  0  0  0  0  0  0  0
    3.6081    0.0986    0.3632 C   0  0  0  0  0  0  0  0  0  0  0  0
    2.4868   -0.5913   -0.2960 C   0  0  0  0  0  0  0  0  0  0  0  0
    2.7968   -1.8321   -1.6816 S   0  0  0  0  0  0  0  0  0  0  0  0
    1.0664   -2.1433   -1.8694 C   0  0  0  0  0  0  0  0  0  0  0  0
    0.4056   -1.3651   -0.9586 C   0  0  0  0  0  0  0  0  0  0  0  0
    1.1565   -0.5774   -0.1634 C   0  0  0  0  0  0  0  0  0  0  0  0
   -0.9973   -1.5004   -0.9865 C   0  0  0  0  0  0  0  0  0  0  0  0
   -1.6083   -2.3563   -1.8746 C   0  0  0  0  0  0  0  0  0  0  0  0
   -0.9314   -3.1341   -2.7871 C   0  0  0  0  0  0  0  0  0  0  0  0
    0.4628   -3.0023   -2.7613 C   0  0  0  0  0  0  0  0  0  0  0  0
   -1.8646   -0.7639   -0.0764 C   0  0  0  0  0  0  0  0  0  0  0  0
   -1.6387   -0.7373    1.2811 C   0  0  0  0  0  0  0  0  0  0  0  0
   -2.4468   -0.0292    2.1519 C   0  0  0  0  0  0  0  0  0  0  0  0
   -3.5195    0.6680    1.5840 C   0  0  0  0  0  0  0  0  0  0  0  0
   -3.7358    0.6335    0.2275 C   0  0  0  0  0  0  0  0  0  0  0  0
   -2.9340   -0.0713   -0.6554 C   0  0  0  0  0  0  0  0  0  0  0  0
   -4.8168    1.3480   -0.2564 C   0  0  0  0  0  0  0  0  0  0  0  0
   -5.6273    2.0568    0.6054 C   0  0  0  0  0  0  0  0  0  0  0  0
   -5.3795    2.0681    1.9548 C   0  0  0  0  0  0  0  0  0  0  0  0
   -4.3074    1.3648    2.4734 C   0  0  0  0  0  0  0  0  0  0  0  0
    7.4172    0.0375   -0.9592 H   0  0  0  0  0  0  0  0  0  0  0  0
    4.8425    2.0245    1.5897 H   0  0  0  0  0  0  0  0  0  0  0  0
    5.2552    2.9755    0.1689 H   0  0  0  0  0  0  0  0  0  0  0  0
    3.2175    2.0184   -0.3581 H   0  0  0  0  0  0  0  0  0  0  0  0
    4.5122   -0.5561    0.3867 H   0  0  0  0  0  0  0  0  0  0  0  0
    3.3909    0.2614    1.4606 H   0  0  0  0  0  0  0  0  0  0  0  0
    0.6914    0.1001    0.6056 H   0  0  0  0  0  0  0  0  0  0  0  0
   -2.6847   -2.4412   -1.8760 H   0  0  0  0  0  0  0  0  0  0  0  0
   -1.3888   -3.7964   -3.4752 H   0  0  0  0  0  0  0  0  0  0  0  0
    1.0895   -3.5774   -3.4480 H   0  0  0  0  0  0  0  0  0  0  0  0
   -0.8141   -1.2819    1.7557 H   0  0  0  0  0  0  0  0  0  0  0  0
   -2.2550   -0.0193    3.2129 H   0  0  0  0  0  0  0  0  0  0  0  0
   -3.1156   -0.0880   -1.7036 H   0  0  0  0  0  0  0  0  0  0  0  0
   -5.0410    1.3588   -1.3233 H   0  0  0  0  0  0  0  0  0  0  0  0
   -6.4843    2.6272    0.2533 H   0  0  0  0  0  0  0  0  0  0  0  0
   -6.0296    2.6299    2.6033 H   0  0  0  0  0  0  0  0  0  0  0  0
   -4.1049    1.3681    3.5353 H   0  0  0  0  0  0  0  0  0  0  0  0
  1  2  1  0
  2  3  2  0
  2  4  1  0
  4  5  1  0
  5  6  1  0
  6  7  1  0
  7  8  1  0
  8  9  1  0
  9 10  2  0
 10 11  1  0
 10 12  1  0
 12 13  2  0
 13 14  1  0
 14 15  2  0
 12 16  1  0
 16 17  2  0
 17 18  1  0
 18 19  2  0
 19 20  1  0
 20 21  2  0
 20 22  1  0
 22 23  2  0
 23 24  1  0
 24 25  2  0
 11  7  2  0
 21 16  1  0
 15  9  1  0
 25 19  1  0
  1 26  1  0
  4 27  1  0
  4 28  1  0
  5 29  1  0
  6 30  1  0
  6 31  1  0
 11 32  1  0
 13 33  1  0
 14 34  1  0
 15 35  1  0
 17 36  1  0
 18 37  1  0
 21 38  1  0
 22 39  1  0
 23 40  1  0
 24 41  1  0
 25 42  1  0
M  END
>  <Ligand ID>  (1) 
LIG0001273

>  <Ligand>  (1) 
CHEMBL3883447

>  <SMILES>  (1) 
OC(=O)CNCc1sc2c(c1)c(ccc2)c1ccc2c(c1)cccc2

>  <CID>  (1) 
134130695.0

>  <ChEMBL ID>  (1) 
nan

>  <InChiKey>  (1) 
YLYIQDOAPTZMNN-UHFFFAOYSA-N

>  <InChi>  (1) 
InChI=1S/C21H17NO2S/c23-21(24)13-22-12-17-11-19-18(6-3-7-20(19)25-17)16-9-8-14-4-1-2-5-15(14)10-16/h1-11,22H,12-13H2,(H,23,24)

>  <IUPAC Name>  (1) 
2-[(4-naphthalen-2-yl-1-benzothiophen-2-yl)methylamino]acetic acid

$$$$
