
     RDKit          3D

 55 59  0  0  0  0  0  0  0  0999 V2000
   -7.1224   -1.9317    2.0265 C   0  0  0  0  0  0  0  0  0  0  0  0
   -6.2283   -1.1091    1.1765 C   0  0  0  0  0  0  0  0  0  0  0  0
   -4.8815   -1.3664    1.2238 C   0  0  0  0  0  0  0  0  0  0  0  0
   -3.9810   -0.6161    0.4518 C   0  0  0  0  0  0  0  0  0  0  0  0
   -4.3647    0.3898   -0.3764 C   0  0  0  0  0  0  0  0  0  0  0  0
   -5.7536    0.6308   -0.4061 C   0  0  0  0  0  0  0  0  0  0  0  0
   -6.6441   -0.0990    0.3469 C   0  0  0  0  0  0  0  0  0  0  0  0
   -3.4806    1.2545   -1.1829 C   0  0  0  0  0  0  0  0  0  0  0  0
   -3.3517    2.6830   -0.5876 C   0  0  0  0  0  0  0  0  0  0  0  0
   -4.0371    2.4893   -1.8725 C   0  0  0  0  0  0  0  0  0  0  0  0
   -2.1811    0.8147   -1.7086 C   0  0  0  0  0  0  0  0  0  0  0  0
   -2.0885    0.8191   -2.9965 O   0  0  0  0  0  0  0  0  0  0  0  0
   -1.0334    0.4030   -1.0230 N   0  0  0  0  0  0  0  0  0  0  0  0
   -0.8191    0.5295    0.4193 C   0  0  0  0  0  0  0  0  0  0  0  0
    0.5945    1.1550    0.5232 C   0  0  0  0  0  0  0  0  0  0  0  0
    1.5310    0.0271    0.2840 C   0  0  0  0  0  0  0  0  0  0  0  0
    0.9711   -0.9669   -0.7309 C   0  0  0  0  0  0  0  0  0  0  0  0
    0.0820   -0.2451   -1.7282 C   0  0  0  0  0  0  0  0  0  0  0  0
    2.8674    0.4077   -0.0959 N   0  0  0  0  0  0  0  0  0  0  0  0
    3.9087   -0.4093    0.1171 N   0  0  0  0  0  0  0  0  0  0  0  0
    5.0369    0.1602   -0.3500 C   0  0  0  0  0  0  0  0  0  0  0  0
    4.6906    1.3132   -0.8439 O   0  0  0  0  0  0  0  0  0  0  0  0
    3.3702    1.4748   -0.6960 C   0  0  0  0  0  0  0  0  0  0  0  0
    2.7289    2.4824   -1.0723 O   0  0  0  0  0  0  0  0  0  0  0  0
    6.3320   -0.5016   -0.2591 C   0  0  0  0  0  0  0  0  0  0  0  0
    6.4888   -1.7026    0.3847 C   0  0  0  0  0  0  0  0  0  0  0  0
    7.7123   -2.3615    0.4638 C   0  0  0  0  0  0  0  0  0  0  0  0
    8.8257   -1.8046   -0.1218 C   0  0  0  0  0  0  0  0  0  0  0  0
    8.6578   -0.5844   -0.7728 C   0  0  0  0  0  0  0  0  0  0  0  0
    7.4366    0.0634   -0.8462 C   0  0  0  0  0  0  0  0  0  0  0  0
   -6.5346   -2.3232    2.8927 H   0  0  0  0  0  0  0  0  0  0  0  0
   -7.9827   -1.3331    2.3974 H   0  0  0  0  0  0  0  0  0  0  0  0
   -7.5284   -2.7821    1.4286 H   0  0  0  0  0  0  0  0  0  0  0  0
   -4.5216   -2.1578    1.8653 H   0  0  0  0  0  0  0  0  0  0  0  0
   -2.9753   -0.9006    0.5367 H   0  0  0  0  0  0  0  0  0  0  0  0
   -6.1893    1.4028   -1.0264 H   0  0  0  0  0  0  0  0  0  0  0  0
   -7.7264    0.1166    0.3001 H   0  0  0  0  0  0  0  0  0  0  0  0
   -2.3702    3.1833   -0.6377 H   0  0  0  0  0  0  0  0  0  0  0  0
   -4.0250    2.9024    0.2677 H   0  0  0  0  0  0  0  0  0  0  0  0
   -5.1150    2.6082   -1.9983 H   0  0  0  0  0  0  0  0  0  0  0  0
   -3.5011    2.8016   -2.8281 H   0  0  0  0  0  0  0  0  0  0  0  0
   -1.5426    1.1635    0.9170 H   0  0  0  0  0  0  0  0  0  0  0  0
   -0.7058   -0.4715    0.8652 H   0  0  0  0  0  0  0  0  0  0  0  0
    0.6713    2.0261   -0.1240 H   0  0  0  0  0  0  0  0  0  0  0  0
    0.6992    1.5118    1.5797 H   0  0  0  0  0  0  0  0  0  0  0  0
    1.6047   -0.5448    1.2534 H   0  0  0  0  0  0  0  0  0  0  0  0
    0.4177   -1.7745   -0.2684 H   0  0  0  0  0  0  0  0  0  0  0  0
    1.8307   -1.3728   -1.2866 H   0  0  0  0  0  0  0  0  0  0  0  0
   -0.3982   -1.0578   -2.3431 H   0  0  0  0  0  0  0  0  0  0  0  0
    0.5978    0.4534   -2.3934 H   0  0  0  0  0  0  0  0  0  0  0  0
    5.6266   -2.1465    0.8471 H   0  0  0  0  0  0  0  0  0  0  0  0
    7.7375   -3.3066    0.9937 H   0  0  0  0  0  0  0  0  0  0  0  0
    9.7728   -2.3028   -0.0732 H   0  0  0  0  0  0  0  0  0  0  0  0
    9.5233   -0.1047   -1.2550 H   0  0  0  0  0  0  0  0  0  0  0  0
    7.3675    1.0100   -1.3679 H   0  0  0  0  0  0  0  0  0  0  0  0
  1  2  1  0
  2  3  2  0
  3  4  1  0
  4  5  2  0
  5  6  1  0
  6  7  2  0
  5  8  1  0
  8  9  1  0
  9 10  1  0
  8 11  1  0
 11 12  2  0
 11 13  1  0
 13 14  1  0
 14 15  1  0
 15 16  1  0
 16 17  1  0
 17 18  1  0
 16 19  1  0
 19 20  1  0
 20 21  2  0
 21 22  1  0
 22 23  1  0
 23 24  2  0
 21 25  1  0
 25 26  2  0
 26 27  1  0
 27 28  2  0
 28 29  1  0
 29 30  2  0
  7  2  1  0
 10  8  1  0
 18 13  1  0
 23 19  1  0
 30 25  1  0
  1 31  1  0
  1 32  1  0
  1 33  1  0
  3 34  1  0
  4 35  1  0
  6 36  1  0
  7 37  1  0
  9 38  1  0
  9 39  1  0
 10 40  1  0
 10 41  1  0
 14 42  1  0
 14 43  1  0
 15 44  1  0
 15 45  1  0
 16 46  1  0
 17 47  1  0
 17 48  1  0
 18 49  1  0
 18 50  1  0
 26 51  1  0
 27 52  1  0
 28 53  1  0
 29 54  1  0
 30 55  1  0
M  END
>  <Ligand ID>  (1) 
LIG0003801

>  <Ligand>  (1) 
ML191

>  <SMILES>  (1) 
Cc1ccc(cc1)C1(CC1)C(=O)N1CCC(CC1)n1nc(oc1=O)c1ccccc1

>  <CID>  (1) 
23612552.0

>  <ChEMBL ID>  (1) 
nan

>  <InChiKey>  (1) 
WWJKJCDOYFKZBJ-UHFFFAOYSA-N

>  <InChi>  (1) 
InChI=1S/C24H25N3O3/c1-17-7-9-19(10-8-17)24(13-14-24)22(28)26-15-11-20(12-16-26)27-23(29)30-21(25-27)18-5-3-2-4-6-18/h2-10,20H,11-16H2,1H3

>  <IUPAC Name>  (1) 
3-[1-[1-(4-methylphenyl)cyclopropanecarbonyl]piperidin-4-yl]-5-phenyl-1,3,4-oxadiazol-2-one

$$$$
