
     RDKit          3D

 39 41  0  0  0  0  0  0  0  0999 V2000
    5.5043   -0.2511    0.4085 C   0  0  0  0  0  0  0  0  0  0  0  0
    4.3226    0.0872   -0.1356 C   0  0  0  0  0  0  0  0  0  0  0  0
    3.1517   -0.8097    0.0413 C   0  0  0  0  0  0  0  0  0  0  0  0
    2.0626   -0.2167    0.7052 N   0  0  0  0  0  0  0  0  0  0  0  0
    1.2822    0.7773    0.0975 C   0  0  2  0  0  0  0  0  0  0  0  0
    0.4961    0.2587   -1.1160 C   0  0  0  0  0  0  0  0  0  0  0  0
   -0.4128   -0.7891   -0.7536 N   0  0  0  0  0  0  0  0  0  0  0  0
   -0.0607   -2.1103   -0.8497 C   0  0  0  0  0  0  0  0  0  0  0  0
   -1.0985   -2.9125   -0.4669 C   0  0  0  0  0  0  0  0  0  0  0  0
   -2.1228   -2.0936   -0.1230 C   0  0  0  0  0  0  0  0  0  0  0  0
   -1.6609   -0.8032   -0.3131 C   0  0  0  0  0  0  0  0  0  0  0  0
   -2.5452    0.2076   -0.0214 C   0  0  0  0  0  0  0  0  0  0  0  0
   -2.1800    1.5188   -0.1711 C   0  0  0  0  0  0  0  0  0  0  0  0
   -3.1037    2.5311    0.1379 C   0  0  0  0  0  0  0  0  0  0  0  0
   -4.3506    2.1617    0.5830 C   0  0  0  0  0  0  0  0  0  0  0  0
   -4.7218    0.8818    0.7361 N   0  0  0  0  0  0  0  0  0  0  0  0
   -3.8160   -0.0844    0.4322 C   0  0  0  0  0  0  0  0  0  0  0  0
   -4.2625   -1.3824    0.6163 C   0  0  0  0  0  0  0  0  0  0  0  0
   -3.3866   -2.3912    0.3288 C   0  0  0  0  0  0  0  0  0  0  0  0
    1.9490    2.0407   -0.3389 C   0  0  0  0  0  0  0  0  0  0  0  0
    5.5560   -1.1719    0.9586 H   0  0  0  0  0  0  0  0  0  0  0  0
    6.3910    0.3463    0.3244 H   0  0  0  0  0  0  0  0  0  0  0  0
    4.3178    1.0146   -0.6858 H   0  0  0  0  0  0  0  0  0  0  0  0
    2.8859   -1.3118   -0.9240 H   0  0  0  0  0  0  0  0  0  0  0  0
    3.4994   -1.6776    0.6778 H   0  0  0  0  0  0  0  0  0  0  0  0
    2.3271    0.0586    1.6732 H   0  0  0  0  0  0  0  0  0  0  0  0
    0.5323    1.1064    0.8886 H   0  0  0  0  0  0  0  0  0  0  0  0
    1.3619   -0.2052   -1.7340 H   0  0  0  0  0  0  0  0  0  0  0  0
    0.1778    1.0434   -1.7651 H   0  0  0  0  0  0  0  0  0  0  0  0
    0.8921   -2.5178   -1.1821 H   0  0  0  0  0  0  0  0  0  0  0  0
   -1.0996   -4.0088   -0.4434 H   0  0  0  0  0  0  0  0  0  0  0  0
   -1.2348    1.8820   -0.5011 H   0  0  0  0  0  0  0  0  0  0  0  0
   -2.8575    3.5652    0.0337 H   0  0  0  0  0  0  0  0  0  0  0  0
   -5.0457    2.9471    0.8148 H   0  0  0  0  0  0  0  0  0  0  0  0
   -5.2657   -1.5941    0.9757 H   0  0  0  0  0  0  0  0  0  0  0  0
   -3.7016   -3.4258    0.4622 H   0  0  0  0  0  0  0  0  0  0  0  0
    2.3138    2.0325   -1.3802 H   0  0  0  0  0  0  0  0  0  0  0  0
    1.1776    2.8820   -0.3504 H   0  0  0  0  0  0  0  0  0  0  0  0
    2.7255    2.4143    0.3598 H   0  0  0  0  0  0  0  0  0  0  0  0
  1  2  2  0
  2  3  1  0
  3  4  1  0
  4  5  1  0
  5  6  1  0
  6  7  1  0
  7  8  1  0
  8  9  2  0
  9 10  1  0
 10 11  2  0
 11 12  1  0
 12 13  2  0
 13 14  1  0
 14 15  2  0
 15 16  1  0
 16 17  2  0
 17 18  1  0
 18 19  2  0
  5 20  1  0
 11  7  1  0
 17 12  1  0
 19 10  1  0
  1 21  1  0
  1 22  1  0
  2 23  1  0
  3 24  1  0
  3 25  1  0
  4 26  1  0
  5 27  1  1
  6 28  1  0
  6 29  1  0
  8 30  1  0
  9 31  1  0
 13 32  1  0
 14 33  1  0
 15 34  1  0
 18 35  1  0
 19 36  1  0
 20 37  1  0
 20 38  1  0
 20 39  1  0
M  END
>  <Ligand ID>  (1) 
LIG0002144

>  <Ligand>  (1) 
CHEMBL202324

>  <SMILES>  (1) 
C=CCN[C@H](Cn1ccc2c1c1cccnc1cc2)C

>  <CID>  (1) 
44407337.0

>  <ChEMBL ID>  (1) 
nan

>  <InChiKey>  (1) 
QEQBGMMNBYPMCR-ZDUSSCGKSA-N

>  <InChi>  (1) 
InChI=1S/C17H19N3/c1-3-9-18-13(2)12-20-11-8-14-6-7-16-15(17(14)20)5-4-10-19-16/h3-8,10-11,13,18H,1,9,12H2,2H3/t13-/m0/s1

>  <IUPAC Name>  (1) 
(2S)-N-prop-2-enyl-1-pyrrolo[2,3-f]quinolin-1-ylpropan-2-amine

$$$$
