
     RDKit          3D

 70 72  0  0  0  0  0  0  0  0999 V2000
    8.0700    2.8710    2.4884 C   0  0  0  0  0  0  0  0  0  0  0  0
    9.0729    1.9803    1.7940 C   0  0  0  0  0  0  0  0  0  0  0  0
    8.3902    0.8654    1.0428 C   0  0  0  0  0  0  0  0  0  0  0  0
    8.1299   -0.3530    1.6321 C   0  0  0  0  0  0  0  0  0  0  0  0
    7.4971   -1.3191    0.8607 C   0  0  0  0  0  0  0  0  0  0  0  0
    7.1357   -1.0856   -0.4474 C   0  0  0  0  0  0  0  0  0  0  0  0
    7.4197    0.1552   -0.9921 C   0  0  0  0  0  0  0  0  0  0  0  0
    8.0483    1.1557   -0.2707 C   0  0  0  0  0  0  0  0  0  0  0  0
    6.3452   -2.2638   -1.4583 S   0  0  0  0  0  0  0  0  0  0  0  0
    6.7605   -3.6569   -1.0753 O   0  0  0  0  0  0  0  0  0  0  0  0
    6.6961   -2.0584   -2.9136 O   0  0  0  0  0  0  0  0  0  0  0  0
    4.6595   -2.1636   -1.2977 N   0  0  0  0  0  0  0  0  0  0  0  0
    4.0610   -0.9246   -1.6780 C   0  0  0  0  0  0  0  0  0  0  0  0
    2.5859   -0.9451   -1.4974 C   0  0  0  0  0  0  0  0  0  0  0  0
    1.7050   -1.3395   -2.4826 C   0  0  0  0  0  0  0  0  0  0  0  0
    0.3245   -1.3363   -2.2421 C   0  0  0  0  0  0  0  0  0  0  0  0
   -0.1880   -0.9435   -1.0278 C   0  0  0  0  0  0  0  0  0  0  0  0
    0.7253   -0.5551   -0.0651 C   0  0  0  0  0  0  0  0  0  0  0  0
    2.0880   -0.5485   -0.2748 C   0  0  0  0  0  0  0  0  0  0  0  0
   -1.6399   -0.9264   -0.7456 C   0  0  0  0  0  0  0  0  0  0  0  0
   -1.9681   -0.5923    0.3988 O   0  0  0  0  0  0  0  0  0  0  0  0
   -2.6159   -1.2614   -1.6918 N   0  0  0  0  0  0  0  0  0  0  0  0
   -4.0235   -1.2875   -1.5579 C   0  0  0  0  0  0  0  0  0  0  0  0
   -4.7442   -0.0590   -1.1966 C   0  0  0  0  0  0  0  0  0  0  0  0
   -4.4441    0.4870    0.1243 N   0  0  0  0  0  0  0  0  0  0  0  0
   -5.0802    1.7933    0.2638 C   0  0  0  0  0  0  0  0  0  0  0  0
   -4.6739    2.7055   -0.8835 C   0  0  0  0  0  0  0  0  0  0  0  0
   -4.5214    2.4292    1.5161 C   0  0  0  0  0  0  0  0  0  0  0  0
   -5.0039   -0.4178    1.1214 C   0  0  0  0  0  0  0  0  0  0  0  0
   -6.4475   -0.6094    1.0855 C   0  0  0  0  0  0  0  0  0  0  0  0
   -7.2819    0.2291    1.8277 C   0  0  0  0  0  0  0  0  0  0  0  0
   -8.6620    0.0725    1.8268 C   0  0  0  0  0  0  0  0  0  0  0  0
   -9.2811   -0.9163    1.0959 C   0  0  0  0  0  0  0  0  0  0  0  0
   -8.4703   -1.7494    0.3611 C   0  0  0  0  0  0  0  0  0  0  0  0
   -7.0998   -1.5990    0.3578 C   0  0  0  0  0  0  0  0  0  0  0  0
    8.3413    3.9335    2.2441 H   0  0  0  0  0  0  0  0  0  0  0  0
    8.0897    2.6739    3.5595 H   0  0  0  0  0  0  0  0  0  0  0  0
    7.0678    2.7211    2.0457 H   0  0  0  0  0  0  0  0  0  0  0  0
    9.6930    2.5593    1.0787 H   0  0  0  0  0  0  0  0  0  0  0  0
    9.6904    1.4796    2.5639 H   0  0  0  0  0  0  0  0  0  0  0  0
    8.4077   -0.5369    2.6440 H   0  0  0  0  0  0  0  0  0  0  0  0
    7.2576   -2.3073    1.2564 H   0  0  0  0  0  0  0  0  0  0  0  0
    7.1532    0.3974   -2.0333 H   0  0  0  0  0  0  0  0  0  0  0  0
    8.2558    2.1109   -0.7224 H   0  0  0  0  0  0  0  0  0  0  0  0
    4.3579   -2.4286   -0.3347 H   0  0  0  0  0  0  0  0  0  0  0  0
    4.2960   -0.7702   -2.7723 H   0  0  0  0  0  0  0  0  0  0  0  0
    4.5375   -0.0410   -1.1779 H   0  0  0  0  0  0  0  0  0  0  0  0
    2.0914   -1.6510   -3.4415 H   0  0  0  0  0  0  0  0  0  0  0  0
   -0.2846   -1.6562   -3.0571 H   0  0  0  0  0  0  0  0  0  0  0  0
    0.3535   -0.2440    0.8919 H   0  0  0  0  0  0  0  0  0  0  0  0
    2.7560   -0.2320    0.5214 H   0  0  0  0  0  0  0  0  0  0  0  0
   -2.2252   -1.5370   -2.6584 H   0  0  0  0  0  0  0  0  0  0  0  0
   -4.4720   -1.6637   -2.5117 H   0  0  0  0  0  0  0  0  0  0  0  0
   -4.2626   -2.1065   -0.8275 H   0  0  0  0  0  0  0  0  0  0  0  0
   -4.6047    0.7278   -1.9823 H   0  0  0  0  0  0  0  0  0  0  0  0
   -5.8335   -0.2466   -1.2123 H   0  0  0  0  0  0  0  0  0  0  0  0
   -6.1563    1.7861    0.3165 H   0  0  0  0  0  0  0  0  0  0  0  0
   -5.4358    2.6828   -1.6976 H   0  0  0  0  0  0  0  0  0  0  0  0
   -4.7250    3.7450   -0.4901 H   0  0  0  0  0  0  0  0  0  0  0  0
   -3.6470    2.5295   -1.2019 H   0  0  0  0  0  0  0  0  0  0  0  0
   -5.2739    2.7314    2.2450 H   0  0  0  0  0  0  0  0  0  0  0  0
   -3.7970    1.7587    2.0323 H   0  0  0  0  0  0  0  0  0  0  0  0
   -3.8982    3.3376    1.2540 H   0  0  0  0  0  0  0  0  0  0  0  0
   -4.5394   -1.4223    1.0630 H   0  0  0  0  0  0  0  0  0  0  0  0
   -4.7389   -0.0206    2.1317 H   0  0  0  0  0  0  0  0  0  0  0  0
   -6.9064    1.0306    2.4410 H   0  0  0  0  0  0  0  0  0  0  0  0
   -9.3083    0.7370    2.4131 H   0  0  0  0  0  0  0  0  0  0  0  0
  -10.3435   -1.0744    1.0645 H   0  0  0  0  0  0  0  0  0  0  0  0
   -8.9282   -2.5492   -0.2329 H   0  0  0  0  0  0  0  0  0  0  0  0
   -6.5373   -2.2872   -0.2312 H   0  0  0  0  0  0  0  0  0  0  0  0
  1  2  1  0
  2  3  1  0
  3  4  2  0
  4  5  1  0
  5  6  2  0
  6  7  1  0
  7  8  2  0
  6  9  1  0
  9 10  2  0
  9 11  2  0
  9 12  1  0
 12 13  1  0
 13 14  1  0
 14 15  2  0
 15 16  1  0
 16 17  2  0
 17 18  1  0
 18 19  2  0
 17 20  1  0
 20 21  2  0
 20 22  1  0
 22 23  1  0
 23 24  1  0
 24 25  1  0
 25 26  1  0
 26 27  1  0
 26 28  1  0
 25 29  1  0
 29 30  1  0
 30 31  2  0
 31 32  1  0
 32 33  2  0
 33 34  1  0
 34 35  2  0
  8  3  1  0
 19 14  1  0
 35 30  1  0
  1 36  1  0
  1 37  1  0
  1 38  1  0
  2 39  1  0
  2 40  1  0
  4 41  1  0
  5 42  1  0
  7 43  1  0
  8 44  1  0
 12 45  1  0
 13 46  1  0
 13 47  1  0
 15 48  1  0
 16 49  1  0
 18 50  1  0
 19 51  1  0
 22 52  1  0
 23 53  1  0
 23 54  1  0
 24 55  1  0
 24 56  1  0
 26 57  1  0
 27 58  1  0
 27 59  1  0
 27 60  1  0
 28 61  1  0
 28 62  1  0
 28 63  1  0
 29 64  1  0
 29 65  1  0
 31 66  1  0
 32 67  1  0
 33 68  1  0
 34 69  1  0
 35 70  1  0
M  END
>  <Ligand ID>  (1) 
LIG0004115

>  <Ligand>  (1) 
KUC103904N

>  <SMILES>  (1) 
CCc1ccc(cc1)S(=O)(=O)NCc1ccc(cc1)C(=O)NCCN(C(C)C)Cc1ccccc1

>  <CID>  (1) 
44601476.0

>  <ChEMBL ID>  (1) 
nan

>  <InChiKey>  (1) 
HTGXHXMUOZRDNL-UHFFFAOYSA-N

>  <InChi>  (1) 
InChI=1S/C28H35N3O3S/c1-4-23-12-16-27(17-13-23)35(33,34)30-20-24-10-14-26(15-11-24)28(32)29-18-19-31(22(2)3)21-25-8-6-5-7-9-25/h5-17,22,30H,4,18-21H2,1-3H3,(H,29,32)

>  <IUPAC Name>  (1) 
N-[2-[benzyl(propan-2-yl)amino]ethyl]-4-[[(4-ethylphenyl)sulfonylamino]methyl]benzamide

$$$$
