
     RDKit          3D

 44 44  0  0  0  0  0  0  0  0999 V2000
   -6.0086    2.9842   -0.3582 O   0  0  0  0  0  0  0  0  0  0  0  0
   -5.3590    1.7609   -0.4187 C   0  0  0  0  0  0  0  0  0  0  0  0
   -4.8631    1.4370   -1.5271 O   0  0  0  0  0  0  0  0  0  0  0  0
   -5.3024    0.9486    0.8050 C   0  0  0  0  0  0  0  0  0  0  0  0
   -4.5975   -0.2481    0.7023 O   0  0  0  0  0  0  0  0  0  0  0  0
   -3.2526   -0.2765    0.3986 C   0  0  0  0  0  0  0  0  0  0  0  0
   -2.4613    0.8119    0.1834 C   0  0  0  0  0  0  0  0  0  0  0  0
   -1.1349    0.6865   -0.1148 C   0  0  0  0  0  0  0  0  0  0  0  0
   -0.5067   -0.5566   -0.2175 C   0  0  0  0  0  0  0  0  0  0  0  0
   -1.3061   -1.6583    0.0004 C   0  0  0  0  0  0  0  0  0  0  0  0
   -2.6595   -1.5397    0.3048 C   0  0  0  0  0  0  0  0  0  0  0  0
   -3.4213   -2.6796    0.5154 O   0  0  0  0  0  0  0  0  0  0  0  0
   -4.1102   -3.3604   -0.5018 C   0  0  0  0  0  0  0  0  0  0  0  0
   -5.0463   -2.5193   -1.1081 F   0  0  0  0  0  0  0  0  0  0  0  0
   -3.2520   -3.8973   -1.4418 F   0  0  0  0  0  0  0  0  0  0  0  0
   -4.7433   -4.4492    0.0948 F   0  0  0  0  0  0  0  0  0  0  0  0
    0.9389   -0.6465   -0.5440 C   0  0  0  0  0  0  0  0  0  0  0  0
    1.9992   -0.6380    0.8916 P   0  0  0  0  0  0  0  0  0  0  0  0
    1.2499   -1.1202    2.1369 O   0  0  0  0  0  0  0  0  0  0  0  0
    2.6498    0.9877    1.2746 C   0  0  0  0  0  0  0  0  0  0  0  0
    4.0920    1.2226    1.1179 C   0  0  0  0  0  0  0  0  0  0  0  0
    4.7383    1.1975   -0.1972 C   0  0  2  0  0  0  0  0  0  0  0  0
    4.7071    0.0130   -1.0403 C   0  0  0  0  0  0  0  0  0  0  0  0
    5.7055   -0.7868   -0.9652 O   0  0  0  0  0  0  0  0  0  0  0  0
    3.7187   -0.3535   -1.9304 O   0  0  0  0  0  0  0  0  0  0  0  0
    6.2235    1.4250    0.0141 N   0  0  0  0  0  0  0  0  0  0  0  0
    3.2700   -1.7248    0.6737 O   0  0  0  0  0  0  0  0  0  0  0  0
   -6.1387    3.5709   -1.1714 H   0  0  0  0  0  0  0  0  0  0  0  0
   -4.7687    1.5643    1.5817 H   0  0  0  0  0  0  0  0  0  0  0  0
   -6.3247    0.7322    1.2077 H   0  0  0  0  0  0  0  0  0  0  0  0
   -2.8694    1.8046    0.2531 H   0  0  0  0  0  0  0  0  0  0  0  0
   -0.5077    1.5509   -0.2858 H   0  0  0  0  0  0  0  0  0  0  0  0
   -0.8279   -2.6422   -0.0764 H   0  0  0  0  0  0  0  0  0  0  0  0
    1.0716   -1.5171   -1.2141 H   0  0  0  0  0  0  0  0  0  0  0  0
    1.1506    0.2629   -1.1640 H   0  0  0  0  0  0  0  0  0  0  0  0
    2.1268    1.7874    0.6510 H   0  0  0  0  0  0  0  0  0  0  0  0
    2.3176    1.2952    2.3261 H   0  0  0  0  0  0  0  0  0  0  0  0
    4.2678    2.2864    1.5228 H   0  0  0  0  0  0  0  0  0  0  0  0
    4.6995    0.5855    1.8619 H   0  0  0  0  0  0  0  0  0  0  0  0
    4.4820    2.1182   -0.8109 H   0  0  0  0  0  0  0  0  0  0  0  0
    3.9279   -0.7747   -2.8292 H   0  0  0  0  0  0  0  0  0  0  0  0
    6.6704    0.5376    0.2683 H   0  0  0  0  0  0  0  0  0  0  0  0
    6.3119    2.1618    0.7618 H   0  0  0  0  0  0  0  0  0  0  0  0
    3.1429   -2.3440   -0.0895 H   0  0  0  0  0  0  0  0  0  0  0  0
  1  2  1  0
  2  3  2  0
  2  4  1  0
  4  5  1  0
  5  6  1  0
  6  7  2  0
  7  8  1  0
  8  9  2  0
  9 10  1  0
 10 11  2  0
 11 12  1  0
 12 13  1  0
 13 14  1  0
 13 15  1  0
 13 16  1  0
  9 17  1  0
 17 18  1  0
 18 19  2  0
 18 20  1  0
 20 21  1  0
 21 22  1  0
 22 23  1  0
 23 24  2  0
 23 25  1  0
 22 26  1  0
 18 27  1  0
 11  6  1  0
  1 28  1  0
  4 29  1  0
  4 30  1  0
  7 31  1  0
  8 32  1  0
 10 33  1  0
 17 34  1  0
 17 35  1  0
 20 36  1  0
 20 37  1  0
 21 38  1  0
 21 39  1  0
 22 40  1  6
 25 41  1  0
 26 42  1  0
 26 43  1  0
 27 44  1  0
M  END
>  <Ligand ID>  (1) 
LIG0002485

>  <Ligand>  (1) 
US9212196, Derivative 32

>  <SMILES>  (1) 
OC(=O)COc1ccc(cc1OC(F)(F)F)CP(=O)(CC[C@H](C(=O)O)N)O

>  <CID>  (1) 
122197962.0

>  <ChEMBL ID>  (1) 
nan

>  <InChiKey>  (1) 
CARSOSGGIHYXAY-SECBINFHSA-N

>  <InChi>  (1) 
InChI=1S/C14H17F3NO8P/c15-14(16,17)26-11-5-8(1-2-10(11)25-6-12(19)20)7-27(23,24)4-3-9(18)13(21)22/h1-2,5,9H,3-4,6-7,18H2,(H,19,20)(H,21,22)(H,23,24)/t9-/m1/s1

>  <IUPAC Name>  (1) 
(2R)-2-amino-4-[[4-(carboxymethoxy)-3-(trifluoromethoxy)phenyl]methyl-hydroxyphosphoryl]butanoic acid

$$$$
