
     RDKit          3D

 43 43  0  0  0  0  0  0  0  0999 V2000
    6.9227    1.3252   -1.6130 O   0  0  0  0  0  0  0  0  0  0  0  0
    5.9248    0.7371   -0.8189 C   0  0  0  0  0  0  0  0  0  0  0  0
    5.1442    1.5173   -0.2188 O   0  0  0  0  0  0  0  0  0  0  0  0
    5.8501   -0.7414   -0.7350 C   0  0  0  0  0  0  0  0  0  0  0  0
    4.7858   -1.1407    0.0634 O   0  0  0  0  0  0  0  0  0  0  0  0
    3.4517   -0.9119   -0.1080 C   0  0  0  0  0  0  0  0  0  0  0  0
    2.8823   -0.2194   -1.1520 C   0  0  0  0  0  0  0  0  0  0  0  0
    1.5156   -0.0203   -1.2715 C   0  0  0  0  0  0  0  0  0  0  0  0
    0.6692   -0.5299   -0.3137 C   0  0  0  0  0  0  0  0  0  0  0  0
    1.2213   -1.2316    0.7473 C   0  0  0  0  0  0  0  0  0  0  0  0
    2.5836   -1.4231    0.8554 C   0  0  0  0  0  0  0  0  0  0  0  0
    3.1377   -2.1869    2.0174 C   0  0  0  0  0  0  0  0  0  0  0  0
    3.9932   -1.4231    2.7492 F   0  0  0  0  0  0  0  0  0  0  0  0
    3.8626   -3.2407    1.4529 F   0  0  0  0  0  0  0  0  0  0  0  0
    2.1229   -2.7497    2.7274 F   0  0  0  0  0  0  0  0  0  0  0  0
   -0.8079   -0.3576   -0.3729 C   0  0  0  0  0  0  0  0  0  0  0  0
   -1.3508    1.1364    0.4684 P   0  0  0  0  0  0  0  0  0  0  0  0
   -0.5411    1.4509    1.7073 O   0  0  0  0  0  0  0  0  0  0  0  0
   -3.1182    0.9210    0.9185 C   0  0  0  0  0  0  0  0  0  0  0  0
   -3.7614    0.1978   -0.2335 C   0  0  0  0  0  0  0  0  0  0  0  0
   -5.2191   -0.0781   -0.0454 C   0  0  1  0  0  0  0  0  0  0  0  0
   -6.0346    1.1447    0.1323 C   0  0  0  0  0  0  0  0  0  0  0  0
   -6.9182    1.3754   -0.7352 O   0  0  0  0  0  0  0  0  0  0  0  0
   -5.9007    2.0391    1.1650 O   0  0  0  0  0  0  0  0  0  0  0  0
   -5.6848   -0.8088   -1.2352 N   0  0  0  0  0  0  0  0  0  0  0  0
   -1.2896    2.4807   -0.5698 O   0  0  0  0  0  0  0  0  0  0  0  0
    7.1751    2.2886   -1.4235 H   0  0  0  0  0  0  0  0  0  0  0  0
    5.8162   -1.2145   -1.7434 H   0  0  0  0  0  0  0  0  0  0  0  0
    6.7899   -1.0904   -0.2214 H   0  0  0  0  0  0  0  0  0  0  0  0
    3.4984    0.1876   -1.9191 H   0  0  0  0  0  0  0  0  0  0  0  0
    1.0981    0.5249   -2.0976 H   0  0  0  0  0  0  0  0  0  0  0  0
    0.5434   -1.6325    1.5025 H   0  0  0  0  0  0  0  0  0  0  0  0
   -1.1115   -0.2953   -1.4290 H   0  0  0  0  0  0  0  0  0  0  0  0
   -1.2684   -1.2653    0.0622 H   0  0  0  0  0  0  0  0  0  0  0  0
   -3.2300    0.3638    1.8519 H   0  0  0  0  0  0  0  0  0  0  0  0
   -3.5982    1.9185    1.0034 H   0  0  0  0  0  0  0  0  0  0  0  0
   -3.5853    0.8318   -1.1448 H   0  0  0  0  0  0  0  0  0  0  0  0
   -3.1922   -0.7330   -0.4261 H   0  0  0  0  0  0  0  0  0  0  0  0
   -5.3540   -0.7529    0.8138 H   0  0  0  0  0  0  0  0  0  0  0  0
   -5.9893    3.0352    1.0213 H   0  0  0  0  0  0  0  0  0  0  0  0
   -5.2014   -0.4189   -2.0861 H   0  0  0  0  0  0  0  0  0  0  0  0
   -5.4562   -1.8114   -1.0784 H   0  0  0  0  0  0  0  0  0  0  0  0
   -0.3759    2.8014   -0.7129 H   0  0  0  0  0  0  0  0  0  0  0  0
  1  2  1  0
  2  3  2  0
  2  4  1  0
  4  5  1  0
  5  6  1  0
  6  7  2  0
  7  8  1  0
  8  9  2  0
  9 10  1  0
 10 11  2  0
 11 12  1  0
 12 13  1  0
 12 14  1  0
 12 15  1  0
  9 16  1  0
 16 17  1  0
 17 18  2  0
 17 19  1  0
 19 20  1  0
 20 21  1  0
 21 22  1  0
 22 23  2  0
 22 24  1  0
 21 25  1  0
 17 26  1  0
 11  6  1  0
  1 27  1  0
  4 28  1  0
  4 29  1  0
  7 30  1  0
  8 31  1  0
 10 32  1  0
 16 33  1  0
 16 34  1  0
 19 35  1  0
 19 36  1  0
 20 37  1  0
 20 38  1  0
 21 39  1  1
 24 40  1  0
 25 41  1  0
 25 42  1  0
 26 43  1  0
M  END
>  <Ligand ID>  (1) 
LIG0002482

>  <Ligand>  (1) 
CHEMBL3980977

>  <SMILES>  (1) 
OC(=O)COc1ccc(cc1C(F)(F)F)CP(=O)(CC[C@@H](C(=O)O)N)O

>  <CID>  (1) 
71041872.0

>  <ChEMBL ID>  (1) 
nan

>  <InChiKey>  (1) 
DLGOTKZKHHEVES-JTQLQIEISA-N

>  <InChi>  (1) 
InChI=1S/C14H17F3NO7P/c15-14(16,17)9-5-8(1-2-11(9)25-6-12(19)20)7-26(23,24)4-3-10(18)13(21)22/h1-2,5,10H,3-4,6-7,18H2,(H,19,20)(H,21,22)(H,23,24)/t10-/m0/s1

>  <IUPAC Name>  (1) 
(2S)-2-amino-4-[[4-(carboxymethoxy)-3-(trifluoromethyl)phenyl]methyl-hydroxyphosphoryl]butanoic acid

$$$$
