
     RDKit          3D

 72 73  0  0  0  0  0  0  0  0999 V2000
  -10.2698    0.4688   -0.7934 O   0  0  0  0  0  0  0  0  0  0  0  0
   -9.3416   -0.5566   -0.9650 C   0  0  0  0  0  0  0  0  0  0  0  0
   -8.1264   -0.2156   -0.2009 C   0  0  0  0  0  0  0  0  0  0  0  0
   -6.9578    0.2538   -0.8117 C   0  0  0  0  0  0  0  0  0  0  0  0
   -5.8297    0.5689   -0.0895 C   0  0  0  0  0  0  0  0  0  0  0  0
   -5.8254    0.4244    1.2982 C   0  0  0  0  0  0  0  0  0  0  0  0
   -6.9675   -0.0375    1.9269 C   0  0  0  0  0  0  0  0  0  0  0  0
   -8.0890   -0.3483    1.1848 C   0  0  0  0  0  0  0  0  0  0  0  0
   -9.2591   -0.8158    1.7760 O   0  0  0  0  0  0  0  0  0  0  0  0
   -4.5790    1.0729   -0.7295 C   0  0  1  0  0  0  0  0  0  0  0  0
   -3.8981   -0.0609   -1.5364 C   0  0  0  0  0  0  0  0  0  0  0  0
   -3.4956   -1.1193   -0.7209 N   0  0  0  0  0  0  0  0  0  0  0  0
   -2.4189   -1.0348    0.1761 C   0  0  0  0  0  0  0  0  0  0  0  0
   -1.0214   -1.0842   -0.2997 C   0  0  0  0  0  0  0  0  0  0  0  0
   -0.5440   -0.0633   -1.2339 C   0  0  0  0  0  0  0  0  0  0  0  0
   -0.5822    1.3578   -0.8824 C   0  0  0  0  0  0  0  0  0  0  0  0
    0.2147    1.9181    0.2246 C   0  0  0  0  0  0  0  0  0  0  0  0
    1.6932    1.8370    0.1181 C   0  0  0  0  0  0  0  0  0  0  0  0
    2.1992    0.5784    0.1318 O   0  0  0  0  0  0  0  0  0  0  0  0
    2.0736   -0.0649    1.3561 C   0  0  0  0  0  0  0  0  0  0  0  0
    2.6065   -1.4613    1.2375 C   0  0  0  0  0  0  0  0  0  0  0  0
    4.0639   -1.4884    0.9430 C   0  0  0  0  0  0  0  0  0  0  0  0
    4.4356   -0.8116   -0.3162 C   0  0  0  0  0  0  0  0  0  0  0  0
    5.9293   -0.9659   -0.5586 C   0  0  0  0  0  0  0  0  0  0  0  0
    6.4326   -2.0108   -1.2839 C   0  0  0  0  0  0  0  0  0  0  0  0
    7.8087   -2.0887   -1.4561 C   0  0  0  0  0  0  0  0  0  0  0  0
    8.6895   -1.1816   -0.9425 C   0  0  0  0  0  0  0  0  0  0  0  0
    8.1736   -0.1185   -0.2041 C   0  0  0  0  0  0  0  0  0  0  0  0
    6.8093   -0.0388   -0.0321 C   0  0  0  0  0  0  0  0  0  0  0  0
    9.2003    1.1059    0.5070 S   0  0  0  0  0  0  0  0  0  0  0  0
    8.6584    1.5775    1.8256 O   0  0  0  0  0  0  0  0  0  0  0  0
   10.5463    0.4750    0.7484 O   0  0  0  0  0  0  0  0  0  0  0  0
    9.4210    2.4191   -0.6004 N   0  0  0  0  0  0  0  0  0  0  0  0
   -4.9009    2.0490   -1.6589 O   0  0  0  0  0  0  0  0  0  0  0  0
  -10.3668    0.6210    0.1772 H   0  0  0  0  0  0  0  0  0  0  0  0
   -9.7603   -1.5100   -0.5684 H   0  0  0  0  0  0  0  0  0  0  0  0
   -9.1053   -0.6074   -2.0312 H   0  0  0  0  0  0  0  0  0  0  0  0
   -6.9511    0.3701   -1.8937 H   0  0  0  0  0  0  0  0  0  0  0  0
   -4.9873    0.6502    1.9125 H   0  0  0  0  0  0  0  0  0  0  0  0
   -6.9926   -0.1587    2.9964 H   0  0  0  0  0  0  0  0  0  0  0  0
   -9.8184   -0.2165    2.3655 H   0  0  0  0  0  0  0  0  0  0  0  0
   -3.8527    1.4108    0.0095 H   0  0  0  0  0  0  0  0  0  0  0  0
   -3.1454    0.4805   -2.1289 H   0  0  0  0  0  0  0  0  0  0  0  0
   -4.6932   -0.4425   -2.2474 H   0  0  0  0  0  0  0  0  0  0  0  0
   -3.7041   -2.0565   -1.1178 H   0  0  0  0  0  0  0  0  0  0  0  0
   -2.5472   -1.8654    0.9620 H   0  0  0  0  0  0  0  0  0  0  0  0
   -2.6124   -0.1114    0.8139 H   0  0  0  0  0  0  0  0  0  0  0  0
   -0.3641   -1.3000    0.5782 H   0  0  0  0  0  0  0  0  0  0  0  0
   -0.9453   -2.0846   -0.8666 H   0  0  0  0  0  0  0  0  0  0  0  0
    0.5576   -0.3467   -1.5489 H   0  0  0  0  0  0  0  0  0  0  0  0
   -1.0271   -0.2239   -2.2440 H   0  0  0  0  0  0  0  0  0  0  0  0
   -0.3374    1.9838   -1.7977 H   0  0  0  0  0  0  0  0  0  0  0  0
   -1.6593    1.6414   -0.6644 H   0  0  0  0  0  0  0  0  0  0  0  0
   -0.0371    3.0269    0.2589 H   0  0  0  0  0  0  0  0  0  0  0  0
   -0.0936    1.5681    1.2355 H   0  0  0  0  0  0  0  0  0  0  0  0
    2.0771    2.4189   -0.7778 H   0  0  0  0  0  0  0  0  0  0  0  0
    2.1664    2.3834    0.9919 H   0  0  0  0  0  0  0  0  0  0  0  0
    1.0550   -0.0011    1.7782 H   0  0  0  0  0  0  0  0  0  0  0  0
    2.7389    0.5327    2.0699 H   0  0  0  0  0  0  0  0  0  0  0  0
    2.0350   -2.0159    0.4199 H   0  0  0  0  0  0  0  0  0  0  0  0
    2.3502   -2.0730    2.1464 H   0  0  0  0  0  0  0  0  0  0  0  0
    4.3749   -2.5672    0.9680 H   0  0  0  0  0  0  0  0  0  0  0  0
    4.6592   -1.0400    1.7858 H   0  0  0  0  0  0  0  0  0  0  0  0
    4.2868    0.3052   -0.1760 H   0  0  0  0  0  0  0  0  0  0  0  0
    3.8794   -1.0905   -1.2201 H   0  0  0  0  0  0  0  0  0  0  0  0
    5.7756   -2.7595   -1.7146 H   0  0  0  0  0  0  0  0  0  0  0  0
    8.2440   -2.9151   -2.0334 H   0  0  0  0  0  0  0  0  0  0  0  0
    9.7711   -1.2385   -1.0752 H   0  0  0  0  0  0  0  0  0  0  0  0
    6.3603    0.7701    0.5343 H   0  0  0  0  0  0  0  0  0  0  0  0
   10.2235    2.1644   -1.2182 H   0  0  0  0  0  0  0  0  0  0  0  0
    9.6516    3.2773   -0.0658 H   0  0  0  0  0  0  0  0  0  0  0  0
   -4.0552    2.4796   -1.9497 H   0  0  0  0  0  0  0  0  0  0  0  0
  1  2  1  0
  2  3  1  0
  3  4  2  0
  4  5  1  0
  5  6  2  0
  6  7  1  0
  7  8  2  0
  8  9  1  0
  5 10  1  0
 10 11  1  0
 11 12  1  0
 12 13  1  0
 13 14  1  0
 14 15  1  0
 15 16  1  0
 16 17  1  0
 17 18  1  0
 18 19  1  0
 19 20  1  0
 20 21  1  0
 21 22  1  0
 22 23  1  0
 23 24  1  0
 24 25  2  0
 25 26  1  0
 26 27  2  0
 27 28  1  0
 28 29  2  0
 28 30  1  0
 30 31  2  0
 30 32  2  0
 30 33  1  0
 10 34  1  0
  8  3  1  0
 29 24  1  0
  1 35  1  0
  2 36  1  0
  2 37  1  0
  4 38  1  0
  6 39  1  0
  7 40  1  0
  9 41  1  0
 10 42  1  1
 11 43  1  0
 11 44  1  0
 12 45  1  0
 13 46  1  0
 13 47  1  0
 14 48  1  0
 14 49  1  0
 15 50  1  0
 15 51  1  0
 16 52  1  0
 16 53  1  0
 17 54  1  0
 17 55  1  0
 18 56  1  0
 18 57  1  0
 20 58  1  0
 20 59  1  0
 21 60  1  0
 21 61  1  0
 22 62  1  0
 22 63  1  0
 23 64  1  0
 23 65  1  0
 25 66  1  0
 26 67  1  0
 27 68  1  0
 29 69  1  0
 33 70  1  0
 33 71  1  0
 34 72  1  0
M  END
>  <Ligand ID>  (1) 
LIG0002528

>  <Ligand>  (1) 
CHEMBL475236

>  <SMILES>  (1) 
OCc1cc(ccc1O)[C@@H](CNCCCCCCOCCCCc1cccc(c1)S(=O)(=O)N)O

>  <CID>  (1) 
11605652.0

>  <ChEMBL ID>  (1) 
nan

>  <InChiKey>  (1) 
GBTODAKMABNGIJ-RUZDIDTESA-N

>  <InChi>  (1) 
InChI=1S/C25H38N2O6S/c26-34(31,32)23-10-7-9-20(16-23)8-3-6-15-33-14-5-2-1-4-13-27-18-25(30)21-11-12-24(29)22(17-21)19-28/h7,9-12,16-17,25,27-30H,1-6,8,13-15,18-19H2,(H2,26,31,32)/t25-/m1/s1

>  <IUPAC Name>  (1) 
3-[4-[6-[[(2S)-2-hydroxy-2-[4-hydroxy-3-(hydroxymethyl)phenyl]ethyl]amino]hexoxy]butyl]benzenesulfonamide

$$$$
