
     RDKit          3D

 15 15  0  0  0  0  0  0  0  0999 V2000
    1.4808    2.4521    0.5439 O   0  0  0  0  0  0  0  0  0  0  0  0
    1.1246    1.2598    0.3664 C   0  0  0  0  0  0  0  0  0  0  0  0
    2.0768    0.2733    0.1808 C   0  0  0  0  0  0  0  0  0  0  0  0
    1.7305   -1.0498   -0.0177 C   0  0  0  0  0  0  0  0  0  0  0  0
    0.4481   -1.3570   -0.0265 O   0  0  0  0  0  0  0  0  0  0  0  0
   -0.4941   -0.4712    0.1428 C   0  0  0  0  0  0  0  0  0  0  0  0
   -0.1957    0.8610    0.3442 C   0  0  0  0  0  0  0  0  0  0  0  0
   -1.1665    1.8288    0.5274 O   0  0  0  0  0  0  0  0  0  0  0  0
   -1.8920   -0.9205    0.1151 C   0  0  0  0  0  0  0  0  0  0  0  0
    3.1234    0.5345    0.1896 H   0  0  0  0  0  0  0  0  0  0  0  0
    2.4995   -1.8058   -0.1612 H   0  0  0  0  0  0  0  0  0  0  0  0
   -2.0467    1.6966    0.9801 H   0  0  0  0  0  0  0  0  0  0  0  0
   -1.9592   -1.8599    0.7334 H   0  0  0  0  0  0  0  0  0  0  0  0
   -2.0956   -1.2653   -0.9309 H   0  0  0  0  0  0  0  0  0  0  0  0
   -2.6337   -0.1766    0.3931 H   0  0  0  0  0  0  0  0  0  0  0  0
  1  2  2  0
  2  3  1  0
  3  4  2  0
  4  5  1  0
  5  6  1  0
  6  7  2  0
  7  8  1  0
  6  9  1  0
  7  2  1  0
  3 10  1  0
  4 11  1  0
  8 12  1  0
  9 13  1  0
  9 14  1  0
  9 15  1  0
M  END
>  <Ligand ID>  (1) 
LIG0000481

>  <Ligand>  (1) 
maltol

>  <SMILES>  (1) 
O=c1ccoc(c1O)C

>  <CID>  (1) 
8369.0

>  <ChEMBL ID>  (1) 
nan

>  <InChiKey>  (1) 
XPCTZQVDEJYUGT-UHFFFAOYSA-N

>  <InChi>  (1) 
InChI=1S/C6H6O3/c1-4-6(8)5(7)2-3-9-4/h2-3,8H,1H3

>  <IUPAC Name>  (1) 
3-hydroxy-2-methylpyran-4-one

$$$$
