
     RDKit          3D

 50 54  0  0  0  0  0  0  0  0999 V2000
   -8.4214    0.1906   -1.8456 C   0  0  0  0  0  0  0  0  0  0  0  0
   -8.0626    0.6404   -0.4481 C   0  0  0  0  0  0  0  0  0  0  0  0
   -6.6108    0.7014   -0.2508 N   0  0  0  0  0  0  0  0  0  0  0  0
   -5.8789    1.7770   -0.4883 N   0  0  0  0  0  0  0  0  0  0  0  0
   -4.6072    1.5331   -0.2197 N   0  0  0  0  0  0  0  0  0  0  0  0
   -4.5399    0.2400    0.2074 C   0  0  0  0  0  0  0  0  0  0  0  0
   -5.8028   -0.2476    0.1759 N   0  0  0  0  0  0  0  0  0  0  0  0
   -3.2859   -0.4034    0.6022 C   0  0  1  0  0  0  0  0  0  0  0  0
   -2.2343   -0.1548   -0.2844 O   0  0  0  0  0  0  0  0  0  0  0  0
   -1.1195   -0.6414    0.3892 C   0  0  2  0  0  0  0  0  0  0  0  0
   -1.3373   -0.4469    1.8623 C   0  0  1  0  0  0  0  0  0  0  0  0
   -2.7073    0.2066    1.8839 C   0  0  2  0  0  0  0  0  0  0  0  0
   -3.4507   -0.1285    3.0041 O   0  0  0  0  0  0  0  0  0  0  0  0
   -1.4368   -1.7115    2.4546 O   0  0  0  0  0  0  0  0  0  0  0  0
    0.1051    0.0530    0.0461 N   0  0  0  0  0  0  0  0  0  0  0  0
    0.2441    1.2907   -0.4272 C   0  0  0  0  0  0  0  0  0  0  0  0
    1.5585    1.5686   -0.6203 N   0  0  0  0  0  0  0  0  0  0  0  0
    2.2474    0.4826   -0.2600 C   0  0  0  0  0  0  0  0  0  0  0  0
    1.3401   -0.4606    0.1549 C   0  0  0  0  0  0  0  0  0  0  0  0
    1.7992   -1.6423    0.5666 N   0  0  0  0  0  0  0  0  0  0  0  0
    3.1299   -1.8733    0.5631 C   0  0  0  0  0  0  0  0  0  0  0  0
    3.6303   -3.4717    1.1282 Cl  0  0  0  0  0  0  0  0  0  0  0  0
    4.0360   -0.9724    0.1642 N   0  0  0  0  0  0  0  0  0  0  0  0
    3.6131    0.2326   -0.2588 C   0  0  0  0  0  0  0  0  0  0  0  0
    4.5612    1.2184   -0.6923 N   0  0  0  0  0  0  0  0  0  0  0  0
    5.9824    0.9615   -0.6923 C   0  0  0  0  0  0  0  0  0  0  0  0
    6.3818   -0.1991   -1.5647 C   0  0  0  0  0  0  0  0  0  0  0  0
    7.6652   -0.6542   -0.9175 C   0  0  0  0  0  0  0  0  0  0  0  0
    7.6474   -0.0130    0.4297 C   0  0  0  0  0  0  0  0  0  0  0  0
    6.4648    0.6686    0.5764 O   0  0  0  0  0  0  0  0  0  0  0  0
   -9.4395    0.5883   -2.0675 H   0  0  0  0  0  0  0  0  0  0  0  0
   -8.4442   -0.9232   -1.8944 H   0  0  0  0  0  0  0  0  0  0  0  0
   -7.7554    0.5890   -2.6196 H   0  0  0  0  0  0  0  0  0  0  0  0
   -8.4878   -0.1058    0.2570 H   0  0  0  0  0  0  0  0  0  0  0  0
   -8.5514    1.6064   -0.2306 H   0  0  0  0  0  0  0  0  0  0  0  0
   -3.4367   -1.4927    0.7954 H   0  0  0  0  0  0  0  0  0  0  0  0
   -0.9454   -1.7234    0.1272 H   0  0  0  0  0  0  0  0  0  0  0  0
   -0.5677    0.1930    2.3383 H   0  0  0  0  0  0  0  0  0  0  0  0
   -2.6419    1.2842    1.6821 H   0  0  0  0  0  0  0  0  0  0  0  0
   -3.9963    0.6551    3.2595 H   0  0  0  0  0  0  0  0  0  0  0  0
   -1.4446   -2.4501    1.7768 H   0  0  0  0  0  0  0  0  0  0  0  0
   -0.6129    1.9490   -0.6158 H   0  0  0  0  0  0  0  0  0  0  0  0
    4.1676    2.1455   -1.0131 H   0  0  0  0  0  0  0  0  0  0  0  0
    6.4954    1.8560   -1.0669 H   0  0  0  0  0  0  0  0  0  0  0  0
    5.6736   -1.0393   -1.5615 H   0  0  0  0  0  0  0  0  0  0  0  0
    6.5564    0.1748   -2.6079 H   0  0  0  0  0  0  0  0  0  0  0  0
    7.6513   -1.7579   -0.7519 H   0  0  0  0  0  0  0  0  0  0  0  0
    8.5219   -0.3501   -1.5620 H   0  0  0  0  0  0  0  0  0  0  0  0
    7.8747   -0.7007    1.2631 H   0  0  0  0  0  0  0  0  0  0  0  0
    8.4716    0.7573    0.4337 H   0  0  0  0  0  0  0  0  0  0  0  0
  1  2  1  0
  2  3  1  0
  3  4  1  0
  4  5  2  0
  5  6  1  0
  6  7  2  0
  6  8  1  0
  8  9  1  0
  9 10  1  0
 10 11  1  0
 11 12  1  0
 12 13  1  0
 11 14  1  0
 10 15  1  0
 15 16  1  0
 16 17  2  0
 17 18  1  0
 18 19  2  0
 19 20  1  0
 20 21  2  0
 21 22  1  0
 21 23  1  0
 23 24  2  0
 24 25  1  0
 25 26  1  0
 26 27  1  0
 27 28  1  0
 28 29  1  0
 29 30  1  0
  7  3  1  0
 12  8  1  0
 19 15  1  0
 30 26  1  0
 24 18  1  0
  1 31  1  0
  1 32  1  0
  1 33  1  0
  2 34  1  0
  2 35  1  0
  8 36  1  1
 10 37  1  1
 11 38  1  1
 12 39  1  6
 13 40  1  0
 14 41  1  0
 16 42  1  0
 25 43  1  0
 26 44  1  0
 27 45  1  0
 27 46  1  0
 28 47  1  0
 28 48  1  0
 29 49  1  0
 29 50  1  0
M  END
>  <Ligand ID>  (1) 
LIG0001923

>  <Ligand>  (1) 
CHEMBL3414945

>  <SMILES>  (1) 
CCn1nnc(n1)[C@H]1O[C@H]([C@@H]([C@@H]1O)O)n1cnc2c1nc(Cl)nc2NC1CCCO1

>  <CID>  (1) 
118732979.0

>  <ChEMBL ID>  (1) 
nan

>  <InChiKey>  (1) 
HAPGDXOGTRCUFO-GEVFMYGYSA-N

>  <InChi>  (1) 
InChI=1S/C16H20ClN9O4/c1-2-26-23-13(22-24-26)11-9(27)10(28)15(30-11)25-6-18-8-12(19-7-4-3-5-29-7)20-16(17)21-14(8)25/h6-7,9-11,15,27-28H,2-5H2,1H3,(H,19,20,21)/t7?,9-,10+,11-,15+/m0/s1

>  <IUPAC Name>  (1) 
(2R,3R,4S,5R)-2-[2-chloro-6-(oxolan-2-ylamino)purin-9-yl]-5-(2-ethyltetrazol-5-yl)oxolane-3,4-diol

$$$$
