
     RDKit          3D

 70 77  0  0  0  0  0  0  0  0999 V2000
   -5.6878    0.4432   -0.1436 C   0  0  0  0  0  0  0  0  0  0  0  0
   -4.2982    0.3845    0.2193 N   0  0  0  0  0  0  0  0  0  0  0  0
   -4.0175   -0.4373    1.3729 C   0  0  0  0  0  0  0  0  0  0  0  0
   -2.5855   -0.3162    1.7411 C   0  0  0  0  0  0  0  0  0  0  0  0
   -1.6209   -0.3497    0.6279 C   0  0  2  0  0  0  0  0  0  0  0  0
   -2.0721    0.4783   -0.5436 C   0  0  2  0  0  0  0  0  0  0  0  0
   -3.4480   -0.0084   -0.9092 C   0  0  0  0  0  0  0  0  0  0  0  0
   -3.5637   -1.4775   -1.1784 C   0  0  0  0  0  0  0  0  0  0  0  0
   -2.4028   -2.2779   -0.7541 C   0  0  0  0  0  0  0  0  0  0  0  0
   -1.4761   -1.7222    0.0636 C   0  0  0  0  0  0  0  0  0  0  0  0
   -0.3448   -2.3310    0.4956 C   0  0  0  0  0  0  0  0  0  0  0  0
    0.3140   -1.4115    1.2936 O   0  0  0  0  0  0  0  0  0  0  0  0
   -0.2147   -0.1136    1.0942 C   0  0  1  0  0  0  0  0  0  0  0  0
    0.5508    0.7708    0.2205 C   0  0  0  0  0  0  0  0  0  0  0  0
    0.1665    1.0037   -1.1120 C   0  0  0  0  0  0  0  0  0  0  0  0
   -1.0653    0.3746   -1.6793 C   0  0  0  0  0  0  0  0  0  0  0  0
    1.0381    1.8774   -1.7037 C   0  0  0  0  0  0  0  0  0  0  0  0
    1.1402    2.4763   -3.0596 C   0  0  0  0  0  0  0  0  0  0  0  0
    1.4448    3.9299   -2.9012 C   0  0  0  0  0  0  0  0  0  0  0  0
    2.5606    4.2581   -1.9718 C   0  0  0  0  0  0  0  0  0  0  0  0
    3.0450    3.1365   -1.1145 C   0  0  0  0  0  0  0  0  0  0  0  0
    1.9635    2.1894   -0.7369 C   0  0  0  0  0  0  0  0  0  0  0  0
    1.6627    1.5170    0.4261 N   0  0  0  0  0  0  0  0  0  0  0  0
    2.4420    1.7315    1.6087 C   0  0  0  0  0  0  0  0  0  0  0  0
    3.6827    0.9598    1.7845 C   0  0  0  0  0  0  0  0  0  0  0  0
    3.5982   -0.5023    1.8413 C   0  0  0  0  0  0  0  0  0  0  0  0
    3.7219   -1.2543    0.7006 C   0  0  0  0  0  0  0  0  0  0  0  0
    3.6650   -2.6221    0.8361 C   0  0  0  0  0  0  0  0  0  0  0  0
    3.4891   -3.1903    2.0824 C   0  0  0  0  0  0  0  0  0  0  0  0
    3.3629   -2.4443    3.2340 C   0  0  0  0  0  0  0  0  0  0  0  0
    3.4190   -1.0791    3.1049 C   0  0  0  0  0  0  0  0  0  0  0  0
   -0.1295   -3.6306    0.0641 C   0  0  0  0  0  0  0  0  0  0  0  0
   -1.0572   -4.2301   -0.7703 C   0  0  0  0  0  0  0  0  0  0  0  0
   -2.2092   -3.5625   -1.1935 C   0  0  0  0  0  0  0  0  0  0  0  0
    0.9862   -4.3502    0.4428 O   0  0  0  0  0  0  0  0  0  0  0  0
   -2.1425    1.8080   -0.1694 O   0  0  0  0  0  0  0  0  0  0  0  0
   -5.9874    1.5199   -0.1341 H   0  0  0  0  0  0  0  0  0  0  0  0
   -5.8313    0.0845   -1.1699 H   0  0  0  0  0  0  0  0  0  0  0  0
   -6.3217   -0.0559    0.6104 H   0  0  0  0  0  0  0  0  0  0  0  0
   -4.3861   -1.4667    1.3131 H   0  0  0  0  0  0  0  0  0  0  0  0
   -4.6039    0.0396    2.2148 H   0  0  0  0  0  0  0  0  0  0  0  0
   -2.4302    0.6244    2.3142 H   0  0  0  0  0  0  0  0  0  0  0  0
   -2.3552   -1.2103    2.3981 H   0  0  0  0  0  0  0  0  0  0  0  0
   -3.8654    0.5414   -1.7763 H   0  0  0  0  0  0  0  0  0  0  0  0
   -3.6546   -1.6208   -2.2957 H   0  0  0  0  0  0  0  0  0  0  0  0
   -4.4605   -1.8701   -0.6671 H   0  0  0  0  0  0  0  0  0  0  0  0
   -0.3119    0.3249    2.1375 H   0  0  0  0  0  0  0  0  0  0  0  0
   -1.4332    0.9525   -2.5231 H   0  0  0  0  0  0  0  0  0  0  0  0
   -0.8634   -0.6897   -1.9066 H   0  0  0  0  0  0  0  0  0  0  0  0
    1.9694    2.0190   -3.6562 H   0  0  0  0  0  0  0  0  0  0  0  0
    0.1567    2.3954   -3.5676 H   0  0  0  0  0  0  0  0  0  0  0  0
    0.5378    4.5242   -2.6112 H   0  0  0  0  0  0  0  0  0  0  0  0
    1.7026    4.3273   -3.9216 H   0  0  0  0  0  0  0  0  0  0  0  0
    2.2772    5.1188   -1.3032 H   0  0  0  0  0  0  0  0  0  0  0  0
    3.4534    4.6543   -2.5371 H   0  0  0  0  0  0  0  0  0  0  0  0
    3.5264    3.5873   -0.2146 H   0  0  0  0  0  0  0  0  0  0  0  0
    3.7964    2.5551   -1.7239 H   0  0  0  0  0  0  0  0  0  0  0  0
    1.8214    1.5715    2.5415 H   0  0  0  0  0  0  0  0  0  0  0  0
    2.6947    2.8264    1.6555 H   0  0  0  0  0  0  0  0  0  0  0  0
    4.1972    1.2960    2.7416 H   0  0  0  0  0  0  0  0  0  0  0  0
    4.4614    1.1851    1.0009 H   0  0  0  0  0  0  0  0  0  0  0  0
    3.8566   -0.7410   -0.2397 H   0  0  0  0  0  0  0  0  0  0  0  0
    3.7614   -3.2313   -0.0539 H   0  0  0  0  0  0  0  0  0  0  0  0
    3.4448   -4.2724    2.1870 H   0  0  0  0  0  0  0  0  0  0  0  0
    3.2264   -2.9497    4.1823 H   0  0  0  0  0  0  0  0  0  0  0  0
    3.3256   -0.4484    3.9741 H   0  0  0  0  0  0  0  0  0  0  0  0
   -0.9384   -5.2494   -1.1394 H   0  0  0  0  0  0  0  0  0  0  0  0
   -2.9299   -4.0604   -1.8569 H   0  0  0  0  0  0  0  0  0  0  0  0
    1.0530   -4.6369    1.4119 H   0  0  0  0  0  0  0  0  0  0  0  0
   -2.8067    2.3278   -0.6979 H   0  0  0  0  0  0  0  0  0  0  0  0
  1  2  1  0
  2  3  1  0
  3  4  1  0
  5  4  1  1
  5  6  1  0
  6  7  1  0
  7  8  1  0
  8  9  1  0
  9 10  2  0
 10 11  1  0
 11 12  1  0
 12 13  1  0
 13 14  1  0
 14 15  2  0
 15 16  1  0
 15 17  1  0
 17 18  1  0
 18 19  1  0
 19 20  1  0
 20 21  1  0
 21 22  1  0
 22 23  1  0
 23 24  1  0
 24 25  1  0
 25 26  1  0
 26 27  2  0
 27 28  1  0
 28 29  2  0
 29 30  1  0
 30 31  2  0
 11 32  2  0
 32 33  1  0
 33 34  2  0
 32 35  1  0
  6 36  1  1
  7  2  1  0
 34  9  1  0
 13  5  1  0
 23 14  1  0
 31 26  1  0
 10  5  1  0
 22 17  2  0
 16  6  1  0
  1 37  1  0
  1 38  1  0
  1 39  1  0
  3 40  1  0
  3 41  1  0
  4 42  1  0
  4 43  1  0
  7 44  1  0
  8 45  1  0
  8 46  1  0
 13 47  1  1
 16 48  1  0
 16 49  1  0
 18 50  1  0
 18 51  1  0
 19 52  1  0
 19 53  1  0
 20 54  1  0
 20 55  1  0
 21 56  1  0
 21 57  1  0
 24 58  1  0
 24 59  1  0
 25 60  1  0
 25 61  1  0
 27 62  1  0
 28 63  1  0
 29 64  1  0
 30 65  1  0
 31 66  1  0
 33 67  1  0
 34 68  1  0
 35 69  1  0
 36 70  1  0
M  END
>  <Ligand ID>  (1) 
LIG0004614

>  <Ligand>  (1) 
CHEMBL222814

>  <SMILES>  (1) 
CN1CC[C@@]23[C@@]4(C1Cc1c3c(O[C@H]2c2c(C4)c3CCCCc3n2CCc2ccccc2)c(cc1)O)O

>  <CID>  (1) 
44421422.0

>  <ChEMBL ID>  (1) 
nan

>  <InChiKey>  (1) 
LQQGHYQRJMGRFW-XJHIRHBFSA-N

>  <InChi>  (1) 
InChI=1S/C31H34N2O3/c1-32-16-14-30-26-20-11-12-24(34)28(26)36-29(30)27-22(18-31(30,35)25(32)17-20)21-9-5-6-10-23(21)33(27)15-13-19-7-3-2-4-8-19/h2-4,7-8,11-12,25,29,34-35H,5-6,9-10,13-18H2,1H3/t25?,29-,30-,31+/m0/s1

>  <IUPAC Name>  (1) 
(1S,2S,13R)-22-methyl-11-(2-phenylethyl)-14-oxa-11,22-diazaheptacyclo[13.9.1.01,13.02,21.04,12.05,10.019,25]pentacosa-4(12),5(10),15,17,19(25)-pentaene-2,16-diol

$$$$
