
     RDKit          3D

 60 64  0  0  0  0  0  0  0  0999 V2000
    4.4068   -2.4970    0.2763 O   0  0  0  0  0  0  0  0  0  0  0  0
    4.8852   -1.5790   -0.4612 C   0  0  0  0  0  0  0  0  0  0  0  0
    6.3173   -1.4768   -0.7654 C   0  0  2  0  0  0  0  0  0  0  0  0
    7.1404   -2.4689    0.0266 C   0  0  0  0  0  0  0  0  0  0  0  0
    8.5380   -1.8830   -0.1863 C   0  0  0  0  0  0  0  0  0  0  0  0
    8.2284   -0.4367    0.0343 C   0  0  0  0  0  0  0  0  0  0  0  0
    6.9166   -0.1693   -0.3005 C   0  0  0  0  0  0  0  0  0  0  0  0
    6.5490    1.0828   -0.1386 N   0  0  0  0  0  0  0  0  0  0  0  0
    7.1946    2.0065    0.2552 C   0  0  0  0  0  0  0  0  0  0  0  0
    8.8479    1.1242    0.5586 S   0  0  0  0  0  0  0  0  0  0  0  0
    7.0837    3.3866    0.5217 N   0  0  0  0  0  0  0  0  0  0  0  0
    4.0130   -0.6008   -1.0243 N   0  0  0  0  0  0  0  0  0  0  0  0
    2.6208   -0.6792   -0.7435 C   0  0  0  0  0  0  0  0  0  0  0  0
    1.7291   -1.3877   -1.5208 C   0  0  0  0  0  0  0  0  0  0  0  0
    0.3817   -1.4161   -1.1801 C   0  0  0  0  0  0  0  0  0  0  0  0
   -0.1065   -0.7450   -0.0660 C   0  0  0  0  0  0  0  0  0  0  0  0
    0.8204   -0.0504    0.6813 C   0  0  0  0  0  0  0  0  0  0  0  0
    2.1644   -0.0036    0.3682 C   0  0  0  0  0  0  0  0  0  0  0  0
   -1.5411   -0.8205    0.2391 C   0  0  0  0  0  0  0  0  0  0  0  0
   -2.3859    0.2258   -0.4061 C   0  0  2  0  0  0  0  0  0  0  0  0
   -2.0561    1.6357   -0.0655 C   0  0  0  0  0  0  0  0  0  0  0  0
   -3.2248    2.0405    0.8449 C   0  0  0  0  0  0  0  0  0  0  0  0
   -4.3404    1.2820    0.1128 C   0  0  1  0  0  0  0  0  0  0  0  0
   -3.7662   -0.0262    0.0052 N   0  0  0  0  0  0  0  0  0  0  0  0
   -5.6198    1.3128    0.9110 C   0  0  1  0  0  0  0  0  0  0  0  0
   -6.6497    0.6057    0.1391 C   0  0  0  0  0  0  0  0  0  0  0  0
   -6.7713   -0.7733    0.1411 C   0  0  0  0  0  0  0  0  0  0  0  0
   -7.7610   -1.4155   -0.6034 C   0  0  0  0  0  0  0  0  0  0  0  0
   -8.6599   -0.6940   -1.3733 C   0  0  0  0  0  0  0  0  0  0  0  0
   -8.5437    0.6780   -1.3790 C   0  0  0  0  0  0  0  0  0  0  0  0
   -7.5665    1.3151   -0.6442 C   0  0  0  0  0  0  0  0  0  0  0  0
   -5.4516    0.8769    2.2019 O   0  0  0  0  0  0  0  0  0  0  0  0
    6.5704   -1.6369   -1.8417 H   0  0  0  0  0  0  0  0  0  0  0  0
    7.0641   -3.4987   -0.3760 H   0  0  0  0  0  0  0  0  0  0  0  0
    6.9211   -2.3833    1.0952 H   0  0  0  0  0  0  0  0  0  0  0  0
    8.8379   -2.1006   -1.2264 H   0  0  0  0  0  0  0  0  0  0  0  0
    9.2593   -2.2563    0.5484 H   0  0  0  0  0  0  0  0  0  0  0  0
    6.6427    3.9984   -0.2232 H   0  0  0  0  0  0  0  0  0  0  0  0
    7.4050    3.8501    1.4009 H   0  0  0  0  0  0  0  0  0  0  0  0
    4.4095    0.1676   -1.6409 H   0  0  0  0  0  0  0  0  0  0  0  0
    2.0863   -1.9179   -2.3930 H   0  0  0  0  0  0  0  0  0  0  0  0
   -0.2650   -1.9930   -1.8356 H   0  0  0  0  0  0  0  0  0  0  0  0
    0.4933    0.4868    1.5606 H   0  0  0  0  0  0  0  0  0  0  0  0
    2.8551    0.5547    0.9842 H   0  0  0  0  0  0  0  0  0  0  0  0
   -1.6812   -0.8606    1.3398 H   0  0  0  0  0  0  0  0  0  0  0  0
   -1.9236   -1.8040   -0.1305 H   0  0  0  0  0  0  0  0  0  0  0  0
   -2.3827    0.0559   -1.5034 H   0  0  0  0  0  0  0  0  0  0  0  0
   -2.2260    2.2460   -1.0014 H   0  0  0  0  0  0  0  0  0  0  0  0
   -1.0827    1.8261    0.3766 H   0  0  0  0  0  0  0  0  0  0  0  0
   -3.3937    3.1179    0.8362 H   0  0  0  0  0  0  0  0  0  0  0  0
   -3.1172    1.5665    1.8260 H   0  0  0  0  0  0  0  0  0  0  0  0
   -4.4576    1.7031   -0.8971 H   0  0  0  0  0  0  0  0  0  0  0  0
   -3.8080   -0.5716    0.9015 H   0  0  0  0  0  0  0  0  0  0  0  0
   -5.9092    2.3989    0.9632 H   0  0  0  0  0  0  0  0  0  0  0  0
   -6.1068   -1.3819    0.7156 H   0  0  0  0  0  0  0  0  0  0  0  0
   -7.8643   -2.4962   -0.6083 H   0  0  0  0  0  0  0  0  0  0  0  0
   -9.4390   -1.1494   -1.9629 H   0  0  0  0  0  0  0  0  0  0  0  0
   -9.2113    1.3275   -1.9590 H   0  0  0  0  0  0  0  0  0  0  0  0
   -7.4545    2.4027   -0.6328 H   0  0  0  0  0  0  0  0  0  0  0  0
   -5.6153   -0.1017    2.2344 H   0  0  0  0  0  0  0  0  0  0  0  0
  1  2  2  0
  2  3  1  0
  3  4  1  0
  4  5  1  0
  5  6  1  0
  6  7  2  0
  7  8  1  0
  8  9  2  0
  9 10  1  0
  9 11  1  0
  2 12  1  0
 12 13  1  0
 13 14  2  0
 14 15  1  0
 15 16  2  0
 16 17  1  0
 17 18  2  0
 16 19  1  0
 19 20  1  0
 20 21  1  0
 21 22  1  0
 22 23  1  0
 23 24  1  0
 23 25  1  0
 25 26  1  0
 26 27  2  0
 27 28  1  0
 28 29  2  0
 29 30  1  0
 30 31  2  0
 25 32  1  0
  7  3  1  0
 18 13  1  0
 24 20  1  0
 31 26  1  0
 10  6  1  0
  3 33  1  6
  4 34  1  0
  4 35  1  0
  5 36  1  0
  5 37  1  0
 11 38  1  0
 11 39  1  0
 12 40  1  0
 14 41  1  0
 15 42  1  0
 17 43  1  0
 18 44  1  0
 19 45  1  0
 19 46  1  0
 20 47  1  6
 21 48  1  0
 21 49  1  0
 22 50  1  0
 22 51  1  0
 23 52  1  6
 24 53  1  0
 25 54  1  1
 27 55  1  0
 28 56  1  0
 29 57  1  0
 30 58  1  0
 31 59  1  0
 32 60  1  0
M  END
>  <Ligand ID>  (1) 
LIG0001296

>  <Ligand>  (1) 
CHEMBL3128194

>  <SMILES>  (1) 
O=C([C@@H]1CCc2c1nc(s2)N)Nc1ccc(cc1)C[C@@H]1CC[C@@H](N1)[C@@H](c1ccccc1)O

>  <CID>  (1) 
76336500.0

>  <ChEMBL ID>  (1) 
nan

>  <InChiKey>  (1) 
OKIOQHRDFOXEBF-DZCCDHAISA-N

>  <InChi>  (1) 
InChI=1S/C25H28N4O2S/c26-25-29-22-19(11-13-21(22)32-25)24(31)28-17-8-6-15(7-9-17)14-18-10-12-20(27-18)23(30)16-4-2-1-3-5-16/h1-9,18-20,23,27,30H,10-14H2,(H2,26,29)(H,28,31)/t18-,19+,20+,23+/m0/s1

>  <IUPAC Name>  (1) 
(4R)-2-amino-N-[4-[[(2S,5R)-5-[(R)-hydroxy(phenyl)methyl]pyrrolidin-2-yl]methyl]phenyl]-5,6-dihydro-4H-cyclopenta[d][1,3]thiazole-4-carboxamide

$$$$
