
     RDKit          3D

204211  0  0  0  0  0  0  0  0999 V2000
   11.1750   -5.5714   -0.4083 N   0  0  0  0  0  0  0  0  0  0  0  0
   11.7939   -4.6922    0.5955 C   0  0  0  0  0  0  0  0  0  0  0  0
   12.4418   -3.5731   -0.1572 C   0  0  0  0  0  0  0  0  0  0  0  0
   13.1343   -2.5600    0.6830 C   0  0  0  0  0  0  0  0  0  0  0  0
   12.3160   -1.7654    1.6327 C   0  0  0  0  0  0  0  0  0  0  0  0
   11.2668   -0.8778    0.9663 C   0  0  1  0  0  0  0  0  0  0  0  0
   11.9590    0.0793    0.0530 C   0  0  0  0  0  0  0  0  0  0  0  0
   11.6469    0.1964   -1.1419 O   0  0  0  0  0  0  0  0  0  0  0  0
   13.0740    0.9619    0.4992 C   0  0  0  0  0  0  0  0  0  0  0  0
   13.5287    1.7890   -0.5737 N   0  0  0  0  0  0  0  0  0  0  0  0
   14.6593    2.6039   -0.3059 C   0  0  2  0  0  0  0  0  0  0  0  0
   15.9066    1.8471    0.0024 C   0  0  0  0  0  0  0  0  0  0  0  0
   16.9350    2.5070    0.2883 O   0  0  0  0  0  0  0  0  0  0  0  0
   15.9857    0.4356   -0.0116 N   0  0  0  0  0  0  0  0  0  0  0  0
   14.4730    3.7224    0.6608 C   0  0  0  0  0  0  0  0  0  0  0  0
   13.4444    4.6781    0.2016 C   0  0  0  0  0  0  0  0  0  0  0  0
   12.8116    4.6163   -0.8645 O   0  0  0  0  0  0  0  0  0  0  0  0
   13.1590    5.7541    1.0492 O   0  0  0  0  0  0  0  0  0  0  0  0
   10.2892   -1.6767    0.3444 N   0  0  0  0  0  0  0  0  0  0  0  0
    9.1585   -1.0355   -0.2433 C   0  0  0  0  0  0  0  0  0  0  0  0
    8.2265   -0.4284    0.7716 C   0  0  0  0  0  0  0  0  0  0  0  0
    8.4276   -0.4634    1.9637 O   0  0  0  0  0  0  0  0  0  0  0  0
    7.0082    0.2328    0.1648 C   0  0  2  0  0  0  0  0  0  0  0  0
    7.5392    1.3787   -0.6575 C   0  0  0  0  0  0  0  0  0  0  0  0
    6.8592    2.6088   -0.1064 C   0  0  0  0  0  0  0  0  0  0  0  0
    6.4063    2.1989    1.2503 C   0  0  0  0  0  0  0  0  0  0  0  0
    6.1492    0.7441    1.2057 N   0  0  0  0  0  0  0  0  0  0  0  0
    4.7713    0.6336    0.7733 C   0  0  0  0  0  0  0  0  0  0  0  0
    4.1967   -0.7186    0.8861 C   0  0  0  0  0  0  0  0  0  0  0  0
    4.8358   -1.5910    1.4794 O   0  0  0  0  0  0  0  0  0  0  0  0
    2.8355   -1.0726    0.2984 C   0  0  2  0  0  0  0  0  0  0  0  0
    2.5886   -2.5347    0.4230 C   0  0  0  0  0  0  0  0  0  0  0  0
    3.4799   -3.0933   -0.6632 C   0  0  0  0  0  0  0  0  0  0  0  0
    3.8492   -1.9605   -1.5619 C   0  0  0  0  0  0  0  0  0  0  0  0
    2.9700   -0.8416   -1.1126 N   0  0  0  0  0  0  0  0  0  0  0  0
    2.5735    0.1338   -2.0210 C   0  0  0  0  0  0  0  0  0  0  0  0
    3.1878    0.1197   -3.1618 O   0  0  0  0  0  0  0  0  0  0  0  0
    1.5256    1.2061   -1.8664 C   0  0  0  0  0  0  0  0  0  0  0  0
    2.1002    2.3850   -1.1886 C   0  0  0  0  0  0  0  0  0  0  0  0
    1.1264    3.8320   -0.8908 S   0  0  0  0  0  0  0  0  0  0  0  0
   -0.2442    3.5676    0.6425 S   0  0  0  0  0  0  0  0  0  0  0  0
   -1.8737    3.0396    0.1353 C   0  0  0  0  0  0  0  0  0  0  0  0
   -2.4677    4.1822   -0.6819 C   0  0  0  0  0  0  0  0  0  0  0  0
   -2.3089    5.4000    0.1416 C   0  0  0  0  0  0  0  0  0  0  0  0
   -1.9454    5.2552    1.2985 O   0  0  0  0  0  0  0  0  0  0  0  0
   -2.5533    6.7773   -0.3281 C   0  0  0  0  0  0  0  0  0  0  0  0
   -3.9799    3.9575   -0.7426 C   0  0  0  0  0  0  0  0  0  0  0  0
   -4.3888    2.9354   -0.2345 O   0  0  0  0  0  0  0  0  0  0  0  0
   -4.8635    4.8513   -1.3270 N   0  0  0  0  0  0  0  0  0  0  0  0
   -6.2476    4.9277   -1.5471 C   0  0  2  0  0  0  0  0  0  0  0  0
   -6.7842    6.2960   -1.0596 C   0  0  0  0  0  0  0  0  0  0  0  0
   -6.5321    6.4185    0.4246 C   0  0  0  0  0  0  0  0  0  0  0  0
   -7.0335    7.7302    0.8878 C   0  0  0  0  0  0  0  0  0  0  0  0
   -6.9241    7.9513    2.1404 O   0  0  0  0  0  0  0  0  0  0  0  0
   -7.5950    8.6945    0.0613 O   0  0  0  0  0  0  0  0  0  0  0  0
   -7.2096    3.9014   -1.1802 C   0  0  0  0  0  0  0  0  0  0  0  0
   -8.4420    4.3697   -1.1535 O   0  0  0  0  0  0  0  0  0  0  0  0
   -7.1930    2.5440   -0.8583 N   0  0  0  0  0  0  0  0  0  0  0  0
   -8.4897    1.9802   -0.3537 C   0  0  2  0  0  0  0  0  0  0  0  0
   -8.2465    1.3086    0.9402 C   0  0  0  0  0  0  0  0  0  0  0  0
   -8.9942    1.4829    1.8991 O   0  0  0  0  0  0  0  0  0  0  0  0
   -7.1438    0.3972    1.1843 N   0  0  0  0  0  0  0  0  0  0  0  0
   -6.8551   -0.1512    2.4653 C   0  0  2  0  0  0  0  0  0  0  0  0
   -5.4618   -0.6298    2.6657 C   0  0  0  0  0  0  0  0  0  0  0  0
   -4.9907   -0.8884    3.7909 O   0  0  0  0  0  0  0  0  0  0  0  0
   -4.5364   -0.8503    1.5939 N   0  0  0  0  0  0  0  0  0  0  0  0
   -3.1910   -1.4217    1.8384 C   0  0  2  0  0  0  0  0  0  0  0  0
   -2.3347   -1.3707    0.6567 C   0  0  0  0  0  0  0  0  0  0  0  0
   -1.3041   -2.0603    0.5280 O   0  0  0  0  0  0  0  0  0  0  0  0
   -2.5853   -0.5074   -0.4795 N   0  0  0  0  0  0  0  0  0  0  0  0
   -1.9112   -0.5002   -1.7132 C   0  0  1  0  0  0  0  0  0  0  0  0
   -0.6265    0.0904   -1.9522 C   0  0  0  0  0  0  0  0  0  0  0  0
   -0.2717    0.0800   -3.2019 O   0  0  0  0  0  0  0  0  0  0  0  0
    0.3754    0.6926   -1.1324 N   0  0  0  0  0  0  0  0  0  0  0  0
   -1.9229   -1.9276   -2.3513 C   0  0  0  0  0  0  0  0  0  0  0  0
   -3.3090   -2.3003   -2.5923 C   0  0  0  0  0  0  0  0  0  0  0  0
   -4.4965   -1.6293   -2.4555 C   0  0  0  0  0  0  0  0  0  0  0  0
   -5.5443   -2.4129   -2.8083 N   0  0  0  0  0  0  0  0  0  0  0  0
   -5.0732   -3.6067   -3.1847 C   0  0  0  0  0  0  0  0  0  0  0  0
   -3.6844   -3.5667   -3.0614 C   0  0  0  0  0  0  0  0  0  0  0  0
   -2.9705   -4.6822   -3.3903 C   0  0  0  0  0  0  0  0  0  0  0  0
   -3.5979   -5.8471   -3.8437 C   0  0  0  0  0  0  0  0  0  0  0  0
   -4.9683   -5.8627   -3.9564 C   0  0  0  0  0  0  0  0  0  0  0  0
   -5.7215   -4.7589   -3.6337 C   0  0  0  0  0  0  0  0  0  0  0  0
   -3.5556   -2.9317    2.0451 C   0  0  0  0  0  0  0  0  0  0  0  0
   -4.2191   -3.4291    0.7884 C   0  0  0  0  0  0  0  0  0  0  0  0
   -4.6866   -4.8679    0.9126 C   0  0  0  0  0  0  0  0  0  0  0  0
   -3.5831   -5.7407    1.1913 N   0  0  0  0  0  0  0  0  0  0  0  0
   -3.8432   -6.9873    1.4034 C   0  0  0  0  0  0  0  0  0  0  0  0
   -2.8365   -7.9351    1.6891 N   0  0  0  0  0  0  0  0  0  0  0  0
   -5.1905   -7.4935    1.3524 N   0  0  0  0  0  0  0  0  0  0  0  0
   -7.7251   -1.3614    2.8110 C   0  0  0  0  0  0  0  0  0  0  0  0
   -9.1473   -1.1984    2.8697 C   0  0  0  0  0  0  0  0  0  0  0  0
   -9.7127   -0.7703    4.0930 C   0  0  0  0  0  0  0  0  0  0  0  0
  -11.0777   -0.6218    4.2294 C   0  0  0  0  0  0  0  0  0  0  0  0
  -11.9534   -0.8862    3.1714 C   0  0  0  0  0  0  0  0  0  0  0  0
  -11.4045   -1.3088    1.9605 C   0  0  0  0  0  0  0  0  0  0  0  0
  -10.0505   -1.4552    1.8284 C   0  0  0  0  0  0  0  0  0  0  0  0
  -12.3160   -1.5538    0.9545 C   0  0  0  0  0  0  0  0  0  0  0  0
  -13.6760   -1.4009    1.1142 C   0  0  0  0  0  0  0  0  0  0  0  0
  -14.1845   -0.9862    2.3178 C   0  0  0  0  0  0  0  0  0  0  0  0
  -13.3070   -0.7273    3.3554 C   0  0  0  0  0  0  0  0  0  0  0  0
   -8.9613    0.9437   -1.3867 C   0  0  0  0  0  0  0  0  0  0  0  0
   -9.1343    1.5959   -2.6884 C   0  0  0  0  0  0  0  0  0  0  0  0
  -10.2315    2.1991   -3.2239 N   0  0  0  0  0  0  0  0  0  0  0  0
   -9.9135    2.6575   -4.4624 C   0  0  0  0  0  0  0  0  0  0  0  0
   -8.6529    2.3609   -4.7230 N   0  0  0  0  0  0  0  0  0  0  0  0
   -8.1316    1.7071   -3.6576 C   0  0  0  0  0  0  0  0  0  0  0  0
   11.6146   -5.3958   -1.3572 H   0  0  0  0  0  0  0  0  0  0  0  0
   11.2580   -6.5755   -0.1157 H   0  0  0  0  0  0  0  0  0  0  0  0
   11.0263   -4.4052    1.2972 H   0  0  0  0  0  0  0  0  0  0  0  0
   12.5757   -5.3489    1.0938 H   0  0  0  0  0  0  0  0  0  0  0  0
   11.6843   -3.1284   -0.8157 H   0  0  0  0  0  0  0  0  0  0  0  0
   13.1895   -4.0269   -0.8691 H   0  0  0  0  0  0  0  0  0  0  0  0
   13.6777   -1.8724   -0.0283 H   0  0  0  0  0  0  0  0  0  0  0  0
   13.9767   -3.0753    1.2336 H   0  0  0  0  0  0  0  0  0  0  0  0
   13.0260   -1.0947    2.1908 H   0  0  0  0  0  0  0  0  0  0  0  0
   11.8715   -2.4070    2.4102 H   0  0  0  0  0  0  0  0  0  0  0  0
   10.7607   -0.2860    1.7727 H   0  0  0  0  0  0  0  0  0  0  0  0
   13.8679    0.4317    1.0357 H   0  0  0  0  0  0  0  0  0  0  0  0
   12.6118    1.6453    1.2699 H   0  0  0  0  0  0  0  0  0  0  0  0
   12.7931    2.3253   -1.0500 H   0  0  0  0  0  0  0  0  0  0  0  0
   14.9011    3.1193   -1.2977 H   0  0  0  0  0  0  0  0  0  0  0  0
   15.6766   -0.1359   -0.8526 H   0  0  0  0  0  0  0  0  0  0  0  0
   16.3483   -0.1388    0.7870 H   0  0  0  0  0  0  0  0  0  0  0  0
   14.2831    3.3959    1.7070 H   0  0  0  0  0  0  0  0  0  0  0  0
   15.4672    4.2628    0.7014 H   0  0  0  0  0  0  0  0  0  0  0  0
   12.4683    6.4139    0.7728 H   0  0  0  0  0  0  0  0  0  0  0  0
    9.9025   -2.3919    1.0141 H   0  0  0  0  0  0  0  0  0  0  0  0
    9.4185   -0.3153   -1.0456 H   0  0  0  0  0  0  0  0  0  0  0  0
    8.5771   -1.8340   -0.7810 H   0  0  0  0  0  0  0  0  0  0  0  0
    6.4765   -0.4966   -0.4855 H   0  0  0  0  0  0  0  0  0  0  0  0
    7.3099    1.1945   -1.7275 H   0  0  0  0  0  0  0  0  0  0  0  0
    8.6445    1.4900   -0.5687 H   0  0  0  0  0  0  0  0  0  0  0  0
    7.5826    3.4536   -0.0478 H   0  0  0  0  0  0  0  0  0  0  0  0
    6.0369    2.8993   -0.7932 H   0  0  0  0  0  0  0  0  0  0  0  0
    7.1265    2.4559    2.0562 H   0  0  0  0  0  0  0  0  0  0  0  0
    5.4396    2.6908    1.4732 H   0  0  0  0  0  0  0  0  0  0  0  0
    4.6600    0.9907   -0.2557 H   0  0  0  0  0  0  0  0  0  0  0  0
    4.1213    1.3040    1.3970 H   0  0  0  0  0  0  0  0  0  0  0  0
    2.0520   -0.4623    0.7903 H   0  0  0  0  0  0  0  0  0  0  0  0
    2.9188   -2.9092    1.4260 H   0  0  0  0  0  0  0  0  0  0  0  0
    1.5309   -2.7532    0.2318 H   0  0  0  0  0  0  0  0  0  0  0  0
    2.9985   -3.9586   -1.1597 H   0  0  0  0  0  0  0  0  0  0  0  0
    4.4276   -3.4286   -0.1569 H   0  0  0  0  0  0  0  0  0  0  0  0
    3.5441   -2.2662   -2.5907 H   0  0  0  0  0  0  0  0  0  0  0  0
    4.8792   -1.6676   -1.5952 H   0  0  0  0  0  0  0  0  0  0  0  0
    1.2298    1.5305   -2.9053 H   0  0  0  0  0  0  0  0  0  0  0  0
    2.4950    2.0782   -0.1422 H   0  0  0  0  0  0  0  0  0  0  0  0
    3.0636    2.7252   -1.6646 H   0  0  0  0  0  0  0  0  0  0  0  0
   -2.5229    2.9345    1.0403 H   0  0  0  0  0  0  0  0  0  0  0  0
   -1.8917    2.1036   -0.4144 H   0  0  0  0  0  0  0  0  0  0  0  0
   -2.0089    4.2301   -1.6453 H   0  0  0  0  0  0  0  0  0  0  0  0
   -1.7886    7.4310    0.1837 H   0  0  0  0  0  0  0  0  0  0  0  0
   -2.3142    6.9017   -1.4069 H   0  0  0  0  0  0  0  0  0  0  0  0
   -3.5206    7.2006   -0.0862 H   0  0  0  0  0  0  0  0  0  0  0  0
   -4.3313    5.7128   -1.7432 H   0  0  0  0  0  0  0  0  0  0  0  0
   -6.3435    4.9233   -2.7072 H   0  0  0  0  0  0  0  0  0  0  0  0
   -6.2945    7.0670   -1.6539 H   0  0  0  0  0  0  0  0  0  0  0  0
   -7.8649    6.2978   -1.2344 H   0  0  0  0  0  0  0  0  0  0  0  0
   -7.1319    5.6532    0.9915 H   0  0  0  0  0  0  0  0  0  0  0  0
   -5.5112    6.2944    0.7505 H   0  0  0  0  0  0  0  0  0  0  0  0
   -8.1940    9.3809    0.5269 H   0  0  0  0  0  0  0  0  0  0  0  0
   -6.4698    1.8650   -0.9398 H   0  0  0  0  0  0  0  0  0  0  0  0
   -9.2782    2.7153   -0.2608 H   0  0  0  0  0  0  0  0  0  0  0  0
   -6.6153    0.2008    0.3175 H   0  0  0  0  0  0  0  0  0  0  0  0
   -7.1102    0.5799    3.2424 H   0  0  0  0  0  0  0  0  0  0  0  0
   -4.8756   -0.5968    0.6702 H   0  0  0  0  0  0  0  0  0  0  0  0
   -2.7744   -1.1613    2.8045 H   0  0  0  0  0  0  0  0  0  0  0  0
   -3.3405    0.1736   -0.2933 H   0  0  0  0  0  0  0  0  0  0  0  0
   -2.6394    0.0283   -2.4455 H   0  0  0  0  0  0  0  0  0  0  0  0
    0.2122    0.7152   -0.1468 H   0  0  0  0  0  0  0  0  0  0  0  0
   -1.4089   -1.7974   -3.3232 H   0  0  0  0  0  0  0  0  0  0  0  0
   -1.3421   -2.6121   -1.7433 H   0  0  0  0  0  0  0  0  0  0  0  0
   -4.6194   -0.6277   -2.1214 H   0  0  0  0  0  0  0  0  0  0  0  0
   -6.5516   -2.1316   -2.7875 H   0  0  0  0  0  0  0  0  0  0  0  0
   -1.8889   -4.6387   -3.2890 H   0  0  0  0  0  0  0  0  0  0  0  0
   -3.0277   -6.7221   -4.1069 H   0  0  0  0  0  0  0  0  0  0  0  0
   -5.4558   -6.7582   -4.2873 H   0  0  0  0  0  0  0  0  0  0  0  0
   -6.7853   -4.7673   -3.7197 H   0  0  0  0  0  0  0  0  0  0  0  0
   -2.6283   -3.4716    2.2343 H   0  0  0  0  0  0  0  0  0  0  0  0
   -4.2710   -3.0145    2.8843 H   0  0  0  0  0  0  0  0  0  0  0  0
   -5.0247   -2.7483    0.4923 H   0  0  0  0  0  0  0  0  0  0  0  0
   -3.4508   -3.4684   -0.0425 H   0  0  0  0  0  0  0  0  0  0  0  0
   -5.4453   -4.8476    1.7427 H   0  0  0  0  0  0  0  0  0  0  0  0
   -5.2630   -5.1946    0.0241 H   0  0  0  0  0  0  0  0  0  0  0  0
   -1.8458   -7.6221    1.9117 H   0  0  0  0  0  0  0  0  0  0  0  0
   -2.9844   -8.9667    1.6980 H   0  0  0  0  0  0  0  0  0  0  0  0
   -5.3961   -8.4036    0.8967 H   0  0  0  0  0  0  0  0  0  0  0  0
   -5.9944   -6.9808    1.7575 H   0  0  0  0  0  0  0  0  0  0  0  0
   -7.3864   -2.1802    2.1245 H   0  0  0  0  0  0  0  0  0  0  0  0
   -7.3835   -1.7358    3.8239 H   0  0  0  0  0  0  0  0  0  0  0  0
   -9.0569   -0.5578    4.9245 H   0  0  0  0  0  0  0  0  0  0  0  0
  -11.5317   -0.2933    5.1565 H   0  0  0  0  0  0  0  0  0  0  0  0
   -9.6410   -1.7970    0.8621 H   0  0  0  0  0  0  0  0  0  0  0  0
  -11.9587   -1.8717    0.0045 H   0  0  0  0  0  0  0  0  0  0  0  0
  -14.3790   -1.5920    0.3176 H   0  0  0  0  0  0  0  0  0  0  0  0
  -15.2536   -0.8638    2.4588 H   0  0  0  0  0  0  0  0  0  0  0  0
  -13.7343   -0.4045    4.3039 H   0  0  0  0  0  0  0  0  0  0  0  0
   -8.2954    0.0754   -1.4078 H   0  0  0  0  0  0  0  0  0  0  0  0
   -9.9521    0.5993   -1.0219 H   0  0  0  0  0  0  0  0  0  0  0  0
  -11.1369    2.2840   -2.7582 H   0  0  0  0  0  0  0  0  0  0  0  0
  -10.5764    3.1973   -5.1573 H   0  0  0  0  0  0  0  0  0  0  0  0
   -7.1135    1.3557   -3.6232 H   0  0  0  0  0  0  0  0  0  0  0  0
  1  2  1  0
  2  3  1  0
  3  4  1  0
  4  5  1  0
  5  6  1  0
  6  7  1  0
  7  8  2  0
  7  9  1  0
  9 10  1  0
 10 11  1  0
 11 12  1  0
 12 13  2  0
 12 14  1  0
 11 15  1  0
 15 16  1  0
 16 17  2  0
 16 18  1  0
  6 19  1  0
 19 20  1  0
 20 21  1  0
 21 22  2  0
 21 23  1  0
 23 24  1  0
 24 25  1  0
 25 26  1  0
 26 27  1  0
 27 28  1  0
 28 29  1  0
 29 30  2  0
 29 31  1  0
 31 32  1  0
 32 33  1  0
 33 34  1  0
 34 35  1  0
 35 36  1  0
 36 37  2  0
 36 38  1  0
 38 39  1  0
 39 40  1  0
 40 41  1  0
 41 42  1  0
 42 43  1  0
 43 44  1  0
 44 45  2  0
 44 46  1  0
 43 47  1  0
 47 48  2  0
 47 49  1  0
 49 50  1  0
 50 51  1  0
 51 52  1  0
 52 53  1  0
 53 54  2  0
 53 55  1  0
 50 56  1  0
 56 57  2  0
 56 58  1  0
 58 59  1  0
 59 60  1  0
 60 61  2  0
 60 62  1  0
 62 63  1  0
 63 64  1  0
 64 65  2  0
 64 66  1  0
 66 67  1  0
 67 68  1  0
 68 69  2  0
 68 70  1  0
 70 71  1  0
 71 72  1  0
 72 73  2  0
 72 74  1  0
 71 75  1  0
 75 76  1  0
 76 77  2  0
 77 78  1  0
 78 79  1  0
 79 80  2  0
 80 81  1  0
 81 82  2  0
 82 83  1  0
 83 84  2  0
 67 85  1  0
 85 86  1  0
 86 87  1  0
 87 88  1  0
 88 89  2  3
 89 90  1  0
 89 91  1  0
 63 92  1  0
 92 93  1  0
 93 94  2  0
 94 95  1  0
 95 96  2  0
 96 97  1  0
 97 98  2  0
 97 99  1  0
 99100  2  0
100101  1  0
101102  2  0
 59103  1  0
103104  1  0
104105  1  0
105106  1  0
106107  2  0
107108  1  0
 27 23  1  0
 35 31  1  0
 74 38  1  0
 80 76  1  0
 98 93  1  0
108104  2  0
 84 79  1  0
102 96  1  0
  1109  1  0
  1110  1  0
  2111  1  0
  2112  1  0
  3113  1  0
  3114  1  0
  4115  1  0
  4116  1  0
  5117  1  0
  5118  1  0
  6119  1  1
  9120  1  0
  9121  1  0
 10122  1  0
 11123  1  6
 14124  1  0
 14125  1  0
 15126  1  0
 15127  1  0
 18128  1  0
 19129  1  0
 20130  1  0
 20131  1  0
 23132  1  6
 24133  1  0
 24134  1  0
 25135  1  0
 25136  1  0
 26137  1  0
 26138  1  0
 28139  1  0
 28140  1  0
 31141  1  1
 32142  1  0
 32143  1  0
 33144  1  0
 33145  1  0
 34146  1  0
 34147  1  0
 38148  1  0
 39149  1  0
 39150  1  0
 42151  1  0
 42152  1  0
 43153  1  0
 46154  1  0
 46155  1  0
 46156  1  0
 49157  1  0
 50158  1  6
 51159  1  0
 51160  1  0
 52161  1  0
 52162  1  0
 55163  1  0
 58164  1  0
 59165  1  1
 62166  1  0
 63167  1  1
 66168  1  0
 67169  1  1
 70170  1  0
 71171  1  6
 74172  1  0
 75173  1  0
 75174  1  0
 77175  1  0
 78176  1  0
 81177  1  0
 82178  1  0
 83179  1  0
 84180  1  0
 85181  1  0
 85182  1  0
 86183  1  0
 86184  1  0
 87185  1  0
 87186  1  0
 90187  1  0
 90188  1  0
 91189  1  0
 91190  1  0
 92191  1  0
 92192  1  0
 94193  1  0
 95194  1  0
 98195  1  0
 99196  1  0
100197  1  0
101198  1  0
102199  1  0
103200  1  0
103201  1  0
105202  1  0
106203  1  0
108204  1  0
M  END
>  <Ligand ID>  (1) 
LIG0003275

>  <Ligand>  (1) 
CHEMBL408336

>  <SMILES>  (1) 
NCCCC[C@@H](C(=O)CN[C@H](C(=O)N)CC(=O)O)NCC(=O)[C@@H]1CCCN1CC(=O)[C@@H]1CCCN1C(=O)C1CSSCC(C(=O)C)C(=O)N[C@H](CCC(=O)O)C(=O)N[C@H](C(=O)N[C@H](C(=O)N[C@H](C(=O)N[C@@H](C(=O)N1)Cc1c[nH]c2c1cccc2)CCCN=C(N)N)Cc1ccc2c(c1)cccc2)Cc1[nH]cnc1

>  <CID>  (1) 
44348144.0

>  <ChEMBL ID>  (1) 
nan

>  <InChiKey>  (1) 
TUEXZDIGHDGDGO-VAYPODTHSA-N

>  <InChi>  (1) 
InChI=1S/C72H96N18O16S2/c1-40(91)47-37-107-108-38-56(71(106)90-26-10-18-58(90)61(94)36-89-25-9-17-57(89)60(93)35-80-49(15-6-7-23-73)59(92)34-81-52(64(74)99)31-63(97)98)88-69(104)54(29-44-32-79-48-14-5-4-13-46(44)48)86-66(101)50(16-8-24-78-72(75)76)84-68(103)53(28-41-19-20-42-11-2-3-12-43(42)27-41)85-70(105)55(30-45-33-77-39-82-45)87-67(102)51(83-65(47)100)21-22-62(95)96/h2-5,11-14,19-20,27,32-33,39,47,49-58,79-81H,6-10,15-18,21-26,28-31,34-38,73H2,1H3,(H2,74,99)(H,77,82)(H,83,100)(H,84,103)(H,85,105)(H,86,101)(H,87,102)(H,88,104)(H,95,96)(H,97,98)(H4,75,76,78)/t47?,49-,50-,51+,52-,53-,54+,55-,56?,57-,58-/m0/s1

>  <IUPAC Name>  (1) 
(3S)-3-[[(3S)-3-[[2-[(2S)-1-[2-[(2S)-1-[(7R,10S,13S,16S,19R)-22-acetyl-19-(2-carboxyethyl)-10-[3-(diaminomethylideneamino)propyl]-16-(1H-imidazol-5-ylmethyl)-7-(1H-indol-3-ylmethyl)-13-(naphthalen-2-ylmethyl)-6,9,12,15,18,21-hexaoxo-1,2-dithia-5,8,11,14,17,20-hexazacyclotricosane-4-carbonyl]pyrrolidin-2-yl]-2-oxoethyl]pyrrolidin-2-yl]-2-oxoethyl]amino]-7-amino-2-oxoheptyl]amino]-4-amino-4-oxobutanoic acid

$$$$
