
     RDKit          3D

 56 60  0  0  0  0  0  0  0  0999 V2000
   -6.2845   -4.5276    2.2778 Cl  0  0  0  0  0  0  0  0  0  0  0  0
   -5.2543   -3.2323    1.7425 C   0  0  0  0  0  0  0  0  0  0  0  0
   -4.1030   -2.9470    2.4452 C   0  0  0  0  0  0  0  0  0  0  0  0
   -3.2786   -1.9233    2.0311 C   0  0  0  0  0  0  0  0  0  0  0  0
   -3.5396   -1.1401    0.9227 C   0  0  0  0  0  0  0  0  0  0  0  0
   -4.7095   -1.4484    0.2293 C   0  0  0  0  0  0  0  0  0  0  0  0
   -5.5449   -2.4719    0.6332 C   0  0  0  0  0  0  0  0  0  0  0  0
   -2.6349   -0.0390    0.4939 C   0  0  0  0  0  0  0  0  0  0  0  0
   -1.5942   -0.4855   -0.4366 C   0  0  0  0  0  0  0  0  0  0  0  0
   -1.9553   -1.1187   -1.6077 C   0  0  0  0  0  0  0  0  0  0  0  0
   -0.9952   -1.5348   -2.5011 C   0  0  0  0  0  0  0  0  0  0  0  0
    0.3403   -1.3193   -2.2270 C   0  0  0  0  0  0  0  0  0  0  0  0
    0.7501   -0.6814   -1.0510 C   0  0  0  0  0  0  0  0  0  0  0  0
   -0.2265   -0.2861   -0.1959 C   0  0  0  0  0  0  0  0  0  0  0  0
    2.0949   -0.4847   -0.8148 C   0  0  0  0  0  0  0  0  0  0  0  0
    2.5268    0.1769    0.3623 N   0  0  0  0  0  0  0  0  0  0  0  0
    3.9037    0.4945    0.6197 C   0  0  0  0  0  0  0  0  0  0  0  0
    4.4854    0.2105    1.8471 C   0  0  0  0  0  0  0  0  0  0  0  0
    5.7948    0.5231    2.1441 C   0  0  0  0  0  0  0  0  0  0  0  0
    6.5687    1.1443    1.1890 C   0  0  0  0  0  0  0  0  0  0  0  0
    6.0369    1.4413   -0.0287 C   0  0  0  0  0  0  0  0  0  0  0  0
    4.7089    1.1164   -0.3084 C   0  0  0  0  0  0  0  0  0  0  0  0
    7.9499    1.4627    1.5305 C   0  0  0  0  0  0  0  0  0  0  0  0
    8.3678    1.1536    2.6835 O   0  0  0  0  0  0  0  0  0  0  0  0
    8.8333    2.0811    0.6751 O   0  0  0  0  0  0  0  0  0  0  0  0
    2.9671   -0.9410   -1.7758 C   0  0  0  0  0  0  0  0  0  0  0  0
    2.5351   -1.5745   -2.9419 C   0  0  0  0  0  0  0  0  0  0  0  0
    3.3350   -1.9807   -3.8011 O   0  0  0  0  0  0  0  0  0  0  0  0
    1.2196   -1.7531   -3.1473 N   0  0  0  0  0  0  0  0  0  0  0  0
   -3.3389    1.1864    0.0809 C   0  0  0  0  0  0  0  0  0  0  0  0
   -3.5514    1.5896   -1.2114 C   0  0  0  0  0  0  0  0  0  0  0  0
   -4.2284    2.7535   -1.5477 C   0  0  0  0  0  0  0  0  0  0  0  0
   -4.7261    3.5694   -0.5458 C   0  0  0  0  0  0  0  0  0  0  0  0
   -4.5275    3.1896    0.7692 C   0  0  0  0  0  0  0  0  0  0  0  0
   -3.8506    2.0268    1.0764 C   0  0  0  0  0  0  0  0  0  0  0  0
   -5.5913    5.0537   -0.8761 Cl  0  0  0  0  0  0  0  0  0  0  0  0
   -3.8370   -3.5222    3.3252 H   0  0  0  0  0  0  0  0  0  0  0  0
   -2.3764   -1.7051    2.5879 H   0  0  0  0  0  0  0  0  0  0  0  0
   -4.9874   -0.8977   -0.6336 H   0  0  0  0  0  0  0  0  0  0  0  0
   -6.4491   -2.6897    0.0744 H   0  0  0  0  0  0  0  0  0  0  0  0
   -2.0708    0.2441    1.4437 H   0  0  0  0  0  0  0  0  0  0  0  0
   -2.9862   -1.3304   -1.8838 H   0  0  0  0  0  0  0  0  0  0  0  0
   -1.2933   -2.0384   -3.4323 H   0  0  0  0  0  0  0  0  0  0  0  0
    0.0023    0.2077    0.7221 H   0  0  0  0  0  0  0  0  0  0  0  0
    1.8738    0.4733    1.1169 H   0  0  0  0  0  0  0  0  0  0  0  0
    3.8582   -0.2746    2.5736 H   0  0  0  0  0  0  0  0  0  0  0  0
    6.1652    0.2619    3.1339 H   0  0  0  0  0  0  0  0  0  0  0  0
    6.6720    1.9301   -0.7581 H   0  0  0  0  0  0  0  0  0  0  0  0
    4.3614    1.4006   -1.2873 H   0  0  0  0  0  0  0  0  0  0  0  0
    9.8257    2.0986    0.8739 H   0  0  0  0  0  0  0  0  0  0  0  0
    4.0382   -0.8491   -1.6777 H   0  0  0  0  0  0  0  0  0  0  0  0
    0.9134   -2.2238   -4.0152 H   0  0  0  0  0  0  0  0  0  0  0  0
   -3.1852    1.0018   -2.0355 H   0  0  0  0  0  0  0  0  0  0  0  0
   -4.3781    3.0412   -2.5886 H   0  0  0  0  0  0  0  0  0  0  0  0
   -4.9040    3.8053    1.5899 H   0  0  0  0  0  0  0  0  0  0  0  0
   -3.7266    1.7821    2.1353 H   0  0  0  0  0  0  0  0  0  0  0  0
  1  2  1  0
  2  3  2  0
  3  4  1  0
  4  5  2  0
  5  6  1  0
  6  7  2  0
  5  8  1  0
  8  9  1  0
  9 10  2  0
 10 11  1  0
 11 12  2  0
 12 13  1  0
 13 14  2  0
 13 15  1  0
 15 16  1  0
 16 17  1  0
 17 18  2  0
 18 19  1  0
 19 20  2  0
 20 21  1  0
 21 22  2  0
 20 23  1  0
 23 24  2  0
 23 25  1  0
 15 26  2  0
 26 27  1  0
 27 28  2  0
 27 29  1  0
  8 30  1  0
 30 31  2  0
 31 32  1  0
 32 33  2  0
 33 34  1  0
 34 35  2  0
 33 36  1  0
  7  2  1  0
 14  9  1  0
 22 17  1  0
 35 30  1  0
 29 12  1  0
  3 37  1  0
  4 38  1  0
  6 39  1  0
  7 40  1  0
  8 41  1  0
 10 42  1  0
 11 43  1  0
 14 44  1  0
 16 45  1  0
 18 46  1  0
 19 47  1  0
 21 48  1  0
 22 49  1  0
 25 50  1  0
 26 51  1  0
 29 52  1  0
 31 53  1  0
 32 54  1  0
 34 55  1  0
 35 56  1  0
M  END
>  <Ligand ID>  (1) 
LIG0005894

>  <Ligand>  (1) 
CHEMBL3976944

>  <SMILES>  (1) 
Clc1ccc(cc1)C(c1ccc2c(c1)c(Nc1ccc(cc1)C(=O)O)cc(=O)[nH]2)c1ccc(cc1)Cl

>  <CID>  (1) 
118323953.0

>  <ChEMBL ID>  (1) 
nan

>  <InChiKey>  (1) 
YOIQYIPJZIOKOX-UHFFFAOYSA-N

>  <InChi>  (1) 
InChI=1S/C29H20Cl2N2O3/c30-21-8-1-17(2-9-21)28(18-3-10-22(31)11-4-18)20-7-14-25-24(15-20)26(16-27(34)33-25)32-23-12-5-19(6-13-23)29(35)36/h1-16,28H,(H,35,36)(H2,32,33,34)

>  <IUPAC Name>  (1) 
4-[[6-[bis(4-chlorophenyl)methyl]-2-oxo-1H-quinolin-4-yl]amino]benzoic acid

$$$$
