
     RDKit          3D

 62 64  0  0  0  0  0  0  0  0999 V2000
   -2.9251   -3.8035    2.9489 C   0  0  0  0  0  0  0  0  0  0  0  0
   -3.5824   -2.4656    3.1942 C   0  0  0  0  0  0  0  0  0  0  0  0
   -3.2496   -1.5205    2.0325 C   0  0  0  0  0  0  0  0  0  0  0  0
   -3.7507   -2.0802    0.7385 C   0  0  0  0  0  0  0  0  0  0  0  0
   -3.4636   -1.2084   -0.4624 C   0  0  0  0  0  0  0  0  0  0  0  0
   -4.0882    0.1594   -0.3527 C   0  0  0  0  0  0  0  0  0  0  0  0
   -3.7905    1.0117   -1.5687 C   0  0  0  0  0  0  0  0  0  0  0  0
   -2.3335    1.2155   -1.7622 C   0  0  0  0  0  0  0  0  0  0  0  0
   -1.7069    0.5085   -2.7765 C   0  0  0  0  0  0  0  0  0  0  0  0
   -0.3405    0.7146   -2.9420 C   0  0  0  0  0  0  0  0  0  0  0  0
    0.3810    1.5781   -2.1458 C   0  0  0  0  0  0  0  0  0  0  0  0
   -0.2971    2.2534   -1.1533 C   0  0  0  0  0  0  0  0  0  0  0  0
   -1.6507    2.0893   -0.9424 C   0  0  0  0  0  0  0  0  0  0  0  0
    1.7762    1.7890   -2.3161 N   0  0  0  0  0  0  0  0  0  0  0  0
    2.6074    2.6725   -1.5302 C   0  0  1  0  0  0  0  0  0  0  0  0
    3.3679    1.9057   -0.4636 C   0  0  0  0  0  0  0  0  0  0  0  0
    4.1940    0.9456   -1.0005 O   0  0  0  0  0  0  0  0  0  0  0  0
    4.8935    0.2360   -0.0258 C   0  0  0  0  0  0  0  0  0  0  0  0
    4.0496   -0.4737    0.9190 C   0  0  0  0  0  0  0  0  0  0  0  0
    3.5504   -1.7356    0.8734 C   0  0  0  0  0  0  0  0  0  0  0  0
    2.7850   -2.1923    1.8656 C   0  0  0  0  0  0  0  0  0  0  0  0
    2.5268   -1.3350    2.9273 C   0  0  0  0  0  0  0  0  0  0  0  0
    3.4329    0.2105    2.4747 S   0  0  0  0  0  0  0  0  0  0  0  0
    1.7547   -1.4988    4.1414 C   0  0  0  0  0  0  0  0  0  0  0  0
    1.1373   -2.5663    4.4389 O   0  0  0  0  0  0  0  0  0  0  0  0
    1.6751   -0.4597    5.0257 O   0  0  0  0  0  0  0  0  0  0  0  0
    3.6750    3.1800   -2.5070 C   0  0  0  0  0  0  0  0  0  0  0  0
    3.8479    2.0414   -3.4890 C   0  0  0  0  0  0  0  0  0  0  0  0
    2.6365    1.1902   -3.2755 C   0  0  0  0  0  0  0  0  0  0  0  0
    2.4565    0.1159   -3.8795 O   0  0  0  0  0  0  0  0  0  0  0  0
   -4.4497    2.2487   -1.4017 O   0  0  0  0  0  0  0  0  0  0  0  0
   -3.5679   -4.3791    2.2566 H   0  0  0  0  0  0  0  0  0  0  0  0
   -1.9093   -3.6766    2.5198 H   0  0  0  0  0  0  0  0  0  0  0  0
   -2.8770   -4.3289    3.9291 H   0  0  0  0  0  0  0  0  0  0  0  0
   -3.1956   -2.0320    4.1387 H   0  0  0  0  0  0  0  0  0  0  0  0
   -4.6715   -2.6548    3.2106 H   0  0  0  0  0  0  0  0  0  0  0  0
   -2.1341   -1.4267    1.9792 H   0  0  0  0  0  0  0  0  0  0  0  0
   -3.6290   -0.5113    2.2450 H   0  0  0  0  0  0  0  0  0  0  0  0
   -3.3189   -3.0777    0.5406 H   0  0  0  0  0  0  0  0  0  0  0  0
   -4.8517   -2.2521    0.8474 H   0  0  0  0  0  0  0  0  0  0  0  0
   -3.8670   -1.7539   -1.3405 H   0  0  0  0  0  0  0  0  0  0  0  0
   -2.3418   -1.1378   -0.5488 H   0  0  0  0  0  0  0  0  0  0  0  0
   -5.1802    0.0134   -0.2851 H   0  0  0  0  0  0  0  0  0  0  0  0
   -3.7434    0.6473    0.5785 H   0  0  0  0  0  0  0  0  0  0  0  0
   -4.2696    0.5240   -2.4383 H   0  0  0  0  0  0  0  0  0  0  0  0
   -2.2673   -0.1660   -3.3991 H   0  0  0  0  0  0  0  0  0  0  0  0
    0.1327    0.1577   -3.7348 H   0  0  0  0  0  0  0  0  0  0  0  0
    0.2037    2.9541   -0.4822 H   0  0  0  0  0  0  0  0  0  0  0  0
   -2.1911    2.6201   -0.1600 H   0  0  0  0  0  0  0  0  0  0  0  0
    2.0593    3.5253   -1.1234 H   0  0  0  0  0  0  0  0  0  0  0  0
    3.8783    2.6069    0.2255 H   0  0  0  0  0  0  0  0  0  0  0  0
    2.5970    1.3917    0.1733 H   0  0  0  0  0  0  0  0  0  0  0  0
    5.5728   -0.4664   -0.5170 H   0  0  0  0  0  0  0  0  0  0  0  0
    5.5200    0.9789    0.5246 H   0  0  0  0  0  0  0  0  0  0  0  0
    3.7964   -2.3816   -0.0157 H   0  0  0  0  0  0  0  0  0  0  0  0
    2.3463   -3.2088    1.8911 H   0  0  0  0  0  0  0  0  0  0  0  0
    1.4397   -0.5671    6.0171 H   0  0  0  0  0  0  0  0  0  0  0  0
    3.3173    4.1165   -2.9755 H   0  0  0  0  0  0  0  0  0  0  0  0
    4.6435    3.3315   -2.0244 H   0  0  0  0  0  0  0  0  0  0  0  0
    3.6904    2.4978   -4.5088 H   0  0  0  0  0  0  0  0  0  0  0  0
    4.7906    1.5006   -3.3960 H   0  0  0  0  0  0  0  0  0  0  0  0
   -5.0920    2.4287   -2.1230 H   0  0  0  0  0  0  0  0  0  0  0  0
  1  2  1  0
  2  3  1  0
  3  4  1  0
  4  5  1  0
  5  6  1  0
  6  7  1  0
  7  8  1  0
  8  9  2  0
  9 10  1  0
 10 11  2  0
 11 12  1  0
 12 13  2  0
 11 14  1  0
 14 15  1  0
 15 16  1  0
 16 17  1  0
 17 18  1  0
 18 19  1  0
 19 20  2  0
 20 21  1  0
 21 22  2  0
 22 23  1  0
 22 24  1  0
 24 25  2  0
 24 26  1  0
 15 27  1  0
 27 28  1  0
 28 29  1  0
 29 30  2  0
  7 31  1  0
 13  8  1  0
 29 14  1  0
 23 19  1  0
  1 32  1  0
  1 33  1  0
  1 34  1  0
  2 35  1  0
  2 36  1  0
  3 37  1  0
  3 38  1  0
  4 39  1  0
  4 40  1  0
  5 41  1  0
  5 42  1  0
  6 43  1  0
  6 44  1  0
  7 45  1  0
  9 46  1  0
 10 47  1  0
 12 48  1  0
 13 49  1  0
 15 50  1  1
 16 51  1  0
 16 52  1  0
 18 53  1  0
 18 54  1  0
 20 55  1  0
 21 56  1  0
 26 57  1  0
 27 58  1  0
 27 59  1  0
 28 60  1  0
 28 61  1  0
 31 62  1  0
M  END
>  <Ligand ID>  (1) 
LIG0001876

>  <Ligand>  (1) 
SCHEMBL1310318

>  <SMILES>  (1) 
CCCCCCC(c1ccc(cc1)N1[C@@H](COCc2ccc(s2)C(=O)O)CCC1=O)O

>  <CID>  (1) 
11855865.0

>  <ChEMBL ID>  (1) 
nan

>  <InChiKey>  (1) 
OGLYLZSRSCUDKX-YMBRHYMPSA-N

>  <InChi>  (1) 
InChI=1S/C24H31NO5S/c1-2-3-4-5-6-21(26)17-7-9-18(10-8-17)25-19(11-14-23(25)27)15-30-16-20-12-13-22(31-20)24(28)29/h7-10,12-13,19,21,26H,2-6,11,14-16H2,1H3,(H,28,29)/t19-,21?/m1/s1

>  <IUPAC Name>  (1) 
5-[[(2R)-1-[4-(1-hydroxyheptyl)phenyl]-5-oxopyrrolidin-2-yl]methoxymethyl]thiophene-2-carboxylic acid

$$$$
