
     RDKit          3D

 46 47  0  0  0  0  0  0  0  0999 V2000
   -0.6721   -0.8834    0.1364 O   0  0  0  0  0  0  0  0  0  0  0  0
   -1.1215    0.1079   -0.4807 C   0  0  0  0  0  0  0  0  0  0  0  0
   -2.5625    0.4500   -0.4767 C   0  0  0  0  0  0  0  0  0  0  0  0
   -3.2999   -0.5792    0.3670 C   0  0  2  0  0  0  0  0  0  0  0  0
   -4.7536   -0.2805    0.4034 C   0  0  0  0  0  0  0  0  0  0  0  0
   -5.2604    0.8644    0.9988 C   0  0  0  0  0  0  0  0  0  0  0  0
   -6.6271    1.1179    1.0178 C   0  0  0  0  0  0  0  0  0  0  0  0
   -7.5331    0.2358    0.4426 C   0  0  0  0  0  0  0  0  0  0  0  0
   -7.0345   -0.8995   -0.1482 C   0  0  0  0  0  0  0  0  0  0  0  0
   -5.6682   -1.1446   -0.1625 C   0  0  0  0  0  0  0  0  0  0  0  0
   -2.6879   -0.6380    1.7365 C   0  0  0  0  0  0  0  0  0  0  0  0
   -0.2485    0.9656   -1.2275 N   0  0  0  0  0  0  0  0  0  0  0  0
    1.1563    0.7383   -1.3056 C   0  0  0  0  0  0  0  0  0  0  0  0
    1.6314   -0.2706   -0.6805 N   0  0  0  0  0  0  0  0  0  0  0  0
    3.0622   -0.5221   -0.7461 C   0  0  0  0  0  0  0  0  0  0  0  0
    3.5487   -1.2371    0.4626 C   0  0  0  0  0  0  0  0  0  0  0  0
    5.0009   -1.5077    0.4576 C   0  0  0  0  0  0  0  0  0  0  0  0
    5.8768   -0.3431    0.4842 C   0  0  0  0  0  0  0  0  0  0  0  0
    7.2770   -0.4758    0.4066 C   0  0  0  0  0  0  0  0  0  0  0  0
    7.8261    0.7475    0.4314 N   0  0  0  0  0  0  0  0  0  0  0  0
    6.8472    1.6539    0.5213 C   0  0  0  0  0  0  0  0  0  0  0  0
    5.6756    0.9706    0.5523 N   0  0  0  0  0  0  0  0  0  0  0  0
    1.9667    1.6299   -2.0654 N   0  0  0  0  0  0  0  0  0  0  0  0
   -2.9901    0.3843   -1.5009 H   0  0  0  0  0  0  0  0  0  0  0  0
   -2.7220    1.4759   -0.0821 H   0  0  0  0  0  0  0  0  0  0  0  0
   -3.1518   -1.5592   -0.1683 H   0  0  0  0  0  0  0  0  0  0  0  0
   -4.5694    1.5642    1.4526 H   0  0  0  0  0  0  0  0  0  0  0  0
   -6.9241    2.0351    1.5045 H   0  0  0  0  0  0  0  0  0  0  0  0
   -8.5771    0.4493    0.4682 H   0  0  0  0  0  0  0  0  0  0  0  0
   -7.6812   -1.6309   -0.6158 H   0  0  0  0  0  0  0  0  0  0  0  0
   -5.3189   -2.0598   -0.6435 H   0  0  0  0  0  0  0  0  0  0  0  0
   -3.5011   -0.6154    2.5177 H   0  0  0  0  0  0  0  0  0  0  0  0
   -2.0118    0.2271    1.9066 H   0  0  0  0  0  0  0  0  0  0  0  0
   -2.1015   -1.5815    1.8527 H   0  0  0  0  0  0  0  0  0  0  0  0
   -0.6254    1.7957   -1.7440 H   0  0  0  0  0  0  0  0  0  0  0  0
    3.2638   -1.1898   -1.6322 H   0  0  0  0  0  0  0  0  0  0  0  0
    3.5733    0.3995   -0.9491 H   0  0  0  0  0  0  0  0  0  0  0  0
    2.9908   -2.1970    0.5526 H   0  0  0  0  0  0  0  0  0  0  0  0
    3.3221   -0.6642    1.4035 H   0  0  0  0  0  0  0  0  0  0  0  0
    5.2759   -2.1825    1.3176 H   0  0  0  0  0  0  0  0  0  0  0  0
    5.2400   -2.1142   -0.4635 H   0  0  0  0  0  0  0  0  0  0  0  0
    7.8452   -1.3870    0.3379 H   0  0  0  0  0  0  0  0  0  0  0  0
    7.0078    2.7272    0.5594 H   0  0  0  0  0  0  0  0  0  0  0  0
    4.7701    1.4759    0.6367 H   0  0  0  0  0  0  0  0  0  0  0  0
    2.7540    1.3055   -2.6590 H   0  0  0  0  0  0  0  0  0  0  0  0
    1.7316    2.6417   -1.9994 H   0  0  0  0  0  0  0  0  0  0  0  0
  1  2  2  0
  2  3  1  0
  3  4  1  0
  4  5  1  0
  5  6  2  0
  6  7  1  0
  7  8  2  0
  8  9  1  0
  9 10  2  0
  4 11  1  0
  2 12  1  0
 12 13  1  0
 13 14  2  3
 14 15  1  0
 15 16  1  0
 16 17  1  0
 17 18  1  0
 18 19  2  0
 19 20  1  0
 20 21  2  0
 21 22  1  0
 13 23  1  0
 10  5  1  0
 22 18  1  0
  3 24  1  0
  3 25  1  0
  4 26  1  6
  6 27  1  0
  7 28  1  0
  8 29  1  0
  9 30  1  0
 10 31  1  0
 11 32  1  0
 11 33  1  0
 11 34  1  0
 12 35  1  0
 15 36  1  0
 15 37  1  0
 16 38  1  0
 16 39  1  0
 17 40  1  0
 17 41  1  0
 19 42  1  0
 21 43  1  0
 22 44  1  0
 23 45  1  0
 23 46  1  0
M  END
>  <Ligand ID>  (1) 
LIG0000806

>  <Ligand>  (1) 
CHEMBL1096428

>  <SMILES>  (1) 
O=C(C[C@H](c1ccccc1)C)NC(=NCCCc1cnc[nH]1)N

>  <CID>  (1) 
46887041.0

>  <ChEMBL ID>  (1) 
nan

>  <InChiKey>  (1) 
NTHUVTORAXKPJS-CYBMUJFWSA-N

>  <InChi>  (1) 
InChI=1S/C17H23N5O/c1-13(14-6-3-2-4-7-14)10-16(23)22-17(18)20-9-5-8-15-11-19-12-21-15/h2-4,6-7,11-13H,5,8-10H2,1H3,(H,19,21)(H3,18,20,22,23)/t13-/m1/s1

>  <IUPAC Name>  (1) 
(3R)-N-[N'-[3-(1H-imidazol-5-yl)propyl]carbamimidoyl]-3-phenylbutanamide

$$$$
