
     RDKit          3D

 64 67  0  0  0  0  0  0  0  0999 V2000
   -2.5050    1.6542   -1.9435 C   0  0  0  0  0  0  0  0  0  0  0  0
   -3.2393    0.9056   -0.8838 C   0  0  2  0  0  0  0  0  0  0  0  0
   -4.2123    1.8526   -0.2017 C   0  0  0  0  0  0  0  0  0  0  0  0
   -4.8845    1.1736    0.8937 N   0  0  0  0  0  0  0  0  0  0  0  0
   -3.9943    0.5286    1.8722 C   0  0  0  0  0  0  0  0  0  0  0  0
   -3.0733   -0.4512    1.1695 C   0  0  0  0  0  0  0  0  0  0  0  0
   -2.3807    0.2354    0.0599 N   0  0  0  0  0  0  0  0  0  0  0  0
   -0.9687    0.1915   -0.0076 C   0  0  0  0  0  0  0  0  0  0  0  0
   -0.2240    0.8342   -0.9198 N   0  0  0  0  0  0  0  0  0  0  0  0
    1.1309    0.7608   -0.9478 C   0  0  0  0  0  0  0  0  0  0  0  0
    1.7896   -0.0081    0.0010 C   0  0  0  0  0  0  0  0  0  0  0  0
    1.0361   -0.6730    0.9426 C   0  0  0  0  0  0  0  0  0  0  0  0
   -0.3000   -0.5483    0.9017 N   0  0  0  0  0  0  0  0  0  0  0  0
    3.1697   -0.1352    0.0418 O   0  0  0  0  0  0  0  0  0  0  0  0
    4.0698    0.4740   -0.8317 C   0  0  0  0  0  0  0  0  0  0  0  0
    5.4412    0.0445   -0.4020 C   0  0  0  0  0  0  0  0  0  0  0  0
    6.2918    0.8559    0.2948 C   0  0  0  0  0  0  0  0  0  0  0  0
    7.5451    0.3582    0.6470 C   0  0  0  0  0  0  0  0  0  0  0  0
    7.9285   -0.9194    0.3065 C   0  0  0  0  0  0  0  0  0  0  0  0
    7.0565   -1.7264   -0.3979 C   0  0  0  0  0  0  0  0  0  0  0  0
    5.8182   -1.2296   -0.7438 C   0  0  0  0  0  0  0  0  0  0  0  0
    4.9798   -2.0595   -1.4417 F   0  0  0  0  0  0  0  0  0  0  0  0
    9.2542   -1.4956    0.6609 C   0  0  0  0  0  0  0  0  0  0  0  0
   10.3739   -1.0976   -0.6716 S   0  0  0  0  0  0  0  0  0  0  0  0
   11.7293   -1.6218   -0.3627 O   0  0  0  0  0  0  0  0  0  0  0  0
    9.8773   -1.6446   -1.9686 O   0  0  0  0  0  0  0  0  0  0  0  0
   10.4690    0.6849   -0.8224 C   0  0  0  0  0  0  0  0  0  0  0  0
   -6.2987    1.1205    1.0212 C   0  0  0  0  0  0  0  0  0  0  0  0
   -7.1330    1.9575    1.5845 O   0  0  0  0  0  0  0  0  0  0  0  0
   -8.3705    1.5092    1.4708 N   0  0  0  0  0  0  0  0  0  0  0  0
   -8.3423    0.3247    0.8023 C   0  0  0  0  0  0  0  0  0  0  0  0
   -7.0376    0.0947    0.5274 N   0  0  0  0  0  0  0  0  0  0  0  0
   -9.4794   -0.5571    0.4319 C   0  0  0  0  0  0  0  0  0  0  0  0
   -9.3644   -1.8605    1.2406 C   0  0  0  0  0  0  0  0  0  0  0  0
   -9.3448   -0.9314   -1.0072 C   0  0  0  0  0  0  0  0  0  0  0  0
   -1.8488    2.4231   -1.5171 H   0  0  0  0  0  0  0  0  0  0  0  0
   -3.2392    2.1666   -2.6085 H   0  0  0  0  0  0  0  0  0  0  0  0
   -1.9023    0.9542   -2.5653 H   0  0  0  0  0  0  0  0  0  0  0  0
   -3.8739    0.1376   -1.3960 H   0  0  0  0  0  0  0  0  0  0  0  0
   -4.9180    2.2040   -0.9687 H   0  0  0  0  0  0  0  0  0  0  0  0
   -3.6965    2.7369    0.2243 H   0  0  0  0  0  0  0  0  0  0  0  0
   -4.6004   -0.0528    2.5919 H   0  0  0  0  0  0  0  0  0  0  0  0
   -3.3987    1.2845    2.3857 H   0  0  0  0  0  0  0  0  0  0  0  0
   -2.3376   -0.7964    1.9200 H   0  0  0  0  0  0  0  0  0  0  0  0
   -3.5845   -1.3236    0.7625 H   0  0  0  0  0  0  0  0  0  0  0  0
    1.7222    1.2847   -1.6892 H   0  0  0  0  0  0  0  0  0  0  0  0
    1.5098   -1.2710    1.6833 H   0  0  0  0  0  0  0  0  0  0  0  0
    3.8555    0.1200   -1.8488 H   0  0  0  0  0  0  0  0  0  0  0  0
    3.9761    1.5870   -0.7749 H   0  0  0  0  0  0  0  0  0  0  0  0
    5.9640    1.8504    0.5473 H   0  0  0  0  0  0  0  0  0  0  0  0
    8.2358    0.9974    1.2048 H   0  0  0  0  0  0  0  0  0  0  0  0
    7.3174   -2.7225   -0.6798 H   0  0  0  0  0  0  0  0  0  0  0  0
    9.5910   -1.0299    1.5869 H   0  0  0  0  0  0  0  0  0  0  0  0
    9.1844   -2.6032    0.7168 H   0  0  0  0  0  0  0  0  0  0  0  0
   11.3148    0.9304   -1.4864 H   0  0  0  0  0  0  0  0  0  0  0  0
   10.5993    1.0944    0.2058 H   0  0  0  0  0  0  0  0  0  0  0  0
    9.5077    1.0735   -1.1961 H   0  0  0  0  0  0  0  0  0  0  0  0
  -10.4270   -0.0691    0.7092 H   0  0  0  0  0  0  0  0  0  0  0  0
   -9.7053   -2.7333    0.6682 H   0  0  0  0  0  0  0  0  0  0  0  0
   -9.8845   -1.7503    2.2158 H   0  0  0  0  0  0  0  0  0  0  0  0
   -8.2973   -2.0260    1.4977 H   0  0  0  0  0  0  0  0  0  0  0  0
   -8.2469   -0.9262   -1.2546 H   0  0  0  0  0  0  0  0  0  0  0  0
   -9.8641   -0.1768   -1.6168 H   0  0  0  0  0  0  0  0  0  0  0  0
   -9.7612   -1.9647   -1.1756 H   0  0  0  0  0  0  0  0  0  0  0  0
  1  2  1  0
  2  3  1  0
  3  4  1  0
  4  5  1  0
  5  6  1  0
  6  7  1  0
  7  8  1  0
  8  9  2  0
  9 10  1  0
 10 11  2  0
 11 12  1  0
 12 13  2  0
 11 14  1  0
 14 15  1  0
 15 16  1  0
 16 17  2  0
 17 18  1  0
 18 19  2  0
 19 20  1  0
 20 21  2  0
 21 22  1  0
 19 23  1  0
 23 24  1  0
 24 25  2  0
 24 26  2  0
 24 27  1  0
  4 28  1  0
 28 29  1  0
 29 30  1  0
 30 31  2  0
 31 32  1  0
 31 33  1  0
 33 34  1  0
 33 35  1  0
  7  2  1  0
 13  8  1  0
 21 16  1  0
 32 28  2  0
  1 36  1  0
  1 37  1  0
  1 38  1  0
  2 39  1  6
  3 40  1  0
  3 41  1  0
  5 42  1  0
  5 43  1  0
  6 44  1  0
  6 45  1  0
 10 46  1  0
 12 47  1  0
 15 48  1  0
 15 49  1  0
 17 50  1  0
 18 51  1  0
 20 52  1  0
 23 53  1  0
 23 54  1  0
 27 55  1  0
 27 56  1  0
 27 57  1  0
 33 58  1  0
 34 59  1  0
 34 60  1  0
 34 61  1  0
 35 62  1  0
 35 63  1  0
 35 64  1  0
M  END
>  <Ligand ID>  (1) 
LIG0005272

>  <Ligand>  (1) 
CHEMBL3358013

>  <SMILES>  (1) 
C[C@@H]1CN(CCN1c1ncc(cn1)OCc1ccc(cc1F)CS(=O)(=O)C)c1onc(n1)C(C)C

>  <CID>  (1) 
118722586.0

>  <ChEMBL ID>  (1) 
nan

>  <InChiKey>  (1) 
HGOCZXVINVMQGD-MRXNPFEDSA-N

>  <InChi>  (1) 
InChI=1S/C23H29FN6O4S/c1-15(2)21-27-23(34-28-21)29-7-8-30(16(3)12-29)22-25-10-19(11-26-22)33-13-18-6-5-17(9-20(18)24)14-35(4,31)32/h5-6,9-11,15-16H,7-8,12-14H2,1-4H3/t16-/m1/s1

>  <IUPAC Name>  (1) 
5-[(3R)-4-[5-[[2-fluoro-4-(methylsulfonylmethyl)phenyl]methoxy]pyrimidin-2-yl]-3-methylpiperazin-1-yl]-3-propan-2-yl-1,2,4-oxadiazole

$$$$
