
     RDKit          3D

 55 57  0  0  0  0  0  0  0  0999 V2000
    6.0142    2.8519   -1.3031 C   0  0  0  0  0  0  0  0  0  0  0  0
    6.8635    1.7611   -0.6925 C   0  0  0  0  0  0  0  0  0  0  0  0
    6.2229    0.4483   -0.9588 C   0  0  0  0  0  0  0  0  0  0  0  0
    6.6124   -0.4617   -1.8704 N   0  0  0  0  0  0  0  0  0  0  0  0
    5.7899   -1.5048   -1.8085 N   0  0  0  0  0  0  0  0  0  0  0  0
    4.8589   -1.2796   -0.8548 C   0  0  0  0  0  0  0  0  0  0  0  0
    5.1159   -0.0439   -0.3022 C   0  0  0  0  0  0  0  0  0  0  0  0
    4.2736    0.3808    0.6992 C   0  0  0  0  0  0  0  0  0  0  0  0
    3.2248   -0.4134    1.1143 C   0  0  0  0  0  0  0  0  0  0  0  0
    2.9418   -1.6487    0.5840 C   0  0  0  0  0  0  0  0  0  0  0  0
    3.8135   -2.0702   -0.4406 C   0  0  0  0  0  0  0  0  0  0  0  0
    1.9502   -2.4879    0.9191 O   0  0  0  0  0  0  0  0  0  0  0  0
    0.9165   -2.4659    1.8191 C   0  0  0  0  0  0  0  0  0  0  0  0
   -0.1175   -1.4184    1.6936 C   0  0  0  0  0  0  0  0  0  0  0  0
   -0.8440   -1.3902    0.4671 N   0  0  0  0  0  0  0  0  0  0  0  0
   -1.7166   -2.4634    0.1854 C   0  0  0  0  0  0  0  0  0  0  0  0
   -2.3844   -2.2364   -1.1269 C   0  0  1  0  0  0  0  0  0  0  0  0
   -3.3831   -1.1598   -1.0746 C   0  0  0  0  0  0  0  0  0  0  0  0
   -4.0182   -0.8257   -2.2647 C   0  0  0  0  0  0  0  0  0  0  0  0
   -4.9734    0.1609   -2.3495 C   0  0  0  0  0  0  0  0  0  0  0  0
   -5.2904    0.8304   -1.1744 C   0  0  0  0  0  0  0  0  0  0  0  0
   -4.7060    0.5545    0.0306 C   0  0  0  0  0  0  0  0  0  0  0  0
   -3.7392   -0.4615    0.0554 C   0  0  0  0  0  0  0  0  0  0  0  0
   -4.9809    1.1830    1.2556 N   0  0  0  0  0  0  0  0  0  0  0  0
   -5.1152    2.8651    1.5331 S   0  0  0  0  0  0  0  0  0  0  0  0
   -3.8381    3.4946    1.0081 O   0  0  0  0  0  0  0  0  0  0  0  0
   -5.2829    3.1812    2.9941 O   0  0  0  0  0  0  0  0  0  0  0  0
   -6.4592    3.5104    0.5752 C   0  0  0  0  0  0  0  0  0  0  0  0
   -1.4964   -2.1347   -2.1901 O   0  0  0  0  0  0  0  0  0  0  0  0
    5.7730    3.6295   -0.5553 H   0  0  0  0  0  0  0  0  0  0  0  0
    5.0935    2.4649   -1.7891 H   0  0  0  0  0  0  0  0  0  0  0  0
    6.6495    3.3515   -2.0872 H   0  0  0  0  0  0  0  0  0  0  0  0
    7.9056    1.7773   -1.0746 H   0  0  0  0  0  0  0  0  0  0  0  0
    6.9115    1.9316    0.3884 H   0  0  0  0  0  0  0  0  0  0  0  0
    7.4090   -0.4263   -2.5429 H   0  0  0  0  0  0  0  0  0  0  0  0
    4.4881    1.3565    1.1267 H   0  0  0  0  0  0  0  0  0  0  0  0
    2.6098   -0.0265    1.9058 H   0  0  0  0  0  0  0  0  0  0  0  0
    3.6668   -3.0325   -0.9176 H   0  0  0  0  0  0  0  0  0  0  0  0
    0.5126   -3.5028    1.8958 H   0  0  0  0  0  0  0  0  0  0  0  0
    1.3847   -2.3137    2.8464 H   0  0  0  0  0  0  0  0  0  0  0  0
    0.3170   -0.4252    1.8746 H   0  0  0  0  0  0  0  0  0  0  0  0
   -0.8986   -1.5250    2.5090 H   0  0  0  0  0  0  0  0  0  0  0  0
   -1.0518   -0.4803    0.0598 H   0  0  0  0  0  0  0  0  0  0  0  0
   -1.1446   -3.4143    0.2321 H   0  0  0  0  0  0  0  0  0  0  0  0
   -2.4745   -2.5572    0.9878 H   0  0  0  0  0  0  0  0  0  0  0  0
   -2.9729   -3.1805   -1.3369 H   0  0  0  0  0  0  0  0  0  0  0  0
   -3.7680   -1.3497   -3.1762 H   0  0  0  0  0  0  0  0  0  0  0  0
   -5.4708    0.4254   -3.2693 H   0  0  0  0  0  0  0  0  0  0  0  0
   -6.0351    1.5937   -1.2489 H   0  0  0  0  0  0  0  0  0  0  0  0
   -3.2591   -0.7030    0.9852 H   0  0  0  0  0  0  0  0  0  0  0  0
   -5.1186    0.5496    2.0909 H   0  0  0  0  0  0  0  0  0  0  0  0
   -7.2492    2.7424    0.4258 H   0  0  0  0  0  0  0  0  0  0  0  0
   -6.0683    3.8080   -0.4214 H   0  0  0  0  0  0  0  0  0  0  0  0
   -6.8838    4.4270    1.0629 H   0  0  0  0  0  0  0  0  0  0  0  0
   -0.5785   -1.8766   -1.9269 H   0  0  0  0  0  0  0  0  0  0  0  0
  1  2  1  0
  2  3  1  0
  3  4  1  0
  4  5  1  0
  5  6  2  0
  6  7  1  0
  7  8  1  0
  8  9  2  0
  9 10  1  0
 10 11  2  0
 10 12  1  0
 12 13  1  0
 13 14  1  0
 14 15  1  0
 15 16  1  0
 16 17  1  0
 17 18  1  0
 18 19  2  0
 19 20  1  0
 20 21  2  0
 21 22  1  0
 22 23  2  0
 22 24  1  0
 24 25  1  0
 25 26  2  0
 25 27  2  0
 25 28  1  0
 17 29  1  0
  7  3  2  0
 23 18  1  0
 11  6  1  0
  1 30  1  0
  1 31  1  0
  1 32  1  0
  2 33  1  0
  2 34  1  0
  4 35  1  0
  8 36  1  0
  9 37  1  0
 11 38  1  0
 13 39  1  0
 13 40  1  0
 14 41  1  0
 14 42  1  0
 15 43  1  0
 16 44  1  0
 16 45  1  0
 17 46  1  6
 19 47  1  0
 20 48  1  0
 21 49  1  0
 23 50  1  0
 24 51  1  0
 28 52  1  0
 28 53  1  0
 28 54  1  0
 29 55  1  0
M  END
>  <Ligand ID>  (1) 
LIG0001753

>  <Ligand>  (1) 
CHEMBL3601204

>  <SMILES>  (1) 
CCc1[nH]nc2c1ccc(c2)OCCNC[C@@H](c1cccc(c1)NS(=O)(=O)C)O

>  <CID>  (1) 
45381852.0

>  <ChEMBL ID>  (1) 
nan

>  <InChiKey>  (1) 
MBJXNRMFNNYLBI-FQEVSTJZSA-N

>  <InChi>  (1) 
InChI=1S/C20H26N4O4S/c1-3-18-17-8-7-16(12-19(17)23-22-18)28-10-9-21-13-20(25)14-5-4-6-15(11-14)24-29(2,26)27/h4-8,11-12,20-21,24-25H,3,9-10,13H2,1-2H3,(H,22,23)/t20-/m0/s1

>  <IUPAC Name>  (1) 
N-[3-[(1R)-2-[2-[(3-ethyl-2H-indazol-6-yl)oxy]ethylamino]-1-hydroxyethyl]phenyl]methanesulfonamide

$$$$
