
     RDKit          3D

 37 38  0  0  0  0  0  0  0  0999 V2000
   -4.0891    1.4835    1.2534 C   0  0  0  0  0  0  0  0  0  0  0  0
   -3.7135    1.3938   -0.1898 C   0  0  0  0  0  0  0  0  0  0  0  0
   -3.7022   -0.0197   -0.7052 C   0  0  0  0  0  0  0  0  0  0  0  0
   -2.7966   -0.9039   -0.0423 N   0  0  0  0  0  0  0  0  0  0  0  0
   -1.3866   -0.5944   -0.0701 C   0  0  0  0  0  0  0  0  0  0  0  0
   -1.1101    0.4547   -0.6990 O   0  0  0  0  0  0  0  0  0  0  0  0
   -0.4226   -1.4572    0.5886 C   0  0  0  0  0  0  0  0  0  0  0  0
   -0.8453   -2.5838    1.2494 C   0  0  0  0  0  0  0  0  0  0  0  0
    0.0347   -3.4540    1.9029 C   0  0  0  0  0  0  0  0  0  0  0  0
    1.3683   -3.1730    1.8837 C   0  0  0  0  0  0  0  0  0  0  0  0
    1.7801   -2.0434    1.2198 C   0  0  0  0  0  0  0  0  0  0  0  0
    0.9212   -1.1742    0.5694 C   0  0  0  0  0  0  0  0  0  0  0  0
    1.4896   -0.0477   -0.0740 N   0  0  0  0  0  0  0  0  0  0  0  0
    2.9554    0.1295   -0.0120 C   0  0  0  0  0  0  0  0  0  0  0  0
    3.4135    1.3318   -0.7162 C   0  0  0  0  0  0  0  0  0  0  0  0
    3.5306    2.5752   -0.0838 C   0  0  0  0  0  0  0  0  0  0  0  0
    3.9734    3.4480   -1.0158 N   0  0  0  0  0  0  0  0  0  0  0  0
    4.1320    2.7939   -2.1884 C   0  0  0  0  0  0  0  0  0  0  0  0
    3.7859    1.4902   -1.9994 N   0  0  0  0  0  0  0  0  0  0  0  0
   -4.7919    0.7346    1.6167 H   0  0  0  0  0  0  0  0  0  0  0  0
   -4.5160    2.5145    1.4261 H   0  0  0  0  0  0  0  0  0  0  0  0
   -3.1290    1.5128    1.8445 H   0  0  0  0  0  0  0  0  0  0  0  0
   -4.5493    1.9071   -0.7534 H   0  0  0  0  0  0  0  0  0  0  0  0
   -2.8183    1.9793   -0.3737 H   0  0  0  0  0  0  0  0  0  0  0  0
   -3.5512   -0.0166   -1.8256 H   0  0  0  0  0  0  0  0  0  0  0  0
   -4.7380   -0.3943   -0.5819 H   0  0  0  0  0  0  0  0  0  0  0  0
   -3.1802   -1.7401    0.4379 H   0  0  0  0  0  0  0  0  0  0  0  0
   -1.8891   -2.8941    1.3214 H   0  0  0  0  0  0  0  0  0  0  0  0
   -0.3118   -4.3361    2.4184 H   0  0  0  0  0  0  0  0  0  0  0  0
    2.0637   -3.8407    2.3876 H   0  0  0  0  0  0  0  0  0  0  0  0
    2.8614   -1.8608    1.2328 H   0  0  0  0  0  0  0  0  0  0  0  0
    1.0040    0.6839   -0.5933 H   0  0  0  0  0  0  0  0  0  0  0  0
    3.4287   -0.8090   -0.4215 H   0  0  0  0  0  0  0  0  0  0  0  0
    3.2204    0.1418    1.0653 H   0  0  0  0  0  0  0  0  0  0  0  0
    3.3038    2.7921    0.9697 H   0  0  0  0  0  0  0  0  0  0  0  0
    4.4769    3.2496   -3.1087 H   0  0  0  0  0  0  0  0  0  0  0  0
    3.7972    0.7267   -2.7051 H   0  0  0  0  0  0  0  0  0  0  0  0
  1  2  1  0
  2  3  1  0
  3  4  1  0
  4  5  1  0
  5  6  2  0
  5  7  1  0
  7  8  2  0
  8  9  1  0
  9 10  2  0
 10 11  1  0
 11 12  2  0
 12 13  1  0
 13 14  1  0
 14 15  1  0
 15 16  2  0
 16 17  1  0
 17 18  2  0
 18 19  1  0
 12  7  1  0
 19 15  1  0
  1 20  1  0
  1 21  1  0
  1 22  1  0
  2 23  1  0
  2 24  1  0
  3 25  1  0
  3 26  1  0
  4 27  1  0
  8 28  1  0
  9 29  1  0
 10 30  1  0
 11 31  1  0
 13 32  1  0
 14 33  1  0
 14 34  1  0
 16 35  1  0
 18 36  1  0
 19 37  1  0
M  END
>  <Ligand ID>  (1) 
LIG0004351

>  <Ligand>  (1) 
CHEMBL325745

>  <SMILES>  (1) 
CCCNC(=O)c1ccccc1NCc1cnc[nH]1

>  <CID>  (1) 
44343247.0

>  <ChEMBL ID>  (1) 
nan

>  <InChiKey>  (1) 
JFEAROLAZKGICP-UHFFFAOYSA-N

>  <InChi>  (1) 
InChI=1S/C14H18N4O/c1-2-7-16-14(19)12-5-3-4-6-13(12)17-9-11-8-15-10-18-11/h3-6,8,10,17H,2,7,9H2,1H3,(H,15,18)(H,16,19)

>  <IUPAC Name>  (1) 
2-(1H-imidazol-5-ylmethylamino)-N-propylbenzamide

$$$$
