
     RDKit          3D

 34 37  0  0  0  0  0  0  0  0999 V2000
   -0.7285   -3.1304    1.2680 F   0  0  0  0  0  0  0  0  0  0  0  0
    0.4043   -2.4621    0.9892 C   0  0  0  0  0  0  0  0  0  0  0  0
    1.5850   -3.2031    1.0714 C   0  0  0  0  0  0  0  0  0  0  0  0
    2.8126   -2.6370    0.8107 C   0  0  0  0  0  0  0  0  0  0  0  0
    2.8250   -1.3051    0.4655 C   0  0  0  0  0  0  0  0  0  0  0  0
    1.6425   -0.5482    0.3801 C   0  0  0  0  0  0  0  0  0  0  0  0
    0.4238   -1.1106    0.6374 C   0  0  0  0  0  0  0  0  0  0  0  0
   -0.8074   -0.3428    0.5350 C   0  0  0  0  0  0  0  0  0  0  0  0
   -2.0608   -1.2400    0.5687 C   0  0  0  0  0  0  0  0  0  0  0  0
   -3.0547   -0.2174    0.0599 C   0  0  0  0  0  0  0  0  0  0  0  0
   -2.4193    0.6107   -0.7883 N   0  0  0  0  0  0  0  0  0  0  0  0
   -1.0314    0.2007   -0.8872 C   0  0  0  0  0  0  0  0  0  0  0  0
   -3.2753    1.5401   -1.2636 C   0  0  0  0  0  0  0  0  0  0  0  0
   -4.4965    1.2683   -0.6777 C   0  0  0  0  0  0  0  0  0  0  0  0
   -4.3432    0.1845    0.1333 N   0  0  0  0  0  0  0  0  0  0  0  0
    1.8506    0.8560    0.0480 C   0  0  0  0  0  0  0  0  0  0  0  0
    1.4130    1.9039    0.8251 C   0  0  0  0  0  0  0  0  0  0  0  0
    1.6103    3.1955    0.4899 N   0  0  0  0  0  0  0  0  0  0  0  0
    2.2767    3.4171   -0.6772 C   0  0  0  0  0  0  0  0  0  0  0  0
    2.7136    2.4040   -1.4521 N   0  0  0  0  0  0  0  0  0  0  0  0
    2.5323    1.1079   -1.1454 C   0  0  0  0  0  0  0  0  0  0  0  0
    1.5673   -4.2485    1.3438 H   0  0  0  0  0  0  0  0  0  0  0  0
    3.7196   -3.1983    0.8712 H   0  0  0  0  0  0  0  0  0  0  0  0
    3.7925   -0.8671    0.2622 H   0  0  0  0  0  0  0  0  0  0  0  0
   -1.0001    0.4247    1.2746 H   0  0  0  0  0  0  0  0  0  0  0  0
   -2.0327   -1.9969   -0.2122 H   0  0  0  0  0  0  0  0  0  0  0  0
   -2.3168   -1.5585    1.5792 H   0  0  0  0  0  0  0  0  0  0  0  0
   -0.3595    0.9844   -1.1842 H   0  0  0  0  0  0  0  0  0  0  0  0
   -1.0251   -0.6960   -1.5390 H   0  0  0  0  0  0  0  0  0  0  0  0
   -3.0425    2.3427   -1.9694 H   0  0  0  0  0  0  0  0  0  0  0  0
   -5.3893    1.8312   -0.8518 H   0  0  0  0  0  0  0  0  0  0  0  0
    0.8941    1.7256    1.7520 H   0  0  0  0  0  0  0  0  0  0  0  0
    2.4343    4.4699   -0.9448 H   0  0  0  0  0  0  0  0  0  0  0  0
    2.8857    0.2949   -1.7722 H   0  0  0  0  0  0  0  0  0  0  0  0
  1  2  1  0
  2  3  2  0
  3  4  1  0
  4  5  2  0
  5  6  1  0
  6  7  2  0
  7  8  1  0
  8  9  1  0
  9 10  1  0
 10 11  1  0
 11 12  1  0
 11 13  1  0
 13 14  2  0
 14 15  1  0
  6 16  1  0
 16 17  2  0
 17 18  1  0
 18 19  2  0
 19 20  1  0
 20 21  2  0
  7  2  1  0
 12  8  1  0
 21 16  1  0
 15 10  2  0
  3 22  1  0
  4 23  1  0
  5 24  1  0
  8 25  1  0
  9 26  1  0
  9 27  1  0
 12 28  1  0
 12 29  1  0
 13 30  1  0
 14 31  1  0
 17 32  1  0
 19 33  1  0
 21 34  1  0
M  END
>  <Ligand ID>  (1) 
LIG0002870

>  <Ligand>  (1) 
CHEMBL467259

>  <SMILES>  (1) 
Fc1cccc(c1C1Cc2n(C1)ccn2)c1cncnc1

>  <CID>  (1) 
44574132.0

>  <ChEMBL ID>  (1) 
nan

>  <InChiKey>  (1) 
MXXSIQQCMWZCJR-UHFFFAOYSA-N

>  <InChi>  (1) 
InChI=1S/C16H13FN4/c17-14-3-1-2-13(12-7-18-10-19-8-12)16(14)11-6-15-20-4-5-21(15)9-11/h1-5,7-8,10-11H,6,9H2

>  <IUPAC Name>  (1) 
6-(2-fluoro-6-pyrimidin-5-ylphenyl)-6,7-dihydro-5H-pyrrolo[1,2-a]imidazole

$$$$
