
     RDKit          3D

 46 47  0  0  0  0  0  0  0  0999 V2000
   -5.8715   -1.7443   -0.0660 C   0  0  0  0  0  0  0  0  0  0  0  0
   -4.8533   -1.3267   -1.1256 C   0  0  0  0  0  0  0  0  0  0  0  0
   -3.7730   -0.5933   -0.5118 N   0  0  0  0  0  0  0  0  0  0  0  0
   -2.6628   -1.2172   -0.0182 C   0  0  0  0  0  0  0  0  0  0  0  0
   -2.4135   -2.6388   -0.0442 N   0  0  0  0  0  0  0  0  0  0  0  0
   -1.8239   -0.3043    0.5008 N   0  0  0  0  0  0  0  0  0  0  0  0
   -2.4087    0.9141    0.3329 C   0  0  0  0  0  0  0  0  0  0  0  0
   -3.6387    0.7146   -0.3065 C   0  0  0  0  0  0  0  0  0  0  0  0
   -4.4773    1.7949   -0.6097 C   0  0  0  0  0  0  0  0  0  0  0  0
   -4.0650    3.0647   -0.2657 C   0  0  0  0  0  0  0  0  0  0  0  0
   -2.8534    3.2255    0.3595 C   0  0  0  0  0  0  0  0  0  0  0  0
   -2.0045    2.1905    0.6743 C   0  0  0  0  0  0  0  0  0  0  0  0
   -0.5898   -0.6158    1.1422 C   0  0  0  0  0  0  0  0  0  0  0  0
    0.6158   -0.6920    0.3235 C   0  0  0  0  0  0  0  0  0  0  0  0
    0.6047   -1.4139   -0.7276 O   0  0  0  0  0  0  0  0  0  0  0  0
    1.7631    0.0387    0.7307 N   0  0  0  0  0  0  0  0  0  0  0  0
    3.0153    0.0466    0.0767 C   0  0  0  0  0  0  0  0  0  0  0  0
    3.4137    0.8638   -0.9195 C   0  0  0  0  0  0  0  0  0  0  0  0
    4.7001    0.7930   -1.4689 C   0  0  0  0  0  0  0  0  0  0  0  0
    5.5749   -0.1408   -0.9685 C   0  0  0  0  0  0  0  0  0  0  0  0
    5.2059   -0.9979    0.0518 C   0  0  0  0  0  0  0  0  0  0  0  0
    3.9383   -0.8874    0.5520 C   0  0  0  0  0  0  0  0  0  0  0  0
    7.2706   -0.3110   -1.5614 S   0  0  0  0  0  0  0  0  0  0  0  0
    8.3678    0.6612   -0.4457 C   0  0  0  0  0  0  0  0  0  0  0  0
    8.3424    0.0486    0.8248 F   0  0  0  0  0  0  0  0  0  0  0  0
    9.6512    0.6985   -0.9042 F   0  0  0  0  0  0  0  0  0  0  0  0
    0.0000    0.0000    0.0000 Cl  0  0  0  0  0  0  0  0  0  0  0  0
   -6.7435   -2.1772   -0.6041 H   0  0  0  0  0  0  0  0  0  0  0  0
   -5.4539   -2.5376    0.5977 H   0  0  0  0  0  0  0  0  0  0  0  0
   -6.2809   -0.8884    0.4961 H   0  0  0  0  0  0  0  0  0  0  0  0
   -4.5426   -2.2286   -1.6649 H   0  0  0  0  0  0  0  0  0  0  0  0
   -5.4074   -0.6145   -1.8049 H   0  0  0  0  0  0  0  0  0  0  0  0
   -2.2475   -3.1068    0.8722 H   0  0  0  0  0  0  0  0  0  0  0  0
   -2.3954   -3.1721   -0.9435 H   0  0  0  0  0  0  0  0  0  0  0  0
   -5.4308    1.6159   -1.1060 H   0  0  0  0  0  0  0  0  0  0  0  0
   -4.7442    3.8729   -0.5105 H   0  0  0  0  0  0  0  0  0  0  0  0
   -2.5682    4.2598    0.6105 H   0  0  0  0  0  0  0  0  0  0  0  0
   -1.0598    2.3410    1.1612 H   0  0  0  0  0  0  0  0  0  0  0  0
   -0.6620   -1.6286    1.6660 H   0  0  0  0  0  0  0  0  0  0  0  0
   -0.3941    0.0673    2.0187 H   0  0  0  0  0  0  0  0  0  0  0  0
    1.7015    0.6469    1.6081 H   0  0  0  0  0  0  0  0  0  0  0  0
    2.6929    1.5909   -1.2960 H   0  0  0  0  0  0  0  0  0  0  0  0
    5.0175    1.4521   -2.2759 H   0  0  0  0  0  0  0  0  0  0  0  0
    5.8866   -1.7474    0.4691 H   0  0  0  0  0  0  0  0  0  0  0  0
    3.6749   -1.5745    1.3608 H   0  0  0  0  0  0  0  0  0  0  0  0
    7.9285    1.6572   -0.3207 H   0  0  0  0  0  0  0  0  0  0  0  0
  1  2  1  0
  2  3  1  0
  3  4  1  0
  4  5  1  0
  4  6  2  0
  6  7  1  0
  7  8  2  0
  8  9  1  0
  9 10  2  0
 10 11  1  0
 11 12  2  0
  6 13  1  0
 13 14  1  0
 14 15  2  0
 14 16  1  0
 16 17  1  0
 17 18  2  0
 18 19  1  0
 19 20  2  0
 20 21  1  0
 21 22  2  0
 20 23  1  0
 23 24  1  0
 24 25  1  0
 24 26  1  0
  8  3  1  0
 22 17  1  0
 12  7  1  0
  1 28  1  0
  1 29  1  0
  1 30  1  0
  2 31  1  0
  2 32  1  0
  5 33  1  0
  5 34  1  0
  9 35  1  0
 10 36  1  0
 11 37  1  0
 12 38  1  0
 13 39  1  0
 13 40  1  0
 16 41  1  0
 18 42  1  0
 19 43  1  0
 21 44  1  0
 22 45  1  0
 24 46  1  0
M  CHG  2   6   1  27  -1
M  END
>  <Ligand ID>  (1) 
LIG0004399

>  <Ligand>  (1) 
MLS001033583

>  <SMILES>  (1) 
CCn1c(N)[n+](c2c1cccc2)CC(=O)Nc1ccc(cc1)SC(F)F.[Cl-]

>  <CID>  (1) 
16196363.0

>  <ChEMBL ID>  (1) 
nan

>  <InChiKey>  (1) 
PJSLRBBNULLKSO-UHFFFAOYSA-N

>  <InChi>  (1) 
InChI=1S/C18H18F2N4OS.ClH/c1-2-23-14-5-3-4-6-15(14)24(18(23)21)11-16(25)22-12-7-9-13(10-8-12)26-17(19)20;/h3-10,17,21H,2,11H2,1H3,(H,22,25);1H

>  <IUPAC Name>  (1) 
2-(2-amino-3-ethylbenzimidazol-1-ium-1-yl)-N-[4-(difluoromethylsulfanyl)phenyl]acetamide;chloride

$$$$
