
     RDKit          3D

 82 86  0  0  0  0  0  0  0  0999 V2000
    9.5537    3.1654    3.2166 C   0  0  0  0  0  0  0  0  0  0  0  0
   10.4081    2.3520    2.2951 C   0  0  0  0  0  0  0  0  0  0  0  0
    9.9454    0.9365    2.1119 C   0  0  0  0  0  0  0  0  0  0  0  0
    8.5515    0.8206    1.5357 C   0  0  0  0  0  0  0  0  0  0  0  0
    8.4386    1.4631    0.1835 C   0  0  0  0  0  0  0  0  0  0  0  0
    7.0440    1.3449   -0.3929 C   0  0  0  0  0  0  0  0  0  0  0  0
    6.6923   -0.0550   -0.5336 N   0  0  0  0  0  0  0  0  0  0  0  0
    5.4146   -0.4677   -1.0623 C   0  0  0  0  0  0  0  0  0  0  0  0
    4.5563    0.3747   -1.4239 O   0  0  0  0  0  0  0  0  0  0  0  0
    5.1588   -1.8635   -1.1607 N   0  0  0  0  0  0  0  0  0  0  0  0
    3.9435   -2.4028   -1.6648 C   0  0  0  0  0  0  0  0  0  0  0  0
    3.9121   -2.6457   -3.0392 C   0  0  0  0  0  0  0  0  0  0  0  0
    2.7928   -3.1606   -3.6112 C   0  0  0  0  0  0  0  0  0  0  0  0
    1.6674   -3.4517   -2.8395 C   0  0  0  0  0  0  0  0  0  0  0  0
    1.7057   -3.2090   -1.4826 C   0  0  0  0  0  0  0  0  0  0  0  0
    2.8485   -2.6792   -0.8731 C   0  0  0  0  0  0  0  0  0  0  0  0
    0.2689   -4.1144   -3.6529 S   0  0  0  0  0  0  0  0  0  0  0  0
    0.7533   -4.8987   -4.8386 O   0  0  0  0  0  0  0  0  0  0  0  0
   -0.4826   -5.0660   -2.7677 O   0  0  0  0  0  0  0  0  0  0  0  0
   -0.7089   -2.8050   -4.1717 N   0  0  0  0  0  0  0  0  0  0  0  0
   -1.2865   -1.8832   -3.2575 C   0  0  0  0  0  0  0  0  0  0  0  0
   -1.2632   -0.5178   -3.4553 C   0  0  0  0  0  0  0  0  0  0  0  0
   -1.8324    0.3591   -2.5511 C   0  0  0  0  0  0  0  0  0  0  0  0
   -2.4432   -0.1322   -1.4170 C   0  0  0  0  0  0  0  0  0  0  0  0
   -2.4831   -1.4893   -1.1909 C   0  0  0  0  0  0  0  0  0  0  0  0
   -1.9116   -2.3531   -2.1005 C   0  0  0  0  0  0  0  0  0  0  0  0
   -3.0978   -1.9561   -0.0533 C   0  0  0  0  0  0  0  0  0  0  0  0
   -3.6697   -1.0505    0.8507 C   0  0  0  0  0  0  0  0  0  0  0  0
   -3.6484    0.3034    0.6556 C   0  0  0  0  0  0  0  0  0  0  0  0
   -3.0087    0.7382   -0.5211 C   0  0  0  0  0  0  0  0  0  0  0  0
   -4.1641    1.2718    1.4437 O   0  0  0  0  0  0  0  0  0  0  0  0
   -4.8720    1.1834    2.6274 C   0  0  0  0  0  0  0  0  0  0  0  0
   -6.1881    0.5211    2.4706 C   0  0  0  0  0  0  0  0  0  0  0  0
   -6.9166    0.4074    3.7322 N   0  0  0  0  0  0  0  0  0  0  0  0
   -8.2210   -0.1490    3.5629 C   0  0  0  0  0  0  0  0  0  0  0  0
   -8.5892   -0.4915    2.1369 C   0  0  0  0  0  0  0  0  0  0  0  0
   -8.3339    0.7664    1.3453 C   0  0  0  0  0  0  0  0  0  0  0  0
   -7.0503    1.3002    1.5364 C   0  0  0  0  0  0  0  0  0  0  0  0
   -6.7065    2.4288    0.8883 C   0  0  0  0  0  0  0  0  0  0  0  0
   -7.6102    3.0603    0.0380 C   0  0  0  0  0  0  0  0  0  0  0  0
   -7.2661    4.2208   -0.6332 O   0  0  0  0  0  0  0  0  0  0  0  0
   -8.8838    2.5048   -0.1339 C   0  0  0  0  0  0  0  0  0  0  0  0
   -9.2537    1.3386    0.5300 C   0  0  0  0  0  0  0  0  0  0  0  0
   -9.7822    3.1455   -0.9885 O   0  0  0  0  0  0  0  0  0  0  0  0
    9.0383    3.9683    2.6653 H   0  0  0  0  0  0  0  0  0  0  0  0
    8.7849    2.5903    3.7641 H   0  0  0  0  0  0  0  0  0  0  0  0
   10.1637    3.6670    4.0213 H   0  0  0  0  0  0  0  0  0  0  0  0
   10.5467    2.8493    1.3001 H   0  0  0  0  0  0  0  0  0  0  0  0
   11.4252    2.2971    2.7360 H   0  0  0  0  0  0  0  0  0  0  0  0
   10.6387    0.4130    1.4536 H   0  0  0  0  0  0  0  0  0  0  0  0
    9.9345    0.4469    3.1077 H   0  0  0  0  0  0  0  0  0  0  0  0
    7.7862    1.2179    2.2234 H   0  0  0  0  0  0  0  0  0  0  0  0
    8.3513   -0.2644    1.4347 H   0  0  0  0  0  0  0  0  0  0  0  0
    8.6379    2.5674    0.2429 H   0  0  0  0  0  0  0  0  0  0  0  0
    9.1586    1.0782   -0.5444 H   0  0  0  0  0  0  0  0  0  0  0  0
    6.3250    1.8993    0.2493 H   0  0  0  0  0  0  0  0  0  0  0  0
    7.0515    1.7517   -1.4292 H   0  0  0  0  0  0  0  0  0  0  0  0
    7.3633   -0.8100   -0.2529 H   0  0  0  0  0  0  0  0  0  0  0  0
    5.8784   -2.5844   -0.8560 H   0  0  0  0  0  0  0  0  0  0  0  0
    4.7638   -2.4330   -3.6717 H   0  0  0  0  0  0  0  0  0  0  0  0
    2.7790   -3.3474   -4.6930 H   0  0  0  0  0  0  0  0  0  0  0  0
    0.8345   -3.4323   -0.8768 H   0  0  0  0  0  0  0  0  0  0  0  0
    2.8969   -2.4834    0.1886 H   0  0  0  0  0  0  0  0  0  0  0  0
   -0.9015   -2.6584   -5.1867 H   0  0  0  0  0  0  0  0  0  0  0  0
   -0.7856   -0.1569   -4.3397 H   0  0  0  0  0  0  0  0  0  0  0  0
   -1.7996    1.4313   -2.7328 H   0  0  0  0  0  0  0  0  0  0  0  0
   -1.9385   -3.4206   -1.9317 H   0  0  0  0  0  0  0  0  0  0  0  0
   -3.1245   -3.0198    0.1170 H   0  0  0  0  0  0  0  0  0  0  0  0
   -4.1058   -1.4785    1.7134 H   0  0  0  0  0  0  0  0  0  0  0  0
   -2.9469    1.8044   -0.7527 H   0  0  0  0  0  0  0  0  0  0  0  0
   -4.9399    2.1655    3.1632 H   0  0  0  0  0  0  0  0  0  0  0  0
   -4.2974    0.5423    3.3797 H   0  0  0  0  0  0  0  0  0  0  0  0
   -6.0806   -0.5013    2.1003 H   0  0  0  0  0  0  0  0  0  0  0  0
   -6.3596   -0.0058    4.4860 H   0  0  0  0  0  0  0  0  0  0  0  0
   -8.2433   -1.1068    4.1605 H   0  0  0  0  0  0  0  0  0  0  0  0
   -8.9883    0.4937    4.0105 H   0  0  0  0  0  0  0  0  0  0  0  0
   -8.0094   -1.3303    1.7542 H   0  0  0  0  0  0  0  0  0  0  0  0
   -9.6882   -0.6266    2.1042 H   0  0  0  0  0  0  0  0  0  0  0  0
   -5.7330    2.8680    1.0164 H   0  0  0  0  0  0  0  0  0  0  0  0
   -7.8779    5.0332   -0.6121 H   0  0  0  0  0  0  0  0  0  0  0  0
  -10.2261    0.8931    0.4144 H   0  0  0  0  0  0  0  0  0  0  0  0
  -10.2939    2.5167   -1.6140 H   0  0  0  0  0  0  0  0  0  0  0  0
  1  2  1  0
  2  3  1  0
  3  4  1  0
  4  5  1  0
  5  6  1  0
  6  7  1  0
  7  8  1  0
  8  9  2  0
  8 10  1  0
 10 11  1  0
 11 12  2  0
 12 13  1  0
 13 14  2  0
 14 15  1  0
 15 16  2  0
 14 17  1  0
 17 18  2  0
 17 19  2  0
 17 20  1  0
 20 21  1  0
 21 22  2  0
 22 23  1  0
 23 24  2  0
 24 25  1  0
 25 26  2  0
 25 27  1  0
 27 28  2  0
 28 29  1  0
 29 30  2  0
 29 31  1  0
 31 32  1  0
 32 33  1  0
 33 34  1  0
 34 35  1  0
 35 36  1  0
 36 37  1  0
 37 38  2  0
 38 39  1  0
 39 40  2  0
 40 41  1  0
 40 42  1  0
 42 43  2  0
 42 44  1  0
 16 11  1  0
 26 21  1  0
 38 33  1  0
 30 24  1  0
 43 37  1  0
  1 45  1  0
  1 46  1  0
  1 47  1  0
  2 48  1  0
  2 49  1  0
  3 50  1  0
  3 51  1  0
  4 52  1  0
  4 53  1  0
  5 54  1  0
  5 55  1  0
  6 56  1  0
  6 57  1  0
  7 58  1  0
 10 59  1  0
 12 60  1  0
 13 61  1  0
 15 62  1  0
 16 63  1  0
 20 64  1  0
 22 65  1  0
 23 66  1  0
 26 67  1  0
 27 68  1  0
 28 69  1  0
 30 70  1  0
 32 71  1  0
 32 72  1  0
 33 73  1  0
 34 74  1  0
 35 75  1  0
 35 76  1  0
 36 77  1  0
 36 78  1  0
 39 79  1  0
 41 80  1  0
 43 81  1  0
 44 82  1  0
M  END
>  <Ligand ID>  (1) 
LIG0004315

>  <Ligand>  (1) 
CHEMBL76403

>  <SMILES>  (1) 
CCCCCCNC(=O)Nc1ccc(cc1)S(=O)(=O)Nc1ccc2c(c1)ccc(c2)OCC1NCCc2c1cc(O)c(c2)O

>  <CID>  (1) 
9896742.0

>  <ChEMBL ID>  (1) 
nan

>  <InChiKey>  (1) 
GDXZPGVRXBBEKQ-UHFFFAOYSA-N

>  <InChi>  (1) 
InChI=1S/C33H38N4O6S/c1-2-3-4-5-15-35-33(40)36-25-9-12-28(13-10-25)44(41,42)37-26-8-6-23-18-27(11-7-22(23)17-26)43-21-30-29-20-32(39)31(38)19-24(29)14-16-34-30/h6-13,17-20,30,34,37-39H,2-5,14-16,21H2,1H3,(H2,35,36,40)

>  <IUPAC Name>  (1) 
1-[4-[[6-[(6,7-dihydroxy-1,2,3,4-tetrahydroisoquinolin-1-yl)methoxy]naphthalen-2-yl]sulfamoyl]phenyl]-3-hexylurea

$$$$
