
     RDKit          3D

 60 61  0  0  0  0  0  0  0  0999 V2000
    7.5506   -1.6694   -0.3366 C   0  0  0  0  0  0  0  0  0  0  0  0
    8.2057   -0.3079   -0.2612 C   0  0  0  0  0  0  0  0  0  0  0  0
    7.1659    0.6525    0.2892 C   0  0  0  0  0  0  0  0  0  0  0  0
    6.0336    0.6963   -0.6564 C   0  0  0  0  0  0  0  0  0  0  0  0
    6.3596    0.8811   -1.8833 O   0  0  0  0  0  0  0  0  0  0  0  0
    4.6304    0.5562   -0.3426 C   0  0  0  0  0  0  0  0  0  0  0  0
    4.1935    0.2856    0.9343 C   0  0  0  0  0  0  0  0  0  0  0  0
    2.8435    0.1322    1.1939 C   0  0  0  0  0  0  0  0  0  0  0  0
    1.8928    0.2485    0.1733 C   0  0  0  0  0  0  0  0  0  0  0  0
    2.4114    0.5300   -1.1294 C   0  0  0  0  0  0  0  0  0  0  0  0
    3.7344    0.6779   -1.3819 C   0  0  0  0  0  0  0  0  0  0  0  0
    4.1455    0.9491   -2.7017 O   0  0  0  0  0  0  0  0  0  0  0  0
    1.4541    0.6605   -2.2642 C   0  0  0  0  0  0  0  0  0  0  0  0
    0.6173    0.1321    0.2736 O   0  0  0  0  0  0  0  0  0  0  0  0
   -0.6873    0.0107    0.3870 C   0  0  0  0  0  0  0  0  0  0  0  0
   -1.3152   -1.2753    0.7999 C   0  0  0  0  0  0  0  0  0  0  0  0
   -2.8411   -1.1993    0.8493 C   0  0  0  0  0  0  0  0  0  0  0  0
   -3.3765   -0.8349   -0.4813 C   0  0  0  0  0  0  0  0  0  0  0  0
   -4.7192   -0.8132   -0.6346 O   0  0  0  0  0  0  0  0  0  0  0  0
   -5.7222   -0.1397   -0.0632 C   0  0  0  0  0  0  0  0  0  0  0  0
   -5.7083    0.7871    0.9360 C   0  0  0  0  0  0  0  0  0  0  0  0
   -6.8330    1.4181    1.4469 C   0  0  0  0  0  0  0  0  0  0  0  0
   -8.0697    1.0981    0.9168 C   0  0  0  0  0  0  0  0  0  0  0  0
   -8.1500    0.1641   -0.0992 C   0  0  0  0  0  0  0  0  0  0  0  0
   -7.0188   -0.4382   -0.5774 C   0  0  0  0  0  0  0  0  0  0  0  0
   -7.1525   -1.4453   -1.6956 C   0  0  0  0  0  0  0  0  0  0  0  0
   -9.2625    1.7518    1.4469 C   0  0  0  0  0  0  0  0  0  0  0  0
   -9.1072    2.5637    2.4173 O   0  0  0  0  0  0  0  0  0  0  0  0
  -10.5322    1.4979    0.9097 O   0  0  0  0  0  0  0  0  0  0  0  0
    9.5198   -0.2826    0.4514 C   0  0  0  0  0  0  0  0  0  0  0  0
    6.4606   -1.5582   -0.1472 H   0  0  0  0  0  0  0  0  0  0  0  0
    7.9897   -2.3644    0.4179 H   0  0  0  0  0  0  0  0  0  0  0  0
    7.6368   -2.1262   -1.3274 H   0  0  0  0  0  0  0  0  0  0  0  0
    8.4331   -0.0244   -1.3301 H   0  0  0  0  0  0  0  0  0  0  0  0
    7.6356    1.6627    0.3505 H   0  0  0  0  0  0  0  0  0  0  0  0
    6.8752    0.3720    1.3034 H   0  0  0  0  0  0  0  0  0  0  0  0
    4.9207    0.1882    1.7546 H   0  0  0  0  0  0  0  0  0  0  0  0
    2.4773   -0.0837    2.1865 H   0  0  0  0  0  0  0  0  0  0  0  0
    3.5662    1.4469   -3.3642 H   0  0  0  0  0  0  0  0  0  0  0  0
    1.1776    1.6977   -2.4258 H   0  0  0  0  0  0  0  0  0  0  0  0
    0.5885   -0.0275   -2.0324 H   0  0  0  0  0  0  0  0  0  0  0  0
    1.9572    0.2128   -3.1379 H   0  0  0  0  0  0  0  0  0  0  0  0
   -1.2381    0.4702   -0.5063 H   0  0  0  0  0  0  0  0  0  0  0  0
   -1.0332    0.7608    1.2008 H   0  0  0  0  0  0  0  0  0  0  0  0
   -1.0258   -2.0680    0.0591 H   0  0  0  0  0  0  0  0  0  0  0  0
   -0.9486   -1.5677    1.8106 H   0  0  0  0  0  0  0  0  0  0  0  0
   -3.2611   -2.1497    1.2420 H   0  0  0  0  0  0  0  0  0  0  0  0
   -3.0508   -0.3941    1.5801 H   0  0  0  0  0  0  0  0  0  0  0  0
   -2.9638    0.1844   -0.8266 H   0  0  0  0  0  0  0  0  0  0  0  0
   -2.9400   -1.5183   -1.2832 H   0  0  0  0  0  0  0  0  0  0  0  0
   -4.7691    1.0831    1.3652 H   0  0  0  0  0  0  0  0  0  0  0  0
   -6.7297    2.1627    2.2692 H   0  0  0  0  0  0  0  0  0  0  0  0
   -9.1082   -0.1216   -0.5496 H   0  0  0  0  0  0  0  0  0  0  0  0
   -6.2189   -2.0670   -1.6929 H   0  0  0  0  0  0  0  0  0  0  0  0
   -7.1905   -0.8669   -2.6646 H   0  0  0  0  0  0  0  0  0  0  0  0
   -8.0439   -2.0538   -1.5546 H   0  0  0  0  0  0  0  0  0  0  0  0
  -11.2055    2.2784    0.8297 H   0  0  0  0  0  0  0  0  0  0  0  0
    9.8034   -1.3019    0.8052 H   0  0  0  0  0  0  0  0  0  0  0  0
   10.3749    0.0162   -0.2152 H   0  0  0  0  0  0  0  0  0  0  0  0
    9.5680    0.4696    1.2851 H   0  0  0  0  0  0  0  0  0  0  0  0
  1  2  1  0
  2  3  1  0
  3  4  1  0
  4  5  2  0
  4  6  1  0
  6  7  2  0
  7  8  1  0
  8  9  2  0
  9 10  1  0
 10 11  2  0
 11 12  1  0
 10 13  1  0
  9 14  1  0
 14 15  1  0
 15 16  1  0
 16 17  1  0
 17 18  1  0
 18 19  1  0
 19 20  1  0
 20 21  2  0
 21 22  1  0
 22 23  2  0
 23 24  1  0
 24 25  2  0
 25 26  1  0
 23 27  1  0
 27 28  2  0
 27 29  1  0
  2 30  1  0
 11  6  1  0
 25 20  1  0
  1 31  1  0
  1 32  1  0
  1 33  1  0
  2 34  1  0
  3 35  1  0
  3 36  1  0
  7 37  1  0
  8 38  1  0
 12 39  1  0
 13 40  1  0
 13 41  1  0
 13 42  1  0
 15 43  1  0
 15 44  1  0
 16 45  1  0
 16 46  1  0
 17 47  1  0
 17 48  1  0
 18 49  1  0
 18 50  1  0
 21 51  1  0
 22 52  1  0
 24 53  1  0
 26 54  1  0
 26 55  1  0
 26 56  1  0
 29 57  1  0
 30 58  1  0
 30 59  1  0
 30 60  1  0
M  END
>  <Ligand ID>  (1) 
LIG0003621

>  <Ligand>  (1) 
CHEMBL3287691

>  <SMILES>  (1) 
CC(CC(=O)c1ccc(c(c1O)C)OCCCCOc1ccc(cc1C)C(=O)O)C

>  <CID>  (1) 
90643869.0

>  <ChEMBL ID>  (1) 
nan

>  <InChiKey>  (1) 
OEWHGJIKBWWFSY-UHFFFAOYSA-N

>  <InChi>  (1) 
InChI=1S/C24H30O6/c1-15(2)13-20(25)19-8-10-22(17(4)23(19)26)30-12-6-5-11-29-21-9-7-18(24(27)28)14-16(21)3/h7-10,14-15,26H,5-6,11-13H2,1-4H3,(H,27,28)

>  <IUPAC Name>  (1) 
4-[4-[3-hydroxy-2-methyl-4-(3-methylbutanoyl)phenoxy]butoxy]-3-methylbenzoic acid

$$$$
