
     RDKit          3D

 33 32  0  0  0  0  0  0  0  0999 V2000
    2.3442    1.4600    1.3563 C   0  0  0  0  0  0  0  0  0  0  0  0
    1.9936    0.2755    0.4593 C   0  0  0  0  0  0  0  0  0  0  0  0
    3.1456   -0.1561   -0.3931 C   0  0  0  0  0  0  0  0  0  0  0  0
    2.6911   -0.7213   -1.5635 O   0  0  0  0  0  0  0  0  0  0  0  0
    1.4308   -1.2999   -1.4308 C   0  0  0  0  0  0  0  0  0  0  0  0
    0.3611   -0.2803   -1.1035 C   0  0  0  0  0  0  0  0  0  0  0  0
    0.9296    0.6804   -0.3001 O   0  0  0  0  0  0  0  0  0  0  0  0
   -0.7777   -0.9183   -0.3479 C   0  0  0  0  0  0  0  0  0  0  0  0
   -1.8052   -0.0104    0.0344 N   0  0  0  0  0  0  0  0  0  0  0  0
   -1.3877    1.2208    0.6170 C   0  0  0  0  0  0  0  0  0  0  0  0
   -2.5810   -0.7019    1.0802 C   0  0  0  0  0  0  0  0  0  0  0  0
   -2.7836    0.2005   -1.0423 C   0  0  0  0  0  0  0  0  0  0  0  0
    0.0000    0.0000    0.0000 I   0  0  0  0  0  0  0  0  0  0  0  0
    3.3514    1.2731    1.8244 H   0  0  0  0  0  0  0  0  0  0  0  0
    1.6361    1.4001    2.2216 H   0  0  0  0  0  0  0  0  0  0  0  0
    2.2778    2.4130    0.8158 H   0  0  0  0  0  0  0  0  0  0  0  0
    1.7695   -0.5721    1.1369 H   0  0  0  0  0  0  0  0  0  0  0  0
    3.8015   -0.8849    0.1674 H   0  0  0  0  0  0  0  0  0  0  0  0
    3.8029    0.7020   -0.6073 H   0  0  0  0  0  0  0  0  0  0  0  0
    1.2336   -1.7726   -2.4380 H   0  0  0  0  0  0  0  0  0  0  0  0
    1.4119   -2.1684   -0.7376 H   0  0  0  0  0  0  0  0  0  0  0  0
    0.0639    0.1747   -2.0430 H   0  0  0  0  0  0  0  0  0  0  0  0
   -1.2150   -1.6788   -1.0172 H   0  0  0  0  0  0  0  0  0  0  0  0
   -0.4244   -1.4515    0.5568 H   0  0  0  0  0  0  0  0  0  0  0  0
   -0.6498    1.0188    1.3911 H   0  0  0  0  0  0  0  0  0  0  0  0
   -0.9972    1.9840   -0.0718 H   0  0  0  0  0  0  0  0  0  0  0  0
   -2.2810    1.6537    1.1299 H   0  0  0  0  0  0  0  0  0  0  0  0
   -3.5554   -0.2038    1.1560 H   0  0  0  0  0  0  0  0  0  0  0  0
   -2.0213   -0.5198    2.0389 H   0  0  0  0  0  0  0  0  0  0  0  0
   -2.6357   -1.7799    0.9129 H   0  0  0  0  0  0  0  0  0  0  0  0
   -3.6279    0.7797   -0.6112 H   0  0  0  0  0  0  0  0  0  0  0  0
   -2.2999    0.6942   -1.9041 H   0  0  0  0  0  0  0  0  0  0  0  0
   -3.2020   -0.8103   -1.2876 H   0  0  0  0  0  0  0  0  0  0  0  0
  1  2  1  0
  2  3  1  0
  3  4  1  0
  4  5  1  0
  5  6  1  0
  6  7  1  0
  6  8  1  0
  8  9  1  0
  9 10  1  0
  9 11  1  0
  9 12  1  0
  7  2  1  0
  1 14  1  0
  1 15  1  0
  1 16  1  0
  2 17  1  0
  3 18  1  0
  3 19  1  0
  5 20  1  0
  5 21  1  0
  6 22  1  0
  8 23  1  0
  8 24  1  0
 10 25  1  0
 10 26  1  0
 10 27  1  0
 11 28  1  0
 11 29  1  0
 11 30  1  0
 12 31  1  0
 12 32  1  0
 12 33  1  0
M  CHG  2   9   1  13  -1
M  END
>  <Ligand ID>  (1) 
LIG0004033

>  <Ligand>  (1) 
CHEMBL228144

>  <SMILES>  (1) 
CC1COCC(O1)C[N+](C)(C)C.[I-]

>  <CID>  (1) 
44422691.0

>  <ChEMBL ID>  (1) 
nan

>  <InChiKey>  (1) 
KUBKWLQZGDWVNE-UHFFFAOYSA-M

>  <InChi>  (1) 
InChI=1S/C9H20NO2.HI/c1-8-6-11-7-9(12-8)5-10(2,3)4;/h8-9H,5-7H2,1-4H3;1H/q+1;/p-1

>  <IUPAC Name>  (1) 
trimethyl-[(6-methyl-1,4-dioxan-2-yl)methyl]azanium;iodide

$$$$
