
     RDKit          3D

 94 97  0  0  0  0  0  0  0  0999 V2000
   -6.0275    5.2827   -2.9790 N   0  0  0  0  0  0  0  0  0  0  0  0
   -5.3495    4.6661   -2.2392 C   0  0  0  0  0  0  0  0  0  0  0  0
   -4.5177    3.8989   -1.3564 C   0  0  0  0  0  0  0  0  0  0  0  0
   -3.2359    4.3499   -1.0689 C   0  0  0  0  0  0  0  0  0  0  0  0
   -2.4287    3.5944   -0.2049 C   0  0  0  0  0  0  0  0  0  0  0  0
   -2.8749    2.4287    0.3583 C   0  0  0  0  0  0  0  0  0  0  0  0
   -4.1713    1.9994    0.0501 C   0  0  0  0  0  0  0  0  0  0  0  0
   -4.9924    2.7189   -0.7969 C   0  0  0  0  0  0  0  0  0  0  0  0
   -2.1060    1.5672    1.2737 C   0  0  0  0  0  0  0  0  0  0  0  0
   -1.2933    0.5012    0.5538 C   0  0  2  0  0  0  0  0  0  0  0  0
   -0.2820    1.0437   -0.3577 C   0  0  0  0  0  0  0  0  0  0  0  0
   -0.3523    0.9092   -1.6067 O   0  0  0  0  0  0  0  0  0  0  0  0
    0.8364    1.7493    0.1888 N   0  0  0  0  0  0  0  0  0  0  0  0
    1.8942    2.3143   -0.6050 C   0  0  2  0  0  0  0  0  0  0  0  0
    3.0012    1.2585   -0.5713 C   0  0  0  0  0  0  0  0  0  0  0  0
    4.0458    1.6061   -1.1787 O   0  0  0  0  0  0  0  0  0  0  0  0
    2.8306    0.0210    0.0866 N   0  0  0  0  0  0  0  0  0  0  0  0
    3.8613   -1.0094    0.1415 C   0  0  2  0  0  0  0  0  0  0  0  0
    5.1647   -0.4192    0.6160 C   0  0  0  0  0  0  0  0  0  0  0  0
    5.2725    0.7940    0.9338 O   0  0  0  0  0  0  0  0  0  0  0  0
    6.3438   -1.2064    0.7295 N   0  0  0  0  0  0  0  0  0  0  0  0
    3.9897   -1.7594   -1.1330 C   0  0  0  0  0  0  0  0  0  0  0  0
    5.0283   -2.8008   -1.0638 C   0  0  0  0  0  0  0  0  0  0  0  0
    6.2965   -2.7751   -1.5995 C   0  0  0  0  0  0  0  0  0  0  0  0
    6.9521   -3.9217   -1.3238 N   0  0  0  0  0  0  0  0  0  0  0  0
    6.1044   -4.6950   -0.6054 C   0  0  0  0  0  0  0  0  0  0  0  0
    4.9040   -4.0077   -0.4376 C   0  0  0  0  0  0  0  0  0  0  0  0
    3.8478   -4.5609    0.2589 C   0  0  0  0  0  0  0  0  0  0  0  0
    4.0351   -5.8406    0.7885 C   0  0  0  0  0  0  0  0  0  0  0  0
    5.2270   -6.5234    0.6221 C   0  0  0  0  0  0  0  0  0  0  0  0
    6.2815   -5.9646   -0.0763 C   0  0  0  0  0  0  0  0  0  0  0  0
    2.4929    3.5122    0.0379 C   0  0  0  0  0  0  0  0  0  0  0  0
    1.4976    4.6301    0.2551 C   0  0  0  0  0  0  0  0  0  0  0  0
    0.9554    5.0466   -1.0870 C   0  0  0  0  0  0  0  0  0  0  0  0
    0.0242    6.1142   -1.0866 N   0  0  0  0  0  0  0  0  0  0  0  0
   -0.5139    6.6373   -0.0846 C   0  0  0  0  0  0  0  0  0  0  0  0
   -1.4412    7.7273   -0.3657 N   0  0  0  0  0  0  0  0  0  0  0  0
   -0.3631    6.3317    1.2758 N   0  0  0  0  0  0  0  0  0  0  0  0
   -2.2345   -0.3743   -0.1877 N   0  0  0  0  0  0  0  0  0  0  0  0
   -2.3847   -1.7064    0.2608 C   0  0  0  0  0  0  0  0  0  0  0  0
   -1.7275   -2.1213    1.2742 O   0  0  0  0  0  0  0  0  0  0  0  0
   -3.2809   -2.7023   -0.3775 C   0  0  2  0  0  0  0  0  0  0  0  0
   -4.6398   -2.1801   -0.6606 C   0  0  0  0  0  0  0  0  0  0  0  0
   -5.4019   -1.7134    0.5042 C   0  0  0  0  0  0  0  0  0  0  0  0
   -5.1236   -1.6505    1.8085 N   0  0  0  0  0  0  0  0  0  0  0  0
   -6.1632   -1.1405    2.5098 C   0  0  0  0  0  0  0  0  0  0  0  0
   -7.1342   -0.8728    1.6025 N   0  0  0  0  0  0  0  0  0  0  0  0
   -6.7035   -1.2093    0.3757 C   0  0  0  0  0  0  0  0  0  0  0  0
   -3.2462   -3.9301    0.3914 N   0  0  0  0  0  0  0  0  0  0  0  0
   -2.6857   -5.1373   -0.1709 C   0  0  0  0  0  0  0  0  0  0  0  0
   -2.2167   -5.1204   -1.3541 O   0  0  0  0  0  0  0  0  0  0  0  0
   -2.6549   -6.4065    0.6344 C   0  0  0  0  0  0  0  0  0  0  0  0
   -2.8202    5.2530   -1.4739 H   0  0  0  0  0  0  0  0  0  0  0  0
   -1.4315    3.9111    0.0430 H   0  0  0  0  0  0  0  0  0  0  0  0
   -4.5720    1.0762    0.4747 H   0  0  0  0  0  0  0  0  0  0  0  0
   -6.0017    2.4058   -1.0509 H   0  0  0  0  0  0  0  0  0  0  0  0
   -1.3741    2.2005    1.8092 H   0  0  0  0  0  0  0  0  0  0  0  0
   -2.7778    1.0753    1.9819 H   0  0  0  0  0  0  0  0  0  0  0  0
   -0.8151   -0.1208    1.3201 H   0  0  0  0  0  0  0  0  0  0  0  0
    0.8818    1.8579    1.2336 H   0  0  0  0  0  0  0  0  0  0  0  0
    1.5993    2.4396   -1.6726 H   0  0  0  0  0  0  0  0  0  0  0  0
    1.8891   -0.1400    0.5585 H   0  0  0  0  0  0  0  0  0  0  0  0
    3.5595   -1.7108    0.9566 H   0  0  0  0  0  0  0  0  0  0  0  0
    6.3681   -2.1325    1.2141 H   0  0  0  0  0  0  0  0  0  0  0  0
    7.2098   -0.7782    0.2822 H   0  0  0  0  0  0  0  0  0  0  0  0
    4.1923   -1.0481   -1.9794 H   0  0  0  0  0  0  0  0  0  0  0  0
    3.0466   -2.2882   -1.4196 H   0  0  0  0  0  0  0  0  0  0  0  0
    6.6756   -1.9289   -2.1586 H   0  0  0  0  0  0  0  0  0  0  0  0
    7.9341   -4.1391   -1.6256 H   0  0  0  0  0  0  0  0  0  0  0  0
    2.9197   -4.0183    0.3838 H   0  0  0  0  0  0  0  0  0  0  0  0
    3.2443   -6.3281    1.3444 H   0  0  0  0  0  0  0  0  0  0  0  0
    5.3674   -7.5253    1.0387 H   0  0  0  0  0  0  0  0  0  0  0  0
    7.1968   -6.5296   -0.1839 H   0  0  0  0  0  0  0  0  0  0  0  0
    3.4044    3.8777   -0.4961 H   0  0  0  0  0  0  0  0  0  0  0  0
    2.8821    3.2355    1.0607 H   0  0  0  0  0  0  0  0  0  0  0  0
    0.7187    4.2692    0.9541 H   0  0  0  0  0  0  0  0  0  0  0  0
    2.0055    5.4927    0.7707 H   0  0  0  0  0  0  0  0  0  0  0  0
    1.8710    5.2775   -1.7168 H   0  0  0  0  0  0  0  0  0  0  0  0
    0.5118    4.1071   -1.5304 H   0  0  0  0  0  0  0  0  0  0  0  0
   -1.5324    8.5289    0.2905 H   0  0  0  0  0  0  0  0  0  0  0  0
   -2.0269    7.7079   -1.2397 H   0  0  0  0  0  0  0  0  0  0  0  0
   -1.0595    5.6425    1.6866 H   0  0  0  0  0  0  0  0  0  0  0  0
    0.3453    6.7064    1.9258 H   0  0  0  0  0  0  0  0  0  0  0  0
   -2.7673   -0.0333   -1.0060 H   0  0  0  0  0  0  0  0  0  0  0  0
   -2.8484   -2.9950   -1.3935 H   0  0  0  0  0  0  0  0  0  0  0  0
   -5.2753   -2.9299   -1.2063 H   0  0  0  0  0  0  0  0  0  0  0  0
   -4.5411   -1.3449   -1.4182 H   0  0  0  0  0  0  0  0  0  0  0  0
   -4.2502   -1.9390    2.2538 H   0  0  0  0  0  0  0  0  0  0  0  0
   -6.2574   -0.9612    3.5699 H   0  0  0  0  0  0  0  0  0  0  0  0
   -7.2817   -1.1004   -0.5419 H   0  0  0  0  0  0  0  0  0  0  0  0
   -3.6070   -4.0315    1.3614 H   0  0  0  0  0  0  0  0  0  0  0  0
   -1.9289   -7.0935    0.1993 H   0  0  0  0  0  0  0  0  0  0  0  0
   -3.6642   -6.8198    0.7805 H   0  0  0  0  0  0  0  0  0  0  0  0
   -2.3308   -6.0825    1.6661 H   0  0  0  0  0  0  0  0  0  0  0  0
  1  2  3  0
  2  3  1  0
  3  4  2  0
  4  5  1  0
  5  6  2  0
  6  7  1  0
  7  8  2  0
  6  9  1  0
  9 10  1  0
 10 11  1  0
 11 12  2  0
 11 13  1  0
 13 14  1  0
 14 15  1  0
 15 16  2  0
 15 17  1  0
 17 18  1  0
 18 19  1  0
 19 20  2  0
 19 21  1  0
 18 22  1  0
 22 23  1  0
 23 24  2  0
 24 25  1  0
 25 26  1  0
 26 27  2  0
 27 28  1  0
 28 29  2  0
 29 30  1  0
 30 31  2  0
 14 32  1  0
 32 33  1  0
 33 34  1  0
 34 35  1  0
 35 36  2  3
 36 37  1  0
 36 38  1  0
 10 39  1  0
 39 40  1  0
 40 41  2  0
 40 42  1  0
 42 43  1  0
 43 44  1  0
 44 45  1  0
 45 46  1  0
 46 47  2  0
 47 48  1  0
 42 49  1  0
 49 50  1  0
 50 51  2  0
 50 52  1  0
  8  3  1  0
 27 23  1  0
 48 44  2  0
 31 26  1  0
  4 53  1  0
  5 54  1  0
  7 55  1  0
  8 56  1  0
  9 57  1  0
  9 58  1  0
 10 59  1  1
 13 60  1  0
 14 61  1  6
 17 62  1  0
 18 63  1  1
 21 64  1  0
 21 65  1  0
 22 66  1  0
 22 67  1  0
 24 68  1  0
 25 69  1  0
 28 70  1  0
 29 71  1  0
 30 72  1  0
 31 73  1  0
 32 74  1  0
 32 75  1  0
 33 76  1  0
 33 77  1  0
 34 78  1  0
 34 79  1  0
 37 80  1  0
 37 81  1  0
 38 82  1  0
 38 83  1  0
 39 84  1  0
 42 85  1  6
 43 86  1  0
 43 87  1  0
 45 88  1  0
 46 89  1  0
 48 90  1  0
 49 91  1  0
 52 92  1  0
 52 93  1  0
 52 94  1  0
M  END
>  <Ligand ID>  (1) 
LIG0001428

>  <Ligand>  (1) 
CHEMBL448536

>  <SMILES>  (1) 
N#Cc1ccc(cc1)C[C@H](C(=O)N[C@H](C(=O)N[C@H](C(=O)N)Cc1c[nH]c2c1cccc2)CCCN=C(N)N)NC(=O)[C@H](Cc1[nH]cnc1)NC(=O)C

>  <CID>  (1) 
25108141.0

>  <ChEMBL ID>  (1) 
nan

>  <InChiKey>  (1) 
DBWQPEKZJYCIEE-ZXYZSCNASA-N

>  <InChi>  (1) 
InChI=1S/C35H42N12O5/c1-20(48)44-30(15-24-18-40-19-43-24)34(52)47-29(13-21-8-10-22(16-36)11-9-21)33(51)45-27(7-4-12-41-35(38)39)32(50)46-28(31(37)49)14-23-17-42-26-6-3-2-5-25(23)26/h2-3,5-6,8-11,17-19,27-30,42H,4,7,12-15H2,1H3,(H2,37,49)(H,40,43)(H,44,48)(H,45,51)(H,46,50)(H,47,52)(H4,38,39,41)/t27-,28-,29+,30-/m0/s1

>  <IUPAC Name>  (1) 
(2S)-2-[[(2R)-2-[[(2S)-2-acetamido-3-(1H-imidazol-5-yl)propanoyl]amino]-3-(4-cyanophenyl)propanoyl]amino]-N-[(2S)-1-amino-3-(1H-indol-3-yl)-1-oxopropan-2-yl]-5-(diaminomethylideneamino)pentanamide

$$$$
