
     RDKit          3D

 36 39  0  0  0  0  0  0  0  0999 V2000
   -3.7792    0.5555   -1.4073 C   0  0  0  0  0  0  0  0  0  0  0  0
   -3.5536    1.1469   -0.0567 C   0  0  0  0  0  0  0  0  0  0  0  0
   -4.2603    2.1256    0.5490 N   0  0  0  0  0  0  0  0  0  0  0  0
   -3.7774    2.3922    1.7330 N   0  0  0  0  0  0  0  0  0  0  0  0
   -2.7156    1.5882    1.9612 C   0  0  0  0  0  0  0  0  0  0  0  0
   -2.5599    0.7878    0.8287 C   0  0  0  0  0  0  0  0  0  0  0  0
   -1.5412   -0.2292    0.6279 C   0  0  0  0  0  0  0  0  0  0  0  0
   -1.7773   -1.5465    1.0140 C   0  0  0  0  0  0  0  0  0  0  0  0
   -0.7787   -2.4850    0.8043 C   0  0  0  0  0  0  0  0  0  0  0  0
    0.4204   -2.1278    0.2281 C   0  0  0  0  0  0  0  0  0  0  0  0
    0.6761   -0.8283   -0.1622 C   0  0  0  0  0  0  0  0  0  0  0  0
   -0.3296    0.1171    0.0488 C   0  0  0  0  0  0  0  0  0  0  0  0
    0.1331    1.4492   -0.4346 C   0  0  0  0  0  0  0  0  0  0  0  0
    1.6486    1.2793   -0.3236 C   0  0  0  0  0  0  0  0  0  0  0  0
    1.8246   -0.1317   -0.7916 C   0  0  0  0  0  0  0  0  0  0  0  0
    3.1347   -0.6619   -0.3606 C   0  0  0  0  0  0  0  0  0  0  0  0
    3.8014   -1.6559   -0.9620 N   0  0  0  0  0  0  0  0  0  0  0  0
    4.9612   -1.8760   -0.2980 C   0  0  0  0  0  0  0  0  0  0  0  0
    5.0107   -0.9844    0.7515 C   0  0  0  0  0  0  0  0  0  0  0  0
    3.8817   -0.2438    0.7017 N   0  0  0  0  0  0  0  0  0  0  0  0
   -4.3285   -0.3888   -1.3830 H   0  0  0  0  0  0  0  0  0  0  0  0
   -2.7849    0.4190   -1.9193 H   0  0  0  0  0  0  0  0  0  0  0  0
   -4.3785    1.2519   -2.0458 H   0  0  0  0  0  0  0  0  0  0  0  0
   -5.0814    2.5918    0.1071 H   0  0  0  0  0  0  0  0  0  0  0  0
   -2.0781    1.5497    2.8569 H   0  0  0  0  0  0  0  0  0  0  0  0
   -2.7216   -1.8287    1.4679 H   0  0  0  0  0  0  0  0  0  0  0  0
   -0.9519   -3.5253    1.1038 H   0  0  0  0  0  0  0  0  0  0  0  0
    1.2239   -2.8547    0.0533 H   0  0  0  0  0  0  0  0  0  0  0  0
   -0.1336    2.2740    0.2452 H   0  0  0  0  0  0  0  0  0  0  0  0
   -0.0922    1.6043   -1.4912 H   0  0  0  0  0  0  0  0  0  0  0  0
    2.1821    2.0152   -0.9392 H   0  0  0  0  0  0  0  0  0  0  0  0
    1.8844    1.3245    0.7604 H   0  0  0  0  0  0  0  0  0  0  0  0
    1.6973   -0.1585   -1.8924 H   0  0  0  0  0  0  0  0  0  0  0  0
    5.7086   -2.6124   -0.5440 H   0  0  0  0  0  0  0  0  0  0  0  0
    5.7835   -0.8518    1.5105 H   0  0  0  0  0  0  0  0  0  0  0  0
    3.6514    0.5183    1.3842 H   0  0  0  0  0  0  0  0  0  0  0  0
  1  2  1  0
  2  3  1  0
  3  4  1  0
  4  5  2  0
  5  6  1  0
  6  7  1  0
  7  8  2  0
  8  9  1  0
  9 10  2  0
 10 11  1  0
 11 12  2  0
 12 13  1  0
 13 14  1  0
 14 15  1  0
 15 16  1  0
 16 17  2  0
 17 18  1  0
 18 19  2  0
 19 20  1  0
  6  2  2  0
 12  7  1  0
 20 16  1  0
 15 11  1  0
  1 21  1  0
  1 22  1  0
  1 23  1  0
  3 24  1  0
  5 25  1  0
  8 26  1  0
  9 27  1  0
 10 28  1  0
 13 29  1  0
 13 30  1  0
 14 31  1  0
 14 32  1  0
 15 33  1  0
 18 34  1  0
 19 35  1  0
 20 36  1  0
M  END
>  <Ligand ID>  (1) 
LIG0001704

>  <Ligand>  (1) 
CHEMBL260720

>  <SMILES>  (1) 
Cc1[nH]ncc1c1cccc2c1CCC2c1ncc[nH]1

>  <CID>  (1) 
44449725.0

>  <ChEMBL ID>  (1) 
nan

>  <InChiKey>  (1) 
MACSPWGTMJSVNZ-UHFFFAOYSA-N

>  <InChi>  (1) 
InChI=1S/C16H16N4/c1-10-15(9-19-20-10)12-4-2-3-11-13(12)5-6-14(11)16-17-7-8-18-16/h2-4,7-9,14H,5-6H2,1H3,(H,17,18)(H,19,20)

>  <IUPAC Name>  (1) 
4-[1-(1H-imidazol-2-yl)-2,3-dihydro-1H-inden-4-yl]-5-methyl-1H-pyrazole

$$$$
