
     RDKit          3D

 69 76  0  0  0  0  0  0  0  0999 V2000
    2.0490    0.9136   -0.0109 O   0  0  0  0  0  0  0  0  0  0  0  0
    1.5083    0.6215   -1.0948 C   0  0  0  0  0  0  0  0  0  0  0  0
    0.2872   -0.0957   -1.0490 N   0  0  0  0  0  0  0  0  0  0  0  0
   -0.3847   -0.5163    0.1600 C   0  0  1  0  0  0  0  0  0  0  0  0
   -0.7288    0.6825    0.9672 C   0  0  0  0  0  0  0  0  0  0  0  0
   -1.8642    1.4008    0.3570 C   0  0  0  0  0  0  0  0  0  0  0  0
   -2.1912    2.7466    0.4770 C   0  0  0  0  0  0  0  0  0  0  0  0
   -1.5896    3.7980    1.1651 C   0  0  0  0  0  0  0  0  0  0  0  0
   -2.0987    5.0806    1.1427 C   0  0  0  0  0  0  0  0  0  0  0  0
   -3.2430    5.3035    0.4068 C   0  0  0  0  0  0  0  0  0  0  0  0
   -3.8413    4.2742   -0.2732 C   0  0  0  0  0  0  0  0  0  0  0  0
   -3.3331    2.9899   -0.2519 C   0  0  0  0  0  0  0  0  0  0  0  0
   -3.6787    1.8167   -0.7940 N   0  0  0  0  0  0  0  0  0  0  0  0
   -2.8222    0.8493   -0.4497 C   0  0  0  0  0  0  0  0  0  0  0  0
   -2.7658   -0.5588   -0.7810 C   0  0  1  0  0  0  0  0  0  0  0  0
   -1.6197   -1.2943   -0.1189 C   0  0  1  0  0  0  0  0  0  0  0  0
   -1.3450   -2.5608   -0.8987 C   0  0  0  0  0  0  0  0  0  0  0  0
   -0.4062   -3.4132   -0.0960 C   0  0  0  0  0  0  0  0  0  0  0  0
    0.7927   -2.6904    0.2329 N   0  0  0  0  0  0  0  0  0  0  0  0
    0.5238   -1.4660    0.9518 C   0  0  0  0  0  0  0  0  0  0  0  0
   -0.0269   -1.8054    2.3045 C   0  0  0  0  0  0  0  0  0  0  0  0
   -1.4980   -1.8947    2.3030 C   0  0  0  0  0  0  0  0  0  0  0  0
   -2.2244   -1.6087    1.1969 C   0  0  0  0  0  0  0  0  0  0  0  0
   -3.5917   -1.5969    1.0847 C   0  0  0  0  0  0  0  0  0  0  0  0
   -3.9307   -1.2336   -0.2419 O   0  0  0  0  0  0  0  0  0  0  0  0
   -4.3106   -1.9150    2.2152 C   0  0  0  0  0  0  0  0  0  0  0  0
   -3.6313   -2.2260    3.3985 C   0  0  0  0  0  0  0  0  0  0  0  0
   -2.2341   -2.2185    3.4537 C   0  0  0  0  0  0  0  0  0  0  0  0
   -5.7034   -1.9209    2.1586 O   0  0  0  0  0  0  0  0  0  0  0  0
    1.7233   -2.5795   -0.8359 C   0  0  0  0  0  0  0  0  0  0  0  0
    2.0364    0.9621   -2.4307 C   0  0  0  0  0  0  0  0  0  0  0  0
    3.3257    1.6928   -2.4455 C   0  0  0  0  0  0  0  0  0  0  0  0
    4.4797    1.0184   -1.8398 C   0  0  0  0  0  0  0  0  0  0  0  0
    4.9473    1.2074   -0.5654 C   0  0  0  0  0  0  0  0  0  0  0  0
    6.0376    0.5149   -0.0471 C   0  0  0  0  0  0  0  0  0  0  0  0
    6.6930   -0.4161   -0.8523 C   0  0  0  0  0  0  0  0  0  0  0  0
    6.2328   -0.6160   -2.1389 C   0  0  0  0  0  0  0  0  0  0  0  0
    5.1501    0.0805   -2.6333 C   0  0  0  0  0  0  0  0  0  0  0  0
   -0.1957   -0.3555   -1.9618 H   0  0  0  0  0  0  0  0  0  0  0  0
   -1.0803    0.4349    2.0127 H   0  0  0  0  0  0  0  0  0  0  0  0
    0.1355    1.3592    1.1593 H   0  0  0  0  0  0  0  0  0  0  0  0
   -0.6771    3.6187    1.7515 H   0  0  0  0  0  0  0  0  0  0  0  0
   -1.6281    5.8963    1.6792 H   0  0  0  0  0  0  0  0  0  0  0  0
   -3.6212    6.3265    0.4083 H   0  0  0  0  0  0  0  0  0  0  0  0
   -4.7277    4.4784   -0.8352 H   0  0  0  0  0  0  0  0  0  0  0  0
   -4.5279    1.6810   -1.4178 H   0  0  0  0  0  0  0  0  0  0  0  0
   -2.7919   -0.7354   -1.8607 H   0  0  0  0  0  0  0  0  0  0  0  0
   -0.8587   -2.3158   -1.8541 H   0  0  0  0  0  0  0  0  0  0  0  0
   -2.3160   -3.0798   -1.0338 H   0  0  0  0  0  0  0  0  0  0  0  0
   -0.8826   -3.9030    0.7690 H   0  0  0  0  0  0  0  0  0  0  0  0
   -0.0826   -4.2569   -0.7637 H   0  0  0  0  0  0  0  0  0  0  0  0
    1.5206   -1.0147    1.1306 H   0  0  0  0  0  0  0  0  0  0  0  0
    0.2922   -0.9641    2.9959 H   0  0  0  0  0  0  0  0  0  0  0  0
    0.4360   -2.7545    2.6600 H   0  0  0  0  0  0  0  0  0  0  0  0
   -4.1870   -2.4810    4.3028 H   0  0  0  0  0  0  0  0  0  0  0  0
   -1.7066   -2.4554    4.3588 H   0  0  0  0  0  0  0  0  0  0  0  0
   -6.2742   -1.5240    2.9139 H   0  0  0  0  0  0  0  0  0  0  0  0
    2.1665   -3.5756   -1.0588 H   0  0  0  0  0  0  0  0  0  0  0  0
    2.5912   -1.9765   -0.4344 H   0  0  0  0  0  0  0  0  0  0  0  0
    1.3171   -2.1910   -1.7714 H   0  0  0  0  0  0  0  0  0  0  0  0
    2.1786    0.0327   -3.0592 H   0  0  0  0  0  0  0  0  0  0  0  0
    1.2974    1.5938   -3.0090 H   0  0  0  0  0  0  0  0  0  0  0  0
    3.2360    2.6916   -1.9117 H   0  0  0  0  0  0  0  0  0  0  0  0
    3.6178    1.9915   -3.4862 H   0  0  0  0  0  0  0  0  0  0  0  0
    4.4937    1.9253    0.0973 H   0  0  0  0  0  0  0  0  0  0  0  0
    6.3977    0.6679    0.9521 H   0  0  0  0  0  0  0  0  0  0  0  0
    7.5460   -0.9725   -0.4786 H   0  0  0  0  0  0  0  0  0  0  0  0
    6.7600   -1.3414   -2.7367 H   0  0  0  0  0  0  0  0  0  0  0  0
    4.8475   -0.1273   -3.6451 H   0  0  0  0  0  0  0  0  0  0  0  0
  1  2  2  0
  2  3  1  0
  4  3  1  6
  4  5  1  0
  5  6  1  0
  6  7  1  0
  7  8  2  0
  8  9  1  0
  9 10  2  0
 10 11  1  0
 11 12  2  0
 12 13  1  0
 13 14  1  0
 14 15  1  0
 15 16  1  0
 16 17  1  6
 17 18  1  0
 18 19  1  0
 19 20  1  0
 20 21  1  0
 21 22  1  0
 22 23  2  0
 23 24  1  0
 24 25  1  0
 24 26  2  0
 26 27  1  0
 27 28  2  0
 26 29  1  0
 19 30  1  0
  2 31  1  0
 31 32  1  0
 32 33  1  0
 33 34  2  0
 34 35  1  0
 35 36  2  0
 36 37  1  0
 37 38  2  0
 20  4  1  0
 28 22  1  0
 38 33  1  0
 16  4  1  0
 14  6  2  0
 25 15  1  0
 12  7  1  0
 23 16  1  0
  3 39  1  0
  5 40  1  0
  5 41  1  0
  8 42  1  0
  9 43  1  0
 10 44  1  0
 11 45  1  0
 13 46  1  0
 15 47  1  6
 17 48  1  0
 17 49  1  0
 18 50  1  0
 18 51  1  0
 20 52  1  0
 21 53  1  0
 21 54  1  0
 27 55  1  0
 28 56  1  0
 29 57  1  0
 30 58  1  0
 30 59  1  0
 30 60  1  0
 31 61  1  0
 31 62  1  0
 32 63  1  0
 32 64  1  0
 34 65  1  0
 35 66  1  0
 36 67  1  0
 37 68  1  0
 38 69  1  0
M  END
>  <Ligand ID>  (1) 
LIG0004608

>  <Ligand>  (1) 
CHEMBL2113373

>  <SMILES>  (1) 
O=C(N[C@]12Cc3c4ccccc4[nH]c3[C@H]3[C@]42CCN(C1Cc1c4c(O3)c(cc1)O)C)CCc1ccccc1

>  <CID>  (1) 
71458065.0

>  <ChEMBL ID>  (1) 
nan

>  <InChiKey>  (1) 
ZKVYRXMIRABJJO-DOSVXBPLSA-N

>  <InChi>  (1) 
InChI=1S/C32H31N3O3/c1-35-16-15-31-27-20-12-13-24(36)29(27)38-30(31)28-22(21-9-5-6-10-23(21)33-28)18-32(31,25(35)17-20)34-26(37)14-11-19-7-3-2-4-8-19/h2-10,12-13,25,30,33,36H,11,14-18H2,1H3,(H,34,37)/t25?,30-,31-,32+/m0/s1

>  <IUPAC Name>  (1) 
N-[(1R,2S,13R)-16-hydroxy-22-methyl-14-oxa-11,22-diazaheptacyclo[13.9.1.01,13.02,21.04,12.05,10.019,25]pentacosa-4(12),5,7,9,15,17,19(25)-heptaen-2-yl]-3-phenylpropanamide

$$$$
