
     RDKit          3D

 36 36  0  0  0  0  0  0  0  0999 V2000
    0.7886   -2.8142    0.9667 O   0  0  0  0  0  0  0  0  0  0  0  0
    0.7662   -2.1734   -0.1520 C   0  0  0  0  0  0  0  0  0  0  0  0
    2.0444   -2.0367   -0.8394 C   0  0  0  0  0  0  0  0  0  0  0  0
    3.0294   -1.0967   -0.2944 C   0  0  0  0  0  0  0  0  0  0  0  0
    2.7594    0.3702   -0.4490 C   0  0  0  0  0  0  0  0  0  0  0  0
    1.5599    0.8536    0.2626 C   0  0  0  0  0  0  0  0  0  0  0  0
    1.1819    2.3227   -0.0651 C   0  0  0  0  0  0  0  0  0  0  0  0
   -0.2204    2.4654    0.5457 C   0  0  0  0  0  0  0  0  0  0  0  0
   -1.1770    1.5611   -0.2760 C   0  0  0  0  0  0  0  0  0  0  0  0
   -2.1367    1.0131    0.6899 C   0  0  0  0  0  0  0  0  0  0  0  0
   -3.1399    0.0267    0.2837 C   0  0  0  0  0  0  0  0  0  0  0  0
   -2.7358   -1.2418   -0.3545 C   0  0  0  0  0  0  0  0  0  0  0  0
   -1.6044   -2.0004    0.2723 C   0  0  0  0  0  0  0  0  0  0  0  0
   -0.4659   -1.7162   -0.5421 O   0  0  0  0  0  0  0  0  0  0  0  0
    2.4774   -3.0790   -0.9962 H   0  0  0  0  0  0  0  0  0  0  0  0
    1.8591   -1.7128   -1.9352 H   0  0  0  0  0  0  0  0  0  0  0  0
    3.2534   -1.3015    0.8049 H   0  0  0  0  0  0  0  0  0  0  0  0
    4.0044   -1.2963   -0.8470 H   0  0  0  0  0  0  0  0  0  0  0  0
    3.6839    0.9613   -0.1411 H   0  0  0  0  0  0  0  0  0  0  0  0
    2.7022    0.5595   -1.5715 H   0  0  0  0  0  0  0  0  0  0  0  0
    1.8598    0.8725    1.3897 H   0  0  0  0  0  0  0  0  0  0  0  0
    0.6841    0.2462    0.2714 H   0  0  0  0  0  0  0  0  0  0  0  0
    1.1408    2.5131   -1.1271 H   0  0  0  0  0  0  0  0  0  0  0  0
    1.8740    2.9463    0.5227 H   0  0  0  0  0  0  0  0  0  0  0  0
   -0.5273    3.5094    0.4737 H   0  0  0  0  0  0  0  0  0  0  0  0
   -0.1609    2.1453    1.5963 H   0  0  0  0  0  0  0  0  0  0  0  0
   -0.5831    0.9185   -0.8971 H   0  0  0  0  0  0  0  0  0  0  0  0
   -1.6635    2.2943   -0.9965 H   0  0  0  0  0  0  0  0  0  0  0  0
   -2.6975    1.8898    1.1318 H   0  0  0  0  0  0  0  0  0  0  0  0
   -1.5454    0.5930    1.5572 H   0  0  0  0  0  0  0  0  0  0  0  0
   -3.7182   -0.2570    1.2189 H   0  0  0  0  0  0  0  0  0  0  0  0
   -3.9381    0.4718   -0.3640 H   0  0  0  0  0  0  0  0  0  0  0  0
   -3.6302   -1.9347   -0.2824 H   0  0  0  0  0  0  0  0  0  0  0  0
   -2.5852   -1.0560   -1.4403 H   0  0  0  0  0  0  0  0  0  0  0  0
   -1.7204   -3.1017    0.2599 H   0  0  0  0  0  0  0  0  0  0  0  0
   -1.4191   -1.7156    1.3234 H   0  0  0  0  0  0  0  0  0  0  0  0
  1  2  2  0
  2  3  1  0
  3  4  1  0
  4  5  1  0
  5  6  1  0
  6  7  1  0
  7  8  1  0
  8  9  1  0
  9 10  1  0
 10 11  1  0
 11 12  1  0
 12 13  1  0
 13 14  1  0
 14  2  1  0
  3 15  1  0
  3 16  1  0
  4 17  1  0
  4 18  1  0
  5 19  1  0
  5 20  1  0
  6 21  1  0
  6 22  1  0
  7 23  1  0
  7 24  1  0
  8 25  1  0
  8 26  1  0
  9 27  1  0
  9 28  1  0
 10 29  1  0
 10 30  1  0
 11 31  1  0
 11 32  1  0
 12 33  1  0
 12 34  1  0
 13 35  1  0
 13 36  1  0
M  END
>  <Ligand ID>  (1) 
LIG0005051

>  <Ligand>  (1) 
oxacyclotridecan-2-one

>  <SMILES>  (1) 
O=C1CCCCCCCCCCCO1

>  <CID>  (1) 
70354.0

>  <ChEMBL ID>  (1) 
nan

>  <InChiKey>  (1) 
DQGSJTVMODPFBK-UHFFFAOYSA-N

>  <InChi>  (1) 
InChI=1S/C12H22O2/c13-12-10-8-6-4-2-1-3-5-7-9-11-14-12/h1-11H2

>  <IUPAC Name>  (1) 
oxacyclotridecan-2-one

$$$$
