
     RDKit          3D

 57 61  0  0  0  0  0  0  0  0999 V2000
   -6.4146   -4.0968    2.9250 Cl  0  0  0  0  0  0  0  0  0  0  0  0
   -5.3246   -2.8664    2.3231 C   0  0  0  0  0  0  0  0  0  0  0  0
   -5.5666   -2.3142    1.0823 C   0  0  0  0  0  0  0  0  0  0  0  0
   -4.7218   -1.3350    0.5731 C   0  0  0  0  0  0  0  0  0  0  0  0
   -3.6201   -0.8735    1.2669 C   0  0  0  0  0  0  0  0  0  0  0  0
   -3.4030   -1.4489    2.5133 C   0  0  0  0  0  0  0  0  0  0  0  0
   -4.2280   -2.4215    3.0379 C   0  0  0  0  0  0  0  0  0  0  0  0
   -2.7330    0.1705    0.7012 C   0  0  0  0  0  0  0  0  0  0  0  0
   -1.6337   -0.5604    0.0153 C   0  0  0  0  0  0  0  0  0  0  0  0
   -1.9130   -1.4139   -1.0298 C   0  0  0  0  0  0  0  0  0  0  0  0
   -0.8842   -2.0786   -1.6675 C   0  0  0  0  0  0  0  0  0  0  0  0
    0.4070   -1.8664   -1.2343 C   0  0  0  0  0  0  0  0  0  0  0  0
    0.6956   -1.0148   -0.1895 C   0  0  0  0  0  0  0  0  0  0  0  0
   -0.3323   -0.3595    0.4370 C   0  0  0  0  0  0  0  0  0  0  0  0
    2.0348   -0.8500    0.1949 C   0  0  0  0  0  0  0  0  0  0  0  0
    2.9151   -1.5669   -0.5253 N   0  0  0  0  0  0  0  0  0  0  0  0
    2.6365   -2.3831   -1.5269 C   0  0  0  0  0  0  0  0  0  0  0  0
    1.3742   -2.5507   -1.9037 N   0  0  0  0  0  0  0  0  0  0  0  0
    2.3901    0.0060    1.2612 N   0  0  0  0  0  0  0  0  0  0  0  0
    3.7414    0.2390    1.7241 C   0  0  0  0  0  0  0  0  0  0  0  0
    4.5290    0.8504    0.6438 C   0  0  0  0  0  0  0  0  0  0  0  0
    4.4439    2.2303    0.4512 C   0  0  0  0  0  0  0  0  0  0  0  0
    5.1604    2.8752   -0.5180 C   0  0  0  0  0  0  0  0  0  0  0  0
    6.0082    2.1735   -1.3553 C   0  0  0  0  0  0  0  0  0  0  0  0
    6.1129    0.8107   -1.1885 C   0  0  0  0  0  0  0  0  0  0  0  0
    5.3782    0.1762   -0.1999 C   0  0  0  0  0  0  0  0  0  0  0  0
    6.9981    0.0600   -2.0590 C   0  0  0  0  0  0  0  0  0  0  0  0
    7.6368    0.7235   -2.9425 O   0  0  0  0  0  0  0  0  0  0  0  0
    7.1287   -1.3028   -1.9222 O   0  0  0  0  0  0  0  0  0  0  0  0
   -3.3786    1.2070   -0.0786 C   0  0  0  0  0  0  0  0  0  0  0  0
   -3.3688    1.3399   -1.4468 C   0  0  0  0  0  0  0  0  0  0  0  0
   -4.0248    2.3659   -2.1138 C   0  0  0  0  0  0  0  0  0  0  0  0
   -4.7302    3.3165   -1.4087 C   0  0  0  0  0  0  0  0  0  0  0  0
   -4.7568    3.2079   -0.0351 C   0  0  0  0  0  0  0  0  0  0  0  0
   -4.1030    2.1866    0.6164 C   0  0  0  0  0  0  0  0  0  0  0  0
   -5.5506    4.6020   -2.2671 Cl  0  0  0  0  0  0  0  0  0  0  0  0
   -6.4192   -2.6588    0.5244 H   0  0  0  0  0  0  0  0  0  0  0  0
   -4.9841   -0.9556   -0.4036 H   0  0  0  0  0  0  0  0  0  0  0  0
   -2.5506   -1.1276    3.1100 H   0  0  0  0  0  0  0  0  0  0  0  0
   -4.0706   -2.8759    4.0034 H   0  0  0  0  0  0  0  0  0  0  0  0
   -2.3255    0.6830    1.6315 H   0  0  0  0  0  0  0  0  0  0  0  0
   -2.9101   -1.6168   -1.3959 H   0  0  0  0  0  0  0  0  0  0  0  0
   -1.0874   -2.7629   -2.5031 H   0  0  0  0  0  0  0  0  0  0  0  0
   -0.1737    0.3051    1.2427 H   0  0  0  0  0  0  0  0  0  0  0  0
    3.4239   -2.9191   -2.0470 H   0  0  0  0  0  0  0  0  0  0  0  0
    1.6410    0.5262    1.7759 H   0  0  0  0  0  0  0  0  0  0  0  0
    3.7262    0.8796    2.6401 H   0  0  0  0  0  0  0  0  0  0  0  0
    4.1478   -0.7673    2.0138 H   0  0  0  0  0  0  0  0  0  0  0  0
    3.7970    2.8308    1.0763 H   0  0  0  0  0  0  0  0  0  0  0  0
    5.0924    3.9480   -0.6657 H   0  0  0  0  0  0  0  0  0  0  0  0
    6.5703    2.7052   -2.1215 H   0  0  0  0  0  0  0  0  0  0  0  0
    5.5159   -0.8894   -0.1117 H   0  0  0  0  0  0  0  0  0  0  0  0
    7.9991   -1.7186   -2.2476 H   0  0  0  0  0  0  0  0  0  0  0  0
   -2.8378    0.6410   -2.0359 H   0  0  0  0  0  0  0  0  0  0  0  0
   -3.9745    2.4096   -3.2049 H   0  0  0  0  0  0  0  0  0  0  0  0
   -5.3081    3.9499    0.5263 H   0  0  0  0  0  0  0  0  0  0  0  0
   -4.1749    2.1755    1.6951 H   0  0  0  0  0  0  0  0  0  0  0  0
  1  2  1  0
  2  3  2  0
  3  4  1  0
  4  5  2  0
  5  6  1  0
  6  7  2  0
  5  8  1  0
  8  9  1  0
  9 10  2  0
 10 11  1  0
 11 12  2  0
 12 13  1  0
 13 14  2  0
 13 15  1  0
 15 16  2  0
 16 17  1  0
 17 18  2  0
 15 19  1  0
 19 20  1  0
 20 21  1  0
 21 22  2  0
 22 23  1  0
 23 24  2  0
 24 25  1  0
 25 26  2  0
 25 27  1  0
 27 28  2  0
 27 29  1  0
  8 30  1  0
 30 31  2  0
 31 32  1  0
 32 33  2  0
 33 34  1  0
 34 35  2  0
 33 36  1  0
  7  2  1  0
 14  9  1  0
 26 21  1  0
 35 30  1  0
 18 12  1  0
  3 37  1  0
  4 38  1  0
  6 39  1  0
  7 40  1  0
  8 41  1  0
 10 42  1  0
 11 43  1  0
 14 44  1  0
 17 45  1  0
 19 46  1  0
 20 47  1  0
 20 48  1  0
 22 49  1  0
 23 50  1  0
 24 51  1  0
 26 52  1  0
 29 53  1  0
 31 54  1  0
 32 55  1  0
 34 56  1  0
 35 57  1  0
M  END
>  <Ligand ID>  (1) 
LIG0005853

>  <Ligand>  (1) 
SCHEMBL17557744

>  <SMILES>  (1) 
Clc1ccc(cc1)C(c1ccc2c(c1)c(ncn2)NCc1cccc(c1)C(=O)O)c1ccc(cc1)Cl

>  <CID>  (1) 
118916218.0

>  <ChEMBL ID>  (1) 
nan

>  <InChiKey>  (1) 
PPBDGZPSEPVWKC-UHFFFAOYSA-N

>  <InChi>  (1) 
InChI=1S/C29H21Cl2N3O2/c30-23-9-4-19(5-10-23)27(20-6-11-24(31)12-7-20)21-8-13-26-25(15-21)28(34-17-33-26)32-16-18-2-1-3-22(14-18)29(35)36/h1-15,17,27H,16H2,(H,35,36)(H,32,33,34)

>  <IUPAC Name>  (1) 
3-[[[6-[bis(4-chlorophenyl)methyl]quinazolin-4-yl]amino]methyl]benzoic acid

$$$$
