
     RDKit          3D

 50 51  0  0  0  0  0  0  0  0999 V2000
    8.9338    0.8393   -0.0712 C   0  0  0  0  0  0  0  0  0  0  0  0
    7.5847    0.5221    0.1311 O   0  0  0  0  0  0  0  0  0  0  0  0
    7.1739   -0.5602    0.8626 C   0  0  0  0  0  0  0  0  0  0  0  0
    8.0011   -1.3523    1.4090 O   0  0  0  0  0  0  0  0  0  0  0  0
    5.6974   -0.7850    1.0007 C   0  0  0  0  0  0  0  0  0  0  0  0
    4.9537    0.2070    0.3189 O   0  0  0  0  0  0  0  0  0  0  0  0
    3.5651    0.2054    0.3059 C   0  0  0  0  0  0  0  0  0  0  0  0
    2.8145   -0.7545    0.9510 C   0  0  0  0  0  0  0  0  0  0  0  0
    1.4255   -0.7077    0.9051 C   0  0  0  0  0  0  0  0  0  0  0  0
    0.7796    0.3117    0.2054 C   0  0  0  0  0  0  0  0  0  0  0  0
    1.5448    1.2839   -0.4478 C   0  0  0  0  0  0  0  0  0  0  0  0
    2.9405    1.2241   -0.3931 C   0  0  0  0  0  0  0  0  0  0  0  0
   -0.7121    0.3874    0.1386 C   0  0  0  0  0  0  0  0  0  0  0  0
   -1.1168   -0.3960   -1.0761 C   0  0  2  0  0  0  0  0  0  0  0  0
   -2.5424   -0.3894   -1.2189 N   0  0  0  0  0  0  0  0  0  0  0  0
   -3.0149    0.9518   -1.4262 C   0  0  0  0  0  0  0  0  0  0  0  0
   -4.5281    0.8486   -1.6154 C   0  0  1  0  0  0  0  0  0  0  0  0
   -5.1561    0.1913   -0.4323 C   0  0  0  0  0  0  0  0  0  0  0  0
   -5.6121   -1.1110   -0.4557 C   0  0  0  0  0  0  0  0  0  0  0  0
   -6.1717   -1.5940    0.7089 C   0  0  0  0  0  0  0  0  0  0  0  0
   -6.2853   -0.8363    1.8610 C   0  0  0  0  0  0  0  0  0  0  0  0
   -5.8280    0.4651    1.8791 C   0  0  0  0  0  0  0  0  0  0  0  0
   -5.2688    0.9453    0.7128 C   0  0  0  0  0  0  0  0  0  0  0  0
   -5.9426    1.4756    3.3051 Cl  0  0  0  0  0  0  0  0  0  0  0  0
   -5.0128    2.1232   -1.8169 O   0  0  0  0  0  0  0  0  0  0  0  0
   -0.5474   -1.8014   -1.0530 C   0  0  0  0  0  0  0  0  0  0  0  0
    9.6304    0.3741    0.6574 H   0  0  0  0  0  0  0  0  0  0  0  0
    9.0267    1.9497    0.1021 H   0  0  0  0  0  0  0  0  0  0  0  0
    9.2879    0.6503   -1.0848 H   0  0  0  0  0  0  0  0  0  0  0  0
    5.4017   -1.7593    0.5249 H   0  0  0  0  0  0  0  0  0  0  0  0
    5.4088   -0.7212    2.0700 H   0  0  0  0  0  0  0  0  0  0  0  0
    3.3323   -1.5480    1.4959 H   0  0  0  0  0  0  0  0  0  0  0  0
    0.8613   -1.4690    1.4175 H   0  0  0  0  0  0  0  0  0  0  0  0
    1.0746    2.0798   -0.9938 H   0  0  0  0  0  0  0  0  0  0  0  0
    3.5321    1.9699   -0.8943 H   0  0  0  0  0  0  0  0  0  0  0  0
   -0.9608    1.4494    0.1175 H   0  0  0  0  0  0  0  0  0  0  0  0
   -1.1870   -0.0412    1.0426 H   0  0  0  0  0  0  0  0  0  0  0  0
   -0.7082    0.0815   -2.0174 H   0  0  0  0  0  0  0  0  0  0  0  0
   -2.9688   -0.8252   -0.3836 H   0  0  0  0  0  0  0  0  0  0  0  0
   -2.7850    1.6295   -0.5884 H   0  0  0  0  0  0  0  0  0  0  0  0
   -2.6406    1.3955   -2.3550 H   0  0  0  0  0  0  0  0  0  0  0  0
   -4.6842    0.2052   -2.5060 H   0  0  0  0  0  0  0  0  0  0  0  0
   -5.5166   -1.6921   -1.3641 H   0  0  0  0  0  0  0  0  0  0  0  0
   -6.5403   -2.6020    0.7379 H   0  0  0  0  0  0  0  0  0  0  0  0
   -6.7264   -1.2186    2.7775 H   0  0  0  0  0  0  0  0  0  0  0  0
   -4.9121    1.9654    0.7327 H   0  0  0  0  0  0  0  0  0  0  0  0
   -4.3549    2.8220   -1.5928 H   0  0  0  0  0  0  0  0  0  0  0  0
    0.5447   -1.7822   -1.1294 H   0  0  0  0  0  0  0  0  0  0  0  0
   -0.8255   -2.2584   -0.0914 H   0  0  0  0  0  0  0  0  0  0  0  0
   -0.9659   -2.3490   -1.9297 H   0  0  0  0  0  0  0  0  0  0  0  0
  1  2  1  0
  2  3  1  0
  3  4  2  0
  3  5  1  0
  5  6  1  0
  6  7  1  0
  7  8  2  0
  8  9  1  0
  9 10  2  0
 10 11  1  0
 11 12  2  0
 10 13  1  0
 13 14  1  0
 14 15  1  0
 15 16  1  0
 16 17  1  0
 17 18  1  0
 18 19  2  0
 19 20  1  0
 20 21  2  0
 21 22  1  0
 22 23  2  0
 22 24  1  0
 17 25  1  0
 14 26  1  0
 12  7  1  0
 23 18  1  0
  1 27  1  0
  1 28  1  0
  1 29  1  0
  5 30  1  0
  5 31  1  0
  8 32  1  0
  9 33  1  0
 11 34  1  0
 12 35  1  0
 13 36  1  0
 13 37  1  0
 14 38  1  6
 15 39  1  0
 16 40  1  0
 16 41  1  0
 17 42  1  6
 19 43  1  0
 20 44  1  0
 21 45  1  0
 23 46  1  0
 25 47  1  0
 26 48  1  0
 26 49  1  0
 26 50  1  0
M  END
>  <Ligand ID>  (1) 
LIG0005460

>  <Ligand>  (1) 
CHEMBL38486

>  <SMILES>  (1) 
COC(=O)COc1ccc(cc1)C[C@H](NC[C@@H](c1cccc(c1)Cl)O)C

>  <CID>  (1) 
14823035.0

>  <ChEMBL ID>  (1) 
nan

>  <InChiKey>  (1) 
ZFLBZHXQAMUEFS-KUHUBIRLSA-N

>  <InChi>  (1) 
InChI=1S/C20H24ClNO4/c1-14(22-12-19(23)16-4-3-5-17(21)11-16)10-15-6-8-18(9-7-15)26-13-20(24)25-2/h3-9,11,14,19,22-23H,10,12-13H2,1-2H3/t14-,19+/m1/s1

>  <IUPAC Name>  (1) 
methyl 2-[4-[(2R)-2-[[(2R)-2-(3-chlorophenyl)-2-hydroxyethyl]amino]propyl]phenoxy]acetate

$$$$
