
     RDKit          3D

 47 49  0  0  0  0  0  0  0  0999 V2000
    0.6950   -1.9941    1.7920 O   0  0  0  0  0  0  0  0  0  0  0  0
    0.6461   -1.2732    0.5859 C   0  0  2  0  0  0  0  0  0  0  0  0
    1.9003   -1.6474   -0.1677 C   0  0  2  0  0  0  0  0  0  0  0  0
    2.3453   -2.9041    0.2416 O   0  0  0  0  0  0  0  0  0  0  0  0
    2.8371   -0.5719    0.2629 C   0  0  2  0  0  0  0  0  0  0  0  0
    2.1135    0.5356    0.6050 O   0  0  0  0  0  0  0  0  0  0  0  0
    0.8002    0.1527    0.8551 C   0  0  1  0  0  0  0  0  0  0  0  0
   -0.0801    1.0399    0.1175 N   0  0  0  0  0  0  0  0  0  0  0  0
    0.2664    1.4998   -1.1058 C   0  0  0  0  0  0  0  0  0  0  0  0
   -0.5619    2.3377   -1.8002 C   0  0  0  0  0  0  0  0  0  0  0  0
   -1.7747    2.7120   -1.2243 C   0  0  0  0  0  0  0  0  0  0  0  0
   -2.5503    3.4952   -1.8719 O   0  0  0  0  0  0  0  0  0  0  0  0
   -2.1085    2.2501   -0.0107 N   0  0  0  0  0  0  0  0  0  0  0  0
   -1.2770    1.4233    0.6594 C   0  0  0  0  0  0  0  0  0  0  0  0
   -1.7798    0.8350    2.2835 S   0  0  0  0  0  0  0  0  0  0  0  0
   -2.6934   -0.7121    2.0276 C   0  0  0  0  0  0  0  0  0  0  0  0
   -3.9782   -0.5016    1.3039 C   0  0  0  0  0  0  0  0  0  0  0  0
   -4.0132   -0.5624   -0.0868 C   0  0  0  0  0  0  0  0  0  0  0  0
   -5.1907   -0.3696   -0.7542 C   0  0  0  0  0  0  0  0  0  0  0  0
   -6.3486   -0.1127   -0.0254 C   0  0  0  0  0  0  0  0  0  0  0  0
   -6.2859   -0.0575    1.3606 C   0  0  0  0  0  0  0  0  0  0  0  0
   -5.1228   -0.2467    2.0466 C   0  0  0  0  0  0  0  0  0  0  0  0
    3.8531   -0.3826   -0.8207 C   0  0  0  0  0  0  0  0  0  0  0  0
    4.8172    0.5587   -0.5112 O   0  0  0  0  0  0  0  0  0  0  0  0
    5.9186    0.7270   -1.7906 P   0  0  0  0  0  0  0  0  0  0  0  0
    5.2852    0.1587   -3.0362 O   0  0  0  0  0  0  0  0  0  0  0  0
    7.3129   -0.1058   -1.3754 O   0  0  0  0  0  0  0  0  0  0  0  0
    6.3133    2.3595   -1.9934 O   0  0  0  0  0  0  0  0  0  0  0  0
    1.3990   -1.6348    2.3846 H   0  0  0  0  0  0  0  0  0  0  0  0
   -0.1974   -1.5855   -0.0423 H   0  0  0  0  0  0  0  0  0  0  0  0
    1.6999   -1.6117   -1.2540 H   0  0  0  0  0  0  0  0  0  0  0  0
    1.5716   -3.4920    0.3800 H   0  0  0  0  0  0  0  0  0  0  0  0
    3.3860   -0.9003    1.1753 H   0  0  0  0  0  0  0  0  0  0  0  0
    0.6680    0.3364    1.9626 H   0  0  0  0  0  0  0  0  0  0  0  0
    1.2147    1.1895   -1.5234 H   0  0  0  0  0  0  0  0  0  0  0  0
   -0.3009    2.7220   -2.7926 H   0  0  0  0  0  0  0  0  0  0  0  0
   -2.1247   -1.4492    1.4094 H   0  0  0  0  0  0  0  0  0  0  0  0
   -2.8656   -1.2512    2.9946 H   0  0  0  0  0  0  0  0  0  0  0  0
   -3.1002   -0.7629   -0.6196 H   0  0  0  0  0  0  0  0  0  0  0  0
   -5.2261   -0.4153   -1.8367 H   0  0  0  0  0  0  0  0  0  0  0  0
   -7.2740    0.0385   -0.5586 H   0  0  0  0  0  0  0  0  0  0  0  0
   -7.1817    0.1422    1.9408 H   0  0  0  0  0  0  0  0  0  0  0  0
   -5.0708   -0.2040    3.1296 H   0  0  0  0  0  0  0  0  0  0  0  0
    4.3547   -1.3693   -0.9577 H   0  0  0  0  0  0  0  0  0  0  0  0
    3.4183   -0.1363   -1.8060 H   0  0  0  0  0  0  0  0  0  0  0  0
    7.1728   -0.7348   -0.6359 H   0  0  0  0  0  0  0  0  0  0  0  0
    7.1174    2.4751   -2.5426 H   0  0  0  0  0  0  0  0  0  0  0  0
  1  2  1  0
  2  3  1  0
  3  4  1  0
  3  5  1  0
  5  6  1  0
  6  7  1  0
  7  8  1  0
  8  9  1  0
  9 10  2  0
 10 11  1  0
 11 12  2  0
 11 13  1  0
 13 14  2  0
 14 15  1  0
 15 16  1  0
 16 17  1  0
 17 18  2  0
 18 19  1  0
 19 20  2  0
 20 21  1  0
 21 22  2  0
  5 23  1  0
 23 24  1  0
 24 25  1  0
 25 26  2  0
 25 27  1  0
 25 28  1  0
  7  2  1  0
 14  8  1  0
 22 17  1  0
  1 29  1  0
  2 30  1  6
  3 31  1  6
  4 32  1  0
  5 33  1  1
  7 34  1  1
  9 35  1  0
 10 36  1  0
 16 37  1  0
 16 38  1  0
 18 39  1  0
 19 40  1  0
 20 41  1  0
 21 42  1  0
 22 43  1  0
 23 44  1  0
 23 45  1  0
 27 46  1  0
 28 47  1  0
M  END
>  <Ligand ID>  (1) 
LIG0002711

>  <Ligand>  (1) 
CHEMBL1767420

>  <SMILES>  (1) 
O[C@@H]1[C@H](O)[C@H](O[C@H]1n1ccc(=O)nc1SCc1ccccc1)COP(=O)(O)O

>  <CID>  (1) 
52952397.0

>  <ChEMBL ID>  (1) 
nan

>  <InChiKey>  (1) 
UAVDUKDOQBEXDY-NMFUWQPSSA-N

>  <InChi>  (1) 
InChI=1S/C16H19N2O8PS/c19-12-6-7-18(16(17-12)28-9-10-4-2-1-3-5-10)15-14(21)13(20)11(26-15)8-25-27(22,23)24/h1-7,11,13-15,20-21H,8-9H2,(H2,22,23,24)/t11-,13-,14-,15-/m1/s1

>  <IUPAC Name>  (1) 
[(2R,3S,4R,5R)-5-(2-benzylsulfanyl-4-oxopyrimidin-1-yl)-3,4-dihydroxyoxolan-2-yl]methyl dihydrogen phosphate

$$$$
