
     RDKit          3D

 61 62  0  0  0  0  0  0  0  0999 V2000
    6.6078    2.5480    0.5012 C   0  0  0  0  0  0  0  0  0  0  0  0
    6.3967    1.1830    0.1048 O   0  0  0  0  0  0  0  0  0  0  0  0
    7.0132    0.6802   -1.0071 C   0  0  0  0  0  0  0  0  0  0  0  0
    7.7667    1.4766   -1.6528 O   0  0  0  0  0  0  0  0  0  0  0  0
    6.8971   -0.6865   -1.5339 C   0  0  0  0  0  0  0  0  0  0  0  0
    5.8807   -1.4880   -0.8030 C   0  0  0  0  0  0  0  0  0  0  0  0
    4.4971   -0.8996   -0.9117 C   0  0  0  0  0  0  0  0  0  0  0  0
    3.5037   -1.7622   -0.1590 C   0  0  0  0  0  0  0  0  0  0  0  0
    2.0874   -1.1816   -0.2545 C   0  0  0  0  0  0  0  0  0  0  0  0
    1.1591   -2.0664    0.4916 C   0  0  0  0  0  0  0  0  0  0  0  0
   -0.2565   -1.7045    0.5376 C   0  0  1  0  0  0  0  0  0  0  0  0
   -0.9532   -2.7634    1.3441 C   0  0  0  0  0  0  0  0  0  0  0  0
   -0.9982   -3.9273    0.9842 O   0  0  0  0  0  0  0  0  0  0  0  0
   -1.5325   -2.1612    2.5717 C   0  0  0  0  0  0  0  0  0  0  0  0
   -0.8686   -0.8221    2.6401 C   0  0  2  0  0  0  0  0  0  0  0  0
   -0.6920   -0.4637    1.1649 C   0  0  2  0  0  0  0  0  0  0  0  0
   -1.9567    0.0812    0.6108 C   0  0  0  0  0  0  0  0  0  0  0  0
   -2.1229    1.4669    0.5133 C   0  0  0  0  0  0  0  0  0  0  0  0
   -3.2978    2.0102   -0.0080 C   0  0  0  0  0  0  0  0  0  0  0  0
   -4.3334    1.2045   -0.4440 C   0  0  0  0  0  0  0  0  0  0  0  0
   -4.1621   -0.1683   -0.3449 C   0  0  0  0  0  0  0  0  0  0  0  0
   -2.9989   -0.7006    0.1709 C   0  0  0  0  0  0  0  0  0  0  0  0
   -5.5994    1.7335   -0.9996 C   0  0  0  0  0  0  0  0  0  0  0  0
   -6.5194    0.6099   -1.3982 C   0  0  0  0  0  0  0  0  0  0  0  0
   -5.2852    2.6187   -2.1787 C   0  0  0  0  0  0  0  0  0  0  0  0
   -6.3066    2.5336    0.1001 C   0  0  0  0  0  0  0  0  0  0  0  0
    0.4033   -1.0134    3.1831 O   0  0  0  0  0  0  0  0  0  0  0  0
    7.6884    2.7471    0.3867 H   0  0  0  0  0  0  0  0  0  0  0  0
    6.2639    2.6314    1.5391 H   0  0  0  0  0  0  0  0  0  0  0  0
    6.0365    3.2025   -0.1889 H   0  0  0  0  0  0  0  0  0  0  0  0
    6.6346   -0.6890   -2.6179 H   0  0  0  0  0  0  0  0  0  0  0  0
    7.8801   -1.2371   -1.4274 H   0  0  0  0  0  0  0  0  0  0  0  0
    5.8334   -2.5165   -1.2512 H   0  0  0  0  0  0  0  0  0  0  0  0
    6.1422   -1.6635    0.2638 H   0  0  0  0  0  0  0  0  0  0  0  0
    4.4805    0.0875   -0.4263 H   0  0  0  0  0  0  0  0  0  0  0  0
    4.1950   -0.8030   -1.9802 H   0  0  0  0  0  0  0  0  0  0  0  0
    3.8062   -1.8669    0.9010 H   0  0  0  0  0  0  0  0  0  0  0  0
    3.5181   -2.7781   -0.6039 H   0  0  0  0  0  0  0  0  0  0  0  0
    1.8642   -1.1489   -1.3469 H   0  0  0  0  0  0  0  0  0  0  0  0
    2.1763   -0.1555    0.0880 H   0  0  0  0  0  0  0  0  0  0  0  0
    1.2316   -3.0748    0.0223 H   0  0  0  0  0  0  0  0  0  0  0  0
    1.5688   -2.2164    1.5133 H   0  0  0  0  0  0  0  0  0  0  0  0
   -0.7105   -1.7975   -0.4920 H   0  0  0  0  0  0  0  0  0  0  0  0
   -2.6301   -2.0941    2.5536 H   0  0  0  0  0  0  0  0  0  0  0  0
   -1.2309   -2.7109    3.4877 H   0  0  0  0  0  0  0  0  0  0  0  0
   -1.4206   -0.0406    3.1684 H   0  0  0  0  0  0  0  0  0  0  0  0
   -0.0017    0.4021    1.1769 H   0  0  0  0  0  0  0  0  0  0  0  0
   -1.3252    2.1340    0.8478 H   0  0  0  0  0  0  0  0  0  0  0  0
   -3.4294    3.0805   -0.0850 H   0  0  0  0  0  0  0  0  0  0  0  0
   -4.9385   -0.8133   -0.6721 H   0  0  0  0  0  0  0  0  0  0  0  0
   -2.9248   -1.7672    0.2167 H   0  0  0  0  0  0  0  0  0  0  0  0
   -6.8069    0.0304   -0.5128 H   0  0  0  0  0  0  0  0  0  0  0  0
   -7.4439    1.0837   -1.8246 H   0  0  0  0  0  0  0  0  0  0  0  0
   -6.0313    0.0026   -2.1886 H   0  0  0  0  0  0  0  0  0  0  0  0
   -4.9181    1.9765   -2.9998 H   0  0  0  0  0  0  0  0  0  0  0  0
   -4.5697    3.4117   -1.9051 H   0  0  0  0  0  0  0  0  0  0  0  0
   -6.2456    3.0761   -2.5100 H   0  0  0  0  0  0  0  0  0  0  0  0
   -7.0034    3.2547   -0.3649 H   0  0  0  0  0  0  0  0  0  0  0  0
   -6.8729    1.8000    0.7373 H   0  0  0  0  0  0  0  0  0  0  0  0
   -5.5308    3.0300    0.7287 H   0  0  0  0  0  0  0  0  0  0  0  0
    0.3850   -0.9150    4.1716 H   0  0  0  0  0  0  0  0  0  0  0  0
  1  2  1  0
  2  3  1  0
  3  4  2  0
  3  5  1  0
  5  6  1  0
  6  7  1  0
  7  8  1  0
  8  9  1  0
  9 10  1  0
 10 11  1  0
 11 12  1  0
 12 13  2  0
 12 14  1  0
 14 15  1  0
 15 16  1  0
 16 17  1  0
 17 18  2  0
 18 19  1  0
 19 20  2  0
 20 21  1  0
 21 22  2  0
 20 23  1  0
 23 24  1  0
 23 25  1  0
 23 26  1  0
 15 27  1  0
 16 11  1  0
 22 17  1  0
  1 28  1  0
  1 29  1  0
  1 30  1  0
  5 31  1  0
  5 32  1  0
  6 33  1  0
  6 34  1  0
  7 35  1  0
  7 36  1  0
  8 37  1  0
  8 38  1  0
  9 39  1  0
  9 40  1  0
 10 41  1  0
 10 42  1  0
 11 43  1  6
 14 44  1  0
 14 45  1  0
 15 46  1  1
 16 47  1  1
 18 48  1  0
 19 49  1  0
 21 50  1  0
 22 51  1  0
 24 52  1  0
 24 53  1  0
 24 54  1  0
 25 55  1  0
 25 56  1  0
 25 57  1  0
 26 58  1  0
 26 59  1  0
 26 60  1  0
 27 61  1  0
M  END
>  <Ligand ID>  (1) 
LIG0001473

>  <Ligand>  (1) 
SCHEMBL5234031

>  <SMILES>  (1) 
COC(=O)CCCCCC[C@H]1C(=O)C[C@H]([C@@H]1c1ccc(cc1)C(C)(C)C)O

>  <CID>  (1) 
11955133.0

>  <ChEMBL ID>  (1) 
nan

>  <InChiKey>  (1) 
IRVWZTVUXFVHPI-CZTZKLFOSA-N

>  <InChi>  (1) 
InChI=1S/C23H34O4/c1-23(2,3)17-13-11-16(12-14-17)22-18(19(24)15-20(22)25)9-7-5-6-8-10-21(26)27-4/h11-14,18,20,22,25H,5-10,15H2,1-4H3/t18-,20+,22+/m0/s1

>  <IUPAC Name>  (1) 
methyl 7-[(1R,2S,3R)-2-(4-tert-butylphenyl)-3-hydroxy-5-oxocyclopentyl]heptanoate

$$$$
