
     RDKit          3D

 30 30  0  0  0  0  0  0  0  0999 V2000
    4.1122   -0.5176    0.7300 N   0  0  0  0  0  0  0  0  0  0  0  0
    3.3414    0.2488   -0.2223 C   0  0  0  0  0  0  0  0  0  0  0  0
    2.0295   -0.4153   -0.5848 C   0  0  0  0  0  0  0  0  0  0  0  0
    1.2339    0.4048   -1.5863 C   0  0  0  0  0  0  0  0  0  0  0  0
    0.7960    0.2081   -0.1217 C   0  0  0  0  0  0  0  0  0  0  0  0
   -0.4961   -0.4651    0.0033 C   0  0  0  0  0  0  0  0  0  0  0  0
   -1.6457    0.3315    0.0333 C   0  0  0  0  0  0  0  0  0  0  0  0
   -1.5297    1.6977   -0.0539 O   0  0  0  0  0  0  0  0  0  0  0  0
   -2.5646    2.6338   -0.0396 C   0  0  0  0  0  0  0  0  0  0  0  0
   -2.8848   -0.2579    0.1500 C   0  0  0  0  0  0  0  0  0  0  0  0
   -3.0529   -1.6335    0.2412 C   0  0  0  0  0  0  0  0  0  0  0  0
   -1.9323   -2.4062    0.2117 C   0  0  0  0  0  0  0  0  0  0  0  0
   -0.6838   -1.8216    0.0947 C   0  0  0  0  0  0  0  0  0  0  0  0
    0.3842   -2.6187    0.0702 F   0  0  0  0  0  0  0  0  0  0  0  0
   -2.0949   -4.1470    0.3239 Cl  0  0  0  0  0  0  0  0  0  0  0  0
    0.6883    0.0000    0.0000 Cl  0  0  0  0  0  0  0  0  0  0  0  0
    3.7625   -0.4351    1.7080 H   0  0  0  0  0  0  0  0  0  0  0  0
    5.1328   -0.3756    0.6387 H   0  0  0  0  0  0  0  0  0  0  0  0
    3.9909    0.4135   -1.1051 H   0  0  0  0  0  0  0  0  0  0  0  0
    3.1295    1.2369    0.2007 H   0  0  0  0  0  0  0  0  0  0  0  0
    2.1477   -1.4754   -0.8499 H   0  0  0  0  0  0  0  0  0  0  0  0
    0.6726   -0.1143   -2.3751 H   0  0  0  0  0  0  0  0  0  0  0  0
    1.5446    1.4202   -1.8440 H   0  0  0  0  0  0  0  0  0  0  0  0
    0.9147    1.1147    0.5422 H   0  0  0  0  0  0  0  0  0  0  0  0
   -2.8842    2.9087   -1.0624 H   0  0  0  0  0  0  0  0  0  0  0  0
   -3.4131    2.2805    0.5759 H   0  0  0  0  0  0  0  0  0  0  0  0
   -2.1499    3.5299    0.5091 H   0  0  0  0  0  0  0  0  0  0  0  0
   -3.8142    0.3193    0.1781 H   0  0  0  0  0  0  0  0  0  0  0  0
   -4.0464   -2.0652    0.3324 H   0  0  0  0  0  0  0  0  0  0  0  0
   -0.6883    0.0000    0.0000 H   0  0  0  0  0  0  0  0  0  0  0  0
  1  2  1  0
  2  3  1  0
  3  4  1  0
  4  5  1  0
  5  6  1  0
  6  7  2  0
  7  8  1  0
  8  9  1  0
  7 10  1  0
 10 11  2  0
 11 12  1  0
 12 13  2  0
 13 14  1  0
 12 15  1  0
  5  3  1  0
 13  6  1  0
  1 17  1  0
  1 18  1  0
  2 19  1  0
  2 20  1  0
  3 21  1  0
  4 22  1  0
  4 23  1  0
  5 24  1  0
  9 25  1  0
  9 26  1  0
  9 27  1  0
 10 28  1  0
 11 29  1  0
 16 30  1  0
M  END
>  <Ligand ID>  (1) 
LIG0004717

>  <Ligand>  (1) 
CHEMBL3769987

>  <SMILES>  (1) 
NCC1CC1c1c(OC)ccc(c1F)Cl.Cl

>  <CID>  (1) 
127028095.0

>  <ChEMBL ID>  (1) 
nan

>  <InChiKey>  (1) 
FSXBWLRNXRLWNC-UHFFFAOYSA-N

>  <InChi>  (1) 
InChI=1S/C11H13ClFNO.ClH/c1-15-9-3-2-8(12)11(13)10(9)7-4-6(7)5-14;/h2-3,6-7H,4-5,14H2,1H3;1H

>  <IUPAC Name>  (1) 
[2-(3-chloro-2-fluoro-6-methoxyphenyl)cyclopropyl]methanamine;hydrochloride

$$$$
