
     RDKit          3D

 26 26  0  0  0  0  0  0  0  0999 V2000
   -1.7342    2.5917    0.4308 C   0  0  0  0  0  0  0  0  0  0  0  0
   -0.9467    1.4226    0.5575 O   0  0  0  0  0  0  0  0  0  0  0  0
   -1.4130    0.2519   -0.0182 C   0  0  0  0  0  0  0  0  0  0  0  0
   -2.5916    0.2124   -0.6832 N   0  0  0  0  0  0  0  0  0  0  0  0
   -3.0200   -0.9391   -1.2244 C   0  0  0  0  0  0  0  0  0  0  0  0
   -2.2937   -2.1038   -1.1282 C   0  0  0  0  0  0  0  0  0  0  0  0
   -1.1219   -2.0661   -0.4683 N   0  0  0  0  0  0  0  0  0  0  0  0
   -0.6589   -0.9143    0.0919 C   0  0  0  0  0  0  0  0  0  0  0  0
    0.6465   -0.9914    0.7551 C   0  0  0  0  0  0  0  0  0  0  0  0
    1.8327   -0.5932   -0.0507 C   0  0  0  0  0  0  0  0  0  0  0  0
    1.7841    0.8258   -0.5396 C   0  0  0  0  0  0  0  0  0  0  0  0
    3.0235   -0.6377    0.9237 C   0  0  0  0  0  0  0  0  0  0  0  0
   -2.5852    2.4490   -0.2608 H   0  0  0  0  0  0  0  0  0  0  0  0
   -2.0630    2.8511    1.4547 H   0  0  0  0  0  0  0  0  0  0  0  0
   -1.0585    3.3812    0.0088 H   0  0  0  0  0  0  0  0  0  0  0  0
   -3.9645   -0.9147   -1.7458 H   0  0  0  0  0  0  0  0  0  0  0  0
   -2.6825   -2.9986   -1.5835 H   0  0  0  0  0  0  0  0  0  0  0  0
    0.8162   -1.9476    1.3183 H   0  0  0  0  0  0  0  0  0  0  0  0
    0.5877   -0.2368    1.6149 H   0  0  0  0  0  0  0  0  0  0  0  0
    2.0470   -1.3065   -0.8820 H   0  0  0  0  0  0  0  0  0  0  0  0
    1.7310    1.5055    0.3134 H   0  0  0  0  0  0  0  0  0  0  0  0
    0.9820    1.0046   -1.2685 H   0  0  0  0  0  0  0  0  0  0  0  0
    2.7526    1.0438   -1.0796 H   0  0  0  0  0  0  0  0  0  0  0  0
    3.9743   -0.4675    0.3785 H   0  0  0  0  0  0  0  0  0  0  0  0
    2.8764    0.1805    1.6551 H   0  0  0  0  0  0  0  0  0  0  0  0
    3.0794   -1.6030    1.4301 H   0  0  0  0  0  0  0  0  0  0  0  0
  1  2  1  0
  2  3  1  0
  3  4  2  0
  4  5  1  0
  5  6  2  0
  6  7  1  0
  7  8  2  0
  8  9  1  0
  9 10  1  0
 10 11  1  0
 10 12  1  0
  8  3  1  0
  1 13  1  0
  1 14  1  0
  1 15  1  0
  5 16  1  0
  6 17  1  0
  9 18  1  0
  9 19  1  0
 10 20  1  0
 11 21  1  0
 11 22  1  0
 11 23  1  0
 12 24  1  0
 12 25  1  0
 12 26  1  0
M  END
>  <Ligand ID>  (1) 
LIG0000234

>  <Ligand>  (1) 
2-Isobutyl-3-methoxypyrazine

>  <SMILES>  (1) 
COc1nccnc1CC(C)C

>  <CID>  (1) 
32594.0

>  <ChEMBL ID>  (1) 
nan

>  <InChiKey>  (1) 
UXFSPRAGHGMRSQ-UHFFFAOYSA-N

>  <InChi>  (1) 
InChI=1S/C9H14N2O/c1-7(2)6-8-9(12-3)11-5-4-10-8/h4-5,7H,6H2,1-3H3

>  <IUPAC Name>  (1) 
2-methoxy-3-(2-methylpropyl)pyrazine

$$$$
