
     RDKit          3D

 19 19  0  0  0  0  0  0  0  0999 V2000
    3.7911   -0.7915   -0.5319 C   0  0  0  0  0  0  0  0  0  0  0  0
    2.7497    0.0343   -0.6343 C   0  0  0  0  0  0  0  0  0  0  0  0
    2.0825    0.6233    0.5737 C   0  0  0  0  0  0  0  0  0  0  0  0
    0.7249    0.2510    0.6331 O   0  0  0  0  0  0  0  0  0  0  0  0
   -0.2081    0.5586   -0.3601 C   0  0  0  0  0  0  0  0  0  0  0  0
    0.1248    1.2027   -1.3890 O   0  0  0  0  0  0  0  0  0  0  0  0
   -1.5919    0.1205   -0.1921 C   0  0  0  0  0  0  0  0  0  0  0  0
   -2.6260    0.3403   -1.0706 C   0  0  0  0  0  0  0  0  0  0  0  0
   -3.7683   -0.2321   -0.5452 C   0  0  0  0  0  0  0  0  0  0  0  0
   -3.3696   -0.7874    0.6569 C   0  0  0  0  0  0  0  0  0  0  0  0
   -2.0850   -0.5498    0.8113 O   0  0  0  0  0  0  0  0  0  0  0  0
    4.2732   -1.2166   -1.3957 H   0  0  0  0  0  0  0  0  0  0  0  0
    4.1418   -1.0238    0.4759 H   0  0  0  0  0  0  0  0  0  0  0  0
    2.3390    0.3166   -1.5981 H   0  0  0  0  0  0  0  0  0  0  0  0
    2.2820    1.6929    0.5722 H   0  0  0  0  0  0  0  0  0  0  0  0
    2.5289    0.1990    1.5082 H   0  0  0  0  0  0  0  0  0  0  0  0
   -2.6146    0.8607   -2.0202 H   0  0  0  0  0  0  0  0  0  0  0  0
   -4.7607   -0.2663   -0.9384 H   0  0  0  0  0  0  0  0  0  0  0  0
   -4.0137   -1.3324    1.3611 H   0  0  0  0  0  0  0  0  0  0  0  0
  1  2  2  0
  2  3  1  0
  3  4  1  0
  4  5  1  0
  5  6  2  0
  5  7  1  0
  7  8  2  0
  8  9  1  0
  9 10  2  0
 10 11  1  0
 11  7  1  0
  1 12  1  0
  1 13  1  0
  2 14  1  0
  3 15  1  0
  3 16  1  0
  8 17  1  0
  9 18  1  0
 10 19  1  0
M  END
>  <Ligand ID>  (1) 
LIG0001019

>  <Ligand>  (1) 
Allyl furoate

>  <SMILES>  (1) 
C=CCOC(=O)c1ccco1

>  <CID>  (1) 
61337.0

>  <ChEMBL ID>  (1) 
nan

>  <InChiKey>  (1) 
SJRQTHAMRUOPBJ-UHFFFAOYSA-N

>  <InChi>  (1) 
InChI=1S/C8H8O3/c1-2-5-11-8(9)7-4-3-6-10-7/h2-4,6H,1,5H2

>  <IUPAC Name>  (1) 
prop-2-enyl furan-2-carboxylate

$$$$
