
     RDKit          3D

 65 67  0  0  0  0  0  0  0  0999 V2000
    0.1922   -0.7010   -2.3716 O   0  0  0  0  0  0  0  0  0  0  0  0
    0.7274    0.0822   -1.3664 C   0  0  2  0  0  0  0  0  0  0  0  0
    2.2324    0.0172   -1.3830 C   0  0  2  0  0  0  0  0  0  0  0  0
    2.6554   -1.0927   -2.1413 O   0  0  0  0  0  0  0  0  0  0  0  0
    2.5886   -0.1200    0.0559 C   0  0  2  0  0  0  0  0  0  0  0  0
    1.4104    0.0413    0.7869 O   0  0  0  0  0  0  0  0  0  0  0  0
    0.4250   -0.5263    0.0152 C   0  0  1  0  0  0  0  0  0  0  0  0
   -0.8907   -0.1067    0.4478 N   0  0  0  0  0  0  0  0  0  0  0  0
   -1.1007    1.0586    1.0988 C   0  0  0  0  0  0  0  0  0  0  0  0
   -2.3875    1.3858    1.4087 C   0  0  0  0  0  0  0  0  0  0  0  0
   -3.3915    0.5453    1.0577 C   0  0  0  0  0  0  0  0  0  0  0  0
   -3.1749   -0.6272    0.4052 N   0  0  0  0  0  0  0  0  0  0  0  0
   -1.9083   -0.9370    0.1066 C   0  0  0  0  0  0  0  0  0  0  0  0
   -1.6718   -2.0233   -0.5057 O   0  0  0  0  0  0  0  0  0  0  0  0
   -4.7766    0.8674    1.3241 N   0  0  0  0  0  0  0  0  0  0  0  0
   -5.6297    0.5834    0.3087 O   0  0  0  0  0  0  0  0  0  0  0  0
   -5.1069    0.8205   -0.9475 C   0  0  0  0  0  0  0  0  0  0  0  0
   -5.5761   -0.1936   -1.9678 C   0  0  0  0  0  0  0  0  0  0  0  0
   -7.0472   -0.1607   -2.2252 C   0  0  0  0  0  0  0  0  0  0  0  0
   -7.8805   -0.3386   -1.0214 C   0  0  0  0  0  0  0  0  0  0  0  0
   -8.3162   -1.5150   -0.5086 C   0  0  0  0  0  0  0  0  0  0  0  0
   -9.0922   -1.5508    0.6479 C   0  0  0  0  0  0  0  0  0  0  0  0
   -9.4146   -0.3510    1.2729 C   0  0  0  0  0  0  0  0  0  0  0  0
   -8.9892    0.8685    0.7800 C   0  0  0  0  0  0  0  0  0  0  0  0
   -8.2292    0.8487   -0.3608 C   0  0  0  0  0  0  0  0  0  0  0  0
  -10.1547   -0.3413    2.3882 F   0  0  0  0  0  0  0  0  0  0  0  0
    3.5986    0.9304    0.4303 C   0  0  0  0  0  0  0  0  0  0  0  0
    4.7411    0.7065   -0.3750 O   0  0  0  0  0  0  0  0  0  0  0  0
    6.0897    0.9663    0.6225 P   0  0  0  0  0  0  0  0  0  0  0  0
    5.9114    2.2500    1.3729 O   0  0  0  0  0  0  0  0  0  0  0  0
    7.4991    1.0605   -0.2864 O   0  0  0  0  0  0  0  0  0  0  0  0
    8.7777    0.4073    0.5801 P   0  0  0  0  0  0  0  0  0  0  0  0
    8.2769   -0.7293    1.4261 O   0  0  0  0  0  0  0  0  0  0  0  0
    9.9483   -0.2542   -0.4565 O   0  0  0  0  0  0  0  0  0  0  0  0
   11.3387   -0.4981    0.4747 P   0  0  0  0  0  0  0  0  0  0  0  0
   12.3913    0.5431    0.1160 O   0  0  0  0  0  0  0  0  0  0  0  0
   11.0188   -0.3304    2.1261 O   0  0  0  0  0  0  0  0  0  0  0  0
   11.9983   -2.0521    0.2241 O   0  0  0  0  0  0  0  0  0  0  0  0
    9.4290    1.6309    1.5405 O   0  0  0  0  0  0  0  0  0  0  0  0
    6.2349   -0.3517    1.6885 O   0  0  0  0  0  0  0  0  0  0  0  0
    0.8607   -0.6947   -3.1282 H   0  0  0  0  0  0  0  0  0  0  0  0
    0.3683    1.1311   -1.4095 H   0  0  0  0  0  0  0  0  0  0  0  0
    2.6646    0.9138   -1.8749 H   0  0  0  0  0  0  0  0  0  0  0  0
    2.1976   -1.8885   -1.7557 H   0  0  0  0  0  0  0  0  0  0  0  0
    2.9511   -1.1433    0.3192 H   0  0  0  0  0  0  0  0  0  0  0  0
    0.4955   -1.6193   -0.0663 H   0  0  0  0  0  0  0  0  0  0  0  0
   -0.2782    1.6985    1.3580 H   0  0  0  0  0  0  0  0  0  0  0  0
   -2.6466    2.3098    1.9423 H   0  0  0  0  0  0  0  0  0  0  0  0
   -5.0782    1.2834    2.2396 H   0  0  0  0  0  0  0  0  0  0  0  0
   -5.5664    1.7941   -1.2750 H   0  0  0  0  0  0  0  0  0  0  0  0
   -4.0350    0.9465   -0.9398 H   0  0  0  0  0  0  0  0  0  0  0  0
   -5.0242   -0.0274   -2.9038 H   0  0  0  0  0  0  0  0  0  0  0  0
   -5.3450   -1.2447   -1.6359 H   0  0  0  0  0  0  0  0  0  0  0  0
   -7.2713   -1.0167   -2.9099 H   0  0  0  0  0  0  0  0  0  0  0  0
   -7.2831    0.8088   -2.7441 H   0  0  0  0  0  0  0  0  0  0  0  0
   -8.0461   -2.4279   -1.0192 H   0  0  0  0  0  0  0  0  0  0  0  0
   -9.4387   -2.5159    1.0513 H   0  0  0  0  0  0  0  0  0  0  0  0
   -9.2048    1.8154    1.2285 H   0  0  0  0  0  0  0  0  0  0  0  0
   -7.8941    1.8105   -0.7544 H   0  0  0  0  0  0  0  0  0  0  0  0
    3.2144    1.9508    0.2698 H   0  0  0  0  0  0  0  0  0  0  0  0
    3.8501    0.7604    1.4918 H   0  0  0  0  0  0  0  0  0  0  0  0
   10.5731   -1.1268    2.5139 H   0  0  0  0  0  0  0  0  0  0  0  0
   11.8816   -2.6359    1.0213 H   0  0  0  0  0  0  0  0  0  0  0  0
    9.3224    2.4889    1.0251 H   0  0  0  0  0  0  0  0  0  0  0  0
    5.9859   -1.1535    1.1666 H   0  0  0  0  0  0  0  0  0  0  0  0
  1  2  1  0
  2  3  1  0
  3  4  1  0
  3  5  1  0
  5  6  1  0
  6  7  1  0
  7  8  1  0
  8  9  1  0
  9 10  2  0
 10 11  1  0
 11 12  2  0
 12 13  1  0
 13 14  2  0
 11 15  1  0
 15 16  1  0
 16 17  1  0
 17 18  1  0
 18 19  1  0
 19 20  1  0
 20 21  2  0
 21 22  1  0
 22 23  2  0
 23 24  1  0
 24 25  2  0
 23 26  1  0
  5 27  1  0
 27 28  1  0
 28 29  1  0
 29 30  2  0
 29 31  1  0
 31 32  1  0
 32 33  2  0
 32 34  1  0
 34 35  1  0
 35 36  2  0
 35 37  1  0
 35 38  1  0
 32 39  1  0
 29 40  1  0
  7  2  1  0
 13  8  1  0
 25 20  1  0
  1 41  1  0
  2 42  1  1
  3 43  1  6
  4 44  1  0
  5 45  1  6
  7 46  1  6
  9 47  1  0
 10 48  1  0
 15 49  1  0
 17 50  1  0
 17 51  1  0
 18 52  1  0
 18 53  1  0
 19 54  1  0
 19 55  1  0
 21 56  1  0
 22 57  1  0
 24 58  1  0
 25 59  1  0
 27 60  1  0
 27 61  1  0
 37 62  1  0
 38 63  1  0
 39 64  1  0
 40 65  1  0
M  END
>  <Ligand ID>  (1) 
LIG0002550

>  <Ligand>  (1) 
CHEMBL3261363

>  <SMILES>  (1) 
O[C@@H]1[C@H](O)[C@H](O[C@H]1n1ccc(nc1=O)NOCCCc1ccc(cc1)F)COP(=O)(OP(=O)(OP(=O)(O)O)O)O

>  <CID>  (1) 
90656214.0

>  <ChEMBL ID>  (1) 
nan

>  <InChiKey>  (1) 
CHNFEKRMOKHRTP-MWQQHZPXSA-N

>  <InChi>  (1) 
InChI=1S/C18H25FN3O15P3/c19-12-5-3-11(4-6-12)2-1-9-33-21-14-7-8-22(18(25)20-14)17-16(24)15(23)13(35-17)10-34-39(29,30)37-40(31,32)36-38(26,27)28/h3-8,13,15-17,23-24H,1-2,9-10H2,(H,29,30)(H,31,32)(H,20,21,25)(H2,26,27,28)/t13-,15-,16-,17-/m1/s1

>  <IUPAC Name>  (1) 
[[(2R,3S,4R,5R)-5-[4-[3-(4-fluorophenyl)propoxyamino]-2-oxopyrimidin-1-yl]-3,4-dihydroxyoxolan-2-yl]methoxy-hydroxyphosphoryl] phosphono hydrogen phosphate

$$$$
