
     RDKit          3D

 44 44  0  0  0  0  0  0  0  0999 V2000
   -7.3594    2.2127    2.0761 O   0  0  0  0  0  0  0  0  0  0  0  0
   -6.7028    1.4544    1.1347 C   0  0  0  0  0  0  0  0  0  0  0  0
   -7.3612    1.1255    0.0984 O   0  0  0  0  0  0  0  0  0  0  0  0
   -5.3045    1.0698    1.3671 C   0  0  0  0  0  0  0  0  0  0  0  0
   -4.7780    0.2944    0.3082 O   0  0  0  0  0  0  0  0  0  0  0  0
   -3.4726   -0.1470    0.3751 C   0  0  0  0  0  0  0  0  0  0  0  0
   -2.6315    0.1325    1.4436 C   0  0  0  0  0  0  0  0  0  0  0  0
   -1.3191   -0.3278    1.4809 C   0  0  0  0  0  0  0  0  0  0  0  0
   -0.8814   -1.0832    0.3992 C   0  0  0  0  0  0  0  0  0  0  0  0
   -1.7055   -1.3694   -0.6699 C   0  0  0  0  0  0  0  0  0  0  0  0
   -3.0134   -0.9090   -0.7042 C   0  0  0  0  0  0  0  0  0  0  0  0
   -3.8577   -1.1866   -1.7713 O   0  0  0  0  0  0  0  0  0  0  0  0
   -3.8684   -0.2618   -2.8544 C   0  0  0  0  0  0  0  0  0  0  0  0
   -4.2570    1.0150   -2.4263 F   0  0  0  0  0  0  0  0  0  0  0  0
   -2.5884   -0.1038   -3.3775 F   0  0  0  0  0  0  0  0  0  0  0  0
   -4.7760   -0.6418   -3.8189 F   0  0  0  0  0  0  0  0  0  0  0  0
    0.5190   -1.5879    0.4146 C   0  0  0  0  0  0  0  0  0  0  0  0
    1.6384   -0.4142   -0.3451 P   0  0  0  0  0  0  0  0  0  0  0  0
    1.7323   -0.7414   -1.8151 O   0  0  0  0  0  0  0  0  0  0  0  0
    3.2729   -0.5284    0.4303 C   0  0  0  0  0  0  0  0  0  0  0  0
    4.2892    0.0447   -0.5331 C   0  0  0  0  0  0  0  0  0  0  0  0
    5.6896   -0.0093    0.0329 C   0  0  1  0  0  0  0  0  0  0  0  0
    6.6366    0.5606   -0.9452 C   0  0  0  0  0  0  0  0  0  0  0  0
    7.4545    1.4760   -0.6123 O   0  0  0  0  0  0  0  0  0  0  0  0
    6.6039    0.0640   -2.2383 O   0  0  0  0  0  0  0  0  0  0  0  0
    5.7877    0.5559    1.3401 N   0  0  0  0  0  0  0  0  0  0  0  0
    1.0882    1.1660   -0.2077 O   0  0  0  0  0  0  0  0  0  0  0  0
   -8.3660    2.1202    2.2656 H   0  0  0  0  0  0  0  0  0  0  0  0
   -4.6312    1.9395    1.5235 H   0  0  0  0  0  0  0  0  0  0  0  0
   -5.2268    0.4761    2.3047 H   0  0  0  0  0  0  0  0  0  0  0  0
   -3.0136    0.7198    2.2568 H   0  0  0  0  0  0  0  0  0  0  0  0
   -0.7027   -0.0899    2.3239 H   0  0  0  0  0  0  0  0  0  0  0  0
   -1.3495   -1.9593   -1.5053 H   0  0  0  0  0  0  0  0  0  0  0  0
    0.6194   -2.5962   -0.0276 H   0  0  0  0  0  0  0  0  0  0  0  0
    0.8575   -1.7024    1.4819 H   0  0  0  0  0  0  0  0  0  0  0  0
    3.5499   -1.5645    0.6557 H   0  0  0  0  0  0  0  0  0  0  0  0
    3.3159    0.0869    1.3417 H   0  0  0  0  0  0  0  0  0  0  0  0
    4.2268   -0.5673   -1.4506 H   0  0  0  0  0  0  0  0  0  0  0  0
    3.9843    1.0804   -0.7867 H   0  0  0  0  0  0  0  0  0  0  0  0
    5.9610   -1.0877    0.1228 H   0  0  0  0  0  0  0  0  0  0  0  0
    7.3212    0.2981   -2.9169 H   0  0  0  0  0  0  0  0  0  0  0  0
    5.5618   -0.1237    2.0880 H   0  0  0  0  0  0  0  0  0  0  0  0
    5.3770    1.4939    1.4522 H   0  0  0  0  0  0  0  0  0  0  0  0
    1.6796    1.7644    0.2884 H   0  0  0  0  0  0  0  0  0  0  0  0
  1  2  1  0
  2  3  2  0
  2  4  1  0
  4  5  1  0
  5  6  1  0
  6  7  2  0
  7  8  1  0
  8  9  2  0
  9 10  1  0
 10 11  2  0
 11 12  1  0
 12 13  1  0
 13 14  1  0
 13 15  1  0
 13 16  1  0
  9 17  1  0
 17 18  1  0
 18 19  2  0
 18 20  1  0
 20 21  1  0
 21 22  1  0
 22 23  1  0
 23 24  2  0
 23 25  1  0
 22 26  1  0
 18 27  1  0
 11  6  1  0
  1 28  1  0
  4 29  1  0
  4 30  1  0
  7 31  1  0
  8 32  1  0
 10 33  1  0
 17 34  1  0
 17 35  1  0
 20 36  1  0
 20 37  1  0
 21 38  1  0
 21 39  1  0
 22 40  1  1
 25 41  1  0
 26 42  1  0
 26 43  1  0
 27 44  1  0
M  END
>  <Ligand ID>  (1) 
LIG0002483

>  <Ligand>  (1) 
CHEMBL3910941

>  <SMILES>  (1) 
OC(=O)COc1ccc(cc1OC(F)(F)F)CP(=O)(CC[C@@H](C(=O)O)N)O

>  <CID>  (1) 
71041875.0

>  <ChEMBL ID>  (1) 
nan

>  <InChiKey>  (1) 
CARSOSGGIHYXAY-VIFPVBQESA-N

>  <InChi>  (1) 
InChI=1S/C14H17F3NO8P/c15-14(16,17)26-11-5-8(1-2-10(11)25-6-12(19)20)7-27(23,24)4-3-9(18)13(21)22/h1-2,5,9H,3-4,6-7,18H2,(H,19,20)(H,21,22)(H,23,24)/t9-/m0/s1

>  <IUPAC Name>  (1) 
(2S)-2-amino-4-[[4-(carboxymethoxy)-3-(trifluoromethoxy)phenyl]methyl-hydroxyphosphoryl]butanoic acid

$$$$
