
     RDKit          3D

 34 34  0  0  0  0  0  0  0  0999 V2000
    3.6080   -3.2477   -0.1102 C   0  0  0  0  0  0  0  0  0  0  0  0
    2.9081   -2.4313    0.6866 C   0  0  0  0  0  0  0  0  0  0  0  0
    2.7290   -0.9779    0.3727 C   0  0  0  0  0  0  0  0  0  0  0  0
    1.3812   -0.6282    0.2261 O   0  0  0  0  0  0  0  0  0  0  0  0
    1.0868    0.6970   -0.0672 C   0  0  0  0  0  0  0  0  0  0  0  0
    2.0563    1.6674   -0.2175 C   0  0  0  0  0  0  0  0  0  0  0  0
    1.7579    2.9882   -0.5101 C   0  0  0  0  0  0  0  0  0  0  0  0
    3.0458    4.1915   -0.6918 Cl  0  0  0  0  0  0  0  0  0  0  0  0
    0.4339    3.3486   -0.6577 C   0  0  0  0  0  0  0  0  0  0  0  0
   -0.5299    2.3787   -0.5072 C   0  0  0  0  0  0  0  0  0  0  0  0
   -0.2557    1.0657   -0.2175 C   0  0  0  0  0  0  0  0  0  0  0  0
   -1.2853    0.0164   -0.0539 C   0  0  0  0  0  0  0  0  0  0  0  0
   -1.7635   -0.1125    1.3641 C   0  0  0  0  0  0  0  0  0  0  0  0
   -2.6951    0.3223    0.1982 C   0  0  0  0  0  0  0  0  0  0  0  0
   -3.7466   -0.6882   -0.1093 C   0  0  0  0  0  0  0  0  0  0  0  0
   -3.8053   -1.0929   -1.5002 N   0  0  0  0  0  0  0  0  0  0  0  0
    0.0078    5.0111   -1.0288 Cl  0  0  0  0  0  0  0  0  0  0  0  0
    0.6871    0.0000    0.0000 Cl  0  0  0  0  0  0  0  0  0  0  0  0
    3.7591   -4.2853    0.0760 H   0  0  0  0  0  0  0  0  0  0  0  0
    4.0636   -2.8297   -1.0241 H   0  0  0  0  0  0  0  0  0  0  0  0
    2.4799   -2.8889    1.5725 H   0  0  0  0  0  0  0  0  0  0  0  0
    3.2475   -0.7837   -0.5887 H   0  0  0  0  0  0  0  0  0  0  0  0
    3.2226   -0.4310    1.2162 H   0  0  0  0  0  0  0  0  0  0  0  0
    3.0817    1.3567   -0.0966 H   0  0  0  0  0  0  0  0  0  0  0  0
   -1.5664    2.6867   -0.6281 H   0  0  0  0  0  0  0  0  0  0  0  0
   -1.0312   -0.9100   -0.6141 H   0  0  0  0  0  0  0  0  0  0  0  0
   -1.8329   -1.1326    1.7389 H   0  0  0  0  0  0  0  0  0  0  0  0
   -1.5426    0.6844    2.0974 H   0  0  0  0  0  0  0  0  0  0  0  0
   -3.0619    1.3737    0.2534 H   0  0  0  0  0  0  0  0  0  0  0  0
   -3.6426   -1.6291    0.4791 H   0  0  0  0  0  0  0  0  0  0  0  0
   -4.7628   -0.2992    0.1442 H   0  0  0  0  0  0  0  0  0  0  0  0
   -4.4541   -1.9349   -1.5114 H   0  0  0  0  0  0  0  0  0  0  0  0
   -2.8936   -1.4851   -1.8302 H   0  0  0  0  0  0  0  0  0  0  0  0
   -0.6871    0.0000    0.0000 H   0  0  0  0  0  0  0  0  0  0  0  0
  1  2  2  0
  2  3  1  0
  3  4  1  0
  4  5  1  0
  5  6  2  0
  6  7  1  0
  7  8  1  0
  7  9  2  0
  9 10  1  0
 10 11  2  0
 11 12  1  0
 12 13  1  0
 13 14  1  0
 14 15  1  0
 15 16  1  0
  9 17  1  0
 11  5  1  0
 14 12  1  0
  1 19  1  0
  1 20  1  0
  2 21  1  0
  3 22  1  0
  3 23  1  0
  6 24  1  0
 10 25  1  0
 12 26  1  0
 13 27  1  0
 13 28  1  0
 14 29  1  0
 15 30  1  0
 15 31  1  0
 16 32  1  0
 16 33  1  0
 18 34  1  0
M  END
>  <Ligand ID>  (1) 
LIG0002339

>  <Ligand>  (1) 
CHEMBL3771152

>  <SMILES>  (1) 
C=CCOc1cc(Cl)c(cc1C1CC1CN)Cl.Cl

>  <CID>  (1) 
127028422.0

>  <ChEMBL ID>  (1) 
nan

>  <InChiKey>  (1) 
PPGSSOHTEFDPQX-UHFFFAOYSA-N

>  <InChi>  (1) 
InChI=1S/C13H15Cl2NO.ClH/c1-2-3-17-13-6-12(15)11(14)5-10(13)9-4-8(9)7-16;/h2,5-6,8-9H,1,3-4,7,16H2;1H

>  <IUPAC Name>  (1) 
[2-(4,5-dichloro-2-prop-2-enoxyphenyl)cyclopropyl]methanamine;hydrochloride

$$$$
