
     RDKit          3D

 46 49  0  0  0  0  0  0  0  0999 V2000
    4.6970    0.6696   -1.1142 C   0  0  0  0  0  0  0  0  0  0  0  0
    5.6215    0.1189   -0.1054 C   0  0  0  0  0  0  0  0  0  0  0  0
    7.0031    0.2160   -0.2983 C   0  0  0  0  0  0  0  0  0  0  0  0
    7.8734   -0.3066    0.6592 C   0  0  0  0  0  0  0  0  0  0  0  0
    7.4139   -0.9230    1.8031 C   0  0  0  0  0  0  0  0  0  0  0  0
    6.0476   -1.0030    1.9644 C   0  0  0  0  0  0  0  0  0  0  0  0
    5.1618   -0.4909    1.0264 C   0  0  0  0  0  0  0  0  0  0  0  0
    3.7315   -0.6238    1.2861 C   0  0  0  0  0  0  0  0  0  0  0  0
    3.1880   -1.2073    2.3698 N   0  0  0  0  0  0  0  0  0  0  0  0
    1.8785   -1.1379    2.2545 O   0  0  0  0  0  0  0  0  0  0  0  0
    1.5992   -0.5237    1.1221 C   0  0  0  0  0  0  0  0  0  0  0  0
    2.7278   -0.1928    0.4993 N   0  0  0  0  0  0  0  0  0  0  0  0
    0.2416   -0.2640    0.6555 C   0  0  0  0  0  0  0  0  0  0  0  0
   -0.8484   -0.6609    1.3997 C   0  0  0  0  0  0  0  0  0  0  0  0
   -2.1327   -0.4136    0.9554 C   0  0  0  0  0  0  0  0  0  0  0  0
   -2.3914    0.2382   -0.2466 C   0  0  0  0  0  0  0  0  0  0  0  0
   -1.2716    0.6259   -0.9740 C   0  0  0  0  0  0  0  0  0  0  0  0
    0.0153    0.3846   -0.5408 C   0  0  0  0  0  0  0  0  0  0  0  0
   -3.7592    0.4933   -0.7043 C   0  0  0  0  0  0  0  0  0  0  0  0
   -4.4170    1.4522    0.2301 C   0  0  0  0  0  0  0  0  0  0  0  0
   -5.5191    0.8024    0.9959 C   0  0  0  0  0  0  0  0  0  0  0  0
   -6.5704    0.3576    0.0058 C   0  0  0  0  0  0  0  0  0  0  0  0
   -6.0137   -0.5399   -1.0581 C   0  0  0  0  0  0  0  0  0  0  0  0
   -4.5412   -0.7642   -0.9779 C   0  0  0  0  0  0  0  0  0  0  0  0
    4.1133   -0.0965   -1.6588 H   0  0  0  0  0  0  0  0  0  0  0  0
    5.2824    1.2092   -1.9057 H   0  0  0  0  0  0  0  0  0  0  0  0
    3.9869    1.4180   -0.7294 H   0  0  0  0  0  0  0  0  0  0  0  0
    7.3725    0.7009   -1.1983 H   0  0  0  0  0  0  0  0  0  0  0  0
    8.9419   -0.2012    0.4539 H   0  0  0  0  0  0  0  0  0  0  0  0
    8.0909   -1.3182    2.5269 H   0  0  0  0  0  0  0  0  0  0  0  0
    5.7041   -1.4930    2.8735 H   0  0  0  0  0  0  0  0  0  0  0  0
   -0.6749   -1.1711    2.3408 H   0  0  0  0  0  0  0  0  0  0  0  0
   -2.9330   -0.7567    1.5971 H   0  0  0  0  0  0  0  0  0  0  0  0
   -1.4049    1.1422   -1.9267 H   0  0  0  0  0  0  0  0  0  0  0  0
    0.8849    0.6838   -1.1022 H   0  0  0  0  0  0  0  0  0  0  0  0
   -3.6830    1.0282   -1.6968 H   0  0  0  0  0  0  0  0  0  0  0  0
   -4.8251    2.3561   -0.2790 H   0  0  0  0  0  0  0  0  0  0  0  0
   -3.6708    1.8780    0.9628 H   0  0  0  0  0  0  0  0  0  0  0  0
   -5.1946    0.0378    1.6994 H   0  0  0  0  0  0  0  0  0  0  0  0
   -6.0082    1.5975    1.6133 H   0  0  0  0  0  0  0  0  0  0  0  0
   -7.4149   -0.0629    0.5649 H   0  0  0  0  0  0  0  0  0  0  0  0
   -6.9441    1.2847   -0.4996 H   0  0  0  0  0  0  0  0  0  0  0  0
   -6.5048   -1.5429   -0.8963 H   0  0  0  0  0  0  0  0  0  0  0  0
   -6.2997   -0.2646   -2.0895 H   0  0  0  0  0  0  0  0  0  0  0  0
   -4.3319   -1.5933   -0.2969 H   0  0  0  0  0  0  0  0  0  0  0  0
   -4.2225   -1.1431   -1.9930 H   0  0  0  0  0  0  0  0  0  0  0  0
  1  2  1  0
  2  3  2  0
  3  4  1  0
  4  5  2  0
  5  6  1  0
  6  7  2  0
  7  8  1  0
  8  9  2  0
  9 10  1  0
 10 11  1  0
 11 12  2  0
 11 13  1  0
 13 14  2  0
 14 15  1  0
 15 16  2  0
 16 17  1  0
 17 18  2  0
 16 19  1  0
 19 20  1  0
 20 21  1  0
 21 22  1  0
 22 23  1  0
 23 24  1  0
  7  2  1  0
 12  8  1  0
 18 13  1  0
 24 19  1  0
  1 25  1  0
  1 26  1  0
  1 27  1  0
  3 28  1  0
  4 29  1  0
  5 30  1  0
  6 31  1  0
 14 32  1  0
 15 33  1  0
 17 34  1  0
 18 35  1  0
 19 36  1  0
 20 37  1  0
 20 38  1  0
 21 39  1  0
 21 40  1  0
 22 41  1  0
 22 42  1  0
 23 43  1  0
 23 44  1  0
 24 45  1  0
 24 46  1  0
M  END
>  <Ligand ID>  (1) 
LIG0001727

>  <Ligand>  (1) 
CHEMBL208786

>  <SMILES>  (1) 
Cc1ccccc1c1noc(n1)c1ccc(cc1)C1CCCCC1

>  <CID>  (1) 
44412908.0

>  <ChEMBL ID>  (1) 
nan

>  <InChiKey>  (1) 
UTDMZFXOTRMGDB-UHFFFAOYSA-N

>  <InChi>  (1) 
InChI=1S/C21H22N2O/c1-15-7-5-6-10-19(15)20-22-21(24-23-20)18-13-11-17(12-14-18)16-8-3-2-4-9-16/h5-7,10-14,16H,2-4,8-9H2,1H3

>  <IUPAC Name>  (1) 
5-(4-cyclohexylphenyl)-3-(2-methylphenyl)-1,2,4-oxadiazole

$$$$
