
     RDKit          3D

 51 52  0  0  0  0  0  0  0  0999 V2000
   -5.2708    1.9655    1.6001 N   0  0  0  0  0  0  0  0  0  0  0  0
   -4.0281    1.2822    1.6952 C   0  0  0  0  0  0  0  0  0  0  0  0
   -3.4413    1.1724    2.8253 O   0  0  0  0  0  0  0  0  0  0  0  0
   -3.4517    0.7161    0.4698 C   0  0  0  0  0  0  0  0  0  0  0  0
   -4.3815   -0.3088   -0.1670 C   0  0  0  0  0  0  0  0  0  0  0  0
   -5.7071    0.3190   -0.5362 C   0  0  0  0  0  0  0  0  0  0  0  0
   -3.7604   -0.8491   -1.4375 C   0  0  0  0  0  0  0  0  0  0  0  0
   -4.5976   -1.4038    0.8521 C   0  0  0  0  0  0  0  0  0  0  0  0
   -2.1858    0.0471    0.6971 N   0  0  0  0  0  0  0  0  0  0  0  0
   -1.0460    0.5594    0.0454 C   0  0  0  0  0  0  0  0  0  0  0  0
   -1.1262    1.5660   -0.7098 O   0  0  0  0  0  0  0  0  0  0  0  0
    0.2379   -0.0999    0.2614 C   0  0  0  0  0  0  0  0  0  0  0  0
    0.3536   -1.1771    1.0601 N   0  0  0  0  0  0  0  0  0  0  0  0
    1.5370   -1.7904    1.2648 C   0  0  0  0  0  0  0  0  0  0  0  0
    2.6878   -1.3188    0.6460 C   0  0  0  0  0  0  0  0  0  0  0  0
    2.6261   -0.2011   -0.1965 C   0  0  0  0  0  0  0  0  0  0  0  0
    1.3980    0.3679   -0.3568 C   0  0  0  0  0  0  0  0  0  0  0  0
    3.7978    0.1985   -0.7675 O   0  0  0  0  0  0  0  0  0  0  0  0
    3.8984    1.2884   -1.6262 C   0  0  2  0  0  0  0  0  0  0  0  0
    4.4234    0.8019   -2.9649 C   0  0  0  0  0  0  0  0  0  0  0  0
    3.5135   -0.1245   -3.4373 F   0  0  0  0  0  0  0  0  0  0  0  0
    5.6309    0.2119   -2.7309 F   0  0  0  0  0  0  0  0  0  0  0  0
    4.4722    1.8664   -3.8435 F   0  0  0  0  0  0  0  0  0  0  0  0
    4.8264    2.3285   -1.0243 C   0  0  0  0  0  0  0  0  0  0  0  0
    3.9353   -2.0428    0.9413 C   0  0  0  0  0  0  0  0  0  0  0  0
    4.6976   -1.9087    2.1859 C   0  0  0  0  0  0  0  0  0  0  0  0
    5.2027   -1.2447    0.9478 C   0  0  0  0  0  0  0  0  0  0  0  0
   -6.0572    1.5865    2.2066 H   0  0  0  0  0  0  0  0  0  0  0  0
   -5.4136    2.7913    0.9751 H   0  0  0  0  0  0  0  0  0  0  0  0
   -3.3076    1.5753   -0.2328 H   0  0  0  0  0  0  0  0  0  0  0  0
   -6.4695    0.2608    0.2516 H   0  0  0  0  0  0  0  0  0  0  0  0
   -5.5134    1.3367   -0.9296 H   0  0  0  0  0  0  0  0  0  0  0  0
   -6.1116   -0.2831   -1.3865 H   0  0  0  0  0  0  0  0  0  0  0  0
   -2.6677   -0.8688   -1.3972 H   0  0  0  0  0  0  0  0  0  0  0  0
   -4.0599   -0.1351   -2.2548 H   0  0  0  0  0  0  0  0  0  0  0  0
   -4.2030   -1.8469   -1.6486 H   0  0  0  0  0  0  0  0  0  0  0  0
   -4.2750   -2.3934    0.4643 H   0  0  0  0  0  0  0  0  0  0  0  0
   -5.6656   -1.4144    1.1212 H   0  0  0  0  0  0  0  0  0  0  0  0
   -4.0640   -1.1891    1.8181 H   0  0  0  0  0  0  0  0  0  0  0  0
   -2.1334   -0.7835    1.3236 H   0  0  0  0  0  0  0  0  0  0  0  0
    1.5327   -2.6494    1.9232 H   0  0  0  0  0  0  0  0  0  0  0  0
    1.2578    1.2320   -0.9872 H   0  0  0  0  0  0  0  0  0  0  0  0
    2.9402    1.7941   -1.7929 H   0  0  0  0  0  0  0  0  0  0  0  0
    4.8090    2.1714    0.0934 H   0  0  0  0  0  0  0  0  0  0  0  0
    5.8396    2.1894   -1.4445 H   0  0  0  0  0  0  0  0  0  0  0  0
    4.4382    3.3575   -1.1641 H   0  0  0  0  0  0  0  0  0  0  0  0
    3.9759   -3.0529    0.4360 H   0  0  0  0  0  0  0  0  0  0  0  0
    5.3056   -2.7786    2.5192 H   0  0  0  0  0  0  0  0  0  0  0  0
    4.3495   -1.2833    3.0322 H   0  0  0  0  0  0  0  0  0  0  0  0
    5.1932   -0.1501    0.9872 H   0  0  0  0  0  0  0  0  0  0  0  0
    6.0580   -1.6881    0.3926 H   0  0  0  0  0  0  0  0  0  0  0  0
  1  2  1  0
  2  3  2  0
  2  4  1  0
  4  5  1  0
  5  6  1  0
  5  7  1  0
  5  8  1  0
  4  9  1  0
  9 10  1  0
 10 11  2  0
 10 12  1  0
 12 13  2  0
 13 14  1  0
 14 15  2  0
 15 16  1  0
 16 17  2  0
 16 18  1  0
 18 19  1  0
 19 20  1  0
 20 21  1  0
 20 22  1  0
 20 23  1  0
 19 24  1  0
 15 25  1  0
 25 26  1  0
 26 27  1  0
 17 12  1  0
 27 25  1  0
  1 28  1  0
  1 29  1  0
  4 30  1  0
  6 31  1  0
  6 32  1  0
  6 33  1  0
  7 34  1  0
  7 35  1  0
  7 36  1  0
  8 37  1  0
  8 38  1  0
  8 39  1  0
  9 40  1  0
 14 41  1  0
 17 42  1  0
 19 43  1  6
 24 44  1  0
 24 45  1  0
 24 46  1  0
 25 47  1  0
 26 48  1  0
 26 49  1  0
 27 50  1  0
 27 51  1  0
M  END
>  <Ligand ID>  (1) 
LIG0005180

>  <Ligand>  (1) 
CHEMBL3889656

>  <SMILES>  (1) 
NC(=O)C(C(C)(C)C)NC(=O)c1ncc(c(c1)O[C@H](C(F)(F)F)C)C1CC1

>  <CID>  (1) 
90214971.0

>  <ChEMBL ID>  (1) 
nan

>  <InChiKey>  (1) 
UZUAJNYIPZAFCC-CUVJYRNJSA-N

>  <InChi>  (1) 
InChI=1S/C18H24F3N3O3/c1-9(18(19,20)21)27-13-7-12(23-8-11(13)10-5-6-10)16(26)24-14(15(22)25)17(2,3)4/h7-10,14H,5-6H2,1-4H3,(H2,22,25)(H,24,26)/t9-,14?/m0/s1

>  <IUPAC Name>  (1) 
N-(1-amino-3,3-dimethyl-1-oxobutan-2-yl)-5-cyclopropyl-4-[(2S)-1,1,1-trifluoropropan-2-yl]oxypyridine-2-carboxamide

$$$$
