
     RDKit          3D

 64 67  0  0  0  0  0  0  0  0999 V2000
    5.0169    1.0633    0.9131 O   0  0  0  0  0  0  0  0  0  0  0  0
    4.8179    0.1757   -0.1509 C   0  0  2  0  0  0  0  0  0  0  0  0
    5.7223    0.5818   -1.2693 C   0  0  0  0  0  0  0  0  0  0  0  0
    7.0694    0.5846   -0.9831 O   0  0  0  0  0  0  0  0  0  0  0  0
    7.8823   -0.4465   -0.6483 C   0  0  0  0  0  0  0  0  0  0  0  0
    7.5380   -1.7700   -0.5493 C   0  0  0  0  0  0  0  0  0  0  0  0
    8.4760   -2.7474   -0.1873 C   0  0  0  0  0  0  0  0  0  0  0  0
    9.7702   -2.3892    0.0757 C   0  0  0  0  0  0  0  0  0  0  0  0
   10.1506   -1.0665   -0.0158 C   0  0  0  0  0  0  0  0  0  0  0  0
    9.2176   -0.1416   -0.3685 C   0  0  0  0  0  0  0  0  0  0  0  0
   10.7666   -3.2903    0.4414 O   0  0  0  0  0  0  0  0  0  0  0  0
    3.3663    0.2740   -0.6190 C   0  0  0  0  0  0  0  0  0  0  0  0
    2.4376   -0.0641    0.3758 N   0  0  0  0  0  0  0  0  0  0  0  0
    2.2516    0.7504    1.5004 C   0  0  0  0  0  0  0  0  0  0  0  0
    1.5949    2.1020    1.2674 C   0  0  0  0  0  0  0  0  0  0  0  0
    0.2567    1.8081    0.6806 C   0  0  0  0  0  0  0  0  0  0  0  0
   -0.7722    1.3499    1.5096 C   0  0  0  0  0  0  0  0  0  0  0  0
   -2.0295    1.1061    1.0092 C   0  0  0  0  0  0  0  0  0  0  0  0
   -2.2414    1.3314   -0.3412 C   0  0  0  0  0  0  0  0  0  0  0  0
   -1.2168    1.7918   -1.1772 C   0  0  0  0  0  0  0  0  0  0  0  0
    0.0529    2.0333   -0.6624 C   0  0  0  0  0  0  0  0  0  0  0  0
   -3.4798    1.0754   -0.9901 N   0  0  0  0  0  0  0  0  0  0  0  0
   -4.5829    1.9445   -0.7352 C   0  0  0  0  0  0  0  0  0  0  0  0
   -4.3449    2.8913    0.1082 O   0  0  0  0  0  0  0  0  0  0  0  0
   -5.9023    1.8296   -1.3403 C   0  0  0  0  0  0  0  0  0  0  0  0
   -6.8367    1.0087   -0.5465 C   0  0  0  0  0  0  0  0  0  0  0  0
   -7.4418    1.3479    0.5824 N   0  0  0  0  0  0  0  0  0  0  0  0
   -8.3159    0.4964    1.2061 C   0  0  0  0  0  0  0  0  0  0  0  0
   -8.5908   -0.7640    0.6575 C   0  0  0  0  0  0  0  0  0  0  0  0
   -7.9787   -1.1439   -0.5146 C   0  0  0  0  0  0  0  0  0  0  0  0
   -7.1131   -0.2612   -1.1022 C   0  0  0  0  0  0  0  0  0  0  0  0
   -8.1874   -2.3568   -1.1394 C   0  0  0  0  0  0  0  0  0  0  0  0
   -9.0698   -3.2415   -0.5438 C   0  0  0  0  0  0  0  0  0  0  0  0
   -9.6879   -2.8768    0.6242 C   0  0  0  0  0  0  0  0  0  0  0  0
   -9.4673   -1.6445    1.2488 C   0  0  0  0  0  0  0  0  0  0  0  0
    4.8905    1.9847    0.5181 H   0  0  0  0  0  0  0  0  0  0  0  0
    4.9407   -0.8380    0.2380 H   0  0  0  0  0  0  0  0  0  0  0  0
    5.3474    1.5854   -1.6167 H   0  0  0  0  0  0  0  0  0  0  0  0
    5.5227   -0.1640   -2.1029 H   0  0  0  0  0  0  0  0  0  0  0  0
    6.5392   -2.1141   -0.7622 H   0  0  0  0  0  0  0  0  0  0  0  0
    8.2203   -3.7865   -0.1035 H   0  0  0  0  0  0  0  0  0  0  0  0
   11.1668   -0.7721    0.1866 H   0  0  0  0  0  0  0  0  0  0  0  0
    9.5459    0.8962   -0.4325 H   0  0  0  0  0  0  0  0  0  0  0  0
   10.6441   -3.9079    1.2301 H   0  0  0  0  0  0  0  0  0  0  0  0
    3.2234    1.2646   -1.0812 H   0  0  0  0  0  0  0  0  0  0  0  0
    3.2751   -0.4649   -1.4707 H   0  0  0  0  0  0  0  0  0  0  0  0
    1.6984   -0.7292    0.1787 H   0  0  0  0  0  0  0  0  0  0  0  0
    3.1314    0.8491    2.1818 H   0  0  0  0  0  0  0  0  0  0  0  0
    1.5025    0.2035    2.1689 H   0  0  0  0  0  0  0  0  0  0  0  0
    2.2001    2.7431    0.5893 H   0  0  0  0  0  0  0  0  0  0  0  0
    1.5486    2.6168    2.2370 H   0  0  0  0  0  0  0  0  0  0  0  0
   -0.5741    1.1753    2.5819 H   0  0  0  0  0  0  0  0  0  0  0  0
   -2.8272    0.7454    1.6510 H   0  0  0  0  0  0  0  0  0  0  0  0
   -1.4029    1.9690   -2.2398 H   0  0  0  0  0  0  0  0  0  0  0  0
    0.8083    2.3903   -1.3463 H   0  0  0  0  0  0  0  0  0  0  0  0
   -3.6129    0.2754   -1.6458 H   0  0  0  0  0  0  0  0  0  0  0  0
   -6.4049    2.8457   -1.4537 H   0  0  0  0  0  0  0  0  0  0  0  0
   -5.8172    1.4818   -2.3968 H   0  0  0  0  0  0  0  0  0  0  0  0
   -8.8067    0.7792    2.1287 H   0  0  0  0  0  0  0  0  0  0  0  0
   -6.6287   -0.5618   -2.0241 H   0  0  0  0  0  0  0  0  0  0  0  0
   -7.6920   -2.6296   -2.0612 H   0  0  0  0  0  0  0  0  0  0  0  0
   -9.2252   -4.1840   -1.0503 H   0  0  0  0  0  0  0  0  0  0  0  0
  -10.3748   -3.6127    1.0469 H   0  0  0  0  0  0  0  0  0  0  0  0
   -9.9671   -1.3825    2.1688 H   0  0  0  0  0  0  0  0  0  0  0  0
  1  2  1  0
  2  3  1  0
  3  4  1  0
  4  5  1  0
  5  6  2  0
  6  7  1  0
  7  8  2  0
  8  9  1  0
  9 10  2  0
  8 11  1  0
  2 12  1  0
 12 13  1  0
 13 14  1  0
 14 15  1  0
 15 16  1  0
 16 17  2  0
 17 18  1  0
 18 19  2  0
 19 20  1  0
 20 21  2  0
 19 22  1  0
 22 23  1  0
 23 24  2  0
 23 25  1  0
 25 26  1  0
 26 27  2  0
 27 28  1  0
 28 29  2  0
 29 30  1  0
 30 31  2  0
 30 32  1  0
 32 33  2  0
 33 34  1  0
 34 35  2  0
 10  5  1  0
 21 16  1  0
 31 26  1  0
 35 29  1  0
  1 36  1  0
  2 37  1  1
  3 38  1  0
  3 39  1  0
  6 40  1  0
  7 41  1  0
  9 42  1  0
 10 43  1  0
 11 44  1  0
 12 45  1  0
 12 46  1  0
 13 47  1  0
 14 48  1  0
 14 49  1  0
 15 50  1  0
 15 51  1  0
 17 52  1  0
 18 53  1  0
 20 54  1  0
 21 55  1  0
 22 56  1  0
 25 57  1  0
 25 58  1  0
 28 59  1  0
 31 60  1  0
 32 61  1  0
 33 62  1  0
 34 63  1  0
 35 64  1  0
M  END
>  <Ligand ID>  (1) 
LIG0002755

>  <Ligand>  (1) 
CHEMBL562153

>  <SMILES>  (1) 
O[C@H](COc1ccc(cc1)O)CNCCc1ccc(cc1)NC(=O)Cc1ncc2c(c1)cccc2

>  <CID>  (1) 
44127678.0

>  <ChEMBL ID>  (1) 
nan

>  <InChiKey>  (1) 
HOIXTVLQWZGFAP-SANMLTNESA-N

>  <InChi>  (1) 
InChI=1S/C28H29N3O4/c32-25-9-11-27(12-10-25)35-19-26(33)18-29-14-13-20-5-7-23(8-6-20)31-28(34)16-24-15-21-3-1-2-4-22(21)17-30-24/h1-12,15,17,26,29,32-33H,13-14,16,18-19H2,(H,31,34)/t26-/m0/s1

>  <IUPAC Name>  (1) 
N-[4-[2-[[(2S)-2-hydroxy-3-(4-hydroxyphenoxy)propyl]amino]ethyl]phenyl]-2-isoquinolin-3-ylacetamide

$$$$
