
     RDKit          3D

 45 48  0  0  0  0  0  0  0  0999 V2000
    4.4389    3.0765   -1.9529 O   0  0  0  0  0  0  0  0  0  0  0  0
    4.7954    1.8803   -1.2999 C   0  0  0  0  0  0  0  0  0  0  0  0
    5.0577    1.9921   -0.0842 O   0  0  0  0  0  0  0  0  0  0  0  0
    4.8144    0.6696   -2.1161 C   0  0  0  0  0  0  0  0  0  0  0  0
    4.7862   -0.6306   -1.3886 C   0  0  0  0  0  0  0  0  0  0  0  0
    3.6223   -0.9799   -0.7129 N   0  0  0  0  0  0  0  0  0  0  0  0
    3.1950   -0.2937    0.4147 C   0  0  0  0  0  0  0  0  0  0  0  0
    2.0299   -0.9149    1.0952 C   0  0  0  0  0  0  0  0  0  0  0  0
    2.2252   -2.1664    2.4704 S   0  0  0  0  0  0  0  0  0  0  0  0
    0.4440   -2.3499    2.6651 C   0  0  0  0  0  0  0  0  0  0  0  0
   -0.1332   -1.5041    1.7341 C   0  0  0  0  0  0  0  0  0  0  0  0
    0.6697   -0.7833    0.9454 C   0  0  0  0  0  0  0  0  0  0  0  0
   -1.5442   -1.5261    1.7453 C   0  0  0  0  0  0  0  0  0  0  0  0
   -2.2338   -2.3305    2.6182 C   0  0  0  0  0  0  0  0  0  0  0  0
   -1.6259   -3.1652    3.5368 C   0  0  0  0  0  0  0  0  0  0  0  0
   -0.2468   -3.1542    3.5383 C   0  0  0  0  0  0  0  0  0  0  0  0
   -2.3300   -0.6909    0.8506 C   0  0  0  0  0  0  0  0  0  0  0  0
   -3.3439   -1.3159    0.1183 C   0  0  0  0  0  0  0  0  0  0  0  0
   -4.1449   -0.5936   -0.7510 C   0  0  0  0  0  0  0  0  0  0  0  0
   -3.9482    0.7573   -0.9028 C   0  0  0  0  0  0  0  0  0  0  0  0
   -2.9510    1.3805   -0.1841 C   0  0  0  0  0  0  0  0  0  0  0  0
   -2.1349    0.6644    0.6968 C   0  0  0  0  0  0  0  0  0  0  0  0
   -2.7940    2.7389   -0.3719 C   0  0  0  0  0  0  0  0  0  0  0  0
   -3.6046    3.4555   -1.2481 C   0  0  0  0  0  0  0  0  0  0  0  0
   -4.5949    2.7799   -1.9483 C   0  0  0  0  0  0  0  0  0  0  0  0
   -4.7784    1.4231   -1.7839 C   0  0  0  0  0  0  0  0  0  0  0  0
    4.5780    3.9372   -1.4695 H   0  0  0  0  0  0  0  0  0  0  0  0
    3.9447    0.7434   -2.8386 H   0  0  0  0  0  0  0  0  0  0  0  0
    5.7169    0.6519   -2.8074 H   0  0  0  0  0  0  0  0  0  0  0  0
    5.6203   -0.6008   -0.5937 H   0  0  0  0  0  0  0  0  0  0  0  0
    5.1543   -1.4471   -2.0903 H   0  0  0  0  0  0  0  0  0  0  0  0
    3.3970   -1.9906   -0.7659 H   0  0  0  0  0  0  0  0  0  0  0  0
    2.8467    0.7461    0.0984 H   0  0  0  0  0  0  0  0  0  0  0  0
    4.0218   -0.1116    1.1397 H   0  0  0  0  0  0  0  0  0  0  0  0
    0.3039   -0.0792    0.1612 H   0  0  0  0  0  0  0  0  0  0  0  0
   -3.3088   -2.3311    2.6077 H   0  0  0  0  0  0  0  0  0  0  0  0
   -2.1762   -3.7911    4.2156 H   0  0  0  0  0  0  0  0  0  0  0  0
    0.3356   -3.7715    4.2201 H   0  0  0  0  0  0  0  0  0  0  0  0
   -3.4973   -2.3888    0.2413 H   0  0  0  0  0  0  0  0  0  0  0  0
   -4.9086   -1.1588   -1.2801 H   0  0  0  0  0  0  0  0  0  0  0  0
   -1.3646    1.1746    1.2554 H   0  0  0  0  0  0  0  0  0  0  0  0
   -2.0294    3.2535    0.1705 H   0  0  0  0  0  0  0  0  0  0  0  0
   -3.4951    4.5091   -1.4043 H   0  0  0  0  0  0  0  0  0  0  0  0
   -5.2552    3.3079   -2.6486 H   0  0  0  0  0  0  0  0  0  0  0  0
   -5.5538    0.9283   -2.3407 H   0  0  0  0  0  0  0  0  0  0  0  0
  1  2  1  0
  2  3  2  0
  2  4  1  0
  4  5  1  0
  5  6  1  0
  6  7  1  0
  7  8  1  0
  8  9  1  0
  9 10  1  0
 10 11  2  0
 11 12  1  0
 11 13  1  0
 13 14  2  0
 14 15  1  0
 15 16  2  0
 13 17  1  0
 17 18  2  0
 18 19  1  0
 19 20  2  0
 20 21  1  0
 21 22  2  0
 21 23  1  0
 23 24  2  0
 24 25  1  0
 25 26  2  0
 12  8  2  0
 22 17  1  0
 16 10  1  0
 26 20  1  0
  1 27  1  0
  4 28  1  0
  4 29  1  0
  5 30  1  0
  5 31  1  0
  6 32  1  0
  7 33  1  0
  7 34  1  0
 12 35  1  0
 14 36  1  0
 15 37  1  0
 16 38  1  0
 18 39  1  0
 19 40  1  0
 22 41  1  0
 23 42  1  0
 24 43  1  0
 25 44  1  0
 26 45  1  0
M  END
>  <Ligand ID>  (1) 
LIG0001275

>  <Ligand>  (1) 
CHEMBL3883812

>  <SMILES>  (1) 
OC(=O)CCNCc1sc2c(c1)c(ccc2)c1ccc2c(c1)cccc2

>  <CID>  (1) 
134130546.0

>  <ChEMBL ID>  (1) 
nan

>  <InChiKey>  (1) 
JGCAWTYGXUDFDL-UHFFFAOYSA-N

>  <InChi>  (1) 
InChI=1S/C22H19NO2S/c24-22(25)10-11-23-14-18-13-20-19(6-3-7-21(20)26-18)17-9-8-15-4-1-2-5-16(15)12-17/h1-9,12-13,23H,10-11,14H2,(H,24,25)

>  <IUPAC Name>  (1) 
3-[(4-naphthalen-2-yl-1-benzothiophen-2-yl)methylamino]propanoic acid

$$$$
