
     RDKit          3D

 19 18  0  0  0  0  0  0  0  0999 V2000
   -1.6887    1.5348   -2.0769 O   0  0  0  0  0  0  0  0  0  0  0  0
   -2.1398    1.3728   -0.7628 C   0  0  0  0  0  0  0  0  0  0  0  0
   -3.1692    1.9982   -0.4425 O   0  0  0  0  0  0  0  0  0  0  0  0
   -1.4094    0.4945    0.1797 C   0  0  2  0  0  0  0  0  0  0  0  0
    0.0022    0.2974   -0.3427 C   0  0  0  0  0  0  0  0  0  0  0  0
    0.6965   -0.4625    0.5840 O   0  0  0  0  0  0  0  0  0  0  0  0
    2.2852   -0.7588    0.1287 P   0  0  0  0  0  0  0  0  0  0  0  0
    2.3805   -2.0450   -0.6547 O   0  0  0  0  0  0  0  0  0  0  0  0
    2.9534    0.4802   -0.7682 O   0  0  0  0  0  0  0  0  0  0  0  0
    3.2235   -0.9672    1.5256 O   0  0  0  0  0  0  0  0  0  0  0  0
   -2.0948   -0.7543    0.3681 N   0  0  0  0  0  0  0  0  0  0  0  0
   -1.3035    1.0160    1.1684 H   0  0  0  0  0  0  0  0  0  0  0  0
    0.4472    1.2779   -0.5481 H   0  0  0  0  0  0  0  0  0  0  0  0
   -0.0594   -0.3302   -1.2729 H   0  0  0  0  0  0  0  0  0  0  0  0
    3.9268    0.5024   -0.5881 H   0  0  0  0  0  0  0  0  0  0  0  0
    2.8568   -0.3724    2.2506 H   0  0  0  0  0  0  0  0  0  0  0  0
   -1.6108   -1.5698   -0.0652 H   0  0  0  0  0  0  0  0  0  0  0  0
   -3.0576   -0.7309   -0.0649 H   0  0  0  0  0  0  0  0  0  0  0  0
   -2.2389   -0.9831    1.3819 H   0  0  0  0  0  0  0  0  0  0  0  0
  1  2  1  0
  2  3  2  0
  2  4  1  0
  4  5  1  0
  5  6  1  0
  6  7  1  0
  7  8  2  0
  7  9  1  0
  7 10  1  0
  4 11  1  0
  4 12  1  1
  5 13  1  0
  5 14  1  0
  9 15  1  0
 10 16  1  0
 11 17  1  0
 11 18  1  0
 11 19  1  0
M  CHG  2   1  -1  11   1
M  END
>  <Ligand ID>  (1) 
LIG0000786

>  <Ligand>  (1) 
CID 57689797

>  <SMILES>  (1) 
[O-]C(=O)[C@H](COP(=O)(O)O)[NH3+]

>  <CID>  (1) 
57689797.0

>  <ChEMBL ID>  (1) 
nan

>  <InChiKey>  (1) 
BZQFBWGGLXLEPQ-REOHCLBHSA-N

>  <InChi>  (1) 
InChI=1S/C3H8NO6P/c4-2(3(5)6)1-10-11(7,8)9/h2H,1,4H2,(H,5,6)(H2,7,8,9)/t2-/m0/s1

>  <IUPAC Name>  (1) 
(2S)-2-azaniumyl-3-phosphonooxypropanoate

$$$$
