
     RDKit          3D

 42 41  0  0  0  0  0  0  0  0999 V2000
    6.9885    0.1158    1.2148 O   0  0  0  0  0  0  0  0  0  0  0  0
    6.4832   -0.0294   -0.0775 C   0  0  0  0  0  0  0  0  0  0  0  0
    5.2155   -0.7840   -0.0947 C   0  0  0  0  0  0  0  0  0  0  0  0
    4.1156   -0.2200   -0.5701 C   0  0  0  0  0  0  0  0  0  0  0  0
    2.8219   -0.9561   -0.6005 C   0  0  0  0  0  0  0  0  0  0  0  0
    1.8362   -0.1620    0.2442 C   0  0  0  0  0  0  0  0  0  0  0  0
    0.4961   -0.7784    0.3063 C   0  0  0  0  0  0  0  0  0  0  0  0
   -0.6087   -0.1669   -0.1178 C   0  0  0  0  0  0  0  0  0  0  0  0
   -1.9420   -0.8644   -0.0202 C   0  0  0  0  0  0  0  0  0  0  0  0
   -2.9146   -0.1065    0.8315 C   0  0  0  0  0  0  0  0  0  0  0  0
   -4.2062   -0.8480    0.8854 C   0  0  0  0  0  0  0  0  0  0  0  0
   -5.3327   -0.3045    0.4546 C   0  0  0  0  0  0  0  0  0  0  0  0
   -5.3590    1.0619   -0.0988 C   0  0  0  0  0  0  0  0  0  0  0  0
   -6.5933   -1.0907    0.5323 C   0  0  0  0  0  0  0  0  0  0  0  0
   -0.5009    1.1913   -0.6783 C   0  0  0  0  0  0  0  0  0  0  0  0
    4.1648    1.1661   -1.0821 C   0  0  0  0  0  0  0  0  0  0  0  0
    6.5261   -0.5532    1.7979 H   0  0  0  0  0  0  0  0  0  0  0  0
    6.4141    0.9650   -0.5314 H   0  0  0  0  0  0  0  0  0  0  0  0
    7.2265   -0.5882   -0.6976 H   0  0  0  0  0  0  0  0  0  0  0  0
    5.2270   -1.7957    0.2903 H   0  0  0  0  0  0  0  0  0  0  0  0
    2.9272   -1.9875   -0.2042 H   0  0  0  0  0  0  0  0  0  0  0  0
    2.4554   -1.0398   -1.6466 H   0  0  0  0  0  0  0  0  0  0  0  0
    2.2452   -0.2067    1.2959 H   0  0  0  0  0  0  0  0  0  0  0  0
    1.8508    0.8835   -0.0506 H   0  0  0  0  0  0  0  0  0  0  0  0
    0.4180   -1.7742    0.7174 H   0  0  0  0  0  0  0  0  0  0  0  0
   -1.7862   -1.8630    0.4352 H   0  0  0  0  0  0  0  0  0  0  0  0
   -2.3753   -0.9543   -1.0352 H   0  0  0  0  0  0  0  0  0  0  0  0
   -3.0405    0.9391    0.5601 H   0  0  0  0  0  0  0  0  0  0  0  0
   -2.5416   -0.0894    1.8975 H   0  0  0  0  0  0  0  0  0  0  0  0
   -4.1833   -1.8515    1.2926 H   0  0  0  0  0  0  0  0  0  0  0  0
   -4.5190    1.2740   -0.8049 H   0  0  0  0  0  0  0  0  0  0  0  0
   -6.2932    1.2347   -0.6965 H   0  0  0  0  0  0  0  0  0  0  0  0
   -5.3613    1.8479    0.6901 H   0  0  0  0  0  0  0  0  0  0  0  0
   -6.3188   -2.1764    0.3977 H   0  0  0  0  0  0  0  0  0  0  0  0
   -7.3049   -0.8133   -0.2573 H   0  0  0  0  0  0  0  0  0  0  0  0
   -7.0414   -0.9381    1.5423 H   0  0  0  0  0  0  0  0  0  0  0  0
   -0.1623    1.1089   -1.7290 H   0  0  0  0  0  0  0  0  0  0  0  0
    0.0830    1.9027   -0.0642 H   0  0  0  0  0  0  0  0  0  0  0  0
   -1.5298    1.6249   -0.7077 H   0  0  0  0  0  0  0  0  0  0  0  0
    4.8819    1.3063   -1.9100 H   0  0  0  0  0  0  0  0  0  0  0  0
    3.1802    1.4765   -1.4887 H   0  0  0  0  0  0  0  0  0  0  0  0
    4.3575    1.8352   -0.2222 H   0  0  0  0  0  0  0  0  0  0  0  0
  1  2  1  0
  2  3  1  0
  3  4  2  0
  4  5  1  0
  5  6  1  0
  6  7  1  0
  7  8  2  0
  8  9  1  0
  9 10  1  0
 10 11  1  0
 11 12  2  3
 12 13  1  0
 12 14  1  0
  8 15  1  0
  4 16  1  0
  1 17  1  0
  2 18  1  0
  2 19  1  0
  3 20  1  0
  5 21  1  0
  5 22  1  0
  6 23  1  0
  6 24  1  0
  7 25  1  0
  9 26  1  0
  9 27  1  0
 10 28  1  0
 10 29  1  0
 11 30  1  0
 13 31  1  0
 13 32  1  0
 13 33  1  0
 14 34  1  0
 14 35  1  0
 14 36  1  0
 15 37  1  0
 15 38  1  0
 15 39  1  0
 16 40  1  0
 16 41  1  0
 16 42  1  0
M  END
>  <Ligand ID>  (1) 
LIG0000322

>  <Ligand>  (1) 
farnesol

>  <SMILES>  (1) 
OC/C=C(/CC/C=C(/CCC=C(C)C)\C)\C

>  <CID>  (1) 
445070.0

>  <ChEMBL ID>  (1) 
nan

>  <InChiKey>  (1) 
CRDAMVZIKSXKFV-YFVJMOTDSA-N

>  <InChi>  (1) 
InChI=1S/C15H26O/c1-13(2)7-5-8-14(3)9-6-10-15(4)11-12-16/h7,9,11,16H,5-6,8,10,12H2,1-4H3/b14-9+,15-11+

>  <IUPAC Name>  (1) 
(2E,6E)-3,7,11-trimethyldodeca-2,6,10-trien-1-ol

$$$$
