
     RDKit          3D

 62 65  0  0  0  0  0  0  0  0999 V2000
    2.4878    3.6533    0.5545 Cl  0  0  0  0  0  0  0  0  0  0  0  0
    3.0574    2.4696   -0.5785 C   0  0  0  0  0  0  0  0  0  0  0  0
    2.5585    2.5403   -1.8781 C   0  0  0  0  0  0  0  0  0  0  0  0
    2.9763    1.6228   -2.8368 C   0  0  0  0  0  0  0  0  0  0  0  0
    3.8853    0.6656   -2.4448 C   0  0  0  0  0  0  0  0  0  0  0  0
    4.3932    0.5779   -1.1593 C   0  0  0  0  0  0  0  0  0  0  0  0
    3.9766    1.4877   -0.2154 C   0  0  0  0  0  0  0  0  0  0  0  0
    5.3709   -0.5019   -0.8848 C   0  0  2  0  0  0  0  0  0  0  0  0
    4.6740   -1.6051   -0.1234 C   0  0  0  0  0  0  0  0  0  0  0  0
    4.1380   -1.1271    1.1499 N   0  0  0  0  0  0  0  0  0  0  0  0
    3.4606   -2.2341    1.8330 C   0  0  0  0  0  0  0  0  0  0  0  0
    2.9221   -1.8486    3.1750 C   0  0  0  0  0  0  0  0  0  0  0  0
    1.9326   -0.7457    3.1449 C   0  0  0  0  0  0  0  0  0  0  0  0
    2.4275    0.5404    3.2730 C   0  0  0  0  0  0  0  0  0  0  0  0
    1.5978    1.6408    3.2624 C   0  0  0  0  0  0  0  0  0  0  0  0
    0.2378    1.4605    3.1205 C   0  0  0  0  0  0  0  0  0  0  0  0
   -0.2588    0.1794    2.9923 C   0  0  0  0  0  0  0  0  0  0  0  0
    0.5748   -0.9413    3.0021 C   0  0  0  0  0  0  0  0  0  0  0  0
   -1.6055   -0.0008    2.8517 O   0  0  0  0  0  0  0  0  0  0  0  0
   -2.3140   -0.0324    1.6799 C   0  0  0  0  0  0  0  0  0  0  0  0
   -1.7420    0.1220    0.4448 C   0  0  0  0  0  0  0  0  0  0  0  0
   -2.4971    0.0823   -0.7038 C   0  0  0  0  0  0  0  0  0  0  0  0
   -3.8723   -0.1191   -0.6069 C   0  0  0  0  0  0  0  0  0  0  0  0
   -4.4550   -0.2746    0.6281 C   0  0  0  0  0  0  0  0  0  0  0  0
   -3.6864   -0.2329    1.7714 C   0  0  0  0  0  0  0  0  0  0  0  0
   -5.8907   -0.4742    0.7470 C   0  0  0  0  0  0  0  0  0  0  0  0
   -6.4204   -0.6262    1.8891 O   0  0  0  0  0  0  0  0  0  0  0  0
   -6.7580   -0.5119   -0.3330 O   0  0  0  0  0  0  0  0  0  0  0  0
   -4.5861   -0.1516   -1.8330 N   0  0  0  0  0  0  0  0  0  0  0  0
   -4.8547   -1.2906   -2.6996 C   0  0  0  0  0  0  0  0  0  0  0  0
   -4.7060   -0.6092   -4.0653 C   0  0  0  0  0  0  0  0  0  0  0  0
   -5.6643    0.5706   -3.8397 C   0  0  0  0  0  0  0  0  0  0  0  0
   -5.1882    0.9923   -2.4737 C   0  0  0  0  0  0  0  0  0  0  0  0
   -5.2750    2.1210   -1.9417 O   0  0  0  0  0  0  0  0  0  0  0  0
    6.4183    0.0168   -0.1278 O   0  0  0  0  0  0  0  0  0  0  0  0
    1.8413    3.3026   -2.1705 H   0  0  0  0  0  0  0  0  0  0  0  0
    2.6174    1.6381   -3.8572 H   0  0  0  0  0  0  0  0  0  0  0  0
    4.2109   -0.0571   -3.2089 H   0  0  0  0  0  0  0  0  0  0  0  0
    4.3679    1.4307    0.8004 H   0  0  0  0  0  0  0  0  0  0  0  0
    5.7621   -0.9260   -1.8537 H   0  0  0  0  0  0  0  0  0  0  0  0
    5.3516   -2.4643    0.0723 H   0  0  0  0  0  0  0  0  0  0  0  0
    3.8514   -2.0025   -0.7473 H   0  0  0  0  0  0  0  0  0  0  0  0
    4.9039   -0.7437    1.7447 H   0  0  0  0  0  0  0  0  0  0  0  0
    2.6747   -2.6715    1.1889 H   0  0  0  0  0  0  0  0  0  0  0  0
    4.2297   -3.0136    1.9992 H   0  0  0  0  0  0  0  0  0  0  0  0
    2.4397   -2.7361    3.6420 H   0  0  0  0  0  0  0  0  0  0  0  0
    3.8184   -1.5268    3.7826 H   0  0  0  0  0  0  0  0  0  0  0  0
    3.5021    0.7035    3.3865 H   0  0  0  0  0  0  0  0  0  0  0  0
    1.9969    2.6424    3.3635 H   0  0  0  0  0  0  0  0  0  0  0  0
   -0.3811    2.3272    3.1153 H   0  0  0  0  0  0  0  0  0  0  0  0
    0.1898   -1.9482    2.9015 H   0  0  0  0  0  0  0  0  0  0  0  0
   -0.6768    0.2773    0.3856 H   0  0  0  0  0  0  0  0  0  0  0  0
   -1.9955    0.2099   -1.6505 H   0  0  0  0  0  0  0  0  0  0  0  0
   -4.1610   -0.3569    2.7175 H   0  0  0  0  0  0  0  0  0  0  0  0
   -7.6766   -0.9762   -0.2831 H   0  0  0  0  0  0  0  0  0  0  0  0
   -5.9090   -1.6219   -2.6616 H   0  0  0  0  0  0  0  0  0  0  0  0
   -4.1199   -2.1102   -2.5858 H   0  0  0  0  0  0  0  0  0  0  0  0
   -3.6850   -0.1868   -4.1108 H   0  0  0  0  0  0  0  0  0  0  0  0
   -4.9972   -1.2437   -4.9003 H   0  0  0  0  0  0  0  0  0  0  0  0
   -6.7122    0.2133   -3.8015 H   0  0  0  0  0  0  0  0  0  0  0  0
   -5.4563    1.3060   -4.6154 H   0  0  0  0  0  0  0  0  0  0  0  0
    6.6976   -0.6219    0.5725 H   0  0  0  0  0  0  0  0  0  0  0  0
  1  2  1  0
  2  3  2  0
  3  4  1  0
  4  5  2  0
  5  6  1  0
  6  7  2  0
  6  8  1  0
  8  9  1  0
  9 10  1  0
 10 11  1  0
 11 12  1  0
 12 13  1  0
 13 14  2  0
 14 15  1  0
 15 16  2  0
 16 17  1  0
 17 18  2  0
 17 19  1  0
 19 20  1  0
 20 21  2  0
 21 22  1  0
 22 23  2  0
 23 24  1  0
 24 25  2  0
 24 26  1  0
 26 27  2  0
 26 28  1  0
 23 29  1  0
 29 30  1  0
 30 31  1  0
 31 32  1  0
 32 33  1  0
 33 34  2  0
  8 35  1  0
  7  2  1  0
 18 13  1  0
 25 20  1  0
 33 29  1  0
  3 36  1  0
  4 37  1  0
  5 38  1  0
  7 39  1  0
  8 40  1  6
  9 41  1  0
  9 42  1  0
 10 43  1  0
 11 44  1  0
 11 45  1  0
 12 46  1  0
 12 47  1  0
 14 48  1  0
 15 49  1  0
 16 50  1  0
 18 51  1  0
 21 52  1  0
 22 53  1  0
 25 54  1  0
 28 55  1  0
 30 56  1  0
 30 57  1  0
 31 58  1  0
 31 59  1  0
 32 60  1  0
 32 61  1  0
 35 62  1  0
M  END
>  <Ligand ID>  (1) 
LIG0002923

>  <Ligand>  (1) 
CHEMBL482627

>  <SMILES>  (1) 
Clc1cccc(c1)[C@H](CNCCc1cccc(c1)Oc1ccc(c(c1)C(=O)O)N1CCCC1=O)O

>  <CID>  (1) 
44579941.0

>  <ChEMBL ID>  (1) 
nan

>  <InChiKey>  (1) 
JQIVPXQYQMWJIR-VWLOTQADSA-N

>  <InChi>  (1) 
InChI=1S/C27H27ClN2O5/c28-20-6-2-5-19(15-20)25(31)17-29-12-11-18-4-1-7-21(14-18)35-22-9-10-24(23(16-22)27(33)34)30-13-3-8-26(30)32/h1-2,4-7,9-10,14-16,25,29,31H,3,8,11-13,17H2,(H,33,34)/t25-/m0/s1

>  <IUPAC Name>  (1) 
5-[3-[2-[[(2R)-2-(3-chlorophenyl)-2-hydroxyethyl]amino]ethyl]phenoxy]-2-(2-oxopyrrolidin-1-yl)benzoic acid

$$$$
