
     RDKit          3D

 62 64  0  0  0  0  0  0  0  0999 V2000
    8.9343    1.2861   -1.6434 C   0  0  0  0  0  0  0  0  0  0  0  0
    8.0864    0.4272   -1.6515 C   0  0  0  0  0  0  0  0  0  0  0  0
    7.0406   -0.6107   -1.6681 C   0  0  0  0  0  0  0  0  0  0  0  0
    6.6478   -0.8813   -0.2445 C   0  0  0  0  0  0  0  0  0  0  0  0
    6.1633    0.3306    0.2948 O   0  0  0  0  0  0  0  0  0  0  0  0
    5.8124    0.0303    1.6110 C   0  0  0  0  0  0  0  0  0  0  0  0
    5.2793    1.2656    2.2806 C   0  0  0  0  0  0  0  0  0  0  0  0
    4.1751    1.8229    1.7093 O   0  0  0  0  0  0  0  0  0  0  0  0
    3.0906    0.9881    1.6929 C   0  0  1  0  0  0  0  0  0  0  0  0
    2.0011    1.5800    2.5629 C   0  0  0  0  0  0  0  0  0  0  0  0
    0.8381    0.6260    2.7210 C   0  0  0  0  0  0  0  0  0  0  0  0
    0.3418    0.2703    1.3481 C   0  0  0  0  0  0  0  0  0  0  0  0
    1.1666    0.2953    0.2532 C   0  0  0  0  0  0  0  0  0  0  0  0
    2.6063    0.6689    0.3110 C   0  0  0  0  0  0  0  0  0  0  0  0
    0.6625   -0.0394   -0.9852 C   0  0  0  0  0  0  0  0  0  0  0  0
   -0.6645   -0.4004   -1.1382 C   0  0  0  0  0  0  0  0  0  0  0  0
   -1.4862   -0.4216   -0.0253 C   0  0  0  0  0  0  0  0  0  0  0  0
   -0.9939   -0.0864    1.2340 C   0  0  0  0  0  0  0  0  0  0  0  0
   -2.8987   -0.8140   -0.2384 C   0  0  2  0  0  0  0  0  0  0  0  0
   -2.9353   -2.2077   -0.8210 C   0  0  0  0  0  0  0  0  0  0  0  0
   -4.3930   -2.2783   -1.2822 C   0  0  0  0  0  0  0  0  0  0  0  0
   -4.7638   -0.8773   -1.6672 C   0  0  1  0  0  0  0  0  0  0  0  0
   -3.5978    0.0071   -1.2732 C   0  0  0  0  0  0  0  0  0  0  0  0
   -5.0216   -0.8221   -3.0997 N   0  0  0  0  0  0  0  0  0  0  0  0
   -5.9835   -0.4298   -0.8917 C   0  0  0  0  0  0  0  0  0  0  0  0
   -6.3339    0.8733   -1.2162 O   0  0  0  0  0  0  0  0  0  0  0  0
   -7.6863    1.3348   -0.3400 P   0  0  0  0  0  0  0  0  0  0  0  0
   -7.7934    2.8405   -0.2451 O   0  0  0  0  0  0  0  0  0  0  0  0
   -7.6113    0.6227    1.2066 O   0  0  0  0  0  0  0  0  0  0  0  0
   -9.0690    0.7785   -1.1386 O   0  0  0  0  0  0  0  0  0  0  0  0
    9.6930    2.0382   -1.6233 H   0  0  0  0  0  0  0  0  0  0  0  0
    7.4006   -1.5454   -2.1672 H   0  0  0  0  0  0  0  0  0  0  0  0
    6.1486   -0.1833   -2.1923 H   0  0  0  0  0  0  0  0  0  0  0  0
    7.5514   -1.1149    0.3749 H   0  0  0  0  0  0  0  0  0  0  0  0
    5.8932   -1.6941   -0.1663 H   0  0  0  0  0  0  0  0  0  0  0  0
    5.1076   -0.8182    1.6680 H   0  0  0  0  0  0  0  0  0  0  0  0
    6.7310   -0.3182    2.1719 H   0  0  0  0  0  0  0  0  0  0  0  0
    6.1105    2.0303    2.2879 H   0  0  0  0  0  0  0  0  0  0  0  0
    5.1550    1.0080    3.3556 H   0  0  0  0  0  0  0  0  0  0  0  0
    3.3617    0.0278    2.1710 H   0  0  0  0  0  0  0  0  0  0  0  0
    2.3767    1.7573    3.5908 H   0  0  0  0  0  0  0  0  0  0  0  0
    1.6139    2.4899    2.0642 H   0  0  0  0  0  0  0  0  0  0  0  0
    0.0689    1.1233    3.3290 H   0  0  0  0  0  0  0  0  0  0  0  0
    1.2483   -0.3076    3.1532 H   0  0  0  0  0  0  0  0  0  0  0  0
    3.1722   -0.2122   -0.0579 H   0  0  0  0  0  0  0  0  0  0  0  0
    2.8310    1.5269   -0.3545 H   0  0  0  0  0  0  0  0  0  0  0  0
    1.2857   -0.0300   -1.8677 H   0  0  0  0  0  0  0  0  0  0  0  0
   -1.0328   -0.6572   -2.1176 H   0  0  0  0  0  0  0  0  0  0  0  0
   -1.6560   -0.1089    2.0993 H   0  0  0  0  0  0  0  0  0  0  0  0
   -3.4262   -0.7900    0.7189 H   0  0  0  0  0  0  0  0  0  0  0  0
   -2.2245   -2.2509   -1.6544 H   0  0  0  0  0  0  0  0  0  0  0  0
   -2.7358   -2.9889   -0.0338 H   0  0  0  0  0  0  0  0  0  0  0  0
   -4.9850   -2.6013   -0.4036 H   0  0  0  0  0  0  0  0  0  0  0  0
   -4.4966   -3.0123   -2.1147 H   0  0  0  0  0  0  0  0  0  0  0  0
   -3.9805    0.9509   -0.8566 H   0  0  0  0  0  0  0  0  0  0  0  0
   -2.9742    0.1245   -2.1807 H   0  0  0  0  0  0  0  0  0  0  0  0
   -5.7100   -1.5974   -3.2998 H   0  0  0  0  0  0  0  0  0  0  0  0
   -5.3986    0.0854   -3.4016 H   0  0  0  0  0  0  0  0  0  0  0  0
   -6.8372   -1.1258   -1.0642 H   0  0  0  0  0  0  0  0  0  0  0  0
   -5.7471   -0.5356    0.1885 H   0  0  0  0  0  0  0  0  0  0  0  0
   -6.9474    1.1038    1.7651 H   0  0  0  0  0  0  0  0  0  0  0  0
   -9.2113   -0.1964   -1.0379 H   0  0  0  0  0  0  0  0  0  0  0  0
  1  2  3  0
  2  3  1  0
  3  4  1  0
  4  5  1  0
  5  6  1  0
  6  7  1  0
  7  8  1  0
  8  9  1  0
  9 10  1  0
 10 11  1  0
 11 12  1  0
 12 13  2  0
 13 14  1  0
 13 15  1  0
 15 16  2  0
 16 17  1  0
 17 18  2  0
 17 19  1  0
 19 20  1  0
 20 21  1  0
 21 22  1  0
 22 23  1  0
 22 24  1  6
 22 25  1  0
 25 26  1  0
 26 27  1  0
 27 28  2  0
 27 29  1  0
 27 30  1  0
 14  9  1  0
 23 19  1  0
 18 12  1  0
  1 31  1  0
  3 32  1  0
  3 33  1  0
  4 34  1  0
  4 35  1  0
  6 36  1  0
  6 37  1  0
  7 38  1  0
  7 39  1  0
  9 40  1  1
 10 41  1  0
 10 42  1  0
 11 43  1  0
 11 44  1  0
 14 45  1  0
 14 46  1  0
 15 47  1  0
 16 48  1  0
 18 49  1  0
 19 50  1  1
 20 51  1  0
 20 52  1  0
 21 53  1  0
 21 54  1  0
 23 55  1  0
 23 56  1  0
 24 57  1  0
 24 58  1  0
 25 59  1  0
 25 60  1  0
 29 61  1  0
 30 62  1  0
M  END
>  <Ligand ID>  (1) 
LIG0005599

>  <Ligand>  (1) 
BDBM65261

>  <SMILES>  (1) 
C#CCCOCCO[C@H]1CCc2c(C1)ccc(c2)[C@@H]1CC[C@@](C1)(N)COP(=O)(O)O

>  <CID>  (1) 
131953723.0

>  <ChEMBL ID>  (1) 
nan

>  <InChiKey>  (1) 
BENUMICRHCXHIG-FSSWDIPSSA-N

>  <InChi>  (1) 
InChI=1S/C22H32NO6P/c1-2-3-10-27-11-12-28-21-7-6-17-13-18(4-5-19(17)14-21)20-8-9-22(23,15-20)16-29-30(24,25)26/h1,4-5,13,20-21H,3,6-12,14-16,23H2,(H2,24,25,26)/t20-,21+,22+/m1/s1

>  <IUPAC Name>  (1) 
[(1S,3R)-1-amino-3-[(6S)-6-(2-but-3-ynoxyethoxy)-5,6,7,8-tetrahydronaphthalen-2-yl]cyclopentyl]methyl dihydrogen phosphate

$$$$
