
     RDKit          3D

 54 56  0  0  0  0  0  0  0  0999 V2000
   -1.6168    0.8907    2.2985 O   0  0  0  0  0  0  0  0  0  0  0  0
   -1.6026    0.5632    0.9500 C   0  0  2  0  0  0  0  0  0  0  0  0
   -3.0316    0.5452    0.4393 C   0  0  2  0  0  0  0  0  0  0  0  0
   -3.8880    1.2380    1.2855 O   0  0  0  0  0  0  0  0  0  0  0  0
   -3.3300   -0.9397    0.4493 C   0  0  2  0  0  0  0  0  0  0  0  0
   -2.1310   -1.4507   -0.0825 O   0  0  0  0  0  0  0  0  0  0  0  0
   -1.2236   -0.9085    0.8217 C   0  0  1  0  0  0  0  0  0  0  0  0
    0.1450   -0.9736    0.4183 N   0  0  0  0  0  0  0  0  0  0  0  0
    0.9877   -0.0212    0.8918 C   0  0  0  0  0  0  0  0  0  0  0  0
    2.3288    0.0046    0.5619 C   0  0  0  0  0  0  0  0  0  0  0  0
    2.8440   -0.9588   -0.2730 C   0  0  0  0  0  0  0  0  0  0  0  0
    1.9861   -1.8990   -0.7338 N   0  0  0  0  0  0  0  0  0  0  0  0
    0.6684   -1.9026   -0.3936 C   0  0  0  0  0  0  0  0  0  0  0  0
   -0.0919   -2.7966   -0.8462 O   0  0  0  0  0  0  0  0  0  0  0  0
    4.2336   -0.9843   -0.6531 N   0  0  0  0  0  0  0  0  0  0  0  0
    5.0592   -1.6650    0.1425 O   0  0  0  0  0  0  0  0  0  0  0  0
    6.3609   -1.6993   -0.2586 C   0  0  0  0  0  0  0  0  0  0  0  0
    6.9393   -0.3512   -0.3427 C   0  0  0  0  0  0  0  0  0  0  0  0
    6.9879    0.4192   -1.4809 C   0  0  0  0  0  0  0  0  0  0  0  0
    7.5477    1.6782   -1.4489 C   0  0  0  0  0  0  0  0  0  0  0  0
    8.0817    2.2294   -0.2986 C   0  0  0  0  0  0  0  0  0  0  0  0
    8.0305    1.4516    0.8401 C   0  0  0  0  0  0  0  0  0  0  0  0
    7.4723    0.1905    0.8183 C   0  0  0  0  0  0  0  0  0  0  0  0
    8.7626    2.1954    2.4398 Br  0  0  0  0  0  0  0  0  0  0  0  0
   -4.5148   -1.2373   -0.4401 C   0  0  0  0  0  0  0  0  0  0  0  0
   -5.6243   -0.6785    0.2085 O   0  0  0  0  0  0  0  0  0  0  0  0
   -7.0466   -0.9110   -0.6499 P   0  0  0  0  0  0  0  0  0  0  0  0
   -6.8317   -0.8821   -2.1438 O   0  0  0  0  0  0  0  0  0  0  0  0
   -8.1939    0.2856   -0.3125 O   0  0  0  0  0  0  0  0  0  0  0  0
   -7.6439    1.8208   -0.7397 P   0  0  0  0  0  0  0  0  0  0  0  0
   -8.4358    2.4604   -1.8314 O   0  0  0  0  0  0  0  0  0  0  0  0
   -7.6700    2.8132    0.6175 O   0  0  0  0  0  0  0  0  0  0  0  0
   -6.0228    1.6631   -1.2562 O   0  0  0  0  0  0  0  0  0  0  0  0
   -7.7097   -2.3959   -0.1852 O   0  0  0  0  0  0  0  0  0  0  0  0
   -1.8619    0.0626    2.8189 H   0  0  0  0  0  0  0  0  0  0  0  0
   -0.9452    1.1971    0.3332 H   0  0  0  0  0  0  0  0  0  0  0  0
   -3.1057    0.8608   -0.6128 H   0  0  0  0  0  0  0  0  0  0  0  0
   -3.8799    2.1651    0.9974 H   0  0  0  0  0  0  0  0  0  0  0  0
   -3.5296   -1.3461    1.4418 H   0  0  0  0  0  0  0  0  0  0  0  0
   -1.3215   -1.4414    1.7966 H   0  0  0  0  0  0  0  0  0  0  0  0
    0.6345    0.7698    1.5590 H   0  0  0  0  0  0  0  0  0  0  0  0
    2.9745    0.7830    0.9618 H   0  0  0  0  0  0  0  0  0  0  0  0
    4.4762   -0.4704   -1.5170 H   0  0  0  0  0  0  0  0  0  0  0  0
    6.4210   -2.1892   -1.2582 H   0  0  0  0  0  0  0  0  0  0  0  0
    6.9313   -2.2950    0.5069 H   0  0  0  0  0  0  0  0  0  0  0  0
    6.5958    0.0383   -2.4077 H   0  0  0  0  0  0  0  0  0  0  0  0
    7.5997    2.3125   -2.3375 H   0  0  0  0  0  0  0  0  0  0  0  0
    8.5117    3.2070   -0.2928 H   0  0  0  0  0  0  0  0  0  0  0  0
    7.4700   -0.3544    1.7444 H   0  0  0  0  0  0  0  0  0  0  0  0
   -4.4137   -0.8834   -1.4657 H   0  0  0  0  0  0  0  0  0  0  0  0
   -4.6911   -2.3515   -0.3748 H   0  0  0  0  0  0  0  0  0  0  0  0
   -6.8711    2.6950    1.1939 H   0  0  0  0  0  0  0  0  0  0  0  0
   -5.5740    2.5469   -1.1664 H   0  0  0  0  0  0  0  0  0  0  0  0
   -7.2476   -3.1003   -0.6908 H   0  0  0  0  0  0  0  0  0  0  0  0
  1  2  1  0
  2  3  1  0
  3  4  1  0
  3  5  1  0
  5  6  1  0
  6  7  1  0
  7  8  1  0
  8  9  1  0
  9 10  2  0
 10 11  1  0
 11 12  2  0
 12 13  1  0
 13 14  2  0
 11 15  1  0
 15 16  1  0
 16 17  1  0
 17 18  1  0
 18 19  2  0
 19 20  1  0
 20 21  2  0
 21 22  1  0
 22 23  2  0
 22 24  1  0
  5 25  1  0
 25 26  1  0
 26 27  1  0
 27 28  2  0
 27 29  1  0
 29 30  1  0
 30 31  2  0
 30 32  1  0
 30 33  1  0
 27 34  1  0
  7  2  1  0
 13  8  1  0
 23 18  1  0
  1 35  1  0
  2 36  1  6
  3 37  1  6
  4 38  1  0
  5 39  1  1
  7 40  1  1
  9 41  1  0
 10 42  1  0
 15 43  1  0
 17 44  1  0
 17 45  1  0
 19 46  1  0
 20 47  1  0
 21 48  1  0
 23 49  1  0
 25 50  1  0
 25 51  1  0
 32 52  1  0
 33 53  1  0
 34 54  1  0
M  END
>  <Ligand ID>  (1) 
LIG0002494

>  <Ligand>  (1) 
CHEMBL3220046

>  <SMILES>  (1) 
O[C@@H]1[C@H](O)[C@H](O[C@H]1n1ccc(nc1=O)NOCc1cccc(c1)Br)COP(=O)(OP(=O)(O)O)O

>  <CID>  (1) 
90666789.0

>  <ChEMBL ID>  (1) 
nan

>  <InChiKey>  (1) 
FGMXILSWRVITJV-NMFUWQPSSA-N

>  <InChi>  (1) 
InChI=1S/C16H20BrN3O12P2/c17-10-3-1-2-9(6-10)7-29-19-12-4-5-20(16(23)18-12)15-14(22)13(21)11(31-15)8-30-34(27,28)32-33(24,25)26/h1-6,11,13-15,21-22H,7-8H2,(H,27,28)(H,18,19,23)(H2,24,25,26)/t11-,13-,14-,15-/m1/s1

>  <IUPAC Name>  (1) 
[(2R,3S,4R,5R)-5-[4-[(3-bromophenyl)methoxyamino]-2-oxopyrimidin-1-yl]-3,4-dihydroxyoxolan-2-yl]methyl phosphono hydrogen phosphate

$$$$
