
     RDKit          3D

 54 57  0  0  0  0  0  0  0  0999 V2000
    0.0648    2.5209    0.3346 O   0  0  0  0  0  0  0  0  0  0  0  0
    0.1688    1.3070    0.0196 C   0  0  0  0  0  0  0  0  0  0  0  0
    1.5249    0.7997   -0.1663 C   0  0  0  0  0  0  0  0  0  0  0  0
    1.9410    0.1901   -1.2945 N   0  0  0  0  0  0  0  0  0  0  0  0
    3.1806   -0.1453   -1.1653 O   0  0  0  0  0  0  0  0  0  0  0  0
    3.6461    0.2042    0.0035 C   0  0  0  0  0  0  0  0  0  0  0  0
    2.6034    0.8145    0.6685 C   0  0  0  0  0  0  0  0  0  0  0  0
    5.0114   -0.0411    0.4383 C   0  0  0  0  0  0  0  0  0  0  0  0
    5.8595   -0.6945   -0.4364 C   0  0  0  0  0  0  0  0  0  0  0  0
    7.1833   -0.9695   -0.1069 C   0  0  0  0  0  0  0  0  0  0  0  0
    7.6614   -0.5777    1.1297 C   0  0  0  0  0  0  0  0  0  0  0  0
    6.8244    0.0835    2.0303 C   0  0  0  0  0  0  0  0  0  0  0  0
    5.4982    0.3445    1.6669 C   0  0  0  0  0  0  0  0  0  0  0  0
   -0.9915    0.4909   -0.1422 N   0  0  0  0  0  0  0  0  0  0  0  0
   -0.9255   -0.9110   -0.5023 C   0  0  0  0  0  0  0  0  0  0  0  0
   -1.4983   -1.7590    0.6104 C   0  0  0  0  0  0  0  0  0  0  0  0
   -1.2507   -3.1998    0.2828 C   0  0  0  0  0  0  0  0  0  0  0  0
   -1.9687   -3.5844   -0.9764 C   0  0  0  0  0  0  0  0  0  0  0  0
   -2.4803   -2.4385   -1.7756 C   0  0  0  0  0  0  0  0  0  0  0  0
   -1.6207   -1.2206   -1.7948 C   0  0  0  0  0  0  0  0  0  0  0  0
   -2.2895    1.0691    0.0619 C   0  0  0  0  0  0  0  0  0  0  0  0
   -2.4340    1.6474    1.4800 C   0  0  0  0  0  0  0  0  0  0  0  0
   -3.9271    1.9176    1.6702 C   0  0  0  0  0  0  0  0  0  0  0  0
   -4.4108    2.9095    0.6485 C   0  0  0  0  0  0  0  0  0  0  0  0
   -4.1022    2.4765   -0.7494 C   0  0  0  0  0  0  0  0  0  0  0  0
   -2.6057    2.2242   -0.8637 C   0  0  0  0  0  0  0  0  0  0  0  0
    2.6316    1.2251    1.6557 H   0  0  0  0  0  0  0  0  0  0  0  0
    5.5332   -1.0282   -1.4292 H   0  0  0  0  0  0  0  0  0  0  0  0
    7.8127   -1.4902   -0.8377 H   0  0  0  0  0  0  0  0  0  0  0  0
    8.7093   -0.7904    1.3981 H   0  0  0  0  0  0  0  0  0  0  0  0
    7.1985    0.3883    2.9898 H   0  0  0  0  0  0  0  0  0  0  0  0
    4.8420    0.8625    2.3682 H   0  0  0  0  0  0  0  0  0  0  0  0
    0.1437   -1.1780   -0.6041 H   0  0  0  0  0  0  0  0  0  0  0  0
   -2.6027   -1.6149    0.6120 H   0  0  0  0  0  0  0  0  0  0  0  0
   -1.0705   -1.4959    1.5888 H   0  0  0  0  0  0  0  0  0  0  0  0
   -0.1715   -3.4373    0.1774 H   0  0  0  0  0  0  0  0  0  0  0  0
   -1.5977   -3.8154    1.1590 H   0  0  0  0  0  0  0  0  0  0  0  0
   -1.3350   -4.2931   -1.5876 H   0  0  0  0  0  0  0  0  0  0  0  0
   -2.8510   -4.1945   -0.6830 H   0  0  0  0  0  0  0  0  0  0  0  0
   -2.5599   -2.8074   -2.8394 H   0  0  0  0  0  0  0  0  0  0  0  0
   -3.4914   -2.1155   -1.4036 H   0  0  0  0  0  0  0  0  0  0  0  0
   -0.8513   -1.3562   -2.6073 H   0  0  0  0  0  0  0  0  0  0  0  0
   -2.2583   -0.3930   -2.1771 H   0  0  0  0  0  0  0  0  0  0  0  0
   -3.1197    0.3191   -0.1053 H   0  0  0  0  0  0  0  0  0  0  0  0
   -1.9549    2.6396    1.4860 H   0  0  0  0  0  0  0  0  0  0  0  0
   -2.1081    0.9560    2.2550 H   0  0  0  0  0  0  0  0  0  0  0  0
   -4.5242    0.9956    1.5099 H   0  0  0  0  0  0  0  0  0  0  0  0
   -4.0503    2.3359    2.6873 H   0  0  0  0  0  0  0  0  0  0  0  0
   -3.9878    3.9221    0.7907 H   0  0  0  0  0  0  0  0  0  0  0  0
   -5.5209    2.9546    0.7477 H   0  0  0  0  0  0  0  0  0  0  0  0
   -4.6434    1.5400   -1.0337 H   0  0  0  0  0  0  0  0  0  0  0  0
   -4.3468    3.2896   -1.4624 H   0  0  0  0  0  0  0  0  0  0  0  0
   -2.0677    3.1376   -0.5385 H   0  0  0  0  0  0  0  0  0  0  0  0
   -2.4207    1.9859   -1.9278 H   0  0  0  0  0  0  0  0  0  0  0  0
  1  2  2  0
  2  3  1  0
  3  4  2  0
  4  5  1  0
  5  6  1  0
  6  7  2  0
  6  8  1  0
  8  9  2  0
  9 10  1  0
 10 11  2  0
 11 12  1  0
 12 13  2  0
  2 14  1  0
 14 15  1  0
 15 16  1  0
 16 17  1  0
 17 18  1  0
 18 19  1  0
 19 20  1  0
 14 21  1  0
 21 22  1  0
 22 23  1  0
 23 24  1  0
 24 25  1  0
 25 26  1  0
  7  3  1  0
 13  8  1  0
 20 15  1  0
 26 21  1  0
  7 27  1  0
  9 28  1  0
 10 29  1  0
 11 30  1  0
 12 31  1  0
 13 32  1  0
 15 33  1  0
 16 34  1  0
 16 35  1  0
 17 36  1  0
 17 37  1  0
 18 38  1  0
 18 39  1  0
 19 40  1  0
 19 41  1  0
 20 42  1  0
 20 43  1  0
 21 44  1  0
 22 45  1  0
 22 46  1  0
 23 47  1  0
 23 48  1  0
 24 49  1  0
 24 50  1  0
 25 51  1  0
 25 52  1  0
 26 53  1  0
 26 54  1  0
M  END
>  <Ligand ID>  (1) 
LIG0001363

>  <Ligand>  (1) 
CHEMBL1973788

>  <SMILES>  (1) 
O=C(c1noc(c1)c1ccccc1)N(C1CCCCC1)C1CCCCC1

>  <CID>  (1) 
25110488.0

>  <ChEMBL ID>  (1) 
nan

>  <InChiKey>  (1) 
ZJDZCPFFIUGYOM-UHFFFAOYSA-N

>  <InChi>  (1) 
InChI=1S/C22H28N2O2/c25-22(20-16-21(26-23-20)17-10-4-1-5-11-17)24(18-12-6-2-7-13-18)19-14-8-3-9-15-19/h1,4-5,10-11,16,18-19H,2-3,6-9,12-15H2

>  <IUPAC Name>  (1) 
N,N-dicyclohexyl-5-phenyl-1,2-oxazole-3-carboxamide

$$$$
