
     RDKit          3D

 56 58  0  0  0  0  0  0  0  0999 V2000
    9.3750    1.3999   -0.0388 O   0  0  0  0  0  0  0  0  0  0  0  0
    8.8699    1.5418    1.2452 C   0  0  0  0  0  0  0  0  0  0  0  0
    9.6940    1.7365    2.1955 O   0  0  0  0  0  0  0  0  0  0  0  0
    7.4294    1.4719    1.5154 C   0  0  0  0  0  0  0  0  0  0  0  0
    6.6217    1.2336    0.2437 C   0  0  0  0  0  0  0  0  0  0  0  0
    7.0709   -0.0270   -0.3159 N   0  0  0  0  0  0  0  0  0  0  0  0
    6.3666   -0.3606   -1.5399 C   0  0  0  0  0  0  0  0  0  0  0  0
    4.9056   -0.4751   -1.2874 C   0  0  0  0  0  0  0  0  0  0  0  0
    4.3122   -1.6867   -0.9227 C   0  0  0  0  0  0  0  0  0  0  0  0
    2.9335   -1.7241   -0.7003 C   0  0  0  0  0  0  0  0  0  0  0  0
    2.1409   -0.6020   -0.8298 C   0  0  0  0  0  0  0  0  0  0  0  0
    2.7646    0.5752   -1.1915 C   0  0  0  0  0  0  0  0  0  0  0  0
    4.1220    0.6709   -1.4236 C   0  0  0  0  0  0  0  0  0  0  0  0
    0.6986   -0.6136   -0.6035 C   0  0  0  0  0  0  0  0  0  0  0  0
    0.0110    0.4507   -0.7363 N   0  0  0  0  0  0  0  0  0  0  0  0
   -1.3316    0.4279   -0.5229 O   0  0  0  0  0  0  0  0  0  0  0  0
   -2.2892   -0.0932   -1.4274 C   0  0  0  0  0  0  0  0  0  0  0  0
   -3.6774    0.0469   -0.8642 C   0  0  0  0  0  0  0  0  0  0  0  0
   -4.4125    1.1851   -1.1196 C   0  0  0  0  0  0  0  0  0  0  0  0
   -5.6795    1.2790   -0.5878 C   0  0  0  0  0  0  0  0  0  0  0  0
   -6.2589    0.2969    0.1888 C   0  0  0  0  0  0  0  0  0  0  0  0
   -5.5127   -0.8585    0.4479 C   0  0  0  0  0  0  0  0  0  0  0  0
   -4.2453   -0.9384   -0.0913 C   0  0  0  0  0  0  0  0  0  0  0  0
   -6.0660   -1.9701    1.2774 C   0  0  0  0  0  0  0  0  0  0  0  0
   -5.0762   -2.9620    1.3453 F   0  0  0  0  0  0  0  0  0  0  0  0
   -7.1794   -2.5578    0.6989 F   0  0  0  0  0  0  0  0  0  0  0  0
   -6.3190   -1.6165    2.5703 F   0  0  0  0  0  0  0  0  0  0  0  0
   -7.6237    0.4441    0.7393 C   0  0  0  0  0  0  0  0  0  0  0  0
   -8.3892    1.5729    0.5016 C   0  0  0  0  0  0  0  0  0  0  0  0
   -9.5922    1.3925    1.1487 C   0  0  0  0  0  0  0  0  0  0  0  0
   -9.4757    0.1387    1.7500 C   0  0  0  0  0  0  0  0  0  0  0  0
   -8.3038   -0.3763    1.4803 O   0  0  0  0  0  0  0  0  0  0  0  0
    0.0172   -1.8761   -0.2136 C   0  0  0  0  0  0  0  0  0  0  0  0
   10.3439    1.1736   -0.1321 H   0  0  0  0  0  0  0  0  0  0  0  0
    7.2657    0.6170    2.2094 H   0  0  0  0  0  0  0  0  0  0  0  0
    7.1229    2.4085    2.0244 H   0  0  0  0  0  0  0  0  0  0  0  0
    6.8022    2.0802   -0.4527 H   0  0  0  0  0  0  0  0  0  0  0  0
    5.5523    1.1527    0.5249 H   0  0  0  0  0  0  0  0  0  0  0  0
    6.9148   -0.7579    0.4128 H   0  0  0  0  0  0  0  0  0  0  0  0
    6.7715   -1.3561   -1.8613 H   0  0  0  0  0  0  0  0  0  0  0  0
    6.5978    0.3254   -2.3539 H   0  0  0  0  0  0  0  0  0  0  0  0
    4.9310   -2.5611   -0.8219 H   0  0  0  0  0  0  0  0  0  0  0  0
    2.4911   -2.6632   -0.4204 H   0  0  0  0  0  0  0  0  0  0  0  0
    2.1685    1.4797   -1.3025 H   0  0  0  0  0  0  0  0  0  0  0  0
    4.5752    1.6193   -1.7073 H   0  0  0  0  0  0  0  0  0  0  0  0
   -2.1644   -1.1700   -1.6351 H   0  0  0  0  0  0  0  0  0  0  0  0
   -2.1831    0.5164   -2.3532 H   0  0  0  0  0  0  0  0  0  0  0  0
   -4.0108    1.9929   -1.7241 H   0  0  0  0  0  0  0  0  0  0  0  0
   -6.2278    2.1924   -0.8119 H   0  0  0  0  0  0  0  0  0  0  0  0
   -3.6359   -1.8221    0.0893 H   0  0  0  0  0  0  0  0  0  0  0  0
   -8.1168    2.4608   -0.0874 H   0  0  0  0  0  0  0  0  0  0  0  0
  -10.4383    2.0736    1.1820 H   0  0  0  0  0  0  0  0  0  0  0  0
  -10.2860   -0.2707    2.3363 H   0  0  0  0  0  0  0  0  0  0  0  0
   -0.9059   -1.6373    0.3543 H   0  0  0  0  0  0  0  0  0  0  0  0
    0.6677   -2.4857    0.4767 H   0  0  0  0  0  0  0  0  0  0  0  0
   -0.1368   -2.4950   -1.1072 H   0  0  0  0  0  0  0  0  0  0  0  0
  1  2  1  0
  2  3  2  0
  2  4  1  0
  4  5  1  0
  5  6  1  0
  6  7  1  0
  7  8  1  0
  8  9  2  0
  9 10  1  0
 10 11  2  0
 11 12  1  0
 12 13  2  0
 11 14  1  0
 14 15  2  0
 15 16  1  0
 16 17  1  0
 17 18  1  0
 18 19  2  0
 19 20  1  0
 20 21  2  0
 21 22  1  0
 22 23  2  0
 22 24  1  0
 24 25  1  0
 24 26  1  0
 24 27  1  0
 21 28  1  0
 28 29  2  0
 29 30  1  0
 30 31  2  0
 31 32  1  0
 14 33  1  0
 13  8  1  0
 23 18  1  0
 32 28  1  0
  1 34  1  0
  4 35  1  0
  4 36  1  0
  5 37  1  0
  5 38  1  0
  6 39  1  0
  7 40  1  0
  7 41  1  0
  9 42  1  0
 10 43  1  0
 12 44  1  0
 13 45  1  0
 17 46  1  0
 17 47  1  0
 19 48  1  0
 20 49  1  0
 23 50  1  0
 29 51  1  0
 30 52  1  0
 31 53  1  0
 33 54  1  0
 33 55  1  0
 33 56  1  0
M  END
>  <Ligand ID>  (1) 
LIG0005568

>  <Ligand>  (1) 
CHEMBL2336083

>  <SMILES>  (1) 
OC(=O)CCNCc1ccc(cc1)/C(=N/OCc1ccc(c(c1)C(F)(F)F)c1ccco1)/C

>  <CID>  (1) 
57570487.0

>  <ChEMBL ID>  (1) 
nan

>  <InChiKey>  (1) 
MUZJVQKCBXZBJA-MUFRIFMGSA-N

>  <InChi>  (1) 
InChI=1S/C24H23F3N2O4/c1-16(19-7-4-17(5-8-19)14-28-11-10-23(30)31)29-33-15-18-6-9-20(22-3-2-12-32-22)21(13-18)24(25,26)27/h2-9,12-13,28H,10-11,14-15H2,1H3,(H,30,31)/b29-16+

>  <IUPAC Name>  (1) 
3-[[4-[(E)-N-[[4-(furan-2-yl)-3-(trifluoromethyl)phenyl]methoxy]-C-methylcarbonimidoyl]phenyl]methylamino]propanoic acid

$$$$
