
     RDKit          3D

 59 62  0  0  0  0  0  0  0  0999 V2000
   -1.0151   -2.5401   -0.4402 O   0  0  0  0  0  0  0  0  0  0  0  0
   -0.3004   -1.5249   -0.3885 C   0  0  0  0  0  0  0  0  0  0  0  0
    1.1250   -1.6988   -0.5339 N   0  0  0  0  0  0  0  0  0  0  0  0
    1.6904   -3.0455   -0.7251 C   0  0  0  0  0  0  0  0  0  0  0  0
    1.1707   -3.7566   -1.9175 C   0  0  0  0  0  0  0  0  0  0  0  0
    1.2386   -5.2212   -1.5349 C   0  0  0  0  0  0  0  0  0  0  0  0
    0.7423   -5.2063   -0.1027 C   0  0  0  0  0  0  0  0  0  0  0  0
    1.3195   -3.9116    0.4413 C   0  0  0  0  0  0  0  0  0  0  0  0
    2.0392   -0.5718   -0.5060 C   0  0  0  0  0  0  0  0  0  0  0  0
    2.5490   -0.2018    0.8381 C   0  0  0  0  0  0  0  0  0  0  0  0
    3.4602    0.9610    0.6638 C   0  0  0  0  0  0  0  0  0  0  0  0
    4.1016    1.5526    1.7079 N   0  0  0  0  0  0  0  0  0  0  0  0
    4.8514    2.5709    1.2499 C   0  0  0  0  0  0  0  0  0  0  0  0
    4.6603    2.5999   -0.1158 C   0  0  0  0  0  0  0  0  0  0  0  0
    3.8034    1.6078   -0.4737 N   0  0  0  0  0  0  0  0  0  0  0  0
    5.2821    3.5281   -0.9253 C   0  0  0  0  0  0  0  0  0  0  0  0
    6.1396    4.4824   -0.3686 C   0  0  0  0  0  0  0  0  0  0  0  0
    6.3355    4.4573    1.0072 C   0  0  0  0  0  0  0  0  0  0  0  0
    5.6966    3.5104    1.8040 C   0  0  0  0  0  0  0  0  0  0  0  0
   -0.8791   -0.2518   -0.1930 N   0  0  0  0  0  0  0  0  0  0  0  0
   -2.2293    0.0553   -0.0401 C   0  0  0  0  0  0  0  0  0  0  0  0
   -2.5808    1.3988    0.1440 C   0  0  0  0  0  0  0  0  0  0  0  0
   -3.8909    1.7946    0.3036 C   0  0  0  0  0  0  0  0  0  0  0  0
   -4.9321    0.8915    0.2914 C   0  0  0  0  0  0  0  0  0  0  0  0
   -4.6048   -0.4347    0.1114 C   0  0  0  0  0  0  0  0  0  0  0  0
   -3.2771   -0.8259   -0.0492 C   0  0  0  0  0  0  0  0  0  0  0  0
   -6.3202    1.3794    0.4683 C   0  0  0  0  0  0  0  0  0  0  0  0
   -6.4758    1.9656    1.8601 C   0  0  0  0  0  0  0  0  0  0  0  0
   -6.7775    2.3217   -0.6059 C   0  0  0  0  0  0  0  0  0  0  0  0
    2.8102   -2.9338   -0.8120 H   0  0  0  0  0  0  0  0  0  0  0  0
    0.1469   -3.4840   -2.1871 H   0  0  0  0  0  0  0  0  0  0  0  0
    1.8668   -3.6904   -2.8050 H   0  0  0  0  0  0  0  0  0  0  0  0
    0.6419   -5.8767   -2.1928 H   0  0  0  0  0  0  0  0  0  0  0  0
    2.3230   -5.5020   -1.5438 H   0  0  0  0  0  0  0  0  0  0  0  0
   -0.3618   -5.1967   -0.1660 H   0  0  0  0  0  0  0  0  0  0  0  0
    1.1140   -6.0886    0.4125 H   0  0  0  0  0  0  0  0  0  0  0  0
    0.5374   -3.4232    1.0184 H   0  0  0  0  0  0  0  0  0  0  0  0
    2.2343   -4.1328    1.0395 H   0  0  0  0  0  0  0  0  0  0  0  0
    1.6131    0.3213   -0.9970 H   0  0  0  0  0  0  0  0  0  0  0  0
    2.9587   -0.7996   -1.1303 H   0  0  0  0  0  0  0  0  0  0  0  0
    3.1259   -0.9707    1.3503 H   0  0  0  0  0  0  0  0  0  0  0  0
    1.7679    0.1328    1.5470 H   0  0  0  0  0  0  0  0  0  0  0  0
    3.4602    1.3707   -1.4401 H   0  0  0  0  0  0  0  0  0  0  0  0
    5.1395    3.5565   -1.9784 H   0  0  0  0  0  0  0  0  0  0  0  0
    6.6304    5.2134   -0.9988 H   0  0  0  0  0  0  0  0  0  0  0  0
    7.0049    5.1972    1.4674 H   0  0  0  0  0  0  0  0  0  0  0  0
    5.8573    3.5051    2.8546 H   0  0  0  0  0  0  0  0  0  0  0  0
   -0.1857    0.5552   -0.1586 H   0  0  0  0  0  0  0  0  0  0  0  0
   -1.8358    2.1850    0.1687 H   0  0  0  0  0  0  0  0  0  0  0  0
   -4.1281    2.8278    0.4422 H   0  0  0  0  0  0  0  0  0  0  0  0
   -5.4230   -1.1469    0.1015 H   0  0  0  0  0  0  0  0  0  0  0  0
   -3.1167   -1.8782   -0.1834 H   0  0  0  0  0  0  0  0  0  0  0  0
   -7.0224    0.5026    0.4290 H   0  0  0  0  0  0  0  0  0  0  0  0
   -6.2345    1.1221    2.5652 H   0  0  0  0  0  0  0  0  0  0  0  0
   -7.5001    2.3359    1.9640 H   0  0  0  0  0  0  0  0  0  0  0  0
   -5.6787    2.7201    1.9999 H   0  0  0  0  0  0  0  0  0  0  0  0
   -7.4224    1.8042   -1.3699 H   0  0  0  0  0  0  0  0  0  0  0  0
   -7.3470    3.1837   -0.2020 H   0  0  0  0  0  0  0  0  0  0  0  0
   -5.8986    2.7034   -1.1661 H   0  0  0  0  0  0  0  0  0  0  0  0
  1  2  2  0
  2  3  1  0
  3  4  1  0
  4  5  1  0
  5  6  1  0
  6  7  1  0
  7  8  1  0
  3  9  1  0
  9 10  1  0
 10 11  1  0
 11 12  2  0
 12 13  1  0
 13 14  2  0
 14 15  1  0
 14 16  1  0
 16 17  2  0
 17 18  1  0
 18 19  2  0
  2 20  1  0
 20 21  1  0
 21 22  2  0
 22 23  1  0
 23 24  2  0
 24 25  1  0
 25 26  2  0
 24 27  1  0
 27 28  1  0
 27 29  1  0
  8  4  1  0
 15 11  1  0
 26 21  1  0
 19 13  1  0
  4 30  1  0
  5 31  1  0
  5 32  1  0
  6 33  1  0
  6 34  1  0
  7 35  1  0
  7 36  1  0
  8 37  1  0
  8 38  1  0
  9 39  1  0
  9 40  1  0
 10 41  1  0
 10 42  1  0
 15 43  1  0
 16 44  1  0
 17 45  1  0
 18 46  1  0
 19 47  1  0
 20 48  1  0
 22 49  1  0
 23 50  1  0
 25 51  1  0
 26 52  1  0
 27 53  1  0
 28 54  1  0
 28 55  1  0
 28 56  1  0
 29 57  1  0
 29 58  1  0
 29 59  1  0
M  END
>  <Ligand ID>  (1) 
LIG0003458

>  <Ligand>  (1) 
MLS000122129

>  <SMILES>  (1) 
O=C(N(C1CCCC1)CCc1nc2c([nH]1)cccc2)Nc1ccc(cc1)C(C)C

>  <CID>  (1) 
1454688.0

>  <ChEMBL ID>  (1) 
nan

>  <InChiKey>  (1) 
INGIYOPGHIHMIK-UHFFFAOYSA-N

>  <InChi>  (1) 
InChI=1S/C24H30N4O/c1-17(2)18-11-13-19(14-12-18)25-24(29)28(20-7-3-4-8-20)16-15-23-26-21-9-5-6-10-22(21)27-23/h5-6,9-14,17,20H,3-4,7-8,15-16H2,1-2H3,(H,25,29)(H,26,27)

>  <IUPAC Name>  (1) 
1-[2-(1H-benzimidazol-2-yl)ethyl]-1-cyclopentyl-3-(4-propan-2-ylphenyl)urea

$$$$
