
     RDKit          3D

 40 42  0  0  0  0  0  0  0  0999 V2000
   -3.6412   -2.5255   -1.1832 C   0  0  0  0  0  0  0  0  0  0  0  0
   -3.7976   -1.2440   -0.5401 N   0  0  0  0  0  0  0  0  0  0  0  0
   -2.6266   -0.3915   -0.7446 C   0  0  0  0  0  0  0  0  0  0  0  0
   -2.9107    0.9326   -0.1333 C   0  0  0  0  0  0  0  0  0  0  0  0
   -2.1613    1.7159    0.6945 C   0  0  0  0  0  0  0  0  0  0  0  0
   -2.8941    2.8640    0.9767 C   0  0  0  0  0  0  0  0  0  0  0  0
   -4.0790    2.6866    0.2734 C   0  0  0  0  0  0  0  0  0  0  0  0
   -4.0572    1.5617   -0.3572 O   0  0  0  0  0  0  0  0  0  0  0  0
   -1.4513   -1.0887   -0.1670 C   0  0  0  0  0  0  0  0  0  0  0  0
   -0.1925   -0.4259   -0.2712 N   0  0  0  0  0  0  0  0  0  0  0  0
    0.9517   -1.0982    0.2961 C   0  0  0  0  0  0  0  0  0  0  0  0
    0.8475   -2.2191    0.8583 O   0  0  0  0  0  0  0  0  0  0  0  0
    2.2681   -0.4729    0.2224 C   0  0  0  0  0  0  0  0  0  0  0  0
    3.4094   -1.0531    0.7414 C   0  0  0  0  0  0  0  0  0  0  0  0
    4.4471   -0.1764    0.4840 C   0  0  0  0  0  0  0  0  0  0  0  0
    3.8848    0.8906   -0.1773 C   0  0  0  0  0  0  0  0  0  0  0  0
    2.5795    0.6815   -0.3176 O   0  0  0  0  0  0  0  0  0  0  0  0
    4.6369    1.9658   -0.5921 C   0  0  0  0  0  0  0  0  0  0  0  0
    5.9824    1.9647   -0.3349 C   0  0  0  0  0  0  0  0  0  0  0  0
    6.5727    0.9121    0.3242 C   0  0  0  0  0  0  0  0  0  0  0  0
    5.7985   -0.1623    0.7345 C   0  0  0  0  0  0  0  0  0  0  0  0
   -4.1657   -1.3427    0.8347 C   0  0  0  0  0  0  0  0  0  0  0  0
   -4.6478   -2.9682   -1.3007 H   0  0  0  0  0  0  0  0  0  0  0  0
   -3.0838   -3.2124   -0.4867 H   0  0  0  0  0  0  0  0  0  0  0  0
   -3.0452   -2.4893   -2.0947 H   0  0  0  0  0  0  0  0  0  0  0  0
   -2.4468   -0.2320   -1.8242 H   0  0  0  0  0  0  0  0  0  0  0  0
   -1.1930    1.5045    1.0692 H   0  0  0  0  0  0  0  0  0  0  0  0
   -2.5728    3.6696    1.5994 H   0  0  0  0  0  0  0  0  0  0  0  0
   -4.8872    3.4225    0.2822 H   0  0  0  0  0  0  0  0  0  0  0  0
   -1.5933   -1.3645    0.9108 H   0  0  0  0  0  0  0  0  0  0  0  0
   -1.3770   -2.0781   -0.6879 H   0  0  0  0  0  0  0  0  0  0  0  0
   -0.0006    0.4869   -0.7133 H   0  0  0  0  0  0  0  0  0  0  0  0
    3.5025   -2.0097    1.2559 H   0  0  0  0  0  0  0  0  0  0  0  0
    4.1955    2.8069   -1.1130 H   0  0  0  0  0  0  0  0  0  0  0  0
    6.5560    2.8060   -0.6624 H   0  0  0  0  0  0  0  0  0  0  0  0
    7.6491    0.9515    0.5091 H   0  0  0  0  0  0  0  0  0  0  0  0
    6.2422   -0.9944    1.2512 H   0  0  0  0  0  0  0  0  0  0  0  0
   -5.2318   -1.1691    1.0321 H   0  0  0  0  0  0  0  0  0  0  0  0
   -3.9717   -2.3990    1.1515 H   0  0  0  0  0  0  0  0  0  0  0  0
   -3.4955   -0.7066    1.4182 H   0  0  0  0  0  0  0  0  0  0  0  0
  1  2  1  0
  2  3  1  0
  3  4  1  0
  4  5  2  0
  5  6  1  0
  6  7  2  0
  7  8  1  0
  3  9  1  0
  9 10  1  0
 10 11  1  0
 11 12  2  0
 11 13  1  0
 13 14  2  0
 14 15  1  0
 15 16  2  0
 16 17  1  0
 16 18  1  0
 18 19  2  0
 19 20  1  0
 20 21  2  0
  2 22  1  0
  8  4  1  0
 17 13  1  0
 21 15  1  0
  1 23  1  0
  1 24  1  0
  1 25  1  0
  3 26  1  0
  5 27  1  0
  6 28  1  0
  7 29  1  0
  9 30  1  0
  9 31  1  0
 10 32  1  0
 14 33  1  0
 18 34  1  0
 19 35  1  0
 20 36  1  0
 21 37  1  0
 22 38  1  0
 22 39  1  0
 22 40  1  0
M  END
>  <Ligand ID>  (1) 
LIG0004520

>  <Ligand>  (1) 
MLS002252631

>  <SMILES>  (1) 
CN(C(c1ccco1)CNC(=O)c1cc2c(o1)cccc2)C

>  <CID>  (1) 
4885015.0

>  <ChEMBL ID>  (1) 
nan

>  <InChiKey>  (1) 
ZGVQSQNUUWRKKF-UHFFFAOYSA-N

>  <InChi>  (1) 
InChI=1S/C17H18N2O3/c1-19(2)13(15-8-5-9-21-15)11-18-17(20)16-10-12-6-3-4-7-14(12)22-16/h3-10,13H,11H2,1-2H3,(H,18,20)

>  <IUPAC Name>  (1) 
N-[2-(dimethylamino)-2-(furan-2-yl)ethyl]-1-benzofuran-2-carboxamide

$$$$
