
     RDKit          3D

 64 66  0  0  0  0  0  0  0  0999 V2000
    3.4588    2.1823    0.2944 O   0  0  0  0  0  0  0  0  0  0  0  0
    3.7326    1.9031   -0.8907 C   0  0  0  0  0  0  0  0  0  0  0  0
    5.0041    1.5067   -1.2182 O   0  0  0  0  0  0  0  0  0  0  0  0
    6.0578    1.3809   -0.3252 C   0  0  0  0  0  0  0  0  0  0  0  0
    6.9326    2.4067   -0.0309 C   0  0  0  0  0  0  0  0  0  0  0  0
    7.9343    2.1357    0.8777 C   0  0  0  0  0  0  0  0  0  0  0  0
    8.0759    0.8984    1.4803 C   0  0  0  0  0  0  0  0  0  0  0  0
    7.2033   -0.1292    1.1885 C   0  0  0  0  0  0  0  0  0  0  0  0
    6.2020    0.1388    0.2814 C   0  0  0  0  0  0  0  0  0  0  0  0
    5.3308   -0.8887   -0.0093 C   0  0  0  0  0  0  0  0  0  0  0  0
    5.4200   -2.1420    0.5574 C   0  0  0  0  0  0  0  0  0  0  0  0
    6.4489   -2.3554    1.4651 C   0  0  0  0  0  0  0  0  0  0  0  0
    7.3496   -1.3612    1.7927 C   0  0  0  0  0  0  0  0  0  0  0  0
    2.7371    1.9923   -1.9060 N   0  0  0  0  0  0  0  0  0  0  0  0
    1.3923    2.3969   -1.6421 C   0  0  0  0  0  0  0  0  0  0  0  0
    0.6392    1.5338   -0.6725 C   0  0  0  0  0  0  0  0  0  0  0  0
    0.5241    0.0997   -1.1415 C   0  0  0  0  0  0  0  0  0  0  0  0
   -0.2393   -0.7487   -0.1491 C   0  0  0  0  0  0  0  0  0  0  0  0
   -1.5731   -0.3230    0.1114 N   0  0  0  0  0  0  0  0  0  0  0  0
   -2.2528   -1.1596    1.0872 C   0  0  0  0  0  0  0  0  0  0  0  0
   -3.6604   -0.6269    1.2920 C   0  0  0  0  0  0  0  0  0  0  0  0
   -4.3615   -0.8849    0.0295 N   0  0  0  0  0  0  0  0  0  0  0  0
   -3.5023   -1.0499   -1.1375 C   0  0  0  0  0  0  0  0  0  0  0  0
   -2.3853   -0.0278   -1.0219 C   0  0  0  0  0  0  0  0  0  0  0  0
   -5.7655   -0.9700   -0.0650 C   0  0  0  0  0  0  0  0  0  0  0  0
   -6.2952   -2.1681   -0.5258 C   0  0  0  0  0  0  0  0  0  0  0  0
   -7.6583   -2.3349   -0.6481 C   0  0  0  0  0  0  0  0  0  0  0  0
   -8.5015   -1.3172   -0.3152 C   0  0  0  0  0  0  0  0  0  0  0  0
   -7.9638   -0.1229    0.1445 C   0  0  0  0  0  0  0  0  0  0  0  0
   -6.6029    0.0622    0.2735 C   0  0  0  0  0  0  0  0  0  0  0  0
   -6.0556    1.3451    0.7653 C   0  0  0  0  0  0  0  0  0  0  0  0
    0.6912    0.0000    0.0000 Cl  0  0  0  0  0  0  0  0  0  0  0  0
    6.7997    3.3597   -0.5142 H   0  0  0  0  0  0  0  0  0  0  0  0
    8.6186    2.9331    1.1096 H   0  0  0  0  0  0  0  0  0  0  0  0
    8.8682    0.6919    2.1958 H   0  0  0  0  0  0  0  0  0  0  0  0
    4.5214   -0.7255   -0.7216 H   0  0  0  0  0  0  0  0  0  0  0  0
    4.7368   -2.9480    0.3297 H   0  0  0  0  0  0  0  0  0  0  0  0
    6.5112   -3.3548    1.9097 H   0  0  0  0  0  0  0  0  0  0  0  0
    8.1271   -1.5672    2.4962 H   0  0  0  0  0  0  0  0  0  0  0  0
    3.0432    1.7389   -2.8938 H   0  0  0  0  0  0  0  0  0  0  0  0
    1.3168    3.4368   -1.2583 H   0  0  0  0  0  0  0  0  0  0  0  0
    0.8168    2.3963   -2.5883 H   0  0  0  0  0  0  0  0  0  0  0  0
    1.0080    1.5877    0.3715 H   0  0  0  0  0  0  0  0  0  0  0  0
   -0.3980    1.9393   -0.6445 H   0  0  0  0  0  0  0  0  0  0  0  0
    0.1463    0.0229   -2.1737 H   0  0  0  0  0  0  0  0  0  0  0  0
    1.5523   -0.3724   -1.1956 H   0  0  0  0  0  0  0  0  0  0  0  0
    0.2859   -0.7929    0.8348 H   0  0  0  0  0  0  0  0  0  0  0  0
   -0.2590   -1.7960   -0.5612 H   0  0  0  0  0  0  0  0  0  0  0  0
   -2.3008   -2.2126    0.7519 H   0  0  0  0  0  0  0  0  0  0  0  0
   -1.7361   -1.0671    2.0609 H   0  0  0  0  0  0  0  0  0  0  0  0
   -4.1057   -1.2020    2.1176 H   0  0  0  0  0  0  0  0  0  0  0  0
   -3.5815    0.4606    1.4842 H   0  0  0  0  0  0  0  0  0  0  0  0
   -3.0832   -2.0558   -1.1253 H   0  0  0  0  0  0  0  0  0  0  0  0
   -4.0295   -0.8334   -2.0871 H   0  0  0  0  0  0  0  0  0  0  0  0
   -2.8044    0.9904   -0.8874 H   0  0  0  0  0  0  0  0  0  0  0  0
   -1.8516   -0.0412   -1.9801 H   0  0  0  0  0  0  0  0  0  0  0  0
   -5.6778   -3.0142   -0.8063 H   0  0  0  0  0  0  0  0  0  0  0  0
   -8.0642   -3.2547   -1.0018 H   0  0  0  0  0  0  0  0  0  0  0  0
   -9.5704   -1.4773   -0.4219 H   0  0  0  0  0  0  0  0  0  0  0  0
   -8.6833    0.6497    0.3936 H   0  0  0  0  0  0  0  0  0  0  0  0
   -5.1749    1.6819    0.1704 H   0  0  0  0  0  0  0  0  0  0  0  0
   -5.8324    1.3117    1.8512 H   0  0  0  0  0  0  0  0  0  0  0  0
   -6.8253    2.1417    0.6197 H   0  0  0  0  0  0  0  0  0  0  0  0
   -0.6912    0.0000    0.0000 H   0  0  0  0  0  0  0  0  0  0  0  0
  1  2  2  0
  2  3  1  0
  3  4  1  0
  4  5  2  0
  5  6  1  0
  6  7  2  0
  7  8  1  0
  8  9  2  0
  9 10  1  0
 10 11  2  0
 11 12  1  0
 12 13  2  0
  2 14  1  0
 14 15  1  0
 15 16  1  0
 16 17  1  0
 17 18  1  0
 18 19  1  0
 19 20  1  0
 20 21  1  0
 21 22  1  0
 22 23  1  0
 23 24  1  0
 22 25  1  0
 25 26  2  0
 26 27  1  0
 27 28  2  0
 28 29  1  0
 29 30  2  0
 30 31  1  0
  9  4  1  0
 24 19  1  0
 30 25  1  0
 13  8  1  0
  5 33  1  0
  6 34  1  0
  7 35  1  0
 10 36  1  0
 11 37  1  0
 12 38  1  0
 13 39  1  0
 14 40  1  0
 15 41  1  0
 15 42  1  0
 16 43  1  0
 16 44  1  0
 17 45  1  0
 17 46  1  0
 18 47  1  0
 18 48  1  0
 20 49  1  0
 20 50  1  0
 21 51  1  0
 21 52  1  0
 23 53  1  0
 23 54  1  0
 24 55  1  0
 24 56  1  0
 26 57  1  0
 27 58  1  0
 28 59  1  0
 29 60  1  0
 31 61  1  0
 31 62  1  0
 31 63  1  0
 32 64  1  0
M  END
>  <Ligand ID>  (1) 
LIG0003875

>  <Ligand>  (1) 
CHEMBL3799147

>  <SMILES>  (1) 
O=C(Oc1cccc2c1cccc2)NCCCCN1CCN(CC1)c1ccccc1C.Cl

>  <CID>  (1) 
127047182.0

>  <ChEMBL ID>  (1) 
nan

>  <InChiKey>  (1) 
RNBFGBOJPIEKSK-UHFFFAOYSA-N

>  <InChi>  (1) 
InChI=1S/C26H31N3O2.ClH/c1-21-9-2-5-13-24(21)29-19-17-28(18-20-29)16-7-6-15-27-26(30)31-25-14-8-11-22-10-3-4-12-23(22)25;/h2-5,8-14H,6-7,15-20H2,1H3,(H,27,30);1H

>  <IUPAC Name>  (1) 
naphthalen-1-yl N-[4-[4-(2-methylphenyl)piperazin-1-yl]butyl]carbamate;hydrochloride

$$$$
