
     RDKit          3D

 41 41  0  0  0  0  0  0  0  0999 V2000
    4.1071   -3.1431   -0.9733 C   0  0  0  0  0  0  0  0  0  0  0  0
    4.6218   -1.9672   -0.4079 O   0  0  0  0  0  0  0  0  0  0  0  0
    3.7649   -0.9066   -0.1801 C   0  0  0  0  0  0  0  0  0  0  0  0
    2.4178   -0.9306   -0.4770 C   0  0  0  0  0  0  0  0  0  0  0  0
    1.5974    0.1640   -0.2281 C   0  0  0  0  0  0  0  0  0  0  0  0
    2.1907    1.2758    0.3292 C   0  0  0  0  0  0  0  0  0  0  0  0
    3.5367    1.3394    0.6412 C   0  0  0  0  0  0  0  0  0  0  0  0
    4.3272    0.2396    0.3840 C   0  0  0  0  0  0  0  0  0  0  0  0
    5.6927    0.2662    0.6858 O   0  0  0  0  0  0  0  0  0  0  0  0
    4.0838    2.5182    1.2147 N   0  0  0  0  0  0  0  0  0  0  0  0
    5.0355    2.4470    2.0019 O   0  0  0  0  0  0  0  0  0  0  0  0
    3.4968    3.7223    0.8440 O   0  0  0  0  0  0  0  0  0  0  0  0
    0.1564    0.0816   -0.5688 C   0  0  0  0  0  0  0  0  0  0  0  0
   -0.7592    1.4723    0.0665 P   0  0  0  0  0  0  0  0  0  0  0  0
   -0.4406    1.6513    1.5425 O   0  0  0  0  0  0  0  0  0  0  0  0
   -2.5337    1.3291   -0.0654 C   0  0  0  0  0  0  0  0  0  0  0  0
   -3.0790   -0.0427   -0.0720 C   0  0  0  0  0  0  0  0  0  0  0  0
   -4.6080    0.0457   -0.1904 C   0  0  1  0  0  0  0  0  0  0  0  0
   -5.2237   -1.2848   -0.2035 C   0  0  0  0  0  0  0  0  0  0  0  0
   -6.0489   -1.6783    0.6676 O   0  0  0  0  0  0  0  0  0  0  0  0
   -4.8611   -2.1508   -1.2505 O   0  0  0  0  0  0  0  0  0  0  0  0
   -5.1068    0.7940    0.9645 N   0  0  0  0  0  0  0  0  0  0  0  0
   -0.2275    2.8786   -0.7093 O   0  0  0  0  0  0  0  0  0  0  0  0
   -0.3176   -1.1490   -0.1312 O   0  0  0  0  0  0  0  0  0  0  0  0
    3.8853   -2.9627   -2.0541 H   0  0  0  0  0  0  0  0  0  0  0  0
    4.8432   -3.9741   -0.9244 H   0  0  0  0  0  0  0  0  0  0  0  0
    3.1687   -3.4076   -0.4603 H   0  0  0  0  0  0  0  0  0  0  0  0
    1.9864   -1.8041   -0.9074 H   0  0  0  0  0  0  0  0  0  0  0  0
    1.5995    2.1543    0.5425 H   0  0  0  0  0  0  0  0  0  0  0  0
    5.9709   -0.0817    1.6133 H   0  0  0  0  0  0  0  0  0  0  0  0
    0.1175    0.0379   -1.6779 H   0  0  0  0  0  0  0  0  0  0  0  0
   -2.8630    1.8647   -0.9825 H   0  0  0  0  0  0  0  0  0  0  0  0
   -3.0426    1.8880    0.7673 H   0  0  0  0  0  0  0  0  0  0  0  0
   -2.8958   -0.5262    0.9269 H   0  0  0  0  0  0  0  0  0  0  0  0
   -2.7713   -0.6819   -0.9002 H   0  0  0  0  0  0  0  0  0  0  0  0
   -4.8833    0.6729   -1.0794 H   0  0  0  0  0  0  0  0  0  0  0  0
   -5.1882   -3.1071   -1.1679 H   0  0  0  0  0  0  0  0  0  0  0  0
   -5.1158    0.2253    1.8195 H   0  0  0  0  0  0  0  0  0  0  0  0
   -6.0169    1.2546    0.7597 H   0  0  0  0  0  0  0  0  0  0  0  0
   -0.9146    3.1053   -1.3805 H   0  0  0  0  0  0  0  0  0  0  0  0
    0.2971   -1.6294    0.4734 H   0  0  0  0  0  0  0  0  0  0  0  0
  1  2  1  0
  2  3  1  0
  3  4  2  0
  4  5  1  0
  5  6  2  0
  6  7  1  0
  7  8  2  0
  8  9  1  0
  7 10  1  0
 10 11  2  0
 10 12  1  0
  5 13  1  0
 13 14  1  0
 14 15  2  0
 14 16  1  0
 16 17  1  0
 17 18  1  0
 18 19  1  0
 19 20  2  0
 19 21  1  0
 18 22  1  0
 14 23  1  0
 13 24  1  0
  8  3  1  0
  1 25  1  0
  1 26  1  0
  1 27  1  0
  4 28  1  0
  6 29  1  0
  9 30  1  0
 13 31  1  0
 16 32  1  0
 16 33  1  0
 17 34  1  0
 17 35  1  0
 18 36  1  6
 21 37  1  0
 22 38  1  0
 22 39  1  0
 23 40  1  0
 24 41  1  0
M  CHG  2  10   1  12  -1
M  END
>  <Ligand ID>  (1) 
LIG0002007

>  <Ligand>  (1) 
LSP1-2111

>  <SMILES>  (1) 
COc1cc(cc(c1O)[N+](=O)[O-])C(P(=O)(CC[C@@H](C(=O)O)N)O)O

>  <CID>  (1) 
46898088.0

>  <ChEMBL ID>  (1) 
nan

>  <InChiKey>  (1) 
PEXVMHLARUAHNC-KAJCPDDVSA-N

>  <InChi>  (1) 
InChI=1S/C12H17N2O9P/c1-23-9-5-6(4-8(10(9)15)14(19)20)12(18)24(21,22)3-2-7(13)11(16)17/h4-5,7,12,15,18H,2-3,13H2,1H3,(H,16,17)(H,21,22)/t7-,12?/m0/s1

>  <IUPAC Name>  (1) 
(2S)-2-amino-4-[hydroxy-[hydroxy-(4-hydroxy-3-methoxy-5-nitrophenyl)methyl]phosphoryl]butanoic acid

$$$$
