
     RDKit          3D

 94 94  0  0  0  0  0  0  0  0999 V2000
  -14.1093    0.6139    2.0350 C   0  0  0  0  0  0  0  0  0  0  0  0
  -14.0418    1.4385    0.7805 C   0  0  0  0  0  0  0  0  0  0  0  0
  -12.8705    2.3559    0.7394 C   0  0  0  0  0  0  0  0  0  0  0  0
  -11.5277    1.7205    0.8070 C   0  0  0  0  0  0  0  0  0  0  0  0
  -11.2999    0.7649   -0.3296 C   0  0  0  0  0  0  0  0  0  0  0  0
   -9.9328    0.1037   -0.2937 C   0  0  0  0  0  0  0  0  0  0  0  0
   -8.8120    1.0696   -0.3822 C   0  0  0  0  0  0  0  0  0  0  0  0
   -7.4526    0.3446   -0.3006 C   0  0  0  0  0  0  0  0  0  0  0  0
   -7.2855   -0.6401   -1.3743 C   0  0  0  0  0  0  0  0  0  0  0  0
   -6.0414   -1.4136   -1.5217 C   0  0  0  0  0  0  0  0  0  0  0  0
   -5.5431   -2.3103   -0.4860 C   0  0  0  0  0  0  0  0  0  0  0  0
   -5.1439   -1.8360    0.8429 C   0  0  0  0  0  0  0  0  0  0  0  0
   -4.0343   -0.8060    0.8463 C   0  0  0  0  0  0  0  0  0  0  0  0
   -2.7788   -1.3899    0.2022 C   0  0  0  0  0  0  0  0  0  0  0  0
   -1.6230   -0.4135    0.1608 C   0  0  0  0  0  0  0  0  0  0  0  0
   -0.5657   -1.0811   -0.4552 O   0  0  0  0  0  0  0  0  0  0  0  0
    0.6677   -0.5259   -0.6924 C   0  0  0  0  0  0  0  0  0  0  0  0
    1.0560    0.7447   -0.3676 C   0  0  0  0  0  0  0  0  0  0  0  0
    2.3173    1.2064   -0.6507 C   0  0  0  0  0  0  0  0  0  0  0  0
    3.2870    0.4203   -1.2852 C   0  0  0  0  0  0  0  0  0  0  0  0
    2.8833   -0.8680   -1.6108 C   0  0  0  0  0  0  0  0  0  0  0  0
    1.6074   -1.3361   -1.3243 C   0  0  0  0  0  0  0  0  0  0  0  0
    4.6207    0.9298   -1.6407 C   0  0  0  0  0  0  0  0  0  0  0  0
    5.6416    0.9734   -0.5872 C   0  0  0  0  0  0  0  0  0  0  0  0
    5.9530   -0.3224    0.0232 C   0  0  0  0  0  0  0  0  0  0  0  0
    5.3296   -1.3570   -0.2221 O   0  0  0  0  0  0  0  0  0  0  0  0
    7.0016   -0.3659    0.9144 O   0  0  0  0  0  0  0  0  0  0  0  0
    7.4929   -1.4425    1.6121 C   0  0  0  0  0  0  0  0  0  0  0  0
    8.0161   -2.5236    0.7349 C   0  0  2  0  0  0  0  0  0  0  0  0
    9.2414   -2.0138   -0.0174 C   0  0  0  0  0  0  0  0  0  0  0  0
   10.1001   -1.4364    0.8893 O   0  0  0  0  0  0  0  0  0  0  0  0
   11.5586   -0.9671    0.1655 P   0  0  0  0  0  0  0  0  0  0  0  0
   12.4603   -2.1948    0.2172 O   0  0  0  0  0  0  0  0  0  0  0  0
   12.2989    0.2158    1.0912 O   0  0  0  0  0  0  0  0  0  0  0  0
   12.3471    1.4473    0.4434 C   0  0  0  0  0  0  0  0  0  0  0  0
   13.2348    2.3587    1.2964 C   0  0  1  0  0  0  0  0  0  0  0  0
   14.6037    1.7682    1.2722 C   0  0  0  0  0  0  0  0  0  0  0  0
   15.6020    2.3877    0.7918 O   0  0  0  0  0  0  0  0  0  0  0  0
   14.8809    0.4958    1.7756 O   0  0  0  0  0  0  0  0  0  0  0  0
   13.3292    3.6744    0.6766 N   0  0  0  0  0  0  0  0  0  0  0  0
   11.3648   -0.5339   -1.4497 O   0  0  0  0  0  0  0  0  0  0  0  0
    7.1149   -3.1172   -0.1086 O   0  0  0  0  0  0  0  0  0  0  0  0
  -13.9164    1.2666    2.8966 H   0  0  0  0  0  0  0  0  0  0  0  0
  -15.1295    0.1814    2.1937 H   0  0  0  0  0  0  0  0  0  0  0  0
  -13.4043   -0.2341    2.0531 H   0  0  0  0  0  0  0  0  0  0  0  0
  -14.9541    2.1063    0.8194 H   0  0  0  0  0  0  0  0  0  0  0  0
  -14.2026    0.8411   -0.1442 H   0  0  0  0  0  0  0  0  0  0  0  0
  -12.9775    3.0199   -0.1500 H   0  0  0  0  0  0  0  0  0  0  0  0
  -12.9741    3.0394    1.6262 H   0  0  0  0  0  0  0  0  0  0  0  0
  -10.7767    2.5394    0.6846 H   0  0  0  0  0  0  0  0  0  0  0  0
  -11.3523    1.2567    1.8076 H   0  0  0  0  0  0  0  0  0  0  0  0
  -12.0270   -0.0751   -0.2909 H   0  0  0  0  0  0  0  0  0  0  0  0
  -11.4714    1.2954   -1.2657 H   0  0  0  0  0  0  0  0  0  0  0  0
   -9.8195   -0.5128    0.6186 H   0  0  0  0  0  0  0  0  0  0  0  0
   -9.9241   -0.5208   -1.2411 H   0  0  0  0  0  0  0  0  0  0  0  0
   -8.7758    1.8163    0.4162 H   0  0  0  0  0  0  0  0  0  0  0  0
   -8.7902    1.5968   -1.3761 H   0  0  0  0  0  0  0  0  0  0  0  0
   -6.6445    1.1311   -0.4017 H   0  0  0  0  0  0  0  0  0  0  0  0
   -7.3933    0.0197    0.7339 H   0  0  0  0  0  0  0  0  0  0  0  0
   -7.4170   -0.0717   -2.3548 H   0  0  0  0  0  0  0  0  0  0  0  0
   -8.1721   -1.3632   -1.4355 H   0  0  0  0  0  0  0  0  0  0  0  0
   -5.2426   -0.7235   -1.9413 H   0  0  0  0  0  0  0  0  0  0  0  0
   -6.2244   -2.0691   -2.4481 H   0  0  0  0  0  0  0  0  0  0  0  0
   -6.2948   -3.1626   -0.3490 H   0  0  0  0  0  0  0  0  0  0  0  0
   -4.6529   -2.9085   -0.8849 H   0  0  0  0  0  0  0  0  0  0  0  0
   -4.6779   -2.6979    1.4483 H   0  0  0  0  0  0  0  0  0  0  0  0
   -5.9470   -1.5005    1.4943 H   0  0  0  0  0  0  0  0  0  0  0  0
   -3.7694   -0.6423    1.9172 H   0  0  0  0  0  0  0  0  0  0  0  0
   -4.3001    0.1619    0.4283 H   0  0  0  0  0  0  0  0  0  0  0  0
   -2.4122   -2.2537    0.7967 H   0  0  0  0  0  0  0  0  0  0  0  0
   -2.9694   -1.7635   -0.8231 H   0  0  0  0  0  0  0  0  0  0  0  0
   -1.9448    0.4059   -0.5192 H   0  0  0  0  0  0  0  0  0  0  0  0
   -1.3825    0.0010    1.1457 H   0  0  0  0  0  0  0  0  0  0  0  0
    0.3603    1.3838    0.1153 H   0  0  0  0  0  0  0  0  0  0  0  0
    2.6225    2.2177   -0.3897 H   0  0  0  0  0  0  0  0  0  0  0  0
    3.5277   -1.5757   -2.1238 H   0  0  0  0  0  0  0  0  0  0  0  0
    1.3332   -2.3564   -1.5987 H   0  0  0  0  0  0  0  0  0  0  0  0
    5.0066    0.2716   -2.4653 H   0  0  0  0  0  0  0  0  0  0  0  0
    4.4767    1.9719   -2.0451 H   0  0  0  0  0  0  0  0  0  0  0  0
    5.4681    1.7729    0.1807 H   0  0  0  0  0  0  0  0  0  0  0  0
    6.6011    1.3257   -1.0849 H   0  0  0  0  0  0  0  0  0  0  0  0
    6.6586   -1.8903    2.2226 H   0  0  0  0  0  0  0  0  0  0  0  0
    8.2990   -1.0666    2.2915 H   0  0  0  0  0  0  0  0  0  0  0  0
    8.4121   -3.3438    1.3974 H   0  0  0  0  0  0  0  0  0  0  0  0
    8.9608   -1.3908   -0.8747 H   0  0  0  0  0  0  0  0  0  0  0  0
    9.7611   -2.9236   -0.4391 H   0  0  0  0  0  0  0  0  0  0  0  0
   11.3310    1.9186    0.4238 H   0  0  0  0  0  0  0  0  0  0  0  0
   12.8215    1.3719   -0.5444 H   0  0  0  0  0  0  0  0  0  0  0  0
   12.8546    2.4864    2.3238 H   0  0  0  0  0  0  0  0  0  0  0  0
   15.6156   -0.0740    1.3508 H   0  0  0  0  0  0  0  0  0  0  0  0
   12.4474    3.9796    0.2355 H   0  0  0  0  0  0  0  0  0  0  0  0
   13.7103    4.3587    1.3746 H   0  0  0  0  0  0  0  0  0  0  0  0
   11.2497   -1.3761   -1.9919 H   0  0  0  0  0  0  0  0  0  0  0  0
    7.4741   -3.3801   -1.0012 H   0  0  0  0  0  0  0  0  0  0  0  0
  1  2  1  0
  2  3  1  0
  3  4  1  0
  4  5  1  0
  5  6  1  0
  6  7  1  0
  7  8  1  0
  8  9  1  0
  9 10  1  0
 10 11  1  0
 11 12  1  0
 12 13  1  0
 13 14  1  0
 14 15  1  0
 15 16  1  0
 16 17  1  0
 17 18  2  0
 18 19  1  0
 19 20  2  0
 20 21  1  0
 21 22  2  0
 20 23  1  0
 23 24  1  0
 24 25  1  0
 25 26  2  0
 25 27  1  0
 27 28  1  0
 28 29  1  0
 29 30  1  0
 30 31  1  0
 31 32  1  0
 32 33  2  0
 32 34  1  0
 34 35  1  0
 35 36  1  0
 36 37  1  0
 37 38  2  0
 37 39  1  0
 36 40  1  0
 32 41  1  0
 29 42  1  0
 22 17  1  0
  1 43  1  0
  1 44  1  0
  1 45  1  0
  2 46  1  0
  2 47  1  0
  3 48  1  0
  3 49  1  0
  4 50  1  0
  4 51  1  0
  5 52  1  0
  5 53  1  0
  6 54  1  0
  6 55  1  0
  7 56  1  0
  7 57  1  0
  8 58  1  0
  8 59  1  0
  9 60  1  0
  9 61  1  0
 10 62  1  0
 10 63  1  0
 11 64  1  0
 11 65  1  0
 12 66  1  0
 12 67  1  0
 13 68  1  0
 13 69  1  0
 14 70  1  0
 14 71  1  0
 15 72  1  0
 15 73  1  0
 18 74  1  0
 19 75  1  0
 21 76  1  0
 22 77  1  0
 23 78  1  0
 23 79  1  0
 24 80  1  0
 24 81  1  0
 28 82  1  0
 28 83  1  0
 29 84  1  1
 30 85  1  0
 30 86  1  0
 35 87  1  0
 35 88  1  0
 36 89  1  1
 39 90  1  0
 40 91  1  0
 40 92  1  0
 41 93  1  0
 42 94  1  0
M  END
>  <Ligand ID>  (1) 
LIG0004269

>  <Ligand>  (1) 
CHEMBL3577176

>  <SMILES>  (1) 
CCCCCCCCCCCCCCCOc1ccc(cc1)CCC(=O)OC[C@H](COP(=O)(OC[C@@H](C(=O)O)N)O)O

>  <CID>  (1) 
122177522.0

>  <ChEMBL ID>  (1) 
nan

>  <InChiKey>  (1) 
IBNSOXBZKPVHNZ-IAPPQJPRSA-N

>  <InChi>  (1) 
InChI=1S/C30H52NO10P/c1-2-3-4-5-6-7-8-9-10-11-12-13-14-21-38-27-18-15-25(16-19-27)17-20-29(33)39-22-26(32)23-40-42(36,37)41-24-28(31)30(34)35/h15-16,18-19,26,28,32H,2-14,17,20-24,31H2,1H3,(H,34,35)(H,36,37)/t26-,28+/m1/s1

>  <IUPAC Name>  (1) 
(2S)-2-amino-3-[hydroxy-[(2R)-2-hydroxy-3-[3-(4-pentadecoxyphenyl)propanoyloxy]propoxy]phosphoryl]oxypropanoic acid

$$$$
