
     RDKit          3D

 83 88  0  0  0  0  0  0  0  0999 V2000
    3.5177   -0.6130   -2.0313 O   0  0  0  0  0  0  0  0  0  0  0  0
    3.5967   -0.7578   -0.7759 C   0  0  0  0  0  0  0  0  0  0  0  0
    4.9094   -1.1804   -0.2349 C   0  0  2  0  0  0  0  0  0  0  0  0
    4.8311   -1.3034    1.2129 N   0  0  0  0  0  0  0  0  0  0  0  0
    6.0006   -2.0097    1.6824 C   0  0  0  0  0  0  0  0  0  0  0  0
    7.2006   -1.2427    1.2570 C   0  0  0  0  0  0  0  0  0  0  0  0
    7.2061   -0.3862    0.1757 C   0  0  0  0  0  0  0  0  0  0  0  0
    5.9733   -0.1826   -0.6424 C   0  0  0  0  0  0  0  0  0  0  0  0
    8.3564    0.2961   -0.1648 C   0  0  0  0  0  0  0  0  0  0  0  0
    9.5232    0.1368    0.5666 C   0  0  0  0  0  0  0  0  0  0  0  0
    9.5048   -0.7223    1.6451 C   0  0  0  0  0  0  0  0  0  0  0  0
    8.3706   -1.4078    1.9973 C   0  0  0  0  0  0  0  0  0  0  0  0
    2.4728   -0.5245    0.0748 N   0  0  0  0  0  0  0  0  0  0  0  0
    1.1943   -0.1041   -0.5470 C   0  0  1  0  0  0  0  0  0  0  0  0
    0.1933   -1.0798   -0.0881 C   0  0  0  0  0  0  0  0  0  0  0  0
    0.6046   -1.9275    0.7820 O   0  0  0  0  0  0  0  0  0  0  0  0
   -1.1398   -1.1648   -0.5077 N   0  0  0  0  0  0  0  0  0  0  0  0
   -1.7582   -0.3114   -1.5067 C   0  0  0  0  0  0  0  0  0  0  0  0
   -2.8358    0.4672   -0.8437 C   0  0  0  0  0  0  0  0  0  0  0  0
   -3.8537   -0.4182   -0.0917 C   0  0  0  0  0  0  0  0  0  0  0  0
   -3.1461   -1.4419    0.7769 C   0  0  0  0  0  0  0  0  0  0  0  0
   -2.0297   -2.1699    0.0801 C   0  0  0  0  0  0  0  0  0  0  0  0
   -4.5927   -1.1288   -1.1377 C   0  0  0  0  0  0  0  0  0  0  0  0
   -5.6237   -2.0423   -0.7755 N   0  0  0  0  0  0  0  0  0  0  0  0
   -5.4270   -3.3725   -0.5160 C   0  0  0  0  0  0  0  0  0  0  0  0
   -6.6011   -3.9433   -0.2266 N   0  0  0  0  0  0  0  0  0  0  0  0
   -7.5074   -2.9456   -0.3139 C   0  0  0  0  0  0  0  0  0  0  0  0
   -6.9165   -1.7901   -0.6471 N   0  0  0  0  0  0  0  0  0  0  0  0
   -4.5419    0.5057    0.8401 C   0  0  0  0  0  0  0  0  0  0  0  0
   -5.5774   -0.0464    1.7425 C   0  0  0  0  0  0  0  0  0  0  0  0
   -6.9369    0.5322    1.6929 C   0  0  0  0  0  0  0  0  0  0  0  0
   -7.3628    1.2865    0.5011 C   0  0  0  0  0  0  0  0  0  0  0  0
   -6.2895    1.8587   -0.3611 C   0  0  0  0  0  0  0  0  0  0  0  0
   -4.9362    1.8498    0.2801 C   0  0  0  0  0  0  0  0  0  0  0  0
    0.8949    1.2389    0.0967 C   0  0  0  0  0  0  0  0  0  0  0  0
    2.0077    2.1837   -0.2076 C   0  0  0  0  0  0  0  0  0  0  0  0
    1.8764    2.9376   -1.3631 C   0  0  0  0  0  0  0  0  0  0  0  0
    2.8470    3.8384   -1.7350 C   0  0  0  0  0  0  0  0  0  0  0  0
    3.9556    3.9723   -0.9275 C   0  0  0  0  0  0  0  0  0  0  0  0
    4.0948    3.2257    0.2251 C   0  0  0  0  0  0  0  0  0  0  0  0
    3.1173    2.3242    0.5918 C   0  0  0  0  0  0  0  0  0  0  0  0
    5.1869    5.1235   -1.4109 Cl  0  0  0  0  0  0  0  0  0  0  0  0
    5.1580   -2.1733   -0.6569 H   0  0  0  0  0  0  0  0  0  0  0  0
    4.8817   -0.3296    1.6200 H   0  0  0  0  0  0  0  0  0  0  0  0
    5.9984   -3.0584    1.2868 H   0  0  0  0  0  0  0  0  0  0  0  0
    5.9555   -2.0070    2.7915 H   0  0  0  0  0  0  0  0  0  0  0  0
    5.6319    0.8539   -0.5104 H   0  0  0  0  0  0  0  0  0  0  0  0
    6.2645   -0.3210   -1.7021 H   0  0  0  0  0  0  0  0  0  0  0  0
    8.4125    0.9800   -1.0049 H   0  0  0  0  0  0  0  0  0  0  0  0
   10.4410    0.6375    0.3498 H   0  0  0  0  0  0  0  0  0  0  0  0
   10.4170   -0.8567    2.2294 H   0  0  0  0  0  0  0  0  0  0  0  0
    8.4327   -2.0616    2.8524 H   0  0  0  0  0  0  0  0  0  0  0  0
    2.5422   -0.6448    1.1086 H   0  0  0  0  0  0  0  0  0  0  0  0
    1.3745   -0.0599   -1.6174 H   0  0  0  0  0  0  0  0  0  0  0  0
   -0.9949    0.3755   -1.8922 H   0  0  0  0  0  0  0  0  0  0  0  0
   -2.1041   -0.8979   -2.3859 H   0  0  0  0  0  0  0  0  0  0  0  0
   -3.4424    0.9225   -1.6833 H   0  0  0  0  0  0  0  0  0  0  0  0
   -2.4172    1.2012   -0.1583 H   0  0  0  0  0  0  0  0  0  0  0  0
   -3.8925   -2.1483    1.1305 H   0  0  0  0  0  0  0  0  0  0  0  0
   -2.6887   -0.8934    1.6263 H   0  0  0  0  0  0  0  0  0  0  0  0
   -2.3338   -2.8406   -0.7202 H   0  0  0  0  0  0  0  0  0  0  0  0
   -1.4736   -2.7133    0.8675 H   0  0  0  0  0  0  0  0  0  0  0  0
   -3.8127   -1.7430   -1.6917 H   0  0  0  0  0  0  0  0  0  0  0  0
   -4.9416   -0.4425   -1.9737 H   0  0  0  0  0  0  0  0  0  0  0  0
   -4.4804   -3.9125   -0.5330 H   0  0  0  0  0  0  0  0  0  0  0  0
   -8.5729   -3.0354   -0.1436 H   0  0  0  0  0  0  0  0  0  0  0  0
   -3.6736    0.8077    1.5281 H   0  0  0  0  0  0  0  0  0  0  0  0
   -5.2762    0.0665    2.8400 H   0  0  0  0  0  0  0  0  0  0  0  0
   -5.5945   -1.1773    1.6768 H   0  0  0  0  0  0  0  0  0  0  0  0
   -7.1854    1.1458    2.6142 H   0  0  0  0  0  0  0  0  0  0  0  0
   -7.6646   -0.3340    1.7954 H   0  0  0  0  0  0  0  0  0  0  0  0
   -8.0440    0.7023   -0.1914 H   0  0  0  0  0  0  0  0  0  0  0  0
   -8.0675    2.1047    0.8491 H   0  0  0  0  0  0  0  0  0  0  0  0
   -6.5353    2.9501   -0.5320 H   0  0  0  0  0  0  0  0  0  0  0  0
   -6.2636    1.4583   -1.4006 H   0  0  0  0  0  0  0  0  0  0  0  0
   -4.1809    2.2753   -0.3669 H   0  0  0  0  0  0  0  0  0  0  0  0
   -5.0193    2.5393    1.1740 H   0  0  0  0  0  0  0  0  0  0  0  0
    0.9322    1.0423    1.2013 H   0  0  0  0  0  0  0  0  0  0  0  0
   -0.0738    1.6649   -0.1700 H   0  0  0  0  0  0  0  0  0  0  0  0
    1.0159    2.8519   -2.0150 H   0  0  0  0  0  0  0  0  0  0  0  0
    2.7430    4.4218   -2.6312 H   0  0  0  0  0  0  0  0  0  0  0  0
    4.9704    3.3656    0.8161 H   0  0  0  0  0  0  0  0  0  0  0  0
    3.2022    1.7232    1.4946 H   0  0  0  0  0  0  0  0  0  0  0  0
  1  2  2  0
  2  3  1  0
  3  4  1  0
  4  5  1  0
  5  6  1  0
  6  7  2  0
  7  8  1  0
  7  9  1  0
  9 10  2  0
 10 11  1  0
 11 12  2  0
  2 13  1  0
 13 14  1  0
 14 15  1  0
 15 16  2  0
 15 17  1  0
 17 18  1  0
 18 19  1  0
 19 20  1  0
 20 21  1  0
 21 22  1  0
 20 23  1  0
 23 24  1  0
 24 25  1  0
 25 26  2  0
 26 27  1  0
 27 28  2  0
 20 29  1  0
 29 30  1  0
 30 31  1  0
 31 32  1  0
 32 33  1  0
 33 34  1  0
 14 35  1  0
 35 36  1  0
 36 37  2  0
 37 38  1  0
 38 39  2  0
 39 40  1  0
 40 41  2  0
 39 42  1  0
  8  3  1  0
 22 17  1  0
 28 24  1  0
 34 29  1  0
 41 36  1  0
 12  6  1  0
  3 43  1  6
  4 44  1  0
  5 45  1  0
  5 46  1  0
  8 47  1  0
  8 48  1  0
  9 49  1  0
 10 50  1  0
 11 51  1  0
 12 52  1  0
 13 53  1  0
 14 54  1  6
 18 55  1  0
 18 56  1  0
 19 57  1  0
 19 58  1  0
 21 59  1  0
 21 60  1  0
 22 61  1  0
 22 62  1  0
 23 63  1  0
 23 64  1  0
 25 65  1  0
 27 66  1  0
 29 67  1  0
 30 68  1  0
 30 69  1  0
 31 70  1  0
 31 71  1  0
 32 72  1  0
 32 73  1  0
 33 74  1  0
 33 75  1  0
 34 76  1  0
 34 77  1  0
 35 78  1  0
 35 79  1  0
 37 80  1  0
 38 81  1  0
 40 82  1  0
 41 83  1  0
M  END
>  <Ligand ID>  (1) 
LIG0000501

>  <Ligand>  (1) 
THIQ

>  <SMILES>  (1) 
O=C([C@@H]1NCc2c(C1)cccc2)N[C@@H](C(=O)N1CCC(CC1)(Cn1cncn1)C1CCCCC1)Cc1ccc(cc1)Cl

>  <CID>  (1) 
9938402.0

>  <ChEMBL ID>  (1) 
nan

>  <InChiKey>  (1) 
HLCHESOMJVGDSJ-LOYHVIPDSA-N

>  <InChi>  (1) 
InChI=1S/C33H41ClN6O2/c34-28-12-10-24(11-13-28)18-30(38-31(41)29-19-25-6-4-5-7-26(25)20-36-29)32(42)39-16-14-33(15-17-39,21-40-23-35-22-37-40)27-8-2-1-3-9-27/h4-7,10-13,22-23,27,29-30,36H,1-3,8-9,14-21H2,(H,38,41)/t29-,30-/m1/s1

>  <IUPAC Name>  (1) 
(3R)-N-[(2R)-3-(4-chlorophenyl)-1-[4-cyclohexyl-4-(1,2,4-triazol-1-ylmethyl)piperidin-1-yl]-1-oxopropan-2-yl]-1,2,3,4-tetrahydroisoquinoline-3-carboxamide

$$$$
