
     RDKit          3D

 40 39  0  0  0  0  0  0  0  0999 V2000
    6.5210   -1.4593   -0.3735 O   0  0  0  0  0  0  0  0  0  0  0  0
    6.2878   -0.3586    0.1721 C   0  0  0  0  0  0  0  0  0  0  0  0
    4.9786    0.0400    0.6582 C   0  0  0  0  0  0  0  0  0  0  0  0
    3.9085   -0.7197    0.5717 C   0  0  0  0  0  0  0  0  0  0  0  0
    2.5698   -0.2653    1.0896 C   0  0  0  0  0  0  0  0  0  0  0  0
    1.5850   -0.2385   -0.0280 C   0  0  0  0  0  0  0  0  0  0  0  0
    0.2166    0.1990    0.3702 C   0  0  0  0  0  0  0  0  0  0  0  0
   -0.3645    1.2646   -0.1577 C   0  0  0  0  0  0  0  0  0  0  0  0
   -1.6820    1.7935    0.1363 C   0  0  0  0  0  0  0  0  0  0  0  0
   -2.5547    1.0698    1.0923 C   0  0  0  0  0  0  0  0  0  0  0  0
   -2.9657   -0.2798    0.6498 C   0  0  0  0  0  0  0  0  0  0  0  0
   -4.2697   -0.5647    0.5158 C   0  0  0  0  0  0  0  0  0  0  0  0
   -4.7230   -1.9359    0.0651 C   0  0  0  0  0  0  0  0  0  0  0  0
   -5.2926    0.5025    0.8204 C   0  0  0  0  0  0  0  0  0  0  0  0
    0.4682    1.9998   -1.1887 C   0  0  0  0  0  0  0  0  0  0  0  0
    4.0016   -2.0618   -0.0482 C   0  0  0  0  0  0  0  0  0  0  0  0
    7.1279    0.3178    0.2756 H   0  0  0  0  0  0  0  0  0  0  0  0
    4.8512    1.0102    1.1207 H   0  0  0  0  0  0  0  0  0  0  0  0
    2.7090    0.7647    1.4734 H   0  0  0  0  0  0  0  0  0  0  0  0
    2.2793   -0.8920    1.9407 H   0  0  0  0  0  0  0  0  0  0  0  0
    1.9978    0.2834   -0.8903 H   0  0  0  0  0  0  0  0  0  0  0  0
    1.4405   -1.3031   -0.3789 H   0  0  0  0  0  0  0  0  0  0  0  0
   -0.2762   -0.3836    1.1301 H   0  0  0  0  0  0  0  0  0  0  0  0
   -2.3067    1.9605   -0.7988 H   0  0  0  0  0  0  0  0  0  0  0  0
   -1.5604    2.8537    0.5138 H   0  0  0  0  0  0  0  0  0  0  0  0
   -3.4934    1.6566    1.2763 H   0  0  0  0  0  0  0  0  0  0  0  0
   -2.0987    1.0129    2.1285 H   0  0  0  0  0  0  0  0  0  0  0  0
   -2.2969   -1.0950    0.4081 H   0  0  0  0  0  0  0  0  0  0  0  0
   -5.6745   -1.8171   -0.5265 H   0  0  0  0  0  0  0  0  0  0  0  0
   -3.9476   -2.4273   -0.5373 H   0  0  0  0  0  0  0  0  0  0  0  0
   -4.9860   -2.4790    0.9918 H   0  0  0  0  0  0  0  0  0  0  0  0
   -6.2803    0.0634    0.5725 H   0  0  0  0  0  0  0  0  0  0  0  0
   -5.1037    1.3188    0.0838 H   0  0  0  0  0  0  0  0  0  0  0  0
   -5.2577    0.8374    1.8655 H   0  0  0  0  0  0  0  0  0  0  0  0
    1.4709    2.2464   -0.7492 H   0  0  0  0  0  0  0  0  0  0  0  0
    0.0004    2.9500   -1.4467 H   0  0  0  0  0  0  0  0  0  0  0  0
    0.6199    1.3713   -2.0825 H   0  0  0  0  0  0  0  0  0  0  0  0
    4.3632   -1.9770   -1.0900 H   0  0  0  0  0  0  0  0  0  0  0  0
    4.7405   -2.6811    0.5057 H   0  0  0  0  0  0  0  0  0  0  0  0
    2.9967   -2.5775   -0.0423 H   0  0  0  0  0  0  0  0  0  0  0  0
  1  2  2  0
  2  3  1  0
  3  4  2  0
  4  5  1  0
  5  6  1  0
  6  7  1  0
  7  8  2  0
  8  9  1  0
  9 10  1  0
 10 11  1  0
 11 12  2  3
 12 13  1  0
 12 14  1  0
  8 15  1  0
  4 16  1  0
  2 17  1  0
  3 18  1  0
  5 19  1  0
  5 20  1  0
  6 21  1  0
  6 22  1  0
  7 23  1  0
  9 24  1  0
  9 25  1  0
 10 26  1  0
 10 27  1  0
 11 28  1  0
 13 29  1  0
 13 30  1  0
 13 31  1  0
 14 32  1  0
 14 33  1  0
 14 34  1  0
 15 35  1  0
 15 36  1  0
 15 37  1  0
 16 38  1  0
 16 39  1  0
 16 40  1  0
M  END
>  <Ligand ID>  (1) 
LIG0001063

>  <Ligand>  (1) 
Farnesal

>  <SMILES>  (1) 
O=C/C=C(/CC/C=C(/CCC=C(C)C)\C)\C

>  <CID>  (1) 
5280598.0

>  <ChEMBL ID>  (1) 
nan

>  <InChiKey>  (1) 
YHRUHBBTQZKMEX-YFVJMOTDSA-N

>  <InChi>  (1) 
InChI=1S/C15H24O/c1-13(2)7-5-8-14(3)9-6-10-15(4)11-12-16/h7,9,11-12H,5-6,8,10H2,1-4H3/b14-9+,15-11+

>  <IUPAC Name>  (1) 
(2E,6E)-3,7,11-trimethyldodeca-2,6,10-trienal

$$$$
