
     RDKit          3D

 24 25  0  0  0  0  0  0  0  0999 V2000
    3.2475   -0.0831   -0.5047 N   0  0  0  0  0  0  0  0  0  0  0  0
    2.7320   -1.2332    0.2161 C   0  0  0  0  0  0  0  0  0  0  0  0
    1.2722   -0.9638    0.5818 C   0  0  1  0  0  0  0  0  0  0  0  0
    1.1179    0.2710    1.4627 C   0  0  0  0  0  0  0  0  0  0  0  0
    0.6277    0.2340    0.0153 C   0  0  2  0  0  0  0  0  0  0  0  0
   -0.8409    0.2932   -0.2088 C   0  0  0  0  0  0  0  0  0  0  0  0
   -1.6036   -0.8634   -0.2679 C   0  0  0  0  0  0  0  0  0  0  0  0
   -2.9684   -0.7091   -0.4810 C   0  0  0  0  0  0  0  0  0  0  0  0
   -3.5503    0.5369   -0.6288 C   0  0  0  0  0  0  0  0  0  0  0  0
   -2.7674    1.6848   -0.5662 C   0  0  0  0  0  0  0  0  0  0  0  0
   -1.3947    1.5537   -0.3530 C   0  0  0  0  0  0  0  0  0  0  0  0
   -0.6389    2.6885   -0.2939 F   0  0  0  0  0  0  0  0  0  0  0  0
   -5.2941    0.6643   -0.8976 Cl  0  0  0  0  0  0  0  0  0  0  0  0
    3.3756   -0.3115   -1.5137 H   0  0  0  0  0  0  0  0  0  0  0  0
    4.1006    0.3121   -0.0980 H   0  0  0  0  0  0  0  0  0  0  0  0
    3.3538   -1.2986    1.1511 H   0  0  0  0  0  0  0  0  0  0  0  0
    2.8523   -2.1111   -0.4186 H   0  0  0  0  0  0  0  0  0  0  0  0
    0.6698   -1.8712    0.8615 H   0  0  0  0  0  0  0  0  0  0  0  0
    0.3262    0.2694    2.2428 H   0  0  0  0  0  0  0  0  0  0  0  0
    1.9942    0.8785    1.7219 H   0  0  0  0  0  0  0  0  0  0  0  0
    1.2766    0.8558   -0.6670 H   0  0  0  0  0  0  0  0  0  0  0  0
   -1.1543   -1.8394   -0.1532 H   0  0  0  0  0  0  0  0  0  0  0  0
   -3.5390   -1.6321   -0.5224 H   0  0  0  0  0  0  0  0  0  0  0  0
   -3.1949    2.6743   -0.6783 H   0  0  0  0  0  0  0  0  0  0  0  0
  1  2  1  0
  2  3  1  0
  3  4  1  0
  4  5  1  0
  5  6  1  0
  6  7  2  0
  7  8  1  0
  8  9  2  0
  9 10  1  0
 10 11  2  0
 11 12  1  0
  9 13  1  0
  5  3  1  0
 11  6  1  0
  1 14  1  0
  1 15  1  0
  2 16  1  0
  2 17  1  0
  3 18  1  1
  4 19  1  0
  4 20  1  0
  5 21  1  6
  7 22  1  0
  8 23  1  0
 10 24  1  0
M  END
>  <Ligand ID>  (1) 
LIG0002358

>  <Ligand>  (1) 
CHEMBL501526

>  <SMILES>  (1) 
NC[C@H]1C[C@@H]1c1ccc(cc1F)Cl

>  <CID>  (1) 
44572164.0

>  <ChEMBL ID>  (1) 
nan

>  <InChiKey>  (1) 
SYQBSYZGWVNIKD-MUWHJKNJSA-N

>  <InChi>  (1) 
InChI=1S/C10H11ClFN/c11-7-1-2-8(10(12)4-7)9-3-6(9)5-13/h1-2,4,6,9H,3,5,13H2/t6-,9+/m1/s1

>  <IUPAC Name>  (1) 
[(1S,2S)-2-(4-chloro-2-fluorophenyl)cyclopropyl]methanamine

$$$$
