
     RDKit          3D

 58 62  0  0  0  0  0  0  0  0999 V2000
   -1.6150    1.2060   -1.9198 O   0  0  0  0  0  0  0  0  0  0  0  0
   -1.9691    0.2431   -1.1689 C   0  0  0  0  0  0  0  0  0  0  0  0
   -3.3785   -0.0840   -1.0967 C   0  0  0  0  0  0  0  0  0  0  0  0
   -3.9543   -0.0930    0.1826 C   0  0  0  0  0  0  0  0  0  0  0  0
   -5.2999   -0.3686    0.3389 C   0  0  0  0  0  0  0  0  0  0  0  0
   -6.0363   -0.6259   -0.7575 N   0  0  0  0  0  0  0  0  0  0  0  0
   -5.5311   -0.6295   -2.0012 C   0  0  0  0  0  0  0  0  0  0  0  0
   -4.1876   -0.3556   -2.1657 C   0  0  0  0  0  0  0  0  0  0  0  0
   -3.6408   -0.3508   -3.4174 C   0  0  0  0  0  0  0  0  0  0  0  0
   -4.4954   -0.6325   -4.4951 C   0  0  0  0  0  0  0  0  0  0  0  0
   -5.8301   -0.9029   -4.3173 C   0  0  0  0  0  0  0  0  0  0  0  0
   -6.3845   -0.9065   -3.0460 C   0  0  0  0  0  0  0  0  0  0  0  0
   -5.9591   -0.3539    1.6549 C   0  0  0  0  0  0  0  0  0  0  0  0
   -5.2500   -0.1554    2.8285 C   0  0  0  0  0  0  0  0  0  0  0  0
   -5.9304   -0.1262    4.0090 C   0  0  0  0  0  0  0  0  0  0  0  0
   -7.3064   -0.2869    4.0944 C   0  0  0  0  0  0  0  0  0  0  0  0
   -8.0240   -0.4879    2.9173 C   0  0  0  0  0  0  0  0  0  0  0  0
   -7.3131   -0.5141    1.7241 C   0  0  0  0  0  0  0  0  0  0  0  0
   -8.2011   -0.7664    0.2456 Cl  0  0  0  0  0  0  0  0  0  0  0  0
   -0.9888   -0.4959   -0.4060 N   0  0  0  0  0  0  0  0  0  0  0  0
    0.3795   -0.0558   -0.5526 C   0  0  0  0  0  0  0  0  0  0  0  0
    1.2502   -0.5684   -1.4645 C   0  0  0  0  0  0  0  0  0  0  0  0
    2.5529   -0.0515   -1.4982 C   0  0  0  0  0  0  0  0  0  0  0  0
    2.9467    0.9385   -0.6474 C   0  0  0  0  0  0  0  0  0  0  0  0
    2.0256    1.4387    0.2709 C   0  0  0  0  0  0  0  0  0  0  0  0
    0.7372    0.9643    0.3447 C   0  0  0  0  0  0  0  0  0  0  0  0
    4.5518    1.6251   -0.5854 S   0  0  0  0  0  0  0  0  0  0  0  0
    5.3221    0.9774   -1.7319 O   0  0  0  0  0  0  0  0  0  0  0  0
    4.4837    3.1036   -0.7742 O   0  0  0  0  0  0  0  0  0  0  0  0
    5.3425    1.1489    0.8397 N   0  0  0  0  0  0  0  0  0  0  0  0
    6.4786    0.3225    0.9452 C   0  0  0  0  0  0  0  0  0  0  0  0
    6.3826   -0.9980    1.0676 O   0  0  0  0  0  0  0  0  0  0  0  0
    7.5770   -1.5003    1.1477 N   0  0  0  0  0  0  0  0  0  0  0  0
    8.5327   -0.5703    1.0858 C   0  0  0  0  0  0  0  0  0  0  0  0
    7.8265    0.6350    0.9518 C   0  0  0  0  0  0  0  0  0  0  0  0
    8.3776    1.9948    0.8315 C   0  0  0  0  0  0  0  0  0  0  0  0
   10.0130   -0.6843    1.1412 C   0  0  0  0  0  0  0  0  0  0  0  0
   -3.3338    0.1156    1.0344 H   0  0  0  0  0  0  0  0  0  0  0  0
   -2.6070   -0.1432   -3.5514 H   0  0  0  0  0  0  0  0  0  0  0  0
   -4.0714   -0.6247   -5.4901 H   0  0  0  0  0  0  0  0  0  0  0  0
   -6.5211   -1.1199   -5.1268 H   0  0  0  0  0  0  0  0  0  0  0  0
   -7.4306   -1.1156   -2.8616 H   0  0  0  0  0  0  0  0  0  0  0  0
   -4.1802   -0.0190    2.8389 H   0  0  0  0  0  0  0  0  0  0  0  0
   -5.4150    0.0269    4.9479 H   0  0  0  0  0  0  0  0  0  0  0  0
   -7.7993   -0.2532    5.0714 H   0  0  0  0  0  0  0  0  0  0  0  0
   -9.0916   -0.6165    2.9641 H   0  0  0  0  0  0  0  0  0  0  0  0
   -1.2472   -1.2911    0.2011 H   0  0  0  0  0  0  0  0  0  0  0  0
    0.9261   -1.3512   -2.1361 H   0  0  0  0  0  0  0  0  0  0  0  0
    3.2634   -0.4258   -2.2062 H   0  0  0  0  0  0  0  0  0  0  0  0
    2.2919    2.2259    0.9668 H   0  0  0  0  0  0  0  0  0  0  0  0
    0.0219    1.3546    1.0682 H   0  0  0  0  0  0  0  0  0  0  0  0
    4.9427    1.5077    1.7615 H   0  0  0  0  0  0  0  0  0  0  0  0
    8.4182    2.4531    1.8289 H   0  0  0  0  0  0  0  0  0  0  0  0
    9.4368    1.9627    0.4675 H   0  0  0  0  0  0  0  0  0  0  0  0
    7.7945    2.5961    0.0982 H   0  0  0  0  0  0  0  0  0  0  0  0
   10.2947   -1.7100    1.4413 H   0  0  0  0  0  0  0  0  0  0  0  0
   10.4006   -0.0247    1.9488 H   0  0  0  0  0  0  0  0  0  0  0  0
   10.4220   -0.4589    0.1574 H   0  0  0  0  0  0  0  0  0  0  0  0
  1  2  2  0
  2  3  1  0
  3  4  2  0
  4  5  1  0
  5  6  2  0
  6  7  1  0
  7  8  2  0
  8  9  1  0
  9 10  2  0
 10 11  1  0
 11 12  2  0
  5 13  1  0
 13 14  2  0
 14 15  1  0
 15 16  2  0
 16 17  1  0
 17 18  2  0
 18 19  1  0
  2 20  1  0
 20 21  1  0
 21 22  2  0
 22 23  1  0
 23 24  2  0
 24 25  1  0
 25 26  2  0
 24 27  1  0
 27 28  2  0
 27 29  2  0
 27 30  1  0
 30 31  1  0
 31 32  1  0
 32 33  1  0
 33 34  2  0
 34 35  1  0
 35 36  1  0
 34 37  1  0
  8  3  1  0
 18 13  1  0
 26 21  1  0
 35 31  2  0
 12  7  1  0
  4 38  1  0
  9 39  1  0
 10 40  1  0
 11 41  1  0
 12 42  1  0
 14 43  1  0
 15 44  1  0
 16 45  1  0
 17 46  1  0
 20 47  1  0
 22 48  1  0
 23 49  1  0
 25 50  1  0
 26 51  1  0
 30 52  1  0
 36 53  1  0
 36 54  1  0
 36 55  1  0
 37 56  1  0
 37 57  1  0
 37 58  1  0
M  END
>  <Ligand ID>  (1) 
LIG0003681

>  <Ligand>  (1) 
MLS-0257792.0001

>  <SMILES>  (1) 
O=C(c1cc(nc2c1cccc2)c1ccccc1Cl)Nc1ccc(cc1)S(=O)(=O)Nc1onc(c1C)C

>  <CID>  (1) 
2332853.0

>  <ChEMBL ID>  (1) 
nan

>  <InChiKey>  (1) 
UROZAHXMNISVLP-UHFFFAOYSA-N

>  <InChi>  (1) 
InChI=1S/C27H21ClN4O4S/c1-16-17(2)31-36-27(16)32-37(34,35)19-13-11-18(12-14-19)29-26(33)22-15-25(21-8-3-5-9-23(21)28)30-24-10-6-4-7-20(22)24/h3-15,32H,1-2H3,(H,29,33)

>  <IUPAC Name>  (1) 
2-(2-chlorophenyl)-N-[4-[(3,4-dimethyl-1,2-oxazol-5-yl)sulfamoyl]phenyl]quinoline-4-carboxamide

$$$$
