
     RDKit          3D

 25 24  0  0  0  0  0  0  0  0999 V2000
   -3.3373   -1.2405    0.6117 O   0  0  0  0  0  0  0  0  0  0  0  0
   -2.2487   -1.1251   -0.2935 C   0  0  0  0  0  0  0  0  0  0  0  0
   -1.6404   -2.1979   -0.5138 O   0  0  0  0  0  0  0  0  0  0  0  0
   -1.9312    0.1863   -0.8791 C   0  0  0  0  0  0  0  0  0  0  0  0
   -0.8389    0.9622   -0.2803 C   0  0  1  0  0  0  0  0  0  0  0  0
   -1.0502    1.2681    1.1689 C   0  0  0  0  0  0  0  0  0  0  0  0
   -2.0874    0.8646    1.7032 O   0  0  0  0  0  0  0  0  0  0  0  0
   -0.1349    1.9816    1.9267 O   0  0  0  0  0  0  0  0  0  0  0  0
    0.5665    0.7186   -0.6151 C   0  0  0  0  0  0  0  0  0  0  0  0
    1.2130   -0.5731   -0.3962 C   0  0  1  0  0  0  0  0  0  0  0  0
    2.6550   -0.4387   -0.8371 C   0  0  0  0  0  0  0  0  0  0  0  0
    2.8507   -0.0459   -2.0388 O   0  0  0  0  0  0  0  0  0  0  0  0
    3.7004   -0.7267    0.0126 O   0  0  0  0  0  0  0  0  0  0  0  0
    1.2382   -0.9666    0.9937 N   0  0  0  0  0  0  0  0  0  0  0  0
   -3.6941   -2.1590    0.8765 H   0  0  0  0  0  0  0  0  0  0  0  0
   -1.7633    0.1311   -1.9818 H   0  0  0  0  0  0  0  0  0  0  0  0
   -2.8858    0.7969   -0.8244 H   0  0  0  0  0  0  0  0  0  0  0  0
   -1.0235    2.0391   -0.7165 H   0  0  0  0  0  0  0  0  0  0  0  0
   -0.4186    2.6052    2.6806 H   0  0  0  0  0  0  0  0  0  0  0  0
    0.7894    1.0206   -1.6947 H   0  0  0  0  0  0  0  0  0  0  0  0
    1.1929    1.4853   -0.0565 H   0  0  0  0  0  0  0  0  0  0  0  0
    0.8557   -1.4102   -1.0375 H   0  0  0  0  0  0  0  0  0  0  0  0
    4.6396   -0.4788   -0.2697 H   0  0  0  0  0  0  0  0  0  0  0  0
    2.1594   -0.6656    1.4062 H   0  0  0  0  0  0  0  0  0  0  0  0
    1.1933   -2.0314    1.0550 H   0  0  0  0  0  0  0  0  0  0  0  0
  1  2  1  0
  2  3  2  0
  2  4  1  0
  4  5  1  0
  5  6  1  0
  6  7  2  0
  6  8  1  0
  5  9  1  0
  9 10  1  0
 10 11  1  0
 11 12  2  0
 11 13  1  0
 10 14  1  0
  1 15  1  0
  4 16  1  0
  4 17  1  0
  5 18  1  6
  8 19  1  0
  9 20  1  0
  9 21  1  0
 10 22  1  6
 13 23  1  0
 14 24  1  0
 14 25  1  0
M  END
>  <Ligand ID>  (1) 
LIG0000575

>  <Ligand>  (1) 
CHEMBL479797

>  <SMILES>  (1) 
OC(=O)C[C@@H](C(=O)O)C[C@@H](C(=O)O)N

>  <CID>  (1) 
24905703.0

>  <ChEMBL ID>  (1) 
nan

>  <InChiKey>  (1) 
QUHCPZVRCOASQB-IMJSIDKUSA-N

>  <InChi>  (1) 
InChI=1S/C7H11NO6/c8-4(7(13)14)1-3(6(11)12)2-5(9)10/h3-4H,1-2,8H2,(H,9,10)(H,11,12)(H,13,14)/t3-,4-/m0/s1

>  <IUPAC Name>  (1) 
(2S,4S)-4-aminobutane-1,2,4-tricarboxylic acid

$$$$
