
     RDKit          3D

 85 85  0  0  0  0  0  0  0  0999 V2000
  -10.8004    0.0596    2.2609 O   0  0  0  0  0  0  0  0  0  0  0  0
   -9.8748    0.5783    1.3662 C   0  0  0  0  0  0  0  0  0  0  0  0
   -8.4622    0.2919    1.7819 C   0  0  0  0  0  0  0  0  0  0  0  0
   -7.7650   -0.6948    1.1236 C   0  0  0  0  0  0  0  0  0  0  0  0
   -6.4499   -1.0280    1.4443 C   0  0  0  0  0  0  0  0  0  0  0  0
   -5.8893   -0.2942    2.4767 C   0  0  0  0  0  0  0  0  0  0  0  0
   -6.5746    0.6991    3.1476 C   0  0  0  0  0  0  0  0  0  0  0  0
   -7.8897    1.0066    2.8006 C   0  0  0  0  0  0  0  0  0  0  0  0
   -8.5651    2.0013    3.4785 O   0  0  0  0  0  0  0  0  0  0  0  0
   -5.6640   -2.0595    0.7841 C   0  0  2  0  0  0  0  0  0  0  0  0
   -4.5686   -1.6494   -0.1422 C   0  0  0  0  0  0  0  0  0  0  0  0
   -4.9245   -1.2179   -1.4472 N   0  0  0  0  0  0  0  0  0  0  0  0
   -5.5016    0.0533   -1.6118 C   0  0  0  0  0  0  0  0  0  0  0  0
   -4.5626    1.2408   -1.4818 C   0  0  0  0  0  0  0  0  0  0  0  0
   -3.5639    1.2878   -2.5812 C   0  0  0  0  0  0  0  0  0  0  0  0
   -2.6042    0.2013   -2.7403 C   0  0  0  0  0  0  0  0  0  0  0  0
   -1.6170    0.0202   -1.6199 C   0  0  0  0  0  0  0  0  0  0  0  0
   -0.8014    1.2714   -1.4508 C   0  0  0  0  0  0  0  0  0  0  0  0
    0.1166    1.1270   -0.4345 O   0  0  0  0  0  0  0  0  0  0  0  0
    1.0326    0.1346   -0.6618 C   0  0  0  0  0  0  0  0  0  0  0  0
    2.0010    0.1066    0.5121 C   0  0  0  0  0  0  0  0  0  0  0  0
    2.6827    1.4208    0.6261 C   0  0  0  0  0  0  0  0  0  0  0  0
    3.5204    1.8129   -0.5347 C   0  0  0  0  0  0  0  0  0  0  0  0
    4.6255    0.8439   -0.7110 C   0  0  0  0  0  0  0  0  0  0  0  0
    4.5804   -0.2567   -1.5249 C   0  0  0  0  0  0  0  0  0  0  0  0
    5.6725   -1.0906   -1.6068 C   0  0  0  0  0  0  0  0  0  0  0  0
    6.8143   -0.8004   -0.8560 C   0  0  0  0  0  0  0  0  0  0  0  0
    6.8957    0.2933   -0.0297 C   0  0  0  0  0  0  0  0  0  0  0  0
    5.7856    1.1082    0.0302 C   0  0  0  0  0  0  0  0  0  0  0  0
    8.0171    0.6430    0.7511 N   0  0  0  0  0  0  0  0  0  0  0  0
    9.2481   -0.0454    0.8019 C   0  0  0  0  0  0  0  0  0  0  0  0
    9.4803   -1.0602    0.1415 O   0  0  0  0  0  0  0  0  0  0  0  0
   10.2908    0.4372    1.6522 N   0  0  0  0  0  0  0  0  0  0  0  0
   11.5443   -0.3116    1.6641 C   0  0  0  0  0  0  0  0  0  0  0  0
   11.3686   -1.7007    2.0910 C   0  0  0  0  0  0  0  0  0  0  0  0
   10.2725   -2.2279    2.4182 O   0  0  0  0  0  0  0  0  0  0  0  0
   12.5171   -2.5389    2.1469 N   0  0  0  0  0  0  0  0  0  0  0  0
   -6.4348   -3.1375    0.3010 O   0  0  0  0  0  0  0  0  0  0  0  0
    0.8287   -0.4748    0.3034 O   0  0  0  0  0  0  0  0  0  0  0  0
   -0.4729   -0.0462   -0.0237 C   0  0  0  0  0  0  0  0  0  0  0  0
   -0.7389    1.1895    0.0540 O   0  0  0  0  0  0  0  0  0  0  0  0
  -11.2879   -0.6992    1.8278 H   0  0  0  0  0  0  0  0  0  0  0  0
  -10.0424    1.6823    1.3132 H   0  0  0  0  0  0  0  0  0  0  0  0
  -10.0438    0.1441    0.3604 H   0  0  0  0  0  0  0  0  0  0  0  0
   -8.2134   -1.2753    0.3039 H   0  0  0  0  0  0  0  0  0  0  0  0
   -4.8838   -0.4866    2.7858 H   0  0  0  0  0  0  0  0  0  0  0  0
   -6.1511    1.2765    3.9510 H   0  0  0  0  0  0  0  0  0  0  0  0
   -9.5447    2.1616    3.2905 H   0  0  0  0  0  0  0  0  0  0  0  0
   -5.1127   -2.5896    1.6705 H   0  0  0  0  0  0  0  0  0  0  0  0
   -3.8156   -2.4578   -0.2407 H   0  0  0  0  0  0  0  0  0  0  0  0
   -3.9864   -0.7955    0.3163 H   0  0  0  0  0  0  0  0  0  0  0  0
   -5.2464   -1.9744   -2.0834 H   0  0  0  0  0  0  0  0  0  0  0  0
   -6.3897    0.3106   -1.0356 H   0  0  0  0  0  0  0  0  0  0  0  0
   -5.8661    0.0843   -2.7021 H   0  0  0  0  0  0  0  0  0  0  0  0
   -4.0975    1.1931   -0.4745 H   0  0  0  0  0  0  0  0  0  0  0  0
   -5.1214    2.1979   -1.4963 H   0  0  0  0  0  0  0  0  0  0  0  0
   -2.9982    2.2590   -2.4955 H   0  0  0  0  0  0  0  0  0  0  0  0
   -4.1649    1.3350   -3.5488 H   0  0  0  0  0  0  0  0  0  0  0  0
   -3.0947   -0.8044   -2.9389 H   0  0  0  0  0  0  0  0  0  0  0  0
   -1.9649    0.4359   -3.6492 H   0  0  0  0  0  0  0  0  0  0  0  0
   -0.9316   -0.8474   -1.9000 H   0  0  0  0  0  0  0  0  0  0  0  0
   -2.0628   -0.2893   -0.6700 H   0  0  0  0  0  0  0  0  0  0  0  0
   -1.5150    2.0910   -1.1748 H   0  0  0  0  0  0  0  0  0  0  0  0
   -0.3076    1.5672   -2.4102 H   0  0  0  0  0  0  0  0  0  0  0  0
    0.6033   -0.8997   -0.7021 H   0  0  0  0  0  0  0  0  0  0  0  0
    1.5917    0.2856   -1.6010 H   0  0  0  0  0  0  0  0  0  0  0  0
    2.7038   -0.7500    0.4008 H   0  0  0  0  0  0  0  0  0  0  0  0
    1.4297   -0.1046    1.4373 H   0  0  0  0  0  0  0  0  0  0  0  0
    1.9018    2.2009    0.7777 H   0  0  0  0  0  0  0  0  0  0  0  0
    3.3555    1.4749    1.5329 H   0  0  0  0  0  0  0  0  0  0  0  0
    2.9204    1.8152   -1.4729 H   0  0  0  0  0  0  0  0  0  0  0  0
    3.9380    2.8369   -0.3327 H   0  0  0  0  0  0  0  0  0  0  0  0
    3.7275   -0.4913   -2.1045 H   0  0  0  0  0  0  0  0  0  0  0  0
    5.6267   -1.9501   -2.2478 H   0  0  0  0  0  0  0  0  0  0  0  0
    7.6226   -1.4825   -0.9619 H   0  0  0  0  0  0  0  0  0  0  0  0
    5.8053    1.9906    0.6748 H   0  0  0  0  0  0  0  0  0  0  0  0
    7.9559    1.5052    1.3718 H   0  0  0  0  0  0  0  0  0  0  0  0
   10.1637    1.2898    2.2417 H   0  0  0  0  0  0  0  0  0  0  0  0
   11.8961   -0.3325    0.6010 H   0  0  0  0  0  0  0  0  0  0  0  0
   12.3062    0.2391    2.2521 H   0  0  0  0  0  0  0  0  0  0  0  0
   12.4609   -3.5840    2.2589 H   0  0  0  0  0  0  0  0  0  0  0  0
   13.4898   -2.1578    2.0787 H   0  0  0  0  0  0  0  0  0  0  0  0
   -6.6091   -2.9305   -0.6440 H   0  0  0  0  0  0  0  0  0  0  0  0
    1.6081    0.0906   -0.0001 H   0  0  0  0  0  0  0  0  0  0  0  0
   -1.2250   -0.7591   -0.3336 H   0  0  0  0  0  0  0  0  0  0  0  0
  1  2  1  0
  2  3  1  0
  3  4  2  0
  4  5  1  0
  5  6  2  0
  6  7  1  0
  7  8  2  0
  8  9  1  0
  5 10  1  0
 10 11  1  0
 11 12  1  0
 12 13  1  0
 13 14  1  0
 14 15  1  0
 15 16  1  0
 16 17  1  0
 17 18  1  0
 18 19  1  0
 19 20  1  0
 20 21  1  0
 21 22  1  0
 22 23  1  0
 23 24  1  0
 24 25  2  0
 25 26  1  0
 26 27  2  0
 27 28  1  0
 28 29  2  0
 28 30  1  0
 30 31  1  0
 31 32  2  0
 31 33  1  0
 33 34  1  0
 34 35  1  0
 35 36  2  0
 35 37  1  0
 10 38  1  0
 39 40  1  0
 40 41  2  0
  8  3  1  0
 29 24  1  0
  1 42  1  0
  2 43  1  0
  2 44  1  0
  4 45  1  0
  6 46  1  0
  7 47  1  0
  9 48  1  0
 10 49  1  1
 11 50  1  0
 11 51  1  0
 12 52  1  0
 13 53  1  0
 13 54  1  0
 14 55  1  0
 14 56  1  0
 15 57  1  0
 15 58  1  0
 16 59  1  0
 16 60  1  0
 17 61  1  0
 17 62  1  0
 18 63  1  0
 18 64  1  0
 20 65  1  0
 20 66  1  0
 21 67  1  0
 21 68  1  0
 22 69  1  0
 22 70  1  0
 23 71  1  0
 23 72  1  0
 25 73  1  0
 26 74  1  0
 27 75  1  0
 29 76  1  0
 30 77  1  0
 33 78  1  0
 34 79  1  0
 34 80  1  0
 37 81  1  0
 37 82  1  0
 38 83  1  0
 39 84  1  0
 40 85  1  0
M  END
>  <Ligand ID>  (1) 
LIG0001231

>  <Ligand>  (1) 
CHEMBL1835859

>  <SMILES>  (1) 
OCc1cc(ccc1O)[C@H](CNCCCCCCOCCCCc1cccc(c1)NC(=O)NCC(=O)N)O.OC=O

>  <CID>  (1) 
56672270.0

>  <ChEMBL ID>  (1) 
nan

>  <InChiKey>  (1) 
SDGUOTUXLDFRSG-SNYZSRNZSA-N

>  <InChi>  (1) 
InChI=1S/C28H42N4O6.CH2O2/c29-27(36)19-31-28(37)32-24-10-7-9-21(16-24)8-3-6-15-38-14-5-2-1-4-13-30-18-26(35)22-11-12-25(34)23(17-22)20-33;2-1-3/h7,9-12,16-17,26,30,33-35H,1-6,8,13-15,18-20H2,(H2,29,36)(H2,31,32,37);1H,(H,2,3)/t26-;/m0./s1

>  <IUPAC Name>  (1) 
formic acid;2-[[3-[4-[6-[[(2R)-2-hydroxy-2-[4-hydroxy-3-(hydroxymethyl)phenyl]ethyl]amino]hexoxy]butyl]phenyl]carbamoylamino]acetamide

$$$$
