
     RDKit          3D

 31 31  0  0  0  0  0  0  0  0999 V2000
    3.6007   -0.0144   -0.3772 C   0  0  0  0  0  0  0  0  0  0  0  0
    2.2098   -0.1097    0.2635 C   0  0  2  0  0  0  0  0  0  0  0  0
    1.4845   -1.2874   -0.3395 C   0  0  0  0  0  0  0  0  0  0  0  0
    0.1295   -1.3121    0.3434 C   0  0  0  0  0  0  0  0  0  0  0  0
   -0.6403   -0.1563   -0.2646 C   0  0  2  0  0  0  0  0  0  0  0  0
    0.0626    1.1393   -0.2241 C   0  0  1  0  0  0  0  0  0  0  0  0
    1.4823    1.1780    0.1558 C   0  0  0  0  0  0  0  0  0  0  0  0
   -0.1651    1.7951   -1.4585 O   0  0  0  0  0  0  0  0  0  0  0  0
   -2.0171   -0.1269    0.3604 C   0  0  0  0  0  0  0  0  0  0  0  0
   -2.7297   -1.4292    0.0792 C   0  0  0  0  0  0  0  0  0  0  0  0
   -2.8601    1.0040   -0.1099 C   0  0  0  0  0  0  0  0  0  0  0  0
    3.6494    0.9816   -0.9043 H   0  0  0  0  0  0  0  0  0  0  0  0
    3.7282   -0.8054   -1.1454 H   0  0  0  0  0  0  0  0  0  0  0  0
    4.4073   -0.0176    0.3568 H   0  0  0  0  0  0  0  0  0  0  0  0
    2.4015   -0.3839    1.3324 H   0  0  0  0  0  0  0  0  0  0  0  0
    1.3945   -1.2394   -1.4429 H   0  0  0  0  0  0  0  0  0  0  0  0
    2.0086   -2.2127   -0.0251 H   0  0  0  0  0  0  0  0  0  0  0  0
   -0.4215   -2.2457    0.1407 H   0  0  0  0  0  0  0  0  0  0  0  0
    0.2429   -1.0843    1.4047 H   0  0  0  0  0  0  0  0  0  0  0  0
   -0.8216   -0.4759   -1.3288 H   0  0  0  0  0  0  0  0  0  0  0  0
   -0.5222    1.7816    0.4995 H   0  0  0  0  0  0  0  0  0  0  0  0
    2.0329    1.8202   -0.5771 H   0  0  0  0  0  0  0  0  0  0  0  0
    1.6438    1.7339    1.1267 H   0  0  0  0  0  0  0  0  0  0  0  0
   -0.1390    2.7738   -1.3223 H   0  0  0  0  0  0  0  0  0  0  0  0
   -1.8433   -0.0946    1.4699 H   0  0  0  0  0  0  0  0  0  0  0  0
   -2.6486   -1.6210   -1.0169 H   0  0  0  0  0  0  0  0  0  0  0  0
   -2.3810   -2.2493    0.7149 H   0  0  0  0  0  0  0  0  0  0  0  0
   -3.8348   -1.2698    0.2446 H   0  0  0  0  0  0  0  0  0  0  0  0
   -2.4481    1.6340   -0.8960 H   0  0  0  0  0  0  0  0  0  0  0  0
   -3.8648    0.6645   -0.4954 H   0  0  0  0  0  0  0  0  0  0  0  0
   -3.1414    1.6294    0.7833 H   0  0  0  0  0  0  0  0  0  0  0  0
  1  2  1  0
  2  3  1  0
  3  4  1  0
  4  5  1  0
  5  6  1  0
  6  7  1  0
  6  8  1  0
  5  9  1  0
  9 10  1  0
  9 11  1  0
  7  2  1  0
  1 12  1  0
  1 13  1  0
  1 14  1  0
  2 15  1  1
  3 16  1  0
  3 17  1  0
  4 18  1  0
  4 19  1  0
  5 20  1  6
  6 21  1  1
  7 22  1  0
  7 23  1  0
  8 24  1  0
  9 25  1  0
 10 26  1  0
 10 27  1  0
 10 28  1  0
 11 29  1  0
 11 30  1  0
 11 31  1  0
M  END
>  <Ligand ID>  (1) 
LIG0000034

>  <Ligand>  (1) 
(-)-menthol

>  <SMILES>  (1) 
C[C@@H]1CC[C@H]([C@@H](C1)O)C(C)C

>  <CID>  (1) 
16666.0

>  <ChEMBL ID>  (1) 
nan

>  <InChiKey>  (1) 
NOOLISFMXDJSKH-KXUCPTDWSA-N

>  <InChi>  (1) 
InChI=1S/C10H20O/c1-7(2)9-5-4-8(3)6-10(9)11/h7-11H,4-6H2,1-3H3/t8-,9+,10-/m1/s1

>  <IUPAC Name>  (1) 
(1R,2S,5R)-5-methyl-2-propan-2-ylcyclohexan-1-ol

$$$$
