
     RDKit          3D

 93 96  0  0  0  0  0  0  0  0999 V2000
    3.5966    5.2052   -3.5975 N   0  0  0  0  0  0  0  0  0  0  0  0
    2.8545    3.9839   -3.7283 C   0  0  0  0  0  0  0  0  0  0  0  0
    3.4249    2.9059   -3.2881 N   0  0  0  0  0  0  0  0  0  0  0  0
    2.6818    1.6579   -3.4147 C   0  0  0  0  0  0  0  0  0  0  0  0
    2.1138    1.2536   -2.0701 C   0  0  0  0  0  0  0  0  0  0  0  0
    1.3588   -0.0416   -2.2638 C   0  0  0  0  0  0  0  0  0  0  0  0
    0.7560   -0.5102   -0.9263 C   0  0  1  0  0  0  0  0  0  0  0  0
    1.8073   -0.7321    0.0740 C   0  0  0  0  0  0  0  0  0  0  0  0
    1.9471   -0.0413    1.1235 O   0  0  0  0  0  0  0  0  0  0  0  0
    2.7289   -1.7796   -0.1341 N   0  0  0  0  0  0  0  0  0  0  0  0
    3.8126   -2.0971    0.7765 C   0  0  0  0  0  0  0  0  0  0  0  0
    3.5941   -3.4321    1.4074 C   0  0  0  0  0  0  0  0  0  0  0  0
    2.5821   -4.1461    1.1502 O   0  0  0  0  0  0  0  0  0  0  0  0
    4.5684   -3.9124    2.3339 N   0  0  0  0  0  0  0  0  0  0  0  0
    5.0854   -2.0889   -0.0394 C   0  0  0  0  0  0  0  0  0  0  0  0
    6.2957   -2.3931    0.7320 C   0  0  0  0  0  0  0  0  0  0  0  0
    6.9426   -3.6157    0.6968 C   0  0  0  0  0  0  0  0  0  0  0  0
    7.9940   -3.5140    1.5263 N   0  0  0  0  0  0  0  0  0  0  0  0
    8.0376   -2.2777    2.0837 C   0  0  0  0  0  0  0  0  0  0  0  0
    6.9606   -1.5432    1.5899 C   0  0  0  0  0  0  0  0  0  0  0  0
    6.7694   -0.2302    2.0032 C   0  0  0  0  0  0  0  0  0  0  0  0
    7.6616    0.3189    2.9029 C   0  0  0  0  0  0  0  0  0  0  0  0
    8.7345   -0.4043    3.3985 C   0  0  0  0  0  0  0  0  0  0  0  0
    8.9269   -1.7227    2.9837 C   0  0  0  0  0  0  0  0  0  0  0  0
   -0.1575    0.5792   -0.5594 N   0  0  0  0  0  0  0  0  0  0  0  0
   -1.5409    0.2922   -0.6880 C   0  0  0  0  0  0  0  0  0  0  0  0
   -1.9576   -0.8418   -1.0978 O   0  0  0  0  0  0  0  0  0  0  0  0
   -2.6170    1.2769   -0.3613 C   0  0  1  0  0  0  0  0  0  0  0  0
   -3.8743    0.5992   -0.6650 N   0  0  0  0  0  0  0  0  0  0  0  0
   -4.7291    1.0137   -1.7272 C   0  0  0  0  0  0  0  0  0  0  0  0
   -4.4752    1.9895   -2.4800 O   0  0  0  0  0  0  0  0  0  0  0  0
   -5.9766    0.2352   -1.9373 C   0  0  2  0  0  0  0  0  0  0  0  0
   -7.1799    1.0776   -2.0491 C   0  0  0  0  0  0  0  0  0  0  0  0
   -7.5184    1.9323   -0.9146 C   0  0  0  0  0  0  0  0  0  0  0  0
   -6.9529    2.1409    0.2729 N   0  0  0  0  0  0  0  0  0  0  0  0
   -7.6331    3.0345    1.0084 C   0  0  0  0  0  0  0  0  0  0  0  0
   -8.6730    3.4079    0.2559 N   0  0  0  0  0  0  0  0  0  0  0  0
   -8.6464    2.7664   -0.9194 C   0  0  0  0  0  0  0  0  0  0  0  0
   -6.1560   -0.8091   -0.9688 N   0  0  0  0  0  0  0  0  0  0  0  0
   -6.1863   -2.1955   -1.3639 C   0  0  0  0  0  0  0  0  0  0  0  0
   -6.0593   -2.5460   -2.5687 O   0  0  0  0  0  0  0  0  0  0  0  0
   -6.3707   -3.2686   -0.3419 C   0  0  0  0  0  0  0  0  0  0  0  0
   -2.5332    1.8483    1.0029 C   0  0  0  0  0  0  0  0  0  0  0  0
   -2.6082    0.9079    2.1185 C   0  0  0  0  0  0  0  0  0  0  0  0
   -1.4532    0.3227    2.6432 C   0  0  0  0  0  0  0  0  0  0  0  0
   -1.4936   -0.5668    3.6958 C   0  0  0  0  0  0  0  0  0  0  0  0
   -2.6873   -0.9225    4.2840 C   0  0  0  0  0  0  0  0  0  0  0  0
   -3.8419   -0.3585    3.7842 C   0  0  0  0  0  0  0  0  0  0  0  0
   -3.7899    0.5319    2.7290 C   0  0  0  0  0  0  0  0  0  0  0  0
    1.5573    3.9725   -4.3150 N   0  0  0  0  0  0  0  0  0  0  0  0
    3.2876    5.8528   -2.8313 H   0  0  0  0  0  0  0  0  0  0  0  0
    4.3966    5.4460   -4.2200 H   0  0  0  0  0  0  0  0  0  0  0  0
    3.3271    0.8389   -3.8216 H   0  0  0  0  0  0  0  0  0  0  0  0
    1.8529    1.7702   -4.1444 H   0  0  0  0  0  0  0  0  0  0  0  0
    1.3850    2.0577   -1.7797 H   0  0  0  0  0  0  0  0  0  0  0  0
    2.9163    1.1738   -1.3401 H   0  0  0  0  0  0  0  0  0  0  0  0
    2.0255   -0.8188   -2.6339 H   0  0  0  0  0  0  0  0  0  0  0  0
    0.5123    0.0840   -2.9624 H   0  0  0  0  0  0  0  0  0  0  0  0
    0.1723   -1.4087   -1.2049 H   0  0  0  0  0  0  0  0  0  0  0  0
    2.6543   -2.3855   -0.9892 H   0  0  0  0  0  0  0  0  0  0  0  0
    3.8397   -1.3381    1.5831 H   0  0  0  0  0  0  0  0  0  0  0  0
    5.0917   -3.2771    2.9821 H   0  0  0  0  0  0  0  0  0  0  0  0
    4.7321   -4.9634    2.3253 H   0  0  0  0  0  0  0  0  0  0  0  0
    4.9144   -2.8006   -0.8776 H   0  0  0  0  0  0  0  0  0  0  0  0
    5.1366   -1.0857   -0.5385 H   0  0  0  0  0  0  0  0  0  0  0  0
    6.6418   -4.4702    0.1090 H   0  0  0  0  0  0  0  0  0  0  0  0
    8.6913   -4.2632    1.7304 H   0  0  0  0  0  0  0  0  0  0  0  0
    5.9230    0.3310    1.6078 H   0  0  0  0  0  0  0  0  0  0  0  0
    7.5515    1.3356    3.2515 H   0  0  0  0  0  0  0  0  0  0  0  0
    9.4490   -0.0079    4.1007 H   0  0  0  0  0  0  0  0  0  0  0  0
    9.7611   -2.3228    3.3534 H   0  0  0  0  0  0  0  0  0  0  0  0
    0.1526    1.4977   -0.2282 H   0  0  0  0  0  0  0  0  0  0  0  0
   -2.5926    2.1367   -1.0875 H   0  0  0  0  0  0  0  0  0  0  0  0
   -4.1380   -0.2094   -0.0770 H   0  0  0  0  0  0  0  0  0  0  0  0
   -5.9120   -0.3240   -2.9333 H   0  0  0  0  0  0  0  0  0  0  0  0
   -8.0410    0.3921   -2.2986 H   0  0  0  0  0  0  0  0  0  0  0  0
   -7.0906    1.7313   -2.9629 H   0  0  0  0  0  0  0  0  0  0  0  0
   -6.0967    1.6786    0.5976 H   0  0  0  0  0  0  0  0  0  0  0  0
   -7.3722    3.3735    2.0162 H   0  0  0  0  0  0  0  0  0  0  0  0
   -9.3764    2.8838   -1.7205 H   0  0  0  0  0  0  0  0  0  0  0  0
   -6.2724   -0.6401    0.0492 H   0  0  0  0  0  0  0  0  0  0  0  0
   -5.8905   -3.0172    0.6300 H   0  0  0  0  0  0  0  0  0  0  0  0
   -5.8194   -4.1847   -0.7060 H   0  0  0  0  0  0  0  0  0  0  0  0
   -7.4238   -3.5940   -0.2362 H   0  0  0  0  0  0  0  0  0  0  0  0
   -1.5693    2.4305    1.0361 H   0  0  0  0  0  0  0  0  0  0  0  0
   -3.3160    2.6379    1.0955 H   0  0  0  0  0  0  0  0  0  0  0  0
   -0.4982    0.5805    2.2079 H   0  0  0  0  0  0  0  0  0  0  0  0
   -0.5782   -1.0135    4.0908 H   0  0  0  0  0  0  0  0  0  0  0  0
   -2.7780   -1.6113    5.1086 H   0  0  0  0  0  0  0  0  0  0  0  0
   -4.7992   -0.6411    4.2531 H   0  0  0  0  0  0  0  0  0  0  0  0
   -4.7260    0.9343    2.3917 H   0  0  0  0  0  0  0  0  0  0  0  0
    0.7126    3.6868   -3.7546 H   0  0  0  0  0  0  0  0  0  0  0  0
    1.4828    4.2606   -5.3291 H   0  0  0  0  0  0  0  0  0  0  0  0
  1  2  1  0
  2  3  2  3
  3  4  1  0
  4  5  1  0
  5  6  1  0
  6  7  1  0
  7  8  1  0
  8  9  2  0
  8 10  1  0
 10 11  1  0
 11 12  1  0
 12 13  2  0
 12 14  1  0
 11 15  1  0
 15 16  1  0
 16 17  2  0
 17 18  1  0
 18 19  1  0
 19 20  2  0
 20 21  1  0
 21 22  2  0
 22 23  1  0
 23 24  2  0
  7 25  1  0
 25 26  1  0
 26 27  2  0
 26 28  1  0
 28 29  1  0
 29 30  1  0
 30 31  2  0
 30 32  1  0
 32 33  1  0
 33 34  1  0
 34 35  1  0
 35 36  1  0
 36 37  2  0
 37 38  1  0
 32 39  1  0
 39 40  1  0
 40 41  2  0
 40 42  1  0
 28 43  1  0
 43 44  1  0
 44 45  2  0
 45 46  1  0
 46 47  2  0
 47 48  1  0
 48 49  2  0
  2 50  1  0
 20 16  1  0
 38 34  2  0
 49 44  1  0
 24 19  1  0
  1 51  1  0
  1 52  1  0
  4 53  1  0
  4 54  1  0
  5 55  1  0
  5 56  1  0
  6 57  1  0
  6 58  1  0
  7 59  1  6
 10 60  1  0
 11 61  1  0
 14 62  1  0
 14 63  1  0
 15 64  1  0
 15 65  1  0
 17 66  1  0
 18 67  1  0
 21 68  1  0
 22 69  1  0
 23 70  1  0
 24 71  1  0
 25 72  1  0
 28 73  1  6
 29 74  1  0
 32 75  1  6
 33 76  1  0
 33 77  1  0
 35 78  1  0
 36 79  1  0
 38 80  1  0
 39 81  1  0
 42 82  1  0
 42 83  1  0
 42 84  1  0
 43 85  1  0
 43 86  1  0
 45 87  1  0
 46 88  1  0
 47 89  1  0
 48 90  1  0
 49 91  1  0
 50 92  1  0
 50 93  1  0
M  END
>  <Ligand ID>  (1) 
LIG0001417

>  <Ligand>  (1) 
CHEMBL152612

>  <SMILES>  (1) 
NC(=NCCC[C@@H](C(=O)NC(C(=O)N)Cc1c[nH]c2c1cccc2)NC(=O)[C@@H](NC(=O)[C@H](Cc1[nH]cnc1)NC(=O)C)Cc1ccccc1)N

>  <CID>  (1) 
44369234.0

>  <ChEMBL ID>  (1) 
nan

>  <InChiKey>  (1) 
DFCJPPDAOZROBS-YFTKSLQMSA-N

>  <InChi>  (1) 
InChI=1S/C34H43N11O5/c1-20(46)42-29(16-23-18-38-19-41-23)33(50)45-28(14-21-8-3-2-4-9-21)32(49)43-26(12-7-13-39-34(36)37)31(48)44-27(30(35)47)15-22-17-40-25-11-6-5-10-24(22)25/h2-6,8-11,17-19,26-29,40H,7,12-16H2,1H3,(H2,35,47)(H,38,41)(H,42,46)(H,43,49)(H,44,48)(H,45,50)(H4,36,37,39)/t26-,27?,28-,29-/m0/s1

>  <IUPAC Name>  (1) 
(2S)-2-[[(2S)-2-[[(2S)-2-acetamido-3-(1H-imidazol-5-yl)propanoyl]amino]-3-phenylpropanoyl]amino]-N-[1-amino-3-(1H-indol-3-yl)-1-oxopropan-2-yl]-5-(diaminomethylideneamino)pentanamide

$$$$
