
     RDKit          3D

 31 30  0  0  0  0  0  0  0  0999 V2000
    5.7774   -1.1941    0.8704 C   0  0  0  0  0  0  0  0  0  0  0  0
    4.7557   -1.3697    0.0343 C   0  0  0  0  0  0  0  0  0  0  0  0
    4.1693   -0.2346   -0.7155 C   0  0  0  0  0  0  0  0  0  0  0  0
    2.7842   -0.0702   -0.3903 O   0  0  0  0  0  0  0  0  0  0  0  0
    2.3304    0.1891    0.8916 C   0  0  0  0  0  0  0  0  0  0  0  0
    3.1126    0.2980    1.8611 O   0  0  0  0  0  0  0  0  0  0  0  0
    0.8675    0.3467    1.1433 C   0  0  0  0  0  0  0  0  0  0  0  0
    0.1552    0.1927   -0.0531 O   0  0  0  0  0  0  0  0  0  0  0  0
   -1.1944    0.3491    0.2423 C   0  0  0  0  0  0  0  0  0  0  0  0
   -2.0719    0.2032   -0.9813 C   0  0  0  0  0  0  0  0  0  0  0  0
   -3.5193    0.3984   -0.5081 C   0  0  0  0  0  0  0  0  0  0  0  0
   -4.4838    0.2739   -1.6487 C   0  0  0  0  0  0  0  0  0  0  0  0
   -3.7675   -0.6270    0.5776 C   0  0  0  0  0  0  0  0  0  0  0  0
    6.1583   -0.1745    0.9738 H   0  0  0  0  0  0  0  0  0  0  0  0
    6.1976   -2.0162    1.4095 H   0  0  0  0  0  0  0  0  0  0  0  0
    4.3387   -2.3484   -0.1090 H   0  0  0  0  0  0  0  0  0  0  0  0
    4.1777   -0.4521   -1.8109 H   0  0  0  0  0  0  0  0  0  0  0  0
    4.7253    0.6852   -0.4892 H   0  0  0  0  0  0  0  0  0  0  0  0
    0.7406    1.3872    1.5493 H   0  0  0  0  0  0  0  0  0  0  0  0
    0.5106   -0.3349    1.9394 H   0  0  0  0  0  0  0  0  0  0  0  0
   -1.4517   -0.5079    0.9189 H   0  0  0  0  0  0  0  0  0  0  0  0
   -1.3605    1.2709    0.7967 H   0  0  0  0  0  0  0  0  0  0  0  0
   -1.9222   -0.8371   -1.3333 H   0  0  0  0  0  0  0  0  0  0  0  0
   -1.8181    0.8820   -1.7965 H   0  0  0  0  0  0  0  0  0  0  0  0
   -3.6399    1.3980   -0.0455 H   0  0  0  0  0  0  0  0  0  0  0  0
   -5.0308    1.2271   -1.8159 H   0  0  0  0  0  0  0  0  0  0  0  0
   -5.2281   -0.5224   -1.5154 H   0  0  0  0  0  0  0  0  0  0  0  0
   -3.9107    0.1124   -2.6026 H   0  0  0  0  0  0  0  0  0  0  0  0
   -4.8501   -0.8425    0.6944 H   0  0  0  0  0  0  0  0  0  0  0  0
   -3.3751   -0.1984    1.5231 H   0  0  0  0  0  0  0  0  0  0  0  0
   -3.1770   -1.5545    0.3894 H   0  0  0  0  0  0  0  0  0  0  0  0
  1  2  2  0
  2  3  1  0
  3  4  1  0
  4  5  1  0
  5  6  2  0
  5  7  1  0
  7  8  1  0
  8  9  1  0
  9 10  1  0
 10 11  1  0
 11 12  1  0
 11 13  1  0
  1 14  1  0
  1 15  1  0
  2 16  1  0
  3 17  1  0
  3 18  1  0
  7 19  1  0
  7 20  1  0
  9 21  1  0
  9 22  1  0
 10 23  1  0
 10 24  1  0
 11 25  1  0
 12 26  1  0
 12 27  1  0
 12 28  1  0
 13 29  1  0
 13 30  1  0
 13 31  1  0
M  END
>  <Ligand ID>  (1) 
LIG0000395

>  <Ligand>  (1) 
Isoamyl allylglycolate

>  <SMILES>  (1) 
C=CCOC(=O)COCCC(C)C

>  <CID>  (1) 
106729.0

>  <ChEMBL ID>  (1) 
nan

>  <InChiKey>  (1) 
XCWPXUNHSPOFGV-UHFFFAOYSA-N

>  <InChi>  (1) 
InChI=1S/C10H18O3/c1-4-6-13-10(11)8-12-7-5-9(2)3/h4,9H,1,5-8H2,2-3H3

>  <IUPAC Name>  (1) 
prop-2-enyl 2-(3-methylbutoxy)acetate

$$$$
