
     RDKit          3D

 70 73  0  0  0  0  0  0  0  0999 V2000
    2.9582    5.5337   -2.0429 N   0  0  0  0  0  0  0  0  0  0  0  0
    2.3073    4.6016   -1.1894 C   0  0  0  0  0  0  0  0  0  0  0  0
    1.1457    4.1650   -1.4499 O   0  0  0  0  0  0  0  0  0  0  0  0
    3.0423    4.1556    0.0256 C   0  0  0  0  0  0  0  0  0  0  0  0
    2.2766    3.2148    0.8018 N   0  0  0  0  0  0  0  0  0  0  0  0
    1.0767    3.7442    1.4658 C   0  0  0  0  0  0  0  0  0  0  0  0
    0.5563    2.7680    2.4870 C   0  0  0  0  0  0  0  0  0  0  0  0
    0.3164    1.3879    1.8590 C   0  0  2  0  0  0  0  0  0  0  0  0
    1.6734    0.9170    1.4693 C   0  0  0  0  0  0  0  0  0  0  0  0
    2.5890    1.8460    0.9621 C   0  0  0  0  0  0  0  0  0  0  0  0
    3.8404    1.4043    0.6047 C   0  0  0  0  0  0  0  0  0  0  0  0
    4.1669    0.0717    0.7502 C   0  0  0  0  0  0  0  0  0  0  0  0
    3.2749   -0.8556    1.2486 C   0  0  0  0  0  0  0  0  0  0  0  0
    2.0194   -0.4118    1.6072 C   0  0  0  0  0  0  0  0  0  0  0  0
    3.6964   -2.2824    1.3784 C   0  0  0  0  0  0  0  0  0  0  0  0
    3.4041   -3.0457    0.1405 C   0  0  0  0  0  0  0  0  0  0  0  0
    2.2107   -3.7182   -0.0682 C   0  0  0  0  0  0  0  0  0  0  0  0
    2.0383   -4.4011   -1.2609 C   0  0  0  0  0  0  0  0  0  0  0  0
    3.0202   -4.4188   -2.2223 C   0  0  0  0  0  0  0  0  0  0  0  0
    4.2183   -3.7349   -1.9955 C   0  0  0  0  0  0  0  0  0  0  0  0
    4.4114   -3.0536   -0.8256 C   0  0  0  0  0  0  0  0  0  0  0  0
   -0.5337    1.5605    0.7138 N   0  0  0  0  0  0  0  0  0  0  0  0
   -1.8399    0.9745    0.6066 C   0  0  0  0  0  0  0  0  0  0  0  0
   -2.2213    0.2815    1.5876 O   0  0  0  0  0  0  0  0  0  0  0  0
   -2.6904    1.1748   -0.5911 C   0  0  2  0  0  0  0  0  0  0  0  0
   -3.0373   -0.1012   -1.3078 C   0  0  0  0  0  0  0  0  0  0  0  0
   -3.7721   -1.0809   -0.5072 C   0  0  0  0  0  0  0  0  0  0  0  0
   -5.1188   -0.8552   -0.2595 C   0  0  0  0  0  0  0  0  0  0  0  0
   -5.8327    0.3461   -0.7761 C   0  0  0  0  0  0  0  0  0  0  0  0
   -5.8809   -1.7502    0.4942 C   0  0  0  0  0  0  0  0  0  0  0  0
   -5.2956   -2.8875    1.0099 C   0  0  0  0  0  0  0  0  0  0  0  0
   -3.9588   -3.0977    0.7557 C   0  0  0  0  0  0  0  0  0  0  0  0
   -3.1783   -2.2326    0.0146 C   0  0  0  0  0  0  0  0  0  0  0  0
   -1.7435   -2.5047   -0.2354 C   0  0  0  0  0  0  0  0  0  0  0  0
   -6.0084   -3.8147    1.7690 O   0  0  0  0  0  0  0  0  0  0  0  0
   -1.9431    2.0094   -1.5200 N   0  0  0  0  0  0  0  0  0  0  0  0
    3.0105    5.3743   -3.0802 H   0  0  0  0  0  0  0  0  0  0  0  0
    3.3824    6.3864   -1.5835 H   0  0  0  0  0  0  0  0  0  0  0  0
    3.1145    5.0805    0.6658 H   0  0  0  0  0  0  0  0  0  0  0  0
    4.0620    3.8664   -0.2040 H   0  0  0  0  0  0  0  0  0  0  0  0
    0.3278    4.0942    0.7552 H   0  0  0  0  0  0  0  0  0  0  0  0
    1.4617    4.6252    2.0449 H   0  0  0  0  0  0  0  0  0  0  0  0
    1.3931    2.6186    3.2269 H   0  0  0  0  0  0  0  0  0  0  0  0
   -0.3285    3.1814    2.9649 H   0  0  0  0  0  0  0  0  0  0  0  0
   -0.1313    0.7541    2.6426 H   0  0  0  0  0  0  0  0  0  0  0  0
    4.6056    2.0503    0.2065 H   0  0  0  0  0  0  0  0  0  0  0  0
    5.1457   -0.2768    0.4709 H   0  0  0  0  0  0  0  0  0  0  0  0
    1.3090   -1.1522    2.0047 H   0  0  0  0  0  0  0  0  0  0  0  0
    3.1204   -2.7997    2.1915 H   0  0  0  0  0  0  0  0  0  0  0  0
    4.7615   -2.4080    1.6144 H   0  0  0  0  0  0  0  0  0  0  0  0
    1.4424   -3.6982    0.6959 H   0  0  0  0  0  0  0  0  0  0  0  0
    1.0969   -4.9322   -1.4268 H   0  0  0  0  0  0  0  0  0  0  0  0
    2.8788   -4.9555   -3.1537 H   0  0  0  0  0  0  0  0  0  0  0  0
    4.9717   -3.7803   -2.7958 H   0  0  0  0  0  0  0  0  0  0  0  0
    5.3589   -2.5175   -0.6558 H   0  0  0  0  0  0  0  0  0  0  0  0
   -0.1727    2.1422   -0.0712 H   0  0  0  0  0  0  0  0  0  0  0  0
   -3.6070    1.6843   -0.2330 H   0  0  0  0  0  0  0  0  0  0  0  0
   -2.0564   -0.5534   -1.6417 H   0  0  0  0  0  0  0  0  0  0  0  0
   -3.5726    0.0958   -2.2571 H   0  0  0  0  0  0  0  0  0  0  0  0
   -5.4307    0.7368   -1.7135 H   0  0  0  0  0  0  0  0  0  0  0  0
   -5.9771    1.1231    0.0095 H   0  0  0  0  0  0  0  0  0  0  0  0
   -6.8871    0.0288   -1.0263 H   0  0  0  0  0  0  0  0  0  0  0  0
   -6.9464   -1.5531    0.6790 H   0  0  0  0  0  0  0  0  0  0  0  0
   -3.5205   -4.0144    1.1815 H   0  0  0  0  0  0  0  0  0  0  0  0
   -1.5680   -2.5112   -1.3487 H   0  0  0  0  0  0  0  0  0  0  0  0
   -1.0510   -1.8215    0.2670 H   0  0  0  0  0  0  0  0  0  0  0  0
   -1.5411   -3.5786    0.0514 H   0  0  0  0  0  0  0  0  0  0  0  0
   -6.9815   -3.6967    1.9839 H   0  0  0  0  0  0  0  0  0  0  0  0
   -1.0699    1.5291   -1.7970 H   0  0  0  0  0  0  0  0  0  0  0  0
   -1.7890    2.9681   -1.1062 H   0  0  0  0  0  0  0  0  0  0  0  0
  1  2  1  0
  2  3  2  0
  2  4  1  0
  4  5  1  0
  5  6  1  0
  6  7  1  0
  7  8  1  0
  8  9  1  0
  9 10  2  0
 10 11  1  0
 11 12  2  0
 12 13  1  0
 13 14  2  0
 13 15  1  0
 15 16  1  0
 16 17  2  0
 17 18  1  0
 18 19  2  0
 19 20  1  0
 20 21  2  0
  8 22  1  0
 22 23  1  0
 23 24  2  0
 23 25  1  0
 25 26  1  0
 26 27  1  0
 27 28  2  0
 28 29  1  0
 28 30  1  0
 30 31  2  0
 31 32  1  0
 32 33  2  0
 33 34  1  0
 31 35  1  0
 25 36  1  0
 10  5  1  0
 21 16  1  0
 33 27  1  0
 14  9  1  0
  1 37  1  0
  1 38  1  0
  4 39  1  0
  4 40  1  0
  6 41  1  0
  6 42  1  0
  7 43  1  0
  7 44  1  0
  8 45  1  1
 11 46  1  0
 12 47  1  0
 14 48  1  0
 15 49  1  0
 15 50  1  0
 17 51  1  0
 18 52  1  0
 19 53  1  0
 20 54  1  0
 21 55  1  0
 22 56  1  0
 25 57  1  1
 26 58  1  0
 26 59  1  0
 29 60  1  0
 29 61  1  0
 29 62  1  0
 30 63  1  0
 32 64  1  0
 34 65  1  0
 34 66  1  0
 34 67  1  0
 35 68  1  0
 36 69  1  0
 36 70  1  0
M  END
>  <Ligand ID>  (1) 
LIG0003759

>  <Ligand>  (1) 
CHEMBL3824309

>  <SMILES>  (1) 
NC(=O)CN1CC[C@H](c2c1ccc(c2)Cc1ccccc1)NC(=O)[C@H](Cc1c(C)cc(cc1C)O)N

>  <CID>  (1) 
127050830.0

>  <ChEMBL ID>  (1) 
nan

>  <InChiKey>  (1) 
QSXPAJKEBYTBFG-IZZNHLLZSA-N

>  <InChi>  (1) 
InChI=1S/C29H34N4O3/c1-18-12-22(34)13-19(2)23(18)16-25(30)29(36)32-26-10-11-33(17-28(31)35)27-9-8-21(15-24(26)27)14-20-6-4-3-5-7-20/h3-9,12-13,15,25-26,34H,10-11,14,16-17,30H2,1-2H3,(H2,31,35)(H,32,36)/t25-,26+/m0/s1

>  <IUPAC Name>  (1) 
(2S)-2-amino-N-[(4R)-1-(2-amino-2-oxoethyl)-6-benzyl-3,4-dihydro-2H-quinolin-4-yl]-3-(4-hydroxy-2,6-dimethylphenyl)propanamide

$$$$
