
     RDKit          3D

 19 18  0  0  0  0  0  0  0  0999 V2000
   -1.7303   -0.8071   -0.3705 C   0  0  0  0  0  0  0  0  0  0  0  0
   -1.0780   -0.0596    0.7608 C   0  0  0  0  0  0  0  0  0  0  0  0
   -1.8263    1.2366    0.9906 C   0  0  0  0  0  0  0  0  0  0  0  0
   -2.8023    1.5042    0.2809 O   0  0  0  0  0  0  0  0  0  0  0  0
    0.2978    0.4539    0.3381 C   0  0  0  0  0  0  0  0  0  0  0  0
    1.2215   -0.6722   -0.0616 C   0  0  0  0  0  0  0  0  0  0  0  0
    2.5486   -0.0265   -0.4574 C   0  0  0  0  0  0  0  0  0  0  0  0
   -1.5136   -1.8787   -0.3011 H   0  0  0  0  0  0  0  0  0  0  0  0
   -1.3471   -0.3585   -1.3304 H   0  0  0  0  0  0  0  0  0  0  0  0
   -2.8373   -0.6665   -0.3753 H   0  0  0  0  0  0  0  0  0  0  0  0
   -1.0283   -0.6289    1.6993 H   0  0  0  0  0  0  0  0  0  0  0  0
   -1.4832    1.9028    1.7793 H   0  0  0  0  0  0  0  0  0  0  0  0
    0.1247    1.0736   -0.5685 H   0  0  0  0  0  0  0  0  0  0  0  0
    0.7076    1.0823    1.1313 H   0  0  0  0  0  0  0  0  0  0  0  0
    1.3943   -1.4126    0.7219 H   0  0  0  0  0  0  0  0  0  0  0  0
    0.8488   -1.1527   -0.9848 H   0  0  0  0  0  0  0  0  0  0  0  0
    3.1816    0.1589    0.4053 H   0  0  0  0  0  0  0  0  0  0  0  0
    3.0423   -0.6826   -1.2107 H   0  0  0  0  0  0  0  0  0  0  0  0
    2.2791    0.9336   -0.9682 H   0  0  0  0  0  0  0  0  0  0  0  0
  1  2  1  0
  2  3  1  0
  3  4  2  0
  2  5  1  0
  5  6  1  0
  6  7  1  0
  1  8  1  0
  1  9  1  0
  1 10  1  0
  2 11  1  0
  3 12  1  0
  5 13  1  0
  5 14  1  0
  6 15  1  0
  6 16  1  0
  7 17  1  0
  7 18  1  0
  7 19  1  0
M  END
>  <Ligand ID>  (1) 
LIG0000367

>  <Ligand>  (1) 
2-Methylpentaldehyde

>  <SMILES>  (1) 
CC(C=O)CCC

>  <CID>  (1) 
31245.0

>  <ChEMBL ID>  (1) 
nan

>  <InChiKey>  (1) 
FTZILAQGHINQQR-UHFFFAOYSA-N

>  <InChi>  (1) 
InChI=1S/C6H12O/c1-3-4-6(2)5-7/h5-6H,3-4H2,1-2H3

>  <IUPAC Name>  (1) 
2-methylpentanal

$$$$
