
     RDKit          3D

 48 51  0  0  0  0  0  0  0  0999 V2000
   -2.0649    2.2111    2.2252 C   0  0  0  0  0  0  0  0  0  0  0  0
   -1.7950    1.2329    1.1288 C   0  0  0  0  0  0  0  0  0  0  0  0
   -0.6280    0.6783    0.8295 N   0  0  0  0  0  0  0  0  0  0  0  0
   -0.6798   -0.1535   -0.1922 N   0  0  0  0  0  0  0  0  0  0  0  0
   -1.9900   -0.1309   -0.5813 C   0  0  0  0  0  0  0  0  0  0  0  0
   -2.7031    0.7247    0.2259 C   0  0  0  0  0  0  0  0  0  0  0  0
   -4.1185    0.7942   -0.1407 C   0  0  1  0  0  0  0  0  0  0  0  0
   -4.2013    0.0316   -1.4087 C   0  0  1  0  0  0  0  0  0  0  0  0
   -2.9296   -0.7236   -1.5961 C   0  0  0  0  0  0  0  0  0  0  0  0
   -5.0048   -0.3732   -0.1818 C   0  0  0  0  0  0  0  0  0  0  0  0
   -4.6331   -1.6800    0.4652 C   0  0  0  0  0  0  0  0  0  0  0  0
   -6.4743   -0.1528   -0.3197 C   0  0  0  0  0  0  0  0  0  0  0  0
    0.3456   -0.9269   -0.8009 C   0  0  0  0  0  0  0  0  0  0  0  0
    0.0049   -1.6621   -1.7978 O   0  0  0  0  0  0  0  0  0  0  0  0
    1.7271   -0.9482   -0.3875 C   0  0  0  0  0  0  0  0  0  0  0  0
    2.2687   -0.2796    0.5927 C   0  0  0  0  0  0  0  0  0  0  0  0
    3.6833   -0.3049    1.0123 C   0  0  0  0  0  0  0  0  0  0  0  0
    4.4518   -1.2974    0.1964 C   0  0  0  0  0  0  0  0  0  0  0  0
    4.8604   -0.5899   -1.0831 C   0  0  0  0  0  0  0  0  0  0  0  0
    6.0276    0.3252   -0.7354 C   0  0  0  0  0  0  0  0  0  0  0  0
    5.7011    1.0864    0.5065 C   0  0  0  0  0  0  0  0  0  0  0  0
    4.2593    1.0913    0.8941 C   0  0  0  0  0  0  0  0  0  0  0  0
   -1.9305    1.7834    3.2190 H   0  0  0  0  0  0  0  0  0  0  0  0
   -1.3344    3.0578    2.1415 H   0  0  0  0  0  0  0  0  0  0  0  0
   -3.0648    2.6798    2.0646 H   0  0  0  0  0  0  0  0  0  0  0  0
   -4.6353    1.7973   -0.1204 H   0  0  0  0  0  0  0  0  0  0  0  0
   -4.7305    0.4995   -2.2596 H   0  0  0  0  0  0  0  0  0  0  0  0
   -2.5417   -0.5814   -2.6257 H   0  0  0  0  0  0  0  0  0  0  0  0
   -3.0788   -1.7918   -1.3414 H   0  0  0  0  0  0  0  0  0  0  0  0
   -3.5816   -1.7022    0.8188 H   0  0  0  0  0  0  0  0  0  0  0  0
   -4.7501   -2.4747   -0.3032 H   0  0  0  0  0  0  0  0  0  0  0  0
   -5.3024   -1.9097    1.2939 H   0  0  0  0  0  0  0  0  0  0  0  0
   -6.9817   -1.0811   -0.7080 H   0  0  0  0  0  0  0  0  0  0  0  0
   -6.7249    0.6543   -1.0402 H   0  0  0  0  0  0  0  0  0  0  0  0
   -6.9611    0.0718    0.6641 H   0  0  0  0  0  0  0  0  0  0  0  0
    2.3981   -1.5986   -0.9632 H   0  0  0  0  0  0  0  0  0  0  0  0
    1.6149    0.3751    1.1759 H   0  0  0  0  0  0  0  0  0  0  0  0
    3.6795   -0.6074    2.0846 H   0  0  0  0  0  0  0  0  0  0  0  0
    5.4320   -1.4461    0.7528 H   0  0  0  0  0  0  0  0  0  0  0  0
    3.9590   -2.2640    0.0393 H   0  0  0  0  0  0  0  0  0  0  0  0
    4.0289    0.0556   -1.4508 H   0  0  0  0  0  0  0  0  0  0  0  0
    5.1035   -1.2887   -1.8999 H   0  0  0  0  0  0  0  0  0  0  0  0
    6.2400    0.9928   -1.6026 H   0  0  0  0  0  0  0  0  0  0  0  0
    6.9020   -0.3392   -0.5979 H   0  0  0  0  0  0  0  0  0  0  0  0
    5.9806    2.1595    0.3198 H   0  0  0  0  0  0  0  0  0  0  0  0
    6.3504    0.7677    1.3426 H   0  0  0  0  0  0  0  0  0  0  0  0
    4.1808    1.5708    1.8898 H   0  0  0  0  0  0  0  0  0  0  0  0
    3.6406    1.6668    0.1985 H   0  0  0  0  0  0  0  0  0  0  0  0
  1  2  1  0
  2  3  2  0
  3  4  1  0
  4  5  1  0
  5  6  2  0
  6  7  1  0
  7  8  1  0
  8  9  1  0
  8 10  1  0
 10 11  1  0
 10 12  1  0
  4 13  1  0
 13 14  2  0
 13 15  1  0
 15 16  2  0
 16 17  1  0
 17 18  1  0
 18 19  1  0
 19 20  1  0
 20 21  1  0
 21 22  1  0
  6  2  1  0
 10  7  1  0
 22 17  1  0
  9  5  1  0
  1 23  1  0
  1 24  1  0
  1 25  1  0
  7 26  1  6
  8 27  1  6
  9 28  1  0
  9 29  1  0
 11 30  1  0
 11 31  1  0
 11 32  1  0
 12 33  1  0
 12 34  1  0
 12 35  1  0
 15 36  1  0
 16 37  1  0
 17 38  1  0
 18 39  1  0
 18 40  1  0
 19 41  1  0
 19 42  1  0
 20 43  1  0
 20 44  1  0
 21 45  1  0
 21 46  1  0
 22 47  1  0
 22 48  1  0
M  END
>  <Ligand ID>  (1) 
LIG0003973

>  <Ligand>  (1) 
CHEMBL607829

>  <SMILES>  (1) 
Cc1nn(c2c1[C@H]1[C@@H](C2)C1(C)C)C(=O)/C=C/C1CCCCC1

>  <CID>  (1) 
46225285.0

>  <ChEMBL ID>  (1) 
nan

>  <InChiKey>  (1) 
UOYDCILPIGSOCH-YTOTVDJJSA-N

>  <InChi>  (1) 
InChI=1S/C19H26N2O/c1-12-17-15(11-14-18(17)19(14,2)3)21(20-12)16(22)10-9-13-7-5-4-6-8-13/h9-10,13-14,18H,4-8,11H2,1-3H3/b10-9+/t14-,18-/m1/s1

>  <IUPAC Name>  (1) 
(E)-3-cyclohexyl-1-[(2S,4R)-3,3,9-trimethyl-7,8-diazatricyclo[4.3.0.02,4]nona-1(6),8-dien-7-yl]prop-2-en-1-one

$$$$
