
     RDKit          3D

 33 33  0  0  0  0  0  0  0  0999 V2000
    5.9600    0.0309   -0.6326 C   0  0  0  0  0  0  0  0  0  0  0  0
    4.9613    0.6588    0.2789 C   0  0  0  0  0  0  0  0  0  0  0  0
    3.5591    0.2434   -0.0312 C   0  0  0  0  0  0  0  0  0  0  0  0
    3.3416   -0.5546   -0.9784 O   0  0  0  0  0  0  0  0  0  0  0  0
    2.5308    0.7908    0.7857 N   0  0  0  0  0  0  0  0  0  0  0  0
    1.1621    0.4304    0.5381 C   0  0  0  0  0  0  0  0  0  0  0  0
    0.9387   -0.3705   -0.4118 N   0  0  0  0  0  0  0  0  0  0  0  0
   -0.2992   -0.9025   -0.8881 C   0  0  0  0  0  0  0  0  0  0  0  0
   -1.5336   -0.4094   -0.2076 C   0  0  0  0  0  0  0  0  0  0  0  0
   -2.7966   -1.0378   -0.7935 C   0  0  0  0  0  0  0  0  0  0  0  0
   -4.0096   -0.5290   -0.0973 C   0  0  0  0  0  0  0  0  0  0  0  0
   -4.5953   -1.1019    1.0325 C   0  0  0  0  0  0  0  0  0  0  0  0
   -5.6569   -0.3645    1.3587 N   0  0  0  0  0  0  0  0  0  0  0  0
   -5.7662    0.6622    0.4704 C   0  0  0  0  0  0  0  0  0  0  0  0
   -4.7503    0.5514   -0.4185 N   0  0  0  0  0  0  0  0  0  0  0  0
    0.2013    1.0203    1.3979 N   0  0  0  0  0  0  0  0  0  0  0  0
    6.5942   -0.6938   -0.0830 H   0  0  0  0  0  0  0  0  0  0  0  0
    6.6552    0.8266   -0.9833 H   0  0  0  0  0  0  0  0  0  0  0  0
    5.5076   -0.4229   -1.5446 H   0  0  0  0  0  0  0  0  0  0  0  0
    4.9632    1.7795    0.1651 H   0  0  0  0  0  0  0  0  0  0  0  0
    5.1667    0.3444    1.3229 H   0  0  0  0  0  0  0  0  0  0  0  0
    2.7746    1.4594    1.5706 H   0  0  0  0  0  0  0  0  0  0  0  0
   -0.3318   -0.6807   -1.9972 H   0  0  0  0  0  0  0  0  0  0  0  0
   -0.2250   -2.0222   -0.8620 H   0  0  0  0  0  0  0  0  0  0  0  0
   -1.4864   -0.5593    0.8827 H   0  0  0  0  0  0  0  0  0  0  0  0
   -1.6221    0.6710   -0.4409 H   0  0  0  0  0  0  0  0  0  0  0  0
   -2.8350   -0.8027   -1.8704 H   0  0  0  0  0  0  0  0  0  0  0  0
   -2.6843   -2.1247   -0.7013 H   0  0  0  0  0  0  0  0  0  0  0  0
   -4.2588   -1.9974    1.5706 H   0  0  0  0  0  0  0  0  0  0  0  0
   -6.5501    1.4294    0.4954 H   0  0  0  0  0  0  0  0  0  0  0  0
   -4.5550    1.1924   -1.2315 H   0  0  0  0  0  0  0  0  0  0  0  0
   -0.3473    1.8775    1.1707 H   0  0  0  0  0  0  0  0  0  0  0  0
   -0.0127    0.6054    2.3509 H   0  0  0  0  0  0  0  0  0  0  0  0
  1  2  1  0
  2  3  1  0
  3  4  2  0
  3  5  1  0
  5  6  1  0
  6  7  2  3
  7  8  1  0
  8  9  1  0
  9 10  1  0
 10 11  1  0
 11 12  2  0
 12 13  1  0
 13 14  2  0
 14 15  1  0
  6 16  1  0
 15 11  1  0
  1 17  1  0
  1 18  1  0
  1 19  1  0
  2 20  1  0
  2 21  1  0
  5 22  1  0
  8 23  1  0
  8 24  1  0
  9 25  1  0
  9 26  1  0
 10 27  1  0
 10 28  1  0
 12 29  1  0
 14 30  1  0
 15 31  1  0
 16 32  1  0
 16 33  1  0
M  END
>  <Ligand ID>  (1) 
LIG0000965

>  <Ligand>  (1) 
CHEMBL475621

>  <SMILES>  (1) 
CCC(=O)NC(=NCCCc1cnc[nH]1)N

>  <CID>  (1) 
42625303.0

>  <ChEMBL ID>  (1) 
nan

>  <InChiKey>  (1) 
NDEWHFAPFGGMKU-UHFFFAOYSA-N

>  <InChi>  (1) 
InChI=1S/C10H17N5O/c1-2-9(16)15-10(11)13-5-3-4-8-6-12-7-14-8/h6-7H,2-5H2,1H3,(H,12,14)(H3,11,13,15,16)

>  <IUPAC Name>  (1) 
N-[N'-[3-(1H-imidazol-5-yl)propyl]carbamimidoyl]propanamide

$$$$
