
     RDKit          3D

 56 58  0  0  0  0  0  0  0  0999 V2000
   -7.9190   -1.8704   -3.3267 O   0  0  0  0  0  0  0  0  0  0  0  0
   -7.3184   -1.2007   -2.2628 C   0  0  0  0  0  0  0  0  0  0  0  0
   -6.3778   -0.3717   -2.4558 O   0  0  0  0  0  0  0  0  0  0  0  0
   -7.7961   -1.4725   -0.9017 C   0  0  0  0  0  0  0  0  0  0  0  0
   -6.9808   -0.6201    0.0628 C   0  0  0  0  0  0  0  0  0  0  0  0
   -7.1598    0.7670   -0.2577 N   0  0  0  0  0  0  0  0  0  0  0  0
   -6.4223    1.6714    0.6058 C   0  0  0  0  0  0  0  0  0  0  0  0
   -4.9630    1.4090    0.5253 C   0  0  0  0  0  0  0  0  0  0  0  0
   -4.1346    2.0375   -0.3889 C   0  0  0  0  0  0  0  0  0  0  0  0
   -2.7700    1.7316   -0.3967 C   0  0  0  0  0  0  0  0  0  0  0  0
   -2.2273    0.8282    0.4736 C   0  0  0  0  0  0  0  0  0  0  0  0
   -3.0648    0.2130    1.3752 C   0  0  0  0  0  0  0  0  0  0  0  0
   -4.4224    0.4878    1.4160 C   0  0  0  0  0  0  0  0  0  0  0  0
   -0.8046    0.5118    0.4627 C   0  0  0  0  0  0  0  0  0  0  0  0
   -0.0212    1.0914   -0.3854 N   0  0  0  0  0  0  0  0  0  0  0  0
    1.3231    0.7597   -0.3591 O   0  0  0  0  0  0  0  0  0  0  0  0
    2.2723    1.4223    0.4429 C   0  0  0  0  0  0  0  0  0  0  0  0
    3.5927    0.7657    0.1798 C   0  0  0  0  0  0  0  0  0  0  0  0
    3.9920   -0.3050    0.9396 C   0  0  0  0  0  0  0  0  0  0  0  0
    5.2108   -0.8836    0.6698 C   0  0  0  0  0  0  0  0  0  0  0  0
    6.0580   -0.4361   -0.3356 C   0  0  0  0  0  0  0  0  0  0  0  0
    5.6645    0.6383   -1.1016 C   0  0  0  0  0  0  0  0  0  0  0  0
    4.4387    1.1976   -0.8091 C   0  0  0  0  0  0  0  0  0  0  0  0
    6.4635    1.2249   -2.1737 C   0  0  0  0  0  0  0  0  0  0  0  0
    7.6527    1.7139   -1.6888 F   0  0  0  0  0  0  0  0  0  0  0  0
    6.6229    0.3897   -3.2823 F   0  0  0  0  0  0  0  0  0  0  0  0
    5.7575    2.3206   -2.6957 F   0  0  0  0  0  0  0  0  0  0  0  0
    7.3440   -1.1263   -0.5588 C   0  0  0  0  0  0  0  0  0  0  0  0
    7.8248   -2.1634    0.1591 C   0  0  0  0  0  0  0  0  0  0  0  0
    9.0101   -2.7020   -0.1438 C   0  0  0  0  0  0  0  0  0  0  0  0
    9.6943   -2.1394   -1.2157 C   0  0  0  0  0  0  0  0  0  0  0  0
    8.5531   -0.7987   -1.7684 S   0  0  0  0  0  0  0  0  0  0  0  0
   -0.2517   -0.4737    1.4220 C   0  0  0  0  0  0  0  0  0  0  0  0
   -7.5974   -1.7538   -4.2764 H   0  0  0  0  0  0  0  0  0  0  0  0
   -8.8533   -1.2374   -0.7576 H   0  0  0  0  0  0  0  0  0  0  0  0
   -7.5836   -2.5332   -0.6702 H   0  0  0  0  0  0  0  0  0  0  0  0
   -5.9159   -0.8750   -0.0108 H   0  0  0  0  0  0  0  0  0  0  0  0
   -7.3451   -0.8537    1.0775 H   0  0  0  0  0  0  0  0  0  0  0  0
   -8.1293    1.0724   -0.4073 H   0  0  0  0  0  0  0  0  0  0  0  0
   -6.6443    2.6953    0.2453 H   0  0  0  0  0  0  0  0  0  0  0  0
   -6.7922    1.6009    1.6586 H   0  0  0  0  0  0  0  0  0  0  0  0
   -4.5640    2.7412   -1.0650 H   0  0  0  0  0  0  0  0  0  0  0  0
   -2.1060    2.2194   -1.1116 H   0  0  0  0  0  0  0  0  0  0  0  0
   -2.7099   -0.5126    2.0949 H   0  0  0  0  0  0  0  0  0  0  0  0
   -5.0741    0.0040    2.1232 H   0  0  0  0  0  0  0  0  0  0  0  0
    2.0676    1.3366    1.5233 H   0  0  0  0  0  0  0  0  0  0  0  0
    2.3104    2.5049    0.1860 H   0  0  0  0  0  0  0  0  0  0  0  0
    3.3642   -0.6861    1.7322 H   0  0  0  0  0  0  0  0  0  0  0  0
    5.4708   -1.7335    1.3107 H   0  0  0  0  0  0  0  0  0  0  0  0
    4.0894    2.0513   -1.3942 H   0  0  0  0  0  0  0  0  0  0  0  0
    7.2283   -2.5810    1.0198 H   0  0  0  0  0  0  0  0  0  0  0  0
    9.4759   -3.5508    0.3914 H   0  0  0  0  0  0  0  0  0  0  0  0
   10.6600   -2.3527   -1.6941 H   0  0  0  0  0  0  0  0  0  0  0  0
   -0.8809   -1.3677    1.5611 H   0  0  0  0  0  0  0  0  0  0  0  0
    0.7507   -0.8300    1.0591 H   0  0  0  0  0  0  0  0  0  0  0  0
   -0.0624    0.0238    2.4108 H   0  0  0  0  0  0  0  0  0  0  0  0
  1  2  1  0
  2  3  2  0
  2  4  1  0
  4  5  1  0
  5  6  1  0
  6  7  1  0
  7  8  1  0
  8  9  2  0
  9 10  1  0
 10 11  2  0
 11 12  1  0
 12 13  2  0
 11 14  1  0
 14 15  2  0
 15 16  1  0
 16 17  1  0
 17 18  1  0
 18 19  2  0
 19 20  1  0
 20 21  2  0
 21 22  1  0
 22 23  2  0
 22 24  1  0
 24 25  1  0
 24 26  1  0
 24 27  1  0
 21 28  1  0
 28 29  2  0
 29 30  1  0
 30 31  2  0
 31 32  1  0
 14 33  1  0
 13  8  1  0
 23 18  1  0
 32 28  1  0
  1 34  1  0
  4 35  1  0
  4 36  1  0
  5 37  1  0
  5 38  1  0
  6 39  1  0
  7 40  1  0
  7 41  1  0
  9 42  1  0
 10 43  1  0
 12 44  1  0
 13 45  1  0
 17 46  1  0
 17 47  1  0
 19 48  1  0
 20 49  1  0
 23 50  1  0
 29 51  1  0
 30 52  1  0
 31 53  1  0
 33 54  1  0
 33 55  1  0
 33 56  1  0
M  END
>  <Ligand ID>  (1) 
LIG0005569

>  <Ligand>  (1) 
CHEMBL2336084

>  <SMILES>  (1) 
OC(=O)CCNCc1ccc(cc1)/C(=N/OCc1ccc(c(c1)C(F)(F)F)c1cccs1)/C

>  <CID>  (1) 
44625666.0

>  <ChEMBL ID>  (1) 
nan

>  <InChiKey>  (1) 
WPZOGBHZDWXKSH-MUFRIFMGSA-N

>  <InChi>  (1) 
InChI=1S/C24H23F3N2O3S/c1-16(19-7-4-17(5-8-19)14-28-11-10-23(30)31)29-32-15-18-6-9-20(22-3-2-12-33-22)21(13-18)24(25,26)27/h2-9,12-13,28H,10-11,14-15H2,1H3,(H,30,31)/b29-16+

>  <IUPAC Name>  (1) 
3-[[4-[(E)-C-methyl-N-[[4-thiophen-2-yl-3-(trifluoromethyl)phenyl]methoxy]carbonimidoyl]phenyl]methylamino]propanoic acid

$$$$
