
     RDKit          3D

 99103  0  0  0  0  0  0  0  0999 V2000
   -1.0967    7.5413    3.2457 N   0  0  0  0  0  0  0  0  0  0  0  0
   -2.2579    6.7340    3.0611 C   0  0  0  0  0  0  0  0  0  0  0  0
   -2.5504    6.3039    1.8841 N   0  0  0  0  0  0  0  0  0  0  0  0
   -3.7011    5.4832    1.6027 C   0  0  0  0  0  0  0  0  0  0  0  0
   -3.1797    4.1228    1.1331 C   0  0  0  0  0  0  0  0  0  0  0  0
   -2.3512    3.5497    2.2468 C   0  0  0  0  0  0  0  0  0  0  0  0
   -1.7629    2.2317    1.9471 C   0  0  1  0  0  0  0  0  0  0  0  0
   -2.8810    1.2547    1.6581 C   0  0  0  0  0  0  0  0  0  0  0  0
   -3.9283    1.2935    2.3742 O   0  0  0  0  0  0  0  0  0  0  0  0
   -2.7300    0.3083    0.5910 N   0  0  0  0  0  0  0  0  0  0  0  0
   -3.8215   -0.6474    0.3335 C   0  0  2  0  0  0  0  0  0  0  0  0
   -3.4129   -1.9540    0.8499 C   0  0  0  0  0  0  0  0  0  0  0  0
   -2.2098   -2.1498    1.2045 O   0  0  0  0  0  0  0  0  0  0  0  0
   -4.2803   -3.0779    1.0047 N   0  0  0  0  0  0  0  0  0  0  0  0
   -4.2329   -0.6120   -1.0821 C   0  0  0  0  0  0  0  0  0  0  0  0
   -5.2907   -1.5788   -1.4066 C   0  0  0  0  0  0  0  0  0  0  0  0
   -6.6526   -1.3338   -1.3549 C   0  0  0  0  0  0  0  0  0  0  0  0
   -7.3001   -2.4881   -1.6831 N   0  0  0  0  0  0  0  0  0  0  0  0
   -6.4057   -3.4556   -1.9416 C   0  0  0  0  0  0  0  0  0  0  0  0
   -5.1362   -2.9199   -1.7785 C   0  0  0  0  0  0  0  0  0  0  0  0
   -4.0729   -3.7522   -2.0175 C   0  0  0  0  0  0  0  0  0  0  0  0
   -4.1669   -5.0584   -2.3991 C   0  0  0  0  0  0  0  0  0  0  0  0
   -5.4426   -5.5849   -2.5576 C   0  0  0  0  0  0  0  0  0  0  0  0
   -6.5595   -4.7903   -2.3308 C   0  0  0  0  0  0  0  0  0  0  0  0
   -0.7200    2.1777    0.9793 N   0  0  0  0  0  0  0  0  0  0  0  0
    0.2398    1.1312    0.9682 C   0  0  0  0  0  0  0  0  0  0  0  0
    0.1975    0.1749    1.8196 O   0  0  0  0  0  0  0  0  0  0  0  0
    1.3583    1.0936   -0.0512 C   0  0  2  0  0  0  0  0  0  0  0  0
    1.9729   -0.2246   -0.0272 N   0  0  0  0  0  0  0  0  0  0  0  0
    2.2891   -0.8100   -1.2609 C   0  0  0  0  0  0  0  0  0  0  0  0
    2.0504   -0.0933   -2.3035 O   0  0  0  0  0  0  0  0  0  0  0  0
    2.8516   -2.1367   -1.5261 C   0  0  2  0  0  0  0  0  0  0  0  0
    3.5090   -2.9125   -0.5108 C   0  0  0  0  0  0  0  0  0  0  0  0
    4.7367   -2.3108    0.1379 C   0  0  0  0  0  0  0  0  0  0  0  0
    5.4472   -1.3594   -0.5249 C   0  0  0  0  0  0  0  0  0  0  0  0
    6.8593   -0.9315    0.6353 S   0  0  0  0  0  0  0  0  0  0  0  0
    6.2680   -2.1408    1.8967 C   0  0  0  0  0  0  0  0  0  0  0  0
    5.1539   -2.7027    1.3613 C   0  0  0  0  0  0  0  0  0  0  0  0
    4.5549   -3.6703    2.2044 C   0  0  0  0  0  0  0  0  0  0  0  0
    5.1048   -3.9606    3.4337 C   0  0  0  0  0  0  0  0  0  0  0  0
    6.2411   -3.3530    3.9208 C   0  0  0  0  0  0  0  0  0  0  0  0
    6.8318   -2.4117    3.1111 C   0  0  0  0  0  0  0  0  0  0  0  0
    3.3072   -2.2691   -2.9119 N   0  0  0  0  0  0  0  0  0  0  0  0
    2.5098   -2.8536   -3.9229 C   0  0  0  0  0  0  0  0  0  0  0  0
    1.3473   -3.3161   -3.7384 O   0  0  0  0  0  0  0  0  0  0  0  0
    3.0011   -2.9720   -5.3477 C   0  0  0  0  0  0  0  0  0  0  0  0
    2.2652    2.2216    0.3245 C   0  0  0  0  0  0  0  0  0  0  0  0
    3.4454    2.4303   -0.4963 C   0  0  0  0  0  0  0  0  0  0  0  0
    4.6668    1.8825   -0.1501 C   0  0  0  0  0  0  0  0  0  0  0  0
    5.7511    2.1070   -0.9554 C   0  0  0  0  0  0  0  0  0  0  0  0
    5.7088    2.8612   -2.1197 C   0  0  0  0  0  0  0  0  0  0  0  0
    4.4864    3.3991   -2.4512 C   0  0  0  0  0  0  0  0  0  0  0  0
    3.3464    3.2013   -1.6628 C   0  0  0  0  0  0  0  0  0  0  0  0
   -3.0635    6.4332    4.2181 N   0  0  0  0  0  0  0  0  0  0  0  0
   -0.4012    7.6472    2.4559 H   0  0  0  0  0  0  0  0  0  0  0  0
   -0.9016    8.0387    4.1408 H   0  0  0  0  0  0  0  0  0  0  0  0
   -4.3476    5.9130    0.8140 H   0  0  0  0  0  0  0  0  0  0  0  0
   -4.3686    5.3628    2.4982 H   0  0  0  0  0  0  0  0  0  0  0  0
   -2.5436    4.2863    0.2526 H   0  0  0  0  0  0  0  0  0  0  0  0
   -4.0542    3.4613    0.9426 H   0  0  0  0  0  0  0  0  0  0  0  0
   -1.6044    4.3197    2.5413 H   0  0  0  0  0  0  0  0  0  0  0  0
   -3.0365    3.4713    3.1341 H   0  0  0  0  0  0  0  0  0  0  0  0
   -1.3154    1.7920    2.8990 H   0  0  0  0  0  0  0  0  0  0  0  0
   -1.8577    0.2919   -0.0010 H   0  0  0  0  0  0  0  0  0  0  0  0
   -4.6865   -0.2480    0.9609 H   0  0  0  0  0  0  0  0  0  0  0  0
   -5.2869   -2.8477    1.1771 H   0  0  0  0  0  0  0  0  0  0  0  0
   -3.9616   -4.0651    0.9554 H   0  0  0  0  0  0  0  0  0  0  0  0
   -4.5336    0.4207   -1.3897 H   0  0  0  0  0  0  0  0  0  0  0  0
   -3.3690   -0.8889   -1.7709 H   0  0  0  0  0  0  0  0  0  0  0  0
   -7.1709   -0.4143   -1.1060 H   0  0  0  0  0  0  0  0  0  0  0  0
   -8.3473   -2.6138   -1.7309 H   0  0  0  0  0  0  0  0  0  0  0  0
   -3.0787   -3.3204   -1.8889 H   0  0  0  0  0  0  0  0  0  0  0  0
   -3.2683   -5.6660   -2.5717 H   0  0  0  0  0  0  0  0  0  0  0  0
   -5.5287   -6.6243   -2.8589 H   0  0  0  0  0  0  0  0  0  0  0  0
   -7.5381   -5.2431   -2.4653 H   0  0  0  0  0  0  0  0  0  0  0  0
   -0.6625    2.9371    0.2538 H   0  0  0  0  0  0  0  0  0  0  0  0
    0.9062    1.2362   -1.0481 H   0  0  0  0  0  0  0  0  0  0  0  0
    2.1914   -0.7534    0.8348 H   0  0  0  0  0  0  0  0  0  0  0  0
    1.8153   -2.7496   -1.6603 H   0  0  0  0  0  0  0  0  0  0  0  0
    2.7533   -3.1427    0.3121 H   0  0  0  0  0  0  0  0  0  0  0  0
    3.7793   -3.9575   -0.8546 H   0  0  0  0  0  0  0  0  0  0  0  0
    5.3662   -0.8490   -1.4863 H   0  0  0  0  0  0  0  0  0  0  0  0
    3.6695   -4.2057    1.9264 H   0  0  0  0  0  0  0  0  0  0  0  0
    4.6285   -4.6984    4.0527 H   0  0  0  0  0  0  0  0  0  0  0  0
    6.6541   -3.5984    4.8861 H   0  0  0  0  0  0  0  0  0  0  0  0
    7.7144   -1.8777    3.3868 H   0  0  0  0  0  0  0  0  0  0  0  0
    4.2593   -1.9348   -3.2216 H   0  0  0  0  0  0  0  0  0  0  0  0
    2.2775   -2.4957   -6.0318 H   0  0  0  0  0  0  0  0  0  0  0  0
    3.0441   -4.0422   -5.5771 H   0  0  0  0  0  0  0  0  0  0  0  0
    3.9804   -2.4990   -5.4554 H   0  0  0  0  0  0  0  0  0  0  0  0
    2.6260    1.9928    1.3710 H   0  0  0  0  0  0  0  0  0  0  0  0
    1.7000    3.1859    0.4493 H   0  0  0  0  0  0  0  0  0  0  0  0
    4.7164    1.2970    0.7466 H   0  0  0  0  0  0  0  0  0  0  0  0
    6.7378    1.6975   -0.7168 H   0  0  0  0  0  0  0  0  0  0  0  0
    6.6070    2.9952   -2.7110 H   0  0  0  0  0  0  0  0  0  0  0  0
    4.4299    3.9986   -3.3718 H   0  0  0  0  0  0  0  0  0  0  0  0
    2.4167    3.6440   -1.9736 H   0  0  0  0  0  0  0  0  0  0  0  0
   -3.4004    7.2166    4.8209 H   0  0  0  0  0  0  0  0  0  0  0  0
   -3.3043    5.4248    4.4445 H   0  0  0  0  0  0  0  0  0  0  0  0
  1  2  1  0
  2  3  2  3
  3  4  1  0
  4  5  1  0
  5  6  1  0
  6  7  1  0
  7  8  1  0
  8  9  2  0
  8 10  1  0
 10 11  1  0
 11 12  1  0
 12 13  2  0
 12 14  1  0
 11 15  1  0
 15 16  1  0
 16 17  2  0
 17 18  1  0
 18 19  1  0
 19 20  2  0
 20 21  1  0
 21 22  2  0
 22 23  1  0
 23 24  2  0
  7 25  1  0
 25 26  1  0
 26 27  2  0
 26 28  1  0
 28 29  1  0
 29 30  1  0
 30 31  2  0
 30 32  1  0
 32 33  1  0
 33 34  1  0
 34 35  2  0
 35 36  1  0
 36 37  1  0
 37 38  2  0
 38 39  1  0
 39 40  2  0
 40 41  1  0
 41 42  2  0
 32 43  1  0
 43 44  1  0
 44 45  2  0
 44 46  1  0
 28 47  1  0
 47 48  1  0
 48 49  2  0
 49 50  1  0
 50 51  2  0
 51 52  1  0
 52 53  2  0
  2 54  1  0
 20 16  1  0
 38 34  1  0
 53 48  1  0
 24 19  1  0
 42 37  1  0
  1 55  1  0
  1 56  1  0
  4 57  1  0
  4 58  1  0
  5 59  1  0
  5 60  1  0
  6 61  1  0
  6 62  1  0
  7 63  1  1
 10 64  1  0
 11 65  1  1
 14 66  1  0
 14 67  1  0
 15 68  1  0
 15 69  1  0
 17 70  1  0
 18 71  1  0
 21 72  1  0
 22 73  1  0
 23 74  1  0
 24 75  1  0
 25 76  1  0
 28 77  1  6
 29 78  1  0
 32 79  1  6
 33 80  1  0
 33 81  1  0
 35 82  1  0
 39 83  1  0
 40 84  1  0
 41 85  1  0
 42 86  1  0
 43 87  1  0
 46 88  1  0
 46 89  1  0
 46 90  1  0
 47 91  1  0
 47 92  1  0
 49 93  1  0
 50 94  1  0
 51 95  1  0
 52 96  1  0
 53 97  1  0
 54 98  1  0
 54 99  1  0
M  END
>  <Ligand ID>  (1) 
LIG0001452

>  <Ligand>  (1) 
CHEMBL431092

>  <SMILES>  (1) 
NC(=NCCC[C@@H](C(=O)N[C@H](C(=O)N)Cc1c[nH]c2c1cccc2)NC(=O)[C@H](NC(=O)[C@H](Cc1csc2c1cccc2)NC(=O)C)Cc1ccccc1)N

>  <CID>  (1) 
10941679.0

>  <ChEMBL ID>  (1) 
nan

>  <InChiKey>  (1) 
SCMBDULKOAKNSG-SSNHPIBPSA-N

>  <InChi>  (1) 
InChI=1S/C39H45N9O5S/c1-23(49)45-33(20-26-22-54-34-16-8-6-13-28(26)34)38(53)48-32(18-24-10-3-2-4-11-24)37(52)46-30(15-9-17-43-39(41)42)36(51)47-31(35(40)50)19-25-21-44-29-14-7-5-12-27(25)29/h2-8,10-14,16,21-22,30-33,44H,9,15,17-20H2,1H3,(H2,40,50)(H,45,49)(H,46,52)(H,47,51)(H,48,53)(H4,41,42,43)/t30-,31-,32+,33-/m0/s1

>  <IUPAC Name>  (1) 
(2S)-2-[[(2R)-2-[[(2S)-2-acetamido-3-(1-benzothiophen-3-yl)propanoyl]amino]-3-phenylpropanoyl]amino]-N-[(2S)-1-amino-3-(1H-indol-3-yl)-1-oxopropan-2-yl]-5-(diaminomethylideneamino)pentanamide

$$$$
