
     RDKit          3D

 19 19  0  0  0  0  0  0  0  0999 V2000
   -3.3418   -0.1423    0.5973 C   0  0  0  0  0  0  0  0  0  0  0  0
   -2.4363    0.7292   -0.0523 O   0  0  0  0  0  0  0  0  0  0  0  0
   -1.0860    0.4344   -0.0126 C   0  0  0  0  0  0  0  0  0  0  0  0
   -0.2341    1.3107   -0.6595 C   0  0  0  0  0  0  0  0  0  0  0  0
    1.1444    1.0772   -0.6616 C   0  0  0  0  0  0  0  0  0  0  0  0
    1.6711   -0.0423   -0.0107 C   0  0  0  0  0  0  0  0  0  0  0  0
    0.8112   -0.9204    0.6382 C   0  0  0  0  0  0  0  0  0  0  0  0
   -0.5605   -0.6690    0.6282 C   0  0  0  0  0  0  0  0  0  0  0  0
    3.1297   -0.3243    0.0092 C   0  0  0  0  0  0  0  0  0  0  0  0
   -3.2712    0.1218    1.6928 H   0  0  0  0  0  0  0  0  0  0  0  0
   -4.3866    0.0552    0.2171 H   0  0  0  0  0  0  0  0  0  0  0  0
   -3.1386   -1.2073    0.4436 H   0  0  0  0  0  0  0  0  0  0  0  0
   -0.6080    2.2037   -1.1836 H   0  0  0  0  0  0  0  0  0  0  0  0
    1.8186    1.7581   -1.1655 H   0  0  0  0  0  0  0  0  0  0  0  0
    1.2340   -1.7881    1.1411 H   0  0  0  0  0  0  0  0  0  0  0  0
   -1.2249   -1.3555    1.1347 H   0  0  0  0  0  0  0  0  0  0  0  0
    3.7162    0.6176   -0.1926 H   0  0  0  0  0  0  0  0  0  0  0  0
    3.3822   -0.7503    1.0072 H   0  0  0  0  0  0  0  0  0  0  0  0
    3.3808   -1.1085   -0.7491 H   0  0  0  0  0  0  0  0  0  0  0  0
  1  2  1  0
  2  3  1  0
  3  4  2  0
  4  5  1  0
  5  6  2  0
  6  7  1  0
  7  8  2  0
  6  9  1  0
  8  3  1  0
  1 10  1  0
  1 11  1  0
  1 12  1  0
  4 13  1  0
  5 14  1  0
  7 15  1  0
  8 16  1  0
  9 17  1  0
  9 18  1  0
  9 19  1  0
M  END
>  <Ligand ID>  (1) 
LIG0000382

>  <Ligand>  (1) 
1-methoxy-4-methylbenzene

>  <SMILES>  (1) 
COc1ccc(cc1)C

>  <CID>  (1) 
7731.0

>  <ChEMBL ID>  (1) 
nan

>  <InChiKey>  (1) 
CHLICZRVGGXEOD-UHFFFAOYSA-N

>  <InChi>  (1) 
InChI=1S/C8H10O/c1-7-3-5-8(9-2)6-4-7/h3-6H,1-2H3

>  <IUPAC Name>  (1) 
1-methoxy-4-methylbenzene

$$$$
