
     RDKit          3D

 53 56  0  0  0  0  0  0  0  0999 V2000
   -2.4800    1.2645   -1.8054 C   0  0  0  0  0  0  0  0  0  0  0  0
   -2.0044    1.1978   -0.5097 O   0  0  0  0  0  0  0  0  0  0  0  0
   -0.6811    0.8777   -0.4023 C   0  0  1  0  0  0  0  0  0  0  0  0
    0.1507    1.8903    0.3443 C   0  0  0  0  0  0  0  0  0  0  0  0
    1.2028    1.1240    1.0771 C   0  0  1  0  0  0  0  0  0  0  0  0
    1.0056   -0.3429    0.8088 C   0  0  1  0  0  0  0  0  0  0  0  0
   -0.4291   -0.4381    0.3263 C   0  0  1  0  0  0  0  0  0  0  0  0
   -1.3464   -0.6294    1.4819 C   0  0  0  0  0  0  0  0  0  0  0  0
   -2.6916   -0.6577    1.2520 O   0  0  0  0  0  0  0  0  0  0  0  0
   -3.5258   -1.4405    0.5438 C   0  0  0  0  0  0  0  0  0  0  0  0
   -3.2079   -2.5450   -0.2096 C   0  0  0  0  0  0  0  0  0  0  0  0
   -4.1448   -3.2881   -0.9078 C   0  0  0  0  0  0  0  0  0  0  0  0
   -5.4711   -2.9384   -0.8726 C   0  0  0  0  0  0  0  0  0  0  0  0
   -5.8262   -1.8401   -0.1294 C   0  0  0  0  0  0  0  0  0  0  0  0
   -4.8917   -1.1048    0.5625 C   0  0  0  0  0  0  0  0  0  0  0  0
   -7.2735   -1.4345   -0.0732 C   0  0  0  0  0  0  0  0  0  0  0  0
   -6.7254   -3.8161   -1.7217 Cl  0  0  0  0  0  0  0  0  0  0  0  0
    1.9891   -0.9114   -0.1596 C   0  0  0  0  0  0  0  0  0  0  0  0
    2.6082    0.0918   -1.0697 C   0  0  0  0  0  0  0  0  0  0  0  0
    2.9583    1.3999   -0.4347 C   0  0  1  0  0  0  0  0  0  0  0  0
    2.4979    1.5695    0.8554 O   0  0  0  0  0  0  0  0  0  0  0  0
    4.4175    1.6521   -0.4093 C   0  0  0  0  0  0  0  0  0  0  0  0
    5.2123    2.7270   -1.7508 S   0  0  0  0  0  0  0  0  0  0  0  0
    6.8737    2.5574   -1.0600 C   0  0  0  0  0  0  0  0  0  0  0  0
    6.6357    1.7017    0.1137 C   0  0  0  0  0  0  0  0  0  0  0  0
    5.4274    1.3597    0.2844 N   0  0  0  0  0  0  0  0  0  0  0  0
    7.7880    1.3339    0.9546 C   0  0  0  0  0  0  0  0  0  0  0  0
    8.9329    1.7485    0.6619 O   0  0  0  0  0  0  0  0  0  0  0  0
    7.5950    0.5299    2.0657 O   0  0  0  0  0  0  0  0  0  0  0  0
   -1.9322    2.0416   -2.4112 H   0  0  0  0  0  0  0  0  0  0  0  0
   -3.5165    1.6692   -1.7456 H   0  0  0  0  0  0  0  0  0  0  0  0
   -2.5522    0.2922   -2.3197 H   0  0  0  0  0  0  0  0  0  0  0  0
   -0.2751    0.7388   -1.4292 H   0  0  0  0  0  0  0  0  0  0  0  0
   -0.4316    2.5006    1.0413 H   0  0  0  0  0  0  0  0  0  0  0  0
    0.5454    2.6076   -0.4154 H   0  0  0  0  0  0  0  0  0  0  0  0
    1.0518    1.2521    2.1899 H   0  0  0  0  0  0  0  0  0  0  0  0
    1.0790   -0.9554    1.7373 H   0  0  0  0  0  0  0  0  0  0  0  0
   -0.4718   -1.3087   -0.3430 H   0  0  0  0  0  0  0  0  0  0  0  0
   -1.1462    0.2182    2.2021 H   0  0  0  0  0  0  0  0  0  0  0  0
   -1.0708   -1.5360    2.0719 H   0  0  0  0  0  0  0  0  0  0  0  0
   -2.1933   -2.8726   -0.2704 H   0  0  0  0  0  0  0  0  0  0  0  0
   -3.8774   -4.1514   -1.4939 H   0  0  0  0  0  0  0  0  0  0  0  0
   -5.2447   -0.2442    1.1324 H   0  0  0  0  0  0  0  0  0  0  0  0
   -7.5715   -1.0496   -1.0731 H   0  0  0  0  0  0  0  0  0  0  0  0
   -7.3939   -0.5954    0.6418 H   0  0  0  0  0  0  0  0  0  0  0  0
   -7.9243   -2.2979    0.1737 H   0  0  0  0  0  0  0  0  0  0  0  0
    1.4440   -1.6428   -0.8091 H   0  0  0  0  0  0  0  0  0  0  0  0
    2.7897   -1.4861    0.3608 H   0  0  0  0  0  0  0  0  0  0  0  0
    1.9936    0.1967   -1.9938 H   0  0  0  0  0  0  0  0  0  0  0  0
    3.5760   -0.3508   -1.4444 H   0  0  0  0  0  0  0  0  0  0  0  0
    2.4397    2.1941   -1.0483 H   0  0  0  0  0  0  0  0  0  0  0  0
    7.7366    2.9464   -1.3913 H   0  0  0  0  0  0  0  0  0  0  0  0
    8.3495    0.1947    2.6485 H   0  0  0  0  0  0  0  0  0  0  0  0
  1  2  1  0
  2  3  1  0
  3  4  1  0
  4  5  1  0
  5  6  1  0
  6  7  1  0
  7  8  1  0
  8  9  1  0
  9 10  1  0
 10 11  2  0
 11 12  1  0
 12 13  2  0
 13 14  1  0
 14 15  2  0
 14 16  1  0
 13 17  1  0
  6 18  1  0
 18 19  1  0
 19 20  1  0
 20 21  1  0
 20 22  1  0
 22 23  1  0
 23 24  1  0
 24 25  2  0
 25 26  1  0
 25 27  1  0
 27 28  2  0
 27 29  1  0
  7  3  1  0
 15 10  1  0
 26 22  2  0
 21  5  1  0
  1 30  1  0
  1 31  1  0
  1 32  1  0
  3 33  1  6
  4 34  1  0
  4 35  1  0
  5 36  1  1
  6 37  1  1
  7 38  1  6
  8 39  1  0
  8 40  1  0
 11 41  1  0
 12 42  1  0
 15 43  1  0
 16 44  1  0
 16 45  1  0
 16 46  1  0
 18 47  1  0
 18 48  1  0
 19 49  1  0
 19 50  1  0
 20 51  1  6
 24 52  1  0
 29 53  1  0
M  END
>  <Ligand ID>  (1) 
LIG0000937

>  <Ligand>  (1) 
CHEMBL3793724

>  <SMILES>  (1) 
CO[C@H]1C[C@H]2[C@@H]([C@H]1COc1ccc(c(c1)C)Cl)CC[C@@H](O2)c1scc(n1)C(=O)O

>  <CID>  (1) 
118352177.0

>  <ChEMBL ID>  (1) 
nan

>  <InChiKey>  (1) 
HUQZFXSMBFRVFL-ACJWMLNOSA-N

>  <InChi>  (1) 
InChI=1S/C21H24ClNO5S/c1-11-7-12(3-5-15(11)22)27-9-14-13-4-6-17(28-19(13)8-18(14)26-2)20-23-16(10-29-20)21(24)25/h3,5,7,10,13-14,17-19H,4,6,8-9H2,1-2H3,(H,24,25)/t13-,14-,17-,18+,19+/m1/s1

>  <IUPAC Name>  (1) 
2-[(2R,4aR,5S,6S,7aS)-5-[(4-chloro-3-methylphenoxy)methyl]-6-methoxy-2,3,4,4a,5,6,7,7a-octahydrocyclopenta[b]pyran-2-yl]-1,3-thiazole-4-carboxylic acid

$$$$
