
     RDKit          3D

 32 33  0  0  0  0  0  0  0  0999 V2000
    5.8779   -0.6367   -0.0695 N   0  0  0  0  0  0  0  0  0  0  0  0
    4.5383   -0.5322   -0.5742 C   0  0  0  0  0  0  0  0  0  0  0  0
    3.5743   -0.4184    0.6128 C   0  0  0  0  0  0  0  0  0  0  0  0
    2.2077   -0.3133    0.0371 C   0  0  0  0  0  0  0  0  0  0  0  0
    1.6842    0.9336   -0.2574 C   0  0  0  0  0  0  0  0  0  0  0  0
    0.4170    1.0529   -0.7926 C   0  0  0  0  0  0  0  0  0  0  0  0
   -0.3455   -0.0888   -1.0403 C   0  0  0  0  0  0  0  0  0  0  0  0
    0.1520   -1.3351   -0.7567 C   0  0  0  0  0  0  0  0  0  0  0  0
    1.4212   -1.4314   -0.2221 C   0  0  0  0  0  0  0  0  0  0  0  0
   -1.6066    0.1369   -1.5795 O   0  0  0  0  0  0  0  0  0  0  0  0
   -2.6900    0.3161   -0.7348 C   0  0  0  0  0  0  0  0  0  0  0  0
   -3.0706    1.5742   -0.2672 C   0  0  0  0  0  0  0  0  0  0  0  0
   -4.1796    1.6474    0.5819 C   0  0  0  0  0  0  0  0  0  0  0  0
   -4.8736    0.4948    0.9418 C   0  0  0  0  0  0  0  0  0  0  0  0
   -4.4965   -0.7569    0.4778 C   0  0  0  0  0  0  0  0  0  0  0  0
   -3.4065   -0.8191   -0.3553 C   0  0  0  0  0  0  0  0  0  0  0  0
   -5.9874    0.5736    1.7952 O   0  0  0  0  0  0  0  0  0  0  0  0
    6.2006    0.3557    0.1292 H   0  0  0  0  0  0  0  0  0  0  0  0
    5.8283   -1.0947    0.8703 H   0  0  0  0  0  0  0  0  0  0  0  0
    4.4192    0.3572   -1.2252 H   0  0  0  0  0  0  0  0  0  0  0  0
    4.2067   -1.4151   -1.1448 H   0  0  0  0  0  0  0  0  0  0  0  0
    3.6713   -1.2761    1.2869 H   0  0  0  0  0  0  0  0  0  0  0  0
    3.8043    0.5480    1.1064 H   0  0  0  0  0  0  0  0  0  0  0  0
    2.3184    1.7960   -0.0460 H   0  0  0  0  0  0  0  0  0  0  0  0
    0.0296    2.0380   -1.0144 H   0  0  0  0  0  0  0  0  0  0  0  0
   -0.4732   -2.1830   -0.9653 H   0  0  0  0  0  0  0  0  0  0  0  0
    1.8210   -2.4123    0.0045 H   0  0  0  0  0  0  0  0  0  0  0  0
   -2.5123    2.4468   -0.5645 H   0  0  0  0  0  0  0  0  0  0  0  0
   -4.4846    2.6358    0.9538 H   0  0  0  0  0  0  0  0  0  0  0  0
   -5.0123   -1.6673    0.7375 H   0  0  0  0  0  0  0  0  0  0  0  0
   -3.1087   -1.7951   -0.7200 H   0  0  0  0  0  0  0  0  0  0  0  0
   -5.9246    1.2686    2.5193 H   0  0  0  0  0  0  0  0  0  0  0  0
  1  2  1  0
  2  3  1  0
  3  4  1  0
  4  5  2  0
  5  6  1  0
  6  7  2  0
  7  8  1  0
  8  9  2  0
  7 10  1  0
 10 11  1  0
 11 12  2  0
 12 13  1  0
 13 14  2  0
 14 15  1  0
 15 16  2  0
 14 17  1  0
  9  4  1  0
 16 11  1  0
  1 18  1  0
  1 19  1  0
  2 20  1  0
  2 21  1  0
  3 22  1  0
  3 23  1  0
  5 24  1  0
  6 25  1  0
  8 26  1  0
  9 27  1  0
 12 28  1  0
 13 29  1  0
 15 30  1  0
 16 31  1  0
 17 32  1  0
M  END
>  <Ligand ID>  (1) 
LIG0005931

>  <Ligand>  (1) 
Thyronamine

>  <SMILES>  (1) 
NCCc1ccc(cc1)Oc1ccc(cc1)O

>  <CID>  (1) 
3083601.0

>  <ChEMBL ID>  (1) 
nan

>  <InChiKey>  (1) 
OVUVNKDANCKDCK-UHFFFAOYSA-N

>  <InChi>  (1) 
InChI=1S/C14H15NO2/c15-10-9-11-1-5-13(6-2-11)17-14-7-3-12(16)4-8-14/h1-8,16H,9-10,15H2

>  <IUPAC Name>  (1) 
4-[4-(2-aminoethyl)phenoxy]phenol

$$$$
