
     RDKit          3D

 41 44  0  0  0  0  0  0  0  0999 V2000
   -3.6184    0.1794   -2.0159 C   0  0  0  0  0  0  0  0  0  0  0  0
   -3.8725   -0.2914   -0.6047 C   0  0  2  0  0  0  0  0  0  0  0  0
   -5.2062    0.1444   -0.0814 C   0  0  0  0  0  0  0  0  0  0  0  0
   -4.8393    1.4262    0.6849 C   0  0  0  0  0  0  0  0  0  0  0  0
   -3.5291    1.0325    1.3843 C   0  0  1  0  0  0  0  0  0  0  0  0
   -2.9337    0.2456    0.3367 N   0  0  0  0  0  0  0  0  0  0  0  0
   -1.5111    0.0193    0.2406 C   0  0  0  0  0  0  0  0  0  0  0  0
   -0.9668   -0.7726   -0.7513 C   0  0  0  0  0  0  0  0  0  0  0  0
    0.3938   -0.9610   -0.8100 C   0  0  0  0  0  0  0  0  0  0  0  0
    1.2320   -0.3677    0.1125 C   0  0  0  0  0  0  0  0  0  0  0  0
    0.6659    0.3946    1.0617 N   0  0  0  0  0  0  0  0  0  0  0  0
   -0.6449    0.5706    1.1108 N   0  0  0  0  0  0  0  0  0  0  0  0
    2.6673   -0.5624    0.0543 C   0  0  0  0  0  0  0  0  0  0  0  0
    3.5778   -0.0106    0.9235 C   0  0  0  0  0  0  0  0  0  0  0  0
    4.8236   -0.4465    0.5140 C   0  0  0  0  0  0  0  0  0  0  0  0
    4.6062   -1.2543   -0.6008 C   0  0  0  0  0  0  0  0  0  0  0  0
    3.3121   -1.2890   -0.8300 O   0  0  0  0  0  0  0  0  0  0  0  0
    5.6924   -1.8530   -1.2510 C   0  0  0  0  0  0  0  0  0  0  0  0
    6.9765   -1.6261   -0.7649 C   0  0  0  0  0  0  0  0  0  0  0  0
    7.1828   -0.8261    0.3378 C   0  0  0  0  0  0  0  0  0  0  0  0
    6.1051   -0.2350    0.9787 C   0  0  0  0  0  0  0  0  0  0  0  0
   -2.7158    2.2180    1.7969 C   0  0  0  0  0  0  0  0  0  0  0  0
   -3.6805   -0.6738   -2.7002 H   0  0  0  0  0  0  0  0  0  0  0  0
   -2.7174    0.7909   -2.0800 H   0  0  0  0  0  0  0  0  0  0  0  0
   -4.4821    0.8586   -2.2795 H   0  0  0  0  0  0  0  0  0  0  0  0
   -3.8217   -1.3987   -0.5229 H   0  0  0  0  0  0  0  0  0  0  0  0
   -5.6912   -0.5637    0.6154 H   0  0  0  0  0  0  0  0  0  0  0  0
   -5.8457    0.3807   -0.9729 H   0  0  0  0  0  0  0  0  0  0  0  0
   -5.6188    1.7419    1.3731 H   0  0  0  0  0  0  0  0  0  0  0  0
   -4.6099    2.2195   -0.0488 H   0  0  0  0  0  0  0  0  0  0  0  0
   -3.7640    0.4026    2.2889 H   0  0  0  0  0  0  0  0  0  0  0  0
   -1.5985   -1.2458   -1.4823 H   0  0  0  0  0  0  0  0  0  0  0  0
    0.8764   -1.5779   -1.5731 H   0  0  0  0  0  0  0  0  0  0  0  0
    3.4354    0.6355    1.7711 H   0  0  0  0  0  0  0  0  0  0  0  0
    5.4914   -2.4684   -2.1057 H   0  0  0  0  0  0  0  0  0  0  0  0
    7.7887   -2.1137   -1.3048 H   0  0  0  0  0  0  0  0  0  0  0  0
    8.1864   -0.6608    0.7031 H   0  0  0  0  0  0  0  0  0  0  0  0
    6.2632    0.4043    1.8589 H   0  0  0  0  0  0  0  0  0  0  0  0
   -3.4260    3.0241    2.1040 H   0  0  0  0  0  0  0  0  0  0  0  0
   -2.0671    1.9145    2.6449 H   0  0  0  0  0  0  0  0  0  0  0  0
   -2.1163    2.5950    0.9499 H   0  0  0  0  0  0  0  0  0  0  0  0
  1  2  1  0
  2  3  1  0
  3  4  1  0
  4  5  1  0
  5  6  1  0
  6  7  1  0
  7  8  2  0
  8  9  1  0
  9 10  2  0
 10 11  1  0
 11 12  2  0
 10 13  1  0
 13 14  2  0
 14 15  1  0
 15 16  2  0
 16 17  1  0
 16 18  1  0
 18 19  2  0
 19 20  1  0
 20 21  2  0
  5 22  1  0
  6  2  1  0
 12  7  1  0
 17 13  1  0
 21 15  1  0
  1 23  1  0
  1 24  1  0
  1 25  1  0
  2 26  1  6
  3 27  1  0
  3 28  1  0
  4 29  1  0
  4 30  1  0
  5 31  1  1
  8 32  1  0
  9 33  1  0
 14 34  1  0
 18 35  1  0
 19 36  1  0
 20 37  1  0
 21 38  1  0
 22 39  1  0
 22 40  1  0
 22 41  1  0
M  END
>  <Ligand ID>  (1) 
LIG0005238

>  <Ligand>  (1) 
CHEMBL608702

>  <SMILES>  (1) 
C[C@@H]1CC[C@@H](N1c1ccc(nn1)c1cc2c(o1)cccc2)C

>  <CID>  (1) 
46226113.0

>  <ChEMBL ID>  (1) 
nan

>  <InChiKey>  (1) 
ZBEYQVWELCVVLY-BETUJISGSA-N

>  <InChi>  (1) 
InChI=1S/C18H19N3O/c1-12-7-8-13(2)21(12)18-10-9-15(19-20-18)17-11-14-5-3-4-6-16(14)22-17/h3-6,9-13H,7-8H2,1-2H3/t12-,13+

>  <IUPAC Name>  (1) 
3-(1-benzofuran-2-yl)-6-[(2S,5R)-2,5-dimethylpyrrolidin-1-yl]pyridazine

$$$$
