
     RDKit          3D

 43 45  0  0  0  0  0  0  0  0999 V2000
    6.4981    3.2871    0.8647 F   0  0  0  0  0  0  0  0  0  0  0  0
    5.8014    2.1358    0.8196 C   0  0  0  0  0  0  0  0  0  0  0  0
    4.6457    1.8931    1.5116 C   0  0  0  0  0  0  0  0  0  0  0  0
    3.9767    0.6812    1.4189 C   0  0  0  0  0  0  0  0  0  0  0  0
    4.4634   -0.3475    0.6066 C   0  0  0  0  0  0  0  0  0  0  0  0
    5.6194   -0.0886   -0.0776 C   0  0  0  0  0  0  0  0  0  0  0  0
    6.2897    1.1227    0.0137 C   0  0  0  0  0  0  0  0  0  0  0  0
    3.7001   -1.5990    0.5800 C   0  0  0  0  0  0  0  0  0  0  0  0
    2.5034   -1.4927   -0.2734 C   0  0  0  0  0  0  0  0  0  0  0  0
    1.2831   -1.3040    0.3607 C   0  0  0  0  0  0  0  0  0  0  0  0
    0.1073   -1.1810   -0.3408 C   0  0  0  0  0  0  0  0  0  0  0  0
    0.1570   -1.2476   -1.6851 N   0  0  0  0  0  0  0  0  0  0  0  0
    1.3057   -1.4288   -2.3589 C   0  0  0  0  0  0  0  0  0  0  0  0
    2.4869   -1.5518   -1.6360 C   0  0  0  0  0  0  0  0  0  0  0  0
    3.9574   -1.7988   -2.5324 Cl  0  0  0  0  0  0  0  0  0  0  0  0
   -1.1658   -0.9834    0.3315 C   0  0  0  0  0  0  0  0  0  0  0  0
   -1.1772   -0.9259    1.5891 O   0  0  0  0  0  0  0  0  0  0  0  0
   -2.3667   -0.8588   -0.4183 N   0  0  0  0  0  0  0  0  0  0  0  0
   -3.6674   -0.6618    0.1621 C   0  0  2  0  0  0  0  0  0  0  0  0
   -4.5797   -1.8518   -0.0379 C   0  0  0  0  0  0  0  0  0  0  0  0
   -4.8179   -2.1707   -1.3440 F   0  0  0  0  0  0  0  0  0  0  0  0
   -5.7464   -1.5648    0.6677 F   0  0  0  0  0  0  0  0  0  0  0  0
   -3.9697   -2.9327    0.5661 F   0  0  0  0  0  0  0  0  0  0  0  0
   -4.3157    0.6107   -0.2028 C   0  0  0  0  0  0  0  0  0  0  0  0
   -4.9579    1.4290    0.7269 C   0  0  0  0  0  0  0  0  0  0  0  0
   -5.5545    2.6166    0.3410 C   0  0  0  0  0  0  0  0  0  0  0  0
   -5.5354    3.0377   -0.9893 C   0  0  0  0  0  0  0  0  0  0  0  0
   -4.9074    2.2285   -1.8725 N   0  0  0  0  0  0  0  0  0  0  0  0
   -4.3246    1.0723   -1.5067 C   0  0  0  0  0  0  0  0  0  0  0  0
    4.2675    2.6962    2.1443 H   0  0  0  0  0  0  0  0  0  0  0  0
    3.0655    0.5490    1.9920 H   0  0  0  0  0  0  0  0  0  0  0  0
    6.0487   -0.8366   -0.7078 H   0  0  0  0  0  0  0  0  0  0  0  0
    7.2153    1.2923   -0.5520 H   0  0  0  0  0  0  0  0  0  0  0  0
    4.3835   -2.4239    0.2283 H   0  0  0  0  0  0  0  0  0  0  0  0
    3.4028   -1.8389    1.6212 H   0  0  0  0  0  0  0  0  0  0  0  0
    1.2498   -1.2506    1.4575 H   0  0  0  0  0  0  0  0  0  0  0  0
    1.2938   -1.4758   -3.4519 H   0  0  0  0  0  0  0  0  0  0  0  0
   -2.2850   -0.9167   -1.4753 H   0  0  0  0  0  0  0  0  0  0  0  0
   -3.5141   -0.6317    1.2780 H   0  0  0  0  0  0  0  0  0  0  0  0
   -4.9770    1.1072    1.7681 H   0  0  0  0  0  0  0  0  0  0  0  0
   -6.0442    3.2249    1.0979 H   0  0  0  0  0  0  0  0  0  0  0  0
   -5.9973    3.9548   -1.2814 H   0  0  0  0  0  0  0  0  0  0  0  0
   -3.8182    0.4249   -2.2337 H   0  0  0  0  0  0  0  0  0  0  0  0
  1  2  1  0
  2  3  2  0
  3  4  1  0
  4  5  2  0
  5  6  1  0
  6  7  2  0
  5  8  1  0
  8  9  1  0
  9 10  2  0
 10 11  1  0
 11 12  2  0
 12 13  1  0
 13 14  2  0
 14 15  1  0
 11 16  1  0
 16 17  2  0
 16 18  1  0
 18 19  1  0
 19 20  1  0
 20 21  1  0
 20 22  1  0
 20 23  1  0
 19 24  1  0
 24 25  2  0
 25 26  1  0
 26 27  2  0
 27 28  1  0
 28 29  2  0
  7  2  1  0
 14  9  1  0
 29 24  1  0
  3 30  1  0
  4 31  1  0
  6 32  1  0
  7 33  1  0
  8 34  1  0
  8 35  1  0
 10 36  1  0
 13 37  1  0
 18 38  1  0
 19 39  1  1
 25 40  1  0
 26 41  1  0
 27 42  1  0
 29 43  1  0
M  END
>  <Ligand ID>  (1) 
LIG0005970

>  <Ligand>  (1) 
CHEMBL3908763

>  <SMILES>  (1) 
Fc1ccc(cc1)Cc1cc(ncc1Cl)C(=O)N[C@H](C(F)(F)F)c1cccnc1

>  <CID>  (1) 
76282970.0

>  <ChEMBL ID>  (1) 
nan

>  <InChiKey>  (1) 
NPTFKCLVDGOWEX-SFHVURJKSA-N

>  <InChi>  (1) 
InChI=1S/C20H14ClF4N3O/c21-16-11-27-17(9-14(16)8-12-3-5-15(22)6-4-12)19(29)28-18(20(23,24)25)13-2-1-7-26-10-13/h1-7,9-11,18H,8H2,(H,28,29)/t18-/m0/s1

>  <IUPAC Name>  (1) 
5-chloro-4-[(4-fluorophenyl)methyl]-N-[(1S)-2,2,2-trifluoro-1-pyridin-3-ylethyl]pyridine-2-carboxamide

$$$$
