
     RDKit          3D

 58 61  0  0  0  0  0  0  0  0999 V2000
    2.0831   -0.7712   -0.2761 O   0  0  0  0  0  0  0  0  0  0  0  0
    2.8783   -0.0997    0.4314 C   0  0  0  0  0  0  0  0  0  0  0  0
    2.4567    0.9160    1.4176 C   0  0  0  0  0  0  0  0  0  0  0  0
    0.9900    1.1008    1.5226 C   0  0  1  0  0  0  0  0  0  0  0  0
    0.3064    1.5306    0.2754 C   0  0  0  0  0  0  0  0  0  0  0  0
   -1.1787    1.6112    0.4923 C   0  0  1  0  0  0  0  0  0  0  0  0
   -1.4668    2.6825    1.3322 O   0  0  0  0  0  0  0  0  0  0  0  0
   -1.9029    1.8825   -0.8128 C   0  0  1  0  0  0  0  0  0  0  0  0
   -1.5420    0.8477   -1.8620 C   0  0  0  0  0  0  0  0  0  0  0  0
   -1.7881   -0.5094   -1.2815 C   0  0  0  0  0  0  0  0  0  0  0  0
   -1.9040   -0.7194    0.0815 C   0  0  0  0  0  0  0  0  0  0  0  0
   -1.7956    0.3683    1.0822 C   0  0  1  0  0  0  0  0  0  0  0  0
   -1.1264   -0.0247    2.3581 C   0  0  0  0  0  0  0  0  0  0  0  0
    0.3389   -0.1488    2.0441 C   0  0  0  0  0  0  0  0  0  0  0  0
    0.9540   -1.1900    2.2019 O   0  0  0  0  0  0  0  0  0  0  0  0
   -3.2183    0.7812    1.4656 C   0  0  0  0  0  0  0  0  0  0  0  0
   -3.9677    1.1523    0.2369 C   0  0  0  0  0  0  0  0  0  0  0  0
   -3.2920    1.9229   -0.7074 N   0  0  0  0  0  0  0  0  0  0  0  0
   -4.0373    2.8017   -1.5203 C   0  0  0  0  0  0  0  0  0  0  0  0
   -2.1313   -2.0195    0.4846 C   0  0  0  0  0  0  0  0  0  0  0  0
   -2.2390   -3.0696   -0.4341 C   0  0  0  0  0  0  0  0  0  0  0  0
   -2.1205   -2.8389   -1.7872 C   0  0  0  0  0  0  0  0  0  0  0  0
   -1.8931   -1.5440   -2.2035 C   0  0  0  0  0  0  0  0  0  0  0  0
   -2.4707   -4.3826    0.0066 O   0  0  0  0  0  0  0  0  0  0  0  0
    4.2764   -0.3246    0.2803 N   0  0  0  0  0  0  0  0  0  0  0  0
    4.8250   -1.2864   -0.6460 C   0  0  2  0  0  0  0  0  0  0  0  0
    5.5553   -2.3507    0.1288 C   0  0  0  0  0  0  0  0  0  0  0  0
    5.6212   -2.3195    1.3835 O   0  0  0  0  0  0  0  0  0  0  0  0
    6.1782   -3.3985   -0.5145 O   0  0  0  0  0  0  0  0  0  0  0  0
    5.8299   -0.5943   -1.5134 C   0  0  0  0  0  0  0  0  0  0  0  0
    2.9828    1.8838    1.2772 H   0  0  0  0  0  0  0  0  0  0  0  0
    2.8266    0.5417    2.4066 H   0  0  0  0  0  0  0  0  0  0  0  0
    0.7895    1.8692    2.2955 H   0  0  0  0  0  0  0  0  0  0  0  0
    0.6017    0.9984   -0.6279 H   0  0  0  0  0  0  0  0  0  0  0  0
    0.6267    2.6001    0.0974 H   0  0  0  0  0  0  0  0  0  0  0  0
   -0.7868    3.4063    1.2507 H   0  0  0  0  0  0  0  0  0  0  0  0
   -1.4704    2.8496   -1.1847 H   0  0  0  0  0  0  0  0  0  0  0  0
   -0.5556    0.9726   -2.3061 H   0  0  0  0  0  0  0  0  0  0  0  0
   -2.2694    1.0446   -2.7032 H   0  0  0  0  0  0  0  0  0  0  0  0
   -1.2500    0.8506    3.0524 H   0  0  0  0  0  0  0  0  0  0  0  0
   -1.5430   -0.9142    2.8146 H   0  0  0  0  0  0  0  0  0  0  0  0
   -3.6776   -0.0493    2.0049 H   0  0  0  0  0  0  0  0  0  0  0  0
   -3.1852    1.6471    2.1780 H   0  0  0  0  0  0  0  0  0  0  0  0
   -4.3646    0.2155   -0.2130 H   0  0  0  0  0  0  0  0  0  0  0  0
   -4.8926    1.7040    0.5718 H   0  0  0  0  0  0  0  0  0  0  0  0
   -3.3907    3.3225   -2.2258 H   0  0  0  0  0  0  0  0  0  0  0  0
   -4.7109    3.4482   -0.9232 H   0  0  0  0  0  0  0  0  0  0  0  0
   -4.7419    2.1696   -2.1365 H   0  0  0  0  0  0  0  0  0  0  0  0
   -2.2408   -2.3123    1.5198 H   0  0  0  0  0  0  0  0  0  0  0  0
   -2.1945   -3.6088   -2.5421 H   0  0  0  0  0  0  0  0  0  0  0  0
   -1.7987   -1.3557   -3.2695 H   0  0  0  0  0  0  0  0  0  0  0  0
   -3.3775   -4.6265    0.3973 H   0  0  0  0  0  0  0  0  0  0  0  0
    4.9589    0.2190    0.8550 H   0  0  0  0  0  0  0  0  0  0  0  0
    4.0446   -1.8183   -1.2163 H   0  0  0  0  0  0  0  0  0  0  0  0
    7.0500   -3.8089   -0.1845 H   0  0  0  0  0  0  0  0  0  0  0  0
    6.7334   -1.2355   -1.6488 H   0  0  0  0  0  0  0  0  0  0  0  0
    5.4103   -0.3354   -2.5101 H   0  0  0  0  0  0  0  0  0  0  0  0
    6.2066    0.3160   -0.9796 H   0  0  0  0  0  0  0  0  0  0  0  0
  1  2  2  0
  2  3  1  0
  3  4  1  0
  4  5  1  0
  5  6  1  0
  6  7  1  1
  6  8  1  0
  8  9  1  0
  9 10  1  0
 10 11  2  0
 11 12  1  0
 12 13  1  1
 13 14  1  0
 14 15  2  0
 12 16  1  0
 16 17  1  0
 17 18  1  0
 18 19  1  0
 11 20  1  0
 20 21  2  0
 21 22  1  0
 22 23  2  0
 21 24  1  0
  2 25  1  0
 25 26  1  0
 26 27  1  0
 27 28  2  0
 27 29  1  0
 26 30  1  0
 14  4  1  0
 12  6  1  0
 18  8  1  0
 23 10  1  0
  3 31  1  0
  3 32  1  0
  4 33  1  1
  5 34  1  0
  5 35  1  0
  7 36  1  0
  8 37  1  6
  9 38  1  0
  9 39  1  0
 13 40  1  0
 13 41  1  0
 16 42  1  0
 16 43  1  0
 17 44  1  0
 17 45  1  0
 19 46  1  0
 19 47  1  0
 19 48  1  0
 20 49  1  0
 22 50  1  0
 23 51  1  0
 24 52  1  0
 25 53  1  0
 26 54  1  6
 29 55  1  0
 30 56  1  0
 30 57  1  0
 30 58  1  0
M  END
>  <Ligand ID>  (1) 
LIG0005169

>  <Ligand>  (1) 
CHEMBL3895514

>  <SMILES>  (1) 
O=C(C[C@H]1C[C@@]2(O)[C@H]3Cc4c([C@]2(CC1=O)CCN3C)cc(cc4)O)N[C@H](C(=O)O)C

>  <CID>  (1) 
77107156.0

>  <ChEMBL ID>  (1) 
nan

>  <InChiKey>  (1) 
XNPGYMNIOBCBJA-KPTFUQOLSA-N

>  <InChi>  (1) 
InChI=1S/C22H28N2O6/c1-12(20(28)29)23-19(27)8-14-10-22(30)18-7-13-3-4-15(25)9-16(13)21(22,11-17(14)26)5-6-24(18)2/h3-4,9,12,14,18,25,30H,5-8,10-11H2,1-2H3,(H,23,27)(H,28,29)/t12-,14-,18+,21+,22+/m0/s1

>  <IUPAC Name>  (1) 
(2S)-2-[[2-[(1R,9R,10S,12R)-4,10-dihydroxy-17-methyl-13-oxo-17-azatetracyclo[7.5.3.01,10.02,7]heptadeca-2(7),3,5-trien-12-yl]acetyl]amino]propanoic acid

$$$$
