
     RDKit          3D

 57 60  0  0  0  0  0  0  0  0999 V2000
   -8.5751   -1.2579   -2.0695 C   0  0  0  0  0  0  0  0  0  0  0  0
   -9.1997   -0.8246   -0.4559 S   0  0  0  0  0  0  0  0  0  0  0  0
   -8.7403   -1.7736    0.6424 O   0  0  0  0  0  0  0  0  0  0  0  0
   -8.7741    0.8349    0.0123 C   0  0  0  0  0  0  0  0  0  0  0  0
   -7.3036    1.0451    0.0574 C   0  0  0  0  0  0  0  0  0  0  0  0
   -6.5734    1.4878   -1.0301 C   0  0  0  0  0  0  0  0  0  0  0  0
   -5.2105    1.6653   -0.9392 C   0  0  0  0  0  0  0  0  0  0  0  0
   -4.5286    1.4103    0.2306 C   0  0  0  0  0  0  0  0  0  0  0  0
   -5.2722    0.9702    1.3033 C   0  0  0  0  0  0  0  0  0  0  0  0
   -6.6371    0.7777    1.2600 C   0  0  0  0  0  0  0  0  0  0  0  0
   -4.6369    0.7076    2.4749 F   0  0  0  0  0  0  0  0  0  0  0  0
   -3.0501    1.5921    0.3615 C   0  0  0  0  0  0  0  0  0  0  0  0
   -2.4809    0.3028    0.3191 O   0  0  0  0  0  0  0  0  0  0  0  0
   -1.0964    0.1536    0.4198 C   0  0  0  0  0  0  0  0  0  0  0  0
   -0.2785    1.2614    0.5619 C   0  0  0  0  0  0  0  0  0  0  0  0
    1.0633    1.0704    0.6561 N   0  0  0  0  0  0  0  0  0  0  0  0
    1.5901   -0.1824    0.6118 C   0  0  0  0  0  0  0  0  0  0  0  0
    0.7646   -1.2368    0.4727 N   0  0  0  0  0  0  0  0  0  0  0  0
   -0.5741   -1.1424    0.3720 C   0  0  0  0  0  0  0  0  0  0  0  0
    3.0057   -0.3399    0.7165 N   0  0  0  0  0  0  0  0  0  0  0  0
    3.7811    0.8694    0.9097 C   0  0  0  0  0  0  0  0  0  0  0  0
    5.2002    0.5295    1.3263 C   0  0  0  0  0  0  0  0  0  0  0  0
    5.6533   -0.4328    0.3264 N   0  0  0  0  0  0  0  0  0  0  0  0
    5.0070   -1.7462    0.3373 C   0  0  0  0  0  0  0  0  0  0  0  0
    3.5474   -1.6577    0.6247 C   0  0  1  0  0  0  0  0  0  0  0  0
    3.2693   -2.4282    1.9175 C   0  0  0  0  0  0  0  0  0  0  0  0
    6.6758   -0.1197   -0.6205 C   0  0  0  0  0  0  0  0  0  0  0  0
    6.4678    0.4148   -1.8189 O   0  0  0  0  0  0  0  0  0  0  0  0
    7.6242    0.5667   -2.4207 N   0  0  0  0  0  0  0  0  0  0  0  0
    8.5754    0.1258   -1.5993 C   0  0  0  0  0  0  0  0  0  0  0  0
    8.0066   -0.3107   -0.4618 N   0  0  0  0  0  0  0  0  0  0  0  0
   10.0270    0.1394   -1.9441 C   0  0  0  0  0  0  0  0  0  0  0  0
   10.3739    1.4140   -2.3314 F   0  0  0  0  0  0  0  0  0  0  0  0
   10.7755   -0.2337   -0.8303 F   0  0  0  0  0  0  0  0  0  0  0  0
   10.2691   -0.7523   -2.9534 F   0  0  0  0  0  0  0  0  0  0  0  0
   -7.6019   -0.7788   -2.2623 H   0  0  0  0  0  0  0  0  0  0  0  0
   -8.4645   -2.3733   -2.0810 H   0  0  0  0  0  0  0  0  0  0  0  0
   -9.3121   -0.9735   -2.8529 H   0  0  0  0  0  0  0  0  0  0  0  0
   -9.1995    1.6020   -0.6777 H   0  0  0  0  0  0  0  0  0  0  0  0
   -9.1658    1.0143    1.0487 H   0  0  0  0  0  0  0  0  0  0  0  0
   -7.0820    1.6921   -1.9475 H   0  0  0  0  0  0  0  0  0  0  0  0
   -4.6297    2.0092   -1.7775 H   0  0  0  0  0  0  0  0  0  0  0  0
   -7.2268    0.4333    2.0956 H   0  0  0  0  0  0  0  0  0  0  0  0
   -2.7980    1.9848    1.3896 H   0  0  0  0  0  0  0  0  0  0  0  0
   -2.6380    2.3080   -0.3524 H   0  0  0  0  0  0  0  0  0  0  0  0
   -0.7343    2.2400    0.5927 H   0  0  0  0  0  0  0  0  0  0  0  0
   -1.2102   -2.0143    0.2608 H   0  0  0  0  0  0  0  0  0  0  0  0
    3.3313    1.4654    1.7573 H   0  0  0  0  0  0  0  0  0  0  0  0
    3.7235    1.4979    0.0174 H   0  0  0  0  0  0  0  0  0  0  0  0
    5.0958    0.0307    2.3212 H   0  0  0  0  0  0  0  0  0  0  0  0
    5.7882    1.4469    1.3300 H   0  0  0  0  0  0  0  0  0  0  0  0
    5.2187   -2.1952   -0.6631 H   0  0  0  0  0  0  0  0  0  0  0  0
    5.5272   -2.3235    1.1389 H   0  0  0  0  0  0  0  0  0  0  0  0
    3.0136   -2.1538   -0.2318 H   0  0  0  0  0  0  0  0  0  0  0  0
    3.8794   -3.3634    1.9023 H   0  0  0  0  0  0  0  0  0  0  0  0
    3.5399   -1.7847    2.7772 H   0  0  0  0  0  0  0  0  0  0  0  0
    2.1996   -2.6642    1.9787 H   0  0  0  0  0  0  0  0  0  0  0  0
  1  2  1  0
  2  3  2  0
  2  4  1  0
  4  5  1  0
  5  6  2  0
  6  7  1  0
  7  8  2  0
  8  9  1  0
  9 10  2  0
  9 11  1  0
  8 12  1  0
 12 13  1  0
 13 14  1  0
 14 15  2  0
 15 16  1  0
 16 17  2  0
 17 18  1  0
 18 19  2  0
 17 20  1  0
 20 21  1  0
 21 22  1  0
 22 23  1  0
 23 24  1  0
 24 25  1  0
 25 26  1  0
 23 27  1  0
 27 28  1  0
 28 29  1  0
 29 30  2  0
 30 31  1  0
 30 32  1  0
 32 33  1  0
 32 34  1  0
 32 35  1  0
 10  5  1  0
 19 14  1  0
 25 20  1  0
 31 27  2  0
  1 36  1  0
  1 37  1  0
  1 38  1  0
  4 39  1  0
  4 40  1  0
  6 41  1  0
  7 42  1  0
 10 43  1  0
 12 44  1  0
 12 45  1  0
 15 46  1  0
 19 47  1  0
 21 48  1  0
 21 49  1  0
 22 50  1  0
 22 51  1  0
 24 52  1  0
 24 53  1  0
 25 54  1  6
 26 55  1  0
 26 56  1  0
 26 57  1  0
M  END
>  <Ligand ID>  (1) 
LIG0005275

>  <Ligand>  (1) 
CHEMBL3358007

>  <SMILES>  (1) 
CS(=O)Cc1ccc(c(c1)F)COc1cnc(nc1)N1CCN(C[C@H]1C)c1onc(n1)C(F)(F)F

>  <CID>  (1) 
118722582.0

>  <ChEMBL ID>  (1) 
nan

>  <InChiKey>  (1) 
CMPJIODIHHCIRU-AUJFFYSJSA-N

>  <InChi>  (1) 
InChI=1S/C21H22F4N6O3S/c1-13-10-30(20-28-18(29-34-20)21(23,24)25)5-6-31(13)19-26-8-16(9-27-19)33-11-15-4-3-14(7-17(15)22)12-35(2)32/h3-4,7-9,13H,5-6,10-12H2,1-2H3/t13-,35?/m1/s1

>  <IUPAC Name>  (1) 
5-[(3R)-4-[5-[[2-fluoro-4-(methylsulfinylmethyl)phenyl]methoxy]pyrimidin-2-yl]-3-methylpiperazin-1-yl]-3-(trifluoromethyl)-1,2,4-oxadiazole

$$$$
