
     RDKit          3D

 57 60  0  0  0  0  0  0  0  0999 V2000
    2.1265   -2.9852   -0.3059 O   0  0  0  0  0  0  0  0  0  0  0  0
    2.4736   -2.0228    0.6413 C   0  0  0  0  0  0  0  0  0  0  0  0
    2.1108   -0.6127    0.1541 C   0  0  0  0  0  0  0  0  0  0  0  0
    2.3120    0.3464    1.2035 C   0  0  0  0  0  0  0  0  0  0  0  0
    3.0034    1.6339    1.2410 C   0  0  0  0  0  0  0  0  0  0  0  0
    4.4963    1.7984    1.3162 C   0  0  0  0  0  0  0  0  0  0  0  0
    5.2151    1.5478   -0.0511 C   0  0  0  0  0  0  0  0  0  0  0  0
    4.3097    0.6416   -0.6493 C   0  0  0  0  0  0  0  0  0  0  0  0
    3.9019   -0.1989   -1.6884 C   0  0  0  0  0  0  0  0  0  0  0  0
    2.4825   -0.5953   -1.2720 C   0  0  0  0  0  0  0  0  0  0  0  0
    0.6412   -0.7484   -0.0183 N   0  0  0  0  0  0  0  0  0  0  0  0
   -0.0594   -1.1331    1.1478 C   0  0  0  0  0  0  0  0  0  0  0  0
   -1.3026   -0.2248    1.2166 C   0  0  0  0  0  0  0  0  0  0  0  0
   -2.1032   -0.5655   -0.0179 C   0  0  0  0  0  0  0  0  0  0  0  0
   -1.3179   -0.5712   -1.2692 C   0  0  0  0  0  0  0  0  0  0  0  0
    0.0705   -1.2363   -1.1404 C   0  0  0  0  0  0  0  0  0  0  0  0
   -3.1260    0.4560   -0.1377 N   0  0  0  0  0  0  0  0  0  0  0  0
   -2.9372    1.7733   -0.2373 C   0  0  0  0  0  0  0  0  0  0  0  0
   -1.8591    2.4155   -0.2499 O   0  0  0  0  0  0  0  0  0  0  0  0
   -4.1548    2.3534   -0.3285 N   0  0  0  0  0  0  0  0  0  0  0  0
   -5.1199    1.4136   -0.2876 C   0  0  0  0  0  0  0  0  0  0  0  0
   -4.4511    0.2142   -0.1664 C   0  0  0  0  0  0  0  0  0  0  0  0
   -5.1342   -1.0054   -0.0927 C   0  0  0  0  0  0  0  0  0  0  0  0
   -6.4973   -0.9750   -0.1447 C   0  0  0  0  0  0  0  0  0  0  0  0
   -7.1789    0.2115   -0.2654 C   0  0  0  0  0  0  0  0  0  0  0  0
   -6.4945    1.4169   -0.3379 C   0  0  0  0  0  0  0  0  0  0  0  0
    1.7738   -3.8193    0.0727 H   0  0  0  0  0  0  0  0  0  0  0  0
    1.9275   -2.3321    1.5514 H   0  0  0  0  0  0  0  0  0  0  0  0
    3.5319   -2.1338    0.9311 H   0  0  0  0  0  0  0  0  0  0  0  0
    2.7499   -0.1727    2.1223 H   0  0  0  0  0  0  0  0  0  0  0  0
    1.3056    0.6053    1.6842 H   0  0  0  0  0  0  0  0  0  0  0  0
    2.4911    2.4742    0.6817 H   0  0  0  0  0  0  0  0  0  0  0  0
    2.7861    2.0462    2.2883 H   0  0  0  0  0  0  0  0  0  0  0  0
    4.7157    2.8399    1.5289 H   0  0  0  0  0  0  0  0  0  0  0  0
    4.8716    1.1041    2.0706 H   0  0  0  0  0  0  0  0  0  0  0  0
    5.3822    2.4861   -0.5869 H   0  0  0  0  0  0  0  0  0  0  0  0
    6.2205    1.1588    0.2079 H   0  0  0  0  0  0  0  0  0  0  0  0
    3.4654    1.3533   -0.7060 H   0  0  0  0  0  0  0  0  0  0  0  0
    4.3789   -0.1556    0.1133 H   0  0  0  0  0  0  0  0  0  0  0  0
    4.5356   -1.1083   -1.9063 H   0  0  0  0  0  0  0  0  0  0  0  0
    3.8810    0.3264   -2.6795 H   0  0  0  0  0  0  0  0  0  0  0  0
    2.3523   -1.5835   -1.6872 H   0  0  0  0  0  0  0  0  0  0  0  0
    1.8646    0.2192   -1.7495 H   0  0  0  0  0  0  0  0  0  0  0  0
    0.4483   -1.1174    2.1043 H   0  0  0  0  0  0  0  0  0  0  0  0
   -0.5479   -2.1406    0.9479 H   0  0  0  0  0  0  0  0  0  0  0  0
   -1.0391    0.8294    1.2634 H   0  0  0  0  0  0  0  0  0  0  0  0
   -1.8908   -0.5940    2.0885 H   0  0  0  0  0  0  0  0  0  0  0  0
   -2.5556   -1.5578    0.1269 H   0  0  0  0  0  0  0  0  0  0  0  0
   -1.1161    0.4699   -1.5982 H   0  0  0  0  0  0  0  0  0  0  0  0
   -1.8925   -1.1042   -2.0536 H   0  0  0  0  0  0  0  0  0  0  0  0
    0.4397   -1.1508   -2.1464 H   0  0  0  0  0  0  0  0  0  0  0  0
   -0.1969   -2.3279   -1.0055 H   0  0  0  0  0  0  0  0  0  0  0  0
   -4.3794    3.3831   -0.4198 H   0  0  0  0  0  0  0  0  0  0  0  0
   -4.5955   -1.9485    0.0032 H   0  0  0  0  0  0  0  0  0  0  0  0
   -7.0242   -1.9149   -0.0879 H   0  0  0  0  0  0  0  0  0  0  0  0
   -8.2584    0.1672   -0.3011 H   0  0  0  0  0  0  0  0  0  0  0  0
   -7.0330    2.3507   -0.4330 H   0  0  0  0  0  0  0  0  0  0  0  0
  1  2  1  0
  2  3  1  0
  3  4  1  0
  4  5  1  0
  5  6  1  0
  6  7  1  0
  7  8  1  0
  8  9  1  0
  9 10  1  0
  3 11  1  0
 11 12  1  0
 12 13  1  0
 13 14  1  0
 14 15  1  0
 15 16  1  0
 14 17  1  0
 17 18  1  0
 18 19  2  0
 18 20  1  0
 20 21  1  0
 21 22  2  0
 22 23  1  0
 23 24  2  0
 24 25  1  0
 25 26  2  0
 10  3  1  0
 16 11  1  0
 22 17  1  0
 26 21  1  0
  1 27  1  0
  2 28  1  0
  2 29  1  0
  4 30  1  0
  4 31  1  0
  5 32  1  0
  5 33  1  0
  6 34  1  0
  6 35  1  0
  7 36  1  0
  7 37  1  0
  8 38  1  0
  8 39  1  0
  9 40  1  0
  9 41  1  0
 10 42  1  0
 10 43  1  0
 12 44  1  0
 12 45  1  0
 13 46  1  0
 13 47  1  0
 14 48  1  0
 15 49  1  0
 15 50  1  0
 16 51  1  0
 16 52  1  0
 20 53  1  0
 23 54  1  0
 24 55  1  0
 25 56  1  0
 26 57  1  0
M  END
>  <Ligand ID>  (1) 
LIG0003078

>  <Ligand>  (1) 
CHEMBL1650851

>  <SMILES>  (1) 
OCC1(CCCCCCC1)N1CCC(CC1)n1c(=O)[nH]c2c1cccc2

>  <CID>  (1) 
53316969.0

>  <ChEMBL ID>  (1) 
nan

>  <InChiKey>  (1) 
IHTVZEPWUCPDDH-UHFFFAOYSA-N

>  <InChi>  (1) 
InChI=1S/C21H31N3O2/c25-16-21(12-6-2-1-3-7-13-21)23-14-10-17(11-15-23)24-19-9-5-4-8-18(19)22-20(24)26/h4-5,8-9,17,25H,1-3,6-7,10-16H2,(H,22,26)

>  <IUPAC Name>  (1) 
3-[1-[1-(hydroxymethyl)cyclooctyl]piperidin-4-yl]-1H-benzimidazol-2-one

$$$$
