
     RDKit          3D

 33 35  0  0  0  0  0  0  0  0999 V2000
   -3.1043    2.9212   -0.6879 C   0  0  0  0  0  0  0  0  0  0  0  0
   -2.9186    1.5514   -0.6779 O   0  0  0  0  0  0  0  0  0  0  0  0
   -1.8437    1.1689    0.1799 C   0  0  0  0  0  0  0  0  0  0  0  0
   -1.6580   -0.3238    0.1475 C   0  0  0  0  0  0  0  0  0  0  0  0
   -2.7593   -1.1395    0.4685 C   0  0  0  0  0  0  0  0  0  0  0  0
   -2.7405   -2.4884    0.3328 C   0  0  0  0  0  0  0  0  0  0  0  0
   -1.5852   -3.0987   -0.1400 C   0  0  0  0  0  0  0  0  0  0  0  0
   -0.5179   -2.2935   -0.4439 C   0  0  0  0  0  0  0  0  0  0  0  0
   -0.5048   -0.9257   -0.3202 C   0  0  0  0  0  0  0  0  0  0  0  0
    0.7191   -0.1149   -0.5698 C   0  0  0  0  0  0  0  0  0  0  0  0
    1.2344    0.5584    0.6860 C   0  0  0  0  0  0  0  0  0  0  0  0
    2.7016    0.5750    0.5400 N   0  0  0  0  0  0  0  0  0  0  0  0
    3.0643   -0.3985   -0.3175 C   0  0  0  0  0  0  0  0  0  0  0  0
    1.8423   -1.1498   -0.7503 C   0  0  0  0  0  0  0  0  0  0  0  0
    4.3754   -0.3850   -0.4679 N   0  0  0  0  0  0  0  0  0  0  0  0
    4.8800    0.5968    0.2899 C   0  0  0  0  0  0  0  0  0  0  0  0
    3.8419    1.2220    0.9403 C   0  0  0  0  0  0  0  0  0  0  0  0
   -3.2269    3.2972    0.3467 H   0  0  0  0  0  0  0  0  0  0  0  0
   -4.1064    3.0937   -1.2310 H   0  0  0  0  0  0  0  0  0  0  0  0
   -2.2902    3.4084   -1.1984 H   0  0  0  0  0  0  0  0  0  0  0  0
   -2.0404    1.5220    1.1789 H   0  0  0  0  0  0  0  0  0  0  0  0
   -0.9680    1.6567   -0.3624 H   0  0  0  0  0  0  0  0  0  0  0  0
   -3.6712   -0.6828    0.8368 H   0  0  0  0  0  0  0  0  0  0  0  0
   -3.5885   -3.1423    0.5620 H   0  0  0  0  0  0  0  0  0  0  0  0
   -1.5875   -4.1890   -0.2377 H   0  0  0  0  0  0  0  0  0  0  0  0
    0.3600   -2.8053   -0.8287 H   0  0  0  0  0  0  0  0  0  0  0  0
    0.6850    0.5606   -1.4093 H   0  0  0  0  0  0  0  0  0  0  0  0
    1.0319   -0.0707    1.5955 H   0  0  0  0  0  0  0  0  0  0  0  0
    0.9716    1.6176    0.8092 H   0  0  0  0  0  0  0  0  0  0  0  0
    1.6916   -1.8839    0.0999 H   0  0  0  0  0  0  0  0  0  0  0  0
    1.8917   -1.5862   -1.7299 H   0  0  0  0  0  0  0  0  0  0  0  0
    5.9076    0.8719    0.3829 H   0  0  0  0  0  0  0  0  0  0  0  0
    3.9129    2.0563    1.6405 H   0  0  0  0  0  0  0  0  0  0  0  0
  1  2  1  0
  2  3  1  0
  3  4  1  0
  4  5  2  0
  5  6  1  0
  6  7  2  0
  7  8  1  0
  8  9  2  0
  9 10  1  0
 10 11  1  0
 11 12  1  0
 12 13  1  0
 13 14  1  0
 13 15  2  0
 15 16  1  0
 16 17  2  0
  9  4  1  0
 14 10  1  0
 17 12  1  0
  1 18  1  0
  1 19  1  0
  1 20  1  0
  3 21  1  0
  3 22  1  0
  5 23  1  0
  6 24  1  0
  7 25  1  0
  8 26  1  0
 10 27  1  0
 11 28  1  0
 11 29  1  0
 14 30  1  0
 14 31  1  0
 16 32  1  0
 17 33  1  0
M  END
>  <Ligand ID>  (1) 
LIG0004897

>  <Ligand>  (1) 
CHEMBL511577

>  <SMILES>  (1) 
COCc1ccccc1C1Cn2c(C1)ncc2

>  <CID>  (1) 
44574989.0

>  <ChEMBL ID>  (1) 
nan

>  <InChiKey>  (1) 
VLRKQMQYVWMCDX-UHFFFAOYSA-N

>  <InChi>  (1) 
InChI=1S/C14H16N2O/c1-17-10-11-4-2-3-5-13(11)12-8-14-15-6-7-16(14)9-12/h2-7,12H,8-10H2,1H3

>  <IUPAC Name>  (1) 
6-[2-(methoxymethyl)phenyl]-6,7-dihydro-5H-pyrrolo[1,2-a]imidazole

$$$$
