
     RDKit          3D

 33 33  0  0  0  0  0  0  0  0999 V2000
   -3.7598    2.4456    0.6587 F   0  0  0  0  0  0  0  0  0  0  0  0
   -4.0854    1.4305   -0.2265 C   0  0  0  0  0  0  0  0  0  0  0  0
   -3.3126    0.1792    0.0650 C   0  0  0  0  0  0  0  0  0  0  0  0
   -1.9252    0.3121   -0.0133 O   0  0  0  0  0  0  0  0  0  0  0  0
   -1.1432   -0.8100    0.2452 C   0  0  0  0  0  0  0  0  0  0  0  0
   -1.7118   -2.0427    0.5752 C   0  0  0  0  0  0  0  0  0  0  0  0
   -0.9760   -3.1598    0.8339 C   0  0  0  0  0  0  0  0  0  0  0  0
    0.3957   -3.0676    0.7664 C   0  0  0  0  0  0  0  0  0  0  0  0
    0.9647   -1.8542    0.4412 C   0  0  0  0  0  0  0  0  0  0  0  0
    0.2402   -0.7166    0.1770 C   0  0  0  0  0  0  0  0  0  0  0  0
    0.8345    0.5880   -0.1720 C   0  0  1  0  0  0  0  0  0  0  0  0
    1.1776    1.5668    0.8896 C   0  0  0  0  0  0  0  0  0  0  0  0
    2.2586    0.7822    0.2097 C   0  0  2  0  0  0  0  0  0  0  0  0
    3.1673    1.4928   -0.7934 C   0  0  0  0  0  0  0  0  0  0  0  0
    4.4999    1.5752   -0.2251 N   0  0  0  0  0  0  0  0  0  0  0  0
    1.3666   -4.4849    1.0934 Cl  0  0  0  0  0  0  0  0  0  0  0  0
    0.6872    0.0000    0.0000 Cl  0  0  0  0  0  0  0  0  0  0  0  0
   -4.0430    1.7658   -1.2696 H   0  0  0  0  0  0  0  0  0  0  0  0
   -5.1587    1.1873   -0.0243 H   0  0  0  0  0  0  0  0  0  0  0  0
   -3.6389   -0.5867   -0.6757 H   0  0  0  0  0  0  0  0  0  0  0  0
   -3.6601   -0.1748    1.0660 H   0  0  0  0  0  0  0  0  0  0  0  0
   -2.7936   -2.1029    0.6253 H   0  0  0  0  0  0  0  0  0  0  0  0
   -1.4031   -4.1098    1.0879 H   0  0  0  0  0  0  0  0  0  0  0  0
    2.0369   -1.8143    0.3966 H   0  0  0  0  0  0  0  0  0  0  0  0
    0.5127    0.9602   -1.1669 H   0  0  0  0  0  0  0  0  0  0  0  0
    0.9774    1.3386    1.9420 H   0  0  0  0  0  0  0  0  0  0  0  0
    1.1448    2.6437    0.5538 H   0  0  0  0  0  0  0  0  0  0  0  0
    2.7974    0.0320    0.8141 H   0  0  0  0  0  0  0  0  0  0  0  0
    2.8067    2.5198   -0.9799 H   0  0  0  0  0  0  0  0  0  0  0  0
    3.2306    0.9164   -1.7410 H   0  0  0  0  0  0  0  0  0  0  0  0
    4.5087    2.4440    0.3697 H   0  0  0  0  0  0  0  0  0  0  0  0
    4.6911    0.7442    0.3729 H   0  0  0  0  0  0  0  0  0  0  0  0
   -0.6872    0.0000    0.0000 H   0  0  0  0  0  0  0  0  0  0  0  0
  1  2  1  0
  2  3  1  0
  3  4  1  0
  4  5  1  0
  5  6  2  0
  6  7  1  0
  7  8  2  0
  8  9  1  0
  9 10  2  0
 10 11  1  0
 11 12  1  0
 12 13  1  0
 13 14  1  0
 14 15  1  0
  8 16  1  0
 10  5  1  0
 13 11  1  0
  2 18  1  0
  2 19  1  0
  3 20  1  0
  3 21  1  0
  6 22  1  0
  7 23  1  0
  9 24  1  0
 11 25  1  6
 12 26  1  0
 12 27  1  0
 13 28  1  1
 14 29  1  0
 14 30  1  0
 15 31  1  0
 15 32  1  0
 17 33  1  0
M  END
>  <Ligand ID>  (1) 
LIG0002365

>  <Ligand>  (1) 
CHEMBL3416055

>  <SMILES>  (1) 
FCCOc1ccc(cc1[C@H]1C[C@@H]1CN)Cl.Cl

>  <CID>  (1) 
118733805.0

>  <ChEMBL ID>  (1) 
nan

>  <InChiKey>  (1) 
XHNQQEONWOZBRI-SCYNACPDSA-N

>  <InChi>  (1) 
InChI=1S/C12H15ClFNO.ClH/c13-9-1-2-12(16-4-3-14)11(6-9)10-5-8(10)7-15;/h1-2,6,8,10H,3-5,7,15H2;1H/t8-,10+;/m1./s1

>  <IUPAC Name>  (1) 
[(1S,2S)-2-[5-chloro-2-(2-fluoroethoxy)phenyl]cyclopropyl]methanamine;hydrochloride

$$$$
