
     RDKit          3D

 97101  0  0  0  0  0  0  0  0999 V2000
    3.1324    6.5999    1.7033 N   0  0  0  0  0  0  0  0  0  0  0  0
    2.4000    5.8965    2.7226 C   0  0  0  0  0  0  0  0  0  0  0  0
    1.7079    4.8684    2.3749 N   0  0  0  0  0  0  0  0  0  0  0  0
    1.6709    4.4352    0.9926 C   0  0  0  0  0  0  0  0  0  0  0  0
    1.4423    2.9427    0.8828 C   0  0  0  0  0  0  0  0  0  0  0  0
    1.3771    2.4746   -0.5314 C   0  0  0  0  0  0  0  0  0  0  0  0
    1.1694    1.0120   -0.7283 C   0  0  1  0  0  0  0  0  0  0  0  0
    2.3161    0.2645   -0.1245 C   0  0  0  0  0  0  0  0  0  0  0  0
    2.1125   -0.7180    0.6510 O   0  0  0  0  0  0  0  0  0  0  0  0
    3.6715    0.5949   -0.3737 N   0  0  0  0  0  0  0  0  0  0  0  0
    4.7896   -0.1640    0.1925 C   0  0  2  0  0  0  0  0  0  0  0  0
    5.2280    0.4312    1.4898 C   0  0  0  0  0  0  0  0  0  0  0  0
    4.6734    1.4446    2.0024 O   0  0  0  0  0  0  0  0  0  0  0  0
    6.3201   -0.1547    2.2014 N   0  0  0  0  0  0  0  0  0  0  0  0
    5.8830   -0.1981   -0.8162 C   0  0  0  0  0  0  0  0  0  0  0  0
    7.0945   -0.9366   -0.4123 C   0  0  0  0  0  0  0  0  0  0  0  0
    8.3233   -0.4168    0.0127 C   0  0  0  0  0  0  0  0  0  0  0  0
    9.1235   -1.4688    0.2747 N   0  0  0  0  0  0  0  0  0  0  0  0
    8.4517   -2.6218    0.0323 C   0  0  0  0  0  0  0  0  0  0  0  0
    7.1799   -2.3248   -0.3987 C   0  0  0  0  0  0  0  0  0  0  0  0
    6.2995   -3.3583   -0.7124 C   0  0  0  0  0  0  0  0  0  0  0  0
    6.6435   -4.6848   -0.6112 C   0  0  0  0  0  0  0  0  0  0  0  0
    7.9409   -4.9566   -0.1712 C   0  0  0  0  0  0  0  0  0  0  0  0
    8.8373   -3.9484    0.1481 C   0  0  0  0  0  0  0  0  0  0  0  0
   -0.0737    0.5998   -0.1481 N   0  0  0  0  0  0  0  0  0  0  0  0
   -1.0631   -0.1960   -0.7384 C   0  0  0  0  0  0  0  0  0  0  0  0
   -0.9540   -0.6626   -1.9120 O   0  0  0  0  0  0  0  0  0  0  0  0
   -2.2806   -0.5053    0.0365 C   0  0  2  0  0  0  0  0  0  0  0  0
   -3.1202   -1.5216   -0.5215 N   0  0  0  0  0  0  0  0  0  0  0  0
   -3.6057   -1.4217   -1.8830 C   0  0  0  0  0  0  0  0  0  0  0  0
   -4.9930   -1.9240   -2.0577 C   0  0  0  0  0  0  0  0  0  0  0  0
   -5.7397   -1.0596   -2.8462 C   0  0  0  0  0  0  0  0  0  0  0  0
   -7.0777   -1.3382   -3.1466 C   0  0  0  0  0  0  0  0  0  0  0  0
   -7.6737   -2.4808   -2.6598 C   0  0  0  0  0  0  0  0  0  0  0  0
   -6.9476   -3.3556   -1.8716 C   0  0  0  0  0  0  0  0  0  0  0  0
   -5.6347   -3.0543   -1.5943 C   0  0  0  0  0  0  0  0  0  0  0  0
   -4.9805   -4.0887   -0.7375 C   0  0  0  0  0  0  0  0  0  0  0  0
   -4.6157   -3.4532    0.5713 C   0  0  1  0  0  0  0  0  0  0  0  0
   -3.3601   -2.6402    0.3620 C   0  0  0  0  0  0  0  0  0  0  0  0
   -2.3479   -2.9845    1.0701 O   0  0  0  0  0  0  0  0  0  0  0  0
   -5.6962   -2.6267    1.1082 N   0  0  0  0  0  0  0  0  0  0  0  0
   -6.1079   -2.8208    2.4651 C   0  0  0  0  0  0  0  0  0  0  0  0
   -5.5989   -3.6651    3.2294 O   0  0  0  0  0  0  0  0  0  0  0  0
   -7.2150   -1.9619    3.0133 C   0  0  0  0  0  0  0  0  0  0  0  0
   -3.0219    0.7270    0.5182 C   0  0  0  0  0  0  0  0  0  0  0  0
   -3.5249    1.6604   -0.4545 C   0  0  0  0  0  0  0  0  0  0  0  0
   -4.8351    1.6068   -0.9460 C   0  0  0  0  0  0  0  0  0  0  0  0
   -5.2895    2.5376   -1.8771 C   0  0  0  0  0  0  0  0  0  0  0  0
   -4.4849    3.5465   -2.3572 C   0  0  0  0  0  0  0  0  0  0  0  0
   -3.1938    3.6060   -1.8774 C   0  0  0  0  0  0  0  0  0  0  0  0
   -2.7246    2.6735   -0.9399 C   0  0  0  0  0  0  0  0  0  0  0  0
    2.4142    6.2928    4.0804 N   0  0  0  0  0  0  0  0  0  0  0  0
    4.1515    6.3959    1.6668 H   0  0  0  0  0  0  0  0  0  0  0  0
    2.6304    7.2577    1.0700 H   0  0  0  0  0  0  0  0  0  0  0  0
    0.8929    5.0319    0.4869 H   0  0  0  0  0  0  0  0  0  0  0  0
    2.6509    4.6259    0.5069 H   0  0  0  0  0  0  0  0  0  0  0  0
    2.1935    2.4302    1.5006 H   0  0  0  0  0  0  0  0  0  0  0  0
    0.4687    2.7570    1.3950 H   0  0  0  0  0  0  0  0  0  0  0  0
    2.3490    2.8062   -1.0232 H   0  0  0  0  0  0  0  0  0  0  0  0
    0.6152    3.0892   -1.0638 H   0  0  0  0  0  0  0  0  0  0  0  0
    1.1803    0.8116   -1.8480 H   0  0  0  0  0  0  0  0  0  0  0  0
    3.9165    1.3969   -0.9710 H   0  0  0  0  0  0  0  0  0  0  0  0
    4.4231   -1.1700    0.4209 H   0  0  0  0  0  0  0  0  0  0  0  0
    6.9688    0.4816    2.7355 H   0  0  0  0  0  0  0  0  0  0  0  0
    6.5010   -1.1806    2.2143 H   0  0  0  0  0  0  0  0  0  0  0  0
    5.4557   -0.5703   -1.7860 H   0  0  0  0  0  0  0  0  0  0  0  0
    6.2486    0.8439   -1.0700 H   0  0  0  0  0  0  0  0  0  0  0  0
    8.5537    0.6342    0.1018 H   0  0  0  0  0  0  0  0  0  0  0  0
   10.1077   -1.4675    0.6141 H   0  0  0  0  0  0  0  0  0  0  0  0
    5.2805   -3.1253   -1.0575 H   0  0  0  0  0  0  0  0  0  0  0  0
    5.9555   -5.5000   -0.8511 H   0  0  0  0  0  0  0  0  0  0  0  0
    8.2097   -6.0209   -0.0921 H   0  0  0  0  0  0  0  0  0  0  0  0
    9.8269   -4.2489    0.4874 H   0  0  0  0  0  0  0  0  0  0  0  0
   -0.2580    0.9365    0.8369 H   0  0  0  0  0  0  0  0  0  0  0  0
   -1.9142   -0.9418    1.0355 H   0  0  0  0  0  0  0  0  0  0  0  0
   -3.5270   -0.4141   -2.3186 H   0  0  0  0  0  0  0  0  0  0  0  0
   -2.9050   -2.0288   -2.5677 H   0  0  0  0  0  0  0  0  0  0  0  0
   -5.2894   -0.1407   -3.2472 H   0  0  0  0  0  0  0  0  0  0  0  0
   -7.6401   -0.6402   -3.7722 H   0  0  0  0  0  0  0  0  0  0  0  0
   -8.7202   -2.7019   -2.8953 H   0  0  0  0  0  0  0  0  0  0  0  0
   -7.3590   -4.2757   -1.4554 H   0  0  0  0  0  0  0  0  0  0  0  0
   -4.0823   -4.5054   -1.2040 H   0  0  0  0  0  0  0  0  0  0  0  0
   -5.6665   -4.9472   -0.5440 H   0  0  0  0  0  0  0  0  0  0  0  0
   -4.3839   -4.1742    1.3844 H   0  0  0  0  0  0  0  0  0  0  0  0
   -6.1939   -1.8975    0.5650 H   0  0  0  0  0  0  0  0  0  0  0  0
   -6.7437   -0.9691    3.2057 H   0  0  0  0  0  0  0  0  0  0  0  0
   -7.6334   -2.4117    3.9488 H   0  0  0  0  0  0  0  0  0  0  0  0
   -7.9582   -1.8438    2.2048 H   0  0  0  0  0  0  0  0  0  0  0  0
   -2.4115    1.1844    1.3292 H   0  0  0  0  0  0  0  0  0  0  0  0
   -3.9196    0.3085    1.0714 H   0  0  0  0  0  0  0  0  0  0  0  0
   -5.5123    0.8309   -0.6002 H   0  0  0  0  0  0  0  0  0  0  0  0
   -6.2994    2.4974   -2.2569 H   0  0  0  0  0  0  0  0  0  0  0  0
   -4.8269    4.2650   -3.0735 H   0  0  0  0  0  0  0  0  0  0  0  0
   -2.5407    4.3952   -2.2419 H   0  0  0  0  0  0  0  0  0  0  0  0
   -1.6956    2.8225   -0.6370 H   0  0  0  0  0  0  0  0  0  0  0  0
    3.2992    6.7369    4.4668 H   0  0  0  0  0  0  0  0  0  0  0  0
    1.5597    6.1335    4.6409 H   0  0  0  0  0  0  0  0  0  0  0  0
  1  2  1  0
  2  3  2  3
  3  4  1  0
  4  5  1  0
  5  6  1  0
  6  7  1  0
  7  8  1  0
  8  9  2  0
  8 10  1  0
 10 11  1  0
 11 12  1  0
 12 13  2  0
 12 14  1  0
 11 15  1  0
 15 16  1  0
 16 17  2  0
 17 18  1  0
 18 19  1  0
 19 20  2  0
 20 21  1  0
 21 22  2  0
 22 23  1  0
 23 24  2  0
  7 25  1  0
 25 26  1  0
 26 27  2  0
 26 28  1  0
 28 29  1  0
 29 30  1  0
 30 31  1  0
 31 32  2  0
 32 33  1  0
 33 34  2  0
 34 35  1  0
 35 36  2  0
 36 37  1  0
 37 38  1  0
 38 39  1  0
 39 40  2  0
 38 41  1  0
 41 42  1  0
 42 43  2  0
 42 44  1  0
 28 45  1  0
 45 46  1  0
 46 47  2  0
 47 48  1  0
 48 49  2  0
 49 50  1  0
 50 51  2  0
  2 52  1  0
 20 16  1  0
 39 29  1  0
 51 46  1  0
 24 19  1  0
 36 31  1  0
  1 53  1  0
  1 54  1  0
  4 55  1  0
  4 56  1  0
  5 57  1  0
  5 58  1  0
  6 59  1  0
  6 60  1  0
  7 61  1  6
 10 62  1  0
 11 63  1  1
 14 64  1  0
 14 65  1  0
 15 66  1  0
 15 67  1  0
 17 68  1  0
 18 69  1  0
 21 70  1  0
 22 71  1  0
 23 72  1  0
 24 73  1  0
 25 74  1  0
 28 75  1  1
 30 76  1  0
 30 77  1  0
 32 78  1  0
 33 79  1  0
 34 80  1  0
 35 81  1  0
 37 82  1  0
 37 83  1  0
 38 84  1  1
 41 85  1  0
 44 86  1  0
 44 87  1  0
 44 88  1  0
 45 89  1  0
 45 90  1  0
 47 91  1  0
 48 92  1  0
 49 93  1  0
 50 94  1  0
 51 95  1  0
 52 96  1  0
 52 97  1  0
M  END
>  <Ligand ID>  (1) 
LIG0003321

>  <Ligand>  (1) 
CHEMBL3421679

>  <SMILES>  (1) 
NC(=NCCC[C@@H](C(=O)N[C@H](C(=O)N)Cc1c[nH]c2c1cccc2)NC(=O)[C@H](N1Cc2ccccc2C[C@@H](C1=O)NC(=O)C)Cc1ccccc1)N

>  <CID>  (1) 
118735102.0

>  <ChEMBL ID>  (1) 
nan

>  <InChiKey>  (1) 
MNSNXOUQPSOGHN-ZWDYZTTJSA-N

>  <InChi>  (1) 
InChI=1S/C38H45N9O5/c1-23(48)44-32-19-25-12-5-6-13-26(25)22-47(37(32)52)33(18-24-10-3-2-4-11-24)36(51)45-30(16-9-17-42-38(40)41)35(50)46-31(34(39)49)20-27-21-43-29-15-8-7-14-28(27)29/h2-8,10-15,21,30-33,43H,9,16-20,22H2,1H3,(H2,39,49)(H,44,48)(H,45,51)(H,46,50)(H4,40,41,42)/t30-,31-,32-,33+/m0/s1

>  <IUPAC Name>  (1) 
(2S)-2-[[(2R)-2-[(4S)-4-acetamido-3-oxo-4,5-dihydro-1H-2-benzazepin-2-yl]-3-phenylpropanoyl]amino]-N-[(2S)-1-amino-3-(1H-indol-3-yl)-1-oxopropan-2-yl]-5-(diaminomethylideneamino)pentanamide

$$$$
