
     RDKit          3D

136138  0  0  0  0  0  0  0  0999 V2000
   10.7174   -1.9162   -2.7489 N   0  0  0  0  0  0  0  0  0  0  0  0
   10.5222   -0.5545   -2.3182 C   0  0  0  0  0  0  0  0  0  0  0  0
    9.7071   -0.4838   -1.0234 C   0  0  0  0  0  0  0  0  0  0  0  0
    8.3558   -1.0857   -1.1978 C   0  0  0  0  0  0  0  0  0  0  0  0
    7.5438   -1.0364    0.0765 C   0  0  1  0  0  0  0  0  0  0  0  0
    7.3941    0.3930    0.5377 C   0  0  0  0  0  0  0  0  0  0  0  0
    6.3152    1.0093    0.3192 O   0  0  0  0  0  0  0  0  0  0  0  0
    8.4728    1.0321    1.2192 N   0  0  0  0  0  0  0  0  0  0  0  0
    8.3022    2.3964    1.6236 C   0  0  0  0  0  0  0  0  0  0  0  0
    8.0829    3.3001    0.4650 C   0  0  0  0  0  0  0  0  0  0  0  0
    8.0536    2.8068   -0.6996 O   0  0  0  0  0  0  0  0  0  0  0  0
    7.9063    4.7014    0.6390 N   0  0  0  0  0  0  0  0  0  0  0  0
    6.1869   -1.5233   -0.2567 N   0  0  0  0  0  0  0  0  0  0  0  0
    5.5204   -2.5041    0.4994 C   0  0  0  0  0  0  0  0  0  0  0  0
    6.0512   -3.0160    1.5256 O   0  0  0  0  0  0  0  0  0  0  0  0
    4.1591   -2.9091    0.0314 C   0  0  2  0  0  0  0  0  0  0  0  0
    4.1530   -4.4093   -0.0992 C   0  0  0  0  0  0  0  0  0  0  0  0
    4.2812   -4.6581   -1.5724 C   0  0  0  0  0  0  0  0  0  0  0  0
    4.6794   -3.3230   -2.1809 C   0  0  0  0  0  0  0  0  0  0  0  0
    3.8944   -2.4342   -1.2877 N   0  0  0  0  0  0  0  0  0  0  0  0
    3.1233   -1.3897   -1.8358 C   0  0  0  0  0  0  0  0  0  0  0  0
    3.2227   -1.3124   -3.1358 O   0  0  0  0  0  0  0  0  0  0  0  0
    2.2672   -0.4287   -1.2119 C   0  0  2  0  0  0  0  0  0  0  0  0
    2.4637    1.0222   -1.6387 C   0  0  0  0  0  0  0  0  0  0  0  0
    2.2598    1.3099   -3.3854 S   0  0  0  0  0  0  0  0  0  0  0  0
    0.3367    0.7897   -4.0838 S   0  0  0  0  0  0  0  0  0  0  0  0
   -0.8261    2.1787   -3.9015 C   0  0  0  0  0  0  0  0  0  0  0  0
   -1.1378    2.3780   -2.4122 C   0  0  2  0  0  0  0  0  0  0  0  0
   -1.7102    1.0766   -2.0031 N   0  0  0  0  0  0  0  0  0  0  0  0
   -2.1785    3.4249   -2.3082 C   0  0  0  0  0  0  0  0  0  0  0  0
   -2.0178    4.6367   -2.4258 O   0  0  0  0  0  0  0  0  0  0  0  0
   -3.5725    3.0526   -2.0420 N   0  0  0  0  0  0  0  0  0  0  0  0
   -4.5741    4.0852   -1.8320 C   0  0  1  0  0  0  0  0  0  0  0  0
   -5.4822    4.1055   -3.0254 C   0  0  0  0  0  0  0  0  0  0  0  0
   -6.1839    2.8478   -3.3054 C   0  0  0  0  0  0  0  0  0  0  0  0
   -5.6167    1.9483   -4.2171 C   0  0  0  0  0  0  0  0  0  0  0  0
   -6.2616    0.7364   -4.4936 C   0  0  0  0  0  0  0  0  0  0  0  0
   -7.4556    0.3993   -3.8878 C   0  0  0  0  0  0  0  0  0  0  0  0
   -8.0227    1.2842   -2.9858 C   0  0  0  0  0  0  0  0  0  0  0  0
   -7.3758    2.4728   -2.7230 C   0  0  0  0  0  0  0  0  0  0  0  0
   -5.2769    3.9103   -0.5420 C   0  0  0  0  0  0  0  0  0  0  0  0
   -6.0174    4.7430    0.0001 O   0  0  0  0  0  0  0  0  0  0  0  0
   -5.1517    2.6750    0.2301 N   0  0  0  0  0  0  0  0  0  0  0  0
   -5.7623    2.5617    1.5548 C   0  0  2  0  0  0  0  0  0  0  0  0
   -4.9542    1.7064    2.4646 C   0  0  0  0  0  0  0  0  0  0  0  0
   -5.1368    1.6987    3.6920 O   0  0  0  0  0  0  0  0  0  0  0  0
   -3.9305    0.8395    2.0037 N   0  0  0  0  0  0  0  0  0  0  0  0
   -3.0901    0.0011    2.8325 C   0  0  2  0  0  0  0  0  0  0  0  0
   -1.6746    0.0876    2.4504 C   0  0  0  0  0  0  0  0  0  0  0  0
   -1.2667    1.0767    1.8165 O   0  0  0  0  0  0  0  0  0  0  0  0
   -0.6760   -0.8927    2.7283 N   0  0  0  0  0  0  0  0  0  0  0  0
    0.7181   -0.6540    2.3736 C   0  0  2  0  0  0  0  0  0  0  0  0
    0.9142   -0.7150    0.9028 C   0  0  0  0  0  0  0  0  0  0  0  0
   -0.0388   -1.0024    0.1732 O   0  0  0  0  0  0  0  0  0  0  0  0
    2.1511   -0.4599    0.2479 N   0  0  0  0  0  0  0  0  0  0  0  0
    1.5798   -1.5793    3.1338 C   0  0  0  0  0  0  0  0  0  0  0  0
    1.4468   -1.4222    4.6111 C   0  0  0  0  0  0  0  0  0  0  0  0
    0.6811   -0.5405    5.0992 O   0  0  0  0  0  0  0  0  0  0  0  0
    2.2006   -2.2904    5.4301 N   0  0  0  0  0  0  0  0  0  0  0  0
   -3.6148   -1.3823    3.0693 C   0  0  0  0  0  0  0  0  0  0  0  0
   -3.8360   -2.2316    1.8655 C   0  0  0  0  0  0  0  0  0  0  0  0
   -4.3424   -3.5467    2.3893 C   0  0  0  0  0  0  0  0  0  0  0  0
   -4.4092   -3.5979    3.6681 O   0  0  0  0  0  0  0  0  0  0  0  0
   -4.7114   -4.6347    1.5798 N   0  0  0  0  0  0  0  0  0  0  0  0
   -5.1739   -5.8404    2.2569 C   0  0  0  0  0  0  0  0  0  0  0  0
   -7.1439    1.9040    1.3466 C   0  0  2  0  0  0  0  0  0  0  0  0
   -7.8073    1.7640    2.6673 C   0  0  0  0  0  0  0  0  0  0  0  0
   -9.1823    1.1184    2.4511 C   0  0  0  0  0  0  0  0  0  0  0  0
   -6.9739    0.5814    0.6457 C   0  0  0  0  0  0  0  0  0  0  0  0
   11.5967   -1.9058   -3.3281 H   0  0  0  0  0  0  0  0  0  0  0  0
   10.9119   -2.5062   -1.9225 H   0  0  0  0  0  0  0  0  0  0  0  0
   10.0416    0.0805   -3.0976 H   0  0  0  0  0  0  0  0  0  0  0  0
   11.5101   -0.1110   -2.1022 H   0  0  0  0  0  0  0  0  0  0  0  0
   10.2648   -1.0340   -0.2579 H   0  0  0  0  0  0  0  0  0  0  0  0
    9.6570    0.6105   -0.8138 H   0  0  0  0  0  0  0  0  0  0  0  0
    7.7810   -0.6994   -2.0684 H   0  0  0  0  0  0  0  0  0  0  0  0
    8.5214   -2.1778   -1.3989 H   0  0  0  0  0  0  0  0  0  0  0  0
    7.9595   -1.6059    0.8871 H   0  0  0  0  0  0  0  0  0  0  0  0
    9.3765    0.5386    1.4470 H   0  0  0  0  0  0  0  0  0  0  0  0
    7.3878    2.4653    2.2855 H   0  0  0  0  0  0  0  0  0  0  0  0
    9.1325    2.7048    2.2778 H   0  0  0  0  0  0  0  0  0  0  0  0
    7.1299    5.0019    1.2646 H   0  0  0  0  0  0  0  0  0  0  0  0
    8.5361    5.4091    0.1557 H   0  0  0  0  0  0  0  0  0  0  0  0
    5.7822   -1.0558   -1.1094 H   0  0  0  0  0  0  0  0  0  0  0  0
    3.3972   -2.5653    0.7727 H   0  0  0  0  0  0  0  0  0  0  0  0
    3.1748   -4.7979    0.3035 H   0  0  0  0  0  0  0  0  0  0  0  0
    4.9998   -4.8363    0.4934 H   0  0  0  0  0  0  0  0  0  0  0  0
    3.2524   -4.8511   -1.9728 H   0  0  0  0  0  0  0  0  0  0  0  0
    4.9698   -5.4790   -1.8022 H   0  0  0  0  0  0  0  0  0  0  0  0
    5.7530   -3.2050   -2.0654 H   0  0  0  0  0  0  0  0  0  0  0  0
    4.3992   -3.2195   -3.2288 H   0  0  0  0  0  0  0  0  0  0  0  0
    1.2062   -0.6646   -1.5656 H   0  0  0  0  0  0  0  0  0  0  0  0
    3.5293    1.2651   -1.3823 H   0  0  0  0  0  0  0  0  0  0  0  0
    1.7634    1.6703   -1.0687 H   0  0  0  0  0  0  0  0  0  0  0  0
   -0.2949    3.0823   -4.3021 H   0  0  0  0  0  0  0  0  0  0  0  0
   -1.7313    2.0470   -4.5110 H   0  0  0  0  0  0  0  0  0  0  0  0
   -0.2317    2.5990   -1.8574 H   0  0  0  0  0  0  0  0  0  0  0  0
   -2.3465    0.7905   -2.8036 H   0  0  0  0  0  0  0  0  0  0  0  0
   -0.8882    0.4033   -2.0914 H   0  0  0  0  0  0  0  0  0  0  0  0
   -3.7233    2.0536   -2.0342 H   0  0  0  0  0  0  0  0  0  0  0  0
   -4.0935    5.1032   -1.8014 H   0  0  0  0  0  0  0  0  0  0  0  0
   -4.8690    4.3567   -3.9333 H   0  0  0  0  0  0  0  0  0  0  0  0
   -6.2117    4.9696   -2.9525 H   0  0  0  0  0  0  0  0  0  0  0  0
   -4.6888    2.2217   -4.6818 H   0  0  0  0  0  0  0  0  0  0  0  0
   -5.7727    0.0948   -5.2046 H   0  0  0  0  0  0  0  0  0  0  0  0
   -7.8937   -0.5495   -4.1463 H   0  0  0  0  0  0  0  0  0  0  0  0
   -8.9476    0.9901   -2.5331 H   0  0  0  0  0  0  0  0  0  0  0  0
   -7.8263    3.1639   -2.0067 H   0  0  0  0  0  0  0  0  0  0  0  0
   -4.6308    1.9597   -0.2526 H   0  0  0  0  0  0  0  0  0  0  0  0
   -5.9870    3.5124    2.0176 H   0  0  0  0  0  0  0  0  0  0  0  0
   -3.7792    0.8049    0.9983 H   0  0  0  0  0  0  0  0  0  0  0  0
   -3.2385    0.4939    3.8722 H   0  0  0  0  0  0  0  0  0  0  0  0
   -1.0279   -1.7427    3.1769 H   0  0  0  0  0  0  0  0  0  0  0  0
    0.9963    0.4169    2.6009 H   0  0  0  0  0  0  0  0  0  0  0  0
    2.9380   -0.2889    0.8854 H   0  0  0  0  0  0  0  0  0  0  0  0
    2.6677   -1.3940    2.8825 H   0  0  0  0  0  0  0  0  0  0  0  0
    1.4267   -2.6461    2.9116 H   0  0  0  0  0  0  0  0  0  0  0  0
    1.6999   -3.0257    6.0140 H   0  0  0  0  0  0  0  0  0  0  0  0
    3.2312   -2.2906    5.5288 H   0  0  0  0  0  0  0  0  0  0  0  0
   -2.9532   -1.8686    3.8196 H   0  0  0  0  0  0  0  0  0  0  0  0
   -4.6170   -1.2730    3.5782 H   0  0  0  0  0  0  0  0  0  0  0  0
   -4.5904   -1.7646    1.2137 H   0  0  0  0  0  0  0  0  0  0  0  0
   -2.9364   -2.4252    1.2656 H   0  0  0  0  0  0  0  0  0  0  0  0
   -4.6388   -4.5381    0.5520 H   0  0  0  0  0  0  0  0  0  0  0  0
   -5.8107   -5.5048    3.1028 H   0  0  0  0  0  0  0  0  0  0  0  0
   -5.6902   -6.5275    1.5758 H   0  0  0  0  0  0  0  0  0  0  0  0
   -4.3214   -6.3791    2.7441 H   0  0  0  0  0  0  0  0  0  0  0  0
   -7.7046    2.5767    0.7050 H   0  0  0  0  0  0  0  0  0  0  0  0
   -7.2741    1.0435    3.3475 H   0  0  0  0  0  0  0  0  0  0  0  0
   -7.8710    2.7013    3.2276 H   0  0  0  0  0  0  0  0  0  0  0  0
   -9.4861    1.2074    1.3959 H   0  0  0  0  0  0  0  0  0  0  0  0
   -9.9590    1.5476    3.1007 H   0  0  0  0  0  0  0  0  0  0  0  0
   -9.1434    0.0270    2.6637 H   0  0  0  0  0  0  0  0  0  0  0  0
   -7.9609    0.2640    0.2605 H   0  0  0  0  0  0  0  0  0  0  0  0
   -6.6369   -0.1900    1.3614 H   0  0  0  0  0  0  0  0  0  0  0  0
   -6.2943    0.6648   -0.2326 H   0  0  0  0  0  0  0  0  0  0  0  0
  1  2  1  0
  2  3  1  0
  3  4  1  0
  4  5  1  0
  5  6  1  0
  6  7  2  0
  6  8  1  0
  8  9  1  0
  9 10  1  0
 10 11  2  0
 10 12  1  0
  5 13  1  0
 13 14  1  0
 14 15  2  0
 14 16  1  0
 16 17  1  0
 17 18  1  0
 18 19  1  0
 19 20  1  0
 20 21  1  0
 21 22  2  0
 21 23  1  0
 23 24  1  0
 24 25  1  0
 25 26  1  0
 26 27  1  0
 27 28  1  0
 28 29  1  0
 28 30  1  0
 30 31  2  0
 30 32  1  0
 32 33  1  0
 33 34  1  0
 34 35  1  0
 35 36  2  0
 36 37  1  0
 37 38  2  0
 38 39  1  0
 39 40  2  0
 33 41  1  0
 41 42  2  0
 41 43  1  0
 43 44  1  0
 44 45  1  0
 45 46  2  0
 45 47  1  0
 47 48  1  0
 48 49  1  0
 49 50  2  0
 49 51  1  0
 51 52  1  0
 52 53  1  0
 53 54  2  0
 53 55  1  0
 52 56  1  0
 56 57  1  0
 57 58  2  0
 57 59  1  0
 48 60  1  0
 60 61  1  0
 61 62  1  0
 62 63  2  0
 62 64  1  0
 64 65  1  0
 44 66  1  0
 66 67  1  0
 67 68  1  0
 66 69  1  0
 20 16  1  0
 55 23  1  0
 40 35  1  0
  1 70  1  0
  1 71  1  0
  2 72  1  0
  2 73  1  0
  3 74  1  0
  3 75  1  0
  4 76  1  0
  4 77  1  0
  5 78  1  1
  8 79  1  0
  9 80  1  0
  9 81  1  0
 12 82  1  0
 12 83  1  0
 13 84  1  0
 16 85  1  1
 17 86  1  0
 17 87  1  0
 18 88  1  0
 18 89  1  0
 19 90  1  0
 19 91  1  0
 23 92  1  6
 24 93  1  0
 24 94  1  0
 27 95  1  0
 27 96  1  0
 28 97  1  1
 29 98  1  0
 29 99  1  0
 32100  1  0
 33101  1  1
 34102  1  0
 34103  1  0
 36104  1  0
 37105  1  0
 38106  1  0
 39107  1  0
 40108  1  0
 43109  1  0
 44110  1  1
 47111  1  0
 48112  1  1
 51113  1  0
 52114  1  1
 55115  1  0
 56116  1  0
 56117  1  0
 59118  1  0
 59119  1  0
 60120  1  0
 60121  1  0
 61122  1  0
 61123  1  0
 64124  1  0
 65125  1  0
 65126  1  0
 65127  1  0
 66128  1  6
 67129  1  0
 67130  1  0
 68131  1  0
 68132  1  0
 68133  1  0
 69134  1  0
 69135  1  0
 69136  1  0
M  END
>  <Ligand ID>  (1) 
LIG0003539

>  <Ligand>  (1) 
CHEMBL1819557

>  <SMILES>  (1) 
NCCC[C@@H](C(=O)NCC(=O)N)NC(=O)[C@@H]1CCCN1C(=O)[C@@H]1CSSC[C@H](N)C(=O)N[C@@H](Cc2ccccc2)C(=O)N[C@H](C(=O)N[C@H](C(=O)N[C@H](C(=O)N1)CC(=O)N)CCC(=O)NC)[C@H](CC)C

>  <CID>  (1) 
53363016.0

>  <ChEMBL ID>  (1) 
nan

>  <InChiKey>  (1) 
NJKNLFQKMONKSH-GHDRINTISA-N

>  <InChi>  (1) 
InChI=1S/C43H67N13O11S2/c1-4-23(2)35-42(66)51-27(14-15-34(59)48-3)38(62)53-29(19-32(46)57)39(63)54-30(22-69-68-21-25(45)36(60)52-28(40(64)55-35)18-24-10-6-5-7-11-24)43(67)56-17-9-13-31(56)41(65)50-26(12-8-16-44)37(61)49-20-33(47)58/h5-7,10-11,23,25-31,35H,4,8-9,12-22,44-45H2,1-3H3,(H2,46,57)(H2,47,58)(H,48,59)(H,49,61)(H,50,65)(H,51,66)(H,52,60)(H,53,62)(H,54,63)(H,55,64)/t23-,25-,26-,27-,28-,29-,30-,31-,35-/m0/s1

>  <IUPAC Name>  (1) 
(2S)-N-[(2S)-5-amino-1-[(2-amino-2-oxoethyl)amino]-1-oxopentan-2-yl]-1-[(4R,7S,10S,13S,16S,19R)-19-amino-7-(2-amino-2-oxoethyl)-16-benzyl-13-[(2S)-butan-2-yl]-10-[3-(methylamino)-3-oxopropyl]-6,9,12,15,18-pentaoxo-1,2-dithia-5,8,11,14,17-pentazacycloicosane-4-carbonyl]pyrrolidine-2-carboxamide

$$$$
