
     RDKit          3D

 25 26  0  0  0  0  0  0  0  0999 V2000
    3.1966    1.6247    1.3421 O   0  0  0  0  0  0  0  0  0  0  0  0
    2.2479    0.8510    1.6940 C   0  0  0  0  0  0  0  0  0  0  0  0
    1.3902    0.3551    0.6232 C   0  0  0  0  0  0  0  0  0  0  0  0
    1.6324    0.7225   -0.6262 C   0  0  0  0  0  0  0  0  0  0  0  0
    0.6987    0.3111   -1.7071 C   0  0  0  0  0  0  0  0  0  0  0  0
   -0.2796   -0.6832   -1.1513 C   0  0  1  0  0  0  0  0  0  0  0  0
    0.3924   -1.6581   -0.1944 C   0  0  0  0  0  0  0  0  0  0  0  0
    0.2474   -0.5489    0.8564 C   0  0  2  0  0  0  0  0  0  0  0  0
   -0.9656   -0.0982    0.0660 C   0  0  0  0  0  0  0  0  0  0  0  0
   -2.1868   -0.9106    0.4485 C   0  0  0  0  0  0  0  0  0  0  0  0
   -1.1997    1.3855    0.0094 C   0  0  0  0  0  0  0  0  0  0  0  0
    2.1153    0.6003    2.7164 H   0  0  0  0  0  0  0  0  0  0  0  0
    2.5006    1.3173   -0.8665 H   0  0  0  0  0  0  0  0  0  0  0  0
    0.0938    1.2189   -1.9899 H   0  0  0  0  0  0  0  0  0  0  0  0
    1.2566   -0.1018   -2.5565 H   0  0  0  0  0  0  0  0  0  0  0  0
   -0.9581   -1.1530   -1.8771 H   0  0  0  0  0  0  0  0  0  0  0  0
   -0.2558   -2.5018    0.0639 H   0  0  0  0  0  0  0  0  0  0  0  0
    1.4479   -1.8973   -0.4257 H   0  0  0  0  0  0  0  0  0  0  0  0
    0.0641   -0.8775    1.8773 H   0  0  0  0  0  0  0  0  0  0  0  0
   -2.1237   -1.1431    1.5378 H   0  0  0  0  0  0  0  0  0  0  0  0
   -2.2688   -1.8207   -0.1746 H   0  0  0  0  0  0  0  0  0  0  0  0
   -3.1055   -0.3326    0.2748 H   0  0  0  0  0  0  0  0  0  0  0  0
   -1.6442    1.7084   -0.9544 H   0  0  0  0  0  0  0  0  0  0  0  0
   -1.9729    1.6298    0.7849 H   0  0  0  0  0  0  0  0  0  0  0  0
   -0.3232    2.0021    0.2292 H   0  0  0  0  0  0  0  0  0  0  0  0
  1  2  2  0
  2  3  1  0
  3  4  2  0
  4  5  1  0
  5  6  1  0
  6  7  1  0
  7  8  1  0
  8  9  1  0
  9 10  1  0
  9 11  1  0
  8  3  1  0
  9  6  1  0
  2 12  1  0
  4 13  1  0
  5 14  1  0
  5 15  1  0
  6 16  1  6
  7 17  1  0
  7 18  1  0
  8 19  1  1
 10 20  1  0
 10 21  1  0
 10 22  1  0
 11 23  1  0
 11 24  1  0
 11 25  1  0
M  END
>  <Ligand ID>  (1) 
LIG0002098

>  <Ligand>  (1) 
(-)-Myrtenal

>  <SMILES>  (1) 
O=CC1=CC[C@H]2C[C@@H]1C2(C)C

>  <CID>  (1) 
1201529.0

>  <ChEMBL ID>  (1) 
nan

>  <InChiKey>  (1) 
KMRMUZKLFIEVAO-IUCAKERBSA-N

>  <InChi>  (1) 
InChI=1S/C10H14O/c1-10(2)8-4-3-7(6-11)9(10)5-8/h3,6,8-9H,4-5H2,1-2H3/t8-,9-/m0/s1

>  <IUPAC Name>  (1) 
(1R,5S)-6,6-dimethylbicyclo[3.1.1]hept-2-ene-2-carbaldehyde

$$$$
