
     RDKit          3D

 34 34  0  0  0  0  0  0  0  0999 V2000
    4.8043    0.7996   -0.8532 C   0  0  0  0  0  0  0  0  0  0  0  0
    3.5740    1.0861   -1.2644 C   0  0  0  0  0  0  0  0  0  0  0  0
    2.5651    1.6813   -0.3139 C   0  0  0  0  0  0  0  0  0  0  0  0
    1.4457    0.8244   -0.2021 O   0  0  0  0  0  0  0  0  0  0  0  0
    0.4125    1.2208    0.6389 C   0  0  0  0  0  0  0  0  0  0  0  0
    0.4449    2.4044    1.3556 C   0  0  0  0  0  0  0  0  0  0  0  0
   -0.6411    2.6959    2.1618 C   0  0  0  0  0  0  0  0  0  0  0  0
   -1.7280    1.8530    2.2637 C   0  0  0  0  0  0  0  0  0  0  0  0
   -1.7694    0.6554    1.5434 C   0  0  0  0  0  0  0  0  0  0  0  0
   -0.6850    0.3669    0.7401 C   0  0  0  0  0  0  0  0  0  0  0  0
   -0.7064   -0.8908   -0.0290 C   0  0  2  0  0  0  0  0  0  0  0  0
   -1.3438   -0.7517   -1.4502 C   0  0  0  0  0  0  0  0  0  0  0  0
   -1.9263   -1.6341   -0.3467 C   0  0  1  0  0  0  0  0  0  0  0  0
   -1.8243   -3.1223   -0.5894 C   0  0  0  0  0  0  0  0  0  0  0  0
   -3.1183   -3.7202   -0.8936 N   0  0  0  0  0  0  0  0  0  0  0  0
   -2.7736    2.1573    3.0546 F   0  0  0  0  0  0  0  0  0  0  0  0
    0.6919    0.0000    0.0000 Cl  0  0  0  0  0  0  0  0  0  0  0  0
    5.5468    0.3674   -1.5322 H   0  0  0  0  0  0  0  0  0  0  0  0
    5.1466    0.9707    0.1578 H   0  0  0  0  0  0  0  0  0  0  0  0
    3.3086    0.8874   -2.2843 H   0  0  0  0  0  0  0  0  0  0  0  0
    3.0660    1.8688    0.6364 H   0  0  0  0  0  0  0  0  0  0  0  0
    2.3174    2.6747   -0.7493 H   0  0  0  0  0  0  0  0  0  0  0  0
    1.3036    3.0556    1.2660 H   0  0  0  0  0  0  0  0  0  0  0  0
   -0.6588    3.6099    2.7399 H   0  0  0  0  0  0  0  0  0  0  0  0
   -2.6206   -0.0076    1.6214 H   0  0  0  0  0  0  0  0  0  0  0  0
    0.2414   -1.4654   -0.0168 H   0  0  0  0  0  0  0  0  0  0  0  0
   -0.7735   -1.2052   -2.2725 H   0  0  0  0  0  0  0  0  0  0  0  0
   -1.9077    0.1916   -1.6307 H   0  0  0  0  0  0  0  0  0  0  0  0
   -2.9256   -1.3382    0.0447 H   0  0  0  0  0  0  0  0  0  0  0  0
   -1.3783   -3.6184    0.3217 H   0  0  0  0  0  0  0  0  0  0  0  0
   -1.0831   -3.2949   -1.3910 H   0  0  0  0  0  0  0  0  0  0  0  0
   -2.9612   -4.7681   -0.8287 H   0  0  0  0  0  0  0  0  0  0  0  0
   -3.3519   -3.5548   -1.8980 H   0  0  0  0  0  0  0  0  0  0  0  0
   -0.6919    0.0000    0.0000 H   0  0  0  0  0  0  0  0  0  0  0  0
  1  2  2  0
  2  3  1  0
  3  4  1  0
  4  5  1  0
  5  6  2  0
  6  7  1  0
  7  8  2  0
  8  9  1  0
  9 10  2  0
 10 11  1  0
 11 12  1  0
 12 13  1  0
 13 14  1  0
 14 15  1  0
  8 16  1  0
 10  5  1  0
 13 11  1  0
  1 18  1  0
  1 19  1  0
  2 20  1  0
  3 21  1  0
  3 22  1  0
  6 23  1  0
  7 24  1  0
  9 25  1  0
 11 26  1  6
 12 27  1  0
 12 28  1  0
 13 29  1  1
 14 30  1  0
 14 31  1  0
 15 32  1  0
 15 33  1  0
 17 34  1  0
M  END
>  <Ligand ID>  (1) 
LIG0005653

>  <Ligand>  (1) 
CHEMBL3416062

>  <SMILES>  (1) 
C=CCOc1ccc(cc1[C@@H]1C[C@H]1CN)F.Cl

>  <CID>  (1) 
118733819.0

>  <ChEMBL ID>  (1) 
nan

>  <InChiKey>  (1) 
MNIAWGCBQVLINM-QLSWKGBWSA-N

>  <InChi>  (1) 
InChI=1S/C13H16FNO.ClH/c1-2-5-16-13-4-3-10(14)7-12(13)11-6-9(11)8-15;/h2-4,7,9,11H,1,5-6,8,15H2;1H/t9-,11+;/m0./s1

>  <IUPAC Name>  (1) 
[(1R,2R)-2-(5-fluoro-2-prop-2-enoxyphenyl)cyclopropyl]methanamine;hydrochloride

$$$$
