
     RDKit          3D

208214  0  0  0  0  0  0  0  0999 V2000
    9.6767    6.9812   -1.0657 N   0  0  0  0  0  0  0  0  0  0  0  0
    9.0716    7.9401   -0.2318 C   0  0  0  0  0  0  0  0  0  0  0  0
    8.9994    9.1312   -0.7300 O   0  0  0  0  0  0  0  0  0  0  0  0
    8.5149    7.7856    1.1016 C   0  0  0  0  0  0  0  0  0  0  0  0
    8.5621    6.4624    1.6346 N   0  0  0  0  0  0  0  0  0  0  0  0
    7.8418    5.3351    1.0811 C   0  0  0  0  0  0  0  0  0  0  0  0
    7.1539    5.5758    0.0715 O   0  0  0  0  0  0  0  0  0  0  0  0
    7.9614    4.0009    1.7319 C   0  0  1  0  0  0  0  0  0  0  0  0
    7.1527    3.0687    0.9602 N   0  0  0  0  0  0  0  0  0  0  0  0
    5.8617    2.6119    1.3485 C   0  0  0  0  0  0  0  0  0  0  0  0
    5.2515    2.9666    2.3846 O   0  0  0  0  0  0  0  0  0  0  0  0
    5.2751    1.6188    0.3659 C   0  0  1  0  0  0  0  0  0  0  0  0
    3.9265    1.2595    0.6421 N   0  0  0  0  0  0  0  0  0  0  0  0
    3.4039    0.6738    1.7981 C   0  0  0  0  0  0  0  0  0  0  0  0
    4.1688    0.4108    2.7760 O   0  0  0  0  0  0  0  0  0  0  0  0
    1.9227    0.3120    1.9730 C   0  0  2  0  0  0  0  0  0  0  0  0
    1.3152    0.8803    3.1529 C   0  0  0  0  0  0  0  0  0  0  0  0
    0.3338    2.4061    2.8741 S   0  0  0  0  0  0  0  0  0  0  0  0
   -1.5315    2.0896    2.1484 S   0  0  0  0  0  0  0  0  0  0  0  0
   -1.8807    2.0897    0.3866 C   0  0  0  0  0  0  0  0  0  0  0  0
   -1.0670    1.0466   -0.3037 C   0  0  0  0  0  0  0  0  0  0  0  0
   -1.4706    3.4305   -0.2288 C   0  0  0  0  0  0  0  0  0  0  0  0
   -3.3646    1.8594    0.1550 C   0  0  1  0  0  0  0  0  0  0  0  0
   -4.2189    3.0018    0.2404 N   0  0  0  0  0  0  0  0  0  0  0  0
   -4.6609    3.4804    1.5518 C   0  0  0  0  0  0  0  0  0  0  0  0
   -4.1471    2.7969    2.4935 O   0  0  0  0  0  0  0  0  0  0  0  0
   -5.5497    4.5679    1.8091 C   0  0  2  0  0  0  0  0  0  0  0  0
   -6.5451    4.1035    2.8941 C   0  0  0  0  0  0  0  0  0  0  0  0
   -7.3782    2.9462    2.4704 C   0  0  0  0  0  0  0  0  0  0  0  0
   -5.7433    3.6981    4.1101 C   0  0  0  0  0  0  0  0  0  0  0  0
   -6.2300    5.1432    0.6776 N   0  0  0  0  0  0  0  0  0  0  0  0
   -7.4350    5.8298    0.6761 C   0  0  0  0  0  0  0  0  0  0  0  0
   -8.1614    6.0456    1.7348 O   0  0  0  0  0  0  0  0  0  0  0  0
   -8.1039    6.4286   -0.5457 C   0  0  2  0  0  0  0  0  0  0  0  0
   -8.0397    7.9330   -0.2345 C   0  0  0  0  0  0  0  0  0  0  0  0
   -8.6185    8.8322   -1.2086 C   0  0  0  0  0  0  0  0  0  0  0  0
   -7.8229    9.2485   -2.3030 C   0  0  0  0  0  0  0  0  0  0  0  0
   -8.4234   10.1290   -3.1791 C   0  0  0  0  0  0  0  0  0  0  0  0
   -9.7154   10.5931   -3.0174 C   0  0  0  0  0  0  0  0  0  0  0  0
  -10.4941   10.2073   -1.9802 C   0  0  0  0  0  0  0  0  0  0  0  0
   -9.9172    9.3107   -1.0674 C   0  0  0  0  0  0  0  0  0  0  0  0
  -10.1782   11.4957   -4.0054 O   0  0  0  0  0  0  0  0  0  0  0  0
   -9.5163    6.1328   -0.5141 N   0  0  0  0  0  0  0  0  0  0  0  0
   -3.6403    0.8422   -0.8441 C   0  0  0  0  0  0  0  0  0  0  0  0
   -3.0300   -0.2586   -0.7803 O   0  0  0  0  0  0  0  0  0  0  0  0
   -4.5596    0.9405   -1.9312 N   0  0  0  0  0  0  0  0  0  0  0  0
   -4.8074   -0.1309   -2.8730 C   0  0  0  0  0  0  0  0  0  0  0  0
   -5.4062   -1.3316   -2.2898 C   0  0  0  0  0  0  0  0  0  0  0  0
   -5.6421   -2.2988   -3.0426 O   0  0  0  0  0  0  0  0  0  0  0  0
   -5.7665   -1.5303   -0.9271 N   0  0  0  0  0  0  0  0  0  0  0  0
   -6.4017   -2.7916   -0.5304 C   0  0  2  0  0  0  0  0  0  0  0  0
   -5.4882   -3.9237   -0.7140 C   0  0  0  0  0  0  0  0  0  0  0  0
   -5.6921   -4.7393   -1.6192 O   0  0  0  0  0  0  0  0  0  0  0  0
   -4.3327   -4.1832    0.1039 N   0  0  0  0  0  0  0  0  0  0  0  0
   -3.5063   -5.3592   -0.2193 C   0  0  1  0  0  0  0  0  0  0  0  0
   -2.2038   -5.3917    0.4470 C   0  0  0  0  0  0  0  0  0  0  0  0
   -2.0401   -4.8194    1.5371 O   0  0  0  0  0  0  0  0  0  0  0  0
   -1.0451   -6.0396   -0.0861 N   0  0  0  0  0  0  0  0  0  0  0  0
    0.2169   -6.2413    0.4626 C   0  0  2  0  0  0  0  0  0  0  0  0
    1.2220   -5.1812    0.6011 C   0  0  0  0  0  0  0  0  0  0  0  0
    2.2916   -5.6086    1.2069 O   0  0  0  0  0  0  0  0  0  0  0  0
    1.2943   -3.8320    0.2392 N   0  0  0  0  0  0  0  0  0  0  0  0
    2.6117   -3.1863    0.4118 C   0  0  2  0  0  0  0  0  0  0  0  0
    2.6572   -1.8656    0.9481 C   0  0  0  0  0  0  0  0  0  0  0  0
    3.7736   -1.2608    0.8057 O   0  0  0  0  0  0  0  0  0  0  0  0
    1.7038   -1.0740    1.6335 N   0  0  0  0  0  0  0  0  0  0  0  0
    3.2260   -3.2947   -0.9836 C   0  0  0  0  0  0  0  0  0  0  0  0
    4.6052   -2.8102   -1.1115 C   0  0  0  0  0  0  0  0  0  0  0  0
    5.1760   -1.6452   -1.5779 C   0  0  0  0  0  0  0  0  0  0  0  0
    6.5055   -1.7165   -1.4656 N   0  0  0  0  0  0  0  0  0  0  0  0
    6.8711   -2.8902   -0.9408 C   0  0  0  0  0  0  0  0  0  0  0  0
    5.7065   -3.5763   -0.7159 C   0  0  0  0  0  0  0  0  0  0  0  0
    5.8190   -4.8377   -0.1496 C   0  0  0  0  0  0  0  0  0  0  0  0
    7.0285   -5.4176    0.1860 C   0  0  0  0  0  0  0  0  0  0  0  0
    8.1743   -4.7005   -0.0611 C   0  0  0  0  0  0  0  0  0  0  0  0
    8.1350   -3.4211   -0.6296 C   0  0  0  0  0  0  0  0  0  0  0  0
    0.9873   -7.3885   -0.1467 C   0  0  0  0  0  0  0  0  0  0  0  0
    0.5857   -8.7642   -0.0968 C   0  0  0  0  0  0  0  0  0  0  0  0
    0.5469   -9.3857    1.3098 C   0  0  0  0  0  0  0  0  0  0  0  0
    0.2257  -10.7945    1.2018 N   0  0  0  0  0  0  0  0  0  0  0  0
    0.5350  -11.7261    2.0032 C   0  0  0  0  0  0  0  0  0  0  0  0
    1.2769  -11.5737    3.2013 N   0  0  0  0  0  0  0  0  0  0  0  0
    0.1126  -13.0500    1.6673 N   0  0  0  0  0  0  0  0  0  0  0  0
   -4.4206   -6.4840    0.3833 C   0  0  0  0  0  0  0  0  0  0  0  0
   -3.9583   -7.8321    0.2616 C   0  0  0  0  0  0  0  0  0  0  0  0
   -3.2589   -8.4477    1.2718 C   0  0  0  0  0  0  0  0  0  0  0  0
   -2.8539   -9.7761    1.1009 C   0  0  0  0  0  0  0  0  0  0  0  0
   -3.1412  -10.4811   -0.0737 C   0  0  0  0  0  0  0  0  0  0  0  0
   -3.8389   -9.8447   -1.0822 C   0  0  0  0  0  0  0  0  0  0  0  0
   -4.2386   -8.5489   -0.9126 C   0  0  0  0  0  0  0  0  0  0  0  0
   -7.7779   -2.9549   -1.0447 C   0  0  0  0  0  0  0  0  0  0  0  0
   -8.3546   -4.2274   -0.6105 C   0  0  0  0  0  0  0  0  0  0  0  0
   -9.6507   -4.6225   -0.9102 C   0  0  0  0  0  0  0  0  0  0  0  0
   -9.8164   -5.8296   -0.3441 N   0  0  0  0  0  0  0  0  0  0  0  0
   -8.7174   -6.2121    0.2877 C   0  0  0  0  0  0  0  0  0  0  0  0
   -7.8066   -5.2204    0.1235 N   0  0  0  0  0  0  0  0  0  0  0  0
    5.3745    2.1960   -1.0263 C   0  0  0  0  0  0  0  0  0  0  0  0
    4.5948    3.4407   -1.0382 C   0  0  0  0  0  0  0  0  0  0  0  0
    4.5027    4.2642   -2.2573 C   0  0  0  0  0  0  0  0  0  0  0  0
    5.5501    4.9572   -2.7429 N   0  0  0  0  0  0  0  0  0  0  0  0
    6.7764    4.8389   -3.0505 C   0  0  0  0  0  0  0  0  0  0  0  0
    7.6113    3.7331   -2.9693 N   0  0  0  0  0  0  0  0  0  0  0  0
    7.3649    6.0711   -3.5759 N   0  0  0  0  0  0  0  0  0  0  0  0
    9.3513    3.5188    1.8908 C   0  0  0  0  0  0  0  0  0  0  0  0
   10.1374    3.3465    0.6569 C   0  0  0  0  0  0  0  0  0  0  0  0
   10.0992    2.2438   -0.1510 C   0  0  0  0  0  0  0  0  0  0  0  0
   10.8493    2.0724   -1.3147 C   0  0  0  0  0  0  0  0  0  0  0  0
   11.6915    3.1570   -1.6190 C   0  0  0  0  0  0  0  0  0  0  0  0
   11.7359    4.2381   -0.8368 C   0  0  0  0  0  0  0  0  0  0  0  0
   10.9898    4.4167    0.3265 C   0  0  0  0  0  0  0  0  0  0  0  0
   10.7206    7.1328   -1.2636 H   0  0  0  0  0  0  0  0  0  0  0  0
    9.2389    6.1571   -1.5182 H   0  0  0  0  0  0  0  0  0  0  0  0
    9.0723    8.4797    1.8097 H   0  0  0  0  0  0  0  0  0  0  0  0
    7.4234    8.1376    1.1260 H   0  0  0  0  0  0  0  0  0  0  0  0
    9.1531    6.2638    2.4952 H   0  0  0  0  0  0  0  0  0  0  0  0
    7.5266    4.0788    2.7799 H   0  0  0  0  0  0  0  0  0  0  0  0
    7.5745    2.7422    0.0664 H   0  0  0  0  0  0  0  0  0  0  0  0
    5.9243    0.7059    0.4462 H   0  0  0  0  0  0  0  0  0  0  0  0
    3.2019    1.4255   -0.1472 H   0  0  0  0  0  0  0  0  0  0  0  0
    1.5265    0.8579    1.0344 H   0  0  0  0  0  0  0  0  0  0  0  0
    2.1321    1.1897    3.8699 H   0  0  0  0  0  0  0  0  0  0  0  0
    0.5864    0.2148    3.6931 H   0  0  0  0  0  0  0  0  0  0  0  0
   -0.9739    0.0776    0.2031 H   0  0  0  0  0  0  0  0  0  0  0  0
   -1.3701    0.8508   -1.3621 H   0  0  0  0  0  0  0  0  0  0  0  0
    0.0004    1.4258   -0.4378 H   0  0  0  0  0  0  0  0  0  0  0  0
   -0.4557    3.3489   -0.6583 H   0  0  0  0  0  0  0  0  0  0  0  0
   -1.4113    4.1999    0.5878 H   0  0  0  0  0  0  0  0  0  0  0  0
   -2.1795    3.6723   -1.0110 H   0  0  0  0  0  0  0  0  0  0  0  0
   -3.6018    1.2477    1.1649 H   0  0  0  0  0  0  0  0  0  0  0  0
   -4.5467    3.5128   -0.5705 H   0  0  0  0  0  0  0  0  0  0  0  0
   -5.0573    5.4206    2.3349 H   0  0  0  0  0  0  0  0  0  0  0  0
   -7.1161    4.9950    3.2748 H   0  0  0  0  0  0  0  0  0  0  0  0
   -7.0086    1.9438    2.8026 H   0  0  0  0  0  0  0  0  0  0  0  0
   -7.5330    2.8749    1.3786 H   0  0  0  0  0  0  0  0  0  0  0  0
   -8.4238    2.9676    2.9147 H   0  0  0  0  0  0  0  0  0  0  0  0
   -6.2255    4.0300    5.0766 H   0  0  0  0  0  0  0  0  0  0  0  0
   -4.7337    4.1987    4.1218 H   0  0  0  0  0  0  0  0  0  0  0  0
   -5.5906    2.6243    4.2395 H   0  0  0  0  0  0  0  0  0  0  0  0
   -5.7292    5.0301   -0.2498 H   0  0  0  0  0  0  0  0  0  0  0  0
   -7.6348    6.1376   -1.4626 H   0  0  0  0  0  0  0  0  0  0  0  0
   -6.9551    8.2101   -0.1005 H   0  0  0  0  0  0  0  0  0  0  0  0
   -8.4947    8.0744    0.8037 H   0  0  0  0  0  0  0  0  0  0  0  0
   -6.8517    8.8430   -2.3727 H   0  0  0  0  0  0  0  0  0  0  0  0
   -7.8461   10.4677   -4.0393 H   0  0  0  0  0  0  0  0  0  0  0  0
  -11.5070   10.5710   -1.8782 H   0  0  0  0  0  0  0  0  0  0  0  0
  -10.5685    9.0287   -0.2476 H   0  0  0  0  0  0  0  0  0  0  0  0
  -10.8961   12.1886   -3.7316 H   0  0  0  0  0  0  0  0  0  0  0  0
   -9.7986    5.7770    0.3882 H   0  0  0  0  0  0  0  0  0  0  0  0
  -10.1111    6.8305   -0.9401 H   0  0  0  0  0  0  0  0  0  0  0  0
   -5.0459    1.8531   -1.9758 H   0  0  0  0  0  0  0  0  0  0  0  0
   -5.4931    0.2713   -3.6577 H   0  0  0  0  0  0  0  0  0  0  0  0
   -3.8853   -0.3969   -3.4442 H   0  0  0  0  0  0  0  0  0  0  0  0
   -5.5830   -0.7445   -0.3061 H   0  0  0  0  0  0  0  0  0  0  0  0
   -6.5359   -2.7238    0.6077 H   0  0  0  0  0  0  0  0  0  0  0  0
   -4.1790   -3.5233    0.8355 H   0  0  0  0  0  0  0  0  0  0  0  0
   -3.5390   -5.5814   -1.2832 H   0  0  0  0  0  0  0  0  0  0  0  0
   -1.2220   -6.4168   -1.0655 H   0  0  0  0  0  0  0  0  0  0  0  0
    0.0370   -6.5143    1.5548 H   0  0  0  0  0  0  0  0  0  0  0  0
    0.4665   -3.3780   -0.1077 H   0  0  0  0  0  0  0  0  0  0  0  0
    3.3067   -3.8078    1.0359 H   0  0  0  0  0  0  0  0  0  0  0  0
    0.8212   -1.5375    1.8725 H   0  0  0  0  0  0  0  0  0  0  0  0
    3.1364   -4.3291   -1.3886 H   0  0  0  0  0  0  0  0  0  0  0  0
    2.5446   -2.6997   -1.6696 H   0  0  0  0  0  0  0  0  0  0  0  0
    4.5449   -0.8372   -1.9670 H   0  0  0  0  0  0  0  0  0  0  0  0
    7.1763   -0.9696   -1.7465 H   0  0  0  0  0  0  0  0  0  0  0  0
    4.9067   -5.3808    0.0214 H   0  0  0  0  0  0  0  0  0  0  0  0
    7.0240   -6.3997    0.6203 H   0  0  0  0  0  0  0  0  0  0  0  0
    9.1109   -5.1530    0.2059 H   0  0  0  0  0  0  0  0  0  0  0  0
    9.0356   -2.8607   -0.8338 H   0  0  0  0  0  0  0  0  0  0  0  0
    1.1555   -7.1020   -1.2347 H   0  0  0  0  0  0  0  0  0  0  0  0
    2.0644   -7.3335    0.2576 H   0  0  0  0  0  0  0  0  0  0  0  0
    1.3970   -9.3734   -0.6180 H   0  0  0  0  0  0  0  0  0  0  0  0
   -0.3256   -9.0678   -0.6552 H   0  0  0  0  0  0  0  0  0  0  0  0
   -0.2515   -8.9130    1.9405 H   0  0  0  0  0  0  0  0  0  0  0  0
    1.5395   -9.2826    1.7533 H   0  0  0  0  0  0  0  0  0  0  0  0
    2.3258  -11.4343    3.2066 H   0  0  0  0  0  0  0  0  0  0  0  0
    0.7772  -11.6049    4.1128 H   0  0  0  0  0  0  0  0  0  0  0  0
    0.6623  -13.5338    0.9228 H   0  0  0  0  0  0  0  0  0  0  0  0
   -0.7295  -13.4900    2.1586 H   0  0  0  0  0  0  0  0  0  0  0  0
   -5.3884   -6.4111   -0.1824 H   0  0  0  0  0  0  0  0  0  0  0  0
   -4.6368   -6.1515    1.4070 H   0  0  0  0  0  0  0  0  0  0  0  0
   -3.0151   -7.9376    2.1741 H   0  0  0  0  0  0  0  0  0  0  0  0
   -2.3331  -10.2248    1.9125 H   0  0  0  0  0  0  0  0  0  0  0  0
   -2.8227  -11.4978   -0.2016 H   0  0  0  0  0  0  0  0  0  0  0  0
   -4.0603  -10.3738   -1.9918 H   0  0  0  0  0  0  0  0  0  0  0  0
   -4.8147   -8.0305   -1.6845 H   0  0  0  0  0  0  0  0  0  0  0  0
   -8.4084   -2.0777   -0.7452 H   0  0  0  0  0  0  0  0  0  0  0  0
   -7.8346   -2.9507   -2.1761 H   0  0  0  0  0  0  0  0  0  0  0  0
  -10.3961   -4.1112   -1.4699 H   0  0  0  0  0  0  0  0  0  0  0  0
  -10.7013   -6.3805   -0.3969 H   0  0  0  0  0  0  0  0  0  0  0  0
   -8.5268   -7.1215    0.8453 H   0  0  0  0  0  0  0  0  0  0  0  0
    4.7932    1.4483   -1.6677 H   0  0  0  0  0  0  0  0  0  0  0  0
    6.3850    2.1744   -1.4184 H   0  0  0  0  0  0  0  0  0  0  0  0
    3.5189    3.1746   -0.7670 H   0  0  0  0  0  0  0  0  0  0  0  0
    4.8689    4.0849   -0.1372 H   0  0  0  0  0  0  0  0  0  0  0  0
    3.9534    3.6948   -3.0780 H   0  0  0  0  0  0  0  0  0  0  0  0
    3.6611    5.0618   -1.9943 H   0  0  0  0  0  0  0  0  0  0  0  0
    7.6938    2.9042   -3.6021 H   0  0  0  0  0  0  0  0  0  0  0  0
    8.2740    3.6862   -2.1397 H   0  0  0  0  0  0  0  0  0  0  0  0
    8.1816    5.9272   -4.2329 H   0  0  0  0  0  0  0  0  0  0  0  0
    7.0100    7.0045   -3.3114 H   0  0  0  0  0  0  0  0  0  0  0  0
    9.8759    4.2333    2.5582 H   0  0  0  0  0  0  0  0  0  0  0  0
    9.2758    2.5439    2.4556 H   0  0  0  0  0  0  0  0  0  0  0  0
    9.4514    1.3864    0.0877 H   0  0  0  0  0  0  0  0  0  0  0  0
   10.8145    1.1830   -1.9170 H   0  0  0  0  0  0  0  0  0  0  0  0
   12.3255    3.1158   -2.5046 H   0  0  0  0  0  0  0  0  0  0  0  0
   12.4057    5.0723   -1.0739 H   0  0  0  0  0  0  0  0  0  0  0  0
   11.0451    5.2869    0.9404 H   0  0  0  0  0  0  0  0  0  0  0  0
  1  2  1  0
  2  3  2  0
  2  4  1  0
  4  5  1  0
  5  6  1  0
  6  7  2  0
  6  8  1  0
  8  9  1  0
  9 10  1  0
 10 11  2  0
 10 12  1  0
 12 13  1  0
 13 14  1  0
 14 15  2  0
 14 16  1  0
 16 17  1  0
 17 18  1  0
 18 19  1  0
 19 20  1  0
 20 21  1  0
 20 22  1  0
 20 23  1  0
 23 24  1  0
 24 25  1  0
 25 26  2  0
 25 27  1  0
 27 28  1  0
 28 29  1  0
 28 30  1  0
 27 31  1  0
 31 32  1  0
 32 33  2  0
 32 34  1  0
 34 35  1  0
 35 36  1  0
 36 37  2  0
 37 38  1  0
 38 39  2  0
 39 40  1  0
 40 41  2  0
 39 42  1  0
 34 43  1  0
 23 44  1  0
 44 45  2  0
 44 46  1  0
 46 47  1  0
 47 48  1  0
 48 49  2  0
 48 50  1  0
 50 51  1  0
 51 52  1  0
 52 53  2  0
 52 54  1  0
 54 55  1  0
 55 56  1  0
 56 57  2  0
 56 58  1  0
 58 59  1  0
 59 60  1  0
 60 61  2  0
 60 62  1  0
 62 63  1  0
 63 64  1  0
 64 65  2  0
 64 66  1  0
 63 67  1  0
 67 68  1  0
 68 69  2  0
 69 70  1  0
 70 71  1  0
 71 72  2  0
 72 73  1  0
 73 74  2  0
 74 75  1  0
 75 76  2  0
 59 77  1  0
 77 78  1  0
 78 79  1  0
 79 80  1  0
 80 81  2  3
 81 82  1  0
 81 83  1  0
 55 84  1  0
 84 85  1  0
 85 86  2  0
 86 87  1  0
 87 88  2  0
 88 89  1  0
 89 90  2  0
 51 91  1  0
 91 92  1  0
 92 93  2  0
 93 94  1  0
 94 95  1  0
 95 96  2  0
 12 97  1  0
 97 98  1  0
 98 99  1  0
 99100  1  0
100101  2  3
101102  1  0
101103  1  0
  8104  1  0
104105  1  0
105106  2  0
106107  1  0
107108  2  0
108109  1  0
109110  2  0
 66 16  1  0
 72 68  1  0
 90 85  1  0
 96 92  1  0
110105  1  0
 41 36  1  0
 76 71  1  0
  1111  1  0
  1112  1  0
  4113  1  0
  4114  1  0
  5115  1  0
  8116  1  1
  9117  1  0
 12118  1  6
 13119  1  0
 16120  1  6
 17121  1  0
 17122  1  0
 21123  1  0
 21124  1  0
 21125  1  0
 22126  1  0
 22127  1  0
 22128  1  0
 23129  1  1
 24130  1  0
 27131  1  1
 28132  1  0
 29133  1  0
 29134  1  0
 29135  1  0
 30136  1  0
 30137  1  0
 30138  1  0
 31139  1  0
 34140  1  6
 35141  1  0
 35142  1  0
 37143  1  0
 38144  1  0
 40145  1  0
 41146  1  0
 42147  1  0
 43148  1  0
 43149  1  0
 46150  1  0
 47151  1  0
 47152  1  0
 50153  1  0
 51154  1  1
 54155  1  0
 55156  1  6
 58157  1  0
 59158  1  1
 62159  1  0
 63160  1  1
 66161  1  0
 67162  1  0
 67163  1  0
 69164  1  0
 70165  1  0
 73166  1  0
 74167  1  0
 75168  1  0
 76169  1  0
 77170  1  0
 77171  1  0
 78172  1  0
 78173  1  0
 79174  1  0
 79175  1  0
 82176  1  0
 82177  1  0
 83178  1  0
 83179  1  0
 84180  1  0
 84181  1  0
 86182  1  0
 87183  1  0
 88184  1  0
 89185  1  0
 90186  1  0
 91187  1  0
 91188  1  0
 93189  1  0
 94190  1  0
 95191  1  0
 97192  1  0
 97193  1  0
 98194  1  0
 98195  1  0
 99196  1  0
 99197  1  0
102198  1  0
102199  1  0
103200  1  0
103201  1  0
104202  1  0
104203  1  0
106204  1  0
107205  1  0
108206  1  0
109207  1  0
110208  1  0
M  END
>  <Ligand ID>  (1) 
LIG0003414

>  <Ligand>  (1) 
CID 44363975

>  <SMILES>  (1) 
NC(=O)CNC(=O)[C@@H](NC(=O)[C@@H](NC(=O)[C@@H]1CSSC(C)(C)[C@@H](NC(=O)[C@H](C(C)C)NC(=O)[C@H](Cc2ccc(cc2)O)N)C(=O)NCC(=O)N[C@H](C(=O)N[C@@H](C(=O)N[C@H](C(=O)N[C@H](C(=O)N1)Cc1c[nH]c2c1cccc2)CCCN=C(N)N)Cc1ccccc1)Cc1c[nH]cn1)CCCN=C(N)N)Cc1ccccc1

>  <CID>  (1) 
44363975.0

>  <ChEMBL ID>  (1) 
nan

>  <InChiKey>  (1) 
AVXIGOUSBQQJBP-YEUVXTHWSA-N

>  <InChi>  (1) 
InChI=1S/C73H98N22O13S2/c1-40(2)59(94-61(99)48(74)29-43-23-25-46(96)26-24-43)69(107)95-60-70(108)85-37-58(98)87-55(33-45-35-80-39-86-45)67(105)91-53(31-42-17-9-6-10-18-42)65(103)88-50(21-13-27-81-71(76)77)64(102)92-54(32-44-34-83-49-20-12-11-19-47(44)49)66(104)93-56(38-109-110-73(60,3)4)68(106)89-51(22-14-28-82-72(78)79)63(101)90-52(62(100)84-36-57(75)97)30-41-15-7-5-8-16-41/h5-12,15-20,23-26,34-35,39-40,48,50-56,59-60,83,96H,13-14,21-22,27-33,36-38,74H2,1-4H3,(H2,75,97)(H,80,86)(H,84,100)(H,85,108)(H,87,98)(H,88,103)(H,89,106)(H,90,101)(H,91,105)(H,92,102)(H,93,104)(H,94,99)(H,95,107)(H4,76,77,81)(H4,78,79,82)/t48-,50-,51-,52-,53+,54-,55-,56-,59-,60-/m0/s1

>  <IUPAC Name>  (1) 
(4R,7S,10S,13R,16S,22S)-22-[[(2S)-2-[[(2S)-2-amino-3-(4-hydroxyphenyl)propanoyl]amino]-3-methylbutanoyl]amino]-N-[(2S)-1-[[(2S)-1-[(2-amino-2-oxoethyl)amino]-1-oxo-3-phenylpropan-2-yl]amino]-5-(diaminomethylideneamino)-1-oxopentan-2-yl]-13-benzyl-10-[3-(diaminomethylideneamino)propyl]-16-(1H-imidazol-4-ylmethyl)-7-(1H-indol-3-ylmethyl)-23,23-dimethyl-6,9,12,15,18,21-hexaoxo-1,2-dithia-5,8,11,14,17,20-hexazacyclotricosane-4-carboxamide

$$$$
