
     RDKit          3D

 87 89  0  0  0  0  0  0  0  0999 V2000
   -5.6114   -2.2745   -2.6964 C   0  0  0  0  0  0  0  0  0  0  0  0
   -5.1928   -1.6147   -1.3640 C   0  0  0  0  0  0  0  0  0  0  0  0
   -3.7618   -1.2109   -1.5612 C   0  0  0  0  0  0  0  0  0  0  0  0
   -3.0931   -0.5313   -0.4235 C   0  0  0  0  0  0  0  0  0  0  0  0
   -1.6833   -0.1895   -0.7107 N   0  0  0  0  0  0  0  0  0  0  0  0
   -0.9145   -1.3222   -1.1555 C   0  0  0  0  0  0  0  0  0  0  0  0
    0.4508   -0.7446   -1.5670 C   0  0  0  0  0  0  0  0  0  0  0  0
    1.1125   -0.4802   -0.2905 N   0  0  0  0  0  0  0  0  0  0  0  0
    0.2880   -0.1291    0.8117 C   0  0  0  0  0  0  0  0  0  0  0  0
   -1.0970    0.3487    0.4759 C   0  0  0  0  0  0  0  0  0  0  0  0
    2.5197   -0.6147   -0.2829 C   0  0  0  0  0  0  0  0  0  0  0  0
    3.0359   -0.9586   -1.4075 O   0  0  0  0  0  0  0  0  0  0  0  0
    3.4154   -0.4058    0.8563 C   0  0  2  0  0  0  0  0  0  0  0  0
    3.3737    1.0426    1.2873 C   0  0  0  0  0  0  0  0  0  0  0  0
    4.7358    1.5059    1.4387 N   0  0  0  0  0  0  0  0  0  0  0  0
    5.5906    0.3736    1.3194 C   0  0  0  0  0  0  0  0  0  0  0  0
    4.8489   -0.5831    0.4145 C   0  0  1  0  0  0  0  0  0  0  0  0
    5.3443   -1.9542    0.4308 C   0  0  0  0  0  0  0  0  0  0  0  0
    4.9580   -2.9440    1.3047 C   0  0  0  0  0  0  0  0  0  0  0  0
    5.4756   -4.2327    1.2616 C   0  0  0  0  0  0  0  0  0  0  0  0
    6.4192   -4.5736    0.3171 C   0  0  0  0  0  0  0  0  0  0  0  0
    6.8244   -3.6004   -0.5710 C   0  0  0  0  0  0  0  0  0  0  0  0
    6.3047   -2.3313   -0.5173 C   0  0  0  0  0  0  0  0  0  0  0  0
    6.7331   -1.3870   -1.4200 F   0  0  0  0  0  0  0  0  0  0  0  0
    6.9368   -5.8181    0.2536 F   0  0  0  0  0  0  0  0  0  0  0  0
    5.0751    2.6592    0.6851 C   0  0  0  0  0  0  0  0  0  0  0  0
    4.9328    2.5463   -0.7999 C   0  0  0  0  0  0  0  0  0  0  0  0
    4.1086    3.7701    1.1183 C   0  0  0  0  0  0  0  0  0  0  0  0
    6.4522    3.1451    1.0210 C   0  0  0  0  0  0  0  0  0  0  0  0
   -3.7131    0.8340   -0.1300 C   0  0  0  0  0  0  0  0  0  0  0  0
   -5.0688    0.8465    0.2304 N   0  0  0  0  0  0  0  0  0  0  0  0
   -5.3959    0.7504    1.9247 S   0  0  0  0  0  0  0  0  0  0  0  0
   -6.9036    0.8174    2.0704 O   0  0  0  0  0  0  0  0  0  0  0  0
   -4.8747    1.9558    2.6551 O   0  0  0  0  0  0  0  0  0  0  0  0
   -4.8256   -0.7059    2.6990 C   0  0  0  0  0  0  0  0  0  0  0  0
   -5.7088    2.0709   -0.2022 C   0  0  0  0  0  0  0  0  0  0  0  0
   -4.7225    3.0737   -0.7551 C   0  0  0  0  0  0  0  0  0  0  0  0
   -6.7874    1.8965   -1.2187 C   0  0  0  0  0  0  0  0  0  0  0  0
   -5.3862   -2.6762   -0.3303 C   0  0  0  0  0  0  0  0  0  0  0  0
   -4.8548   -3.0757   -2.9112 H   0  0  0  0  0  0  0  0  0  0  0  0
   -6.6375   -2.6615   -2.6067 H   0  0  0  0  0  0  0  0  0  0  0  0
   -5.5312   -1.5461   -3.5186 H   0  0  0  0  0  0  0  0  0  0  0  0
   -5.9083   -0.8145   -1.2142 H   0  0  0  0  0  0  0  0  0  0  0  0
   -3.2113   -2.0735   -1.9895 H   0  0  0  0  0  0  0  0  0  0  0  0
   -3.7801   -0.4656   -2.4123 H   0  0  0  0  0  0  0  0  0  0  0  0
   -3.0781   -1.0868    0.5259 H   0  0  0  0  0  0  0  0  0  0  0  0
   -1.2858   -1.8034   -2.0644 H   0  0  0  0  0  0  0  0  0  0  0  0
   -0.8274   -2.0765   -0.3749 H   0  0  0  0  0  0  0  0  0  0  0  0
    0.9752   -1.4844   -2.1846 H   0  0  0  0  0  0  0  0  0  0  0  0
    0.2701    0.2327   -2.0371 H   0  0  0  0  0  0  0  0  0  0  0  0
    0.8309    0.5980    1.4493 H   0  0  0  0  0  0  0  0  0  0  0  0
    0.1607   -1.0399    1.4662 H   0  0  0  0  0  0  0  0  0  0  0  0
   -1.7876    0.1036    1.3399 H   0  0  0  0  0  0  0  0  0  0  0  0
   -1.0294    1.4719    0.4829 H   0  0  0  0  0  0  0  0  0  0  0  0
    3.1770   -1.0856    1.7112 H   0  0  0  0  0  0  0  0  0  0  0  0
    2.9509    1.0562    2.3344 H   0  0  0  0  0  0  0  0  0  0  0  0
    2.7953    1.6442    0.5813 H   0  0  0  0  0  0  0  0  0  0  0  0
    5.6881   -0.1128    2.3100 H   0  0  0  0  0  0  0  0  0  0  0  0
    6.6053    0.5920    0.9788 H   0  0  0  0  0  0  0  0  0  0  0  0
    4.8732   -0.2385   -0.6475 H   0  0  0  0  0  0  0  0  0  0  0  0
    4.2344   -2.7443    2.0595 H   0  0  0  0  0  0  0  0  0  0  0  0
    5.1500   -4.9791    1.9603 H   0  0  0  0  0  0  0  0  0  0  0  0
    7.5762   -3.8295   -1.3418 H   0  0  0  0  0  0  0  0  0  0  0  0
    3.8757    2.3440   -1.1149 H   0  0  0  0  0  0  0  0  0  0  0  0
    5.1192    3.5867   -1.2022 H   0  0  0  0  0  0  0  0  0  0  0  0
    5.6762    1.9203   -1.3047 H   0  0  0  0  0  0  0  0  0  0  0  0
    4.6220    4.7258    0.8828 H   0  0  0  0  0  0  0  0  0  0  0  0
    3.2020    3.7328    0.4623 H   0  0  0  0  0  0  0  0  0  0  0  0
    3.8691    3.6704    2.1854 H   0  0  0  0  0  0  0  0  0  0  0  0
    6.4695    4.2571    0.9450 H   0  0  0  0  0  0  0  0  0  0  0  0
    6.6617    2.7994    2.0611 H   0  0  0  0  0  0  0  0  0  0  0  0
    7.2253    2.7859    0.3026 H   0  0  0  0  0  0  0  0  0  0  0  0
   -3.6454    1.3494   -1.1431 H   0  0  0  0  0  0  0  0  0  0  0  0
   -3.0308    1.3894    0.5060 H   0  0  0  0  0  0  0  0  0  0  0  0
   -5.3036   -1.6365    2.3402 H   0  0  0  0  0  0  0  0  0  0  0  0
   -5.1645   -0.6393    3.7814 H   0  0  0  0  0  0  0  0  0  0  0  0
   -3.7218   -0.7696    2.7863 H   0  0  0  0  0  0  0  0  0  0  0  0
   -6.2099    2.5278    0.7227 H   0  0  0  0  0  0  0  0  0  0  0  0
   -3.7565    3.1081   -0.2455 H   0  0  0  0  0  0  0  0  0  0  0  0
   -5.1901    4.1030   -0.6487 H   0  0  0  0  0  0  0  0  0  0  0  0
   -4.5357    2.9570   -1.8455 H   0  0  0  0  0  0  0  0  0  0  0  0
   -6.3879    1.6717   -2.2300 H   0  0  0  0  0  0  0  0  0  0  0  0
   -7.3209    2.8661   -1.2929 H   0  0  0  0  0  0  0  0  0  0  0  0
   -7.5613    1.1648   -0.9061 H   0  0  0  0  0  0  0  0  0  0  0  0
   -5.6540   -3.6839   -0.7468 H   0  0  0  0  0  0  0  0  0  0  0  0
   -4.5246   -2.7591    0.3744 H   0  0  0  0  0  0  0  0  0  0  0  0
   -6.2653   -2.4058    0.2873 H   0  0  0  0  0  0  0  0  0  0  0  0
  1  2  1  0
  2  3  1  0
  3  4  1  0
  4  5  1  0
  5  6  1  0
  6  7  1  0
  7  8  1  0
  8  9  1  0
  9 10  1  0
  8 11  1  0
 11 12  2  0
 11 13  1  0
 13 14  1  0
 14 15  1  0
 15 16  1  0
 16 17  1  0
 17 18  1  0
 18 19  2  0
 19 20  1  0
 20 21  2  0
 21 22  1  0
 22 23  2  0
 23 24  1  0
 21 25  1  0
 15 26  1  0
 26 27  1  0
 26 28  1  0
 26 29  1  0
  4 30  1  0
 30 31  1  0
 31 32  1  0
 32 33  2  0
 32 34  2  0
 32 35  1  0
 31 36  1  0
 36 37  1  0
 36 38  1  0
  2 39  1  0
 10  5  1  0
 17 13  1  0
 23 18  1  0
  1 40  1  0
  1 41  1  0
  1 42  1  0
  2 43  1  0
  3 44  1  0
  3 45  1  0
  4 46  1  0
  6 47  1  0
  6 48  1  0
  7 49  1  0
  7 50  1  0
  9 51  1  0
  9 52  1  0
 10 53  1  0
 10 54  1  0
 13 55  1  1
 14 56  1  0
 14 57  1  0
 16 58  1  0
 16 59  1  0
 17 60  1  6
 19 61  1  0
 20 62  1  0
 22 63  1  0
 27 64  1  0
 27 65  1  0
 27 66  1  0
 28 67  1  0
 28 68  1  0
 28 69  1  0
 29 70  1  0
 29 71  1  0
 29 72  1  0
 30 73  1  0
 30 74  1  0
 35 75  1  0
 35 76  1  0
 35 77  1  0
 36 78  1  0
 37 79  1  0
 37 80  1  0
 37 81  1  0
 38 82  1  0
 38 83  1  0
 38 84  1  0
 39 85  1  0
 39 86  1  0
 39 87  1  0
M  END
>  <Ligand ID>  (1) 
LIG0001508

>  <Ligand>  (1) 
CHEMBL1209382

>  <SMILES>  (1) 
CC(CC(N1CCN(CC1)C(=O)[C@@H]1CN(C[C@H]1c1ccc(cc1F)F)C(C)(C)C)CN(S(=O)(=O)C)C(C)C)C

>  <CID>  (1) 
49862425.0

>  <ChEMBL ID>  (1) 
nan

>  <InChiKey>  (1) 
PIZZMBOKKTYTAJ-MIGGUSAYSA-N

>  <InChi>  (1) 
InChI=1S/C29H48F2N4O3S/c1-20(2)15-23(17-35(21(3)4)39(8,37)38)32-11-13-33(14-12-32)28(36)26-19-34(29(5,6)7)18-25(26)24-10-9-22(30)16-27(24)31/h9-10,16,20-21,23,25-26H,11-15,17-19H2,1-8H3/t23?,25-,26+/m0/s1

>  <IUPAC Name>  (1) 
N-[2-[4-[(3S,4R)-1-tert-butyl-4-(2,4-difluorophenyl)pyrrolidine-3-carbonyl]piperazin-1-yl]-4-methylpentyl]-N-propan-2-ylmethanesulfonamide

$$$$
