
     RDKit          3D

 33 35  0  0  0  0  0  0  0  0999 V2000
    5.5662   -0.5405   -0.4594 C   0  0  0  0  0  0  0  0  0  0  0  0
    4.2721   -0.9488   -0.8068 O   0  0  0  0  0  0  0  0  0  0  0  0
    3.1008   -0.3736   -0.3840 C   0  0  0  0  0  0  0  0  0  0  0  0
    3.0769    0.7055    0.4574 C   0  0  0  0  0  0  0  0  0  0  0  0
    1.8911    1.2825    0.8814 C   0  0  0  0  0  0  0  0  0  0  0  0
    0.7277    0.7104    0.4092 C   0  0  0  0  0  0  0  0  0  0  0  0
    0.7053   -0.3741   -0.4377 C   0  0  0  0  0  0  0  0  0  0  0  0
    1.9121   -0.9024   -0.8231 C   0  0  0  0  0  0  0  0  0  0  0  0
   -0.5339   -0.9966   -0.9582 C   0  0  0  0  0  0  0  0  0  0  0  0
   -1.6374   -0.7674    0.0208 C   0  0  1  0  0  0  0  0  0  0  0  0
   -1.7242    0.6474    0.3207 N   0  0  0  0  0  0  0  0  0  0  0  0
   -0.5463    1.2798    0.8327 C   0  0  0  0  0  0  0  0  0  0  0  0
   -0.6410    2.2712    1.6038 O   0  0  0  0  0  0  0  0  0  0  0  0
   -2.9328    1.4295    0.1276 C   0  0  0  0  0  0  0  0  0  0  0  0
   -4.1770    0.6065    0.1832 C   0  0  0  0  0  0  0  0  0  0  0  0
   -3.9549   -0.7904    0.5022 N   0  0  0  0  0  0  0  0  0  0  0  0
   -2.9753   -1.2722   -0.4853 C   0  0  0  0  0  0  0  0  0  0  0  0
    6.2577   -0.9525   -1.2280 H   0  0  0  0  0  0  0  0  0  0  0  0
    5.7958   -0.9505    0.5412 H   0  0  0  0  0  0  0  0  0  0  0  0
    5.6057    0.5700   -0.4951 H   0  0  0  0  0  0  0  0  0  0  0  0
    4.0290    1.1119    0.7957 H   0  0  0  0  0  0  0  0  0  0  0  0
    1.8734    2.1407    1.5507 H   0  0  0  0  0  0  0  0  0  0  0  0
    1.9369   -1.7653   -1.4959 H   0  0  0  0  0  0  0  0  0  0  0  0
   -0.3948   -2.0645   -1.2040 H   0  0  0  0  0  0  0  0  0  0  0  0
   -0.7817   -0.4279   -1.8979 H   0  0  0  0  0  0  0  0  0  0  0  0
   -1.3776   -1.2987    0.9546 H   0  0  0  0  0  0  0  0  0  0  0  0
   -2.9488    2.2516    0.8891 H   0  0  0  0  0  0  0  0  0  0  0  0
   -2.8461    1.9155   -0.8868 H   0  0  0  0  0  0  0  0  0  0  0  0
   -4.8886    1.0438    0.9253 H   0  0  0  0  0  0  0  0  0  0  0  0
   -4.7258    0.5908   -0.8009 H   0  0  0  0  0  0  0  0  0  0  0  0
   -3.5108   -0.9168    1.4380 H   0  0  0  0  0  0  0  0  0  0  0  0
   -3.0015   -2.3718   -0.4801 H   0  0  0  0  0  0  0  0  0  0  0  0
   -3.1521   -0.8432   -1.4811 H   0  0  0  0  0  0  0  0  0  0  0  0
  1  2  1  0
  2  3  1  0
  3  4  2  0
  4  5  1  0
  5  6  2  0
  6  7  1  0
  7  8  2  0
  7  9  1  0
  9 10  1  0
 10 11  1  0
 11 12  1  0
 12 13  2  0
 11 14  1  0
 14 15  1  0
 15 16  1  0
 16 17  1  0
  8  3  1  0
 17 10  1  0
 12  6  1  0
  1 18  1  0
  1 19  1  0
  1 20  1  0
  4 21  1  0
  5 22  1  0
  8 23  1  0
  9 24  1  0
  9 25  1  0
 10 26  1  1
 14 27  1  0
 14 28  1  0
 15 29  1  0
 15 30  1  0
 16 31  1  0
 17 32  1  0
 17 33  1  0
M  END
>  <Ligand ID>  (1) 
LIG0004885

>  <Ligand>  (1) 
CHEMBL2397902

>  <SMILES>  (1) 
COc1ccc2c(c1)C[C@H]1N(C2=O)CCNC1

>  <CID>  (1) 
11416698.0

>  <ChEMBL ID>  (1) 
nan

>  <InChiKey>  (1) 
ARGOOWZEEGWQMW-SNVBAGLBSA-N

>  <InChi>  (1) 
InChI=1S/C13H16N2O2/c1-17-11-2-3-12-9(7-11)6-10-8-14-4-5-15(10)13(12)16/h2-3,7,10,14H,4-6,8H2,1H3/t10-/m1/s1

>  <IUPAC Name>  (1) 
(11aR)-9-methoxy-1,2,3,4,11,11a-hexahydropyrazino[1,2-b]isoquinolin-6-one

$$$$
