
     RDKit          3D

 29 28  0  0  0  0  0  0  0  0999 V2000
   -3.5109   -1.4604   -0.0024 C   0  0  0  0  0  0  0  0  0  0  0  0
   -2.5800   -0.5094    0.7619 C   0  0  0  0  0  0  0  0  0  0  0  0
   -1.8027    0.3331   -0.2384 C   0  0  0  0  0  0  0  0  0  0  0  0
   -0.8705    1.2872    0.4622 C   0  0  0  0  0  0  0  0  0  0  0  0
   -0.0897    2.1328   -0.5185 C   0  0  0  0  0  0  0  0  0  0  0  0
    0.7566    1.2670   -1.4410 C   0  0  0  0  0  0  0  0  0  0  0  0
    1.7281    0.4610   -0.6393 C   0  0  0  0  0  0  0  0  0  0  0  0
    1.7613   -0.8453   -0.6358 C   0  0  0  0  0  0  0  0  0  0  0  0
    2.7211   -1.5976    0.1570 C   0  0  0  0  0  0  0  0  0  0  0  0
    2.7096   -2.8759    0.1235 O   0  0  0  0  0  0  0  0  0  0  0  0
    3.7172   -0.9416    1.0068 C   0  0  0  0  0  0  0  0  0  0  0  0
   -4.3754   -1.6706    0.6299 H   0  0  0  0  0  0  0  0  0  0  0  0
   -3.7863   -0.9256   -0.9402 H   0  0  0  0  0  0  0  0  0  0  0  0
   -2.9403   -2.3720   -0.3065 H   0  0  0  0  0  0  0  0  0  0  0  0
   -1.9196   -1.0962    1.4004 H   0  0  0  0  0  0  0  0  0  0  0  0
   -3.2346    0.1237    1.3900 H   0  0  0  0  0  0  0  0  0  0  0  0
   -1.1792   -0.3786   -0.8333 H   0  0  0  0  0  0  0  0  0  0  0  0
   -2.4831    0.8228   -0.9358 H   0  0  0  0  0  0  0  0  0  0  0  0
   -1.4663    1.9913    1.0792 H   0  0  0  0  0  0  0  0  0  0  0  0
   -0.1699    0.7423    1.0929 H   0  0  0  0  0  0  0  0  0  0  0  0
    0.6258    2.7568    0.0552 H   0  0  0  0  0  0  0  0  0  0  0  0
   -0.7079    2.8032   -1.1200 H   0  0  0  0  0  0  0  0  0  0  0  0
    1.3641    1.9599   -2.0633 H   0  0  0  0  0  0  0  0  0  0  0  0
    0.1354    0.6670   -2.1068 H   0  0  0  0  0  0  0  0  0  0  0  0
    2.4287    1.0428   -0.0395 H   0  0  0  0  0  0  0  0  0  0  0  0
    1.0421   -1.3685   -1.2501 H   0  0  0  0  0  0  0  0  0  0  0  0
    4.6645   -0.7688    0.4220 H   0  0  0  0  0  0  0  0  0  0  0  0
    4.0384   -1.6077    1.8549 H   0  0  0  0  0  0  0  0  0  0  0  0
    3.4235    0.0274    1.4262 H   0  0  0  0  0  0  0  0  0  0  0  0
  1  2  1  0
  2  3  1  0
  3  4  1  0
  4  5  1  0
  5  6  1  0
  6  7  1  0
  7  8  2  0
  8  9  1  0
  9 10  2  0
  9 11  1  0
  1 12  1  0
  1 13  1  0
  1 14  1  0
  2 15  1  0
  2 16  1  0
  3 17  1  0
  3 18  1  0
  4 19  1  0
  4 20  1  0
  5 21  1  0
  5 22  1  0
  6 23  1  0
  6 24  1  0
  7 25  1  0
  8 26  1  0
 11 27  1  0
 11 28  1  0
 11 29  1  0
M  END
>  <Ligand ID>  (1) 
LIG0000406

>  <Ligand>  (1) 
3-Decen-2-one, (3E)-

>  <SMILES>  (1) 
CCCCCC/C=C/C(=O)C

>  <CID>  (1) 
5363233.0

>  <ChEMBL ID>  (1) 
nan

>  <InChiKey>  (1) 
JRPDANVNRUIUAB-CMDGGOBGSA-N

>  <InChi>  (1) 
InChI=1S/C10H18O/c1-3-4-5-6-7-8-9-10(2)11/h8-9H,3-7H2,1-2H3/b9-8+

>  <IUPAC Name>  (1) 
(E)-dec-3-en-2-one

$$$$
