
     RDKit          3D

 49 52  0  0  0  0  0  0  0  0999 V2000
    1.8998   -4.2281   -0.7231 F   0  0  0  0  0  0  0  0  0  0  0  0
    1.3738   -4.0811    0.5413 C   0  0  0  0  0  0  0  0  0  0  0  0
    0.7464   -2.6861    0.6597 C   0  0  1  0  0  0  0  0  0  0  0  0
    1.7622   -1.6346    0.4314 C   0  0  0  0  0  0  0  0  0  0  0  0
    2.0635   -1.1048   -0.8032 C   0  0  0  0  0  0  0  0  0  0  0  0
    3.0184   -0.1222   -0.9787 C   0  0  0  0  0  0  0  0  0  0  0  0
    3.7030    0.3537    0.1221 C   0  0  0  0  0  0  0  0  0  0  0  0
    3.4323   -0.1506    1.3836 C   0  0  0  0  0  0  0  0  0  0  0  0
    2.4706   -1.1321    1.5165 C   0  0  0  0  0  0  0  0  0  0  0  0
    4.6852    1.3680   -0.0771 N   0  0  0  0  0  0  0  0  0  0  0  0
    4.4686    2.7050   -0.1853 C   0  0  0  0  0  0  0  0  0  0  0  0
    5.7126    3.2730   -0.3677 C   0  0  0  0  0  0  0  0  0  0  0  0
    6.6666    2.2763   -0.3680 C   0  0  0  0  0  0  0  0  0  0  0  0
    5.9924    1.1334   -0.1877 N   0  0  0  0  0  0  0  0  0  0  0  0
   -0.3823   -2.4828   -0.2991 C   0  0  0  0  0  0  0  0  0  0  0  0
   -0.9702   -1.1167   -0.1632 C   0  0  0  0  0  0  0  0  0  0  0  0
   -0.5682   -0.1514    0.7013 N   0  0  0  0  0  0  0  0  0  0  0  0
   -1.3380    0.9370    0.5261 C   0  0  0  0  0  0  0  0  0  0  0  0
   -2.2293    0.6072   -0.4782 C   0  0  0  0  0  0  0  0  0  0  0  0
   -1.9962   -0.6535   -0.8944 N   0  0  0  0  0  0  0  0  0  0  0  0
   -3.2815    1.5161   -1.0093 C   0  0  0  0  0  0  0  0  0  0  0  0
   -4.5638    1.3321   -0.2094 C   0  0  0  0  0  0  0  0  0  0  0  0
   -5.2015   -0.0027   -0.1838 C   0  0  0  0  0  0  0  0  0  0  0  0
   -4.4675    0.5068    1.0225 C   0  0  0  0  0  0  0  0  0  0  0  0
   -5.4308    2.5580   -0.1727 C   0  0  0  0  0  0  0  0  0  0  0  0
   -5.8138    2.9322   -1.4604 F   0  0  0  0  0  0  0  0  0  0  0  0
   -6.5480    2.3518    0.6109 F   0  0  0  0  0  0  0  0  0  0  0  0
   -4.6940    3.6100    0.3420 F   0  0  0  0  0  0  0  0  0  0  0  0
    0.3051   -2.5751    1.9999 O   0  0  0  0  0  0  0  0  0  0  0  0
    0.4102   -5.0453    0.7595 F   0  0  0  0  0  0  0  0  0  0  0  0
    2.3255   -4.2387    1.5106 F   0  0  0  0  0  0  0  0  0  0  0  0
    1.5473   -1.4555   -1.6828 H   0  0  0  0  0  0  0  0  0  0  0  0
    3.2182    0.2622   -1.9749 H   0  0  0  0  0  0  0  0  0  0  0  0
    3.9686    0.2194    2.2609 H   0  0  0  0  0  0  0  0  0  0  0  0
    2.2831   -1.5057    2.5206 H   0  0  0  0  0  0  0  0  0  0  0  0
    3.4978    3.1800   -0.1324 H   0  0  0  0  0  0  0  0  0  0  0  0
    5.8569    4.3426   -0.4867 H   0  0  0  0  0  0  0  0  0  0  0  0
    7.7369    2.4409   -0.4934 H   0  0  0  0  0  0  0  0  0  0  0  0
   -0.0870   -2.5983   -1.3580 H   0  0  0  0  0  0  0  0  0  0  0  0
   -1.1607   -3.2607   -0.1230 H   0  0  0  0  0  0  0  0  0  0  0  0
   -1.3112    1.8785    1.0259 H   0  0  0  0  0  0  0  0  0  0  0  0
   -2.5054   -1.1991   -1.6482 H   0  0  0  0  0  0  0  0  0  0  0  0
   -2.9016    2.5498   -0.9130 H   0  0  0  0  0  0  0  0  0  0  0  0
   -3.4981    1.2936   -2.0800 H   0  0  0  0  0  0  0  0  0  0  0  0
   -4.7434   -0.8758   -0.6949 H   0  0  0  0  0  0  0  0  0  0  0  0
   -6.3084   -0.0239   -0.1402 H   0  0  0  0  0  0  0  0  0  0  0  0
   -3.5228    0.0057    1.2932 H   0  0  0  0  0  0  0  0  0  0  0  0
   -5.0710    0.8070    1.9238 H   0  0  0  0  0  0  0  0  0  0  0  0
   -0.5504   -2.1155    2.0455 H   0  0  0  0  0  0  0  0  0  0  0  0
  1  2  1  0
  2  3  1  0
  3  4  1  0
  4  5  2  0
  5  6  1  0
  6  7  2  0
  7  8  1  0
  8  9  2  0
  7 10  1  0
 10 11  1  0
 11 12  2  0
 12 13  1  0
 13 14  2  0
  3 15  1  0
 15 16  1  0
 16 17  2  0
 17 18  1  0
 18 19  2  0
 19 20  1  0
 19 21  1  0
 21 22  1  0
 22 23  1  0
 23 24  1  0
 22 25  1  0
 25 26  1  0
 25 27  1  0
 25 28  1  0
  3 29  1  1
  2 30  1  0
  2 31  1  0
  9  4  1  0
 14 10  1  0
 20 16  1  0
 24 22  1  0
  5 32  1  0
  6 33  1  0
  8 34  1  0
  9 35  1  0
 11 36  1  0
 12 37  1  0
 13 38  1  0
 15 39  1  0
 15 40  1  0
 18 41  1  0
 20 42  1  0
 21 43  1  0
 21 44  1  0
 23 45  1  0
 23 46  1  0
 24 47  1  0
 24 48  1  0
 29 49  1  0
M  END
>  <Ligand ID>  (1) 
LIG0002942

>  <Ligand>  (1) 
MK-5046

>  <SMILES>  (1) 
FC([C@@](c1ccc(cc1)n1cccn1)(Cc1ncc([nH]1)CC1(CC1)C(F)(F)F)O)(F)F

>  <CID>  (1) 
49871766.0

>  <ChEMBL ID>  (1) 
nan

>  <InChiKey>  (1) 
UJINBEQCDMOAHM-SFHVURJKSA-N

>  <InChi>  (1) 
InChI=1S/C20H18F6N4O/c21-19(22,23)17(6-7-17)10-14-12-27-16(29-14)11-18(31,20(24,25)26)13-2-4-15(5-3-13)30-9-1-8-28-30/h1-5,8-9,12,31H,6-7,10-11H2,(H,27,29)/t18-/m0/s1

>  <IUPAC Name>  (1) 
(2S)-1,1,1-trifluoro-2-(4-pyrazol-1-ylphenyl)-3-[5-[[1-(trifluoromethyl)cyclopropyl]methyl]-1H-imidazol-2-yl]propan-2-ol

$$$$
