
     RDKit          3D

 96 99  0  0  0  0  0  0  0  0999 V2000
    1.3264    6.4556    4.1123 N   0  0  0  0  0  0  0  0  0  0  0  0
    0.0872    5.7517    4.0580 C   0  0  0  0  0  0  0  0  0  0  0  0
    0.1627    4.4696    3.8274 N   0  0  0  0  0  0  0  0  0  0  0  0
    1.4219    3.8102    3.6400 C   0  0  0  0  0  0  0  0  0  0  0  0
    1.6399    3.3918    2.1832 C   0  0  0  0  0  0  0  0  0  0  0  0
    0.5516    2.4542    1.7577 C   0  0  0  0  0  0  0  0  0  0  0  0
    0.6617    1.9868    0.3602 C   0  0  1  0  0  0  0  0  0  0  0  0
    1.9128    1.2350    0.0372 C   0  0  0  0  0  0  0  0  0  0  0  0
    3.0642    1.6999    0.2884 O   0  0  0  0  0  0  0  0  0  0  0  0
    1.8437   -0.0462   -0.5757 N   0  0  0  0  0  0  0  0  0  0  0  0
    3.1170   -0.7851   -0.9047 C   0  0  1  0  0  0  0  0  0  0  0  0
    3.0377   -2.0700   -0.1826 C   0  0  0  0  0  0  0  0  0  0  0  0
    4.1946   -2.9416   -0.3282 C   0  0  0  0  0  0  0  0  0  0  0  0
    4.4103   -4.1177   -1.0017 C   0  0  0  0  0  0  0  0  0  0  0  0
    5.6572   -4.5654   -0.7970 N   0  0  0  0  0  0  0  0  0  0  0  0
    6.2917   -3.6949    0.0154 C   0  0  0  0  0  0  0  0  0  0  0  0
    5.4177   -2.6909    0.3172 C   0  0  0  0  0  0  0  0  0  0  0  0
    5.8511   -1.6667    1.1488 C   0  0  0  0  0  0  0  0  0  0  0  0
    7.1237   -1.6433    1.6662 C   0  0  0  0  0  0  0  0  0  0  0  0
    7.9916   -2.6608    1.3532 C   0  0  0  0  0  0  0  0  0  0  0  0
    7.5758   -3.6765    0.5346 C   0  0  0  0  0  0  0  0  0  0  0  0
    3.2069   -0.8699   -2.3856 C   0  0  0  0  0  0  0  0  0  0  0  0
    4.4040   -1.5343   -2.8717 C   0  0  0  0  0  0  0  0  0  0  0  0
    4.3417   -2.5341   -3.6743 O   0  0  0  0  0  0  0  0  0  0  0  0
    5.7371   -1.1498   -2.5171 N   0  0  0  0  0  0  0  0  0  0  0  0
   -0.4680    1.1670   -0.0578 N   0  0  0  0  0  0  0  0  0  0  0  0
   -1.1072    1.3526   -1.3033 C   0  0  0  0  0  0  0  0  0  0  0  0
   -0.6486    2.2671   -2.0581 O   0  0  0  0  0  0  0  0  0  0  0  0
   -2.2621    0.5159   -1.7139 C   0  0  2  0  0  0  0  0  0  0  0  0
   -2.6617   -0.2864   -0.5897 N   0  0  0  0  0  0  0  0  0  0  0  0
   -3.9652   -0.0734   -0.0683 C   0  0  0  0  0  0  0  0  0  0  0  0
   -4.7332    0.8003   -0.6001 O   0  0  0  0  0  0  0  0  0  0  0  0
   -4.5369   -0.8048    1.0850 C   0  0  2  0  0  0  0  0  0  0  0  0
   -4.5750   -2.3093    0.7653 C   0  0  0  0  0  0  0  0  0  0  0  0
   -5.0072   -3.1128    1.9336 C   0  0  0  0  0  0  0  0  0  0  0  0
   -5.1865   -4.4666    1.9396 N   0  0  0  0  0  0  0  0  0  0  0  0
   -5.5146   -4.8642    3.1704 C   0  0  0  0  0  0  0  0  0  0  0  0
   -5.5580   -3.7953    3.9897 N   0  0  0  0  0  0  0  0  0  0  0  0
   -5.2475   -2.7004    3.2469 C   0  0  0  0  0  0  0  0  0  0  0  0
   -5.9048   -0.2755    1.2369 N   0  0  0  0  0  0  0  0  0  0  0  0
   -7.1179   -0.9065    1.3089 C   0  0  0  0  0  0  0  0  0  0  0  0
   -7.4140   -2.1170    1.2485 O   0  0  0  0  0  0  0  0  0  0  0  0
   -8.3469   -0.0093    1.4952 C   0  0  0  0  0  0  0  0  0  0  0  0
   -1.9432   -0.2822   -2.9418 C   0  0  0  0  0  0  0  0  0  0  0  0
   -1.5907    0.5169   -4.1246 C   0  0  0  0  0  0  0  0  0  0  0  0
   -0.2923    0.8847   -4.4529 C   0  0  0  0  0  0  0  0  0  0  0  0
   -0.0065    1.6418   -5.5712 C   0  0  0  0  0  0  0  0  0  0  0  0
   -1.0697    2.0335   -6.3747 C   0  0  0  0  0  0  0  0  0  0  0  0
   -2.3506    1.6857   -6.0743 C   0  0  0  0  0  0  0  0  0  0  0  0
   -2.6295    0.9320   -4.9601 C   0  0  0  0  0  0  0  0  0  0  0  0
   -1.1731    6.3795    4.2402 N   0  0  0  0  0  0  0  0  0  0  0  0
    1.5133    7.0738    4.9413 H   0  0  0  0  0  0  0  0  0  0  0  0
    2.0402    6.3596    3.3390 H   0  0  0  0  0  0  0  0  0  0  0  0
    2.2473    4.4429    4.0049 H   0  0  0  0  0  0  0  0  0  0  0  0
    1.3935    2.8691    4.2547 H   0  0  0  0  0  0  0  0  0  0  0  0
    1.7074    4.2923    1.5662 H   0  0  0  0  0  0  0  0  0  0  0  0
    2.6573    2.9197    2.1864 H   0  0  0  0  0  0  0  0  0  0  0  0
   -0.4066    3.0454    1.8467 H   0  0  0  0  0  0  0  0  0  0  0  0
    0.5010    1.6083    2.4765 H   0  0  0  0  0  0  0  0  0  0  0  0
    0.7132    2.8917   -0.3258 H   0  0  0  0  0  0  0  0  0  0  0  0
    0.9308   -0.5113   -0.8149 H   0  0  0  0  0  0  0  0  0  0  0  0
    3.9185   -0.1450   -0.5075 H   0  0  0  0  0  0  0  0  0  0  0  0
    2.8712   -1.8085    0.9153 H   0  0  0  0  0  0  0  0  0  0  0  0
    2.1298   -2.6465   -0.5148 H   0  0  0  0  0  0  0  0  0  0  0  0
    3.6707   -4.5992   -1.6048 H   0  0  0  0  0  0  0  0  0  0  0  0
    6.1260   -5.4243   -1.1650 H   0  0  0  0  0  0  0  0  0  0  0  0
    5.1814   -0.8379    1.4202 H   0  0  0  0  0  0  0  0  0  0  0  0
    7.4064   -0.8079    2.3157 H   0  0  0  0  0  0  0  0  0  0  0  0
    8.9741   -2.6286    1.7619 H   0  0  0  0  0  0  0  0  0  0  0  0
    8.2765   -4.4864    0.2890 H   0  0  0  0  0  0  0  0  0  0  0  0
    3.1879    0.1528   -2.8461 H   0  0  0  0  0  0  0  0  0  0  0  0
    2.3197   -1.4343   -2.8158 H   0  0  0  0  0  0  0  0  0  0  0  0
    5.9445   -0.1288   -2.3329 H   0  0  0  0  0  0  0  0  0  0  0  0
    6.5050   -1.8785   -2.4422 H   0  0  0  0  0  0  0  0  0  0  0  0
   -0.7748    0.4272    0.6340 H   0  0  0  0  0  0  0  0  0  0  0  0
   -3.0825    1.2083   -1.9731 H   0  0  0  0  0  0  0  0  0  0  0  0
   -2.0735   -1.0111   -0.1264 H   0  0  0  0  0  0  0  0  0  0  0  0
   -4.0122   -0.7448    2.0088 H   0  0  0  0  0  0  0  0  0  0  0  0
   -5.2172   -2.4597   -0.1151 H   0  0  0  0  0  0  0  0  0  0  0  0
   -3.5413   -2.5881    0.4814 H   0  0  0  0  0  0  0  0  0  0  0  0
   -5.0782   -5.0948    1.0894 H   0  0  0  0  0  0  0  0  0  0  0  0
   -5.7253   -5.8710    3.5213 H   0  0  0  0  0  0  0  0  0  0  0  0
   -5.1792   -1.6709    3.5446 H   0  0  0  0  0  0  0  0  0  0  0  0
   -5.8966    0.8009    1.2966 H   0  0  0  0  0  0  0  0  0  0  0  0
   -8.4532    0.2973    2.5349 H   0  0  0  0  0  0  0  0  0  0  0  0
   -8.1384    0.9013    0.8813 H   0  0  0  0  0  0  0  0  0  0  0  0
   -9.2437   -0.4703    1.0853 H   0  0  0  0  0  0  0  0  0  0  0  0
   -1.0218   -0.8597   -2.6610 H   0  0  0  0  0  0  0  0  0  0  0  0
   -2.6881   -1.0775   -3.1384 H   0  0  0  0  0  0  0  0  0  0  0  0
    0.5283    0.5794   -3.8385 H   0  0  0  0  0  0  0  0  0  0  0  0
    1.0070    1.9411   -5.8433 H   0  0  0  0  0  0  0  0  0  0  0  0
   -0.8115    2.6358   -7.2586 H   0  0  0  0  0  0  0  0  0  0  0  0
   -3.1330    2.0339   -6.7582 H   0  0  0  0  0  0  0  0  0  0  0  0
   -3.6616    0.6864   -4.7753 H   0  0  0  0  0  0  0  0  0  0  0  0
   -1.8898    5.9578    4.8813 H   0  0  0  0  0  0  0  0  0  0  0  0
   -1.4419    7.2794    3.7509 H   0  0  0  0  0  0  0  0  0  0  0  0
  1  2  1  0
  2  3  2  3
  3  4  1  0
  4  5  1  0
  5  6  1  0
  6  7  1  0
  7  8  1  0
  8  9  2  0
  8 10  1  0
 10 11  1  0
 11 12  1  0
 12 13  1  0
 13 14  2  0
 14 15  1  0
 15 16  1  0
 16 17  2  0
 17 18  1  0
 18 19  2  0
 19 20  1  0
 20 21  2  0
 11 22  1  0
 22 23  1  0
 23 24  2  0
 23 25  1  0
  7 26  1  0
 26 27  1  0
 27 28  2  0
 27 29  1  0
 29 30  1  0
 30 31  1  0
 31 32  2  0
 31 33  1  0
 33 34  1  0
 34 35  1  0
 35 36  1  0
 36 37  1  0
 37 38  2  0
 38 39  1  0
 33 40  1  0
 40 41  1  0
 41 42  2  0
 41 43  1  0
 29 44  1  0
 44 45  1  0
 45 46  2  0
 46 47  1  0
 47 48  2  0
 48 49  1  0
 49 50  2  0
  2 51  1  0
 17 13  1  0
 39 35  2  0
 50 45  1  0
 21 16  1  0
  1 52  1  0
  1 53  1  0
  4 54  1  0
  4 55  1  0
  5 56  1  0
  5 57  1  0
  6 58  1  0
  6 59  1  0
  7 60  1  6
 10 61  1  0
 11 62  1  1
 12 63  1  0
 12 64  1  0
 14 65  1  0
 15 66  1  0
 18 67  1  0
 19 68  1  0
 20 69  1  0
 21 70  1  0
 22 71  1  0
 22 72  1  0
 25 73  1  0
 25 74  1  0
 26 75  1  0
 29 76  1  6
 30 77  1  0
 33 78  1  1
 34 79  1  0
 34 80  1  0
 36 81  1  0
 37 82  1  0
 39 83  1  0
 40 84  1  0
 43 85  1  0
 43 86  1  0
 43 87  1  0
 44 88  1  0
 44 89  1  0
 46 90  1  0
 47 91  1  0
 48 92  1  0
 49 93  1  0
 50 94  1  0
 51 95  1  0
 51 96  1  0
M  END
>  <Ligand ID>  (1) 
LIG0001434

>  <Ligand>  (1) 
CHEMBL3582446

>  <SMILES>  (1) 
NC(=NCCC[C@@H](C(=O)N[C@@H](Cc1c[nH]c2c1cccc2)CC(=O)N)NC(=O)[C@H](NC(=O)[C@H](Cc1[nH]cnc1)NC(=O)C)Cc1ccccc1)N

>  <CID>  (1) 
122179552.0

>  <ChEMBL ID>  (1) 
nan

>  <InChiKey>  (1) 
JLPWHJZNGMNKQZ-ZPNBPFPUSA-N

>  <InChi>  (1) 
InChI=1S/C35H45N11O5/c1-21(47)43-30(16-25-19-39-20-42-25)34(51)46-29(14-22-8-3-2-4-9-22)33(50)45-28(12-7-13-40-35(37)38)32(49)44-24(17-31(36)48)15-23-18-41-27-11-6-5-10-26(23)27/h2-6,8-11,18-20,24,28-30,41H,7,12-17H2,1H3,(H2,36,48)(H,39,42)(H,43,47)(H,44,49)(H,45,50)(H,46,51)(H4,37,38,40)/t24-,28-,29+,30-/m0/s1

>  <IUPAC Name>  (1) 
(2S)-2-[[(2R)-2-[[(2S)-2-acetamido-3-(1H-imidazol-5-yl)propanoyl]amino]-3-phenylpropanoyl]amino]-N-[(2S)-4-amino-1-(1H-indol-3-yl)-4-oxobutan-2-yl]-5-(diaminomethylideneamino)pentanamide

$$$$
