
     RDKit          3D

 47 48  0  0  0  0  0  0  0  0999 V2000
    0.5433    1.5232    0.0249 O   0  0  0  0  0  0  0  0  0  0  0  0
    0.7717    0.4560   -0.5969 C   0  0  0  0  0  0  0  0  0  0  0  0
    2.0597   -0.1210   -0.4304 N   0  0  0  0  0  0  0  0  0  0  0  0
    3.0800    0.4843    0.4184 C   0  0  0  0  0  0  0  0  0  0  0  0
    3.3390   -0.3911    1.6144 C   0  0  0  0  0  0  0  0  0  0  0  0
    4.3913   -1.4282    1.4192 C   0  0  0  0  0  0  0  0  0  0  0  0
    5.1020   -1.3643    0.1078 C   0  0  0  0  0  0  0  0  0  0  0  0
    5.5040    0.0550   -0.1399 C   0  0  0  0  0  0  0  0  0  0  0  0
    4.2975    0.9129   -0.3246 C   0  0  0  0  0  0  0  0  0  0  0  0
   -0.1733   -0.1819   -1.4352 N   0  0  0  0  0  0  0  0  0  0  0  0
   -1.5247    0.3609   -1.6495 C   0  0  0  0  0  0  0  0  0  0  0  0
   -2.2662    0.4369   -0.3217 C   0  0  0  0  0  0  0  0  0  0  0  0
   -3.6009    1.0008   -0.6319 C   0  0  0  0  0  0  0  0  0  0  0  0
   -4.5997    1.1920    0.3032 C   0  0  0  0  0  0  0  0  0  0  0  0
   -5.8420    1.7158   -0.0179 C   0  0  0  0  0  0  0  0  0  0  0  0
   -6.1346    2.0745   -1.3111 C   0  0  0  0  0  0  0  0  0  0  0  0
   -5.1670    1.8916   -2.2249 N   0  0  0  0  0  0  0  0  0  0  0  0
   -3.9554    1.3856   -1.9379 C   0  0  0  0  0  0  0  0  0  0  0  0
   -2.3191   -0.7513    0.3772 N   0  0  0  0  0  0  0  0  0  0  0  0
   -2.7727   -0.8768    1.6954 C   0  0  0  0  0  0  0  0  0  0  0  0
   -1.8950   -1.9486   -0.2648 C   0  0  0  0  0  0  0  0  0  0  0  0
    2.3079   -0.9989   -0.9159 H   0  0  0  0  0  0  0  0  0  0  0  0
    2.5962    1.4150    0.8379 H   0  0  0  0  0  0  0  0  0  0  0  0
    3.5230    0.1986    2.5515 H   0  0  0  0  0  0  0  0  0  0  0  0
    2.3757   -0.9237    1.8173 H   0  0  0  0  0  0  0  0  0  0  0  0
    4.0139   -2.4766    1.5604 H   0  0  0  0  0  0  0  0  0  0  0  0
    5.1619   -1.3154    2.2253 H   0  0  0  0  0  0  0  0  0  0  0  0
    6.0615   -1.9436    0.2439 H   0  0  0  0  0  0  0  0  0  0  0  0
    4.5588   -1.8114   -0.7317 H   0  0  0  0  0  0  0  0  0  0  0  0
    6.1558    0.3987    0.6828 H   0  0  0  0  0  0  0  0  0  0  0  0
    6.1536    0.0806   -1.0519 H   0  0  0  0  0  0  0  0  0  0  0  0
    4.5977    1.9705   -0.0913 H   0  0  0  0  0  0  0  0  0  0  0  0
    4.0641    0.9204   -1.4168 H   0  0  0  0  0  0  0  0  0  0  0  0
    0.1193   -1.0655   -1.9073 H   0  0  0  0  0  0  0  0  0  0  0  0
   -1.4007    1.3961   -1.9979 H   0  0  0  0  0  0  0  0  0  0  0  0
   -2.0508   -0.1997   -2.4260 H   0  0  0  0  0  0  0  0  0  0  0  0
   -1.7437    1.2104    0.2798 H   0  0  0  0  0  0  0  0  0  0  0  0
   -4.4533    0.9531    1.3406 H   0  0  0  0  0  0  0  0  0  0  0  0
   -6.6005    1.8530    0.7306 H   0  0  0  0  0  0  0  0  0  0  0  0
   -7.0952    2.4808   -1.5668 H   0  0  0  0  0  0  0  0  0  0  0  0
   -3.2707    1.2977   -2.7646 H   0  0  0  0  0  0  0  0  0  0  0  0
   -2.1778   -1.6745    2.2356 H   0  0  0  0  0  0  0  0  0  0  0  0
   -3.8359   -1.2184    1.8196 H   0  0  0  0  0  0  0  0  0  0  0  0
   -2.5620    0.0312    2.2943 H   0  0  0  0  0  0  0  0  0  0  0  0
   -2.0108   -2.0140   -1.3390 H   0  0  0  0  0  0  0  0  0  0  0  0
   -2.4840   -2.8079    0.1715 H   0  0  0  0  0  0  0  0  0  0  0  0
   -0.8421   -2.1829   -0.0056 H   0  0  0  0  0  0  0  0  0  0  0  0
  1  2  2  0
  2  3  1  0
  3  4  1  0
  4  5  1  0
  5  6  1  0
  6  7  1  0
  7  8  1  0
  8  9  1  0
  2 10  1  0
 10 11  1  0
 11 12  1  0
 12 13  1  0
 13 14  2  0
 14 15  1  0
 15 16  2  0
 16 17  1  0
 17 18  2  0
 12 19  1  0
 19 20  1  0
 19 21  1  0
  9  4  1  0
 18 13  1  0
  3 22  1  0
  4 23  1  0
  5 24  1  0
  5 25  1  0
  6 26  1  0
  6 27  1  0
  7 28  1  0
  7 29  1  0
  8 30  1  0
  8 31  1  0
  9 32  1  0
  9 33  1  0
 10 34  1  0
 11 35  1  0
 11 36  1  0
 12 37  1  0
 14 38  1  0
 15 39  1  0
 16 40  1  0
 18 41  1  0
 20 42  1  0
 20 43  1  0
 20 44  1  0
 21 45  1  0
 21 46  1  0
 21 47  1  0
M  END
>  <Ligand ID>  (1) 
LIG0004527

>  <Ligand>  (1) 
MLS000092200

>  <SMILES>  (1) 
O=C(NC1CCCCC1)NCC(c1cccnc1)N(C)C

>  <CID>  (1) 
3237480.0

>  <ChEMBL ID>  (1) 
nan

>  <InChiKey>  (1) 
RWFNFUMUAWTATD-UHFFFAOYSA-N

>  <InChi>  (1) 
InChI=1S/C16H26N4O/c1-20(2)15(13-7-6-10-17-11-13)12-18-16(21)19-14-8-4-3-5-9-14/h6-7,10-11,14-15H,3-5,8-9,12H2,1-2H3,(H2,18,19,21)

>  <IUPAC Name>  (1) 
1-cyclohexyl-3-[2-(dimethylamino)-2-pyridin-3-ylethyl]urea

$$$$
