
     RDKit          3D

 16 16  0  0  0  0  0  0  0  0999 V2000
   -1.4521   -1.2505    0.5054 C   0  0  0  0  0  0  0  0  0  0  0  0
   -0.1166   -0.6454    0.2873 C   0  0  0  0  0  0  0  0  0  0  0  0
    1.0278   -1.2935    0.6365 N   0  0  0  0  0  0  0  0  0  0  0  0
    2.2153   -0.6799    0.4079 C   0  0  0  0  0  0  0  0  0  0  0  0
    2.3132    0.5672   -0.1607 C   0  0  0  0  0  0  0  0  0  0  0  0
    1.1621    1.1939   -0.5003 N   0  0  0  0  0  0  0  0  0  0  0  0
   -0.0446    0.6197   -0.2907 C   0  0  0  0  0  0  0  0  0  0  0  0
   -1.2831    1.3564   -0.6848 C   0  0  0  0  0  0  0  0  0  0  0  0
   -2.1107   -0.6725    1.1641 H   0  0  0  0  0  0  0  0  0  0  0  0
   -1.3123   -2.2408    0.9882 H   0  0  0  0  0  0  0  0  0  0  0  0
   -1.9426   -1.4694   -0.4862 H   0  0  0  0  0  0  0  0  0  0  0  0
    3.1191   -1.1964    0.6858 H   0  0  0  0  0  0  0  0  0  0  0  0
    3.2749    1.0111   -0.3215 H   0  0  0  0  0  0  0  0  0  0  0  0
   -1.1416    2.4328   -0.4310 H   0  0  0  0  0  0  0  0  0  0  0  0
   -2.1554    1.0277   -0.0662 H   0  0  0  0  0  0  0  0  0  0  0  0
   -1.5535    1.2396   -1.7337 H   0  0  0  0  0  0  0  0  0  0  0  0
  1  2  1  0
  2  3  2  0
  3  4  1  0
  4  5  2  0
  5  6  1  0
  6  7  2  0
  7  8  1  0
  7  2  1  0
  1  9  1  0
  1 10  1  0
  1 11  1  0
  4 12  1  0
  5 13  1  0
  8 14  1  0
  8 15  1  0
  8 16  1  0
M  END
>  <Ligand ID>  (1) 
LIG0000244

>  <Ligand>  (1) 
2,3-Dimethylpyrazine

>  <SMILES>  (1) 
Cc1nccnc1C

>  <CID>  (1) 
22201.0

>  <ChEMBL ID>  (1) 
nan

>  <InChiKey>  (1) 
OXQOBQJCDNLAPO-UHFFFAOYSA-N

>  <InChi>  (1) 
InChI=1S/C6H8N2/c1-5-6(2)8-4-3-7-5/h3-4H,1-2H3

>  <IUPAC Name>  (1) 
2,3-dimethylpyrazine

$$$$
