
     RDKit          3D

 45 45  0  0  0  0  0  0  0  0999 V2000
    0.6492   -3.9054    0.8359 O   0  0  0  0  0  0  0  0  0  0  0  0
    0.7981   -3.0405    0.0082 C   0  0  0  0  0  0  0  0  0  0  0  0
   -0.3618   -2.4075   -0.7415 C   0  0  0  0  0  0  0  0  0  0  0  0
   -1.3585   -1.7621    0.1863 C   0  0  0  0  0  0  0  0  0  0  0  0
   -2.4006   -1.0541   -0.6564 C   0  0  0  0  0  0  0  0  0  0  0  0
   -3.4354   -0.3584    0.1668 C   0  0  0  0  0  0  0  0  0  0  0  0
   -3.0491    0.7796    0.9996 C   0  0  0  0  0  0  0  0  0  0  0  0
   -2.8846    2.1342    0.5194 C   0  0  0  0  0  0  0  0  0  0  0  0
   -2.1695    2.6437   -0.6297 C   0  0  0  0  0  0  0  0  0  0  0  0
   -0.7642    2.3530   -0.9013 C   0  0  0  0  0  0  0  0  0  0  0  0
    0.0550    1.5733   -0.2768 C   0  0  0  0  0  0  0  0  0  0  0  0
    1.4827    1.2952   -0.5707 C   0  0  0  0  0  0  0  0  0  0  0  0
    2.3476    1.5018    0.6423 C   0  0  0  0  0  0  0  0  0  0  0  0
    3.7339    0.8846    0.4199 C   0  0  0  0  0  0  0  0  0  0  0  0
    3.5091   -0.5006   -0.1929 C   0  0  0  0  0  0  0  0  0  0  0  0
    2.4762   -1.2977    0.5334 C   0  0  0  0  0  0  0  0  0  0  0  0
    2.1383   -2.4773   -0.3844 C   0  0  0  0  0  0  0  0  0  0  0  0
   -0.8202   -3.2370   -1.3302 H   0  0  0  0  0  0  0  0  0  0  0  0
    0.0607   -1.7147   -1.4726 H   0  0  0  0  0  0  0  0  0  0  0  0
   -0.8269   -1.1660    0.9076 H   0  0  0  0  0  0  0  0  0  0  0  0
   -1.9362   -2.5949    0.7074 H   0  0  0  0  0  0  0  0  0  0  0  0
   -2.8961   -1.8456   -1.2530 H   0  0  0  0  0  0  0  0  0  0  0  0
   -1.8539   -0.4213   -1.3779 H   0  0  0  0  0  0  0  0  0  0  0  0
   -3.9092   -1.1653    0.8024 H   0  0  0  0  0  0  0  0  0  0  0  0
   -4.2676   -0.1047   -0.5366 H   0  0  0  0  0  0  0  0  0  0  0  0
   -2.2219    0.5341    1.7349 H   0  0  0  0  0  0  0  0  0  0  0  0
   -3.9084    0.8667    1.7971 H   0  0  0  0  0  0  0  0  0  0  0  0
   -2.4413    2.7410    1.4225 H   0  0  0  0  0  0  0  0  0  0  0  0
   -3.9480    2.6504    0.5567 H   0  0  0  0  0  0  0  0  0  0  0  0
   -2.2140    3.7979   -0.5386 H   0  0  0  0  0  0  0  0  0  0  0  0
   -2.7556    2.5381   -1.6076 H   0  0  0  0  0  0  0  0  0  0  0  0
   -0.3348    2.8905   -1.7869 H   0  0  0  0  0  0  0  0  0  0  0  0
   -0.3334    1.0467    0.6134 H   0  0  0  0  0  0  0  0  0  0  0  0
    1.8166    2.0238   -1.3991 H   0  0  0  0  0  0  0  0  0  0  0  0
    1.5648    0.3274   -1.0613 H   0  0  0  0  0  0  0  0  0  0  0  0
    2.5176    2.5863    0.7664 H   0  0  0  0  0  0  0  0  0  0  0  0
    1.8936    1.1138    1.5424 H   0  0  0  0  0  0  0  0  0  0  0  0
    4.3617    1.4624   -0.2266 H   0  0  0  0  0  0  0  0  0  0  0  0
    4.1814    0.7388    1.4038 H   0  0  0  0  0  0  0  0  0  0  0  0
    3.4121   -0.4764   -1.2838 H   0  0  0  0  0  0  0  0  0  0  0  0
    4.4909   -1.0281   -0.0086 H   0  0  0  0  0  0  0  0  0  0  0  0
    1.6089   -0.7610    0.8891 H   0  0  0  0  0  0  0  0  0  0  0  0
    2.9154   -1.8026    1.4479 H   0  0  0  0  0  0  0  0  0  0  0  0
    2.1730   -2.1033   -1.4031 H   0  0  0  0  0  0  0  0  0  0  0  0
    2.9046   -3.2588   -0.2604 H   0  0  0  0  0  0  0  0  0  0  0  0
  1  2  2  0
  2  3  1  0
  3  4  1  0
  4  5  1  0
  5  6  1  0
  6  7  1  0
  7  8  1  0
  8  9  1  0
  9 10  1  0
 10 11  2  0
 11 12  1  0
 12 13  1  0
 13 14  1  0
 14 15  1  0
 15 16  1  0
 16 17  1  0
 17  2  1  0
  3 18  1  0
  3 19  1  0
  4 20  1  0
  4 21  1  0
  5 22  1  0
  5 23  1  0
  6 24  1  0
  6 25  1  0
  7 26  1  0
  7 27  1  0
  8 28  1  0
  8 29  1  0
  9 30  1  0
  9 31  1  0
 10 32  1  0
 11 33  1  0
 12 34  1  0
 12 35  1  0
 13 36  1  0
 13 37  1  0
 14 38  1  0
 14 39  1  0
 15 40  1  0
 15 41  1  0
 16 42  1  0
 16 43  1  0
 17 44  1  0
 17 45  1  0
M  END
>  <Ligand ID>  (1) 
LIG0000418

>  <Ligand>  (1) 
(8E)-cyclohexadec-8-en-1-one

>  <SMILES>  (1) 
O=C1CCCCCCC/C=C/CCCCCC1

>  <CID>  (1) 
6365152.0

>  <ChEMBL ID>  (1) 
nan

>  <InChiKey>  (1) 
ZGEHHVDYDNXYMW-OWOJBTEDSA-N

>  <InChi>  (1) 
InChI=1S/C16H28O/c17-16-14-12-10-8-6-4-2-1-3-5-7-9-11-13-15-16/h1-2H,3-15H2/b2-1+

>  <IUPAC Name>  (1) 
(8E)-cyclohexadec-8-en-1-one

$$$$
