
     RDKit          3D

 62 66  0  0  0  0  0  0  0  0999 V2000
    4.2287    0.8093    2.6175 O   0  0  0  0  0  0  0  0  0  0  0  0
    4.3456    0.0830    1.5764 C   0  0  0  0  0  0  0  0  0  0  0  0
    5.3936    0.2906    0.5896 C   0  0  0  0  0  0  0  0  0  0  0  0
    5.6737   -0.3739   -0.5736 C   0  0  0  0  0  0  0  0  0  0  0  0
    6.7643    0.1964   -1.1579 C   0  0  0  0  0  0  0  0  0  0  0  0
    7.1515    1.2284   -0.3294 C   0  0  0  0  0  0  0  0  0  0  0  0
    6.3179    1.2651    0.7078 N   0  0  0  0  0  0  0  0  0  0  0  0
    8.2419    2.0133   -0.6457 C   0  0  0  0  0  0  0  0  0  0  0  0
    8.9743    1.7910   -1.7942 C   0  0  0  0  0  0  0  0  0  0  0  0
    8.5802    0.7654   -2.6064 C   0  0  0  0  0  0  0  0  0  0  0  0
    7.4915   -0.0313   -2.3070 C   0  0  0  0  0  0  0  0  0  0  0  0
    3.3617   -0.9537    1.4567 N   0  0  0  0  0  0  0  0  0  0  0  0
    2.3835   -1.0457    2.5034 C   0  0  0  0  0  0  0  0  0  0  0  0
    1.4319   -2.1677    2.2304 C   0  0  0  0  0  0  0  0  0  0  0  0
    0.7309   -1.9504    0.9213 C   0  0  0  0  0  0  0  0  0  0  0  0
   -0.0354   -0.6807    0.9471 C   0  0  0  0  0  0  0  0  0  0  0  0
   -0.7730   -0.3677   -0.2555 N   0  0  0  0  0  0  0  0  0  0  0  0
   -1.4293    0.9000   -0.0918 C   0  0  0  0  0  0  0  0  0  0  0  0
   -2.6442    0.8384    0.7534 C   0  0  0  0  0  0  0  0  0  0  0  0
   -3.4691   -0.2802    0.3630 N   0  0  0  0  0  0  0  0  0  0  0  0
   -2.9012   -1.5741   -0.0416 C   0  0  0  0  0  0  0  0  0  0  0  0
   -1.6089   -1.3973   -0.7656 C   0  0  0  0  0  0  0  0  0  0  0  0
   -4.8975   -0.2172    0.3443 C   0  0  0  0  0  0  0  0  0  0  0  0
   -5.5497   -1.0391    1.2527 C   0  0  0  0  0  0  0  0  0  0  0  0
   -6.9246   -1.0732    1.3597 C   0  0  0  0  0  0  0  0  0  0  0  0
   -7.6430   -0.2416    0.5108 C   0  0  0  0  0  0  0  0  0  0  0  0
   -6.9929    0.5736   -0.3909 C   0  0  0  0  0  0  0  0  0  0  0  0
   -5.6106    0.6043   -0.4947 C   0  0  0  0  0  0  0  0  0  0  0  0
   -4.9633    1.4162   -1.3984 C   0  0  0  0  0  0  0  0  0  0  0  0
   -5.6716    2.2263   -2.2296 C   0  0  0  0  0  0  0  0  0  0  0  0
   -7.0589    2.1955   -2.1247 C   0  0  0  0  0  0  0  0  0  0  0  0
   -7.7144    1.3930   -1.2313 C   0  0  0  0  0  0  0  0  0  0  0  0
    5.1073   -1.2124   -0.9469 H   0  0  0  0  0  0  0  0  0  0  0  0
    6.3903    1.9587    1.4884 H   0  0  0  0  0  0  0  0  0  0  0  0
    8.5500    2.8301    0.0075 H   0  0  0  0  0  0  0  0  0  0  0  0
    9.8135    2.4224   -2.0038 H   0  0  0  0  0  0  0  0  0  0  0  0
    9.1303    0.5619   -3.5146 H   0  0  0  0  0  0  0  0  0  0  0  0
    7.2079   -0.8263   -2.9619 H   0  0  0  0  0  0  0  0  0  0  0  0
    3.4233   -1.5707    0.6225 H   0  0  0  0  0  0  0  0  0  0  0  0
    1.8036   -0.1084    2.6160 H   0  0  0  0  0  0  0  0  0  0  0  0
    2.9185   -1.2541    3.4977 H   0  0  0  0  0  0  0  0  0  0  0  0
    0.6487   -2.1859    3.0338 H   0  0  0  0  0  0  0  0  0  0  0  0
    1.9142   -3.1679    2.2952 H   0  0  0  0  0  0  0  0  0  0  0  0
    1.5045   -1.8931    0.0992 H   0  0  0  0  0  0  0  0  0  0  0  0
    0.1193   -2.8360    0.6272 H   0  0  0  0  0  0  0  0  0  0  0  0
    0.6899    0.1871    1.0415 H   0  0  0  0  0  0  0  0  0  0  0  0
   -0.7220   -0.5855    1.8042 H   0  0  0  0  0  0  0  0  0  0  0  0
   -1.5321    1.3825   -1.0745 H   0  0  0  0  0  0  0  0  0  0  0  0
   -0.6815    1.5489    0.4549 H   0  0  0  0  0  0  0  0  0  0  0  0
   -3.1998    1.7894    0.7869 H   0  0  0  0  0  0  0  0  0  0  0  0
   -2.3250    0.6505    1.8057 H   0  0  0  0  0  0  0  0  0  0  0  0
   -2.7038   -2.1000    0.9245 H   0  0  0  0  0  0  0  0  0  0  0  0
   -3.5945   -2.1411   -0.6716 H   0  0  0  0  0  0  0  0  0  0  0  0
   -1.8807   -1.0963   -1.8216 H   0  0  0  0  0  0  0  0  0  0  0  0
   -1.1048   -2.3495   -0.8620 H   0  0  0  0  0  0  0  0  0  0  0  0
   -4.9946   -1.6885    1.9154 H   0  0  0  0  0  0  0  0  0  0  0  0
   -7.3921   -1.7265    2.0795 H   0  0  0  0  0  0  0  0  0  0  0  0
   -8.7209   -0.2722    0.5987 H   0  0  0  0  0  0  0  0  0  0  0  0
   -3.9044    1.4093   -1.4529 H   0  0  0  0  0  0  0  0  0  0  0  0
   -5.2093    2.8809   -2.9555 H   0  0  0  0  0  0  0  0  0  0  0  0
   -7.6474    2.8271   -2.7704 H   0  0  0  0  0  0  0  0  0  0  0  0
   -8.7921    1.3696   -1.1502 H   0  0  0  0  0  0  0  0  0  0  0  0
  1  2  2  0
  2  3  1  0
  3  4  2  0
  4  5  1  0
  5  6  2  0
  6  7  1  0
  6  8  1  0
  8  9  2  0
  9 10  1  0
 10 11  2  0
  2 12  1  0
 12 13  1  0
 13 14  1  0
 14 15  1  0
 15 16  1  0
 16 17  1  0
 17 18  1  0
 18 19  1  0
 19 20  1  0
 20 21  1  0
 21 22  1  0
 20 23  1  0
 23 24  2  0
 24 25  1  0
 25 26  2  0
 26 27  1  0
 27 28  2  0
 28 29  1  0
 29 30  2  0
 30 31  1  0
 31 32  2  0
  7  3  1  0
 22 17  1  0
 28 23  1  0
 11  5  1  0
 32 27  1  0
  4 33  1  0
  7 34  1  0
  8 35  1  0
  9 36  1  0
 10 37  1  0
 11 38  1  0
 12 39  1  0
 13 40  1  0
 13 41  1  0
 14 42  1  0
 14 43  1  0
 15 44  1  0
 15 45  1  0
 16 46  1  0
 16 47  1  0
 18 48  1  0
 18 49  1  0
 19 50  1  0
 19 51  1  0
 21 52  1  0
 21 53  1  0
 22 54  1  0
 22 55  1  0
 24 56  1  0
 25 57  1  0
 26 58  1  0
 29 59  1  0
 30 60  1  0
 31 61  1  0
 32 62  1  0
M  END
>  <Ligand ID>  (1) 
LIG0003162

>  <Ligand>  (1) 
CHEMBL3597643

>  <SMILES>  (1) 
O=C(c1cc2c([nH]1)cccc2)NCCCCN1CCN(CC1)c1cccc2c1cccc2

>  <CID>  (1) 
122183771.0

>  <ChEMBL ID>  (1) 
nan

>  <InChiKey>  (1) 
PVDOYAVBGNHRBV-UHFFFAOYSA-N

>  <InChi>  (1) 
InChI=1S/C27H30N4O/c32-27(25-20-22-9-2-4-12-24(22)29-25)28-14-5-6-15-30-16-18-31(19-17-30)26-13-7-10-21-8-1-3-11-23(21)26/h1-4,7-13,20,29H,5-6,14-19H2,(H,28,32)

>  <IUPAC Name>  (1) 
N-[4-(4-naphthalen-1-ylpiperazin-1-yl)butyl]-1H-indole-2-carboxamide

$$$$
