
     RDKit          3D

 26 26  0  0  0  0  0  0  0  0999 V2000
    3.4896    0.5105   -0.3675 C   0  0  0  0  0  0  0  0  0  0  0  0
    2.0886    0.0256   -0.1886 C   0  0  0  0  0  0  0  0  0  0  0  0
    1.3557   -0.3333   -1.2128 C   0  0  0  0  0  0  0  0  0  0  0  0
   -0.0204   -0.8244   -1.1960 C   0  0  0  0  0  0  0  0  0  0  0  0
   -0.6186   -0.9152    0.1539 C   0  0  1  0  0  0  0  0  0  0  0  0
    0.2730   -0.4939    1.2317 C   0  0  0  0  0  0  0  0  0  0  0  0
    1.5095   -0.0596    1.1251 C   0  0  0  0  0  0  0  0  0  0  0  0
   -1.9256   -0.1225    0.1638 C   0  0  0  0  0  0  0  0  0  0  0  0
   -2.5654   -0.2009    1.5491 C   0  0  0  0  0  0  0  0  0  0  0  0
   -1.7069    1.3073   -0.2471 C   0  0  0  0  0  0  0  0  0  0  0  0
    3.6382    0.8498   -1.4268 H   0  0  0  0  0  0  0  0  0  0  0  0
    3.7456    1.3522    0.2967 H   0  0  0  0  0  0  0  0  0  0  0  0
    4.2069   -0.3167   -0.2027 H   0  0  0  0  0  0  0  0  0  0  0  0
    1.8412   -0.2523   -2.1987 H   0  0  0  0  0  0  0  0  0  0  0  0
   -0.6200   -0.1081   -1.8313 H   0  0  0  0  0  0  0  0  0  0  0  0
   -0.0847   -1.8300   -1.6993 H   0  0  0  0  0  0  0  0  0  0  0  0
   -0.9365   -1.9924    0.3188 H   0  0  0  0  0  0  0  0  0  0  0  0
   -0.1224   -0.5407    2.2497 H   0  0  0  0  0  0  0  0  0  0  0  0
    2.0999    0.2329    1.9850 H   0  0  0  0  0  0  0  0  0  0  0  0
   -2.5924   -0.6015   -0.5791 H   0  0  0  0  0  0  0  0  0  0  0  0
   -2.3405    0.7330    2.0734 H   0  0  0  0  0  0  0  0  0  0  0  0
   -2.0962   -1.0429    2.0820 H   0  0  0  0  0  0  0  0  0  0  0  0
   -3.6630   -0.3242    1.4229 H   0  0  0  0  0  0  0  0  0  0  0  0
   -0.6505    1.6014   -0.0788 H   0  0  0  0  0  0  0  0  0  0  0  0
   -2.3991    1.9559    0.3186 H   0  0  0  0  0  0  0  0  0  0  0  0
   -1.9057    1.3901   -1.3328 H   0  0  0  0  0  0  0  0  0  0  0  0
  1  2  1  0
  2  3  2  0
  3  4  1  0
  4  5  1  0
  5  6  1  0
  6  7  2  0
  5  8  1  0
  8  9  1  0
  8 10  1  0
  7  2  1  0
  1 11  1  0
  1 12  1  0
  1 13  1  0
  3 14  1  0
  4 15  1  0
  4 16  1  0
  5 17  1  1
  6 18  1  0
  7 19  1  0
  8 20  1  0
  9 21  1  0
  9 22  1  0
  9 23  1  0
 10 24  1  0
 10 25  1  0
 10 26  1  0
M  END
>  <Ligand ID>  (1) 
LIG0001030

>  <Ligand>  (1) 
alpha-PHELLANDRENE, (-)-

>  <SMILES>  (1) 
CC1=CC[C@@H](C=C1)C(C)C

>  <CID>  (1) 
442482.0

>  <ChEMBL ID>  (1) 
nan

>  <InChiKey>  (1) 
OGLDWXZKYODSOB-SNVBAGLBSA-N

>  <InChi>  (1) 
InChI=1S/C10H16/c1-8(2)10-6-4-9(3)5-7-10/h4-6,8,10H,7H2,1-3H3/t10-/m1/s1

>  <IUPAC Name>  (1) 
(5R)-2-methyl-5-propan-2-ylcyclohexa-1,3-diene

$$$$
