
     RDKit          3D

 44 46  0  0  0  0  0  0  0  0999 V2000
   -0.4741   -2.1818    1.9535 C   0  0  0  0  0  0  0  0  0  0  0  0
    0.3995   -1.6388    0.8850 C   0  0  2  0  0  0  0  0  0  0  0  0
    1.8737   -1.7841    1.2582 C   0  0  0  0  0  0  0  0  0  0  0  0
    2.8230   -1.2526    0.2908 C   0  0  0  0  0  0  0  0  0  0  0  0
    3.4725   -1.9703   -0.6866 C   0  0  0  0  0  0  0  0  0  0  0  0
    4.2681   -1.1523   -1.4235 N   0  0  0  0  0  0  0  0  0  0  0  0
    4.1464    0.1070   -0.9340 C   0  0  0  0  0  0  0  0  0  0  0  0
    3.2642    0.0607    0.1169 C   0  0  0  0  0  0  0  0  0  0  0  0
    3.0072    1.2569    0.7730 C   0  0  0  0  0  0  0  0  0  0  0  0
    3.5975    2.4419    0.4021 C   0  0  0  0  0  0  0  0  0  0  0  0
    4.4747    2.4461   -0.6561 C   0  0  0  0  0  0  0  0  0  0  0  0
    4.7692    1.2832   -1.3470 C   0  0  0  0  0  0  0  0  0  0  0  0
    0.1266   -0.3891    0.3167 N   0  0  0  0  0  0  0  0  0  0  0  0
   -1.1266   -0.1132   -0.2714 C   0  0  0  0  0  0  0  0  0  0  0  0
   -2.2712   -0.0084    0.6852 C   0  0  2  0  0  0  0  0  0  0  0  0
   -3.4582    0.4148   -0.1480 C   0  0  0  0  0  0  0  0  0  0  0  0
   -3.4459    1.7112   -0.5884 C   0  0  0  0  0  0  0  0  0  0  0  0
   -4.4676    2.2244   -1.3614 C   0  0  0  0  0  0  0  0  0  0  0  0
   -5.5179    1.3773   -1.6808 C   0  0  0  0  0  0  0  0  0  0  0  0
   -5.5159    0.0648   -1.2259 C   0  0  0  0  0  0  0  0  0  0  0  0
   -4.4813   -0.4402   -0.4487 C   0  0  0  0  0  0  0  0  0  0  0  0
   -6.8304   -1.0007   -1.6261 Cl  0  0  0  0  0  0  0  0  0  0  0  0
   -2.0174    1.0055    1.6103 O   0  0  0  0  0  0  0  0  0  0  0  0
    0.1954   -2.8806    2.5598 H   0  0  0  0  0  0  0  0  0  0  0  0
   -1.2375   -2.8451    1.5506 H   0  0  0  0  0  0  0  0  0  0  0  0
   -0.8075   -1.4551    2.7224 H   0  0  0  0  0  0  0  0  0  0  0  0
    0.2981   -2.3907    0.0230 H   0  0  0  0  0  0  0  0  0  0  0  0
    2.0500   -2.8807    1.4155 H   0  0  0  0  0  0  0  0  0  0  0  0
    2.0260   -1.3385    2.2722 H   0  0  0  0  0  0  0  0  0  0  0  0
    3.3507   -3.0411   -0.8289 H   0  0  0  0  0  0  0  0  0  0  0  0
    4.8608   -1.4649   -2.2231 H   0  0  0  0  0  0  0  0  0  0  0  0
    2.3018    1.1890    1.6069 H   0  0  0  0  0  0  0  0  0  0  0  0
    3.3345    3.3181    0.9727 H   0  0  0  0  0  0  0  0  0  0  0  0
    4.9460    3.3674   -0.9602 H   0  0  0  0  0  0  0  0  0  0  0  0
    5.4533    1.2676   -2.1772 H   0  0  0  0  0  0  0  0  0  0  0  0
    0.8801   -0.1241   -0.3910 H   0  0  0  0  0  0  0  0  0  0  0  0
   -1.0374    0.9038   -0.7572 H   0  0  0  0  0  0  0  0  0  0  0  0
   -1.4024   -0.7746   -1.1199 H   0  0  0  0  0  0  0  0  0  0  0  0
   -2.5354   -0.9306    1.2192 H   0  0  0  0  0  0  0  0  0  0  0  0
   -2.6318    2.3901   -0.3485 H   0  0  0  0  0  0  0  0  0  0  0  0
   -4.4510    3.2594   -1.7095 H   0  0  0  0  0  0  0  0  0  0  0  0
   -6.3499    1.7402   -2.2926 H   0  0  0  0  0  0  0  0  0  0  0  0
   -4.4590   -1.4495   -0.0862 H   0  0  0  0  0  0  0  0  0  0  0  0
   -1.4009    1.6779    1.2073 H   0  0  0  0  0  0  0  0  0  0  0  0
  1  2  1  0
  2  3  1  0
  3  4  1  0
  4  5  2  0
  5  6  1  0
  6  7  1  0
  7  8  2  0
  8  9  1  0
  9 10  2  0
 10 11  1  0
 11 12  2  0
  2 13  1  0
 13 14  1  0
 14 15  1  0
 15 16  1  0
 16 17  2  0
 17 18  1  0
 18 19  2  0
 19 20  1  0
 20 21  2  0
 20 22  1  0
 15 23  1  0
  8  4  1  0
 21 16  1  0
 12  7  1  0
  1 24  1  0
  1 25  1  0
  1 26  1  0
  2 27  1  6
  3 28  1  0
  3 29  1  0
  5 30  1  0
  6 31  1  0
  9 32  1  0
 10 33  1  0
 11 34  1  0
 12 35  1  0
 13 36  1  0
 14 37  1  0
 14 38  1  0
 15 39  1  1
 17 40  1  0
 18 41  1  0
 19 42  1  0
 21 43  1  0
 23 44  1  0
M  END
>  <Ligand ID>  (1) 
LIG0002233

>  <Ligand>  (1) 
CHEMBL279931

>  <SMILES>  (1) 
C[C@H](Cc1c[nH]c2c1cccc2)NC[C@H](c1cccc(c1)Cl)O

>  <CID>  (1) 
11270071.0

>  <ChEMBL ID>  (1) 
nan

>  <InChiKey>  (1) 
AGWBMRMDTWHPJM-BFUOFWGJSA-N

>  <InChi>  (1) 
InChI=1S/C19H21ClN2O/c1-13(9-15-11-22-18-8-3-2-7-17(15)18)21-12-19(23)14-5-4-6-16(20)10-14/h2-8,10-11,13,19,21-23H,9,12H2,1H3/t13-,19-/m1/s1

>  <IUPAC Name>  (1) 
(1S)-1-(3-chlorophenyl)-2-[[(2R)-1-(1H-indol-3-yl)propan-2-yl]amino]ethanol

$$$$
