
     RDKit          3D

 26 26  0  0  0  0  0  0  0  0999 V2000
   -2.5421    1.5480   -0.0842 N   0  0  0  0  0  0  0  0  0  0  0  0
   -2.2918    0.3113   -0.7921 C   0  0  1  0  0  0  0  0  0  0  0  0
   -0.8839   -0.0581   -0.4479 C   0  0  0  0  0  0  0  0  0  0  0  0
   -0.5037   -1.3195   -0.0763 C   0  0  0  0  0  0  0  0  0  0  0  0
    0.8102   -1.5603    0.2182 C   0  0  0  0  0  0  0  0  0  0  0  0
    1.8140   -0.5878    0.1654 C   0  0  0  0  0  0  0  0  0  0  0  0
    1.4335    0.6737   -0.2064 C   0  0  0  0  0  0  0  0  0  0  0  0
    0.0908    0.9070   -0.5042 C   0  0  0  0  0  0  0  0  0  0  0  0
    2.3356    1.7872   -0.3160 C   0  0  0  0  0  0  0  0  0  0  0  0
    3.5638    1.8175   -0.1113 O   0  0  0  0  0  0  0  0  0  0  0  0
    1.8040    3.0358   -0.7049 O   0  0  0  0  0  0  0  0  0  0  0  0
    3.1688   -0.9751    0.5071 C   0  0  0  0  0  0  0  0  0  0  0  0
    4.1833   -0.2802    0.5311 O   0  0  0  0  0  0  0  0  0  0  0  0
    3.3645   -2.3177    0.8591 O   0  0  0  0  0  0  0  0  0  0  0  0
   -3.2532   -0.7235   -0.3669 C   0  0  0  0  0  0  0  0  0  0  0  0
   -4.0585   -0.4205    0.5544 O   0  0  0  0  0  0  0  0  0  0  0  0
   -3.3431   -1.9897   -0.8940 O   0  0  0  0  0  0  0  0  0  0  0  0
   -3.3659    1.5600    0.5158 H   0  0  0  0  0  0  0  0  0  0  0  0
   -2.3204    2.4074   -0.6161 H   0  0  0  0  0  0  0  0  0  0  0  0
   -2.3224    0.4529   -1.9008 H   0  0  0  0  0  0  0  0  0  0  0  0
   -1.2210   -2.1123   -0.0136 H   0  0  0  0  0  0  0  0  0  0  0  0
    1.0567   -2.5813    0.5079 H   0  0  0  0  0  0  0  0  0  0  0  0
   -0.2564    1.9080   -0.8073 H   0  0  0  0  0  0  0  0  0  0  0  0
    2.3523    3.8899   -0.5423 H   0  0  0  0  0  0  0  0  0  0  0  0
    4.3211   -2.6855    0.8447 H   0  0  0  0  0  0  0  0  0  0  0  0
   -3.9360   -2.6875   -0.4243 H   0  0  0  0  0  0  0  0  0  0  0  0
  1  2  1  0
  2  3  1  0
  3  4  2  0
  4  5  1  0
  5  6  2  0
  6  7  1  0
  7  8  2  0
  7  9  1  0
  9 10  2  0
  9 11  1  0
  6 12  1  0
 12 13  2  0
 12 14  1  0
  2 15  1  0
 15 16  2  0
 15 17  1  0
  8  3  1  0
  1 18  1  0
  1 19  1  0
  2 20  1  6
  4 21  1  0
  5 22  1  0
  8 23  1  0
 11 24  1  0
 14 25  1  0
 17 26  1  0
M  END
>  <Ligand ID>  (1) 
LIG0000358

>  <Ligand>  (1) 
(S)-3,4-DCPG

>  <SMILES>  (1) 
N[C@@H](c1ccc(c(c1)C(=O)O)C(=O)O)C(=O)O

>  <CID>  (1) 
16062593.0

>  <ChEMBL ID>  (1) 
nan

>  <InChiKey>  (1) 
IJVMOGKBEVRBPP-ZETCQYMHSA-N

>  <InChi>  (1) 
InChI=1S/C10H9NO6/c11-7(10(16)17)4-1-2-5(8(12)13)6(3-4)9(14)15/h1-3,7H,11H2,(H,12,13)(H,14,15)(H,16,17)/t7-/m0/s1

>  <IUPAC Name>  (1) 
4-[(S)-amino(carboxy)methyl]phthalic acid

$$$$
