
     RDKit          3D

 24 24  0  0  0  0  0  0  0  0999 V2000
   -2.0138   -1.3893   -0.8065 C   0  0  0  0  0  0  0  0  0  0  0  0
   -2.1637   -0.3193    0.2184 C   0  0  1  0  0  0  0  0  0  0  0  0
   -1.0410   -0.2674    1.2139 C   0  0  0  0  0  0  0  0  0  0  0  0
    0.2852   -0.0238    0.6183 C   0  0  0  0  0  0  0  0  0  0  0  0
    0.7318    1.2913    0.4666 C   0  0  0  0  0  0  0  0  0  0  0  0
    1.9853    1.5477   -0.0952 C   0  0  0  0  0  0  0  0  0  0  0  0
    2.8012    0.5223   -0.5081 C   0  0  0  0  0  0  0  0  0  0  0  0
    2.3656   -0.7753   -0.3608 C   0  0  0  0  0  0  0  0  0  0  0  0
    1.1369   -1.0217    0.1901 C   0  0  0  0  0  0  0  0  0  0  0  0
    4.0435    0.7951   -1.0642 O   0  0  0  0  0  0  0  0  0  0  0  0
   -2.3604    0.9921   -0.3843 N   0  0  0  0  0  0  0  0  0  0  0  0
   -1.6101   -0.9146   -1.7480 H   0  0  0  0  0  0  0  0  0  0  0  0
   -3.0331   -1.7512   -1.1325 H   0  0  0  0  0  0  0  0  0  0  0  0
   -1.4355   -2.2611   -0.4741 H   0  0  0  0  0  0  0  0  0  0  0  0
   -3.0867   -0.5295    0.7978 H   0  0  0  0  0  0  0  0  0  0  0  0
   -0.9998   -1.1948    1.8069 H   0  0  0  0  0  0  0  0  0  0  0  0
   -1.2514    0.5494    1.9341 H   0  0  0  0  0  0  0  0  0  0  0  0
    0.1431    2.1420    0.7689 H   0  0  0  0  0  0  0  0  0  0  0  0
    2.3092    2.5750   -0.2023 H   0  0  0  0  0  0  0  0  0  0  0  0
    3.0196   -1.5906   -0.6915 H   0  0  0  0  0  0  0  0  0  0  0  0
    0.8296   -2.0530    0.2896 H   0  0  0  0  0  0  0  0  0  0  0  0
    4.8858    0.9100   -0.4817 H   0  0  0  0  0  0  0  0  0  0  0  0
   -2.1756    1.7216    0.3148 H   0  0  0  0  0  0  0  0  0  0  0  0
   -3.3658    1.0451   -0.6702 H   0  0  0  0  0  0  0  0  0  0  0  0
  1  2  1  0
  2  3  1  0
  3  4  1  0
  4  5  2  0
  5  6  1  0
  6  7  2  0
  7  8  1  0
  8  9  2  0
  7 10  1  0
  2 11  1  0
  9  4  1  0
  1 12  1  0
  1 13  1  0
  1 14  1  0
  2 15  1  1
  3 16  1  0
  3 17  1  0
  5 18  1  0
  6 19  1  0
  8 20  1  0
  9 21  1  0
 10 22  1  0
 11 23  1  0
 11 24  1  0
M  END
>  <Ligand ID>  (1) 
LIG0001094

>  <Ligand>  (1) 
(+)-Paredrine

>  <SMILES>  (1) 
C[C@@H](Cc1ccc(cc1)O)N

>  <CID>  (1) 
644000.0

>  <ChEMBL ID>  (1) 
nan

>  <InChiKey>  (1) 
GIKNHHRFLCDOEU-ZETCQYMHSA-N

>  <InChi>  (1) 
InChI=1S/C9H13NO/c1-7(10)6-8-2-4-9(11)5-3-8/h2-5,7,11H,6,10H2,1H3/t7-/m0/s1

>  <IUPAC Name>  (1) 
4-[(2S)-2-aminopropyl]phenol

$$$$
