
     RDKit          3D

 52 54  0  0  0  0  0  0  0  0999 V2000
    1.7776   -2.2852    0.8782 O   0  0  0  0  0  0  0  0  0  0  0  0
    2.1476   -2.0283   -0.4345 C   0  0  2  0  0  0  0  0  0  0  0  0
    3.1572   -0.9361   -0.5094 C   0  0  0  0  0  0  0  0  0  0  0  0
    3.0406    0.1491   -1.3496 C   0  0  0  0  0  0  0  0  0  0  0  0
    4.0328    1.1279   -1.3795 C   0  0  0  0  0  0  0  0  0  0  0  0
    5.1546    1.0333   -0.5682 C   0  0  0  0  0  0  0  0  0  0  0  0
    5.2786   -0.0512    0.2768 C   0  0  0  0  0  0  0  0  0  0  0  0
    4.2843   -1.0034    0.2863 C   0  0  0  0  0  0  0  0  0  0  0  0
    6.4177   -0.1855    1.1155 N   0  0  0  0  0  0  0  0  0  0  0  0
    7.0552    1.1100    2.0603 S   0  0  0  0  0  0  0  0  0  0  0  0
    7.3335    2.2625    1.1230 O   0  0  0  0  0  0  0  0  0  0  0  0
    8.3649    0.7305    2.6899 O   0  0  0  0  0  0  0  0  0  0  0  0
    5.8668    1.6833    3.2455 C   0  0  0  0  0  0  0  0  0  0  0  0
    0.9193   -1.6884   -1.2358 C   0  0  0  0  0  0  0  0  0  0  0  0
   -0.0781   -2.6835   -1.3067 N   0  0  0  0  0  0  0  0  0  0  0  0
   -0.8267   -2.9981   -0.1491 C   0  0  0  0  0  0  0  0  0  0  0  0
   -1.7668   -1.8917    0.2931 C   0  0  0  0  0  0  0  0  0  0  0  0
   -2.7095   -1.5869   -0.7125 O   0  0  0  0  0  0  0  0  0  0  0  0
   -3.6959   -0.6264   -0.5827 C   0  0  0  0  0  0  0  0  0  0  0  0
   -3.8737    0.1449    0.5425 C   0  0  0  0  0  0  0  0  0  0  0  0
   -4.8984    1.0666    0.5421 C   0  0  0  0  0  0  0  0  0  0  0  0
   -5.7539    1.2625   -0.5140 C   0  0  0  0  0  0  0  0  0  0  0  0
   -5.5429    0.4637   -1.6359 C   0  0  0  0  0  0  0  0  0  0  0  0
   -4.5382   -0.4621   -1.6759 C   0  0  0  0  0  0  0  0  0  0  0  0
   -6.4923    0.8413   -2.5089 N   0  0  0  0  0  0  0  0  0  0  0  0
   -7.2420    1.7896   -1.9998 N   0  0  0  0  0  0  0  0  0  0  0  0
   -6.8342    2.0917   -0.7696 C   0  0  0  0  0  0  0  0  0  0  0  0
   -7.4025    3.1023    0.1594 C   0  0  0  0  0  0  0  0  0  0  0  0
    1.5832   -1.4394    1.3779 H   0  0  0  0  0  0  0  0  0  0  0  0
    2.6155   -2.9677   -0.8406 H   0  0  0  0  0  0  0  0  0  0  0  0
    2.1937    0.2597   -1.9847 H   0  0  0  0  0  0  0  0  0  0  0  0
    3.8924    1.9657   -2.0617 H   0  0  0  0  0  0  0  0  0  0  0  0
    5.8863    1.8258   -0.6409 H   0  0  0  0  0  0  0  0  0  0  0  0
    4.4201   -1.8354    0.9602 H   0  0  0  0  0  0  0  0  0  0  0  0
    6.8984   -1.1309    1.1609 H   0  0  0  0  0  0  0  0  0  0  0  0
    4.8801    1.7146    2.7462 H   0  0  0  0  0  0  0  0  0  0  0  0
    6.1558    2.7019    3.5553 H   0  0  0  0  0  0  0  0  0  0  0  0
    5.7871    0.9744    4.0972 H   0  0  0  0  0  0  0  0  0  0  0  0
    0.5534   -0.6858   -0.9253 H   0  0  0  0  0  0  0  0  0  0  0  0
    1.2896   -1.5143   -2.2942 H   0  0  0  0  0  0  0  0  0  0  0  0
   -0.6640   -2.6635   -2.1661 H   0  0  0  0  0  0  0  0  0  0  0  0
   -1.5009   -3.8712   -0.4240 H   0  0  0  0  0  0  0  0  0  0  0  0
   -0.2422   -3.3224    0.7226 H   0  0  0  0  0  0  0  0  0  0  0  0
   -2.3307   -2.2712    1.1699 H   0  0  0  0  0  0  0  0  0  0  0  0
   -1.1959   -1.0100    0.6292 H   0  0  0  0  0  0  0  0  0  0  0  0
   -3.1966   -0.0192    1.3597 H   0  0  0  0  0  0  0  0  0  0  0  0
   -5.0309    1.6728    1.4379 H   0  0  0  0  0  0  0  0  0  0  0  0
   -4.4043   -1.0654   -2.5662 H   0  0  0  0  0  0  0  0  0  0  0  0
   -8.0465    2.2511   -2.4762 H   0  0  0  0  0  0  0  0  0  0  0  0
   -6.6625    3.3995    0.9356 H   0  0  0  0  0  0  0  0  0  0  0  0
   -7.8080    3.9872   -0.3421 H   0  0  0  0  0  0  0  0  0  0  0  0
   -8.2486    2.6112    0.7236 H   0  0  0  0  0  0  0  0  0  0  0  0
  1  2  1  0
  2  3  1  0
  3  4  2  0
  4  5  1  0
  5  6  2  0
  6  7  1  0
  7  8  2  0
  7  9  1  0
  9 10  1  0
 10 11  2  0
 10 12  2  0
 10 13  1  0
  2 14  1  0
 14 15  1  0
 15 16  1  0
 16 17  1  0
 17 18  1  0
 18 19  1  0
 19 20  1  0
 20 21  2  0
 21 22  1  0
 22 23  1  0
 23 24  1  0
 23 25  2  0
 25 26  1  0
 26 27  1  0
 27 28  1  0
  8  3  1  0
 24 19  2  0
 27 22  2  0
  1 29  1  0
  2 30  1  6
  4 31  1  0
  5 32  1  0
  6 33  1  0
  8 34  1  0
  9 35  1  0
 13 36  1  0
 13 37  1  0
 13 38  1  0
 14 39  1  0
 14 40  1  0
 15 41  1  0
 16 42  1  0
 16 43  1  0
 17 44  1  0
 17 45  1  0
 20 46  1  0
 21 47  1  0
 24 48  1  0
 26 49  1  0
 28 50  1  0
 28 51  1  0
 28 52  1  0
M  END
>  <Ligand ID>  (1) 
LIG0000440

>  <Ligand>  (1) 
CHEMBL3601200

>  <SMILES>  (1) 
O[C@H](c1cccc(c1)NS(=O)(=O)C)CNCCOc1ccc2c(c1)n[nH]c2C

>  <CID>  (1) 
10135864.0

>  <ChEMBL ID>  (1) 
nan

>  <InChiKey>  (1) 
ITIDAHAJICCYKL-IBGZPJMESA-N

>  <InChi>  (1) 
InChI=1S/C19H24N4O4S/c1-13-17-7-6-16(11-18(17)22-21-13)27-9-8-20-12-19(24)14-4-3-5-15(10-14)23-28(2,25)26/h3-7,10-11,19-20,23-24H,8-9,12H2,1-2H3,(H,21,22)/t19-/m0/s1

>  <IUPAC Name>  (1) 
N-[3-[(1R)-1-hydroxy-2-[2-[(3-methyl-2H-indazol-6-yl)oxy]ethylamino]ethyl]phenyl]methanesulfonamide

$$$$
