
     RDKit          3D

141146  0  0  0  0  0  0  0  0999 V2000
   10.9009    4.0690    0.9793 C   0  0  0  0  0  0  0  0  0  0  0  0
    9.6263    4.5010    1.6242 C   0  0  0  0  0  0  0  0  0  0  0  0
    8.7008    3.3069    1.8066 C   0  0  0  0  0  0  0  0  0  0  0  0
    8.3514    2.6591    0.5061 C   0  0  0  0  0  0  0  0  0  0  0  0
    7.4303    1.4569    0.6628 C   0  0  1  0  0  0  0  0  0  0  0  0
    6.1442    1.7599    1.2864 C   0  0  0  0  0  0  0  0  0  0  0  0
    5.9848    2.2001    2.4594 O   0  0  0  0  0  0  0  0  0  0  0  0
    4.9504    1.5532    0.5350 N   0  0  0  0  0  0  0  0  0  0  0  0
    3.6352    1.8043    1.0428 C   0  0  1  0  0  0  0  0  0  0  0  0
    2.8938    2.9710    0.4580 C   0  0  0  0  0  0  0  0  0  0  0  0
    2.4399    2.7641   -0.9366 C   0  0  0  0  0  0  0  0  0  0  0  0
    2.7158    1.8037   -1.6583 O   0  0  0  0  0  0  0  0  0  0  0  0
    1.5828    3.7483   -1.5540 N   0  0  0  0  0  0  0  0  0  0  0  0
    1.0690    3.6058   -2.9013 C   0  0  0  0  0  0  0  0  0  0  0  0
    0.1973    4.8422   -3.1855 C   0  0  0  0  0  0  0  0  0  0  0  0
   -0.9221    4.9797   -2.1746 C   0  0  0  0  0  0  0  0  0  0  0  0
   -1.9103    3.8446   -2.1812 C   0  0  0  0  0  0  0  0  0  0  0  0
   -2.9167    3.9789   -1.0279 C   0  0  2  0  0  0  0  0  0  0  0  0
   -3.9404    2.9672   -1.1289 N   0  0  0  0  0  0  0  0  0  0  0  0
   -3.8480    1.6779   -0.4509 C   0  0  0  0  0  0  0  0  0  0  0  0
   -2.7722    1.5359    0.1496 O   0  0  0  0  0  0  0  0  0  0  0  0
   -4.9433    0.7042   -0.5291 C   0  0  1  0  0  0  0  0  0  0  0  0
   -4.3548   -0.6181   -0.1325 N   0  0  0  0  0  0  0  0  0  0  0  0
   -4.6513   -1.7562   -0.9308 C   0  0  0  0  0  0  0  0  0  0  0  0
   -5.3874   -1.5291   -1.9090 O   0  0  0  0  0  0  0  0  0  0  0  0
   -4.1863   -3.1332   -0.7169 C   0  0  1  0  0  0  0  0  0  0  0  0
   -3.2271   -3.3289    0.3497 N   0  0  0  0  0  0  0  0  0  0  0  0
   -1.8550   -3.2495    0.0152 C   0  0  0  0  0  0  0  0  0  0  0  0
   -1.6426   -2.9368   -1.1859 O   0  0  0  0  0  0  0  0  0  0  0  0
   -0.6923   -3.4742    0.8681 C   0  0  2  0  0  0  0  0  0  0  0  0
    0.5087   -3.0815    0.0854 N   0  0  0  0  0  0  0  0  0  0  0  0
    1.4165   -2.0992    0.5772 C   0  0  0  0  0  0  0  0  0  0  0  0
    1.2013   -1.6783    1.7065 O   0  0  0  0  0  0  0  0  0  0  0  0
    2.5444   -1.6724   -0.3264 C   0  0  1  0  0  0  0  0  0  0  0  0
    3.3643   -0.6278    0.2534 N   0  0  0  0  0  0  0  0  0  0  0  0
    2.7756    0.6216    0.6333 C   0  0  0  0  0  0  0  0  0  0  0  0
    1.5440    0.6586    0.6132 O   0  0  0  0  0  0  0  0  0  0  0  0
    3.2780   -2.7678   -0.9726 C   0  0  0  0  0  0  0  0  0  0  0  0
    3.9438   -3.7268   -0.0738 C   0  0  0  0  0  0  0  0  0  0  0  0
    4.6609   -4.7961   -0.4618 N   0  0  0  0  0  0  0  0  0  0  0  0
    5.1170   -5.4375    0.6299 C   0  0  0  0  0  0  0  0  0  0  0  0
    4.7066   -4.8012    1.7215 N   0  0  0  0  0  0  0  0  0  0  0  0
    3.9847   -3.7475    1.3040 C   0  0  0  0  0  0  0  0  0  0  0  0
   -0.4955   -4.9169    1.2736 C   0  0  0  0  0  0  0  0  0  0  0  0
   -0.3120   -5.8087    0.1120 C   0  0  0  0  0  0  0  0  0  0  0  0
    0.9192   -6.1079   -0.4375 C   0  0  0  0  0  0  0  0  0  0  0  0
    0.9861   -6.9547   -1.5333 C   0  0  0  0  0  0  0  0  0  0  0  0
   -0.1362   -7.5091   -2.0928 C   0  0  0  0  0  0  0  0  0  0  0  0
   -1.3768   -7.2142   -1.5471 C   0  0  0  0  0  0  0  0  0  0  0  0
   -1.4555   -6.3742   -0.4594 C   0  0  0  0  0  0  0  0  0  0  0  0
   -3.8416   -3.5620    1.6055 C   0  0  0  0  0  0  0  0  0  0  0  0
   -5.1595   -4.1968    1.1968 C   0  0  2  0  0  0  0  0  0  0  0  0
   -5.3028   -4.0622   -0.2939 C   0  0  0  0  0  0  0  0  0  0  0  0
   -6.2699   -3.5870    1.9062 N   0  0  0  0  0  0  0  0  0  0  0  0
   -7.2221   -4.3905    2.2740 C   0  0  0  0  0  0  0  0  0  0  0  0
   -7.1812   -5.7917    1.9977 N   0  0  0  0  0  0  0  0  0  0  0  0
   -8.3334   -3.8433    2.9775 N   0  0  0  0  0  0  0  0  0  0  0  0
   -6.0976    0.9555    0.4135 C   0  0  0  0  0  0  0  0  0  0  0  0
   -6.7964    2.2250    0.3177 C   0  0  0  0  0  0  0  0  0  0  0  0
   -7.9837    2.5550   -0.3454 C   0  0  0  0  0  0  0  0  0  0  0  0
   -8.2560    3.8636   -0.1504 N   0  0  0  0  0  0  0  0  0  0  0  0
   -7.3035    4.4230    0.6133 C   0  0  0  0  0  0  0  0  0  0  0  0
   -6.3854    3.4221    0.9156 C   0  0  0  0  0  0  0  0  0  0  0  0
   -5.3273    3.7901    1.7105 C   0  0  0  0  0  0  0  0  0  0  0  0
   -5.1369    5.0598    2.2078 C   0  0  0  0  0  0  0  0  0  0  0  0
   -6.0688    6.0420    1.8917 C   0  0  0  0  0  0  0  0  0  0  0  0
   -7.1425    5.7059    1.0958 C   0  0  0  0  0  0  0  0  0  0  0  0
   -3.4054    5.3541   -0.9309 C   0  0  0  0  0  0  0  0  0  0  0  0
   -2.6345    6.3483   -0.6534 O   0  0  0  0  0  0  0  0  0  0  0  0
   -4.7736    5.7273   -1.1352 N   0  0  0  0  0  0  0  0  0  0  0  0
    7.2483    0.8246   -0.6588 N   0  0  0  0  0  0  0  0  0  0  0  0
    7.7426   -0.4849   -0.8792 C   0  0  0  0  0  0  0  0  0  0  0  0
    8.3346   -1.0884    0.0647 O   0  0  0  0  0  0  0  0  0  0  0  0
    7.6165   -1.2173   -2.1559 C   0  0  0  0  0  0  0  0  0  0  0  0
   11.3798    3.2864    1.6075 H   0  0  0  0  0  0  0  0  0  0  0  0
   11.5712    4.9671    0.8889 H   0  0  0  0  0  0  0  0  0  0  0  0
   10.7803    3.6851   -0.0324 H   0  0  0  0  0  0  0  0  0  0  0  0
    9.0922    5.1992    0.9397 H   0  0  0  0  0  0  0  0  0  0  0  0
    9.8321    4.9337    2.6032 H   0  0  0  0  0  0  0  0  0  0  0  0
    7.7720    3.6300    2.3475 H   0  0  0  0  0  0  0  0  0  0  0  0
    9.2068    2.5658    2.4675 H   0  0  0  0  0  0  0  0  0  0  0  0
    7.9392    3.4348   -0.1660 H   0  0  0  0  0  0  0  0  0  0  0  0
    9.3011    2.3143    0.0111 H   0  0  0  0  0  0  0  0  0  0  0  0
    7.9821    0.7164    1.2724 H   0  0  0  0  0  0  0  0  0  0  0  0
    5.0009    1.1882   -0.4657 H   0  0  0  0  0  0  0  0  0  0  0  0
    3.5713    1.8996    2.1205 H   0  0  0  0  0  0  0  0  0  0  0  0
    1.9520    3.0587    1.0662 H   0  0  0  0  0  0  0  0  0  0  0  0
    3.4172    3.9377    0.6092 H   0  0  0  0  0  0  0  0  0  0  0  0
    1.3746    4.5528   -0.9643 H   0  0  0  0  0  0  0  0  0  0  0  0
    1.8573    3.6396   -3.6716 H   0  0  0  0  0  0  0  0  0  0  0  0
    0.4525    2.7236   -3.0603 H   0  0  0  0  0  0  0  0  0  0  0  0
   -0.1606    4.8611   -4.2185 H   0  0  0  0  0  0  0  0  0  0  0  0
    0.8562    5.7195   -3.0323 H   0  0  0  0  0  0  0  0  0  0  0  0
   -1.4742    5.9146   -2.5254 H   0  0  0  0  0  0  0  0  0  0  0  0
   -0.5023    5.2145   -1.2003 H   0  0  0  0  0  0  0  0  0  0  0  0
   -1.3469    2.9056   -2.1170 H   0  0  0  0  0  0  0  0  0  0  0  0
   -2.5001    3.9123   -3.1183 H   0  0  0  0  0  0  0  0  0  0  0  0
   -2.2778    3.7679   -0.1168 H   0  0  0  0  0  0  0  0  0  0  0  0
   -4.7953    3.0712   -1.6742 H   0  0  0  0  0  0  0  0  0  0  0  0
   -5.3624    0.6716   -1.5338 H   0  0  0  0  0  0  0  0  0  0  0  0
   -3.7597   -0.7484    0.6633 H   0  0  0  0  0  0  0  0  0  0  0  0
   -3.7678   -3.5562   -1.6880 H   0  0  0  0  0  0  0  0  0  0  0  0
   -0.7546   -2.8622    1.7710 H   0  0  0  0  0  0  0  0  0  0  0  0
    0.7302   -3.4907   -0.8160 H   0  0  0  0  0  0  0  0  0  0  0  0
    1.9985   -1.0908   -1.1696 H   0  0  0  0  0  0  0  0  0  0  0  0
    4.3699   -0.6939    0.4354 H   0  0  0  0  0  0  0  0  0  0  0  0
    2.5939   -3.3397   -1.6215 H   0  0  0  0  0  0  0  0  0  0  0  0
    4.0103   -2.2938   -1.6882 H   0  0  0  0  0  0  0  0  0  0  0  0
    4.8728   -5.1367   -1.4344 H   0  0  0  0  0  0  0  0  0  0  0  0
    5.7307   -6.3387    0.6725 H   0  0  0  0  0  0  0  0  0  0  0  0
    3.5294   -3.0537    1.9909 H   0  0  0  0  0  0  0  0  0  0  0  0
    0.4962   -4.9519    1.8184 H   0  0  0  0  0  0  0  0  0  0  0  0
   -1.2276   -5.2766    2.0082 H   0  0  0  0  0  0  0  0  0  0  0  0
    1.8034   -5.6735    0.0020 H   0  0  0  0  0  0  0  0  0  0  0  0
    1.9694   -7.1665   -1.9390 H   0  0  0  0  0  0  0  0  0  0  0  0
   -0.1179   -8.1617   -2.9347 H   0  0  0  0  0  0  0  0  0  0  0  0
   -2.3039   -7.6199   -1.9403 H   0  0  0  0  0  0  0  0  0  0  0  0
   -2.4361   -6.1573   -0.0450 H   0  0  0  0  0  0  0  0  0  0  0  0
   -3.2868   -4.2059    2.3147 H   0  0  0  0  0  0  0  0  0  0  0  0
   -4.0392   -2.5858    2.1346 H   0  0  0  0  0  0  0  0  0  0  0  0
   -5.0742   -5.2852    1.4807 H   0  0  0  0  0  0  0  0  0  0  0  0
   -5.1107   -5.0538   -0.7704 H   0  0  0  0  0  0  0  0  0  0  0  0
   -6.2997   -3.6634   -0.5866 H   0  0  0  0  0  0  0  0  0  0  0  0
   -6.6120   -6.4573    2.5830 H   0  0  0  0  0  0  0  0  0  0  0  0
   -7.7173   -6.2008    1.2007 H   0  0  0  0  0  0  0  0  0  0  0  0
   -9.3094   -4.1635    2.7785 H   0  0  0  0  0  0  0  0  0  0  0  0
   -8.1780   -3.0989    3.7176 H   0  0  0  0  0  0  0  0  0  0  0  0
   -5.6478    0.9088    1.4521 H   0  0  0  0  0  0  0  0  0  0  0  0
   -6.7994    0.0704    0.4137 H   0  0  0  0  0  0  0  0  0  0  0  0
   -8.5875    1.8792   -0.9215 H   0  0  0  0  0  0  0  0  0  0  0  0
   -9.0829    4.3666   -0.5355 H   0  0  0  0  0  0  0  0  0  0  0  0
   -4.5860    3.0522    1.9790 H   0  0  0  0  0  0  0  0  0  0  0  0
   -4.2629    5.2845    2.8396 H   0  0  0  0  0  0  0  0  0  0  0  0
   -5.9434    7.0601    2.2709 H   0  0  0  0  0  0  0  0  0  0  0  0
   -7.8995    6.4269    0.8157 H   0  0  0  0  0  0  0  0  0  0  0  0
   -5.4542    5.1122   -1.6481 H   0  0  0  0  0  0  0  0  0  0  0  0
   -5.1729    6.6320   -0.7860 H   0  0  0  0  0  0  0  0  0  0  0  0
    6.7665    1.3137   -1.4423 H   0  0  0  0  0  0  0  0  0  0  0  0
    7.1617   -2.2295   -1.9734 H   0  0  0  0  0  0  0  0  0  0  0  0
    8.6308   -1.3591   -2.5748 H   0  0  0  0  0  0  0  0  0  0  0  0
    6.9801   -0.7013   -2.9027 H   0  0  0  0  0  0  0  0  0  0  0  0
  1  2  1  0
  2  3  1  0
  3  4  1  0
  4  5  1  0
  5  6  1  0
  6  7  2  0
  6  8  1  0
  8  9  1  0
  9 10  1  0
 10 11  1  0
 11 12  2  0
 11 13  1  0
 13 14  1  0
 14 15  1  0
 15 16  1  0
 16 17  1  0
 17 18  1  0
 18 19  1  0
 19 20  1  0
 20 21  2  0
 20 22  1  0
 22 23  1  0
 23 24  1  0
 24 25  2  0
 24 26  1  0
 26 27  1  0
 27 28  1  0
 28 29  2  0
 28 30  1  0
 30 31  1  0
 31 32  1  0
 32 33  2  0
 32 34  1  0
 34 35  1  0
 35 36  1  0
 36 37  2  0
 34 38  1  0
 38 39  1  0
 39 40  1  0
 40 41  1  0
 41 42  2  0
 42 43  1  0
 30 44  1  0
 44 45  1  0
 45 46  2  0
 46 47  1  0
 47 48  2  0
 48 49  1  0
 49 50  2  0
 27 51  1  0
 51 52  1  0
 52 53  1  0
 52 54  1  0
 54 55  2  3
 55 56  1  0
 55 57  1  0
 22 58  1  0
 58 59  1  0
 59 60  2  0
 60 61  1  0
 61 62  1  0
 62 63  2  0
 63 64  1  0
 64 65  2  0
 65 66  1  0
 66 67  2  0
 18 68  1  0
 68 69  2  0
 68 70  1  0
  5 71  1  0
 71 72  1  0
 72 73  2  0
 72 74  1  0
 36  9  1  0
 43 39  2  0
 50 45  1  0
 63 59  1  0
 53 26  1  0
 67 62  1  0
  1 75  1  0
  1 76  1  0
  1 77  1  0
  2 78  1  0
  2 79  1  0
  3 80  1  0
  3 81  1  0
  4 82  1  0
  4 83  1  0
  5 84  1  1
  8 85  1  0
  9 86  1  1
 10 87  1  0
 10 88  1  0
 13 89  1  0
 14 90  1  0
 14 91  1  0
 15 92  1  0
 15 93  1  0
 16 94  1  0
 16 95  1  0
 17 96  1  0
 17 97  1  0
 18 98  1  1
 19 99  1  0
 22100  1  6
 23101  1  0
 26102  1  6
 30103  1  1
 31104  1  0
 34105  1  6
 35106  1  0
 38107  1  0
 38108  1  0
 40109  1  0
 41110  1  0
 43111  1  0
 44112  1  0
 44113  1  0
 46114  1  0
 47115  1  0
 48116  1  0
 49117  1  0
 50118  1  0
 51119  1  0
 51120  1  0
 52121  1  6
 53122  1  0
 53123  1  0
 56124  1  0
 56125  1  0
 57126  1  0
 57127  1  0
 58128  1  0
 58129  1  0
 60130  1  0
 61131  1  0
 64132  1  0
 65133  1  0
 66134  1  0
 67135  1  0
 70136  1  0
 70137  1  0
 71138  1  0
 74139  1  0
 74140  1  0
 74141  1  0
M  END
>  <Ligand ID>  (1) 
LIG0001781

>  <Ligand>  (1) 
CHEMBL455070

>  <SMILES>  (1) 
CCCC[C@@H](C(=O)N[C@H]1CC(=O)NCCCC[C@H](NC(=O)[C@@H](NC(=O)[C@H]2N(C(=O)[C@H](NC(=O)[C@@H](NC1=O)Cc1[nH]cnc1)Cc1ccccc1)C[C@H](C2)N=C(N)N)Cc1c[nH]c2c1cccc2)C(=O)N)NC(=O)C

>  <CID>  (1) 
44158097.0

>  <ChEMBL ID>  (1) 
nan

>  <InChiKey>  (1) 
OOCZYZNDKCLOHE-OUGPXSNASA-N

>  <InChi>  (1) 
InChI=1S/C50H67N15O9/c1-3-4-15-36(58-28(2)66)44(69)62-39-23-42(67)55-18-11-10-17-35(43(51)68)60-45(70)37(20-30-24-56-34-16-9-8-14-33(30)34)63-48(73)41-22-32(59-50(52)53)26-65(41)49(74)40(19-29-12-6-5-7-13-29)64-46(71)38(61-47(39)72)21-31-25-54-27-57-31/h5-9,12-14,16,24-25,27,32,35-41,56H,3-4,10-11,15,17-23,26H2,1-2H3,(H2,51,68)(H,54,57)(H,55,67)(H,58,66)(H,60,70)(H,61,72)(H,62,69)(H,63,73)(H,64,71)(H4,52,53,59)/t32-,35-,36-,37-,38-,39-,40+,41-/m0/s1

>  <IUPAC Name>  (1) 
(3R,6S,9S,17S,20S,23S,25S)-9-[[(2S)-2-acetamidohexanoyl]amino]-3-benzyl-25-(diaminomethylideneamino)-6-(1H-imidazol-5-ylmethyl)-20-(1H-indol-3-ylmethyl)-2,5,8,11,19,22-hexaoxo-1,4,7,12,18,21-hexazabicyclo[21.3.0]hexacosane-17-carboxamide

$$$$
