
     RDKit          3D

 16 15  0  0  0  0  0  0  0  0999 V2000
   -1.1381    1.5030   -0.3913 O   0  0  0  0  0  0  0  0  0  0  0  0
   -0.7897    0.9498    0.8341 C   0  0  0  0  0  0  0  0  0  0  0  0
   -0.0203   -0.3223    0.5677 C   0  0  0  0  0  0  0  0  0  0  0  0
    1.1936    0.1563   -0.2418 C   0  0  0  0  0  0  0  0  0  0  0  0
    2.2344   -1.2430   -0.6525 S   0  0  0  0  0  0  0  0  0  0  0  0
   -0.9060   -1.2074   -0.2502 C   0  0  0  0  0  0  0  0  0  0  0  0
   -1.7699    2.2558   -0.1811 H   0  0  0  0  0  0  0  0  0  0  0  0
   -0.1298    1.6807    1.3714 H   0  0  0  0  0  0  0  0  0  0  0  0
   -1.6942    0.8293    1.4325 H   0  0  0  0  0  0  0  0  0  0  0  0
    0.3749   -0.7745    1.4946 H   0  0  0  0  0  0  0  0  0  0  0  0
    1.7834    0.8434    0.3995 H   0  0  0  0  0  0  0  0  0  0  0  0
    0.8679    0.7275   -1.1294 H   0  0  0  0  0  0  0  0  0  0  0  0
    3.5417   -1.0810   -0.1578 H   0  0  0  0  0  0  0  0  0  0  0  0
   -0.8759   -2.2513    0.1165 H   0  0  0  0  0  0  0  0  0  0  0  0
   -0.6881   -1.1615   -1.3394 H   0  0  0  0  0  0  0  0  0  0  0  0
   -1.9838   -0.9048   -0.1762 H   0  0  0  0  0  0  0  0  0  0  0  0
  1  2  1  0
  2  3  1  0
  3  4  1  0
  4  5  1  0
  3  6  1  0
  1  7  1  0
  2  8  1  0
  2  9  1  0
  3 10  1  0
  4 11  1  0
  4 12  1  0
  5 13  1  0
  6 14  1  0
  6 15  1  0
  6 16  1  0
M  END
>  <Ligand ID>  (1) 
LIG0000062

>  <Ligand>  (1) 
2-methyl-3-sulfanylpropan-1-ol

>  <SMILES>  (1) 
OCC(CS)C

>  <CID>  (1) 
529079.0

>  <ChEMBL ID>  (1) 
nan

>  <InChiKey>  (1) 
FCIVYWQHILCTLI-UHFFFAOYSA-N

>  <InChi>  (1) 
InChI=1S/C4H10OS/c1-4(2-5)3-6/h4-6H,2-3H2,1H3

>  <IUPAC Name>  (1) 
2-methyl-3-sulfanylpropan-1-ol

$$$$
