
     RDKit          3D

 22 23  0  0  0  0  0  0  0  0999 V2000
    3.8862   -0.7654    0.5089 O   0  0  0  0  0  0  0  0  0  0  0  0
    2.8009   -0.7081   -0.3405 C   0  0  0  0  0  0  0  0  0  0  0  0
    2.9170   -1.2216   -1.4728 O   0  0  0  0  0  0  0  0  0  0  0  0
    1.5061   -0.0775    0.0015 C   0  0  1  0  0  0  0  0  0  0  0  0
    0.8664    0.6631   -1.1111 C   0  0  1  0  0  0  0  0  0  0  0  0
    0.2200   -0.5836   -0.4882 C   0  0  2  0  0  0  0  0  0  0  0  0
   -1.0157   -0.0012    0.1125 C   0  0  2  0  0  0  0  0  0  0  0  0
   -1.2799    1.1512   -0.8666 C   0  0  0  0  0  0  0  0  0  0  0  0
   -0.0021    1.7147   -0.8757 O   0  0  0  0  0  0  0  0  0  0  0  0
   -0.7367    0.6431    1.3806 N   0  0  0  0  0  0  0  0  0  0  0  0
   -2.1711   -0.9111    0.2023 C   0  0  0  0  0  0  0  0  0  0  0  0
   -2.5873   -1.5758   -0.7868 O   0  0  0  0  0  0  0  0  0  0  0  0
   -2.8940   -1.1051    1.3962 O   0  0  0  0  0  0  0  0  0  0  0  0
    4.8474   -0.6383    0.1548 H   0  0  0  0  0  0  0  0  0  0  0  0
    1.4986    0.3573    1.0426 H   0  0  0  0  0  0  0  0  0  0  0  0
    1.2846    0.6008   -2.1123 H   0  0  0  0  0  0  0  0  0  0  0  0
    0.1445   -1.4194   -1.2151 H   0  0  0  0  0  0  0  0  0  0  0  0
   -1.5082    0.7759   -1.8802 H   0  0  0  0  0  0  0  0  0  0  0  0
   -2.0210    1.8219   -0.4365 H   0  0  0  0  0  0  0  0  0  0  0  0
   -0.2393    1.5542    1.2147 H   0  0  0  0  0  0  0  0  0  0  0  0
   -1.6055    0.8478    1.8860 H   0  0  0  0  0  0  0  0  0  0  0  0
   -3.9108   -1.1230    1.3743 H   0  0  0  0  0  0  0  0  0  0  0  0
  1  2  1  0
  2  3  2  0
  2  4  1  0
  4  5  1  0
  5  6  1  0
  6  7  1  0
  7  8  1  0
  8  9  1  0
  7 10  1  1
  7 11  1  0
 11 12  2  0
 11 13  1  0
  6  4  1  0
  9  5  1  0
  1 14  1  0
  4 15  1  1
  5 16  1  6
  6 17  1  6
  8 18  1  0
  8 19  1  0
 10 20  1  0
 10 21  1  0
 13 22  1  0
M  END
>  <Ligand ID>  (1) 
LIG0000649

>  <Ligand>  (1) 
LY379268

>  <SMILES>  (1) 
OC(=O)[C@H]1[C@H]2[C@@H]1[C@](CO2)(N)C(=O)O

>  <CID>  (1) 
10197984.0

>  <ChEMBL ID>  (1) 
nan

>  <InChiKey>  (1) 
YASVRZWVUGJELU-MDASVERJSA-N

>  <InChi>  (1) 
InChI=1S/C7H9NO5/c8-7(6(11)12)1-13-4-2(3(4)7)5(9)10/h2-4H,1,8H2,(H,9,10)(H,11,12)/t2-,3-,4+,7+/m1/s1

>  <IUPAC Name>  (1) 
(1R,4R,5S,6R)-4-amino-2-oxabicyclo[3.1.0]hexane-4,6-dicarboxylic acid

$$$$
