
     RDKit          3D

 30 30  0  0  0  0  0  0  0  0999 V2000
   -4.4583    0.2202    1.0066 C   0  0  0  0  0  0  0  0  0  0  0  0
   -4.0364   -1.2161    0.7741 C   0  0  0  0  0  0  0  0  0  0  0  0
   -2.6710   -1.2977    0.1922 C   0  0  0  0  0  0  0  0  0  0  0  0
   -2.1134   -2.3920   -0.0850 O   0  0  0  0  0  0  0  0  0  0  0  0
   -2.0004   -0.1051   -0.0478 O   0  0  0  0  0  0  0  0  0  0  0  0
   -0.6827   -0.0899   -0.6060 C   0  0  0  0  0  0  0  0  0  0  0  0
   -0.1575    1.2947   -0.7771 C   0  0  0  0  0  0  0  0  0  0  0  0
    1.2434    1.3516   -1.3691 C   0  0  0  0  0  0  0  0  0  0  0  0
    2.2222    0.6464   -0.5185 C   0  0  0  0  0  0  0  0  0  0  0  0
    2.4417   -0.7110   -0.7532 C   0  0  0  0  0  0  0  0  0  0  0  0
    3.3626   -1.4009    0.0378 C   0  0  0  0  0  0  0  0  0  0  0  0
    4.0527   -0.7470    1.0460 C   0  0  0  0  0  0  0  0  0  0  0  0
    3.8271    0.5947    1.2683 C   0  0  0  0  0  0  0  0  0  0  0  0
    2.9143    1.3069    0.4943 C   0  0  0  0  0  0  0  0  0  0  0  0
   -5.4030    0.2089    1.5797 H   0  0  0  0  0  0  0  0  0  0  0  0
   -4.6515    0.7216    0.0405 H   0  0  0  0  0  0  0  0  0  0  0  0
   -3.6112    0.7024    1.5489 H   0  0  0  0  0  0  0  0  0  0  0  0
   -3.9783   -1.6835    1.7895 H   0  0  0  0  0  0  0  0  0  0  0  0
   -4.7724   -1.7897    0.2075 H   0  0  0  0  0  0  0  0  0  0  0  0
   -0.7227   -0.6524   -1.5393 H   0  0  0  0  0  0  0  0  0  0  0  0
   -0.0272   -0.6636    0.0815 H   0  0  0  0  0  0  0  0  0  0  0  0
   -0.0444    1.7549    0.2406 H   0  0  0  0  0  0  0  0  0  0  0  0
   -0.8594    1.9448   -1.3306 H   0  0  0  0  0  0  0  0  0  0  0  0
    1.5207    2.4401   -1.3592 H   0  0  0  0  0  0  0  0  0  0  0  0
    1.2455    1.0591   -2.4217 H   0  0  0  0  0  0  0  0  0  0  0  0
    1.8940   -1.2060   -1.5448 H   0  0  0  0  0  0  0  0  0  0  0  0
    3.5550   -2.4552   -0.1199 H   0  0  0  0  0  0  0  0  0  0  0  0
    4.7696   -1.2793    1.6634 H   0  0  0  0  0  0  0  0  0  0  0  0
    4.3883    1.0896    2.0750 H   0  0  0  0  0  0  0  0  0  0  0  0
    2.7527    2.3536    0.6840 H   0  0  0  0  0  0  0  0  0  0  0  0
  1  2  1  0
  2  3  1  0
  3  4  2  0
  3  5  1  0
  5  6  1  0
  6  7  1  0
  7  8  1  0
  8  9  1  0
  9 10  2  0
 10 11  1  0
 11 12  2  0
 12 13  1  0
 13 14  2  0
 14  9  1  0
  1 15  1  0
  1 16  1  0
  1 17  1  0
  2 18  1  0
  2 19  1  0
  6 20  1  0
  6 21  1  0
  7 22  1  0
  7 23  1  0
  8 24  1  0
  8 25  1  0
 10 26  1  0
 11 27  1  0
 12 28  1  0
 13 29  1  0
 14 30  1  0
M  END
>  <Ligand ID>  (1) 
LIG0001038

>  <Ligand>  (1) 
3-phenyl propyl propionate

>  <SMILES>  (1) 
CCC(=O)OCCCc1ccccc1

>  <CID>  (1) 
61052.0

>  <ChEMBL ID>  (1) 
nan

>  <InChiKey>  (1) 
GTNCESCYZPMXCJ-UHFFFAOYSA-N

>  <InChi>  (1) 
InChI=1S/C12H16O2/c1-2-12(13)14-10-6-9-11-7-4-3-5-8-11/h3-5,7-8H,2,6,9-10H2,1H3

>  <IUPAC Name>  (1) 
3-phenylpropyl propanoate

$$$$
