
     RDKit          3D

 61 65  0  0  0  0  0  0  0  0999 V2000
   -1.4270   -5.6705    1.1428 C   0  0  0  0  0  0  0  0  0  0  0  0
   -1.3885   -4.2077    0.8472 C   0  0  0  0  0  0  0  0  0  0  0  0
   -2.6936   -3.6189    0.9551 O   0  0  0  0  0  0  0  0  0  0  0  0
   -2.7701   -2.2561    0.6989 C   0  0  0  0  0  0  0  0  0  0  0  0
   -1.6621   -1.4940    0.3579 C   0  0  0  0  0  0  0  0  0  0  0  0
   -1.7335   -0.1575    0.1063 C   0  0  0  0  0  0  0  0  0  0  0  0
   -2.9676    0.4515    0.1981 C   0  0  0  0  0  0  0  0  0  0  0  0
   -4.1149   -0.2402    0.5318 C   0  0  0  0  0  0  0  0  0  0  0  0
   -3.9809   -1.5987    0.7772 C   0  0  0  0  0  0  0  0  0  0  0  0
   -5.0893   -2.3456    1.1152 O   0  0  0  0  0  0  0  0  0  0  0  0
   -6.3941   -1.8327    1.2381 C   0  0  0  0  0  0  0  0  0  0  0  0
   -3.0624    1.7653   -0.0452 N   0  0  0  0  0  0  0  0  0  0  0  0
   -1.9602    2.4873   -0.3772 C   0  0  0  0  0  0  0  0  0  0  0  0
   -0.7825    1.8827   -0.4602 N   0  0  0  0  0  0  0  0  0  0  0  0
   -0.5957    0.5508   -0.2292 C   0  0  0  0  0  0  0  0  0  0  0  0
    0.6886   -0.0540   -0.3298 N   0  0  0  0  0  0  0  0  0  0  0  0
    1.3420   -0.7250    0.7742 C   0  0  0  0  0  0  0  0  0  0  0  0
    2.6547    0.0430    0.9765 C   0  0  0  0  0  0  0  0  0  0  0  0
    3.4353   -0.2533   -0.2259 N   0  0  0  0  0  0  0  0  0  0  0  0
    2.8136   -0.3972   -1.5208 C   0  0  0  0  0  0  0  0  0  0  0  0
    1.3861   -0.0036   -1.5892 C   0  0  0  0  0  0  0  0  0  0  0  0
    4.8447   -0.4100   -0.1554 C   0  0  0  0  0  0  0  0  0  0  0  0
    5.3471   -1.6423   -0.5624 C   0  0  0  0  0  0  0  0  0  0  0  0
    6.7112   -1.8993   -0.5331 C   0  0  0  0  0  0  0  0  0  0  0  0
    7.5686   -0.8885   -0.0841 C   0  0  0  0  0  0  0  0  0  0  0  0
    7.0617    0.3284    0.3168 C   0  0  0  0  0  0  0  0  0  0  0  0
    5.6910    0.5936    0.2899 C   0  0  0  0  0  0  0  0  0  0  0  0
    5.1814    1.7781    0.6788 F   0  0  0  0  0  0  0  0  0  0  0  0
   -2.1534    3.8981   -0.6227 C   0  0  0  0  0  0  0  0  0  0  0  0
   -1.1144    4.7396   -0.9676 C   0  0  0  0  0  0  0  0  0  0  0  0
   -1.3171    6.0751   -1.1968 C   0  0  0  0  0  0  0  0  0  0  0  0
   -2.5903    6.5910   -1.0800 C   0  0  0  0  0  0  0  0  0  0  0  0
   -3.6603    5.7851   -0.7368 C   0  0  0  0  0  0  0  0  0  0  0  0
   -3.4140    4.4493   -0.5151 C   0  0  0  0  0  0  0  0  0  0  0  0
   -0.9666   -5.8565    2.1456 H   0  0  0  0  0  0  0  0  0  0  0  0
   -0.9257   -6.2201    0.3418 H   0  0  0  0  0  0  0  0  0  0  0  0
   -2.5142   -5.9731    1.2024 H   0  0  0  0  0  0  0  0  0  0  0  0
   -1.0498   -4.0557   -0.1943 H   0  0  0  0  0  0  0  0  0  0  0  0
   -0.6965   -3.6467    1.5054 H   0  0  0  0  0  0  0  0  0  0  0  0
   -0.7272   -2.0041    0.2978 H   0  0  0  0  0  0  0  0  0  0  0  0
   -5.0915    0.2463    0.6037 H   0  0  0  0  0  0  0  0  0  0  0  0
   -7.0276   -2.6355    1.6880 H   0  0  0  0  0  0  0  0  0  0  0  0
   -6.4509   -0.9193    1.8374 H   0  0  0  0  0  0  0  0  0  0  0  0
   -6.7770   -1.6769    0.1967 H   0  0  0  0  0  0  0  0  0  0  0  0
    1.6536   -1.7305    0.3969 H   0  0  0  0  0  0  0  0  0  0  0  0
    0.7658   -0.7538    1.7005 H   0  0  0  0  0  0  0  0  0  0  0  0
    3.1781   -0.2347    1.8890 H   0  0  0  0  0  0  0  0  0  0  0  0
    2.4296    1.1282    0.9141 H   0  0  0  0  0  0  0  0  0  0  0  0
    2.9755   -1.4524   -1.8876 H   0  0  0  0  0  0  0  0  0  0  0  0
    3.3892    0.2405   -2.2316 H   0  0  0  0  0  0  0  0  0  0  0  0
    1.2492    1.0262   -2.0214 H   0  0  0  0  0  0  0  0  0  0  0  0
    0.8639   -0.6841   -2.3153 H   0  0  0  0  0  0  0  0  0  0  0  0
    4.6989   -2.4434   -0.9152 H   0  0  0  0  0  0  0  0  0  0  0  0
    7.0855   -2.8632   -0.8535 H   0  0  0  0  0  0  0  0  0  0  0  0
    8.6306   -1.0647   -0.0528 H   0  0  0  0  0  0  0  0  0  0  0  0
    7.7581    1.0921    0.6601 H   0  0  0  0  0  0  0  0  0  0  0  0
   -0.1167    4.3556   -1.0630 H   0  0  0  0  0  0  0  0  0  0  0  0
   -0.5012    6.7488   -1.4701 H   0  0  0  0  0  0  0  0  0  0  0  0
   -2.7422    7.6455   -1.2623 H   0  0  0  0  0  0  0  0  0  0  0  0
   -4.6784    6.1700   -0.6380 H   0  0  0  0  0  0  0  0  0  0  0  0
   -4.2667    3.8377   -0.2476 H   0  0  0  0  0  0  0  0  0  0  0  0
  1  2  1  0
  2  3  1  0
  3  4  1  0
  4  5  2  0
  5  6  1  0
  6  7  2  0
  7  8  1  0
  8  9  2  0
  9 10  1  0
 10 11  1  0
  7 12  1  0
 12 13  2  0
 13 14  1  0
 14 15  2  0
 15 16  1  0
 16 17  1  0
 17 18  1  0
 18 19  1  0
 19 20  1  0
 20 21  1  0
 19 22  1  0
 22 23  2  0
 23 24  1  0
 24 25  2  0
 25 26  1  0
 26 27  2  0
 27 28  1  0
 13 29  1  0
 29 30  2  0
 30 31  1  0
 31 32  2  0
 32 33  1  0
 33 34  2  0
  9  4  1  0
 21 16  1  0
 27 22  1  0
 34 29  1  0
 15  6  1  0
  1 35  1  0
  1 36  1  0
  1 37  1  0
  2 38  1  0
  2 39  1  0
  5 40  1  0
  8 41  1  0
 11 42  1  0
 11 43  1  0
 11 44  1  0
 17 45  1  0
 17 46  1  0
 18 47  1  0
 18 48  1  0
 20 49  1  0
 20 50  1  0
 21 51  1  0
 21 52  1  0
 23 53  1  0
 24 54  1  0
 25 55  1  0
 26 56  1  0
 30 57  1  0
 31 58  1  0
 32 59  1  0
 33 60  1  0
 34 61  1  0
M  END
>  <Ligand ID>  (1) 
LIG0004470

>  <Ligand>  (1) 
CHEMBL2431140

>  <SMILES>  (1) 
CCOc1cc2c(cc1OC)nc(nc2N1CCN(CC1)c1ccccc1F)c1ccccc1

>  <CID>  (1) 
73346308.0

>  <ChEMBL ID>  (1) 
nan

>  <InChiKey>  (1) 
NUEQNASIOICUKI-UHFFFAOYSA-N

>  <InChi>  (1) 
InChI=1S/C27H27FN4O2/c1-3-34-25-17-20-22(18-24(25)33-2)29-26(19-9-5-4-6-10-19)30-27(20)32-15-13-31(14-16-32)23-12-8-7-11-21(23)28/h4-12,17-18H,3,13-16H2,1-2H3

>  <IUPAC Name>  (1) 
6-ethoxy-4-[4-(2-fluorophenyl)piperazin-1-yl]-7-methoxy-2-phenylquinazoline

$$$$
