
     RDKit          3D

 45 49  0  0  0  0  0  0  0  0999 V2000
    5.3421   -0.3450    0.9364 C   0  0  0  0  0  0  0  0  0  0  0  0
    4.0959    0.3242    1.0110 O   0  0  0  0  0  0  0  0  0  0  0  0
    2.9262   -0.2870    0.6139 C   0  0  0  0  0  0  0  0  0  0  0  0
    2.8915   -1.5954    0.1156 C   0  0  0  0  0  0  0  0  0  0  0  0
    1.6973   -2.1955   -0.2815 C   0  0  0  0  0  0  0  0  0  0  0  0
    0.5100   -1.4721   -0.1778 C   0  0  0  0  0  0  0  0  0  0  0  0
    0.6119   -0.2215    0.3102 C   0  0  0  0  0  0  0  0  0  0  0  0
    1.7412    0.4294    0.7150 C   0  0  0  0  0  0  0  0  0  0  0  0
    1.3533    1.6935    1.1311 O   0  0  0  0  0  0  0  0  0  0  0  0
    0.0597    2.0102    0.5581 C   0  0  2  0  0  0  0  0  0  0  0  0
   -0.5646    0.6421    0.4859 C   0  0  2  0  0  0  0  0  0  0  0  0
   -1.2810    0.3017    1.7420 C   0  0  0  0  0  0  0  0  0  0  0  0
   -2.6860   -0.1738    1.5190 C   0  0  0  0  0  0  0  0  0  0  0  0
   -2.7310   -1.2485    0.5576 N   0  0  0  0  0  0  0  0  0  0  0  0
   -1.9074   -1.0160   -0.6184 C   0  0  2  0  0  0  0  0  0  0  0  0
   -0.7979   -2.0159   -0.6066 C   0  0  0  0  0  0  0  0  0  0  0  0
   -1.5041    0.4356   -0.6784 C   0  0  2  0  0  0  0  0  0  0  0  0
   -0.9106    0.8512   -1.9746 C   0  0  0  0  0  0  0  0  0  0  0  0
    0.3892    1.6291   -1.8387 C   0  0  2  0  0  0  0  0  0  0  0  0
    0.2228    2.6541   -0.7702 C   0  0  2  0  0  0  0  0  0  0  0  0
    1.2649    3.5840   -0.7541 O   0  0  0  0  0  0  0  0  0  0  0  0
    0.5804    2.2466   -3.0837 F   0  0  0  0  0  0  0  0  0  0  0  0
   -4.0475   -1.7111    0.2749 C   0  0  0  0  0  0  0  0  0  0  0  0
    5.2336   -1.3503    1.3610 H   0  0  0  0  0  0  0  0  0  0  0  0
    6.1221    0.2071    1.4812 H   0  0  0  0  0  0  0  0  0  0  0  0
    5.5605   -0.4750   -0.1486 H   0  0  0  0  0  0  0  0  0  0  0  0
    3.8317   -2.1388    0.0452 H   0  0  0  0  0  0  0  0  0  0  0  0
    1.6628   -3.2054   -0.6678 H   0  0  0  0  0  0  0  0  0  0  0  0
   -0.4831    2.6457    1.2715 H   0  0  0  0  0  0  0  0  0  0  0  0
   -1.3298    1.2237    2.3781 H   0  0  0  0  0  0  0  0  0  0  0  0
   -0.6734   -0.4213    2.3350 H   0  0  0  0  0  0  0  0  0  0  0  0
   -3.3759    0.6505    1.3351 H   0  0  0  0  0  0  0  0  0  0  0  0
   -3.0081   -0.6271    2.4955 H   0  0  0  0  0  0  0  0  0  0  0  0
   -2.4916   -1.2076   -1.5541 H   0  0  0  0  0  0  0  0  0  0  0  0
   -0.7030   -2.5546   -1.5878 H   0  0  0  0  0  0  0  0  0  0  0  0
   -1.0480   -2.7950    0.1793 H   0  0  0  0  0  0  0  0  0  0  0  0
   -2.4228    1.0154   -0.4319 H   0  0  0  0  0  0  0  0  0  0  0  0
   -1.6169    1.5872   -2.4591 H   0  0  0  0  0  0  0  0  0  0  0  0
   -0.8274    0.0356   -2.7290 H   0  0  0  0  0  0  0  0  0  0  0  0
    1.2764    0.9683   -1.7031 H   0  0  0  0  0  0  0  0  0  0  0  0
   -0.7092    3.2178   -1.0085 H   0  0  0  0  0  0  0  0  0  0  0  0
    0.9641    4.3854   -0.2816 H   0  0  0  0  0  0  0  0  0  0  0  0
   -4.1283   -2.7796    0.6298 H   0  0  0  0  0  0  0  0  0  0  0  0
   -4.8724   -1.1174    0.7037 H   0  0  0  0  0  0  0  0  0  0  0  0
   -4.2176   -1.7846   -0.8308 H   0  0  0  0  0  0  0  0  0  0  0  0
  1  2  1  0
  2  3  1  0
  3  4  2  0
  4  5  1  0
  5  6  2  0
  6  7  1  0
  7  8  2  0
  8  9  1  0
  9 10  1  0
 10 11  1  0
 11 12  1  1
 12 13  1  0
 13 14  1  0
 14 15  1  0
 15 16  1  0
 15 17  1  0
 17 18  1  0
 18 19  1  0
 19 20  1  0
 20 21  1  0
 19 22  1  0
 14 23  1  0
  8  3  1  0
 20 10  1  0
 16  6  1  0
 11  7  1  0
 17 11  1  0
  1 24  1  0
  1 25  1  0
  1 26  1  0
  4 27  1  0
  5 28  1  0
 10 29  1  1
 12 30  1  0
 12 31  1  0
 13 32  1  0
 13 33  1  0
 15 34  1  6
 16 35  1  0
 16 36  1  0
 17 37  1  1
 18 38  1  0
 18 39  1  0
 19 40  1  1
 20 41  1  6
 21 42  1  0
 23 43  1  0
 23 44  1  0
 23 45  1  0
M  END
>  <Ligand ID>  (1) 
LIG0004594

>  <Ligand>  (1) 
CHEMBL2418742

>  <SMILES>  (1) 
COc1ccc2c3c1O[C@@H]1[C@@]43CCN([C@H](C2)[C@@H]4C[C@H]([C@@H]1O)F)C

>  <CID>  (1) 
71819404.0

>  <ChEMBL ID>  (1) 
nan

>  <InChiKey>  (1) 
WGOVHFIMTZTQCA-UVYLXKOISA-N

>  <InChi>  (1) 
InChI=1S/C18H22FNO3/c1-20-6-5-18-10-8-11(19)15(21)17(18)23-16-13(22-2)4-3-9(14(16)18)7-12(10)20/h3-4,10-12,15,17,21H,5-8H2,1-2H3/t10-,11+,12+,15-,17-,18-/m0/s1

>  <IUPAC Name>  (1) 
(4R,4aR,6R,7R,7aR,12bS)-6-fluoro-9-methoxy-3-methyl-2,4,4a,5,6,7,7a,13-octahydro-1H-4,12-methanobenzofuro[3,2-e]isoquinolin-7-ol

$$$$
