
     RDKit          3D

 37 38  0  0  0  0  0  0  0  0999 V2000
    7.0532   -0.8412    0.9044 N   0  0  0  0  0  0  0  0  0  0  0  0
    5.6075   -0.7797    0.8802 C   0  0  0  0  0  0  0  0  0  0  0  0
    5.0930    0.5290    0.3176 C   0  0  0  0  0  0  0  0  0  0  0  0
    3.6065    0.4767    0.3425 C   0  0  0  0  0  0  0  0  0  0  0  0
    2.9230   -0.0270   -0.7607 C   0  0  0  0  0  0  0  0  0  0  0  0
    1.5398   -0.0911   -0.7733 C   0  0  0  0  0  0  0  0  0  0  0  0
    0.8004    0.3444    0.3116 C   0  0  0  0  0  0  0  0  0  0  0  0
    1.4725    0.8391    1.3949 C   0  0  0  0  0  0  0  0  0  0  0  0
    2.8559    0.9061    1.4145 C   0  0  0  0  0  0  0  0  0  0  0  0
   -0.5871    0.3014    0.3486 O   0  0  0  0  0  0  0  0  0  0  0  0
   -1.3537   -0.1990   -0.7387 C   0  0  0  0  0  0  0  0  0  0  0  0
   -2.8071   -0.1565   -0.4968 C   0  0  0  0  0  0  0  0  0  0  0  0
   -3.5037   -1.1944    0.0826 C   0  0  0  0  0  0  0  0  0  0  0  0
   -4.8722   -1.1057    0.2891 C   0  0  0  0  0  0  0  0  0  0  0  0
   -5.5739    0.0236   -0.0796 C   0  0  0  0  0  0  0  0  0  0  0  0
   -4.8916    1.0723   -0.6611 C   0  0  0  0  0  0  0  0  0  0  0  0
   -3.5304    0.9603   -0.8561 C   0  0  0  0  0  0  0  0  0  0  0  0
   -7.0411    0.1693    0.1196 C   0  0  0  0  0  0  0  0  0  0  0  0
   -7.2378    0.8335    1.3179 F   0  0  0  0  0  0  0  0  0  0  0  0
   -7.5807    0.9611   -0.8838 F   0  0  0  0  0  0  0  0  0  0  0  0
   -7.6171   -1.0806    0.0915 F   0  0  0  0  0  0  0  0  0  0  0  0
    7.2945   -1.8423    0.6928 H   0  0  0  0  0  0  0  0  0  0  0  0
    7.3853   -0.2112    0.1200 H   0  0  0  0  0  0  0  0  0  0  0  0
    5.1818   -1.5681    0.1938 H   0  0  0  0  0  0  0  0  0  0  0  0
    5.1333   -0.9493    1.8686 H   0  0  0  0  0  0  0  0  0  0  0  0
    5.4493    1.3180    1.0100 H   0  0  0  0  0  0  0  0  0  0  0  0
    5.4754    0.6661   -0.7247 H   0  0  0  0  0  0  0  0  0  0  0  0
    3.4356   -0.3837   -1.6399 H   0  0  0  0  0  0  0  0  0  0  0  0
    1.0178   -0.4900   -1.6487 H   0  0  0  0  0  0  0  0  0  0  0  0
    0.8846    1.1853    2.2576 H   0  0  0  0  0  0  0  0  0  0  0  0
    3.3615    1.3001    2.2801 H   0  0  0  0  0  0  0  0  0  0  0  0
   -1.0047   -1.2027   -1.0571 H   0  0  0  0  0  0  0  0  0  0  0  0
   -1.1410    0.4705   -1.6008 H   0  0  0  0  0  0  0  0  0  0  0  0
   -2.9351   -2.0746    0.3660 H   0  0  0  0  0  0  0  0  0  0  0  0
   -5.4198   -1.9398    0.7525 H   0  0  0  0  0  0  0  0  0  0  0  0
   -5.4416    1.9629   -0.9525 H   0  0  0  0  0  0  0  0  0  0  0  0
   -3.0321    1.8173   -1.3207 H   0  0  0  0  0  0  0  0  0  0  0  0
  1  2  1  0
  2  3  1  0
  3  4  1  0
  4  5  2  0
  5  6  1  0
  6  7  2  0
  7  8  1  0
  8  9  2  0
  7 10  1  0
 10 11  1  0
 11 12  1  0
 12 13  2  0
 13 14  1  0
 14 15  2  0
 15 16  1  0
 16 17  2  0
 15 18  1  0
 18 19  1  0
 18 20  1  0
 18 21  1  0
  9  4  1  0
 17 12  1  0
  1 22  1  0
  1 23  1  0
  2 24  1  0
  2 25  1  0
  3 26  1  0
  3 27  1  0
  5 28  1  0
  6 29  1  0
  8 30  1  0
  9 31  1  0
 11 32  1  0
 11 33  1  0
 13 34  1  0
 14 35  1  0
 16 36  1  0
 17 37  1  0
M  END
>  <Ligand ID>  (1) 
LIG0005934

>  <Ligand>  (1) 
CHEMBL202071

>  <SMILES>  (1) 
NCCc1ccc(cc1)OCc1ccc(cc1)C(F)(F)F

>  <CID>  (1) 
11565589.0

>  <ChEMBL ID>  (1) 
nan

>  <InChiKey>  (1) 
WDYBTWXDYUCILG-UHFFFAOYSA-N

>  <InChi>  (1) 
InChI=1S/C16H16F3NO/c17-16(18,19)14-5-1-13(2-6-14)11-21-15-7-3-12(4-8-15)9-10-20/h1-8H,9-11,20H2

>  <IUPAC Name>  (1) 
2-[4-[[4-(trifluoromethyl)phenyl]methoxy]phenyl]ethanamine

$$$$
