
     RDKit          3D

 71 78  0  0  0  0  0  0  0  0999 V2000
    2.0495   -3.8045   -0.0213 C   0  0  0  0  0  0  0  0  0  0  0  0
    1.1260   -2.8007   -0.4355 N   0  0  0  0  0  0  0  0  0  0  0  0
   -0.0170   -3.3175   -1.1676 C   0  0  0  0  0  0  0  0  0  0  0  0
   -0.6791   -2.1710   -1.9021 C   0  0  0  0  0  0  0  0  0  0  0  0
   -0.9526   -1.0676   -0.9357 C   0  0  2  0  0  0  0  0  0  0  0  0
    0.2131   -0.6344   -0.1447 C   0  0  2  0  0  0  0  0  0  0  0  0
    0.7062   -1.8947    0.6160 C   0  0  1  0  0  0  0  0  0  0  0  0
   -0.2151   -2.4726    1.5859 C   0  0  0  0  0  0  0  0  0  0  0  0
   -1.6007   -2.3010    1.1841 C   0  0  0  0  0  0  0  0  0  0  0  0
   -1.9440   -1.6499    0.0747 C   0  0  0  0  0  0  0  0  0  0  0  0
   -3.2149   -1.4333   -0.3161 C   0  0  0  0  0  0  0  0  0  0  0  0
   -3.1695   -0.7239   -1.4980 O   0  0  0  0  0  0  0  0  0  0  0  0
   -1.8802   -0.0210   -1.4872 C   0  0  2  0  0  0  0  0  0  0  0  0
   -1.7098    0.3576   -2.9245 C   0  0  0  0  0  0  0  0  0  0  0  0
   -2.0662    1.1139   -0.5836 C   0  0  0  0  0  0  0  0  0  0  0  0
   -1.2780    1.2453    0.5239 C   0  0  0  0  0  0  0  0  0  0  0  0
   -0.2075    0.3334    0.9405 C   0  0  0  0  0  0  0  0  0  0  0  0
   -1.7150    2.4118    1.1467 C   0  0  0  0  0  0  0  0  0  0  0  0
   -1.3022    3.0662    2.3110 C   0  0  0  0  0  0  0  0  0  0  0  0
   -1.9201    4.2439    2.7208 C   0  0  0  0  0  0  0  0  0  0  0  0
   -2.9411    4.7631    1.9742 C   0  0  0  0  0  0  0  0  0  0  0  0
   -3.3425    4.1149    0.8302 C   0  0  0  0  0  0  0  0  0  0  0  0
   -2.7447    2.9339    0.3923 C   0  0  0  0  0  0  0  0  0  0  0  0
   -2.9391    2.1360   -0.6449 N   0  0  0  0  0  0  0  0  0  0  0  0
   -4.2412   -1.9215    0.4829 C   0  0  0  0  0  0  0  0  0  0  0  0
   -3.9071   -2.6067    1.6453 C   0  0  0  0  0  0  0  0  0  0  0  0
   -2.5923   -2.8144    2.0268 C   0  0  0  0  0  0  0  0  0  0  0  0
   -5.5681   -1.7283    0.1265 O   0  0  0  0  0  0  0  0  0  0  0  0
    1.4682   -0.2193   -0.8144 C   0  0  0  0  0  0  0  0  0  0  0  0
    1.5190    0.9029   -1.7474 C   0  0  0  0  0  0  0  0  0  0  0  0
    2.9928    1.0544   -2.1990 C   0  0  0  0  0  0  0  0  0  0  0  0
    3.9041    1.3236   -1.0694 C   0  0  0  0  0  0  0  0  0  0  0  0
    4.0885    2.6658   -0.7198 C   0  0  0  0  0  0  0  0  0  0  0  0
    4.9324    3.0083    0.3176 C   0  0  0  0  0  0  0  0  0  0  0  0
    5.5949    2.0151    1.0098 C   0  0  0  0  0  0  0  0  0  0  0  0
    5.4291    0.6903    0.6842 C   0  0  0  0  0  0  0  0  0  0  0  0
    4.5775    0.3517   -0.3622 C   0  0  0  0  0  0  0  0  0  0  0  0
    2.2760   -3.7648    1.0651 H   0  0  0  0  0  0  0  0  0  0  0  0
    3.0298   -3.5861   -0.5197 H   0  0  0  0  0  0  0  0  0  0  0  0
    1.7601   -4.8341   -0.3069 H   0  0  0  0  0  0  0  0  0  0  0  0
    0.3746   -4.0183   -1.9283 H   0  0  0  0  0  0  0  0  0  0  0  0
   -0.7577   -3.8315   -0.5520 H   0  0  0  0  0  0  0  0  0  0  0  0
   -1.6534   -2.5559   -2.2743 H   0  0  0  0  0  0  0  0  0  0  0  0
   -0.1055   -1.8820   -2.8053 H   0  0  0  0  0  0  0  0  0  0  0  0
    1.6251   -1.5671    1.1430 H   0  0  0  0  0  0  0  0  0  0  0  0
   -0.0159   -3.5848    1.6155 H   0  0  0  0  0  0  0  0  0  0  0  0
   -0.0058   -2.1507    2.6332 H   0  0  0  0  0  0  0  0  0  0  0  0
   -1.0345   -0.2745   -3.4914 H   0  0  0  0  0  0  0  0  0  0  0  0
   -1.2412    1.3919   -2.9037 H   0  0  0  0  0  0  0  0  0  0  0  0
   -2.6926    0.5163   -3.4255 H   0  0  0  0  0  0  0  0  0  0  0  0
    0.7143    0.9216    1.1917 H   0  0  0  0  0  0  0  0  0  0  0  0
   -0.5271   -0.1865    1.8583 H   0  0  0  0  0  0  0  0  0  0  0  0
   -0.4834    2.6612    2.9211 H   0  0  0  0  0  0  0  0  0  0  0  0
   -1.5600    4.7017    3.6236 H   0  0  0  0  0  0  0  0  0  0  0  0
   -3.4364    5.6833    2.2789 H   0  0  0  0  0  0  0  0  0  0  0  0
   -4.1485    4.4905    0.2066 H   0  0  0  0  0  0  0  0  0  0  0  0
   -3.6531    2.2860   -1.3796 H   0  0  0  0  0  0  0  0  0  0  0  0
   -4.7039   -2.9996    2.2879 H   0  0  0  0  0  0  0  0  0  0  0  0
   -2.3415   -3.3458    2.9295 H   0  0  0  0  0  0  0  0  0  0  0  0
   -5.9461   -1.7461   -0.7942 H   0  0  0  0  0  0  0  0  0  0  0  0
    1.9607   -1.1042   -1.2860 H   0  0  0  0  0  0  0  0  0  0  0  0
    2.2065    0.0418    0.0175 H   0  0  0  0  0  0  0  0  0  0  0  0
    1.2211    1.8840   -1.3827 H   0  0  0  0  0  0  0  0  0  0  0  0
    1.0187    0.6662   -2.7195 H   0  0  0  0  0  0  0  0  0  0  0  0
    3.0882    1.8653   -2.9258 H   0  0  0  0  0  0  0  0  0  0  0  0
    3.3186    0.1289   -2.7385 H   0  0  0  0  0  0  0  0  0  0  0  0
    3.5730    3.4459   -1.2578 H   0  0  0  0  0  0  0  0  0  0  0  0
    5.0613    4.0665    0.5736 H   0  0  0  0  0  0  0  0  0  0  0  0
    6.2578    2.3202    1.8283 H   0  0  0  0  0  0  0  0  0  0  0  0
    5.9465   -0.0935    1.2239 H   0  0  0  0  0  0  0  0  0  0  0  0
    4.4210   -0.6958   -0.6500 H   0  0  0  0  0  0  0  0  0  0  0  0
  1  2  1  0
  2  3  1  0
  3  4  1  0
  5  4  1  6
  5  6  1  0
  6  7  1  0
  7  8  1  0
  8  9  1  0
  9 10  2  0
 10 11  1  0
 11 12  1  0
 12 13  1  0
 13 14  1  6
 13 15  1  0
 15 16  2  0
 16 17  1  0
 16 18  1  0
 18 19  2  0
 19 20  1  0
 20 21  2  0
 21 22  1  0
 22 23  2  0
 23 24  1  0
 11 25  2  0
 25 26  1  0
 26 27  2  0
 25 28  1  0
  6 29  1  6
 29 30  1  0
 30 31  1  0
 31 32  1  0
 32 33  2  0
 33 34  1  0
 34 35  2  0
 35 36  1  0
 36 37  2  0
  7  2  1  0
 27  9  1  0
 37 32  1  0
 10  5  1  0
 24 15  1  0
 13  5  1  0
 23 18  1  0
 17  6  1  0
  1 38  1  0
  1 39  1  0
  1 40  1  0
  3 41  1  0
  3 42  1  0
  4 43  1  0
  4 44  1  0
  7 45  1  1
  8 46  1  0
  8 47  1  0
 14 48  1  0
 14 49  1  0
 14 50  1  0
 17 51  1  0
 17 52  1  0
 19 53  1  0
 20 54  1  0
 21 55  1  0
 22 56  1  0
 24 57  1  0
 26 58  1  0
 27 59  1  0
 28 60  1  0
 29 61  1  0
 29 62  1  0
 30 63  1  0
 30 64  1  0
 31 65  1  0
 31 66  1  0
 33 67  1  0
 34 68  1  0
 35 69  1  0
 36 70  1  0
 37 71  1  0
M  END
>  <Ligand ID>  (1) 
LIG0005121

>  <Ligand>  (1) 
CHEMBL3759489

>  <SMILES>  (1) 
CN1CC[C@]23[C@@]4([C@H]1Cc1c2c(O[C@@]3(C)c2c(C4)c3ccccc3[nH]2)c(cc1)O)CCCc1ccccc1

>  <CID>  (1) 
11123816.0

>  <ChEMBL ID>  (1) 
nan

>  <InChiKey>  (1) 
XIPLMTRDNJBQQR-XQSZSLLBSA-N

>  <InChi>  (1) 
InChI=1S/C33H34N2O2/c1-31-30-24(23-12-6-7-13-25(23)34-30)20-32(16-8-11-21-9-4-3-5-10-21)27-19-22-14-15-26(36)29(37-31)28(22)33(31,32)17-18-35(27)2/h3-7,9-10,12-15,27,34,36H,8,11,16-20H2,1-2H3/t27-,31+,32+,33+/m1/s1

>  <IUPAC Name>  (1) 
(1S,2R,13R,21R)-13,22-dimethyl-2-(3-phenylpropyl)-14-oxa-11,22-diazaheptacyclo[13.9.1.01,13.02,21.04,12.05,10.019,25]pentacosa-4(12),5,7,9,15,17,19(25)-heptaen-16-ol

$$$$
