
     RDKit          3D

 65 65  0  0  0  0  0  0  0  0999 V2000
   -5.8768    2.5138    1.2129 C   0  0  0  0  0  0  0  0  0  0  0  0
   -5.4160    2.3361   -0.2354 C   0  0  0  0  0  0  0  0  0  0  0  0
   -5.0660    0.8636   -0.4019 C   0  0  0  0  0  0  0  0  0  0  0  0
   -3.9763    0.5067    0.5548 C   0  0  0  0  0  0  0  0  0  0  0  0
   -3.6106   -0.9402    0.4141 C   0  0  0  0  0  0  0  0  0  0  0  0
   -3.1209   -1.3294   -0.9453 C   0  0  1  0  0  0  0  0  0  0  0  0
   -1.9066   -0.6102   -1.3912 C   0  0  0  0  0  0  0  0  0  0  0  0
   -0.6741   -0.9504   -1.1036 C   0  0  0  0  0  0  0  0  0  0  0  0
    0.5198   -0.2183   -1.5593 C   0  0  1  0  0  0  0  0  0  0  0  0
    0.2160    1.0719   -2.2499 C   0  0  2  0  0  0  0  0  0  0  0  0
   -0.1884    0.9276   -3.5654 O   0  0  0  0  0  0  0  0  0  0  0  0
    1.5326    1.8536   -2.1367 C   0  0  0  0  0  0  0  0  0  0  0  0
    2.4069    1.0261   -1.1843 C   0  0  1  0  0  0  0  0  0  0  0  0
    1.3519    0.2973   -0.3958 C   0  0  2  0  0  0  0  0  0  0  0  0
    1.8944   -0.8187    0.4490 C   0  0  0  0  0  0  0  0  0  0  0  0
    2.7594   -1.7448   -0.2737 C   0  0  0  0  0  0  0  0  0  0  0  0
    4.0230   -2.0230   -0.0251 C   0  0  0  0  0  0  0  0  0  0  0  0
    4.8223   -1.4154    1.0831 C   0  0  0  0  0  0  0  0  0  0  0  0
    5.9769   -0.7064    0.4128 C   0  0  0  0  0  0  0  0  0  0  0  0
    6.9184   -0.0198    1.3362 C   0  0  0  0  0  0  0  0  0  0  0  0
    6.2408    1.0230    2.1031 C   0  0  0  0  0  0  0  0  0  0  0  0
    5.0442    1.3628    2.0103 O   0  0  0  0  0  0  0  0  0  0  0  0
    7.0071    1.7261    3.0495 O   0  0  0  0  0  0  0  0  0  0  0  0
    3.0641    0.1076   -2.0143 O   0  0  0  0  0  0  0  0  0  0  0  0
   -2.9219   -2.7171   -0.9138 O   0  0  0  0  0  0  0  0  0  0  0  0
   -2.5889   -1.3629    1.4555 C   0  0  0  0  0  0  0  0  0  0  0  0
   -4.8377   -1.8214    0.6855 C   0  0  0  0  0  0  0  0  0  0  0  0
   -5.0152    2.5848    1.9011 H   0  0  0  0  0  0  0  0  0  0  0  0
   -6.5465    3.3975    1.2225 H   0  0  0  0  0  0  0  0  0  0  0  0
   -6.4585    1.6113    1.4928 H   0  0  0  0  0  0  0  0  0  0  0  0
   -6.2326    2.6349   -0.9234 H   0  0  0  0  0  0  0  0  0  0  0  0
   -4.5415    2.9622   -0.4450 H   0  0  0  0  0  0  0  0  0  0  0  0
   -4.6985    0.6931   -1.4537 H   0  0  0  0  0  0  0  0  0  0  0  0
   -5.9475    0.2406   -0.2244 H   0  0  0  0  0  0  0  0  0  0  0  0
   -3.0422    1.0875    0.3071 H   0  0  0  0  0  0  0  0  0  0  0  0
   -4.3090    0.6989    1.5737 H   0  0  0  0  0  0  0  0  0  0  0  0
   -3.9433   -1.1853   -1.6863 H   0  0  0  0  0  0  0  0  0  0  0  0
   -2.0552    0.2824   -2.0149 H   0  0  0  0  0  0  0  0  0  0  0  0
   -0.5219   -1.8301   -0.4885 H   0  0  0  0  0  0  0  0  0  0  0  0
    1.1945   -0.8053   -2.2053 H   0  0  0  0  0  0  0  0  0  0  0  0
   -0.5438    1.6153   -1.6316 H   0  0  0  0  0  0  0  0  0  0  0  0
   -0.6952    1.7659   -3.7848 H   0  0  0  0  0  0  0  0  0  0  0  0
    2.0024    1.9564   -3.1274 H   0  0  0  0  0  0  0  0  0  0  0  0
    1.3666    2.8408   -1.6571 H   0  0  0  0  0  0  0  0  0  0  0  0
    3.0763    1.6611   -0.5988 H   0  0  0  0  0  0  0  0  0  0  0  0
    0.7517    1.0183    0.1590 H   0  0  0  0  0  0  0  0  0  0  0  0
    0.9923   -1.3848    0.8223 H   0  0  0  0  0  0  0  0  0  0  0  0
    2.3237   -0.3706    1.3625 H   0  0  0  0  0  0  0  0  0  0  0  0
    2.3127   -2.2810   -1.1317 H   0  0  0  0  0  0  0  0  0  0  0  0
    4.5546   -2.7394   -0.6480 H   0  0  0  0  0  0  0  0  0  0  0  0
    4.2548   -0.7625    1.7418 H   0  0  0  0  0  0  0  0  0  0  0  0
    5.2168   -2.2329    1.7604 H   0  0  0  0  0  0  0  0  0  0  0  0
    5.5243   -0.0174   -0.3347 H   0  0  0  0  0  0  0  0  0  0  0  0
    6.4811   -1.4912   -0.2088 H   0  0  0  0  0  0  0  0  0  0  0  0
    7.6765    0.5144    0.6901 H   0  0  0  0  0  0  0  0  0  0  0  0
    7.5130   -0.7152    1.9618 H   0  0  0  0  0  0  0  0  0  0  0  0
    6.6741    2.6194    3.3706 H   0  0  0  0  0  0  0  0  0  0  0  0
    4.0022    0.3429   -2.1986 H   0  0  0  0  0  0  0  0  0  0  0  0
   -2.6683   -3.0419   -1.8265 H   0  0  0  0  0  0  0  0  0  0  0  0
   -2.1743   -2.3603    1.1686 H   0  0  0  0  0  0  0  0  0  0  0  0
   -1.7991   -0.6164    1.5443 H   0  0  0  0  0  0  0  0  0  0  0  0
   -3.0622   -1.4772    2.4612 H   0  0  0  0  0  0  0  0  0  0  0  0
   -4.4375   -2.8668    0.7425 H   0  0  0  0  0  0  0  0  0  0  0  0
   -5.3883   -1.4956    1.5703 H   0  0  0  0  0  0  0  0  0  0  0  0
   -5.4306   -1.7921   -0.2575 H   0  0  0  0  0  0  0  0  0  0  0  0
  1  2  1  0
  2  3  1  0
  3  4  1  0
  4  5  1  0
  5  6  1  0
  6  7  1  0
  7  8  2  0
  8  9  1  0
  9 10  1  0
 10 11  1  0
 10 12  1  0
 12 13  1  0
 13 14  1  0
 14 15  1  0
 15 16  1  0
 16 17  2  0
 17 18  1  0
 18 19  1  0
 19 20  1  0
 20 21  1  0
 21 22  2  0
 21 23  1  0
 13 24  1  0
  6 25  1  0
  5 26  1  0
  5 27  1  0
 14  9  1  0
  1 28  1  0
  1 29  1  0
  1 30  1  0
  2 31  1  0
  2 32  1  0
  3 33  1  0
  3 34  1  0
  4 35  1  0
  4 36  1  0
  6 37  1  6
  7 38  1  0
  8 39  1  0
  9 40  1  6
 10 41  1  1
 11 42  1  0
 12 43  1  0
 12 44  1  0
 13 45  1  1
 14 46  1  1
 15 47  1  0
 15 48  1  0
 16 49  1  0
 17 50  1  0
 18 51  1  0
 18 52  1  0
 19 53  1  0
 19 54  1  0
 20 55  1  0
 20 56  1  0
 23 57  1  0
 24 58  1  0
 25 59  1  0
 26 60  1  0
 26 61  1  0
 26 62  1  0
 27 63  1  0
 27 64  1  0
 27 65  1  0
M  END
>  <Ligand ID>  (1) 
LIG0001858

>  <Ligand>  (1) 
UNII-B5J9G2N18M

>  <SMILES>  (1) 
CCCCC([C@@H](/C=C/[C@H]1[C@H](O)C[C@@H]([C@@H]1C/C=C\CCCC(=O)O)O)O)(C)C

>  <CID>  (1) 
6441607.0

>  <ChEMBL ID>  (1) 
nan

>  <InChiKey>  (1) 
YMRWVEHSLXJOCD-SCOYTADVSA-N

>  <InChi>  (1) 
InChI=1S/C22H38O5/c1-4-5-14-22(2,3)20(25)13-12-17-16(18(23)15-19(17)24)10-8-6-7-9-11-21(26)27/h6,8,12-13,16-20,23-25H,4-5,7,9-11,14-15H2,1-3H3,(H,26,27)/b8-6-,13-12+/t16-,17-,18+,19-,20-/m1/s1

>  <IUPAC Name>  (1) 
(Z)-7-[(1R,2R,3R,5S)-3,5-dihydroxy-2-[(E,3R)-3-hydroxy-4,4-dimethyloct-1-enyl]cyclopentyl]hept-5-enoic acid

$$$$
