
     RDKit          3D

126128  0  0  0  0  0  0  0  0999 V2000
   12.0279    0.1361   -1.6614 C   0  0  0  0  0  0  0  0  0  0  0  0
   11.3930    1.5236   -2.6446 S   0  0  0  0  0  0  0  0  0  0  0  0
    9.9990    2.2313   -1.7056 C   0  0  0  0  0  0  0  0  0  0  0  0
    8.8575    1.2598   -1.6143 C   0  0  0  0  0  0  0  0  0  0  0  0
    7.6880    1.8062   -0.8252 C   0  0  1  0  0  0  0  0  0  0  0  0
    7.1104    3.0211   -1.4019 C   0  0  0  0  0  0  0  0  0  0  0  0
    7.7177    4.0982   -1.6214 O   0  0  0  0  0  0  0  0  0  0  0  0
    5.7134    3.0254   -1.7675 N   0  0  0  0  0  0  0  0  0  0  0  0
    6.6641    0.7636   -0.6721 N   0  0  0  0  0  0  0  0  0  0  0  0
    6.3961    0.2011    0.6446 C   0  0  0  0  0  0  0  0  0  0  0  0
    7.1468    0.7437    1.5416 O   0  0  0  0  0  0  0  0  0  0  0  0
    5.4210   -0.8282    0.9021 C   0  0  1  0  0  0  0  0  0  0  0  0
    4.5420   -1.0850   -0.2542 N   0  0  0  0  0  0  0  0  0  0  0  0
    3.2209   -1.4161    0.0227 C   0  0  0  0  0  0  0  0  0  0  0  0
    2.7009   -1.5167    1.1706 O   0  0  0  0  0  0  0  0  0  0  0  0
    2.2233   -1.7066   -1.1034 C   0  0  0  0  0  0  0  0  0  0  0  0
    0.9662   -1.9493   -0.4982 N   0  0  0  0  0  0  0  0  0  0  0  0
    0.7330   -3.3649   -0.0736 C   0  0  0  0  0  0  0  0  0  0  0  0
    0.2171   -4.0892   -1.3753 C   0  0  0  0  0  0  0  0  0  0  0  0
   -1.0656   -3.5081   -1.6677 N   0  0  0  0  0  0  0  0  0  0  0  0
   -2.2759   -3.8005   -0.8980 C   0  0  0  0  0  0  0  0  0  0  0  0
   -2.1162   -4.6724   -0.0509 O   0  0  0  0  0  0  0  0  0  0  0  0
   -3.4297   -3.0221   -1.2493 C   0  0  0  0  0  0  0  0  0  0  0  0
   -4.8582   -3.4661   -1.3235 C   0  0  0  0  0  0  0  0  0  0  0  0
   -5.5202   -2.0913   -1.4438 C   0  0  0  0  0  0  0  0  0  0  0  0
   -5.1587   -1.3315   -0.4884 O   0  0  0  0  0  0  0  0  0  0  0  0
   -6.3937   -1.5657   -2.3673 N   0  0  0  0  0  0  0  0  0  0  0  0
   -6.6412   -0.0730   -2.2419 C   0  0  2  0  0  0  0  0  0  0  0  0
   -5.2704    0.4708   -1.9132 C   0  0  0  0  0  0  0  0  0  0  0  0
   -4.3152   -0.2267   -2.2175 O   0  0  0  0  0  0  0  0  0  0  0  0
   -4.9430    1.7041   -1.3015 N   0  0  0  0  0  0  0  0  0  0  0  0
   -3.6799    1.7665   -0.6064 C   0  0  1  0  0  0  0  0  0  0  0  0
   -2.4491    1.3359   -1.3395 C   0  0  0  0  0  0  0  0  0  0  0  0
   -2.2804    1.2571   -2.5431 O   0  0  0  0  0  0  0  0  0  0  0  0
   -1.3580    0.9685   -0.5082 N   0  0  0  0  0  0  0  0  0  0  0  0
   -0.0562    0.4290   -0.9383 C   0  0  2  0  0  0  0  0  0  0  0  0
    0.0424   -0.9037   -0.3901 C   0  0  0  0  0  0  0  0  0  0  0  0
   -0.8960   -1.2692    0.3818 O   0  0  0  0  0  0  0  0  0  0  0  0
    0.9585    1.4886   -0.7944 C   0  0  0  0  0  0  0  0  0  0  0  0
    1.1243    2.1090    0.5259 C   0  0  0  0  0  0  0  0  0  0  0  0
    0.2455    3.1707    0.8193 C   0  0  0  0  0  0  0  0  0  0  0  0
    0.2928    3.8581    1.9993 C   0  0  0  0  0  0  0  0  0  0  0  0
    1.2149    3.5430    2.9745 C   0  0  0  0  0  0  0  0  0  0  0  0
    2.0835    2.5056    2.6997 C   0  0  0  0  0  0  0  0  0  0  0  0
    2.0233    1.8163    1.4952 C   0  0  0  0  0  0  0  0  0  0  0  0
   -3.4950    2.9612    0.2672 C   0  0  0  0  0  0  0  0  0  0  0  0
   -4.6083    2.9197    1.2921 C   0  0  0  0  0  0  0  0  0  0  0  0
   -4.4543    2.2204    2.4818 C   0  0  0  0  0  0  0  0  0  0  0  0
   -5.4423    2.1666    3.4469 C   0  0  0  0  0  0  0  0  0  0  0  0
   -6.6450    2.8421    3.2181 C   0  0  0  0  0  0  0  0  0  0  0  0
   -6.8055    3.5454    2.0264 C   0  0  0  0  0  0  0  0  0  0  0  0
   -5.8025    3.5867    1.0730 C   0  0  0  0  0  0  0  0  0  0  0  0
   -7.5282    0.2262   -1.1164 C   0  0  0  0  0  0  0  0  0  0  0  0
   -8.8905   -0.3828   -1.1394 C   0  0  0  0  0  0  0  0  0  0  0  0
   -9.5932    0.0795    0.1481 C   0  0  0  0  0  0  0  0  0  0  0  0
   -8.8561   -0.3582    1.3117 N   0  0  0  0  0  0  0  0  0  0  0  0
   -8.9671   -1.5812    1.6820 C   0  0  0  0  0  0  0  0  0  0  0  0
   -8.2348   -1.9991    2.8294 N   0  0  0  0  0  0  0  0  0  0  0  0
   -9.7692   -2.5522    1.0349 N   0  0  0  0  0  0  0  0  0  0  0  0
    5.9008   -2.1960    1.2884 C   0  0  0  0  0  0  0  0  0  0  0  0
    6.6892   -2.4198    2.4954 C   0  0  0  0  0  0  0  0  0  0  0  0
    8.0187   -1.7595    2.6225 C   0  0  0  0  0  0  0  0  0  0  0  0
    5.8597   -2.2217    3.7779 C   0  0  0  0  0  0  0  0  0  0  0  0
   13.0658   -0.0774   -1.9912 H   0  0  0  0  0  0  0  0  0  0  0  0
   11.3564   -0.7555   -1.7470 H   0  0  0  0  0  0  0  0  0  0  0  0
   12.0446    0.4164   -0.5831 H   0  0  0  0  0  0  0  0  0  0  0  0
    9.6927    3.1535   -2.2557 H   0  0  0  0  0  0  0  0  0  0  0  0
   10.3131    2.5713   -0.6928 H   0  0  0  0  0  0  0  0  0  0  0  0
    9.2392    0.3186   -1.2186 H   0  0  0  0  0  0  0  0  0  0  0  0
    8.4981    1.1095   -2.6740 H   0  0  0  0  0  0  0  0  0  0  0  0
    8.1245    2.1068    0.1610 H   0  0  0  0  0  0  0  0  0  0  0  0
    5.3781    3.6157   -2.5754 H   0  0  0  0  0  0  0  0  0  0  0  0
    5.0366    2.4501   -1.2394 H   0  0  0  0  0  0  0  0  0  0  0  0
    6.1547    0.4473   -1.4961 H   0  0  0  0  0  0  0  0  0  0  0  0
    4.6717   -0.5742    1.7298 H   0  0  0  0  0  0  0  0  0  0  0  0
    4.8229   -1.0310   -1.2397 H   0  0  0  0  0  0  0  0  0  0  0  0
    2.5168   -2.6495   -1.6330 H   0  0  0  0  0  0  0  0  0  0  0  0
    2.3376   -0.9120   -1.8145 H   0  0  0  0  0  0  0  0  0  0  0  0
    1.6300   -3.8733    0.2089 H   0  0  0  0  0  0  0  0  0  0  0  0
   -0.0467   -3.3980    0.6758 H   0  0  0  0  0  0  0  0  0  0  0  0
    0.9789   -3.8790   -2.1227 H   0  0  0  0  0  0  0  0  0  0  0  0
    0.1470   -5.1442   -1.0732 H   0  0  0  0  0  0  0  0  0  0  0  0
   -1.1994   -2.8614   -2.4345 H   0  0  0  0  0  0  0  0  0  0  0  0
   -3.2147   -2.5749   -2.2976 H   0  0  0  0  0  0  0  0  0  0  0  0
   -3.3883   -2.0334   -0.6305 H   0  0  0  0  0  0  0  0  0  0  0  0
   -5.0714   -4.0873   -2.1919 H   0  0  0  0  0  0  0  0  0  0  0  0
   -5.1303   -3.9207   -0.3666 H   0  0  0  0  0  0  0  0  0  0  0  0
   -6.8353   -2.1279   -3.0626 H   0  0  0  0  0  0  0  0  0  0  0  0
   -6.9259    0.2482   -3.2244 H   0  0  0  0  0  0  0  0  0  0  0  0
   -5.6197    2.4561   -1.4186 H   0  0  0  0  0  0  0  0  0  0  0  0
   -3.8340    0.9032    0.1883 H   0  0  0  0  0  0  0  0  0  0  0  0
   -1.4786    1.0873    0.4945 H   0  0  0  0  0  0  0  0  0  0  0  0
   -0.2438    0.3470   -2.0980 H   0  0  0  0  0  0  0  0  0  0  0  0
    0.6108    2.3312   -1.4945 H   0  0  0  0  0  0  0  0  0  0  0  0
    1.9595    1.2568   -1.2567 H   0  0  0  0  0  0  0  0  0  0  0  0
   -0.4873    3.4717    0.0920 H   0  0  0  0  0  0  0  0  0  0  0  0
   -0.3986    4.6585    2.1769 H   0  0  0  0  0  0  0  0  0  0  0  0
    1.2912    4.0475    3.9155 H   0  0  0  0  0  0  0  0  0  0  0  0
    2.8180    2.2309    3.4364 H   0  0  0  0  0  0  0  0  0  0  0  0
    2.7393    1.0498    1.3456 H   0  0  0  0  0  0  0  0  0  0  0  0
   -2.5832    2.7767    0.8712 H   0  0  0  0  0  0  0  0  0  0  0  0
   -3.5426    3.9350   -0.2228 H   0  0  0  0  0  0  0  0  0  0  0  0
   -3.5288    1.7017    2.6506 H   0  0  0  0  0  0  0  0  0  0  0  0
   -5.2485    1.6076    4.3372 H   0  0  0  0  0  0  0  0  0  0  0  0
   -7.4319    2.8125    3.9579 H   0  0  0  0  0  0  0  0  0  0  0  0
   -7.7460    4.0654    1.8643 H   0  0  0  0  0  0  0  0  0  0  0  0
   -5.9912    4.1477    0.1899 H   0  0  0  0  0  0  0  0  0  0  0  0
   -7.6861    1.3485   -1.1297 H   0  0  0  0  0  0  0  0  0  0  0  0
   -7.0060    0.0649   -0.1406 H   0  0  0  0  0  0  0  0  0  0  0  0
   -8.9323   -1.4646   -1.2385 H   0  0  0  0  0  0  0  0  0  0  0  0
   -9.5124    0.0556   -1.9585 H   0  0  0  0  0  0  0  0  0  0  0  0
  -10.6475   -0.2910    0.1714 H   0  0  0  0  0  0  0  0  0  0  0  0
   -9.6546    1.1871    0.1942 H   0  0  0  0  0  0  0  0  0  0  0  0
   -7.7391   -2.9241    2.7854 H   0  0  0  0  0  0  0  0  0  0  0  0
   -8.1649   -1.4418    3.7072 H   0  0  0  0  0  0  0  0  0  0  0  0
   -9.3440   -3.4374    0.6232 H   0  0  0  0  0  0  0  0  0  0  0  0
  -10.8009   -2.3858    0.9643 H   0  0  0  0  0  0  0  0  0  0  0  0
    6.4932   -2.6384    0.4189 H   0  0  0  0  0  0  0  0  0  0  0  0
    5.0107   -2.9057    1.3236 H   0  0  0  0  0  0  0  0  0  0  0  0
    6.9078   -3.5401    2.5326 H   0  0  0  0  0  0  0  0  0  0  0  0
    8.0501   -0.9130    3.3545 H   0  0  0  0  0  0  0  0  0  0  0  0
    8.7810   -2.4782    3.0999 H   0  0  0  0  0  0  0  0  0  0  0  0
    8.4917   -1.5453    1.6478 H   0  0  0  0  0  0  0  0  0  0  0  0
    5.6196   -1.1472    3.8542 H   0  0  0  0  0  0  0  0  0  0  0  0
    4.8857   -2.7417    3.6797 H   0  0  0  0  0  0  0  0  0  0  0  0
    6.3749   -2.6506    4.6564 H   0  0  0  0  0  0  0  0  0  0  0  0
  1  2  1  0
  2  3  1  0
  3  4  1  0
  4  5  1  0
  5  6  1  0
  6  7  2  0
  6  8  1  0
  5  9  1  0
  9 10  1  0
 10 11  2  0
 10 12  1  0
 12 13  1  0
 13 14  1  0
 14 15  2  0
 14 16  1  0
 16 17  1  0
 17 18  1  0
 18 19  1  0
 19 20  1  0
 20 21  1  0
 21 22  2  0
 21 23  1  0
 23 24  1  0
 24 25  1  0
 25 26  2  0
 25 27  1  0
 27 28  1  0
 28 29  1  0
 29 30  2  0
 29 31  1  0
 31 32  1  0
 32 33  1  0
 33 34  2  0
 33 35  1  0
 35 36  1  0
 36 37  1  0
 37 38  2  0
 36 39  1  0
 39 40  1  0
 40 41  2  0
 41 42  1  0
 42 43  2  0
 43 44  1  0
 44 45  2  0
 32 46  1  0
 46 47  1  0
 47 48  2  0
 48 49  1  0
 49 50  2  0
 50 51  1  0
 51 52  2  0
 28 53  1  0
 53 54  1  0
 54 55  1  0
 55 56  1  0
 56 57  2  3
 57 58  1  0
 57 59  1  0
 12 60  1  0
 60 61  1  0
 61 62  1  0
 61 63  1  0
 37 17  1  0
 45 40  1  0
 52 47  1  0
  1 64  1  0
  1 65  1  0
  1 66  1  0
  3 67  1  0
  3 68  1  0
  4 69  1  0
  4 70  1  0
  5 71  1  1
  8 72  1  0
  8 73  1  0
  9 74  1  0
 12 75  1  1
 13 76  1  0
 16 77  1  0
 16 78  1  0
 18 79  1  0
 18 80  1  0
 19 81  1  0
 19 82  1  0
 20 83  1  0
 23 84  1  0
 23 85  1  0
 24 86  1  0
 24 87  1  0
 27 88  1  0
 28 89  1  6
 31 90  1  0
 32 91  1  1
 35 92  1  0
 36 93  1  6
 39 94  1  0
 39 95  1  0
 41 96  1  0
 42 97  1  0
 43 98  1  0
 44 99  1  0
 45100  1  0
 46101  1  0
 46102  1  0
 48103  1  0
 49104  1  0
 50105  1  0
 51106  1  0
 52107  1  0
 53108  1  0
 53109  1  0
 54110  1  0
 54111  1  0
 55112  1  0
 55113  1  0
 58114  1  0
 58115  1  0
 59116  1  0
 59117  1  0
 60118  1  0
 60119  1  0
 61120  1  0
 62121  1  0
 62122  1  0
 62123  1  0
 63124  1  0
 63125  1  0
 63126  1  0
M  END
>  <Ligand ID>  (1) 
LIG0003440

>  <Ligand>  (1) 
CHEMBL419558

>  <SMILES>  (1) 
CSCC[C@@H](C(=O)N)NC(=O)[C@@H](NC(=O)CN1CCNC(=O)CCC(=O)N[C@H](C(=O)N[C@@H](C(=O)N[C@H](C1=O)Cc1ccccc1)Cc1ccccc1)CCCN=C(N)N)CC(C)C

>  <CID>  (1) 
44337775.0

>  <ChEMBL ID>  (1) 
nan

>  <InChiKey>  (1) 
VVWBELVCANARRU-ALJNDBQTSA-N

>  <InChi>  (1) 
InChI=1S/C43H63N11O8S/c1-27(2)23-32(40(60)51-30(38(44)58)18-22-63-3)50-37(57)26-54-21-20-47-35(55)16-17-36(56)49-31(15-10-19-48-43(45)46)39(59)52-33(24-28-11-6-4-7-12-28)41(61)53-34(42(54)62)25-29-13-8-5-9-14-29/h4-9,11-14,27,30-34H,10,15-26H2,1-3H3,(H2,44,58)(H,47,55)(H,49,56)(H,50,57)(H,51,60)(H,52,59)(H,53,61)(H4,45,46,48)/t30-,31-,32-,33+,34-/m0/s1

>  <IUPAC Name>  (1) 
(2S)-N-[(2S)-1-amino-4-methylsulfanyl-1-oxobutan-2-yl]-2-[[2-[(6S,9R,12S)-6,9-dibenzyl-12-[3-(diaminomethylideneamino)propyl]-5,8,11,14,17-pentaoxo-1,4,7,10,13-pentazacycloheptadec-4-yl]acetyl]amino]-4-methylpentanamide

$$$$
