
     RDKit          3D

 27 28  0  0  0  0  0  0  0  0999 V2000
   -1.3958   -1.6618    1.0124 C   0  0  0  0  0  0  0  0  0  0  0  0
   -0.8785   -1.0989   -0.3124 C   0  0  0  0  0  0  0  0  0  0  0  0
   -1.9205   -0.2807   -0.9689 C   0  0  0  0  0  0  0  0  0  0  0  0
   -1.8203    1.1268   -0.8756 N   0  0  0  0  0  0  0  0  0  0  0  0
   -1.4452    1.6415    0.4002 C   0  0  0  0  0  0  0  0  0  0  0  0
    0.0116    1.9666    0.4923 C   0  0  0  0  0  0  0  0  0  0  0  0
    0.8243    0.7857    0.1640 C   0  0  0  0  0  0  0  0  0  0  0  0
    0.4493   -0.4979   -0.1729 C   0  0  0  0  0  0  0  0  0  0  0  0
    1.4880   -1.3942   -0.4289 C   0  0  0  0  0  0  0  0  0  0  0  0
    1.0394   -3.0449   -0.8627 Cl  0  0  0  0  0  0  0  0  0  0  0  0
    2.8066   -1.0532   -0.3588 C   0  0  0  0  0  0  0  0  0  0  0  0
    3.1600    0.2156   -0.0255 C   0  0  0  0  0  0  0  0  0  0  0  0
    2.1712    1.1354    0.2359 C   0  0  0  0  0  0  0  0  0  0  0  0
    4.0099   -2.2838   -0.7066 Cl  0  0  0  0  0  0  0  0  0  0  0  0
   -2.4805   -1.4561    1.0984 H   0  0  0  0  0  0  0  0  0  0  0  0
   -1.2908   -2.7540    1.0879 H   0  0  0  0  0  0  0  0  0  0  0  0
   -0.8338   -1.2119    1.8694 H   0  0  0  0  0  0  0  0  0  0  0  0
   -0.7388   -2.0095   -0.9675 H   0  0  0  0  0  0  0  0  0  0  0  0
   -2.0361   -0.5241   -2.0605 H   0  0  0  0  0  0  0  0  0  0  0  0
   -2.9152   -0.5810   -0.5314 H   0  0  0  0  0  0  0  0  0  0  0  0
   -1.4600    1.6392   -1.6838 H   0  0  0  0  0  0  0  0  0  0  0  0
   -1.7654    0.9572    1.1900 H   0  0  0  0  0  0  0  0  0  0  0  0
   -2.0051    2.6049    0.5231 H   0  0  0  0  0  0  0  0  0  0  0  0
    0.1857    2.2806    1.5505 H   0  0  0  0  0  0  0  0  0  0  0  0
    0.1940    2.8255   -0.2113 H   0  0  0  0  0  0  0  0  0  0  0  0
    4.1936    0.5197    0.0392 H   0  0  0  0  0  0  0  0  0  0  0  0
    2.4525    2.1534    0.5035 H   0  0  0  0  0  0  0  0  0  0  0  0
  1  2  1  0
  2  3  1  0
  3  4  1  0
  4  5  1  0
  5  6  1  0
  6  7  1  0
  7  8  2  0
  8  9  1  0
  9 10  1  0
  9 11  2  0
 11 12  1  0
 12 13  2  0
 11 14  1  0
  8  2  1  0
 13  7  1  0
  1 15  1  0
  1 16  1  0
  1 17  1  0
  2 18  1  0
  3 19  1  0
  3 20  1  0
  4 21  1  0
  5 22  1  0
  5 23  1  0
  6 24  1  0
  6 25  1  0
 12 26  1  0
 13 27  1  0
M  END
>  <Ligand ID>  (1) 
LIG0004017

>  <Ligand>  (1) 
CHEMBL178231

>  <SMILES>  (1) 
CC1CNCCc2c1c(Cl)c(cc2)Cl

>  <CID>  (1) 
11447552.0

>  <ChEMBL ID>  (1) 
nan

>  <InChiKey>  (1) 
VUYGFWKOVMRUIC-UHFFFAOYSA-N

>  <InChi>  (1) 
InChI=1S/C11H13Cl2N/c1-7-6-14-5-4-8-2-3-9(12)11(13)10(7)8/h2-3,7,14H,4-6H2,1H3

>  <IUPAC Name>  (1) 
6,7-dichloro-5-methyl-2,3,4,5-tetrahydro-1H-3-benzazepine

$$$$
