
     RDKit          3D

140143  0  0  0  0  0  0  0  0999 V2000
   10.1543    4.7300    2.0359 N   0  0  0  0  0  0  0  0  0  0  0  0
   11.1011    4.5529    3.0954 C   0  0  0  0  0  0  0  0  0  0  0  0
   12.3221    3.8050    2.8129 C   0  0  0  0  0  0  0  0  0  0  0  0
   12.3978    2.3942    2.4798 C   0  0  0  0  0  0  0  0  0  0  0  0
   11.7821    1.7470    1.3426 C   0  0  0  0  0  0  0  0  0  0  0  0
   10.3104    1.6220    1.1986 C   0  0  1  0  0  0  0  0  0  0  0  0
   10.1222    0.8640   -0.1214 C   0  0  0  0  0  0  0  0  0  0  0  0
   10.5032    1.4832   -1.1498 O   0  0  0  0  0  0  0  0  0  0  0  0
    9.5672   -0.4234   -0.1679 N   0  0  0  0  0  0  0  0  0  0  0  0
    9.4579   -1.0171   -1.5196 C   0  0  2  0  0  0  0  0  0  0  0  0
    8.0547   -1.4239   -1.7702 C   0  0  0  0  0  0  0  0  0  0  0  0
    7.6242   -1.8134   -2.8884 O   0  0  0  0  0  0  0  0  0  0  0  0
    7.0534   -1.4067   -0.7247 N   0  0  0  0  0  0  0  0  0  0  0  0
    5.7399   -1.8202   -1.1017 C   0  0  2  0  0  0  0  0  0  0  0  0
    4.6313   -1.0561   -0.4771 C   0  0  0  0  0  0  0  0  0  0  0  0
    4.8807   -0.2139    0.4118 O   0  0  0  0  0  0  0  0  0  0  0  0
    3.3197   -1.3428   -0.9469 N   0  0  0  0  0  0  0  0  0  0  0  0
    2.1165   -0.7354   -0.4763 C   0  0  2  0  0  0  0  0  0  0  0  0
    0.9961   -1.6552   -0.2936 C   0  0  0  0  0  0  0  0  0  0  0  0
    1.1728   -2.8540   -0.7169 O   0  0  0  0  0  0  0  0  0  0  0  0
   -0.2569   -1.2853    0.3221 N   0  0  0  0  0  0  0  0  0  0  0  0
   -1.2952   -2.2846    0.4341 C   0  0  2  0  0  0  0  0  0  0  0  0
   -2.5952   -1.9665   -0.1246 C   0  0  0  0  0  0  0  0  0  0  0  0
   -3.3944   -2.9769   -0.2679 O   0  0  0  0  0  0  0  0  0  0  0  0
   -3.0994   -0.6962   -0.5303 N   0  0  0  0  0  0  0  0  0  0  0  0
   -2.4933    0.6149   -0.4380 C   0  0  0  0  0  0  0  0  0  0  0  0
   -3.5876    1.5383   -0.9716 C   0  0  0  0  0  0  0  0  0  0  0  0
   -4.3260    0.6758   -1.9800 C   0  0  0  0  0  0  0  0  0  0  0  0
   -4.4272   -0.6031   -1.1737 C   0  0  0  0  0  0  0  0  0  0  0  0
   -5.4765   -0.1772   -0.1910 C   0  0  0  0  0  0  0  0  0  0  0  0
   -5.5437   -0.3888    1.0399 O   0  0  0  0  0  0  0  0  0  0  0  0
   -6.4157    0.5493   -0.9884 N   0  0  0  0  0  0  0  0  0  0  0  0
   -5.7361    1.0854   -2.1761 C   0  0  0  0  0  0  0  0  0  0  0  0
   -7.8256    0.7682   -0.7350 C   0  0  2  0  0  0  0  0  0  0  0  0
   -8.1103    1.6241    0.4242 C   0  0  0  0  0  0  0  0  0  0  0  0
   -7.1083    2.0427    1.0999 O   0  0  0  0  0  0  0  0  0  0  0  0
   -9.4467    1.9627    0.7623 N   0  0  0  0  0  0  0  0  0  0  0  0
   -9.5985    2.8307    1.9426 C   0  0  2  0  0  0  0  0  0  0  0  0
  -10.6125    2.1892    2.8067 C   0  0  0  0  0  0  0  0  0  0  0  0
  -10.9411    2.7055    3.9214 O   0  0  0  0  0  0  0  0  0  0  0  0
  -11.2741    0.9769    2.4538 N   0  0  0  0  0  0  0  0  0  0  0  0
  -10.1652    4.1411    1.3698 C   0  0  0  0  0  0  0  0  0  0  0  0
   -9.1677    4.6714    0.3667 C   0  0  0  0  0  0  0  0  0  0  0  0
   -9.7331    6.2443   -0.3861 S   0  0  0  0  0  0  0  0  0  0  0  0
   -9.7378    7.4794    0.9495 C   0  0  0  0  0  0  0  0  0  0  0  0
   -8.6484   -0.4738   -0.8651 C   0  0  0  0  0  0  0  0  0  0  0  0
   -8.3330   -1.6213    0.0129 C   0  0  0  0  0  0  0  0  0  0  0  0
   -9.3206   -2.7689   -0.3643 C   0  0  0  0  0  0  0  0  0  0  0  0
   -8.6236   -1.3206    1.4522 C   0  0  0  0  0  0  0  0  0  0  0  0
   -1.3485   -2.8315    1.8576 C   0  0  0  0  0  0  0  0  0  0  0  0
   -2.4214   -3.8425    1.9337 C   0  0  0  0  0  0  0  0  0  0  0  0
   -2.2214   -5.1861    1.6226 C   0  0  0  0  0  0  0  0  0  0  0  0
   -3.2608   -6.0901    1.7390 C   0  0  0  0  0  0  0  0  0  0  0  0
   -4.5096   -5.6970    2.1602 C   0  0  0  0  0  0  0  0  0  0  0  0
   -4.7246   -4.3745    2.4714 C   0  0  0  0  0  0  0  0  0  0  0  0
   -3.6876   -3.4869    2.3525 C   0  0  0  0  0  0  0  0  0  0  0  0
    1.7014    0.4397   -1.3399 C   0  0  0  0  0  0  0  0  0  0  0  0
    1.4754    0.1560   -2.7426 C   0  0  0  0  0  0  0  0  0  0  0  0
    2.5550    0.3599   -3.6202 C   0  0  0  0  0  0  0  0  0  0  0  0
    2.4291    0.1161   -4.9579 C   0  0  0  0  0  0  0  0  0  0  0  0
    1.2689   -0.3356   -5.5347 C   0  0  0  0  0  0  0  0  0  0  0  0
    0.1868   -0.5447   -4.6822 C   0  0  0  0  0  0  0  0  0  0  0  0
    0.3188   -0.2969   -3.3295 C   0  0  0  0  0  0  0  0  0  0  0  0
    5.5941   -3.3170   -0.7264 C   0  0  0  0  0  0  0  0  0  0  0  0
    5.7729   -3.5162    0.6396 O   0  0  0  0  0  0  0  0  0  0  0  0
   10.4222   -2.2055   -1.5497 C   0  0  0  0  0  0  0  0  0  0  0  0
   10.4369   -2.8710   -2.8408 C   0  0  0  0  0  0  0  0  0  0  0  0
    9.8275   -2.5295   -3.8811 O   0  0  0  0  0  0  0  0  0  0  0  0
   11.2181   -4.0346   -2.9592 O   0  0  0  0  0  0  0  0  0  0  0  0
    9.7466    0.7403    2.2363 N   0  0  0  0  0  0  0  0  0  0  0  0
    9.6772    5.6663    2.1109 H   0  0  0  0  0  0  0  0  0  0  0  0
   10.6090    4.7409    1.0885 H   0  0  0  0  0  0  0  0  0  0  0  0
   11.3982    5.5909    3.4472 H   0  0  0  0  0  0  0  0  0  0  0  0
   10.6015    4.0993    4.0070 H   0  0  0  0  0  0  0  0  0  0  0  0
   13.1224    4.0535    3.6185 H   0  0  0  0  0  0  0  0  0  0  0  0
   12.8357    4.3571    1.9159 H   0  0  0  0  0  0  0  0  0  0  0  0
   12.2122    1.7480    3.4337 H   0  0  0  0  0  0  0  0  0  0  0  0
   13.5428    2.1752    2.3825 H   0  0  0  0  0  0  0  0  0  0  0  0
   12.2498    0.7035    1.1750 H   0  0  0  0  0  0  0  0  0  0  0  0
   12.1963    2.2731    0.3961 H   0  0  0  0  0  0  0  0  0  0  0  0
    9.7201    2.5138    1.0959 H   0  0  0  0  0  0  0  0  0  0  0  0
    9.2573   -0.9227    0.6814 H   0  0  0  0  0  0  0  0  0  0  0  0
    9.7938   -0.3249   -2.3012 H   0  0  0  0  0  0  0  0  0  0  0  0
    7.2909   -1.1083    0.2397 H   0  0  0  0  0  0  0  0  0  0  0  0
    5.5618   -1.8307   -2.1936 H   0  0  0  0  0  0  0  0  0  0  0  0
    3.2043   -2.0745   -1.7178 H   0  0  0  0  0  0  0  0  0  0  0  0
    2.3535   -0.2612    0.5088 H   0  0  0  0  0  0  0  0  0  0  0  0
   -0.3061   -0.3099    0.6556 H   0  0  0  0  0  0  0  0  0  0  0  0
   -0.9033   -3.1793   -0.1480 H   0  0  0  0  0  0  0  0  0  0  0  0
   -2.3762    0.8048    0.6597 H   0  0  0  0  0  0  0  0  0  0  0  0
   -1.5659    0.7436   -0.9858 H   0  0  0  0  0  0  0  0  0  0  0  0
   -4.2749    1.7313   -0.1253 H   0  0  0  0  0  0  0  0  0  0  0  0
   -3.2188    2.4823   -1.3600 H   0  0  0  0  0  0  0  0  0  0  0  0
   -3.8237    0.5732   -2.9377 H   0  0  0  0  0  0  0  0  0  0  0  0
   -4.6870   -1.4891   -1.7460 H   0  0  0  0  0  0  0  0  0  0  0  0
   -5.7916    2.1965   -2.1627 H   0  0  0  0  0  0  0  0  0  0  0  0
   -6.1285    0.6593   -3.1087 H   0  0  0  0  0  0  0  0  0  0  0  0
   -8.2030    1.4109   -1.6239 H   0  0  0  0  0  0  0  0  0  0  0  0
  -10.2757    1.6296    0.2239 H   0  0  0  0  0  0  0  0  0  0  0  0
   -8.6370    3.0266    2.4096 H   0  0  0  0  0  0  0  0  0  0  0  0
  -11.1956    0.0926    2.9995 H   0  0  0  0  0  0  0  0  0  0  0  0
  -11.8827    0.9406    1.5979 H   0  0  0  0  0  0  0  0  0  0  0  0
  -10.3783    4.8515    2.1672 H   0  0  0  0  0  0  0  0  0  0  0  0
  -11.0825    3.9017    0.7959 H   0  0  0  0  0  0  0  0  0  0  0  0
   -9.0556    3.9647   -0.4841 H   0  0  0  0  0  0  0  0  0  0  0  0
   -8.1604    4.8616    0.7914 H   0  0  0  0  0  0  0  0  0  0  0  0
  -10.3237    7.0480    1.7822 H   0  0  0  0  0  0  0  0  0  0  0  0
  -10.1730    8.4317    0.5966 H   0  0  0  0  0  0  0  0  0  0  0  0
   -8.6610    7.6013    1.2441 H   0  0  0  0  0  0  0  0  0  0  0  0
   -8.5609   -0.8513   -1.9322 H   0  0  0  0  0  0  0  0  0  0  0  0
   -9.7329   -0.2022   -0.7979 H   0  0  0  0  0  0  0  0  0  0  0  0
   -7.3467   -2.0483   -0.1749 H   0  0  0  0  0  0  0  0  0  0  0  0
   -8.9108   -3.2817   -1.2347 H   0  0  0  0  0  0  0  0  0  0  0  0
  -10.3336   -2.3259   -0.5312 H   0  0  0  0  0  0  0  0  0  0  0  0
   -9.2932   -3.4591    0.4995 H   0  0  0  0  0  0  0  0  0  0  0  0
   -8.1804   -0.3675    1.7367 H   0  0  0  0  0  0  0  0  0  0  0  0
   -9.7279   -1.2455    1.6117 H   0  0  0  0  0  0  0  0  0  0  0  0
   -8.1888   -2.1205    2.1036 H   0  0  0  0  0  0  0  0  0  0  0  0
   -0.3823   -3.3580    2.0216 H   0  0  0  0  0  0  0  0  0  0  0  0
   -1.4673   -2.0334    2.6211 H   0  0  0  0  0  0  0  0  0  0  0  0
   -1.2454   -5.5424    1.2839 H   0  0  0  0  0  0  0  0  0  0  0  0
   -3.1488   -7.1520    1.5091 H   0  0  0  0  0  0  0  0  0  0  0  0
   -5.3211   -6.3995    2.2489 H   0  0  0  0  0  0  0  0  0  0  0  0
   -5.6912   -4.0479    2.7999 H   0  0  0  0  0  0  0  0  0  0  0  0
   -3.8531   -2.4607    2.5913 H   0  0  0  0  0  0  0  0  0  0  0  0
    0.7906    0.8665   -0.8861 H   0  0  0  0  0  0  0  0  0  0  0  0
    2.4635    1.2736   -1.2523 H   0  0  0  0  0  0  0  0  0  0  0  0
    3.5026    0.7160   -3.2211 H   0  0  0  0  0  0  0  0  0  0  0  0
    3.2941    0.2880   -5.6194 H   0  0  0  0  0  0  0  0  0  0  0  0
    1.2183   -0.5134   -6.5994 H   0  0  0  0  0  0  0  0  0  0  0  0
   -0.7144   -0.8984   -5.1496 H   0  0  0  0  0  0  0  0  0  0  0  0
   -0.5300   -0.4767   -2.6953 H   0  0  0  0  0  0  0  0  0  0  0  0
    6.4510   -3.8167   -1.2362 H   0  0  0  0  0  0  0  0  0  0  0  0
    4.6690   -3.7198   -1.1367 H   0  0  0  0  0  0  0  0  0  0  0  0
    6.4664   -4.1918    0.8328 H   0  0  0  0  0  0  0  0  0  0  0  0
   10.0433   -2.9534   -0.7985 H   0  0  0  0  0  0  0  0  0  0  0  0
   11.4110   -1.8009   -1.2464 H   0  0  0  0  0  0  0  0  0  0  0  0
   11.2132   -4.5566   -3.8179 H   0  0  0  0  0  0  0  0  0  0  0  0
    9.2373    1.3716    2.8944 H   0  0  0  0  0  0  0  0  0  0  0  0
   10.5526    0.3094    2.7658 H   0  0  0  0  0  0  0  0  0  0  0  0
  1  2  1  0
  2  3  1  0
  3  4  1  0
  4  5  1  0
  5  6  1  0
  6  7  1  0
  7  8  2  0
  7  9  1  0
  9 10  1  0
 10 11  1  0
 11 12  2  0
 11 13  1  0
 13 14  1  0
 14 15  1  0
 15 16  2  0
 15 17  1  0
 17 18  1  0
 18 19  1  0
 19 20  2  0
 19 21  1  0
 21 22  1  0
 22 23  1  0
 23 24  2  0
 23 25  1  0
 25 26  1  0
 26 27  1  0
 27 28  1  0
 28 29  1  0
 29 30  1  0
 30 31  2  0
 30 32  1  0
 32 33  1  0
 32 34  1  0
 34 35  1  0
 35 36  2  0
 35 37  1  0
 37 38  1  0
 38 39  1  0
 39 40  2  0
 39 41  1  0
 38 42  1  0
 42 43  1  0
 43 44  1  0
 44 45  1  0
 34 46  1  0
 46 47  1  0
 47 48  1  0
 47 49  1  0
 22 50  1  0
 50 51  1  0
 51 52  2  0
 52 53  1  0
 53 54  2  0
 54 55  1  0
 55 56  2  0
 18 57  1  0
 57 58  1  0
 58 59  2  0
 59 60  1  0
 60 61  2  0
 61 62  1  0
 62 63  2  0
 14 64  1  0
 64 65  1  0
 10 66  1  0
 66 67  1  0
 67 68  2  0
 67 69  1  0
  6 70  1  0
 29 25  1  0
 56 51  1  0
 63 58  1  0
 33 28  1  0
  1 71  1  0
  1 72  1  0
  2 73  1  0
  2 74  1  0
  3 75  1  0
  3 76  1  0
  4 77  1  0
  4 78  1  0
  5 79  1  0
  5 80  1  0
  6 81  1  6
  9 82  1  0
 10 83  1  6
 13 84  1  0
 14 85  1  6
 17 86  1  0
 18 87  1  1
 21 88  1  0
 22 89  1  6
 26 90  1  0
 26 91  1  0
 27 92  1  0
 27 93  1  0
 28 94  1  0
 29 95  1  0
 33 96  1  0
 33 97  1  0
 34 98  1  6
 37 99  1  0
 38100  1  1
 41101  1  0
 41102  1  0
 42103  1  0
 42104  1  0
 43105  1  0
 43106  1  0
 45107  1  0
 45108  1  0
 45109  1  0
 46110  1  0
 46111  1  0
 47112  1  0
 48113  1  0
 48114  1  0
 48115  1  0
 49116  1  0
 49117  1  0
 49118  1  0
 50119  1  0
 50120  1  0
 52121  1  0
 53122  1  0
 54123  1  0
 55124  1  0
 56125  1  0
 57126  1  0
 57127  1  0
 59128  1  0
 60129  1  0
 61130  1  0
 62131  1  0
 63132  1  0
 64133  1  0
 64134  1  0
 65135  1  0
 66136  1  0
 66137  1  0
 69138  1  0
 70139  1  0
 70140  1  0
M  END
>  <Ligand ID>  (1) 
LIG0003425

>  <Ligand>  (1) 
CHEMBL267712

>  <SMILES>  (1) 
NCCCC[C@@H](C(=O)N[C@H](C(=O)N[C@H](C(=O)N[C@H](C(=O)N[C@H](C(=O)N1CCC2C1C(=O)N(C2)[C@H](C(=O)N[C@H](C(=O)N)CCSC)CC(C)C)Cc1ccccc1)Cc1ccccc1)CO)CC(=O)O)N

>  <CID>  (1) 
44355648.0

>  <ChEMBL ID>  (1) 
nan

>  <InChiKey>  (1) 
RXPYHERBFPILFA-MFWRFTSHSA-N

>  <InChi>  (1) 
InChI=1S/C48H70N10O11S/c1-28(2)22-38(46(67)52-33(41(51)62)18-21-70-3)58-26-31-17-20-57(40(31)48(58)69)47(68)36(24-30-14-8-5-9-15-30)55-43(64)34(23-29-12-6-4-7-13-29)54-45(66)37(27-59)56-44(65)35(25-39(60)61)53-42(63)32(50)16-10-11-19-49/h4-9,12-15,28,31-38,40,59H,10-11,16-27,49-50H2,1-3H3,(H2,51,62)(H,52,67)(H,53,63)(H,54,66)(H,55,64)(H,56,65)(H,60,61)/t31?,32-,33-,34-,35-,36-,37-,38-,40?/m0/s1

>  <IUPAC Name>  (1) 
(3S)-4-[[(2S)-1-[[(2S)-1-[[(2S)-1-[5-[(2S)-1-[[(2S)-1-amino-4-methylsulfanyl-1-oxobutan-2-yl]amino]-4-methyl-1-oxopentan-2-yl]-6-oxo-3,3a,4,6a-tetrahydro-2H-pyrrolo[2,3-c]pyrrol-1-yl]-1-oxo-3-phenylpropan-2-yl]amino]-1-oxo-3-phenylpropan-2-yl]amino]-3-hydroxy-1-oxopropan-2-yl]amino]-3-[[(2S)-2,6-diaminohexanoyl]amino]-4-oxobutanoic acid

$$$$
