
     RDKit          3D

 38 40  0  0  0  0  0  0  0  0999 V2000
   -1.5948   -1.8146    2.7162 O   0  0  0  0  0  0  0  0  0  0  0  0
   -1.1732   -0.7903    1.8504 C   0  0  0  0  0  0  0  0  0  0  0  0
   -0.3454    0.0491    2.2926 O   0  0  0  0  0  0  0  0  0  0  0  0
   -1.6671   -0.6758    0.4620 C   0  0  2  0  0  0  0  0  0  0  0  0
   -2.6137   -1.7612    0.1860 N   0  0  0  0  0  0  0  0  0  0  0  0
   -0.5758   -0.7883   -0.5749 C   0  0  2  0  0  0  0  0  0  0  0  0
    0.5888   -0.1250   -0.2489 O   0  0  0  0  0  0  0  0  0  0  0  0
    1.6743   -0.9792   -0.2484 C   0  0  0  0  0  0  0  0  0  0  0  0
    2.9543   -0.3151    0.0965 C   0  0  0  0  0  0  0  0  0  0  0  0
    3.4119   -0.2145    1.3950 C   0  0  0  0  0  0  0  0  0  0  0  0
    4.6290    0.4288    1.6220 C   0  0  0  0  0  0  0  0  0  0  0  0
    5.3699    0.9595    0.5664 C   0  0  0  0  0  0  0  0  0  0  0  0
    4.9014    0.8546   -0.7461 C   0  0  0  0  0  0  0  0  0  0  0  0
    3.6928    0.2144   -0.9600 C   0  0  0  0  0  0  0  0  0  0  0  0
    5.8478    1.5287   -2.0623 Cl  0  0  0  0  0  0  0  0  0  0  0  0
    6.9058    1.7650    0.9078 Cl  0  0  0  0  0  0  0  0  0  0  0  0
   -1.2562   -0.2196   -1.7922 C   0  0  0  0  0  0  0  0  0  0  0  0
   -2.0990    0.9323   -1.2966 C   0  0  2  0  0  0  0  0  0  0  0  0
   -2.2767    0.6655    0.1574 C   0  0  1  0  0  0  0  0  0  0  0  0
   -3.4660    0.7049   -0.7805 C   0  0  2  0  0  0  0  0  0  0  0  0
   -4.0924   -0.5101   -0.9564 F   0  0  0  0  0  0  0  0  0  0  0  0
   -4.3531    1.8866   -0.7603 C   0  0  0  0  0  0  0  0  0  0  0  0
   -3.8705    3.0414   -0.6045 O   0  0  0  0  0  0  0  0  0  0  0  0
   -5.7188    1.7622   -0.9095 O   0  0  0  0  0  0  0  0  0  0  0  0
   -1.3795   -1.8215    3.7121 H   0  0  0  0  0  0  0  0  0  0  0  0
   -2.4591   -2.1808   -0.7699 H   0  0  0  0  0  0  0  0  0  0  0  0
   -2.3296   -2.5484    0.8419 H   0  0  0  0  0  0  0  0  0  0  0  0
   -0.3671   -1.8667   -0.7630 H   0  0  0  0  0  0  0  0  0  0  0  0
    1.5111   -1.8323    0.4524 H   0  0  0  0  0  0  0  0  0  0  0  0
    1.7224   -1.4425   -1.2629 H   0  0  0  0  0  0  0  0  0  0  0  0
    2.8235   -0.6333    2.2108 H   0  0  0  0  0  0  0  0  0  0  0  0
    5.0074    0.5171    2.6514 H   0  0  0  0  0  0  0  0  0  0  0  0
    3.3360    0.1389   -1.9968 H   0  0  0  0  0  0  0  0  0  0  0  0
   -0.4758    0.1479   -2.4707 H   0  0  0  0  0  0  0  0  0  0  0  0
   -1.8820   -0.9649   -2.3159 H   0  0  0  0  0  0  0  0  0  0  0  0
   -1.7938    1.9414   -1.5825 H   0  0  0  0  0  0  0  0  0  0  0  0
   -2.1982    1.4675    0.9153 H   0  0  0  0  0  0  0  0  0  0  0  0
   -6.3887    2.4782   -0.6870 H   0  0  0  0  0  0  0  0  0  0  0  0
  1  2  1  0
  2  3  2  0
  2  4  1  0
  4  5  1  6
  4  6  1  0
  6  7  1  0
  7  8  1  0
  8  9  1  0
  9 10  2  0
 10 11  1  0
 11 12  2  0
 12 13  1  0
 13 14  2  0
 13 15  1  0
 12 16  1  0
  6 17  1  0
 17 18  1  0
 18 19  1  0
 19 20  1  0
 20 21  1  6
 20 22  1  0
 22 23  2  0
 22 24  1  0
 19  4  1  0
 14  9  1  0
 20 18  1  0
  1 25  1  0
  5 26  1  0
  5 27  1  0
  6 28  1  6
  8 29  1  0
  8 30  1  0
 10 31  1  0
 11 32  1  0
 14 33  1  0
 17 34  1  0
 17 35  1  0
 18 36  1  1
 19 37  1  1
 24 38  1  0
M  END
>  <Ligand ID>  (1) 
LIG0000654

>  <Ligand>  (1) 
MGS-0039

>  <SMILES>  (1) 
OC(=O)[C@]1(N)[C@H](OCc2ccc(c(c2)Cl)Cl)C[C@@H]2[C@H]1[C@@]2(F)C(=O)O

>  <CID>  (1) 
9886034.0

>  <ChEMBL ID>  (1) 
nan

>  <InChiKey>  (1) 
LFAGGDAZZKUVKO-JAGWWQSPSA-N

>  <InChi>  (1) 
InChI=1S/C15H14Cl2FNO5/c16-8-2-1-6(3-9(8)17)5-24-10-4-7-11(14(7,18)12(20)21)15(10,19)13(22)23/h1-3,7,10-11H,4-5,19H2,(H,20,21)(H,22,23)/t7-,10-,11+,14-,15+/m1/s1

>  <IUPAC Name>  (1) 
(1R,2R,3R,5R,6R)-2-amino-3-[(3,4-dichlorophenyl)methoxy]-6-fluorobicyclo[3.1.0]hexane-2,6-dicarboxylic acid

$$$$
