
     RDKit          3D

 70 73  0  0  0  0  0  0  0  0999 V2000
    1.8325   -3.0549   -1.0166 C   0  0  0  0  0  0  0  0  0  0  0  0
    2.6559   -1.7783   -0.9503 C   0  0  2  0  0  0  0  0  0  0  0  0
    4.0946   -2.1491   -1.1683 C   0  0  0  0  0  0  0  0  0  0  0  0
    5.0358   -1.0152   -1.1393 C   0  0  0  0  0  0  0  0  0  0  0  0
    5.5508   -0.4522   -2.3148 C   0  0  0  0  0  0  0  0  0  0  0  0
    6.3706    0.5670   -1.9915 N   0  0  0  0  0  0  0  0  0  0  0  0
    6.3829    0.6563   -0.6573 C   0  0  0  0  0  0  0  0  0  0  0  0
    5.5699   -0.3050   -0.0908 C   0  0  0  0  0  0  0  0  0  0  0  0
    5.4168   -0.4222    1.2630 C   0  0  0  0  0  0  0  0  0  0  0  0
    6.1132    0.4673    2.0591 C   0  0  0  0  0  0  0  0  0  0  0  0
    6.9365    1.4420    1.5032 C   0  0  0  0  0  0  0  0  0  0  0  0
    7.0929    1.5627    0.1390 C   0  0  0  0  0  0  0  0  0  0  0  0
    7.9029    2.5194   -0.4562 O   0  0  0  0  0  0  0  0  0  0  0  0
    9.5452    2.1819   -0.7796 S   0  0  0  0  0  0  0  0  0  0  0  0
   10.3787    3.4301   -0.7348 O   0  0  0  0  0  0  0  0  0  0  0  0
    9.5852    1.6914   -2.2078 O   0  0  0  0  0  0  0  0  0  0  0  0
   10.1967    0.9083    0.2493 C   0  0  0  0  0  0  0  0  0  0  0  0
    2.3597   -1.0746    0.2343 N   0  0  0  0  0  0  0  0  0  0  0  0
    1.2533   -0.2170    0.3158 C   0  0  0  0  0  0  0  0  0  0  0  0
   -0.1236   -0.7350    0.2657 C   0  0  1  0  0  0  0  0  0  0  0  0
   -1.1084    0.3707    0.5024 C   0  0  0  0  0  0  0  0  0  0  0  0
   -0.7466    1.6588    0.7959 C   0  0  0  0  0  0  0  0  0  0  0  0
   -1.7585    2.6049    0.9959 C   0  0  0  0  0  0  0  0  0  0  0  0
   -3.0855    2.2201    0.8930 C   0  0  0  0  0  0  0  0  0  0  0  0
   -3.4602    0.9227    0.5970 C   0  0  0  0  0  0  0  0  0  0  0  0
   -2.4428    0.0136    0.4056 C   0  0  0  0  0  0  0  0  0  0  0  0
   -4.8488    0.5512    0.4915 N   0  0  0  0  0  0  0  0  0  0  0  0
   -5.8158    1.5711    0.7034 C   0  0  0  0  0  0  0  0  0  0  0  0
   -7.2181    1.1838    0.5679 C   0  0  0  0  0  0  0  0  0  0  0  0
   -7.6821   -0.0078    0.2702 C   0  0  0  0  0  0  0  0  0  0  0  0
   -9.0884   -0.3515    0.1448 C   0  0  0  0  0  0  0  0  0  0  0  0
   -9.4835   -1.6572   -0.1777 C   0  0  0  0  0  0  0  0  0  0  0  0
  -10.8086   -2.0081   -0.3042 C   0  0  0  0  0  0  0  0  0  0  0  0
  -11.8155   -1.0891   -0.1191 C   0  0  0  0  0  0  0  0  0  0  0  0
  -11.4529    0.1982    0.1980 C   0  0  0  0  0  0  0  0  0  0  0  0
  -10.1185    0.5461    0.3241 C   0  0  0  0  0  0  0  0  0  0  0  0
   -0.5154   -1.4003   -0.8656 O   0  0  0  0  0  0  0  0  0  0  0  0
    2.5260   -3.9534   -1.0777 H   0  0  0  0  0  0  0  0  0  0  0  0
    1.2256   -3.1242   -1.9319 H   0  0  0  0  0  0  0  0  0  0  0  0
    1.2462   -3.2564   -0.1074 H   0  0  0  0  0  0  0  0  0  0  0  0
    2.3806   -1.1828   -1.8822 H   0  0  0  0  0  0  0  0  0  0  0  0
    4.3316   -2.9087   -0.3683 H   0  0  0  0  0  0  0  0  0  0  0  0
    4.1344   -2.7132   -2.1221 H   0  0  0  0  0  0  0  0  0  0  0  0
    5.3390   -0.7672   -3.3339 H   0  0  0  0  0  0  0  0  0  0  0  0
    6.8822    1.1517   -2.7108 H   0  0  0  0  0  0  0  0  0  0  0  0
    4.7787   -1.1857    1.6534 H   0  0  0  0  0  0  0  0  0  0  0  0
    6.0084    0.3935    3.1213 H   0  0  0  0  0  0  0  0  0  0  0  0
    7.4853    2.1432    2.1359 H   0  0  0  0  0  0  0  0  0  0  0  0
   10.3740   -0.0171   -0.3170 H   0  0  0  0  0  0  0  0  0  0  0  0
    9.3912    0.6414    0.9927 H   0  0  0  0  0  0  0  0  0  0  0  0
   11.1326    1.2151    0.7678 H   0  0  0  0  0  0  0  0  0  0  0  0
    2.5186   -1.6502    1.1068 H   0  0  0  0  0  0  0  0  0  0  0  0
    1.3807    0.5788   -0.4666 H   0  0  0  0  0  0  0  0  0  0  0  0
    1.3984    0.3830    1.2822 H   0  0  0  0  0  0  0  0  0  0  0  0
   -0.2182   -1.4945    1.1054 H   0  0  0  0  0  0  0  0  0  0  0  0
    0.2825    1.9692    0.8744 H   0  0  0  0  0  0  0  0  0  0  0  0
   -1.5551    3.6234    1.2275 H   0  0  0  0  0  0  0  0  0  0  0  0
   -3.8624    2.9592    1.0494 H   0  0  0  0  0  0  0  0  0  0  0  0
   -2.7320   -1.0027    0.1740 H   0  0  0  0  0  0  0  0  0  0  0  0
   -5.0206   -0.4480    0.2660 H   0  0  0  0  0  0  0  0  0  0  0  0
   -5.6599    1.9910    1.7345 H   0  0  0  0  0  0  0  0  0  0  0  0
   -5.5949    2.3795   -0.0568 H   0  0  0  0  0  0  0  0  0  0  0  0
   -7.9632    1.9784    0.7331 H   0  0  0  0  0  0  0  0  0  0  0  0
   -6.9693   -0.8015    0.1038 H   0  0  0  0  0  0  0  0  0  0  0  0
   -8.7539   -2.4409   -0.3398 H   0  0  0  0  0  0  0  0  0  0  0  0
  -11.0708   -3.0363   -0.5569 H   0  0  0  0  0  0  0  0  0  0  0  0
  -12.8679   -1.3168   -0.2070 H   0  0  0  0  0  0  0  0  0  0  0  0
  -12.2245    0.9392    0.3483 H   0  0  0  0  0  0  0  0  0  0  0  0
   -9.9209    1.5769    0.5752 H   0  0  0  0  0  0  0  0  0  0  0  0
   -1.1035   -2.1745   -0.6729 H   0  0  0  0  0  0  0  0  0  0  0  0
  1  2  1  0
  2  3  1  0
  3  4  1  0
  4  5  2  0
  5  6  1  0
  6  7  1  0
  7  8  2  0
  8  9  1  0
  9 10  2  0
 10 11  1  0
 11 12  2  0
 12 13  1  0
 13 14  1  0
 14 15  2  0
 14 16  2  0
 14 17  1  0
  2 18  1  0
 18 19  1  0
 19 20  1  0
 20 21  1  0
 21 22  2  0
 22 23  1  0
 23 24  2  0
 24 25  1  0
 25 26  2  0
 25 27  1  0
 27 28  1  0
 28 29  1  0
 29 30  2  0
 30 31  1  0
 31 32  2  0
 32 33  1  0
 33 34  2  0
 34 35  1  0
 35 36  2  0
 20 37  1  0
  8  4  1  0
 26 21  1  0
 36 31  1  0
 12  7  1  0
  1 38  1  0
  1 39  1  0
  1 40  1  0
  2 41  1  6
  3 42  1  0
  3 43  1  0
  5 44  1  0
  6 45  1  0
  9 46  1  0
 10 47  1  0
 11 48  1  0
 17 49  1  0
 17 50  1  0
 17 51  1  0
 18 52  1  0
 19 53  1  0
 19 54  1  0
 20 55  1  1
 22 56  1  0
 23 57  1  0
 24 58  1  0
 26 59  1  0
 27 60  1  0
 28 61  1  0
 28 62  1  0
 29 63  1  0
 30 64  1  0
 32 65  1  0
 33 66  1  0
 34 67  1  0
 35 68  1  0
 36 69  1  0
 37 70  1  0
M  END
>  <Ligand ID>  (1) 
LIG0005469

>  <Ligand>  (1) 
CHEMBL182018

>  <SMILES>  (1) 
C[C@H](Cc1c[nH]c2c1cccc2OS(=O)(=O)C)NC[C@@H](c1cccc(c1)NC/C=C/c1ccccc1)O

>  <CID>  (1) 
11785699.0

>  <ChEMBL ID>  (1) 
nan

>  <InChiKey>  (1) 
JAUUNUPMFOCROG-SBZCJJIMSA-N

>  <InChi>  (1) 
InChI=1S/C29H33N3O4S/c1-21(17-24-19-32-29-26(24)14-7-15-28(29)36-37(2,34)35)31-20-27(33)23-12-6-13-25(18-23)30-16-8-11-22-9-4-3-5-10-22/h3-15,18-19,21,27,30-33H,16-17,20H2,1-2H3/b11-8+/t21-,27+/m1/s1

>  <IUPAC Name>  (1) 
[3-[(2R)-2-[[(2R)-2-hydroxy-2-[3-[[(E)-3-phenylprop-2-enyl]amino]phenyl]ethyl]amino]propyl]-1H-indol-7-yl] methanesulfonate

$$$$
