
     RDKit          3D

 43 46  0  0  0  0  0  0  0  0999 V2000
    0.7838    0.9293    0.4658 O   0  0  0  0  0  0  0  0  0  0  0  0
    0.4382   -0.2901    0.3322 C   0  0  0  0  0  0  0  0  0  0  0  0
    1.3863   -1.3130    0.0905 N   0  0  0  0  0  0  0  0  0  0  0  0
    2.7843   -1.0918   -0.0250 C   0  0  0  0  0  0  0  0  0  0  0  0
    3.8166   -1.6227   -0.2069 N   0  0  0  0  0  0  0  0  0  0  0  0
    5.0253   -1.1231   -0.2639 C   0  0  0  0  0  0  0  0  0  0  0  0
    5.0874    0.2429   -0.0802 C   0  0  0  0  0  0  0  0  0  0  0  0
    3.3893    0.7016    0.1614 S   0  0  0  0  0  0  0  0  0  0  0  0
    6.2694    0.9720   -0.1023 C   0  0  0  0  0  0  0  0  0  0  0  0
    7.4817    0.3095   -0.3215 C   0  0  0  0  0  0  0  0  0  0  0  0
    7.3912   -1.0490   -0.5012 C   0  0  0  0  0  0  0  0  0  0  0  0
    6.2443   -1.7755   -0.4823 C   0  0  0  0  0  0  0  0  0  0  0  0
    8.6657    1.0241   -0.3459 O   0  0  0  0  0  0  0  0  0  0  0  0
    9.4521    1.2645    0.7977 C   0  0  0  0  0  0  0  0  0  0  0  0
    8.7267    1.9757    1.7610 F   0  0  0  0  0  0  0  0  0  0  0  0
    9.9532    0.1287    1.3669 F   0  0  0  0  0  0  0  0  0  0  0  0
   10.4829    2.1154    0.4147 F   0  0  0  0  0  0  0  0  0  0  0  0
   -1.0085   -0.5737    0.4441 C   0  0  0  0  0  0  0  0  0  0  0  0
   -1.7571    0.7188    0.7024 C   0  0  0  0  0  0  0  0  0  0  0  0
   -3.2082    0.5038    0.8244 C   0  0  0  0  0  0  0  0  0  0  0  0
   -3.8440    0.2442    1.9565 O   0  0  0  0  0  0  0  0  0  0  0  0
   -5.1288    0.1051    1.7302 N   0  0  0  0  0  0  0  0  0  0  0  0
   -5.3590    0.2754    0.4168 C   0  0  0  0  0  0  0  0  0  0  0  0
   -4.1619    0.5227   -0.1398 N   0  0  0  0  0  0  0  0  0  0  0  0
   -6.6775    0.1918   -0.2008 C   0  0  0  0  0  0  0  0  0  0  0  0
   -7.7547   -0.0794    0.6178 C   0  0  0  0  0  0  0  0  0  0  0  0
   -9.0153   -0.1644    0.0600 C   0  0  0  0  0  0  0  0  0  0  0  0
   -9.2267    0.0146   -1.2938 C   0  0  0  0  0  0  0  0  0  0  0  0
   -8.1323    0.2849   -2.0911 C   0  0  0  0  0  0  0  0  0  0  0  0
   -6.8508    0.3763   -1.5570 C   0  0  0  0  0  0  0  0  0  0  0  0
   -5.4673    0.7237   -2.6022 Cl  0  0  0  0  0  0  0  0  0  0  0  0
  -10.4604   -0.0682   -1.8414 F   0  0  0  0  0  0  0  0  0  0  0  0
    1.0649   -2.2966   -0.0128 H   0  0  0  0  0  0  0  0  0  0  0  0
    6.2157    2.0385    0.0518 H   0  0  0  0  0  0  0  0  0  0  0  0
    8.3464   -1.5672   -0.6733 H   0  0  0  0  0  0  0  0  0  0  0  0
    6.3117   -2.8399   -0.6376 H   0  0  0  0  0  0  0  0  0  0  0  0
   -1.3484   -0.9111   -0.5672 H   0  0  0  0  0  0  0  0  0  0  0  0
   -1.2506   -1.3491    1.1706 H   0  0  0  0  0  0  0  0  0  0  0  0
   -1.3421    1.1776    1.6369 H   0  0  0  0  0  0  0  0  0  0  0  0
   -1.5433    1.4405   -0.1111 H   0  0  0  0  0  0  0  0  0  0  0  0
   -7.6435   -0.2268    1.6772 H   0  0  0  0  0  0  0  0  0  0  0  0
   -9.9073   -0.3756    0.6508 H   0  0  0  0  0  0  0  0  0  0  0  0
   -8.2298    0.4354   -3.1586 H   0  0  0  0  0  0  0  0  0  0  0  0
  1  2  2  0
  2  3  1  0
  3  4  1  0
  4  5  2  0
  5  6  1  0
  6  7  2  0
  7  8  1  0
  7  9  1  0
  9 10  2  0
 10 11  1  0
 11 12  2  0
 10 13  1  0
 13 14  1  0
 14 15  1  0
 14 16  1  0
 14 17  1  0
  2 18  1  0
 18 19  1  0
 19 20  1  0
 20 21  1  0
 21 22  1  0
 22 23  2  0
 23 24  1  0
 23 25  1  0
 25 26  2  0
 26 27  1  0
 27 28  2  0
 28 29  1  0
 29 30  2  0
 30 31  1  0
 28 32  1  0
  8  4  1  0
 24 20  2  0
 30 25  1  0
 12  6  1  0
  3 33  1  0
  9 34  1  0
 11 35  1  0
 12 36  1  0
 18 37  1  0
 18 38  1  0
 19 39  1  0
 19 40  1  0
 26 41  1  0
 27 42  1  0
 29 43  1  0
M  END
>  <Ligand ID>  (1) 
LIG0002796

>  <Ligand>  (1) 
CHEMBL499328

>  <SMILES>  (1) 
O=C(Nc1nc2c(s1)cc(cc2)OC(F)(F)F)CCc1onc(n1)c1ccc(cc1Cl)F

>  <CID>  (1) 
25033941.0

>  <ChEMBL ID>  (1) 
nan

>  <InChiKey>  (1) 
SUFGFZIEEOBOMA-UHFFFAOYSA-N

>  <InChi>  (1) 
InChI=1S/C19H11ClF4N4O3S/c20-12-7-9(21)1-3-11(12)17-27-16(31-28-17)6-5-15(29)26-18-25-13-4-2-10(8-14(13)32-18)30-19(22,23)24/h1-4,7-8H,5-6H2,(H,25,26,29)

>  <IUPAC Name>  (1) 
3-[3-(2-chloro-4-fluorophenyl)-1,2,4-oxadiazol-5-yl]-N-[6-(trifluoromethoxy)-1,3-benzothiazol-2-yl]propanamide

$$$$
