
     RDKit          3D

 96100  0  0  0  0  0  0  0  0999 V2000
   -4.7162   -6.2790    1.4913 N   0  0  0  0  0  0  0  0  0  0  0  0
   -3.9451   -5.1771    0.9376 C   0  0  0  0  0  0  0  0  0  0  0  0
   -2.7680   -5.2781    0.7830 N   0  0  0  0  0  0  0  0  0  0  0  0
   -1.4421   -5.2843    0.5671 C   0  0  0  0  0  0  0  0  0  0  0  0
   -0.8976   -4.2444   -0.4362 C   0  0  0  0  0  0  0  0  0  0  0  0
   -1.2297   -2.8984    0.1008 C   0  0  0  0  0  0  0  0  0  0  0  0
   -0.7385   -1.7751   -0.8189 C   0  0  1  0  0  0  0  0  0  0  0  0
   -1.1588   -0.5137   -0.1160 C   0  0  0  0  0  0  0  0  0  0  0  0
   -0.3241    0.2870    0.3771 O   0  0  0  0  0  0  0  0  0  0  0  0
   -2.5703   -0.2942   -0.0503 N   0  0  0  0  0  0  0  0  0  0  0  0
   -3.1068    0.9173    0.6229 C   0  0  2  0  0  0  0  0  0  0  0  0
   -3.8860    0.5195    1.7938 C   0  0  0  0  0  0  0  0  0  0  0  0
   -4.0935   -0.7285    1.9611 O   0  0  0  0  0  0  0  0  0  0  0  0
   -4.4333    1.3786    2.7690 N   0  0  0  0  0  0  0  0  0  0  0  0
   -3.8036    1.7046   -0.4210 C   0  0  0  0  0  0  0  0  0  0  0  0
   -4.4438    2.9415    0.0003 C   0  0  0  0  0  0  0  0  0  0  0  0
   -3.8181    4.1910   -0.0711 C   0  0  0  0  0  0  0  0  0  0  0  0
   -4.6497    5.1363    0.4206 N   0  0  0  0  0  0  0  0  0  0  0  0
   -5.8059    4.5660    0.8164 C   0  0  0  0  0  0  0  0  0  0  0  0
   -5.6748    3.2142    0.5554 C   0  0  0  0  0  0  0  0  0  0  0  0
   -6.7456    2.4094    0.8624 C   0  0  0  0  0  0  0  0  0  0  0  0
   -7.9123    2.8779    1.4055 C   0  0  0  0  0  0  0  0  0  0  0  0
   -8.0482    4.2378    1.6713 C   0  0  0  0  0  0  0  0  0  0  0  0
   -6.9859    5.0681    1.3709 C   0  0  0  0  0  0  0  0  0  0  0  0
    0.7050   -1.9155   -0.8496 N   0  0  0  0  0  0  0  0  0  0  0  0
    1.3297   -2.2178   -2.0888 C   0  0  0  0  0  0  0  0  0  0  0  0
    0.5274   -2.3571   -3.0758 O   0  0  0  0  0  0  0  0  0  0  0  0
    2.7861   -2.3765   -2.2751 C   0  0  2  0  0  0  0  0  0  0  0  0
    3.5817   -1.9074   -1.1524 N   0  0  0  0  0  0  0  0  0  0  0  0
    3.4083   -0.6589   -0.5199 C   0  0  0  0  0  0  0  0  0  0  0  0
    2.5179    0.1885   -0.8950 O   0  0  0  0  0  0  0  0  0  0  0  0
    4.2157   -0.2034    0.6164 C   0  0  0  0  0  0  0  0  0  0  0  0
    5.2271   -0.9490    1.1747 C   0  0  0  0  0  0  0  0  0  0  0  0
    5.9785   -0.4864    2.2546 C   0  0  0  0  0  0  0  0  0  0  0  0
    6.9909   -1.2489    2.8025 C   0  0  0  0  0  0  0  0  0  0  0  0
    7.6936   -0.7295    3.8689 C   0  0  0  0  0  0  0  0  0  0  0  0
    7.4396    0.5099    4.4169 C   0  0  0  0  0  0  0  0  0  0  0  0
    6.4266    1.2726    3.8683 C   0  0  0  0  0  0  0  0  0  0  0  0
    5.7213    0.7559    2.8011 C   0  0  0  0  0  0  0  0  0  0  0  0
    4.7112    1.5197    2.2561 C   0  0  0  0  0  0  0  0  0  0  0  0
    3.9695    1.0344    1.1716 C   0  0  0  0  0  0  0  0  0  0  0  0
    2.9528    1.9066    0.6903 N   0  0  0  0  0  0  0  0  0  0  0  0
    3.3281    2.8297   -0.3345 C   0  0  0  0  0  0  0  0  0  0  0  0
    4.5239    2.8399   -0.7686 O   0  0  0  0  0  0  0  0  0  0  0  0
    2.3917    3.7883   -0.9280 C   0  0  0  0  0  0  0  0  0  0  0  0
    3.2513   -1.9092   -3.6111 C   0  0  0  0  0  0  0  0  0  0  0  0
    3.0571   -0.5096   -3.9647 C   0  0  0  0  0  0  0  0  0  0  0  0
    4.0832    0.3843   -3.6239 C   0  0  0  0  0  0  0  0  0  0  0  0
    4.0131    1.7258   -3.9229 C   0  0  0  0  0  0  0  0  0  0  0  0
    2.9199    2.2541   -4.5771 C   0  0  0  0  0  0  0  0  0  0  0  0
    1.8964    1.3978   -4.9244 C   0  0  0  0  0  0  0  0  0  0  0  0
    1.9824    0.0372   -4.6140 C   0  0  0  0  0  0  0  0  0  0  0  0
   -4.7596   -4.0245    0.6231 N   0  0  0  0  0  0  0  0  0  0  0  0
   -5.6744   -6.4939    1.1321 H   0  0  0  0  0  0  0  0  0  0  0  0
   -4.2642   -6.8469    2.2684 H   0  0  0  0  0  0  0  0  0  0  0  0
   -0.8865   -5.0361    1.5381 H   0  0  0  0  0  0  0  0  0  0  0  0
   -1.0032   -6.2861    0.2910 H   0  0  0  0  0  0  0  0  0  0  0  0
   -1.4022   -4.4747   -1.3978 H   0  0  0  0  0  0  0  0  0  0  0  0
    0.1774   -4.4487   -0.5281 H   0  0  0  0  0  0  0  0  0  0  0  0
   -2.3067   -2.8123    0.2633 H   0  0  0  0  0  0  0  0  0  0  0  0
   -0.7315   -2.8113    1.0975 H   0  0  0  0  0  0  0  0  0  0  0  0
   -1.2062   -1.8866   -1.8108 H   0  0  0  0  0  0  0  0  0  0  0  0
   -3.2728   -0.9426   -0.4537 H   0  0  0  0  0  0  0  0  0  0  0  0
   -2.2242    1.5114    1.0080 H   0  0  0  0  0  0  0  0  0  0  0  0
   -3.9945    2.3063    3.0434 H   0  0  0  0  0  0  0  0  0  0  0  0
   -5.3206    1.1217    3.2721 H   0  0  0  0  0  0  0  0  0  0  0  0
   -4.5922    1.0243   -0.8613 H   0  0  0  0  0  0  0  0  0  0  0  0
   -3.0342    1.9138   -1.2233 H   0  0  0  0  0  0  0  0  0  0  0  0
   -2.8297    4.4237   -0.4488 H   0  0  0  0  0  0  0  0  0  0  0  0
   -4.4553    6.1621    0.4962 H   0  0  0  0  0  0  0  0  0  0  0  0
   -6.6322    1.3366    0.6496 H   0  0  0  0  0  0  0  0  0  0  0  0
   -8.7222    2.1811    1.6245 H   0  0  0  0  0  0  0  0  0  0  0  0
   -8.9825    4.6119    2.1064 H   0  0  0  0  0  0  0  0  0  0  0  0
   -7.0891    6.1411    1.5791 H   0  0  0  0  0  0  0  0  0  0  0  0
    1.2076   -1.8150    0.0373 H   0  0  0  0  0  0  0  0  0  0  0  0
    2.9950   -3.5243   -2.3117 H   0  0  0  0  0  0  0  0  0  0  0  0
    4.3545   -2.5193   -0.7593 H   0  0  0  0  0  0  0  0  0  0  0  0
    5.4748   -1.9247    0.7922 H   0  0  0  0  0  0  0  0  0  0  0  0
    7.1734   -2.2110    2.3611 H   0  0  0  0  0  0  0  0  0  0  0  0
    8.4980   -1.3520    4.2925 H   0  0  0  0  0  0  0  0  0  0  0  0
    8.0134    0.8850    5.2558 H   0  0  0  0  0  0  0  0  0  0  0  0
    6.2042    2.2665    4.2891 H   0  0  0  0  0  0  0  0  0  0  0  0
    4.5110    2.4931    2.6863 H   0  0  0  0  0  0  0  0  0  0  0  0
    1.9724    1.9030    1.0420 H   0  0  0  0  0  0  0  0  0  0  0  0
    1.3322    3.5629   -0.7438 H   0  0  0  0  0  0  0  0  0  0  0  0
    2.6661    4.8080   -0.5355 H   0  0  0  0  0  0  0  0  0  0  0  0
    2.6139    3.8379   -2.0322 H   0  0  0  0  0  0  0  0  0  0  0  0
    2.6558   -2.5331   -4.3610 H   0  0  0  0  0  0  0  0  0  0  0  0
    4.3149   -2.2316   -3.7982 H   0  0  0  0  0  0  0  0  0  0  0  0
    4.9612    0.0144   -3.1096 H   0  0  0  0  0  0  0  0  0  0  0  0
    4.8570    2.3539   -3.6207 H   0  0  0  0  0  0  0  0  0  0  0  0
    2.9145    3.3148   -4.7880 H   0  0  0  0  0  0  0  0  0  0  0  0
    1.0355    1.7830   -5.4337 H   0  0  0  0  0  0  0  0  0  0  0  0
    1.1585   -0.5627   -4.9260 H   0  0  0  0  0  0  0  0  0  0  0  0
   -5.5588   -3.7341    1.2255 H   0  0  0  0  0  0  0  0  0  0  0  0
   -4.5801   -3.4374   -0.2198 H   0  0  0  0  0  0  0  0  0  0  0  0
  1  2  1  0
  2  3  2  3
  3  4  1  0
  4  5  1  0
  5  6  1  0
  6  7  1  0
  7  8  1  0
  8  9  2  0
  8 10  1  0
 10 11  1  0
 11 12  1  0
 12 13  2  0
 12 14  1  0
 11 15  1  0
 15 16  1  0
 16 17  2  0
 17 18  1  0
 18 19  1  0
 19 20  2  0
 20 21  1  0
 21 22  2  0
 22 23  1  0
 23 24  2  0
  7 25  1  0
 25 26  1  0
 26 27  2  0
 26 28  1  0
 28 29  1  0
 29 30  1  0
 30 31  2  0
 30 32  1  0
 32 33  2  0
 33 34  1  0
 34 35  2  0
 35 36  1  0
 36 37  2  0
 37 38  1  0
 38 39  2  0
 39 40  1  0
 40 41  2  0
 41 42  1  0
 42 43  1  0
 43 44  2  0
 43 45  1  0
 28 46  1  0
 46 47  1  0
 47 48  2  0
 48 49  1  0
 49 50  2  0
 50 51  1  0
 51 52  2  0
  2 53  1  0
 20 16  1  0
 41 32  1  0
 52 47  1  0
 24 19  1  0
 39 34  1  0
  1 54  1  0
  1 55  1  0
  4 56  1  0
  4 57  1  0
  5 58  1  0
  5 59  1  0
  6 60  1  0
  6 61  1  0
  7 62  1  6
 10 63  1  0
 11 64  1  1
 14 65  1  0
 14 66  1  0
 15 67  1  0
 15 68  1  0
 17 69  1  0
 18 70  1  0
 21 71  1  0
 22 72  1  0
 23 73  1  0
 24 74  1  0
 25 75  1  0
 28 76  1  6
 29 77  1  0
 33 78  1  0
 35 79  1  0
 36 80  1  0
 37 81  1  0
 38 82  1  0
 40 83  1  0
 42 84  1  0
 45 85  1  0
 45 86  1  0
 45 87  1  0
 46 88  1  0
 46 89  1  0
 48 90  1  0
 49 91  1  0
 50 92  1  0
 51 93  1  0
 52 94  1  0
 53 95  1  0
 53 96  1  0
M  END
>  <Ligand ID>  (1) 
LIG0001462

>  <Ligand>  (1) 
CHEMBL405174

>  <SMILES>  (1) 
NC(=NCCC[C@@H](C(=O)N[C@H](C(=O)N)Cc1c[nH]c2c1cccc2)NC(=O)[C@H](NC(=O)c1cc2ccccc2cc1NC(=O)C)Cc1ccccc1)N

>  <CID>  (1) 
10101361.0

>  <ChEMBL ID>  (1) 
nan

>  <InChiKey>  (1) 
HQOYMPPRYNULSG-FZCBKRAZSA-N

>  <InChi>  (1) 
InChI=1S/C39H43N9O5/c1-23(49)45-32-20-26-13-6-5-12-25(26)19-29(32)36(51)48-34(18-24-10-3-2-4-11-24)38(53)46-31(16-9-17-43-39(41)42)37(52)47-33(35(40)50)21-27-22-44-30-15-8-7-14-28(27)30/h2-8,10-15,19-20,22,31,33-34,44H,9,16-18,21H2,1H3,(H2,40,50)(H,45,49)(H,46,53)(H,47,52)(H,48,51)(H4,41,42,43)/t31-,33-,34+/m0/s1

>  <IUPAC Name>  (1) 
3-acetamido-N-[(2R)-1-[[(2S)-1-[[(2S)-1-amino-3-(1H-indol-3-yl)-1-oxopropan-2-yl]amino]-5-(diaminomethylideneamino)-1-oxopentan-2-yl]amino]-1-oxo-3-phenylpropan-2-yl]naphthalene-2-carboxamide

$$$$
