
     RDKit          3D

 20 21  0  0  0  0  0  0  0  0999 V2000
   -3.4319   -0.5163    0.4693 C   0  0  0  0  0  0  0  0  0  0  0  0
   -2.9694    0.0038   -0.7239 C   0  0  0  0  0  0  0  0  0  0  0  0
   -1.5978    0.1756   -0.8248 C   0  0  0  0  0  0  0  0  0  0  0  0
   -0.7253   -0.1465    0.1932 C   0  0  0  0  0  0  0  0  0  0  0  0
   -1.2326   -0.6498    1.3334 N   0  0  0  0  0  0  0  0  0  0  0  0
   -2.5732   -0.8441    1.4984 C   0  0  0  0  0  0  0  0  0  0  0  0
    0.7194    0.0287    0.1013 C   0  0  0  0  0  0  0  0  0  0  0  0
    1.3544    0.5336   -1.0126 C   0  0  0  0  0  0  0  0  0  0  0  0
    2.7319    0.6943   -1.0846 C   0  0  0  0  0  0  0  0  0  0  0  0
    3.5224    0.3365    0.0035 C   0  0  0  0  0  0  0  0  0  0  0  0
    2.8598   -0.1636    1.0987 C   0  0  0  0  0  0  0  0  0  0  0  0
    1.5382   -0.3071    1.1406 N   0  0  0  0  0  0  0  0  0  0  0  0
   -4.5068   -0.6634    0.5797 H   0  0  0  0  0  0  0  0  0  0  0  0
   -3.6115    0.2717   -1.5505 H   0  0  0  0  0  0  0  0  0  0  0  0
   -1.2171    0.5811   -1.7506 H   0  0  0  0  0  0  0  0  0  0  0  0
   -2.9062   -1.2488    2.4334 H   0  0  0  0  0  0  0  0  0  0  0  0
    0.7899    0.8241   -1.8774 H   0  0  0  0  0  0  0  0  0  0  0  0
    3.1911    1.0941   -1.9771 H   0  0  0  0  0  0  0  0  0  0  0  0
    4.5988    0.4464   -0.0134 H   0  0  0  0  0  0  0  0  0  0  0  0
    3.4657   -0.4501    1.9633 H   0  0  0  0  0  0  0  0  0  0  0  0
  1  2  2  0
  2  3  1  0
  3  4  2  0
  4  5  1  0
  5  6  2  0
  4  7  1  0
  7  8  2  0
  8  9  1  0
  9 10  2  0
 10 11  1  0
 11 12  2  0
  6  1  1  0
 12  7  1  0
  1 13  1  0
  2 14  1  0
  3 15  1  0
  6 16  1  0
  8 17  1  0
  9 18  1  0
 10 19  1  0
 11 20  1  0
M  END
>  <Ligand ID>  (1) 
LIG0002758

>  <Ligand>  (1) 
2,2'-BIPYRIDINE

>  <SMILES>  (1) 
c1ccc(nc1)c1ccccn1

>  <CID>  (1) 
1474.0

>  <ChEMBL ID>  (1) 
nan

>  <InChiKey>  (1) 
ROFVEXUMMXZLPA-UHFFFAOYSA-N

>  <InChi>  (1) 
InChI=1S/C10H8N2/c1-3-7-11-9(5-1)10-6-2-4-8-12-10/h1-8H

>  <IUPAC Name>  (1) 
2-pyridin-2-ylpyridine

$$$$
