
     RDKit          3D

 26 27  0  0  0  0  0  0  0  0999 V2000
    1.8476    2.0757    0.1876 C   0  0  0  0  0  0  0  0  0  0  0  0
    1.2119    0.7555    0.0169 C   0  0  0  0  0  0  0  0  0  0  0  0
    1.6829   -0.2985    0.6917 C   0  0  0  0  0  0  0  0  0  0  0  0
    0.8661   -1.5306    0.7488 C   0  0  0  0  0  0  0  0  0  0  0  0
   -0.2670   -1.4341   -0.2318 C   0  0  2  0  0  0  0  0  0  0  0  0
    0.2808   -0.8409   -1.5248 C   0  0  0  0  0  0  0  0  0  0  0  0
    0.0540    0.5154   -0.8779 C   0  0  1  0  0  0  0  0  0  0  0  0
   -1.0225   -0.1518   -0.0498 C   0  0  0  0  0  0  0  0  0  0  0  0
   -2.3778   -0.2255   -0.7175 C   0  0  0  0  0  0  0  0  0  0  0  0
   -1.1307    0.4051    1.3182 C   0  0  0  0  0  0  0  0  0  0  0  0
    1.4164    2.7738   -0.5622 H   0  0  0  0  0  0  0  0  0  0  0  0
    2.9304    1.9964   -0.0453 H   0  0  0  0  0  0  0  0  0  0  0  0
    1.6877    2.4888    1.2036 H   0  0  0  0  0  0  0  0  0  0  0  0
    2.6504   -0.2359    1.1841 H   0  0  0  0  0  0  0  0  0  0  0  0
    1.4899   -2.3936    0.4530 H   0  0  0  0  0  0  0  0  0  0  0  0
    0.4632   -1.7257    1.7628 H   0  0  0  0  0  0  0  0  0  0  0  0
   -0.8463   -2.3409   -0.3995 H   0  0  0  0  0  0  0  0  0  0  0  0
   -0.3321   -1.0449   -2.4169 H   0  0  0  0  0  0  0  0  0  0  0  0
    1.3525   -1.1217   -1.6603 H   0  0  0  0  0  0  0  0  0  0  0  0
   -0.2580    1.3238   -1.5312 H   0  0  0  0  0  0  0  0  0  0  0  0
   -2.5809    0.7275   -1.2405 H   0  0  0  0  0  0  0  0  0  0  0  0
   -2.4361   -1.0749   -1.4130 H   0  0  0  0  0  0  0  0  0  0  0  0
   -3.1192   -0.4378    0.0944 H   0  0  0  0  0  0  0  0  0  0  0  0
   -1.1008    1.5204    1.2272 H   0  0  0  0  0  0  0  0  0  0  0  0
   -0.3459    0.1322    2.0244 H   0  0  0  0  0  0  0  0  0  0  0  0
   -2.1163    0.1425    1.7582 H   0  0  0  0  0  0  0  0  0  0  0  0
  1  2  1  0
  2  3  2  0
  3  4  1  0
  4  5  1  0
  5  6  1  0
  6  7  1  0
  7  8  1  0
  8  9  1  0
  8 10  1  0
  7  2  1  0
  8  5  1  0
  1 11  1  0
  1 12  1  0
  1 13  1  0
  3 14  1  0
  4 15  1  0
  4 16  1  0
  5 17  1  6
  6 18  1  0
  6 19  1  0
  7 20  1  6
  9 21  1  0
  9 22  1  0
  9 23  1  0
 10 24  1  0
 10 25  1  0
 10 26  1  0
M  END
>  <Ligand ID>  (1) 
LIG0002058

>  <Ligand>  (1) 
alpha-Pinene, (+)-

>  <SMILES>  (1) 
CC1=CC[C@@H]2C[C@H]1C2(C)C

>  <CID>  (1) 
82227.0

>  <ChEMBL ID>  (1) 
nan

>  <InChiKey>  (1) 
GRWFGVWFFZKLTI-RKDXNWHRSA-N

>  <InChi>  (1) 
InChI=1S/C10H16/c1-7-4-5-8-6-9(7)10(8,2)3/h4,8-9H,5-6H2,1-3H3/t8-,9-/m1/s1

>  <IUPAC Name>  (1) 
(1R,5R)-2,6,6-trimethylbicyclo[3.1.1]hept-2-ene

$$$$
