
     RDKit          3D

 40 38  0  0  0  0  0  0  0  0999 V2000
   -2.4497   -2.6838   -0.6733 O   0  0  0  0  0  0  0  0  0  0  0  0
   -1.9792   -1.7018   -1.5348 C   0  0  0  0  0  0  0  0  0  0  0  0
   -2.5605   -1.5820   -2.6554 O   0  0  0  0  0  0  0  0  0  0  0  0
   -0.8240   -0.8087   -1.1621 C   0  0  1  0  0  0  0  0  0  0  0  0
   -1.3652    0.5824   -1.0352 C   0  0  0  0  0  0  0  0  0  0  0  0
   -1.8343    0.6282    0.3955 C   0  0  2  0  0  0  0  0  0  0  0  0
   -0.8060   -0.2352    1.0920 C   0  0  0  0  0  0  0  0  0  0  0  0
   -0.3948   -1.1845    0.1363 N   0  0  0  0  0  0  0  0  0  0  0  0
    0.9160   -1.7123    0.2665 C   0  0  0  0  0  0  0  0  0  0  0  0
    2.0236   -0.7573    0.2025 C   0  0  0  0  0  0  0  0  0  0  0  0
    2.6761   -0.3823   -0.9548 C   0  0  0  0  0  0  0  0  0  0  0  0
    3.7271    0.5411   -0.9131 C   0  0  0  0  0  0  0  0  0  0  0  0
    4.1388    1.1015    0.2888 C   0  0  0  0  0  0  0  0  0  0  0  0
    3.4584    0.6999    1.4324 C   0  0  0  0  0  0  0  0  0  0  0  0
    2.4514   -0.1902    1.3607 N   0  0  0  0  0  0  0  0  0  0  0  0
   -3.1514    0.0543    0.4735 N   0  0  0  0  0  0  0  0  0  0  0  0
   -1.8883    2.0148    0.9108 C   0  0  0  0  0  0  0  0  0  0  0  0
   -2.9733    2.5360    1.3361 O   0  0  0  0  0  0  0  0  0  0  0  0
   -0.7584    2.8038    0.9515 O   0  0  0  0  0  0  0  0  0  0  0  0
    0.6912    0.0000    0.0000 Cl  0  0  0  0  0  0  0  0  0  0  0  0
    0.6862    0.0000    0.0000 Cl  0  0  0  0  0  0  0  0  0  0  0  0
    0.6895    0.0000    0.0000 Cl  0  0  0  0  0  0  0  0  0  0  0  0
   -3.3575   -3.1084   -0.7234 H   0  0  0  0  0  0  0  0  0  0  0  0
   -0.0410   -0.8668   -1.9427 H   0  0  0  0  0  0  0  0  0  0  0  0
   -0.6456    1.3821   -1.2765 H   0  0  0  0  0  0  0  0  0  0  0  0
   -2.2235    0.7380   -1.7355 H   0  0  0  0  0  0  0  0  0  0  0  0
   -1.3725   -0.7662    1.8984 H   0  0  0  0  0  0  0  0  0  0  0  0
   -0.0184    0.3377    1.6081 H   0  0  0  0  0  0  0  0  0  0  0  0
    1.0606   -2.5251   -0.4735 H   0  0  0  0  0  0  0  0  0  0  0  0
    0.9359   -2.2503    1.2600 H   0  0  0  0  0  0  0  0  0  0  0  0
    2.3577   -0.8172   -1.8926 H   0  0  0  0  0  0  0  0  0  0  0  0
    4.2221    0.8188   -1.8310 H   0  0  0  0  0  0  0  0  0  0  0  0
    4.9388    1.8118    0.3650 H   0  0  0  0  0  0  0  0  0  0  0  0
    3.7331    1.1048    2.4192 H   0  0  0  0  0  0  0  0  0  0  0  0
   -3.6128    0.4242    1.3332 H   0  0  0  0  0  0  0  0  0  0  0  0
   -3.7006    0.3023   -0.3599 H   0  0  0  0  0  0  0  0  0  0  0  0
   -0.6826    3.6901    1.4334 H   0  0  0  0  0  0  0  0  0  0  0  0
   -0.6912    0.0000    0.0000 H   0  0  0  0  0  0  0  0  0  0  0  0
   -0.6862    0.0000    0.0000 H   0  0  0  0  0  0  0  0  0  0  0  0
   -0.6895    0.0000    0.0000 H   0  0  0  0  0  0  0  0  0  0  0  0
  1  2  1  0
  2  3  2  0
  2  4  1  0
  4  5  1  0
  5  6  1  0
  6  7  1  0
  7  8  1  0
  8  9  1  0
  9 10  1  0
 10 11  2  0
 11 12  1  0
 12 13  2  0
 13 14  1  0
 14 15  2  0
  6 16  1  6
  6 17  1  0
 17 18  2  0
 17 19  1  0
  8  4  1  0
 15 10  1  0
  1 23  1  0
  4 24  1  6
  5 25  1  0
  5 26  1  0
  7 27  1  0
  7 28  1  0
  9 29  1  0
  9 30  1  0
 11 31  1  0
 12 32  1  0
 13 33  1  0
 14 34  1  0
 16 35  1  0
 16 36  1  0
 19 37  1  0
 20 38  1  0
 21 39  1  0
 22 40  1  0
M  END
>  <Ligand ID>  (1) 
LIG0005692

>  <Ligand>  (1) 
CHEMBL543811

>  <SMILES>  (1) 
OC(=O)[C@H]1C[C@](CN1Cc1ccccn1)(N)C(=O)O.Cl.Cl.Cl

>  <CID>  (1) 
45260500.0

>  <ChEMBL ID>  (1) 
nan

>  <InChiKey>  (1) 
LNPGOXGRHDNCMT-BIPUAWRDSA-N

>  <InChi>  (1) 
InChI=1S/C12H15N3O4.3ClH/c13-12(11(18)19)5-9(10(16)17)15(7-12)6-8-3-1-2-4-14-8;;;/h1-4,9H,5-7,13H2,(H,16,17)(H,18,19);3*1H/t9-,12-;;;/m1.../s1

>  <IUPAC Name>  (1) 
(2R,4R)-4-amino-1-(pyridin-2-ylmethyl)pyrrolidine-2,4-dicarboxylic acid;trihydrochloride

$$$$
