
     RDKit          3D

133135  0  0  0  0  0  0  0  0999 V2000
   10.7750   -3.8325   -3.6462 C   0  0  0  0  0  0  0  0  0  0  0  0
   10.8651   -3.6821   -2.2080 N   0  0  0  0  0  0  0  0  0  0  0  0
    9.7291   -2.9446   -1.6665 C   0  0  0  0  0  0  0  0  0  0  0  0
    9.8540   -1.5364   -2.1652 C   0  0  0  0  0  0  0  0  0  0  0  0
    8.7824   -0.6151   -1.7193 C   0  0  0  0  0  0  0  0  0  0  0  0
    8.6557   -0.4025   -0.2281 C   0  0  1  0  0  0  0  0  0  0  0  0
    9.8399    0.1679    0.4085 C   0  0  0  0  0  0  0  0  0  0  0  0
    9.7419    1.3651    0.8492 O   0  0  0  0  0  0  0  0  0  0  0  0
   11.0862   -0.4556    0.5945 N   0  0  0  0  0  0  0  0  0  0  0  0
   12.1414    0.2890    1.2474 C   0  0  0  0  0  0  0  0  0  0  0  0
   11.7660    0.6908    2.6076 C   0  0  0  0  0  0  0  0  0  0  0  0
   12.5997    1.3552    3.2940 O   0  0  0  0  0  0  0  0  0  0  0  0
   10.5109    0.3785    3.2093 N   0  0  0  0  0  0  0  0  0  0  0  0
    7.5923    0.6136   -0.1042 N   0  0  0  0  0  0  0  0  0  0  0  0
    6.3921    0.3631    0.6252 C   0  0  0  0  0  0  0  0  0  0  0  0
    6.2880   -0.7613    1.1665 O   0  0  0  0  0  0  0  0  0  0  0  0
    5.3986    1.4404    0.6678 C   0  0  2  0  0  0  0  0  0  0  0  0
    5.9269    2.6134    1.4186 C   0  0  0  0  0  0  0  0  0  0  0  0
    4.6437    3.3178    1.8337 C   0  0  0  0  0  0  0  0  0  0  0  0
    3.8345    2.1001    2.2615 C   0  0  0  0  0  0  0  0  0  0  0  0
    4.1245    1.0889    1.2676 N   0  0  0  0  0  0  0  0  0  0  0  0
    3.3617   -0.0203    0.8243 C   0  0  0  0  0  0  0  0  0  0  0  0
    3.9707   -0.8702    0.0538 O   0  0  0  0  0  0  0  0  0  0  0  0
    1.9773   -0.3433    1.1156 C   0  0  2  0  0  0  0  0  0  0  0  0
    1.3975   -1.3351    0.0559 C   0  0  0  0  0  0  0  0  0  0  0  0
    1.0867   -0.4221   -1.4380 S   0  0  0  0  0  0  0  0  0  0  0  0
    0.2606   -1.6219   -2.9709 S   0  0  0  0  0  0  0  0  0  0  0  0
   -1.5699   -1.7104   -2.8575 C   0  0  0  0  0  0  0  0  0  0  0  0
   -1.8508   -2.5789   -1.6174 C   0  0  2  0  0  0  0  0  0  0  0  0
   -1.1142   -3.8240   -1.9439 N   0  0  0  0  0  0  0  0  0  0  0  0
   -3.2750   -3.0021   -1.6127 C   0  0  0  0  0  0  0  0  0  0  0  0
   -3.6011   -3.9488   -2.3240 O   0  0  0  0  0  0  0  0  0  0  0  0
   -4.3019   -2.3943   -0.8315 N   0  0  0  0  0  0  0  0  0  0  0  0
   -5.6787   -2.8977   -1.0690 C   0  0  1  0  0  0  0  0  0  0  0  0
   -6.0566   -3.8634    0.0063 C   0  0  0  0  0  0  0  0  0  0  0  0
   -7.3968   -4.4024   -0.2145 C   0  0  0  0  0  0  0  0  0  0  0  0
   -8.5580   -3.9686    0.3689 C   0  0  0  0  0  0  0  0  0  0  0  0
   -9.8024   -4.5268    0.0912 C   0  0  0  0  0  0  0  0  0  0  0  0
   -9.8801   -5.5719   -0.8156 C   0  0  0  0  0  0  0  0  0  0  0  0
   -8.7207   -6.0402   -1.4284 C   0  0  0  0  0  0  0  0  0  0  0  0
   -7.5121   -5.4590   -1.1256 C   0  0  0  0  0  0  0  0  0  0  0  0
   -6.5669   -1.7433   -1.2169 C   0  0  0  0  0  0  0  0  0  0  0  0
   -7.5836   -1.8110   -1.9009 O   0  0  0  0  0  0  0  0  0  0  0  0
   -6.3514   -0.4513   -0.5782 N   0  0  0  0  0  0  0  0  0  0  0  0
   -7.1155    0.7130   -0.9407 C   0  0  2  0  0  0  0  0  0  0  0  0
   -6.2120    1.8797   -0.9440 C   0  0  0  0  0  0  0  0  0  0  0  0
   -6.5376    2.8624   -1.6412 O   0  0  0  0  0  0  0  0  0  0  0  0
   -4.9945    2.0214   -0.2191 N   0  0  0  0  0  0  0  0  0  0  0  0
   -4.2445    3.2637   -0.4723 C   0  0  2  0  0  0  0  0  0  0  0  0
   -2.8852    3.1297    0.0118 C   0  0  0  0  0  0  0  0  0  0  0  0
   -2.0084    3.9268   -0.3817 O   0  0  0  0  0  0  0  0  0  0  0  0
   -2.3666    2.1514    0.9477 N   0  0  0  0  0  0  0  0  0  0  0  0
   -0.9489    2.1952    1.2426 C   0  0  2  0  0  0  0  0  0  0  0  0
   -0.2718    0.8748    1.2837 C   0  0  0  0  0  0  0  0  0  0  0  0
   -0.8085   -0.2147    1.4894 O   0  0  0  0  0  0  0  0  0  0  0  0
    1.1261    0.8572    1.0488 N   0  0  0  0  0  0  0  0  0  0  0  0
   -0.7630    2.7926    2.6509 C   0  0  0  0  0  0  0  0  0  0  0  0
   -1.2948    4.1422    2.7424 C   0  0  0  0  0  0  0  0  0  0  0  0
   -2.5251    4.3590    2.6034 O   0  0  0  0  0  0  0  0  0  0  0  0
   -0.4083    5.2381    2.9923 N   0  0  0  0  0  0  0  0  0  0  0  0
   -4.9606    4.3842    0.3191 C   0  0  0  0  0  0  0  0  0  0  0  0
   -4.3479    5.6902    0.1156 C   0  0  0  0  0  0  0  0  0  0  0  0
   -3.3791    5.9819   -0.6166 O   0  0  0  0  0  0  0  0  0  0  0  0
   -4.9207    6.8041    0.8425 N   0  0  0  0  0  0  0  0  0  0  0  0
   -8.3197    0.9993   -0.0622 C   0  0  2  0  0  0  0  0  0  0  0  0
   -9.2912   -0.1465   -0.1311 C   0  0  0  0  0  0  0  0  0  0  0  0
  -10.5209    0.1186    0.7340 C   0  0  0  0  0  0  0  0  0  0  0  0
   -9.0019    2.2839   -0.4712 C   0  0  0  0  0  0  0  0  0  0  0  0
   11.1527   -2.9126   -4.1107 H   0  0  0  0  0  0  0  0  0  0  0  0
   11.4674   -4.6590   -3.9275 H   0  0  0  0  0  0  0  0  0  0  0  0
    9.7391   -4.0255   -4.0041 H   0  0  0  0  0  0  0  0  0  0  0  0
   11.7792   -3.2201   -2.0048 H   0  0  0  0  0  0  0  0  0  0  0  0
    8.8087   -3.4196   -2.0785 H   0  0  0  0  0  0  0  0  0  0  0  0
    9.7590   -3.0582   -0.5697 H   0  0  0  0  0  0  0  0  0  0  0  0
    9.7426   -1.6138   -3.2930 H   0  0  0  0  0  0  0  0  0  0  0  0
   10.8907   -1.1795   -2.0334 H   0  0  0  0  0  0  0  0  0  0  0  0
    8.9753    0.3898   -2.1700 H   0  0  0  0  0  0  0  0  0  0  0  0
    7.8048   -0.9285   -2.1377 H   0  0  0  0  0  0  0  0  0  0  0  0
    8.3202   -1.2849    0.3183 H   0  0  0  0  0  0  0  0  0  0  0  0
   11.2290   -1.4136    0.2766 H   0  0  0  0  0  0  0  0  0  0  0  0
   12.4124    1.2097    0.6510 H   0  0  0  0  0  0  0  0  0  0  0  0
   13.0409   -0.3573    1.2911 H   0  0  0  0  0  0  0  0  0  0  0  0
   10.1424   -0.6187    3.2098 H   0  0  0  0  0  0  0  0  0  0  0  0
    9.9456    1.1495    3.6575 H   0  0  0  0  0  0  0  0  0  0  0  0
    7.7267    1.5446   -0.5682 H   0  0  0  0  0  0  0  0  0  0  0  0
    5.1273    1.7863   -0.3737 H   0  0  0  0  0  0  0  0  0  0  0  0
    6.5470    3.2547    0.7916 H   0  0  0  0  0  0  0  0  0  0  0  0
    6.5147    2.2763    2.3054 H   0  0  0  0  0  0  0  0  0  0  0  0
    4.8434    3.9915    2.6698 H   0  0  0  0  0  0  0  0  0  0  0  0
    4.2032    3.8047    0.9641 H   0  0  0  0  0  0  0  0  0  0  0  0
    4.3007    1.6845    3.2185 H   0  0  0  0  0  0  0  0  0  0  0  0
    2.7962    2.3090    2.4693 H   0  0  0  0  0  0  0  0  0  0  0  0
    1.8483   -0.9176    2.0364 H   0  0  0  0  0  0  0  0  0  0  0  0
    0.5252   -1.8378    0.4621 H   0  0  0  0  0  0  0  0  0  0  0  0
    2.1822   -2.1322   -0.0630 H   0  0  0  0  0  0  0  0  0  0  0  0
   -1.9330   -0.6769   -2.7053 H   0  0  0  0  0  0  0  0  0  0  0  0
   -1.9205   -2.1654   -3.7829 H   0  0  0  0  0  0  0  0  0  0  0  0
   -1.4677   -2.0972   -0.7604 H   0  0  0  0  0  0  0  0  0  0  0  0
   -1.6688   -4.2751   -2.7036 H   0  0  0  0  0  0  0  0  0  0  0  0
   -1.1273   -4.4360   -1.1108 H   0  0  0  0  0  0  0  0  0  0  0  0
   -4.0286   -1.6879   -0.1822 H   0  0  0  0  0  0  0  0  0  0  0  0
   -5.6532   -3.4588   -2.0376 H   0  0  0  0  0  0  0  0  0  0  0  0
   -5.3008   -4.7006   -0.0205 H   0  0  0  0  0  0  0  0  0  0  0  0
   -5.9295   -3.4061    1.0135 H   0  0  0  0  0  0  0  0  0  0  0  0
   -8.5059   -3.1855    1.0797 H   0  0  0  0  0  0  0  0  0  0  0  0
  -10.6858   -4.1280    0.5992 H   0  0  0  0  0  0  0  0  0  0  0  0
  -10.8546   -6.0181   -1.0382 H   0  0  0  0  0  0  0  0  0  0  0  0
   -8.8098   -6.8684   -2.1441 H   0  0  0  0  0  0  0  0  0  0  0  0
   -6.6347   -5.8592   -1.6291 H   0  0  0  0  0  0  0  0  0  0  0  0
   -5.6226   -0.4925    0.1367 H   0  0  0  0  0  0  0  0  0  0  0  0
   -7.5265    0.6040   -1.9980 H   0  0  0  0  0  0  0  0  0  0  0  0
   -4.7470    1.2811    0.4037 H   0  0  0  0  0  0  0  0  0  0  0  0
   -4.3564    3.5686   -1.5195 H   0  0  0  0  0  0  0  0  0  0  0  0
   -3.0489    1.5184    1.3244 H   0  0  0  0  0  0  0  0  0  0  0  0
   -0.3760    2.8550    0.5636 H   0  0  0  0  0  0  0  0  0  0  0  0
    1.5468    1.7429    0.7786 H   0  0  0  0  0  0  0  0  0  0  0  0
   -1.1929    2.0722    3.3990 H   0  0  0  0  0  0  0  0  0  0  0  0
    0.3364    2.7984    2.8398 H   0  0  0  0  0  0  0  0  0  0  0  0
   -0.6877    5.9830    3.6917 H   0  0  0  0  0  0  0  0  0  0  0  0
    0.5173    5.3032    2.4902 H   0  0  0  0  0  0  0  0  0  0  0  0
   -6.0584    4.3756    0.0509 H   0  0  0  0  0  0  0  0  0  0  0  0
   -4.9598    4.1412    1.3994 H   0  0  0  0  0  0  0  0  0  0  0  0
   -5.4729    7.4555    0.2365 H   0  0  0  0  0  0  0  0  0  0  0  0
   -4.7815    6.9212    1.8666 H   0  0  0  0  0  0  0  0  0  0  0  0
   -7.9631    1.1337    0.9810 H   0  0  0  0  0  0  0  0  0  0  0  0
   -9.6933   -0.3006   -1.1542 H   0  0  0  0  0  0  0  0  0  0  0  0
   -8.8290   -1.0447    0.3243 H   0  0  0  0  0  0  0  0  0  0  0  0
  -10.9902   -0.8587    0.9748 H   0  0  0  0  0  0  0  0  0  0  0  0
  -11.2720    0.7166    0.1969 H   0  0  0  0  0  0  0  0  0  0  0  0
  -10.2422    0.5518    1.7156 H   0  0  0  0  0  0  0  0  0  0  0  0
   -9.9738    2.3626    0.0733 H   0  0  0  0  0  0  0  0  0  0  0  0
   -8.4335    3.1953   -0.2205 H   0  0  0  0  0  0  0  0  0  0  0  0
   -9.2591    2.2029   -1.5490 H   0  0  0  0  0  0  0  0  0  0  0  0
  1  2  1  0
  2  3  1  0
  3  4  1  0
  4  5  1  0
  5  6  1  0
  6  7  1  0
  7  8  2  0
  7  9  1  0
  9 10  1  0
 10 11  1  0
 11 12  2  0
 11 13  1  0
  6 14  1  0
 14 15  1  0
 15 16  2  0
 15 17  1  0
 17 18  1  0
 18 19  1  0
 19 20  1  0
 20 21  1  0
 21 22  1  0
 22 23  2  0
 22 24  1  0
 24 25  1  0
 25 26  1  0
 26 27  1  0
 27 28  1  0
 28 29  1  0
 29 30  1  0
 29 31  1  0
 31 32  2  0
 31 33  1  0
 33 34  1  0
 34 35  1  0
 35 36  1  0
 36 37  2  0
 37 38  1  0
 38 39  2  0
 39 40  1  0
 40 41  2  0
 34 42  1  0
 42 43  2  0
 42 44  1  0
 44 45  1  0
 45 46  1  0
 46 47  2  0
 46 48  1  0
 48 49  1  0
 49 50  1  0
 50 51  2  0
 50 52  1  0
 52 53  1  0
 53 54  1  0
 54 55  2  0
 54 56  1  0
 53 57  1  0
 57 58  1  0
 58 59  2  0
 58 60  1  0
 49 61  1  0
 61 62  1  0
 62 63  2  0
 62 64  1  0
 45 65  1  0
 65 66  1  0
 66 67  1  0
 65 68  1  0
 21 17  1  0
 56 24  1  0
 41 36  1  0
  1 69  1  0
  1 70  1  0
  1 71  1  0
  2 72  1  0
  3 73  1  0
  3 74  1  0
  4 75  1  0
  4 76  1  0
  5 77  1  0
  5 78  1  0
  6 79  1  1
  9 80  1  0
 10 81  1  0
 10 82  1  0
 13 83  1  0
 13 84  1  0
 14 85  1  0
 17 86  1  6
 18 87  1  0
 18 88  1  0
 19 89  1  0
 19 90  1  0
 20 91  1  0
 20 92  1  0
 24 93  1  1
 25 94  1  0
 25 95  1  0
 28 96  1  0
 28 97  1  0
 29 98  1  1
 30 99  1  0
 30100  1  0
 33101  1  0
 34102  1  6
 35103  1  0
 35104  1  0
 37105  1  0
 38106  1  0
 39107  1  0
 40108  1  0
 41109  1  0
 44110  1  0
 45111  1  6
 48112  1  0
 49113  1  6
 52114  1  0
 53115  1  6
 56116  1  0
 57117  1  0
 57118  1  0
 60119  1  0
 60120  1  0
 61121  1  0
 61122  1  0
 64123  1  0
 64124  1  0
 65125  1  1
 66126  1  0
 66127  1  0
 67128  1  0
 67129  1  0
 67130  1  0
 68131  1  0
 68132  1  0
 68133  1  0
M  END
>  <Ligand ID>  (1) 
LIG0001600

>  <Ligand>  (1) 
CHEMBL1817753

>  <SMILES>  (1) 
CNCCC[C@@H](C(=O)NCC(=O)N)NC(=O)[C@@H]1CCCN1C(=O)[C@@H]1CSSC[C@H](N)C(=O)N[C@@H](Cc2ccccc2)C(=O)N[C@H](C(=O)N[C@H](C(=O)N[C@H](C(=O)N1)CC(=O)N)CC(=O)N)[C@H](CC)C

>  <CID>  (1) 
53362604.0

>  <ChEMBL ID>  (1) 
nan

>  <InChiKey>  (1) 
XSBKPDFLYYAOGS-OVCMMVBBSA-N

>  <InChi>  (1) 
InChI=1S/C42H65N13O11S2/c1-4-22(2)34-41(65)52-28(18-32(45)57)37(61)51-27(17-31(44)56)38(62)53-29(21-68-67-20-24(43)35(59)50-26(39(63)54-34)16-23-10-6-5-7-11-23)42(66)55-15-9-13-30(55)40(64)49-25(12-8-14-47-3)36(60)48-19-33(46)58/h5-7,10-11,22,24-30,34,47H,4,8-9,12-21,43H2,1-3H3,(H2,44,56)(H2,45,57)(H2,46,58)(H,48,60)(H,49,64)(H,50,59)(H,51,61)(H,52,65)(H,53,62)(H,54,63)/t22-,24-,25-,26-,27-,28-,29-,30-,34-/m0/s1

>  <IUPAC Name>  (1) 
(2S)-1-[(4R,7S,10S,13S,16S,19R)-19-amino-7,10-bis(2-amino-2-oxoethyl)-16-benzyl-13-[(2S)-butan-2-yl]-6,9,12,15,18-pentaoxo-1,2-dithia-5,8,11,14,17-pentazacycloicosane-4-carbonyl]-N-[(2S)-1-[(2-amino-2-oxoethyl)amino]-5-(methylamino)-1-oxopentan-2-yl]pyrrolidine-2-carboxamide

$$$$
