
     RDKit          3D

 14 13  0  0  0  0  0  0  0  0999 V2000
   -1.6350    0.5753    0.5560 C   0  0  0  0  0  0  0  0  0  0  0  0
   -1.1150   -0.6981   -0.1097 C   0  0  0  0  0  0  0  0  0  0  0  0
    0.3047   -0.3916   -0.6040 C   0  0  0  0  0  0  0  0  0  0  0  0
    1.1389   -0.0280    0.4765 O   0  0  0  0  0  0  0  0  0  0  0  0
    2.4912    0.2975    0.2570 C   0  0  0  0  0  0  0  0  0  0  0  0
    2.9532    0.2620   -0.9140 O   0  0  0  0  0  0  0  0  0  0  0  0
   -1.7024    0.4006    1.6508 H   0  0  0  0  0  0  0  0  0  0  0  0
   -0.9612    1.4480    0.3281 H   0  0  0  0  0  0  0  0  0  0  0  0
   -2.6457    0.8237    0.2023 H   0  0  0  0  0  0  0  0  0  0  0  0
   -1.6769   -0.9247   -1.0424 H   0  0  0  0  0  0  0  0  0  0  0  0
   -1.1410   -1.5529    0.5680 H   0  0  0  0  0  0  0  0  0  0  0  0
    0.7128   -1.2432   -1.1787 H   0  0  0  0  0  0  0  0  0  0  0  0
    0.1588    0.4541   -1.3085 H   0  0  0  0  0  0  0  0  0  0  0  0
    3.1176    0.5772    1.1185 H   0  0  0  0  0  0  0  0  0  0  0  0
  1  2  1  0
  2  3  1  0
  3  4  1  0
  4  5  1  0
  5  6  2  0
  1  7  1  0
  1  8  1  0
  1  9  1  0
  2 10  1  0
  2 11  1  0
  3 12  1  0
  3 13  1  0
  5 14  1  0
M  END
>  <Ligand ID>  (1) 
LIG0001059

>  <Ligand>  (1) 
Propyl formate

>  <SMILES>  (1) 
CCCOC=O

>  <CID>  (1) 
8073.0

>  <ChEMBL ID>  (1) 
nan

>  <InChiKey>  (1) 
KFNNIILCVOLYIR-UHFFFAOYSA-N

>  <InChi>  (1) 
InChI=1S/C4H8O2/c1-2-3-6-4-5/h4H,2-3H2,1H3

>  <IUPAC Name>  (1) 
propyl formate

$$$$
