
     RDKit          3D

 58 62  0  0  0  0  0  0  0  0999 V2000
    1.7945   -1.1672   -0.1702 O   0  0  0  0  0  0  0  0  0  0  0  0
    1.0400   -0.2046    0.2263 C   0  0  0  0  0  0  0  0  0  0  0  0
   -0.2796   -0.3150   -0.2794 N   0  0  0  0  0  0  0  0  0  0  0  0
   -0.4728   -1.5038   -1.1657 C   0  0  0  0  0  0  0  0  0  0  0  0
   -1.5618   -2.2686   -0.4678 C   0  0  2  0  0  0  0  0  0  0  0  0
   -1.9087   -3.5835   -1.0798 C   0  0  0  0  0  0  0  0  0  0  0  0
   -3.3019   -3.8135   -0.5091 C   0  0  0  0  0  0  0  0  0  0  0  0
   -3.7948   -2.4024   -0.2333 C   0  0  0  0  0  0  0  0  0  0  0  0
   -2.7827   -1.4993   -0.6842 N   0  0  0  0  0  0  0  0  0  0  0  0
   -2.6802   -0.3510    0.1921 C   0  0  0  0  0  0  0  0  0  0  0  0
   -1.4357    0.4815   -0.0995 C   0  0  1  0  0  0  0  0  0  0  0  0
   -1.4032    1.5776    0.9147 C   0  0  0  0  0  0  0  0  0  0  0  0
   -2.7658    2.2601    0.8922 C   0  0  0  0  0  0  0  0  0  0  0  0
   -2.9995    3.2766   -0.0202 C   0  0  0  0  0  0  0  0  0  0  0  0
   -4.2366    3.9120   -0.0376 C   0  0  0  0  0  0  0  0  0  0  0  0
   -5.2023    3.5099    0.8602 C   0  0  0  0  0  0  0  0  0  0  0  0
   -5.0080    2.5027    1.7839 C   0  0  0  0  0  0  0  0  0  0  0  0
   -3.7586    1.8923    1.7697 C   0  0  0  0  0  0  0  0  0  0  0  0
    1.5965    0.8085    1.0860 C   0  0  0  0  0  0  0  0  0  0  0  0
    3.0292    0.7274    1.5017 C   0  0  0  0  0  0  0  0  0  0  0  0
    4.0150    0.7999    0.4262 C   0  0  0  0  0  0  0  0  0  0  0  0
    4.3819    2.0520   -0.1243 C   0  0  0  0  0  0  0  0  0  0  0  0
    5.2275    1.8698   -1.1375 N   0  0  0  0  0  0  0  0  0  0  0  0
    5.4514    0.5597   -1.2980 C   0  0  0  0  0  0  0  0  0  0  0  0
    4.6982   -0.1002   -0.3251 C   0  0  0  0  0  0  0  0  0  0  0  0
    4.8064   -1.4573   -0.2867 C   0  0  0  0  0  0  0  0  0  0  0  0
    5.6048   -2.1651   -1.1520 C   0  0  0  0  0  0  0  0  0  0  0  0
    6.3239   -1.4663   -2.0945 C   0  0  0  0  0  0  0  0  0  0  0  0
    6.2620   -0.1076   -2.1846 C   0  0  0  0  0  0  0  0  0  0  0  0
   -0.8807   -1.0883   -2.1211 H   0  0  0  0  0  0  0  0  0  0  0  0
    0.4534   -2.0695   -1.2785 H   0  0  0  0  0  0  0  0  0  0  0  0
   -1.3578   -2.3966    0.6156 H   0  0  0  0  0  0  0  0  0  0  0  0
   -1.9844   -3.4836   -2.1802 H   0  0  0  0  0  0  0  0  0  0  0  0
   -1.2025   -4.3739   -0.7717 H   0  0  0  0  0  0  0  0  0  0  0  0
   -3.1781   -4.2893    0.5050 H   0  0  0  0  0  0  0  0  0  0  0  0
   -3.9416   -4.3855   -1.1757 H   0  0  0  0  0  0  0  0  0  0  0  0
   -4.0637   -2.2299    0.8245 H   0  0  0  0  0  0  0  0  0  0  0  0
   -4.7178   -2.2877   -0.8584 H   0  0  0  0  0  0  0  0  0  0  0  0
   -2.7500   -0.6957    1.2211 H   0  0  0  0  0  0  0  0  0  0  0  0
   -3.5600    0.2792   -0.0362 H   0  0  0  0  0  0  0  0  0  0  0  0
   -1.6478    0.9854   -1.1003 H   0  0  0  0  0  0  0  0  0  0  0  0
   -1.2722    1.1870    1.9524 H   0  0  0  0  0  0  0  0  0  0  0  0
   -0.6769    2.3726    0.6898 H   0  0  0  0  0  0  0  0  0  0  0  0
   -2.2135    3.5824   -0.7300 H   0  0  0  0  0  0  0  0  0  0  0  0
   -4.4200    4.7133   -0.7582 H   0  0  0  0  0  0  0  0  0  0  0  0
   -6.1635    4.0298    0.8186 H   0  0  0  0  0  0  0  0  0  0  0  0
   -5.7927    2.2157    2.4750 H   0  0  0  0  0  0  0  0  0  0  0  0
   -3.6154    1.1093    2.4993 H   0  0  0  0  0  0  0  0  0  0  0  0
    1.0221    0.9155    2.0652 H   0  0  0  0  0  0  0  0  0  0  0  0
    1.5238    1.8392    0.5792 H   0  0  0  0  0  0  0  0  0  0  0  0
    3.1982   -0.2059    2.1449 H   0  0  0  0  0  0  0  0  0  0  0  0
    3.2697    1.5472    2.2561 H   0  0  0  0  0  0  0  0  0  0  0  0
    4.0486    3.0270    0.1999 H   0  0  0  0  0  0  0  0  0  0  0  0
    5.6545    2.6429   -1.7237 H   0  0  0  0  0  0  0  0  0  0  0  0
    4.2300   -1.9693    0.4929 H   0  0  0  0  0  0  0  0  0  0  0  0
    5.6333   -3.2290   -1.0545 H   0  0  0  0  0  0  0  0  0  0  0  0
    6.9533   -2.0306   -2.7779 H   0  0  0  0  0  0  0  0  0  0  0  0
    6.8129    0.4637   -2.9116 H   0  0  0  0  0  0  0  0  0  0  0  0
  1  2  2  0
  2  3  1  0
  3  4  1  0
  4  5  1  0
  5  6  1  0
  6  7  1  0
  7  8  1  0
  8  9  1  0
  9 10  1  0
 10 11  1  0
 11 12  1  0
 12 13  1  0
 13 14  2  0
 14 15  1  0
 15 16  2  0
 16 17  1  0
 17 18  2  0
  2 19  1  0
 19 20  1  0
 20 21  1  0
 21 22  2  0
 22 23  1  0
 23 24  1  0
 24 25  2  0
 25 26  1  0
 26 27  2  0
 27 28  1  0
 28 29  2  0
 11  3  1  0
 18 13  1  0
 25 21  1  0
  9  5  1  0
 29 24  1  0
  4 30  1  0
  4 31  1  0
  5 32  1  1
  6 33  1  0
  6 34  1  0
  7 35  1  0
  7 36  1  0
  8 37  1  0
  8 38  1  0
 10 39  1  0
 10 40  1  0
 11 41  1  6
 12 42  1  0
 12 43  1  0
 14 44  1  0
 15 45  1  0
 16 46  1  0
 17 47  1  0
 18 48  1  0
 19 49  1  0
 19 50  1  0
 20 51  1  0
 20 52  1  0
 22 53  1  0
 23 54  1  0
 26 55  1  0
 27 56  1  0
 28 57  1  0
 29 58  1  0
M  END
>  <Ligand ID>  (1) 
LIG0001305

>  <Ligand>  (1) 
CHEMBL435923

>  <SMILES>  (1) 
O=C(N1C[C@@H]2CCCN2C[C@H]1Cc1ccccc1)CCc1c[nH]c2c1cccc2

>  <CID>  (1) 
44418421.0

>  <ChEMBL ID>  (1) 
nan

>  <InChiKey>  (1) 
KPKOJXZVOJTTBP-FCHUYYIVSA-N

>  <InChi>  (1) 
InChI=1S/C25H29N3O/c29-25(13-12-20-16-26-24-11-5-4-10-23(20)24)28-18-21-9-6-14-27(21)17-22(28)15-19-7-2-1-3-8-19/h1-5,7-8,10-11,16,21-22,26H,6,9,12-15,17-18H2/t21-,22+/m0/s1

>  <IUPAC Name>  (1) 
1-[(3R,8aS)-3-benzyl-3,4,6,7,8,8a-hexahydro-1H-pyrrolo[1,2-a]pyrazin-2-yl]-3-(1H-indol-3-yl)propan-1-one

$$$$
