
     RDKit          3D

 73 76  0  0  0  0  0  0  0  0999 V2000
    6.0682    0.1313    4.9756 O   0  0  0  0  0  0  0  0  0  0  0  0
    5.2541    0.0396    3.8455 C   0  0  0  0  0  0  0  0  0  0  0  0
    5.1689   -1.1549    3.1429 C   0  0  0  0  0  0  0  0  0  0  0  0
    4.3664   -1.2670    2.0187 C   0  0  0  0  0  0  0  0  0  0  0  0
    3.6517   -0.1359    1.6245 C   0  0  0  0  0  0  0  0  0  0  0  0
    3.7476    1.0570    2.3403 C   0  0  0  0  0  0  0  0  0  0  0  0
    4.5558    1.1559    3.4661 C   0  0  0  0  0  0  0  0  0  0  0  0
    2.7690   -0.1352    0.4525 C   0  0  0  0  0  0  0  0  0  0  0  0
    3.4368    0.2512   -0.8393 C   0  0  1  0  0  0  0  0  0  0  0  0
    2.4645    0.2295   -1.9902 C   0  0  0  0  0  0  0  0  0  0  0  0
    2.1978    1.3656   -2.4783 O   0  0  0  0  0  0  0  0  0  0  0  0
    1.8987   -0.9789   -2.4787 N   0  0  0  0  0  0  0  0  0  0  0  0
    2.0953   -2.3473   -2.0493 C   0  0  0  0  0  0  0  0  0  0  0  0
    1.9846   -3.1590   -3.3093 C   0  0  0  0  0  0  0  0  0  0  0  0
    1.0562   -2.3709   -4.1723 C   0  0  0  0  0  0  0  0  0  0  0  0
    0.9531   -0.9901   -3.5898 C   0  0  1  0  0  0  0  0  0  0  0  0
   -0.4163   -0.6223   -3.1607 C   0  0  0  0  0  0  0  0  0  0  0  0
   -1.2902   -0.4751   -4.0761 O   0  0  0  0  0  0  0  0  0  0  0  0
   -0.7993   -0.4287   -1.8072 N   0  0  0  0  0  0  0  0  0  0  0  0
   -2.1912   -0.0511   -1.4529 C   0  0  2  0  0  0  0  0  0  0  0  0
   -2.1798    1.1186   -0.5668 C   0  0  0  0  0  0  0  0  0  0  0  0
   -1.0001    1.4879   -0.1827 O   0  0  0  0  0  0  0  0  0  0  0  0
   -3.2945    1.8503   -0.1123 N   0  0  0  0  0  0  0  0  0  0  0  0
   -4.7066    1.7562   -0.3496 C   0  0  0  0  0  0  0  0  0  0  0  0
   -5.3429    2.1642    0.9686 C   0  0  0  0  0  0  0  0  0  0  0  0
   -4.1978    2.6135    1.8541 C   0  0  0  0  0  0  0  0  0  0  0  0
   -3.1550    2.9799    0.8239 C   0  0  2  0  0  0  0  0  0  0  0  0
   -3.4952    4.2718    0.2367 C   0  0  0  0  0  0  0  0  0  0  0  0
   -3.4027    5.2985    0.9953 O   0  0  0  0  0  0  0  0  0  0  0  0
   -3.9169    4.5098   -1.0874 N   0  0  0  0  0  0  0  0  0  0  0  0
   -5.9332    1.0756    1.5932 F   0  0  0  0  0  0  0  0  0  0  0  0
   -6.2177    3.1884    0.7257 F   0  0  0  0  0  0  0  0  0  0  0  0
   -2.7975   -1.2960   -0.8460 C   0  0  0  0  0  0  0  0  0  0  0  0
   -2.1195   -1.7902    0.3536 C   0  0  0  0  0  0  0  0  0  0  0  0
   -2.5272   -1.2759    1.5921 C   0  0  0  0  0  0  0  0  0  0  0  0
   -1.9148   -1.7255    2.7526 C   0  0  0  0  0  0  0  0  0  0  0  0
   -0.9064   -2.6769    2.6833 C   0  0  0  0  0  0  0  0  0  0  0  0
   -0.4863   -3.2014    1.4590 C   0  0  0  0  0  0  0  0  0  0  0  0
   -1.1011   -2.7497    0.2997 C   0  0  0  0  0  0  0  0  0  0  0  0
    1.3564   -4.3475   -2.9864 F   0  0  0  0  0  0  0  0  0  0  0  0
    3.1927   -3.4032   -3.9228 F   0  0  0  0  0  0  0  0  0  0  0  0
    3.8187    1.6709   -0.7281 N   0  0  0  0  0  0  0  0  0  0  0  0
    6.7526    0.8480    5.1387 H   0  0  0  0  0  0  0  0  0  0  0  0
    5.7387   -2.0240    3.4746 H   0  0  0  0  0  0  0  0  0  0  0  0
    4.2846   -2.1964    1.4500 H   0  0  0  0  0  0  0  0  0  0  0  0
    3.2124    1.9495    2.0656 H   0  0  0  0  0  0  0  0  0  0  0  0
    4.6329    2.0801    4.0249 H   0  0  0  0  0  0  0  0  0  0  0  0
    2.2968   -1.1318    0.3373 H   0  0  0  0  0  0  0  0  0  0  0  0
    1.9022    0.5634    0.6344 H   0  0  0  0  0  0  0  0  0  0  0  0
    4.3034   -0.3810   -1.0345 H   0  0  0  0  0  0  0  0  0  0  0  0
    1.4212   -2.6764   -1.2584 H   0  0  0  0  0  0  0  0  0  0  0  0
    3.1640   -2.3778   -1.6848 H   0  0  0  0  0  0  0  0  0  0  0  0
    0.0460   -2.8271   -4.3004 H   0  0  0  0  0  0  0  0  0  0  0  0
    1.5019   -2.3472   -5.2083 H   0  0  0  0  0  0  0  0  0  0  0  0
    1.3363   -0.2722   -4.3449 H   0  0  0  0  0  0  0  0  0  0  0  0
   -0.0785   -0.5575   -1.0511 H   0  0  0  0  0  0  0  0  0  0  0  0
   -2.6962    0.1398   -2.4080 H   0  0  0  0  0  0  0  0  0  0  0  0
   -5.0390    2.4347   -1.1700 H   0  0  0  0  0  0  0  0  0  0  0  0
   -5.1088    0.7776   -0.5901 H   0  0  0  0  0  0  0  0  0  0  0  0
   -3.8458    1.7933    2.5141 H   0  0  0  0  0  0  0  0  0  0  0  0
   -4.5398    3.5096    2.3987 H   0  0  0  0  0  0  0  0  0  0  0  0
   -2.1320    3.0110    1.2714 H   0  0  0  0  0  0  0  0  0  0  0  0
   -3.4140    4.0848   -1.8901 H   0  0  0  0  0  0  0  0  0  0  0  0
   -4.7445    5.1181   -1.2869 H   0  0  0  0  0  0  0  0  0  0  0  0
   -2.6744   -2.1049   -1.6254 H   0  0  0  0  0  0  0  0  0  0  0  0
   -3.8483   -1.1362   -0.6555 H   0  0  0  0  0  0  0  0  0  0  0  0
   -3.3271   -0.5221    1.6442 H   0  0  0  0  0  0  0  0  0  0  0  0
   -2.2227   -1.3359    3.7104 H   0  0  0  0  0  0  0  0  0  0  0  0
   -0.4325   -3.0199    3.5970 H   0  0  0  0  0  0  0  0  0  0  0  0
    0.3072   -3.9508    1.4162 H   0  0  0  0  0  0  0  0  0  0  0  0
   -0.8412   -3.1013   -0.6646 H   0  0  0  0  0  0  0  0  0  0  0  0
    2.9207    2.1681   -0.5365 H   0  0  0  0  0  0  0  0  0  0  0  0
    4.4797    1.8517    0.0351 H   0  0  0  0  0  0  0  0  0  0  0  0
  1  2  1  0
  2  3  2  0
  3  4  1  0
  4  5  2  0
  5  6  1  0
  6  7  2  0
  5  8  1  0
  8  9  1  0
  9 10  1  0
 10 11  2  0
 10 12  1  0
 12 13  1  0
 13 14  1  0
 14 15  1  0
 15 16  1  0
 16 17  1  0
 17 18  2  0
 17 19  1  0
 19 20  1  0
 20 21  1  0
 21 22  2  0
 21 23  1  0
 23 24  1  0
 24 25  1  0
 25 26  1  0
 26 27  1  0
 27 28  1  0
 28 29  2  0
 28 30  1  0
 25 31  1  0
 25 32  1  0
 20 33  1  0
 33 34  1  0
 34 35  2  0
 35 36  1  0
 36 37  2  0
 37 38  1  0
 38 39  2  0
 14 40  1  0
 14 41  1  0
  9 42  1  0
  7  2  1  0
 16 12  1  0
 27 23  1  0
 39 34  1  0
  1 43  1  0
  3 44  1  0
  4 45  1  0
  6 46  1  0
  7 47  1  0
  8 48  1  0
  8 49  1  0
  9 50  1  6
 13 51  1  0
 13 52  1  0
 15 53  1  0
 15 54  1  0
 16 55  1  6
 19 56  1  0
 20 57  1  6
 24 58  1  0
 24 59  1  0
 26 60  1  0
 26 61  1  0
 27 62  1  1
 30 63  1  0
 30 64  1  0
 33 65  1  0
 33 66  1  0
 35 67  1  0
 36 68  1  0
 37 69  1  0
 38 70  1  0
 39 71  1  0
 42 72  1  0
 42 73  1  0
M  END
>  <Ligand ID>  (1) 
LIG0005694

>  <Ligand>  (1) 
CHEMBL3765406

>  <SMILES>  (1) 
Oc1ccc(cc1)C[C@@H](C(=O)N1CC(C[C@H]1C(=O)N[C@H](C(=O)N1CC(C[C@@H]1C(=O)N)(F)F)Cc1ccccc1)(F)F)N

>  <CID>  (1) 
127041368.0

>  <ChEMBL ID>  (1) 
nan

>  <InChiKey>  (1) 
OXGIXGFYQQZLSO-KJJMTIBFSA-N

>  <InChi>  (1) 
InChI=1S/C28H31F4N5O5/c29-27(30)12-21(23(34)39)36(14-27)26(42)20(11-16-4-2-1-3-5-16)35-24(40)22-13-28(31,32)15-37(22)25(41)19(33)10-17-6-8-18(38)9-7-17/h1-9,19-22,38H,10-15,33H2,(H2,34,39)(H,35,40)/t19-,20-,21+,22-/m0/s1

>  <IUPAC Name>  (1) 
(2R)-1-[(2S)-2-[[(2S)-1-[(2S)-2-amino-3-(4-hydroxyphenyl)propanoyl]-4,4-difluoropyrrolidine-2-carbonyl]amino]-3-phenylpropanoyl]-4,4-difluoropyrrolidine-2-carboxamide

$$$$
