
     RDKit          3D

141142  0  0  0  0  0  0  0  0999 V2000
    4.1230   -3.0823   -4.7448 C   0  0  0  0  0  0  0  0  0  0  0  0
    4.2852   -2.3044   -3.4525 C   0  0  0  0  0  0  0  0  0  0  0  0
    3.6149   -0.9508   -3.4914 C   0  0  0  0  0  0  0  0  0  0  0  0
    3.8947   -0.3434   -2.0853 C   0  0  0  0  0  0  0  0  0  0  0  0
    3.2759    0.9871   -2.0168 C   0  0  0  0  0  0  0  0  0  0  0  0
    3.4003    1.7216   -0.7976 N   0  0  0  0  0  0  0  0  0  0  0  0
    2.5118    1.7924    0.2855 C   0  0  0  0  0  0  0  0  0  0  0  0
    2.9256    2.6236    1.2356 O   0  0  0  0  0  0  0  0  0  0  0  0
    1.2616    1.1769    0.5800 C   0  0  2  0  0  0  0  0  0  0  0  0
    1.0732    0.9943    2.0962 C   0  0  0  0  0  0  0  0  0  0  0  0
    1.3045    2.5550    2.9242 S   0  0  0  0  0  0  0  0  0  0  0  0
    0.2398    4.1034    2.0064 S   0  0  0  0  0  0  0  0  0  0  0  0
   -1.4877    4.1635    2.6261 C   0  0  0  0  0  0  0  0  0  0  0  0
   -2.1362    2.9596    2.0402 C   0  0  0  0  0  0  0  0  0  0  0  0
   -3.5970    2.8272    2.2106 C   0  0  0  0  0  0  0  0  0  0  0  0
   -4.3436    3.4990    2.9087 O   0  0  0  0  0  0  0  0  0  0  0  0
   -4.2026    1.7827    1.4573 N   0  0  0  0  0  0  0  0  0  0  0  0
   -5.5997    1.4373    1.3922 C   0  0  1  0  0  0  0  0  0  0  0  0
   -6.1189    1.5626   -0.0326 C   0  0  0  0  0  0  0  0  0  0  0  0
   -5.9202    2.9648   -0.4567 C   0  0  0  0  0  0  0  0  0  0  0  0
   -4.7009    3.3264   -1.0326 C   0  0  0  0  0  0  0  0  0  0  0  0
   -4.4606    4.6122   -1.4627 C   0  0  0  0  0  0  0  0  0  0  0  0
   -5.3926    5.6185   -1.3582 C   0  0  0  0  0  0  0  0  0  0  0  0
   -6.6144    5.2591   -0.7829 C   0  0  0  0  0  0  0  0  0  0  0  0
   -6.8525    3.9628   -0.3494 C   0  0  0  0  0  0  0  0  0  0  0  0
   -5.1937    6.9140   -1.7738 O   0  0  0  0  0  0  0  0  0  0  0  0
   -5.6855    0.0266    1.8567 C   0  0  0  0  0  0  0  0  0  0  0  0
   -4.7395   -0.4570    2.4848 O   0  0  0  0  0  0  0  0  0  0  0  0
   -6.7916   -0.8340    1.6198 N   0  0  0  0  0  0  0  0  0  0  0  0
   -6.7271   -2.1834    2.1284 C   0  0  2  0  0  0  0  0  0  0  0  0
   -5.8666   -3.0464    1.2445 C   0  0  0  0  0  0  0  0  0  0  0  0
   -5.6893   -4.2501    1.4088 O   0  0  0  0  0  0  0  0  0  0  0  0
   -5.1729   -2.4719    0.1103 N   0  0  0  0  0  0  0  0  0  0  0  0
   -4.2940   -3.2615   -0.7585 C   0  0  2  0  0  0  0  0  0  0  0  0
   -2.8755   -2.9491   -0.5097 C   0  0  0  0  0  0  0  0  0  0  0  0
   -2.2592   -3.4627    0.4329 O   0  0  0  0  0  0  0  0  0  0  0  0
   -2.0784   -2.0358   -1.3016 N   0  0  0  0  0  0  0  0  0  0  0  0
   -0.6842   -1.7925   -1.0276 C   0  0  2  0  0  0  0  0  0  0  0  0
   -0.4193   -0.4100   -0.4815 C   0  0  0  0  0  0  0  0  0  0  0  0
   -1.2531    0.4837   -0.3889 O   0  0  0  0  0  0  0  0  0  0  0  0
    0.8962   -0.0813   -0.0204 N   0  0  0  0  0  0  0  0  0  0  0  0
    0.2346   -2.1218   -2.1473 C   0  0  0  0  0  0  0  0  0  0  0  0
    0.1718   -3.5400   -2.4934 C   0  0  0  0  0  0  0  0  0  0  0  0
   -0.4796   -4.4211   -1.8810 O   0  0  0  0  0  0  0  0  0  0  0  0
    0.9151   -3.9804   -3.6329 N   0  0  0  0  0  0  0  0  0  0  0  0
   -4.7464   -3.3449   -2.1634 C   0  0  0  0  0  0  0  0  0  0  0  0
   -3.7962   -4.1896   -2.9711 C   0  0  0  0  0  0  0  0  0  0  0  0
   -4.2279   -4.3558   -4.3922 C   0  0  0  0  0  0  0  0  0  0  0  0
   -5.2724   -3.8394   -4.8561 O   0  0  0  0  0  0  0  0  0  0  0  0
   -3.3977   -5.1482   -5.2578 N   0  0  0  0  0  0  0  0  0  0  0  0
   -8.0479   -2.8388    2.2964 C   0  0  2  0  0  0  0  0  0  0  0  0
   -8.8930   -2.0375    3.2679 C   0  0  0  0  0  0  0  0  0  0  0  0
  -10.2467   -2.6291    3.4967 C   0  0  0  0  0  0  0  0  0  0  0  0
   -7.8497   -4.2335    2.8432 C   0  0  0  0  0  0  0  0  0  0  0  0
    4.6390    2.5416   -0.6927 C   0  0  0  0  0  0  0  0  0  0  0  0
    5.6410    1.7017   -0.0007 C   0  0  0  0  0  0  0  0  0  0  0  0
    5.4225    0.5296    0.4123 O   0  0  0  0  0  0  0  0  0  0  0  0
    6.9853    2.1915    0.2493 N   0  0  0  0  0  0  0  0  0  0  0  0
    7.9580    1.3642    0.8803 C   0  0  2  0  0  0  0  0  0  0  0  0
    7.9989    1.5855    2.3746 C   0  0  0  0  0  0  0  0  0  0  0  0
    7.2394    2.4767    2.8395 O   0  0  0  0  0  0  0  0  0  0  0  0
    8.8695    0.7953    3.1754 N   0  0  0  0  0  0  0  0  0  0  0  0
    8.9120    0.9907    4.6289 C   0  0  0  0  0  0  0  0  0  0  0  0
    7.5190    0.7069    5.1126 C   0  0  0  0  0  0  0  0  0  0  0  0
    7.2663    0.8012    6.3308 O   0  0  0  0  0  0  0  0  0  0  0  0
    6.4738    0.3313    4.2212 N   0  0  0  0  0  0  0  0  0  0  0  0
    9.2844    1.2551    0.2498 C   0  0  0  0  0  0  0  0  0  0  0  0
   10.1159    2.4527    0.0634 C   0  0  0  0  0  0  0  0  0  0  0  0
   11.4555    2.0720   -0.6049 C   0  0  0  0  0  0  0  0  0  0  0  0
    9.5633    3.5838   -0.7226 C   0  0  0  0  0  0  0  0  0  0  0  0
    4.1438   -4.1577   -4.4862 H   0  0  0  0  0  0  0  0  0  0  0  0
    4.9921   -2.7980   -5.3733 H   0  0  0  0  0  0  0  0  0  0  0  0
    3.1427   -2.7802   -5.1858 H   0  0  0  0  0  0  0  0  0  0  0  0
    3.9051   -2.8447   -2.5725 H   0  0  0  0  0  0  0  0  0  0  0  0
    5.3686   -2.0925   -3.2553 H   0  0  0  0  0  0  0  0  0  0  0  0
    4.0477   -0.2776   -4.2635 H   0  0  0  0  0  0  0  0  0  0  0  0
    2.5215   -1.0416   -3.5570 H   0  0  0  0  0  0  0  0  0  0  0  0
    3.4950   -1.0600   -1.3718 H   0  0  0  0  0  0  0  0  0  0  0  0
    5.0119   -0.3368   -1.9639 H   0  0  0  0  0  0  0  0  0  0  0  0
    3.5341    1.6371   -2.9031 H   0  0  0  0  0  0  0  0  0  0  0  0
    2.1519    0.8253   -2.1450 H   0  0  0  0  0  0  0  0  0  0  0  0
    0.4052    1.9180    0.2690 H   0  0  0  0  0  0  0  0  0  0  0  0
    0.0858    0.5129    2.2565 H   0  0  0  0  0  0  0  0  0  0  0  0
    1.8796    0.2700    2.3803 H   0  0  0  0  0  0  0  0  0  0  0  0
   -1.9328    5.1146    2.3462 H   0  0  0  0  0  0  0  0  0  0  0  0
   -1.4629    4.0453    3.7290 H   0  0  0  0  0  0  0  0  0  0  0  0
   -1.7022    2.0245    2.4878 H   0  0  0  0  0  0  0  0  0  0  0  0
   -1.9113    2.8524    0.9456 H   0  0  0  0  0  0  0  0  0  0  0  0
   -3.5586    1.2089    0.8951 H   0  0  0  0  0  0  0  0  0  0  0  0
   -6.2159    2.0531    2.0488 H   0  0  0  0  0  0  0  0  0  0  0  0
   -5.6045    0.8571   -0.7098 H   0  0  0  0  0  0  0  0  0  0  0  0
   -7.2113    1.3952    0.0083 H   0  0  0  0  0  0  0  0  0  0  0  0
   -3.8926    2.6069   -1.1636 H   0  0  0  0  0  0  0  0  0  0  0  0
   -3.5041    4.9118   -1.9180 H   0  0  0  0  0  0  0  0  0  0  0  0
   -7.3464    6.0501   -0.7051 H   0  0  0  0  0  0  0  0  0  0  0  0
   -7.8092    3.7388    0.0871 H   0  0  0  0  0  0  0  0  0  0  0  0
   -5.9635    7.5128   -2.0341 H   0  0  0  0  0  0  0  0  0  0  0  0
   -7.5615   -0.4162    1.0933 H   0  0  0  0  0  0  0  0  0  0  0  0
   -6.1503   -2.1262    3.0759 H   0  0  0  0  0  0  0  0  0  0  0  0
   -5.3453   -1.4819   -0.0299 H   0  0  0  0  0  0  0  0  0  0  0  0
   -4.4134   -4.3199   -0.3161 H   0  0  0  0  0  0  0  0  0  0  0  0
   -2.5976   -1.5736   -2.0455 H   0  0  0  0  0  0  0  0  0  0  0  0
   -0.4134   -2.5126   -0.1885 H   0  0  0  0  0  0  0  0  0  0  0  0
    1.5888   -0.8146   -0.1249 H   0  0  0  0  0  0  0  0  0  0  0  0
    0.0503   -1.5192   -3.0663 H   0  0  0  0  0  0  0  0  0  0  0  0
    1.2780   -1.9403   -1.7684 H   0  0  0  0  0  0  0  0  0  0  0  0
    0.6080   -3.7999   -4.6151 H   0  0  0  0  0  0  0  0  0  0  0  0
    1.8171   -4.5082   -3.4422 H   0  0  0  0  0  0  0  0  0  0  0  0
   -5.7403   -3.8717   -2.1665 H   0  0  0  0  0  0  0  0  0  0  0  0
   -4.9179   -2.3505   -2.6410 H   0  0  0  0  0  0  0  0  0  0  0  0
   -2.7977   -3.6754   -2.9776 H   0  0  0  0  0  0  0  0  0  0  0  0
   -3.6317   -5.1577   -2.4600 H   0  0  0  0  0  0  0  0  0  0  0  0
   -3.6907   -5.4072   -6.2249 H   0  0  0  0  0  0  0  0  0  0  0  0
   -2.4599   -5.4970   -4.9456 H   0  0  0  0  0  0  0  0  0  0  0  0
   -8.5999   -2.9245    1.3229 H   0  0  0  0  0  0  0  0  0  0  0  0
   -8.3657   -1.9411    4.2333 H   0  0  0  0  0  0  0  0  0  0  0  0
   -8.9965   -0.9825    2.8703 H   0  0  0  0  0  0  0  0  0  0  0  0
  -10.5164   -3.3650    2.7314 H   0  0  0  0  0  0  0  0  0  0  0  0
  -11.0003   -1.8022    3.5488 H   0  0  0  0  0  0  0  0  0  0  0  0
  -10.3058   -3.1146    4.5028 H   0  0  0  0  0  0  0  0  0  0  0  0
   -7.8226   -4.9712    2.0183 H   0  0  0  0  0  0  0  0  0  0  0  0
   -8.6991   -4.4540    3.5471 H   0  0  0  0  0  0  0  0  0  0  0  0
   -6.9238   -4.2452    3.4472 H   0  0  0  0  0  0  0  0  0  0  0  0
    4.9646    2.8767   -1.7022 H   0  0  0  0  0  0  0  0  0  0  0  0
    4.3884    3.4086   -0.0825 H   0  0  0  0  0  0  0  0  0  0  0  0
    7.1303    3.1779   -0.0725 H   0  0  0  0  0  0  0  0  0  0  0  0
    7.5156    0.3057    0.8380 H   0  0  0  0  0  0  0  0  0  0  0  0
    9.4940    0.0673    2.7848 H   0  0  0  0  0  0  0  0  0  0  0  0
    9.0745    2.0672    4.8111 H   0  0  0  0  0  0  0  0  0  0  0  0
    9.6688    0.3352    5.1000 H   0  0  0  0  0  0  0  0  0  0  0  0
    5.4768    0.6200    4.4363 H   0  0  0  0  0  0  0  0  0  0  0  0
    6.6491   -0.2323    3.3407 H   0  0  0  0  0  0  0  0  0  0  0  0
    9.1557    0.7166   -0.7418 H   0  0  0  0  0  0  0  0  0  0  0  0
    9.8665    0.4923    0.8468 H   0  0  0  0  0  0  0  0  0  0  0  0
   10.4259    2.8708    1.0645 H   0  0  0  0  0  0  0  0  0  0  0  0
   12.2464    2.7941   -0.3529 H   0  0  0  0  0  0  0  0  0  0  0  0
   11.3517    2.0836   -1.7081 H   0  0  0  0  0  0  0  0  0  0  0  0
   11.7692    1.0916   -0.1982 H   0  0  0  0  0  0  0  0  0  0  0  0
    8.9265    3.2961   -1.5864 H   0  0  0  0  0  0  0  0  0  0  0  0
   10.4430    4.0985   -1.2349 H   0  0  0  0  0  0  0  0  0  0  0  0
    9.1328    4.4203   -0.1170 H   0  0  0  0  0  0  0  0  0  0  0  0
  1  2  1  0
  2  3  1  0
  3  4  1  0
  4  5  1  0
  5  6  1  0
  6  7  1  0
  7  8  2  0
  7  9  1  0
  9 10  1  0
 10 11  1  0
 11 12  1  0
 12 13  1  0
 13 14  1  0
 14 15  1  0
 15 16  2  0
 15 17  1  0
 17 18  1  0
 18 19  1  0
 19 20  1  0
 20 21  2  0
 21 22  1  0
 22 23  2  0
 23 24  1  0
 24 25  2  0
 23 26  1  0
 18 27  1  0
 27 28  2  0
 27 29  1  0
 29 30  1  0
 30 31  1  0
 31 32  2  0
 31 33  1  0
 33 34  1  0
 34 35  1  0
 35 36  2  0
 35 37  1  0
 37 38  1  0
 38 39  1  0
 39 40  2  0
 39 41  1  0
 38 42  1  0
 42 43  1  0
 43 44  2  0
 43 45  1  0
 34 46  1  0
 46 47  1  0
 47 48  1  0
 48 49  2  0
 48 50  1  0
 30 51  1  0
 51 52  1  0
 52 53  1  0
 51 54  1  0
  6 55  1  0
 55 56  1  0
 56 57  2  0
 56 58  1  0
 58 59  1  0
 59 60  1  0
 60 61  2  0
 60 62  1  0
 62 63  1  0
 63 64  1  0
 64 65  2  0
 64 66  1  0
 59 67  1  0
 67 68  1  0
 68 69  1  0
 68 70  1  0
 41  9  1  0
 25 20  1  0
  1 71  1  0
  1 72  1  0
  1 73  1  0
  2 74  1  0
  2 75  1  0
  3 76  1  0
  3 77  1  0
  4 78  1  0
  4 79  1  0
  5 80  1  0
  5 81  1  0
  9 82  1  6
 10 83  1  0
 10 84  1  0
 13 85  1  0
 13 86  1  0
 14 87  1  0
 14 88  1  0
 17 89  1  0
 18 90  1  1
 19 91  1  0
 19 92  1  0
 21 93  1  0
 22 94  1  0
 24 95  1  0
 25 96  1  0
 26 97  1  0
 29 98  1  0
 30 99  1  1
 33100  1  0
 34101  1  1
 37102  1  0
 38103  1  1
 41104  1  0
 42105  1  0
 42106  1  0
 45107  1  0
 45108  1  0
 46109  1  0
 46110  1  0
 47111  1  0
 47112  1  0
 50113  1  0
 50114  1  0
 51115  1  6
 52116  1  0
 52117  1  0
 53118  1  0
 53119  1  0
 53120  1  0
 54121  1  0
 54122  1  0
 54123  1  0
 55124  1  0
 55125  1  0
 58126  1  0
 59127  1  1
 62128  1  0
 63129  1  0
 63130  1  0
 66131  1  0
 66132  1  0
 67133  1  0
 67134  1  0
 68135  1  0
 69136  1  0
 69137  1  0
 69138  1  0
 70139  1  0
 70140  1  0
 70141  1  0
M  END
>  <Ligand ID>  (1) 
LIG0001898

>  <Ligand>  (1) 
CHEMBL3353938

>  <SMILES>  (1) 
CCCCCN(C(=O)[C@@H]1CSSCCC(=O)N[C@@H](Cc2ccc(cc2)O)C(=O)N[C@H](C(=O)N[C@H](C(=O)N[C@H](C(=O)N1)CC(=O)N)CCC(=O)N)[C@H](CC)C)CC(=O)N[C@H](C(=O)NCC(=O)N)CC(C)C

>  <CID>  (1) 
118719827.0

>  <ChEMBL ID>  (1) 
nan

>  <InChiKey>  (1) 
UAXALIGVPPAHAT-GESINAPRSA-N

>  <InChi>  (1) 
InChI=1S/C45H71N11O12S2/c1-6-8-9-17-56(23-38(62)51-30(19-25(3)4)40(63)49-22-36(48)60)45(68)33-24-70-69-18-16-37(61)50-31(20-27-10-12-28(57)13-11-27)43(66)55-39(26(5)7-2)44(67)52-29(14-15-34(46)58)41(64)53-32(21-35(47)59)42(65)54-33/h10-13,25-26,29-33,39,57H,6-9,14-24H2,1-5H3,(H2,46,58)(H2,47,59)(H2,48,60)(H,49,63)(H,50,61)(H,51,62)(H,52,67)(H,53,64)(H,54,65)(H,55,66)/t26-,29-,30-,31-,32-,33-,39-/m0/s1

>  <IUPAC Name>  (1) 
(4R,7S,10S,13S,16S)-7-(2-amino-2-oxoethyl)-N-[2-[[(2S)-1-[(2-amino-2-oxoethyl)amino]-4-methyl-1-oxopentan-2-yl]amino]-2-oxoethyl]-10-(3-amino-3-oxopropyl)-13-[(2S)-butan-2-yl]-16-[(4-hydroxyphenyl)methyl]-6,9,12,15,18-pentaoxo-N-pentyl-1,2-dithia-5,8,11,14,17-pentazacycloicosane-4-carboxamide

$$$$
