
     RDKit          3D

 35 37  0  0  0  0  0  0  0  0999 V2000
   -4.4023   -0.1572    1.8492 C   0  0  0  0  0  0  0  0  0  0  0  0
   -3.3408   -1.1204    1.5487 C   0  0  0  0  0  0  0  0  0  0  0  0
   -3.4079   -2.4294    1.9530 N   0  0  0  0  0  0  0  0  0  0  0  0
   -2.3096   -3.0601    1.5206 C   0  0  0  0  0  0  0  0  0  0  0  0
   -1.6159   -2.1721    0.8871 O   0  0  0  0  0  0  0  0  0  0  0  0
   -2.1527   -0.9898    0.8538 C   0  0  0  0  0  0  0  0  0  0  0  0
   -1.6097    0.1975    0.2182 C   0  0  0  0  0  0  0  0  0  0  0  0
   -2.1688    1.4523    0.3294 C   0  0  0  0  0  0  0  0  0  0  0  0
   -1.6542    2.5799   -0.2973 C   0  0  0  0  0  0  0  0  0  0  0  0
   -0.5317    2.4902   -1.0783 C   0  0  0  0  0  0  0  0  0  0  0  0
    0.0476    1.2482   -1.2069 C   0  0  0  0  0  0  0  0  0  0  0  0
   -0.4736    0.1086   -0.5729 C   0  0  0  0  0  0  0  0  0  0  0  0
    0.2237   -1.0969   -0.8326 N   0  0  0  0  0  0  0  0  0  0  0  0
    1.4323   -1.1140   -1.6630 C   0  0  0  0  0  0  0  0  0  0  0  0
    2.4978   -0.3839   -0.9345 C   0  0  0  0  0  0  0  0  0  0  0  0
    2.4810    0.1704    0.2295 N   0  0  0  0  0  0  0  0  0  0  0  0
    3.7367    0.7789    0.5647 C   0  0  0  0  0  0  0  0  0  0  0  0
    4.6970    0.2186   -0.4431 C   0  0  0  0  0  0  0  0  0  0  0  0
    3.8085   -0.1990   -1.5084 N   0  0  0  0  0  0  0  0  0  0  0  0
   -4.1682    0.5813    2.6420 H   0  0  0  0  0  0  0  0  0  0  0  0
   -4.8915    0.2927    0.9437 H   0  0  0  0  0  0  0  0  0  0  0  0
   -5.2760   -0.7353    2.3026 H   0  0  0  0  0  0  0  0  0  0  0  0
   -2.0095   -4.0983    1.6450 H   0  0  0  0  0  0  0  0  0  0  0  0
   -3.0457    1.6356    0.9268 H   0  0  0  0  0  0  0  0  0  0  0  0
   -2.1254    3.5466   -0.1830 H   0  0  0  0  0  0  0  0  0  0  0  0
   -0.1588    3.3807   -1.5492 H   0  0  0  0  0  0  0  0  0  0  0  0
    0.9258    1.1996   -1.8352 H   0  0  0  0  0  0  0  0  0  0  0  0
   -0.0451   -2.0399   -0.4796 H   0  0  0  0  0  0  0  0  0  0  0  0
    1.2560   -0.6338   -2.6540 H   0  0  0  0  0  0  0  0  0  0  0  0
    1.7879   -2.1267   -1.8863 H   0  0  0  0  0  0  0  0  0  0  0  0
    4.0500    0.5364    1.6152 H   0  0  0  0  0  0  0  0  0  0  0  0
    3.6983    1.8910    0.4151 H   0  0  0  0  0  0  0  0  0  0  0  0
    5.3902    1.0091   -0.7935 H   0  0  0  0  0  0  0  0  0  0  0  0
    5.2599   -0.6275   -0.0230 H   0  0  0  0  0  0  0  0  0  0  0  0
    4.0948   -0.3333   -2.5038 H   0  0  0  0  0  0  0  0  0  0  0  0
  1  2  1  0
  2  3  1  0
  3  4  2  0
  4  5  1  0
  5  6  1  0
  6  7  1  0
  7  8  2  0
  8  9  1  0
  9 10  2  0
 10 11  1  0
 11 12  2  0
 12 13  1  0
 13 14  1  0
 14 15  1  0
 15 16  2  0
 16 17  1  0
 17 18  1  0
 18 19  1  0
  6  2  2  0
 12  7  1  0
 19 15  1  0
  1 20  1  0
  1 21  1  0
  1 22  1  0
  4 23  1  0
  8 24  1  0
  9 25  1  0
 10 26  1  0
 11 27  1  0
 13 28  1  0
 14 29  1  0
 14 30  1  0
 17 31  1  0
 17 32  1  0
 18 33  1  0
 18 34  1  0
 19 35  1  0
M  END
>  <Ligand ID>  (1) 
LIG0003679

>  <Ligand>  (1) 
CHEMBL154023

>  <SMILES>  (1) 
Cc1ncoc1c1ccccc1NCC1=NCCN1

>  <CID>  (1) 
22493269.0

>  <ChEMBL ID>  (1) 
nan

>  <InChiKey>  (1) 
KUBADPQAWRUMPM-UHFFFAOYSA-N

>  <InChi>  (1) 
InChI=1S/C14H16N4O/c1-10-14(19-9-18-10)11-4-2-3-5-12(11)17-8-13-15-6-7-16-13/h2-5,9,17H,6-8H2,1H3,(H,15,16)

>  <IUPAC Name>  (1) 
N-(4,5-dihydro-1H-imidazol-2-ylmethyl)-2-(4-methyl-1,3-oxazol-5-yl)aniline

$$$$
