
     RDKit          3D

 36 38  0  0  0  0  0  0  0  0999 V2000
   -1.9513   -3.5405   -0.8250 O   0  0  0  0  0  0  0  0  0  0  0  0
   -1.5118   -2.3632   -0.9023 C   0  0  0  0  0  0  0  0  0  0  0  0
   -2.0543   -1.1551   -0.2880 C   0  0  0  0  0  0  0  0  0  0  0  0
   -3.1520   -0.9727    0.5138 C   0  0  0  0  0  0  0  0  0  0  0  0
   -3.5263    0.2663    1.0167 C   0  0  0  0  0  0  0  0  0  0  0  0
   -2.7508    1.3583    0.6883 C   0  0  0  0  0  0  0  0  0  0  0  0
   -1.6434    1.1886   -0.1178 C   0  0  0  0  0  0  0  0  0  0  0  0
   -1.2840   -0.0639   -0.6129 C   0  0  0  0  0  0  0  0  0  0  0  0
   -0.2238   -0.5321   -1.4443 N   0  0  0  0  0  0  0  0  0  0  0  0
   -0.3304   -1.9352   -1.6434 C   0  0  0  0  0  0  0  0  0  0  0  0
    0.3937   -2.7174   -2.3014 O   0  0  0  0  0  0  0  0  0  0  0  0
    0.8369    0.3037   -2.0217 C   0  0  0  0  0  0  0  0  0  0  0  0
    1.9546    0.3306   -1.0490 C   0  0  0  0  0  0  0  0  0  0  0  0
    2.9284   -0.6643   -1.1774 C   0  0  0  0  0  0  0  0  0  0  0  0
    4.0049   -0.7148   -0.3137 C   0  0  0  0  0  0  0  0  0  0  0  0
    4.1297    0.2228    0.6905 C   0  0  0  0  0  0  0  0  0  0  0  0
    3.1663    1.2033    0.8139 C   0  0  0  0  0  0  0  0  0  0  0  0
    2.0748    1.2690   -0.0478 C   0  0  0  0  0  0  0  0  0  0  0  0
    5.3072    0.1214    1.5910 C   0  0  0  0  0  0  0  0  0  0  0  0
    5.0927    0.9922    2.6535 F   0  0  0  0  0  0  0  0  0  0  0  0
    5.5305   -1.1557    2.0530 F   0  0  0  0  0  0  0  0  0  0  0  0
    6.4455    0.6208    0.9555 F   0  0  0  0  0  0  0  0  0  0  0  0
   -4.6637    0.3743    1.8317 O   0  0  0  0  0  0  0  0  0  0  0  0
   -5.8773    0.6252    1.1202 C   0  0  0  0  0  0  0  0  0  0  0  0
   -5.8089    1.8020    0.4116 F   0  0  0  0  0  0  0  0  0  0  0  0
   -6.8995    0.7587    2.0503 F   0  0  0  0  0  0  0  0  0  0  0  0
   -6.1783   -0.4220    0.2744 F   0  0  0  0  0  0  0  0  0  0  0  0
   -3.7519   -1.8202    0.7673 H   0  0  0  0  0  0  0  0  0  0  0  0
   -3.0334    2.3435    1.0776 H   0  0  0  0  0  0  0  0  0  0  0  0
   -1.0332    2.0571   -0.3743 H   0  0  0  0  0  0  0  0  0  0  0  0
    1.1828   -0.1300   -2.9626 H   0  0  0  0  0  0  0  0  0  0  0  0
    0.4351    1.3101   -2.1737 H   0  0  0  0  0  0  0  0  0  0  0  0
    2.8261   -1.4100   -1.9786 H   0  0  0  0  0  0  0  0  0  0  0  0
    4.7377   -1.5109   -0.4557 H   0  0  0  0  0  0  0  0  0  0  0  0
    3.2989    1.9262    1.6191 H   0  0  0  0  0  0  0  0  0  0  0  0
    1.3283    2.0341    0.0529 H   0  0  0  0  0  0  0  0  0  0  0  0
  1  2  2  0
  2  3  1  0
  3  4  2  0
  4  5  1  0
  5  6  2  0
  6  7  1  0
  7  8  2  0
  8  9  1  0
  9 10  1  0
 10 11  2  0
  9 12  1  0
 12 13  1  0
 13 14  2  0
 14 15  1  0
 15 16  2  0
 16 17  1  0
 17 18  2  0
 16 19  1  0
 19 20  1  0
 19 21  1  0
 19 22  1  0
  5 23  1  0
 23 24  1  0
 24 25  1  0
 24 26  1  0
 24 27  1  0
 10  2  1  0
 18 13  1  0
  8  3  1  0
  4 28  1  0
  6 29  1  0
  7 30  1  0
 12 31  1  0
 12 32  1  0
 14 33  1  0
 15 34  1  0
 17 35  1  0
 18 36  1  0
M  END
>  <Ligand ID>  (1) 
LIG0005942

>  <Ligand>  (1) 
CHEMBL447265

>  <SMILES>  (1) 
O=C1c2cc(ccc2N(C1=O)Cc1ccc(cc1)C(F)(F)F)OC(F)(F)F

>  <CID>  (1) 
44158221.0

>  <ChEMBL ID>  (1) 
nan

>  <InChiKey>  (1) 
UZGYTPRTNNUMIN-UHFFFAOYSA-N

>  <InChi>  (1) 
InChI=1S/C17H9F6NO3/c18-16(19,20)10-3-1-9(2-4-10)8-24-13-6-5-11(27-17(21,22)23)7-12(13)14(25)15(24)26/h1-7H,8H2

>  <IUPAC Name>  (1) 
5-(trifluoromethoxy)-1-[[4-(trifluoromethyl)phenyl]methyl]indole-2,3-dione

$$$$
