
     RDKit          3D

 53 55  0  0  0  0  0  0  0  0999 V2000
    6.5924    1.5354   -3.4201 C   0  0  0  0  0  0  0  0  0  0  0  0
    5.5993    1.1769   -2.3459 C   0  0  0  0  0  0  0  0  0  0  0  0
    4.3507    1.1880   -2.6020 O   0  0  0  0  0  0  0  0  0  0  0  0
    6.0728    0.8292   -1.0538 N   0  0  0  0  0  0  0  0  0  0  0  0
    5.2386    0.4747    0.0303 C   0  0  0  0  0  0  0  0  0  0  0  0
    4.7198    1.3518    0.9407 C   0  0  0  0  0  0  0  0  0  0  0  0
    3.9107    0.9325    1.9774 C   0  0  0  0  0  0  0  0  0  0  0  0
    3.5782   -0.4144    2.1519 C   0  0  0  0  0  0  0  0  0  0  0  0
    4.1095   -1.2826    1.2270 C   0  0  0  0  0  0  0  0  0  0  0  0
    4.9258   -0.8605    0.1802 C   0  0  0  0  0  0  0  0  0  0  0  0
    2.5538   -0.9246    3.5106 S   0  0  0  0  0  0  0  0  0  0  0  0
    0.8206   -0.7416    3.0212 C   0  0  0  0  0  0  0  0  0  0  0  0
    0.4079   -1.6779    1.9508 C   0  0  0  0  0  0  0  0  0  0  0  0
    1.2759   -2.5541    1.6233 O   0  0  0  0  0  0  0  0  0  0  0  0
   -0.8732   -1.6565    1.2801 C   0  0  0  0  0  0  0  0  0  0  0  0
   -1.2119   -2.5789    0.2840 C   0  0  0  0  0  0  0  0  0  0  0  0
   -2.4687   -2.3143   -0.1591 C   0  0  0  0  0  0  0  0  0  0  0  0
   -2.9344   -1.2361    0.5412 N   0  0  0  0  0  0  0  0  0  0  0  0
   -1.9716   -0.8533    1.3986 C   0  0  0  0  0  0  0  0  0  0  0  0
   -2.1069    0.2688    2.3361 C   0  0  0  0  0  0  0  0  0  0  0  0
   -4.2614   -0.7191    0.3047 C   0  0  0  0  0  0  0  0  0  0  0  0
   -4.3773    0.2769   -0.7904 C   0  0  0  0  0  0  0  0  0  0  0  0
   -3.5454    1.5194   -0.5733 C   0  0  0  0  0  0  0  0  0  0  0  0
   -4.3043    2.5877   -1.3631 C   0  0  0  0  0  0  0  0  0  0  0  0
   -5.6637    1.9864   -1.4861 C   0  0  0  0  0  0  0  0  0  0  0  0
   -5.6963    0.7445   -0.9078 O   0  0  0  0  0  0  0  0  0  0  0  0
   -3.2059   -3.0753   -1.2244 C   0  0  0  0  0  0  0  0  0  0  0  0
    7.0474    2.4913   -3.0999 H   0  0  0  0  0  0  0  0  0  0  0  0
    7.3533    0.7272   -3.5176 H   0  0  0  0  0  0  0  0  0  0  0  0
    6.0709    1.6849   -4.3833 H   0  0  0  0  0  0  0  0  0  0  0  0
    7.1039    0.8337   -0.8875 H   0  0  0  0  0  0  0  0  0  0  0  0
    4.9699    2.4015    0.8170 H   0  0  0  0  0  0  0  0  0  0  0  0
    3.4979    1.6454    2.7072 H   0  0  0  0  0  0  0  0  0  0  0  0
    3.9266   -2.3436    1.2730 H   0  0  0  0  0  0  0  0  0  0  0  0
    5.3239   -1.5907   -0.5311 H   0  0  0  0  0  0  0  0  0  0  0  0
    0.5829    0.3167    2.7997 H   0  0  0  0  0  0  0  0  0  0  0  0
    0.2419   -0.9688    3.9786 H   0  0  0  0  0  0  0  0  0  0  0  0
   -0.6016   -3.3926   -0.1050 H   0  0  0  0  0  0  0  0  0  0  0  0
   -1.7334    0.0553    3.3683 H   0  0  0  0  0  0  0  0  0  0  0  0
   -3.1971    0.5780    2.4313 H   0  0  0  0  0  0  0  0  0  0  0  0
   -1.5900    1.1934    2.0113 H   0  0  0  0  0  0  0  0  0  0  0  0
   -4.9864   -1.5622    0.1023 H   0  0  0  0  0  0  0  0  0  0  0  0
   -4.6911   -0.2629    1.2480 H   0  0  0  0  0  0  0  0  0  0  0  0
   -4.1559   -0.1713   -1.7935 H   0  0  0  0  0  0  0  0  0  0  0  0
   -3.6312    1.8319    0.4856 H   0  0  0  0  0  0  0  0  0  0  0  0
   -2.5079    1.4244   -0.9168 H   0  0  0  0  0  0  0  0  0  0  0  0
   -4.3087    3.5561   -0.7859 H   0  0  0  0  0  0  0  0  0  0  0  0
   -3.8328    2.7794   -2.3468 H   0  0  0  0  0  0  0  0  0  0  0  0
   -6.0282    1.9994   -2.5508 H   0  0  0  0  0  0  0  0  0  0  0  0
   -6.3570    2.6407   -0.8832 H   0  0  0  0  0  0  0  0  0  0  0  0
   -2.8132   -4.1162   -1.2191 H   0  0  0  0  0  0  0  0  0  0  0  0
   -2.9397   -2.6078   -2.1726 H   0  0  0  0  0  0  0  0  0  0  0  0
   -4.2798   -3.1260   -1.0116 H   0  0  0  0  0  0  0  0  0  0  0  0
  1  2  1  0
  2  3  2  0
  2  4  1  0
  4  5  1  0
  5  6  2  0
  6  7  1  0
  7  8  2  0
  8  9  1  0
  9 10  2  0
  8 11  1  0
 11 12  1  0
 12 13  1  0
 13 14  2  0
 13 15  1  0
 15 16  1  0
 16 17  2  0
 17 18  1  0
 18 19  1  0
 19 20  1  0
 18 21  1  0
 21 22  1  0
 22 23  1  0
 23 24  1  0
 24 25  1  0
 25 26  1  0
 17 27  1  0
 10  5  1  0
 19 15  2  0
 26 22  1  0
  1 28  1  0
  1 29  1  0
  1 30  1  0
  4 31  1  0
  6 32  1  0
  7 33  1  0
  9 34  1  0
 10 35  1  0
 12 36  1  0
 12 37  1  0
 16 38  1  0
 20 39  1  0
 20 40  1  0
 20 41  1  0
 21 42  1  0
 21 43  1  0
 22 44  1  0
 23 45  1  0
 23 46  1  0
 24 47  1  0
 24 48  1  0
 25 49  1  0
 25 50  1  0
 27 51  1  0
 27 52  1  0
 27 53  1  0
M  END
>  <Ligand ID>  (1) 
LIG0003730

>  <Ligand>  (1) 
AC1N0VGZ

>  <SMILES>  (1) 
CC(=O)Nc1ccc(cc1)SCC(=O)c1cc(n(c1C)CC1CCCO1)C

>  <CID>  (1) 
3923483.0

>  <ChEMBL ID>  (1) 
nan

>  <InChiKey>  (1) 
MWPCXJCTPBTOTL-UHFFFAOYSA-N

>  <InChi>  (1) 
InChI=1S/C21H26N2O3S/c1-14-11-20(15(2)23(14)12-18-5-4-10-26-18)21(25)13-27-19-8-6-17(7-9-19)22-16(3)24/h6-9,11,18H,4-5,10,12-13H2,1-3H3,(H,22,24)

>  <IUPAC Name>  (1) 
N-[4-[2-[2,5-dimethyl-1-(oxolan-2-ylmethyl)pyrrol-3-yl]-2-oxoethyl]sulfanylphenyl]acetamide

$$$$
