
     RDKit          3D

 83 88  0  0  0  0  0  0  0  0999 V2000
   -7.0280    3.4167    0.2860 C   0  0  0  0  0  0  0  0  0  0  0  0
   -7.1467    2.1674    0.9376 O   0  0  0  0  0  0  0  0  0  0  0  0
   -6.4858    1.2238    0.1899 C   0  0  1  0  0  0  0  0  0  0  0  0
   -5.3695    0.5305    0.9608 C   0  0  2  0  0  0  0  0  0  0  0  0
   -4.3947    1.4298    1.3569 O   0  0  0  0  0  0  0  0  0  0  0  0
   -4.7214   -0.4872    0.0433 C   0  0  2  0  0  0  0  0  0  0  0  0
   -3.3859   -0.1773   -0.1835 O   0  0  0  0  0  0  0  0  0  0  0  0
   -2.5094   -1.2026    0.2308 C   0  0  1  0  0  0  0  0  0  0  0  0
   -1.8204   -1.8193   -0.9609 C   0  0  0  0  0  0  0  0  0  0  0  0
   -0.5536   -1.1906   -1.3747 C   0  0  0  0  0  0  0  0  0  0  0  0
    0.1292   -0.3008   -0.3935 C   0  0  1  0  0  0  0  0  0  0  0  0
   -0.1549   -0.7132    1.0216 C   0  0  1  0  0  0  0  0  0  0  0  0
   -1.6062   -0.8052    1.3422 C   0  0  0  0  0  0  0  0  0  0  0  0
    0.5260   -2.0303    1.3105 C   0  0  0  0  0  0  0  0  0  0  0  0
    1.9791   -2.0436    0.8958 C   0  0  0  0  0  0  0  0  0  0  0  0
    2.4280   -0.6708    0.4987 C   0  0  2  0  0  0  0  0  0  0  0  0
    1.5900   -0.2281   -0.6596 C   0  0  2  0  0  0  0  0  0  0  0  0
    2.0643    1.1296   -1.1650 C   0  0  0  0  0  0  0  0  0  0  0  0
    3.5164    1.0568   -1.4783 C   0  0  0  0  0  0  0  0  0  0  0  0
    4.3794    0.6865   -0.2769 C   0  0  1  0  0  0  0  0  0  0  0  0
    3.8860   -0.6010    0.2612 C   0  0  1  0  0  0  0  0  0  0  0  0
    4.5051   -0.8856    1.5045 O   0  0  0  0  0  0  0  0  0  0  0  0
    4.4574   -1.6012   -0.7061 C   0  0  0  0  0  0  0  0  0  0  0  0
    5.8874   -1.0600   -0.8896 C   0  0  0  0  0  0  0  0  0  0  0  0
    5.7695    0.4371   -0.7543 C   0  0  2  0  0  0  0  0  0  0  0  0
    6.8129    0.9405    0.1630 C   0  0  0  0  0  0  0  0  0  0  0  0
    7.7159    1.8612   -0.2193 C   0  0  0  0  0  0  0  0  0  0  0  0
    8.6175    2.1662    0.8772 C   0  0  0  0  0  0  0  0  0  0  0  0
    9.5645    2.9693    0.8710 O   0  0  0  0  0  0  0  0  0  0  0  0
    8.2311    1.3949    1.9423 O   0  0  0  0  0  0  0  0  0  0  0  0
    7.1103    0.6239    1.5753 C   0  0  0  0  0  0  0  0  0  0  0  0
    4.3021    1.8034    0.7446 C   0  0  0  0  0  0  0  0  0  0  0  0
   -0.4285    1.0909   -0.5828 C   0  0  0  0  0  0  0  0  0  0  0  0
   -0.9775    1.6899    0.3295 O   0  0  0  0  0  0  0  0  0  0  0  0
   -5.3255   -0.4768   -1.2206 O   0  0  0  0  0  0  0  0  0  0  0  0
   -6.6781   -0.8013   -1.1390 C   0  0  2  0  0  0  0  0  0  0  0  0
   -7.4474    0.1217   -0.2535 C   0  0  2  0  0  0  0  0  0  0  0  0
   -8.4714    0.7180   -0.9793 O   0  0  0  0  0  0  0  0  0  0  0  0
   -6.8580   -2.2582   -0.7054 C   0  0  0  0  0  0  0  0  0  0  0  0
   -7.5794    4.1604    0.9229 H   0  0  0  0  0  0  0  0  0  0  0  0
   -7.4849    3.4146   -0.7170 H   0  0  0  0  0  0  0  0  0  0  0  0
   -5.9593    3.6998    0.2269 H   0  0  0  0  0  0  0  0  0  0  0  0
   -6.0120    1.6054   -0.7338 H   0  0  0  0  0  0  0  0  0  0  0  0
   -5.7990    0.0753    1.8543 H   0  0  0  0  0  0  0  0  0  0  0  0
   -3.8509    1.7409    0.6054 H   0  0  0  0  0  0  0  0  0  0  0  0
   -4.7746   -1.4703    0.5165 H   0  0  0  0  0  0  0  0  0  0  0  0
   -3.2026   -1.9925    0.6320 H   0  0  0  0  0  0  0  0  0  0  0  0
   -2.5534   -1.6811   -1.8134 H   0  0  0  0  0  0  0  0  0  0  0  0
   -1.7855   -2.9182   -0.8273 H   0  0  0  0  0  0  0  0  0  0  0  0
    0.1747   -2.0260   -1.5970 H   0  0  0  0  0  0  0  0  0  0  0  0
   -0.6078   -0.6366   -2.3494 H   0  0  0  0  0  0  0  0  0  0  0  0
    0.2435    0.1029    1.6940 H   0  0  0  0  0  0  0  0  0  0  0  0
   -2.0032    0.1620    1.7734 H   0  0  0  0  0  0  0  0  0  0  0  0
   -1.7031   -1.5120    2.2198 H   0  0  0  0  0  0  0  0  0  0  0  0
   -0.0586   -2.8286    0.8182 H   0  0  0  0  0  0  0  0  0  0  0  0
    0.4308   -2.1763    2.4271 H   0  0  0  0  0  0  0  0  0  0  0  0
    2.5951   -2.3687    1.7558 H   0  0  0  0  0  0  0  0  0  0  0  0
    2.1568   -2.7487    0.0512 H   0  0  0  0  0  0  0  0  0  0  0  0
    2.2435    0.0266    1.3715 H   0  0  0  0  0  0  0  0  0  0  0  0
    1.8495   -0.9249   -1.5104 H   0  0  0  0  0  0  0  0  0  0  0  0
    1.7611    1.9577   -0.5275 H   0  0  0  0  0  0  0  0  0  0  0  0
    1.5349    1.2669   -2.1522 H   0  0  0  0  0  0  0  0  0  0  0  0
    3.7029    0.3506   -2.2935 H   0  0  0  0  0  0  0  0  0  0  0  0
    3.8554    2.0657   -1.8438 H   0  0  0  0  0  0  0  0  0  0  0  0
    4.6916   -1.8629    1.5524 H   0  0  0  0  0  0  0  0  0  0  0  0
    4.5284   -2.6179   -0.3053 H   0  0  0  0  0  0  0  0  0  0  0  0
    4.0095   -1.6260   -1.6934 H   0  0  0  0  0  0  0  0  0  0  0  0
    6.5303   -1.4304   -0.0797 H   0  0  0  0  0  0  0  0  0  0  0  0
    6.3337   -1.3956   -1.8439 H   0  0  0  0  0  0  0  0  0  0  0  0
    5.9237    0.8997   -1.7846 H   0  0  0  0  0  0  0  0  0  0  0  0
    7.8055    2.3406   -1.1912 H   0  0  0  0  0  0  0  0  0  0  0  0
    7.2249   -0.4584    1.7628 H   0  0  0  0  0  0  0  0  0  0  0  0
    6.2959    0.9683    2.2829 H   0  0  0  0  0  0  0  0  0  0  0  0
    4.0158    1.4059    1.7387 H   0  0  0  0  0  0  0  0  0  0  0  0
    3.4710    2.4738    0.4415 H   0  0  0  0  0  0  0  0  0  0  0  0
    5.2076    2.4060    0.7172 H   0  0  0  0  0  0  0  0  0  0  0  0
   -0.3664    1.6129   -1.5276 H   0  0  0  0  0  0  0  0  0  0  0  0
   -7.0744   -0.7302   -2.1705 H   0  0  0  0  0  0  0  0  0  0  0  0
   -7.8706   -0.3965    0.6534 H   0  0  0  0  0  0  0  0  0  0  0  0
   -9.3281    0.7797   -0.4930 H   0  0  0  0  0  0  0  0  0  0  0  0
   -6.0442   -2.8351   -1.1977 H   0  0  0  0  0  0  0  0  0  0  0  0
   -7.7944   -2.6137   -1.1631 H   0  0  0  0  0  0  0  0  0  0  0  0
   -6.8436   -2.3701    0.3970 H   0  0  0  0  0  0  0  0  0  0  0  0
  1  2  1  0
  2  3  1  0
  3  4  1  0
  4  5  1  0
  4  6  1  0
  6  7  1  0
  7  8  1  0
  8  9  1  0
  9 10  1  0
 10 11  1  0
 11 12  1  0
 12 13  1  0
 12 14  1  0
 14 15  1  0
 15 16  1  0
 16 17  1  0
 17 18  1  0
 18 19  1  0
 19 20  1  0
 20 21  1  0
 21 22  1  1
 21 23  1  0
 23 24  1  0
 24 25  1  0
 25 26  1  0
 26 27  2  0
 27 28  1  0
 28 29  2  0
 28 30  1  0
 30 31  1  0
 20 32  1  1
 11 33  1  1
 33 34  2  0
  6 35  1  0
 35 36  1  0
 36 37  1  0
 37 38  1  0
 36 39  1  0
 37  3  1  0
 13  8  1  0
 21 16  1  0
 31 26  1  0
 17 11  1  0
 25 20  1  0
  1 40  1  0
  1 41  1  0
  1 42  1  0
  3 43  1  6
  4 44  1  1
  5 45  1  0
  6 46  1  1
  8 47  1  1
  9 48  1  0
  9 49  1  0
 10 50  1  0
 10 51  1  0
 12 52  1  1
 13 53  1  0
 13 54  1  0
 14 55  1  0
 14 56  1  0
 15 57  1  0
 15 58  1  0
 16 59  1  1
 17 60  1  6
 18 61  1  0
 18 62  1  0
 19 63  1  0
 19 64  1  0
 22 65  1  0
 23 66  1  0
 23 67  1  0
 24 68  1  0
 24 69  1  0
 25 70  1  6
 27 71  1  0
 31 72  1  0
 31 73  1  0
 32 74  1  0
 32 75  1  0
 32 76  1  0
 33 77  1  0
 36 78  1  6
 37 79  1  1
 38 80  1  0
 39 81  1  0
 39 82  1  0
 39 83  1  0
M  END
>  <Ligand ID>  (1) 
LIG0002265

>  <Ligand>  (1) 
peruvoside

>  <SMILES>  (1) 
CO[C@H]1[C@H](O)[C@H](O[C@H]2CC[C@]3([C@@H](C2)CC[C@@H]2[C@@H]3CC[C@]3([C@]2(O)CC[C@@H]3C2=CC(=O)OC2)C)C=O)O[C@H]([C@@H]1O)C

>  <CID>  (1) 
12314120.0

>  <ChEMBL ID>  (1) 
nan

>  <InChiKey>  (1) 
PMTSPAGBAFCORP-HBUONDEYSA-N

>  <InChi>  (1) 
InChI=1S/C30H44O9/c1-16-24(33)26(36-3)25(34)27(38-16)39-19-6-10-29(15-31)18(13-19)4-5-22-21(29)7-9-28(2)20(8-11-30(22,28)35)17-12-23(32)37-14-17/h12,15-16,18-22,24-27,33-35H,4-11,13-14H2,1-3H3/t16-,18+,19-,20+,21-,22+,24-,25-,26+,27-,28+,29+,30-/m0/s1

>  <IUPAC Name>  (1) 
(3S,5R,8R,9S,10R,13R,14S,17R)-3-[(2R,3S,4R,5S,6S)-3,5-dihydroxy-4-methoxy-6-methyloxan-2-yl]oxy-14-hydroxy-13-methyl-17-(5-oxo-2H-furan-3-yl)-1,2,3,4,5,6,7,8,9,11,12,15,16,17-tetradecahydrocyclopenta[a]phenanthrene-10-carbaldehyde

$$$$
