
     RDKit          3D

 30 31  0  0  0  0  0  0  0  0999 V2000
    4.9083    1.6787   -0.6313 N   0  0  0  0  0  0  0  0  0  0  0  0
    3.5050    1.2696   -0.4958 C   0  0  0  0  0  0  0  0  0  0  0  0
    3.5168   -0.1959   -0.1834 C   0  0  0  0  0  0  0  0  0  0  0  0
    2.1433   -0.7479   -0.0184 C   0  0  0  0  0  0  0  0  0  0  0  0
    1.9122   -2.0759    0.2729 C   0  0  0  0  0  0  0  0  0  0  0  0
    0.5837   -2.2470    0.3551 N   0  0  0  0  0  0  0  0  0  0  0  0
   -0.0151   -1.0483    0.1199 C   0  0  0  0  0  0  0  0  0  0  0  0
    0.9550   -0.1521   -0.1047 N   0  0  0  0  0  0  0  0  0  0  0  0
   -1.4726   -0.8548    0.1287 C   0  0  0  0  0  0  0  0  0  0  0  0
   -2.3359   -1.9013    0.3817 C   0  0  0  0  0  0  0  0  0  0  0  0
   -3.7110   -1.7318    0.3928 C   0  0  0  0  0  0  0  0  0  0  0  0
   -4.1686   -0.4526    0.1355 C   0  0  0  0  0  0  0  0  0  0  0  0
   -3.3423    0.6049   -0.1186 C   0  0  0  0  0  0  0  0  0  0  0  0
   -1.9836    0.3975   -0.1210 C   0  0  0  0  0  0  0  0  0  0  0  0
   -3.9294    1.9567   -0.3869 C   0  0  0  0  0  0  0  0  0  0  0  0
   -5.2037    2.0595    0.1146 F   0  0  0  0  0  0  0  0  0  0  0  0
   -3.0862    2.9083    0.1889 F   0  0  0  0  0  0  0  0  0  0  0  0
   -3.9135    2.1592   -1.7357 F   0  0  0  0  0  0  0  0  0  0  0  0
    5.3559    0.8814   -1.1668 H   0  0  0  0  0  0  0  0  0  0  0  0
    5.3964    1.6952    0.2918 H   0  0  0  0  0  0  0  0  0  0  0  0
    3.0987    1.9047    0.3037 H   0  0  0  0  0  0  0  0  0  0  0  0
    3.0571    1.4887   -1.4992 H   0  0  0  0  0  0  0  0  0  0  0  0
    4.0726   -0.3097    0.7797 H   0  0  0  0  0  0  0  0  0  0  0  0
    4.0895   -0.7200   -0.9526 H   0  0  0  0  0  0  0  0  0  0  0  0
    2.6323   -2.8659    0.4168 H   0  0  0  0  0  0  0  0  0  0  0  0
    0.8094    0.8594   -0.3156 H   0  0  0  0  0  0  0  0  0  0  0  0
   -1.9648   -2.8983    0.5817 H   0  0  0  0  0  0  0  0  0  0  0  0
   -4.3619   -2.5675    0.5935 H   0  0  0  0  0  0  0  0  0  0  0  0
   -5.2416   -0.3123    0.1424 H   0  0  0  0  0  0  0  0  0  0  0  0
   -1.3061    1.2175   -0.3193 H   0  0  0  0  0  0  0  0  0  0  0  0
  1  2  1  0
  2  3  1  0
  3  4  1  0
  4  5  2  0
  5  6  1  0
  6  7  2  0
  7  8  1  0
  7  9  1  0
  9 10  2  0
 10 11  1  0
 11 12  2  0
 12 13  1  0
 13 14  2  0
 13 15  1  0
 15 16  1  0
 15 17  1  0
 15 18  1  0
  8  4  1  0
 14  9  1  0
  1 19  1  0
  1 20  1  0
  2 21  1  0
  2 22  1  0
  3 23  1  0
  3 24  1  0
  5 25  1  0
  8 26  1  0
 10 27  1  0
 11 28  1  0
 12 29  1  0
 14 30  1  0
M  END
>  <Ligand ID>  (1) 
LIG0002496

>  <Ligand>  (1) 
CHEMBL24665

>  <SMILES>  (1) 
NCCc1cnc([nH]1)c1cccc(c1)C(F)(F)F

>  <CID>  (1) 
5310982.0

>  <ChEMBL ID>  (1) 
nan

>  <InChiKey>  (1) 
NFUYVKMAGIJYKB-UHFFFAOYSA-N

>  <InChi>  (1) 
InChI=1S/C12H12F3N3/c13-12(14,15)9-3-1-2-8(6-9)11-17-7-10(18-11)4-5-16/h1-3,6-7H,4-5,16H2,(H,17,18)

>  <IUPAC Name>  (1) 
2-[2-[3-(trifluoromethyl)phenyl]-1H-imidazol-5-yl]ethanamine

$$$$
