
     RDKit          3D

 57 58  0  0  0  0  0  0  0  0999 V2000
   -8.7196    1.5242   -0.2610 C   0  0  0  0  0  0  0  0  0  0  0  0
   -8.2119    0.3192   -1.0075 C   0  0  0  0  0  0  0  0  0  0  0  0
   -6.7697    0.6390   -1.4152 C   0  0  0  0  0  0  0  0  0  0  0  0
   -5.9636    0.8912   -0.2006 C   0  0  0  0  0  0  0  0  0  0  0  0
   -4.5203    1.2209   -0.4184 C   0  0  0  0  0  0  0  0  0  0  0  0
   -3.7410    0.1538   -1.1241 C   0  0  0  0  0  0  0  0  0  0  0  0
   -3.6933   -1.1684   -0.4107 C   0  0  0  0  0  0  0  0  0  0  0  0
   -3.0188   -1.0517    0.9054 C   0  0  0  0  0  0  0  0  0  0  0  0
   -1.6130   -0.6355    0.8646 C   0  0  0  0  0  0  0  0  0  0  0  0
   -0.6581   -1.6528    0.7397 C   0  0  0  0  0  0  0  0  0  0  0  0
    0.6936   -1.3801    0.6960 C   0  0  0  0  0  0  0  0  0  0  0  0
    1.1622   -0.0844    0.7741 C   0  0  0  0  0  0  0  0  0  0  0  0
    0.2359    0.9311    0.8976 C   0  0  0  0  0  0  0  0  0  0  0  0
   -1.1336    0.6406    0.9409 C   0  0  0  0  0  0  0  0  0  0  0  0
    2.5932    0.1974    0.7273 C   0  0  0  0  0  0  0  0  0  0  0  0
    3.1492    1.4581    0.7985 C   0  0  0  0  0  0  0  0  0  0  0  0
    4.4886    1.2594    0.7188 N   0  0  0  0  0  0  0  0  0  0  0  0
    4.7245   -0.0753    0.6038 C   0  0  0  0  0  0  0  0  0  0  0  0
    3.5476   -0.7422    0.6085 N   0  0  0  0  0  0  0  0  0  0  0  0
    6.0342   -0.7689    0.4871 C   0  0  2  0  0  0  0  0  0  0  0  0
    7.1483    0.1881    0.1475 C   0  0  0  0  0  0  0  0  0  0  0  0
    8.3397   -0.5008    0.1074 O   0  0  0  0  0  0  0  0  0  0  0  0
    9.6660    0.4823   -0.2676 P   0  0  0  0  0  0  0  0  0  0  0  0
    9.1839    1.9729   -0.9807 S   0  0  0  0  0  0  0  0  0  0  0  0
   10.6369   -0.3680   -1.3613 O   0  0  0  0  0  0  0  0  0  0  0  0
   10.6069    0.7788    1.1155 O   0  0  0  0  0  0  0  0  0  0  0  0
    6.0042   -1.7889   -0.5553 N   0  0  0  0  0  0  0  0  0  0  0  0
   -8.2966    2.4650   -0.6958 H   0  0  0  0  0  0  0  0  0  0  0  0
   -8.5686    1.4464    0.8302 H   0  0  0  0  0  0  0  0  0  0  0  0
   -9.8160    1.5600   -0.4386 H   0  0  0  0  0  0  0  0  0  0  0  0
   -8.1773   -0.5783   -0.3303 H   0  0  0  0  0  0  0  0  0  0  0  0
   -8.8072    0.1187   -1.9193 H   0  0  0  0  0  0  0  0  0  0  0  0
   -6.4314   -0.2959   -1.9298 H   0  0  0  0  0  0  0  0  0  0  0  0
   -6.8340    1.4597   -2.1254 H   0  0  0  0  0  0  0  0  0  0  0  0
   -6.0595    0.0223    0.4822 H   0  0  0  0  0  0  0  0  0  0  0  0
   -6.3979    1.7461    0.3678 H   0  0  0  0  0  0  0  0  0  0  0  0
   -4.0667    1.3833    0.5769 H   0  0  0  0  0  0  0  0  0  0  0  0
   -4.3909    2.1588   -0.9923 H   0  0  0  0  0  0  0  0  0  0  0  0
   -2.6771    0.5149   -1.1332 H   0  0  0  0  0  0  0  0  0  0  0  0
   -3.9992    0.0598   -2.1951 H   0  0  0  0  0  0  0  0  0  0  0  0
   -3.0950   -1.8357   -1.1020 H   0  0  0  0  0  0  0  0  0  0  0  0
   -4.6763   -1.6663   -0.3561 H   0  0  0  0  0  0  0  0  0  0  0  0
   -3.0760   -2.0244    1.4388 H   0  0  0  0  0  0  0  0  0  0  0  0
   -3.6033   -0.3464    1.5451 H   0  0  0  0  0  0  0  0  0  0  0  0
   -0.9660   -2.6934    0.6736 H   0  0  0  0  0  0  0  0  0  0  0  0
    1.3876   -2.2167    0.5976 H   0  0  0  0  0  0  0  0  0  0  0  0
    0.5671    1.9619    0.9618 H   0  0  0  0  0  0  0  0  0  0  0  0
   -1.7859    1.4633    1.0397 H   0  0  0  0  0  0  0  0  0  0  0  0
    2.6317    2.4181    0.8979 H   0  0  0  0  0  0  0  0  0  0  0  0
    3.4043   -1.7857    0.5344 H   0  0  0  0  0  0  0  0  0  0  0  0
    6.3247   -1.2277    1.4707 H   0  0  0  0  0  0  0  0  0  0  0  0
    6.9509    0.5519   -0.8807 H   0  0  0  0  0  0  0  0  0  0  0  0
    7.1650    1.0747    0.8103 H   0  0  0  0  0  0  0  0  0  0  0  0
   11.0156   -1.1397   -0.8424 H   0  0  0  0  0  0  0  0  0  0  0  0
   10.1180    0.5132    1.9451 H   0  0  0  0  0  0  0  0  0  0  0  0
    5.1623   -1.5528   -1.1498 H   0  0  0  0  0  0  0  0  0  0  0  0
    6.8259   -1.6998   -1.2115 H   0  0  0  0  0  0  0  0  0  0  0  0
  1  2  1  0
  2  3  1  0
  3  4  1  0
  4  5  1  0
  5  6  1  0
  6  7  1  0
  7  8  1  0
  8  9  1  0
  9 10  2  0
 10 11  1  0
 11 12  2  0
 12 13  1  0
 13 14  2  0
 12 15  1  0
 15 16  2  0
 16 17  1  0
 17 18  2  0
 18 19  1  0
 18 20  1  0
 20 21  1  0
 21 22  1  0
 22 23  1  0
 23 24  2  0
 23 25  1  0
 23 26  1  0
 20 27  1  0
 14  9  1  0
 19 15  1  0
  1 28  1  0
  1 29  1  0
  1 30  1  0
  2 31  1  0
  2 32  1  0
  3 33  1  0
  3 34  1  0
  4 35  1  0
  4 36  1  0
  5 37  1  0
  5 38  1  0
  6 39  1  0
  6 40  1  0
  7 41  1  0
  7 42  1  0
  8 43  1  0
  8 44  1  0
 10 45  1  0
 11 46  1  0
 13 47  1  0
 14 48  1  0
 16 49  1  0
 19 50  1  0
 20 51  1  1
 21 52  1  0
 21 53  1  0
 25 54  1  0
 26 55  1  0
 27 56  1  0
 27 57  1  0
M  END
>  <Ligand ID>  (1) 
LIG0004241

>  <Ligand>  (1) 
CHEMBL188826

>  <SMILES>  (1) 
CCCCCCCCc1ccc(cc1)c1cnc([nH]1)[C@H](COP(=S)(O)O)N

>  <CID>  (1) 
44398170.0

>  <ChEMBL ID>  (1) 
nan

>  <InChiKey>  (1) 
JTZBCRHAPRTBAW-KRWDZBQOSA-N

>  <InChi>  (1) 
InChI=1S/C19H30N3O3PS/c1-2-3-4-5-6-7-8-15-9-11-16(12-10-15)18-13-21-19(22-18)17(20)14-25-26(23,24)27/h9-13,17H,2-8,14,20H2,1H3,(H,21,22)(H2,23,24,27)/t17-/m0/s1

>  <IUPAC Name>  (1) 
(1R)-2-dihydroxyphosphinothioyloxy-1-[5-(4-octylphenyl)-1H-imidazol-2-yl]ethanamine

$$$$
