
     RDKit          3D

 53 58  0  0  0  0  0  0  0  0999 V2000
   -1.1154    4.7180    1.1744 O   0  0  0  0  0  0  0  0  0  0  0  0
   -1.3622    3.3396    1.1747 C   0  0  0  0  0  0  0  0  0  0  0  0
   -1.9670    2.7551    2.2755 C   0  0  0  0  0  0  0  0  0  0  0  0
   -2.2290    1.3948    2.3167 C   0  0  0  0  0  0  0  0  0  0  0  0
   -1.8664    0.6344    1.2198 C   0  0  0  0  0  0  0  0  0  0  0  0
   -1.2624    1.1656    0.0999 C   0  0  0  0  0  0  0  0  0  0  0  0
   -1.0239    2.5283    0.1111 C   0  0  0  0  0  0  0  0  0  0  0  0
   -1.0036    0.0721   -0.9034 C   0  0  2  0  0  0  0  0  0  0  0  0
   -2.0710    0.0705   -1.9530 C   0  0  0  0  0  0  0  0  0  0  0  0
   -3.1378   -0.9471   -1.8389 C   0  0  0  0  0  0  0  0  0  0  0  0
   -2.7210   -2.2308   -1.3659 N   0  0  0  0  0  0  0  0  0  0  0  0
   -1.3926   -2.3093   -0.8910 C   0  0  0  0  0  0  0  0  0  0  0  0
   -0.9918   -1.1354   -0.0321 C   0  0  2  0  0  0  0  0  0  0  0  0
   -2.0384   -0.8290    1.0249 C   0  0  0  0  0  0  0  0  0  0  0  0
    0.2729   -1.4502    0.6640 C   0  0  0  0  0  0  0  0  0  0  0  0
    1.4491   -0.6602    0.2556 C   0  0  0  0  0  0  0  0  0  0  0  0
    1.4738    0.2234   -0.7978 C   0  0  0  0  0  0  0  0  0  0  0  0
    0.2674    0.4198   -1.5908 C   0  0  0  0  0  0  0  0  0  0  0  0
    2.6939    0.7829   -0.9084 N   0  0  0  0  0  0  0  0  0  0  0  0
    3.1670    1.7663   -1.8745 C   0  0  0  0  0  0  0  0  0  0  0  0
    3.4598    0.2659    0.0684 C   0  0  0  0  0  0  0  0  0  0  0  0
    2.7107   -0.6300    0.8020 C   0  0  0  0  0  0  0  0  0  0  0  0
    3.3244   -1.2732    1.8603 C   0  0  0  0  0  0  0  0  0  0  0  0
    4.6294   -1.0678    2.2152 C   0  0  0  0  0  0  0  0  0  0  0  0
    5.3775   -0.1657    1.4737 C   0  0  0  0  0  0  0  0  0  0  0  0
    4.7771    0.4956    0.3998 C   0  0  0  0  0  0  0  0  0  0  0  0
   -3.7040   -3.0014   -0.6838 C   0  0  0  0  0  0  0  0  0  0  0  0
   -0.3696    5.0989    1.7715 H   0  0  0  0  0  0  0  0  0  0  0  0
   -2.2654    3.3236    3.1552 H   0  0  0  0  0  0  0  0  0  0  0  0
   -2.7036    0.9624    3.1905 H   0  0  0  0  0  0  0  0  0  0  0  0
   -0.5527    3.0085   -0.7364 H   0  0  0  0  0  0  0  0  0  0  0  0
   -1.6510    0.0630   -3.0027 H   0  0  0  0  0  0  0  0  0  0  0  0
   -2.5731    1.0831   -1.9130 H   0  0  0  0  0  0  0  0  0  0  0  0
   -4.0341   -0.5276   -1.3274 H   0  0  0  0  0  0  0  0  0  0  0  0
   -3.5342   -1.1518   -2.8800 H   0  0  0  0  0  0  0  0  0  0  0  0
   -1.2274   -3.2758   -0.3967 H   0  0  0  0  0  0  0  0  0  0  0  0
   -0.6947   -2.2923   -1.7769 H   0  0  0  0  0  0  0  0  0  0  0  0
   -3.0500   -1.1268    0.7732 H   0  0  0  0  0  0  0  0  0  0  0  0
   -1.7887   -1.3812    1.9761 H   0  0  0  0  0  0  0  0  0  0  0  0
    0.5527   -2.5236    0.4661 H   0  0  0  0  0  0  0  0  0  0  0  0
    0.1406   -1.4329    1.7845 H   0  0  0  0  0  0  0  0  0  0  0  0
    0.2123    1.4940   -1.8942 H   0  0  0  0  0  0  0  0  0  0  0  0
    0.2732   -0.1373   -2.5662 H   0  0  0  0  0  0  0  0  0  0  0  0
    2.3126    2.1886   -2.4491 H   0  0  0  0  0  0  0  0  0  0  0  0
    3.6579    2.6203   -1.3603 H   0  0  0  0  0  0  0  0  0  0  0  0
    3.8876    1.2736   -2.5842 H   0  0  0  0  0  0  0  0  0  0  0  0
    2.7281   -1.9679    2.4227 H   0  0  0  0  0  0  0  0  0  0  0  0
    5.1193   -1.5707    3.0471 H   0  0  0  0  0  0  0  0  0  0  0  0
    6.4080   -0.0023    1.7525 H   0  0  0  0  0  0  0  0  0  0  0  0
    5.3718    1.1988   -0.1725 H   0  0  0  0  0  0  0  0  0  0  0  0
   -3.3376   -3.4609    0.2738 H   0  0  0  0  0  0  0  0  0  0  0  0
   -4.6679   -2.5008   -0.5168 H   0  0  0  0  0  0  0  0  0  0  0  0
   -3.9308   -3.8953   -1.3332 H   0  0  0  0  0  0  0  0  0  0  0  0
  1  2  1  0
  2  3  2  0
  3  4  1  0
  4  5  2  0
  5  6  1  0
  6  7  2  0
  6  8  1  0
  8  9  1  6
  9 10  1  0
 10 11  1  0
 11 12  1  0
 13 12  1  6
 13 14  1  0
 13 15  1  0
 15 16  1  0
 16 17  2  0
 17 18  1  0
 17 19  1  0
 19 20  1  0
 19 21  1  0
 21 22  2  0
 22 23  1  0
 23 24  2  0
 24 25  1  0
 25 26  2  0
 11 27  1  0
  7  2  1  0
 18  8  1  0
 26 21  1  0
 14  5  1  0
 22 16  1  0
 13  8  1  0
  1 28  1  0
  3 29  1  0
  4 30  1  0
  7 31  1  0
  9 32  1  0
  9 33  1  0
 10 34  1  0
 10 35  1  0
 12 36  1  0
 12 37  1  0
 14 38  1  0
 14 39  1  0
 15 40  1  0
 15 41  1  0
 18 42  1  0
 18 43  1  0
 20 44  1  0
 20 45  1  0
 20 46  1  0
 23 47  1  0
 24 48  1  0
 25 49  1  0
 26 50  1  0
 27 51  1  0
 27 52  1  0
 27 53  1  0
M  END
>  <Ligand ID>  (1) 
LIG0004617

>  <Ligand>  (1) 
CHEMBL557937

>  <SMILES>  (1) 
Oc1ccc2c(c1)[C@@]13CCN(C[C@@]3(C2)Cc2c(C1)n(C)c1c2cccc1)C

>  <CID>  (1) 
44235488.0

>  <ChEMBL ID>  (1) 
nan

>  <InChiKey>  (1) 
WDTIJGFXRJTCSB-DNQXCXABSA-N

>  <InChi>  (1) 
InChI=1S/C24H26N2O/c1-25-10-9-24-14-22-19(18-5-3-4-6-21(18)26(22)2)13-23(24,15-25)12-16-7-8-17(27)11-20(16)24/h3-8,11,27H,9-10,12-15H2,1-2H3/t23-,24-/m1/s1

>  <IUPAC Name>  (1) 
(1S,13R)-10,22-dimethyl-10,22-diazahexacyclo[11.7.4.01,13.03,11.04,9.014,19]tetracosa-3(11),4,6,8,14(19),15,17-heptaen-16-ol

$$$$
