
     RDKit          3D

 33 33  0  0  0  0  0  0  0  0999 V2000
   -4.4813   -2.6791    0.1792 F   0  0  0  0  0  0  0  0  0  0  0  0
   -3.5917   -1.7458   -0.3251 C   0  0  0  0  0  0  0  0  0  0  0  0
   -2.2722   -1.8583    0.3741 C   0  0  0  0  0  0  0  0  0  0  0  0
   -1.2909   -0.9965   -0.0192 O   0  0  0  0  0  0  0  0  0  0  0  0
   -1.1362    0.3532   -0.0012 C   0  0  0  0  0  0  0  0  0  0  0  0
   -2.0192    1.2758    0.4838 C   0  0  0  0  0  0  0  0  0  0  0  0
   -1.7988    2.6454    0.4732 C   0  0  0  0  0  0  0  0  0  0  0  0
   -0.6195    3.0951   -0.0585 C   0  0  0  0  0  0  0  0  0  0  0  0
    0.3030    2.2020   -0.5603 C   0  0  0  0  0  0  0  0  0  0  0  0
    0.0765    0.8410   -0.5449 C   0  0  0  0  0  0  0  0  0  0  0  0
    1.0265   -0.1321   -1.0962 C   0  0  0  0  0  0  0  0  0  0  0  0
    1.2212   -1.3422   -0.1776 C   0  0  0  0  0  0  0  0  0  0  0  0
    2.3343   -0.4690   -0.5578 C   0  0  0  0  0  0  0  0  0  0  0  0
    3.0649    0.1692    0.5658 C   0  0  0  0  0  0  0  0  0  0  0  0
    4.3432   -0.5570    0.7220 N   0  0  0  0  0  0  0  0  0  0  0  0
    1.7582    2.9028   -1.2638 Cl  0  0  0  0  0  0  0  0  0  0  0  0
   -0.3934    4.4249   -0.0746 F   0  0  0  0  0  0  0  0  0  0  0  0
    0.6872    0.0000    0.0000 Cl  0  0  0  0  0  0  0  0  0  0  0  0
   -3.9857   -0.7291   -0.2244 H   0  0  0  0  0  0  0  0  0  0  0  0
   -3.4321   -1.9427   -1.4191 H   0  0  0  0  0  0  0  0  0  0  0  0
   -1.9514   -2.9319    0.4007 H   0  0  0  0  0  0  0  0  0  0  0  0
   -2.4974   -1.6322    1.4615 H   0  0  0  0  0  0  0  0  0  0  0  0
   -2.9467    0.9574    0.9201 H   0  0  0  0  0  0  0  0  0  0  0  0
   -2.5396    3.3386    0.8746 H   0  0  0  0  0  0  0  0  0  0  0  0
    0.8269   -0.3472   -2.1711 H   0  0  0  0  0  0  0  0  0  0  0  0
    1.0732   -2.3449   -0.6271 H   0  0  0  0  0  0  0  0  0  0  0  0
    0.8412   -1.2906    0.8628 H   0  0  0  0  0  0  0  0  0  0  0  0
    3.0495   -0.9415   -1.3096 H   0  0  0  0  0  0  0  0  0  0  0  0
    2.5571    0.0146    1.5521 H   0  0  0  0  0  0  0  0  0  0  0  0
    3.3767    1.2166    0.4249 H   0  0  0  0  0  0  0  0  0  0  0  0
    5.0218   -0.0208    1.3057 H   0  0  0  0  0  0  0  0  0  0  0  0
    4.0823   -1.4759    1.1463 H   0  0  0  0  0  0  0  0  0  0  0  0
   -0.6872    0.0000    0.0000 H   0  0  0  0  0  0  0  0  0  0  0  0
  1  2  1  0
  2  3  1  0
  3  4  1  0
  4  5  1  0
  5  6  2  0
  6  7  1  0
  7  8  2  0
  8  9  1  0
  9 10  2  0
 10 11  1  0
 11 12  1  0
 12 13  1  0
 13 14  1  0
 14 15  1  0
  9 16  1  0
  8 17  1  0
 10  5  1  0
 13 11  1  0
  2 19  1  0
  2 20  1  0
  3 21  1  0
  3 22  1  0
  6 23  1  0
  7 24  1  0
 11 25  1  0
 12 26  1  0
 12 27  1  0
 13 28  1  0
 14 29  1  0
 14 30  1  0
 15 31  1  0
 15 32  1  0
 18 33  1  0
M  END
>  <Ligand ID>  (1) 
LIG0002854

>  <Ligand>  (1) 
CHEMBL3770862

>  <SMILES>  (1) 
FCCOc1ccc(c(c1C1CC1CN)Cl)F.Cl

>  <CID>  (1) 
127028732.0

>  <ChEMBL ID>  (1) 
nan

>  <InChiKey>  (1) 
CQZYWGQCJACRGC-UHFFFAOYSA-N

>  <InChi>  (1) 
InChI=1S/C12H14ClF2NO.ClH/c13-12-9(15)1-2-10(17-4-3-14)11(12)8-5-7(8)6-16;/h1-2,7-8H,3-6,16H2;1H

>  <IUPAC Name>  (1) 
[2-[2-chloro-3-fluoro-6-(2-fluoroethoxy)phenyl]cyclopropyl]methanamine;hydrochloride

$$$$
