
     RDKit          3D

 25 25  0  0  0  0  0  0  0  0999 V2000
    3.6312    0.0911   -0.5387 C   0  0  0  0  0  0  0  0  0  0  0  0
    2.8071    1.0421    0.1074 N   0  0  0  0  0  0  0  0  0  0  0  0
    1.4121    1.0112   -0.1781 C   0  0  0  0  0  0  0  0  0  0  0  0
    0.7465   -0.2159    0.3701 C   0  0  1  0  0  0  0  0  0  0  0  0
   -0.6871   -0.2956    0.1859 C   0  0  0  0  0  0  0  0  0  0  0  0
   -1.3071   -1.5254    0.4219 C   0  0  0  0  0  0  0  0  0  0  0  0
   -2.6726   -1.6852    0.2725 C   0  0  0  0  0  0  0  0  0  0  0  0
   -3.4080   -0.5850   -0.1197 C   0  0  0  0  0  0  0  0  0  0  0  0
   -2.7855    0.6315   -0.3522 C   0  0  0  0  0  0  0  0  0  0  0  0
   -1.4323    0.7765   -0.2008 C   0  0  0  0  0  0  0  0  0  0  0  0
   -3.5545    1.7311   -0.7470 O   0  0  0  0  0  0  0  0  0  0  0  0
    1.3217   -1.3777   -0.2050 O   0  0  0  0  0  0  0  0  0  0  0  0
    3.2109   -0.3336   -1.4616 H   0  0  0  0  0  0  0  0  0  0  0  0
    4.6072    0.5502   -0.7831 H   0  0  0  0  0  0  0  0  0  0  0  0
    3.8841   -0.7107    0.2047 H   0  0  0  0  0  0  0  0  0  0  0  0
    2.9811    1.1359    1.1121 H   0  0  0  0  0  0  0  0  0  0  0  0
    1.1687    1.1548   -1.2432 H   0  0  0  0  0  0  0  0  0  0  0  0
    0.9771    1.8794    0.3918 H   0  0  0  0  0  0  0  0  0  0  0  0
    0.9982   -0.3039    1.4517 H   0  0  0  0  0  0  0  0  0  0  0  0
   -0.7141   -2.3771    0.7298 H   0  0  0  0  0  0  0  0  0  0  0  0
   -3.1363   -2.6473    0.4623 H   0  0  0  0  0  0  0  0  0  0  0  0
   -4.4971   -0.7043   -0.2408 H   0  0  0  0  0  0  0  0  0  0  0  0
   -1.0019    1.7419   -0.3970 H   0  0  0  0  0  0  0  0  0  0  0  0
   -3.4541    2.5914   -0.2458 H   0  0  0  0  0  0  0  0  0  0  0  0
    0.9048   -1.5753   -1.0881 H   0  0  0  0  0  0  0  0  0  0  0  0
  1  2  1  0
  2  3  1  0
  3  4  1  0
  4  5  1  0
  5  6  2  0
  6  7  1  0
  7  8  2  0
  8  9  1  0
  9 10  2  0
  9 11  1  0
  4 12  1  0
 10  5  1  0
  1 13  1  0
  1 14  1  0
  1 15  1  0
  2 16  1  0
  3 17  1  0
  3 18  1  0
  4 19  1  1
  6 20  1  0
  7 21  1  0
  8 22  1  0
 10 23  1  0
 11 24  1  0
 12 25  1  0
M  END
>  <Ligand ID>  (1) 
LIG0000518

>  <Ligand>  (1) 
phenylephrine

>  <SMILES>  (1) 
CNC[C@@H](c1cccc(c1)O)O

>  <CID>  (1) 
6041.0

>  <ChEMBL ID>  (1) 
nan

>  <InChiKey>  (1) 
SONNWYBIRXJNDC-VIFPVBQESA-N

>  <InChi>  (1) 
InChI=1S/C9H13NO2/c1-10-6-9(12)7-3-2-4-8(11)5-7/h2-5,9-12H,6H2,1H3/t9-/m0/s1

>  <IUPAC Name>  (1) 
3-[(1R)-1-hydroxy-2-(methylamino)ethyl]phenol

$$$$
