
     RDKit          3D

 50 52  0  0  0  0  0  0  0  0999 V2000
   -2.7896   -0.1541   -1.5252 O   0  0  0  0  0  0  0  0  0  0  0  0
   -2.7467    0.5379   -0.3150 C   0  0  1  0  0  0  0  0  0  0  0  0
   -4.0394    0.3454    0.4668 C   0  0  0  0  0  0  0  0  0  0  0  0
   -5.2132    0.8288   -0.2693 C   0  0  0  0  0  0  0  0  0  0  0  0
   -5.9693    0.0584   -1.1312 C   0  0  0  0  0  0  0  0  0  0  0  0
   -7.0624    0.5909   -1.7875 C   0  0  0  0  0  0  0  0  0  0  0  0
   -7.4079    1.9086   -1.5832 C   0  0  0  0  0  0  0  0  0  0  0  0
   -6.6789    2.7095   -0.7313 C   0  0  0  0  0  0  0  0  0  0  0  0
   -5.5899    2.1532   -0.0868 C   0  0  0  0  0  0  0  0  0  0  0  0
   -1.6458    0.0266    0.5540 C   0  0  0  0  0  0  0  0  0  0  0  0
   -0.4834   -0.4070    0.0635 C   0  0  0  0  0  0  0  0  0  0  0  0
    0.5620   -0.8999    0.9870 C   0  0  1  0  0  0  0  0  0  0  0  0
   -0.1217   -1.4952    2.1966 C   0  0  0  0  0  0  0  0  0  0  0  0
    0.9448   -2.4422    2.7325 C   0  0  0  0  0  0  0  0  0  0  0  0
    1.6247   -2.9455    1.5111 C   0  0  0  0  0  0  0  0  0  0  0  0
    2.3184   -4.0042    1.3832 O   0  0  0  0  0  0  0  0  0  0  0  0
    1.3416   -1.9895    0.4887 N   0  0  0  0  0  0  0  0  0  0  0  0
    1.8144   -2.1566   -0.8737 C   0  0  0  0  0  0  0  0  0  0  0  0
    3.1778   -1.5206   -1.0648 C   0  0  0  0  0  0  0  0  0  0  0  0
    3.1080    0.2694   -0.7092 S   0  0  0  0  0  0  0  0  0  0  0  0
    4.7663    0.9159   -0.9645 C   0  0  0  0  0  0  0  0  0  0  0  0
    5.2171    1.5381   -2.7384 S   0  0  0  0  0  0  0  0  0  0  0  0
    6.9031    1.9658   -2.1208 C   0  0  0  0  0  0  0  0  0  0  0  0
    6.8976    1.6159   -0.7925 C   0  0  0  0  0  0  0  0  0  0  0  0
    5.7372    1.1118   -0.4167 N   0  0  0  0  0  0  0  0  0  0  0  0
    8.0875    1.8095    0.0566 C   0  0  0  0  0  0  0  0  0  0  0  0
    9.1021    2.3082   -0.4953 O   0  0  0  0  0  0  0  0  0  0  0  0
    8.1289    1.4766    1.3847 O   0  0  0  0  0  0  0  0  0  0  0  0
   -2.8501   -1.1346   -1.3619 H   0  0  0  0  0  0  0  0  0  0  0  0
   -2.5915    1.5961   -0.5782 H   0  0  0  0  0  0  0  0  0  0  0  0
   -3.9570    0.8982    1.4211 H   0  0  0  0  0  0  0  0  0  0  0  0
   -4.1614   -0.7230    0.7352 H   0  0  0  0  0  0  0  0  0  0  0  0
   -5.6523   -0.9720   -1.2546 H   0  0  0  0  0  0  0  0  0  0  0  0
   -7.6192   -0.0545   -2.4502 H   0  0  0  0  0  0  0  0  0  0  0  0
   -8.2824    2.2764   -2.1291 H   0  0  0  0  0  0  0  0  0  0  0  0
   -6.9481    3.7412   -0.5702 H   0  0  0  0  0  0  0  0  0  0  0  0
   -5.0289    2.8145    0.5849 H   0  0  0  0  0  0  0  0  0  0  0  0
   -1.7677   -0.0062    1.6442 H   0  0  0  0  0  0  0  0  0  0  0  0
   -0.3398   -0.3827   -1.0293 H   0  0  0  0  0  0  0  0  0  0  0  0
    1.2494   -0.0864    1.2959 H   0  0  0  0  0  0  0  0  0  0  0  0
   -1.0264   -2.0360    1.9024 H   0  0  0  0  0  0  0  0  0  0  0  0
   -0.3534   -0.7016    2.9451 H   0  0  0  0  0  0  0  0  0  0  0  0
    1.6799   -1.7852    3.2544 H   0  0  0  0  0  0  0  0  0  0  0  0
    0.5304   -3.2253    3.3693 H   0  0  0  0  0  0  0  0  0  0  0  0
    1.1346   -1.6803   -1.6043 H   0  0  0  0  0  0  0  0  0  0  0  0
    1.9355   -3.2178   -1.1601 H   0  0  0  0  0  0  0  0  0  0  0  0
    3.9707   -2.0131   -0.4851 H   0  0  0  0  0  0  0  0  0  0  0  0
    3.4373   -1.6243   -2.1372 H   0  0  0  0  0  0  0  0  0  0  0  0
    7.6856    2.4165   -2.7971 H   0  0  0  0  0  0  0  0  0  0  0  0
    8.9718    1.7441    1.9081 H   0  0  0  0  0  0  0  0  0  0  0  0
  1  2  1  0
  2  3  1  0
  3  4  1  0
  4  5  2  0
  5  6  1  0
  6  7  2  0
  7  8  1  0
  8  9  2  0
  2 10  1  0
 10 11  2  0
 11 12  1  0
 12 13  1  0
 13 14  1  0
 14 15  1  0
 15 16  2  0
 15 17  1  0
 17 18  1  0
 18 19  1  0
 19 20  1  0
 20 21  1  0
 21 22  1  0
 22 23  1  0
 23 24  2  0
 24 25  1  0
 24 26  1  0
 26 27  2  0
 26 28  1  0
  9  4  1  0
 17 12  1  0
 25 21  2  0
  1 29  1  0
  2 30  1  6
  3 31  1  0
  3 32  1  0
  5 33  1  0
  6 34  1  0
  7 35  1  0
  8 36  1  0
  9 37  1  0
 10 38  1  0
 11 39  1  0
 12 40  1  1
 13 41  1  0
 13 42  1  0
 14 43  1  0
 14 44  1  0
 18 45  1  0
 18 46  1  0
 19 47  1  0
 19 48  1  0
 23 49  1  0
 28 50  1  0
M  END
>  <Ligand ID>  (1) 
LIG0002922

>  <Ligand>  (1) 
CHEMBL1933725

>  <SMILES>  (1) 
O[C@@H](Cc1ccccc1)/C=C/[C@H]1CCC(=O)N1CCSc1scc(n1)C(=O)O

>  <CID>  (1) 
57395059.0

>  <ChEMBL ID>  (1) 
nan

>  <InChiKey>  (1) 
PBPWYKTUFBNANN-BWVNKGDMSA-N

>  <InChi>  (1) 
InChI=1S/C20H22N2O4S2/c23-16(12-14-4-2-1-3-5-14)8-6-15-7-9-18(24)22(15)10-11-27-20-21-17(13-28-20)19(25)26/h1-6,8,13,15-16,23H,7,9-12H2,(H,25,26)/b8-6+/t15-,16+/m0/s1

>  <IUPAC Name>  (1) 
2-[2-[(2R)-2-[(E,3S)-3-hydroxy-4-phenylbut-1-enyl]-5-oxopyrrolidin-1-yl]ethylsulfanyl]-1,3-thiazole-4-carboxylic acid

$$$$
