
     RDKit          3D

 58 60  0  0  0  0  0  0  0  0999 V2000
   -9.9250    0.5830   -0.0848 C   0  0  0  0  0  0  0  0  0  0  0  0
   -8.7851    0.1812   -0.0001 C   0  0  0  0  0  0  0  0  0  0  0  0
   -7.3959   -0.3263    0.1193 C   0  0  0  0  0  0  0  0  0  0  0  0
   -7.1920   -1.3335   -0.9179 N   0  0  0  0  0  0  0  0  0  0  0  0
   -5.9690   -2.0321   -1.0827 C   0  0  0  0  0  0  0  0  0  0  0  0
   -5.7886   -2.9794   -2.0664 C   0  0  0  0  0  0  0  0  0  0  0  0
   -4.6142   -3.6765   -2.2498 C   0  0  0  0  0  0  0  0  0  0  0  0
   -3.5594   -3.4120   -1.4018 C   0  0  0  0  0  0  0  0  0  0  0  0
   -3.7205   -2.4539   -0.3958 C   0  0  0  0  0  0  0  0  0  0  0  0
   -4.9069   -1.7665   -0.2297 C   0  0  0  0  0  0  0  0  0  0  0  0
   -2.5320   -2.2356    0.4750 C   0  0  2  0  0  0  0  0  0  0  0  0
   -1.4272   -1.4676   -0.2387 C   0  0  0  0  0  0  0  0  0  0  0  0
   -0.3515   -1.3023    0.6955 N   0  0  0  0  0  0  0  0  0  0  0  0
    0.7771   -0.5861    0.1696 C   0  0  1  0  0  0  0  0  0  0  0  0
    1.8430   -0.4671    1.2224 C   0  0  0  0  0  0  0  0  0  0  0  0
    3.0513    0.2471    0.8039 C   0  0  0  0  0  0  0  0  0  0  0  0
    4.2545   -0.3955    0.4861 C   0  0  0  0  0  0  0  0  0  0  0  0
    5.1755    0.5328    0.1391 N   0  0  0  0  0  0  0  0  0  0  0  0
    4.5991    1.7386    0.2257 C   0  0  0  0  0  0  0  0  0  0  0  0
    3.2892    1.5952    0.6333 C   0  0  0  0  0  0  0  0  0  0  0  0
    2.4666    2.6853    0.8032 C   0  0  0  0  0  0  0  0  0  0  0  0
    3.0005    3.9424    0.5498 C   0  0  0  0  0  0  0  0  0  0  0  0
    4.3184    4.0898    0.1395 C   0  0  0  0  0  0  0  0  0  0  0  0
    5.1535    2.9814   -0.0329 C   0  0  0  0  0  0  0  0  0  0  0  0
    6.4664    3.0984   -0.4394 O   0  0  0  0  0  0  0  0  0  0  0  0
    7.7957    3.2760    0.5763 S   0  0  0  0  0  0  0  0  0  0  0  0
    8.5387    1.9484    0.5905 O   0  0  0  0  0  0  0  0  0  0  0  0
    8.7419    4.2948    0.0476 O   0  0  0  0  0  0  0  0  0  0  0  0
    7.3587    3.6940    2.2401 C   0  0  0  0  0  0  0  0  0  0  0  0
    1.2276   -1.1934   -1.1103 C   0  0  0  0  0  0  0  0  0  0  0  0
   -1.9810   -3.4759    0.8660 O   0  0  0  0  0  0  0  0  0  0  0  0
  -10.9244    0.9266   -0.1756 H   0  0  0  0  0  0  0  0  0  0  0  0
   -7.2522   -0.7428    1.1236 H   0  0  0  0  0  0  0  0  0  0  0  0
   -6.6912    0.5130   -0.1076 H   0  0  0  0  0  0  0  0  0  0  0  0
   -7.9792   -1.5720   -1.5922 H   0  0  0  0  0  0  0  0  0  0  0  0
   -6.6224   -3.1941   -2.7431 H   0  0  0  0  0  0  0  0  0  0  0  0
   -4.5092   -4.4195   -3.0402 H   0  0  0  0  0  0  0  0  0  0  0  0
   -2.6485   -3.9497   -1.5409 H   0  0  0  0  0  0  0  0  0  0  0  0
   -4.9573   -1.0462    0.5632 H   0  0  0  0  0  0  0  0  0  0  0  0
   -2.7663   -1.6887    1.4062 H   0  0  0  0  0  0  0  0  0  0  0  0
   -1.8137   -0.4332   -0.4548 H   0  0  0  0  0  0  0  0  0  0  0  0
   -1.1165   -1.9173   -1.1812 H   0  0  0  0  0  0  0  0  0  0  0  0
   -0.1138   -2.2212    1.1333 H   0  0  0  0  0  0  0  0  0  0  0  0
    0.3989    0.4462   -0.0663 H   0  0  0  0  0  0  0  0  0  0  0  0
    2.0864   -1.4851    1.5881 H   0  0  0  0  0  0  0  0  0  0  0  0
    1.3489    0.0267    2.1055 H   0  0  0  0  0  0  0  0  0  0  0  0
    4.4469   -1.4671    0.5064 H   0  0  0  0  0  0  0  0  0  0  0  0
    6.1729    0.3317   -0.1488 H   0  0  0  0  0  0  0  0  0  0  0  0
    1.4419    2.5531    1.1237 H   0  0  0  0  0  0  0  0  0  0  0  0
    2.4029    4.8382    0.6661 H   0  0  0  0  0  0  0  0  0  0  0  0
    4.7229    5.0955   -0.0567 H   0  0  0  0  0  0  0  0  0  0  0  0
    7.3275    4.7923    2.3796 H   0  0  0  0  0  0  0  0  0  0  0  0
    6.3559    3.2774    2.4761 H   0  0  0  0  0  0  0  0  0  0  0  0
    8.0927    3.2428    2.9613 H   0  0  0  0  0  0  0  0  0  0  0  0
    1.2783   -2.2872   -1.1453 H   0  0  0  0  0  0  0  0  0  0  0  0
    0.5239   -0.8863   -1.9250 H   0  0  0  0  0  0  0  0  0  0  0  0
    2.2298   -0.7971   -1.4382 H   0  0  0  0  0  0  0  0  0  0  0  0
   -1.3445   -3.7208    0.1414 H   0  0  0  0  0  0  0  0  0  0  0  0
  1  2  3  0
  2  3  1  0
  3  4  1  0
  4  5  1  0
  5  6  2  0
  6  7  1  0
  7  8  2  0
  8  9  1  0
  9 10  2  0
  9 11  1  0
 11 12  1  0
 12 13  1  0
 13 14  1  0
 14 15  1  0
 15 16  1  0
 16 17  2  0
 17 18  1  0
 18 19  1  0
 19 20  2  0
 20 21  1  0
 21 22  2  0
 22 23  1  0
 23 24  2  0
 24 25  1  0
 25 26  1  0
 26 27  2  0
 26 28  2  0
 26 29  1  0
 14 30  1  0
 11 31  1  0
 10  5  1  0
 20 16  1  0
 24 19  1  0
  1 32  1  0
  3 33  1  0
  3 34  1  0
  4 35  1  0
  6 36  1  0
  7 37  1  0
  8 38  1  0
 10 39  1  0
 11 40  1  1
 12 41  1  0
 12 42  1  0
 13 43  1  0
 14 44  1  6
 15 45  1  0
 15 46  1  0
 17 47  1  0
 18 48  1  0
 21 49  1  0
 22 50  1  0
 23 51  1  0
 29 52  1  0
 29 53  1  0
 29 54  1  0
 30 55  1  0
 30 56  1  0
 30 57  1  0
 31 58  1  0
M  END
>  <Ligand ID>  (1) 
LIG0002218

>  <Ligand>  (1) 
CHEMBL181300

>  <SMILES>  (1) 
C#CCNc1cccc(c1)[C@H](CN[C@@H](Cc1c[nH]c2c1cccc2OS(=O)(=O)C)C)O

>  <CID>  (1) 
44392575.0

>  <ChEMBL ID>  (1) 
nan

>  <InChiKey>  (1) 
QVLDBBYLIGGRRQ-IERDGZPVSA-N

>  <InChi>  (1) 
InChI=1S/C23H27N3O4S/c1-4-11-24-19-8-5-7-17(13-19)21(27)15-25-16(2)12-18-14-26-23-20(18)9-6-10-22(23)30-31(3,28)29/h1,5-10,13-14,16,21,24-27H,11-12,15H2,2-3H3/t16-,21+/m1/s1

>  <IUPAC Name>  (1) 
[3-[(2R)-2-[[(2R)-2-hydroxy-2-[3-(prop-2-ynylamino)phenyl]ethyl]amino]propyl]-1H-indol-7-yl] methanesulfonate

$$$$
