
     RDKit          3D

101104  0  0  0  0  0  0  0  0999 V2000
    4.3131   -6.8190   -1.4179 N   0  0  0  0  0  0  0  0  0  0  0  0
    4.6740   -5.7554   -2.3018 C   0  0  0  0  0  0  0  0  0  0  0  0
    4.5449   -4.5272   -1.9187 N   0  0  0  0  0  0  0  0  0  0  0  0
    4.0436   -4.1363   -0.6116 C   0  0  0  0  0  0  0  0  0  0  0  0
    2.9692   -3.0902   -0.8252 C   0  0  0  0  0  0  0  0  0  0  0  0
    2.3979   -2.6485    0.4948 C   0  0  0  0  0  0  0  0  0  0  0  0
    1.3339   -1.6288    0.3786 C   0  0  1  0  0  0  0  0  0  0  0  0
    1.7879   -0.3331   -0.2737 C   0  0  0  0  0  0  0  0  0  0  0  0
    1.0662    0.1863   -1.1546 O   0  0  0  0  0  0  0  0  0  0  0  0
    3.0064    0.2031    0.1770 N   0  0  0  0  0  0  0  0  0  0  0  0
    3.5822    1.4681   -0.2752 C   0  0  2  0  0  0  0  0  0  0  0  0
    4.4918    1.3794   -1.4050 C   0  0  0  0  0  0  0  0  0  0  0  0
    5.0338    2.3916   -1.9064 O   0  0  0  0  0  0  0  0  0  0  0  0
    4.8328    0.1270   -2.0361 N   0  0  0  0  0  0  0  0  0  0  0  0
    3.9729    2.2001    0.9468 C   0  0  0  0  0  0  0  0  0  0  0  0
    4.6046    3.5040    0.7667 C   0  0  0  0  0  0  0  0  0  0  0  0
    3.9568    4.7472    0.8366 C   0  0  0  0  0  0  0  0  0  0  0  0
    4.8427    5.7326    0.6140 N   0  0  0  0  0  0  0  0  0  0  0  0
    6.0492    5.2160    0.3989 C   0  0  0  0  0  0  0  0  0  0  0  0
    5.9188    3.8457    0.4899 C   0  0  0  0  0  0  0  0  0  0  0  0
    7.0758    3.1065    0.3108 C   0  0  0  0  0  0  0  0  0  0  0  0
    8.3050    3.6566    0.0539 C   0  0  0  0  0  0  0  0  0  0  0  0
    8.4133    5.0434   -0.0349 C   0  0  0  0  0  0  0  0  0  0  0  0
    7.2812    5.7994    0.1397 C   0  0  0  0  0  0  0  0  0  0  0  0
    0.1445   -2.1052   -0.2545 N   0  0  0  0  0  0  0  0  0  0  0  0
   -1.0465   -1.3703   -0.1481 C   0  0  0  0  0  0  0  0  0  0  0  0
   -0.9428   -0.2736    0.5325 O   0  0  0  0  0  0  0  0  0  0  0  0
   -2.3542   -1.6694   -0.6888 C   0  0  1  0  0  0  0  0  0  0  0  0
   -3.2704   -0.5295   -0.4178 N   0  0  0  0  0  0  0  0  0  0  0  0
   -4.1515   -0.4543    0.6532 C   0  0  0  0  0  0  0  0  0  0  0  0
   -4.2506   -1.3822    1.5364 O   0  0  0  0  0  0  0  0  0  0  0  0
   -5.0114    0.7796    0.7490 C   0  0  1  0  0  0  0  0  0  0  0  0
   -5.8468    0.7872    1.9011 N   0  0  0  0  0  0  0  0  0  0  0  0
   -5.2578    1.0174    3.1755 C   0  0  0  0  0  0  0  0  0  0  0  0
   -4.0143    1.2083    3.2701 O   0  0  0  0  0  0  0  0  0  0  0  0
   -6.0086    1.0492    4.3846 N   0  0  0  0  0  0  0  0  0  0  0  0
   -7.4479    0.8132    4.3893 C   0  0  0  0  0  0  0  0  0  0  0  0
   -5.3723    1.3418    5.6543 C   0  0  0  0  0  0  0  0  0  0  0  0
   -4.2922    2.0468    0.4333 C   0  0  0  0  0  0  0  0  0  0  0  0
   -5.2714    3.1738    0.5513 C   0  0  0  0  0  0  0  0  0  0  0  0
   -5.4220    3.9096    1.7057 C   0  0  0  0  0  0  0  0  0  0  0  0
   -6.3788    4.9339    1.7458 C   0  0  0  0  0  0  0  0  0  0  0  0
   -7.1735    5.2147    0.6410 C   0  0  0  0  0  0  0  0  0  0  0  0
   -7.0204    4.4702   -0.5268 C   0  0  0  0  0  0  0  0  0  0  0  0
   -6.0750    3.4614   -0.5605 C   0  0  0  0  0  0  0  0  0  0  0  0
   -8.3805    6.5024    0.7154 Cl  0  0  0  0  0  0  0  0  0  0  0  0
   -2.5890   -2.0210   -2.0822 C   0  0  0  0  0  0  0  0  0  0  0  0
   -1.9315   -3.2251   -2.6076 C   0  0  0  0  0  0  0  0  0  0  0  0
   -0.7449   -3.2109   -3.3335 C   0  0  0  0  0  0  0  0  0  0  0  0
   -0.1649   -4.3941   -3.8085 C   0  0  0  0  0  0  0  0  0  0  0  0
   -0.7856   -5.5918   -3.5494 C   0  0  0  0  0  0  0  0  0  0  0  0
   -1.9584   -5.6273   -2.8345 C   0  0  0  0  0  0  0  0  0  0  0  0
   -2.5241   -4.4436   -2.3674 C   0  0  0  0  0  0  0  0  0  0  0  0
    5.1769   -5.9952   -3.5967 N   0  0  0  0  0  0  0  0  0  0  0  0
    4.8827   -7.0402   -0.5694 H   0  0  0  0  0  0  0  0  0  0  0  0
    3.4745   -7.4295   -1.5657 H   0  0  0  0  0  0  0  0  0  0  0  0
    3.6304   -5.0019   -0.0651 H   0  0  0  0  0  0  0  0  0  0  0  0
    4.8964   -3.7600   -0.0093 H   0  0  0  0  0  0  0  0  0  0  0  0
    3.3860   -2.2758   -1.4267 H   0  0  0  0  0  0  0  0  0  0  0  0
    2.1284   -3.6342   -1.3581 H   0  0  0  0  0  0  0  0  0  0  0  0
    3.2285   -2.3371    1.1794 H   0  0  0  0  0  0  0  0  0  0  0  0
    1.9958   -3.5916    0.9747 H   0  0  0  0  0  0  0  0  0  0  0  0
    1.0725   -1.2421    1.4082 H   0  0  0  0  0  0  0  0  0  0  0  0
    3.5789   -0.3166    0.8936 H   0  0  0  0  0  0  0  0  0  0  0  0
    2.6563    2.0223   -0.6997 H   0  0  0  0  0  0  0  0  0  0  0  0
    5.7789   -0.2826   -2.0167 H   0  0  0  0  0  0  0  0  0  0  0  0
    4.0438   -0.3325   -2.5219 H   0  0  0  0  0  0  0  0  0  0  0  0
    4.5928    1.5938    1.6607 H   0  0  0  0  0  0  0  0  0  0  0  0
    3.0030    2.4285    1.5281 H   0  0  0  0  0  0  0  0  0  0  0  0
    2.8913    4.9135    1.0451 H   0  0  0  0  0  0  0  0  0  0  0  0
    4.5739    6.7590    0.6199 H   0  0  0  0  0  0  0  0  0  0  0  0
    6.9618    2.0193    0.3870 H   0  0  0  0  0  0  0  0  0  0  0  0
    9.1804    3.0064   -0.0840 H   0  0  0  0  0  0  0  0  0  0  0  0
    9.3925    5.4245   -0.2370 H   0  0  0  0  0  0  0  0  0  0  0  0
    7.3493    6.8783    0.0731 H   0  0  0  0  0  0  0  0  0  0  0  0
    0.1571   -2.9792   -0.7670 H   0  0  0  0  0  0  0  0  0  0  0  0
   -2.7108   -2.5437   -0.0411 H   0  0  0  0  0  0  0  0  0  0  0  0
   -3.1914    0.2481   -1.1464 H   0  0  0  0  0  0  0  0  0  0  0  0
   -5.7183    0.6332   -0.1341 H   0  0  0  0  0  0  0  0  0  0  0  0
   -6.8845    0.6364    1.8901 H   0  0  0  0  0  0  0  0  0  0  0  0
   -8.0066    1.6369    3.8902 H   0  0  0  0  0  0  0  0  0  0  0  0
   -7.8344    0.6548    5.4089 H   0  0  0  0  0  0  0  0  0  0  0  0
   -7.7277   -0.1071    3.8123 H   0  0  0  0  0  0  0  0  0  0  0  0
   -5.6431    0.6675    6.4646 H   0  0  0  0  0  0  0  0  0  0  0  0
   -5.6821    2.3826    5.9554 H   0  0  0  0  0  0  0  0  0  0  0  0
   -4.2671    1.4041    5.5347 H   0  0  0  0  0  0  0  0  0  0  0  0
   -3.9930    2.0269   -0.6394 H   0  0  0  0  0  0  0  0  0  0  0  0
   -3.4337    2.2790    1.0991 H   0  0  0  0  0  0  0  0  0  0  0  0
   -4.8311    3.7437    2.5781 H   0  0  0  0  0  0  0  0  0  0  0  0
   -6.5379    5.5393    2.6140 H   0  0  0  0  0  0  0  0  0  0  0  0
   -7.6542    4.7092   -1.3762 H   0  0  0  0  0  0  0  0  0  0  0  0
   -5.9481    2.8784   -1.4647 H   0  0  0  0  0  0  0  0  0  0  0  0
   -3.6975   -2.1650   -2.2878 H   0  0  0  0  0  0  0  0  0  0  0  0
   -2.3190   -1.2239   -2.8244 H   0  0  0  0  0  0  0  0  0  0  0  0
   -0.2768   -2.2406   -3.5251 H   0  0  0  0  0  0  0  0  0  0  0  0
    0.7530   -4.2738   -4.3567 H   0  0  0  0  0  0  0  0  0  0  0  0
   -0.3099   -6.4884   -3.9263 H   0  0  0  0  0  0  0  0  0  0  0  0
   -2.4211   -6.5969   -2.6494 H   0  0  0  0  0  0  0  0  0  0  0  0
   -3.4522   -4.5605   -1.8123 H   0  0  0  0  0  0  0  0  0  0  0  0
    4.7494   -6.6467   -4.2977 H   0  0  0  0  0  0  0  0  0  0  0  0
    6.0512   -5.5009   -3.9238 H   0  0  0  0  0  0  0  0  0  0  0  0
  1  2  1  0
  2  3  2  3
  3  4  1  0
  4  5  1  0
  5  6  1  0
  6  7  1  0
  7  8  1  0
  8  9  2  0
  8 10  1  0
 10 11  1  0
 11 12  1  0
 12 13  2  0
 12 14  1  0
 11 15  1  0
 15 16  1  0
 16 17  2  0
 17 18  1  0
 18 19  1  0
 19 20  2  0
 20 21  1  0
 21 22  2  0
 22 23  1  0
 23 24  2  0
  7 25  1  0
 25 26  1  0
 26 27  2  0
 26 28  1  0
 28 29  1  0
 29 30  1  0
 30 31  2  0
 30 32  1  0
 32 33  1  0
 33 34  1  0
 34 35  2  0
 34 36  1  0
 36 37  1  0
 36 38  1  0
 32 39  1  0
 39 40  1  0
 40 41  2  0
 41 42  1  0
 42 43  2  0
 43 44  1  0
 44 45  2  0
 43 46  1  0
 28 47  1  0
 47 48  1  0
 48 49  2  0
 49 50  1  0
 50 51  2  0
 51 52  1  0
 52 53  2  0
  2 54  1  0
 20 16  1  0
 45 40  1  0
 53 48  1  0
 24 19  1  0
  1 55  1  0
  1 56  1  0
  4 57  1  0
  4 58  1  0
  5 59  1  0
  5 60  1  0
  6 61  1  0
  6 62  1  0
  7 63  1  1
 10 64  1  0
 11 65  1  6
 14 66  1  0
 14 67  1  0
 15 68  1  0
 15 69  1  0
 17 70  1  0
 18 71  1  0
 21 72  1  0
 22 73  1  0
 23 74  1  0
 24 75  1  0
 25 76  1  0
 28 77  1  1
 29 78  1  0
 32 79  1  6
 33 80  1  0
 37 81  1  0
 37 82  1  0
 37 83  1  0
 38 84  1  0
 38 85  1  0
 38 86  1  0
 39 87  1  0
 39 88  1  0
 41 89  1  0
 42 90  1  0
 44 91  1  0
 45 92  1  0
 47 93  1  0
 47 94  1  0
 49 95  1  0
 50 96  1  0
 51 97  1  0
 52 98  1  0
 53 99  1  0
 54100  1  0
 54101  1  0
M  END
>  <Ligand ID>  (1) 
LIG0004508

>  <Ligand>  (1) 
CHEMBL361252

>  <SMILES>  (1) 
NC(=NCCC[C@@H](C(=O)N[C@H](C(=O)N)Cc1c[nH]c2c1cccc2)NC(=O)[C@@H](NC(=O)[C@@H](NC(=O)N(C)C)Cc1ccc(cc1)Cl)Cc1ccccc1)N

>  <CID>  (1) 
44394732.0

>  <ChEMBL ID>  (1) 
nan

>  <InChiKey>  (1) 
FUWKSSQMNWEROC-YDPTYEFTSA-N

>  <InChi>  (1) 
InChI=1S/C38H47ClN10O5/c1-49(2)38(54)48-32(20-24-14-16-26(39)17-15-24)36(53)47-31(19-23-9-4-3-5-10-23)35(52)45-29(13-8-18-43-37(41)42)34(51)46-30(33(40)50)21-25-22-44-28-12-7-6-11-27(25)28/h3-7,9-12,14-17,22,29-32,44H,8,13,18-21H2,1-2H3,(H2,40,50)(H,45,52)(H,46,51)(H,47,53)(H,48,54)(H4,41,42,43)/t29-,30-,31-,32-/m0/s1

>  <IUPAC Name>  (1) 
(2S)-N-[(2S)-1-amino-3-(1H-indol-3-yl)-1-oxopropan-2-yl]-2-[[(2S)-2-[[(2S)-3-(4-chlorophenyl)-2-(dimethylcarbamoylamino)propanoyl]amino]-3-phenylpropanoyl]amino]-5-(diaminomethylideneamino)pentanamide

$$$$
