
     RDKit          3D

 56 58  0  0  0  0  0  0  0  0999 V2000
   -2.4956   -0.7620    1.9682 O   0  0  0  0  0  0  0  0  0  0  0  0
   -3.6043   -0.8404    1.1069 C   0  0  2  0  0  0  0  0  0  0  0  0
   -4.7983   -1.0662    2.0026 C   0  0  0  0  0  0  0  0  0  0  0  0
   -5.9599   -1.1503    1.2954 O   0  0  0  0  0  0  0  0  0  0  0  0
   -6.5630   -0.2035    0.5584 C   0  0  0  0  0  0  0  0  0  0  0  0
   -6.1723    1.0992    0.3605 C   0  0  0  0  0  0  0  0  0  0  0  0
   -6.9036    1.9754   -0.4436 C   0  0  0  0  0  0  0  0  0  0  0  0
   -8.0468    1.5670   -1.0693 C   0  0  0  0  0  0  0  0  0  0  0  0
   -8.4316    0.2868   -0.8740 N   0  0  0  0  0  0  0  0  0  0  0  0
   -7.7474   -0.5728   -0.1082 C   0  0  0  0  0  0  0  0  0  0  0  0
   -3.4626   -2.0918    0.2201 C   0  0  0  0  0  0  0  0  0  0  0  0
   -2.2561   -1.9749   -0.5233 N   0  0  0  0  0  0  0  0  0  0  0  0
   -2.2798   -0.9378   -1.5250 C   0  0  0  0  0  0  0  0  0  0  0  0
   -0.9503   -0.9234   -2.2630 C   0  0  0  0  0  0  0  0  0  0  0  0
    0.1789   -0.6619   -1.3338 C   0  0  0  0  0  0  0  0  0  0  0  0
    0.5123    0.6770   -1.1398 C   0  0  0  0  0  0  0  0  0  0  0  0
    1.5485    1.0175   -0.2940 C   0  0  0  0  0  0  0  0  0  0  0  0
    2.2523   -0.0019    0.3597 C   0  0  0  0  0  0  0  0  0  0  0  0
    1.9273   -1.3348    0.1721 C   0  0  0  0  0  0  0  0  0  0  0  0
    0.8751   -1.6632   -0.6878 C   0  0  0  0  0  0  0  0  0  0  0  0
    3.3078    0.4180    1.2182 N   0  0  0  0  0  0  0  0  0  0  0  0
    4.6017    0.5591    0.6423 C   0  0  0  0  0  0  0  0  0  0  0  0
    4.8149    0.3234   -0.5814 O   0  0  0  0  0  0  0  0  0  0  0  0
    5.6990    0.9925    1.5206 C   0  0  0  0  0  0  0  0  0  0  0  0
    6.9947    1.1133    0.8188 C   0  0  0  0  0  0  0  0  0  0  0  0
    7.8440    0.0241    0.7503 C   0  0  0  0  0  0  0  0  0  0  0  0
    9.0459    0.1764    0.0867 C   0  0  0  0  0  0  0  0  0  0  0  0
    9.3722    1.3881   -0.4849 C   0  0  0  0  0  0  0  0  0  0  0  0
    8.4647    2.4209   -0.3677 C   0  0  0  0  0  0  0  0  0  0  0  0
    7.2877    2.3082    0.2698 N   0  0  0  0  0  0  0  0  0  0  0  0
   -2.1372    0.1611    1.9780 H   0  0  0  0  0  0  0  0  0  0  0  0
   -3.6884    0.0020    0.4297 H   0  0  0  0  0  0  0  0  0  0  0  0
   -4.8496   -0.1758    2.7028 H   0  0  0  0  0  0  0  0  0  0  0  0
   -4.6032   -1.9597    2.6512 H   0  0  0  0  0  0  0  0  0  0  0  0
   -5.3085    1.5052    0.8270 H   0  0  0  0  0  0  0  0  0  0  0  0
   -6.5705    2.9902   -0.5797 H   0  0  0  0  0  0  0  0  0  0  0  0
   -8.6307    2.2195   -1.6946 H   0  0  0  0  0  0  0  0  0  0  0  0
   -8.1352   -1.5698   -0.0160 H   0  0  0  0  0  0  0  0  0  0  0  0
   -4.3597   -2.2126   -0.4124 H   0  0  0  0  0  0  0  0  0  0  0  0
   -3.4438   -2.9893    0.8740 H   0  0  0  0  0  0  0  0  0  0  0  0
   -1.4454   -1.8768    0.0949 H   0  0  0  0  0  0  0  0  0  0  0  0
   -3.0959   -1.2213   -2.2272 H   0  0  0  0  0  0  0  0  0  0  0  0
   -2.5219    0.0628   -1.1695 H   0  0  0  0  0  0  0  0  0  0  0  0
   -0.8432   -1.8869   -2.7974 H   0  0  0  0  0  0  0  0  0  0  0  0
   -1.0250   -0.1395   -3.0544 H   0  0  0  0  0  0  0  0  0  0  0  0
   -0.0216    1.4836   -1.6378 H   0  0  0  0  0  0  0  0  0  0  0  0
    1.8187    2.0563   -0.1336 H   0  0  0  0  0  0  0  0  0  0  0  0
    2.4947   -2.1072    0.6961 H   0  0  0  0  0  0  0  0  0  0  0  0
    0.6029   -2.6948   -0.8505 H   0  0  0  0  0  0  0  0  0  0  0  0
    3.1046    0.6014    2.2038 H   0  0  0  0  0  0  0  0  0  0  0  0
    5.8080    0.2286    2.3391 H   0  0  0  0  0  0  0  0  0  0  0  0
    5.4208    1.9725    1.9533 H   0  0  0  0  0  0  0  0  0  0  0  0
    7.6009   -0.9423    1.1976 H   0  0  0  0  0  0  0  0  0  0  0  0
    9.7725   -0.6347   -0.0123 H   0  0  0  0  0  0  0  0  0  0  0  0
   10.2919    1.5781   -1.0172 H   0  0  0  0  0  0  0  0  0  0  0  0
    8.7096    3.3874   -0.8153 H   0  0  0  0  0  0  0  0  0  0  0  0
  1  2  1  0
  2  3  1  0
  3  4  1  0
  4  5  1  0
  5  6  2  0
  6  7  1  0
  7  8  2  0
  8  9  1  0
  9 10  2  0
  2 11  1  0
 11 12  1  0
 12 13  1  0
 13 14  1  0
 14 15  1  0
 15 16  2  0
 16 17  1  0
 17 18  2  0
 18 19  1  0
 19 20  2  0
 18 21  1  0
 21 22  1  0
 22 23  2  0
 22 24  1  0
 24 25  1  0
 25 26  2  0
 26 27  1  0
 27 28  2  0
 28 29  1  0
 29 30  2  0
 10  5  1  0
 20 15  1  0
 30 25  1  0
  1 31  1  0
  2 32  1  6
  3 33  1  0
  3 34  1  0
  6 35  1  0
  7 36  1  0
  8 37  1  0
 10 38  1  0
 11 39  1  0
 11 40  1  0
 12 41  1  0
 13 42  1  0
 13 43  1  0
 14 44  1  0
 14 45  1  0
 16 46  1  0
 17 47  1  0
 19 48  1  0
 20 49  1  0
 21 50  1  0
 24 51  1  0
 24 52  1  0
 26 53  1  0
 27 54  1  0
 28 55  1  0
 29 56  1  0
M  END
>  <Ligand ID>  (1) 
LIG0002785

>  <Ligand>  (1) 
CHEMBL466713

>  <SMILES>  (1) 
O[C@H](COc1cccnc1)CNCCc1ccc(cc1)NC(=O)Cc1ccccn1

>  <CID>  (1) 
44574687.0

>  <ChEMBL ID>  (1) 
nan

>  <InChiKey>  (1) 
AQJCLQHNMBRSSX-NRFANRHFSA-N

>  <InChi>  (1) 
InChI=1S/C23H26N4O3/c28-21(17-30-22-5-3-11-24-16-22)15-25-13-10-18-6-8-19(9-7-18)27-23(29)14-20-4-1-2-12-26-20/h1-9,11-12,16,21,25,28H,10,13-15,17H2,(H,27,29)/t21-/m0/s1

>  <IUPAC Name>  (1) 
N-[4-[2-[[(2S)-2-hydroxy-3-pyridin-3-yloxypropyl]amino]ethyl]phenyl]-2-pyridin-2-ylacetamide

$$$$
