
     RDKit          3D

 38 37  0  0  0  0  0  0  0  0999 V2000
    4.6801    0.8738    1.5171 C   0  0  0  0  0  0  0  0  0  0  0  0
    4.3364   -0.2291    0.5594 C   0  0  0  0  0  0  0  0  0  0  0  0
    2.8184   -0.2038    0.2395 C   0  0  0  0  0  0  0  0  0  0  0  0
    2.5099   -1.2977   -0.7032 C   0  0  0  0  0  0  0  0  0  0  0  0
    1.1123   -1.4801   -1.1035 C   0  0  0  0  0  0  0  0  0  0  0  0
    0.4381   -0.4539   -1.9022 C   0  0  0  0  0  0  0  0  0  0  0  0
    0.2535    0.9043   -1.3548 C   0  0  0  0  0  0  0  0  0  0  0  0
   -0.4794    0.9422   -0.0507 C   0  0  0  0  0  0  0  0  0  0  0  0
   -1.8868    0.3485   -0.1882 C   0  0  0  0  0  0  0  0  0  0  0  0
   -2.5252    0.4420    1.1818 C   0  0  0  0  0  0  0  0  0  0  0  0
   -3.8310   -0.0723    1.1979 O   0  0  0  0  0  0  0  0  0  0  0  0
   -4.8974    0.3575    0.4637 C   0  0  0  0  0  0  0  0  0  0  0  0
   -4.7384    1.3186   -0.3283 O   0  0  0  0  0  0  0  0  0  0  0  0
   -6.2337   -0.3177    0.6110 C   0  0  0  0  0  0  0  0  0  0  0  0
    4.7999    0.4951    2.5566 H   0  0  0  0  0  0  0  0  0  0  0  0
    3.8982    1.6767    1.5603 H   0  0  0  0  0  0  0  0  0  0  0  0
    5.6387    1.3756    1.2337 H   0  0  0  0  0  0  0  0  0  0  0  0
    4.5429   -1.2169    1.0214 H   0  0  0  0  0  0  0  0  0  0  0  0
    4.8913   -0.1545   -0.3876 H   0  0  0  0  0  0  0  0  0  0  0  0
    2.3299   -0.3402    1.2464 H   0  0  0  0  0  0  0  0  0  0  0  0
    2.5845    0.7969   -0.0815 H   0  0  0  0  0  0  0  0  0  0  0  0
    2.9608   -2.2864   -0.3293 H   0  0  0  0  0  0  0  0  0  0  0  0
    3.0860   -1.1128   -1.6901 H   0  0  0  0  0  0  0  0  0  0  0  0
    1.0058   -2.5141   -1.6006 H   0  0  0  0  0  0  0  0  0  0  0  0
    0.5077   -1.6952   -0.1363 H   0  0  0  0  0  0  0  0  0  0  0  0
    0.9184   -0.3713   -2.9500 H   0  0  0  0  0  0  0  0  0  0  0  0
   -0.6179   -0.8644   -2.1161 H   0  0  0  0  0  0  0  0  0  0  0  0
   -0.4034    1.5116   -2.1207 H   0  0  0  0  0  0  0  0  0  0  0  0
    1.1507    1.5032   -1.3564 H   0  0  0  0  0  0  0  0  0  0  0  0
    0.0471    0.3213    0.6933 H   0  0  0  0  0  0  0  0  0  0  0  0
   -0.5881    1.9392    0.3731 H   0  0  0  0  0  0  0  0  0  0  0  0
   -1.7499   -0.7247   -0.4295 H   0  0  0  0  0  0  0  0  0  0  0  0
   -2.4800    0.8144   -0.9706 H   0  0  0  0  0  0  0  0  0  0  0  0
   -1.9420   -0.1686    1.9016 H   0  0  0  0  0  0  0  0  0  0  0  0
   -2.5216    1.4763    1.5749 H   0  0  0  0  0  0  0  0  0  0  0  0
   -6.5808   -0.5957   -0.4083 H   0  0  0  0  0  0  0  0  0  0  0  0
   -6.0732   -1.2948    1.1243 H   0  0  0  0  0  0  0  0  0  0  0  0
   -6.9617    0.2968    1.1518 H   0  0  0  0  0  0  0  0  0  0  0  0
  1  2  1  0
  2  3  1  0
  3  4  1  0
  4  5  1  0
  5  6  1  0
  6  7  1  0
  7  8  1  0
  8  9  1  0
  9 10  1  0
 10 11  1  0
 11 12  1  0
 12 13  2  0
 12 14  1  0
  1 15  1  0
  1 16  1  0
  1 17  1  0
  2 18  1  0
  2 19  1  0
  3 20  1  0
  3 21  1  0
  4 22  1  0
  4 23  1  0
  5 24  1  0
  5 25  1  0
  6 26  1  0
  6 27  1  0
  7 28  1  0
  7 29  1  0
  8 30  1  0
  8 31  1  0
  9 32  1  0
  9 33  1  0
 10 34  1  0
 10 35  1  0
 14 36  1  0
 14 37  1  0
 14 38  1  0
M  END
>  <Ligand ID>  (1) 
LIG0000172

>  <Ligand>  (1) 
n-Decyl acetate

>  <SMILES>  (1) 
CCCCCCCCCCOC(=O)C

>  <CID>  (1) 
8167.0

>  <ChEMBL ID>  (1) 
nan

>  <InChiKey>  (1) 
NUPSHWCALHZGOV-UHFFFAOYSA-N

>  <InChi>  (1) 
InChI=1S/C12H24O2/c1-3-4-5-6-7-8-9-10-11-14-12(2)13/h3-11H2,1-2H3

>  <IUPAC Name>  (1) 
decyl acetate

$$$$
