
     RDKit          3D

 24 25  0  0  0  0  0  0  0  0999 V2000
   -2.9090    1.5222   -0.5360 N   0  0  0  0  0  0  0  0  0  0  0  0
   -2.3715    0.5913    0.4702 C   0  0  0  0  0  0  0  0  0  0  0  0
   -1.3567   -0.2438   -0.2539 C   0  0  0  0  0  0  0  0  0  0  0  0
   -0.6540   -1.2748    0.5363 C   0  0  2  0  0  0  0  0  0  0  0  0
    0.1775   -1.0843    1.7136 C   0  0  0  0  0  0  0  0  0  0  0  0
    0.8446   -1.4401    0.3962 C   0  0  2  0  0  0  0  0  0  0  0  0
    1.6671   -0.3927   -0.2450 C   0  0  0  0  0  0  0  0  0  0  0  0
    2.7010   -0.6249   -1.1516 C   0  0  0  0  0  0  0  0  0  0  0  0
    3.2473    0.5460   -1.5287 N   0  0  0  0  0  0  0  0  0  0  0  0
    2.5868    1.5198   -0.8845 C   0  0  0  0  0  0  0  0  0  0  0  0
    1.6350    0.9452   -0.1117 N   0  0  0  0  0  0  0  0  0  0  0  0
   -2.2294    2.3055   -0.6956 H   0  0  0  0  0  0  0  0  0  0  0  0
   -2.9892    0.9828   -1.4318 H   0  0  0  0  0  0  0  0  0  0  0  0
   -2.0079    1.1972    1.2922 H   0  0  0  0  0  0  0  0  0  0  0  0
   -3.2456    0.0106    0.8072 H   0  0  0  0  0  0  0  0  0  0  0  0
   -0.6184    0.3621   -0.8122 H   0  0  0  0  0  0  0  0  0  0  0  0
   -1.9532   -0.7424   -1.0798 H   0  0  0  0  0  0  0  0  0  0  0  0
   -1.1825   -2.2777    0.4985 H   0  0  0  0  0  0  0  0  0  0  0  0
    0.4496   -0.0947    2.1312 H   0  0  0  0  0  0  0  0  0  0  0  0
    0.1713   -1.8446    2.5344 H   0  0  0  0  0  0  0  0  0  0  0  0
    1.2463   -2.4799    0.3251 H   0  0  0  0  0  0  0  0  0  0  0  0
    3.0496   -1.5802   -1.5263 H   0  0  0  0  0  0  0  0  0  0  0  0
    2.7542    2.6033   -0.9430 H   0  0  0  0  0  0  0  0  0  0  0  0
    0.9870    1.4941    0.4954 H   0  0  0  0  0  0  0  0  0  0  0  0
  1  2  1  0
  2  3  1  0
  3  4  1  0
  4  5  1  0
  5  6  1  0
  6  7  1  0
  7  8  2  0
  8  9  1  0
  9 10  2  0
 10 11  1  0
  6  4  1  0
 11  7  1  0
  1 12  1  0
  1 13  1  0
  2 14  1  0
  2 15  1  0
  3 16  1  0
  3 17  1  0
  4 18  1  1
  5 19  1  0
  5 20  1  0
  6 21  1  1
  8 22  1  0
 10 23  1  0
 11 24  1  0
M  END
>  <Ligand ID>  (1) 
LIG0001194

>  <Ligand>  (1) 
CHEMBL60716

>  <SMILES>  (1) 
NCC[C@@H]1C[C@@H]1c1cnc[nH]1

>  <CID>  (1) 
10154137.0

>  <ChEMBL ID>  (1) 
nan

>  <InChiKey>  (1) 
OTBYLNCJHFPRTL-RQJHMYQMSA-N

>  <InChi>  (1) 
InChI=1S/C8H13N3/c9-2-1-6-3-7(6)8-4-10-5-11-8/h4-7H,1-3,9H2,(H,10,11)/t6-,7+/m1/s1

>  <IUPAC Name>  (1) 
2-[(1S,2S)-2-(1H-imidazol-5-yl)cyclopropyl]ethanamine

$$$$
