
     RDKit          3D

 68 69  0  0  0  0  0  0  0  0999 V2000
   -6.4375   -3.7088   -1.8031 N   0  0  0  0  0  0  0  0  0  0  0  0
   -5.5556   -2.8874   -1.0727 C   0  0  0  0  0  0  0  0  0  0  0  0
   -4.5395   -3.2924   -0.4598 O   0  0  0  0  0  0  0  0  0  0  0  0
   -5.8247   -1.4143   -1.0039 C   0  0  0  0  0  0  0  0  0  0  0  0
   -4.7870   -0.7583   -0.1969 N   0  0  0  0  0  0  0  0  0  0  0  0
   -3.6486   -0.3023   -0.8911 C   0  0  0  0  0  0  0  0  0  0  0  0
   -3.6112   -0.5338   -2.1394 O   0  0  0  0  0  0  0  0  0  0  0  0
   -2.5018    0.4109   -0.3052 C   0  0  1  0  0  0  0  0  0  0  0  0
   -1.3972    0.4717   -1.3161 N   0  0  0  0  0  0  0  0  0  0  0  0
   -0.1443   -0.0634   -0.9796 C   0  0  0  0  0  0  0  0  0  0  0  0
   -0.0358   -0.5737    0.1881 O   0  0  0  0  0  0  0  0  0  0  0  0
    0.9488   -0.0155   -1.9495 C   0  0  2  0  0  0  0  0  0  0  0  0
    2.1815   -0.6133   -1.4369 N   0  0  0  0  0  0  0  0  0  0  0  0
    2.7414   -0.0422   -0.2778 C   0  0  0  0  0  0  0  0  0  0  0  0
    2.1181    0.9388    0.2323 O   0  0  0  0  0  0  0  0  0  0  0  0
    3.9732   -0.4668    0.4008 C   0  0  2  0  0  0  0  0  0  0  0  0
    4.9444    0.6731    0.5899 C   0  0  0  0  0  0  0  0  0  0  0  0
    6.1467    0.1594    1.2814 C   0  0  0  0  0  0  0  0  0  0  0  0
    6.1115    0.1748    2.6773 C   0  0  0  0  0  0  0  0  0  0  0  0
    7.1769   -0.2744    3.4305 C   0  0  0  0  0  0  0  0  0  0  0  0
    8.2976   -0.7474    2.7658 C   0  0  0  0  0  0  0  0  0  0  0  0
    8.3431   -0.7670    1.3916 C   0  0  0  0  0  0  0  0  0  0  0  0
    7.2678   -0.3136    0.6434 C   0  0  0  0  0  0  0  0  0  0  0  0
    9.4206   -1.2212    3.4561 O   0  0  0  0  0  0  0  0  0  0  0  0
    4.6671   -1.5471   -0.2623 N   0  0  0  0  0  0  0  0  0  0  0  0
    2.7235   -1.7432   -2.1572 C   0  0  0  0  0  0  0  0  0  0  0  0
    1.2977    1.3589   -2.4563 C   0  0  0  0  0  0  0  0  0  0  0  0
   -2.8331    1.8851   -0.1633 C   0  0  0  0  0  0  0  0  0  0  0  0
   -3.9658    2.2392    0.6548 C   0  0  0  0  0  0  0  0  0  0  0  0
   -3.8703    2.4305    2.0373 C   0  0  0  0  0  0  0  0  0  0  0  0
   -4.9772    2.7958    2.7819 C   0  0  0  0  0  0  0  0  0  0  0  0
   -6.2146    2.9797    2.1562 C   0  0  0  0  0  0  0  0  0  0  0  0
   -6.2929    2.7866    0.7869 C   0  0  0  0  0  0  0  0  0  0  0  0
   -5.2064    2.4230    0.0235 C   0  0  0  0  0  0  0  0  0  0  0  0
   -4.9907   -0.6556    1.2306 C   0  0  0  0  0  0  0  0  0  0  0  0
   -6.7616   -3.4985   -2.7875 H   0  0  0  0  0  0  0  0  0  0  0  0
   -6.8038   -4.5955   -1.3439 H   0  0  0  0  0  0  0  0  0  0  0  0
   -6.7722   -1.2705   -0.4814 H   0  0  0  0  0  0  0  0  0  0  0  0
   -5.8070   -1.0500   -2.0424 H   0  0  0  0  0  0  0  0  0  0  0  0
   -2.1490   -0.0708    0.5985 H   0  0  0  0  0  0  0  0  0  0  0  0
   -1.6370    0.9201   -2.2301 H   0  0  0  0  0  0  0  0  0  0  0  0
    0.5928   -0.5691   -2.8721 H   0  0  0  0  0  0  0  0  0  0  0  0
    3.6949   -0.8027    1.4363 H   0  0  0  0  0  0  0  0  0  0  0  0
    5.2915    1.0561   -0.3983 H   0  0  0  0  0  0  0  0  0  0  0  0
    4.4854    1.5056    1.1542 H   0  0  0  0  0  0  0  0  0  0  0  0
    5.2453    0.5404    3.2087 H   0  0  0  0  0  0  0  0  0  0  0  0
    7.1498   -0.2626    4.5154 H   0  0  0  0  0  0  0  0  0  0  0  0
    9.2108   -1.1331    0.8376 H   0  0  0  0  0  0  0  0  0  0  0  0
    7.3174   -0.3306   -0.4155 H   0  0  0  0  0  0  0  0  0  0  0  0
    9.9696   -1.9945    3.0939 H   0  0  0  0  0  0  0  0  0  0  0  0
    5.2401   -1.2688   -1.0707 H   0  0  0  0  0  0  0  0  0  0  0  0
    5.2154   -2.1327    0.3970 H   0  0  0  0  0  0  0  0  0  0  0  0
    2.9372   -2.5849   -1.4705 H   0  0  0  0  0  0  0  0  0  0  0  0
    1.9808   -2.1435   -2.8933 H   0  0  0  0  0  0  0  0  0  0  0  0
    3.6027   -1.4745   -2.7798 H   0  0  0  0  0  0  0  0  0  0  0  0
    1.9892    1.9325   -1.8496 H   0  0  0  0  0  0  0  0  0  0  0  0
    1.8001    1.2214   -3.4594 H   0  0  0  0  0  0  0  0  0  0  0  0
    0.3553    1.9206   -2.7127 H   0  0  0  0  0  0  0  0  0  0  0  0
   -1.9389    2.4489    0.2349 H   0  0  0  0  0  0  0  0  0  0  0  0
   -2.9599    2.2737   -1.2076 H   0  0  0  0  0  0  0  0  0  0  0  0
   -2.9142    2.2874    2.5129 H   0  0  0  0  0  0  0  0  0  0  0  0
   -4.9286    2.9496    3.8516 H   0  0  0  0  0  0  0  0  0  0  0  0
   -7.0863    3.2666    2.7364 H   0  0  0  0  0  0  0  0  0  0  0  0
   -7.2574    2.9342    0.3263 H   0  0  0  0  0  0  0  0  0  0  0  0
   -5.3296    2.2871   -1.0406 H   0  0  0  0  0  0  0  0  0  0  0  0
   -5.8625   -0.0066    1.4696 H   0  0  0  0  0  0  0  0  0  0  0  0
   -4.0835   -0.4512    1.7943 H   0  0  0  0  0  0  0  0  0  0  0  0
   -5.3123   -1.6897    1.5509 H   0  0  0  0  0  0  0  0  0  0  0  0
  1  2  1  0
  2  3  2  0
  2  4  1  0
  4  5  1  0
  5  6  1  0
  6  7  2  0
  6  8  1  0
  8  9  1  0
  9 10  1  0
 10 11  2  0
 10 12  1  0
 12 13  1  0
 13 14  1  0
 14 15  2  0
 14 16  1  0
 16 17  1  0
 17 18  1  0
 18 19  2  0
 19 20  1  0
 20 21  2  0
 21 22  1  0
 22 23  2  0
 21 24  1  0
 16 25  1  0
 13 26  1  0
 12 27  1  0
  8 28  1  0
 28 29  1  0
 29 30  2  0
 30 31  1  0
 31 32  2  0
 32 33  1  0
 33 34  2  0
  5 35  1  0
 23 18  1  0
 34 29  1  0
  1 36  1  0
  1 37  1  0
  4 38  1  0
  4 39  1  0
  8 40  1  1
  9 41  1  0
 12 42  1  6
 16 43  1  1
 17 44  1  0
 17 45  1  0
 19 46  1  0
 20 47  1  0
 22 48  1  0
 23 49  1  0
 24 50  1  0
 25 51  1  0
 25 52  1  0
 26 53  1  0
 26 54  1  0
 26 55  1  0
 27 56  1  0
 27 57  1  0
 27 58  1  0
 28 59  1  0
 28 60  1  0
 30 61  1  0
 31 62  1  0
 32 63  1  0
 33 64  1  0
 34 65  1  0
 35 66  1  0
 35 67  1  0
 35 68  1  0
M  END
>  <Ligand ID>  (1) 
LIG0005364

>  <Ligand>  (1) 
CHEMBL260120

>  <SMILES>  (1) 
NC(=O)CN(C(=O)[C@@H](NC(=O)[C@H](N(C(=O)[C@H](Cc1ccc(cc1)O)N)C)C)Cc1ccccc1)C

>  <CID>  (1) 
24853671.0

>  <ChEMBL ID>  (1) 
nan

>  <InChiKey>  (1) 
GRHNSLXBGRDMSP-CZAAIQMYSA-N

>  <InChi>  (1) 
InChI=1S/C25H33N5O5/c1-16(30(3)24(34)20(26)13-18-9-11-19(31)12-10-18)23(33)28-21(14-17-7-5-4-6-8-17)25(35)29(2)15-22(27)32/h4-12,16,20-21,31H,13-15,26H2,1-3H3,(H2,27,32)(H,28,33)/t16-,20+,21+/m1/s1

>  <IUPAC Name>  (1) 
(2S)-2-amino-N-[(2R)-1-[[(2S)-1-[(2-amino-2-oxoethyl)-methylamino]-1-oxo-3-phenylpropan-2-yl]amino]-1-oxopropan-2-yl]-3-(4-hydroxyphenyl)-N-methylpropanamide

$$$$
