
     RDKit          3D

 56 58  0  0  0  0  0  0  0  0999 V2000
   -5.8600    4.7422    0.4848 O   0  0  0  0  0  0  0  0  0  0  0  0
   -4.9774    3.7918   -0.0595 C   0  0  0  0  0  0  0  0  0  0  0  0
   -3.8849    3.5680    0.9455 C   0  0  2  0  0  0  0  0  0  0  0  0
   -2.8420    2.6178    0.4391 C   0  0  0  0  0  0  0  0  0  0  0  0
   -3.3662    1.2953    0.1958 N   0  0  0  0  0  0  0  0  0  0  0  0
   -2.4703    0.2007    0.1129 C   0  0  0  0  0  0  0  0  0  0  0  0
   -1.1335    0.3662    0.3378 N   0  0  0  0  0  0  0  0  0  0  0  0
   -0.2726   -0.6753    0.3356 C   0  0  0  0  0  0  0  0  0  0  0  0
    1.4573   -0.5535    0.7223 S   0  0  0  0  0  0  0  0  0  0  0  0
    2.0568    1.0961    1.0044 C   0  0  0  0  0  0  0  0  0  0  0  0
    3.1259    1.3714    0.0058 C   0  0  0  0  0  0  0  0  0  0  0  0
    2.9794    1.8948   -1.2376 C   0  0  0  0  0  0  0  0  0  0  0  0
    4.1256    2.0805   -2.0035 C   0  0  0  0  0  0  0  0  0  0  0  0
    5.3711    1.7516   -1.5361 N   0  0  0  0  0  0  0  0  0  0  0  0
    5.5439    1.2334   -0.3143 C   0  0  0  0  0  0  0  0  0  0  0  0
    4.4180    1.0461    0.4503 C   0  0  0  0  0  0  0  0  0  0  0  0
    6.8124    0.8574    0.2749 C   0  0  0  0  0  0  0  0  0  0  0  0
    6.8804    0.3393    1.4506 O   0  0  0  0  0  0  0  0  0  0  0  0
    8.0838    1.0163   -0.3566 N   0  0  0  0  0  0  0  0  0  0  0  0
    9.2366    0.5693    0.4076 C   0  0  0  0  0  0  0  0  0  0  0  0
   -0.7542   -1.9729    0.0896 C   0  0  0  0  0  0  0  0  0  0  0  0
   -2.1026   -2.1750   -0.1438 C   0  0  0  0  0  0  0  0  0  0  0  0
   -2.9310   -1.0761   -0.1255 C   0  0  0  0  0  0  0  0  0  0  0  0
   -4.3370   -1.3507   -0.3713 C   0  0  0  0  0  0  0  0  0  0  0  0
   -5.4583   -1.5593   -0.5489 N   0  0  0  0  0  0  0  0  0  0  0  0
   -2.5986   -3.5328   -0.3853 C   0  0  0  0  0  0  0  0  0  0  0  0
   -2.7269   -4.1128   -1.6086 C   0  0  0  0  0  0  0  0  0  0  0  0
   -3.2138   -5.4229   -1.7104 C   0  0  0  0  0  0  0  0  0  0  0  0
   -3.5564   -6.1063   -0.5625 C   0  0  0  0  0  0  0  0  0  0  0  0
   -3.4356   -5.5384    0.7063 C   0  0  0  0  0  0  0  0  0  0  0  0
   -2.9552   -4.2573    0.7535 C   0  0  0  0  0  0  0  0  0  0  0  0
    0.1467   -3.0966    0.0698 C   0  0  0  0  0  0  0  0  0  0  0  0
    0.8690   -3.9736    0.0619 N   0  0  0  0  0  0  0  0  0  0  0  0
   -4.3914    3.0815    2.1543 O   0  0  0  0  0  0  0  0  0  0  0  0
   -5.4822    5.6526    0.3660 H   0  0  0  0  0  0  0  0  0  0  0  0
   -4.5447    4.1921   -0.9867 H   0  0  0  0  0  0  0  0  0  0  0  0
   -5.4882    2.8121   -0.2201 H   0  0  0  0  0  0  0  0  0  0  0  0
   -3.3799    4.5446    1.2118 H   0  0  0  0  0  0  0  0  0  0  0  0
   -2.4331    2.9871   -0.5550 H   0  0  0  0  0  0  0  0  0  0  0  0
   -1.9539    2.6011    1.1257 H   0  0  0  0  0  0  0  0  0  0  0  0
   -4.4043    1.1119    0.0774 H   0  0  0  0  0  0  0  0  0  0  0  0
    2.4739    1.1835    2.0237 H   0  0  0  0  0  0  0  0  0  0  0  0
    1.2607    1.8819    0.8762 H   0  0  0  0  0  0  0  0  0  0  0  0
    1.9971    2.1407   -1.5723 H   0  0  0  0  0  0  0  0  0  0  0  0
    4.0064    2.5027   -3.0028 H   0  0  0  0  0  0  0  0  0  0  0  0
    4.5331    0.6297    1.4378 H   0  0  0  0  0  0  0  0  0  0  0  0
    8.1390    1.4255   -1.3112 H   0  0  0  0  0  0  0  0  0  0  0  0
    9.1504   -0.5040    0.6692 H   0  0  0  0  0  0  0  0  0  0  0  0
    9.2579    1.1629    1.3648 H   0  0  0  0  0  0  0  0  0  0  0  0
   10.1998    0.7941   -0.1032 H   0  0  0  0  0  0  0  0  0  0  0  0
   -2.4449   -3.5339   -2.4832 H   0  0  0  0  0  0  0  0  0  0  0  0
   -3.3243   -5.9102   -2.6530 H   0  0  0  0  0  0  0  0  0  0  0  0
   -3.9354   -7.1210   -0.5734 H   0  0  0  0  0  0  0  0  0  0  0  0
   -3.6970   -6.0633    1.6013 H   0  0  0  0  0  0  0  0  0  0  0  0
   -2.8477   -3.7889    1.7475 H   0  0  0  0  0  0  0  0  0  0  0  0
   -4.9218    3.7827    2.5677 H   0  0  0  0  0  0  0  0  0  0  0  0
  1  2  1  0
  2  3  1  0
  3  4  1  0
  4  5  1  0
  5  6  1  0
  6  7  2  0
  7  8  1  0
  8  9  1  0
  9 10  1  0
 10 11  1  0
 11 12  2  0
 12 13  1  0
 13 14  2  0
 14 15  1  0
 15 16  2  0
 15 17  1  0
 17 18  2  0
 17 19  1  0
 19 20  1  0
  8 21  2  0
 21 22  1  0
 22 23  2  0
 23 24  1  0
 24 25  3  0
 22 26  1  0
 26 27  2  0
 27 28  1  0
 28 29  2  0
 29 30  1  0
 30 31  2  0
 21 32  1  0
 32 33  3  0
  3 34  1  0
 23  6  1  0
 31 26  1  0
 16 11  1  0
  1 35  1  0
  2 36  1  0
  2 37  1  0
  3 38  1  1
  4 39  1  0
  4 40  1  0
  5 41  1  0
 10 42  1  0
 10 43  1  0
 12 44  1  0
 13 45  1  0
 16 46  1  0
 19 47  1  0
 20 48  1  0
 20 49  1  0
 20 50  1  0
 27 51  1  0
 28 52  1  0
 29 53  1  0
 30 54  1  0
 31 55  1  0
 34 56  1  0
M  END
>  <Ligand ID>  (1) 
LIG0004672

>  <Ligand>  (1) 
SCHEMBL3361261

>  <SMILES>  (1) 
OC[C@H](CNc1nc(SCc2ccnc(c2)C(=O)NC)c(c(c1C#N)c1ccccc1)C#N)O

>  <CID>  (1) 
68613195.0

>  <ChEMBL ID>  (1) 
nan

>  <InChiKey>  (1) 
UGHXOTLFXUPIFS-KRWDZBQOSA-N

>  <InChi>  (1) 
InChI=1S/C24H22N6O3S/c1-27-23(33)20-9-15(7-8-28-20)14-34-24-19(11-26)21(16-5-3-2-4-6-16)18(10-25)22(30-24)29-12-17(32)13-31/h2-9,17,31-32H,12-14H2,1H3,(H,27,33)(H,29,30)/t17-/m0/s1

>  <IUPAC Name>  (1) 
4-[[3,5-dicyano-6-[[(2S)-2,3-dihydroxypropyl]amino]-4-phenylpyridin-2-yl]sulfanylmethyl]-N-methylpyridine-2-carboxamide

$$$$
