
     RDKit          3D

 22 22  0  0  0  0  0  0  0  0999 V2000
    2.7426    1.3186    0.6287 C   0  0  0  0  0  0  0  0  0  0  0  0
    1.5811    0.4296    0.2421 C   0  0  0  0  0  0  0  0  0  0  0  0
    0.8551   -0.3129    1.7264 S   0  0  0  0  0  0  0  0  0  0  0  0
   -0.5421   -1.3851    1.2753 C   0  0  0  0  0  0  0  0  0  0  0  0
   -1.6638   -0.5848    0.7142 C   0  0  0  0  0  0  0  0  0  0  0  0
   -1.9236   -0.2357   -0.5929 C   0  0  0  0  0  0  0  0  0  0  0  0
   -3.0986    0.5161   -0.5791 C   0  0  0  0  0  0  0  0  0  0  0  0
   -3.4864    0.5788    0.7643 C   0  0  0  0  0  0  0  0  0  0  0  0
   -2.6160   -0.0798    1.4772 O   0  0  0  0  0  0  0  0  0  0  0  0
    2.0189   -0.6254   -0.7611 C   0  0  0  0  0  0  0  0  0  0  0  0
    2.8974    1.2940    1.7449 H   0  0  0  0  0  0  0  0  0  0  0  0
    3.6827    0.9521    0.1639 H   0  0  0  0  0  0  0  0  0  0  0  0
    2.5990    2.3777    0.2889 H   0  0  0  0  0  0  0  0  0  0  0  0
    0.7845    1.0446   -0.2416 H   0  0  0  0  0  0  0  0  0  0  0  0
   -0.8640   -2.0159    2.1102 H   0  0  0  0  0  0  0  0  0  0  0  0
   -0.1943   -2.0828    0.4763 H   0  0  0  0  0  0  0  0  0  0  0  0
   -1.3146   -0.5048   -1.4472 H   0  0  0  0  0  0  0  0  0  0  0  0
   -3.5938    0.9513   -1.4279 H   0  0  0  0  0  0  0  0  0  0  0  0
   -4.3815    1.1104    1.0929 H   0  0  0  0  0  0  0  0  0  0  0  0
    1.6502   -1.6343   -0.5124 H   0  0  0  0  0  0  0  0  0  0  0  0
    3.1416   -0.7126   -0.7659 H   0  0  0  0  0  0  0  0  0  0  0  0
    1.7256   -0.3992   -1.7931 H   0  0  0  0  0  0  0  0  0  0  0  0
  1  2  1  0
  2  3  1  0
  3  4  1  0
  4  5  1  0
  5  6  2  0
  6  7  1  0
  7  8  2  0
  8  9  1  0
  2 10  1  0
  9  5  1  0
  1 11  1  0
  1 12  1  0
  1 13  1  0
  2 14  1  0
  4 15  1  0
  4 16  1  0
  6 17  1  0
  7 18  1  0
  8 19  1  0
 10 20  1  0
 10 21  1  0
 10 22  1  0
M  END
>  <Ligand ID>  (1) 
LIG0000732

>  <Ligand>  (1) 
Furfuryl isopropyl sulfide

>  <SMILES>  (1) 
CC(SCc1ccco1)C

>  <CID>  (1) 
61282.0

>  <ChEMBL ID>  (1) 
nan

>  <InChiKey>  (1) 
WCHRNAKORAINOJ-UHFFFAOYSA-N

>  <InChi>  (1) 
InChI=1S/C8H12OS/c1-7(2)10-6-8-4-3-5-9-8/h3-5,7H,6H2,1-2H3

>  <IUPAC Name>  (1) 
2-(propan-2-ylsulfanylmethyl)furan

$$$$
