
     RDKit          3D

 85 89  0  0  0  0  0  0  0  0999 V2000
   11.9457    0.7427   -1.3179 C   0  0  0  0  0  0  0  0  0  0  0  0
   13.0897    0.0964   -0.6468 C   0  0  0  0  0  0  0  0  0  0  0  0
   13.1196   -1.3423   -0.4230 C   0  0  0  0  0  0  0  0  0  0  0  0
   12.2197   -2.0527    0.4493 C   0  0  0  0  0  0  0  0  0  0  0  0
   10.7819   -2.2601    0.3867 C   0  0  0  0  0  0  0  0  0  0  0  0
    9.8283   -1.1332    0.4704 C   0  0  0  0  0  0  0  0  0  0  0  0
    8.4622   -1.7884    0.5058 N   0  0  0  0  0  0  0  0  0  0  0  0
    7.3766   -0.8830    0.5871 C   0  0  0  0  0  0  0  0  0  0  0  0
    7.5337    0.3754    0.6275 O   0  0  0  0  0  0  0  0  0  0  0  0
    6.0378   -1.4164    0.6251 N   0  0  0  0  0  0  0  0  0  0  0  0
    4.9962   -0.4461    0.7068 C   0  0  0  0  0  0  0  0  0  0  0  0
    4.5726   -0.0519    1.9601 C   0  0  0  0  0  0  0  0  0  0  0  0
    3.5655    0.8872    2.0198 C   0  0  0  0  0  0  0  0  0  0  0  0
    2.9733    1.4402    0.9035 C   0  0  0  0  0  0  0  0  0  0  0  0
    3.4388    1.0071   -0.3226 C   0  0  0  0  0  0  0  0  0  0  0  0
    4.4469    0.0671   -0.4512 C   0  0  0  0  0  0  0  0  0  0  0  0
    1.7421    2.6291    1.1259 S   0  0  0  0  0  0  0  0  0  0  0  0
    1.5648    3.4832   -0.1200 O   0  0  0  0  0  0  0  0  0  0  0  0
    2.1250    3.5068    2.2892 O   0  0  0  0  0  0  0  0  0  0  0  0
    0.2427    1.8905    1.4571 N   0  0  0  0  0  0  0  0  0  0  0  0
   -0.4775    1.0154    0.6268 C   0  0  0  0  0  0  0  0  0  0  0  0
   -0.0035   -0.0980   -0.0037 C   0  0  0  0  0  0  0  0  0  0  0  0
   -0.8209   -0.8872   -0.7852 C   0  0  0  0  0  0  0  0  0  0  0  0
   -2.1564   -0.6003   -0.9740 C   0  0  0  0  0  0  0  0  0  0  0  0
   -2.6504    0.5230   -0.3417 C   0  0  0  0  0  0  0  0  0  0  0  0
   -1.8328    1.3072    0.4360 C   0  0  0  0  0  0  0  0  0  0  0  0
   -4.0517    0.9026   -0.4867 C   0  0  0  0  0  0  0  0  0  0  0  0
   -4.7632    0.6498   -1.6400 C   0  0  0  0  0  0  0  0  0  0  0  0
   -6.0929    1.0323   -1.7224 C   0  0  0  0  0  0  0  0  0  0  0  0
   -6.7705    1.6582   -0.7169 C   0  0  0  0  0  0  0  0  0  0  0  0
   -6.0241    1.9049    0.4470 C   0  0  0  0  0  0  0  0  0  0  0  0
   -4.7023    1.5349    0.5524 C   0  0  0  0  0  0  0  0  0  0  0  0
   -8.1682    2.0810   -0.6905 C   0  0  0  0  0  0  0  0  0  0  0  0
   -9.1529    1.2808    0.0220 C   0  0  0  0  0  0  0  0  0  0  0  0
  -10.4633    1.9767   -0.0772 N   0  0  0  0  0  0  0  0  0  0  0  0
  -11.3143    1.5508    1.0194 C   0  0  0  0  0  0  0  0  0  0  0  0
  -10.8852    0.2432    1.6493 C   0  0  0  0  0  0  0  0  0  0  0  0
  -10.3969   -0.6999    0.5919 C   0  0  0  0  0  0  0  0  0  0  0  0
   -9.4608   -0.0948   -0.3002 C   0  0  0  0  0  0  0  0  0  0  0  0
   -9.0198   -0.9006   -1.2920 C   0  0  0  0  0  0  0  0  0  0  0  0
   -9.4235   -2.2293   -1.4622 C   0  0  0  0  0  0  0  0  0  0  0  0
   -8.9147   -2.9808   -2.5119 O   0  0  0  0  0  0  0  0  0  0  0  0
  -10.3262   -2.7571   -0.5699 C   0  0  0  0  0  0  0  0  0  0  0  0
  -10.8058   -1.9767    0.4558 C   0  0  0  0  0  0  0  0  0  0  0  0
  -10.7421   -4.0675   -0.7138 O   0  0  0  0  0  0  0  0  0  0  0  0
   11.2893    1.2227   -0.5791 H   0  0  0  0  0  0  0  0  0  0  0  0
   11.3940    0.0536   -2.0031 H   0  0  0  0  0  0  0  0  0  0  0  0
   12.3542    1.6101   -1.9525 H   0  0  0  0  0  0  0  0  0  0  0  0
   13.2429    0.6661    0.3433 H   0  0  0  0  0  0  0  0  0  0  0  0
   14.0396    0.4159   -1.1988 H   0  0  0  0  0  0  0  0  0  0  0  0
   14.2151   -1.6624   -0.1705 H   0  0  0  0  0  0  0  0  0  0  0  0
   13.0721   -1.8579   -1.4781 H   0  0  0  0  0  0  0  0  0  0  0  0
   12.3876   -1.6540    1.5588 H   0  0  0  0  0  0  0  0  0  0  0  0
   12.7213   -3.1231    0.6497 H   0  0  0  0  0  0  0  0  0  0  0  0
   10.4822   -3.0693    1.1693 H   0  0  0  0  0  0  0  0  0  0  0  0
   10.4982   -2.8496   -0.5744 H   0  0  0  0  0  0  0  0  0  0  0  0
    9.8724   -0.5107    1.3594 H   0  0  0  0  0  0  0  0  0  0  0  0
    9.7823   -0.4970   -0.4509 H   0  0  0  0  0  0  0  0  0  0  0  0
    8.3823   -2.8177    0.4711 H   0  0  0  0  0  0  0  0  0  0  0  0
    5.8689   -2.4446    0.5937 H   0  0  0  0  0  0  0  0  0  0  0  0
    5.0204   -0.4702    2.8506 H   0  0  0  0  0  0  0  0  0  0  0  0
    3.2241    1.2049    3.0168 H   0  0  0  0  0  0  0  0  0  0  0  0
    2.9976    1.4193   -1.2091 H   0  0  0  0  0  0  0  0  0  0  0  0
    4.8142   -0.2748   -1.4103 H   0  0  0  0  0  0  0  0  0  0  0  0
   -0.2235    2.1022    2.3996 H   0  0  0  0  0  0  0  0  0  0  0  0
    1.0266   -0.3763    0.1160 H   0  0  0  0  0  0  0  0  0  0  0  0
   -0.4328   -1.7805   -1.2891 H   0  0  0  0  0  0  0  0  0  0  0  0
   -2.7954   -1.2220   -1.5883 H   0  0  0  0  0  0  0  0  0  0  0  0
   -2.2685    2.1876    0.9175 H   0  0  0  0  0  0  0  0  0  0  0  0
   -4.2761    0.1526   -2.4757 H   0  0  0  0  0  0  0  0  0  0  0  0
   -6.5973    0.8336   -2.6366 H   0  0  0  0  0  0  0  0  0  0  0  0
   -6.4817    2.3982    1.2960 H   0  0  0  0  0  0  0  0  0  0  0  0
   -4.1770    1.7577    1.4916 H   0  0  0  0  0  0  0  0  0  0  0  0
   -8.1603    3.1068   -0.1976 H   0  0  0  0  0  0  0  0  0  0  0  0
   -8.4960    2.3347   -1.7485 H   0  0  0  0  0  0  0  0  0  0  0  0
   -8.9154    1.3564    1.1246 H   0  0  0  0  0  0  0  0  0  0  0  0
  -10.2138    2.9811    0.1290 H   0  0  0  0  0  0  0  0  0  0  0  0
  -12.3250    1.3761    0.5932 H   0  0  0  0  0  0  0  0  0  0  0  0
  -11.4118    2.3065    1.8204 H   0  0  0  0  0  0  0  0  0  0  0  0
  -11.7898   -0.1718    2.1589 H   0  0  0  0  0  0  0  0  0  0  0  0
  -10.1370    0.4328    2.4362 H   0  0  0  0  0  0  0  0  0  0  0  0
   -8.3378   -0.5314   -2.0188 H   0  0  0  0  0  0  0  0  0  0  0  0
   -8.5963   -2.5716   -3.3770 H   0  0  0  0  0  0  0  0  0  0  0  0
  -11.5164   -2.3968    1.1551 H   0  0  0  0  0  0  0  0  0  0  0  0
  -10.1771   -4.7577   -0.2065 H   0  0  0  0  0  0  0  0  0  0  0  0
  1  2  1  0
  2  3  1  0
  3  4  1  0
  4  5  1  0
  5  6  1  0
  6  7  1  0
  7  8  1  0
  8  9  2  0
  8 10  1  0
 10 11  1  0
 11 12  2  0
 12 13  1  0
 13 14  2  0
 14 15  1  0
 15 16  2  0
 14 17  1  0
 17 18  2  0
 17 19  2  0
 17 20  1  0
 20 21  1  0
 21 22  2  0
 22 23  1  0
 23 24  2  0
 24 25  1  0
 25 26  2  0
 25 27  1  0
 27 28  2  0
 28 29  1  0
 29 30  2  0
 30 31  1  0
 31 32  2  0
 30 33  1  0
 33 34  1  0
 34 35  1  0
 35 36  1  0
 36 37  1  0
 37 38  1  0
 38 39  2  0
 39 40  1  0
 40 41  2  0
 41 42  1  0
 41 43  1  0
 43 44  2  0
 43 45  1  0
 16 11  1  0
 26 21  1  0
 32 27  1  0
 39 34  1  0
 44 38  1  0
  1 46  1  0
  1 47  1  0
  1 48  1  0
  2 49  1  0
  2 50  1  0
  3 51  1  0
  3 52  1  0
  4 53  1  0
  4 54  1  0
  5 55  1  0
  5 56  1  0
  6 57  1  0
  6 58  1  0
  7 59  1  0
 10 60  1  0
 12 61  1  0
 13 62  1  0
 15 63  1  0
 16 64  1  0
 20 65  1  0
 22 66  1  0
 23 67  1  0
 24 68  1  0
 26 69  1  0
 28 70  1  0
 29 71  1  0
 31 72  1  0
 32 73  1  0
 33 74  1  0
 33 75  1  0
 34 76  1  0
 35 77  1  0
 36 78  1  0
 36 79  1  0
 37 80  1  0
 37 81  1  0
 40 82  1  0
 42 83  1  0
 44 84  1  0
 45 85  1  0
M  END
>  <Ligand ID>  (1) 
LIG0004314

>  <Ligand>  (1) 
CHEMBL305891

>  <SMILES>  (1) 
CCCCCCNC(=O)Nc1ccc(cc1)S(=O)(=O)Nc1cccc(c1)c1ccc(cc1)CC1NCCc2c1cc(O)c(c2)O

>  <CID>  (1) 
9896817.0

>  <ChEMBL ID>  (1) 
nan

>  <InChiKey>  (1) 
JCVVZLKASDJTCK-UHFFFAOYSA-N

>  <InChi>  (1) 
InChI=1S/C35H40N4O5S/c1-2-3-4-5-18-37-35(42)38-28-13-15-30(16-14-28)45(43,44)39-29-8-6-7-26(21-29)25-11-9-24(10-12-25)20-32-31-23-34(41)33(40)22-27(31)17-19-36-32/h6-16,21-23,32,36,39-41H,2-5,17-20H2,1H3,(H2,37,38,42)

>  <IUPAC Name>  (1) 
1-[4-[[3-[4-[(6,7-dihydroxy-1,2,3,4-tetrahydroisoquinolin-1-yl)methyl]phenyl]phenyl]sulfamoyl]phenyl]-3-hexylurea

$$$$
