
     RDKit          3D

 38 40  0  0  0  0  0  0  0  0999 V2000
    6.6409    0.9741    0.2875 O   0  0  0  0  0  0  0  0  0  0  0  0
    5.6991    0.3070   -0.4848 C   0  0  0  0  0  0  0  0  0  0  0  0
    5.3307   -0.8424   -0.1338 O   0  0  0  0  0  0  0  0  0  0  0  0
    5.1892    1.0093   -1.6849 C   0  0  0  0  0  0  0  0  0  0  0  0
    4.1708    0.1801   -2.4351 C   0  0  0  0  0  0  0  0  0  0  0  0
    3.0046   -0.1278   -1.5683 C   0  0  0  0  0  0  0  0  0  0  0  0
    2.7937   -1.1392   -0.7652 O   0  0  0  0  0  0  0  0  0  0  0  0
    1.6317   -1.0572   -0.1644 C   0  0  0  0  0  0  0  0  0  0  0  0
    1.0290    0.0800   -0.5930 C   0  0  0  0  0  0  0  0  0  0  0  0
    1.8834    0.7030   -1.4968 C   0  0  0  0  0  0  0  0  0  0  0  0
   -0.2283    0.3897   -0.0923 C   0  0  0  0  0  0  0  0  0  0  0  0
   -0.8682   -0.4382    0.8290 C   0  0  0  0  0  0  0  0  0  0  0  0
   -0.2345   -1.5877    1.2484 C   0  0  0  0  0  0  0  0  0  0  0  0
    1.0149   -1.8895    0.7468 C   0  0  0  0  0  0  0  0  0  0  0  0
   -2.1878   -0.0501    1.3118 C   0  0  0  0  0  0  0  0  0  0  0  0
   -3.0880    0.3891    0.3407 C   0  0  0  0  0  0  0  0  0  0  0  0
   -4.3597    0.7754    0.7142 C   0  0  0  0  0  0  0  0  0  0  0  0
   -4.7615    0.7358    2.0384 C   0  0  0  0  0  0  0  0  0  0  0  0
   -3.8393    0.2949    2.9661 C   0  0  0  0  0  0  0  0  0  0  0  0
   -2.5595   -0.0996    2.6325 C   0  0  0  0  0  0  0  0  0  0  0  0
   -1.4049   -0.6560    3.8274 Cl  0  0  0  0  0  0  0  0  0  0  0  0
   -5.2107    1.2032   -0.2985 O   0  0  0  0  0  0  0  0  0  0  0  0
   -6.0428    0.3196   -0.9841 C   0  0  0  0  0  0  0  0  0  0  0  0
   -5.4212   -0.6887   -1.6536 F   0  0  0  0  0  0  0  0  0  0  0  0
   -6.7651    1.0657   -1.9137 F   0  0  0  0  0  0  0  0  0  0  0  0
   -6.9547   -0.2797   -0.1070 F   0  0  0  0  0  0  0  0  0  0  0  0
    7.2244    0.4510    0.9324 H   0  0  0  0  0  0  0  0  0  0  0  0
    5.9715    1.3977   -2.3337 H   0  0  0  0  0  0  0  0  0  0  0  0
    4.6481    1.9190   -1.2937 H   0  0  0  0  0  0  0  0  0  0  0  0
    4.6997   -0.7604   -2.7138 H   0  0  0  0  0  0  0  0  0  0  0  0
    3.8256    0.7258   -3.3293 H   0  0  0  0  0  0  0  0  0  0  0  0
    1.7035    1.6325   -2.0238 H   0  0  0  0  0  0  0  0  0  0  0  0
   -0.7071    1.2896   -0.4304 H   0  0  0  0  0  0  0  0  0  0  0  0
   -0.7050   -2.2470    1.9600 H   0  0  0  0  0  0  0  0  0  0  0  0
    1.5625   -2.7937    1.0490 H   0  0  0  0  0  0  0  0  0  0  0  0
   -2.7912    0.4293   -0.7192 H   0  0  0  0  0  0  0  0  0  0  0  0
   -5.7725    1.0467    2.3075 H   0  0  0  0  0  0  0  0  0  0  0  0
   -4.1213    0.2494    4.0278 H   0  0  0  0  0  0  0  0  0  0  0  0
  1  2  1  0
  2  3  2  0
  2  4  1  0
  4  5  1  0
  5  6  1  0
  6  7  1  0
  7  8  1  0
  8  9  2  0
  9 10  1  0
  9 11  1  0
 11 12  2  0
 12 13  1  0
 13 14  2  0
 12 15  1  0
 15 16  2  0
 16 17  1  0
 17 18  2  0
 18 19  1  0
 19 20  2  0
 20 21  1  0
 17 22  1  0
 22 23  1  0
 23 24  1  0
 23 25  1  0
 23 26  1  0
 10  6  2  0
 20 15  1  0
 14  8  1  0
  1 27  1  0
  4 28  1  0
  4 29  1  0
  5 30  1  0
  5 31  1  0
 10 32  1  0
 11 33  1  0
 13 34  1  0
 14 35  1  0
 16 36  1  0
 18 37  1  0
 19 38  1  0
M  END
>  <Ligand ID>  (1) 
LIG0002789

>  <Ligand>  (1) 
CHEMBL3899885

>  <SMILES>  (1) 
OC(=O)CCc1oc2c(c1)cc(cc2)c1cc(ccc1Cl)OC(F)(F)F

>  <CID>  (1) 
134133275.0

>  <ChEMBL ID>  (1) 
nan

>  <InChiKey>  (1) 
WVFSVTANMRLGDI-UHFFFAOYSA-N

>  <InChi>  (1) 
InChI=1S/C18H12ClF3O4/c19-15-4-2-13(26-18(20,21)22)9-14(15)10-1-5-16-11(7-10)8-12(25-16)3-6-17(23)24/h1-2,4-5,7-9H,3,6H2,(H,23,24)

>  <IUPAC Name>  (1) 
3-[5-[2-chloro-5-(trifluoromethoxy)phenyl]-1-benzofuran-2-yl]propanoic acid

$$$$
