
     RDKit          3D

 64 66  0  0  0  0  0  0  0  0999 V2000
   -4.9788    3.4879    1.1864 C   0  0  0  0  0  0  0  0  0  0  0  0
   -5.9831    3.3008    0.0895 C   0  0  0  0  0  0  0  0  0  0  0  0
   -6.0224    1.8711   -0.3936 C   0  0  0  0  0  0  0  0  0  0  0  0
   -4.6798    1.4238   -0.9372 C   0  0  0  0  0  0  0  0  0  0  0  0
   -4.7721    0.0026   -1.4021 C   0  0  0  0  0  0  0  0  0  0  0  0
   -5.1414   -1.0002   -0.4086 C   0  0  0  0  0  0  0  0  0  0  0  0
   -4.3219   -1.2351    0.7856 C   0  0  0  0  0  0  0  0  0  0  0  0
   -2.9429   -1.6968    0.5243 C   0  0  0  0  0  0  0  0  0  0  0  0
   -2.4998   -2.2352   -0.6571 C   0  0  0  0  0  0  0  0  0  0  0  0
   -1.1669   -2.6278   -0.8313 C   0  0  0  0  0  0  0  0  0  0  0  0
   -0.3040   -2.4558    0.2321 C   0  0  0  0  0  0  0  0  0  0  0  0
   -0.7099   -1.9188    1.4375 C   0  0  0  0  0  0  0  0  0  0  0  0
   -2.0322   -1.5409    1.5772 C   0  0  0  0  0  0  0  0  0  0  0  0
    1.0863   -2.8326    0.1408 N   0  0  0  0  0  0  0  0  0  0  0  0
    2.1264   -1.8970   -0.3211 C   0  0  1  0  0  0  0  0  0  0  0  0
    2.2550   -0.8123    0.6891 C   0  0  0  0  0  0  0  0  0  0  0  0
    3.2304    0.2638    0.4351 C   0  0  0  0  0  0  0  0  0  0  0  0
    4.6594   -0.1252    0.2904 C   0  0  0  0  0  0  0  0  0  0  0  0
    5.5275    1.0785    0.0633 C   0  0  0  0  0  0  0  0  0  0  0  0
    6.8559    1.1340   -0.1111 C   0  0  0  0  0  0  0  0  0  0  0  0
    7.4306    2.3316   -0.3000 C   0  0  0  0  0  0  0  0  0  0  0  0
    6.6147    3.4343   -0.3028 C   0  0  0  0  0  0  0  0  0  0  0  0
    4.9592    2.7639   -0.0273 S   0  0  0  0  0  0  0  0  0  0  0  0
    6.9250    4.8525   -0.4794 C   0  0  0  0  0  0  0  0  0  0  0  0
    5.9820    5.6785   -0.4393 O   0  0  0  0  0  0  0  0  0  0  0  0
    8.2290    5.1998   -0.6790 O   0  0  0  0  0  0  0  0  0  0  0  0
    3.3323   -2.7635   -0.4653 C   0  0  0  0  0  0  0  0  0  0  0  0
    2.8440   -4.2192   -0.4159 C   0  0  0  0  0  0  0  0  0  0  0  0
    1.6762   -4.0863    0.4564 C   0  0  0  0  0  0  0  0  0  0  0  0
    1.2148   -4.8714    1.3349 O   0  0  0  0  0  0  0  0  0  0  0  0
   -4.9461   -2.1594    1.6239 O   0  0  0  0  0  0  0  0  0  0  0  0
   -5.0120    2.6183    1.8551 H   0  0  0  0  0  0  0  0  0  0  0  0
   -5.2392    4.4142    1.7191 H   0  0  0  0  0  0  0  0  0  0  0  0
   -3.9680    3.6416    0.7462 H   0  0  0  0  0  0  0  0  0  0  0  0
   -5.7917    3.9469   -0.7855 H   0  0  0  0  0  0  0  0  0  0  0  0
   -6.9765    3.5460    0.5174 H   0  0  0  0  0  0  0  0  0  0  0  0
   -6.2894    1.1940    0.4636 H   0  0  0  0  0  0  0  0  0  0  0  0
   -6.8166    1.7279   -1.1535 H   0  0  0  0  0  0  0  0  0  0  0  0
   -3.9343    1.6414   -0.1806 H   0  0  0  0  0  0  0  0  0  0  0  0
   -4.4787    2.1045   -1.7908 H   0  0  0  0  0  0  0  0  0  0  0  0
   -5.4794   -0.0054   -2.2589 H   0  0  0  0  0  0  0  0  0  0  0  0
   -3.7927   -0.2208   -1.8616 H   0  0  0  0  0  0  0  0  0  0  0  0
   -5.2823   -2.0120   -0.8950 H   0  0  0  0  0  0  0  0  0  0  0  0
   -6.1960   -0.7770   -0.0612 H   0  0  0  0  0  0  0  0  0  0  0  0
   -4.2900   -0.3194    1.4710 H   0  0  0  0  0  0  0  0  0  0  0  0
   -3.1468   -2.3916   -1.4775 H   0  0  0  0  0  0  0  0  0  0  0  0
   -0.8197   -3.0506   -1.7617 H   0  0  0  0  0  0  0  0  0  0  0  0
   -0.0403   -1.7817    2.2737 H   0  0  0  0  0  0  0  0  0  0  0  0
   -2.3466   -1.1198    2.5251 H   0  0  0  0  0  0  0  0  0  0  0  0
    1.8777   -1.4842   -1.3047 H   0  0  0  0  0  0  0  0  0  0  0  0
    2.3851   -1.2239    1.7197 H   0  0  0  0  0  0  0  0  0  0  0  0
    1.2387   -0.3144    0.7397 H   0  0  0  0  0  0  0  0  0  0  0  0
    3.1884    0.9500    1.3360 H   0  0  0  0  0  0  0  0  0  0  0  0
    2.9050    0.9352   -0.4051 H   0  0  0  0  0  0  0  0  0  0  0  0
    5.0442   -0.6332    1.1688 H   0  0  0  0  0  0  0  0  0  0  0  0
    4.7633   -0.6985   -0.6733 H   0  0  0  0  0  0  0  0  0  0  0  0
    7.4687    0.1924   -0.0981 H   0  0  0  0  0  0  0  0  0  0  0  0
    8.5226    2.4582   -0.4512 H   0  0  0  0  0  0  0  0  0  0  0  0
    8.5087    6.1681   -0.7827 H   0  0  0  0  0  0  0  0  0  0  0  0
    3.8258   -2.7019   -1.4732 H   0  0  0  0  0  0  0  0  0  0  0  0
    4.0528   -2.6959    0.3776 H   0  0  0  0  0  0  0  0  0  0  0  0
    3.6267   -4.8818    0.0241 H   0  0  0  0  0  0  0  0  0  0  0  0
    2.5211   -4.5517   -1.4127 H   0  0  0  0  0  0  0  0  0  0  0  0
   -4.4764   -3.0205    1.5555 H   0  0  0  0  0  0  0  0  0  0  0  0
  1  2  1  0
  2  3  1  0
  3  4  1  0
  4  5  1  0
  5  6  1  0
  6  7  1  0
  7  8  1  0
  8  9  2  0
  9 10  1  0
 10 11  2  0
 11 12  1  0
 12 13  2  0
 11 14  1  0
 14 15  1  0
 15 16  1  0
 16 17  1  0
 17 18  1  0
 18 19  1  0
 19 20  2  0
 20 21  1  0
 21 22  2  0
 22 23  1  0
 22 24  1  0
 24 25  2  0
 24 26  1  0
 15 27  1  0
 27 28  1  0
 28 29  1  0
 29 30  2  0
  7 31  1  0
 13  8  1  0
 29 14  1  0
 23 19  1  0
  1 32  1  0
  1 33  1  0
  1 34  1  0
  2 35  1  0
  2 36  1  0
  3 37  1  0
  3 38  1  0
  4 39  1  0
  4 40  1  0
  5 41  1  0
  5 42  1  0
  6 43  1  0
  6 44  1  0
  7 45  1  0
  9 46  1  0
 10 47  1  0
 12 48  1  0
 13 49  1  0
 15 50  1  6
 16 51  1  0
 16 52  1  0
 17 53  1  0
 17 54  1  0
 18 55  1  0
 18 56  1  0
 20 57  1  0
 21 58  1  0
 26 59  1  0
 27 60  1  0
 27 61  1  0
 28 62  1  0
 28 63  1  0
 31 64  1  0
M  END
>  <Ligand ID>  (1) 
LIG0000692

>  <Ligand>  (1) 
SCHEMBL1310399

>  <SMILES>  (1) 
CCCCCCC(c1ccc(cc1)N1[C@@H](CCCc2ccc(s2)C(=O)O)CCC1=O)O

>  <CID>  (1) 
16725337.0

>  <ChEMBL ID>  (1) 
nan

>  <InChiKey>  (1) 
MHFAQSOESHOPMP-YDNXMHBPSA-N

>  <InChi>  (1) 
InChI=1S/C25H33NO4S/c1-2-3-4-5-9-22(27)18-10-12-20(13-11-18)26-19(14-17-24(26)28)7-6-8-21-15-16-23(31-21)25(29)30/h10-13,15-16,19,22,27H,2-9,14,17H2,1H3,(H,29,30)/t19-,22?/m0/s1

>  <IUPAC Name>  (1) 
5-[3-[(2S)-1-[4-(1-hydroxyheptyl)phenyl]-5-oxopyrrolidin-2-yl]propyl]thiophene-2-carboxylic acid

$$$$
