
     RDKit          3D

 46 50  0  0  0  0  0  0  0  0999 V2000
    5.0301    2.6886   -0.2949 F   0  0  0  0  0  0  0  0  0  0  0  0
    5.4264    1.4057   -0.0125 C   0  0  0  0  0  0  0  0  0  0  0  0
    6.7780    1.1185    0.1310 C   0  0  0  0  0  0  0  0  0  0  0  0
    7.1295   -0.1691    0.4116 C   0  0  0  0  0  0  0  0  0  0  0  0
    6.1945   -1.1972    0.5575 C   0  0  0  0  0  0  0  0  0  0  0  0
    4.8602   -0.8890    0.4107 C   0  0  0  0  0  0  0  0  0  0  0  0
    4.4585    0.4004    0.1272 C   0  0  0  0  0  0  0  0  0  0  0  0
    3.1548    0.7815   -0.0330 O   0  0  0  0  0  0  0  0  0  0  0  0
    2.0226   -0.0475    0.0398 C   0  0  0  0  0  0  0  0  0  0  0  0
    1.0813    0.1477   -1.1548 C   0  0  0  0  0  0  0  0  0  0  0  0
   -0.0301    0.0272   -0.1932 N   0  0  0  0  0  0  0  0  0  0  0  0
    0.8494    0.5477    0.7984 C   0  0  0  0  0  0  0  0  0  0  0  0
   -1.3478   -0.4472   -0.4291 C   0  0  0  0  0  0  0  0  0  0  0  0
   -2.4589    0.3541   -0.5098 C   0  0  0  0  0  0  0  0  0  0  0  0
   -2.1839    1.7928   -0.2974 C   0  0  0  0  0  0  0  0  0  0  0  0
   -3.1169    2.2800    0.8277 C   0  0  0  0  0  0  0  0  0  0  0  0
   -4.1165    1.3455    1.1429 N   0  0  0  0  0  0  0  0  0  0  0  0
   -5.2654    1.2880    0.3447 C   0  0  0  0  0  0  0  0  0  0  0  0
   -5.0201    0.4788   -0.8967 C   0  0  0  0  0  0  0  0  0  0  0  0
   -3.7070   -0.1832   -0.7701 C   0  0  0  0  0  0  0  0  0  0  0  0
   -3.7915   -1.5260   -0.9425 N   0  0  0  0  0  0  0  0  0  0  0  0
   -2.6905   -2.3039   -0.8609 C   0  0  0  0  0  0  0  0  0  0  0  0
   -1.4596   -1.7986   -0.6069 N   0  0  0  0  0  0  0  0  0  0  0  0
   -0.5597   -2.7705   -0.5882 N   0  0  0  0  0  0  0  0  0  0  0  0
   -1.1854   -3.9353   -0.8310 C   0  0  0  0  0  0  0  0  0  0  0  0
   -2.5236   -3.6632   -1.0047 C   0  0  0  0  0  0  0  0  0  0  0  0
    7.4952    1.9384    0.0134 H   0  0  0  0  0  0  0  0  0  0  0  0
    8.1957   -0.3937    0.5256 H   0  0  0  0  0  0  0  0  0  0  0  0
    6.4792   -2.2129    0.7801 H   0  0  0  0  0  0  0  0  0  0  0  0
    4.1501   -1.6714    0.5210 H   0  0  0  0  0  0  0  0  0  0  0  0
    2.2167   -1.1061    0.2550 H   0  0  0  0  0  0  0  0  0  0  0  0
    1.1567    1.0893   -1.6857 H   0  0  0  0  0  0  0  0  0  0  0  0
    1.1927   -0.7277   -1.8063 H   0  0  0  0  0  0  0  0  0  0  0  0
    0.9844    1.6451    0.7999 H   0  0  0  0  0  0  0  0  0  0  0  0
    0.6996    0.1030    1.8097 H   0  0  0  0  0  0  0  0  0  0  0  0
   -2.4357    2.3731   -1.2356 H   0  0  0  0  0  0  0  0  0  0  0  0
   -1.1751    2.0221    0.0240 H   0  0  0  0  0  0  0  0  0  0  0  0
   -3.5478    3.2487    0.5109 H   0  0  0  0  0  0  0  0  0  0  0  0
   -2.5457    2.5002    1.7536 H   0  0  0  0  0  0  0  0  0  0  0  0
   -3.9757    0.6746    1.9039 H   0  0  0  0  0  0  0  0  0  0  0  0
   -6.0949    0.8003    0.9294 H   0  0  0  0  0  0  0  0  0  0  0  0
   -5.6571    2.3144    0.0819 H   0  0  0  0  0  0  0  0  0  0  0  0
   -5.8239   -0.2064   -1.1700 H   0  0  0  0  0  0  0  0  0  0  0  0
   -4.8981    1.2251   -1.7368 H   0  0  0  0  0  0  0  0  0  0  0  0
   -0.6783   -4.9108   -0.8767 H   0  0  0  0  0  0  0  0  0  0  0  0
   -3.2662   -4.4311   -1.2184 H   0  0  0  0  0  0  0  0  0  0  0  0
  1  2  1  0
  2  3  2  0
  3  4  1  0
  4  5  2  0
  5  6  1  0
  6  7  2  0
  7  8  1  0
  8  9  1  0
  9 10  1  0
 10 11  1  0
 11 12  1  0
 11 13  1  0
 13 14  2  0
 14 15  1  0
 15 16  1  0
 16 17  1  0
 17 18  1  0
 18 19  1  0
 19 20  1  0
 20 21  2  0
 21 22  1  0
 22 23  1  0
 23 24  1  0
 24 25  2  0
 25 26  1  0
  7  2  1  0
 12  9  1  0
 23 13  1  0
 20 14  1  0
 26 22  2  0
  3 27  1  0
  4 28  1  0
  5 29  1  0
  6 30  1  0
  9 31  1  0
 10 32  1  0
 10 33  1  0
 12 34  1  0
 12 35  1  0
 15 36  1  0
 15 37  1  0
 16 38  1  0
 16 39  1  0
 17 40  1  0
 18 41  1  0
 18 42  1  0
 19 43  1  0
 19 44  1  0
 25 45  1  0
 26 46  1  0
M  END
>  <Ligand ID>  (1) 
LIG0003241

>  <Ligand>  (1) 
CHEMBL1643676

>  <SMILES>  (1) 
Fc1ccccc1OC1CN(C1)c1c2CCNCCc2nc2n1ncc2

>  <CID>  (1) 
53324630.0

>  <ChEMBL ID>  (1) 
nan

>  <InChiKey>  (1) 
PVOIHXADHTXDSU-UHFFFAOYSA-N

>  <InChi>  (1) 
InChI=1S/C19H20FN5O/c20-15-3-1-2-4-17(15)26-13-11-24(12-13)19-14-5-8-21-9-6-16(14)23-18-7-10-22-25(18)19/h1-4,7,10,13,21H,5-6,8-9,11-12H2

>  <IUPAC Name>  (1) 
8-[3-(2-fluorophenoxy)azetidin-1-yl]-2,6,7,12-tetrazatricyclo[7.5.0.03,7]tetradeca-1,3,5,8-tetraene

$$$$
