
     RDKit          3D

 47 49  0  0  0  0  0  0  0  0999 V2000
   -4.5830   -3.5652   -0.2990 O   0  0  0  0  0  0  0  0  0  0  0  0
   -4.2527   -2.3911    0.3672 C   0  0  0  0  0  0  0  0  0  0  0  0
   -5.1805   -1.5937    0.9983 C   0  0  0  0  0  0  0  0  0  0  0  0
   -4.7438   -0.4655    1.6200 C   0  0  0  0  0  0  0  0  0  0  0  0
   -3.4266   -0.0603    1.6632 C   0  0  0  0  0  0  0  0  0  0  0  0
   -2.5043   -0.8620    1.0306 C   0  0  0  0  0  0  0  0  0  0  0  0
   -2.9221   -2.0126    0.3925 C   0  0  0  0  0  0  0  0  0  0  0  0
   -1.0510   -0.4607    1.0481 C   0  0  0  0  0  0  0  0  0  0  0  0
   -0.6790    0.3808   -0.1021 C   0  0  0  0  0  0  0  0  0  0  0  0
    0.6417    0.8573   -0.2474 N   0  0  0  0  0  0  0  0  0  0  0  0
    0.8187    1.7078   -1.4090 C   0  0  0  0  0  0  0  0  0  0  0  0
    0.0984    3.0210   -1.2587 C   0  0  0  0  0  0  0  0  0  0  0  0
    0.2231    3.9599   -2.4116 C   0  0  0  0  0  0  0  0  0  0  0  0
   -1.1169    3.3813   -1.9863 C   0  0  0  0  0  0  0  0  0  0  0  0
    1.4794    1.1012    0.8346 C   0  0  0  0  0  0  0  0  0  0  0  0
    2.0625   -0.0352    1.6020 C   0  0  0  0  0  0  0  0  0  0  0  0
    2.9389   -0.9318    0.8148 C   0  0  0  0  0  0  0  0  0  0  0  0
    2.5108   -2.0381    0.1235 C   0  0  0  0  0  0  0  0  0  0  0  0
    3.3473   -2.8676   -0.5973 C   0  0  0  0  0  0  0  0  0  0  0  0
    4.7116   -2.5876   -0.6425 C   0  0  0  0  0  0  0  0  0  0  0  0
    5.1598   -1.4753    0.0491 C   0  0  0  0  0  0  0  0  0  0  0  0
    4.3046   -0.6696    0.7567 C   0  0  0  0  0  0  0  0  0  0  0  0
   -4.9937   -3.5572   -1.2294 H   0  0  0  0  0  0  0  0  0  0  0  0
   -6.2214   -1.9142    0.9641 H   0  0  0  0  0  0  0  0  0  0  0  0
   -5.4624    0.1673    2.1194 H   0  0  0  0  0  0  0  0  0  0  0  0
   -3.1443    0.8332    2.1663 H   0  0  0  0  0  0  0  0  0  0  0  0
   -2.1524   -2.6026   -0.0881 H   0  0  0  0  0  0  0  0  0  0  0  0
   -0.8587    0.0130    2.0186 H   0  0  0  0  0  0  0  0  0  0  0  0
   -0.5183   -1.4257    1.0086 H   0  0  0  0  0  0  0  0  0  0  0  0
   -1.0142   -0.0508   -1.0863 H   0  0  0  0  0  0  0  0  0  0  0  0
   -1.3318    1.3198   -0.0236 H   0  0  0  0  0  0  0  0  0  0  0  0
    1.8634    1.7941   -1.7069 H   0  0  0  0  0  0  0  0  0  0  0  0
    0.2771    1.1700   -2.2402 H   0  0  0  0  0  0  0  0  0  0  0  0
    0.2504    3.5074   -0.2591 H   0  0  0  0  0  0  0  0  0  0  0  0
    0.5551    3.6148   -3.4178 H   0  0  0  0  0  0  0  0  0  0  0  0
    0.3648    5.0376   -2.2260 H   0  0  0  0  0  0  0  0  0  0  0  0
   -1.8299    4.0842   -1.5158 H   0  0  0  0  0  0  0  0  0  0  0  0
   -1.6312    2.6919   -2.6933 H   0  0  0  0  0  0  0  0  0  0  0  0
    2.2927    1.8580    0.5899 H   0  0  0  0  0  0  0  0  0  0  0  0
    0.8705    1.6894    1.6057 H   0  0  0  0  0  0  0  0  0  0  0  0
    1.3643   -0.6768    2.1453 H   0  0  0  0  0  0  0  0  0  0  0  0
    2.7411    0.3686    2.4302 H   0  0  0  0  0  0  0  0  0  0  0  0
    1.4686   -2.2978    0.1240 H   0  0  0  0  0  0  0  0  0  0  0  0
    2.9784   -3.7425   -1.1352 H   0  0  0  0  0  0  0  0  0  0  0  0
    5.4019   -3.2071   -1.1947 H   0  0  0  0  0  0  0  0  0  0  0  0
    6.2176   -1.2644    0.0093 H   0  0  0  0  0  0  0  0  0  0  0  0
    4.6754    0.1967    1.2887 H   0  0  0  0  0  0  0  0  0  0  0  0
  1  2  1  0
  2  3  2  0
  3  4  1  0
  4  5  2  0
  5  6  1  0
  6  7  2  0
  6  8  1  0
  8  9  1  0
  9 10  1  0
 10 11  1  0
 11 12  1  0
 12 13  1  0
 13 14  1  0
 10 15  1  0
 15 16  1  0
 16 17  1  0
 17 18  2  0
 18 19  1  0
 19 20  2  0
 20 21  1  0
 21 22  2  0
  7  2  1  0
 14 12  1  0
 22 17  1  0
  1 23  1  0
  3 24  1  0
  4 25  1  0
  5 26  1  0
  7 27  1  0
  8 28  1  0
  8 29  1  0
  9 30  1  0
  9 31  1  0
 11 32  1  0
 11 33  1  0
 12 34  1  0
 13 35  1  0
 13 36  1  0
 14 37  1  0
 14 38  1  0
 15 39  1  0
 15 40  1  0
 16 41  1  0
 16 42  1  0
 18 43  1  0
 19 44  1  0
 20 45  1  0
 21 46  1  0
 22 47  1  0
M  END
>  <Ligand ID>  (1) 
LIG0002951

>  <Ligand>  (1) 
compound 3 [PMID: 23134120]

>  <SMILES>  (1) 
Oc1cccc(c1)CCN(CC1CC1)CCc1ccccc1

>  <CID>  (1) 
71452040.0

>  <ChEMBL ID>  (1) 
nan

>  <InChiKey>  (1) 
QURAQIGQNZYJHP-UHFFFAOYSA-N

>  <InChi>  (1) 
InChI=1S/C20H25NO/c22-20-8-4-7-18(15-20)12-14-21(16-19-9-10-19)13-11-17-5-2-1-3-6-17/h1-8,15,19,22H,9-14,16H2

>  <IUPAC Name>  (1) 
3-[2-[cyclopropylmethyl(2-phenylethyl)amino]ethyl]phenol

$$$$
