
     RDKit          3D

 26 28  0  0  0  0  0  0  0  0999 V2000
   -0.0320    0.5578    1.8530 F   0  0  0  0  0  0  0  0  0  0  0  0
   -1.1618    0.3037    1.1308 C   0  0  0  0  0  0  0  0  0  0  0  0
   -2.3832    0.8506    1.5384 C   0  0  0  0  0  0  0  0  0  0  0  0
   -3.5191    0.5829    0.7945 C   0  0  0  0  0  0  0  0  0  0  0  0
   -3.4622   -0.2098   -0.3341 C   0  0  0  0  0  0  0  0  0  0  0  0
   -2.2458   -0.7404   -0.7195 C   0  0  0  0  0  0  0  0  0  0  0  0
   -1.0739   -0.4946    0.0038 C   0  0  0  0  0  0  0  0  0  0  0  0
    0.1883   -1.0972   -0.4713 C   0  0  0  0  0  0  0  0  0  0  0  0
    0.8372   -0.1239   -1.4242 C   0  0  0  0  0  0  0  0  0  0  0  0
    1.9674    0.3897   -0.6719 N   0  0  0  0  0  0  0  0  0  0  0  0
    2.1632   -0.3126    0.4393 C   0  0  0  0  0  0  0  0  0  0  0  0
    1.1868   -1.4058    0.5943 C   0  0  0  0  0  0  0  0  0  0  0  0
    3.2291    0.2393    1.0652 N   0  0  0  0  0  0  0  0  0  0  0  0
    3.6803    1.2639    0.3496 C   0  0  0  0  0  0  0  0  0  0  0  0
    2.8792    1.3870   -0.7875 C   0  0  0  0  0  0  0  0  0  0  0  0
   -2.4763    1.4718    2.4076 H   0  0  0  0  0  0  0  0  0  0  0  0
   -4.5035    0.9889    1.0726 H   0  0  0  0  0  0  0  0  0  0  0  0
   -4.3708   -0.4157   -0.9172 H   0  0  0  0  0  0  0  0  0  0  0  0
   -2.1727   -1.3737   -1.6125 H   0  0  0  0  0  0  0  0  0  0  0  0
   -0.0717   -2.0356   -1.0340 H   0  0  0  0  0  0  0  0  0  0  0  0
    1.1784   -0.6561   -2.3516 H   0  0  0  0  0  0  0  0  0  0  0  0
    0.1576    0.6822   -1.7688 H   0  0  0  0  0  0  0  0  0  0  0  0
    0.7999   -1.5656    1.5960 H   0  0  0  0  0  0  0  0  0  0  0  0
    1.7257   -2.3547    0.3098 H   0  0  0  0  0  0  0  0  0  0  0  0
    4.5054    1.9423    0.5228 H   0  0  0  0  0  0  0  0  0  0  0  0
    2.9747    2.1252   -1.5851 H   0  0  0  0  0  0  0  0  0  0  0  0
  1  2  1  0
  2  3  2  0
  3  4  1  0
  4  5  2  0
  5  6  1  0
  6  7  2  0
  7  8  1  0
  8  9  1  0
  9 10  1  0
 10 11  1  0
 11 12  1  0
 11 13  2  0
 13 14  1  0
 14 15  2  0
  7  2  1  0
 12  8  1  0
 15 10  1  0
  3 16  1  0
  4 17  1  0
  5 18  1  0
  6 19  1  0
  8 20  1  0
  9 21  1  0
  9 22  1  0
 12 23  1  0
 12 24  1  0
 14 25  1  0
 15 26  1  0
M  END
>  <Ligand ID>  (1) 
LIG0002874

>  <Ligand>  (1) 
CHEMBL511411

>  <SMILES>  (1) 
Fc1ccccc1C1Cn2c(C1)ncc2

>  <CID>  (1) 
44574986.0

>  <ChEMBL ID>  (1) 
nan

>  <InChiKey>  (1) 
BVXHLVHSYQUGBZ-UHFFFAOYSA-N

>  <InChi>  (1) 
InChI=1S/C12H11FN2/c13-11-4-2-1-3-10(11)9-7-12-14-5-6-15(12)8-9/h1-6,9H,7-8H2

>  <IUPAC Name>  (1) 
6-(2-fluorophenyl)-6,7-dihydro-5H-pyrrolo[1,2-a]imidazole

$$$$
