
     RDKit          3D

 63 64  0  0  0  0  0  0  0  0999 V2000
    6.3268    1.9406   -2.8622 C   0  0  0  0  0  0  0  0  0  0  0  0
    5.7649    0.7188   -2.5725 O   0  0  0  0  0  0  0  0  0  0  0  0
    6.4135   -0.1406   -1.6235 C   0  0  0  0  0  0  0  0  0  0  0  0
    7.5452    0.3761   -1.0211 N   0  0  0  0  0  0  0  0  0  0  0  0
    8.0959   -0.8547    0.0766 S   0  0  0  0  0  0  0  0  0  0  0  0
    6.8253   -2.0031   -0.2940 N   0  0  0  0  0  0  0  0  0  0  0  0
    6.0051   -1.3219   -1.3061 C   0  0  0  0  0  0  0  0  0  0  0  0
    4.9265   -2.0657   -1.7672 O   0  0  0  0  0  0  0  0  0  0  0  0
    4.5933   -3.3368   -1.3313 C   0  0  0  0  0  0  0  0  0  0  0  0
    4.1069   -3.5332    0.0449 C   0  0  0  0  0  0  0  0  0  0  0  0
    4.8843   -3.1299    1.0848 O   0  0  0  0  0  0  0  0  0  0  0  0
    4.3219   -3.5733    2.2816 C   0  0  0  0  0  0  0  0  0  0  0  0
    2.8363   -3.3233    2.3742 C   0  0  0  0  0  0  0  0  0  0  0  0
    2.3465   -2.1208    2.2897 O   0  0  0  0  0  0  0  0  0  0  0  0
    2.4376   -1.0611    3.0841 C   0  0  0  0  0  0  0  0  0  0  0  0
    1.5674    0.0757    2.3963 C   0  0  0  0  0  0  0  0  0  0  0  0
    0.3104   -0.4609    2.3063 O   0  0  0  0  0  0  0  0  0  0  0  0
   -0.5918    0.3188    1.6002 C   0  0  0  0  0  0  0  0  0  0  0  0
   -1.8728   -0.5232    1.5147 C   0  0  0  0  0  0  0  0  0  0  0  0
   -2.8578    0.1519    0.8056 O   0  0  0  0  0  0  0  0  0  0  0  0
   -4.1188   -0.4658    0.5621 C   0  0  0  0  0  0  0  0  0  0  0  0
   -4.2807   -1.7297    1.1170 N   0  0  0  0  0  0  0  0  0  0  0  0
   -6.0029   -2.1592    0.5938 S   0  0  0  0  0  0  0  0  0  0  0  0
   -6.2658   -0.7440   -0.2183 N   0  0  0  0  0  0  0  0  0  0  0  0
   -5.0925    0.0572   -0.1137 C   0  0  0  0  0  0  0  0  0  0  0  0
   -5.1599    1.3491   -0.8193 C   0  0  0  0  0  0  0  0  0  0  0  0
   -4.1761    2.2198   -0.8394 C   0  0  0  0  0  0  0  0  0  0  0  0
   -4.2613    3.5342   -1.5688 C   0  0  0  0  0  0  0  0  0  0  0  0
   -5.6509    3.9355   -1.9080 C   0  0  0  0  0  0  0  0  0  0  0  0
   -6.6685    3.1178   -1.2602 N   0  0  0  0  0  0  0  0  0  0  0  0
   -6.3866    1.7451   -1.6040 C   0  0  0  0  0  0  0  0  0  0  0  0
   -6.6991    3.2923    0.1493 C   0  0  0  0  0  0  0  0  0  0  0  0
    0.0000    0.0000    0.0000 Cl  0  0  0  0  0  0  0  0  0  0  0  0
    7.0546    1.8980   -3.7179 H   0  0  0  0  0  0  0  0  0  0  0  0
    5.5930    2.7552   -3.0149 H   0  0  0  0  0  0  0  0  0  0  0  0
    6.9488    2.2732   -1.9896 H   0  0  0  0  0  0  0  0  0  0  0  0
    3.7664   -3.6984   -2.0280 H   0  0  0  0  0  0  0  0  0  0  0  0
    5.4234   -4.0668   -1.5641 H   0  0  0  0  0  0  0  0  0  0  0  0
    3.1194   -2.9708    0.1603 H   0  0  0  0  0  0  0  0  0  0  0  0
    3.8207   -4.6316    0.1395 H   0  0  0  0  0  0  0  0  0  0  0  0
    4.4976   -4.6872    2.3426 H   0  0  0  0  0  0  0  0  0  0  0  0
    4.8324   -3.0373    3.0907 H   0  0  0  0  0  0  0  0  0  0  0  0
    2.3207   -4.0470    1.6451 H   0  0  0  0  0  0  0  0  0  0  0  0
    2.4997   -3.7816    3.3710 H   0  0  0  0  0  0  0  0  0  0  0  0
    2.0651   -1.1458    4.1114 H   0  0  0  0  0  0  0  0  0  0  0  0
    3.4472   -0.6105    3.0971 H   0  0  0  0  0  0  0  0  0  0  0  0
    1.6672    0.9312    3.0665 H   0  0  0  0  0  0  0  0  0  0  0  0
    2.0032    0.2678    1.4201 H   0  0  0  0  0  0  0  0  0  0  0  0
   -0.7715    1.2735    2.1020 H   0  0  0  0  0  0  0  0  0  0  0  0
   -0.2213    0.5564    0.5921 H   0  0  0  0  0  0  0  0  0  0  0  0
   -2.2161   -0.8036    2.5336 H   0  0  0  0  0  0  0  0  0  0  0  0
   -1.6456   -1.4790    0.9632 H   0  0  0  0  0  0  0  0  0  0  0  0
   -3.2702    2.0229   -0.3325 H   0  0  0  0  0  0  0  0  0  0  0  0
   -3.6220    3.5170   -2.4755 H   0  0  0  0  0  0  0  0  0  0  0  0
   -3.8190    4.2886   -0.8787 H   0  0  0  0  0  0  0  0  0  0  0  0
   -5.8277    3.8019   -3.0012 H   0  0  0  0  0  0  0  0  0  0  0  0
   -5.8647    4.9854   -1.5954 H   0  0  0  0  0  0  0  0  0  0  0  0
   -7.5837    3.3612   -1.7096 H   0  0  0  0  0  0  0  0  0  0  0  0
   -7.2009    1.0405   -1.3930 H   0  0  0  0  0  0  0  0  0  0  0  0
   -6.1505    1.6587   -2.7131 H   0  0  0  0  0  0  0  0  0  0  0  0
   -7.5791    3.8930    0.4997 H   0  0  0  0  0  0  0  0  0  0  0  0
   -6.7187    2.3070    0.6480 H   0  0  0  0  0  0  0  0  0  0  0  0
   -5.7909    3.8424    0.4766 H   0  0  0  0  0  0  0  0  0  0  0  0
  1  2  1  0
  2  3  1  0
  3  4  2  0
  4  5  1  0
  5  6  1  0
  6  7  2  0
  7  8  1  0
  8  9  1  0
  9 10  1  0
 10 11  1  0
 11 12  1  0
 12 13  1  0
 13 14  1  0
 14 15  1  0
 15 16  1  0
 16 17  1  0
 17 18  1  0
 18 19  1  0
 19 20  1  0
 20 21  1  0
 21 22  2  0
 22 23  1  0
 23 24  1  0
 24 25  2  0
 25 26  1  0
 26 27  2  0
 27 28  1  0
 28 29  1  0
 29 30  1  0
 30 31  1  0
 30 32  1  0
  7  3  1  0
 25 21  1  0
 31 26  1  0
  1 34  1  0
  1 35  1  0
  1 36  1  0
  9 37  1  0
  9 38  1  0
 10 39  1  0
 10 40  1  0
 12 41  1  0
 12 42  1  0
 13 43  1  0
 13 44  1  0
 15 45  1  0
 15 46  1  0
 16 47  1  0
 16 48  1  0
 18 49  1  0
 18 50  1  0
 19 51  1  0
 19 52  1  0
 27 53  1  0
 28 54  1  0
 28 55  1  0
 29 56  1  0
 29 57  1  0
 30 58  1  0
 31 59  1  0
 31 60  1  0
 32 61  1  0
 32 62  1  0
 32 63  1  0
M  CHG  2  30   1  33  -1
M  END
>  <Ligand ID>  (1) 
LIG0005555

>  <Ligand>  (1) 
CID 11763107

>  <SMILES>  (1) 
COc1nsnc1OCCOCCOCCOCCOc1nsnc1C1=CCC[NH+](C1)C.[Cl-]

>  <CID>  (1) 
11763107.0

>  <ChEMBL ID>  (1) 
nan

>  <InChiKey>  (1) 
QFEZMJMPOGYHNM-UHFFFAOYSA-N

>  <InChi>  (1) 
InChI=1S/C19H29N5O6S2.ClH/c1-24-5-3-4-15(14-24)16-17(21-31-20-16)29-12-10-27-8-6-26-7-9-28-11-13-30-19-18(25-2)22-32-23-19;/h4H,3,5-14H2,1-2H3;1H

>  <IUPAC Name>  (1) 
3-methoxy-4-[2-[2-[2-[2-[[4-(1-methyl-1,2,3,6-tetrahydropyridin-1-ium-5-yl)-1,2,5-thiadiazol-3-yl]oxy]ethoxy]ethoxy]ethoxy]ethoxy]-1,2,5-thiadiazole;chloride

$$$$
