
     RDKit          3D

 27 26  0  0  0  0  0  0  0  0999 V2000
   -3.5650    0.4248   -0.0505 C   0  0  0  0  0  0  0  0  0  0  0  0
   -2.6775   -0.5308    0.6737 C   0  0  0  0  0  0  0  0  0  0  0  0
   -1.2508   -0.5248    0.1264 C   0  0  0  0  0  0  0  0  0  0  0  0
   -0.6100    0.8013    0.2329 C   0  0  0  0  0  0  0  0  0  0  0  0
    0.7692    0.8297   -0.3325 C   0  0  0  0  0  0  0  0  0  0  0  0
    1.7891   -0.0580    0.2567 C   0  0  0  0  0  0  0  0  0  0  0  0
    2.0115    0.1314    1.6253 O   0  0  0  0  0  0  0  0  0  0  0  0
    1.6590   -1.5140   -0.0326 C   0  0  0  0  0  0  0  0  0  0  0  0
    3.1332    0.4221   -0.3850 C   0  0  0  0  0  0  0  0  0  0  0  0
   -4.5969    0.0174   -0.0483 H   0  0  0  0  0  0  0  0  0  0  0  0
   -3.6311    1.3789    0.5267 H   0  0  0  0  0  0  0  0  0  0  0  0
   -3.2776    0.6110   -1.1044 H   0  0  0  0  0  0  0  0  0  0  0  0
   -2.6689   -0.2522    1.7511 H   0  0  0  0  0  0  0  0  0  0  0  0
   -3.1000   -1.5506    0.5667 H   0  0  0  0  0  0  0  0  0  0  0  0
   -0.7113   -1.2664    0.7717 H   0  0  0  0  0  0  0  0  0  0  0  0
   -1.2992   -0.9600   -0.8844 H   0  0  0  0  0  0  0  0  0  0  0  0
   -0.4857    1.0576    1.3357 H   0  0  0  0  0  0  0  0  0  0  0  0
   -1.2102    1.6259   -0.2224 H   0  0  0  0  0  0  0  0  0  0  0  0
    1.1944    1.8830   -0.2725 H   0  0  0  0  0  0  0  0  0  0  0  0
    0.7545    0.6044   -1.4396 H   0  0  0  0  0  0  0  0  0  0  0  0
    2.4768    1.0053    1.7847 H   0  0  0  0  0  0  0  0  0  0  0  0
    1.4400   -2.1118    0.8826 H   0  0  0  0  0  0  0  0  0  0  0  0
    0.9369   -1.7526   -0.8104 H   0  0  0  0  0  0  0  0  0  0  0  0
    2.6772   -1.9134   -0.3451 H   0  0  0  0  0  0  0  0  0  0  0  0
    2.9710    0.6833   -1.4499 H   0  0  0  0  0  0  0  0  0  0  0  0
    3.4326    1.3443    0.1477 H   0  0  0  0  0  0  0  0  0  0  0  0
    3.8389   -0.3857   -0.1977 H   0  0  0  0  0  0  0  0  0  0  0  0
  1  2  1  0
  2  3  1  0
  3  4  1  0
  4  5  1  0
  5  6  1  0
  6  7  1  0
  6  8  1  0
  6  9  1  0
  1 10  1  0
  1 11  1  0
  1 12  1  0
  2 13  1  0
  2 14  1  0
  3 15  1  0
  3 16  1  0
  4 17  1  0
  4 18  1  0
  5 19  1  0
  5 20  1  0
  7 21  1  0
  8 22  1  0
  8 23  1  0
  8 24  1  0
  9 25  1  0
  9 26  1  0
  9 27  1  0
M  END
>  <Ligand ID>  (1) 
LIG0000621

>  <Ligand>  (1) 
2-Methyl-2-heptanol

>  <SMILES>  (1) 
CCCCCC(O)(C)C

>  <CID>  (1) 
12242.0

>  <ChEMBL ID>  (1) 
nan

>  <InChiKey>  (1) 
ACBMYYVZWKYLIP-UHFFFAOYSA-N

>  <InChi>  (1) 
InChI=1S/C8H18O/c1-4-5-6-7-8(2,3)9/h9H,4-7H2,1-3H3

>  <IUPAC Name>  (1) 
2-methylheptan-2-ol

$$$$
