
     RDKit          3D

 36 37  0  0  0  0  0  0  0  0999 V2000
    2.1829   -3.6211    0.5471 Cl  0  0  0  0  0  0  0  0  0  0  0  0
    1.2786   -2.1264    0.3859 C   0  0  0  0  0  0  0  0  0  0  0  0
    0.0678   -1.9343    1.0179 C   0  0  0  0  0  0  0  0  0  0  0  0
   -0.5860   -0.7222    0.8397 C   0  0  0  0  0  0  0  0  0  0  0  0
   -0.0779    0.2921    0.0610 C   0  0  0  0  0  0  0  0  0  0  0  0
    1.1452    0.0979   -0.5772 C   0  0  0  0  0  0  0  0  0  0  0  0
    1.8063   -1.1214   -0.3998 C   0  0  0  0  0  0  0  0  0  0  0  0
    3.0675   -1.3252   -1.0563 N   0  0  0  0  0  0  0  0  0  0  0  0
    4.5549   -0.9188   -0.3306 S   0  0  0  0  0  0  0  0  0  0  0  0
    5.6632   -1.2904   -1.2615 O   0  0  0  0  0  0  0  0  0  0  0  0
    4.6819   -1.6579    0.9803 O   0  0  0  0  0  0  0  0  0  0  0  0
    4.6860    0.8156    0.0251 C   0  0  0  0  0  0  0  0  0  0  0  0
    1.7231    1.1677   -1.4232 C   0  0  0  0  0  0  0  0  0  0  0  0
   -0.6950    1.5088   -0.1403 O   0  0  0  0  0  0  0  0  0  0  0  0
   -1.9156    1.9285    0.3819 C   0  0  0  0  0  0  0  0  0  0  0  0
   -3.0078    1.0333   -0.0983 C   0  0  0  0  0  0  0  0  0  0  0  0
   -2.9565    0.0459   -0.9238 N   0  0  0  0  0  0  0  0  0  0  0  0
   -4.2611   -0.5508   -1.1084 C   0  0  0  0  0  0  0  0  0  0  0  0
   -5.0020   -0.1049    0.1272 C   0  0  0  0  0  0  0  0  0  0  0  0
   -4.3671    1.2028    0.3482 N   0  0  0  0  0  0  0  0  0  0  0  0
   -0.3434   -2.7280    1.6351 H   0  0  0  0  0  0  0  0  0  0  0  0
   -1.5273   -0.5974    1.3508 H   0  0  0  0  0  0  0  0  0  0  0  0
    2.9881   -1.7473   -2.0238 H   0  0  0  0  0  0  0  0  0  0  0  0
    3.7947    1.1211    0.6347 H   0  0  0  0  0  0  0  0  0  0  0  0
    4.6485    1.4209   -0.9024 H   0  0  0  0  0  0  0  0  0  0  0  0
    5.6080    0.9771    0.6135 H   0  0  0  0  0  0  0  0  0  0  0  0
    0.9840    1.6069   -2.1238 H   0  0  0  0  0  0  0  0  0  0  0  0
    2.0076    1.9929   -0.7238 H   0  0  0  0  0  0  0  0  0  0  0  0
    2.5700    0.7394   -1.9767 H   0  0  0  0  0  0  0  0  0  0  0  0
   -2.1809    2.9661    0.0725 H   0  0  0  0  0  0  0  0  0  0  0  0
   -1.8218    1.8710    1.5058 H   0  0  0  0  0  0  0  0  0  0  0  0
   -4.2090   -1.6523   -1.2129 H   0  0  0  0  0  0  0  0  0  0  0  0
   -4.7883   -0.0868   -1.9850 H   0  0  0  0  0  0  0  0  0  0  0  0
   -4.8652   -0.7705    1.0010 H   0  0  0  0  0  0  0  0  0  0  0  0
   -6.0578    0.1132   -0.1139 H   0  0  0  0  0  0  0  0  0  0  0  0
   -4.7955    2.0548    0.7363 H   0  0  0  0  0  0  0  0  0  0  0  0
  1  2  1  0
  2  3  2  0
  3  4  1  0
  4  5  2  0
  5  6  1  0
  6  7  2  0
  7  8  1  0
  8  9  1  0
  9 10  2  0
  9 11  2  0
  9 12  1  0
  6 13  1  0
  5 14  1  0
 14 15  1  0
 15 16  1  0
 16 17  2  0
 17 18  1  0
 18 19  1  0
 19 20  1  0
  7  2  1  0
 20 16  1  0
  3 21  1  0
  4 22  1  0
  8 23  1  0
 12 24  1  0
 12 25  1  0
 12 26  1  0
 13 27  1  0
 13 28  1  0
 13 29  1  0
 15 30  1  0
 15 31  1  0
 18 32  1  0
 18 33  1  0
 19 34  1  0
 19 35  1  0
 20 36  1  0
M  END
>  <Ligand ID>  (1) 
LIG0001701

>  <Ligand>  (1) 
dabuzalgron

>  <SMILES>  (1) 
Clc1ccc(c(c1NS(=O)(=O)C)C)OCC1=NCCN1

>  <CID>  (1) 
216249.0

>  <ChEMBL ID>  (1) 
nan

>  <InChiKey>  (1) 
FOYWMEJSRSBQGB-UHFFFAOYSA-N

>  <InChi>  (1) 
InChI=1S/C12H16ClN3O3S/c1-8-10(19-7-11-14-5-6-15-11)4-3-9(13)12(8)16-20(2,17)18/h3-4,16H,5-7H2,1-2H3,(H,14,15)

>  <IUPAC Name>  (1) 
N-[6-chloro-3-(4,5-dihydro-1H-imidazol-2-ylmethoxy)-2-methylphenyl]methanesulfonamide

$$$$
