
     RDKit          3D

 49 53  0  0  0  0  0  0  0  0999 V2000
    5.9490    4.5321   -1.1245 N   0  0  0  0  0  0  0  0  0  0  0  0
    5.8839    3.4145   -0.8300 C   0  0  0  0  0  0  0  0  0  0  0  0
    5.8118    2.0191   -0.4554 C   0  0  0  0  0  0  0  0  0  0  0  0
    7.0092    1.3195   -0.3564 C   0  0  0  0  0  0  0  0  0  0  0  0
    6.9709   -0.0126   -0.0010 C   0  0  0  0  0  0  0  0  0  0  0  0
    5.7433   -0.6090    0.2453 C   0  0  0  0  0  0  0  0  0  0  0  0
    4.5481    0.0672    0.1524 C   0  0  0  0  0  0  0  0  0  0  0  0
    4.5865    1.3997   -0.2032 C   0  0  0  0  0  0  0  0  0  0  0  0
    3.3116   -0.6465    0.4303 C   0  0  0  0  0  0  0  0  0  0  0  0
    3.2726   -1.9080    0.7671 O   0  0  0  0  0  0  0  0  0  0  0  0
    2.0486   -2.2634    0.9493 N   0  0  0  0  0  0  0  0  0  0  0  0
    1.2432   -1.2218    0.7316 C   0  0  0  0  0  0  0  0  0  0  0  0
    2.0486   -0.1981    0.4026 N   0  0  0  0  0  0  0  0  0  0  0  0
   -0.2063   -1.2172    0.8348 C   0  0  0  0  0  0  0  0  0  0  0  0
   -0.8747   -2.3373    1.2534 C   0  0  0  0  0  0  0  0  0  0  0  0
   -2.2429   -2.4231    1.3806 C   0  0  0  0  0  0  0  0  0  0  0  0
   -2.9888   -1.3062    1.0651 C   0  0  0  0  0  0  0  0  0  0  0  0
   -2.3424   -0.1662    0.6415 C   0  0  0  0  0  0  0  0  0  0  0  0
   -0.9506   -0.1032    0.5202 C   0  0  0  0  0  0  0  0  0  0  0  0
   -3.3603    0.7539    0.4108 C   0  0  0  0  0  0  0  0  0  0  0  0
   -3.6508    2.1605   -0.0333 C   0  0  0  0  0  0  0  0  0  0  0  0
   -5.0668    1.9725   -0.5909 C   0  0  0  0  0  0  0  0  0  0  0  0
   -5.6528    1.0876    0.4660 C   0  0  0  0  0  0  0  0  0  0  0  0
   -4.5740    0.1244    0.7066 C   0  0  0  0  0  0  0  0  0  0  0  0
   -4.3148   -1.1320    1.1033 N   0  0  0  0  0  0  0  0  0  0  0  0
   -6.9750    0.4977    0.1398 C   0  0  0  0  0  0  0  0  0  0  0  0
   -6.9790   -0.3507   -1.0656 C   0  0  0  0  0  0  0  0  0  0  0  0
   -5.9909   -0.5870   -1.7849 O   0  0  0  0  0  0  0  0  0  0  0  0
   -8.1877   -0.9374   -1.4316 O   0  0  0  0  0  0  0  0  0  0  0  0
    8.1437   -0.7604    0.1125 O   0  0  0  0  0  0  0  0  0  0  0  0
    8.6420   -1.4414   -1.0007 C   0  0  0  0  0  0  0  0  0  0  0  0
    9.8212   -2.1325   -0.6923 F   0  0  0  0  0  0  0  0  0  0  0  0
    7.7218   -2.3430   -1.4728 F   0  0  0  0  0  0  0  0  0  0  0  0
    8.9672   -0.6001   -2.0505 F   0  0  0  0  0  0  0  0  0  0  0  0
    7.9655    1.7951   -0.5511 H   0  0  0  0  0  0  0  0  0  0  0  0
    5.7776   -1.6685    0.5233 H   0  0  0  0  0  0  0  0  0  0  0  0
    3.6711    1.9610   -0.2858 H   0  0  0  0  0  0  0  0  0  0  0  0
   -0.2678   -3.2067    1.4970 H   0  0  0  0  0  0  0  0  0  0  0  0
   -2.7004   -3.3568    1.7223 H   0  0  0  0  0  0  0  0  0  0  0  0
   -0.4759    0.8154    0.1822 H   0  0  0  0  0  0  0  0  0  0  0  0
   -2.9438    2.5251   -0.7777 H   0  0  0  0  0  0  0  0  0  0  0  0
   -3.7663    2.7882    0.8692 H   0  0  0  0  0  0  0  0  0  0  0  0
   -5.5902    2.9345   -0.6962 H   0  0  0  0  0  0  0  0  0  0  0  0
   -4.9603    1.5014   -1.5836 H   0  0  0  0  0  0  0  0  0  0  0  0
   -5.7890    1.7232    1.3700 H   0  0  0  0  0  0  0  0  0  0  0  0
   -5.0187   -1.8694    1.3979 H   0  0  0  0  0  0  0  0  0  0  0  0
   -7.7046    1.3280    0.0771 H   0  0  0  0  0  0  0  0  0  0  0  0
   -7.2923   -0.1255    0.9817 H   0  0  0  0  0  0  0  0  0  0  0  0
   -8.2702   -1.7967   -1.9660 H   0  0  0  0  0  0  0  0  0  0  0  0
  1  2  3  0
  2  3  1  0
  3  4  2  0
  4  5  1  0
  5  6  2  0
  6  7  1  0
  7  8  2  0
  7  9  1  0
  9 10  1  0
 10 11  1  0
 11 12  2  0
 12 13  1  0
 12 14  1  0
 14 15  2  0
 15 16  1  0
 16 17  2  0
 17 18  1  0
 18 19  2  0
 18 20  1  0
 20 21  1  0
 21 22  1  0
 22 23  1  0
 23 24  1  0
 24 25  1  0
 23 26  1  0
 26 27  1  0
 27 28  2  0
 27 29  1  0
  5 30  1  0
 30 31  1  0
 31 32  1  0
 31 33  1  0
 31 34  1  0
  8  3  1  0
 13  9  2  0
 19 14  1  0
 24 20  2  0
 25 17  1  0
  4 35  1  0
  6 36  1  0
  8 37  1  0
 15 38  1  0
 16 39  1  0
 19 40  1  0
 21 41  1  0
 21 42  1  0
 22 43  1  0
 22 44  1  0
 23 45  1  0
 25 46  1  0
 26 47  1  0
 26 48  1  0
 29 49  1  0
M  END
>  <Ligand ID>  (1) 
LIG0000668

>  <Ligand>  (1) 
CHEMBL2048287

>  <SMILES>  (1) 
N#Cc1cc(cc(c1)c1onc(n1)c1ccc2c(c1)c1CCC(c1[nH]2)CC(=O)O)OC(F)(F)F

>  <CID>  (1) 
42630194.0

>  <ChEMBL ID>  (1) 
nan

>  <InChiKey>  (1) 
ODAGRTXRMUHDND-UHFFFAOYSA-N

>  <InChi>  (1) 
InChI=1S/C23H15F3N4O4/c24-23(25,26)33-15-6-11(10-27)5-14(7-15)22-29-21(30-34-22)13-2-4-18-17(8-13)16-3-1-12(9-19(31)32)20(16)28-18/h2,4-8,12,28H,1,3,9H2,(H,31,32)

>  <IUPAC Name>  (1) 
2-[7-[5-[3-cyano-5-(trifluoromethoxy)phenyl]-1,2,4-oxadiazol-3-yl]-1,2,3,4-tetrahydrocyclopenta[b]indol-3-yl]acetic acid

$$$$
