
     RDKit          3D

 53 56  0  0  0  0  0  0  0  0999 V2000
    7.5246   -0.6166    1.8989 C   0  0  0  0  0  0  0  0  0  0  0  0
    6.4646   -0.5196    0.9274 N   0  0  0  0  0  0  0  0  0  0  0  0
    6.3571    0.6258    0.0768 C   0  0  0  0  0  0  0  0  0  0  0  0
    7.1910    1.5807    0.1580 O   0  0  0  0  0  0  0  0  0  0  0  0
    5.2608    0.6668   -0.8887 C   0  0  1  0  0  0  0  0  0  0  0  0
    4.4367   -0.4434   -0.8586 O   0  0  0  0  0  0  0  0  0  0  0  0
    3.2364   -0.1188   -1.4221 C   0  0  2  0  0  0  0  0  0  0  0  0
    3.2292    1.3945   -1.6719 C   0  0  1  0  0  0  0  0  0  0  0  0
    4.2855    1.8261   -0.6481 C   0  0  2  0  0  0  0  0  0  0  0  0
    4.8582    3.0382   -0.9798 O   0  0  0  0  0  0  0  0  0  0  0  0
    3.6726    1.6536   -2.9622 O   0  0  0  0  0  0  0  0  0  0  0  0
    2.1483   -0.3458   -0.4883 N   0  0  0  0  0  0  0  0  0  0  0  0
    2.1848   -0.5161    0.8455 C   0  0  0  0  0  0  0  0  0  0  0  0
    0.9115   -0.6952    1.2747 N   0  0  0  0  0  0  0  0  0  0  0  0
    0.0655   -0.6406    0.2285 C   0  0  0  0  0  0  0  0  0  0  0  0
    0.8656   -0.4197   -0.8732 C   0  0  0  0  0  0  0  0  0  0  0  0
    0.2585   -0.3236   -2.0607 N   0  0  0  0  0  0  0  0  0  0  0  0
   -1.0770   -0.4388   -2.1680 C   0  0  0  0  0  0  0  0  0  0  0  0
   -1.6991   -0.3314   -3.4539 N   0  0  0  0  0  0  0  0  0  0  0  0
   -1.8921   -0.6541   -1.1207 N   0  0  0  0  0  0  0  0  0  0  0  0
   -1.3237   -0.7575    0.0940 C   0  0  0  0  0  0  0  0  0  0  0  0
   -2.1153   -0.9858    1.2524 N   0  0  0  0  0  0  0  0  0  0  0  0
   -3.5441   -1.1141    1.1801 C   0  0  0  0  0  0  0  0  0  0  0  0
   -4.2584    0.0863    0.6367 C   0  0  0  0  0  0  0  0  0  0  0  0
   -5.7458   -0.1312    0.5954 C   0  0  0  0  0  0  0  0  0  0  0  0
   -6.5578    0.2008    1.6645 C   0  0  0  0  0  0  0  0  0  0  0  0
   -7.9034   -0.0402    1.5198 C   0  0  0  0  0  0  0  0  0  0  0  0
   -8.4211   -0.5851    0.3687 C   0  0  0  0  0  0  0  0  0  0  0  0
   -7.6048   -0.9152   -0.6972 C   0  0  0  0  0  0  0  0  0  0  0  0
   -6.2464   -0.6809   -0.5730 C   0  0  0  0  0  0  0  0  0  0  0  0
    7.3648    0.0746    2.7768 H   0  0  0  0  0  0  0  0  0  0  0  0
    7.6532   -1.6660    2.2346 H   0  0  0  0  0  0  0  0  0  0  0  0
    8.5127   -0.3147    1.4771 H   0  0  0  0  0  0  0  0  0  0  0  0
    5.7637   -1.2893    0.8374 H   0  0  0  0  0  0  0  0  0  0  0  0
    5.6392    0.8232   -1.9132 H   0  0  0  0  0  0  0  0  0  0  0  0
    3.0708   -0.6086   -2.4067 H   0  0  0  0  0  0  0  0  0  0  0  0
    2.2514    1.8340   -1.4630 H   0  0  0  0  0  0  0  0  0  0  0  0
    3.8226    1.7912    0.3425 H   0  0  0  0  0  0  0  0  0  0  0  0
    4.2354    3.7404   -0.6773 H   0  0  0  0  0  0  0  0  0  0  0  0
    3.0515    2.2933   -3.3928 H   0  0  0  0  0  0  0  0  0  0  0  0
    3.0980   -0.5012    1.4092 H   0  0  0  0  0  0  0  0  0  0  0  0
   -1.7280    0.5707   -3.9898 H   0  0  0  0  0  0  0  0  0  0  0  0
   -2.1228   -1.2221   -3.8184 H   0  0  0  0  0  0  0  0  0  0  0  0
   -1.6663   -1.0647    2.1846 H   0  0  0  0  0  0  0  0  0  0  0  0
   -3.9849   -1.4115    2.1395 H   0  0  0  0  0  0  0  0  0  0  0  0
   -3.7948   -1.9589    0.4744 H   0  0  0  0  0  0  0  0  0  0  0  0
   -4.1026    0.9496    1.3233 H   0  0  0  0  0  0  0  0  0  0  0  0
   -3.8785    0.3992   -0.3534 H   0  0  0  0  0  0  0  0  0  0  0  0
   -6.1111    0.6288    2.5554 H   0  0  0  0  0  0  0  0  0  0  0  0
   -8.5781    0.1966    2.3135 H   0  0  0  0  0  0  0  0  0  0  0  0
   -9.4820   -0.7838    0.2336 H   0  0  0  0  0  0  0  0  0  0  0  0
   -7.9832   -1.3461   -1.6176 H   0  0  0  0  0  0  0  0  0  0  0  0
   -5.5927   -0.9338   -1.3988 H   0  0  0  0  0  0  0  0  0  0  0  0
  1  2  1  0
  2  3  1  0
  3  4  2  0
  3  5  1  0
  5  6  1  0
  6  7  1  0
  7  8  1  0
  8  9  1  0
  9 10  1  0
  8 11  1  0
  7 12  1  0
 12 13  1  0
 13 14  2  0
 14 15  1  0
 15 16  2  0
 16 17  1  0
 17 18  2  0
 18 19  1  0
 18 20  1  0
 20 21  2  0
 21 22  1  0
 22 23  1  0
 23 24  1  0
 24 25  1  0
 25 26  2  0
 26 27  1  0
 27 28  2  0
 28 29  1  0
 29 30  2  0
  9  5  1  0
 16 12  1  0
 30 25  1  0
 21 15  1  0
  1 31  1  0
  1 32  1  0
  1 33  1  0
  2 34  1  0
  5 35  1  6
  7 36  1  6
  8 37  1  1
  9 38  1  1
 10 39  1  0
 11 40  1  0
 13 41  1  0
 19 42  1  0
 19 43  1  0
 22 44  1  0
 23 45  1  0
 23 46  1  0
 24 47  1  0
 24 48  1  0
 26 49  1  0
 27 50  1  0
 28 51  1  0
 29 52  1  0
 30 53  1  0
M  END
>  <Ligand ID>  (1) 
LIG0001984

>  <Ligand>  (1) 
CHEMBL3133079

>  <SMILES>  (1) 
CNC(=O)[C@H]1O[C@H]([C@@H]([C@@H]1O)O)n1cnc2c1nc(N)nc2NCCc1ccccc1

>  <CID>  (1) 
76329263.0

>  <ChEMBL ID>  (1) 
nan

>  <InChiKey>  (1) 
RNSBXSZLWYVTLA-MOROJQBDSA-N

>  <InChi>  (1) 
InChI=1S/C19H23N7O4/c1-21-17(29)14-12(27)13(28)18(30-14)26-9-23-11-15(24-19(20)25-16(11)26)22-8-7-10-5-3-2-4-6-10/h2-6,9,12-14,18,27-28H,7-8H2,1H3,(H,21,29)(H3,20,22,24,25)/t12-,13+,14-,18+/m0/s1

>  <IUPAC Name>  (1) 
(2S,3S,4R,5R)-5-[2-amino-6-(2-phenylethylamino)purin-9-yl]-3,4-dihydroxy-N-methyloxolane-2-carboxamide

$$$$
