
     RDKit          3D

 15 14  0  0  0  0  0  0  0  0999 V2000
    2.5962   -0.1717   -0.3464 C   0  0  0  0  0  0  0  0  0  0  0  0
    1.1572   -0.6535   -0.3183 C   0  0  0  0  0  0  0  0  0  0  0  0
    0.0521    0.5415    0.4300 S   0  0  0  0  0  0  0  0  0  0  0  0
   -1.3403    0.9948   -0.6028 C   0  0  0  0  0  0  0  0  0  0  0  0
   -2.4043   -0.0784   -0.6769 C   0  0  0  0  0  0  0  0  0  0  0  0
    2.9816   -0.2271    0.7031 H   0  0  0  0  0  0  0  0  0  0  0  0
    3.1644   -0.8649   -1.0140 H   0  0  0  0  0  0  0  0  0  0  0  0
    2.6939    0.8772   -0.6722 H   0  0  0  0  0  0  0  0  0  0  0  0
    1.1442   -1.5590    0.3399 H   0  0  0  0  0  0  0  0  0  0  0  0
    0.8247   -1.0124   -1.3131 H   0  0  0  0  0  0  0  0  0  0  0  0
   -0.9606    1.2190   -1.6202 H   0  0  0  0  0  0  0  0  0  0  0  0
   -1.8220    1.8981   -0.1754 H   0  0  0  0  0  0  0  0  0  0  0  0
   -3.0983   -0.0580    0.1867 H   0  0  0  0  0  0  0  0  0  0  0  0
   -3.0305    0.1772   -1.5667 H   0  0  0  0  0  0  0  0  0  0  0  0
   -1.9582   -1.0827   -0.8164 H   0  0  0  0  0  0  0  0  0  0  0  0
  1  2  1  0
  2  3  1  0
  3  4  1  0
  4  5  1  0
  1  6  1  0
  1  7  1  0
  1  8  1  0
  2  9  1  0
  2 10  1  0
  4 11  1  0
  4 12  1  0
  5 13  1  0
  5 14  1  0
  5 15  1  0
M  END
>  <Ligand ID>  (1) 
LIG0000212

>  <Ligand>  (1) 
Diethyl sulfide

>  <SMILES>  (1) 
CCSCC

>  <CID>  (1) 
9609.0

>  <ChEMBL ID>  (1) 
nan

>  <InChiKey>  (1) 
LJSQFQKUNVCTIA-UHFFFAOYSA-N

>  <InChi>  (1) 
InChI=1S/C4H10S/c1-3-5-4-2/h3-4H2,1-2H3

>  <IUPAC Name>  (1) 
ethylsulfanylethane

$$$$
