
     RDKit          3D

 15 14  0  0  0  0  0  0  0  0999 V2000
    1.3495   -0.7229    0.0279 C   0  0  0  0  0  0  0  0  0  0  0  0
    0.4523    0.0448   -0.9153 C   0  0  0  0  0  0  0  0  0  0  0  0
   -0.6369    0.7414   -0.0891 C   0  0  2  0  0  0  0  0  0  0  0  0
   -0.0553    1.6120    0.8182 O   0  0  0  0  0  0  0  0  0  0  0  0
   -1.4326   -0.3201    0.5984 C   0  0  0  0  0  0  0  0  0  0  0  0
    1.0856   -0.5254    1.0875 H   0  0  0  0  0  0  0  0  0  0  0  0
    1.1901   -1.8295   -0.1222 H   0  0  0  0  0  0  0  0  0  0  0  0
    2.4133   -0.5010   -0.1995 H   0  0  0  0  0  0  0  0  0  0  0  0
    1.0420    0.7758   -1.5044 H   0  0  0  0  0  0  0  0  0  0  0  0
   -0.0071   -0.6566   -1.6375 H   0  0  0  0  0  0  0  0  0  0  0  0
   -1.3159    1.2961   -0.7694 H   0  0  0  0  0  0  0  0  0  0  0  0
    0.7858    1.9325    0.4448 H   0  0  0  0  0  0  0  0  0  0  0  0
   -1.4910   -1.1872   -0.1000 H   0  0  0  0  0  0  0  0  0  0  0  0
   -0.9068   -0.6163    1.5160 H   0  0  0  0  0  0  0  0  0  0  0  0
   -2.4732   -0.0435    0.8446 H   0  0  0  0  0  0  0  0  0  0  0  0
  1  2  1  0
  2  3  1  0
  3  4  1  0
  3  5  1  0
  1  6  1  0
  1  7  1  0
  1  8  1  0
  2  9  1  0
  2 10  1  0
  3 11  1  6
  4 12  1  0
  5 13  1  0
  5 14  1  0
  5 15  1  0
M  END
>  <Ligand ID>  (1) 
LIG0001026

>  <Ligand>  (1) 
(2R)-butan-2-ol

>  <SMILES>  (1) 
CC[C@H](O)C

>  <CID>  (1) 
84682.0

>  <ChEMBL ID>  (1) 
nan

>  <InChiKey>  (1) 
BTANRVKWQNVYAZ-SCSAIBSYSA-N

>  <InChi>  (1) 
InChI=1S/C4H10O/c1-3-4(2)5/h4-5H,3H2,1-2H3/t4-/m1/s1

>  <IUPAC Name>  (1) 
(2R)-butan-2-ol

$$$$
