
     RDKit          3D

 97101  0  0  0  0  0  0  0  0999 V2000
    0.1845    7.1369    0.6495 N   0  0  0  0  0  0  0  0  0  0  0  0
    1.3274    6.4652    0.1231 C   0  0  0  0  0  0  0  0  0  0  0  0
    1.4635    5.1742    0.2669 N   0  0  0  0  0  0  0  0  0  0  0  0
    2.6007    4.4842   -0.2535 C   0  0  0  0  0  0  0  0  0  0  0  0
    3.2442    3.6487    0.8306 C   0  0  0  0  0  0  0  0  0  0  0  0
    2.3482    2.6169    1.4150 C   0  0  0  0  0  0  0  0  0  0  0  0
    1.8777    1.6750    0.3142 C   0  0  1  0  0  0  0  0  0  0  0  0
    3.0014    0.9823   -0.3445 C   0  0  0  0  0  0  0  0  0  0  0  0
    3.9395    1.5684   -0.9540 O   0  0  0  0  0  0  0  0  0  0  0  0
    3.0766   -0.4409   -0.3158 N   0  0  0  0  0  0  0  0  0  0  0  0
    4.1947   -1.1519   -0.9608 C   0  0  2  0  0  0  0  0  0  0  0  0
    3.5971   -2.1106   -1.9067 C   0  0  0  0  0  0  0  0  0  0  0  0
    2.3402   -2.2239   -2.0727 O   0  0  0  0  0  0  0  0  0  0  0  0
    4.4032   -2.9849   -2.7073 N   0  0  0  0  0  0  0  0  0  0  0  0
    4.9184   -1.8469    0.1738 C   0  0  0  0  0  0  0  0  0  0  0  0
    6.0868   -2.6257   -0.2441 C   0  0  0  0  0  0  0  0  0  0  0  0
    6.1517   -4.0025   -0.3581 C   0  0  0  0  0  0  0  0  0  0  0  0
    7.3894   -4.3598   -0.7679 N   0  0  0  0  0  0  0  0  0  0  0  0
    8.1073   -3.2160   -0.9137 C   0  0  0  0  0  0  0  0  0  0  0  0
    7.3302   -2.1292   -0.5977 C   0  0  0  0  0  0  0  0  0  0  0  0
    7.8191   -0.8250   -0.6598 C   0  0  0  0  0  0  0  0  0  0  0  0
    9.1445   -0.6192   -1.0574 C   0  0  0  0  0  0  0  0  0  0  0  0
    9.9364   -1.6958   -1.3773 C   0  0  0  0  0  0  0  0  0  0  0  0
    9.4223   -2.9583   -1.3043 C   0  0  0  0  0  0  0  0  0  0  0  0
    0.9307    0.7012    0.8945 N   0  0  0  0  0  0  0  0  0  0  0  0
   -0.4511    0.7403    0.6323 C   0  0  0  0  0  0  0  0  0  0  0  0
   -1.0196    1.5896   -0.1023 O   0  0  0  0  0  0  0  0  0  0  0  0
   -1.3109   -0.2896    1.2634 C   0  0  2  0  0  0  0  0  0  0  0  0
   -2.7088   -0.0645    0.9884 N   0  0  0  0  0  0  0  0  0  0  0  0
   -3.4905   -0.9889    0.1755 C   0  0  0  0  0  0  0  0  0  0  0  0
   -2.8429   -1.9658   -0.2445 O   0  0  0  0  0  0  0  0  0  0  0  0
   -4.8781   -0.6350   -0.0144 C   0  0  1  0  0  0  0  0  0  0  0  0
   -4.8957    0.7535   -0.6571 C   0  0  0  0  0  0  0  0  0  0  0  0
   -6.2626    1.2011   -0.9681 C   0  0  0  0  0  0  0  0  0  0  0  0
   -6.4398    2.5285   -1.3050 C   0  0  0  0  0  0  0  0  0  0  0  0
   -7.7018    3.0012   -1.6072 C   0  0  0  0  0  0  0  0  0  0  0  0
   -8.7793    2.1524   -1.5726 C   0  0  0  0  0  0  0  0  0  0  0  0
   -8.5858    0.8285   -1.2341 C   0  0  0  0  0  0  0  0  0  0  0  0
   -7.3086    0.3436   -0.9274 C   0  0  0  0  0  0  0  0  0  0  0  0
   -7.2102   -1.1021   -0.5823 C   0  0  0  0  0  0  0  0  0  0  0  0
   -5.7714   -1.5032   -0.6955 N   0  0  0  0  0  0  0  0  0  0  0  0
   -5.4960   -2.6669   -1.4416 C   0  0  0  0  0  0  0  0  0  0  0  0
   -4.3926   -3.1656   -1.6850 O   0  0  0  0  0  0  0  0  0  0  0  0
   -6.6716   -3.4314   -2.0362 C   0  0  0  0  0  0  0  0  0  0  0  0
   -1.1387   -0.4337    2.7364 C   0  0  0  0  0  0  0  0  0  0  0  0
   -2.0796   -1.5146    3.1734 C   0  0  0  0  0  0  0  0  0  0  0  0
   -3.3775   -1.2584    3.5588 C   0  0  0  0  0  0  0  0  0  0  0  0
   -4.2053   -2.3050    3.9535 C   0  0  0  0  0  0  0  0  0  0  0  0
   -3.7511   -3.6035    3.9674 C   0  0  0  0  0  0  0  0  0  0  0  0
   -2.4412   -3.8623    3.5785 C   0  0  0  0  0  0  0  0  0  0  0  0
   -1.6030   -2.8326    3.1828 C   0  0  0  0  0  0  0  0  0  0  0  0
    2.3142    7.2287   -0.5608 N   0  0  0  0  0  0  0  0  0  0  0  0
    0.3618    8.0412    1.1336 H   0  0  0  0  0  0  0  0  0  0  0  0
   -0.7746    6.7473    0.5565 H   0  0  0  0  0  0  0  0  0  0  0  0
    2.3738    3.9204   -1.1642 H   0  0  0  0  0  0  0  0  0  0  0  0
    3.3697    5.2593   -0.5371 H   0  0  0  0  0  0  0  0  0  0  0  0
    4.2186    3.2811    0.5067 H   0  0  0  0  0  0  0  0  0  0  0  0
    3.4789    4.3971    1.6568 H   0  0  0  0  0  0  0  0  0  0  0  0
    1.4515    3.0999    1.8399 H   0  0  0  0  0  0  0  0  0  0  0  0
    2.9010    2.0267    2.1581 H   0  0  0  0  0  0  0  0  0  0  0  0
    1.2887    2.2614   -0.4177 H   0  0  0  0  0  0  0  0  0  0  0  0
    2.3780   -1.0543    0.1407 H   0  0  0  0  0  0  0  0  0  0  0  0
    4.9077   -0.4752   -1.4431 H   0  0  0  0  0  0  0  0  0  0  0  0
    4.2000   -4.0256   -2.7498 H   0  0  0  0  0  0  0  0  0  0  0  0
    5.1861   -2.5399   -3.2343 H   0  0  0  0  0  0  0  0  0  0  0  0
    4.2071   -2.4174    0.8067 H   0  0  0  0  0  0  0  0  0  0  0  0
    5.2790   -1.0069    0.8377 H   0  0  0  0  0  0  0  0  0  0  0  0
    5.3173   -4.6609   -0.1434 H   0  0  0  0  0  0  0  0  0  0  0  0
    7.7195   -5.3305   -0.9365 H   0  0  0  0  0  0  0  0  0  0  0  0
    7.1991    0.0316   -0.4074 H   0  0  0  0  0  0  0  0  0  0  0  0
    9.5718    0.3718   -1.1223 H   0  0  0  0  0  0  0  0  0  0  0  0
   10.9760   -1.6063   -1.6936 H   0  0  0  0  0  0  0  0  0  0  0  0
   10.0075   -3.8565   -1.5457 H   0  0  0  0  0  0  0  0  0  0  0  0
    1.3167   -0.0196    1.5114 H   0  0  0  0  0  0  0  0  0  0  0  0
   -1.0299   -1.2568    0.7737 H   0  0  0  0  0  0  0  0  0  0  0  0
   -3.1409    0.7884    1.3990 H   0  0  0  0  0  0  0  0  0  0  0  0
   -5.3937   -0.4275    0.9967 H   0  0  0  0  0  0  0  0  0  0  0  0
   -4.4405    1.4963    0.0185 H   0  0  0  0  0  0  0  0  0  0  0  0
   -4.2961    0.7459   -1.5904 H   0  0  0  0  0  0  0  0  0  0  0  0
   -5.5869    3.1949   -1.3310 H   0  0  0  0  0  0  0  0  0  0  0  0
   -7.7953    4.0496   -1.8670 H   0  0  0  0  0  0  0  0  0  0  0  0
   -9.7467    2.5469   -1.8118 H   0  0  0  0  0  0  0  0  0  0  0  0
   -9.4593    0.1903   -1.2175 H   0  0  0  0  0  0  0  0  0  0  0  0
   -7.4852   -1.2662    0.4601 H   0  0  0  0  0  0  0  0  0  0  0  0
   -7.7918   -1.6300   -1.3436 H   0  0  0  0  0  0  0  0  0  0  0  0
   -7.1767   -2.8605   -2.8202 H   0  0  0  0  0  0  0  0  0  0  0  0
   -6.3745   -4.4503   -2.3452 H   0  0  0  0  0  0  0  0  0  0  0  0
   -7.3790   -3.5688   -1.1939 H   0  0  0  0  0  0  0  0  0  0  0  0
   -0.1030   -0.7893    2.9705 H   0  0  0  0  0  0  0  0  0  0  0  0
   -1.3899    0.4537    3.3169 H   0  0  0  0  0  0  0  0  0  0  0  0
   -3.7410   -0.2447    3.5513 H   0  0  0  0  0  0  0  0  0  0  0  0
   -5.2402   -2.0907    4.2592 H   0  0  0  0  0  0  0  0  0  0  0  0
   -4.3794   -4.4332    4.2713 H   0  0  0  0  0  0  0  0  0  0  0  0
   -2.0665   -4.8986    3.5851 H   0  0  0  0  0  0  0  0  0  0  0  0
   -0.5773   -3.0315    2.8783 H   0  0  0  0  0  0  0  0  0  0  0  0
    3.3130    7.2934   -0.2352 H   0  0  0  0  0  0  0  0  0  0  0  0
    2.0094    7.7373   -1.4195 H   0  0  0  0  0  0  0  0  0  0  0  0
  1  2  1  0
  2  3  2  3
  3  4  1  0
  4  5  1  0
  5  6  1  0
  6  7  1  0
  7  8  1  0
  8  9  2  0
  8 10  1  0
 10 11  1  0
 11 12  1  0
 12 13  2  0
 12 14  1  0
 11 15  1  0
 15 16  1  0
 16 17  2  0
 17 18  1  0
 18 19  1  0
 19 20  2  0
 20 21  1  0
 21 22  2  0
 22 23  1  0
 23 24  2  0
  7 25  1  0
 25 26  1  0
 26 27  2  0
 26 28  1  0
 28 29  1  0
 29 30  1  0
 30 31  2  0
 30 32  1  0
 32 33  1  0
 33 34  1  0
 34 35  2  0
 35 36  1  0
 36 37  2  0
 37 38  1  0
 38 39  2  0
 39 40  1  0
 40 41  1  0
 41 42  1  0
 42 43  2  0
 42 44  1  0
 28 45  1  0
 45 46  1  0
 46 47  2  0
 47 48  1  0
 48 49  2  0
 49 50  1  0
 50 51  2  0
  2 52  1  0
 20 16  1  0
 41 32  1  0
 51 46  1  0
 24 19  1  0
 39 34  1  0
  1 53  1  0
  1 54  1  0
  4 55  1  0
  4 56  1  0
  5 57  1  0
  5 58  1  0
  6 59  1  0
  6 60  1  0
  7 61  1  6
 10 62  1  0
 11 63  1  6
 14 64  1  0
 14 65  1  0
 15 66  1  0
 15 67  1  0
 17 68  1  0
 18 69  1  0
 21 70  1  0
 22 71  1  0
 23 72  1  0
 24 73  1  0
 25 74  1  0
 28 75  1  6
 29 76  1  0
 32 77  1  1
 33 78  1  0
 33 79  1  0
 35 80  1  0
 36 81  1  0
 37 82  1  0
 38 83  1  0
 40 84  1  0
 40 85  1  0
 44 86  1  0
 44 87  1  0
 44 88  1  0
 45 89  1  0
 45 90  1  0
 47 91  1  0
 48 92  1  0
 49 93  1  0
 50 94  1  0
 51 95  1  0
 52 96  1  0
 52 97  1  0
M  END
>  <Ligand ID>  (1) 
LIG0000893

>  <Ligand>  (1) 
CHEMBL275303

>  <SMILES>  (1) 
NC(=NCCC[C@@H](C(=O)N[C@H](C(=O)N)Cc1c[nH]c2c1cccc2)NC(=O)[C@H](NC(=O)[C@H]1Cc2ccccc2CN1C(=O)C)Cc1ccccc1)N

>  <CID>  (1) 
10996121.0

>  <ChEMBL ID>  (1) 
nan

>  <InChiKey>  (1) 
YVMNAKQQXPYPRY-UYEZAFAQSA-N

>  <InChi>  (1) 
InChI=1S/C38H45N9O5/c1-23(48)47-22-26-13-6-5-12-25(26)20-33(47)37(52)46-32(18-24-10-3-2-4-11-24)36(51)44-30(16-9-17-42-38(40)41)35(50)45-31(34(39)49)19-27-21-43-29-15-8-7-14-28(27)29/h2-8,10-15,21,30-33,43H,9,16-20,22H2,1H3,(H2,39,49)(H,44,51)(H,45,50)(H,46,52)(H4,40,41,42)/t30-,31-,32+,33+/m0/s1

>  <IUPAC Name>  (1) 
(3R)-2-acetyl-N-[(2R)-1-[[(2S)-1-[[(2S)-1-amino-3-(1H-indol-3-yl)-1-oxopropan-2-yl]amino]-5-(diaminomethylideneamino)-1-oxopentan-2-yl]amino]-1-oxo-3-phenylpropan-2-yl]-3,4-dihydro-1H-isoquinoline-3-carboxamide

$$$$
