
     RDKit          3D

 52 53  0  0  0  0  0  0  0  0999 V2000
    9.1703    0.5982    1.1313 C   0  0  0  0  0  0  0  0  0  0  0  0
    8.4380   -0.4652    0.5903 O   0  0  0  0  0  0  0  0  0  0  0  0
    7.1166   -0.3434    0.2609 C   0  0  0  0  0  0  0  0  0  0  0  0
    6.3550    0.7891    0.4080 C   0  0  0  0  0  0  0  0  0  0  0  0
    5.0232    0.8629    0.0596 C   0  0  0  0  0  0  0  0  0  0  0  0
    4.3900   -0.2668   -0.4764 C   0  0  0  0  0  0  0  0  0  0  0  0
    5.1308   -1.4186   -0.6357 C   0  0  0  0  0  0  0  0  0  0  0  0
    6.4784   -1.4559   -0.2709 C   0  0  0  0  0  0  0  0  0  0  0  0
    2.9767   -0.1217   -0.8347 C   0  0  0  0  0  0  0  0  0  0  0  0
    1.9876   -0.4402    0.2289 C   0  0  0  0  0  0  0  0  0  0  0  0
    0.5965   -0.2048   -0.4003 C   0  0  2  0  0  0  0  0  0  0  0  0
   -0.3736   -0.5072    0.5926 N   0  0  0  0  0  0  0  0  0  0  0  0
   -1.7422   -0.3201    0.2562 C   0  0  0  0  0  0  0  0  0  0  0  0
   -2.2004    1.0834    0.0722 C   0  0  2  0  0  0  0  0  0  0  0  0
   -3.6857    1.0377   -0.3132 C   0  0  0  0  0  0  0  0  0  0  0  0
   -4.3489    0.2797    0.6543 O   0  0  0  0  0  0  0  0  0  0  0  0
   -5.7250    0.1207    0.4856 C   0  0  0  0  0  0  0  0  0  0  0  0
   -6.3521    0.7111   -0.6096 C   0  0  0  0  0  0  0  0  0  0  0  0
   -7.7186    0.5835   -0.8230 C   0  0  0  0  0  0  0  0  0  0  0  0
   -8.4646   -0.1508    0.0820 C   0  0  0  0  0  0  0  0  0  0  0  0
   -7.8552   -0.7490    1.1838 C   0  0  0  0  0  0  0  0  0  0  0  0
   -6.4896   -0.6075    1.3754 C   0  0  0  0  0  0  0  0  0  0  0  0
   -9.8269   -0.2596   -0.1588 O   0  0  0  0  0  0  0  0  0  0  0  0
   -1.5833    1.8155   -0.9057 O   0  0  0  0  0  0  0  0  0  0  0  0
    0.4798   -1.0157   -1.6752 C   0  0  0  0  0  0  0  0  0  0  0  0
    9.1121    0.5393    2.2410 H   0  0  0  0  0  0  0  0  0  0  0  0
   10.2393    0.4206    0.8484 H   0  0  0  0  0  0  0  0  0  0  0  0
    8.8394    1.5827    0.7778 H   0  0  0  0  0  0  0  0  0  0  0  0
    6.8139    1.6756    0.8184 H   0  0  0  0  0  0  0  0  0  0  0  0
    4.4554    1.7874    0.1958 H   0  0  0  0  0  0  0  0  0  0  0  0
    4.6287   -2.2923   -1.0539 H   0  0  0  0  0  0  0  0  0  0  0  0
    7.0482   -2.3869   -0.4081 H   0  0  0  0  0  0  0  0  0  0  0  0
    2.7752    0.9078   -1.2406 H   0  0  0  0  0  0  0  0  0  0  0  0
    2.8140   -0.7982   -1.7233 H   0  0  0  0  0  0  0  0  0  0  0  0
    2.0549   -1.4364    0.6512 H   0  0  0  0  0  0  0  0  0  0  0  0
    2.1250    0.2811    1.0640 H   0  0  0  0  0  0  0  0  0  0  0  0
    0.5016    0.8593   -0.6913 H   0  0  0  0  0  0  0  0  0  0  0  0
   -0.2393   -1.4492    1.0434 H   0  0  0  0  0  0  0  0  0  0  0  0
   -2.0114   -0.9039   -0.6528 H   0  0  0  0  0  0  0  0  0  0  0  0
   -2.3468   -0.7251    1.1275 H   0  0  0  0  0  0  0  0  0  0  0  0
   -2.0895    1.6808    1.0241 H   0  0  0  0  0  0  0  0  0  0  0  0
   -4.0339    2.1083   -0.3192 H   0  0  0  0  0  0  0  0  0  0  0  0
   -3.8045    0.6868   -1.3486 H   0  0  0  0  0  0  0  0  0  0  0  0
   -5.7996    1.2968   -1.3444 H   0  0  0  0  0  0  0  0  0  0  0  0
   -8.1966    1.0414   -1.6693 H   0  0  0  0  0  0  0  0  0  0  0  0
   -8.4635   -1.3132    1.8694 H   0  0  0  0  0  0  0  0  0  0  0  0
   -5.9811   -1.0608    2.2228 H   0  0  0  0  0  0  0  0  0  0  0  0
  -10.2092   -1.1896   -0.2488 H   0  0  0  0  0  0  0  0  0  0  0  0
   -1.5647    2.7795   -0.6926 H   0  0  0  0  0  0  0  0  0  0  0  0
    1.1219   -1.9237   -1.5073 H   0  0  0  0  0  0  0  0  0  0  0  0
   -0.5316   -1.2733   -1.9696 H   0  0  0  0  0  0  0  0  0  0  0  0
    0.9653   -0.4499   -2.5042 H   0  0  0  0  0  0  0  0  0  0  0  0
  1  2  1  0
  2  3  1  0
  3  4  2  0
  4  5  1  0
  5  6  2  0
  6  7  1  0
  7  8  2  0
  6  9  1  0
  9 10  1  0
 10 11  1  0
 11 12  1  0
 12 13  1  0
 13 14  1  0
 14 15  1  0
 15 16  1  0
 16 17  1  0
 17 18  2  0
 18 19  1  0
 19 20  2  0
 20 21  1  0
 21 22  2  0
 20 23  1  0
 14 24  1  0
 11 25  1  0
  8  3  1  0
 22 17  1  0
  1 26  1  0
  1 27  1  0
  1 28  1  0
  4 29  1  0
  5 30  1  0
  7 31  1  0
  8 32  1  0
  9 33  1  0
  9 34  1  0
 10 35  1  0
 10 36  1  0
 11 37  1  6
 12 38  1  0
 13 39  1  0
 13 40  1  0
 14 41  1  1
 15 42  1  0
 15 43  1  0
 18 44  1  0
 19 45  1  0
 21 46  1  0
 22 47  1  0
 23 48  1  0
 24 49  1  0
 25 50  1  0
 25 51  1  0
 25 52  1  0
M  END
>  <Ligand ID>  (1) 
LIG0005476

>  <Ligand>  (1) 
CHEMBL12719

>  <SMILES>  (1) 
COc1ccc(cc1)CC[C@H](NC[C@H](COc1ccc(cc1)O)O)C

>  <CID>  (1) 
44268267.0

>  <ChEMBL ID>  (1) 
nan

>  <InChiKey>  (1) 
FVXAAPNMRWHMJD-CRAIPNDOSA-N

>  <InChi>  (1) 
InChI=1S/C20H27NO4/c1-15(3-4-16-5-9-19(24-2)10-6-16)21-13-18(23)14-25-20-11-7-17(22)8-12-20/h5-12,15,18,21-23H,3-4,13-14H2,1-2H3/t15-,18-/m1/s1

>  <IUPAC Name>  (1) 
4-[(2R)-2-hydroxy-3-[[(2R)-4-(4-methoxyphenyl)butan-2-yl]amino]propoxy]phenol

$$$$
