
     RDKit          3D

 57 61  0  0  0  0  0  0  0  0999 V2000
   -8.0565   -1.7399    2.1398 Cl  0  0  0  0  0  0  0  0  0  0  0  0
   -6.5987   -1.1621    1.3576 C   0  0  0  0  0  0  0  0  0  0  0  0
   -5.5256   -0.6583    2.0563 C   0  0  0  0  0  0  0  0  0  0  0  0
   -4.3880   -0.2121    1.3771 C   0  0  0  0  0  0  0  0  0  0  0  0
   -4.2877   -0.2531    0.0078 C   0  0  0  0  0  0  0  0  0  0  0  0
   -5.3972   -0.7711   -0.6691 C   0  0  0  0  0  0  0  0  0  0  0  0
   -6.5188   -1.2127   -0.0210 C   0  0  0  0  0  0  0  0  0  0  0  0
   -3.0809    0.2262   -0.7394 C   0  0  0  0  0  0  0  0  0  0  0  0
   -2.0325   -0.7931   -0.6762 C   0  0  0  0  0  0  0  0  0  0  0  0
   -2.4559   -2.1273   -0.7657 C   0  0  0  0  0  0  0  0  0  0  0  0
   -1.5742   -3.1773   -0.7335 C   0  0  0  0  0  0  0  0  0  0  0  0
   -0.2305   -2.8857   -0.6087 C   0  0  0  0  0  0  0  0  0  0  0  0
    0.2476   -1.5830   -0.5158 C   0  0  0  0  0  0  0  0  0  0  0  0
   -0.6909   -0.5774   -0.5550 C   0  0  0  0  0  0  0  0  0  0  0  0
    1.6022   -1.3658   -0.3914 C   0  0  0  0  0  0  0  0  0  0  0  0
    2.1169   -0.0599   -0.2702 N   0  0  0  0  0  0  0  0  0  0  0  0
    3.5128    0.2163   -0.0293 C   0  0  0  0  0  0  0  0  0  0  0  0
    4.2003    1.1487   -0.7744 C   0  0  0  0  0  0  0  0  0  0  0  0
    5.5272    1.4663   -0.5677 C   0  0  0  0  0  0  0  0  0  0  0  0
    6.2023    0.8103    0.4465 C   0  0  0  0  0  0  0  0  0  0  0  0
    5.5530   -0.1401    1.2293 C   0  0  0  0  0  0  0  0  0  0  0  0
    4.2160   -0.4205    0.9771 C   0  0  0  0  0  0  0  0  0  0  0  0
    7.6037    1.0595    0.7554 C   0  0  0  0  0  0  0  0  0  0  0  0
    8.2138    0.4549    1.6976 O   0  0  0  0  0  0  0  0  0  0  0  0
    8.4067    1.9975    0.0277 N   0  0  0  0  0  0  0  0  0  0  0  0
    2.4173   -2.4628   -0.3661 C   0  0  0  0  0  0  0  0  0  0  0  0
    1.9225   -3.7690   -0.4599 C   0  0  0  0  0  0  0  0  0  0  0  0
    2.6830   -4.7610   -0.4340 O   0  0  0  0  0  0  0  0  0  0  0  0
    0.6013   -3.9577   -0.5798 N   0  0  0  0  0  0  0  0  0  0  0  0
   -2.6833    1.5840   -0.3348 C   0  0  0  0  0  0  0  0  0  0  0  0
   -1.9071    1.8913    0.7560 C   0  0  0  0  0  0  0  0  0  0  0  0
   -1.5874    3.2220    1.0504 C   0  0  0  0  0  0  0  0  0  0  0  0
   -2.0478    4.2499    0.2484 C   0  0  0  0  0  0  0  0  0  0  0  0
   -2.8287    3.9553   -0.8521 C   0  0  0  0  0  0  0  0  0  0  0  0
   -3.1241    2.6383   -1.1123 C   0  0  0  0  0  0  0  0  0  0  0  0
   -1.6732    5.9361    0.5763 Cl  0  0  0  0  0  0  0  0  0  0  0  0
   -5.5686   -0.6088    3.1508 H   0  0  0  0  0  0  0  0  0  0  0  0
   -3.6007    0.1593    1.9736 H   0  0  0  0  0  0  0  0  0  0  0  0
   -5.3729   -0.8292   -1.7695 H   0  0  0  0  0  0  0  0  0  0  0  0
   -7.3429   -1.6019   -0.6315 H   0  0  0  0  0  0  0  0  0  0  0  0
   -3.4190    0.2247   -1.8293 H   0  0  0  0  0  0  0  0  0  0  0  0
   -3.5277   -2.3571   -0.8661 H   0  0  0  0  0  0  0  0  0  0  0  0
   -1.9148   -4.2027   -0.8044 H   0  0  0  0  0  0  0  0  0  0  0  0
   -0.3543    0.4443   -0.4987 H   0  0  0  0  0  0  0  0  0  0  0  0
    1.5359    0.8181   -0.3472 H   0  0  0  0  0  0  0  0  0  0  0  0
    3.6896    1.6668   -1.5658 H   0  0  0  0  0  0  0  0  0  0  0  0
    6.0683    2.1933   -1.1452 H   0  0  0  0  0  0  0  0  0  0  0  0
    6.0718   -0.6475    2.0122 H   0  0  0  0  0  0  0  0  0  0  0  0
    3.7641   -1.1561    1.6315 H   0  0  0  0  0  0  0  0  0  0  0  0
    8.0494    2.9887    0.0127 H   0  0  0  0  0  0  0  0  0  0  0  0
    9.2871    1.7081   -0.4494 H   0  0  0  0  0  0  0  0  0  0  0  0
    3.5030   -2.4085   -0.2877 H   0  0  0  0  0  0  0  0  0  0  0  0
    0.2594   -4.9307   -0.6465 H   0  0  0  0  0  0  0  0  0  0  0  0
   -1.5304    1.1195    1.4088 H   0  0  0  0  0  0  0  0  0  0  0  0
   -0.9710    3.4790    1.9130 H   0  0  0  0  0  0  0  0  0  0  0  0
   -3.2204    4.7330   -1.5223 H   0  0  0  0  0  0  0  0  0  0  0  0
   -3.7435    2.4407   -1.9904 H   0  0  0  0  0  0  0  0  0  0  0  0
  1  2  1  0
  2  3  2  0
  3  4  1  0
  4  5  2  0
  5  6  1  0
  6  7  2  0
  5  8  1  0
  8  9  1  0
  9 10  2  0
 10 11  1  0
 11 12  2  0
 12 13  1  0
 13 14  2  0
 13 15  1  0
 15 16  1  0
 16 17  1  0
 17 18  2  0
 18 19  1  0
 19 20  2  0
 20 21  1  0
 21 22  2  0
 20 23  1  0
 23 24  2  0
 23 25  1  0
 15 26  2  0
 26 27  1  0
 27 28  2  0
 27 29  1  0
  8 30  1  0
 30 31  2  0
 31 32  1  0
 32 33  2  0
 33 34  1  0
 34 35  2  0
 33 36  1  0
  7  2  1  0
 14  9  1  0
 22 17  1  0
 35 30  1  0
 29 12  1  0
  3 37  1  0
  4 38  1  0
  6 39  1  0
  7 40  1  0
  8 41  1  0
 10 42  1  0
 11 43  1  0
 14 44  1  0
 16 45  1  0
 18 46  1  0
 19 47  1  0
 21 48  1  0
 22 49  1  0
 25 50  1  0
 25 51  1  0
 26 52  1  0
 29 53  1  0
 31 54  1  0
 32 55  1  0
 34 56  1  0
 35 57  1  0
M  END
>  <Ligand ID>  (1) 
LIG0005893

>  <Ligand>  (1) 
CHEMBL3926390

>  <SMILES>  (1) 
Clc1ccc(cc1)C(c1ccc2c(c1)c(Nc1ccc(cc1)C(=O)N)cc(=O)[nH]2)c1ccc(cc1)Cl

>  <CID>  (1) 
118323947.0

>  <ChEMBL ID>  (1) 
nan

>  <InChiKey>  (1) 
BLTDUYASEOYHKZ-UHFFFAOYSA-N

>  <InChi>  (1) 
InChI=1S/C29H21Cl2N3O2/c30-21-8-1-17(2-9-21)28(18-3-10-22(31)11-4-18)20-7-14-25-24(15-20)26(16-27(35)34-25)33-23-12-5-19(6-13-23)29(32)36/h1-16,28H,(H2,32,36)(H2,33,34,35)

>  <IUPAC Name>  (1) 
4-[[6-[bis(4-chlorophenyl)methyl]-2-oxo-1H-quinolin-4-yl]amino]benzamide

$$$$
