
     RDKit          3D

 65 68  0  0  0  0  0  0  0  0999 V2000
    1.4209   -2.0981    1.0848 C   0  0  0  0  0  0  0  0  0  0  0  0
    1.0258   -1.9187   -0.3238 C   0  0  2  0  0  0  0  0  0  0  0  0
    2.2066   -1.9465   -1.3133 C   0  0  0  0  0  0  0  0  0  0  0  0
    3.2224   -0.9331   -1.1107 C   0  0  0  0  0  0  0  0  0  0  0  0
    3.2595    0.2702   -1.8384 C   0  0  0  0  0  0  0  0  0  0  0  0
    4.2940    1.0138   -1.4212 N   0  0  0  0  0  0  0  0  0  0  0  0
    4.9472    0.3643   -0.4522 C   0  0  0  0  0  0  0  0  0  0  0  0
    4.2976   -0.8278   -0.2569 C   0  0  0  0  0  0  0  0  0  0  0  0
    4.8052   -1.6792    0.6972 C   0  0  0  0  0  0  0  0  0  0  0  0
    5.9079   -1.4087    1.4557 C   0  0  0  0  0  0  0  0  0  0  0  0
    6.5532   -0.2095    1.2541 C   0  0  0  0  0  0  0  0  0  0  0  0
    6.0641    0.6715    0.2962 C   0  0  0  0  0  0  0  0  0  0  0  0
    6.7595    1.8620    0.1425 O   0  0  0  0  0  0  0  0  0  0  0  0
    8.0458    1.9131   -0.9923 S   0  0  0  0  0  0  0  0  0  0  0  0
    7.5952    1.4605   -2.3296 O   0  0  0  0  0  0  0  0  0  0  0  0
    8.6046    3.3098   -1.0202 O   0  0  0  0  0  0  0  0  0  0  0  0
    9.3272    0.7997   -0.4343 C   0  0  0  0  0  0  0  0  0  0  0  0
    0.0185   -1.0682   -0.7334 N   0  0  0  0  0  0  0  0  0  0  0  0
   -0.1718    0.2658   -0.5471 C   0  0  0  0  0  0  0  0  0  0  0  0
   -0.5809    0.6810    0.8341 C   0  0  1  0  0  0  0  0  0  0  0  0
   -2.0268    0.3523    1.1298 C   0  0  0  0  0  0  0  0  0  0  0  0
   -2.3912   -0.8267    1.7371 C   0  0  0  0  0  0  0  0  0  0  0  0
   -3.7067   -1.1192    2.0022 C   0  0  0  0  0  0  0  0  0  0  0  0
   -4.6582   -0.1902    1.6396 C   0  0  0  0  0  0  0  0  0  0  0  0
   -4.3801    1.0048    1.0321 C   0  0  0  0  0  0  0  0  0  0  0  0
   -3.0104    1.2423    0.7886 C   0  0  0  0  0  0  0  0  0  0  0  0
   -5.2262    1.9648    0.6431 O   0  0  0  0  0  0  0  0  0  0  0  0
   -6.5740    2.1918    0.6468 C   0  0  0  0  0  0  0  0  0  0  0  0
   -7.3239    1.2021   -0.1487 C   0  0  0  0  0  0  0  0  0  0  0  0
   -7.3896    1.4406   -1.5283 C   0  0  0  0  0  0  0  0  0  0  0  0
   -8.1022    0.5664   -2.3416 C   0  0  0  0  0  0  0  0  0  0  0  0
   -8.7513   -0.5371   -1.8267 C   0  0  0  0  0  0  0  0  0  0  0  0
   -8.6924   -0.7792   -0.4733 C   0  0  0  0  0  0  0  0  0  0  0  0
   -7.9750    0.1093    0.3129 C   0  0  0  0  0  0  0  0  0  0  0  0
    0.2702    0.3608    1.8582 O   0  0  0  0  0  0  0  0  0  0  0  0
    2.1377   -1.4151    1.5252 H   0  0  0  0  0  0  0  0  0  0  0  0
    1.9797   -3.1038    1.1159 H   0  0  0  0  0  0  0  0  0  0  0  0
    0.5316   -2.3385    1.7214 H   0  0  0  0  0  0  0  0  0  0  0  0
    0.5742   -2.9841   -0.5723 H   0  0  0  0  0  0  0  0  0  0  0  0
    2.6539   -2.9863   -1.3228 H   0  0  0  0  0  0  0  0  0  0  0  0
    1.7139   -1.8838   -2.3246 H   0  0  0  0  0  0  0  0  0  0  0  0
    2.5818    0.5885   -2.6202 H   0  0  0  0  0  0  0  0  0  0  0  0
    4.5758    1.9664   -1.7799 H   0  0  0  0  0  0  0  0  0  0  0  0
    4.2860   -2.6156    0.8370 H   0  0  0  0  0  0  0  0  0  0  0  0
    6.2466   -2.1413    2.1942 H   0  0  0  0  0  0  0  0  0  0  0  0
    7.4271    0.0364    1.8365 H   0  0  0  0  0  0  0  0  0  0  0  0
    9.6021    1.0957    0.6026 H   0  0  0  0  0  0  0  0  0  0  0  0
   10.1744    0.8219   -1.1213 H   0  0  0  0  0  0  0  0  0  0  0  0
    8.8691   -0.2034   -0.4213 H   0  0  0  0  0  0  0  0  0  0  0  0
   -0.4282   -1.4493   -1.6247 H   0  0  0  0  0  0  0  0  0  0  0  0
   -1.0682    0.5873   -1.1991 H   0  0  0  0  0  0  0  0  0  0  0  0
    0.6202    0.9565   -0.9575 H   0  0  0  0  0  0  0  0  0  0  0  0
   -0.6072    1.8429    0.8757 H   0  0  0  0  0  0  0  0  0  0  0  0
   -1.6595   -1.5525    2.0239 H   0  0  0  0  0  0  0  0  0  0  0  0
   -3.9920   -2.0647    2.4889 H   0  0  0  0  0  0  0  0  0  0  0  0
   -5.6776   -0.4329    1.8640 H   0  0  0  0  0  0  0  0  0  0  0  0
   -2.7002    2.1637    0.3101 H   0  0  0  0  0  0  0  0  0  0  0  0
   -6.8073    3.2007    0.2052 H   0  0  0  0  0  0  0  0  0  0  0  0
   -6.9875    2.2345    1.6982 H   0  0  0  0  0  0  0  0  0  0  0  0
   -6.8809    2.3115   -1.9581 H   0  0  0  0  0  0  0  0  0  0  0  0
   -8.1617    0.7380   -3.4102 H   0  0  0  0  0  0  0  0  0  0  0  0
   -9.3129   -1.2347   -2.4346 H   0  0  0  0  0  0  0  0  0  0  0  0
   -9.1878   -1.6248   -0.0642 H   0  0  0  0  0  0  0  0  0  0  0  0
   -7.9542   -0.1007    1.3668 H   0  0  0  0  0  0  0  0  0  0  0  0
   -0.2138    0.0993    2.6828 H   0  0  0  0  0  0  0  0  0  0  0  0
  1  2  1  0
  2  3  1  0
  3  4  1  0
  4  5  2  0
  5  6  1  0
  6  7  1  0
  7  8  2  0
  8  9  1  0
  9 10  2  0
 10 11  1  0
 11 12  2  0
 12 13  1  0
 13 14  1  0
 14 15  2  0
 14 16  2  0
 14 17  1  0
  2 18  1  0
 18 19  1  0
 19 20  1  0
 20 21  1  0
 21 22  2  0
 22 23  1  0
 23 24  2  0
 24 25  1  0
 25 26  2  0
 25 27  1  0
 27 28  1  0
 28 29  1  0
 29 30  2  0
 30 31  1  0
 31 32  2  0
 32 33  1  0
 33 34  2  0
 20 35  1  0
  8  4  1  0
 26 21  1  0
 34 29  1  0
 12  7  1  0
  1 36  1  0
  1 37  1  0
  1 38  1  0
  2 39  1  6
  3 40  1  0
  3 41  1  0
  5 42  1  0
  6 43  1  0
  9 44  1  0
 10 45  1  0
 11 46  1  0
 17 47  1  0
 17 48  1  0
 17 49  1  0
 18 50  1  0
 19 51  1  0
 19 52  1  0
 20 53  1  6
 22 54  1  0
 23 55  1  0
 24 56  1  0
 26 57  1  0
 28 58  1  0
 28 59  1  0
 30 60  1  0
 31 61  1  0
 32 62  1  0
 33 63  1  0
 34 64  1  0
 35 65  1  0
M  END
>  <Ligand ID>  (1) 
LIG0005473

>  <Ligand>  (1) 
CHEMBL182614

>  <SMILES>  (1) 
C[C@H](Cc1c[nH]c2c1cccc2OS(=O)(=O)C)NC[C@@H](c1cccc(c1)OCc1ccccc1)O

>  <CID>  (1) 
44392508.0

>  <ChEMBL ID>  (1) 
nan

>  <InChiKey>  (1) 
NOUCOYNKCVTYDV-CLOONOSVSA-N

>  <InChi>  (1) 
InChI=1S/C27H30N2O5S/c1-19(14-22-16-29-27-24(22)12-7-13-26(27)34-35(2,31)32)28-17-25(30)21-10-6-11-23(15-21)33-18-20-8-4-3-5-9-20/h3-13,15-16,19,25,28-30H,14,17-18H2,1-2H3/t19-,25+/m1/s1

>  <IUPAC Name>  (1) 
[3-[(2R)-2-[[(2R)-2-hydroxy-2-(3-phenylmethoxyphenyl)ethyl]amino]propyl]-1H-indol-7-yl] methanesulfonate

$$$$
