
     RDKit          3D

 34 35  0  0  0  0  0  0  0  0999 V2000
    0.7252    0.4354   -1.2841 O   0  0  0  0  0  0  0  0  0  0  0  0
    0.9402   -0.7190   -0.8630 C   0  0  0  0  0  0  0  0  0  0  0  0
    2.0192   -1.0461   -0.0339 N   0  0  0  0  0  0  0  0  0  0  0  0
    3.0107   -0.1653    0.4504 C   0  0  0  0  0  0  0  0  0  0  0  0
    4.0054   -0.6946    1.2684 C   0  0  0  0  0  0  0  0  0  0  0  0
    5.0001    0.1136    1.7720 C   0  0  0  0  0  0  0  0  0  0  0  0
    5.0773    1.4643    1.5083 C   0  0  0  0  0  0  0  0  0  0  0  0
    4.0959    1.9955    0.6992 C   0  0  0  0  0  0  0  0  0  0  0  0
    3.0879    1.1717    0.1900 C   0  0  0  0  0  0  0  0  0  0  0  0
    6.3762    2.4195    2.1895 Cl  0  0  0  0  0  0  0  0  0  0  0  0
   -0.0012   -1.7275   -1.2825 N   0  0  0  0  0  0  0  0  0  0  0  0
   -1.1062   -1.3950   -2.1300 C   0  0  0  0  0  0  0  0  0  0  0  0
   -2.0494   -0.3675   -1.5402 C   0  0  0  0  0  0  0  0  0  0  0  0
   -2.6433   -0.8645   -0.2414 C   0  0  0  0  0  0  0  0  0  0  0  0
   -3.5345    0.1541    0.2772 N   0  0  0  0  0  0  0  0  0  0  0  0
   -3.1602    1.1515    1.1152 C   0  0  0  0  0  0  0  0  0  0  0  0
   -4.2615    1.8851    1.3671 N   0  0  0  0  0  0  0  0  0  0  0  0
   -5.3045    1.3741    0.7123 C   0  0  0  0  0  0  0  0  0  0  0  0
   -4.8610    0.2663    0.0091 C   0  0  0  0  0  0  0  0  0  0  0  0
    2.0863   -2.0704    0.2535 H   0  0  0  0  0  0  0  0  0  0  0  0
    4.0215   -1.7559    1.5291 H   0  0  0  0  0  0  0  0  0  0  0  0
    5.7472   -0.3467    2.4011 H   0  0  0  0  0  0  0  0  0  0  0  0
    4.1355    3.0508    0.4788 H   0  0  0  0  0  0  0  0  0  0  0  0
    2.3645    1.6647   -0.4303 H   0  0  0  0  0  0  0  0  0  0  0  0
    0.1427   -2.7268   -0.9481 H   0  0  0  0  0  0  0  0  0  0  0  0
   -0.7933   -1.0754   -3.1481 H   0  0  0  0  0  0  0  0  0  0  0  0
   -1.7223   -2.3028   -2.2960 H   0  0  0  0  0  0  0  0  0  0  0  0
   -1.5954    0.6164   -1.4313 H   0  0  0  0  0  0  0  0  0  0  0  0
   -2.8954   -0.2690   -2.2556 H   0  0  0  0  0  0  0  0  0  0  0  0
   -3.1364   -1.8354   -0.3998 H   0  0  0  0  0  0  0  0  0  0  0  0
   -1.8261   -1.0520    0.4949 H   0  0  0  0  0  0  0  0  0  0  0  0
   -2.1449    1.2909    1.4874 H   0  0  0  0  0  0  0  0  0  0  0  0
   -6.3291    1.7236    0.6999 H   0  0  0  0  0  0  0  0  0  0  0  0
   -5.4710   -0.3635   -0.6191 H   0  0  0  0  0  0  0  0  0  0  0  0
  1  2  2  0
  2  3  1  0
  3  4  1  0
  4  5  2  0
  5  6  1  0
  6  7  2  0
  7  8  1  0
  8  9  2  0
  7 10  1  0
  2 11  1  0
 11 12  1  0
 12 13  1  0
 13 14  1  0
 14 15  1  0
 15 16  1  0
 16 17  2  0
 17 18  1  0
 18 19  2  0
  9  4  1  0
 19 15  1  0
  3 20  1  0
  5 21  1  0
  6 22  1  0
  8 23  1  0
  9 24  1  0
 11 25  1  0
 12 26  1  0
 12 27  1  0
 13 28  1  0
 13 29  1  0
 14 30  1  0
 14 31  1  0
 16 32  1  0
 18 33  1  0
 19 34  1  0
M  END
>  <Ligand ID>  (1) 
LIG0005963

>  <Ligand>  (1) 
MLS000087712

>  <SMILES>  (1) 
O=C(Nc1ccc(cc1)Cl)NCCCn1cncc1

>  <CID>  (1) 
2804810.0

>  <ChEMBL ID>  (1) 
nan

>  <InChiKey>  (1) 
SNQYQRBZLIAPFA-UHFFFAOYSA-N

>  <InChi>  (1) 
InChI=1S/C13H15ClN4O/c14-11-2-4-12(5-3-11)17-13(19)16-6-1-8-18-9-7-15-10-18/h2-5,7,9-10H,1,6,8H2,(H2,16,17,19)

>  <IUPAC Name>  (1) 
1-(4-chlorophenyl)-3-(3-imidazol-1-ylpropyl)urea

$$$$
