
     RDKit          3D

 20 20  0  0  0  0  0  0  0  0999 V2000
    2.7336   -0.8596    0.9335 C   0  0  0  0  0  0  0  0  0  0  0  0
    2.1311    0.3857    0.6395 O   0  0  0  0  0  0  0  0  0  0  0  0
    0.8435    0.5262    0.1853 C   0  0  0  0  0  0  0  0  0  0  0  0
    0.0144   -0.5642   -0.0256 C   0  0  0  0  0  0  0  0  0  0  0  0
   -1.2805   -0.3490   -0.4874 C   0  0  0  0  0  0  0  0  0  0  0  0
   -1.7438    0.9298   -0.7356 C   0  0  0  0  0  0  0  0  0  0  0  0
   -0.8950    2.0119   -0.5173 C   0  0  0  0  0  0  0  0  0  0  0  0
    0.3926    1.8149   -0.0592 C   0  0  0  0  0  0  0  0  0  0  0  0
    1.1957    2.9289    0.1411 O   0  0  0  0  0  0  0  0  0  0  0  0
   -2.2057   -1.4533   -0.7306 C   0  0  0  0  0  0  0  0  0  0  0  0
   -3.3844   -1.2754   -1.1497 O   0  0  0  0  0  0  0  0  0  0  0  0
   -1.8340   -2.7795   -0.5109 O   0  0  0  0  0  0  0  0  0  0  0  0
    3.5519   -0.7690    1.6680 H   0  0  0  0  0  0  0  0  0  0  0  0
    2.0268   -1.6124    1.3220 H   0  0  0  0  0  0  0  0  0  0  0  0
    3.1809   -1.2506    0.0013 H   0  0  0  0  0  0  0  0  0  0  0  0
    0.3508   -1.5695    0.1599 H   0  0  0  0  0  0  0  0  0  0  0  0
   -2.7513    1.0756   -1.0934 H   0  0  0  0  0  0  0  0  0  0  0  0
   -1.3154    2.9843   -0.7295 H   0  0  0  0  0  0  0  0  0  0  0  0
    1.4696    3.2712    1.0484 H   0  0  0  0  0  0  0  0  0  0  0  0
   -2.4809   -3.4458   -0.0598 H   0  0  0  0  0  0  0  0  0  0  0  0
  1  2  1  0
  2  3  1  0
  3  4  2  0
  4  5  1  0
  5  6  2  0
  6  7  1  0
  7  8  2  0
  8  9  1  0
  5 10  1  0
 10 11  2  0
 10 12  1  0
  8  3  1  0
  1 13  1  0
  1 14  1  0
  1 15  1  0
  4 16  1  0
  6 17  1  0
  7 18  1  0
  9 19  1  0
 12 20  1  0
M  END
>  <Ligand ID>  (1) 
LIG0000104

>  <Ligand>  (1) 
Vanillic acid

>  <SMILES>  (1) 
COc1cc(ccc1O)C(=O)O

>  <CID>  (1) 
8468.0

>  <ChEMBL ID>  (1) 
nan

>  <InChiKey>  (1) 
WKOLLVMJNQIZCI-UHFFFAOYSA-N

>  <InChi>  (1) 
InChI=1S/C8H8O4/c1-12-7-4-5(8(10)11)2-3-6(7)9/h2-4,9H,1H3,(H,10,11)

>  <IUPAC Name>  (1) 
4-hydroxy-3-methoxybenzoic acid

$$$$
