
     RDKit          3D

 58 60  0  0  0  0  0  0  0  0999 V2000
   -4.9172    4.1948   -0.3948 O   0  0  0  0  0  0  0  0  0  0  0  0
   -4.6798    3.0430    0.3932 C   0  0  0  0  0  0  0  0  0  0  0  0
   -3.5229    2.9503    0.8517 O   0  0  0  0  0  0  0  0  0  0  0  0
   -5.7952    2.1283    0.5662 C   0  0  0  0  0  0  0  0  0  0  0  0
   -5.4382    0.7344    0.9359 C   0  0  0  0  0  0  0  0  0  0  0  0
   -4.7829   -0.0325   -0.1174 C   0  0  1  0  0  0  0  0  0  0  0  0
   -3.5016    0.3526   -0.7325 C   0  0  0  0  0  0  0  0  0  0  0  0
   -2.3310    0.1384    0.1898 C   0  0  0  0  0  0  0  0  0  0  0  0
   -1.6594   -1.1913   -0.0116 C   0  0  1  0  0  0  0  0  0  0  0  0
   -2.5309   -2.3237   -0.3795 C   0  0  1  0  0  0  0  0  0  0  0  0
   -3.8274   -2.0624   -0.7105 O   0  0  0  0  0  0  0  0  0  0  0  0
   -4.6195   -1.5181    0.2643 C   0  0  0  0  0  0  0  0  0  0  0  0
   -1.8780   -2.9036   -1.6336 C   0  0  0  0  0  0  0  0  0  0  0  0
   -0.4481   -2.4586   -1.6155 C   0  0  2  0  0  0  0  0  0  0  0  0
   -0.4950   -1.1150   -0.9609 C   0  0  2  0  0  0  0  0  0  0  0  0
    0.8148   -0.9307   -0.2326 C   0  0  0  0  0  0  0  0  0  0  0  0
    1.5992    0.1033   -0.4185 C   0  0  0  0  0  0  0  0  0  0  0  0
    2.8676    0.1601    0.3686 C   0  0  2  0  0  0  0  0  0  0  0  0
    3.8672   -0.7684   -0.2611 C   0  0  0  0  0  0  0  0  0  0  0  0
    5.0859   -0.7502    0.3731 O   0  0  0  0  0  0  0  0  0  0  0  0
    5.9863    0.2347    0.4980 C   0  0  0  0  0  0  0  0  0  0  0  0
    5.9334    1.5077   -0.0183 C   0  0  0  0  0  0  0  0  0  0  0  0
    6.9530    2.4448    0.1972 C   0  0  0  0  0  0  0  0  0  0  0  0
    8.0687    2.1279    0.9448 C   0  0  0  0  0  0  0  0  0  0  0  0
    8.1321    0.8602    1.4634 C   0  0  0  0  0  0  0  0  0  0  0  0
    7.1354   -0.0487    1.2507 C   0  0  0  0  0  0  0  0  0  0  0  0
    2.6417   -0.2016    1.7027 O   0  0  0  0  0  0  0  0  0  0  0  0
    0.0334   -2.3604   -2.9425 O   0  0  0  0  0  0  0  0  0  0  0  0
   -4.2597    4.9584   -0.3629 H   0  0  0  0  0  0  0  0  0  0  0  0
   -6.4721    2.5874    1.3537 H   0  0  0  0  0  0  0  0  0  0  0  0
   -6.4826    2.1475   -0.3428 H   0  0  0  0  0  0  0  0  0  0  0  0
   -6.3930    0.1933    1.1975 H   0  0  0  0  0  0  0  0  0  0  0  0
   -4.8669    0.7279    1.9129 H   0  0  0  0  0  0  0  0  0  0  0  0
   -5.5475   -0.1010   -0.9717 H   0  0  0  0  0  0  0  0  0  0  0  0
   -3.5351    1.3690   -1.1376 H   0  0  0  0  0  0  0  0  0  0  0  0
   -3.2881   -0.2886   -1.6573 H   0  0  0  0  0  0  0  0  0  0  0  0
   -1.5810    0.9246   -0.0395 H   0  0  0  0  0  0  0  0  0  0  0  0
   -2.6112    0.2629    1.2479 H   0  0  0  0  0  0  0  0  0  0  0  0
   -1.1935   -1.4587    0.9847 H   0  0  0  0  0  0  0  0  0  0  0  0
   -2.5229   -3.1693    0.3685 H   0  0  0  0  0  0  0  0  0  0  0  0
   -4.2636   -1.6437    1.2976 H   0  0  0  0  0  0  0  0  0  0  0  0
   -5.6205   -1.9916    0.2315 H   0  0  0  0  0  0  0  0  0  0  0  0
   -2.3515   -2.4476   -2.5386 H   0  0  0  0  0  0  0  0  0  0  0  0
   -1.9756   -4.0154   -1.6476 H   0  0  0  0  0  0  0  0  0  0  0  0
    0.1838   -3.1908   -1.0801 H   0  0  0  0  0  0  0  0  0  0  0  0
   -0.6035   -0.3248   -1.7264 H   0  0  0  0  0  0  0  0  0  0  0  0
    1.0952   -1.7166    0.4789 H   0  0  0  0  0  0  0  0  0  0  0  0
    1.3041    0.8666   -1.1243 H   0  0  0  0  0  0  0  0  0  0  0  0
    3.2415    1.1832    0.3640 H   0  0  0  0  0  0  0  0  0  0  0  0
    3.4829   -1.8387   -0.1815 H   0  0  0  0  0  0  0  0  0  0  0  0
    3.9449   -0.5736   -1.3664 H   0  0  0  0  0  0  0  0  0  0  0  0
    5.1279    1.8436   -0.6267 H   0  0  0  0  0  0  0  0  0  0  0  0
    6.8900    3.4328   -0.2147 H   0  0  0  0  0  0  0  0  0  0  0  0
    8.8585    2.8262    1.1219 H   0  0  0  0  0  0  0  0  0  0  0  0
    9.0188    0.6198    2.0523 H   0  0  0  0  0  0  0  0  0  0  0  0
    7.2637   -1.0388    1.6998 H   0  0  0  0  0  0  0  0  0  0  0  0
    3.5063   -0.4484    2.1225 H   0  0  0  0  0  0  0  0  0  0  0  0
    0.9591   -2.0114   -2.9347 H   0  0  0  0  0  0  0  0  0  0  0  0
  1  2  1  0
  2  3  2  0
  2  4  1  0
  4  5  1  0
  5  6  1  0
  6  7  1  0
  7  8  1  0
  8  9  1  0
  9 10  1  0
 10 11  1  0
 11 12  1  0
 10 13  1  0
 13 14  1  0
 14 15  1  0
 15 16  1  0
 16 17  2  0
 17 18  1  0
 18 19  1  0
 19 20  1  0
 20 21  1  0
 21 22  2  0
 22 23  1  0
 23 24  2  0
 24 25  1  0
 25 26  2  0
 18 27  1  0
 14 28  1  0
 12  6  1  0
 26 21  1  0
 15  9  1  0
  1 29  1  0
  4 30  1  0
  4 31  1  0
  5 32  1  0
  5 33  1  0
  6 34  1  6
  7 35  1  0
  7 36  1  0
  8 37  1  0
  8 38  1  0
  9 39  1  1
 10 40  1  1
 12 41  1  0
 12 42  1  0
 13 43  1  0
 13 44  1  0
 14 45  1  1
 15 46  1  6
 16 47  1  0
 17 48  1  0
 18 49  1  1
 19 50  1  0
 19 51  1  0
 22 52  1  0
 23 53  1  0
 24 54  1  0
 25 55  1  0
 26 56  1  0
 27 57  1  0
 28 58  1  0
M  END
>  <Ligand ID>  (1) 
LIG0002907

>  <Ligand>  (1) 
CHEMBL3938300

>  <SMILES>  (1) 
OC(=O)CC[C@H]1CC[C@H]2[C@@H](OC1)C[C@H]([C@@H]2/C=C/[C@H](COc1ccccc1)O)O

>  <CID>  (1) 
134149776.0

>  <ChEMBL ID>  (1) 
nan

>  <InChiKey>  (1) 
IYVIISGTDLLJJD-ZYPGJDAOSA-N

>  <InChi>  (1) 
InChI=1S/C22H30O6/c23-16(14-27-17-4-2-1-3-5-17)8-10-18-19-9-6-15(7-11-22(25)26)13-28-21(19)12-20(18)24/h1-5,8,10,15-16,18-21,23-24H,6-7,9,11-14H2,(H,25,26)/b10-8+/t15-,16-,18-,19-,20-,21+/m1/s1

>  <IUPAC Name>  (1) 
3-[(3R,5aR,6R,7R,8aS)-7-hydroxy-6-[(E,3R)-3-hydroxy-4-phenoxybut-1-enyl]-3,4,5,5a,6,7,8,8a-octahydro-2H-cyclopenta[b]oxepin-3-yl]propanoic acid

$$$$
