
     RDKit          3D

 19 18  0  0  0  0  0  0  0  0999 V2000
   -3.7325    0.4967    0.5084 C   0  0  0  0  0  0  0  0  0  0  0  0
   -2.3218    0.2923    1.8331 Se  0  0  0  0  0  2  0  0  0  0  0  0
   -0.7479   -0.5269    1.0664 C   0  0  0  0  0  0  0  0  0  0  0  0
   -0.3913    0.2536   -0.1750 C   0  0  0  0  0  0  0  0  0  0  0  0
    0.8410   -0.3160   -0.8547 C   0  0  0  0  0  0  0  0  0  0  0  0
    2.3115   -0.2247    0.4012 Se  0  0  0  0  0  2  0  0  0  0  0  0
    3.9716    0.2773   -0.4964 C   0  0  0  0  0  0  0  0  0  0  0  0
   -4.3120    1.4325    0.6524 H   0  0  0  0  0  0  0  0  0  0  0  0
   -3.2595    0.5340   -0.5012 H   0  0  0  0  0  0  0  0  0  0  0  0
   -4.4621   -0.3416    0.5473 H   0  0  0  0  0  0  0  0  0  0  0  0
   -0.9112   -1.5794    0.8181 H   0  0  0  0  0  0  0  0  0  0  0  0
    0.0503   -0.4729    1.8332 H   0  0  0  0  0  0  0  0  0  0  0  0
   -1.2507    0.1945   -0.8724 H   0  0  0  0  0  0  0  0  0  0  0  0
   -0.2697    1.3096    0.0843 H   0  0  0  0  0  0  0  0  0  0  0  0
    0.5873   -1.3421   -1.1721 H   0  0  0  0  0  0  0  0  0  0  0  0
    1.0789    0.2492   -1.7579 H   0  0  0  0  0  0  0  0  0  0  0  0
    4.6650   -0.5780   -0.3594 H   0  0  0  0  0  0  0  0  0  0  0  0
    4.3390    1.2007    0.0179 H   0  0  0  0  0  0  0  0  0  0  0  0
    3.8141    0.4592   -1.5734 H   0  0  0  0  0  0  0  0  0  0  0  0
  1  2  1  0
  2  3  1  0
  3  4  1  0
  4  5  1  0
  5  6  1  0
  6  7  1  0
  1  8  1  0
  1  9  1  0
  1 10  1  0
  3 11  1  0
  3 12  1  0
  4 13  1  0
  4 14  1  0
  5 15  1  0
  5 16  1  0
  7 17  1  0
  7 18  1  0
  7 19  1  0
M  END
>  <Ligand ID>  (1) 
LIG0004981

>  <Ligand>  (1) 
1,3-bis(methylselanyl)propane

>  <SMILES>  (1) 
C[Se]CCC[Se]C

>  <CID>  (1) 
12970316.0

>  <ChEMBL ID>  (1) 
nan

>  <InChiKey>  (1) 
MHMWLWUYCYJNTI-UHFFFAOYSA-N

>  <InChi>  (1) 
InChI=1S/C5H12Se2/c1-6-4-3-5-7-2/h3-5H2,1-2H3

>  <IUPAC Name>  (1) 
1,3-bis(methylselanyl)propane

$$$$
