
     RDKit          3D

 13 13  0  0  0  0  0  0  0  0999 V2000
   -2.0306    0.3437    0.2032 C   0  0  0  0  0  0  0  0  0  0  0  0
   -0.5864    0.1109    0.0536 C   0  0  0  0  0  0  0  0  0  0  0  0
   -0.1073   -1.1283   -0.3460 C   0  0  0  0  0  0  0  0  0  0  0  0
    1.2189   -1.3404   -0.4829 N   0  0  0  0  0  0  0  0  0  0  0  0
    2.1085   -0.3596   -0.2366 C   0  0  0  0  0  0  0  0  0  0  0  0
    1.6263    0.8907    0.1665 C   0  0  0  0  0  0  0  0  0  0  0  0
    0.2881    1.1057    0.3050 N   0  0  0  0  0  0  0  0  0  0  0  0
   -2.6440   -0.1870   -0.5343 H   0  0  0  0  0  0  0  0  0  0  0  0
   -2.2258    1.4335    0.2071 H   0  0  0  0  0  0  0  0  0  0  0  0
   -2.3503   -0.0441    1.2081 H   0  0  0  0  0  0  0  0  0  0  0  0
   -0.7950   -1.9611   -0.5589 H   0  0  0  0  0  0  0  0  0  0  0  0
    3.1673   -0.5536   -0.3533 H   0  0  0  0  0  0  0  0  0  0  0  0
    2.3301    1.6897    0.3683 H   0  0  0  0  0  0  0  0  0  0  0  0
  1  2  1  0
  2  3  2  0
  3  4  1  0
  4  5  2  0
  5  6  1  0
  6  7  2  0
  7  2  1  0
  1  8  1  0
  1  9  1  0
  1 10  1  0
  3 11  1  0
  5 12  1  0
  6 13  1  0
M  END
>  <Ligand ID>  (1) 
LIG0000262

>  <Ligand>  (1) 
2-Methylpyrazine

>  <SMILES>  (1) 
Cc1cnccn1

>  <CID>  (1) 
7976.0

>  <ChEMBL ID>  (1) 
nan

>  <InChiKey>  (1) 
CAWHJQAVHZEVTJ-UHFFFAOYSA-N

>  <InChi>  (1) 
InChI=1S/C5H6N2/c1-5-4-6-2-3-7-5/h2-4H,1H3

>  <IUPAC Name>  (1) 
2-methylpyrazine

$$$$
