
     RDKit          3D

196204  0  0  0  0  0  0  0  0999 V2000
    3.3620    9.2910   -0.0900 N   0  0  0  0  0  0  0  0  0  0  0  0
    3.5135    8.5245    1.0899 C   0  0  0  0  0  0  0  0  0  0  0  0
    2.8573    8.9136    2.1223 O   0  0  0  0  0  0  0  0  0  0  0  0
    4.3623    7.3245    1.2007 C   0  0  0  0  0  0  0  0  0  0  0  0
    3.7982    6.2260    0.2642 C   0  0  1  0  0  0  0  0  0  0  0  0
    4.5703    5.0161    0.3071 N   0  0  0  0  0  0  0  0  0  0  0  0
    5.8951    5.0285   -0.2647 C   0  0  0  0  0  0  0  0  0  0  0  0
    6.2536    6.1222   -0.7108 O   0  0  0  0  0  0  0  0  0  0  0  0
    6.7885    3.8472   -0.3121 C   0  0  1  0  0  0  0  0  0  0  0  0
    6.1610    2.5965   -0.5605 N   0  0  0  0  0  0  0  0  0  0  0  0
    5.9982    1.4734    0.3107 C   0  0  0  0  0  0  0  0  0  0  0  0
    6.3835    1.6318    1.4641 O   0  0  0  0  0  0  0  0  0  0  0  0
    5.3884    0.2700   -0.2816 C   0  0  1  0  0  0  0  0  0  0  0  0
    6.3774   -0.1467   -1.3795 C   0  0  0  0  0  0  0  0  0  0  0  0
    7.7465   -0.4840   -0.9555 C   0  0  0  0  0  0  0  0  0  0  0  0
    7.9203   -1.7323   -0.1805 C   0  0  0  0  0  0  0  0  0  0  0  0
    9.2746   -1.9715    0.3050 N   0  0  0  0  0  0  0  0  0  0  0  0
   10.3970   -2.2616   -0.4808 C   0  0  0  0  0  0  0  0  0  0  0  0
   10.3715   -1.8826   -1.7270 N   0  0  0  0  0  0  0  0  0  0  0  0
   11.5459   -2.9466    0.0603 N   0  0  0  0  0  0  0  0  0  0  0  0
    5.0479   -0.8207    0.5614 N   0  0  0  0  0  0  0  0  0  0  0  0
    3.9016   -1.5790    0.3058 C   0  0  0  0  0  0  0  0  0  0  0  0
    3.0894   -0.9733   -0.5290 O   0  0  0  0  0  0  0  0  0  0  0  0
    3.4208   -2.8548    0.7630 C   0  0  1  0  0  0  0  0  0  0  0  0
    3.7753   -3.4493    2.0443 C   0  0  0  0  0  0  0  0  0  0  0  0
    5.1809   -3.7572    2.3156 C   0  0  0  0  0  0  0  0  0  0  0  0
    5.6727   -4.9436    1.7029 C   0  0  0  0  0  0  0  0  0  0  0  0
    7.0148   -5.3210    1.9630 C   0  0  0  0  0  0  0  0  0  0  0  0
    7.7543   -4.5549    2.7655 C   0  0  0  0  0  0  0  0  0  0  0  0
    7.3304   -3.3773    3.3963 C   0  0  0  0  0  0  0  0  0  0  0  0
    6.0281   -3.0274    3.1307 C   0  0  0  0  0  0  0  0  0  0  0  0
    2.0060   -2.9655    0.3621 N   0  0  0  0  0  0  0  0  0  0  0  0
    1.6762   -3.2078   -1.0307 C   0  0  0  0  0  0  0  0  0  0  0  0
    2.6426   -3.1782   -1.7829 O   0  0  0  0  0  0  0  0  0  0  0  0
    0.3378   -3.4635   -1.5344 C   0  0  1  0  0  0  0  0  0  0  0  0
    0.4626   -4.7490   -2.3750 C   0  0  0  0  0  0  0  0  0  0  0  0
    1.0284   -5.8361   -1.5173 C   0  0  0  0  0  0  0  0  0  0  0  0
    0.4370   -6.7047   -0.6952 N   0  0  0  0  0  0  0  0  0  0  0  0
    1.3514   -7.5310   -0.1697 C   0  0  0  0  0  0  0  0  0  0  0  0
    2.5699   -7.2228   -0.6371 N   0  0  0  0  0  0  0  0  0  0  0  0
    2.3722   -6.1704   -1.4775 C   0  0  0  0  0  0  0  0  0  0  0  0
   -0.7556   -3.6171   -0.6544 N   0  0  0  0  0  0  0  0  0  0  0  0
   -1.6392   -2.5504   -0.2144 C   0  0  0  0  0  0  0  0  0  0  0  0
   -1.2332   -1.4271   -0.5610 O   0  0  0  0  0  0  0  0  0  0  0  0
   -2.8645   -2.8229    0.5772 C   0  0  1  0  0  0  0  0  0  0  0  0
   -3.7111   -1.6004    0.7753 C   0  0  0  0  0  0  0  0  0  0  0  0
   -4.2056   -0.9526   -0.4253 C   0  0  0  0  0  0  0  0  0  0  0  0
   -3.9335   -1.4029   -1.5325 O   0  0  0  0  0  0  0  0  0  0  0  0
   -5.0289    0.2292   -0.4018 N   0  0  0  0  0  0  0  0  0  0  0  0
   -5.4174    0.9060   -1.6676 C   0  0  0  0  0  0  0  0  0  0  0  0
   -4.8790    2.2668   -1.6249 N   0  0  0  0  0  0  0  0  0  0  0  0
   -3.6554    2.5670   -0.9020 C   0  0  0  0  0  0  0  0  0  0  0  0
   -3.1496    1.5768   -0.3721 O   0  0  0  0  0  0  0  0  0  0  0  0
   -3.1419    3.9523   -0.8586 C   0  0  2  0  0  0  0  0  0  0  0  0
   -2.0906    4.1723    0.1062 N   0  0  0  0  0  0  0  0  0  0  0  0
   -0.7262    4.4275   -0.1915 C   0  0  0  0  0  0  0  0  0  0  0  0
   -0.4346    4.3406   -1.4076 O   0  0  0  0  0  0  0  0  0  0  0  0
    0.2150    4.7533    0.8795 C   0  0  1  0  0  0  0  0  0  0  0  0
    1.5907    4.8932    0.5049 N   0  0  0  0  0  0  0  0  0  0  0  0
    2.3530    6.0847    0.4777 C   0  0  0  0  0  0  0  0  0  0  0  0
    1.6985    7.1378    0.6482 O   0  0  0  0  0  0  0  0  0  0  0  0
   -0.2904    6.0469    1.6119 C   0  0  0  0  0  0  0  0  0  0  0  0
   -4.2836    4.9333   -0.6524 C   0  0  0  0  0  0  0  0  0  0  0  0
   -3.7760    6.3217   -0.5773 C   0  0  0  0  0  0  0  0  0  0  0  0
   -3.6190    7.1265   -1.7175 C   0  0  0  0  0  0  0  0  0  0  0  0
   -3.1612    8.4159   -1.6296 C   0  0  0  0  0  0  0  0  0  0  0  0
   -2.8269    8.9858   -0.4022 C   0  0  0  0  0  0  0  0  0  0  0  0
   -2.9707    8.2199    0.7193 C   0  0  0  0  0  0  0  0  0  0  0  0
   -3.4313    6.9299    0.6196 C   0  0  0  0  0  0  0  0  0  0  0  0
   -6.8477    0.9469   -1.8838 C   0  0  0  0  0  0  0  0  0  0  0  0
   -7.4650    1.3474   -2.8940 O   0  0  0  0  0  0  0  0  0  0  0  0
   -7.6926    0.4743   -0.8055 N   0  0  0  0  0  0  0  0  0  0  0  0
   -9.0827    0.5788   -1.1073 N   0  0  0  0  0  0  0  0  0  0  0  0
   -9.5764    1.8548   -0.7349 C   0  0  2  0  0  0  0  0  0  0  0  0
   -9.8389    2.0444    0.6745 C   0  0  0  0  0  0  0  0  0  0  0  0
  -10.2241    3.2342    1.0164 O   0  0  0  0  0  0  0  0  0  0  0  0
   -9.7359    1.1048    1.7664 C   0  0  0  0  0  0  0  0  0  0  0  0
   -9.4174   -0.1169    1.6249 O   0  0  0  0  0  0  0  0  0  0  0  0
   -9.9857    1.4715    3.1013 O   0  0  0  0  0  0  0  0  0  0  0  0
  -10.7472    2.3619   -1.5253 C   0  0  0  0  0  0  0  0  0  0  0  0
  -11.9656    1.5365   -1.4711 C   0  0  0  0  0  0  0  0  0  0  0  0
  -12.0775    0.5618   -2.4898 C   0  0  0  0  0  0  0  0  0  0  0  0
  -13.1652   -0.2545   -2.5554 C   0  0  0  0  0  0  0  0  0  0  0  0
  -14.1558   -0.0822   -1.5777 C   0  0  0  0  0  0  0  0  0  0  0  0
  -14.0814    0.8440   -0.5852 C   0  0  0  0  0  0  0  0  0  0  0  0
  -12.9666    1.6583   -0.5417 C   0  0  0  0  0  0  0  0  0  0  0  0
  -15.2486   -0.9628   -1.7243 O   0  0  0  0  0  0  0  0  0  0  0  0
   -3.5378   -3.9749    0.2479 N   0  0  0  0  0  0  0  0  0  0  0  0
   -3.1710   -5.2184    0.0923 N   0  0  0  0  0  0  0  0  0  0  0  0
   -3.9081   -6.2958    0.6820 C   0  0  1  0  0  0  0  0  0  0  0  0
   -5.4226   -6.1868    0.3886 C   0  0  0  0  0  0  0  0  0  0  0  0
   -6.0465   -7.4667    0.8819 C   0  0  0  0  0  0  0  0  0  0  0  0
   -7.3305   -7.3996    1.3449 C   0  0  0  0  0  0  0  0  0  0  0  0
   -7.9265   -8.5434    1.8344 C   0  0  0  0  0  0  0  0  0  0  0  0
   -7.2758   -9.7623    1.8778 C   0  0  0  0  0  0  0  0  0  0  0  0
   -5.9855   -9.8282    1.4127 C   0  0  0  0  0  0  0  0  0  0  0  0
   -5.4092   -8.6776    0.9272 C   0  0  0  0  0  0  0  0  0  0  0  0
   -4.0647   -8.7685    0.4055 N   0  0  0  0  0  0  0  0  0  0  0  0
   -3.5583   -7.5421   -0.1107 C   0  0  0  0  0  0  0  0  0  0  0  0
   -2.8814   -7.5278   -1.1514 O   0  0  0  0  0  0  0  0  0  0  0  0
   -7.8406  -10.9183    2.3569 O   0  0  0  0  0  0  0  0  0  0  0  0
    7.8923    4.1768   -1.2961 C   0  0  0  0  0  0  0  0  0  0  0  0
    8.9023    3.1241   -1.4476 C   0  0  0  0  0  0  0  0  0  0  0  0
    9.0890    2.2349   -2.5121 C   0  0  0  0  0  0  0  0  0  0  0  0
   10.1758    1.4507   -2.1942 N   0  0  0  0  0  0  0  0  0  0  0  0
   10.6197    1.8452   -1.0134 C   0  0  0  0  0  0  0  0  0  0  0  0
    9.8910    2.8702   -0.4841 C   0  0  0  0  0  0  0  0  0  0  0  0
   10.1868    3.4107    0.7517 C   0  0  0  0  0  0  0  0  0  0  0  0
   11.2538    2.8838    1.4553 C   0  0  0  0  0  0  0  0  0  0  0  0
   12.0386    1.8371    0.9666 C   0  0  0  0  0  0  0  0  0  0  0  0
   11.6747    1.3573   -0.2710 C   0  0  0  0  0  0  0  0  0  0  0  0
    3.5924   10.3175   -0.1529 H   0  0  0  0  0  0  0  0  0  0  0  0
    3.0023    8.8690   -1.0000 H   0  0  0  0  0  0  0  0  0  0  0  0
    4.4872    6.9665    2.2155 H   0  0  0  0  0  0  0  0  0  0  0  0
    5.3545    7.5876    0.7930 H   0  0  0  0  0  0  0  0  0  0  0  0
    3.9944    6.6943   -0.7394 H   0  0  0  0  0  0  0  0  0  0  0  0
    4.2932    4.1215    0.7009 H   0  0  0  0  0  0  0  0  0  0  0  0
    7.2353    3.8331    0.7472 H   0  0  0  0  0  0  0  0  0  0  0  0
    5.7395    2.4635   -1.5024 H   0  0  0  0  0  0  0  0  0  0  0  0
    4.4834    0.5704   -0.8605 H   0  0  0  0  0  0  0  0  0  0  0  0
    6.3784    0.6825   -2.1239 H   0  0  0  0  0  0  0  0  0  0  0  0
    5.9447   -1.0178   -1.9597 H   0  0  0  0  0  0  0  0  0  0  0  0
    8.3476   -0.6278   -1.9094 H   0  0  0  0  0  0  0  0  0  0  0  0
    8.2729    0.3849   -0.4747 H   0  0  0  0  0  0  0  0  0  0  0  0
    7.6549   -2.6210   -0.8834 H   0  0  0  0  0  0  0  0  0  0  0  0
    7.2504   -1.8578    0.6435 H   0  0  0  0  0  0  0  0  0  0  0  0
    9.4453   -1.9101    1.3605 H   0  0  0  0  0  0  0  0  0  0  0  0
   11.1977   -2.0960   -2.3043 H   0  0  0  0  0  0  0  0  0  0  0  0
   12.4873   -2.7594   -0.3791 H   0  0  0  0  0  0  0  0  0  0  0  0
   11.4428   -3.6190    0.8757 H   0  0  0  0  0  0  0  0  0  0  0  0
    5.5734   -1.0212    1.3953 H   0  0  0  0  0  0  0  0  0  0  0  0
    3.9539   -3.5821   -0.0489 H   0  0  0  0  0  0  0  0  0  0  0  0
    3.4888   -2.7028    2.8588 H   0  0  0  0  0  0  0  0  0  0  0  0
    3.0993   -4.3286    2.3250 H   0  0  0  0  0  0  0  0  0  0  0  0
    5.0426   -5.5292    1.0627 H   0  0  0  0  0  0  0  0  0  0  0  0
    7.3438   -6.2262    1.4825 H   0  0  0  0  0  0  0  0  0  0  0  0
    8.8013   -4.8329    2.9861 H   0  0  0  0  0  0  0  0  0  0  0  0
    7.9882   -2.8167    4.0419 H   0  0  0  0  0  0  0  0  0  0  0  0
    5.6315   -2.1373    3.5909 H   0  0  0  0  0  0  0  0  0  0  0  0
    1.2076   -2.8912    0.9724 H   0  0  0  0  0  0  0  0  0  0  0  0
    0.1478   -2.6409   -2.2965 H   0  0  0  0  0  0  0  0  0  0  0  0
    1.1956   -4.5191   -3.1668 H   0  0  0  0  0  0  0  0  0  0  0  0
   -0.5095   -5.0842   -2.7693 H   0  0  0  0  0  0  0  0  0  0  0  0
   -0.5592   -6.7561   -0.4698 H   0  0  0  0  0  0  0  0  0  0  0  0
    1.1496   -8.3515    0.5364 H   0  0  0  0  0  0  0  0  0  0  0  0
    3.2174   -5.7365   -1.9945 H   0  0  0  0  0  0  0  0  0  0  0  0
   -0.9804   -4.5104   -0.2420 H   0  0  0  0  0  0  0  0  0  0  0  0
   -2.4189   -2.9971    1.6343 H   0  0  0  0  0  0  0  0  0  0  0  0
   -3.0630   -0.8366    1.3105 H   0  0  0  0  0  0  0  0  0  0  0  0
   -4.5192   -1.7998    1.5110 H   0  0  0  0  0  0  0  0  0  0  0  0
   -5.3101    0.5355    0.5192 H   0  0  0  0  0  0  0  0  0  0  0  0
   -4.8922    0.2938   -2.4064 H   0  0  0  0  0  0  0  0  0  0  0  0
   -5.3150    3.0374   -2.0866 H   0  0  0  0  0  0  0  0  0  0  0  0
   -2.7610    4.1459   -1.9059 H   0  0  0  0  0  0  0  0  0  0  0  0
   -2.3334    4.1472    1.1009 H   0  0  0  0  0  0  0  0  0  0  0  0
    0.1786    4.0473    1.7702 H   0  0  0  0  0  0  0  0  0  0  0  0
    2.0928    4.0480    0.2110 H   0  0  0  0  0  0  0  0  0  0  0  0
    0.4303    6.4139    2.3376 H   0  0  0  0  0  0  0  0  0  0  0  0
   -0.4873    6.7811    0.8441 H   0  0  0  0  0  0  0  0  0  0  0  0
   -1.2748    5.7906    2.0857 H   0  0  0  0  0  0  0  0  0  0  0  0
   -5.0191    4.8024   -1.4482 H   0  0  0  0  0  0  0  0  0  0  0  0
   -4.7977    4.6832    0.2903 H   0  0  0  0  0  0  0  0  0  0  0  0
   -3.8793    6.6877   -2.6903 H   0  0  0  0  0  0  0  0  0  0  0  0
   -3.0721    8.9655   -2.5542 H   0  0  0  0  0  0  0  0  0  0  0  0
   -2.4636    9.9830   -0.3058 H   0  0  0  0  0  0  0  0  0  0  0  0
   -2.7086    8.6248    1.7097 H   0  0  0  0  0  0  0  0  0  0  0  0
   -3.5196    6.3664    1.5616 H   0  0  0  0  0  0  0  0  0  0  0  0
   -7.2929    0.1110    0.0477 H   0  0  0  0  0  0  0  0  0  0  0  0
   -9.5624   -0.2467   -0.6776 H   0  0  0  0  0  0  0  0  0  0  0  0
   -8.7311    2.5876   -1.0355 H   0  0  0  0  0  0  0  0  0  0  0  0
   -9.6926    0.8776    3.8484 H   0  0  0  0  0  0  0  0  0  0  0  0
  -10.5037    2.5037   -2.6020 H   0  0  0  0  0  0  0  0  0  0  0  0
  -11.0207    3.3996   -1.1679 H   0  0  0  0  0  0  0  0  0  0  0  0
  -11.3049    0.4568   -3.2135 H   0  0  0  0  0  0  0  0  0  0  0  0
  -13.2435   -0.9917   -3.3364 H   0  0  0  0  0  0  0  0  0  0  0  0
  -14.8897    0.9329    0.1571 H   0  0  0  0  0  0  0  0  0  0  0  0
  -12.8421    2.4235    0.2247 H   0  0  0  0  0  0  0  0  0  0  0  0
  -16.1390   -0.5256   -2.0299 H   0  0  0  0  0  0  0  0  0  0  0  0
   -4.4789   -3.9668    0.7589 H   0  0  0  0  0  0  0  0  0  0  0  0
   -3.0352   -5.4430   -0.9398 H   0  0  0  0  0  0  0  0  0  0  0  0
   -3.8006   -6.4311    1.7504 H   0  0  0  0  0  0  0  0  0  0  0  0
   -5.8897   -5.3304    0.8543 H   0  0  0  0  0  0  0  0  0  0  0  0
   -5.5606   -6.1352   -0.7025 H   0  0  0  0  0  0  0  0  0  0  0  0
   -7.8697   -6.4659    1.3291 H   0  0  0  0  0  0  0  0  0  0  0  0
   -8.9411   -8.4550    2.1919 H   0  0  0  0  0  0  0  0  0  0  0  0
   -5.4019  -10.7593    1.4208 H   0  0  0  0  0  0  0  0  0  0  0  0
   -3.5072   -9.6355    0.3935 H   0  0  0  0  0  0  0  0  0  0  0  0
   -8.3061  -11.5615    1.6969 H   0  0  0  0  0  0  0  0  0  0  0  0
    7.4070    4.2833   -2.3123 H   0  0  0  0  0  0  0  0  0  0  0  0
    8.3293    5.1897   -1.0996 H   0  0  0  0  0  0  0  0  0  0  0  0
    8.5012    2.1689   -3.4281 H   0  0  0  0  0  0  0  0  0  0  0  0
   10.4855    0.7208   -2.8556 H   0  0  0  0  0  0  0  0  0  0  0  0
    9.5831    4.2303    1.1372 H   0  0  0  0  0  0  0  0  0  0  0  0
   11.5231    3.2797    2.4317 H   0  0  0  0  0  0  0  0  0  0  0  0
   12.8579    1.4613    1.5528 H   0  0  0  0  0  0  0  0  0  0  0  0
   12.2754    0.5355   -0.6750 H   0  0  0  0  0  0  0  0  0  0  0  0
  1  2  1  0
  2  3  2  0
  2  4  1  0
  4  5  1  0
  5  6  1  0
  6  7  1  0
  7  8  2  0
  7  9  1  0
  9 10  1  0
 10 11  1  0
 11 12  2  0
 11 13  1  0
 13 14  1  0
 14 15  1  0
 15 16  1  0
 16 17  1  0
 17 18  1  0
 18 19  2  3
 18 20  1  0
 13 21  1  0
 21 22  1  0
 22 23  2  0
 22 24  1  0
 24 25  1  0
 25 26  1  0
 26 27  2  0
 27 28  1  0
 28 29  2  0
 29 30  1  0
 30 31  2  0
 24 32  1  0
 32 33  1  0
 33 34  2  0
 33 35  1  0
 35 36  1  0
 36 37  1  0
 37 38  1  0
 38 39  1  0
 39 40  2  0
 40 41  1  0
 35 42  1  0
 42 43  1  0
 43 44  2  0
 43 45  1  0
 45 46  1  0
 46 47  1  0
 47 48  2  0
 47 49  1  0
 49 50  1  0
 50 51  1  0
 51 52  1  0
 52 53  2  0
 52 54  1  0
 54 55  1  0
 55 56  1  0
 56 57  2  0
 56 58  1  0
 58 59  1  0
 59 60  1  0
 60 61  2  0
 58 62  1  0
 54 63  1  0
 63 64  1  0
 64 65  2  0
 65 66  1  0
 66 67  2  0
 67 68  1  0
 68 69  2  0
 50 70  1  0
 70 71  2  0
 70 72  1  0
 72 73  1  0
 73 74  1  0
 74 75  1  0
 75 76  2  0
 75 77  1  0
 77 78  2  0
 77 79  1  0
 74 80  1  0
 80 81  1  0
 81 82  2  0
 82 83  1  0
 83 84  2  0
 84 85  1  0
 85 86  2  0
 84 87  1  0
 45 88  1  0
 88 89  1  0
 89 90  1  0
 90 91  1  0
 91 92  1  0
 92 93  2  0
 93 94  1  0
 94 95  2  0
 95 96  1  0
 96 97  2  0
 97 98  1  0
 98 99  1  0
 99100  2  0
 95101  1  0
  9102  1  0
102103  1  0
103104  2  0
104105  1  0
105106  1  0
106107  2  0
107108  1  0
108109  2  0
109110  1  0
110111  2  0
 60  5  1  0
 69 64  1  0
 86 81  1  0
 99 90  1  0
107103  1  0
 31 26  1  0
 41 37  2  0
 97 92  1  0
111106  1  0
  1112  1  0
  1113  1  0
  4114  1  0
  4115  1  0
  5116  1  6
  6117  1  0
  9118  1  1
 10119  1  0
 13120  1  6
 14121  1  0
 14122  1  0
 15123  1  0
 15124  1  0
 16125  1  0
 16126  1  0
 17127  1  0
 19128  1  0
 20129  1  0
 20130  1  0
 21131  1  0
 24132  1  6
 25133  1  0
 25134  1  0
 27135  1  0
 28136  1  0
 29137  1  0
 30138  1  0
 31139  1  0
 32140  1  0
 35141  1  6
 36142  1  0
 36143  1  0
 38144  1  0
 39145  1  0
 41146  1  0
 42147  1  0
 45148  1  1
 46149  1  0
 46150  1  0
 49151  1  0
 50152  1  0
 51153  1  0
 54154  1  6
 55155  1  0
 58156  1  1
 59157  1  0
 62158  1  0
 62159  1  0
 62160  1  0
 63161  1  0
 63162  1  0
 65163  1  0
 66164  1  0
 67165  1  0
 68166  1  0
 69167  1  0
 72168  1  0
 73169  1  0
 74170  1  6
 79171  1  0
 80172  1  0
 80173  1  0
 82174  1  0
 83175  1  0
 85176  1  0
 86177  1  0
 87178  1  0
 88179  1  0
 89180  1  0
 90181  1  1
 91182  1  0
 91183  1  0
 93184  1  0
 94185  1  0
 96186  1  0
 98187  1  0
101188  1  0
102189  1  0
102190  1  0
104191  1  0
105192  1  0
108193  1  0
109194  1  0
110195  1  0
111196  1  0
M  END
>  <Ligand ID>  (1) 
LIG0001122

>  <Ligand>  (1) 
CHEMBL411775

>  <SMILES>  (1) 
NC(=O)C[C@H]1NC(=O)[C@@H](NC(=O)[C@@H](CCCNC(=N)N)NC(=O)[C@@H](Cc2ccccc2)NC(=O)[C@@H](Cc2[nH]cnc2)NC(=O)[C@@H](CC(=O)NC(NC(=O)[C@H](NC(=O)[C@@H](NC1=O)C)Cc1ccccc1)C(=O)NN[C@H](C(=O)C(=O)O)Cc1ccc(cc1)O)NN[C@H]1Cc2ccc(cc2NC1=O)O)Cc1c[nH]c2c1cccc2

>  <CID>  (1) 
91932907.0

>  <ChEMBL ID>  (1) 
nan

>  <InChiKey>  (1) 
IURJLDFCJBKSNA-YVLNVRPBSA-N

>  <InChi>  (1) 
InChI=1S/C73H85N21O17/c1-37-62(100)84-52(27-39-13-6-3-7-14-39)68(106)90-61(71(109)94-91-50(60(99)72(110)111)25-40-18-21-44(95)22-19-40)89-59(98)33-57(93-92-56-28-41-20-23-45(96)31-49(41)83-69(56)107)70(108)87-54(30-43-35-77-36-80-43)67(105)85-51(26-38-11-4-2-5-12-38)65(103)82-48(17-10-24-78-73(75)76)63(101)86-53(29-42-34-79-47-16-9-8-15-46(42)47)66(104)88-55(32-58(74)97)64(102)81-37/h2-9,11-16,18-23,31,34-37,48,50-57,61,79,91-93,95-96H,10,17,24-30,32-33H2,1H3,(H2,74,97)(H,77,80)(H,81,102)(H,82,103)(H,83,107)(H,84,100)(H,85,105)(H,86,101)(H,87,108)(H,88,104)(H,89,98)(H,90,106)(H,94,109)(H,110,111)(H4,75,76,78)/t37-,48+,50-,51+,52+,53-,54+,55+,56-,57+,61?/m0/s1

>  <IUPAC Name>  (1) 
(3S)-3-[2-[(5R,8S,11R,14S,17R,20R,23R,26R)-11-(2-amino-2-oxoethyl)-5,20-dibenzyl-17-(3-carbamimidamidopropyl)-26-[2-[(3S)-7-hydroxy-2-oxo-3,4-dihydro-1H-quinolin-3-yl]hydrazinyl]-23-(1H-imidazol-5-ylmethyl)-14-(1H-indol-3-ylmethyl)-8-methyl-4,7,10,13,16,19,22,25,28-nonaoxo-1,3,6,9,12,15,18,21,24-nonazacyclooctacosane-2-carbonyl]hydrazinyl]-4-(4-hydroxyphenyl)-2-oxobutanoic acid

$$$$
