
     RDKit          3D

 53 55  0  0  0  0  0  0  0  0999 V2000
    6.4613    2.4366   -1.3953 C   0  0  0  0  0  0  0  0  0  0  0  0
    5.0835    2.0072   -0.9488 C   0  0  0  0  0  0  0  0  0  0  0  0
    5.1374    0.5601   -0.5386 C   0  0  0  0  0  0  0  0  0  0  0  0
    3.8366    0.0163   -0.0802 C   0  0  0  0  0  0  0  0  0  0  0  0
    3.4305    0.0531    1.1558 O   0  0  0  0  0  0  0  0  0  0  0  0
    2.2692   -0.4868    1.2896 N   0  0  0  0  0  0  0  0  0  0  0  0
    1.8186   -0.9356    0.0834 C   0  0  0  0  0  0  0  0  0  0  0  0
    2.8347   -0.6075   -0.7942 C   0  0  0  0  0  0  0  0  0  0  0  0
    0.5643   -1.5935   -0.1138 C   0  0  0  0  0  0  0  0  0  0  0  0
    0.5493   -2.8197   -0.4155 O   0  0  0  0  0  0  0  0  0  0  0  0
   -0.7212   -0.9557    0.0064 N   0  0  0  0  0  0  0  0  0  0  0  0
   -1.8677   -1.7858   -0.2266 C   0  0  0  0  0  0  0  0  0  0  0  0
   -2.8563   -1.4092   -1.2466 C   0  0  0  0  0  0  0  0  0  0  0  0
   -3.7275   -2.6492   -1.5078 C   0  0  0  0  0  0  0  0  0  0  0  0
   -4.4671   -3.0428   -0.2445 C   0  0  0  0  0  0  0  0  0  0  0  0
   -3.4457   -3.3443    0.8152 C   0  0  0  0  0  0  0  0  0  0  0  0
   -2.6762   -2.0366    1.0566 C   0  0  0  0  0  0  0  0  0  0  0  0
   -0.7425    0.4314    0.3348 C   0  0  0  0  0  0  0  0  0  0  0  0
   -1.1878    1.3706   -0.7292 C   0  0  0  0  0  0  0  0  0  0  0  0
   -1.5353    2.6920   -0.0798 C   0  0  0  0  0  0  0  0  0  0  0  0
   -0.6641    3.0495    1.0868 C   0  0  0  0  0  0  0  0  0  0  0  0
   -0.8188    2.0588    2.1936 C   0  0  0  0  0  0  0  0  0  0  0  0
   -1.4706    0.8087    1.5889 C   0  0  0  0  0  0  0  0  0  0  0  0
    6.5613    2.0967   -2.4481 H   0  0  0  0  0  0  0  0  0  0  0  0
    7.2599    2.0087   -0.7498 H   0  0  0  0  0  0  0  0  0  0  0  0
    6.5135    3.5505   -1.2993 H   0  0  0  0  0  0  0  0  0  0  0  0
    4.8310    2.6744   -0.0906 H   0  0  0  0  0  0  0  0  0  0  0  0
    4.3793    2.1340   -1.7683 H   0  0  0  0  0  0  0  0  0  0  0  0
    5.4964   -0.0472   -1.4109 H   0  0  0  0  0  0  0  0  0  0  0  0
    5.9260    0.4649    0.2414 H   0  0  0  0  0  0  0  0  0  0  0  0
    2.8346   -0.8064   -1.8483 H   0  0  0  0  0  0  0  0  0  0  0  0
   -1.5035   -2.8131   -0.4936 H   0  0  0  0  0  0  0  0  0  0  0  0
   -2.4793   -1.1385   -2.2468 H   0  0  0  0  0  0  0  0  0  0  0  0
   -3.6459   -0.6925   -0.8700 H   0  0  0  0  0  0  0  0  0  0  0  0
   -4.5335   -2.3982   -2.2570 H   0  0  0  0  0  0  0  0  0  0  0  0
   -3.1244   -3.5149   -1.8446 H   0  0  0  0  0  0  0  0  0  0  0  0
   -5.0131   -3.9815   -0.4719 H   0  0  0  0  0  0  0  0  0  0  0  0
   -5.1083   -2.2343    0.1310 H   0  0  0  0  0  0  0  0  0  0  0  0
   -3.9004   -3.7121    1.7529 H   0  0  0  0  0  0  0  0  0  0  0  0
   -2.6820   -4.0671    0.4646 H   0  0  0  0  0  0  0  0  0  0  0  0
   -3.4385   -1.2655    1.2352 H   0  0  0  0  0  0  0  0  0  0  0  0
   -2.0347   -2.2617    1.9252 H   0  0  0  0  0  0  0  0  0  0  0  0
    0.3397    0.7343    0.4614 H   0  0  0  0  0  0  0  0  0  0  0  0
   -0.3576    1.5973   -1.4352 H   0  0  0  0  0  0  0  0  0  0  0  0
   -2.1197    1.1026   -1.2535 H   0  0  0  0  0  0  0  0  0  0  0  0
   -1.5008    3.5308   -0.8335 H   0  0  0  0  0  0  0  0  0  0  0  0
   -2.6001    2.7339    0.2832 H   0  0  0  0  0  0  0  0  0  0  0  0
   -1.0868    4.0244    1.4677 H   0  0  0  0  0  0  0  0  0  0  0  0
    0.3854    3.2767    0.8077 H   0  0  0  0  0  0  0  0  0  0  0  0
    0.2071    1.7210    2.4958 H   0  0  0  0  0  0  0  0  0  0  0  0
   -1.3581    2.4119    3.0844 H   0  0  0  0  0  0  0  0  0  0  0  0
   -2.5495    1.0442    1.3921 H   0  0  0  0  0  0  0  0  0  0  0  0
   -1.5024    0.0091    2.3484 H   0  0  0  0  0  0  0  0  0  0  0  0
  1  2  1  0
  2  3  1  0
  3  4  1  0
  4  5  1  0
  5  6  1  0
  6  7  2  0
  7  8  1  0
  7  9  1  0
  9 10  2  0
  9 11  1  0
 11 12  1  0
 12 13  1  0
 13 14  1  0
 14 15  1  0
 15 16  1  0
 16 17  1  0
 11 18  1  0
 18 19  1  0
 19 20  1  0
 20 21  1  0
 21 22  1  0
 22 23  1  0
  8  4  2  0
 17 12  1  0
 23 18  1  0
  1 24  1  0
  1 25  1  0
  1 26  1  0
  2 27  1  0
  2 28  1  0
  3 29  1  0
  3 30  1  0
  8 31  1  0
 12 32  1  0
 13 33  1  0
 13 34  1  0
 14 35  1  0
 14 36  1  0
 15 37  1  0
 15 38  1  0
 16 39  1  0
 16 40  1  0
 17 41  1  0
 17 42  1  0
 18 43  1  0
 19 44  1  0
 19 45  1  0
 20 46  1  0
 20 47  1  0
 21 48  1  0
 21 49  1  0
 22 50  1  0
 22 51  1  0
 23 52  1  0
 23 53  1  0
M  END
>  <Ligand ID>  (1) 
LIG0004177

>  <Ligand>  (1) 
SMR000093349

>  <SMILES>  (1) 
CCCc1onc(c1)C(=O)N(C1CCCCC1)C1CCCCC1

>  <CID>  (1) 
5309153.0

>  <ChEMBL ID>  (1) 
nan

>  <InChiKey>  (1) 
XTUSMJNHGPASSE-UHFFFAOYSA-N

>  <InChi>  (1) 
InChI=1S/C19H30N2O2/c1-2-9-17-14-18(20-23-17)19(22)21(15-10-5-3-6-11-15)16-12-7-4-8-13-16/h14-16H,2-13H2,1H3

>  <IUPAC Name>  (1) 
N,N-dicyclohexyl-5-propyl-1,2-oxazole-3-carboxamide

$$$$
