
     RDKit          3D

 50 52  0  0  0  0  0  0  0  0999 V2000
   -1.0141   -3.6657    1.9047 O   0  0  0  0  0  0  0  0  0  0  0  0
   -0.4069   -2.9837    0.8637 C   0  0  2  0  0  0  0  0  0  0  0  0
    0.1082   -1.6562    1.3654 C   0  0  1  0  0  0  0  0  0  0  0  0
    1.2254   -1.2072    0.4206 C   0  0  0  0  0  0  0  0  0  0  0  0
    2.2970   -2.0908    0.4630 O   0  0  0  0  0  0  0  0  0  0  0  0
    3.5634   -1.6715   -0.5430 P   0  0  0  0  0  0  0  0  0  0  0  0
    4.4399   -2.9159   -0.6842 O   0  0  0  0  0  0  0  0  0  0  0  0
    4.5431   -0.4645    0.1346 O   0  0  0  0  0  0  0  0  0  0  0  0
    4.4175    0.9979   -0.6725 P   0  0  0  0  0  0  0  0  0  0  0  0
    3.2454    1.0410   -1.6210 O   0  0  0  0  0  0  0  0  0  0  0  0
    5.8246    1.1778   -1.6011 O   0  0  0  0  0  0  0  0  0  0  0  0
    7.0066    2.0326   -0.7812 P   0  0  0  0  0  0  0  0  0  0  0  0
    7.2979    3.3153   -1.5599 O   0  0  0  0  0  0  0  0  0  0  0  0
    8.4678    1.2054   -0.6770 O   0  0  0  0  0  0  0  0  0  0  0  0
    6.5262    2.4378    0.7891 O   0  0  0  0  0  0  0  0  0  0  0  0
    4.2795    2.2379    0.4681 O   0  0  0  0  0  0  0  0  0  0  0  0
    3.1053   -1.1844   -2.0740 O   0  0  0  0  0  0  0  0  0  0  0  0
   -0.9119   -0.7266    1.2612 O   0  0  0  0  0  0  0  0  0  0  0  0
   -2.0540   -1.4030    0.8464 C   0  0  2  0  0  0  0  0  0  0  0  0
   -1.5135   -2.5047   -0.0569 C   0  0  2  0  0  0  0  0  0  0  0  0
   -2.4084   -3.5611   -0.1744 O   0  0  0  0  0  0  0  0  0  0  0  0
   -2.9758   -0.5409    0.1709 N   0  0  0  0  0  0  0  0  0  0  0  0
   -3.5782   -0.8310   -0.9967 C   0  0  0  0  0  0  0  0  0  0  0  0
   -4.4632    0.0384   -1.6099 C   0  0  0  0  0  0  0  0  0  0  0  0
   -4.7598    1.2492   -1.0331 C   0  0  0  0  0  0  0  0  0  0  0  0
   -4.1468    1.5503    0.1602 C   0  0  0  0  0  0  0  0  0  0  0  0
   -3.2659    0.6455    0.7368 C   0  0  0  0  0  0  0  0  0  0  0  0
   -2.7194    0.9656    1.8446 O   0  0  0  0  0  0  0  0  0  0  0  0
   -4.4245    2.7722    0.7752 C   0  0  0  0  0  0  0  0  0  0  0  0
   -5.3078    3.6317    0.1563 C   0  0  0  0  0  0  0  0  0  0  0  0
   -5.9202    3.3230   -1.0425 C   0  0  0  0  0  0  0  0  0  0  0  0
   -5.6393    2.1041   -1.6501 C   0  0  0  0  0  0  0  0  0  0  0  0
   -6.7891    4.1794   -1.6420 F   0  0  0  0  0  0  0  0  0  0  0  0
   -5.6028    4.8308    0.7256 F   0  0  0  0  0  0  0  0  0  0  0  0
   -0.7169   -3.3405    2.7965 H   0  0  0  0  0  0  0  0  0  0  0  0
    0.3561   -3.5775    0.3370 H   0  0  0  0  0  0  0  0  0  0  0  0
    0.4650   -1.7100    2.4059 H   0  0  0  0  0  0  0  0  0  0  0  0
    0.8421   -1.1775   -0.6174 H   0  0  0  0  0  0  0  0  0  0  0  0
    1.6058   -0.2086    0.6896 H   0  0  0  0  0  0  0  0  0  0  0  0
    8.4928    0.3720   -1.1904 H   0  0  0  0  0  0  0  0  0  0  0  0
    7.3248    2.5032    1.3650 H   0  0  0  0  0  0  0  0  0  0  0  0
    4.2332    1.8824    1.3995 H   0  0  0  0  0  0  0  0  0  0  0  0
    3.0879   -1.9486   -2.7206 H   0  0  0  0  0  0  0  0  0  0  0  0
   -2.4851   -1.9035    1.7286 H   0  0  0  0  0  0  0  0  0  0  0  0
   -1.1599   -2.1041   -1.0051 H   0  0  0  0  0  0  0  0  0  0  0  0
   -2.1233   -4.0467   -1.0136 H   0  0  0  0  0  0  0  0  0  0  0  0
   -3.3558   -1.7802   -1.4643 H   0  0  0  0  0  0  0  0  0  0  0  0
   -4.9353   -0.2017   -2.5358 H   0  0  0  0  0  0  0  0  0  0  0  0
   -3.9570    3.0387    1.7166 H   0  0  0  0  0  0  0  0  0  0  0  0
   -6.1205    1.8739   -2.5815 H   0  0  0  0  0  0  0  0  0  0  0  0
  1  2  1  0
  2  3  1  0
  3  4  1  0
  4  5  1  0
  5  6  1  0
  6  7  2  0
  6  8  1  0
  8  9  1  0
  9 10  2  0
  9 11  1  0
 11 12  1  0
 12 13  2  0
 12 14  1  0
 12 15  1  0
  9 16  1  0
  6 17  1  0
  3 18  1  0
 18 19  1  0
 19 20  1  0
 20 21  1  0
 19 22  1  0
 22 23  1  0
 23 24  2  0
 24 25  1  0
 25 26  2  0
 26 27  1  0
 27 28  2  0
 26 29  1  0
 29 30  2  0
 30 31  1  0
 31 32  2  0
 31 33  1  0
 30 34  1  0
 20  2  1  0
 27 22  1  0
 32 25  1  0
  1 35  1  0
  2 36  1  6
  3 37  1  1
  4 38  1  0
  4 39  1  0
 14 40  1  0
 15 41  1  0
 16 42  1  0
 17 43  1  0
 19 44  1  1
 20 45  1  6
 21 46  1  0
 23 47  1  0
 24 48  1  0
 29 49  1  0
 32 50  1  0
M  END
>  <Ligand ID>  (1) 
LIG0001283

>  <Ligand>  (1) 
CHEMBL391663

>  <SMILES>  (1) 
O[C@@H]1[C@@H](COP(=O)(OP(=O)(OP(=O)(O)O)O)O)O[C@H]([C@@H]1O)n1ccc2c(c1=O)cc(c(c2)F)F

>  <CID>  (1) 
44439765.0

>  <ChEMBL ID>  (1) 
nan

>  <InChiKey>  (1) 
UVFKSFDIWKHRJL-HKUMRIAESA-N

>  <InChi>  (1) 
InChI=1S/C14H16F2NO14P3/c15-8-3-6-1-2-17(13(20)7(6)4-9(8)16)14-12(19)11(18)10(29-14)5-28-33(24,25)31-34(26,27)30-32(21,22)23/h1-4,10-12,14,18-19H,5H2,(H,24,25)(H,26,27)(H2,21,22,23)/t10-,11-,12-,14-/m1/s1

>  <IUPAC Name>  (1) 
[[(2R,3S,4R,5R)-5-(6,7-difluoro-1-oxoisoquinolin-2-yl)-3,4-dihydroxyoxolan-2-yl]methoxy-hydroxyphosphoryl] phosphono hydrogen phosphate

$$$$
