
     RDKit          3D

 45 49  0  0  0  0  0  0  0  0999 V2000
   -3.5651    1.8340    1.7220 N   0  0  0  0  0  0  0  0  0  0  0  0
   -3.1041    2.2527    0.4393 C   0  0  0  0  0  0  0  0  0  0  0  0
   -1.8124    1.4509    0.1743 C   0  0  0  0  0  0  0  0  0  0  0  0
   -2.1998    0.0556   -0.0927 C   0  0  0  0  0  0  0  0  0  0  0  0
   -3.4716   -0.5075    0.0539 C   0  0  0  0  0  0  0  0  0  0  0  0
   -4.7587    0.0696    0.4662 C   0  0  0  0  0  0  0  0  0  0  0  0
   -4.7176    1.0060    1.6300 C   0  0  0  0  0  0  0  0  0  0  0  0
   -3.6242   -1.8045   -0.2314 N   0  0  0  0  0  0  0  0  0  0  0  0
   -2.5910   -2.5242   -0.6411 C   0  0  0  0  0  0  0  0  0  0  0  0
   -1.3677   -1.9918   -0.7851 N   0  0  0  0  0  0  0  0  0  0  0  0
   -1.1121   -0.6736   -0.5177 C   0  0  0  0  0  0  0  0  0  0  0  0
    0.1882   -0.1405   -0.6914 N   0  0  0  0  0  0  0  0  0  0  0  0
    0.9694    1.0589   -0.5683 C   0  0  0  0  0  0  0  0  0  0  0  0
    2.1861    0.1539   -0.3084 C   0  0  0  0  0  0  0  0  0  0  0  0
    1.4121   -0.7989   -1.1769 C   0  0  0  0  0  0  0  0  0  0  0  0
    3.4014    0.6070   -0.7934 O   0  0  0  0  0  0  0  0  0  0  0  0
    4.6054    0.6759   -0.1488 C   0  0  0  0  0  0  0  0  0  0  0  0
    4.8261    0.2876    1.1560 C   0  0  0  0  0  0  0  0  0  0  0  0
    6.0689    0.4006    1.6973 C   0  0  0  0  0  0  0  0  0  0  0  0
    7.1374    0.8816    1.0268 N   0  0  0  0  0  0  0  0  0  0  0  0
    6.9305    1.2682   -0.2634 C   0  0  0  0  0  0  0  0  0  0  0  0
    5.6886    1.1751   -0.8632 C   0  0  0  0  0  0  0  0  0  0  0  0
   -0.5818   -2.9703   -1.2030 N   0  0  0  0  0  0  0  0  0  0  0  0
   -1.2349   -4.1276   -1.3412 C   0  0  0  0  0  0  0  0  0  0  0  0
   -2.5395   -3.8642   -0.9828 C   0  0  0  0  0  0  0  0  0  0  0  0
   -2.8457    1.3509    2.3020 H   0  0  0  0  0  0  0  0  0  0  0  0
   -3.7679    2.0128   -0.4120 H   0  0  0  0  0  0  0  0  0  0  0  0
   -2.8798    3.3385    0.3797 H   0  0  0  0  0  0  0  0  0  0  0  0
   -1.3155    1.9721   -0.6429 H   0  0  0  0  0  0  0  0  0  0  0  0
   -1.2886    1.4632    1.1538 H   0  0  0  0  0  0  0  0  0  0  0  0
   -5.2066    0.5929   -0.4276 H   0  0  0  0  0  0  0  0  0  0  0  0
   -5.4526   -0.7787    0.7489 H   0  0  0  0  0  0  0  0  0  0  0  0
   -5.6045    1.7047    1.5377 H   0  0  0  0  0  0  0  0  0  0  0  0
   -4.8595    0.4554    2.5946 H   0  0  0  0  0  0  0  0  0  0  0  0
    1.1104    1.6087   -1.5259 H   0  0  0  0  0  0  0  0  0  0  0  0
    0.8518    1.6958    0.3032 H   0  0  0  0  0  0  0  0  0  0  0  0
    2.2181   -0.1933    0.7435 H   0  0  0  0  0  0  0  0  0  0  0  0
    1.5034   -1.8676   -0.9032 H   0  0  0  0  0  0  0  0  0  0  0  0
    1.5007   -0.5809   -2.2608 H   0  0  0  0  0  0  0  0  0  0  0  0
    4.0010   -0.1025    1.7291 H   0  0  0  0  0  0  0  0  0  0  0  0
    6.2104    0.0858    2.7287 H   0  0  0  0  0  0  0  0  0  0  0  0
    7.7415    1.6677   -0.8742 H   0  0  0  0  0  0  0  0  0  0  0  0
    5.5512    1.4884   -1.8874 H   0  0  0  0  0  0  0  0  0  0  0  0
   -0.8747   -5.0952   -1.6607 H   0  0  0  0  0  0  0  0  0  0  0  0
   -3.3267   -4.5929   -0.9852 H   0  0  0  0  0  0  0  0  0  0  0  0
  1  2  1  0
  2  3  1  0
  3  4  1  0
  4  5  1  0
  5  6  1  0
  6  7  1  0
  5  8  2  0
  8  9  1  0
  9 10  1  0
 10 11  1  0
 11 12  1  0
 12 13  1  0
 13 14  1  0
 14 15  1  0
 14 16  1  0
 16 17  1  0
 17 18  2  0
 18 19  1  0
 19 20  2  0
 20 21  1  0
 21 22  2  0
 10 23  1  0
 23 24  2  0
 24 25  1  0
  7  1  1  0
 25  9  2  0
 11  4  2  0
 15 12  1  0
 22 17  1  0
  1 26  1  0
  2 27  1  0
  2 28  1  0
  3 29  1  0
  3 30  1  0
  6 31  1  0
  6 32  1  0
  7 33  1  0
  7 34  1  0
 13 35  1  0
 13 36  1  0
 14 37  1  0
 15 38  1  0
 15 39  1  0
 18 40  1  0
 19 41  1  0
 21 42  1  0
 22 43  1  0
 24 44  1  0
 25 45  1  0
M  END
>  <Ligand ID>  (1) 
LIG0003243

>  <Ligand>  (1) 
CHEMBL1643857

>  <SMILES>  (1) 
N1CCc2c(CC1)nc1n(c2N2CC(C2)Oc2ccncc2)ncc1

>  <CID>  (1) 
53324327.0

>  <ChEMBL ID>  (1) 
nan

>  <InChiKey>  (1) 
GIFSZBKVFDQIIZ-UHFFFAOYSA-N

>  <InChi>  (1) 
InChI=1S/C18H20N6O/c1-6-19-7-2-13(1)25-14-11-23(12-14)18-15-3-8-20-9-4-16(15)22-17-5-10-21-24(17)18/h1-2,5-7,10,14,20H,3-4,8-9,11-12H2

>  <IUPAC Name>  (1) 
8-(3-pyridin-4-yloxyazetidin-1-yl)-2,6,7,12-tetrazatricyclo[7.5.0.03,7]tetradeca-1,3,5,8-tetraene

$$$$
