
     RDKit          3D

 63 66  0  0  0  0  0  0  0  0999 V2000
   -3.3706   -3.9823    1.3723 C   0  0  0  0  0  0  0  0  0  0  0  0
   -2.4185   -4.2238    0.2146 C   0  0  0  0  0  0  0  0  0  0  0  0
   -2.0706   -2.9969   -0.4144 O   0  0  0  0  0  0  0  0  0  0  0  0
   -1.4387   -1.9715    0.2738 C   0  0  0  0  0  0  0  0  0  0  0  0
   -1.1514   -2.1121    1.5108 O   0  0  0  0  0  0  0  0  0  0  0  0
   -1.0712   -0.6863   -0.3732 C   0  0  0  0  0  0  0  0  0  0  0  0
   -0.1141   -1.0061   -1.5023 C   0  0  0  0  0  0  0  0  0  0  0  0
    0.7256    0.2548   -1.6858 C   0  0  0  0  0  0  0  0  0  0  0  0
    1.6582    0.2904   -0.5782 N   0  0  0  0  0  0  0  0  0  0  0  0
    0.9994    0.2377    0.7010 C   0  0  0  0  0  0  0  0  0  0  0  0
   -0.5004    0.3003    0.5991 C   0  0  0  0  0  0  0  0  0  0  0  0
    2.5239    1.4429   -0.7276 C   0  0  0  0  0  0  0  0  0  0  0  0
    3.5263    1.5750    0.3482 C   0  0  0  0  0  0  0  0  0  0  0  0
    3.4349    2.4823    1.3824 C   0  0  0  0  0  0  0  0  0  0  0  0
    4.4385    2.5268    2.3543 C   0  0  0  0  0  0  0  0  0  0  0  0
    4.3798    3.4033    3.3806 F   0  0  0  0  0  0  0  0  0  0  0  0
    5.5192    1.6657    2.2812 C   0  0  0  0  0  0  0  0  0  0  0  0
    5.6231    0.7535    1.2520 C   0  0  0  0  0  0  0  0  0  0  0  0
    4.6223    0.7080    0.2814 C   0  0  0  0  0  0  0  0  0  0  0  0
    4.7345   -0.2415   -0.7900 N   0  0  0  0  0  0  0  0  0  0  0  0
    4.6340   -1.5812   -0.7398 C   0  0  0  0  0  0  0  0  0  0  0  0
    4.8115   -2.0886   -2.0211 C   0  0  0  0  0  0  0  0  0  0  0  0
    5.0234   -0.9781   -2.8372 C   0  0  0  0  0  0  0  0  0  0  0  0
    4.9680    0.1112   -2.0512 N   0  0  0  0  0  0  0  0  0  0  0  0
   -2.2886   -0.0571   -1.0179 C   0  0  0  0  0  0  0  0  0  0  0  0
   -3.3891    0.2369   -0.0496 C   0  0  0  0  0  0  0  0  0  0  0  0
   -4.5465    0.8601   -0.8038 C   0  0  0  0  0  0  0  0  0  0  0  0
   -4.4410    2.3727   -0.7798 C   0  0  0  0  0  0  0  0  0  0  0  0
   -4.3794    2.8866    0.6388 C   0  0  0  0  0  0  0  0  0  0  0  0
   -4.1197    1.6981    1.5450 C   0  0  0  0  0  0  0  0  0  0  0  0
   -3.0095    1.0218    1.0146 O   0  0  0  0  0  0  0  0  0  0  0  0
   -2.8778   -4.4055    2.2943 H   0  0  0  0  0  0  0  0  0  0  0  0
   -3.5800   -2.8833    1.5078 H   0  0  0  0  0  0  0  0  0  0  0  0
   -4.2861   -4.5801    1.2285 H   0  0  0  0  0  0  0  0  0  0  0  0
   -2.8768   -4.8783   -0.5546 H   0  0  0  0  0  0  0  0  0  0  0  0
   -1.4876   -4.7348    0.5516 H   0  0  0  0  0  0  0  0  0  0  0  0
   -0.6872   -1.2241   -2.4053 H   0  0  0  0  0  0  0  0  0  0  0  0
    0.5770   -1.8267   -1.2758 H   0  0  0  0  0  0  0  0  0  0  0  0
    0.0903    1.1482   -1.7048 H   0  0  0  0  0  0  0  0  0  0  0  0
    1.3275    0.1188   -2.6069 H   0  0  0  0  0  0  0  0  0  0  0  0
    1.3308   -0.6650    1.2537 H   0  0  0  0  0  0  0  0  0  0  0  0
    1.3333    1.1135    1.2933 H   0  0  0  0  0  0  0  0  0  0  0  0
   -0.9144    0.0684    1.6019 H   0  0  0  0  0  0  0  0  0  0  0  0
   -0.7884    1.3601    0.3846 H   0  0  0  0  0  0  0  0  0  0  0  0
    1.8282    2.3283   -0.7546 H   0  0  0  0  0  0  0  0  0  0  0  0
    2.9649    1.3662   -1.7473 H   0  0  0  0  0  0  0  0  0  0  0  0
    2.5856    3.1503    1.4271 H   0  0  0  0  0  0  0  0  0  0  0  0
    6.3216    1.6706    3.0204 H   0  0  0  0  0  0  0  0  0  0  0  0
    6.4448    0.0592    1.1475 H   0  0  0  0  0  0  0  0  0  0  0  0
    4.4470   -2.1736    0.1436 H   0  0  0  0  0  0  0  0  0  0  0  0
    4.7931   -3.1292   -2.3403 H   0  0  0  0  0  0  0  0  0  0  0  0
    5.2019   -1.0031   -3.9241 H   0  0  0  0  0  0  0  0  0  0  0  0
   -1.9708    0.8859   -1.5109 H   0  0  0  0  0  0  0  0  0  0  0  0
   -2.6659   -0.7314   -1.8093 H   0  0  0  0  0  0  0  0  0  0  0  0
   -3.7502   -0.7391    0.3671 H   0  0  0  0  0  0  0  0  0  0  0  0
   -5.4744    0.5673   -0.2965 H   0  0  0  0  0  0  0  0  0  0  0  0
   -4.5368    0.5344   -1.8475 H   0  0  0  0  0  0  0  0  0  0  0  0
   -5.3689    2.7763   -1.2353 H   0  0  0  0  0  0  0  0  0  0  0  0
   -3.5854    2.7464   -1.3439 H   0  0  0  0  0  0  0  0  0  0  0  0
   -3.5495    3.6082    0.8025 H   0  0  0  0  0  0  0  0  0  0  0  0
   -5.3165    3.4143    0.9315 H   0  0  0  0  0  0  0  0  0  0  0  0
   -5.0060    1.0395    1.6333 H   0  0  0  0  0  0  0  0  0  0  0  0
   -3.8365    2.1154    2.5382 H   0  0  0  0  0  0  0  0  0  0  0  0
  1  2  1  0
  2  3  1  0
  3  4  1  0
  4  5  2  0
  4  6  1  0
  6  7  1  0
  7  8  1  0
  8  9  1  0
  9 10  1  0
 10 11  1  0
  9 12  1  0
 12 13  1  0
 13 14  2  0
 14 15  1  0
 15 16  1  0
 15 17  2  0
 17 18  1  0
 18 19  2  0
 19 20  1  0
 20 21  1  0
 21 22  2  0
 22 23  1  0
 23 24  2  0
  6 25  1  0
 25 26  1  0
 26 27  1  0
 27 28  1  0
 28 29  1  0
 29 30  1  0
 30 31  1  0
 11  6  1  0
 19 13  1  0
 24 20  1  0
 31 26  1  0
  1 32  1  0
  1 33  1  0
  1 34  1  0
  2 35  1  0
  2 36  1  0
  7 37  1  0
  7 38  1  0
  8 39  1  0
  8 40  1  0
 10 41  1  0
 10 42  1  0
 11 43  1  0
 11 44  1  0
 12 45  1  0
 12 46  1  0
 14 47  1  0
 17 48  1  0
 18 49  1  0
 21 50  1  0
 22 51  1  0
 23 52  1  0
 25 53  1  0
 25 54  1  0
 26 55  1  0
 27 56  1  0
 27 57  1  0
 28 58  1  0
 28 59  1  0
 29 60  1  0
 29 61  1  0
 30 62  1  0
 30 63  1  0
M  END
>  <Ligand ID>  (1) 
LIG0004429

>  <Ligand>  (1) 
MLS000734872

>  <SMILES>  (1) 
CCOC(=O)C1(CCN(CC1)Cc1cc(F)ccc1n1cccn1)CC1CCCCO1

>  <CID>  (1) 
16189200.0

>  <ChEMBL ID>  (1) 
nan

>  <InChiKey>  (1) 
LCEZHSAFZVIPCZ-UHFFFAOYSA-N

>  <InChi>  (1) 
InChI=1S/C24H32FN3O3/c1-2-30-23(29)24(17-21-6-3-4-15-31-21)9-13-27(14-10-24)18-19-16-20(25)7-8-22(19)28-12-5-11-26-28/h5,7-8,11-12,16,21H,2-4,6,9-10,13-15,17-18H2,1H3

>  <IUPAC Name>  (1) 
ethyl 1-[(5-fluoro-2-pyrazol-1-ylphenyl)methyl]-4-(oxan-2-ylmethyl)piperidine-4-carboxylate

$$$$
