
     RDKit          3D

 42 45  0  0  0  0  0  0  0  0999 V2000
   -3.9840    1.3033    1.9050 Cl  0  0  0  0  0  0  0  0  0  0  0  0
   -5.0716    0.9648    0.5893 C   0  0  0  0  0  0  0  0  0  0  0  0
   -6.4099    1.3371    0.8061 C   0  0  0  0  0  0  0  0  0  0  0  0
   -7.3760    1.1277   -0.1503 C   0  0  0  0  0  0  0  0  0  0  0  0
   -6.9647    0.5375   -1.3241 C   0  0  0  0  0  0  0  0  0  0  0  0
   -5.6558    0.1735   -1.5356 C   0  0  0  0  0  0  0  0  0  0  0  0
   -4.6553    0.3774   -0.5753 C   0  0  0  0  0  0  0  0  0  0  0  0
   -3.3271   -0.0448   -0.9127 C   0  0  0  0  0  0  0  0  0  0  0  0
   -2.2347    0.0281   -0.2120 C   0  0  0  0  0  0  0  0  0  0  0  0
   -0.9568   -0.4635   -0.7356 C   0  0  0  0  0  0  0  0  0  0  0  0
   -0.9089   -0.9727   -1.8979 O   0  0  0  0  0  0  0  0  0  0  0  0
    0.2335   -0.3785    0.0408 N   0  0  0  0  0  0  0  0  0  0  0  0
    0.2984    0.1360    1.2704 N   0  0  0  0  0  0  0  0  0  0  0  0
    1.5464    0.0767    1.7390 C   0  0  0  0  0  0  0  0  0  0  0  0
    2.2903   -0.5129    0.7277 C   0  0  0  0  0  0  0  0  0  0  0  0
    1.4517   -0.7974   -0.3423 C   0  0  0  0  0  0  0  0  0  0  0  0
    2.1989   -1.4249   -1.4401 C   0  0  0  0  0  0  0  0  0  0  0  0
    3.6108   -1.5373   -0.9315 C   0  0  2  0  0  0  0  0  0  0  0  0
    3.6744   -0.9270    0.4365 C   0  0  1  0  0  0  0  0  0  0  0  0
    4.4234   -0.3499   -0.6789 C   0  0  0  0  0  0  0  0  0  0  0  0
    4.0319    1.0302   -1.1224 C   0  0  0  0  0  0  0  0  0  0  0  0
    5.9361   -0.5997   -0.6543 C   0  0  0  0  0  0  0  0  0  0  0  0
    2.0001    0.5546    3.0723 C   0  0  0  0  0  0  0  0  0  0  0  0
   -6.7231    1.7975    1.7255 H   0  0  0  0  0  0  0  0  0  0  0  0
   -8.3926    1.4095    0.0119 H   0  0  0  0  0  0  0  0  0  0  0  0
   -7.6918    0.3647   -2.0791 H   0  0  0  0  0  0  0  0  0  0  0  0
   -5.4386   -0.2850   -2.4971 H   0  0  0  0  0  0  0  0  0  0  0  0
   -3.1936   -0.5010   -1.9101 H   0  0  0  0  0  0  0  0  0  0  0  0
   -2.2431    0.4431    0.7501 H   0  0  0  0  0  0  0  0  0  0  0  0
    2.2621   -0.7689   -2.3508 H   0  0  0  0  0  0  0  0  0  0  0  0
    1.7805   -2.3666   -1.7892 H   0  0  0  0  0  0  0  0  0  0  0  0
    4.0746   -2.5269   -1.1245 H   0  0  0  0  0  0  0  0  0  0  0  0
    4.2352   -1.5146    1.2168 H   0  0  0  0  0  0  0  0  0  0  0  0
    4.3348    1.7576   -0.3326 H   0  0  0  0  0  0  0  0  0  0  0  0
    4.5840    1.3372   -2.0561 H   0  0  0  0  0  0  0  0  0  0  0  0
    2.9536    1.1363   -1.2632 H   0  0  0  0  0  0  0  0  0  0  0  0
    6.1869   -1.6281   -0.9895 H   0  0  0  0  0  0  0  0  0  0  0  0
    6.2406   -0.5555    0.4228 H   0  0  0  0  0  0  0  0  0  0  0  0
    6.4874    0.1449   -1.2765 H   0  0  0  0  0  0  0  0  0  0  0  0
    3.0047    1.0406    3.0360 H   0  0  0  0  0  0  0  0  0  0  0  0
    2.0878   -0.2681    3.8101 H   0  0  0  0  0  0  0  0  0  0  0  0
    1.2998    1.3451    3.4027 H   0  0  0  0  0  0  0  0  0  0  0  0
  1  2  1  0
  2  3  2  0
  3  4  1  0
  4  5  2  0
  5  6  1  0
  6  7  2  0
  7  8  1  0
  8  9  2  0
  9 10  1  0
 10 11  2  0
 10 12  1  0
 12 13  1  0
 13 14  2  0
 14 15  1  0
 15 16  2  0
 16 17  1  0
 17 18  1  0
 18 19  1  0
 19 20  1  0
 20 21  1  0
 20 22  1  0
 14 23  1  0
  7  2  1  0
 16 12  1  0
 20 18  1  0
 19 15  1  0
  3 24  1  0
  4 25  1  0
  5 26  1  0
  6 27  1  0
  8 28  1  0
  9 29  1  0
 17 30  1  0
 17 31  1  0
 18 32  1  1
 19 33  1  1
 21 34  1  0
 21 35  1  0
 21 36  1  0
 22 37  1  0
 22 38  1  0
 22 39  1  0
 23 40  1  0
 23 41  1  0
 23 42  1  0
M  END
>  <Ligand ID>  (1) 
LIG0003970

>  <Ligand>  (1) 
CHEMBL591102

>  <SMILES>  (1) 
Clc1ccccc1/C=C/C(=O)n1nc(c2c1C[C@@H]1[C@H]2C1(C)C)C

>  <CID>  (1) 
46224713.0

>  <ChEMBL ID>  (1) 
nan

>  <InChiKey>  (1) 
PKXVBXQWZXYOGL-XCUIMDOYSA-N

>  <InChi>  (1) 
InChI=1S/C19H19ClN2O/c1-11-17-15(10-13-18(17)19(13,2)3)22(21-11)16(23)9-8-12-6-4-5-7-14(12)20/h4-9,13,18H,10H2,1-3H3/b9-8+/t13-,18-/m1/s1

>  <IUPAC Name>  (1) 
(E)-3-(2-chlorophenyl)-1-[(2S,4R)-3,3,9-trimethyl-7,8-diazatricyclo[4.3.0.02,4]nona-1(6),8-dien-7-yl]prop-2-en-1-one

$$$$
