
     RDKit          3D

 35 37  0  0  0  0  0  0  0  0999 V2000
   -2.5913   -2.4472   -0.9304 N   0  0  0  0  0  0  0  0  0  0  0  0
   -3.4680   -1.6098   -0.1648 C   0  0  0  0  0  0  0  0  0  0  0  0
   -2.7227   -0.4618    0.4772 C   0  0  1  0  0  0  0  0  0  0  0  0
   -1.6323   -0.7285    1.4215 C   0  0  0  0  0  0  0  0  0  0  0  0
   -1.3443   -0.2169   -0.0137 C   0  0  2  0  0  0  0  0  0  0  0  0
   -0.7997    1.1728   -0.1044 C   0  0  0  0  0  0  0  0  0  0  0  0
   -1.6120    2.2822   -0.2170 C   0  0  0  0  0  0  0  0  0  0  0  0
   -1.0742    3.5664   -0.2997 C   0  0  0  0  0  0  0  0  0  0  0  0
   -1.8814    4.6582   -0.4107 F   0  0  0  0  0  0  0  0  0  0  0  0
    0.2952    3.7359   -0.2689 C   0  0  0  0  0  0  0  0  0  0  0  0
    1.0893    2.6264   -0.1570 C   0  0  0  0  0  0  0  0  0  0  0  0
    0.5715    1.3391   -0.0733 C   0  0  0  0  0  0  0  0  0  0  0  0
    1.4735    0.3085    0.0360 O   0  0  0  0  0  0  0  0  0  0  0  0
    2.8760    0.4571    0.0695 C   0  0  0  0  0  0  0  0  0  0  0  0
    3.4844   -0.9070    0.1952 C   0  0  0  0  0  0  0  0  0  0  0  0
    3.2760   -1.9610   -0.7998 C   0  0  0  0  0  0  0  0  0  0  0  0
    2.4941   -2.0294    0.4610 C   0  0  0  0  0  0  0  0  0  0  0  0
   -3.1029   -2.8385   -1.7541 H   0  0  0  0  0  0  0  0  0  0  0  0
   -2.2008   -3.1940   -0.2960 H   0  0  0  0  0  0  0  0  0  0  0  0
   -3.8832   -2.2201    0.6879 H   0  0  0  0  0  0  0  0  0  0  0  0
   -4.3137   -1.2414   -0.7769 H   0  0  0  0  0  0  0  0  0  0  0  0
   -3.3496    0.4550    0.6503 H   0  0  0  0  0  0  0  0  0  0  0  0
   -1.3886   -1.7832    1.6255 H   0  0  0  0  0  0  0  0  0  0  0  0
   -1.3904    0.0027    2.2285 H   0  0  0  0  0  0  0  0  0  0  0  0
   -0.7962   -0.9421   -0.6389 H   0  0  0  0  0  0  0  0  0  0  0  0
   -2.6890    2.1663   -0.2426 H   0  0  0  0  0  0  0  0  0  0  0  0
    0.6647    4.7518   -0.3362 H   0  0  0  0  0  0  0  0  0  0  0  0
    2.1594    2.7856   -0.1350 H   0  0  0  0  0  0  0  0  0  0  0  0
    3.1761    0.9343   -0.9086 H   0  0  0  0  0  0  0  0  0  0  0  0
    3.2113    1.1567    0.8551 H   0  0  0  0  0  0  0  0  0  0  0  0
    4.3998   -0.8948    0.8518 H   0  0  0  0  0  0  0  0  0  0  0  0
    4.1528   -2.6557   -0.9464 H   0  0  0  0  0  0  0  0  0  0  0  0
    2.7509   -1.7024   -1.7301 H   0  0  0  0  0  0  0  0  0  0  0  0
    2.7564   -2.7113    1.2853 H   0  0  0  0  0  0  0  0  0  0  0  0
    1.4088   -1.8542    0.3596 H   0  0  0  0  0  0  0  0  0  0  0  0
  1  2  1  0
  2  3  1  0
  3  4  1  0
  4  5  1  0
  5  6  1  0
  6  7  2  0
  7  8  1  0
  8  9  1  0
  8 10  2  0
 10 11  1  0
 11 12  2  0
 12 13  1  0
 13 14  1  0
 14 15  1  0
 15 16  1  0
 16 17  1  0
  5  3  1  0
 12  6  1  0
 17 15  1  0
  1 18  1  0
  1 19  1  0
  2 20  1  0
  2 21  1  0
  3 22  1  1
  4 23  1  0
  4 24  1  0
  5 25  1  6
  7 26  1  0
 10 27  1  0
 11 28  1  0
 14 29  1  0
 14 30  1  0
 15 31  1  0
 16 32  1  0
 16 33  1  0
 17 34  1  0
 17 35  1  0
M  END
>  <Ligand ID>  (1) 
LIG0002967

>  <Ligand>  (1) 
CHEMBL2023357

>  <SMILES>  (1) 
NC[C@H]1C[C@@H]1c1cc(F)ccc1OCC1CC1

>  <CID>  (1) 
46937339.0

>  <ChEMBL ID>  (1) 
nan

>  <InChiKey>  (1) 
PEJDRJDQIFVYTC-PWSUYJOCSA-N

>  <InChi>  (1) 
InChI=1S/C14H18FNO/c15-11-3-4-14(17-8-9-1-2-9)13(6-11)12-5-10(12)7-16/h3-4,6,9-10,12H,1-2,5,7-8,16H2/t10-,12+/m1/s1

>  <IUPAC Name>  (1) 
[(1S,2S)-2-[2-(cyclopropylmethoxy)-5-fluorophenyl]cyclopropyl]methanamine

$$$$
