
     RDKit          3D

 42 43  0  0  0  0  0  0  0  0999 V2000
    0.4650    1.1042    2.4777 C   0  0  0  0  0  0  0  0  0  0  0  0
   -0.0323    0.3434    1.3346 C   0  0  0  0  0  0  0  0  0  0  0  0
   -1.2990    0.6859    0.8459 C   0  0  0  0  0  0  0  0  0  0  0  0
   -1.8697    0.0151   -0.2170 C   0  0  0  0  0  0  0  0  0  0  0  0
   -1.1199   -1.0094   -0.7671 C   0  0  0  0  0  0  0  0  0  0  0  0
    0.1275   -1.3479   -0.2879 C   0  0  0  0  0  0  0  0  0  0  0  0
    0.7161   -0.6731    0.7907 C   0  0  0  0  0  0  0  0  0  0  0  0
    2.0512   -1.0796    1.2231 C   0  0  0  0  0  0  0  0  0  0  0  0
    3.1648   -0.2306    0.7045 C   0  0  0  0  0  0  0  0  0  0  0  0
    4.0893   -0.7007   -0.0624 N   0  0  0  0  0  0  0  0  0  0  0  0
    5.0193    0.3466   -0.3977 C   0  0  0  0  0  0  0  0  0  0  0  0
    4.1231    1.5876   -0.2744 C   0  0  0  0  0  0  0  0  0  0  0  0
    3.3975    1.1645    0.9421 N   0  0  0  0  0  0  0  0  0  0  0  0
    0.8869   -2.4572   -0.9197 C   0  0  0  0  0  0  0  0  0  0  0  0
   -3.1864    0.3176   -0.7851 C   0  0  0  0  0  0  0  0  0  0  0  0
   -3.7908    1.4892   -0.0243 C   0  0  0  0  0  0  0  0  0  0  0  0
   -2.9756    0.7435   -2.2160 C   0  0  0  0  0  0  0  0  0  0  0  0
   -4.1667   -0.8252   -0.6723 C   0  0  0  0  0  0  0  0  0  0  0  0
    0.6936    2.1458    2.1720 H   0  0  0  0  0  0  0  0  0  0  0  0
    1.3564    0.6881    2.9579 H   0  0  0  0  0  0  0  0  0  0  0  0
   -0.3353    1.1963    3.2690 H   0  0  0  0  0  0  0  0  0  0  0  0
   -1.8838    1.4868    1.2754 H   0  0  0  0  0  0  0  0  0  0  0  0
   -1.5378   -1.5524   -1.5980 H   0  0  0  0  0  0  0  0  0  0  0  0
    2.2164   -2.1255    0.8834 H   0  0  0  0  0  0  0  0  0  0  0  0
    2.1283   -1.1687    2.3463 H   0  0  0  0  0  0  0  0  0  0  0  0
    5.7762    0.3552    0.4135 H   0  0  0  0  0  0  0  0  0  0  0  0
    5.4672    0.2540   -1.4090 H   0  0  0  0  0  0  0  0  0  0  0  0
    4.7112    2.4907   -0.1239 H   0  0  0  0  0  0  0  0  0  0  0  0
    3.4525    1.6207   -1.1516 H   0  0  0  0  0  0  0  0  0  0  0  0
    3.1328    1.7295    1.7514 H   0  0  0  0  0  0  0  0  0  0  0  0
    0.8891   -3.3808   -0.2801 H   0  0  0  0  0  0  0  0  0  0  0  0
    1.8967   -2.0988   -1.1555 H   0  0  0  0  0  0  0  0  0  0  0  0
    0.3884   -2.7335   -1.8700 H   0  0  0  0  0  0  0  0  0  0  0  0
   -4.8059    1.7351   -0.4508 H   0  0  0  0  0  0  0  0  0  0  0  0
   -3.9211    1.2200    1.0549 H   0  0  0  0  0  0  0  0  0  0  0  0
   -3.2061    2.4248   -0.1608 H   0  0  0  0  0  0  0  0  0  0  0  0
   -2.0920    0.1754   -2.6077 H   0  0  0  0  0  0  0  0  0  0  0  0
   -2.6973    1.8081   -2.2500 H   0  0  0  0  0  0  0  0  0  0  0  0
   -3.8651    0.5001   -2.8052 H   0  0  0  0  0  0  0  0  0  0  0  0
   -3.7598   -1.8047   -0.9739 H   0  0  0  0  0  0  0  0  0  0  0  0
   -5.0411   -0.5905   -1.3355 H   0  0  0  0  0  0  0  0  0  0  0  0
   -4.5637   -0.9295    0.3534 H   0  0  0  0  0  0  0  0  0  0  0  0
  1  2  1  0
  2  3  2  0
  3  4  1  0
  4  5  2  0
  5  6  1  0
  6  7  2  0
  7  8  1  0
  8  9  1  0
  9 10  2  0
 10 11  1  0
 11 12  1  0
 12 13  1  0
  6 14  1  0
  4 15  1  0
 15 16  1  0
 15 17  1  0
 15 18  1  0
  7  2  1  0
 13  9  1  0
  1 19  1  0
  1 20  1  0
  1 21  1  0
  3 22  1  0
  5 23  1  0
  8 24  1  0
  8 25  1  0
 11 26  1  0
 11 27  1  0
 12 28  1  0
 12 29  1  0
 13 30  1  0
 14 31  1  0
 14 32  1  0
 14 33  1  0
 16 34  1  0
 16 35  1  0
 16 36  1  0
 17 37  1  0
 17 38  1  0
 17 39  1  0
 18 40  1  0
 18 41  1  0
 18 42  1  0
M  END
>  <Ligand ID>  (1) 
LIG0003770

>  <Ligand>  (1) 
xylometazoline

>  <SMILES>  (1) 
Cc1cc(cc(c1CC1=NCCN1)C)C(C)(C)C

>  <CID>  (1) 
5709.0

>  <ChEMBL ID>  (1) 
nan

>  <InChiKey>  (1) 
HUCJFAOMUPXHDK-UHFFFAOYSA-N

>  <InChi>  (1) 
InChI=1S/C16H24N2/c1-11-8-13(16(3,4)5)9-12(2)14(11)10-15-17-6-7-18-15/h8-9H,6-7,10H2,1-5H3,(H,17,18)

>  <IUPAC Name>  (1) 
2-[(4-tert-butyl-2,6-dimethylphenyl)methyl]-4,5-dihydro-1H-imidazole

$$$$
