
     RDKit          3D

 33 33  0  0  0  0  0  0  0  0999 V2000
    5.3219    1.9304   -1.2649 F   0  0  0  0  0  0  0  0  0  0  0  0
    4.1900    1.3915   -0.7024 C   0  0  0  0  0  0  0  0  0  0  0  0
    2.9344    1.9330   -0.9688 C   0  0  0  0  0  0  0  0  0  0  0  0
    1.8333    1.3485   -0.3727 C   0  0  0  0  0  0  0  0  0  0  0  0
    1.8955    0.2692    0.4645 C   0  0  0  0  0  0  0  0  0  0  0  0
    3.1721   -0.2493    0.7104 C   0  0  0  0  0  0  0  0  0  0  0  0
    4.3045    0.2918    0.1444 C   0  0  0  0  0  0  0  0  0  0  0  0
    0.7710   -0.4015    1.1182 C   0  0  0  0  0  0  0  0  0  0  0  0
    0.1958   -1.5050    0.4886 N   0  0  0  0  0  0  0  0  0  0  0  0
   -0.4938   -1.4092   -0.7209 C   0  0  0  0  0  0  0  0  0  0  0  0
   -1.7400   -0.6310   -0.5439 C   0  0  0  0  0  0  0  0  0  0  0  0
   -1.9454    0.6448   -0.9993 C   0  0  0  0  0  0  0  0  0  0  0  0
   -3.1379    1.3313   -0.8208 C   0  0  0  0  0  0  0  0  0  0  0  0
   -3.3338    2.9803   -1.4363 Cl  0  0  0  0  0  0  0  0  0  0  0  0
   -4.1513    0.6815   -0.1523 C   0  0  0  0  0  0  0  0  0  0  0  0
   -4.0062   -0.6087    0.3318 C   0  0  0  0  0  0  0  0  0  0  0  0
   -2.7876   -1.2497    0.1246 C   0  0  0  0  0  0  0  0  0  0  0  0
   -2.6311   -2.5585    0.6121 O   0  0  0  0  0  0  0  0  0  0  0  0
    0.6833    0.0000    0.0000 Cl  0  0  0  0  0  0  0  0  0  0  0  0
    2.8285    2.8014   -1.6349 H   0  0  0  0  0  0  0  0  0  0  0  0
    0.8717    1.7812   -0.5815 H   0  0  0  0  0  0  0  0  0  0  0  0
    3.3191   -1.1081    1.3647 H   0  0  0  0  0  0  0  0  0  0  0  0
    5.3014   -0.0867    0.3152 H   0  0  0  0  0  0  0  0  0  0  0  0
    1.0842   -0.7424    2.1531 H   0  0  0  0  0  0  0  0  0  0  0  0
   -0.0350    0.3494    1.3172 H   0  0  0  0  0  0  0  0  0  0  0  0
    0.5349   -2.4445    0.7713 H   0  0  0  0  0  0  0  0  0  0  0  0
   -0.7671   -2.3910   -1.1847 H   0  0  0  0  0  0  0  0  0  0  0  0
    0.0630   -0.8848   -1.5460 H   0  0  0  0  0  0  0  0  0  0  0  0
   -1.1723    1.1490   -1.5242 H   0  0  0  0  0  0  0  0  0  0  0  0
   -5.0967    1.1849    0.0061 H   0  0  0  0  0  0  0  0  0  0  0  0
   -4.7911   -1.1335    0.8586 H   0  0  0  0  0  0  0  0  0  0  0  0
   -2.5319   -2.6643    1.6259 H   0  0  0  0  0  0  0  0  0  0  0  0
   -0.6833    0.0000    0.0000 H   0  0  0  0  0  0  0  0  0  0  0  0
  1  2  1  0
  2  3  2  0
  3  4  1  0
  4  5  2  0
  5  6  1  0
  6  7  2  0
  5  8  1  0
  8  9  1  0
  9 10  1  0
 10 11  1  0
 11 12  2  0
 12 13  1  0
 13 14  1  0
 13 15  2  0
 15 16  1  0
 16 17  2  0
 17 18  1  0
  7  2  1  0
 17 11  1  0
  3 20  1  0
  4 21  1  0
  6 22  1  0
  7 23  1  0
  8 24  1  0
  8 25  1  0
  9 26  1  0
 10 27  1  0
 10 28  1  0
 12 29  1  0
 15 30  1  0
 16 31  1  0
 18 32  1  0
 19 33  1  0
M  END
>  <Ligand ID>  (1) 
LIG0005957

>  <Ligand>  (1) 
MLS002207451

>  <SMILES>  (1) 
Fc1ccc(cc1)CNCc1cc(Cl)ccc1O.Cl

>  <CID>  (1) 
25161470.0

>  <ChEMBL ID>  (1) 
nan

>  <InChiKey>  (1) 
VNGNJSKSYGZLFX-UHFFFAOYSA-N

>  <InChi>  (1) 
InChI=1S/C14H13ClFNO.ClH/c15-12-3-6-14(18)11(7-12)9-17-8-10-1-4-13(16)5-2-10;/h1-7,17-18H,8-9H2;1H

>  <IUPAC Name>  (1) 
4-chloro-2-[[(4-fluorophenyl)methylamino]methyl]phenol;hydrochloride

$$$$
