
     RDKit          3D

 79 80  0  0  0  0  0  0  0  0999 V2000
   -2.3749   -0.5519    4.1667 C   0  0  0  0  0  0  0  0  0  0  0  0
   -3.0258   -1.1936    2.9628 C   0  0  0  0  0  0  0  0  0  0  0  0
   -3.3477   -2.4087    3.1005 O   0  0  0  0  0  0  0  0  0  0  0  0
   -3.2649   -0.4873    1.7434 N   0  0  0  0  0  0  0  0  0  0  0  0
   -3.8861   -1.2496    0.6676 C   0  0  2  0  0  0  0  0  0  0  0  0
   -2.8927   -1.6241   -0.3831 C   0  0  0  0  0  0  0  0  0  0  0  0
   -3.1738   -2.6237   -1.0941 O   0  0  0  0  0  0  0  0  0  0  0  0
   -1.6937   -0.8750   -0.5570 N   0  0  0  0  0  0  0  0  0  0  0  0
   -0.6643   -1.1250   -1.4920 C   0  0  2  0  0  0  0  0  0  0  0  0
    0.7080   -0.6685   -1.0764 C   0  0  0  0  0  0  0  0  0  0  0  0
    1.5986   -1.0112   -1.9549 O   0  0  0  0  0  0  0  0  0  0  0  0
    0.9629    0.0347    0.1046 N   0  0  0  0  0  0  0  0  0  0  0  0
    2.2229    0.5302    0.5956 C   0  0  2  0  0  0  0  0  0  0  0  0
    2.2994    2.0081    0.5759 C   0  0  0  0  0  0  0  0  0  0  0  0
    1.2837    2.6314    0.1621 O   0  0  0  0  0  0  0  0  0  0  0  0
    3.4157    2.7678    0.9801 N   0  0  0  0  0  0  0  0  0  0  0  0
    3.3286    4.2328    0.8892 C   0  0  0  0  0  0  0  0  0  0  0  0
    4.3103    4.7794   -0.0982 C   0  0  0  0  0  0  0  0  0  0  0  0
    5.0799    4.0717   -0.7751 O   0  0  0  0  0  0  0  0  0  0  0  0
    4.3245    6.2130   -0.2251 N   0  0  0  0  0  0  0  0  0  0  0  0
    3.4504    4.9148    2.2412 C   0  0  0  0  0  0  0  0  0  0  0  0
    3.4508   -0.1403    0.0320 C   0  0  0  0  0  0  0  0  0  0  0  0
    3.5901   -1.5621    0.3723 C   0  0  0  0  0  0  0  0  0  0  0  0
    3.7612   -1.7970    1.8735 C   0  0  0  0  0  0  0  0  0  0  0  0
    3.9794   -3.2261    2.1121 N   0  0  0  0  0  0  0  0  0  0  0  0
    5.2215   -3.6214    2.1930 C   0  0  0  0  0  0  0  0  0  0  0  0
    6.2298   -2.6112    2.0316 N   0  0  0  0  0  0  0  0  0  0  0  0
    5.6057   -4.9563    2.4229 N   0  0  0  0  0  0  0  0  0  0  0  0
   -0.9039   -0.5253   -2.8748 C   0  0  0  0  0  0  0  0  0  0  0  0
   -2.1325   -1.0924   -3.4477 C   0  0  0  0  0  0  0  0  0  0  0  0
   -3.3832   -0.4705   -3.3504 C   0  0  0  0  0  0  0  0  0  0  0  0
   -4.4486   -1.1472   -3.9415 C   0  0  0  0  0  0  0  0  0  0  0  0
   -4.3172   -2.3547   -4.5810 C   0  0  0  0  0  0  0  0  0  0  0  0
   -3.0793   -2.9717   -4.6722 C   0  0  0  0  0  0  0  0  0  0  0  0
   -2.0113   -2.3245   -4.1039 C   0  0  0  0  0  0  0  0  0  0  0  0
   -5.1602   -0.6677    0.1930 C   0  0  0  0  0  0  0  0  0  0  0  0
   -5.1521    0.7023   -0.3264 C   0  0  0  0  0  0  0  0  0  0  0  0
   -6.3286    1.2756   -0.7727 N   0  0  0  0  0  0  0  0  0  0  0  0
   -6.0703    2.5357   -1.1800 C   0  0  0  0  0  0  0  0  0  0  0  0
   -4.7439    2.8002   -1.0030 N   0  0  0  0  0  0  0  0  0  0  0  0
   -4.1780    1.6449   -0.4663 C   0  0  0  0  0  0  0  0  0  0  0  0
   -1.2778   -0.7153    4.0279 H   0  0  0  0  0  0  0  0  0  0  0  0
   -2.6776    0.4794    4.2907 H   0  0  0  0  0  0  0  0  0  0  0  0
   -2.6517   -1.1711    5.0601 H   0  0  0  0  0  0  0  0  0  0  0  0
   -2.9918    0.4916    1.7165 H   0  0  0  0  0  0  0  0  0  0  0  0
   -4.2020   -2.2450    1.1467 H   0  0  0  0  0  0  0  0  0  0  0  0
   -1.6064   -0.0746    0.0817 H   0  0  0  0  0  0  0  0  0  0  0  0
   -0.6282   -2.2036   -1.7179 H   0  0  0  0  0  0  0  0  0  0  0  0
    0.1347    0.2493    0.7512 H   0  0  0  0  0  0  0  0  0  0  0  0
    2.2711    0.1555    1.6934 H   0  0  0  0  0  0  0  0  0  0  0  0
    4.2452    2.2433    1.3259 H   0  0  0  0  0  0  0  0  0  0  0  0
    2.3420    4.5129    0.5024 H   0  0  0  0  0  0  0  0  0  0  0  0
    3.4460    6.7759   -0.3836 H   0  0  0  0  0  0  0  0  0  0  0  0
    5.2269    6.7301   -0.1628 H   0  0  0  0  0  0  0  0  0  0  0  0
    2.5465    4.6439    2.8255 H   0  0  0  0  0  0  0  0  0  0  0  0
    3.4646    6.0078    2.0449 H   0  0  0  0  0  0  0  0  0  0  0  0
    4.3846    4.7138    2.7693 H   0  0  0  0  0  0  0  0  0  0  0  0
    3.4899   -0.0266   -1.0815 H   0  0  0  0  0  0  0  0  0  0  0  0
    4.3327    0.4545    0.3873 H   0  0  0  0  0  0  0  0  0  0  0  0
    2.6870   -2.1399    0.0879 H   0  0  0  0  0  0  0  0  0  0  0  0
    4.4410   -2.0370   -0.1477 H   0  0  0  0  0  0  0  0  0  0  0  0
    2.7990   -1.5775    2.3745 H   0  0  0  0  0  0  0  0  0  0  0  0
    4.6207   -1.2623    2.2842 H   0  0  0  0  0  0  0  0  0  0  0  0
    6.6073   -2.5409    1.0451 H   0  0  0  0  0  0  0  0  0  0  0  0
    6.5625   -2.0138    2.7701 H   0  0  0  0  0  0  0  0  0  0  0  0
    5.4546   -5.6731    1.6769 H   0  0  0  0  0  0  0  0  0  0  0  0
    6.0352   -5.1868    3.3541 H   0  0  0  0  0  0  0  0  0  0  0  0
   -0.8807    0.5493   -2.8815 H   0  0  0  0  0  0  0  0  0  0  0  0
   -0.0272   -0.8685   -3.4830 H   0  0  0  0  0  0  0  0  0  0  0  0
   -3.4931    0.4712   -2.8662 H   0  0  0  0  0  0  0  0  0  0  0  0
   -5.4014   -0.6354   -3.8418 H   0  0  0  0  0  0  0  0  0  0  0  0
   -5.2077   -2.8151   -5.0202 H   0  0  0  0  0  0  0  0  0  0  0  0
   -2.9239   -3.9290   -5.1652 H   0  0  0  0  0  0  0  0  0  0  0  0
   -1.0209   -2.8028   -4.1794 H   0  0  0  0  0  0  0  0  0  0  0  0
   -5.9614   -0.8104    0.9842 H   0  0  0  0  0  0  0  0  0  0  0  0
   -5.5454   -1.3373   -0.6354 H   0  0  0  0  0  0  0  0  0  0  0  0
   -7.2710    0.8502   -0.8413 H   0  0  0  0  0  0  0  0  0  0  0  0
   -6.7859    3.2383   -1.5745 H   0  0  0  0  0  0  0  0  0  0  0  0
   -3.1282    1.6432   -0.2627 H   0  0  0  0  0  0  0  0  0  0  0  0
  1  2  1  0
  2  3  2  0
  2  4  1  0
  4  5  1  0
  5  6  1  0
  6  7  2  0
  6  8  1  0
  8  9  1  0
  9 10  1  0
 10 11  2  0
 10 12  1  0
 12 13  1  0
 13 14  1  0
 14 15  2  0
 14 16  1  0
 16 17  1  0
 17 18  1  0
 18 19  2  0
 18 20  1  0
 17 21  1  0
 13 22  1  0
 22 23  1  0
 23 24  1  0
 24 25  1  0
 25 26  2  3
 26 27  1  0
 26 28  1  0
  9 29  1  0
 29 30  1  0
 30 31  2  0
 31 32  1  0
 32 33  2  0
 33 34  1  0
 34 35  2  0
  5 36  1  0
 36 37  1  0
 37 38  1  0
 38 39  1  0
 39 40  2  0
 40 41  1  0
 35 30  1  0
 41 37  2  0
  1 42  1  0
  1 43  1  0
  1 44  1  0
  4 45  1  0
  5 46  1  1
  8 47  1  0
  9 48  1  6
 12 49  1  0
 13 50  1  1
 16 51  1  0
 17 52  1  0
 20 53  1  0
 20 54  1  0
 21 55  1  0
 21 56  1  0
 21 57  1  0
 22 58  1  0
 22 59  1  0
 23 60  1  0
 23 61  1  0
 24 62  1  0
 24 63  1  0
 27 64  1  0
 27 65  1  0
 28 66  1  0
 28 67  1  0
 29 68  1  0
 29 69  1  0
 31 70  1  0
 32 71  1  0
 33 72  1  0
 34 73  1  0
 35 74  1  0
 36 75  1  0
 36 76  1  0
 38 77  1  0
 39 78  1  0
 41 79  1  0
M  END
>  <Ligand ID>  (1) 
LIG0001470

>  <Ligand>  (1) 
Ac-His-D-Phe-Arg-Ala-NH2

>  <SMILES>  (1) 
CC(=O)N[C@H](C(=O)N[C@H](C(=O)N[C@H](C(=O)NC(C(=O)N)C)CCCN=C(N)N)Cc1ccccc1)Cc1[nH]cnc1

>  <CID>  (1) 
44369233.0

>  <ChEMBL ID>  (1) 
nan

>  <InChiKey>  (1) 
QSPZOBJUSPJZKO-IGYPZXGCSA-N

>  <InChi>  (1) 
InChI=1S/C26H38N10O5/c1-15(22(27)38)33-23(39)19(9-6-10-31-26(28)29)35-24(40)20(11-17-7-4-3-5-8-17)36-25(41)21(34-16(2)37)12-18-13-30-14-32-18/h3-5,7-8,13-15,19-21H,6,9-12H2,1-2H3,(H2,27,38)(H,30,32)(H,33,39)(H,34,37)(H,35,40)(H,36,41)(H4,28,29,31)/t15?,19-,20-,21-/m0/s1

>  <IUPAC Name>  (1) 
(2S)-2-[[(2S)-2-[[(2S)-2-acetamido-3-(1H-imidazol-5-yl)propanoyl]amino]-3-phenylpropanoyl]amino]-N-(1-amino-1-oxopropan-2-yl)-5-(diaminomethylideneamino)pentanamide

$$$$
