
     RDKit          3D

 68 71  0  0  0  0  0  0  0  0999 V2000
   10.5057   -3.0858   -1.1405 N   0  0  0  0  0  0  0  0  0  0  0  0
    9.5113   -2.0891   -0.9526 C   0  0  0  0  0  0  0  0  0  0  0  0
    9.8299   -0.7310   -1.1056 C   0  0  0  0  0  0  0  0  0  0  0  0
    8.7576    0.1392   -0.8960 C   0  0  0  0  0  0  0  0  0  0  0  0
    7.5252   -0.3141   -0.5734 C   0  0  0  0  0  0  0  0  0  0  0  0
    7.2323   -1.6841   -0.4249 C   0  0  0  0  0  0  0  0  0  0  0  0
    8.2804   -2.4990   -0.6321 N   0  0  0  0  0  0  0  0  0  0  0  0
    6.3200    0.5752   -0.3254 C   0  0  2  0  0  0  0  0  0  0  0  0
    5.9701    0.3827    1.1126 C   0  0  0  0  0  0  0  0  0  0  0  0
    4.9029    0.9723    1.7444 N   0  0  0  0  0  0  0  0  0  0  0  0
    3.5550    0.7741    1.5248 C   0  0  0  0  0  0  0  0  0  0  0  0
    2.8315    1.4235    0.3989 C   0  0  0  0  0  0  0  0  0  0  0  0
    1.4150    0.9182    0.3919 C   0  0  0  0  0  0  0  0  0  0  0  0
    1.2016   -0.1819   -0.4485 C   0  0  0  0  0  0  0  0  0  0  0  0
   -0.0487   -0.7445   -0.5188 C   0  0  0  0  0  0  0  0  0  0  0  0
   -1.0838   -0.2322    0.2312 C   0  0  0  0  0  0  0  0  0  0  0  0
   -0.8478    0.8476    1.0463 C   0  0  0  0  0  0  0  0  0  0  0  0
    0.4113    1.4565    1.1508 C   0  0  0  0  0  0  0  0  0  0  0  0
   -2.3752   -0.9023    0.1120 C   0  0  0  0  0  0  0  0  0  0  0  0
   -2.3511   -2.2533   -0.1301 C   0  0  0  0  0  0  0  0  0  0  0  0
   -3.5114   -2.9729   -0.2535 C   0  0  0  0  0  0  0  0  0  0  0  0
   -4.7538   -2.3678   -0.1394 C   0  0  0  0  0  0  0  0  0  0  0  0
   -4.8140   -0.9900    0.1085 C   0  0  0  0  0  0  0  0  0  0  0  0
   -3.5772   -0.2868    0.2284 C   0  0  0  0  0  0  0  0  0  0  0  0
   -5.9026   -0.3480    0.2292 O   0  0  0  0  0  0  0  0  0  0  0  0
   -7.0198    0.3106    0.3530 C   0  0  0  0  0  0  0  0  0  0  0  0
   -7.1644    1.1376    1.6327 C   0  0  0  0  0  0  0  0  0  0  0  0
   -6.6552    2.5297    1.5198 C   0  0  0  0  0  0  0  0  0  0  0  0
   -7.1512    3.2797    0.3200 C   0  0  0  0  0  0  0  0  0  0  0  0
   -6.6723    2.4863   -0.8910 C   0  0  0  0  0  0  0  0  0  0  0  0
   -7.3832    1.1807   -0.8599 C   0  0  0  0  0  0  0  0  0  0  0  0
   -5.9140   -3.2139   -0.2908 C   0  0  0  0  0  0  0  0  0  0  0  0
   -5.7486   -4.4662   -0.5180 O   0  0  0  0  0  0  0  0  0  0  0  0
   -7.2295   -2.8125   -0.2163 O   0  0  0  0  0  0  0  0  0  0  0  0
    5.2919    0.1006   -1.1509 O   0  0  0  0  0  0  0  0  0  0  0  0
   10.3173   -4.1014   -0.9992 H   0  0  0  0  0  0  0  0  0  0  0  0
   11.4995   -2.8618   -1.4335 H   0  0  0  0  0  0  0  0  0  0  0  0
   10.8117   -0.3926   -1.3628 H   0  0  0  0  0  0  0  0  0  0  0  0
    8.9202    1.2095   -0.9978 H   0  0  0  0  0  0  0  0  0  0  0  0
    6.2523   -2.0355   -0.1682 H   0  0  0  0  0  0  0  0  0  0  0  0
    6.6276    1.5987   -0.5126 H   0  0  0  0  0  0  0  0  0  0  0  0
    6.9127    0.6807    1.7169 H   0  0  0  0  0  0  0  0  0  0  0  0
    5.9587   -0.7446    1.3509 H   0  0  0  0  0  0  0  0  0  0  0  0
    5.1654    1.7626    2.3926 H   0  0  0  0  0  0  0  0  0  0  0  0
    3.3938   -0.3733    1.4529 H   0  0  0  0  0  0  0  0  0  0  0  0
    2.9568    1.0252    2.4729 H   0  0  0  0  0  0  0  0  0  0  0  0
    3.2165    1.2849   -0.5960 H   0  0  0  0  0  0  0  0  0  0  0  0
    2.7644    2.5242    0.6441 H   0  0  0  0  0  0  0  0  0  0  0  0
    2.0190   -0.5967   -1.0510 H   0  0  0  0  0  0  0  0  0  0  0  0
   -0.1614   -1.5892   -1.1902 H   0  0  0  0  0  0  0  0  0  0  0  0
   -1.6559    1.2530    1.6357 H   0  0  0  0  0  0  0  0  0  0  0  0
    0.5955    2.3014    1.7874 H   0  0  0  0  0  0  0  0  0  0  0  0
   -1.4277   -2.7774   -0.2235 H   0  0  0  0  0  0  0  0  0  0  0  0
   -3.4227   -4.0493   -0.4494 H   0  0  0  0  0  0  0  0  0  0  0  0
   -3.5931    0.7756    0.4164 H   0  0  0  0  0  0  0  0  0  0  0  0
   -7.9309   -0.3787    0.4102 H   0  0  0  0  0  0  0  0  0  0  0  0
   -6.4737    0.6181    2.3630 H   0  0  0  0  0  0  0  0  0  0  0  0
   -8.1720    1.0659    2.0769 H   0  0  0  0  0  0  0  0  0  0  0  0
   -5.5500    2.6015    1.5106 H   0  0  0  0  0  0  0  0  0  0  0  0
   -7.0015    3.0804    2.4268 H   0  0  0  0  0  0  0  0  0  0  0  0
   -6.6070    4.2472    0.2922 H   0  0  0  0  0  0  0  0  0  0  0  0
   -8.2322    3.3970    0.2613 H   0  0  0  0  0  0  0  0  0  0  0  0
   -7.0313    3.0359   -1.7805 H   0  0  0  0  0  0  0  0  0  0  0  0
   -5.5731    2.4213   -0.9440 H   0  0  0  0  0  0  0  0  0  0  0  0
   -7.0882    0.5926   -1.7536 H   0  0  0  0  0  0  0  0  0  0  0  0
   -8.4658    1.3774   -0.9079 H   0  0  0  0  0  0  0  0  0  0  0  0
   -7.9073   -3.4392    0.2338 H   0  0  0  0  0  0  0  0  0  0  0  0
    5.5443    0.1476   -2.0971 H   0  0  0  0  0  0  0  0  0  0  0  0
  1  2  1  0
  2  3  2  0
  3  4  1  0
  4  5  2  0
  5  6  1  0
  6  7  2  0
  5  8  1  0
  8  9  1  0
  9 10  1  0
 10 11  1  0
 11 12  1  0
 12 13  1  0
 13 14  2  0
 14 15  1  0
 15 16  2  0
 16 17  1  0
 17 18  2  0
 16 19  1  0
 19 20  2  0
 20 21  1  0
 21 22  2  0
 22 23  1  0
 23 24  2  0
 23 25  1  0
 25 26  1  0
 26 27  1  0
 27 28  1  0
 28 29  1  0
 29 30  1  0
 30 31  1  0
 22 32  1  0
 32 33  2  0
 32 34  1  0
  8 35  1  0
  7  2  1  0
 18 13  1  0
 24 19  1  0
 31 26  1  0
  1 36  1  0
  1 37  1  0
  3 38  1  0
  4 39  1  0
  6 40  1  0
  8 41  1  1
  9 42  1  0
  9 43  1  0
 10 44  1  0
 11 45  1  0
 11 46  1  0
 12 47  1  0
 12 48  1  0
 14 49  1  0
 15 50  1  0
 17 51  1  0
 18 52  1  0
 20 53  1  0
 21 54  1  0
 24 55  1  0
 26 56  1  0
 27 57  1  0
 27 58  1  0
 28 59  1  0
 28 60  1  0
 29 61  1  0
 29 62  1  0
 30 63  1  0
 30 64  1  0
 31 65  1  0
 31 66  1  0
 34 67  1  0
 35 68  1  0
M  END
>  <Ligand ID>  (1) 
LIG0003070

>  <Ligand>  (1) 
CHEMBL529659

>  <SMILES>  (1) 
Nc1ccc(cn1)[C@H](CNCCc1ccc(cc1)c1ccc(c(c1)OC1CCCCC1)C(=O)O)O

>  <CID>  (1) 
24895263.0

>  <ChEMBL ID>  (1) 
nan

>  <InChiKey>  (1) 
DJTFHPYTDCJUNI-VWLOTQADSA-N

>  <InChi>  (1) 
InChI=1S/C28H33N3O4/c29-27-13-11-22(17-31-27)25(32)18-30-15-14-19-6-8-20(9-7-19)21-10-12-24(28(33)34)26(16-21)35-23-4-2-1-3-5-23/h6-13,16-17,23,25,30,32H,1-5,14-15,18H2,(H2,29,31)(H,33,34)/t25-/m0/s1

>  <IUPAC Name>  (1) 
4-[4-[2-[[(2R)-2-(6-aminopyridin-3-yl)-2-hydroxyethyl]amino]ethyl]phenyl]-2-cyclohexyloxybenzoic acid

$$$$
