
     RDKit          3D

 83 91  0  0  0  0  0  0  0  0999 V2000
   -4.8076    7.6244   -0.4063 O   0  0  0  0  0  0  0  0  0  0  0  0
   -3.8243    6.6634   -0.6381 C   0  0  0  0  0  0  0  0  0  0  0  0
   -4.3467    5.3083   -0.1580 C   0  0  0  0  0  0  0  0  0  0  0  0
   -3.3604    4.3349   -0.3885 O   0  0  0  0  0  0  0  0  0  0  0  0
   -3.5039    3.0018   -0.0725 C   0  0  0  0  0  0  0  0  0  0  0  0
   -4.6628    2.4827    0.5165 C   0  0  0  0  0  0  0  0  0  0  0  0
   -4.7875    1.1226    0.8311 C   0  0  0  0  0  0  0  0  0  0  0  0
   -3.7209    0.2621    0.5445 C   0  0  0  0  0  0  0  0  0  0  0  0
   -2.6460    0.8432   -0.0261 C   0  0  0  0  0  0  0  0  0  0  0  0
   -2.4519    2.1398   -0.3519 C   0  0  0  0  0  0  0  0  0  0  0  0
   -1.1732    2.2256   -0.8935 O   0  0  0  0  0  0  0  0  0  0  0  0
   -0.4127    1.0766   -0.7027 C   0  0  2  0  0  0  0  0  0  0  0  0
   -1.4789    0.0227   -0.4514 C   0  0  2  0  0  0  0  0  0  0  0  0
   -1.7362   -0.6493   -1.7384 C   0  0  0  0  0  0  0  0  0  0  0  0
   -2.6338   -1.8175   -1.6222 C   0  0  0  0  0  0  0  0  0  0  0  0
   -2.4965   -2.6038   -0.4657 N   0  0  0  0  0  0  0  0  0  0  0  0
   -2.3736   -1.8672    0.7484 C   0  0  2  0  0  0  0  0  0  0  0  0
   -3.7026   -1.1639    0.9045 C   0  0  0  0  0  0  0  0  0  0  0  0
   -1.2360   -0.8804    0.7068 C   0  0  2  0  0  0  0  0  0  0  0  0
   -1.2003   -0.0437    1.9816 C   0  0  0  0  0  0  0  0  0  0  0  0
   -0.3907    1.2084    1.7565 C   0  0  0  0  0  0  0  0  0  0  0  0
    0.4772    1.0577    0.5600 C   0  0  2  0  0  0  0  0  0  0  0  0
    1.3878    2.0441    0.3903 O   0  0  0  0  0  0  0  0  0  0  0  0
    2.1634    2.4954    1.3864 C   0  0  0  0  0  0  0  0  0  0  0  0
    1.1367   -0.3153    0.4436 C   0  0  2  0  0  0  0  0  0  0  0  0
    0.1298   -1.4550    0.5971 C   0  0  0  0  0  0  0  0  0  0  0  0
    2.3431   -0.5405    1.2743 C   0  0  0  0  0  0  0  0  0  0  0  0
    2.8506   -1.8622    1.1082 O   0  0  0  0  0  0  0  0  0  0  0  0
    3.3020   -2.1205   -0.1585 C   0  0  0  0  0  0  0  0  0  0  0  0
    4.4327   -1.2687   -0.5729 C   0  0  0  0  0  0  0  0  0  0  0  0
    5.7638   -1.4504   -0.4300 C   0  0  0  0  0  0  0  0  0  0  0  0
    6.6071   -0.5167   -0.9036 C   0  0  0  0  0  0  0  0  0  0  0  0
    6.0748    0.5805   -1.5119 C   0  0  0  0  0  0  0  0  0  0  0  0
    4.2832    0.3305   -1.4383 S   0  0  0  0  0  0  0  0  0  0  0  0
    6.7771    1.6261   -2.0507 C   0  0  0  0  0  0  0  0  0  0  0  0
    8.1682    1.6178   -1.9991 C   0  0  0  0  0  0  0  0  0  0  0  0
    8.7367    0.5216   -1.3901 C   0  0  0  0  0  0  0  0  0  0  0  0
    8.0218   -0.5232   -0.8523 C   0  0  0  0  0  0  0  0  0  0  0  0
   -1.9677   -3.8651   -0.6421 C   0  0  0  0  0  0  0  0  0  0  0  0
   -1.7687   -4.7618    0.5223 C   0  0  0  0  0  0  0  0  0  0  0  0
   -1.1684   -6.1382    0.1426 C   0  0  0  0  0  0  0  0  0  0  0  0
   -2.6006   -6.0590    0.5452 C   0  0  0  0  0  0  0  0  0  0  0  0
   -4.7084    7.9757    0.5299 H   0  0  0  0  0  0  0  0  0  0  0  0
   -3.6361    6.6446   -1.7270 H   0  0  0  0  0  0  0  0  0  0  0  0
   -2.8989    6.9054   -0.1144 H   0  0  0  0  0  0  0  0  0  0  0  0
   -4.5836    5.4195    0.9309 H   0  0  0  0  0  0  0  0  0  0  0  0
   -5.3100    5.0732   -0.6538 H   0  0  0  0  0  0  0  0  0  0  0  0
   -5.4856    3.1675    0.7319 H   0  0  0  0  0  0  0  0  0  0  0  0
   -5.6742    0.7159    1.2856 H   0  0  0  0  0  0  0  0  0  0  0  0
    0.2136    0.8320   -1.5726 H   0  0  0  0  0  0  0  0  0  0  0  0
   -2.2724    0.0903   -2.4184 H   0  0  0  0  0  0  0  0  0  0  0  0
   -0.8025   -0.8647   -2.3225 H   0  0  0  0  0  0  0  0  0  0  0  0
   -3.7056   -1.4756   -1.6804 H   0  0  0  0  0  0  0  0  0  0  0  0
   -2.4530   -2.4900   -2.5129 H   0  0  0  0  0  0  0  0  0  0  0  0
   -2.2390   -2.5065    1.6125 H   0  0  0  0  0  0  0  0  0  0  0  0
   -4.1366   -1.3444    1.9221 H   0  0  0  0  0  0  0  0  0  0  0  0
   -4.4736   -1.6445    0.2288 H   0  0  0  0  0  0  0  0  0  0  0  0
   -0.6342   -0.6677    2.7365 H   0  0  0  0  0  0  0  0  0  0  0  0
   -2.1673    0.1778    2.4129 H   0  0  0  0  0  0  0  0  0  0  0  0
   -1.0981    2.0437    1.5940 H   0  0  0  0  0  0  0  0  0  0  0  0
    0.2062    1.4634    2.6795 H   0  0  0  0  0  0  0  0  0  0  0  0
    2.8442    1.8831    1.9433 H   0  0  0  0  0  0  0  0  0  0  0  0
    2.8363    3.2982    0.9125 H   0  0  0  0  0  0  0  0  0  0  0  0
    1.6003    3.1240    2.1431 H   0  0  0  0  0  0  0  0  0  0  0  0
    1.5141   -0.3144   -0.6355 H   0  0  0  0  0  0  0  0  0  0  0  0
    0.3413   -1.9574    1.5876 H   0  0  0  0  0  0  0  0  0  0  0  0
    0.2842   -2.1400   -0.2292 H   0  0  0  0  0  0  0  0  0  0  0  0
    2.2425   -0.3539    2.3338 H   0  0  0  0  0  0  0  0  0  0  0  0
    3.2195    0.0551    0.8597 H   0  0  0  0  0  0  0  0  0  0  0  0
    3.6728   -3.1717   -0.2482 H   0  0  0  0  0  0  0  0  0  0  0  0
    2.5314   -2.0240   -0.9493 H   0  0  0  0  0  0  0  0  0  0  0  0
    6.1264   -2.3835    0.0843 H   0  0  0  0  0  0  0  0  0  0  0  0
    6.2532    2.4332   -2.5026 H   0  0  0  0  0  0  0  0  0  0  0  0
    8.7098    2.4278   -2.4165 H   0  0  0  0  0  0  0  0  0  0  0  0
    9.8170    0.5004   -1.3422 H   0  0  0  0  0  0  0  0  0  0  0  0
    8.5746   -1.3176   -0.4063 H   0  0  0  0  0  0  0  0  0  0  0  0
   -1.0141   -3.8378   -1.2608 H   0  0  0  0  0  0  0  0  0  0  0  0
   -2.6590   -4.4151   -1.3631 H   0  0  0  0  0  0  0  0  0  0  0  0
   -1.5402   -4.3985    1.5419 H   0  0  0  0  0  0  0  0  0  0  0  0
   -0.4405   -6.5928    0.8205 H   0  0  0  0  0  0  0  0  0  0  0  0
   -0.9922   -6.3498   -0.9114 H   0  0  0  0  0  0  0  0  0  0  0  0
   -2.8581   -6.5234    1.4964 H   0  0  0  0  0  0  0  0  0  0  0  0
   -3.4083   -6.1454   -0.2158 H   0  0  0  0  0  0  0  0  0  0  0  0
  1  2  1  0
  2  3  1  0
  3  4  1  0
  4  5  1  0
  5  6  2  0
  6  7  1  0
  7  8  2  0
  8  9  1  0
  9 10  2  0
 10 11  1  0
 11 12  1  0
 12 13  1  0
 13 14  1  6
 14 15  1  0
 15 16  1  0
 16 17  1  0
 17 18  1  0
 17 19  1  0
 19 20  1  1
 20 21  1  0
 21 22  1  0
 22 23  1  6
 23 24  1  0
 22 25  1  0
 25 26  1  0
 25 27  1  0
 27 28  1  0
 28 29  1  0
 29 30  1  0
 30 31  2  0
 31 32  1  0
 32 33  2  0
 33 34  1  0
 33 35  1  0
 35 36  2  0
 36 37  1  0
 37 38  2  0
 16 39  1  0
 39 40  1  0
 40 41  1  0
 41 42  1  0
 10  5  1  0
 22 12  1  0
 34 30  1  0
 42 40  1  0
 18  8  1  0
 26 19  1  0
 38 32  1  0
 13  9  1  0
 19 13  1  0
  1 43  1  0
  2 44  1  0
  2 45  1  0
  3 46  1  0
  3 47  1  0
  6 48  1  0
  7 49  1  0
 12 50  1  6
 14 51  1  0
 14 52  1  0
 15 53  1  0
 15 54  1  0
 17 55  1  1
 18 56  1  0
 18 57  1  0
 20 58  1  0
 20 59  1  0
 21 60  1  0
 21 61  1  0
 24 62  1  0
 24 63  1  0
 24 64  1  0
 25 65  1  6
 26 66  1  0
 26 67  1  0
 27 68  1  0
 27 69  1  0
 29 70  1  0
 29 71  1  0
 31 72  1  0
 35 73  1  0
 36 74  1  0
 37 75  1  0
 38 76  1  0
 39 77  1  0
 39 78  1  0
 40 79  1  0
 41 80  1  0
 41 81  1  0
 42 82  1  0
 42 83  1  0
M  END
>  <Ligand ID>  (1) 
LIG0004698

>  <Ligand>  (1) 
SCHEMBL15486214

>  <SMILES>  (1) 
OCCOc1ccc2c3c1O[C@@H]1[C@@]43CCN([C@H](C2)[C@@]24CC[C@@]1(OC)[C@H](C2)COCc1cc2c(s1)cccc2)CC1CC1

>  <CID>  (1) 
89978858.0

>  <ChEMBL ID>  (1) 
nan

>  <InChiKey>  (1) 
CLVRCDVMIOGLTN-NNSRDABESA-N

>  <InChi>  (1) 
InChI=1S/C35H41NO5S/c1-38-35-11-10-33(18-25(35)20-39-21-26-16-23-4-2-3-5-28(23)42-26)29-17-24-8-9-27(40-15-14-37)31-30(24)34(33,32(35)41-31)12-13-36(29)19-22-6-7-22/h2-5,8-9,16,22,25,29,32,37H,6-7,10-15,17-21H2,1H3/t25-,29-,32-,33-,34+,35-/m1/s1

>  <IUPAC Name>  (1) 
2-[[(1S,2S,6R,14R,15R,16R)-16-(1-benzothiophen-2-ylmethoxymethyl)-5-(cyclopropylmethyl)-15-methoxy-13-oxa-5-azahexacyclo[13.2.2.12,8.01,6.02,14.012,20]icosa-8(20),9,11-trien-11-yl]oxy]ethanol

$$$$
