
     RDKit          3D

 73 74  0  0  0  0  0  0  0  0999 V2000
   -7.4218    2.0358    2.5868 O   0  0  0  0  0  0  0  0  0  0  0  0
   -7.9858    0.8021    2.9170 C   0  0  0  0  0  0  0  0  0  0  0  0
   -7.6901   -0.2482    1.8996 C   0  0  0  0  0  0  0  0  0  0  0  0
   -6.9115    0.0271    0.7735 C   0  0  0  0  0  0  0  0  0  0  0  0
   -6.6873   -0.9987   -0.1143 C   0  0  0  0  0  0  0  0  0  0  0  0
   -7.2127   -2.2521    0.0995 C   0  0  0  0  0  0  0  0  0  0  0  0
   -7.9906   -2.5367    1.2197 C   0  0  0  0  0  0  0  0  0  0  0  0
   -8.2207   -1.5196    2.1139 C   0  0  0  0  0  0  0  0  0  0  0  0
   -9.0020   -1.8030    3.2420 O   0  0  0  0  0  0  0  0  0  0  0  0
   -5.8598   -0.8219   -1.3600 C   0  0  2  0  0  0  0  0  0  0  0  0
   -5.6496    0.6303   -1.6309 C   0  0  0  0  0  0  0  0  0  0  0  0
   -5.0094    0.8918   -2.8833 N   0  0  0  0  0  0  0  0  0  0  0  0
   -3.6496    0.4818   -2.9978 C   0  0  0  0  0  0  0  0  0  0  0  0
   -2.6761    1.2410   -2.1384 C   0  0  0  0  0  0  0  0  0  0  0  0
   -1.2810    0.6956   -2.4012 C   0  0  0  0  0  0  0  0  0  0  0  0
   -0.2898    1.4316   -1.5400 C   0  0  0  0  0  0  0  0  0  0  0  0
    1.1095    0.9174   -1.7988 C   0  0  0  0  0  0  0  0  0  0  0  0
    2.0774    1.6716   -0.9037 C   0  0  0  0  0  0  0  0  0  0  0  0
    1.8504    1.5285    0.4064 O   0  0  0  0  0  0  0  0  0  0  0  0
    1.8240    0.3925    1.0737 C   0  0  0  0  0  0  0  0  0  0  0  0
    2.9800   -0.5218    1.2574 C   0  0  0  0  0  0  0  0  0  0  0  0
    4.0772   -0.0259    1.8815 O   0  0  0  0  0  0  0  0  0  0  0  0
    4.9315    0.8027    1.2371 C   0  0  0  0  0  0  0  0  0  0  0  0
    5.8119    0.1204    0.2602 C   0  0  0  0  0  0  0  0  0  0  0  0
    5.5346   -0.2257   -1.0155 C   0  0  0  0  0  0  0  0  0  0  0  0
    6.4787   -0.8471   -1.8446 C   0  0  0  0  0  0  0  0  0  0  0  0
    7.7234   -1.1229   -1.3725 C   0  0  0  0  0  0  0  0  0  0  0  0
    8.0485   -0.7817   -0.0583 C   0  0  0  0  0  0  0  0  0  0  0  0
    7.1047   -0.1764    0.7231 C   0  0  0  0  0  0  0  0  0  0  0  0
    9.3644   -1.1064    0.3581 N   0  0  0  0  0  0  0  0  0  0  0  0
    9.7762   -1.8759    1.8177 S   0  0  0  0  0  0  0  0  0  0  0  0
   11.2839   -2.0572    1.8671 O   0  0  0  0  0  0  0  0  0  0  0  0
    9.1869   -3.2754    1.9071 O   0  0  0  0  0  0  0  0  0  0  0  0
    9.3132   -0.9563    3.2527 C   0  0  0  0  0  0  0  0  0  0  0  0
   -6.6537   -1.3819   -2.3890 O   0  0  0  0  0  0  0  0  0  0  0  0
   -6.4701    2.0045    2.8140 H   0  0  0  0  0  0  0  0  0  0  0  0
   -7.5348    0.4953    3.8694 H   0  0  0  0  0  0  0  0  0  0  0  0
   -9.0809    0.9152    3.0790 H   0  0  0  0  0  0  0  0  0  0  0  0
   -6.5177    1.0132    0.6321 H   0  0  0  0  0  0  0  0  0  0  0  0
   -7.0574   -3.0797   -0.5760 H   0  0  0  0  0  0  0  0  0  0  0  0
   -8.4139   -3.5058    1.4130 H   0  0  0  0  0  0  0  0  0  0  0  0
   -9.9071   -2.2484    3.0432 H   0  0  0  0  0  0  0  0  0  0  0  0
   -4.8882   -1.3354   -1.2639 H   0  0  0  0  0  0  0  0  0  0  0  0
   -5.0984    1.0925   -0.7724 H   0  0  0  0  0  0  0  0  0  0  0  0
   -6.6546    1.1235   -1.6726 H   0  0  0  0  0  0  0  0  0  0  0  0
   -5.1619    1.8703   -3.1561 H   0  0  0  0  0  0  0  0  0  0  0  0
   -3.3601    0.5947   -4.0729 H   0  0  0  0  0  0  0  0  0  0  0  0
   -3.5648   -0.6046   -2.7676 H   0  0  0  0  0  0  0  0  0  0  0  0
   -2.9232    1.1033   -1.0853 H   0  0  0  0  0  0  0  0  0  0  0  0
   -2.6526    2.3120   -2.3546 H   0  0  0  0  0  0  0  0  0  0  0  0
   -1.0541    0.7541   -3.4838 H   0  0  0  0  0  0  0  0  0  0  0  0
   -1.2612   -0.3670   -2.0738 H   0  0  0  0  0  0  0  0  0  0  0  0
   -0.5743    1.2680   -0.4996 H   0  0  0  0  0  0  0  0  0  0  0  0
   -0.3352    2.5179   -1.7411 H   0  0  0  0  0  0  0  0  0  0  0  0
    1.2122   -0.1530   -1.6459 H   0  0  0  0  0  0  0  0  0  0  0  0
    1.3998    1.1542   -2.8434 H   0  0  0  0  0  0  0  0  0  0  0  0
    1.8680    2.7930   -1.1210 H   0  0  0  0  0  0  0  0  0  0  0  0
    3.1094    1.5700   -1.2295 H   0  0  0  0  0  0  0  0  0  0  0  0
    0.9420   -0.2826    0.7992 H   0  0  0  0  0  0  0  0  0  0  0  0
    1.5087    0.6642    2.1555 H   0  0  0  0  0  0  0  0  0  0  0  0
    2.6005   -1.3644    1.9156 H   0  0  0  0  0  0  0  0  0  0  0  0
    3.2264   -1.0701    0.3000 H   0  0  0  0  0  0  0  0  0  0  0  0
    5.5594    1.2948    2.0410 H   0  0  0  0  0  0  0  0  0  0  0  0
    4.4544    1.6708    0.7336 H   0  0  0  0  0  0  0  0  0  0  0  0
    4.5862   -0.0558   -1.4352 H   0  0  0  0  0  0  0  0  0  0  0  0
    6.2139   -1.1074   -2.8600 H   0  0  0  0  0  0  0  0  0  0  0  0
    8.4656   -1.6074   -2.0125 H   0  0  0  0  0  0  0  0  0  0  0  0
    7.3818    0.0763    1.7343 H   0  0  0  0  0  0  0  0  0  0  0  0
   10.1312   -0.8270   -0.3296 H   0  0  0  0  0  0  0  0  0  0  0  0
    9.3223    0.1346    3.0996 H   0  0  0  0  0  0  0  0  0  0  0  0
   10.0319   -1.1344    4.0996 H   0  0  0  0  0  0  0  0  0  0  0  0
    8.3178   -1.2963    3.6169 H   0  0  0  0  0  0  0  0  0  0  0  0
   -6.1057   -2.0874   -2.7952 H   0  0  0  0  0  0  0  0  0  0  0  0
  1  2  1  0
  2  3  1  0
  3  4  2  0
  4  5  1  0
  5  6  2  0
  6  7  1  0
  7  8  2  0
  8  9  1  0
  5 10  1  0
 10 11  1  0
 11 12  1  0
 12 13  1  0
 13 14  1  0
 14 15  1  0
 15 16  1  0
 16 17  1  0
 17 18  1  0
 18 19  1  0
 19 20  1  0
 20 21  1  0
 21 22  1  0
 22 23  1  0
 23 24  1  0
 24 25  2  0
 25 26  1  0
 26 27  2  0
 27 28  1  0
 28 29  2  0
 28 30  1  0
 30 31  1  0
 31 32  2  0
 31 33  2  0
 31 34  1  0
 10 35  1  0
  8  3  1  0
 29 24  1  0
  1 36  1  0
  2 37  1  0
  2 38  1  0
  4 39  1  0
  6 40  1  0
  7 41  1  0
  9 42  1  0
 10 43  1  1
 11 44  1  0
 11 45  1  0
 12 46  1  0
 13 47  1  0
 13 48  1  0
 14 49  1  0
 14 50  1  0
 15 51  1  0
 15 52  1  0
 16 53  1  0
 16 54  1  0
 17 55  1  0
 17 56  1  0
 18 57  1  0
 18 58  1  0
 20 59  1  0
 20 60  1  0
 21 61  1  0
 21 62  1  0
 23 63  1  0
 23 64  1  0
 25 65  1  0
 26 66  1  0
 27 67  1  0
 29 68  1  0
 30 69  1  0
 34 70  1  0
 34 71  1  0
 34 72  1  0
 35 73  1  0
M  END
>  <Ligand ID>  (1) 
LIG0004954

>  <Ligand>  (1) 
CHEMBL1085399

>  <SMILES>  (1) 
OCc1cc(ccc1O)[C@H](CNCCCCCCOCCOCc1cccc(c1)NS(=O)(=O)C)O

>  <CID>  (1) 
46832509.0

>  <ChEMBL ID>  (1) 
nan

>  <InChiKey>  (1) 
VNMPYMOGIPEHPS-VWLOTQADSA-N

>  <InChi>  (1) 
InChI=1S/C25H38N2O7S/c1-35(31,32)27-23-8-6-7-20(15-23)19-34-14-13-33-12-5-3-2-4-11-26-17-25(30)21-9-10-24(29)22(16-21)18-28/h6-10,15-16,25-30H,2-5,11-14,17-19H2,1H3/t25-/m0/s1

>  <IUPAC Name>  (1) 
N-[3-[2-[6-[[(2R)-2-hydroxy-2-[4-hydroxy-3-(hydroxymethyl)phenyl]ethyl]amino]hexoxy]ethoxymethyl]phenyl]methanesulfonamide

$$$$
