
     RDKit          3D

 43 46  0  0  0  0  0  0  0  0999 V2000
    3.7142    2.4157   -0.5031 Cl  0  0  0  0  0  0  0  0  0  0  0  0
    3.8106    1.3060    0.8244 C   0  0  0  0  0  0  0  0  0  0  0  0
    4.5791    1.7114    1.9241 C   0  0  0  0  0  0  0  0  0  0  0  0
    4.7162    0.9036    3.0223 C   0  0  0  0  0  0  0  0  0  0  0  0
    4.0776   -0.3104    3.0075 C   0  0  0  0  0  0  0  0  0  0  0  0
    3.3273   -0.7061    1.9339 C   0  0  0  0  0  0  0  0  0  0  0  0
    3.1635    0.0960    0.7886 C   0  0  0  0  0  0  0  0  0  0  0  0
    2.4005   -0.4099   -0.1970 O   0  0  0  0  0  0  0  0  0  0  0  0
    1.9720   -0.0317   -1.4294 C   0  0  1  0  0  0  0  0  0  0  0  0
    2.4126   -1.0930   -2.4441 C   0  0  0  0  0  0  0  0  0  0  0  0
    1.4015   -0.9993   -3.5678 C   0  0  0  0  0  0  0  0  0  0  0  0
    0.1676   -0.6897   -2.8039 C   0  0  0  0  0  0  0  0  0  0  0  0
    0.4640   -0.1363   -1.5791 C   0  0  0  0  0  0  0  0  0  0  0  0
   -0.5225    0.2274   -0.7077 N   0  0  0  0  0  0  0  0  0  0  0  0
   -1.8184    0.0670   -0.9946 C   0  0  0  0  0  0  0  0  0  0  0  0
   -2.1390   -0.4846   -2.2138 C   0  0  0  0  0  0  0  0  0  0  0  0
   -1.1634   -0.8655   -3.1231 C   0  0  0  0  0  0  0  0  0  0  0  0
   -2.7677    0.4739   -0.0274 N   0  0  0  0  0  0  0  0  0  0  0  0
   -2.2758    1.0321    1.2173 C   0  0  0  0  0  0  0  0  0  0  0  0
   -2.9227    0.2046    2.3250 C   0  0  0  0  0  0  0  0  0  0  0  0
   -4.3468    0.1860    2.1685 N   0  0  0  0  0  0  0  0  0  0  0  0
   -4.7650   -0.4762    0.9383 C   0  0  0  0  0  0  0  0  0  0  0  0
   -4.2000    0.3743   -0.1873 C   0  0  0  0  0  0  0  0  0  0  0  0
    5.0823    2.6832    1.9200 H   0  0  0  0  0  0  0  0  0  0  0  0
    5.3190    1.2637    3.8417 H   0  0  0  0  0  0  0  0  0  0  0  0
    4.1727   -0.9760    3.8773 H   0  0  0  0  0  0  0  0  0  0  0  0
    2.8439   -1.6868    1.9859 H   0  0  0  0  0  0  0  0  0  0  0  0
    2.2809    0.9437   -1.8207 H   0  0  0  0  0  0  0  0  0  0  0  0
    3.4076   -0.8196   -2.8883 H   0  0  0  0  0  0  0  0  0  0  0  0
    2.3770   -2.1081   -2.0429 H   0  0  0  0  0  0  0  0  0  0  0  0
    1.6397   -0.1917   -4.2887 H   0  0  0  0  0  0  0  0  0  0  0  0
    1.3467   -2.0004   -4.0567 H   0  0  0  0  0  0  0  0  0  0  0  0
   -3.1595   -0.6321   -2.4867 H   0  0  0  0  0  0  0  0  0  0  0  0
   -1.3994   -1.2982   -4.0807 H   0  0  0  0  0  0  0  0  0  0  0  0
   -1.1914    1.0037    1.3052 H   0  0  0  0  0  0  0  0  0  0  0  0
   -2.7057    2.0448    1.2968 H   0  0  0  0  0  0  0  0  0  0  0  0
   -2.5188   -0.8458    2.2933 H   0  0  0  0  0  0  0  0  0  0  0  0
   -2.6877    0.6940    3.2742 H   0  0  0  0  0  0  0  0  0  0  0  0
   -4.7573   -0.3674    2.9530 H   0  0  0  0  0  0  0  0  0  0  0  0
   -4.3557   -1.4893    0.8507 H   0  0  0  0  0  0  0  0  0  0  0  0
   -5.8543   -0.4935    0.8905 H   0  0  0  0  0  0  0  0  0  0  0  0
   -4.5320    0.0655   -1.1751 H   0  0  0  0  0  0  0  0  0  0  0  0
   -4.5933    1.4147   -0.0201 H   0  0  0  0  0  0  0  0  0  0  0  0
  1  2  1  0
  2  3  2  0
  3  4  1  0
  4  5  2  0
  5  6  1  0
  6  7  2  0
  7  8  1  0
  8  9  1  0
  9 10  1  0
 10 11  1  0
 11 12  1  0
 12 13  2  0
 13 14  1  0
 14 15  2  0
 15 16  1  0
 16 17  2  0
 15 18  1  0
 18 19  1  0
 19 20  1  0
 20 21  1  0
 21 22  1  0
 22 23  1  0
  7  2  1  0
 13  9  1  0
 23 18  1  0
 17 12  1  0
  3 24  1  0
  4 25  1  0
  5 26  1  0
  6 27  1  0
  9 28  1  6
 10 29  1  0
 10 30  1  0
 11 31  1  0
 11 32  1  0
 16 33  1  0
 17 34  1  0
 19 35  1  0
 19 36  1  0
 20 37  1  0
 20 38  1  0
 21 39  1  0
 22 40  1  0
 22 41  1  0
 23 42  1  0
 23 43  1  0
M  END
>  <Ligand ID>  (1) 
LIG0002986

>  <Ligand>  (1) 
CHEMBL609306

>  <SMILES>  (1) 
Clc1ccccc1O[C@H]1CCc2c1nc(cc2)N1CCNCC1

>  <CID>  (1) 
11949712.0

>  <ChEMBL ID>  (1) 
nan

>  <InChiKey>  (1) 
HUUPVTVQRVHGPI-INIZCTEOSA-N

>  <InChi>  (1) 
InChI=1S/C18H20ClN3O/c19-14-3-1-2-4-15(14)23-16-7-5-13-6-8-17(21-18(13)16)22-11-9-20-10-12-22/h1-4,6,8,16,20H,5,7,9-12H2/t16-/m0/s1

>  <IUPAC Name>  (1) 
(7S)-7-(2-chlorophenoxy)-2-piperazin-1-yl-6,7-dihydro-5H-cyclopenta[b]pyridine

$$$$
