
     RDKit          3D

 60 63  0  0  0  0  0  0  0  0999 V2000
    6.4480    0.2754    1.3000 C   0  0  0  0  0  0  0  0  0  0  0  0
    6.0089   -0.4453    0.0682 C   0  0  0  0  0  0  0  0  0  0  0  0
    4.5434   -0.2624   -0.2463 C   0  0  0  0  0  0  0  0  0  0  0  0
    4.1698    1.1808   -0.4673 C   0  0  0  0  0  0  0  0  0  0  0  0
    2.6960    1.3359   -0.1422 C   0  0  0  0  0  0  0  0  0  0  0  0
    1.8973    0.1319   -0.5693 C   0  0  0  0  0  0  0  0  0  0  0  0
    2.2976   -1.1156    0.1674 C   0  0  0  0  0  0  0  0  0  0  0  0
    3.6500   -0.8199    0.8207 C   0  0  0  0  0  0  0  0  0  0  0  0
    0.5030    0.4174   -0.5665 N   0  0  0  0  0  0  0  0  0  0  0  0
   -0.3229   -0.7019   -0.9701 C   0  0  0  0  0  0  0  0  0  0  0  0
   -1.6117   -0.0963   -1.5341 C   0  0  0  0  0  0  0  0  0  0  0  0
   -2.1694    0.7640   -0.4709 C   0  0  0  0  0  0  0  0  0  0  0  0
   -1.4332    0.7353    0.8502 C   0  0  0  0  0  0  0  0  0  0  0  0
    0.0066    1.1753    0.5291 C   0  0  0  0  0  0  0  0  0  0  0  0
   -3.6006    0.8726   -0.3672 N   0  0  0  0  0  0  0  0  0  0  0  0
   -4.3147    2.0947   -0.6247 C   0  0  0  0  0  0  0  0  0  0  0  0
   -3.7569    2.9432   -1.3867 O   0  0  0  0  0  0  0  0  0  0  0  0
   -5.6623    2.3537   -0.0170 C   0  0  0  0  0  0  0  0  0  0  0  0
   -6.5155    1.1408   -0.1787 C   0  0  0  0  0  0  0  0  0  0  0  0
   -5.8132   -0.1192    0.0865 C   0  0  0  0  0  0  0  0  0  0  0  0
   -4.4406   -0.2425   -0.0019 C   0  0  0  0  0  0  0  0  0  0  0  0
   -3.8965   -1.4641    0.2645 C   0  0  0  0  0  0  0  0  0  0  0  0
   -4.6617   -2.5577    0.6130 C   0  0  0  0  0  0  0  0  0  0  0  0
   -6.0334   -2.4478    0.7050 C   0  0  0  0  0  0  0  0  0  0  0  0
   -6.6010   -1.2199    0.4387 C   0  0  0  0  0  0  0  0  0  0  0  0
    6.3662   -1.8945    0.0234 C   0  0  0  0  0  0  0  0  0  0  0  0
    7.3042   -0.2490    1.7535 H   0  0  0  0  0  0  0  0  0  0  0  0
    5.6419    0.4447    2.0468 H   0  0  0  0  0  0  0  0  0  0  0  0
    6.8340    1.3050    1.0508 H   0  0  0  0  0  0  0  0  0  0  0  0
    6.5494    0.0349   -0.7995 H   0  0  0  0  0  0  0  0  0  0  0  0
    4.3553   -0.8020   -1.1873 H   0  0  0  0  0  0  0  0  0  0  0  0
    4.7156    1.7519    0.3342 H   0  0  0  0  0  0  0  0  0  0  0  0
    4.4669    1.5968   -1.4293 H   0  0  0  0  0  0  0  0  0  0  0  0
    2.3386    2.1877   -0.7881 H   0  0  0  0  0  0  0  0  0  0  0  0
    2.5301    1.6371    0.9019 H   0  0  0  0  0  0  0  0  0  0  0  0
    2.1775   -0.0401   -1.6481 H   0  0  0  0  0  0  0  0  0  0  0  0
    1.5585   -1.4620    0.9068 H   0  0  0  0  0  0  0  0  0  0  0  0
    2.4819   -1.9683   -0.5207 H   0  0  0  0  0  0  0  0  0  0  0  0
    3.4815   -0.0304    1.5915 H   0  0  0  0  0  0  0  0  0  0  0  0
    4.0552   -1.7051    1.3493 H   0  0  0  0  0  0  0  0  0  0  0  0
    0.2010   -1.1775   -1.8309 H   0  0  0  0  0  0  0  0  0  0  0  0
   -0.4907   -1.4514   -0.2007 H   0  0  0  0  0  0  0  0  0  0  0  0
   -2.2771   -0.8448   -1.9934 H   0  0  0  0  0  0  0  0  0  0  0  0
   -1.2242    0.4574   -2.4450 H   0  0  0  0  0  0  0  0  0  0  0  0
   -1.8875    1.8206   -0.7982 H   0  0  0  0  0  0  0  0  0  0  0  0
   -1.3126   -0.2153    1.3366 H   0  0  0  0  0  0  0  0  0  0  0  0
   -1.8964    1.4942    1.4995 H   0  0  0  0  0  0  0  0  0  0  0  0
   -0.0548    2.2519    0.2437 H   0  0  0  0  0  0  0  0  0  0  0  0
    0.6300    1.1342    1.4452 H   0  0  0  0  0  0  0  0  0  0  0  0
   -6.1123    3.1968   -0.5623 H   0  0  0  0  0  0  0  0  0  0  0  0
   -5.5118    2.5871    1.0549 H   0  0  0  0  0  0  0  0  0  0  0  0
   -7.3865    1.2718    0.5228 H   0  0  0  0  0  0  0  0  0  0  0  0
   -6.9699    1.1266   -1.1921 H   0  0  0  0  0  0  0  0  0  0  0  0
   -2.8487   -1.5908    0.2009 H   0  0  0  0  0  0  0  0  0  0  0  0
   -4.2158   -3.5247    0.8228 H   0  0  0  0  0  0  0  0  0  0  0  0
   -6.6644   -3.2649    0.9706 H   0  0  0  0  0  0  0  0  0  0  0  0
   -7.6922   -1.1094    0.5059 H   0  0  0  0  0  0  0  0  0  0  0  0
    7.2090   -2.0969    0.7221 H   0  0  0  0  0  0  0  0  0  0  0  0
    6.7189   -2.2089   -0.9880 H   0  0  0  0  0  0  0  0  0  0  0  0
    5.5426   -2.5915    0.2706 H   0  0  0  0  0  0  0  0  0  0  0  0
  1  2  1  0
  2  3  1  0
  3  4  1  0
  4  5  1  0
  5  6  1  0
  6  7  1  0
  7  8  1  0
  6  9  1  0
  9 10  1  0
 10 11  1  0
 11 12  1  0
 12 13  1  0
 13 14  1  0
 12 15  1  0
 15 16  1  0
 16 17  2  0
 16 18  1  0
 18 19  1  0
 19 20  1  0
 20 21  2  0
 21 22  1  0
 22 23  2  0
 23 24  1  0
 24 25  2  0
  2 26  1  0
  8  3  1  0
 14  9  1  0
 21 15  1  0
 25 20  1  0
  1 27  1  0
  1 28  1  0
  1 29  1  0
  2 30  1  0
  3 31  1  0
  4 32  1  0
  4 33  1  0
  5 34  1  0
  5 35  1  0
  6 36  1  0
  7 37  1  0
  7 38  1  0
  8 39  1  0
  8 40  1  0
 10 41  1  0
 10 42  1  0
 11 43  1  0
 11 44  1  0
 12 45  1  0
 13 46  1  0
 13 47  1  0
 14 48  1  0
 14 49  1  0
 18 50  1  0
 18 51  1  0
 19 52  1  0
 19 53  1  0
 22 54  1  0
 23 55  1  0
 24 56  1  0
 25 57  1  0
 26 58  1  0
 26 59  1  0
 26 60  1  0
M  END
>  <Ligand ID>  (1) 
LIG0003463

>  <Ligand>  (1) 
CHEMBL2387198

>  <SMILES>  (1) 
CC(C1CCC(CC1)N1CCC(CC1)N1C(=O)CCc2c1cccc2)C

>  <CID>  (1) 
22562137.0

>  <ChEMBL ID>  (1) 
nan

>  <InChiKey>  (1) 
BEWDVGPOPIFWLH-UHFFFAOYSA-N

>  <InChi>  (1) 
InChI=1S/C23H34N2O/c1-17(2)18-7-10-20(11-8-18)24-15-13-21(14-16-24)25-22-6-4-3-5-19(22)9-12-23(25)26/h3-6,17-18,20-21H,7-16H2,1-2H3

>  <IUPAC Name>  (1) 
1-[1-(4-propan-2-ylcyclohexyl)piperidin-4-yl]-3,4-dihydroquinolin-2-one

$$$$
