
     RDKit          3D

 42 43  0  0  0  0  0  0  0  0999 V2000
   -3.9155   -1.6002   -0.4480 C   0  0  0  0  0  0  0  0  0  0  0  0
   -2.5651   -2.2103   -0.5195 C   0  0  0  0  0  0  0  0  0  0  0  0
   -1.3551   -1.3636   -0.5882 C   0  0  0  0  0  0  0  0  0  0  0  0
   -1.0130   -0.4765    0.4158 N   0  0  0  0  0  0  0  0  0  0  0  0
    0.3672   -0.0558    0.4435 C   0  0  1  0  0  0  0  0  0  0  0  0
    1.2882   -1.2197    0.7482 C   0  0  0  0  0  0  0  0  0  0  0  0
    2.4309   -1.3644   -0.2486 C   0  0  0  0  0  0  0  0  0  0  0  0
    3.1062   -0.0508   -0.2675 N   0  0  0  0  0  0  0  0  0  0  0  0
    2.2586    0.9803   -0.5629 C   0  0  0  0  0  0  0  0  0  0  0  0
    0.8046    0.6223   -0.8208 C   0  0  0  0  0  0  0  0  0  0  0  0
    2.9748    2.1518   -0.5465 C   0  0  0  0  0  0  0  0  0  0  0  0
    4.2869    1.7774   -0.2292 C   0  0  0  0  0  0  0  0  0  0  0  0
    4.3312    0.4007   -0.0631 C   0  0  0  0  0  0  0  0  0  0  0  0
    5.4907   -0.4308    0.2709 C   0  0  0  0  0  0  0  0  0  0  0  0
    5.3281   -1.6584    0.3634 O   0  0  0  0  0  0  0  0  0  0  0  0
   -1.9149    0.4356    0.9682 C   0  0  0  0  0  0  0  0  0  0  0  0
   -2.3771    1.6047    0.1680 C   0  0  0  0  0  0  0  0  0  0  0  0
   -3.4174    2.4342    0.9449 C   0  0  0  0  0  0  0  0  0  0  0  0
   -3.9565   -0.5817   -0.8165 H   0  0  0  0  0  0  0  0  0  0  0  0
   -4.6707   -2.2335   -1.0167 H   0  0  0  0  0  0  0  0  0  0  0  0
   -4.3529   -1.6225    0.5934 H   0  0  0  0  0  0  0  0  0  0  0  0
   -2.6052   -2.9118   -1.4269 H   0  0  0  0  0  0  0  0  0  0  0  0
   -2.4969   -2.9617    0.3336 H   0  0  0  0  0  0  0  0  0  0  0  0
   -1.4444   -0.7786   -1.5617 H   0  0  0  0  0  0  0  0  0  0  0  0
   -0.4862   -2.0531   -0.7690 H   0  0  0  0  0  0  0  0  0  0  0  0
    0.4674    0.6729    1.2614 H   0  0  0  0  0  0  0  0  0  0  0  0
    0.7615   -2.1765    0.8250 H   0  0  0  0  0  0  0  0  0  0  0  0
    1.7963   -1.0553    1.7437 H   0  0  0  0  0  0  0  0  0  0  0  0
    3.0799   -2.1584    0.1232 H   0  0  0  0  0  0  0  0  0  0  0  0
    2.0816   -1.6061   -1.2539 H   0  0  0  0  0  0  0  0  0  0  0  0
    0.7881   -0.1187   -1.6660 H   0  0  0  0  0  0  0  0  0  0  0  0
    0.3045    1.5439   -1.0862 H   0  0  0  0  0  0  0  0  0  0  0  0
    2.5921    3.1425   -0.7418 H   0  0  0  0  0  0  0  0  0  0  0  0
    5.1455    2.4527   -0.1274 H   0  0  0  0  0  0  0  0  0  0  0  0
    6.4495    0.0829    0.4213 H   0  0  0  0  0  0  0  0  0  0  0  0
   -2.8208   -0.0875    1.3452 H   0  0  0  0  0  0  0  0  0  0  0  0
   -1.4936    0.8924    1.9286 H   0  0  0  0  0  0  0  0  0  0  0  0
   -1.5675    2.3511   -0.0112 H   0  0  0  0  0  0  0  0  0  0  0  0
   -2.7571    1.3442   -0.8203 H   0  0  0  0  0  0  0  0  0  0  0  0
   -2.8687    3.1374    1.5902 H   0  0  0  0  0  0  0  0  0  0  0  0
   -3.9816    3.0164    0.2014 H   0  0  0  0  0  0  0  0  0  0  0  0
   -4.0736    1.7324    1.5067 H   0  0  0  0  0  0  0  0  0  0  0  0
  1  2  1  0
  2  3  1  0
  3  4  1  0
  4  5  1  0
  5  6  1  0
  6  7  1  0
  7  8  1  0
  8  9  1  0
  9 10  1  0
  9 11  2  0
 11 12  1  0
 12 13  2  0
 13 14  1  0
 14 15  2  0
  4 16  1  0
 16 17  1  0
 17 18  1  0
 10  5  1  0
 13  8  1  0
  1 19  1  0
  1 20  1  0
  1 21  1  0
  2 22  1  0
  2 23  1  0
  3 24  1  0
  3 25  1  0
  5 26  1  1
  6 27  1  0
  6 28  1  0
  7 29  1  0
  7 30  1  0
 10 31  1  0
 10 32  1  0
 11 33  1  0
 12 34  1  0
 14 35  1  0
 16 36  1  0
 16 37  1  0
 17 38  1  0
 17 39  1  0
 18 40  1  0
 18 41  1  0
 18 42  1  0
M  END
>  <Ligand ID>  (1) 
LIG0004340

>  <Ligand>  (1) 
CHEMBL316983

>  <SMILES>  (1) 
CCCN([C@H]1CCn2c(C1)ccc2C=O)CCC

>  <CID>  (1) 
10014924.0

>  <ChEMBL ID>  (1) 
nan

>  <InChiKey>  (1) 
RIOOLQVLOZQLQJ-ZDUSSCGKSA-N

>  <InChi>  (1) 
InChI=1S/C15H24N2O/c1-3-8-16(9-4-2)13-7-10-17-14(11-13)5-6-15(17)12-18/h5-6,12-13H,3-4,7-11H2,1-2H3/t13-/m0/s1

>  <IUPAC Name>  (1) 
(7S)-7-(dipropylamino)-5,6,7,8-tetrahydroindolizine-3-carbaldehyde

$$$$
