
     RDKit          3D

 25 26  0  0  0  0  0  0  0  0999 V2000
   -0.7724    2.4683    1.6387 O   0  0  0  0  0  0  0  0  0  0  0  0
   -0.8073    2.2144    0.2743 C   0  0  0  0  0  0  0  0  0  0  0  0
   -0.9486    3.2313   -0.4825 O   0  0  0  0  0  0  0  0  0  0  0  0
   -0.6852    0.8415   -0.2228 C   0  0  2  0  0  0  0  0  0  0  0  0
   -0.7434    0.7794   -1.6552 N   0  0  0  0  0  0  0  0  0  0  0  0
   -1.7340   -0.1125    0.3103 C   0  0  2  0  0  0  0  0  0  0  0  0
   -1.6322   -0.2160    1.6875 O   0  0  0  0  0  0  0  0  0  0  0  0
   -1.1726   -1.4119   -0.2855 C   0  0  0  0  0  0  0  0  0  0  0  0
    0.2636   -1.3525    0.1594 C   0  0  2  0  0  0  0  0  0  0  0  0
    0.5671    0.1514    0.3312 C   0  0  1  0  0  0  0  0  0  0  0  0
    1.3131   -0.6751   -0.6225 C   0  0  2  0  0  0  0  0  0  0  0  0
    1.1676   -0.3762   -1.9473 F   0  0  0  0  0  0  0  0  0  0  0  0
    2.7151   -1.0286   -0.2339 C   0  0  0  0  0  0  0  0  0  0  0  0
    3.0097   -1.3297    0.9589 O   0  0  0  0  0  0  0  0  0  0  0  0
    3.7580   -1.0450   -1.1521 O   0  0  0  0  0  0  0  0  0  0  0  0
   -0.3004    3.2956    2.0262 H   0  0  0  0  0  0  0  0  0  0  0  0
   -0.3643    1.6335   -2.1156 H   0  0  0  0  0  0  0  0  0  0  0  0
   -1.7645    0.7418   -1.9519 H   0  0  0  0  0  0  0  0  0  0  0  0
   -2.7374    0.0472   -0.0768 H   0  0  0  0  0  0  0  0  0  0  0  0
   -2.2285   -0.9622    1.9625 H   0  0  0  0  0  0  0  0  0  0  0  0
   -1.6756   -2.3034    0.0856 H   0  0  0  0  0  0  0  0  0  0  0  0
   -1.2476   -1.2865   -1.3809 H   0  0  0  0  0  0  0  0  0  0  0  0
    0.5455   -2.0438    0.9553 H   0  0  0  0  0  0  0  0  0  0  0  0
    0.9213    0.4322    1.3207 H   0  0  0  0  0  0  0  0  0  0  0  0
    4.5530   -1.6930   -1.0570 H   0  0  0  0  0  0  0  0  0  0  0  0
  1  2  1  0
  2  3  2  0
  2  4  1  0
  4  5  1  6
  4  6  1  0
  6  7  1  0
  6  8  1  0
  8  9  1  0
  9 10  1  0
 10 11  1  0
 11 12  1  6
 11 13  1  0
 13 14  2  0
 13 15  1  0
 10  4  1  0
 11  9  1  0
  1 16  1  0
  5 17  1  0
  5 18  1  0
  6 19  1  1
  7 20  1  0
  8 21  1  0
  8 22  1  0
  9 23  1  1
 10 24  1  1
 15 25  1  0
M  END
>  <Ligand ID>  (1) 
LIG0005703

>  <Ligand>  (1) 
CHEMBL185822

>  <SMILES>  (1) 
OC(=O)[C@]1(N)[C@H](O)C[C@@H]2[C@H]1[C@@]2(F)C(=O)O

>  <CID>  (1) 
10130658.0

>  <ChEMBL ID>  (1) 
nan

>  <InChiKey>  (1) 
RQMATUGEOACXDC-MSNQUTSYSA-N

>  <InChi>  (1) 
InChI=1S/C8H10FNO5/c9-7(5(12)13)2-1-3(11)8(10,4(2)7)6(14)15/h2-4,11H,1,10H2,(H,12,13)(H,14,15)/t2-,3-,4+,7-,8+/m1/s1

>  <IUPAC Name>  (1) 
(1R,2R,3R,5R,6R)-2-amino-6-fluoro-3-hydroxybicyclo[3.1.0]hexane-2,6-dicarboxylic acid

$$$$
