
     RDKit          3D

 74 78  0  0  0  0  0  0  0  0999 V2000
    7.2326   -4.3198   -1.2291 O   0  0  0  0  0  0  0  0  0  0  0  0
    8.1939   -3.3771   -0.9396 C   0  0  0  0  0  0  0  0  0  0  0  0
    8.8398   -2.8502   -1.8929 O   0  0  0  0  0  0  0  0  0  0  0  0
    8.5121   -2.9439    0.4646 C   0  0  0  0  0  0  0  0  0  0  0  0
    7.5998   -3.7287    1.3731 C   0  0  0  0  0  0  0  0  0  0  0  0
    6.2843   -3.4874    1.0907 O   0  0  0  0  0  0  0  0  0  0  0  0
    5.8477   -2.1959    1.2124 C   0  0  0  0  0  0  0  0  0  0  0  0
    4.3621   -2.2051    0.8536 C   0  0  0  0  0  0  0  0  0  0  0  0
    3.8277   -0.8956    0.9550 O   0  0  0  0  0  0  0  0  0  0  0  0
    2.4816   -0.7324    0.6600 C   0  0  0  0  0  0  0  0  0  0  0  0
    1.9862    0.5131    0.7595 N   0  0  0  0  0  0  0  0  0  0  0  0
    0.7145    0.8445    0.5120 C   0  0  0  0  0  0  0  0  0  0  0  0
    0.2686    2.1778    0.6391 N   0  0  0  0  0  0  0  0  0  0  0  0
    1.2358    3.1836    1.0481 C   0  0  0  0  0  0  0  0  0  0  0  0
    0.6065    4.5084    1.1312 C   0  0  0  0  0  0  0  0  0  0  0  0
    0.0470    4.8845    2.3476 C   0  0  0  0  0  0  0  0  0  0  0  0
   -0.5607    6.0921    2.5298 C   0  0  0  0  0  0  0  0  0  0  0  0
   -0.6369    6.9912    1.4871 C   0  0  0  0  0  0  0  0  0  0  0  0
   -0.0812    6.6269    0.2657 C   0  0  0  0  0  0  0  0  0  0  0  0
    0.5275    5.4056    0.1001 C   0  0  0  0  0  0  0  0  0  0  0  0
   -0.1611    7.5906   -0.8575 C   0  0  0  0  0  0  0  0  0  0  0  0
   -1.1518    7.1315   -1.7270 F   0  0  0  0  0  0  0  0  0  0  0  0
   -0.5730    8.8268   -0.4119 F   0  0  0  0  0  0  0  0  0  0  0  0
    1.0565    7.6950   -1.4778 F   0  0  0  0  0  0  0  0  0  0  0  0
   -0.1247   -0.2039    0.1264 C   0  0  0  0  0  0  0  0  0  0  0  0
    0.3448   -1.4947    0.0127 C   0  0  0  0  0  0  0  0  0  0  0  0
    1.6626   -1.7120    0.2914 N   0  0  0  0  0  0  0  0  0  0  0  0
   -0.4365   -2.5411   -0.3585 C   0  0  0  0  0  0  0  0  0  0  0  0
   -1.7660   -2.2963   -0.6349 C   0  0  0  0  0  0  0  0  0  0  0  0
   -2.2761   -0.9967   -0.5296 C   0  0  0  0  0  0  0  0  0  0  0  0
   -1.4348    0.0288   -0.1476 C   0  0  0  0  0  0  0  0  0  0  0  0
   -3.7079   -0.7426   -0.8285 C   0  0  0  0  0  0  0  0  0  0  0  0
   -4.5474   -0.8649    0.3892 C   0  0  0  0  0  0  0  0  0  0  0  0
   -5.3573    0.1454    0.8607 C   0  0  0  0  0  0  0  0  0  0  0  0
   -6.1248    0.0407    2.0008 C   0  0  0  0  0  0  0  0  0  0  0  0
   -6.1071   -1.1252    2.7372 C   0  0  0  0  0  0  0  0  0  0  0  0
   -5.3083   -2.1606    2.2982 C   0  0  0  0  0  0  0  0  0  0  0  0
   -4.5437   -2.0387    1.1514 C   0  0  0  0  0  0  0  0  0  0  0  0
   -7.0624   -1.3117    4.1925 Cl  0  0  0  0  0  0  0  0  0  0  0  0
   -4.2400   -1.4813   -1.9741 C   0  0  0  0  0  0  0  0  0  0  0  0
   -3.8957   -1.0356   -3.2419 C   0  0  0  0  0  0  0  0  0  0  0  0
   -4.3398   -1.6432   -4.3950 C   0  0  0  0  0  0  0  0  0  0  0  0
   -5.1728   -2.7561   -4.2857 C   0  0  0  0  0  0  0  0  0  0  0  0
   -5.5399   -3.2324   -3.0428 C   0  0  0  0  0  0  0  0  0  0  0  0
   -5.0602   -2.5774   -1.9149 C   0  0  0  0  0  0  0  0  0  0  0  0
   -5.7279   -3.5161   -5.7601 Cl  0  0  0  0  0  0  0  0  0  0  0  0
    6.8249   -4.4439   -2.1499 H   0  0  0  0  0  0  0  0  0  0  0  0
    8.3580   -1.8747    0.6352 H   0  0  0  0  0  0  0  0  0  0  0  0
    9.5568   -3.2322    0.7233 H   0  0  0  0  0  0  0  0  0  0  0  0
    7.7711   -4.8202    1.1844 H   0  0  0  0  0  0  0  0  0  0  0  0
    7.8033   -3.5130    2.4493 H   0  0  0  0  0  0  0  0  0  0  0  0
    6.3899   -1.4449    0.6037 H   0  0  0  0  0  0  0  0  0  0  0  0
    5.8921   -1.8164    2.2688 H   0  0  0  0  0  0  0  0  0  0  0  0
    4.1998   -2.5343   -0.1951 H   0  0  0  0  0  0  0  0  0  0  0  0
    3.8015   -2.8969    1.5091 H   0  0  0  0  0  0  0  0  0  0  0  0
   -0.6993    2.5106    0.4651 H   0  0  0  0  0  0  0  0  0  0  0  0
    1.5820    2.8693    2.0614 H   0  0  0  0  0  0  0  0  0  0  0  0
    2.1307    3.1843    0.3903 H   0  0  0  0  0  0  0  0  0  0  0  0
    0.0912    4.1966    3.1894 H   0  0  0  0  0  0  0  0  0  0  0  0
   -0.9770    6.3356    3.4864 H   0  0  0  0  0  0  0  0  0  0  0  0
   -1.1216    7.9520    1.6358 H   0  0  0  0  0  0  0  0  0  0  0  0
    0.9576    5.1340   -0.8596 H   0  0  0  0  0  0  0  0  0  0  0  0
   -0.0169   -3.5333   -0.4317 H   0  0  0  0  0  0  0  0  0  0  0  0
   -2.3973   -3.1315   -0.9330 H   0  0  0  0  0  0  0  0  0  0  0  0
   -1.8707    1.0099   -0.0802 H   0  0  0  0  0  0  0  0  0  0  0  0
   -3.7739    0.3459   -1.1112 H   0  0  0  0  0  0  0  0  0  0  0  0
   -5.3817    1.0751    0.2878 H   0  0  0  0  0  0  0  0  0  0  0  0
   -6.7391    0.8824    2.3089 H   0  0  0  0  0  0  0  0  0  0  0  0
   -5.2863   -3.0850    2.8711 H   0  0  0  0  0  0  0  0  0  0  0  0
   -3.9421   -2.8950    0.8890 H   0  0  0  0  0  0  0  0  0  0  0  0
   -3.2457   -0.1674   -3.3486 H   0  0  0  0  0  0  0  0  0  0  0  0
   -4.0340   -1.2453   -5.3535 H   0  0  0  0  0  0  0  0  0  0  0  0
   -6.1929   -4.1049   -2.9670 H   0  0  0  0  0  0  0  0  0  0  0  0
   -5.3741   -2.9770   -0.9683 H   0  0  0  0  0  0  0  0  0  0  0  0
  1  2  1  0
  2  3  2  0
  2  4  1  0
  4  5  1  0
  5  6  1  0
  6  7  1  0
  7  8  1  0
  8  9  1  0
  9 10  1  0
 10 11  2  0
 11 12  1  0
 12 13  1  0
 13 14  1  0
 14 15  1  0
 15 16  2  0
 16 17  1  0
 17 18  2  0
 18 19  1  0
 19 20  2  0
 19 21  1  0
 21 22  1  0
 21 23  1  0
 21 24  1  0
 12 25  2  0
 25 26  1  0
 26 27  2  0
 26 28  1  0
 28 29  2  0
 29 30  1  0
 30 31  2  0
 30 32  1  0
 32 33  1  0
 33 34  2  0
 34 35  1  0
 35 36  2  0
 36 37  1  0
 37 38  2  0
 36 39  1  0
 32 40  1  0
 40 41  2  0
 41 42  1  0
 42 43  2  0
 43 44  1  0
 44 45  2  0
 43 46  1  0
 27 10  1  0
 38 33  1  0
 45 40  1  0
 20 15  1  0
 31 25  1  0
  1 47  1  0
  4 48  1  0
  4 49  1  0
  5 50  1  0
  5 51  1  0
  7 52  1  0
  7 53  1  0
  8 54  1  0
  8 55  1  0
 13 56  1  0
 14 57  1  0
 14 58  1  0
 16 59  1  0
 17 60  1  0
 18 61  1  0
 20 62  1  0
 28 63  1  0
 29 64  1  0
 31 65  1  0
 32 66  1  0
 34 67  1  0
 35 68  1  0
 37 69  1  0
 38 70  1  0
 41 71  1  0
 42 72  1  0
 44 73  1  0
 45 74  1  0
M  END
>  <Ligand ID>  (1) 
LIG0005811

>  <Ligand>  (1) 
SCHEMBL17557661

>  <SMILES>  (1) 
OC(=O)CCOCCOc1nc(NCc2cccc(c2)C(F)(F)F)c2c(n1)ccc(c2)C(c1ccc(cc1)Cl)c1ccc(cc1)Cl

>  <CID>  (1) 
118916144.0

>  <ChEMBL ID>  (1) 
nan

>  <InChiKey>  (1) 
QAHFHBKZZJXVES-UHFFFAOYSA-N

>  <InChi>  (1) 
InChI=1S/C34H28Cl2F3N3O4/c35-26-9-4-22(5-10-26)31(23-6-11-27(36)12-7-23)24-8-13-29-28(19-24)32(40-20-21-2-1-3-25(18-21)34(37,38)39)42-33(41-29)46-17-16-45-15-14-30(43)44/h1-13,18-19,31H,14-17,20H2,(H,43,44)(H,40,41,42)

>  <IUPAC Name>  (1) 
3-[2-[6-[bis(4-chlorophenyl)methyl]-4-[[3-(trifluoromethyl)phenyl]methylamino]quinazolin-2-yl]oxyethoxy]propanoic acid

$$$$
