
     RDKit          3D

142146  0  0  0  0  0  0  0  0999 V2000
   -3.8245   -3.7412   -4.4643 N   0  0  0  0  0  0  0  0  0  0  0  0
   -2.5299   -3.5849   -3.7916 C   0  0  0  0  0  0  0  0  0  0  0  0
   -2.6681   -4.2342   -2.4448 C   0  0  0  0  0  0  0  0  0  0  0  0
   -3.7007   -3.6641   -1.5496 C   0  0  0  0  0  0  0  0  0  0  0  0
   -3.5634   -2.2622   -1.0653 C   0  0  0  0  0  0  0  0  0  0  0  0
   -2.4320   -1.9354   -0.1594 C   0  0  1  0  0  0  0  0  0  0  0  0
   -1.1299   -2.1378   -0.8449 N   0  0  0  0  0  0  0  0  0  0  0  0
    0.1035   -2.2665   -0.1246 C   0  0  0  0  0  0  0  0  0  0  0  0
    0.0370   -2.1748    1.0901 O   0  0  0  0  0  0  0  0  0  0  0  0
    1.3867   -2.4877   -0.9089 C   0  0  1  0  0  0  0  0  0  0  0  0
    2.5050   -1.9392   -0.1291 N   0  0  0  0  0  0  0  0  0  0  0  0
    3.0276   -0.7221   -0.5623 C   0  0  0  0  0  0  0  0  0  0  0  0
    2.4586   -0.2883   -1.6537 O   0  0  0  0  0  0  0  0  0  0  0  0
    4.0676    0.2110   -0.0971 C   0  0  1  0  0  0  0  0  0  0  0  0
    5.4719   -0.2048   -0.1323 C   0  0  0  0  0  0  0  0  0  0  0  0
    5.7418   -1.4154    0.7155 C   0  0  0  0  0  0  0  0  0  0  0  0
    7.2363   -1.7807    0.6562 C   0  0  0  0  0  0  0  0  0  0  0  0
    8.0394   -0.6817    1.1403 N   0  0  0  0  0  0  0  0  0  0  0  0
    8.0483   -0.2386    2.3401 C   0  0  0  0  0  0  0  0  0  0  0  0
    8.9300    0.8695    2.5994 N   0  0  0  0  0  0  0  0  0  0  0  0
    7.2479   -0.7760    3.3934 N   0  0  0  0  0  0  0  0  0  0  0  0
    3.8510    1.3375   -1.0882 N   0  0  0  0  0  0  0  0  0  0  0  0
    3.0194    2.4336   -0.7501 C   0  0  0  0  0  0  0  0  0  0  0  0
    2.6179    2.4752    0.4162 O   0  0  0  0  0  0  0  0  0  0  0  0
    2.6510    3.4880   -1.7889 C   0  0  1  0  0  0  0  0  0  0  0  0
    1.5582    4.2517   -1.1502 N   0  0  0  0  0  0  0  0  0  0  0  0
    0.4219    3.4897   -0.7929 C   0  0  0  0  0  0  0  0  0  0  0  0
    0.4665    2.2770   -0.9883 O   0  0  0  0  0  0  0  0  0  0  0  0
   -0.8310    4.0388   -0.1792 C   0  0  2  0  0  0  0  0  0  0  0  0
   -1.4034    2.9649    0.6051 N   0  0  0  0  0  0  0  0  0  0  0  0
   -2.6345    2.3394    0.6897 C   0  0  0  0  0  0  0  0  0  0  0  0
   -3.4858    2.6056   -0.1659 O   0  0  0  0  0  0  0  0  0  0  0  0
   -2.9311    1.3787    1.7386 C   0  0  1  0  0  0  0  0  0  0  0  0
   -3.3386    0.0309    1.3767 N   0  0  0  0  0  0  0  0  0  0  0  0
   -2.4379   -0.5895    0.4299 C   0  0  0  0  0  0  0  0  0  0  0  0
   -1.5725    0.2075    0.1297 O   0  0  0  0  0  0  0  0  0  0  0  0
   -4.4266   -0.6846    1.7316 C   0  0  0  0  0  0  0  0  0  0  0  0
   -4.5329   -1.9579    1.4721 O   0  0  0  0  0  0  0  0  0  0  0  0
   -5.5758   -0.1340    2.4179 C   0  0  1  0  0  0  0  0  0  0  0  0
   -5.8114    1.2259    2.6445 N   0  0  0  0  0  0  0  0  0  0  0  0
   -5.9819    1.7325    3.9951 C   0  0  0  0  0  0  0  0  0  0  0  0
   -5.9266    0.9805    4.9966 O   0  0  0  0  0  0  0  0  0  0  0  0
   -6.2317    3.2024    4.2222 C   0  0  0  0  0  0  0  0  0  0  0  0
   -6.8480   -0.8470    1.9853 C   0  0  0  0  0  0  0  0  0  0  0  0
   -7.1962   -0.8437    0.5568 C   0  0  0  0  0  0  0  0  0  0  0  0
   -7.3940    0.4700   -0.1302 C   0  0  0  0  0  0  0  0  0  0  0  0
   -7.7795    0.1598   -1.5981 C   0  0  0  0  0  0  0  0  0  0  0  0
   -1.7597    1.2610    2.7584 C   0  0  0  0  0  0  0  0  0  0  0  0
   -1.5051    2.5522    3.4342 C   0  0  0  0  0  0  0  0  0  0  0  0
   -2.2405    3.5758    3.2098 O   0  0  0  0  0  0  0  0  0  0  0  0
   -0.4494    2.6123    4.3129 O   0  0  0  0  0  0  0  0  0  0  0  0
   -1.7120    4.4691   -1.3544 C   0  0  0  0  0  0  0  0  0  0  0  0
   -2.9335    5.1571   -0.9130 C   0  0  0  0  0  0  0  0  0  0  0  0
   -3.8841    5.5822   -1.8040 N   0  0  0  0  0  0  0  0  0  0  0  0
   -4.8567    6.2296   -1.1736 C   0  0  0  0  0  0  0  0  0  0  0  0
   -4.5308    6.2208    0.1280 N   0  0  0  0  0  0  0  0  0  0  0  0
   -3.3714    5.5788    0.3228 C   0  0  0  0  0  0  0  0  0  0  0  0
    3.7153    4.3990   -2.1500 C   0  0  0  0  0  0  0  0  0  0  0  0
    4.9515    3.8858   -2.7183 C   0  0  0  0  0  0  0  0  0  0  0  0
    5.1861    3.6538   -4.0590 C   0  0  0  0  0  0  0  0  0  0  0  0
    6.3872    3.1821   -4.5442 C   0  0  0  0  0  0  0  0  0  0  0  0
    7.4294    2.9175   -3.6828 C   0  0  0  0  0  0  0  0  0  0  0  0
    7.2316    3.1377   -2.3369 C   0  0  0  0  0  0  0  0  0  0  0  0
    6.0257    3.6088   -1.8651 C   0  0  0  0  0  0  0  0  0  0  0  0
    1.5199   -3.8999   -1.3282 C   0  0  0  0  0  0  0  0  0  0  0  0
    1.5818   -4.9252   -0.2954 C   0  0  0  0  0  0  0  0  0  0  0  0
    0.4567   -5.6463    0.1290 C   0  0  0  0  0  0  0  0  0  0  0  0
    0.8446   -6.5000    1.1229 N   0  0  0  0  0  0  0  0  0  0  0  0
    2.1565   -6.3708    1.3618 C   0  0  0  0  0  0  0  0  0  0  0  0
    2.6008   -5.4056    0.4893 C   0  0  0  0  0  0  0  0  0  0  0  0
    3.9394   -5.0855    0.5183 C   0  0  0  0  0  0  0  0  0  0  0  0
    4.8464   -5.6784    1.3728 C   0  0  0  0  0  0  0  0  0  0  0  0
    4.3815   -6.6435    2.2417 C   0  0  0  0  0  0  0  0  0  0  0  0
    3.0401   -6.9875    2.2343 C   0  0  0  0  0  0  0  0  0  0  0  0
   -4.0400   -4.7448   -4.5800 H   0  0  0  0  0  0  0  0  0  0  0  0
   -4.5313   -3.1920   -3.9506 H   0  0  0  0  0  0  0  0  0  0  0  0
   -2.3343   -2.5191   -3.7096 H   0  0  0  0  0  0  0  0  0  0  0  0
   -1.7717   -4.1719   -4.3525 H   0  0  0  0  0  0  0  0  0  0  0  0
   -3.0056   -5.3093   -2.6586 H   0  0  0  0  0  0  0  0  0  0  0  0
   -1.7114   -4.3911   -1.9086 H   0  0  0  0  0  0  0  0  0  0  0  0
   -3.7554   -4.3973   -0.6717 H   0  0  0  0  0  0  0  0  0  0  0  0
   -4.7278   -3.7858   -1.9968 H   0  0  0  0  0  0  0  0  0  0  0  0
   -3.1794   -1.7311   -2.0763 H   0  0  0  0  0  0  0  0  0  0  0  0
   -4.4907   -1.6966   -0.9643 H   0  0  0  0  0  0  0  0  0  0  0  0
   -2.4133   -2.6836    0.6929 H   0  0  0  0  0  0  0  0  0  0  0  0
   -1.0303   -2.1715   -1.8530 H   0  0  0  0  0  0  0  0  0  0  0  0
    1.2133   -1.8955   -1.8564 H   0  0  0  0  0  0  0  0  0  0  0  0
    2.8810   -2.3937    0.6795 H   0  0  0  0  0  0  0  0  0  0  0  0
    3.7125    0.6474    0.8625 H   0  0  0  0  0  0  0  0  0  0  0  0
    5.8700   -0.3492   -1.1767 H   0  0  0  0  0  0  0  0  0  0  0  0
    6.0915    0.6347    0.3048 H   0  0  0  0  0  0  0  0  0  0  0  0
    5.1539   -2.2724    0.3369 H   0  0  0  0  0  0  0  0  0  0  0  0
    5.4949   -1.2585    1.7772 H   0  0  0  0  0  0  0  0  0  0  0  0
    7.5588   -1.9842   -0.3796 H   0  0  0  0  0  0  0  0  0  0  0  0
    7.4070   -2.6481    1.3178 H   0  0  0  0  0  0  0  0  0  0  0  0
    8.7014    1.7771    2.1598 H   0  0  0  0  0  0  0  0  0  0  0  0
    9.7685    0.7979    3.1959 H   0  0  0  0  0  0  0  0  0  0  0  0
    7.4114   -1.7663    3.6419 H   0  0  0  0  0  0  0  0  0  0  0  0
    6.5663   -0.1351    3.8281 H   0  0  0  0  0  0  0  0  0  0  0  0
    4.2809    1.3364   -1.9969 H   0  0  0  0  0  0  0  0  0  0  0  0
    2.1921    2.9012   -2.6392 H   0  0  0  0  0  0  0  0  0  0  0  0
    1.5528    5.2327   -0.9509 H   0  0  0  0  0  0  0  0  0  0  0  0
   -0.6375    4.9728    0.3287 H   0  0  0  0  0  0  0  0  0  0  0  0
   -0.6581    2.5377    1.2581 H   0  0  0  0  0  0  0  0  0  0  0  0
   -3.7131    1.7703    2.3966 H   0  0  0  0  0  0  0  0  0  0  0  0
   -5.4422   -0.5705    3.5014 H   0  0  0  0  0  0  0  0  0  0  0  0
   -5.9076    1.9952    1.9151 H   0  0  0  0  0  0  0  0  0  0  0  0
   -6.8243    3.5234    3.3372 H   0  0  0  0  0  0  0  0  0  0  0  0
   -6.8856    3.3482    5.0985 H   0  0  0  0  0  0  0  0  0  0  0  0
   -5.3052    3.7874    4.2197 H   0  0  0  0  0  0  0  0  0  0  0  0
   -6.7726   -1.9007    2.3217 H   0  0  0  0  0  0  0  0  0  0  0  0
   -7.7048   -0.3817    2.5321 H   0  0  0  0  0  0  0  0  0  0  0  0
   -8.2398   -1.3347    0.5091 H   0  0  0  0  0  0  0  0  0  0  0  0
   -6.6057   -1.5688   -0.0613 H   0  0  0  0  0  0  0  0  0  0  0  0
   -6.5012    1.1319   -0.1326 H   0  0  0  0  0  0  0  0  0  0  0  0
   -8.2330    1.0592    0.2901 H   0  0  0  0  0  0  0  0  0  0  0  0
   -7.2867   -0.7674   -1.9360 H   0  0  0  0  0  0  0  0  0  0  0  0
   -7.5933    1.0138   -2.2593 H   0  0  0  0  0  0  0  0  0  0  0  0
   -8.8708   -0.0455   -1.6636 H   0  0  0  0  0  0  0  0  0  0  0  0
   -2.0339    0.4896    3.5172 H   0  0  0  0  0  0  0  0  0  0  0  0
   -0.8356    0.9035    2.3034 H   0  0  0  0  0  0  0  0  0  0  0  0
   -0.3807    3.3438    5.0195 H   0  0  0  0  0  0  0  0  0  0  0  0
   -1.1178    5.2527   -1.8915 H   0  0  0  0  0  0  0  0  0  0  0  0
   -1.8546    3.6532   -2.0724 H   0  0  0  0  0  0  0  0  0  0  0  0
   -3.8627    5.4238   -2.8503 H   0  0  0  0  0  0  0  0  0  0  0  0
   -5.7239    6.6611   -1.6733 H   0  0  0  0  0  0  0  0  0  0  0  0
   -2.8309    5.3944    1.2406 H   0  0  0  0  0  0  0  0  0  0  0  0
    3.3169    5.2195   -2.8320 H   0  0  0  0  0  0  0  0  0  0  0  0
    4.0052    4.9878   -1.2209 H   0  0  0  0  0  0  0  0  0  0  0  0
    4.3468    3.8689   -4.7375 H   0  0  0  0  0  0  0  0  0  0  0  0
    6.4966    3.0227   -5.6138 H   0  0  0  0  0  0  0  0  0  0  0  0
    8.3925    2.5462   -4.0199 H   0  0  0  0  0  0  0  0  0  0  0  0
    8.0115    2.9502   -1.6045 H   0  0  0  0  0  0  0  0  0  0  0  0
    5.8913    3.7750   -0.8024 H   0  0  0  0  0  0  0  0  0  0  0  0
    2.4200   -3.9579   -2.0213 H   0  0  0  0  0  0  0  0  0  0  0  0
    0.6674   -4.0969   -2.0521 H   0  0  0  0  0  0  0  0  0  0  0  0
   -0.5579   -5.5830   -0.2252 H   0  0  0  0  0  0  0  0  0  0  0  0
    0.2331   -7.1559    1.6273 H   0  0  0  0  0  0  0  0  0  0  0  0
    4.2805   -4.3450   -0.1740 H   0  0  0  0  0  0  0  0  0  0  0  0
    5.8792   -5.3610    1.3207 H   0  0  0  0  0  0  0  0  0  0  0  0
    5.1067   -7.1072    2.9121 H   0  0  0  0  0  0  0  0  0  0  0  0
    2.7157   -7.7450    2.9248 H   0  0  0  0  0  0  0  0  0  0  0  0
  1  2  1  0
  2  3  1  0
  3  4  1  0
  4  5  1  0
  5  6  1  0
  6  7  1  0
  7  8  1  0
  8  9  2  0
  8 10  1  0
 10 11  1  0
 11 12  1  0
 12 13  2  0
 12 14  1  0
 14 15  1  0
 15 16  1  0
 16 17  1  0
 17 18  1  0
 18 19  2  3
 19 20  1  0
 19 21  1  0
 14 22  1  0
 22 23  1  0
 23 24  2  0
 23 25  1  0
 25 26  1  0
 26 27  1  0
 27 28  2  0
 27 29  1  0
 29 30  1  0
 30 31  1  0
 31 32  2  0
 31 33  1  0
 33 34  1  0
 34 35  1  0
 35 36  2  0
 34 37  1  0
 37 38  2  0
 37 39  1  0
 39 40  1  0
 40 41  1  0
 41 42  2  0
 41 43  1  0
 39 44  1  0
 44 45  1  0
 45 46  1  0
 46 47  1  0
 33 48  1  0
 48 49  1  0
 49 50  2  0
 49 51  1  0
 29 52  1  0
 52 53  1  0
 53 54  1  0
 54 55  1  0
 55 56  2  0
 56 57  1  0
 25 58  1  0
 58 59  1  0
 59 60  2  0
 60 61  1  0
 61 62  2  0
 62 63  1  0
 63 64  2  0
 10 65  1  0
 65 66  1  0
 66 67  2  0
 67 68  1  0
 68 69  1  0
 69 70  2  0
 70 71  1  0
 71 72  2  0
 72 73  1  0
 73 74  2  0
 35  6  1  0
 57 53  2  0
 64 59  1  0
 70 66  1  0
 74 69  1  0
  1 75  1  0
  1 76  1  0
  2 77  1  0
  2 78  1  0
  3 79  1  0
  3 80  1  0
  4 81  1  0
  4 82  1  0
  5 83  1  0
  5 84  1  0
  6 85  1  1
  7 86  1  0
 10 87  1  6
 11 88  1  0
 14 89  1  1
 15 90  1  0
 15 91  1  0
 16 92  1  0
 16 93  1  0
 17 94  1  0
 17 95  1  0
 20 96  1  0
 20 97  1  0
 21 98  1  0
 21 99  1  0
 22100  1  0
 25101  1  6
 26102  1  0
 29103  1  1
 30104  1  0
 33105  1  1
 39106  1  1
 40107  1  0
 43108  1  0
 43109  1  0
 43110  1  0
 44111  1  0
 44112  1  0
 45113  1  0
 45114  1  0
 46115  1  0
 46116  1  0
 47117  1  0
 47118  1  0
 47119  1  0
 48120  1  0
 48121  1  0
 51122  1  0
 52123  1  0
 52124  1  0
 54125  1  0
 55126  1  0
 57127  1  0
 58128  1  0
 58129  1  0
 60130  1  0
 61131  1  0
 62132  1  0
 63133  1  0
 64134  1  0
 65135  1  0
 65136  1  0
 67137  1  0
 68138  1  0
 71139  1  0
 72140  1  0
 73141  1  0
 74142  1  0
M  END
>  <Ligand ID>  (1) 
LIG0001799

>  <Ligand>  (1) 
CHEMBL386583

>  <SMILES>  (1) 
NCCCC[C@H]1NC(=O)[C@@H](NC(=O)[C@@H](CCCN=C(N)N)NC(=O)[C@@H](NC(=O)[C@H](NC(=O)[C@@H](N(C1=O)C(=O)[C@@H](NC(=O)C)CCCC)CC(=O)O)Cc1[nH]cnc1)Cc1ccccc1)Cc1c[nH]c2c1cccc2

>  <CID>  (1) 
44327392.0

>  <ChEMBL ID>  (1) 
nan

>  <InChiKey>  (1) 
ULUABNVCTYCFOE-UHDHNNMDSA-N

>  <InChi>  (1) 
InChI=1S/C50H68N14O10/c1-3-4-16-36(58-29(2)65)48(73)64-41(25-42(66)67)47(72)63-40(24-32-27-54-28-57-32)46(71)61-38(22-30-13-6-5-7-14-30)44(69)59-35(19-12-21-55-50(52)53)43(68)62-39(23-31-26-56-34-17-9-8-15-33(31)34)45(70)60-37(49(64)74)18-10-11-20-51/h5-9,13-15,17,26-28,35-41,56H,3-4,10-12,16,18-25,51H2,1-2H3,(H,54,57)(H,58,65)(H,59,69)(H,60,70)(H,61,71)(H,62,68)(H,63,72)(H,66,67)(H4,52,53,55)/t35-,36+,37-,38+,39+,40-,41+/m1/s1

>  <IUPAC Name>  (1) 
2-[(2S,5R,8S,11R,14S,17R)-1-[(2S)-2-acetamidohexanoyl]-17-(4-aminobutyl)-8-benzyl-11-[3-(diaminomethylideneamino)propyl]-5-(1H-imidazol-5-ylmethyl)-14-(1H-indol-3-ylmethyl)-3,6,9,12,15,18-hexaoxo-1,4,7,10,13,16-hexazacyclooctadec-2-yl]acetic acid

$$$$
