
     RDKit          3D

140142  0  0  0  0  0  0  0  0999 V2000
   12.1031    0.7065   -0.8953 N   0  0  0  0  0  0  0  0  0  0  0  0
   10.6139    0.6900   -0.7876 C   0  0  0  0  0  0  0  0  0  0  0  0
   10.1880   -0.5612   -1.4464 C   0  0  0  0  0  0  0  0  0  0  0  0
    8.7639   -0.9095   -1.5494 C   0  0  0  0  0  0  0  0  0  0  0  0
    7.9035   -1.2241   -0.3948 C   0  0  1  0  0  0  0  0  0  0  0  0
    7.6924   -0.2673    0.6701 C   0  0  0  0  0  0  0  0  0  0  0  0
    6.6060    0.4282    0.6240 O   0  0  0  0  0  0  0  0  0  0  0  0
    8.5253    0.0016    1.7701 N   0  0  0  0  0  0  0  0  0  0  0  0
    8.2963    0.9590    2.8092 C   0  0  0  0  0  0  0  0  0  0  0  0
    8.2243    2.3038    2.1940 C   0  0  0  0  0  0  0  0  0  0  0  0
    8.3468    2.4896    0.9456 O   0  0  0  0  0  0  0  0  0  0  0  0
    8.0144    3.4611    2.9813 N   0  0  0  0  0  0  0  0  0  0  0  0
    6.5552   -1.4749   -1.0616 N   0  0  0  0  0  0  0  0  0  0  0  0
    5.9980   -2.7634   -1.0033 C   0  0  0  0  0  0  0  0  0  0  0  0
    6.6436   -3.6742   -0.3866 O   0  0  0  0  0  0  0  0  0  0  0  0
    4.7165   -3.1584   -1.6045 C   0  0  2  0  0  0  0  0  0  0  0  0
    4.9357   -4.2478   -2.6721 C   0  0  0  0  0  0  0  0  0  0  0  0
    5.4198   -3.4245   -3.8355 C   0  0  0  0  0  0  0  0  0  0  0  0
    4.6755   -2.1574   -3.6794 C   0  0  0  0  0  0  0  0  0  0  0  0
    4.0147   -2.1737   -2.3448 N   0  0  0  0  0  0  0  0  0  0  0  0
    2.9221   -1.3224   -2.0989 C   0  0  0  0  0  0  0  0  0  0  0  0
    2.5680   -0.5929   -3.1079 O   0  0  0  0  0  0  0  0  0  0  0  0
    2.1497   -1.1559   -0.8883 C   0  0  2  0  0  0  0  0  0  0  0  0
    1.9580   -2.3893   -0.0956 C   0  0  0  0  0  0  0  0  0  0  0  0
    0.4227   -2.3906    0.9165 S   0  0  0  0  0  0  0  0  0  0  0  0
   -1.1679   -2.9131   -0.4713 S   0  0  0  0  0  0  0  0  0  0  0  0
   -1.3340   -4.7486   -0.4145 C   0  0  0  0  0  0  0  0  0  0  0  0
   -2.4064   -5.1846   -1.3325 C   0  0  2  0  0  0  0  0  0  0  0  0
   -2.0425   -4.9661   -2.7124 N   0  0  0  0  0  0  0  0  0  0  0  0
   -3.6512   -4.3963   -1.0123 C   0  0  0  0  0  0  0  0  0  0  0  0
   -4.6187   -4.3351   -1.7860 O   0  0  0  0  0  0  0  0  0  0  0  0
   -3.7962   -3.6621    0.1977 N   0  0  0  0  0  0  0  0  0  0  0  0
   -4.9814   -2.8874    0.4832 C   0  0  1  0  0  0  0  0  0  0  0  0
   -5.0003   -2.3821    1.8546 C   0  0  0  0  0  0  0  0  0  0  0  0
   -4.9554   -3.5256    2.8182 C   0  0  0  0  0  0  0  0  0  0  0  0
   -6.1054   -4.1853    3.1706 C   0  0  0  0  0  0  0  0  0  0  0  0
   -6.1295   -5.2293    4.0601 C   0  0  0  0  0  0  0  0  0  0  0  0
   -4.9376   -5.6242    4.6180 C   0  0  0  0  0  0  0  0  0  0  0  0
   -3.7435   -5.0103    4.3135 C   0  0  0  0  0  0  0  0  0  0  0  0
   -3.7707   -3.9493    3.3997 C   0  0  0  0  0  0  0  0  0  0  0  0
   -5.1012   -1.7940   -0.5663 C   0  0  0  0  0  0  0  0  0  0  0  0
   -4.3782   -1.7733   -1.5843 O   0  0  0  0  0  0  0  0  0  0  0  0
   -6.0235   -0.7258   -0.4643 N   0  0  0  0  0  0  0  0  0  0  0  0
   -6.2036    0.1868   -1.5934 C   0  0  2  0  0  0  0  0  0  0  0  0
   -5.2763    1.3359   -1.5703 C   0  0  0  0  0  0  0  0  0  0  0  0
   -5.4539    2.2087   -2.4559 O   0  0  0  0  0  0  0  0  0  0  0  0
   -4.2033    1.5880   -0.6845 N   0  0  0  0  0  0  0  0  0  0  0  0
   -3.5012    2.8822   -0.8419 C   0  0  2  0  0  0  0  0  0  0  0  0
   -2.0568    2.8303   -0.8106 C   0  0  0  0  0  0  0  0  0  0  0  0
   -1.4481    3.9225   -1.1006 O   0  0  0  0  0  0  0  0  0  0  0  0
   -1.1422    1.7776   -0.5103 N   0  0  0  0  0  0  0  0  0  0  0  0
    0.2777    2.1976   -0.5415 C   0  0  2  0  0  0  0  0  0  0  0  0
    1.2038    1.1035   -0.6832 C   0  0  0  0  0  0  0  0  0  0  0  0
    2.4467    1.3731   -0.6257 O   0  0  0  0  0  0  0  0  0  0  0  0
    0.9913   -0.3109   -0.8950 N   0  0  0  0  0  0  0  0  0  0  0  0
    0.5606    2.8673    0.8175 C   0  0  0  0  0  0  0  0  0  0  0  0
    1.9034    3.4161    0.8395 C   0  0  0  0  0  0  0  0  0  0  0  0
    2.6714    3.6582   -0.1183 O   0  0  0  0  0  0  0  0  0  0  0  0
    2.4571    3.7381    2.1420 N   0  0  0  0  0  0  0  0  0  0  0  0
   -4.0717    3.7932    0.2543 C   0  0  0  0  0  0  0  0  0  0  0  0
   -3.5877    5.1518    0.2655 C   0  0  0  0  0  0  0  0  0  0  0  0
   -2.9440    5.7593   -0.6297 O   0  0  0  0  0  0  0  0  0  0  0  0
   -3.8595    5.9545    1.4412 N   0  0  0  0  0  0  0  0  0  0  0  0
   -3.3787    7.3000    1.4449 C   0  0  0  0  0  0  0  0  0  0  0  0
   -3.7111    8.0263    2.7064 C   0  0  0  0  0  0  0  0  0  0  0  0
   -3.1538    7.4082    3.8279 O   0  0  0  0  0  0  0  0  0  0  0  0
   -5.2031    8.2137    2.8899 C   0  0  0  0  0  0  0  0  0  0  0  0
   -7.6198    0.6226   -1.7408 C   0  0  2  0  0  0  0  0  0  0  0  0
   -8.6250   -0.4586   -1.9558 C   0  0  0  0  0  0  0  0  0  0  0  0
   -8.7373   -1.4790   -0.8633 C   0  0  0  0  0  0  0  0  0  0  0  0
   -7.7187    1.5460   -2.9585 C   0  0  0  0  0  0  0  0  0  0  0  0
   12.4110   -0.2858   -0.7471 H   0  0  0  0  0  0  0  0  0  0  0  0
   12.4776    1.3239   -0.1629 H   0  0  0  0  0  0  0  0  0  0  0  0
   10.2865    1.5542   -1.4178 H   0  0  0  0  0  0  0  0  0  0  0  0
   10.4170    0.8357    0.2657 H   0  0  0  0  0  0  0  0  0  0  0  0
   10.7151   -1.4605   -0.9858 H   0  0  0  0  0  0  0  0  0  0  0  0
   10.5985   -0.6063   -2.5118 H   0  0  0  0  0  0  0  0  0  0  0  0
    8.7385   -1.8213   -2.2617 H   0  0  0  0  0  0  0  0  0  0  0  0
    8.2180   -0.1521   -2.2447 H   0  0  0  0  0  0  0  0  0  0  0  0
    8.2051   -2.2034    0.0471 H   0  0  0  0  0  0  0  0  0  0  0  0
    9.4143   -0.5772    1.8339 H   0  0  0  0  0  0  0  0  0  0  0  0
    9.1034    0.9480    3.5636 H   0  0  0  0  0  0  0  0  0  0  0  0
    7.3210    0.7063    3.3014 H   0  0  0  0  0  0  0  0  0  0  0  0
    8.0063    4.4133    2.6009 H   0  0  0  0  0  0  0  0  0  0  0  0
    7.8574    3.3650    4.0114 H   0  0  0  0  0  0  0  0  0  0  0  0
    6.0862   -0.6832   -1.5333 H   0  0  0  0  0  0  0  0  0  0  0  0
    4.1548   -3.6968   -0.8193 H   0  0  0  0  0  0  0  0  0  0  0  0
    3.9264   -4.6257   -2.9267 H   0  0  0  0  0  0  0  0  0  0  0  0
    5.6266   -5.0110   -2.3268 H   0  0  0  0  0  0  0  0  0  0  0  0
    5.1305   -3.9159   -4.7842 H   0  0  0  0  0  0  0  0  0  0  0  0
    6.5263   -3.3091   -3.8314 H   0  0  0  0  0  0  0  0  0  0  0  0
    5.3538   -1.2782   -3.7311 H   0  0  0  0  0  0  0  0  0  0  0  0
    3.9024   -1.9914   -4.4778 H   0  0  0  0  0  0  0  0  0  0  0  0
    2.9685   -0.5643   -0.2296 H   0  0  0  0  0  0  0  0  0  0  0  0
    2.7569   -2.5855    0.6572 H   0  0  0  0  0  0  0  0  0  0  0  0
    1.8212   -3.2340   -0.8036 H   0  0  0  0  0  0  0  0  0  0  0  0
   -0.3411   -5.2054   -0.6855 H   0  0  0  0  0  0  0  0  0  0  0  0
   -1.5487   -4.9899    0.6617 H   0  0  0  0  0  0  0  0  0  0  0  0
   -2.5899   -6.2713   -1.1464 H   0  0  0  0  0  0  0  0  0  0  0  0
   -0.9868   -4.9284   -2.7520 H   0  0  0  0  0  0  0  0  0  0  0  0
   -2.3742   -4.0315   -3.0376 H   0  0  0  0  0  0  0  0  0  0  0  0
   -3.0477   -3.7096    0.8634 H   0  0  0  0  0  0  0  0  0  0  0  0
   -5.8937   -3.5426    0.2285 H   0  0  0  0  0  0  0  0  0  0  0  0
   -5.9643   -1.8340    2.0655 H   0  0  0  0  0  0  0  0  0  0  0  0
   -4.1463   -1.7101    2.0969 H   0  0  0  0  0  0  0  0  0  0  0  0
   -7.0541   -3.8780    2.7340 H   0  0  0  0  0  0  0  0  0  0  0  0
   -7.0794   -5.7067    4.2922 H   0  0  0  0  0  0  0  0  0  0  0  0
   -4.9344   -6.4584    5.3289 H   0  0  0  0  0  0  0  0  0  0  0  0
   -2.7994   -5.3327    4.7622 H   0  0  0  0  0  0  0  0  0  0  0  0
   -2.8139   -3.4881    3.1912 H   0  0  0  0  0  0  0  0  0  0  0  0
   -6.5148   -0.6489    0.4245 H   0  0  0  0  0  0  0  0  0  0  0  0
   -5.9114   -0.3554   -2.5541 H   0  0  0  0  0  0  0  0  0  0  0  0
   -3.9833    0.8795   -0.0056 H   0  0  0  0  0  0  0  0  0  0  0  0
   -3.8461    3.3204   -1.7850 H   0  0  0  0  0  0  0  0  0  0  0  0
   -1.5000    0.8747   -0.3111 H   0  0  0  0  0  0  0  0  0  0  0  0
    0.4535    3.0300   -1.2577 H   0  0  0  0  0  0  0  0  0  0  0  0
    0.0204   -0.5664   -1.0332 H   0  0  0  0  0  0  0  0  0  0  0  0
    0.4009    2.1670    1.6577 H   0  0  0  0  0  0  0  0  0  0  0  0
   -0.1537    3.7376    0.8822 H   0  0  0  0  0  0  0  0  0  0  0  0
    3.4695    3.6277    2.3437 H   0  0  0  0  0  0  0  0  0  0  0  0
    1.8535    4.0914    2.9148 H   0  0  0  0  0  0  0  0  0  0  0  0
   -5.1908    3.7418    0.1479 H   0  0  0  0  0  0  0  0  0  0  0  0
   -3.8322    3.3376    1.2621 H   0  0  0  0  0  0  0  0  0  0  0  0
   -4.3851    5.5730    2.2560 H   0  0  0  0  0  0  0  0  0  0  0  0
   -3.8383    7.8779    0.6018 H   0  0  0  0  0  0  0  0  0  0  0  0
   -2.2859    7.3586    1.2671 H   0  0  0  0  0  0  0  0  0  0  0  0
   -3.2872    9.0591    2.6550 H   0  0  0  0  0  0  0  0  0  0  0  0
   -3.8900    7.2374    4.4632 H   0  0  0  0  0  0  0  0  0  0  0  0
   -5.4181    8.5949    3.8891 H   0  0  0  0  0  0  0  0  0  0  0  0
   -5.5978    8.9695    2.1776 H   0  0  0  0  0  0  0  0  0  0  0  0
   -5.7401    7.2444    2.7927 H   0  0  0  0  0  0  0  0  0  0  0  0
   -7.9224    1.2244   -0.8429 H   0  0  0  0  0  0  0  0  0  0  0  0
   -8.5146   -0.9394   -2.9656 H   0  0  0  0  0  0  0  0  0  0  0  0
   -9.6508    0.0094   -2.0192 H   0  0  0  0  0  0  0  0  0  0  0  0
   -7.9085   -2.1906   -0.9467 H   0  0  0  0  0  0  0  0  0  0  0  0
   -8.8065   -1.0381    0.1413 H   0  0  0  0  0  0  0  0  0  0  0  0
   -9.7101   -2.0170   -1.0285 H   0  0  0  0  0  0  0  0  0  0  0  0
   -8.7597    1.4349   -3.4134 H   0  0  0  0  0  0  0  0  0  0  0  0
   -7.6720    2.6096   -2.6960 H   0  0  0  0  0  0  0  0  0  0  0  0
   -7.0584    1.2243   -3.7872 H   0  0  0  0  0  0  0  0  0  0  0  0
  1  2  1  0
  2  3  1  0
  3  4  1  0
  4  5  1  0
  5  6  1  0
  6  7  2  0
  6  8  1  0
  8  9  1  0
  9 10  1  0
 10 11  2  0
 10 12  1  0
  5 13  1  0
 13 14  1  0
 14 15  2  0
 14 16  1  0
 16 17  1  0
 17 18  1  0
 18 19  1  0
 19 20  1  0
 20 21  1  0
 21 22  2  0
 21 23  1  0
 23 24  1  0
 24 25  1  0
 25 26  1  0
 26 27  1  0
 27 28  1  0
 28 29  1  0
 28 30  1  0
 30 31  2  0
 30 32  1  0
 32 33  1  0
 33 34  1  0
 34 35  1  0
 35 36  2  0
 36 37  1  0
 37 38  2  0
 38 39  1  0
 39 40  2  0
 33 41  1  0
 41 42  2  0
 41 43  1  0
 43 44  1  0
 44 45  1  0
 45 46  2  0
 45 47  1  0
 47 48  1  0
 48 49  1  0
 49 50  2  0
 49 51  1  0
 51 52  1  0
 52 53  1  0
 53 54  2  0
 53 55  1  0
 52 56  1  0
 56 57  1  0
 57 58  2  0
 57 59  1  0
 48 60  1  0
 60 61  1  0
 61 62  2  0
 61 63  1  0
 63 64  1  0
 64 65  1  0
 65 66  1  0
 65 67  1  0
 44 68  1  0
 68 69  1  0
 69 70  1  0
 68 71  1  0
 20 16  1  0
 55 23  1  0
 40 35  1  0
  1 72  1  0
  1 73  1  0
  2 74  1  0
  2 75  1  0
  3 76  1  0
  3 77  1  0
  4 78  1  0
  4 79  1  0
  5 80  1  1
  8 81  1  0
  9 82  1  0
  9 83  1  0
 12 84  1  0
 12 85  1  0
 13 86  1  0
 16 87  1  1
 17 88  1  0
 17 89  1  0
 18 90  1  0
 18 91  1  0
 19 92  1  0
 19 93  1  0
 23 94  1  1
 24 95  1  0
 24 96  1  0
 27 97  1  0
 27 98  1  0
 28 99  1  6
 29100  1  0
 29101  1  0
 32102  1  0
 33103  1  1
 34104  1  0
 34105  1  0
 36106  1  0
 37107  1  0
 38108  1  0
 39109  1  0
 40110  1  0
 43111  1  0
 44112  1  6
 47113  1  0
 48114  1  6
 51115  1  0
 52116  1  6
 55117  1  0
 56118  1  0
 56119  1  0
 59120  1  0
 59121  1  0
 60122  1  0
 60123  1  0
 63124  1  0
 64125  1  0
 64126  1  0
 65127  1  0
 66128  1  0
 67129  1  0
 67130  1  0
 67131  1  0
 68132  1  1
 69133  1  0
 69134  1  0
 70135  1  0
 70136  1  0
 70137  1  0
 71138  1  0
 71139  1  0
 71140  1  0
M  END
>  <Ligand ID>  (1) 
LIG0001590

>  <Ligand>  (1) 
CHEMBL1817700

>  <SMILES>  (1) 
NCCC[C@@H](C(=O)NCC(=O)N)NC(=O)[C@@H]1CCCN1C(=O)[C@@H]1CSSC[C@H](N)C(=O)N[C@@H](Cc2ccccc2)C(=O)N[C@H](C(=O)N[C@H](C(=O)N[C@H](C(=O)N1)CC(=O)N)CC(=O)NCC(O)C)[C@H](CC)C

>  <CID>  (1) 
53362368.0

>  <ChEMBL ID>  (1) 
nan

>  <InChiKey>  (1) 
MPKZNFGWZQTCCL-FLOQDSOGSA-N

>  <InChi>  (1) 
InChI=1S/C44H69N13O12S2/c1-4-23(2)36-43(68)54-30(18-35(61)49-19-24(3)58)40(65)53-29(17-33(47)59)39(64)55-31(22-71-70-21-26(46)37(62)52-28(41(66)56-36)16-25-10-6-5-7-11-25)44(69)57-15-9-13-32(57)42(67)51-27(12-8-14-45)38(63)50-20-34(48)60/h5-7,10-11,23-24,26-32,36,58H,4,8-9,12-22,45-46H2,1-3H3,(H2,47,59)(H2,48,60)(H,49,61)(H,50,63)(H,51,67)(H,52,62)(H,53,65)(H,54,68)(H,55,64)(H,56,66)/t23-,24?,26-,27-,28-,29-,30-,31-,32-,36-/m0/s1

>  <IUPAC Name>  (1) 
(2S)-N-[(2S)-5-amino-1-[(2-amino-2-oxoethyl)amino]-1-oxopentan-2-yl]-1-[(4R,7S,10S,13S,16S,19R)-19-amino-7-(2-amino-2-oxoethyl)-16-benzyl-13-[(2S)-butan-2-yl]-10-[2-(2-hydroxypropylamino)-2-oxoethyl]-6,9,12,15,18-pentaoxo-1,2-dithia-5,8,11,14,17-pentazacycloicosane-4-carbonyl]pyrrolidine-2-carboxamide

$$$$
