
     RDKit          3D

 23 23  0  0  0  0  0  0  0  0999 V2000
    1.0177    0.7275    1.3902 N   0  0  0  0  0  0  0  0  0  0  0  0
    1.3605   -0.2031    0.3275 C   0  0  1  0  0  0  0  0  0  0  0  0
    0.1090   -0.4586   -0.4780 C   0  0  1  0  0  0  0  0  0  0  0  0
   -1.0884   -1.0335    0.1427 C   0  0  2  0  0  0  0  0  0  0  0  0
   -1.1102    0.4020   -0.1976 C   0  0  2  0  0  0  0  0  0  0  0  0
   -1.9545    0.8247   -1.3524 C   0  0  0  0  0  0  0  0  0  0  0  0
   -2.1853   -0.0233   -2.2587 O   0  0  0  0  0  0  0  0  0  0  0  0
   -2.4841    2.0852   -1.4669 O   0  0  0  0  0  0  0  0  0  0  0  0
   -1.0861   -1.4866    1.5814 C   0  0  0  0  0  0  0  0  0  0  0  0
    2.3806    0.4768   -0.5286 C   0  0  0  0  0  0  0  0  0  0  0  0
    2.7904    1.6553   -0.2673 O   0  0  0  0  0  0  0  0  0  0  0  0
    2.8658   -0.2349   -1.6278 O   0  0  0  0  0  0  0  0  0  0  0  0
    1.3591    1.6965    1.1885 H   0  0  0  0  0  0  0  0  0  0  0  0
    1.4411    0.4169    2.3100 H   0  0  0  0  0  0  0  0  0  0  0  0
    1.7916   -1.1412    0.6942 H   0  0  0  0  0  0  0  0  0  0  0  0
    0.2855   -0.6205   -1.5596 H   0  0  0  0  0  0  0  0  0  0  0  0
   -1.6990   -1.7041   -0.5243 H   0  0  0  0  0  0  0  0  0  0  0  0
   -0.9302    1.1832    0.5827 H   0  0  0  0  0  0  0  0  0  0  0  0
   -3.3589    2.2595   -1.9045 H   0  0  0  0  0  0  0  0  0  0  0  0
   -1.9370   -2.1604    1.7903 H   0  0  0  0  0  0  0  0  0  0  0  0
   -0.1660   -2.0683    1.8106 H   0  0  0  0  0  0  0  0  0  0  0  0
   -1.2040   -0.6366    2.3024 H   0  0  0  0  0  0  0  0  0  0  0  0
    3.8025    0.0434   -1.9550 H   0  0  0  0  0  0  0  0  0  0  0  0
  1  2  1  0
  2  3  1  0
  3  4  1  0
  4  5  1  0
  5  6  1  0
  6  7  2  0
  6  8  1  0
  4  9  1  0
  2 10  1  0
 10 11  2  0
 10 12  1  0
  5  3  1  0
  1 13  1  0
  1 14  1  0
  2 15  1  1
  3 16  1  6
  4 17  1  6
  5 18  1  1
  8 19  1  0
  9 20  1  0
  9 21  1  0
  9 22  1  0
 12 23  1  0
M  END
>  <Ligand ID>  (1) 
LIG0000391

>  <Ligand>  (1) 
CHEMBL334160

>  <SMILES>  (1) 
N[C@@H]([C@H]1[C@H]([C@@H]1C(=O)O)C)C(=O)O

>  <CID>  (1) 
10176324.0

>  <ChEMBL ID>  (1) 
nan

>  <InChiKey>  (1) 
ZLKKUEAUAXFRAV-STGXQOJASA-N

>  <InChi>  (1) 
InChI=1S/C7H11NO4/c1-2-3(4(2)6(9)10)5(8)7(11)12/h2-5H,8H2,1H3,(H,9,10)(H,11,12)/t2-,3+,4+,5+/m1/s1

>  <IUPAC Name>  (1) 
(1S,2S,3R)-2-[(S)-amino(carboxy)methyl]-3-methylcyclopropane-1-carboxylic acid

$$$$
