
     RDKit          3D

 28 30  0  0  0  0  0  0  0  0999 V2000
    2.9449    0.6514    1.1512 C   0  0  0  0  0  0  0  0  0  0  0  0
    2.1152    0.5634    0.0057 N   0  0  0  0  0  0  0  0  0  0  0  0
    1.6067   -0.7138   -0.3563 C   0  0  2  0  0  0  0  0  0  0  0  0
    0.7640   -0.4777   -1.6103 C   0  0  0  0  0  0  0  0  0  0  0  0
   -0.5441    0.0640   -1.2233 C   0  0  0  0  0  0  0  0  0  0  0  0
   -1.2852    0.8067   -2.1218 C   0  0  0  0  0  0  0  0  0  0  0  0
   -2.5266    1.2998   -1.7007 C   0  0  0  0  0  0  0  0  0  0  0  0
   -3.0086    1.0592   -0.4290 C   0  0  0  0  0  0  0  0  0  0  0  0
   -2.2673    0.3228    0.4531 C   0  0  0  0  0  0  0  0  0  0  0  0
   -1.0471   -0.1537    0.0182 C   0  0  0  0  0  0  0  0  0  0  0  0
   -0.4380   -0.8553    0.9905 N   0  0  0  0  0  0  0  0  0  0  0  0
    0.8445   -1.4256    0.7117 C   0  0  0  0  0  0  0  0  0  0  0  0
   -1.2653   -0.8295    2.0479 C   0  0  0  0  0  0  0  0  0  0  0  0
   -1.0559   -1.3815    3.1792 O   0  0  0  0  0  0  0  0  0  0  0  0
   -2.3823   -0.1115    1.7230 N   0  0  0  0  0  0  0  0  0  0  0  0
    3.6576   -0.1736    1.3150 H   0  0  0  0  0  0  0  0  0  0  0  0
    3.5777    1.5771    1.0202 H   0  0  0  0  0  0  0  0  0  0  0  0
    2.3522    0.8602    2.0630 H   0  0  0  0  0  0  0  0  0  0  0  0
    2.6232    0.9405   -0.8250 H   0  0  0  0  0  0  0  0  0  0  0  0
    2.4521   -1.3611   -0.6694 H   0  0  0  0  0  0  0  0  0  0  0  0
    0.6871   -1.4158   -2.1949 H   0  0  0  0  0  0  0  0  0  0  0  0
    1.2690    0.2870   -2.2403 H   0  0  0  0  0  0  0  0  0  0  0  0
   -0.9052    0.9944   -3.1193 H   0  0  0  0  0  0  0  0  0  0  0  0
   -3.1361    1.8877   -2.3811 H   0  0  0  0  0  0  0  0  0  0  0  0
   -3.9678    1.4427   -0.1103 H   0  0  0  0  0  0  0  0  0  0  0  0
    1.4680   -1.4740    1.6051 H   0  0  0  0  0  0  0  0  0  0  0  0
    0.6732   -2.4692    0.3617 H   0  0  0  0  0  0  0  0  0  0  0  0
   -3.2060    0.0856    2.3362 H   0  0  0  0  0  0  0  0  0  0  0  0
  1  2  1  0
  2  3  1  0
  3  4  1  0
  4  5  1  0
  5  6  2  0
  6  7  1  0
  7  8  2  0
  8  9  1  0
  9 10  2  0
 10 11  1  0
 11 12  1  0
 11 13  1  0
 13 14  2  0
 13 15  1  0
 12  3  1  0
 10  5  1  0
 15  9  1  0
  1 16  1  0
  1 17  1  0
  1 18  1  0
  2 19  1  0
  3 20  1  6
  4 21  1  0
  4 22  1  0
  6 23  1  0
  7 24  1  0
  8 25  1  0
 12 26  1  0
 12 27  1  0
 15 28  1  0
M  END
>  <Ligand ID>  (1) 
LIG0004555

>  <Ligand>  (1) 
sumanirole

>  <SMILES>  (1) 
CN[C@@H]1Cc2cccc3c2n(C1)c(=O)[nH]3

>  <CID>  (1) 
9818479.0

>  <ChEMBL ID>  (1) 
nan

>  <InChiKey>  (1) 
RKZSNTNMEFVBDT-MRVPVSSYSA-N

>  <InChi>  (1) 
InChI=1S/C11H13N3O/c1-12-8-5-7-3-2-4-9-10(7)14(6-8)11(15)13-9/h2-4,8,12H,5-6H2,1H3,(H,13,15)/t8-/m1/s1

>  <IUPAC Name>  (1) 
(10R)-10-(methylamino)-1,3-diazatricyclo[6.3.1.04,12]dodeca-4,6,8(12)-trien-2-one

$$$$
