
     RDKit          3D

 38 41  0  0  0  0  0  0  0  0999 V2000
   -4.1193    4.8569    1.2256 Cl  0  0  0  0  0  0  0  0  0  0  0  0
   -3.4795    3.2703    0.8542 C   0  0  0  0  0  0  0  0  0  0  0  0
   -2.1057    3.0250    0.8760 C   0  0  0  0  0  0  0  0  0  0  0  0
   -1.6200    1.7550    0.5770 C   0  0  0  0  0  0  0  0  0  0  0  0
   -2.4303    0.7128    0.2566 C   0  0  0  0  0  0  0  0  0  0  0  0
   -3.8068    0.9718    0.2381 C   0  0  0  0  0  0  0  0  0  0  0  0
   -4.3112    2.2221    0.5308 C   0  0  0  0  0  0  0  0  0  0  0  0
   -4.9087   -0.3519   -0.1734 Cl  0  0  0  0  0  0  0  0  0  0  0  0
   -1.9631   -0.6310   -0.0626 C   0  0  0  0  0  0  0  0  0  0  0  0
   -2.7466   -1.6786   -0.3829 N   0  0  0  0  0  0  0  0  0  0  0  0
   -2.0152   -2.7804   -0.6229 C   0  0  0  0  0  0  0  0  0  0  0  0
   -0.6986   -2.4113   -0.4453 C   0  0  0  0  0  0  0  0  0  0  0  0
   -0.7055   -1.0885   -0.1030 N   0  0  0  0  0  0  0  0  0  0  0  0
    0.4401   -0.4049    0.1454 O   0  0  0  0  0  0  0  0  0  0  0  0
    1.3501    0.0109   -0.8471 C   0  0  0  0  0  0  0  0  0  0  0  0
    2.4866    0.7320   -0.2000 C   0  0  0  0  0  0  0  0  0  0  0  0
    2.4204    2.1042   -0.0100 C   0  0  0  0  0  0  0  0  0  0  0  0
    3.4803    2.7428    0.5880 C   0  0  0  0  0  0  0  0  0  0  0  0
    4.5577    1.9997    0.9718 C   0  0  0  0  0  0  0  0  0  0  0  0
    4.6437    0.6390    0.7929 C   0  0  0  0  0  0  0  0  0  0  0  0
    3.5808   -0.0032    0.1929 C   0  0  0  0  0  0  0  0  0  0  0  0
    0.3258   -3.3282   -0.6192 C   0  0  0  0  0  0  0  0  0  0  0  0
    0.0004   -4.6308   -0.9770 C   0  0  0  0  0  0  0  0  0  0  0  0
   -1.3233   -4.9804   -1.1500 C   0  0  0  0  0  0  0  0  0  0  0  0
   -2.2918   -4.0514   -0.9695 N   0  0  0  0  0  0  0  0  0  0  0  0
   -1.4149    3.8288    1.1272 H   0  0  0  0  0  0  0  0  0  0  0  0
   -0.5627    1.6312    0.6107 H   0  0  0  0  0  0  0  0  0  0  0  0
   -5.3885    2.3446    0.4956 H   0  0  0  0  0  0  0  0  0  0  0  0
    0.8461    0.7542   -1.5083 H   0  0  0  0  0  0  0  0  0  0  0  0
    1.6732   -0.8645   -1.4112 H   0  0  0  0  0  0  0  0  0  0  0  0
    1.5635    2.6654   -0.3201 H   0  0  0  0  0  0  0  0  0  0  0  0
    3.4577    3.8115    0.7495 H   0  0  0  0  0  0  0  0  0  0  0  0
    5.3979    2.5129    1.4470 H   0  0  0  0  0  0  0  0  0  0  0  0
    5.5354    0.1199    1.1260 H   0  0  0  0  0  0  0  0  0  0  0  0
    3.6177   -1.0589    0.0402 H   0  0  0  0  0  0  0  0  0  0  0  0
    1.3616   -3.0562   -0.4843 H   0  0  0  0  0  0  0  0  0  0  0  0
    0.7755   -5.3890   -1.1253 H   0  0  0  0  0  0  0  0  0  0  0  0
   -1.6228   -6.0018   -1.4333 H   0  0  0  0  0  0  0  0  0  0  0  0
  1  2  1  0
  2  3  2  0
  3  4  1  0
  4  5  2  0
  5  6  1  0
  6  7  2  0
  6  8  1  0
  5  9  1  0
  9 10  2  0
 10 11  1  0
 11 12  2  0
 12 13  1  0
 13 14  1  0
 14 15  1  0
 15 16  1  0
 16 17  2  0
 17 18  1  0
 18 19  2  0
 19 20  1  0
 20 21  2  0
 12 22  1  0
 22 23  2  0
 23 24  1  0
 24 25  2  0
  7  2  1  0
 13  9  1  0
 21 16  1  0
 25 11  1  0
  3 26  1  0
  4 27  1  0
  7 28  1  0
 15 29  1  0
 15 30  1  0
 17 31  1  0
 18 32  1  0
 19 33  1  0
 20 34  1  0
 21 35  1  0
 22 36  1  0
 23 37  1  0
 24 38  1  0
M  END
>  <Ligand ID>  (1) 
LIG0002706

>  <Ligand>  (1) 
1-(benzyloxy)-2-(2,4-dichlorophenyl)-1H-imidazo[4,5-b]pyridine

>  <SMILES>  (1) 
Clc1ccc(c(c1)Cl)c1nc2c(n1OCc1ccccc1)cccn2

>  <CID>  (1) 
3730844.0

>  <ChEMBL ID>  (1) 
nan

>  <InChiKey>  (1) 
ODGMNIWCYMMMBK-UHFFFAOYSA-N

>  <InChi>  (1) 
InChI=1S/C19H13Cl2N3O/c20-14-8-9-15(16(21)11-14)19-23-18-17(7-4-10-22-18)24(19)25-12-13-5-2-1-3-6-13/h1-11H,12H2

>  <IUPAC Name>  (1) 
2-(2,4-dichlorophenyl)-1-phenylmethoxyimidazo[4,5-b]pyridine

$$$$
