
     RDKit          3D

145147  0  0  0  0  0  0  0  0999 V2000
   10.8753    1.1511   -3.3863 N   0  0  0  0  0  0  0  0  0  0  0  0
    9.8509    1.8166   -2.6382 C   0  0  0  0  0  0  0  0  0  0  0  0
    8.7336    0.8787   -2.1751 C   0  0  0  0  0  0  0  0  0  0  0  0
    9.3576   -0.1753   -1.3055 C   0  0  0  0  0  0  0  0  0  0  0  0
    8.3558   -1.1507   -0.7595 C   0  0  1  0  0  0  0  0  0  0  0  0
    9.0631   -2.1655    0.0981 C   0  0  0  0  0  0  0  0  0  0  0  0
    8.7672   -2.3163    1.3206 O   0  0  0  0  0  0  0  0  0  0  0  0
   10.0797   -2.9746   -0.4608 N   0  0  0  0  0  0  0  0  0  0  0  0
   10.7788   -3.9810    0.3367 C   0  0  0  0  0  0  0  0  0  0  0  0
   11.7751   -4.6255   -0.5811 C   0  0  0  0  0  0  0  0  0  0  0  0
   12.5420   -5.5440   -0.1906 O   0  0  0  0  0  0  0  0  0  0  0  0
   11.9052   -4.2288   -1.9507 N   0  0  0  0  0  0  0  0  0  0  0  0
    7.3610   -0.4403    0.0557 N   0  0  0  0  0  0  0  0  0  0  0  0
    6.0214   -0.9959    0.1559 C   0  0  0  0  0  0  0  0  0  0  0  0
    5.8658   -2.0589   -0.4772 O   0  0  0  0  0  0  0  0  0  0  0  0
    5.0686   -0.2591    0.9580 C   0  0  2  0  0  0  0  0  0  0  0  0
    5.6882   -0.0974    2.3470 C   0  0  0  0  0  0  0  0  0  0  0  0
    5.1970   -1.3328    3.0621 C   0  0  0  0  0  0  0  0  0  0  0  0
    4.1051   -1.9387    2.1925 C   0  0  0  0  0  0  0  0  0  0  0  0
    3.7983   -0.8454    1.2852 N   0  0  0  0  0  0  0  0  0  0  0  0
    2.4937   -0.3457    0.9014 C   0  0  0  0  0  0  0  0  0  0  0  0
    2.4260    0.5366    0.0076 O   0  0  0  0  0  0  0  0  0  0  0  0
    1.2406   -0.7999    1.5202 C   0  0  2  0  0  0  0  0  0  0  0  0
    0.6324   -2.0402    0.9865 C   0  0  0  0  0  0  0  0  0  0  0  0
    1.6667   -3.4733    0.7788 S   0  0  0  0  0  0  0  0  0  0  0  0
    2.9191   -3.1307   -0.8772 S   0  0  0  0  0  0  0  0  0  0  0  0
    2.1850   -3.7098   -2.3752 C   0  0  0  0  0  0  0  0  0  0  0  0
    0.9084   -3.0904   -2.8223 C   0  0  2  0  0  0  0  0  0  0  0  0
    0.8758   -1.6625   -2.8019 N   0  0  0  0  0  0  0  0  0  0  0  0
   -0.2556   -3.8235   -2.3479 C   0  0  0  0  0  0  0  0  0  0  0  0
   -0.2838   -5.0592   -2.4117 O   0  0  0  0  0  0  0  0  0  0  0  0
   -1.4473   -3.2342   -1.7771 N   0  0  0  0  0  0  0  0  0  0  0  0
   -2.5869   -4.0967   -1.4388 C   0  0  1  0  0  0  0  0  0  0  0  0
   -2.3692   -4.6463   -0.0130 C   0  0  0  0  0  0  0  0  0  0  0  0
   -3.5133   -5.5271    0.3281 C   0  0  0  0  0  0  0  0  0  0  0  0
   -4.6535   -5.0896    0.9642 C   0  0  0  0  0  0  0  0  0  0  0  0
   -5.6526   -5.9843    1.2247 C   0  0  0  0  0  0  0  0  0  0  0  0
   -5.6025   -7.3121    0.8928 C   0  0  0  0  0  0  0  0  0  0  0  0
   -4.4637   -7.7648    0.2540 C   0  0  0  0  0  0  0  0  0  0  0  0
   -3.4516   -6.8683   -0.0121 C   0  0  0  0  0  0  0  0  0  0  0  0
   -3.8634   -3.3610   -1.4739 C   0  0  0  0  0  0  0  0  0  0  0  0
   -4.9591   -3.8967   -1.6941 O   0  0  0  0  0  0  0  0  0  0  0  0
   -3.9555   -1.9336   -1.2339 N   0  0  0  0  0  0  0  0  0  0  0  0
   -5.1994   -1.2021   -1.4334 C   0  0  2  0  0  0  0  0  0  0  0  0
   -4.9802    0.2329   -1.5041 C   0  0  0  0  0  0  0  0  0  0  0  0
   -5.6758    0.9986   -2.1885 O   0  0  0  0  0  0  0  0  0  0  0  0
   -3.9305    0.9176   -0.7605 N   0  0  0  0  0  0  0  0  0  0  0  0
   -3.6832    2.3399   -0.9341 C   0  0  2  0  0  0  0  0  0  0  0  0
   -2.5081    2.8338   -0.1959 C   0  0  0  0  0  0  0  0  0  0  0  0
   -1.9257    3.9203   -0.4301 O   0  0  0  0  0  0  0  0  0  0  0  0
   -1.8916    2.1216    0.9004 N   0  0  0  0  0  0  0  0  0  0  0  0
   -0.7543    2.5823    1.6402 C   0  0  2  0  0  0  0  0  0  0  0  0
    0.2834    1.5367    1.8870 C   0  0  0  0  0  0  0  0  0  0  0  0
    1.2429    1.6708    2.6612 O   0  0  0  0  0  0  0  0  0  0  0  0
    0.2212    0.2948    1.2131 N   0  0  0  0  0  0  0  0  0  0  0  0
   -1.2501    3.0265    3.0264 C   0  0  0  0  0  0  0  0  0  0  0  0
   -2.2222    4.1194    2.9166 C   0  0  0  0  0  0  0  0  0  0  0  0
   -3.4668    3.9358    2.7410 O   0  0  0  0  0  0  0  0  0  0  0  0
   -1.7734    5.4894    3.0093 N   0  0  0  0  0  0  0  0  0  0  0  0
   -4.9301    3.0771   -0.2971 C   0  0  0  0  0  0  0  0  0  0  0  0
   -4.7546    4.5608   -0.4671 C   0  0  0  0  0  0  0  0  0  0  0  0
   -5.9434    5.3143    0.0936 C   0  0  0  0  0  0  0  0  0  0  0  0
   -6.8759    4.7007    0.6890 O   0  0  0  0  0  0  0  0  0  0  0  0
   -5.9437    6.7287   -0.0914 N   0  0  0  0  0  0  0  0  0  0  0  0
   -7.0337    7.5204    0.4088 C   0  0  0  0  0  0  0  0  0  0  0  0
   -6.7757    8.9684    0.0631 C   0  0  0  0  0  0  0  0  0  0  0  0
   -5.4910    9.4142    0.6851 C   0  0  0  0  0  0  0  0  0  0  0  0
   -7.9306    9.8527    0.5068 C   0  0  0  0  0  0  0  0  0  0  0  0
   -6.1489   -1.5436   -0.2563 C   0  0  2  0  0  0  0  0  0  0  0  0
   -7.4207   -0.7959   -0.4635 C   0  0  0  0  0  0  0  0  0  0  0  0
   -8.3322   -1.1577    0.7199 C   0  0  0  0  0  0  0  0  0  0  0  0
   -5.4885   -1.2915    1.0638 C   0  0  0  0  0  0  0  0  0  0  0  0
   10.5187    0.5397   -4.1377 H   0  0  0  0  0  0  0  0  0  0  0  0
   11.6571    0.8014   -2.8280 H   0  0  0  0  0  0  0  0  0  0  0  0
   10.3174    2.3091   -1.7589 H   0  0  0  0  0  0  0  0  0  0  0  0
    9.3680    2.5531   -3.3401 H   0  0  0  0  0  0  0  0  0  0  0  0
    8.3123    0.3638   -3.0667 H   0  0  0  0  0  0  0  0  0  0  0  0
    7.9954    1.4409   -1.6127 H   0  0  0  0  0  0  0  0  0  0  0  0
   10.2421   -0.6616   -1.7430 H   0  0  0  0  0  0  0  0  0  0  0  0
    9.7633    0.3756   -0.4050 H   0  0  0  0  0  0  0  0  0  0  0  0
    7.7781   -1.7175   -1.5214 H   0  0  0  0  0  0  0  0  0  0  0  0
   10.2999   -2.8034   -1.4740 H   0  0  0  0  0  0  0  0  0  0  0  0
   11.3541   -3.5058    1.1445 H   0  0  0  0  0  0  0  0  0  0  0  0
   10.0520   -4.7496    0.6839 H   0  0  0  0  0  0  0  0  0  0  0  0
   11.4067   -4.7505   -2.7294 H   0  0  0  0  0  0  0  0  0  0  0  0
   12.5102   -3.3924   -2.2150 H   0  0  0  0  0  0  0  0  0  0  0  0
    7.6193    0.4455    0.5369 H   0  0  0  0  0  0  0  0  0  0  0  0
    4.9315    0.7638    0.4959 H   0  0  0  0  0  0  0  0  0  0  0  0
    5.2645    0.8499    2.7521 H   0  0  0  0  0  0  0  0  0  0  0  0
    6.7772   -0.0693    2.2524 H   0  0  0  0  0  0  0  0  0  0  0  0
    5.9737   -2.0364    3.3613 H   0  0  0  0  0  0  0  0  0  0  0  0
    4.7573   -0.9524    4.0298 H   0  0  0  0  0  0  0  0  0  0  0  0
    4.4311   -2.8603    1.6980 H   0  0  0  0  0  0  0  0  0  0  0  0
    3.2812   -2.1950    2.8851 H   0  0  0  0  0  0  0  0  0  0  0  0
    1.4183   -0.8357    2.6010 H   0  0  0  0  0  0  0  0  0  0  0  0
   -0.2373   -2.2901    1.6975 H   0  0  0  0  0  0  0  0  0  0  0  0
    0.0476   -1.8071    0.0344 H   0  0  0  0  0  0  0  0  0  0  0  0
    2.1032   -4.8415   -2.3722 H   0  0  0  0  0  0  0  0  0  0  0  0
    2.9623   -3.5543   -3.1980 H   0  0  0  0  0  0  0  0  0  0  0  0
    0.8836   -3.3590   -3.9870 H   0  0  0  0  0  0  0  0  0  0  0  0
    1.4697   -1.2750   -3.5644 H   0  0  0  0  0  0  0  0  0  0  0  0
   -0.0863   -1.3008   -2.9306 H   0  0  0  0  0  0  0  0  0  0  0  0
   -1.4030   -2.2315   -1.6687 H   0  0  0  0  0  0  0  0  0  0  0  0
   -2.5087   -4.9898   -2.0692 H   0  0  0  0  0  0  0  0  0  0  0  0
   -1.4630   -5.2805   -0.0778 H   0  0  0  0  0  0  0  0  0  0  0  0
   -2.2336   -3.8143    0.7006 H   0  0  0  0  0  0  0  0  0  0  0  0
   -4.7482   -4.0689    1.2461 H   0  0  0  0  0  0  0  0  0  0  0  0
   -6.5629   -5.6476    1.7271 H   0  0  0  0  0  0  0  0  0  0  0  0
   -6.4012   -8.0223    1.1018 H   0  0  0  0  0  0  0  0  0  0  0  0
   -4.3714   -8.8236   -0.0354 H   0  0  0  0  0  0  0  0  0  0  0  0
   -2.5432   -7.2308   -0.5202 H   0  0  0  0  0  0  0  0  0  0  0  0
   -3.0799   -1.5212   -0.9119 H   0  0  0  0  0  0  0  0  0  0  0  0
   -5.7202   -1.6079   -2.2925 H   0  0  0  0  0  0  0  0  0  0  0  0
   -3.4246    0.2919   -0.1359 H   0  0  0  0  0  0  0  0  0  0  0  0
   -3.7322    2.7051   -1.9522 H   0  0  0  0  0  0  0  0  0  0  0  0
   -2.3268    1.2390    1.1352 H   0  0  0  0  0  0  0  0  0  0  0  0
   -0.2967    3.4981    1.1877 H   0  0  0  0  0  0  0  0  0  0  0  0
   -0.5073    0.1550    0.5355 H   0  0  0  0  0  0  0  0  0  0  0  0
   -1.6888    2.2018    3.5960 H   0  0  0  0  0  0  0  0  0  0  0  0
   -0.3601    3.4015    3.5776 H   0  0  0  0  0  0  0  0  0  0  0  0
   -1.7914    6.1282    2.1746 H   0  0  0  0  0  0  0  0  0  0  0  0
   -1.4191    5.8527    3.9311 H   0  0  0  0  0  0  0  0  0  0  0  0
   -5.8495    2.7904   -0.8168 H   0  0  0  0  0  0  0  0  0  0  0  0
   -4.9877    2.8396    0.7646 H   0  0  0  0  0  0  0  0  0  0  0  0
   -3.8315    4.9453    0.0454 H   0  0  0  0  0  0  0  0  0  0  0  0
   -4.6694    4.8498   -1.5377 H   0  0  0  0  0  0  0  0  0  0  0  0
   -5.1303    7.1816   -0.6047 H   0  0  0  0  0  0  0  0  0  0  0  0
   -7.0243    7.4662    1.5352 H   0  0  0  0  0  0  0  0  0  0  0  0
   -8.0178    7.1686    0.0786 H   0  0  0  0  0  0  0  0  0  0  0  0
   -6.7233    9.0569   -1.0553 H   0  0  0  0  0  0  0  0  0  0  0  0
   -5.5130   10.4491    1.0782 H   0  0  0  0  0  0  0  0  0  0  0  0
   -5.1468    8.7412    1.5219 H   0  0  0  0  0  0  0  0  0  0  0  0
   -4.6870    9.3811   -0.0947 H   0  0  0  0  0  0  0  0  0  0  0  0
   -7.8900   10.8350    0.0251 H   0  0  0  0  0  0  0  0  0  0  0  0
   -8.8509    9.3515    0.1117 H   0  0  0  0  0  0  0  0  0  0  0  0
   -8.0194    9.8690    1.5961 H   0  0  0  0  0  0  0  0  0  0  0  0
   -6.3459   -2.6226   -0.3560 H   0  0  0  0  0  0  0  0  0  0  0  0
   -7.9300   -1.2192   -1.3669 H   0  0  0  0  0  0  0  0  0  0  0  0
   -7.3428    0.2881   -0.4483 H   0  0  0  0  0  0  0  0  0  0  0  0
   -9.3426   -0.7738    0.5422 H   0  0  0  0  0  0  0  0  0  0  0  0
   -7.8558   -0.7736    1.6546 H   0  0  0  0  0  0  0  0  0  0  0  0
   -8.3759   -2.2699    0.7666 H   0  0  0  0  0  0  0  0  0  0  0  0
   -5.5947   -0.2589    1.4499 H   0  0  0  0  0  0  0  0  0  0  0  0
   -4.4117   -1.6319    1.0468 H   0  0  0  0  0  0  0  0  0  0  0  0
   -5.9463   -1.9534    1.8559 H   0  0  0  0  0  0  0  0  0  0  0  0
  1  2  1  0
  2  3  1  0
  3  4  1  0
  4  5  1  0
  5  6  1  0
  6  7  2  0
  6  8  1  0
  8  9  1  0
  9 10  1  0
 10 11  2  0
 10 12  1  0
  5 13  1  0
 13 14  1  0
 14 15  2  0
 14 16  1  0
 16 17  1  0
 17 18  1  0
 18 19  1  0
 19 20  1  0
 20 21  1  0
 21 22  2  0
 21 23  1  0
 23 24  1  0
 24 25  1  0
 25 26  1  0
 26 27  1  0
 27 28  1  0
 28 29  1  0
 28 30  1  0
 30 31  2  0
 30 32  1  0
 32 33  1  0
 33 34  1  0
 34 35  1  0
 35 36  2  0
 36 37  1  0
 37 38  2  0
 38 39  1  0
 39 40  2  0
 33 41  1  0
 41 42  2  0
 41 43  1  0
 43 44  1  0
 44 45  1  0
 45 46  2  0
 45 47  1  0
 47 48  1  0
 48 49  1  0
 49 50  2  0
 49 51  1  0
 51 52  1  0
 52 53  1  0
 53 54  2  0
 53 55  1  0
 52 56  1  0
 56 57  1  0
 57 58  2  0
 57 59  1  0
 48 60  1  0
 60 61  1  0
 61 62  1  0
 62 63  2  0
 62 64  1  0
 64 65  1  0
 65 66  1  0
 66 67  1  0
 66 68  1  0
 44 69  1  0
 69 70  1  0
 70 71  1  0
 69 72  1  0
 20 16  1  0
 55 23  1  0
 40 35  1  0
  1 73  1  0
  1 74  1  0
  2 75  1  0
  2 76  1  0
  3 77  1  0
  3 78  1  0
  4 79  1  0
  4 80  1  0
  5 81  1  6
  8 82  1  0
  9 83  1  0
  9 84  1  0
 12 85  1  0
 12 86  1  0
 13 87  1  0
 16 88  1  6
 17 89  1  0
 17 90  1  0
 18 91  1  0
 18 92  1  0
 19 93  1  0
 19 94  1  0
 23 95  1  1
 24 96  1  0
 24 97  1  0
 27 98  1  0
 27 99  1  0
 28100  1  6
 29101  1  0
 29102  1  0
 32103  1  0
 33104  1  6
 34105  1  0
 34106  1  0
 36107  1  0
 37108  1  0
 38109  1  0
 39110  1  0
 40111  1  0
 43112  1  0
 44113  1  6
 47114  1  0
 48115  1  6
 51116  1  0
 52117  1  6
 55118  1  0
 56119  1  0
 56120  1  0
 59121  1  0
 59122  1  0
 60123  1  0
 60124  1  0
 61125  1  0
 61126  1  0
 64127  1  0
 65128  1  0
 65129  1  0
 66130  1  0
 67131  1  0
 67132  1  0
 67133  1  0
 68134  1  0
 68135  1  0
 68136  1  0
 69137  1  1
 70138  1  0
 70139  1  0
 71140  1  0
 71141  1  0
 71142  1  0
 72143  1  0
 72144  1  0
 72145  1  0
M  END
>  <Ligand ID>  (1) 
LIG0001596

>  <Ligand>  (1) 
CHEMBL1819559

>  <SMILES>  (1) 
NCCC[C@@H](C(=O)NCC(=O)N)NC(=O)[C@@H]1CCCN1C(=O)[C@@H]1CSSC[C@H](N)C(=O)N[C@@H](Cc2ccccc2)C(=O)N[C@H](C(=O)N[C@H](C(=O)N[C@H](C(=O)N1)CC(=O)N)CCC(=O)NCC(C)C)[C@H](CC)C

>  <CID>  (1) 
53362154.0

>  <ChEMBL ID>  (1) 
nan

>  <InChiKey>  (1) 
XOOLXJZORYCVKF-MRUTUVJXSA-N

>  <InChi>  (1) 
InChI=1S/C46H73N13O11S2/c1-5-26(4)38-45(69)54-30(15-16-37(62)51-21-25(2)3)41(65)56-32(20-35(49)60)42(66)57-33(24-72-71-23-28(48)39(63)55-31(43(67)58-38)19-27-11-7-6-8-12-27)46(70)59-18-10-14-34(59)44(68)53-29(13-9-17-47)40(64)52-22-36(50)61/h6-8,11-12,25-26,28-34,38H,5,9-10,13-24,47-48H2,1-4H3,(H2,49,60)(H2,50,61)(H,51,62)(H,52,64)(H,53,68)(H,54,69)(H,55,63)(H,56,65)(H,57,66)(H,58,67)/t26-,28-,29-,30-,31-,32-,33-,34-,38-/m0/s1

>  <IUPAC Name>  (1) 
(2S)-N-[(2S)-5-amino-1-[(2-amino-2-oxoethyl)amino]-1-oxopentan-2-yl]-1-[(4R,7S,10S,13S,16S,19R)-19-amino-7-(2-amino-2-oxoethyl)-16-benzyl-13-[(2S)-butan-2-yl]-10-[3-(2-methylpropylamino)-3-oxopropyl]-6,9,12,15,18-pentaoxo-1,2-dithia-5,8,11,14,17-pentazacycloicosane-4-carbonyl]pyrrolidine-2-carboxamide

$$$$
