
     RDKit          3D

138143  0  0  0  0  0  0  0  0999 V2000
   -2.0098   -0.0072   -2.3899 C   0  0  0  0  0  0  0  0  0  0  0  0
   -3.0128    0.8964   -1.7483 C   0  0  0  0  0  0  0  0  0  0  0  0
   -2.7317    1.2328   -0.3261 C   0  0  0  0  0  0  0  0  0  0  0  0
   -2.6900    0.1164    0.6596 C   0  0  1  0  0  0  0  0  0  0  0  0
   -3.9719   -0.6305    0.7372 C   0  0  0  0  0  0  0  0  0  0  0  0
   -3.8736   -1.8972    0.5871 O   0  0  0  0  0  0  0  0  0  0  0  0
   -5.2313   -0.0247    0.9576 N   0  0  0  0  0  0  0  0  0  0  0  0
   -6.4019   -0.8800    1.0066 C   0  0  2  0  0  0  0  0  0  0  0  0
   -7.3499   -0.7324   -0.0724 C   0  0  0  0  0  0  0  0  0  0  0  0
   -7.1752    0.2294   -0.8991 O   0  0  0  0  0  0  0  0  0  0  0  0
   -8.4331   -1.6392   -0.2168 N   0  0  0  0  0  0  0  0  0  0  0  0
   -9.4003   -1.6208   -1.2677 C   0  0  0  0  0  0  0  0  0  0  0  0
  -10.4658   -0.6198   -1.1503 C   0  0  0  0  0  0  0  0  0  0  0  0
  -10.4035    0.6693   -1.6287 C   0  0  0  0  0  0  0  0  0  0  0  0
  -11.5062    1.4741   -1.4806 C   0  0  0  0  0  0  0  0  0  0  0  0
  -12.6805    1.0548   -0.8724 C   0  0  0  0  0  0  0  0  0  0  0  0
  -12.7424   -0.2390   -0.3908 C   0  0  0  0  0  0  0  0  0  0  0  0
  -11.6530   -1.0413   -0.5348 C   0  0  0  0  0  0  0  0  0  0  0  0
  -13.9692   -0.7832    0.2767 C   0  0  0  0  0  0  0  0  0  0  0  0
  -13.5159   -1.6859    1.2399 F   0  0  0  0  0  0  0  0  0  0  0  0
  -14.7193   -1.5025   -0.6413 F   0  0  0  0  0  0  0  0  0  0  0  0
  -14.6730    0.1780    0.9326 F   0  0  0  0  0  0  0  0  0  0  0  0
  -11.4767    2.8664   -1.9833 C   0  0  0  0  0  0  0  0  0  0  0  0
  -10.2185    3.2615   -2.3780 F   0  0  0  0  0  0  0  0  0  0  0  0
  -12.3479    2.9994   -3.0283 F   0  0  0  0  0  0  0  0  0  0  0  0
  -11.9293    3.6986   -0.9755 F   0  0  0  0  0  0  0  0  0  0  0  0
   -6.9471   -0.7771    2.3964 C   0  0  0  0  0  0  0  0  0  0  0  0
   -7.2947    0.5712    2.8514 C   0  0  0  0  0  0  0  0  0  0  0  0
   -6.4264    1.3163    3.6727 C   0  0  0  0  0  0  0  0  0  0  0  0
   -6.9612    2.5174    3.9299 N   0  0  0  0  0  0  0  0  0  0  0  0
   -8.1489    2.5868    3.3073 C   0  0  0  0  0  0  0  0  0  0  0  0
   -8.3591    1.3968    2.6447 C   0  0  0  0  0  0  0  0  0  0  0  0
   -9.5184    1.2211    1.9331 C   0  0  0  0  0  0  0  0  0  0  0  0
  -10.4197    2.2606    1.9214 C   0  0  0  0  0  0  0  0  0  0  0  0
  -10.2078    3.4583    2.5882 C   0  0  0  0  0  0  0  0  0  0  0  0
   -9.0455    3.6343    3.3015 C   0  0  0  0  0  0  0  0  0  0  0  0
   -1.5835   -0.7611    0.3713 N   0  0  0  0  0  0  0  0  0  0  0  0
   -0.2968   -0.6607    0.9827 C   0  0  0  0  0  0  0  0  0  0  0  0
    0.0063    0.1967    1.8382 O   0  0  0  0  0  0  0  0  0  0  0  0
    0.6979   -1.6997    0.4981 C   0  0  2  0  0  0  0  0  0  0  0  0
    0.2746   -2.9798    1.1742 C   0  0  0  0  0  0  0  0  0  0  0  0
    1.0426   -2.9780    2.4602 C   0  0  0  0  0  0  0  0  0  0  0  0
    2.1386   -1.9730    2.3619 C   0  0  0  0  0  0  0  0  0  0  0  0
    2.0114   -1.4641    0.9800 N   0  0  0  0  0  0  0  0  0  0  0  0
    3.1241   -0.8300    0.3608 C   0  0  0  0  0  0  0  0  0  0  0  0
    4.1735   -0.7406    1.0806 O   0  0  0  0  0  0  0  0  0  0  0  0
    3.1790   -0.2805   -0.9843 C   0  0  2  0  0  0  0  0  0  0  0  0
    3.0676   -1.3032   -2.1065 C   0  0  0  0  0  0  0  0  0  0  0  0
    4.1125   -2.3279   -2.0966 C   0  0  0  0  0  0  0  0  0  0  0  0
    3.8505   -3.4871   -1.3556 C   0  0  0  0  0  0  0  0  0  0  0  0
    4.7885   -4.4723   -1.3192 C   0  0  0  0  0  0  0  0  0  0  0  0
    5.9899   -4.3543   -1.9952 C   0  0  0  0  0  0  0  0  0  0  0  0
    6.2587   -3.2153   -2.7289 C   0  0  0  0  0  0  0  0  0  0  0  0
    5.3234   -2.2021   -2.7813 C   0  0  0  0  0  0  0  0  0  0  0  0
    4.3889    0.4794   -1.2798 N   0  0  0  0  0  0  0  0  0  0  0  0
    4.3252    1.8742   -1.4710 C   0  0  0  0  0  0  0  0  0  0  0  0
    3.1696    2.4043   -1.3538 O   0  0  0  0  0  0  0  0  0  0  0  0
    5.4263    2.7739   -1.7902 C   0  0  0  0  0  0  0  0  0  0  0  0
    6.7287    2.1902   -1.9240 N   0  0  0  0  0  0  0  0  0  0  0  0
    7.4474    1.5311   -0.8955 C   0  0  0  0  0  0  0  0  0  0  0  0
    6.9765    1.4103    0.2613 O   0  0  0  0  0  0  0  0  0  0  0  0
    8.7962    0.9943   -1.2818 C   0  0  2  0  0  0  0  0  0  0  0  0
    9.4893    0.3597   -0.1900 N   0  0  0  0  0  0  0  0  0  0  0  0
    9.7679   -1.0284   -0.1297 C   0  0  0  0  0  0  0  0  0  0  0  0
    9.3802   -1.7704   -1.0822 O   0  0  0  0  0  0  0  0  0  0  0  0
   10.4856   -1.6905    0.9753 C   0  0  2  0  0  0  0  0  0  0  0  0
   11.9913   -1.5247    0.9043 C   0  0  0  0  0  0  0  0  0  0  0  0
   12.3653   -0.1039    0.9416 C   0  0  0  0  0  0  0  0  0  0  0  0
   12.4967    0.5676   -0.2644 C   0  0  0  0  0  0  0  0  0  0  0  0
   12.8538    1.8965   -0.3520 C   0  0  0  0  0  0  0  0  0  0  0  0
   13.0964    2.6118    0.8035 C   0  0  0  0  0  0  0  0  0  0  0  0
   12.9677    1.9485    2.0090 C   0  0  0  0  0  0  0  0  0  0  0  0
   12.6100    0.6184    2.0856 C   0  0  0  0  0  0  0  0  0  0  0  0
   13.4543    3.9495    0.7066 O   0  0  0  0  0  0  0  0  0  0  0  0
   10.2279   -3.1525    0.8655 N   0  0  0  0  0  0  0  0  0  0  0  0
    9.6397    2.0468   -1.9393 C   0  0  0  0  0  0  0  0  0  0  0  0
   -3.0710    2.1843   -2.5904 C   0  0  0  0  0  0  0  0  0  0  0  0
   -1.0111   -0.0062   -1.9113 H   0  0  0  0  0  0  0  0  0  0  0  0
   -1.8120    0.3725   -3.4511 H   0  0  0  0  0  0  0  0  0  0  0  0
   -2.3400   -1.0636   -2.5060 H   0  0  0  0  0  0  0  0  0  0  0  0
   -4.0472    0.4680   -1.7733 H   0  0  0  0  0  0  0  0  0  0  0  0
   -1.7545    1.8099   -0.3370 H   0  0  0  0  0  0  0  0  0  0  0  0
   -3.4714    2.0341   -0.0250 H   0  0  0  0  0  0  0  0  0  0  0  0
   -2.4273    0.6103    1.6583 H   0  0  0  0  0  0  0  0  0  0  0  0
   -5.2932    1.0044    1.0775 H   0  0  0  0  0  0  0  0  0  0  0  0
   -6.0323   -1.9752    0.9397 H   0  0  0  0  0  0  0  0  0  0  0  0
   -8.5030   -2.3848    0.5415 H   0  0  0  0  0  0  0  0  0  0  0  0
   -8.8070   -1.4754   -2.2203 H   0  0  0  0  0  0  0  0  0  0  0  0
   -9.8405   -2.6620   -1.3219 H   0  0  0  0  0  0  0  0  0  0  0  0
   -9.5061    1.0084   -2.1010 H   0  0  0  0  0  0  0  0  0  0  0  0
  -13.5453    1.6968   -0.7614 H   0  0  0  0  0  0  0  0  0  0  0  0
  -11.7238   -2.0670   -0.1437 H   0  0  0  0  0  0  0  0  0  0  0  0
   -6.1905   -1.2035    3.1132 H   0  0  0  0  0  0  0  0  0  0  0  0
   -7.8497   -1.4281    2.5397 H   0  0  0  0  0  0  0  0  0  0  0  0
   -5.4684    1.0012    4.0565 H   0  0  0  0  0  0  0  0  0  0  0  0
   -6.5060    3.2639    4.5241 H   0  0  0  0  0  0  0  0  0  0  0  0
   -9.6530    0.2807    1.4318 H   0  0  0  0  0  0  0  0  0  0  0  0
  -11.3415    2.1753    1.3832 H   0  0  0  0  0  0  0  0  0  0  0  0
  -10.9332    4.2341    2.5494 H   0  0  0  0  0  0  0  0  0  0  0  0
   -8.8953    4.5678    3.8138 H   0  0  0  0  0  0  0  0  0  0  0  0
   -1.7607   -1.5286   -0.3136 H   0  0  0  0  0  0  0  0  0  0  0  0
    0.5783   -1.7774   -0.6001 H   0  0  0  0  0  0  0  0  0  0  0  0
   -0.8361   -2.9972    1.3488 H   0  0  0  0  0  0  0  0  0  0  0  0
    0.5721   -3.7997    0.4795 H   0  0  0  0  0  0  0  0  0  0  0  0
    1.5228   -3.9803    2.5928 H   0  0  0  0  0  0  0  0  0  0  0  0
    0.3942   -2.8471    3.3513 H   0  0  0  0  0  0  0  0  0  0  0  0
    1.9700   -1.0884    3.0311 H   0  0  0  0  0  0  0  0  0  0  0  0
    3.1380   -2.3609    2.5515 H   0  0  0  0  0  0  0  0  0  0  0  0
    2.3476    0.4445   -1.0717 H   0  0  0  0  0  0  0  0  0  0  0  0
    3.2928   -0.6878   -3.0496 H   0  0  0  0  0  0  0  0  0  0  0  0
    2.0479   -1.6533   -2.3139 H   0  0  0  0  0  0  0  0  0  0  0  0
    2.9325   -3.6270   -0.8141 H   0  0  0  0  0  0  0  0  0  0  0  0
    4.6051   -5.3942   -0.7440 H   0  0  0  0  0  0  0  0  0  0  0  0
    6.7052   -5.1404   -1.9508 H   0  0  0  0  0  0  0  0  0  0  0  0
    7.1853   -3.0756   -3.2753 H   0  0  0  0  0  0  0  0  0  0  0  0
    5.5071   -1.2938   -3.3532 H   0  0  0  0  0  0  0  0  0  0  0  0
    5.3160    0.0103   -1.3592 H   0  0  0  0  0  0  0  0  0  0  0  0
    5.5324    3.5361   -0.9500 H   0  0  0  0  0  0  0  0  0  0  0  0
    5.2037    3.4234   -2.6858 H   0  0  0  0  0  0  0  0  0  0  0  0
    7.1765    2.2654   -2.8894 H   0  0  0  0  0  0  0  0  0  0  0  0
    8.6420    0.1696   -2.0431 H   0  0  0  0  0  0  0  0  0  0  0  0
    9.7935    0.9846    0.6072 H   0  0  0  0  0  0  0  0  0  0  0  0
   10.1620   -1.4076    1.9871 H   0  0  0  0  0  0  0  0  0  0  0  0
   12.3866   -2.0687    1.8092 H   0  0  0  0  0  0  0  0  0  0  0  0
   12.4283   -2.0464    0.0282 H   0  0  0  0  0  0  0  0  0  0  0  0
   12.3140    0.0366   -1.1793 H   0  0  0  0  0  0  0  0  0  0  0  0
   12.9476    2.3906   -1.3137 H   0  0  0  0  0  0  0  0  0  0  0  0
   13.1576    2.5040    2.9202 H   0  0  0  0  0  0  0  0  0  0  0  0
   12.5111    0.1066    3.0314 H   0  0  0  0  0  0  0  0  0  0  0  0
   14.0609    4.3362    1.4110 H   0  0  0  0  0  0  0  0  0  0  0  0
    9.4021   -3.3655    1.4681 H   0  0  0  0  0  0  0  0  0  0  0  0
    9.9498   -3.3649   -0.1176 H   0  0  0  0  0  0  0  0  0  0  0  0
   10.6273    1.6210   -2.2191 H   0  0  0  0  0  0  0  0  0  0  0  0
    9.8730    2.7985   -1.1305 H   0  0  0  0  0  0  0  0  0  0  0  0
    9.1695    2.5353   -2.7887 H   0  0  0  0  0  0  0  0  0  0  0  0
   -3.3411    1.9142   -3.6345 H   0  0  0  0  0  0  0  0  0  0  0  0
   -3.7622    2.9226   -2.1513 H   0  0  0  0  0  0  0  0  0  0  0  0
   -2.0616    2.6477   -2.6502 H   0  0  0  0  0  0  0  0  0  0  0  0
  1  2  1  0
  2  3  1  0
  3  4  1  0
  4  5  1  0
  5  6  2  0
  5  7  1  0
  7  8  1  0
  8  9  1  0
  9 10  2  0
  9 11  1  0
 11 12  1  0
 12 13  1  0
 13 14  2  0
 14 15  1  0
 15 16  2  0
 16 17  1  0
 17 18  2  0
 17 19  1  0
 19 20  1  0
 19 21  1  0
 19 22  1  0
 15 23  1  0
 23 24  1  0
 23 25  1  0
 23 26  1  0
  8 27  1  0
 27 28  1  0
 28 29  2  0
 29 30  1  0
 30 31  1  0
 31 32  2  0
 32 33  1  0
 33 34  2  0
 34 35  1  0
 35 36  2  0
  4 37  1  0
 37 38  1  0
 38 39  2  0
 38 40  1  0
 40 41  1  0
 41 42  1  0
 42 43  1  0
 43 44  1  0
 44 45  1  0
 45 46  2  0
 45 47  1  0
 47 48  1  0
 48 49  1  0
 49 50  2  0
 50 51  1  0
 51 52  2  0
 52 53  1  0
 53 54  2  0
 47 55  1  0
 55 56  1  0
 56 57  2  0
 56 58  1  0
 58 59  1  0
 59 60  1  0
 60 61  2  0
 60 62  1  0
 62 63  1  0
 63 64  1  0
 64 65  2  0
 64 66  1  0
 66 67  1  0
 67 68  1  0
 68 69  2  0
 69 70  1  0
 70 71  2  0
 71 72  1  0
 72 73  2  0
 71 74  1  0
 66 75  1  0
 62 76  1  0
  2 77  1  0
 18 13  1  0
 32 28  1  0
 44 40  1  0
 54 49  1  0
 73 68  1  0
 36 31  1  0
  1 78  1  0
  1 79  1  0
  1 80  1  0
  2 81  1  0
  3 82  1  0
  3 83  1  0
  4 84  1  1
  7 85  1  0
  8 86  1  1
 11 87  1  0
 12 88  1  0
 12 89  1  0
 14 90  1  0
 16 91  1  0
 18 92  1  0
 27 93  1  0
 27 94  1  0
 29 95  1  0
 30 96  1  0
 33 97  1  0
 34 98  1  0
 35 99  1  0
 36100  1  0
 37101  1  0
 40102  1  6
 41103  1  0
 41104  1  0
 42105  1  0
 42106  1  0
 43107  1  0
 43108  1  0
 47109  1  1
 48110  1  0
 48111  1  0
 50112  1  0
 51113  1  0
 52114  1  0
 53115  1  0
 54116  1  0
 55117  1  0
 58118  1  0
 58119  1  0
 59120  1  0
 62121  1  6
 63122  1  0
 66123  1  1
 67124  1  0
 67125  1  0
 69126  1  0
 70127  1  0
 72128  1  0
 73129  1  0
 74130  1  0
 75131  1  0
 75132  1  0
 76133  1  0
 76134  1  0
 76135  1  0
 77136  1  0
 77137  1  0
 77138  1  0
M  END
>  <Ligand ID>  (1) 
LIG0005386

>  <Ligand>  (1) 
H-Tyr-D-Ala-Gly-Phe-Pro-Leu-Trp-NH-3,5-Bzl(CF3)2

>  <SMILES>  (1) 
CC(C[C@@H](C(=O)N[C@H](C(=O)NCc1cc(cc(c1)C(F)(F)F)C(F)(F)F)Cc1c[nH]c2c1cccc2)NC(=O)[C@@H]1CCCN1C(=O)[C@H](Cc1ccccc1)NC(=O)CNC(=O)[C@H](NC(=O)[C@H](Cc1ccc(cc1)O)N)C)C

>  <CID>  (1) 
24768355.0

>  <ChEMBL ID>  (1) 
nan

>  <InChiKey>  (1) 
LWOMHJBSXPGKKS-REAJPLCASA-N

>  <InChi>  (1) 
InChI=1S/C54H61F6N9O8/c1-30(2)20-42(50(75)67-43(25-35-28-62-41-13-8-7-12-39(35)41)49(74)63-27-34-21-36(53(55,56)57)26-37(22-34)54(58,59)60)68-51(76)45-14-9-19-69(45)52(77)44(24-32-10-5-4-6-11-32)66-46(71)29-64-47(72)31(3)65-48(73)40(61)23-33-15-17-38(70)18-16-33/h4-8,10-13,15-18,21-22,26,28,30-31,40,42-45,62,70H,9,14,19-20,23-25,27,29,61H2,1-3H3,(H,63,74)(H,64,72)(H,65,73)(H,66,71)(H,67,75)(H,68,76)/t31-,40+,42+,43+,44+,45+/m1/s1

>  <IUPAC Name>  (1) 
(2S)-1-[(2S)-2-[[2-[[(2R)-2-[[(2S)-2-amino-3-(4-hydroxyphenyl)propanoyl]amino]propanoyl]amino]acetyl]amino]-3-phenylpropanoyl]-N-[(2S)-1-[[(2S)-1-[[3,5-bis(trifluoromethyl)phenyl]methylamino]-3-(1H-indol-3-yl)-1-oxopropan-2-yl]amino]-4-methyl-1-oxopentan-2-yl]pyrrolidine-2-carboxamide

$$$$
