
     RDKit          3D

 44 46  0  0  0  0  0  0  0  0999 V2000
   -9.0074    0.3841    0.7124 F   0  0  0  0  0  0  0  0  0  0  0  0
   -7.6542    0.3703    0.5120 C   0  0  0  0  0  0  0  0  0  0  0  0
   -7.1635    0.9586   -0.6091 C   0  0  0  0  0  0  0  0  0  0  0  0
   -5.7814    0.9698   -0.8603 C   0  0  0  0  0  0  0  0  0  0  0  0
   -4.9727    0.3455    0.1017 C   0  0  0  0  0  0  0  0  0  0  0  0
   -5.5095   -0.2422    1.2313 C   0  0  0  0  0  0  0  0  0  0  0  0
   -6.8803   -0.2499    1.4772 C   0  0  0  0  0  0  0  0  0  0  0  0
   -3.4840    0.3194   -0.1114 C   0  0  0  0  0  0  0  0  0  0  0  0
   -3.0677   -0.7846   -0.8094 O   0  0  0  0  0  0  0  0  0  0  0  0
   -1.8192   -1.1854   -1.1967 C   0  0  0  0  0  0  0  0  0  0  0  0
   -0.7773   -0.3046   -0.7995 C   0  0  0  0  0  0  0  0  0  0  0  0
    0.5342   -0.5653   -1.1083 C   0  0  0  0  0  0  0  0  0  0  0  0
    0.7913   -1.7132   -1.8183 N   0  0  0  0  0  0  0  0  0  0  0  0
   -0.1782   -2.5303   -2.1879 C   0  0  0  0  0  0  0  0  0  0  0  0
   -1.5153   -2.3213   -1.9053 C   0  0  0  0  0  0  0  0  0  0  0  0
   -2.7928   -3.3866   -2.3800 Cl  0  0  0  0  0  0  0  0  0  0  0  0
    1.5914    0.3284   -0.6690 C   0  0  0  0  0  0  0  0  0  0  0  0
    1.2623    1.4038   -0.0513 O   0  0  0  0  0  0  0  0  0  0  0  0
    2.9717    0.0923   -0.8741 N   0  0  0  0  0  0  0  0  0  0  0  0
    3.9586    1.0769   -0.3744 C   0  0  2  0  0  0  0  0  0  0  0  0
    4.8655    1.4030   -1.5081 C   0  0  0  0  0  0  0  0  0  0  0  0
    5.8448    2.3119   -1.2509 F   0  0  0  0  0  0  0  0  0  0  0  0
    5.5231    0.2669   -1.9942 F   0  0  0  0  0  0  0  0  0  0  0  0
    4.0488    1.8077   -2.5696 F   0  0  0  0  0  0  0  0  0  0  0  0
    4.6800    0.5325    0.7771 C   0  0  0  0  0  0  0  0  0  0  0  0
    6.0271    0.5328    0.9804 C   0  0  0  0  0  0  0  0  0  0  0  0
    6.6126   -0.0041    2.1258 C   0  0  0  0  0  0  0  0  0  0  0  0
    5.8024   -0.5584    3.0947 C   0  0  0  0  0  0  0  0  0  0  0  0
    4.4640   -0.5615    2.8968 N   0  0  0  0  0  0  0  0  0  0  0  0
    3.9027   -0.0417    1.7892 C   0  0  0  0  0  0  0  0  0  0  0  0
   -7.7791    1.4420   -1.3614 H   0  0  0  0  0  0  0  0  0  0  0  0
   -5.3938    1.4360   -1.7421 H   0  0  0  0  0  0  0  0  0  0  0  0
   -4.7968   -0.6951    1.9141 H   0  0  0  0  0  0  0  0  0  0  0  0
   -7.2449   -0.7103    2.3538 H   0  0  0  0  0  0  0  0  0  0  0  0
   -3.2044    1.2921   -0.5977 H   0  0  0  0  0  0  0  0  0  0  0  0
   -2.9944    0.3499    0.8883 H   0  0  0  0  0  0  0  0  0  0  0  0
   -1.0009    0.5905   -0.2436 H   0  0  0  0  0  0  0  0  0  0  0  0
    0.0878   -3.4419   -2.7600 H   0  0  0  0  0  0  0  0  0  0  0  0
    3.2788   -0.7725   -1.3717 H   0  0  0  0  0  0  0  0  0  0  0  0
    3.3813    1.9779   -0.0141 H   0  0  0  0  0  0  0  0  0  0  0  0
    6.7104    0.9449    0.2622 H   0  0  0  0  0  0  0  0  0  0  0  0
    7.6839    0.0025    2.2776 H   0  0  0  0  0  0  0  0  0  0  0  0
    6.1684   -0.9955    4.0114 H   0  0  0  0  0  0  0  0  0  0  0  0
    2.8265   -0.0749    1.6922 H   0  0  0  0  0  0  0  0  0  0  0  0
  1  2  1  0
  2  3  2  0
  3  4  1  0
  4  5  2  0
  5  6  1  0
  6  7  2  0
  5  8  1  0
  8  9  1  0
  9 10  1  0
 10 11  2  0
 11 12  1  0
 12 13  2  0
 13 14  1  0
 14 15  2  0
 15 16  1  0
 12 17  1  0
 17 18  2  0
 17 19  1  0
 19 20  1  0
 20 21  1  0
 21 22  1  0
 21 23  1  0
 21 24  1  0
 20 25  1  0
 25 26  2  0
 26 27  1  0
 27 28  2  0
 28 29  1  0
 29 30  2  0
  7  2  1  0
 15 10  1  0
 30 25  1  0
  3 31  1  0
  4 32  1  0
  6 33  1  0
  7 34  1  0
  8 35  1  0
  8 36  1  0
 11 37  1  0
 14 38  1  0
 19 39  1  0
 20 40  1  1
 26 41  1  0
 27 42  1  0
 28 43  1  0
 30 44  1  0
M  END
>  <Ligand ID>  (1) 
LIG0005971

>  <Ligand>  (1) 
CHEMBL3940187

>  <SMILES>  (1) 
Fc1ccc(cc1)COc1cc(ncc1Cl)C(=O)N[C@H](C(F)(F)F)c1cccnc1

>  <CID>  (1) 
76282723.0

>  <ChEMBL ID>  (1) 
nan

>  <InChiKey>  (1) 
QEFMHWGEIHDFRM-SFHVURJKSA-N

>  <InChi>  (1) 
InChI=1S/C20H14ClF4N3O2/c21-15-10-27-16(8-17(15)30-11-12-3-5-14(22)6-4-12)19(29)28-18(20(23,24)25)13-2-1-7-26-9-13/h1-10,18H,11H2,(H,28,29)/t18-/m0/s1

>  <IUPAC Name>  (1) 
5-chloro-4-[(4-fluorophenyl)methoxy]-N-[(1S)-2,2,2-trifluoro-1-pyridin-3-ylethyl]pyridine-2-carboxamide

$$$$
