
     RDKit          3D

124127  0  0  0  0  0  0  0  0999 V2000
   13.6428    0.4022   -1.9487 C   0  0  0  0  0  0  0  0  0  0  0  0
   13.1258    1.7815   -2.2899 C   0  0  0  0  0  0  0  0  0  0  0  0
   12.5681    2.4475   -1.0712 C   0  0  0  0  0  0  0  0  0  0  0  0
   11.4293    1.5995   -0.4964 C   0  0  0  0  0  0  0  0  0  0  0  0
   10.3907    1.4950   -1.5491 C   0  0  0  0  0  0  0  0  0  0  0  0
    9.1796    0.6877   -1.0628 C   0  0  0  0  0  0  0  0  0  0  0  0
    9.5856   -0.6746   -0.7121 C   0  0  0  0  0  0  0  0  0  0  0  0
    8.7014   -1.6943   -0.1688 C   0  0  0  0  0  0  0  0  0  0  0  0
    7.5323   -2.1898   -0.8473 C   0  0  0  0  0  0  0  0  0  0  0  0
    6.2401   -1.5322   -1.0341 C   0  0  0  0  0  0  0  0  0  0  0  0
    5.9703   -0.2694   -1.6706 C   0  0  0  0  0  0  0  0  0  0  0  0
    4.5939    0.2008   -1.9891 C   0  0  0  0  0  0  0  0  0  0  0  0
    3.5086    0.4169   -1.2156 N   0  0  0  0  0  0  0  0  0  0  0  0
    2.6035   -0.4414   -0.6392 C   0  0  2  0  0  0  0  0  0  0  0  0
    1.3767    0.2470   -0.0823 C   0  0  0  0  0  0  0  0  0  0  0  0
    1.2755    1.5110   -0.1048 O   0  0  0  0  0  0  0  0  0  0  0  0
    0.3088   -0.4720    0.4764 N   0  0  0  0  0  0  0  0  0  0  0  0
   -0.8869    0.1065    1.0408 C   0  0  1  0  0  0  0  0  0  0  0  0
   -2.1288   -0.3008    0.3820 C   0  0  0  0  0  0  0  0  0  0  0  0
   -2.0460   -1.0323   -0.6652 O   0  0  0  0  0  0  0  0  0  0  0  0
   -3.4101    0.0720    0.8442 N   0  0  0  0  0  0  0  0  0  0  0  0
   -4.6548   -0.3515    0.1497 C   0  0  2  0  0  0  0  0  0  0  0  0
   -5.6163    0.7500    0.2790 C   0  0  0  0  0  0  0  0  0  0  0  0
   -5.2246    1.7618    0.9626 O   0  0  0  0  0  0  0  0  0  0  0  0
   -6.9075    0.8204   -0.2573 N   0  0  0  0  0  0  0  0  0  0  0  0
   -7.7458    2.0167   -0.0150 C   0  0  2  0  0  0  0  0  0  0  0  0
   -8.8088    1.7161    0.9483 C   0  0  0  0  0  0  0  0  0  0  0  0
   -8.9377    0.4912    1.2924 O   0  0  0  0  0  0  0  0  0  0  0  0
   -9.6811    2.6779    1.5149 N   0  0  0  0  0  0  0  0  0  0  0  0
   -8.1992    2.4520   -1.3703 C   0  0  0  0  0  0  0  0  0  0  0  0
   -9.0750    3.6174   -1.4444 C   0  0  0  0  0  0  0  0  0  0  0  0
   -8.6095    4.9257   -1.6452 C   0  0  0  0  0  0  0  0  0  0  0  0
   -9.6678    5.7626   -1.6224 N   0  0  0  0  0  0  0  0  0  0  0  0
  -10.7765    5.0496   -1.4181 C   0  0  0  0  0  0  0  0  0  0  0  0
  -10.4450    3.7170   -1.3042 C   0  0  0  0  0  0  0  0  0  0  0  0
  -11.4575    2.8067   -1.1067 C   0  0  0  0  0  0  0  0  0  0  0  0
  -12.7836    3.1643   -1.0164 C   0  0  0  0  0  0  0  0  0  0  0  0
  -13.0979    4.5139   -1.1313 C   0  0  0  0  0  0  0  0  0  0  0  0
  -12.0801    5.4456   -1.3320 C   0  0  0  0  0  0  0  0  0  0  0  0
   -5.1206   -1.5255    0.9937 C   0  0  0  0  0  0  0  0  0  0  0  0
   -6.3657   -2.1919    0.5581 C   0  0  0  0  0  0  0  0  0  0  0  0
   -6.2915   -2.7495   -0.8439 C   0  0  0  0  0  0  0  0  0  0  0  0
   -5.2135   -3.7248   -0.9029 N   0  0  0  0  0  0  0  0  0  0  0  0
   -5.3599   -4.8722   -1.4776 C   0  0  0  0  0  0  0  0  0  0  0  0
   -6.5734   -5.2829   -2.0974 N   0  0  0  0  0  0  0  0  0  0  0  0
   -4.2691   -5.7806   -1.5060 N   0  0  0  0  0  0  0  0  0  0  0  0
   -0.9798   -0.0154    2.5149 C   0  0  0  0  0  0  0  0  0  0  0  0
   -0.9696   -1.4180    3.0231 C   0  0  0  0  0  0  0  0  0  0  0  0
    0.2763   -1.9824    3.2757 C   0  0  0  0  0  0  0  0  0  0  0  0
    0.2799   -3.2876    3.7491 C   0  0  0  0  0  0  0  0  0  0  0  0
   -0.8746   -3.9955    3.9618 C   0  0  0  0  0  0  0  0  0  0  0  0
   -2.1126   -3.4410    3.7140 C   0  0  0  0  0  0  0  0  0  0  0  0
   -2.1297   -2.1319    3.2383 C   0  0  0  0  0  0  0  0  0  0  0  0
    3.0971   -1.2896    0.4772 C   0  0  0  0  0  0  0  0  0  0  0  0
    3.6398   -0.5672    1.6405 C   0  0  0  0  0  0  0  0  0  0  0  0
    3.8012    0.7161    1.9211 N   0  0  0  0  0  0  0  0  0  0  0  0
    4.3478    0.8894    3.1574 C   0  0  0  0  0  0  0  0  0  0  0  0
    4.5319   -0.3478    3.6589 N   0  0  0  0  0  0  0  0  0  0  0  0
    4.1135   -1.2509    2.7662 C   0  0  0  0  0  0  0  0  0  0  0  0
   13.8464    0.2971   -0.8497 H   0  0  0  0  0  0  0  0  0  0  0  0
   14.5579    0.1366   -2.4915 H   0  0  0  0  0  0  0  0  0  0  0  0
   12.8302   -0.3287   -2.1750 H   0  0  0  0  0  0  0  0  0  0  0  0
   12.4182    1.7725   -3.1335 H   0  0  0  0  0  0  0  0  0  0  0  0
   14.0123    2.3768   -2.6462 H   0  0  0  0  0  0  0  0  0  0  0  0
   13.3638    2.4362   -0.2811 H   0  0  0  0  0  0  0  0  0  0  0  0
   12.2182    3.4758   -1.2978 H   0  0  0  0  0  0  0  0  0  0  0  0
   11.8959    0.6378   -0.2070 H   0  0  0  0  0  0  0  0  0  0  0  0
   10.9851    2.1492    0.3833 H   0  0  0  0  0  0  0  0  0  0  0  0
   10.7766    0.8832   -2.4149 H   0  0  0  0  0  0  0  0  0  0  0  0
   10.0689    2.5082   -1.8579 H   0  0  0  0  0  0  0  0  0  0  0  0
    8.6321    1.2511   -0.3108 H   0  0  0  0  0  0  0  0  0  0  0  0
    8.5426    0.6734   -2.0039 H   0  0  0  0  0  0  0  0  0  0  0  0
   10.1173   -1.0765   -1.6732 H   0  0  0  0  0  0  0  0  0  0  0  0
   10.5239   -0.6495   -0.0282 H   0  0  0  0  0  0  0  0  0  0  0  0
    9.3614   -2.5836    0.2197 H   0  0  0  0  0  0  0  0  0  0  0  0
    8.3155   -1.3064    0.8751 H   0  0  0  0  0  0  0  0  0  0  0  0
    7.3099   -3.2336   -0.3339 H   0  0  0  0  0  0  0  0  0  0  0  0
    7.8654   -2.6257   -1.8888 H   0  0  0  0  0  0  0  0  0  0  0  0
    5.8507   -1.3963    0.0848 H   0  0  0  0  0  0  0  0  0  0  0  0
    5.5044   -2.3231   -1.4042 H   0  0  0  0  0  0  0  0  0  0  0  0
    6.4518    0.5852   -1.0603 H   0  0  0  0  0  0  0  0  0  0  0  0
    6.5333   -0.2404   -2.6587 H   0  0  0  0  0  0  0  0  0  0  0  0
    4.8126    1.2236   -2.5352 H   0  0  0  0  0  0  0  0  0  0  0  0
    4.2541   -0.4781   -2.8850 H   0  0  0  0  0  0  0  0  0  0  0  0
    3.2621    1.4611   -1.0561 H   0  0  0  0  0  0  0  0  0  0  0  0
    2.1834   -1.1706   -1.4210 H   0  0  0  0  0  0  0  0  0  0  0  0
    0.3367   -1.5395    0.4948 H   0  0  0  0  0  0  0  0  0  0  0  0
   -0.7717    1.2178    0.8412 H   0  0  0  0  0  0  0  0  0  0  0  0
   -3.5553    0.6628    1.6892 H   0  0  0  0  0  0  0  0  0  0  0  0
   -4.4537   -0.6476   -0.8754 H   0  0  0  0  0  0  0  0  0  0  0  0
   -7.2637    0.0398   -0.8300 H   0  0  0  0  0  0  0  0  0  0  0  0
   -7.0970    2.7842    0.4788 H   0  0  0  0  0  0  0  0  0  0  0  0
   -9.4998    3.6960    1.4716 H   0  0  0  0  0  0  0  0  0  0  0  0
  -10.5612    2.3440    2.0051 H   0  0  0  0  0  0  0  0  0  0  0  0
   -7.2506    2.6003   -1.9762 H   0  0  0  0  0  0  0  0  0  0  0  0
   -8.7187    1.6316   -1.9256 H   0  0  0  0  0  0  0  0  0  0  0  0
   -7.5785    5.2364   -1.7960 H   0  0  0  0  0  0  0  0  0  0  0  0
   -9.5713    6.8153   -1.7512 H   0  0  0  0  0  0  0  0  0  0  0  0
  -11.1634    1.7643   -1.0221 H   0  0  0  0  0  0  0  0  0  0  0  0
  -13.5945    2.4742   -0.8655 H   0  0  0  0  0  0  0  0  0  0  0  0
  -14.1325    4.8714   -1.0715 H   0  0  0  0  0  0  0  0  0  0  0  0
  -12.3787    6.4903   -1.4167 H   0  0  0  0  0  0  0  0  0  0  0  0
   -5.2788   -1.1384    2.0251 H   0  0  0  0  0  0  0  0  0  0  0  0
   -4.2517   -2.2199    1.0595 H   0  0  0  0  0  0  0  0  0  0  0  0
   -6.4503   -3.1225    1.2150 H   0  0  0  0  0  0  0  0  0  0  0  0
   -7.2594   -1.6268    0.7958 H   0  0  0  0  0  0  0  0  0  0  0  0
   -7.2208   -3.3154   -1.1063 H   0  0  0  0  0  0  0  0  0  0  0  0
   -6.1622   -1.9398   -1.5636 H   0  0  0  0  0  0  0  0  0  0  0  0
   -7.0133   -4.7467   -2.8797 H   0  0  0  0  0  0  0  0  0  0  0  0
   -7.0758   -6.1488   -1.7880 H   0  0  0  0  0  0  0  0  0  0  0  0
   -4.3745   -6.7623   -1.8658 H   0  0  0  0  0  0  0  0  0  0  0  0
   -3.3004   -5.5288   -1.1715 H   0  0  0  0  0  0  0  0  0  0  0  0
   -1.9522    0.4054    2.8361 H   0  0  0  0  0  0  0  0  0  0  0  0
   -0.2355    0.6151    3.0603 H   0  0  0  0  0  0  0  0  0  0  0  0
    1.1870   -1.4198    3.1072 H   0  0  0  0  0  0  0  0  0  0  0  0
    1.2248   -3.7898    3.9699 H   0  0  0  0  0  0  0  0  0  0  0  0
   -0.8104   -5.0040    4.3308 H   0  0  0  0  0  0  0  0  0  0  0  0
   -3.0452   -3.9648    3.8681 H   0  0  0  0  0  0  0  0  0  0  0  0
   -3.0664   -1.6375    3.0303 H   0  0  0  0  0  0  0  0  0  0  0  0
    2.1890   -1.8860    0.9067 H   0  0  0  0  0  0  0  0  0  0  0  0
    3.7392   -2.1499    0.1749 H   0  0  0  0  0  0  0  0  0  0  0  0
    3.5631    1.5018    1.3167 H   0  0  0  0  0  0  0  0  0  0  0  0
    4.5831    1.8351    3.6344 H   0  0  0  0  0  0  0  0  0  0  0  0
    4.1504   -2.3018    2.9172 H   0  0  0  0  0  0  0  0  0  0  0  0
  1  2  1  0
  2  3  1  0
  3  4  1  0
  4  5  1  0
  5  6  1  0
  6  7  1  0
  7  8  1  0
  8  9  1  0
  9 10  1  0
 10 11  1  0
 11 12  1  0
 12 13  1  0
 13 14  1  0
 14 15  1  0
 15 16  2  0
 15 17  1  0
 17 18  1  0
 18 19  1  0
 19 20  2  0
 19 21  1  0
 21 22  1  0
 22 23  1  0
 23 24  2  0
 23 25  1  0
 25 26  1  0
 26 27  1  0
 27 28  2  0
 27 29  1  0
 26 30  1  0
 30 31  1  0
 31 32  2  0
 32 33  1  0
 33 34  1  0
 34 35  2  0
 35 36  1  0
 36 37  2  0
 37 38  1  0
 38 39  2  0
 22 40  1  0
 40 41  1  0
 41 42  1  0
 42 43  1  0
 43 44  2  3
 44 45  1  0
 44 46  1  0
 18 47  1  0
 47 48  1  0
 48 49  2  0
 49 50  1  0
 50 51  2  0
 51 52  1  0
 52 53  2  0
 14 54  1  0
 54 55  1  0
 55 56  1  0
 56 57  1  0
 57 58  2  0
 58 59  1  0
 35 31  1  0
 53 48  1  0
 59 55  2  0
 39 34  1  0
  1 60  1  0
  1 61  1  0
  1 62  1  0
  2 63  1  0
  2 64  1  0
  3 65  1  0
  3 66  1  0
  4 67  1  0
  4 68  1  0
  5 69  1  0
  5 70  1  0
  6 71  1  0
  6 72  1  0
  7 73  1  0
  7 74  1  0
  8 75  1  0
  8 76  1  0
  9 77  1  0
  9 78  1  0
 10 79  1  0
 10 80  1  0
 11 81  1  0
 11 82  1  0
 12 83  1  0
 12 84  1  0
 13 85  1  0
 14 86  1  6
 17 87  1  0
 18 88  1  1
 21 89  1  0
 22 90  1  6
 25 91  1  0
 26 92  1  1
 29 93  1  0
 29 94  1  0
 30 95  1  0
 30 96  1  0
 32 97  1  0
 33 98  1  0
 36 99  1  0
 37100  1  0
 38101  1  0
 39102  1  0
 40103  1  0
 40104  1  0
 41105  1  0
 41106  1  0
 42107  1  0
 42108  1  0
 45109  1  0
 45110  1  0
 46111  1  0
 46112  1  0
 47113  1  0
 47114  1  0
 49115  1  0
 50116  1  0
 51117  1  0
 52118  1  0
 53119  1  0
 54120  1  0
 54121  1  0
 56122  1  0
 57123  1  0
 59124  1  0
M  END
>  <Ligand ID>  (1) 
LIG0001892

>  <Ligand>  (1) 
CHEMBL195468

>  <SMILES>  (1) 
CCCCCCCCCCCCN[C@H](C(=O)N[C@@H](C(=O)N[C@H](C(=O)N[C@H](C(=O)N)Cc1c[nH]c2c1cccc2)CCCN=C(N)N)Cc1ccccc1)Cc1[nH]cnc1

>  <CID>  (1) 
44400403.0

>  <ChEMBL ID>  (1) 
nan

>  <InChiKey>  (1) 
FLNONEPLTTUUMZ-BTSKBWHGSA-N

>  <InChi>  (1) 
InChI=1S/C44H65N11O4/c1-2-3-4-5-6-7-8-9-10-16-23-49-38(27-33-29-48-30-52-33)42(58)55-39(25-31-18-12-11-13-19-31)43(59)53-36(22-17-24-50-44(46)47)41(57)54-37(40(45)56)26-32-28-51-35-21-15-14-20-34(32)35/h11-15,18-21,28-30,36-39,49,51H,2-10,16-17,22-27H2,1H3,(H2,45,56)(H,48,52)(H,53,59)(H,54,57)(H,55,58)(H4,46,47,50)/t36-,37-,38-,39+/m0/s1

>  <IUPAC Name>  (1) 
(2S)-N-[(2S)-1-amino-3-(1H-indol-3-yl)-1-oxopropan-2-yl]-5-(diaminomethylideneamino)-2-[[(2R)-2-[[(2S)-2-(dodecylamino)-3-(1H-imidazol-5-yl)propanoyl]amino]-3-phenylpropanoyl]amino]pentanamide

$$$$
