
     RDKit          3D

 58 60  0  0  0  0  0  0  0  0999 V2000
    1.0687    1.7630    0.3818 C   0  0  0  0  0  0  0  0  0  0  0  0
    1.6237    0.3991    0.5858 C   0  0  2  0  0  0  0  0  0  0  0  0
    2.6478    0.1741   -0.5360 C   0  0  0  0  0  0  0  0  0  0  0  0
    3.3427   -1.0538   -0.1238 N   0  0  0  0  0  0  0  0  0  0  0  0
    2.5947   -2.2462    0.1694 C   0  0  0  0  0  0  0  0  0  0  0  0
    1.1764   -2.0472    0.5501 C   0  0  0  0  0  0  0  0  0  0  0  0
    0.7041   -0.6825    0.5351 N   0  0  0  0  0  0  0  0  0  0  0  0
   -0.7086   -0.4769    0.4682 C   0  0  0  0  0  0  0  0  0  0  0  0
   -1.2375    0.7581    0.4517 N   0  0  0  0  0  0  0  0  0  0  0  0
   -2.5521    1.0308    0.3900 C   0  0  0  0  0  0  0  0  0  0  0  0
   -3.4321   -0.0509    0.3392 C   0  0  0  0  0  0  0  0  0  0  0  0
   -2.9172   -1.3293    0.3547 C   0  0  0  0  0  0  0  0  0  0  0  0
   -1.5756   -1.5087    0.4184 N   0  0  0  0  0  0  0  0  0  0  0  0
   -4.7722    0.2492    0.2764 O   0  0  0  0  0  0  0  0  0  0  0  0
   -5.8316   -0.6604    0.2187 C   0  0  0  0  0  0  0  0  0  0  0  0
   -7.1193    0.0740    0.1611 C   0  0  0  0  0  0  0  0  0  0  0  0
   -7.8577    0.1079    1.3445 C   0  0  0  0  0  0  0  0  0  0  0  0
   -9.0736    0.7910    1.3254 C   0  0  0  0  0  0  0  0  0  0  0  0
   -9.5251    1.3959    0.2166 N   0  0  0  0  0  0  0  0  0  0  0  0
   -8.8077    1.3645   -0.9380 C   0  0  0  0  0  0  0  0  0  0  0  0
   -7.5802    0.6948   -0.9812 C   0  0  0  0  0  0  0  0  0  0  0  0
   -6.7723    0.6414   -2.2264 C   0  0  0  0  0  0  0  0  0  0  0  0
    4.7724   -1.0545   -0.0162 C   0  0  0  0  0  0  0  0  0  0  0  0
    5.4135   -2.0915    0.3359 O   0  0  0  0  0  0  0  0  0  0  0  0
    5.4765    0.1014   -0.3023 O   0  0  0  0  0  0  0  0  0  0  0  0
    6.8624    0.2501   -0.2423 C   0  0  0  0  0  0  0  0  0  0  0  0
    7.5999   -0.6898   -1.1728 C   0  0  0  0  0  0  0  0  0  0  0  0
    7.1824    1.6656   -0.6969 C   0  0  0  0  0  0  0  0  0  0  0  0
    7.4511    0.0763    1.1372 C   0  0  0  0  0  0  0  0  0  0  0  0
    0.5046    2.1395    1.2833 H   0  0  0  0  0  0  0  0  0  0  0  0
    0.5555    1.9315   -0.5673 H   0  0  0  0  0  0  0  0  0  0  0  0
    1.9611    2.4583    0.3537 H   0  0  0  0  0  0  0  0  0  0  0  0
    2.1768    0.3982    1.5403 H   0  0  0  0  0  0  0  0  0  0  0  0
    3.3368    1.0080   -0.6646 H   0  0  0  0  0  0  0  0  0  0  0  0
    2.1093   -0.0329   -1.4968 H   0  0  0  0  0  0  0  0  0  0  0  0
    2.5924   -2.8395   -0.7927 H   0  0  0  0  0  0  0  0  0  0  0  0
    3.1286   -2.9133    0.8839 H   0  0  0  0  0  0  0  0  0  0  0  0
    0.4712   -2.6611   -0.0563 H   0  0  0  0  0  0  0  0  0  0  0  0
    1.0441   -2.3965    1.6058 H   0  0  0  0  0  0  0  0  0  0  0  0
   -2.9071    2.0578    0.3806 H   0  0  0  0  0  0  0  0  0  0  0  0
   -3.6136   -2.1689    0.3146 H   0  0  0  0  0  0  0  0  0  0  0  0
   -5.8201   -1.4510    0.9703 H   0  0  0  0  0  0  0  0  0  0  0  0
   -5.7370   -1.1723   -0.7834 H   0  0  0  0  0  0  0  0  0  0  0  0
   -7.4983   -0.3811    2.2508 H   0  0  0  0  0  0  0  0  0  0  0  0
   -9.6155    0.7930    2.2662 H   0  0  0  0  0  0  0  0  0  0  0  0
   -9.1976    1.8574   -1.8026 H   0  0  0  0  0  0  0  0  0  0  0  0
   -6.8147   -0.3509   -2.7148 H   0  0  0  0  0  0  0  0  0  0  0  0
   -7.2347    1.3754   -2.9492 H   0  0  0  0  0  0  0  0  0  0  0  0
   -5.7346    1.0012   -2.0681 H   0  0  0  0  0  0  0  0  0  0  0  0
    7.9021   -1.6067   -0.6225 H   0  0  0  0  0  0  0  0  0  0  0  0
    7.0635   -0.8884   -2.1200 H   0  0  0  0  0  0  0  0  0  0  0  0
    8.5465   -0.1832   -1.4539 H   0  0  0  0  0  0  0  0  0  0  0  0
    7.4495    2.3025    0.1894 H   0  0  0  0  0  0  0  0  0  0  0  0
    7.9939    1.6828   -1.4555 H   0  0  0  0  0  0  0  0  0  0  0  0
    6.3017    2.1513   -1.1648 H   0  0  0  0  0  0  0  0  0  0  0  0
    7.7644   -0.9647    1.3551 H   0  0  0  0  0  0  0  0  0  0  0  0
    6.7436    0.5042    1.8625 H   0  0  0  0  0  0  0  0  0  0  0  0
    8.3742    0.7039    1.1765 H   0  0  0  0  0  0  0  0  0  0  0  0
  1  2  1  0
  2  3  1  0
  3  4  1  0
  4  5  1  0
  5  6  1  0
  6  7  1  0
  7  8  1  0
  8  9  2  0
  9 10  1  0
 10 11  2  0
 11 12  1  0
 12 13  2  0
 11 14  1  0
 14 15  1  0
 15 16  1  0
 16 17  2  0
 17 18  1  0
 18 19  2  0
 19 20  1  0
 20 21  2  0
 21 22  1  0
  4 23  1  0
 23 24  2  0
 23 25  1  0
 25 26  1  0
 26 27  1  0
 26 28  1  0
 26 29  1  0
  7  2  1  0
 13  8  1  0
 21 16  1  0
  1 30  1  0
  1 31  1  0
  1 32  1  0
  2 33  1  1
  3 34  1  0
  3 35  1  0
  5 36  1  0
  5 37  1  0
  6 38  1  0
  6 39  1  0
 10 40  1  0
 12 41  1  0
 15 42  1  0
 15 43  1  0
 17 44  1  0
 18 45  1  0
 20 46  1  0
 22 47  1  0
 22 48  1  0
 22 49  1  0
 27 50  1  0
 27 51  1  0
 27 52  1  0
 28 53  1  0
 28 54  1  0
 28 55  1  0
 29 56  1  0
 29 57  1  0
 29 58  1  0
M  END
>  <Ligand ID>  (1) 
LIG0005288

>  <Ligand>  (1) 
CHEMBL2086683

>  <SMILES>  (1) 
C[C@@H]1CN(CCN1c1ncc(cn1)OCc1ccncc1C)C(=O)OC(C)(C)C

>  <CID>  (1) 
60155460.0

>  <ChEMBL ID>  (1) 
nan

>  <InChiKey>  (1) 
ZCIGKFMUVUHIME-MRXNPFEDSA-N

>  <InChi>  (1) 
InChI=1S/C21H29N5O3/c1-15-10-22-7-6-17(15)14-28-18-11-23-19(24-12-18)26-9-8-25(13-16(26)2)20(27)29-21(3,4)5/h6-7,10-12,16H,8-9,13-14H2,1-5H3/t16-/m1/s1

>  <IUPAC Name>  (1) 
tert-butyl (3R)-3-methyl-4-[5-[(3-methylpyridin-4-yl)methoxy]pyrimidin-2-yl]piperazine-1-carboxylate

$$$$
