
     RDKit          3D

 76 78  0  0  0  0  0  0  0  0999 V2000
   -2.3494    7.1513   -1.6824 N   0  0  0  0  0  0  0  0  0  0  0  0
   -3.0808    6.2521   -2.5171 C   0  0  0  0  0  0  0  0  0  0  0  0
   -2.6397    5.0382   -2.6867 N   0  0  0  0  0  0  0  0  0  0  0  0
   -1.4117    4.6480   -2.0136 C   0  0  0  0  0  0  0  0  0  0  0  0
   -1.2496    3.1293   -2.1354 C   0  0  0  0  0  0  0  0  0  0  0  0
    0.0461    2.7487   -1.4275 C   0  0  0  0  0  0  0  0  0  0  0  0
    0.2584    1.2468   -1.5192 C   0  0  1  0  0  0  0  0  0  0  0  0
    1.5273    0.9550   -0.8197 C   0  0  0  0  0  0  0  0  0  0  0  0
    2.5847    1.4636   -1.2892 O   0  0  0  0  0  0  0  0  0  0  0  0
    1.6507    0.1485    0.3360 N   0  0  0  0  0  0  0  0  0  0  0  0
    2.8964   -0.1296    1.0071 C   0  0  1  0  0  0  0  0  0  0  0  0
    2.7680    0.3093    2.4169 C   0  0  0  0  0  0  0  0  0  0  0  0
    3.7340    0.1762    3.2343 O   0  0  0  0  0  0  0  0  0  0  0  0
    1.5870    0.8972    2.9491 N   0  0  0  0  0  0  0  0  0  0  0  0
    3.1128   -1.6303    0.8765 C   0  0  0  0  0  0  0  0  0  0  0  0
    4.3741   -1.9866    1.5456 C   0  0  0  0  0  0  0  0  0  0  0  0
    4.4376   -2.6162    2.7698 C   0  0  0  0  0  0  0  0  0  0  0  0
    5.7018   -2.8287    3.1476 N   0  0  0  0  0  0  0  0  0  0  0  0
    6.4664   -2.3336    2.1629 C   0  0  0  0  0  0  0  0  0  0  0  0
    5.6837   -1.8085    1.1618 C   0  0  0  0  0  0  0  0  0  0  0  0
    6.2154   -1.2321    0.0272 C   0  0  0  0  0  0  0  0  0  0  0  0
    7.5944   -1.1765   -0.1164 C   0  0  0  0  0  0  0  0  0  0  0  0
    8.3973   -1.7049    0.8903 C   0  0  0  0  0  0  0  0  0  0  0  0
    7.8332   -2.2647    1.9934 C   0  0  0  0  0  0  0  0  0  0  0  0
   -0.8152    0.5919   -0.8159 N   0  0  0  0  0  0  0  0  0  0  0  0
   -1.6325   -0.3311   -1.5206 C   0  0  0  0  0  0  0  0  0  0  0  0
   -1.3612   -0.5372   -2.7540 O   0  0  0  0  0  0  0  0  0  0  0  0
   -2.7629   -1.0692   -0.9591 C   0  0  1  0  0  0  0  0  0  0  0  0
   -2.6903   -2.5621   -1.1993 C   0  0  0  0  0  0  0  0  0  0  0  0
   -3.8908   -3.1886   -0.6314 C   0  0  0  0  0  0  0  0  0  0  0  0
   -5.0365   -3.2012   -1.4386 C   0  0  0  0  0  0  0  0  0  0  0  0
   -6.2155   -3.7817   -1.0119 C   0  0  0  0  0  0  0  0  0  0  0  0
   -6.3286   -4.3767    0.2258 C   0  0  0  0  0  0  0  0  0  0  0  0
   -5.2026   -4.3655    1.0227 C   0  0  0  0  0  0  0  0  0  0  0  0
   -4.0080   -3.7793    0.5923 C   0  0  0  0  0  0  0  0  0  0  0  0
   -2.9689   -0.7176    0.4367 N   0  0  0  0  0  0  0  0  0  0  0  0
   -2.1944   -1.1994    1.5038 C   0  0  0  0  0  0  0  0  0  0  0  0
   -1.2335   -1.9915    1.3424 O   0  0  0  0  0  0  0  0  0  0  0  0
   -2.4854   -0.7825    2.9050 C   0  0  0  0  0  0  0  0  0  0  0  0
   -4.2610    6.7088   -3.1360 N   0  0  0  0  0  0  0  0  0  0  0  0
   -1.9856    8.0142   -2.1397 H   0  0  0  0  0  0  0  0  0  0  0  0
   -2.2082    6.9248   -0.6886 H   0  0  0  0  0  0  0  0  0  0  0  0
   -1.4653    4.9382   -0.9407 H   0  0  0  0  0  0  0  0  0  0  0  0
   -0.5408    5.1267   -2.4746 H   0  0  0  0  0  0  0  0  0  0  0  0
   -2.0961    2.6217   -1.6214 H   0  0  0  0  0  0  0  0  0  0  0  0
   -1.2062    2.8516   -3.1959 H   0  0  0  0  0  0  0  0  0  0  0  0
    0.8731    3.3103   -1.9082 H   0  0  0  0  0  0  0  0  0  0  0  0
   -0.0217    3.0612   -0.3807 H   0  0  0  0  0  0  0  0  0  0  0  0
    0.2857    0.9473   -2.5860 H   0  0  0  0  0  0  0  0  0  0  0  0
    0.7803   -0.2677    0.7217 H   0  0  0  0  0  0  0  0  0  0  0  0
    3.7149    0.4316    0.5053 H   0  0  0  0  0  0  0  0  0  0  0  0
    1.3292    1.8588    2.6236 H   0  0  0  0  0  0  0  0  0  0  0  0
    1.0204    0.3583    3.6398 H   0  0  0  0  0  0  0  0  0  0  0  0
    3.1827   -1.8083   -0.2282 H   0  0  0  0  0  0  0  0  0  0  0  0
    2.2488   -2.1599    1.3191 H   0  0  0  0  0  0  0  0  0  0  0  0
    3.5843   -2.9162    3.3764 H   0  0  0  0  0  0  0  0  0  0  0  0
    6.0070   -3.2916    4.0428 H   0  0  0  0  0  0  0  0  0  0  0  0
    5.5560   -0.8273   -0.7435 H   0  0  0  0  0  0  0  0  0  0  0  0
    8.0410   -0.7237   -1.0066 H   0  0  0  0  0  0  0  0  0  0  0  0
    9.4706   -1.6808    0.8122 H   0  0  0  0  0  0  0  0  0  0  0  0
    8.4420   -2.6737    2.7736 H   0  0  0  0  0  0  0  0  0  0  0  0
   -1.0143    0.7696    0.1899 H   0  0  0  0  0  0  0  0  0  0  0  0
   -3.7020   -0.7651   -1.4993 H   0  0  0  0  0  0  0  0  0  0  0  0
   -2.7204   -2.6835   -2.3059 H   0  0  0  0  0  0  0  0  0  0  0  0
   -1.7691   -3.0023   -0.7619 H   0  0  0  0  0  0  0  0  0  0  0  0
   -5.0053   -2.7440   -2.4300 H   0  0  0  0  0  0  0  0  0  0  0  0
   -7.1017   -3.7796   -1.6649 H   0  0  0  0  0  0  0  0  0  0  0  0
   -7.2683   -4.8148    0.5144 H   0  0  0  0  0  0  0  0  0  0  0  0
   -5.2923   -4.8313    1.9900 H   0  0  0  0  0  0  0  0  0  0  0  0
   -3.1903   -3.8391    1.2822 H   0  0  0  0  0  0  0  0  0  0  0  0
   -3.7557   -0.0480    0.7002 H   0  0  0  0  0  0  0  0  0  0  0  0
   -2.8606    0.2649    2.8512 H   0  0  0  0  0  0  0  0  0  0  0  0
   -1.6282   -0.8885    3.5834 H   0  0  0  0  0  0  0  0  0  0  0  0
   -3.3136   -1.3964    3.2768 H   0  0  0  0  0  0  0  0  0  0  0  0
   -4.8957    7.3610   -2.6012 H   0  0  0  0  0  0  0  0  0  0  0  0
   -4.5458    6.4320   -4.1119 H   0  0  0  0  0  0  0  0  0  0  0  0
  1  2  1  0
  2  3  2  3
  3  4  1  0
  4  5  1  0
  5  6  1  0
  6  7  1  0
  7  8  1  0
  8  9  2  0
  8 10  1  0
 10 11  1  0
 11 12  1  0
 12 13  2  0
 12 14  1  0
 11 15  1  0
 15 16  1  0
 16 17  2  0
 17 18  1  0
 18 19  1  0
 19 20  2  0
 20 21  1  0
 21 22  2  0
 22 23  1  0
 23 24  2  0
  7 25  1  0
 25 26  1  0
 26 27  2  0
 26 28  1  0
 28 29  1  0
 29 30  1  0
 30 31  2  0
 31 32  1  0
 32 33  2  0
 33 34  1  0
 34 35  2  0
 28 36  1  0
 36 37  1  0
 37 38  2  0
 37 39  1  0
  2 40  1  0
 20 16  1  0
 35 30  1  0
 24 19  1  0
  1 41  1  0
  1 42  1  0
  4 43  1  0
  4 44  1  0
  5 45  1  0
  5 46  1  0
  6 47  1  0
  6 48  1  0
  7 49  1  6
 10 50  1  0
 11 51  1  6
 14 52  1  0
 14 53  1  0
 15 54  1  0
 15 55  1  0
 17 56  1  0
 18 57  1  0
 21 58  1  0
 22 59  1  0
 23 60  1  0
 24 61  1  0
 25 62  1  0
 28 63  1  6
 29 64  1  0
 29 65  1  0
 31 66  1  0
 32 67  1  0
 33 68  1  0
 34 69  1  0
 35 70  1  0
 36 71  1  0
 39 72  1  0
 39 73  1  0
 39 74  1  0
 40 75  1  0
 40 76  1  0
M  END
>  <Ligand ID>  (1) 
LIG0003317

>  <Ligand>  (1) 
CHEMBL65339

>  <SMILES>  (1) 
NC(=NCCC[C@@H](C(=O)N[C@@H](C(=O)N)Cc1c[nH]c2c1cccc2)NC(=O)[C@@H](Cc1ccccc1)NC(=O)C)N

>  <CID>  (1) 
9893728.0

>  <ChEMBL ID>  (1) 
nan

>  <InChiKey>  (1) 
LUCUFURZWPZEOH-RBZQAINGSA-N

>  <InChi>  (1) 
InChI=1S/C28H36N8O4/c1-17(37)34-24(14-18-8-3-2-4-9-18)27(40)35-22(12-7-13-32-28(30)31)26(39)36-23(25(29)38)15-19-16-33-21-11-6-5-10-20(19)21/h2-6,8-11,16,22-24,33H,7,12-15H2,1H3,(H2,29,38)(H,34,37)(H,35,40)(H,36,39)(H4,30,31,32)/t22-,23+,24+/m0/s1

>  <IUPAC Name>  (1) 
(2S)-2-[[(2R)-2-acetamido-3-phenylpropanoyl]amino]-N-[(2R)-1-amino-3-(1H-indol-3-yl)-1-oxopropan-2-yl]-5-(diaminomethylideneamino)pentanamide

$$$$
