
     RDKit          3D

 62 68  0  0  0  0  0  0  0  0999 V2000
   -3.2022    3.2918   -0.2784 C   0  0  0  0  0  0  0  0  0  0  0  0
   -2.1788    2.3139   -0.0005 N   0  0  0  0  0  0  0  0  0  0  0  0
   -2.3751    1.7973    1.3125 C   0  0  0  0  0  0  0  0  0  0  0  0
   -1.6392    0.5453    1.6602 C   0  0  0  0  0  0  0  0  0  0  0  0
   -1.0590   -0.2230    0.5483 C   0  0  2  0  0  0  0  0  0  0  0  0
   -0.8536    0.5303   -0.7503 C   0  0  2  0  0  0  0  0  0  0  0  0
   -2.1302    1.2540   -1.0034 C   0  0  0  0  0  0  0  0  0  0  0  0
   -3.3501    0.3744   -0.9177 C   0  0  0  0  0  0  0  0  0  0  0  0
   -3.1083   -1.0180   -0.5147 C   0  0  0  0  0  0  0  0  0  0  0  0
   -1.9667   -1.3091    0.1488 C   0  0  0  0  0  0  0  0  0  0  0  0
   -1.4870   -2.4977    0.5694 C   0  0  0  0  0  0  0  0  0  0  0  0
   -0.2778   -2.2597    1.1801 O   0  0  0  0  0  0  0  0  0  0  0  0
    0.2159   -0.9348    0.9243 C   0  0  1  0  0  0  0  0  0  0  0  0
    1.1693   -0.9214   -0.2029 C   0  0  1  0  0  0  0  0  0  0  0  0
    0.4754   -1.5134   -1.4100 C   0  0  0  0  0  0  0  0  0  0  0  0
   -0.5509   -0.4660   -1.8471 C   0  0  0  0  0  0  0  0  0  0  0  0
    1.5293    0.4818   -0.6656 C   0  0  1  0  0  0  0  0  0  0  0  0
    0.3443    1.3964   -0.5212 C   0  0  0  0  0  0  0  0  0  0  0  0
    2.7466    0.8282    0.0913 C   0  0  0  0  0  0  0  0  0  0  0  0
    3.7451    1.5560   -0.8206 C   0  0  0  0  0  0  0  0  0  0  0  0
    2.5820    1.6955    1.2912 C   0  0  0  0  0  0  0  0  0  0  0  0
    3.2748   -0.5216    0.4902 C   0  0  0  0  0  0  0  0  0  0  0  0
    2.3852   -1.4867    0.0695 O   0  0  0  0  0  0  0  0  0  0  0  0
    4.5582   -0.7732   -0.2837 C   0  0  0  0  0  0  0  0  0  0  0  0
    3.6575   -0.6262    1.9369 C   0  0  0  0  0  0  0  0  0  0  0  0
   -2.3105   -3.5946    0.2745 C   0  0  0  0  0  0  0  0  0  0  0  0
   -3.5179   -3.3826   -0.4095 C   0  0  0  0  0  0  0  0  0  0  0  0
   -3.9247   -2.1012   -0.8083 C   0  0  0  0  0  0  0  0  0  0  0  0
   -1.8922   -4.8428    0.6738 O   0  0  0  0  0  0  0  0  0  0  0  0
   -3.4917    3.7475    0.6907 H   0  0  0  0  0  0  0  0  0  0  0  0
   -4.1179    2.8908   -0.7324 H   0  0  0  0  0  0  0  0  0  0  0  0
   -2.7826    4.0408   -0.9684 H   0  0  0  0  0  0  0  0  0  0  0  0
   -2.0863    2.6118    2.0271 H   0  0  0  0  0  0  0  0  0  0  0  0
   -3.4917    1.6661    1.4417 H   0  0  0  0  0  0  0  0  0  0  0  0
   -0.9057    0.7143    2.5022 H   0  0  0  0  0  0  0  0  0  0  0  0
   -2.3992   -0.1323    2.1652 H   0  0  0  0  0  0  0  0  0  0  0  0
   -2.1015    1.7287   -1.9891 H   0  0  0  0  0  0  0  0  0  0  0  0
   -4.1438    0.7662   -0.2486 H   0  0  0  0  0  0  0  0  0  0  0  0
   -3.8535    0.3337   -1.9297 H   0  0  0  0  0  0  0  0  0  0  0  0
    0.5504   -0.5012    1.8695 H   0  0  0  0  0  0  0  0  0  0  0  0
    0.0700   -2.5092   -1.2801 H   0  0  0  0  0  0  0  0  0  0  0  0
    1.2886   -1.5949   -2.1853 H   0  0  0  0  0  0  0  0  0  0  0  0
   -0.0600    0.1254   -2.6503 H   0  0  0  0  0  0  0  0  0  0  0  0
   -1.4201   -0.9334   -2.3019 H   0  0  0  0  0  0  0  0  0  0  0  0
    1.7929    0.4620   -1.7413 H   0  0  0  0  0  0  0  0  0  0  0  0
    0.2455    1.8221    0.4942 H   0  0  0  0  0  0  0  0  0  0  0  0
    0.4047    2.2292   -1.2480 H   0  0  0  0  0  0  0  0  0  0  0  0
    4.0567    0.8943   -1.6625 H   0  0  0  0  0  0  0  0  0  0  0  0
    4.5643    2.0226   -0.2753 H   0  0  0  0  0  0  0  0  0  0  0  0
    3.1475    2.3618   -1.3021 H   0  0  0  0  0  0  0  0  0  0  0  0
    3.6184    2.0704    1.5432 H   0  0  0  0  0  0  0  0  0  0  0  0
    2.2490    1.1603    2.2078 H   0  0  0  0  0  0  0  0  0  0  0  0
    2.0237    2.6247    1.0908 H   0  0  0  0  0  0  0  0  0  0  0  0
    4.3817   -1.0935   -1.3249 H   0  0  0  0  0  0  0  0  0  0  0  0
    5.2565    0.0970   -0.2022 H   0  0  0  0  0  0  0  0  0  0  0  0
    5.0946   -1.6049    0.2337 H   0  0  0  0  0  0  0  0  0  0  0  0
    4.3296   -1.5274    2.0283 H   0  0  0  0  0  0  0  0  0  0  0  0
    2.8349   -0.7653    2.6297 H   0  0  0  0  0  0  0  0  0  0  0  0
    4.2951    0.2184    2.1979 H   0  0  0  0  0  0  0  0  0  0  0  0
   -4.1625   -4.2467   -0.6387 H   0  0  0  0  0  0  0  0  0  0  0  0
   -4.8481   -1.9248   -1.3350 H   0  0  0  0  0  0  0  0  0  0  0  0
   -1.1991   -5.3471    0.1567 H   0  0  0  0  0  0  0  0  0  0  0  0
  1  2  1  0
  2  3  1  0
  3  4  1  0
  5  4  1  1
  5  6  1  0
  6  7  1  6
  7  8  1  0
  8  9  1  0
  9 10  1  0
 10 11  2  0
 11 12  1  0
 12 13  1  0
 13 14  1  0
 14 15  1  0
 15 16  1  0
 14 17  1  0
 17 18  1  0
 17 19  1  0
 19 20  1  0
 19 21  1  0
 19 22  1  0
 22 23  1  0
 22 24  1  0
 22 25  1  0
 11 26  1  0
 26 27  2  0
 27 28  1  0
 26 29  1  0
  7  2  1  0
 28  9  2  0
 10  5  1  0
 14 23  1  1
 13  5  1  0
 16  6  1  0
 18  6  1  0
  1 30  1  0
  1 31  1  0
  1 32  1  0
  3 33  1  0
  3 34  1  0
  4 35  1  0
  4 36  1  0
  7 37  1  0
  8 38  1  0
  8 39  1  0
 13 40  1  1
 15 41  1  0
 15 42  1  0
 16 43  1  0
 16 44  1  0
 17 45  1  6
 18 46  1  0
 18 47  1  0
 20 48  1  0
 20 49  1  0
 20 50  1  0
 21 51  1  0
 21 52  1  0
 21 53  1  0
 24 54  1  0
 24 55  1  0
 24 56  1  0
 25 57  1  0
 25 58  1  0
 25 59  1  0
 27 60  1  0
 28 61  1  0
 29 62  1  0
M  END
>  <Ligand ID>  (1) 
LIG0003555

>  <Ligand>  (1) 
CHEMBL2110315

>  <SMILES>  (1) 
CN1CC[C@]23[C@]45C1Cc1c2c(O[C@H]3[C@@]2(CC4)[C@@H](C5)C(C)(C)C(O2)(C)C)c(cc1)O

>  <CID>  (1) 
70693567.0

>  <ChEMBL ID>  (1) 
nan

>  <InChiKey>  (1) 
FTOZVQKYOSPMCR-KHYIZFIASA-N

>  <InChi>  (1) 
InChI=1S/C25H33NO3/c1-21(2)16-13-23-8-9-25(16,29-22(21,3)4)20-24(23)10-11-26(5)17(23)12-14-6-7-15(27)19(28-20)18(14)24/h6-7,16-17,20,27H,8-13H2,1-5H3/t16-,17?,20+,23+,24-,25+/m0/s1

>  <IUPAC Name>  (1) 
(1S,2S,14R,15R,19S)-5,17,17,18,18-pentamethyl-13,16-dioxa-5-azaheptacyclo[13.5.2.12,8.01,6.02,14.015,19.012,23]tricosa-8(23),9,11-trien-11-ol

$$$$
