
     RDKit          3D

179184  0  0  0  0  0  0  0  0999 V2000
   -1.5963    7.7451   -1.5936 N   0  0  0  0  0  0  0  0  0  0  0  0
   -1.3790    6.4192   -1.2696 N   0  0  0  0  0  0  0  0  0  0  0  0
   -1.4582    6.2081    0.1406 C   0  0  2  0  0  0  0  0  0  0  0  0
   -1.1325    4.7500    0.4391 C   0  0  0  0  0  0  0  0  0  0  0  0
   -1.0574    4.4202    1.6506 O   0  0  0  0  0  0  0  0  0  0  0  0
   -0.9382    3.8518   -0.6488 N   0  0  0  0  0  0  0  0  0  0  0  0
   -0.6387    2.4674   -0.5348 C   0  0  2  0  0  0  0  0  0  0  0  0
    0.5075    1.9832   -1.3375 C   0  0  0  0  0  0  0  0  0  0  0  0
    2.0796    2.6731   -0.9509 S   0  0  0  0  0  0  0  0  0  0  0  0
    2.4924    4.6170   -1.6002 S   0  0  0  0  0  0  0  0  0  0  0  0
    3.3880    4.6900   -3.5144 S   0  0  0  0  0  0  0  0  0  0  0  0
    5.5239    4.6347   -3.4347 S   0  0  0  0  0  0  0  0  0  0  0  0
    6.0181    2.8198   -3.4328 C   0  0  0  0  0  0  0  0  0  0  0  0
    5.4903    2.4008   -2.0454 C   0  0  1  0  0  0  0  0  0  0  0  0
    5.3962    0.9970   -1.8292 N   0  0  0  0  0  0  0  0  0  0  0  0
    4.4555    0.2175   -2.6256 C   0  0  0  0  0  0  0  0  0  0  0  0
    3.8612    0.8692   -3.4889 O   0  0  0  0  0  0  0  0  0  0  0  0
    4.2608   -1.2372   -2.4124 C   0  0  1  0  0  0  0  0  0  0  0  0
    5.3505   -1.9564   -3.2096 C   0  0  0  0  0  0  0  0  0  0  0  0
    5.3643   -3.3976   -3.1513 C   0  0  0  0  0  0  0  0  0  0  0  0
    6.0910   -4.0270   -2.1554 C   0  0  0  0  0  0  0  0  0  0  0  0
    6.2058   -5.3900   -2.0421 C   0  0  0  0  0  0  0  0  0  0  0  0
    5.5445   -6.1613   -2.9951 C   0  0  0  0  0  0  0  0  0  0  0  0
    4.8141   -5.5591   -3.9918 C   0  0  0  0  0  0  0  0  0  0  0  0
    4.7006   -4.1783   -4.1037 C   0  0  0  0  0  0  0  0  0  0  0  0
    4.2915   -1.6477   -1.0236 N   0  0  0  0  0  0  0  0  0  0  0  0
    3.4117   -2.7026   -0.6546 C   0  0  0  0  0  0  0  0  0  0  0  0
    2.8095   -3.2682   -1.5685 O   0  0  0  0  0  0  0  0  0  0  0  0
    3.1856   -3.1668    0.7617 C   0  0  2  0  0  0  0  0  0  0  0  0
    4.3830   -3.2606    1.5940 C   0  0  0  0  0  0  0  0  0  0  0  0
    2.4634   -4.4422    0.7473 N   0  0  0  0  0  0  0  0  0  0  0  0
    1.0763   -4.5811    0.5550 C   0  0  0  0  0  0  0  0  0  0  0  0
    0.4720   -3.4787    0.4237 O   0  0  0  0  0  0  0  0  0  0  0  0
    0.2701   -5.7978    0.4886 C   0  0  1  0  0  0  0  0  0  0  0  0
   -1.1458   -5.4479    0.2443 N   0  0  0  0  0  0  0  0  0  0  0  0
   -2.1170   -6.2331   -0.3841 C   0  0  0  0  0  0  0  0  0  0  0  0
   -1.7563   -7.3019   -0.8942 O   0  0  0  0  0  0  0  0  0  0  0  0
   -3.5619   -5.9180   -0.5206 C   0  0  2  0  0  0  0  0  0  0  0  0
   -4.0262   -4.7762    0.2234 N   0  0  0  0  0  0  0  0  0  0  0  0
   -4.3956   -3.5461   -0.4208 C   0  0  0  0  0  0  0  0  0  0  0  0
   -4.1934   -3.5332   -1.6465 O   0  0  0  0  0  0  0  0  0  0  0  0
   -4.9696   -2.3753    0.3298 C   0  0  1  0  0  0  0  0  0  0  0  0
   -5.0966   -1.2210   -0.5373 N   0  0  0  0  0  0  0  0  0  0  0  0
   -4.2275   -0.0640   -0.3510 C   0  0  0  0  0  0  0  0  0  0  0  0
   -3.4785   -0.1699    0.6312 O   0  0  0  0  0  0  0  0  0  0  0  0
   -4.2575    1.0996   -1.2670 C   0  0  2  0  0  0  0  0  0  0  0  0
   -3.1632    2.0335   -0.8375 N   0  0  0  0  0  0  0  0  0  0  0  0
   -1.8155    1.6073   -0.8713 C   0  0  0  0  0  0  0  0  0  0  0  0
   -1.6307    0.4244   -1.1930 O   0  0  0  0  0  0  0  0  0  0  0  0
   -5.4793    1.9137   -1.3800 C   0  0  0  0  0  0  0  0  0  0  0  0
   -5.9709    2.6274   -0.1748 C   0  0  0  0  0  0  0  0  0  0  0  0
   -6.3921    1.8060    0.9909 C   0  0  0  0  0  0  0  0  0  0  0  0
   -7.5036    0.9649    0.6014 N   0  0  0  0  0  0  0  0  0  0  0  0
   -8.6150    1.0669    1.2090 C   0  0  0  0  0  0  0  0  0  0  0  0
   -8.7595    2.0148    2.2745 N   0  0  0  0  0  0  0  0  0  0  0  0
   -9.7557    0.2746    0.8960 N   0  0  0  0  0  0  0  0  0  0  0  0
   -6.3032   -2.7559    0.9391 C   0  0  0  0  0  0  0  0  0  0  0  0
   -7.2619   -3.1996   -0.0838 C   0  0  0  0  0  0  0  0  0  0  0  0
   -8.0952   -2.4124   -0.8227 C   0  0  0  0  0  0  0  0  0  0  0  0
   -8.9675   -2.9105   -1.7540 C   0  0  0  0  0  0  0  0  0  0  0  0
   -9.0550   -4.2904   -2.0049 C   0  0  0  0  0  0  0  0  0  0  0  0
   -8.2286   -5.0847   -1.2719 C   0  0  0  0  0  0  0  0  0  0  0  0
   -7.3365   -4.5737   -0.3207 C   0  0  0  0  0  0  0  0  0  0  0  0
   -4.3424   -7.1818   -0.3131 C   0  0  0  0  0  0  0  0  0  0  0  0
   -4.1656   -7.8317    0.9892 C   0  0  0  0  0  0  0  0  0  0  0  0
   -3.2864   -8.8488    1.2687 C   0  0  0  0  0  0  0  0  0  0  0  0
   -3.1691   -9.4121    2.5437 C   0  0  0  0  0  0  0  0  0  0  0  0
   -3.9458   -8.9530    3.5719 C   0  0  0  0  0  0  0  0  0  0  0  0
   -4.8436   -7.9226    3.3104 C   0  0  0  0  0  0  0  0  0  0  0  0
   -4.9438   -7.3817    2.0487 C   0  0  0  0  0  0  0  0  0  0  0  0
    0.7567   -6.7734   -0.6070 C   0  0  0  0  0  0  0  0  0  0  0  0
    2.1698   -7.1713   -0.3655 C   0  0  0  0  0  0  0  0  0  0  0  0
    3.0810   -6.8489   -1.1500 O   0  0  0  0  0  0  0  0  0  0  0  0
    2.3940   -7.9498    0.8334 N   0  0  0  0  0  0  0  0  0  0  0  0
    6.3383    3.1113   -1.0498 C   0  0  0  0  0  0  0  0  0  0  0  0
    6.7142    4.2786   -1.4485 O   0  0  0  0  0  0  0  0  0  0  0  0
    6.6721    2.5520    0.1612 N   0  0  0  0  0  0  0  0  0  0  0  0
    7.5412    3.0723    1.2144 C   0  0  2  0  0  0  0  0  0  0  0  0
    6.9438    2.9730    2.5368 C   0  0  0  0  0  0  0  0  0  0  0  0
    5.6696    2.7670    2.5628 O   0  0  0  0  0  0  0  0  0  0  0  0
    7.6155    3.0753    3.8069 C   0  0  0  0  0  0  0  0  0  0  0  0
    8.8448    3.1834    4.0044 O   0  0  0  0  0  0  0  0  0  0  0  0
    6.8066    3.0582    5.0148 N   0  0  0  0  0  0  0  0  0  0  0  0
    7.8549    4.5569    0.8701 C   0  0  0  0  0  0  0  0  0  0  0  0
    8.7197    5.2153    1.8669 C   0  0  0  0  0  0  0  0  0  0  0  0
   10.0975    5.0351    1.6926 C   0  0  0  0  0  0  0  0  0  0  0  0
   11.0346    5.6068    2.5072 C   0  0  0  0  0  0  0  0  0  0  0  0
   10.5394    6.4039    3.5480 C   0  0  0  0  0  0  0  0  0  0  0  0
    9.1885    6.5969    3.7387 C   0  0  0  0  0  0  0  0  0  0  0  0
    8.2431    6.0074    2.9052 C   0  0  0  0  0  0  0  0  0  0  0  0
   11.4967    6.9845    4.3730 O   0  0  0  0  0  0  0  0  0  0  0  0
   -2.8598    6.4354    0.6946 C   0  0  0  0  0  0  0  0  0  0  0  0
   -3.3415    7.7839    0.4498 C   0  0  0  0  0  0  0  0  0  0  0  0
   -3.0933    8.8638    1.2931 C   0  0  0  0  0  0  0  0  0  0  0  0
   -3.6083   10.1228    1.0243 C   0  0  0  0  0  0  0  0  0  0  0  0
   -4.3924   10.3559   -0.0934 C   0  0  0  0  0  0  0  0  0  0  0  0
   -4.6454    9.2946   -0.9353 C   0  0  0  0  0  0  0  0  0  0  0  0
   -4.1360    8.0267   -0.6811 C   0  0  0  0  0  0  0  0  0  0  0  0
   -4.8922   11.6241   -0.3399 O   0  0  0  0  0  0  0  0  0  0  0  0
   -1.1338    8.3547   -0.8909 H   0  0  0  0  0  0  0  0  0  0  0  0
   -1.2587    8.0230   -2.5445 H   0  0  0  0  0  0  0  0  0  0  0  0
   -0.4157    6.1352   -1.6203 H   0  0  0  0  0  0  0  0  0  0  0  0
   -0.7640    6.8269    0.7230 H   0  0  0  0  0  0  0  0  0  0  0  0
   -1.0275    4.2408   -1.6387 H   0  0  0  0  0  0  0  0  0  0  0  0
   -0.4399    2.2642    0.5856 H   0  0  0  0  0  0  0  0  0  0  0  0
    0.5815    0.8527   -1.3335 H   0  0  0  0  0  0  0  0  0  0  0  0
    0.3070    2.1955   -2.4417 H   0  0  0  0  0  0  0  0  0  0  0  0
    7.1082    2.8516   -3.4823 H   0  0  0  0  0  0  0  0  0  0  0  0
    5.4778    2.3033   -4.2030 H   0  0  0  0  0  0  0  0  0  0  0  0
    4.4909    2.8489   -2.0608 H   0  0  0  0  0  0  0  0  0  0  0  0
    5.9252    0.4236   -1.1719 H   0  0  0  0  0  0  0  0  0  0  0  0
    3.2964   -1.5430   -2.8332 H   0  0  0  0  0  0  0  0  0  0  0  0
    5.2883   -1.5969   -4.2656 H   0  0  0  0  0  0  0  0  0  0  0  0
    6.3092   -1.4960   -2.8357 H   0  0  0  0  0  0  0  0  0  0  0  0
    6.5948   -3.4235   -1.4254 H   0  0  0  0  0  0  0  0  0  0  0  0
    6.7770   -5.8493   -1.2428 H   0  0  0  0  0  0  0  0  0  0  0  0
    5.6463   -7.2463   -2.8916 H   0  0  0  0  0  0  0  0  0  0  0  0
    4.3116   -6.1946   -4.7167 H   0  0  0  0  0  0  0  0  0  0  0  0
    4.1127   -3.7191   -4.8956 H   0  0  0  0  0  0  0  0  0  0  0  0
    4.8702   -1.2686   -0.2795 H   0  0  0  0  0  0  0  0  0  0  0  0
    2.4541   -2.4155    1.2144 H   0  0  0  0  0  0  0  0  0  0  0  0
    4.7945   -4.3025    1.7000 H   0  0  0  0  0  0  0  0  0  0  0  0
    5.1699   -2.5324    1.2954 H   0  0  0  0  0  0  0  0  0  0  0  0
    4.1492   -2.9759    2.6646 H   0  0  0  0  0  0  0  0  0  0  0  0
    3.0066   -5.2754    0.9195 H   0  0  0  0  0  0  0  0  0  0  0  0
    0.2504   -6.4559    1.3864 H   0  0  0  0  0  0  0  0  0  0  0  0
   -1.4370   -4.5198    0.5602 H   0  0  0  0  0  0  0  0  0  0  0  0
   -3.7531   -5.6611   -1.6354 H   0  0  0  0  0  0  0  0  0  0  0  0
   -4.1268   -4.7574    1.2387 H   0  0  0  0  0  0  0  0  0  0  0  0
   -4.2293   -2.1606    1.1215 H   0  0  0  0  0  0  0  0  0  0  0  0
   -5.7553   -1.1059   -1.3018 H   0  0  0  0  0  0  0  0  0  0  0  0
   -3.9566    0.6627   -2.2483 H   0  0  0  0  0  0  0  0  0  0  0  0
   -3.3419    2.9759   -0.5127 H   0  0  0  0  0  0  0  0  0  0  0  0
   -6.3573    1.3258   -1.7801 H   0  0  0  0  0  0  0  0  0  0  0  0
   -5.3659    2.7207   -2.1803 H   0  0  0  0  0  0  0  0  0  0  0  0
   -5.2069    3.3826    0.1895 H   0  0  0  0  0  0  0  0  0  0  0  0
   -6.8624    3.2963   -0.4175 H   0  0  0  0  0  0  0  0  0  0  0  0
   -6.7122    2.4772    1.8511 H   0  0  0  0  0  0  0  0  0  0  0  0
   -5.6178    1.1507    1.3751 H   0  0  0  0  0  0  0  0  0  0  0  0
   -8.5818    1.6722    3.2513 H   0  0  0  0  0  0  0  0  0  0  0  0
   -9.0286    3.0126    2.0846 H   0  0  0  0  0  0  0  0  0  0  0  0
   -9.9218   -0.6804    1.3190 H   0  0  0  0  0  0  0  0  0  0  0  0
  -10.4878    0.5959    0.2281 H   0  0  0  0  0  0  0  0  0  0  0  0
   -6.1146   -3.5780    1.6694 H   0  0  0  0  0  0  0  0  0  0  0  0
   -6.6291   -1.9003    1.5461 H   0  0  0  0  0  0  0  0  0  0  0  0
   -8.0646   -1.3506   -0.6653 H   0  0  0  0  0  0  0  0  0  0  0  0
   -9.5916   -2.2013   -2.3020 H   0  0  0  0  0  0  0  0  0  0  0  0
   -9.7586   -4.6144   -2.7462 H   0  0  0  0  0  0  0  0  0  0  0  0
   -8.2635   -6.1701   -1.4354 H   0  0  0  0  0  0  0  0  0  0  0  0
   -6.7258   -5.2732    0.2234 H   0  0  0  0  0  0  0  0  0  0  0  0
   -5.4288   -7.0661   -0.5650 H   0  0  0  0  0  0  0  0  0  0  0  0
   -3.9983   -7.9503   -1.0810 H   0  0  0  0  0  0  0  0  0  0  0  0
   -2.6456   -9.2903    0.5228 H   0  0  0  0  0  0  0  0  0  0  0  0
   -2.4748  -10.2187    2.7550 H   0  0  0  0  0  0  0  0  0  0  0  0
   -3.8515   -9.4023    4.5616 H   0  0  0  0  0  0  0  0  0  0  0  0
   -5.4500   -7.5742    4.1557 H   0  0  0  0  0  0  0  0  0  0  0  0
   -5.6666   -6.5847    1.9235 H   0  0  0  0  0  0  0  0  0  0  0  0
    0.5817   -6.4273   -1.6107 H   0  0  0  0  0  0  0  0  0  0  0  0
    0.1473   -7.7256   -0.4553 H   0  0  0  0  0  0  0  0  0  0  0  0
    3.3043   -7.8339    1.3752 H   0  0  0  0  0  0  0  0  0  0  0  0
    1.6413   -8.6293    1.1710 H   0  0  0  0  0  0  0  0  0  0  0  0
    6.2493    1.6109    0.4062 H   0  0  0  0  0  0  0  0  0  0  0  0
    8.5551    2.6048    1.0919 H   0  0  0  0  0  0  0  0  0  0  0  0
    7.0211    2.4014    5.7990 H   0  0  0  0  0  0  0  0  0  0  0  0
    6.0142    3.7476    5.0268 H   0  0  0  0  0  0  0  0  0  0  0  0
    6.8993    5.0600    0.7286 H   0  0  0  0  0  0  0  0  0  0  0  0
    8.3889    4.5615   -0.1324 H   0  0  0  0  0  0  0  0  0  0  0  0
   10.4726    4.4198    0.8810 H   0  0  0  0  0  0  0  0  0  0  0  0
   12.0857    5.4768    2.3765 H   0  0  0  0  0  0  0  0  0  0  0  0
    8.8184    7.2235    4.5584 H   0  0  0  0  0  0  0  0  0  0  0  0
    7.1832    6.1307    3.0293 H   0  0  0  0  0  0  0  0  0  0  0  0
   12.4507    7.1426    4.0463 H   0  0  0  0  0  0  0  0  0  0  0  0
   -3.5459    5.6763    0.2161 H   0  0  0  0  0  0  0  0  0  0  0  0
   -2.8822    6.1703    1.7895 H   0  0  0  0  0  0  0  0  0  0  0  0
   -2.4886    8.7335    2.1718 H   0  0  0  0  0  0  0  0  0  0  0  0
   -3.3907   10.9254    1.6871 H   0  0  0  0  0  0  0  0  0  0  0  0
   -5.2457    9.3923   -1.8256 H   0  0  0  0  0  0  0  0  0  0  0  0
   -4.3185    7.1746   -1.3260 H   0  0  0  0  0  0  0  0  0  0  0  0
   -5.6220   11.6852   -1.0624 H   0  0  0  0  0  0  0  0  0  0  0  0
  1  2  1  0
  2  3  1  0
  3  4  1  0
  4  5  2  0
  4  6  1  0
  6  7  1  0
  7  8  1  0
  8  9  1  0
  9 10  1  0
 10 11  1  0
 11 12  1  0
 12 13  1  0
 13 14  1  0
 14 15  1  0
 15 16  1  0
 16 17  2  0
 16 18  1  0
 18 19  1  0
 19 20  1  0
 20 21  2  0
 21 22  1  0
 22 23  2  0
 23 24  1  0
 24 25  2  0
 18 26  1  0
 26 27  1  0
 27 28  2  0
 27 29  1  0
 29 30  1  0
 29 31  1  0
 31 32  1  0
 32 33  2  0
 32 34  1  0
 34 35  1  0
 35 36  1  0
 36 37  2  0
 36 38  1  0
 38 39  1  0
 39 40  1  0
 40 41  2  0
 40 42  1  0
 42 43  1  0
 43 44  1  0
 44 45  2  0
 44 46  1  0
 46 47  1  0
 47 48  1  0
 48 49  2  0
 46 50  1  0
 50 51  1  0
 51 52  1  0
 52 53  1  0
 53 54  2  3
 54 55  1  0
 54 56  1  0
 42 57  1  0
 57 58  1  0
 58 59  2  0
 59 60  1  0
 60 61  2  0
 61 62  1  0
 62 63  2  0
 38 64  1  0
 64 65  1  0
 65 66  2  0
 66 67  1  0
 67 68  2  0
 68 69  1  0
 69 70  2  0
 34 71  1  0
 71 72  1  0
 72 73  2  0
 72 74  1  0
 14 75  1  0
 75 76  2  0
 75 77  1  0
 77 78  1  0
 78 79  1  0
 79 80  2  0
 79 81  1  0
 81 82  2  0
 81 83  1  0
 78 84  1  0
 84 85  1  0
 85 86  2  0
 86 87  1  0
 87 88  2  0
 88 89  1  0
 89 90  2  0
 88 91  1  0
  3 92  1  0
 92 93  1  0
 93 94  2  0
 94 95  1  0
 95 96  2  0
 96 97  1  0
 97 98  2  0
 96 99  1  0
 48  7  1  0
 63 58  1  0
 70 65  1  0
 90 85  1  0
 98 93  1  0
 25 20  1  0
  1100  1  0
  1101  1  0
  2102  1  0
  3103  1  1
  6104  1  0
  7105  1  1
  8106  1  0
  8107  1  0
 13108  1  0
 13109  1  0
 14110  1  6
 15111  1  0
 18112  1  6
 19113  1  0
 19114  1  0
 21115  1  0
 22116  1  0
 23117  1  0
 24118  1  0
 25119  1  0
 26120  1  0
 29121  1  1
 30122  1  0
 30123  1  0
 30124  1  0
 31125  1  0
 34126  1  1
 35127  1  0
 38128  1  6
 39129  1  0
 42130  1  1
 43131  1  0
 46132  1  6
 47133  1  0
 50134  1  0
 50135  1  0
 51136  1  0
 51137  1  0
 52138  1  0
 52139  1  0
 55140  1  0
 55141  1  0
 56142  1  0
 56143  1  0
 57144  1  0
 57145  1  0
 59146  1  0
 60147  1  0
 61148  1  0
 62149  1  0
 63150  1  0
 64151  1  0
 64152  1  0
 66153  1  0
 67154  1  0
 68155  1  0
 69156  1  0
 70157  1  0
 71158  1  0
 71159  1  0
 74160  1  0
 74161  1  0
 77162  1  0
 78163  1  1
 83164  1  0
 83165  1  0
 84166  1  0
 84167  1  0
 86168  1  0
 87169  1  0
 89170  1  0
 90171  1  0
 91172  1  0
 92173  1  0
 92174  1  0
 94175  1  0
 95176  1  0
 97177  1  0
 98178  1  0
 99179  1  0
M  END
>  <Ligand ID>  (1) 
LIG0002278

>  <Ligand>  (1) 
CID 44310372

>  <SMILES>  (1) 
NN[C@H](C(=O)N[C@@H]1CSSSSC[C@@H](NC(=O)[C@@H](Cc2ccccc2)NC(=O)[C@H](C)NC(=O)[C@@H](NC(=O)[C@H](NC(=O)[C@@H](NC(=O)[C@H](NC1=O)CCCN=C(N)N)Cc1ccccc1)Cc1ccccc1)CC(=O)N)C(=O)N[C@H](C(=O)C(=O)N)Cc1ccc(cc1)O)Cc1ccc(cc1)O

>  <CID>  (1) 
44310372.0

>  <ChEMBL ID>  (1) 
nan

>  <InChiKey>  (1) 
OKOCHODOEYLAGS-IYYUMRKJSA-N

>  <InChi>  (1) 
InChI=1S/C65H80N16O14S4/c1-36-56(87)75-46(29-37-12-5-2-6-13-37)61(92)79-52(64(95)74-45(54(85)55(67)86)28-40-19-23-42(82)24-20-40)35-97-99-98-96-34-51(80-62(93)50(81-70)32-41-21-25-43(83)26-22-41)63(94)73-44(18-11-27-71-65(68)69)57(88)76-47(30-38-14-7-3-8-15-38)59(90)77-48(31-39-16-9-4-10-17-39)60(91)78-49(33-53(66)84)58(89)72-36/h2-10,12-17,19-26,36,44-52,81-83H,11,18,27-35,70H2,1H3,(H2,66,84)(H2,67,86)(H,72,89)(H,73,94)(H,74,95)(H,75,87)(H,76,88)(H,77,90)(H,78,91)(H,79,92)(H,80,93)(H4,68,69,71)/t36-,44+,45-,46+,47-,48+,49-,50-,51+,52+/m0/s1

>  <IUPAC Name>  (1) 
(6S,9R,12S,15S,18R,21S,24R,27S)-N-[(2S)-4-amino-1-(4-hydroxyphenyl)-3,4-dioxobutan-2-yl]-15-(2-amino-2-oxoethyl)-9,18,21-tribenzyl-24-[3-(diaminomethylideneamino)propyl]-27-[[(2S)-2-hydrazinyl-3-(4-hydroxyphenyl)propanoyl]amino]-12-methyl-8,11,14,17,20,23,26-heptaoxo-1,2,3,4-tetrathia-7,10,13,16,19,22,25-heptazacyclooctacosane-6-carboxamide

$$$$
