
     RDKit          3D

 90 94  0  0  0  0  0  0  0  0999 V2000
    0.0262    0.0956   -3.8074 C   0  0  0  0  0  0  0  0  0  0  0  0
    0.0582    0.5131   -2.3230 C   0  0  0  0  0  0  0  0  0  0  0  0
   -1.0671   -0.1604   -1.6050 C   0  0  0  0  0  0  0  0  0  0  0  0
   -1.1418    0.1209   -0.1222 C   0  0  2  0  0  0  0  0  0  0  0  0
   -1.3065    1.5103    0.2191 N   0  0  0  0  0  0  0  0  0  0  0  0
   -0.1306    2.3397    0.5514 C   0  0  0  0  0  0  0  0  0  0  0  0
    0.6949    1.6224    1.6237 C   0  0  0  0  0  0  0  0  0  0  0  0
    1.1449    0.3478    1.0512 N   0  0  0  0  0  0  0  0  0  0  0  0
    0.1195   -0.4212    0.4464 C   0  0  0  0  0  0  0  0  0  0  0  0
    0.2949   -1.6883    0.3844 O   0  0  0  0  0  0  0  0  0  0  0  0
    2.5441   -0.0630    1.0552 C   0  0  2  0  0  0  0  0  0  0  0  0
    3.0923   -0.3193    2.3812 C   0  0  0  0  0  0  0  0  0  0  0  0
    4.2675   -0.7970    2.4493 O   0  0  0  0  0  0  0  0  0  0  0  0
    2.4561   -0.0947    3.6186 N   0  0  0  0  0  0  0  0  0  0  0  0
    3.1907   -0.4228    4.8364 C   0  0  0  0  0  0  0  0  0  0  0  0
    3.3901    0.8746    0.2758 C   0  0  0  0  0  0  0  0  0  0  0  0
    4.7995    0.4692    0.2753 C   0  0  0  0  0  0  0  0  0  0  0  0
    5.7650    0.9384    1.1364 C   0  0  0  0  0  0  0  0  0  0  0  0
    7.0786    0.4962    1.0607 C   0  0  0  0  0  0  0  0  0  0  0  0
    7.4732   -0.4307    0.1215 C   0  0  0  0  0  0  0  0  0  0  0  0
    6.5239   -0.9073   -0.7425 C   0  0  0  0  0  0  0  0  0  0  0  0
    5.2205   -0.4702   -0.6697 C   0  0  0  0  0  0  0  0  0  0  0  0
    6.8781   -1.8288   -1.6896 C   0  0  0  0  0  0  0  0  0  0  0  0
    8.1816   -2.2706   -1.7680 C   0  0  0  0  0  0  0  0  0  0  0  0
    9.1637   -1.8022   -0.9025 C   0  0  0  0  0  0  0  0  0  0  0  0
    8.7857   -0.8638    0.0555 C   0  0  0  0  0  0  0  0  0  0  0  0
   -2.5556    2.1786    0.3018 C   0  0  0  0  0  0  0  0  0  0  0  0
   -2.4648    3.4551    0.5738 O   0  0  0  0  0  0  0  0  0  0  0  0
   -3.9101    1.7074    0.1425 C   0  0  2  0  0  0  0  0  0  0  0  0
   -4.1823    0.3217   -0.0759 N   0  0  0  0  0  0  0  0  0  0  0  0
   -4.8083   -0.4369    0.9702 C   0  0  0  0  0  0  0  0  0  0  0  0
   -5.1017    0.1472    2.0703 O   0  0  0  0  0  0  0  0  0  0  0  0
   -5.1259   -1.8754    0.8130 C   0  0  0  0  0  0  0  0  0  0  0  0
   -3.9424   -2.7512    0.5719 C   0  0  0  0  0  0  0  0  0  0  0  0
   -3.1525   -3.0215    1.8345 C   0  0  0  0  0  0  0  0  0  0  0  0
   -4.0551   -3.6552    2.7984 N   0  0  0  0  0  0  0  0  0  0  0  0
   -5.0239   -2.6720    3.1985 C   0  0  0  0  0  0  0  0  0  0  0  0
   -5.9142   -2.3214    2.0259 C   0  0  0  0  0  0  0  0  0  0  0  0
   -4.7064    2.5169   -0.8818 C   0  0  0  0  0  0  0  0  0  0  0  0
   -4.1040    2.4796   -2.2334 C   0  0  0  0  0  0  0  0  0  0  0  0
   -4.4892    1.4662   -3.1054 C   0  0  0  0  0  0  0  0  0  0  0  0
   -3.9738    1.3631   -4.3817 C   0  0  0  0  0  0  0  0  0  0  0  0
   -3.0358    2.2893   -4.8398 C   0  0  0  0  0  0  0  0  0  0  0  0
   -2.6559    3.2909   -3.9765 C   0  0  0  0  0  0  0  0  0  0  0  0
   -3.1765    3.3972   -2.6836 C   0  0  0  0  0  0  0  0  0  0  0  0
   -2.5444    2.1737   -6.0869 F   0  0  0  0  0  0  0  0  0  0  0  0
   -0.9735    0.2189   -4.2377 H   0  0  0  0  0  0  0  0  0  0  0  0
    0.3605   -0.9593   -3.8800 H   0  0  0  0  0  0  0  0  0  0  0  0
    0.7421    0.7067   -4.3902 H   0  0  0  0  0  0  0  0  0  0  0  0
   -0.1992    1.6018   -2.3555 H   0  0  0  0  0  0  0  0  0  0  0  0
    1.0318    0.2695   -1.9250 H   0  0  0  0  0  0  0  0  0  0  0  0
   -2.0478    0.0209   -2.1175 H   0  0  0  0  0  0  0  0  0  0  0  0
   -0.9048   -1.2694   -1.7599 H   0  0  0  0  0  0  0  0  0  0  0  0
   -2.0103   -0.4891    0.2580 H   0  0  0  0  0  0  0  0  0  0  0  0
   -0.4579    3.3278    0.8614 H   0  0  0  0  0  0  0  0  0  0  0  0
    0.5063    2.4122   -0.3333 H   0  0  0  0  0  0  0  0  0  0  0  0
   -0.0425    1.3777    2.4099 H   0  0  0  0  0  0  0  0  0  0  0  0
    1.4844    2.2307    2.0384 H   0  0  0  0  0  0  0  0  0  0  0  0
    2.5448   -1.0425    0.4661 H   0  0  0  0  0  0  0  0  0  0  0  0
    1.5065    0.2825    3.6882 H   0  0  0  0  0  0  0  0  0  0  0  0
    3.7050   -1.4050    4.7022 H   0  0  0  0  0  0  0  0  0  0  0  0
    2.5105   -0.5513    5.6970 H   0  0  0  0  0  0  0  0  0  0  0  0
    3.9027    0.3859    5.0347 H   0  0  0  0  0  0  0  0  0  0  0  0
    3.0731    0.8590   -0.8135 H   0  0  0  0  0  0  0  0  0  0  0  0
    3.3293    1.9280    0.6576 H   0  0  0  0  0  0  0  0  0  0  0  0
    5.4518    1.6666    1.8724 H   0  0  0  0  0  0  0  0  0  0  0  0
    7.7670    0.9206    1.7783 H   0  0  0  0  0  0  0  0  0  0  0  0
    4.4843   -0.8714   -1.3763 H   0  0  0  0  0  0  0  0  0  0  0  0
    6.1133   -2.1850   -2.3552 H   0  0  0  0  0  0  0  0  0  0  0  0
    8.4950   -2.9952   -2.4999 H   0  0  0  0  0  0  0  0  0  0  0  0
   10.1778   -2.1662   -0.9890 H   0  0  0  0  0  0  0  0  0  0  0  0
    9.5308   -0.4720    0.7520 H   0  0  0  0  0  0  0  0  0  0  0  0
   -4.4322    1.9846    1.1302 H   0  0  0  0  0  0  0  0  0  0  0  0
   -3.9906   -0.2171   -0.9460 H   0  0  0  0  0  0  0  0  0  0  0  0
   -5.8147   -2.0307   -0.0629 H   0  0  0  0  0  0  0  0  0  0  0  0
   -3.3180   -2.4073   -0.2429 H   0  0  0  0  0  0  0  0  0  0  0  0
   -4.3491   -3.7483    0.2536 H   0  0  0  0  0  0  0  0  0  0  0  0
   -2.3876   -3.7852    1.5841 H   0  0  0  0  0  0  0  0  0  0  0  0
   -2.6514   -2.1353    2.2458 H   0  0  0  0  0  0  0  0  0  0  0  0
   -3.4743   -3.8906    3.6557 H   0  0  0  0  0  0  0  0  0  0  0  0
   -5.7167   -3.1176    3.9624 H   0  0  0  0  0  0  0  0  0  0  0  0
   -4.5269   -1.8186    3.6657 H   0  0  0  0  0  0  0  0  0  0  0  0
   -6.5687   -3.1847    1.8342 H   0  0  0  0  0  0  0  0  0  0  0  0
   -6.5279   -1.4543    2.3523 H   0  0  0  0  0  0  0  0  0  0  0  0
   -4.8676    3.5526   -0.5165 H   0  0  0  0  0  0  0  0  0  0  0  0
   -5.7228    2.0780   -0.9552 H   0  0  0  0  0  0  0  0  0  0  0  0
   -5.2148    0.7367   -2.7725 H   0  0  0  0  0  0  0  0  0  0  0  0
   -4.3208    0.5536   -4.9926 H   0  0  0  0  0  0  0  0  0  0  0  0
   -1.9226    4.0422   -4.2914 H   0  0  0  0  0  0  0  0  0  0  0  0
   -2.8544    4.1984   -2.0353 H   0  0  0  0  0  0  0  0  0  0  0  0
  1  2  1  0
  2  3  1  0
  3  4  1  0
  4  5  1  0
  5  6  1  0
  6  7  1  0
  7  8  1  0
  8  9  1  0
  9 10  2  0
  8 11  1  0
 11 12  1  0
 12 13  2  0
 12 14  1  0
 14 15  1  0
 11 16  1  0
 16 17  1  0
 17 18  2  0
 18 19  1  0
 19 20  2  0
 20 21  1  0
 21 22  2  0
 21 23  1  0
 23 24  2  0
 24 25  1  0
 25 26  2  0
  5 27  1  0
 27 28  2  0
 27 29  1  0
 29 30  1  0
 30 31  1  0
 31 32  2  0
 31 33  1  0
 33 34  1  0
 34 35  1  0
 35 36  1  0
 36 37  1  0
 37 38  1  0
 29 39  1  0
 39 40  1  0
 40 41  2  0
 41 42  1  0
 42 43  2  0
 43 44  1  0
 44 45  2  0
 43 46  1  0
  9  4  1  0
 22 17  1  0
 38 33  1  0
 45 40  1  0
 26 20  1  0
  1 47  1  0
  1 48  1  0
  1 49  1  0
  2 50  1  0
  2 51  1  0
  3 52  1  0
  3 53  1  0
  4 54  1  1
  6 55  1  0
  6 56  1  0
  7 57  1  0
  7 58  1  0
 11 59  1  6
 14 60  1  0
 15 61  1  0
 15 62  1  0
 15 63  1  0
 16 64  1  0
 16 65  1  0
 18 66  1  0
 19 67  1  0
 22 68  1  0
 23 69  1  0
 24 70  1  0
 25 71  1  0
 26 72  1  0
 29 73  1  1
 30 74  1  0
 33 75  1  0
 34 76  1  0
 34 77  1  0
 35 78  1  0
 35 79  1  0
 36 80  1  0
 37 81  1  0
 37 82  1  0
 38 83  1  0
 38 84  1  0
 39 85  1  0
 39 86  1  0
 41 87  1  0
 42 88  1  0
 44 89  1  0
 45 90  1  0
M  END
>  <Ligand ID>  (1) 
LIG0004084

>  <Ligand>  (1) 
CHEMBL506762

>  <SMILES>  (1) 
CCC[C@@H]1N(CCN(C1=O)[C@H](C(=O)NC)Cc1ccc2c(c1)cccc2)C(=O)[C@H](NC(=O)C1CCNCC1)Cc1ccc(cc1)F

>  <CID>  (1) 
25133556.0

>  <ChEMBL ID>  (1) 
nan

>  <InChiKey>  (1) 
DZBWWVGXDVRUHV-RTOKGZNSSA-N

>  <InChi>  (1) 
InChI=1S/C36H44FN5O4/c1-3-6-31-36(46)42(32(34(44)38-2)23-25-9-12-26-7-4-5-8-28(26)21-25)20-19-41(31)35(45)30(22-24-10-13-29(37)14-11-24)40-33(43)27-15-17-39-18-16-27/h4-5,7-14,21,27,30-32,39H,3,6,15-20,22-23H2,1-2H3,(H,38,44)(H,40,43)/t30-,31+,32+/m1/s1

>  <IUPAC Name>  (1) 
N-[(2R)-3-(4-fluorophenyl)-1-[(2S)-4-[(2S)-1-(methylamino)-3-naphthalen-2-yl-1-oxopropan-2-yl]-3-oxo-2-propylpiperazin-1-yl]-1-oxopropan-2-yl]piperidine-4-carboxamide

$$$$
