
     RDKit          3D

 45 48  0  0  0  0  0  0  0  0999 V2000
    1.9112    0.2496    3.0448 O   0  0  0  0  0  0  0  0  0  0  0  0
    2.6469    0.1454    2.0313 C   0  0  0  0  0  0  0  0  0  0  0  0
    3.8970   -0.3659    2.1089 N   0  0  0  0  0  0  0  0  0  0  0  0
    4.4273   -0.3471    0.8726 C   0  0  0  0  0  0  0  0  0  0  0  0
    3.4430    0.1970    0.0492 C   0  0  0  0  0  0  0  0  0  0  0  0
    2.3503    0.4963    0.7762 N   0  0  0  0  0  0  0  0  0  0  0  0
    1.1268    1.0766    0.2695 C   0  0  0  0  0  0  0  0  0  0  0  0
    0.5669    0.3059   -0.8987 C   0  0  0  0  0  0  0  0  0  0  0  0
   -0.7871   -0.2970   -0.6372 C   0  0  0  0  0  0  0  0  0  0  0  0
   -1.6886    0.7300   -0.2391 N   0  0  0  0  0  0  0  0  0  0  0  0
   -1.2386    1.5834    0.8125 C   0  0  0  0  0  0  0  0  0  0  0  0
    0.1091    1.1401    1.3755 C   0  0  0  0  0  0  0  0  0  0  0  0
   -3.0569    0.3052   -0.1286 C   0  0  0  0  0  0  0  0  0  0  0  0
   -3.5568   -0.2135   -1.4599 C   0  0  0  0  0  0  0  0  0  0  0  0
   -5.0716   -0.3847   -1.2961 C   0  0  0  0  0  0  0  0  0  0  0  0
   -5.4664   -0.3774    0.0310 O   0  0  0  0  0  0  0  0  0  0  0  0
   -4.7101   -1.1968    0.8345 C   0  0  0  0  0  0  0  0  0  0  0  0
   -3.2335   -0.8408    0.8445 C   0  0  0  0  0  0  0  0  0  0  0  0
    3.7779    0.3125   -1.2900 C   0  0  0  0  0  0  0  0  0  0  0  0
    4.9934   -0.0779   -1.7896 C   0  0  0  0  0  0  0  0  0  0  0  0
    5.9373   -0.6120   -0.9330 C   0  0  0  0  0  0  0  0  0  0  0  0
    5.6511   -0.7477    0.4108 C   0  0  0  0  0  0  0  0  0  0  0  0
    4.4049   -0.7242    2.9517 H   0  0  0  0  0  0  0  0  0  0  0  0
    1.3431    2.1157   -0.0507 H   0  0  0  0  0  0  0  0  0  0  0  0
    0.5135    0.9244   -1.8062 H   0  0  0  0  0  0  0  0  0  0  0  0
    1.2237   -0.5704   -1.1652 H   0  0  0  0  0  0  0  0  0  0  0  0
   -1.1459   -0.6740   -1.6259 H   0  0  0  0  0  0  0  0  0  0  0  0
   -0.7466   -1.1572    0.0585 H   0  0  0  0  0  0  0  0  0  0  0  0
   -1.0787    2.6016    0.3871 H   0  0  0  0  0  0  0  0  0  0  0  0
   -1.9547    1.7195    1.6460 H   0  0  0  0  0  0  0  0  0  0  0  0
    0.3791    1.8815    2.1512 H   0  0  0  0  0  0  0  0  0  0  0  0
   -0.0423    0.1094    1.7677 H   0  0  0  0  0  0  0  0  0  0  0  0
   -3.6701    1.1569    0.1636 H   0  0  0  0  0  0  0  0  0  0  0  0
   -3.3194    0.5188   -2.2558 H   0  0  0  0  0  0  0  0  0  0  0  0
   -3.1352   -1.2187   -1.6539 H   0  0  0  0  0  0  0  0  0  0  0  0
   -5.4179   -1.2598   -1.8653 H   0  0  0  0  0  0  0  0  0  0  0  0
   -5.5292    0.5140   -1.7607 H   0  0  0  0  0  0  0  0  0  0  0  0
   -4.8715   -2.2641    0.5846 H   0  0  0  0  0  0  0  0  0  0  0  0
   -5.0627   -1.0676    1.8768 H   0  0  0  0  0  0  0  0  0  0  0  0
   -2.8524   -0.6143    1.8459 H   0  0  0  0  0  0  0  0  0  0  0  0
   -2.6779   -1.7222    0.4089 H   0  0  0  0  0  0  0  0  0  0  0  0
    3.0667    0.7255   -1.9924 H   0  0  0  0  0  0  0  0  0  0  0  0
    5.2463    0.0161   -2.8370 H   0  0  0  0  0  0  0  0  0  0  0  0
    6.9109   -0.9254   -1.3295 H   0  0  0  0  0  0  0  0  0  0  0  0
    6.3877   -1.1666    1.0900 H   0  0  0  0  0  0  0  0  0  0  0  0
  1  2  2  0
  2  3  1  0
  3  4  1  0
  4  5  2  0
  5  6  1  0
  6  7  1  0
  7  8  1  0
  8  9  1  0
  9 10  1  0
 10 11  1  0
 11 12  1  0
 10 13  1  0
 13 14  1  0
 14 15  1  0
 15 16  1  0
 16 17  1  0
 17 18  1  0
  5 19  1  0
 19 20  2  0
 20 21  1  0
 21 22  2  0
  6  2  1  0
 12  7  1  0
 18 13  1  0
 22  4  1  0
  3 23  1  0
  7 24  1  0
  8 25  1  0
  8 26  1  0
  9 27  1  0
  9 28  1  0
 11 29  1  0
 11 30  1  0
 12 31  1  0
 12 32  1  0
 13 33  1  0
 14 34  1  0
 14 35  1  0
 15 36  1  0
 15 37  1  0
 17 38  1  0
 17 39  1  0
 18 40  1  0
 18 41  1  0
 19 42  1  0
 20 43  1  0
 21 44  1  0
 22 45  1  0
M  END
>  <Ligand ID>  (1) 
LIG0000862

>  <Ligand>  (1) 
CHEMBL2146598

>  <SMILES>  (1) 
O=c1[nH]c2c(n1C1CCN(CC1)C1CCOCC1)cccc2

>  <CID>  (1) 
16038385.0

>  <ChEMBL ID>  (1) 
nan

>  <InChiKey>  (1) 
SHKKFEWDVRVDFL-UHFFFAOYSA-N

>  <InChi>  (1) 
InChI=1S/C17H23N3O2/c21-17-18-15-3-1-2-4-16(15)20(17)14-5-9-19(10-6-14)13-7-11-22-12-8-13/h1-4,13-14H,5-12H2,(H,18,21)

>  <IUPAC Name>  (1) 
3-[1-(oxan-4-yl)piperidin-4-yl]-1H-benzimidazol-2-one

$$$$
