
     RDKit          3D

127130  0  0  0  0  0  0  0  0999 V2000
    8.4804   -0.2695    2.3149 C   0  0  0  0  0  0  0  0  0  0  0  0
    7.3075    0.4515    1.7979 C   0  0  0  0  0  0  0  0  0  0  0  0
    6.3546    1.0247    1.3613 C   0  0  0  0  0  0  0  0  0  0  0  0
    5.1878    1.6995    0.8220 C   0  0  2  0  0  0  0  0  0  0  0  0
    4.3486    0.7300    0.1146 C   0  0  0  0  0  0  0  0  0  0  0  0
    3.0338    1.0944   -0.1468 C   0  0  0  0  0  0  0  0  0  0  0  0
    2.1904    0.2141   -0.7937 C   0  0  0  0  0  0  0  0  0  0  0  0
    2.5612   -1.0378   -1.2138 C   0  0  0  0  0  0  0  0  0  0  0  0
    3.9075   -1.3713   -0.9291 C   0  0  0  0  0  0  0  0  0  0  0  0
    4.7498   -0.5009   -0.2867 C   0  0  0  0  0  0  0  0  0  0  0  0
    1.8431   -1.9671   -1.8396 O   0  0  0  0  0  0  0  0  0  0  0  0
    0.5535   -2.0679   -2.2737 C   0  0  0  0  0  0  0  0  0  0  0  0
   -0.4350   -2.0038   -1.1832 C   0  0  0  0  0  0  0  0  0  0  0  0
   -0.6520   -3.1900   -0.4722 C   0  0  0  0  0  0  0  0  0  0  0  0
   -1.5746   -3.2687    0.5484 C   0  0  0  0  0  0  0  0  0  0  0  0
   -2.2964   -2.1368    0.8653 C   0  0  0  0  0  0  0  0  0  0  0  0
   -2.1248   -0.9289    0.1937 C   0  0  0  0  0  0  0  0  0  0  0  0
   -1.1849   -0.9281   -0.8143 C   0  0  0  0  0  0  0  0  0  0  0  0
   -2.9148    0.2750    0.5596 C   0  0  0  0  0  0  0  0  0  0  0  0
   -4.1485    0.4209   -0.1073 N   0  0  0  0  0  0  0  0  0  0  0  0
   -4.0573    0.5100   -1.5134 C   0  0  0  0  0  0  0  0  0  0  0  0
   -3.2795    1.7039   -1.9824 C   0  0  0  0  0  0  0  0  0  0  0  0
   -5.3955    0.4763   -2.2180 C   0  0  0  0  0  0  0  0  0  0  0  0
   -5.3013   -0.1662    0.4611 C   0  0  0  0  0  0  0  0  0  0  0  0
   -5.6192    0.4081    1.8221 C   0  0  0  0  0  0  0  0  0  0  0  0
   -6.4628    1.5470    1.8750 C   0  0  0  0  0  0  0  0  0  0  0  0
   -6.6306    1.9542    3.6040 S   0  0  0  0  0  0  0  0  0  0  0  0
   -5.5331    0.5373    4.1548 C   0  0  0  0  0  0  0  0  0  0  0  0
   -5.1737   -0.0694    2.9754 C   0  0  0  0  0  0  0  0  0  0  0  0
    5.5519    2.8177   -0.1554 C   0  0  0  0  0  0  0  0  0  0  0  0
    6.3132    2.3548   -1.3133 C   0  0  0  0  0  0  0  0  0  0  0  0
    6.6861    1.1921   -1.5607 O   0  0  0  0  0  0  0  0  0  0  0  0
    6.6729    3.3284   -2.2675 O   0  0  0  0  0  0  0  0  0  0  0  0
    7.7017    2.8051   -2.0280 C   0  0  0  0  0  0  0  0  0  0  0  0
    7.1355    1.4869   -1.6812 C   0  0  0  0  0  0  0  0  0  0  0  0
    6.6600    0.4185   -1.3839 C   0  0  0  0  0  0  0  0  0  0  0  0
    6.1014   -0.8694   -1.0062 C   0  0  2  0  0  0  0  0  0  0  0  0
    4.8499   -0.7080   -0.2348 C   0  0  0  0  0  0  0  0  0  0  0  0
    4.5584    0.3839    0.5479 C   0  0  0  0  0  0  0  0  0  0  0  0
    3.3838    0.4670    1.2550 C   0  0  0  0  0  0  0  0  0  0  0  0
    2.4221   -0.5682    1.2081 C   0  0  0  0  0  0  0  0  0  0  0  0
    2.7557   -1.6299    0.4186 C   0  0  0  0  0  0  0  0  0  0  0  0
    3.9290   -1.7305   -0.2976 C   0  0  0  0  0  0  0  0  0  0  0  0
    1.3113   -0.3821    1.9389 O   0  0  0  0  0  0  0  0  0  0  0  0
    0.1568   -1.0716    2.1884 C   0  0  0  0  0  0  0  0  0  0  0  0
   -0.7345   -1.3723    1.0694 C   0  0  0  0  0  0  0  0  0  0  0  0
   -0.7735   -2.5322    0.3422 C   0  0  0  0  0  0  0  0  0  0  0  0
   -1.6300   -2.7614   -0.7122 C   0  0  0  0  0  0  0  0  0  0  0  0
   -2.5061   -1.7548   -1.0569 C   0  0  0  0  0  0  0  0  0  0  0  0
   -2.5206   -0.5434   -0.3562 C   0  0  0  0  0  0  0  0  0  0  0  0
   -1.6384   -0.3734    0.6904 C   0  0  0  0  0  0  0  0  0  0  0  0
   -3.4603    0.5079   -0.7404 C   0  0  0  0  0  0  0  0  0  0  0  0
   -4.7128    0.5209   -0.0877 N   0  0  0  0  0  0  0  0  0  0  0  0
   -5.5397   -0.6362   -0.1886 C   0  0  0  0  0  0  0  0  0  0  0  0
   -5.8936   -1.0176   -1.5977 C   0  0  0  0  0  0  0  0  0  0  0  0
   -5.1144   -1.8101    0.6453 C   0  0  0  0  0  0  0  0  0  0  0  0
   -5.4908    1.6574   -0.4206 C   0  0  0  0  0  0  0  0  0  0  0  0
   -4.8445    2.9763   -0.0715 C   0  0  0  0  0  0  0  0  0  0  0  0
   -4.0323    3.6042   -1.0352 C   0  0  0  0  0  0  0  0  0  0  0  0
   -3.4638    5.1232   -0.2488 S   0  0  0  0  0  0  0  0  0  0  0  0
   -4.3455    4.8007    1.2839 C   0  0  0  0  0  0  0  0  0  0  0  0
   -4.9890    3.5972    1.0919 C   0  0  0  0  0  0  0  0  0  0  0  0
    7.0994   -1.7866   -0.3333 C   0  0  0  0  0  0  0  0  0  0  0  0
    7.6857   -1.2618    0.8994 C   0  0  0  0  0  0  0  0  0  0  0  0
    8.4889   -2.0320    1.5290 O   0  0  0  0  0  0  0  0  0  0  0  0
    7.4700   -0.0273    1.4597 O   0  0  0  0  0  0  0  0  0  0  0  0
    0.0000    0.0000    0.0000 Ca  0  0  0  0  0 15  0  0  0  0  0  0
    9.1248   -0.6219    1.4571 H   0  0  0  0  0  0  0  0  0  0  0  0
    8.2003   -1.0811    2.9888 H   0  0  0  0  0  0  0  0  0  0  0  0
    9.1690    0.4104    2.8857 H   0  0  0  0  0  0  0  0  0  0  0  0
    4.5251    2.1420    1.6237 H   0  0  0  0  0  0  0  0  0  0  0  0
    2.6622    2.0849    0.1612 H   0  0  0  0  0  0  0  0  0  0  0  0
    1.1949    0.5523   -0.9795 H   0  0  0  0  0  0  0  0  0  0  0  0
    4.2942   -2.3553   -1.2294 H   0  0  0  0  0  0  0  0  0  0  0  0
    5.7723   -0.8518   -0.0964 H   0  0  0  0  0  0  0  0  0  0  0  0
    0.2638   -1.2500   -3.0037 H   0  0  0  0  0  0  0  0  0  0  0  0
    0.3749   -3.0301   -2.8445 H   0  0  0  0  0  0  0  0  0  0  0  0
   -0.0947   -4.0881   -0.7071 H   0  0  0  0  0  0  0  0  0  0  0  0
   -1.7333   -4.1909    1.0907 H   0  0  0  0  0  0  0  0  0  0  0  0
   -3.0104   -2.2348    1.6701 H   0  0  0  0  0  0  0  0  0  0  0  0
   -1.0435   -0.0053   -1.3531 H   0  0  0  0  0  0  0  0  0  0  0  0
   -3.0156    0.3189    1.6637 H   0  0  0  0  0  0  0  0  0  0  0  0
   -2.2340    1.1425    0.3130 H   0  0  0  0  0  0  0  0  0  0  0  0
   -3.5250   -0.4178   -1.8722 H   0  0  0  0  0  0  0  0  0  0  0  0
   -3.9470    2.3725   -2.5984 H   0  0  0  0  0  0  0  0  0  0  0  0
   -2.4675    1.3998   -2.6739 H   0  0  0  0  0  0  0  0  0  0  0  0
   -2.9085    2.3620   -1.1705 H   0  0  0  0  0  0  0  0  0  0  0  0
   -5.8447   -0.5383   -2.2560 H   0  0  0  0  0  0  0  0  0  0  0  0
   -6.1377    1.1709   -1.7956 H   0  0  0  0  0  0  0  0  0  0  0  0
   -5.2483    0.7754   -3.2851 H   0  0  0  0  0  0  0  0  0  0  0  0
   -6.2025   -0.1214   -0.1876 H   0  0  0  0  0  0  0  0  0  0  0  0
   -5.1096   -1.2550    0.6180 H   0  0  0  0  0  0  0  0  0  0  0  0
   -6.9246    2.0779    1.0226 H   0  0  0  0  0  0  0  0  0  0  0  0
   -5.3239    0.3662    5.2013 H   0  0  0  0  0  0  0  0  0  0  0  0
   -4.5045   -0.9648    3.0328 H   0  0  0  0  0  0  0  0  0  0  0  0
    4.6412    3.3169   -0.5362 H   0  0  0  0  0  0  0  0  0  0  0  0
    6.0942    3.5659    0.4614 H   0  0  0  0  0  0  0  0  0  0  0  0
    6.9537    3.3464   -2.6371 H   0  0  0  0  0  0  0  0  0  0  0  0
    7.9709    3.3861   -1.1062 H   0  0  0  0  0  0  0  0  0  0  0  0
    8.6391    2.7005   -2.6233 H   0  0  0  0  0  0  0  0  0  0  0  0
    5.8111   -1.4612   -1.9448 H   0  0  0  0  0  0  0  0  0  0  0  0
    5.2435    1.2122    0.6189 H   0  0  0  0  0  0  0  0  0  0  0  0
    3.1988    1.3482    1.8588 H   0  0  0  0  0  0  0  0  0  0  0  0
    2.0724   -2.4544    0.3425 H   0  0  0  0  0  0  0  0  0  0  0  0
    4.1326   -2.6156   -0.9142 H   0  0  0  0  0  0  0  0  0  0  0  0
   -0.4137   -0.6096    3.0563 H   0  0  0  0  0  0  0  0  0  0  0  0
    0.4668   -2.0726    2.6420 H   0  0  0  0  0  0  0  0  0  0  0  0
   -0.1006   -3.3289    0.6054 H   0  0  0  0  0  0  0  0  0  0  0  0
   -1.5979   -3.7175   -1.2433 H   0  0  0  0  0  0  0  0  0  0  0  0
   -3.1677   -1.9519   -1.8839 H   0  0  0  0  0  0  0  0  0  0  0  0
   -1.6569    0.5659    1.2262 H   0  0  0  0  0  0  0  0  0  0  0  0
   -3.5047    0.5594   -1.8460 H   0  0  0  0  0  0  0  0  0  0  0  0
   -2.9554    1.4785   -0.4582 H   0  0  0  0  0  0  0  0  0  0  0  0
   -6.5299   -0.3079    0.2646 H   0  0  0  0  0  0  0  0  0  0  0  0
   -6.9489   -0.8265   -1.8782 H   0  0  0  0  0  0  0  0  0  0  0  0
   -5.2907   -0.4997   -2.3639 H   0  0  0  0  0  0  0  0  0  0  0  0
   -5.6944   -2.1070   -1.7493 H   0  0  0  0  0  0  0  0  0  0  0  0
   -5.9036   -2.1439    1.3845 H   0  0  0  0  0  0  0  0  0  0  0  0
   -4.2230   -1.6467    1.2651 H   0  0  0  0  0  0  0  0  0  0  0  0
   -5.0331   -2.7098   -0.0332 H   0  0  0  0  0  0  0  0  0  0  0  0
   -6.4804    1.5936    0.1190 H   0  0  0  0  0  0  0  0  0  0  0  0
   -5.7493    1.6298   -1.4949 H   0  0  0  0  0  0  0  0  0  0  0  0
   -3.7892    3.2789   -2.0184 H   0  0  0  0  0  0  0  0  0  0  0  0
   -4.3380    5.4577    2.1561 H   0  0  0  0  0  0  0  0  0  0  0  0
   -5.6089    3.1902    1.9255 H   0  0  0  0  0  0  0  0  0  0  0  0
    6.5440   -2.7272   -0.0434 H   0  0  0  0  0  0  0  0  0  0  0  0
    7.9335   -2.0477   -1.0261 H   0  0  0  0  0  0  0  0  0  0  0  0
  1  2  1  0
  2  3  3  0
  3  4  1  0
  4  5  1  0
  5  6  2  0
  6  7  1  0
  7  8  2  0
  8  9  1  0
  9 10  2  0
  8 11  1  0
 11 12  1  0
 12 13  1  0
 13 14  2  0
 14 15  1  0
 15 16  2  0
 16 17  1  0
 17 18  2  0
 17 19  1  0
 19 20  1  0
 20 21  1  0
 21 22  1  0
 21 23  1  0
 20 24  1  0
 24 25  1  0
 25 26  2  0
 26 27  1  0
 27 28  1  0
 28 29  2  0
  4 30  1  0
 30 31  1  0
 31 32  2  0
 31 33  1  0
 34 35  1  0
 35 36  3  0
 36 37  1  0
 37 38  1  0
 38 39  2  0
 39 40  1  0
 40 41  2  0
 41 42  1  0
 42 43  2  0
 41 44  1  0
 44 45  1  0
 45 46  1  0
 46 47  2  0
 47 48  1  0
 48 49  2  0
 49 50  1  0
 50 51  2  0
 50 52  1  0
 52 53  1  0
 53 54  1  0
 54 55  1  0
 54 56  1  0
 53 57  1  0
 57 58  1  0
 58 59  2  0
 59 60  1  0
 60 61  1  0
 61 62  2  0
 37 63  1  0
 63 64  1  0
 64 65  2  0
 64 66  1  0
 10  5  1  0
 18 13  1  0
 29 25  1  0
 43 38  1  0
 51 46  1  0
 62 58  1  0
  1 68  1  0
  1 69  1  0
  1 70  1  0
  4 71  1  1
  6 72  1  0
  7 73  1  0
  9 74  1  0
 10 75  1  0
 12 76  1  0
 12 77  1  0
 14 78  1  0
 15 79  1  0
 16 80  1  0
 18 81  1  0
 19 82  1  0
 19 83  1  0
 21 84  1  0
 22 85  1  0
 22 86  1  0
 22 87  1  0
 23 88  1  0
 23 89  1  0
 23 90  1  0
 24 91  1  0
 24 92  1  0
 26 93  1  0
 28 94  1  0
 29 95  1  0
 30 96  1  0
 30 97  1  0
 34 98  1  0
 34 99  1  0
 34100  1  0
 37101  1  6
 39102  1  0
 40103  1  0
 42104  1  0
 43105  1  0
 45106  1  0
 45107  1  0
 47108  1  0
 48109  1  0
 49110  1  0
 51111  1  0
 52112  1  0
 52113  1  0
 54114  1  0
 55115  1  0
 55116  1  0
 55117  1  0
 56118  1  0
 56119  1  0
 56120  1  0
 57121  1  0
 57122  1  0
 59123  1  0
 61124  1  0
 62125  1  0
 63126  1  0
 63127  1  0
M  CHG  3  33  -1  66  -1  67   2
M  END
>  <Ligand ID>  (1) 
LIG0003551

>  <Ligand>  (1) 
CHEMBL3930086

>  <SMILES>  (1) 
CC#C[C@H](c1ccc(cc1)OCc1cccc(c1)CN(C(C)C)Cc1cscc1)CC(=O)[O-].CC#C[C@H](c1ccc(cc1)OCc1cccc(c1)CN(C(C)C)Cc1cscc1)CC(=O)[O-].[Ca+2]

>  <CID>  (1) 
134137873.0

>  <ChEMBL ID>  (1) 
nan

>  <InChiKey>  (1) 
KESURFVSLTYXJD-FKMBXMNYSA-L

>  <InChi>  (1) 
InChI=1S/2C28H31NO3S.Ca/c2*1-4-6-26(16-28(30)31)25-9-11-27(12-10-25)32-19-23-8-5-7-22(15-23)17-29(21(2)3)18-24-13-14-33-20-24;/h2*5,7-15,20-21,26H,16-19H2,1-3H3,(H,30,31);/q;;+2/p-2/t2*26-;/m00./s1

>  <IUPAC Name>  (1) 
calcium;(3S)-3-[4-[[3-[[propan-2-yl(thiophen-3-ylmethyl)amino]methyl]phenyl]methoxy]phenyl]hex-4-ynoate

$$$$
