
     RDKit          3D

 26 25  0  0  0  0  0  0  0  0999 V2000
   -3.3905    1.5234    0.1982 C   0  0  0  0  0  0  0  0  0  0  0  0
   -2.5330    0.5082    0.9246 C   0  0  0  0  0  0  0  0  0  0  0  0
   -1.5480   -0.0849   -0.0511 C   0  0  0  0  0  0  0  0  0  0  0  0
   -0.6480   -1.1051    0.5679 C   0  0  0  0  0  0  0  0  0  0  0  0
    0.3072   -1.6587   -0.4694 C   0  0  0  0  0  0  0  0  0  0  0  0
    1.1714   -0.5806   -1.0630 C   0  0  0  0  0  0  0  0  0  0  0  0
    2.0007    0.1157   -0.0525 C   0  0  0  0  0  0  0  0  0  0  0  0
    3.3291    0.1090   -0.1375 C   0  0  0  0  0  0  0  0  0  0  0  0
    4.1855    0.7805    0.8336 C   0  0  0  0  0  0  0  0  0  0  0  0
    5.4521    0.7204    0.6711 O   0  0  0  0  0  0  0  0  0  0  0  0
   -4.4052    1.1433   -0.0211 H   0  0  0  0  0  0  0  0  0  0  0  0
   -2.8912    1.8767   -0.7413 H   0  0  0  0  0  0  0  0  0  0  0  0
   -3.5443    2.4363    0.8372 H   0  0  0  0  0  0  0  0  0  0  0  0
   -2.0698    0.9439    1.8084 H   0  0  0  0  0  0  0  0  0  0  0  0
   -3.2270   -0.3175    1.2282 H   0  0  0  0  0  0  0  0  0  0  0  0
   -0.9028    0.7747   -0.3770 H   0  0  0  0  0  0  0  0  0  0  0  0
   -2.1019   -0.5590   -0.8834 H   0  0  0  0  0  0  0  0  0  0  0  0
   -0.0727   -0.6817    1.4222 H   0  0  0  0  0  0  0  0  0  0  0  0
   -1.2436   -1.9806    0.9588 H   0  0  0  0  0  0  0  0  0  0  0  0
    0.9196   -2.4916   -0.0577 H   0  0  0  0  0  0  0  0  0  0  0  0
   -0.2526   -2.1173   -1.3179 H   0  0  0  0  0  0  0  0  0  0  0  0
    1.8582   -1.0260   -1.8402 H   0  0  0  0  0  0  0  0  0  0  0  0
    0.5741    0.1548   -1.6142 H   0  0  0  0  0  0  0  0  0  0  0  0
    1.5209    0.6362    0.7646 H   0  0  0  0  0  0  0  0  0  0  0  0
    3.7477   -0.4282   -0.9767 H   0  0  0  0  0  0  0  0  0  0  0  0
    3.7640    1.3080    1.6582 H   0  0  0  0  0  0  0  0  0  0  0  0
  1  2  1  0
  2  3  1  0
  3  4  1  0
  4  5  1  0
  5  6  1  0
  6  7  1  0
  7  8  2  0
  8  9  1  0
  9 10  2  0
  1 11  1  0
  1 12  1  0
  1 13  1  0
  2 14  1  0
  2 15  1  0
  3 16  1  0
  3 17  1  0
  4 18  1  0
  4 19  1  0
  5 20  1  0
  5 21  1  0
  6 22  1  0
  6 23  1  0
  7 24  1  0
  8 25  1  0
  9 26  1  0
M  END
>  <Ligand ID>  (1) 
LIG0000146

>  <Ligand>  (1) 
2-Nonenal

>  <SMILES>  (1) 
CCCCCC/C=C/C=O

>  <CID>  (1) 
5283335.0

>  <ChEMBL ID>  (1) 
nan

>  <InChiKey>  (1) 
BSAIUMLZVGUGKX-BQYQJAHWSA-N

>  <InChi>  (1) 
InChI=1S/C9H16O/c1-2-3-4-5-6-7-8-9-10/h7-9H,2-6H2,1H3/b8-7+

>  <IUPAC Name>  (1) 
(E)-non-2-enal

$$$$
