
     RDKit          3D

 61 66  0  0  0  0  0  0  0  0999 V2000
   -7.1493    1.9616   -0.2005 C   0  0  0  0  0  0  0  0  0  0  0  0
   -5.7914    1.9942   -0.5425 O   0  0  0  0  0  0  0  0  0  0  0  0
   -4.8995    1.0984   -0.0048 C   0  0  0  0  0  0  0  0  0  0  0  0
   -5.2691    0.1090    0.9033 C   0  0  0  0  0  0  0  0  0  0  0  0
   -4.3303   -0.7805    1.4255 C   0  0  0  0  0  0  0  0  0  0  0  0
   -3.0254   -0.6490    1.0132 C   0  0  0  0  0  0  0  0  0  0  0  0
   -2.6570    0.2983    0.1383 C   0  0  0  0  0  0  0  0  0  0  0  0
   -3.5753    1.1828   -0.3821 C   0  0  0  0  0  0  0  0  0  0  0  0
   -2.8533    2.0294   -1.2465 O   0  0  0  0  0  0  0  0  0  0  0  0
   -1.4828    2.0005   -0.7282 C   0  0  2  0  0  0  0  0  0  0  0  0
   -1.2913    0.5303   -0.4130 C   0  0  2  0  0  0  0  0  0  0  0  0
   -1.2967   -0.2868   -1.6844 C   0  0  0  0  0  0  0  0  0  0  0  0
   -1.1496   -1.7416   -1.4195 C   0  0  0  0  0  0  0  0  0  0  0  0
   -0.5445   -2.1207   -0.2213 N   0  0  0  0  0  0  0  0  0  0  0  0
   -0.7076   -1.3417    0.9432 C   0  0  2  0  0  0  0  0  0  0  0  0
   -2.0106   -1.5620    1.5735 C   0  0  0  0  0  0  0  0  0  0  0  0
   -0.3727    0.1473    0.6110 C   0  0  2  0  0  0  0  0  0  0  0  0
   -0.6183    0.8661    1.8958 C   0  0  0  0  0  0  0  0  0  0  0  0
   -0.9629    2.3034    1.7545 C   0  0  0  0  0  0  0  0  0  0  0  0
   -1.5906    2.7774    0.5281 C   0  0  0  0  0  0  0  0  0  0  0  0
   -2.2053    3.8067    0.5192 O   0  0  0  0  0  0  0  0  0  0  0  0
    1.0353    0.0662    0.4108 N   0  0  0  0  0  0  0  0  0  0  0  0
    1.9106    1.1150    0.0332 C   0  0  0  0  0  0  0  0  0  0  0  0
    1.4358    2.2374   -0.1561 O   0  0  0  0  0  0  0  0  0  0  0  0
    3.3517    0.9481   -0.1473 C   0  0  0  0  0  0  0  0  0  0  0  0
    4.0146   -0.1645    0.0111 C   0  0  0  0  0  0  0  0  0  0  0  0
    5.4573   -0.3081   -0.1750 C   0  0  0  0  0  0  0  0  0  0  0  0
    6.2838    0.7295   -0.5426 C   0  0  0  0  0  0  0  0  0  0  0  0
    7.6555    0.5660   -0.7132 C   0  0  0  0  0  0  0  0  0  0  0  0
    8.2389   -0.6544   -0.5176 C   0  0  0  0  0  0  0  0  0  0  0  0
    7.4421   -1.7080   -0.1508 C   0  0  0  0  0  0  0  0  0  0  0  0
    6.0855   -1.5404    0.0166 C   0  0  0  0  0  0  0  0  0  0  0  0
    9.9517   -0.9143   -0.7176 Cl  0  0  0  0  0  0  0  0  0  0  0  0
    0.2242   -3.2966   -0.1556 C   0  0  0  0  0  0  0  0  0  0  0  0
   -7.6762    2.6580   -0.8978 H   0  0  0  0  0  0  0  0  0  0  0  0
   -7.6180    0.9664   -0.3322 H   0  0  0  0  0  0  0  0  0  0  0  0
   -7.3336    2.2749    0.8459 H   0  0  0  0  0  0  0  0  0  0  0  0
   -6.3135    0.0530    1.1917 H   0  0  0  0  0  0  0  0  0  0  0  0
   -4.6215   -1.5479    2.1316 H   0  0  0  0  0  0  0  0  0  0  0  0
   -0.8969    2.4112   -1.5263 H   0  0  0  0  0  0  0  0  0  0  0  0
   -0.5701    0.0684   -2.4483 H   0  0  0  0  0  0  0  0  0  0  0  0
   -2.2731   -0.1270   -2.1899 H   0  0  0  0  0  0  0  0  0  0  0  0
   -2.1488   -2.2687   -1.4697 H   0  0  0  0  0  0  0  0  0  0  0  0
   -0.5919   -2.1980   -2.2787 H   0  0  0  0  0  0  0  0  0  0  0  0
    0.0762   -1.6640    1.6890 H   0  0  0  0  0  0  0  0  0  0  0  0
   -2.3517   -2.5940    1.2772 H   0  0  0  0  0  0  0  0  0  0  0  0
   -2.0088   -1.5695    2.6835 H   0  0  0  0  0  0  0  0  0  0  0  0
   -1.4228    0.3703    2.5093 H   0  0  0  0  0  0  0  0  0  0  0  0
    0.3394    0.8503    2.5226 H   0  0  0  0  0  0  0  0  0  0  0  0
   -0.0657    2.9760    1.9349 H   0  0  0  0  0  0  0  0  0  0  0  0
   -1.6142    2.5884    2.6584 H   0  0  0  0  0  0  0  0  0  0  0  0
    1.5525   -0.8745    0.5480 H   0  0  0  0  0  0  0  0  0  0  0  0
    3.9361    1.8253   -0.4407 H   0  0  0  0  0  0  0  0  0  0  0  0
    3.4832   -1.0556    0.2997 H   0  0  0  0  0  0  0  0  0  0  0  0
    5.9080    1.7237   -0.7170 H   0  0  0  0  0  0  0  0  0  0  0  0
    8.2788    1.4225   -1.0077 H   0  0  0  0  0  0  0  0  0  0  0  0
    7.8499   -2.6982    0.0179 H   0  0  0  0  0  0  0  0  0  0  0  0
    5.4839   -2.3897    0.3061 H   0  0  0  0  0  0  0  0  0  0  0  0
    0.7533   -3.3307    0.8186 H   0  0  0  0  0  0  0  0  0  0  0  0
    1.0046   -3.3993   -0.9347 H   0  0  0  0  0  0  0  0  0  0  0  0
   -0.4626   -4.1702   -0.1950 H   0  0  0  0  0  0  0  0  0  0  0  0
  1  2  1  0
  2  3  1  0
  3  4  2  0
  4  5  1  0
  5  6  2  0
  6  7  1  0
  7  8  2  0
  8  9  1  0
  9 10  1  0
 10 11  1  0
 11 12  1  6
 12 13  1  0
 13 14  1  0
 14 15  1  0
 15 16  1  0
 15 17  1  0
 17 18  1  0
 18 19  1  0
 19 20  1  0
 20 21  2  0
 17 22  1  6
 22 23  1  0
 23 24  2  0
 23 25  1  0
 25 26  2  0
 26 27  1  0
 27 28  2  0
 28 29  1  0
 29 30  2  0
 30 31  1  0
 31 32  2  0
 30 33  1  0
 14 34  1  0
  8  3  1  0
 20 10  1  0
 32 27  1  0
 16  6  1  0
 11  7  1  0
 17 11  1  0
  1 35  1  0
  1 36  1  0
  1 37  1  0
  4 38  1  0
  5 39  1  0
 10 40  1  6
 12 41  1  0
 12 42  1  0
 13 43  1  0
 13 44  1  0
 15 45  1  1
 16 46  1  0
 16 47  1  0
 18 48  1  0
 18 49  1  0
 19 50  1  0
 19 51  1  0
 22 52  1  0
 25 53  1  0
 26 54  1  0
 28 55  1  0
 29 56  1  0
 31 57  1  0
 32 58  1  0
 34 59  1  0
 34 60  1  0
 34 61  1  0
M  END
>  <Ligand ID>  (1) 
LIG0004597

>  <Ligand>  (1) 
CHEMBL607069

>  <SMILES>  (1) 
COc1ccc2c3c1O[C@@H]1[C@@]43CCN([C@H](C2)[C@@]4(CCC1=O)NC(=O)/C=C/c1ccc(cc1)Cl)C

>  <CID>  (1) 
11849360.0

>  <ChEMBL ID>  (1) 
nan

>  <InChiKey>  (1) 
LCRBGGVXFPUISF-UXWNPHPLSA-N

>  <InChi>  (1) 
InChI=1S/C27H27ClN2O4/c1-30-14-13-26-23-17-6-9-20(33-2)24(23)34-25(26)19(31)11-12-27(26,21(30)15-17)29-22(32)10-5-16-3-7-18(28)8-4-16/h3-10,21,25H,11-15H2,1-2H3,(H,29,32)/b10-5+/t21-,25+,26+,27-/m1/s1

>  <IUPAC Name>  (1) 
(E)-N-[(4R,4aS,7aR,12bR)-9-methoxy-3-methyl-7-oxo-2,4,5,6,7a,13-hexahydro-1H-4,12-methanobenzofuro[3,2-e]isoquinolin-4a-yl]-3-(4-chlorophenyl)prop-2-enamide

$$$$
