
     RDKit          3D

 23 24  0  0  0  0  0  0  0  0999 V2000
   -3.0943    1.4954   -0.8486 N   0  0  0  0  0  0  0  0  0  0  0  0
   -2.8489    0.2048   -0.2458 C   0  0  0  0  0  0  0  0  0  0  0  0
   -1.4924   -0.2854   -0.7616 C   0  0  1  0  0  0  0  0  0  0  0  0
   -0.5289    0.6167   -0.3951 O   0  0  0  0  0  0  0  0  0  0  0  0
    0.3209    0.0518    0.5210 C   0  0  1  0  0  0  0  0  0  0  0  0
   -0.0741   -1.3799    0.6639 C   0  0  0  0  0  0  0  0  0  0  0  0
   -1.1442   -1.5713   -0.0953 C   0  0  0  0  0  0  0  0  0  0  0  0
    1.7476    0.1611    0.0756 C   0  0  0  0  0  0  0  0  0  0  0  0
    2.1903   -0.1106   -1.2003 C   0  0  0  0  0  0  0  0  0  0  0  0
    3.5329    0.0954   -1.2360 N   0  0  0  0  0  0  0  0  0  0  0  0
    3.9168    0.4922    0.0114 C   0  0  0  0  0  0  0  0  0  0  0  0
    2.8250    0.5271    0.7938 N   0  0  0  0  0  0  0  0  0  0  0  0
   -3.5356    1.3320   -1.7850 H   0  0  0  0  0  0  0  0  0  0  0  0
   -2.1582    1.9778   -0.9560 H   0  0  0  0  0  0  0  0  0  0  0  0
   -3.6350   -0.5169   -0.5263 H   0  0  0  0  0  0  0  0  0  0  0  0
   -2.8236    0.3228    0.8547 H   0  0  0  0  0  0  0  0  0  0  0  0
   -1.5518   -0.4612   -1.8507 H   0  0  0  0  0  0  0  0  0  0  0  0
    0.2234    0.5175    1.5231 H   0  0  0  0  0  0  0  0  0  0  0  0
    0.4761   -2.0649    1.2979 H   0  0  0  0  0  0  0  0  0  0  0  0
   -1.6746   -2.4972   -0.2132 H   0  0  0  0  0  0  0  0  0  0  0  0
    1.5578   -0.4371   -2.0378 H   0  0  0  0  0  0  0  0  0  0  0  0
    4.9530    0.7314    0.2827 H   0  0  0  0  0  0  0  0  0  0  0  0
    2.8178    0.7986    1.8086 H   0  0  0  0  0  0  0  0  0  0  0  0
  1  2  1  0
  2  3  1  0
  3  4  1  0
  4  5  1  0
  5  6  1  0
  6  7  2  0
  5  8  1  0
  8  9  2  0
  9 10  1  0
 10 11  2  0
 11 12  1  0
  7  3  1  0
 12  8  1  0
  1 13  1  0
  1 14  1  0
  2 15  1  0
  2 16  1  0
  3 17  1  6
  5 18  1  1
  6 19  1  0
  7 20  1  0
  9 21  1  0
 11 22  1  0
 12 23  1  0
M  END
>  <Ligand ID>  (1) 
LIG0005768

>  <Ligand>  (1) 
CHEMBL319658

>  <SMILES>  (1) 
NC[C@H]1O[C@@H](C=C1)c1cnc[nH]1

>  <CID>  (1) 
10820929.0

>  <ChEMBL ID>  (1) 
nan

>  <InChiKey>  (1) 
DCDBUDNURLZBED-XPUUQOCRSA-N

>  <InChi>  (1) 
InChI=1S/C8H11N3O/c9-3-6-1-2-8(12-6)7-4-10-5-11-7/h1-2,4-6,8H,3,9H2,(H,10,11)/t6-,8-/m0/s1

>  <IUPAC Name>  (1) 
[(2S,5S)-5-(1H-imidazol-5-yl)-2,5-dihydrofuran-2-yl]methanamine

$$$$
