
     RDKit          3D

 94 95  0  0  0  0  0  0  0  0999 V2000
   -0.9881   -0.0051    0.0926 C   0  0  0  0  0  0  0  0  0  0  0  0
    0.4301    0.2367   -0.2375 C   0  0  0  0  0  0  0  0  0  0  0  0
    0.7867    1.2034   -0.9374 O   0  0  0  0  0  0  0  0  0  0  0  0
    1.3756   -0.6516    0.2573 O   0  0  0  0  0  0  0  0  0  0  0  0
   10.4684    1.0730    1.9921 O   0  0  0  0  0  0  0  0  0  0  0  0
    9.2380    0.6706    2.5185 C   0  0  0  0  0  0  0  0  0  0  0  0
    8.6845   -0.3537    1.5920 C   0  0  0  0  0  0  0  0  0  0  0  0
    7.6621   -0.0151    0.7301 C   0  0  0  0  0  0  0  0  0  0  0  0
    7.1015   -0.9224   -0.1584 C   0  0  0  0  0  0  0  0  0  0  0  0
    7.6218   -2.1970   -0.1388 C   0  0  0  0  0  0  0  0  0  0  0  0
    8.6542   -2.5681    0.7209 C   0  0  0  0  0  0  0  0  0  0  0  0
    9.1913   -1.6364    1.5954 C   0  0  0  0  0  0  0  0  0  0  0  0
   10.2208   -1.9386    2.4784 O   0  0  0  0  0  0  0  0  0  0  0  0
    6.0176   -0.4726   -1.0351 C   0  0  2  0  0  0  0  0  0  0  0  0
    4.7195   -1.0784   -0.5071 C   0  0  0  0  0  0  0  0  0  0  0  0
    4.4064   -0.6948    0.7754 N   0  0  0  0  0  0  0  0  0  0  0  0
    4.0821    0.5265    1.2988 C   0  0  0  0  0  0  0  0  0  0  0  0
    2.8580    1.3073    1.0707 C   0  0  0  0  0  0  0  0  0  0  0  0
    2.4574    1.9099   -0.1854 C   0  0  0  0  0  0  0  0  0  0  0  0
    2.1978    1.1692   -1.4225 C   0  0  0  0  0  0  0  0  0  0  0  0
    1.1494    0.1080   -1.3267 C   0  0  0  0  0  0  0  0  0  0  0  0
   -0.1822    0.7317   -0.9040 C   0  0  0  0  0  0  0  0  0  0  0  0
   -0.6243    1.7023   -1.7986 O   0  0  0  0  0  0  0  0  0  0  0  0
   -0.9091    1.2317   -3.0425 C   0  0  0  0  0  0  0  0  0  0  0  0
   -2.1106    0.3876   -3.2306 C   0  0  0  0  0  0  0  0  0  0  0  0
   -3.3661    1.1120   -3.0378 C   0  0  0  0  0  0  0  0  0  0  0  0
   -3.8290    1.7111   -1.7812 C   0  0  0  0  0  0  0  0  0  0  0  0
   -4.1202    0.7184   -0.7437 C   0  0  0  0  0  0  0  0  0  0  0  0
   -3.3937    0.3978    0.3561 C   0  0  0  0  0  0  0  0  0  0  0  0
   -3.7568   -0.5968    1.2556 C   0  0  0  0  0  0  0  0  0  0  0  0
   -2.9038   -0.8897    2.4392 C   0  0  0  0  0  0  0  0  0  0  0  0
   -4.9121   -1.3232    1.0603 C   0  0  0  0  0  0  0  0  0  0  0  0
   -5.6722   -1.0181   -0.0501 C   0  0  0  0  0  0  0  0  0  0  0  0
   -5.3010   -0.0314   -0.9327 C   0  0  0  0  0  0  0  0  0  0  0  0
   -7.1587   -1.9077   -0.3633 S   0  0  0  0  0  0  0  0  0  0  0  0
   -7.4497   -1.8637   -1.8443 O   0  0  0  0  0  0  0  0  0  0  0  0
   -6.9939   -3.3216    0.0459 O   0  0  0  0  0  0  0  0  0  0  0  0
   -8.5436   -1.1312    0.4321 C   0  0  0  0  0  0  0  0  0  0  0  0
   -8.3805   -1.0348    1.9293 C   0  0  0  0  0  0  0  0  0  0  0  0
   -8.4935    0.4182    2.2876 C   0  0  0  0  0  0  0  0  0  0  0  0
   -9.3182    0.9744    1.1433 C   0  0  0  0  0  0  0  0  0  0  0  0
   -8.7484    0.2756   -0.0735 C   0  0  0  0  0  0  0  0  0  0  0  0
    6.2354   -0.9251   -2.3190 O   0  0  0  0  0  0  0  0  0  0  0  0
   -1.0690   -0.1276    1.1964 H   0  0  0  0  0  0  0  0  0  0  0  0
   -1.6613    0.7858   -0.2602 H   0  0  0  0  0  0  0  0  0  0  0  0
   -1.2556   -0.9970   -0.3465 H   0  0  0  0  0  0  0  0  0  0  0  0
    2.3817   -0.4447    0.2353 H   0  0  0  0  0  0  0  0  0  0  0  0
   11.1339    0.9523    2.7300 H   0  0  0  0  0  0  0  0  0  0  0  0
    8.5758    1.5532    2.5776 H   0  0  0  0  0  0  0  0  0  0  0  0
    9.3319    0.2157    3.5179 H   0  0  0  0  0  0  0  0  0  0  0  0
    7.3064    1.0063    0.7743 H   0  0  0  0  0  0  0  0  0  0  0  0
    7.1876   -2.9185   -0.8343 H   0  0  0  0  0  0  0  0  0  0  0  0
    9.0548   -3.5740    0.7260 H   0  0  0  0  0  0  0  0  0  0  0  0
   11.1616   -1.6730    2.1749 H   0  0  0  0  0  0  0  0  0  0  0  0
    5.9147    0.6199   -1.0205 H   0  0  0  0  0  0  0  0  0  0  0  0
    3.9401   -0.9967   -1.2509 H   0  0  0  0  0  0  0  0  0  0  0  0
    4.9210   -2.2247   -0.4550 H   0  0  0  0  0  0  0  0  0  0  0  0
    4.4305   -1.5015    1.4738 H   0  0  0  0  0  0  0  0  0  0  0  0
    4.2181    0.4107    2.4624 H   0  0  0  0  0  0  0  0  0  0  0  0
    4.9568    1.2966    1.1556 H   0  0  0  0  0  0  0  0  0  0  0  0
    1.9566    0.7823    1.5855 H   0  0  0  0  0  0  0  0  0  0  0  0
    2.9514    2.1991    1.8161 H   0  0  0  0  0  0  0  0  0  0  0  0
    3.2514    2.6927   -0.4513 H   0  0  0  0  0  0  0  0  0  0  0  0
    1.5186    2.5416    0.0025 H   0  0  0  0  0  0  0  0  0  0  0  0
    3.0300    0.8399   -2.0346 H   0  0  0  0  0  0  0  0  0  0  0  0
    1.7081    1.9667   -2.1287 H   0  0  0  0  0  0  0  0  0  0  0  0
    0.9778   -0.4205   -2.2732 H   0  0  0  0  0  0  0  0  0  0  0  0
    1.3910   -0.6807   -0.5824 H   0  0  0  0  0  0  0  0  0  0  0  0
   -0.1601    1.1305    0.1246 H   0  0  0  0  0  0  0  0  0  0  0  0
   -0.9632   -0.0811   -0.9102 H   0  0  0  0  0  0  0  0  0  0  0  0
    0.0064    0.7699   -3.5324 H   0  0  0  0  0  0  0  0  0  0  0  0
   -1.0348    2.1722   -3.6960 H   0  0  0  0  0  0  0  0  0  0  0  0
   -1.9913   -0.5116   -2.5733 H   0  0  0  0  0  0  0  0  0  0  0  0
   -2.0465   -0.0082   -4.2952 H   0  0  0  0  0  0  0  0  0  0  0  0
   -4.1850    0.3846   -3.4429 H   0  0  0  0  0  0  0  0  0  0  0  0
   -3.4549    1.9061   -3.8904 H   0  0  0  0  0  0  0  0  0  0  0  0
   -3.0758    2.4098   -1.3194 H   0  0  0  0  0  0  0  0  0  0  0  0
   -4.7590    2.3152   -1.9835 H   0  0  0  0  0  0  0  0  0  0  0  0
   -2.5086    0.9420    0.5727 H   0  0  0  0  0  0  0  0  0  0  0  0
   -2.1889   -0.0555    2.6005 H   0  0  0  0  0  0  0  0  0  0  0  0
   -2.3010   -1.7906    2.1395 H   0  0  0  0  0  0  0  0  0  0  0  0
   -3.5262   -1.0896    3.3291 H   0  0  0  0  0  0  0  0  0  0  0  0
   -5.1773   -2.0896    1.7675 H   0  0  0  0  0  0  0  0  0  0  0  0
   -5.9435    0.1606   -1.7888 H   0  0  0  0  0  0  0  0  0  0  0  0
   -9.4439   -1.7369    0.1926 H   0  0  0  0  0  0  0  0  0  0  0  0
   -9.2257   -1.5854    2.4311 H   0  0  0  0  0  0  0  0  0  0  0  0
   -7.4282   -1.4487    2.2768 H   0  0  0  0  0  0  0  0  0  0  0  0
   -9.0654    0.5431    3.2402 H   0  0  0  0  0  0  0  0  0  0  0  0
   -7.5154    0.9311    2.3397 H   0  0  0  0  0  0  0  0  0  0  0  0
   -9.2225    2.0913    1.0823 H   0  0  0  0  0  0  0  0  0  0  0  0
  -10.3685    0.6942    1.2463 H   0  0  0  0  0  0  0  0  0  0  0  0
   -9.4789    0.3109   -0.9184 H   0  0  0  0  0  0  0  0  0  0  0  0
   -7.7981    0.7725   -0.3261 H   0  0  0  0  0  0  0  0  0  0  0  0
    7.1396   -0.7290   -2.6579 H   0  0  0  0  0  0  0  0  0  0  0  0
  1  2  1  0
  2  3  2  0
  2  4  1  0
  5  6  1  0
  6  7  1  0
  7  8  2  0
  8  9  1  0
  9 10  2  0
 10 11  1  0
 11 12  2  0
 12 13  1  0
  9 14  1  0
 14 15  1  0
 15 16  1  0
 16 17  1  0
 17 18  1  0
 18 19  1  0
 19 20  1  0
 20 21  1  0
 21 22  1  0
 22 23  1  0
 23 24  1  0
 24 25  1  0
 25 26  1  0
 26 27  1  0
 27 28  1  0
 28 29  2  0
 29 30  1  0
 30 31  1  0
 30 32  2  0
 32 33  1  0
 33 34  2  0
 33 35  1  0
 35 36  2  0
 35 37  2  0
 35 38  1  0
 38 39  1  0
 39 40  1  0
 40 41  1  0
 41 42  1  0
 14 43  1  0
 12  7  1  0
 34 28  1  0
 42 38  1  0
  1 44  1  0
  1 45  1  0
  1 46  1  0
  4 47  1  0
  5 48  1  0
  6 49  1  0
  6 50  1  0
  8 51  1  0
 10 52  1  0
 11 53  1  0
 13 54  1  0
 14 55  1  6
 15 56  1  0
 15 57  1  0
 16 58  1  0
 17 59  1  0
 17 60  1  0
 18 61  1  0
 18 62  1  0
 19 63  1  0
 19 64  1  0
 20 65  1  0
 20 66  1  0
 21 67  1  0
 21 68  1  0
 22 69  1  0
 22 70  1  0
 24 71  1  0
 24 72  1  0
 25 73  1  0
 25 74  1  0
 26 75  1  0
 26 76  1  0
 27 77  1  0
 27 78  1  0
 29 79  1  0
 31 80  1  0
 31 81  1  0
 31 82  1  0
 32 83  1  0
 34 84  1  0
 38 85  1  0
 39 86  1  0
 39 87  1  0
 40 88  1  0
 40 89  1  0
 41 90  1  0
 41 91  1  0
 42 92  1  0
 42 93  1  0
 43 94  1  0
M  END
>  <Ligand ID>  (1) 
LIG0003748

>  <Ligand>  (1) 
SCHEMBL4628650

>  <SMILES>  (1) 
CC(=O)O.OCc1cc(ccc1O)[C@H](CNCCCCCCOCCCCc1cc(C)cc(c1)S(=O)(=O)C1CCCC1)O

>  <CID>  (1) 
69119831.0

>  <ChEMBL ID>  (1) 
nan

>  <InChiKey>  (1) 
UKZFUCLKGYORJG-YNMZEGNTSA-N

>  <InChi>  (1) 
InChI=1S/C31H47NO6S.C2H4O2/c1-24-18-25(20-29(19-24)39(36,37)28-11-4-5-12-28)10-6-9-17-38-16-8-3-2-7-15-32-22-31(35)26-13-14-30(34)27(21-26)23-33;1-2(3)4/h13-14,18-21,28,31-35H,2-12,15-17,22-23H2,1H3;1H3,(H,3,4)/t31-;/m0./s1

>  <IUPAC Name>  (1) 
acetic acid;4-[(1R)-2-[6-[4-(3-cyclopentylsulfonyl-5-methylphenyl)butoxy]hexylamino]-1-hydroxyethyl]-2-(hydroxymethyl)phenol

$$$$
