
     RDKit          3D

155160  0  0  0  0  0  0  0  0999 V2000
   10.7905    0.7585   -3.4461 C   0  0  0  0  0  0  0  0  0  0  0  0
    9.4362    0.3727   -2.8660 C   0  0  0  0  0  0  0  0  0  0  0  0
    9.5996    0.2358   -1.3751 C   0  0  0  0  0  0  0  0  0  0  0  0
    8.2653   -0.1508   -0.7236 C   0  0  0  0  0  0  0  0  0  0  0  0
    7.7061   -1.4108   -1.2256 C   0  0  2  0  0  0  0  0  0  0  0  0
    6.3924   -1.8219   -0.5832 C   0  0  0  0  0  0  0  0  0  0  0  0
    6.1369   -3.0579   -0.7395 O   0  0  0  0  0  0  0  0  0  0  0  0
    5.5770   -0.9081    0.0977 N   0  0  0  0  0  0  0  0  0  0  0  0
    4.2950   -1.2553    0.7079 C   0  0  1  0  0  0  0  0  0  0  0  0
    4.5379   -2.3748    1.6961 C   0  0  0  0  0  0  0  0  0  0  0  0
    3.3236   -2.7413    2.4387 C   0  0  0  0  0  0  0  0  0  0  0  0
    2.7235   -2.0496    3.2738 O   0  0  0  0  0  0  0  0  0  0  0  0
    2.6763   -4.0289    2.2255 N   0  0  0  0  0  0  0  0  0  0  0  0
    1.4672   -4.4136    2.9233 C   0  0  0  0  0  0  0  0  0  0  0  0
    0.3411   -3.4287    2.7301 C   0  0  0  0  0  0  0  0  0  0  0  0
    0.0124   -3.0385    1.3553 C   0  0  0  0  0  0  0  0  0  0  0  0
   -0.5454   -4.0582    0.4535 C   0  0  0  0  0  0  0  0  0  0  0  0
   -1.8737   -4.6211    0.7628 C   0  0  2  0  0  0  0  0  0  0  0  0
   -2.9364   -3.6107    0.9496 N   0  0  0  0  0  0  0  0  0  0  0  0
   -4.0548   -3.5396    0.0724 C   0  0  0  0  0  0  0  0  0  0  0  0
   -4.0155   -4.3408   -0.8811 O   0  0  0  0  0  0  0  0  0  0  0  0
   -5.2086   -2.6434    0.1931 C   0  0  1  0  0  0  0  0  0  0  0  0
   -5.0746   -1.5721    1.2030 N   0  0  0  0  0  0  0  0  0  0  0  0
   -4.2816   -0.4309    1.0258 C   0  0  0  0  0  0  0  0  0  0  0  0
   -3.7141   -0.4944   -0.1216 O   0  0  0  0  0  0  0  0  0  0  0  0
   -3.9912    0.7314    1.8237 C   0  0  1  0  0  0  0  0  0  0  0  0
   -3.1179    1.6934    1.0684 N   0  0  0  0  0  0  0  0  0  0  0  0
   -1.7988    1.9714    1.4686 C   0  0  0  0  0  0  0  0  0  0  0  0
   -1.3831    1.3377    2.4122 O   0  0  0  0  0  0  0  0  0  0  0  0
   -0.8671    2.9772    0.8270 C   0  0  2  0  0  0  0  0  0  0  0  0
    0.4113    2.8651    1.5841 N   0  0  0  0  0  0  0  0  0  0  0  0
    1.5551    2.2147    1.0196 C   0  0  0  0  0  0  0  0  0  0  0  0
    1.4071    1.8046   -0.1329 O   0  0  0  0  0  0  0  0  0  0  0  0
    2.8057    2.0742    1.8364 C   0  0  1  0  0  0  0  0  0  0  0  0
    3.7686    1.2206    1.1594 N   0  0  0  0  0  0  0  0  0  0  0  0
    3.4852   -0.2126    1.1907 C   0  0  0  0  0  0  0  0  0  0  0  0
    2.3697   -0.4237    1.7212 O   0  0  0  0  0  0  0  0  0  0  0  0
    3.3183    3.3692    2.2867 C   0  0  0  0  0  0  0  0  0  0  0  0
    3.7212    4.3350    1.2717 C   0  0  0  0  0  0  0  0  0  0  0  0
    3.7338    4.2958   -0.0671 N   0  0  0  0  0  0  0  0  0  0  0  0
    4.2200    5.4546   -0.5690 C   0  0  0  0  0  0  0  0  0  0  0  0
    4.5154    6.2305    0.4601 N   0  0  0  0  0  0  0  0  0  0  0  0
    4.2313    5.5986    1.5864 C   0  0  0  0  0  0  0  0  0  0  0  0
   -1.3389    4.3783    0.9820 C   0  0  0  0  0  0  0  0  0  0  0  0
   -0.4491    5.4097    0.3641 C   0  0  0  0  0  0  0  0  0  0  0  0
    0.5548    6.0450    1.0526 C   0  0  0  0  0  0  0  0  0  0  0  0
    1.2983    6.9842    0.3940 C   0  0  0  0  0  0  0  0  0  0  0  0
    1.0605    7.3004   -0.9335 C   0  0  0  0  0  0  0  0  0  0  0  0
    0.0415    6.6564   -1.6361 C   0  0  0  0  0  0  0  0  0  0  0  0
   -0.7089    5.7055   -0.9662 C   0  0  0  0  0  0  0  0  0  0  0  0
   -0.1824    6.9862   -2.9570 C   0  0  0  0  0  0  0  0  0  0  0  0
    0.6180    7.9482   -3.5330 C   0  0  0  0  0  0  0  0  0  0  0  0
    1.6327    8.5963   -2.8498 C   0  0  0  0  0  0  0  0  0  0  0  0
    1.8566    8.2630   -1.5227 C   0  0  0  0  0  0  0  0  0  0  0  0
   -3.5953    2.3275   -0.1014 C   0  0  0  0  0  0  0  0  0  0  0  0
   -4.9519    1.4690    2.6338 C   0  0  0  0  0  0  0  0  0  0  0  0
   -6.1374    2.1630    2.1858 C   0  0  0  0  0  0  0  0  0  0  0  0
   -7.1718    1.3837    1.4337 C   0  0  0  0  0  0  0  0  0  0  0  0
   -6.7107    0.8628    0.1681 N   0  0  0  0  0  0  0  0  0  0  0  0
   -7.0749    1.4383   -0.9206 C   0  0  0  0  0  0  0  0  0  0  0  0
   -6.6614    0.9864   -2.2208 N   0  0  0  0  0  0  0  0  0  0  0  0
   -7.9325    2.5971   -0.9380 N   0  0  0  0  0  0  0  0  0  0  0  0
   -5.7764   -1.7599    2.4188 C   0  0  0  0  0  0  0  0  0  0  0  0
   -5.7111   -2.2249   -1.1150 C   0  0  0  0  0  0  0  0  0  0  0  0
   -6.1375   -3.3808   -1.9683 C   0  0  0  0  0  0  0  0  0  0  0  0
   -5.4669   -3.8618   -3.1039 C   0  0  0  0  0  0  0  0  0  0  0  0
   -6.1983   -4.8813   -3.5808 N   0  0  0  0  0  0  0  0  0  0  0  0
   -7.2858   -5.0639   -2.8131 C   0  0  0  0  0  0  0  0  0  0  0  0
   -7.2849   -4.1417   -1.7896 C   0  0  0  0  0  0  0  0  0  0  0  0
   -8.3067   -4.1389   -0.8798 C   0  0  0  0  0  0  0  0  0  0  0  0
   -9.3585   -5.0447   -0.9527 C   0  0  0  0  0  0  0  0  0  0  0  0
   -9.3465   -5.9781   -2.0018 C   0  0  0  0  0  0  0  0  0  0  0  0
   -8.3129   -5.9678   -2.9060 C   0  0  0  0  0  0  0  0  0  0  0  0
   -1.9056   -5.5801    1.8552 C   0  0  0  0  0  0  0  0  0  0  0  0
   -2.7039   -5.4826    2.8394 O   0  0  0  0  0  0  0  0  0  0  0  0
   -1.0308   -6.6999    1.8760 N   0  0  0  0  0  0  0  0  0  0  0  0
    8.5414   -2.5355   -1.4156 N   0  0  0  0  0  0  0  0  0  0  0  0
    8.6239   -3.4011   -2.5215 C   0  0  0  0  0  0  0  0  0  0  0  0
    7.9083   -3.2818   -3.5680 O   0  0  0  0  0  0  0  0  0  0  0  0
    9.5774   -4.5581   -2.5523 C   0  0  0  0  0  0  0  0  0  0  0  0
   11.5488    0.2226   -2.8134 H   0  0  0  0  0  0  0  0  0  0  0  0
   10.8893    1.8621   -3.3555 H   0  0  0  0  0  0  0  0  0  0  0  0
   10.8070    0.3991   -4.4934 H   0  0  0  0  0  0  0  0  0  0  0  0
    9.1919   -0.6222   -3.3308 H   0  0  0  0  0  0  0  0  0  0  0  0
    8.7469    1.1734   -3.1292 H   0  0  0  0  0  0  0  0  0  0  0  0
   10.3263   -0.5727   -1.1870 H   0  0  0  0  0  0  0  0  0  0  0  0
    9.9438    1.1848   -0.9067 H   0  0  0  0  0  0  0  0  0  0  0  0
    7.5575    0.7155   -0.8134 H   0  0  0  0  0  0  0  0  0  0  0  0
    8.4811   -0.2223    0.3678 H   0  0  0  0  0  0  0  0  0  0  0  0
    7.3194   -1.1747   -2.2996 H   0  0  0  0  0  0  0  0  0  0  0  0
    5.9309    0.0849    0.1730 H   0  0  0  0  0  0  0  0  0  0  0  0
    3.7783   -1.8735   -0.1464 H   0  0  0  0  0  0  0  0  0  0  0  0
    5.2359   -1.9370    2.4762 H   0  0  0  0  0  0  0  0  0  0  0  0
    5.0293   -3.2618    1.2407 H   0  0  0  0  0  0  0  0  0  0  0  0
    3.1570   -4.6135    1.5400 H   0  0  0  0  0  0  0  0  0  0  0  0
    1.7007   -4.5065    4.0396 H   0  0  0  0  0  0  0  0  0  0  0  0
    1.2446   -5.4465    2.6243 H   0  0  0  0  0  0  0  0  0  0  0  0
   -0.5368   -3.9131    3.2633 H   0  0  0  0  0  0  0  0  0  0  0  0
    0.5346   -2.5345    3.3664 H   0  0  0  0  0  0  0  0  0  0  0  0
   -0.6333   -2.1159    1.4265 H   0  0  0  0  0  0  0  0  0  0  0  0
    0.9847   -2.6303    0.9066 H   0  0  0  0  0  0  0  0  0  0  0  0
   -0.4433   -3.7653   -0.6424 H   0  0  0  0  0  0  0  0  0  0  0  0
    0.1691   -4.9455    0.4969 H   0  0  0  0  0  0  0  0  0  0  0  0
   -2.1661   -5.2199   -0.1692 H   0  0  0  0  0  0  0  0  0  0  0  0
   -2.9289   -2.9212    1.7011 H   0  0  0  0  0  0  0  0  0  0  0  0
   -6.0147   -3.3360    0.6569 H   0  0  0  0  0  0  0  0  0  0  0  0
   -3.2459    0.3479    2.6108 H   0  0  0  0  0  0  0  0  0  0  0  0
   -0.7516    2.6828   -0.2079 H   0  0  0  0  0  0  0  0  0  0  0  0
    0.5347    3.2396    2.5206 H   0  0  0  0  0  0  0  0  0  0  0  0
    2.3787    1.5207    2.7439 H   0  0  0  0  0  0  0  0  0  0  0  0
    4.5977    1.4790    0.6678 H   0  0  0  0  0  0  0  0  0  0  0  0
    4.2402    3.1694    2.9105 H   0  0  0  0  0  0  0  0  0  0  0  0
    2.5782    3.7910    3.0163 H   0  0  0  0  0  0  0  0  0  0  0  0
    3.4246    3.5024   -0.6582 H   0  0  0  0  0  0  0  0  0  0  0  0
    4.3267    5.6578   -1.6276 H   0  0  0  0  0  0  0  0  0  0  0  0
    4.3777    6.0129    2.5832 H   0  0  0  0  0  0  0  0  0  0  0  0
   -2.3649    4.5022    0.6146 H   0  0  0  0  0  0  0  0  0  0  0  0
   -1.4340    4.6006    2.0998 H   0  0  0  0  0  0  0  0  0  0  0  0
    0.7109    5.7674    2.0903 H   0  0  0  0  0  0  0  0  0  0  0  0
    2.0932    7.5006    0.9168 H   0  0  0  0  0  0  0  0  0  0  0  0
   -1.4865    5.2300   -1.5427 H   0  0  0  0  0  0  0  0  0  0  0  0
   -0.9745    6.4946   -3.5194 H   0  0  0  0  0  0  0  0  0  0  0  0
    0.4667    8.2354   -4.5747 H   0  0  0  0  0  0  0  0  0  0  0  0
    2.2483    9.3462   -3.3262 H   0  0  0  0  0  0  0  0  0  0  0  0
    2.6552    8.7812   -1.0058 H   0  0  0  0  0  0  0  0  0  0  0  0
   -2.7048    2.6186   -0.7359 H   0  0  0  0  0  0  0  0  0  0  0  0
   -4.1344    1.6190   -0.7730 H   0  0  0  0  0  0  0  0  0  0  0  0
   -4.1792    3.2249    0.0498 H   0  0  0  0  0  0  0  0  0  0  0  0
   -5.1065    0.9511    3.6199 H   0  0  0  0  0  0  0  0  0  0  0  0
   -4.2904    2.3710    3.0771 H   0  0  0  0  0  0  0  0  0  0  0  0
   -5.9573    3.0780    1.5613 H   0  0  0  0  0  0  0  0  0  0  0  0
   -6.7376    2.5879    3.0680 H   0  0  0  0  0  0  0  0  0  0  0  0
   -8.0893    1.9902    1.2282 H   0  0  0  0  0  0  0  0  0  0  0  0
   -7.5287    0.5131    2.0698 H   0  0  0  0  0  0  0  0  0  0  0  0
   -7.4354    0.5181   -2.7775 H   0  0  0  0  0  0  0  0  0  0  0  0
   -5.6952    1.1129   -2.5749 H   0  0  0  0  0  0  0  0  0  0  0  0
   -7.5962    3.4616   -1.3705 H   0  0  0  0  0  0  0  0  0  0  0  0
   -8.8944    2.5817   -0.5136 H   0  0  0  0  0  0  0  0  0  0  0  0
   -5.9470   -0.9364    3.0853 H   0  0  0  0  0  0  0  0  0  0  0  0
   -5.2874   -2.5523    3.0593 H   0  0  0  0  0  0  0  0  0  0  0  0
   -6.8313   -2.1171    2.1549 H   0  0  0  0  0  0  0  0  0  0  0  0
   -6.6063   -1.5581   -1.0772 H   0  0  0  0  0  0  0  0  0  0  0  0
   -4.9451   -1.6569   -1.7074 H   0  0  0  0  0  0  0  0  0  0  0  0
   -4.5383   -3.4366   -3.4549 H   0  0  0  0  0  0  0  0  0  0  0  0
   -5.9188   -5.4167   -4.4277 H   0  0  0  0  0  0  0  0  0  0  0  0
   -8.2991   -3.4098   -0.0756 H   0  0  0  0  0  0  0  0  0  0  0  0
  -10.1677   -5.0382   -0.2282 H   0  0  0  0  0  0  0  0  0  0  0  0
  -10.1727   -6.6799   -2.0491 H   0  0  0  0  0  0  0  0  0  0  0  0
   -8.3479   -6.7065   -3.6947 H   0  0  0  0  0  0  0  0  0  0  0  0
   -0.8444   -7.1886    0.9669 H   0  0  0  0  0  0  0  0  0  0  0  0
   -0.5857   -7.0234    2.7802 H   0  0  0  0  0  0  0  0  0  0  0  0
    9.2155   -2.7644   -0.6102 H   0  0  0  0  0  0  0  0  0  0  0  0
    9.2478   -5.3004   -1.7686 H   0  0  0  0  0  0  0  0  0  0  0  0
   10.5551   -4.1726   -2.1931 H   0  0  0  0  0  0  0  0  0  0  0  0
    9.6600   -4.9926   -3.5431 H   0  0  0  0  0  0  0  0  0  0  0  0
  1  2  1  0
  2  3  1  0
  3  4  1  0
  4  5  1  0
  5  6  1  0
  6  7  2  0
  6  8  1  0
  8  9  1  0
  9 10  1  0
 10 11  1  0
 11 12  2  0
 11 13  1  0
 13 14  1  0
 14 15  1  0
 15 16  1  0
 16 17  1  0
 17 18  1  0
 18 19  1  0
 19 20  1  0
 20 21  2  0
 20 22  1  0
 22 23  1  0
 23 24  1  0
 24 25  2  0
 24 26  1  0
 26 27  1  0
 27 28  1  0
 28 29  2  0
 28 30  1  0
 30 31  1  0
 31 32  1  0
 32 33  2  0
 32 34  1  0
 34 35  1  0
 35 36  1  0
 36 37  2  0
 34 38  1  0
 38 39  1  0
 39 40  1  0
 40 41  1  0
 41 42  2  0
 42 43  1  0
 30 44  1  0
 44 45  1  0
 45 46  2  0
 46 47  1  0
 47 48  2  0
 48 49  1  0
 49 50  2  0
 49 51  1  0
 51 52  2  0
 52 53  1  0
 53 54  2  0
 27 55  1  0
 26 56  1  0
 56 57  1  0
 57 58  1  0
 58 59  1  0
 59 60  2  3
 60 61  1  0
 60 62  1  0
 23 63  1  0
 22 64  1  0
 64 65  1  0
 65 66  2  0
 66 67  1  0
 67 68  1  0
 68 69  2  0
 69 70  1  0
 70 71  2  0
 71 72  1  0
 72 73  2  0
 18 74  1  0
 74 75  2  0
 74 76  1  0
  5 77  1  0
 77 78  1  0
 78 79  2  0
 78 80  1  0
 36  9  1  0
 43 39  2  0
 50 45  1  0
 69 65  1  0
 54 48  1  0
 73 68  1  0
  1 81  1  0
  1 82  1  0
  1 83  1  0
  2 84  1  0
  2 85  1  0
  3 86  1  0
  3 87  1  0
  4 88  1  0
  4 89  1  0
  5 90  1  6
  8 91  1  0
  9 92  1  6
 10 93  1  0
 10 94  1  0
 13 95  1  0
 14 96  1  0
 14 97  1  0
 15 98  1  0
 15 99  1  0
 16100  1  0
 16101  1  0
 17102  1  0
 17103  1  0
 18104  1  6
 19105  1  0
 22106  1  1
 26107  1  1
 30108  1  6
 31109  1  0
 34110  1  1
 35111  1  0
 38112  1  0
 38113  1  0
 40114  1  0
 41115  1  0
 43116  1  0
 44117  1  0
 44118  1  0
 46119  1  0
 47120  1  0
 50121  1  0
 51122  1  0
 52123  1  0
 53124  1  0
 54125  1  0
 55126  1  0
 55127  1  0
 55128  1  0
 56129  1  0
 56130  1  0
 57131  1  0
 57132  1  0
 58133  1  0
 58134  1  0
 61135  1  0
 61136  1  0
 62137  1  0
 62138  1  0
 63139  1  0
 63140  1  0
 63141  1  0
 64142  1  0
 64143  1  0
 66144  1  0
 67145  1  0
 70146  1  0
 71147  1  0
 72148  1  0
 73149  1  0
 76150  1  0
 76151  1  0
 77152  1  0
 80153  1  0
 80154  1  0
 80155  1  0
M  END
>  <Ligand ID>  (1) 
LIG0001819

>  <Ligand>  (1) 
CHEMBL3600840

>  <SMILES>  (1) 
CCCC[C@H](C(=O)N[C@H]1CC(=O)NCCCC[C@H](NC(=O)[C@@H](N(C(=O)[C@@H](N(C(=O)[C@H](NC(=O)[C@@H](NC1=O)Cc1[nH]cnc1)Cc1ccc2c(c1)cccc2)C)CCCN=C(N)N)C)Cc1c[nH]c2c1cccc2)C(=O)N)NC(=O)C

>  <CID>  (1) 
122184579.0

>  <ChEMBL ID>  (1) 
nan

>  <InChiKey>  (1) 
CHPABUPLIAAUIT-GYZURFONSA-N

>  <InChi>  (1) 
InChI=1S/C56H75N15O9/c1-5-6-17-42(65-33(2)72)50(75)68-44-29-48(73)61-23-12-11-19-41(49(57)74)66-53(78)47(27-37-30-63-40-18-10-9-16-39(37)40)71(4)55(80)46(20-13-24-62-56(58)59)70(3)54(79)45(26-34-21-22-35-14-7-8-15-36(35)25-34)69-51(76)43(67-52(44)77)28-38-31-60-32-64-38/h7-10,14-16,18,21-22,25,30-32,41-47,63H,5-6,11-13,17,19-20,23-24,26-29H2,1-4H3,(H2,57,74)(H,60,64)(H,61,73)(H,65,72)(H,66,78)(H,67,77)(H,68,75)(H,69,76)(H4,58,59,62)/t41-,42+,43-,44-,45+,46-,47-/m0/s1

>  <IUPAC Name>  (1) 
(3S,6S,9R,12S,15S,23S)-15-[[(2R)-2-acetamidohexanoyl]amino]-6-[3-(diaminomethylideneamino)propyl]-12-(1H-imidazol-5-ylmethyl)-3-(1H-indol-3-ylmethyl)-4,7-dimethyl-9-(naphthalen-2-ylmethyl)-2,5,8,11,14,17-hexaoxo-1,4,7,10,13,18-hexazacyclotricosane-23-carboxamide

$$$$
