
     RDKit          3D

 41 41  0  0  0  0  0  0  0  0999 V2000
    5.9759    0.5316    1.9653 O   0  0  0  0  0  0  0  0  0  0  0  0
    6.6495    0.4312    0.7892 C   0  0  0  0  0  0  0  0  0  0  0  0
    7.8112    1.0062    0.7699 O   0  0  0  0  0  0  0  0  0  0  0  0
    6.2605   -0.2251   -0.4546 C   0  0  0  0  0  0  0  0  0  0  0  0
    5.0743   -0.9097   -0.5470 O   0  0  0  0  0  0  0  0  0  0  0  0
    3.7779   -0.5455   -0.3663 C   0  0  0  0  0  0  0  0  0  0  0  0
    3.1564    0.0936   -1.4545 C   0  0  0  0  0  0  0  0  0  0  0  0
    4.0483    0.3868   -2.9433 Cl  0  0  0  0  0  0  0  0  0  0  0  0
    1.8476    0.5108   -1.4053 C   0  0  0  0  0  0  0  0  0  0  0  0
    1.0876    0.3145   -0.2720 C   0  0  0  0  0  0  0  0  0  0  0  0
    1.6800   -0.3056    0.7897 C   0  0  0  0  0  0  0  0  0  0  0  0
    3.0028   -0.7277    0.7385 C   0  0  0  0  0  0  0  0  0  0  0  0
    3.6048   -1.5726    2.1436 Cl  0  0  0  0  0  0  0  0  0  0  0  0
   -0.3100    0.7916   -0.2959 C   0  0  0  0  0  0  0  0  0  0  0  0
   -1.1710    0.1484    1.1594 P   0  0  0  0  0  0  0  0  0  0  0  0
   -0.6812    0.9145    2.3670 O   0  0  0  0  0  0  0  0  0  0  0  0
   -2.9588    0.4755    1.0598 C   0  0  0  0  0  0  0  0  0  0  0  0
   -3.6174   -0.2986   -0.0215 C   0  0  0  0  0  0  0  0  0  0  0  0
   -5.1017   -0.0733   -0.1339 C   0  0  1  0  0  0  0  0  0  0  0  0
   -5.3776    1.3444   -0.4142 C   0  0  0  0  0  0  0  0  0  0  0  0
   -5.9141    1.6078   -1.5429 O   0  0  0  0  0  0  0  0  0  0  0  0
   -5.1211    2.4078    0.4076 O   0  0  0  0  0  0  0  0  0  0  0  0
   -5.6336   -0.9059   -1.2036 N   0  0  0  0  0  0  0  0  0  0  0  0
   -0.9696   -1.5131    1.2959 O   0  0  0  0  0  0  0  0  0  0  0  0
   -0.9298    0.4378   -1.4860 O   0  0  0  0  0  0  0  0  0  0  0  0
    6.1062    1.2736    2.6419 H   0  0  0  0  0  0  0  0  0  0  0  0
    6.1987    0.5927   -1.2605 H   0  0  0  0  0  0  0  0  0  0  0  0
    7.1285   -0.8547   -0.8399 H   0  0  0  0  0  0  0  0  0  0  0  0
    1.3985    1.0074   -2.2792 H   0  0  0  0  0  0  0  0  0  0  0  0
    1.0812   -0.4579    1.6769 H   0  0  0  0  0  0  0  0  0  0  0  0
   -0.3082    1.9033   -0.2546 H   0  0  0  0  0  0  0  0  0  0  0  0
   -3.0970    1.5644    0.9913 H   0  0  0  0  0  0  0  0  0  0  0  0
   -3.3790    0.1392    2.0355 H   0  0  0  0  0  0  0  0  0  0  0  0
   -3.3539   -1.3781   -0.0159 H   0  0  0  0  0  0  0  0  0  0  0  0
   -3.1926    0.0874   -0.9965 H   0  0  0  0  0  0  0  0  0  0  0  0
   -5.5722   -0.3351    0.8536 H   0  0  0  0  0  0  0  0  0  0  0  0
   -5.6887    3.2620    0.3921 H   0  0  0  0  0  0  0  0  0  0  0  0
   -6.5675   -0.5819   -1.5397 H   0  0  0  0  0  0  0  0  0  0  0  0
   -5.5533   -1.9080   -1.0074 H   0  0  0  0  0  0  0  0  0  0  0  0
   -0.8317   -1.8854    0.3973 H   0  0  0  0  0  0  0  0  0  0  0  0
   -0.5599   -0.4540   -1.7399 H   0  0  0  0  0  0  0  0  0  0  0  0
  1  2  1  0
  2  3  2  0
  2  4  1  0
  4  5  1  0
  5  6  1  0
  6  7  2  0
  7  8  1  0
  7  9  1  0
  9 10  2  0
 10 11  1  0
 11 12  2  0
 12 13  1  0
 10 14  1  0
 14 15  1  0
 15 16  2  0
 15 17  1  0
 17 18  1  0
 18 19  1  0
 19 20  1  0
 20 21  2  0
 20 22  1  0
 19 23  1  0
 15 24  1  0
 14 25  1  0
 12  6  1  0
  1 26  1  0
  4 27  1  0
  4 28  1  0
  9 29  1  0
 11 30  1  0
 14 31  1  0
 17 32  1  0
 17 33  1  0
 18 34  1  0
 18 35  1  0
 19 36  1  1
 22 37  1  0
 23 38  1  0
 23 39  1  0
 24 40  1  0
 25 41  1  0
M  END
>  <Ligand ID>  (1) 
LIG0002452

>  <Ligand>  (1) 
CHEMBL3974450

>  <SMILES>  (1) 
OC(=O)COc1c(Cl)cc(cc1Cl)C(P(=O)(CC[C@@H](C(=O)O)N)O)O

>  <CID>  (1) 
71041749.0

>  <ChEMBL ID>  (1) 
nan

>  <InChiKey>  (1) 
ACWNTECWAQAJID-LLTODGECSA-N

>  <InChi>  (1) 
InChI=1S/C13H16Cl2NO8P/c14-7-3-6(4-8(15)11(7)24-5-10(17)18)13(21)25(22,23)2-1-9(16)12(19)20/h3-4,9,13,21H,1-2,5,16H2,(H,17,18)(H,19,20)(H,22,23)/t9-,13?/m0/s1

>  <IUPAC Name>  (1) 
(2S)-2-amino-4-[[[4-(carboxymethoxy)-3,5-dichlorophenyl]-hydroxymethyl]-hydroxyphosphoryl]butanoic acid

$$$$
