
     RDKit          3D

 64 66  0  0  0  0  0  0  0  0999 V2000
   -0.4553   -1.2237   -2.9736 C   0  0  0  0  0  0  0  0  0  0  0  0
    0.6284   -0.4709   -2.2765 C   0  0  0  0  0  0  0  0  0  0  0  0
    0.5025    0.9097   -2.0381 C   0  0  0  0  0  0  0  0  0  0  0  0
   -0.6495    1.4927   -2.4797 O   0  0  0  0  0  0  0  0  0  0  0  0
   -1.0584    2.7924   -2.3863 C   0  0  0  0  0  0  0  0  0  0  0  0
   -1.2921    3.4075   -1.0588 C   0  0  0  0  0  0  0  0  0  0  0  0
   -2.3692    2.8183   -0.2132 C   0  0  0  0  0  0  0  0  0  0  0  0
   -2.1467    1.3830    0.1061 C   0  0  0  0  0  0  0  0  0  0  0  0
   -3.0948    0.7867    0.9164 O   0  0  0  0  0  0  0  0  0  0  0  0
   -4.4210    0.5446    0.7673 C   0  0  0  0  0  0  0  0  0  0  0  0
   -5.2076    0.8389   -0.3135 C   0  0  0  0  0  0  0  0  0  0  0  0
   -6.5679    0.5477   -0.3737 C   0  0  0  0  0  0  0  0  0  0  0  0
   -7.1894   -0.0683    0.6892 C   0  0  0  0  0  0  0  0  0  0  0  0
   -6.4155   -0.3732    1.7857 C   0  0  0  0  0  0  0  0  0  0  0  0
   -5.0692   -0.0850    1.8460 C   0  0  0  0  0  0  0  0  0  0  0  0
   -4.2659   -0.4391    3.0687 C   0  0  0  0  0  0  0  0  0  0  0  0
   -8.6111   -0.3846    0.6536 C   0  0  0  0  0  0  0  0  0  0  0  0
   -9.2910   -0.0928   -0.3627 O   0  0  0  0  0  0  0  0  0  0  0  0
   -9.2222   -1.0026    1.7254 O   0  0  0  0  0  0  0  0  0  0  0  0
    1.5445    1.5010   -1.3971 C   0  0  0  0  0  0  0  0  0  0  0  0
    2.6824    0.7927   -0.9911 C   0  0  0  0  0  0  0  0  0  0  0  0
    2.7836   -0.5505   -1.2332 C   0  0  0  0  0  0  0  0  0  0  0  0
    1.7477   -1.1707   -1.8779 C   0  0  0  0  0  0  0  0  0  0  0  0
    1.8480   -2.5344   -2.1252 O   0  0  0  0  0  0  0  0  0  0  0  0
    3.9616   -1.2952   -0.8156 C   0  0  0  0  0  0  0  0  0  0  0  0
    4.0604   -2.5296   -1.0349 O   0  0  0  0  0  0  0  0  0  0  0  0
    5.0656   -0.6200   -0.1262 C   0  0  0  0  0  0  0  0  0  0  0  0
    6.1649   -1.6244    0.1979 C   0  0  0  0  0  0  0  0  0  0  0  0
    7.3177   -0.9533    0.9100 C   0  0  0  0  0  0  0  0  0  0  0  0
    6.9771   -1.1522    2.3747 C   0  0  0  0  0  0  0  0  0  0  0  0
    6.5214   -2.5747    2.4031 C   0  0  0  0  0  0  0  0  0  0  0  0
    5.6693   -2.6860    1.1527 C   0  0  0  0  0  0  0  0  0  0  0  0
   -1.2409   -0.5284   -3.3466 H   0  0  0  0  0  0  0  0  0  0  0  0
   -0.8918   -2.0171   -2.3619 H   0  0  0  0  0  0  0  0  0  0  0  0
   -0.0256   -1.7113   -3.8900 H   0  0  0  0  0  0  0  0  0  0  0  0
   -2.0162    2.9019   -2.9633 H   0  0  0  0  0  0  0  0  0  0  0  0
   -0.3412    3.4255   -3.0094 H   0  0  0  0  0  0  0  0  0  0  0  0
   -0.3750    3.6035   -0.4480 H   0  0  0  0  0  0  0  0  0  0  0  0
   -1.6504    4.4732   -1.2823 H   0  0  0  0  0  0  0  0  0  0  0  0
   -2.3135    3.3638    0.7772 H   0  0  0  0  0  0  0  0  0  0  0  0
   -3.3578    3.0123   -0.6648 H   0  0  0  0  0  0  0  0  0  0  0  0
   -2.0363    0.7525   -0.8184 H   0  0  0  0  0  0  0  0  0  0  0  0
   -1.1624    1.2967    0.6145 H   0  0  0  0  0  0  0  0  0  0  0  0
   -4.7918    1.3040   -1.1819 H   0  0  0  0  0  0  0  0  0  0  0  0
   -7.1675    0.7932   -1.2444 H   0  0  0  0  0  0  0  0  0  0  0  0
   -6.8678   -0.8613    2.6485 H   0  0  0  0  0  0  0  0  0  0  0  0
   -4.9687   -0.8324    3.8108 H   0  0  0  0  0  0  0  0  0  0  0  0
   -3.7759    0.4653    3.5074 H   0  0  0  0  0  0  0  0  0  0  0  0
   -3.5484   -1.2271    2.8033 H   0  0  0  0  0  0  0  0  0  0  0  0
  -10.0712   -1.5744    1.6197 H   0  0  0  0  0  0  0  0  0  0  0  0
    1.5371    2.5362   -1.1872 H   0  0  0  0  0  0  0  0  0  0  0  0
    3.4929    1.2855   -0.4850 H   0  0  0  0  0  0  0  0  0  0  0  0
    1.4899   -3.1397   -1.3820 H   0  0  0  0  0  0  0  0  0  0  0  0
    5.5174    0.1170   -0.8219 H   0  0  0  0  0  0  0  0  0  0  0  0
    4.7629   -0.0502    0.7737 H   0  0  0  0  0  0  0  0  0  0  0  0
    6.4551   -2.1031   -0.7595 H   0  0  0  0  0  0  0  0  0  0  0  0
    7.3397    0.1114    0.6150 H   0  0  0  0  0  0  0  0  0  0  0  0
    8.2717   -1.4293    0.6602 H   0  0  0  0  0  0  0  0  0  0  0  0
    7.8284   -0.9199    3.0412 H   0  0  0  0  0  0  0  0  0  0  0  0
    6.1341   -0.4896    2.6452 H   0  0  0  0  0  0  0  0  0  0  0  0
    5.8702   -2.7320    3.2942 H   0  0  0  0  0  0  0  0  0  0  0  0
    7.3687   -3.2897    2.3798 H   0  0  0  0  0  0  0  0  0  0  0  0
    5.7545   -3.7028    0.7110 H   0  0  0  0  0  0  0  0  0  0  0  0
    4.6315   -2.4278    1.4249 H   0  0  0  0  0  0  0  0  0  0  0  0
  1  2  1  0
  2  3  2  0
  3  4  1  0
  4  5  1  0
  5  6  1  0
  6  7  1  0
  7  8  1  0
  8  9  1  0
  9 10  1  0
 10 11  2  0
 11 12  1  0
 12 13  2  0
 13 14  1  0
 14 15  2  0
 15 16  1  0
 13 17  1  0
 17 18  2  0
 17 19  1  0
  3 20  1  0
 20 21  2  0
 21 22  1  0
 22 23  2  0
 23 24  1  0
 22 25  1  0
 25 26  2  0
 25 27  1  0
 27 28  1  0
 28 29  1  0
 29 30  1  0
 30 31  1  0
 31 32  1  0
 23  2  1  0
 32 28  1  0
 15 10  1  0
  1 33  1  0
  1 34  1  0
  1 35  1  0
  5 36  1  0
  5 37  1  0
  6 38  1  0
  6 39  1  0
  7 40  1  0
  7 41  1  0
  8 42  1  0
  8 43  1  0
 11 44  1  0
 12 45  1  0
 14 46  1  0
 16 47  1  0
 16 48  1  0
 16 49  1  0
 19 50  1  0
 20 51  1  0
 21 52  1  0
 24 53  1  0
 27 54  1  0
 27 55  1  0
 28 56  1  0
 29 57  1  0
 29 58  1  0
 30 59  1  0
 30 60  1  0
 31 61  1  0
 31 62  1  0
 32 63  1  0
 32 64  1  0
M  END
>  <Ligand ID>  (1) 
LIG0003622

>  <Ligand>  (1) 
CHEMBL3287692

>  <SMILES>  (1) 
Cc1c(OCCCCOc2ccc(cc2C)C(=O)O)ccc(c1O)C(=O)CC1CCCC1

>  <CID>  (1) 
90643870.0

>  <ChEMBL ID>  (1) 
nan

>  <InChiKey>  (1) 
CAJHCTPZQASQJH-UHFFFAOYSA-N

>  <InChi>  (1) 
InChI=1S/C26H32O6/c1-17-15-20(26(29)30)9-11-23(17)31-13-5-6-14-32-24-12-10-21(25(28)18(24)2)22(27)16-19-7-3-4-8-19/h9-12,15,19,28H,3-8,13-14,16H2,1-2H3,(H,29,30)

>  <IUPAC Name>  (1) 
4-[4-[4-(2-cyclopentylacetyl)-3-hydroxy-2-methylphenoxy]butoxy]-3-methylbenzoic acid

$$$$
