
     RDKit          3D

 52 54  0  0  0  0  0  0  0  0999 V2000
   -6.3451   -0.7090    2.7317 C   0  0  0  0  0  0  0  0  0  0  0  0
   -5.8294   -2.1170    2.5750 C   0  0  0  0  0  0  0  0  0  0  0  0
   -4.6221   -2.0272    1.8118 O   0  0  0  0  0  0  0  0  0  0  0  0
   -4.5881   -1.5049    0.5417 C   0  0  0  0  0  0  0  0  0  0  0  0
   -5.6018   -1.0647   -0.0558 O   0  0  0  0  0  0  0  0  0  0  0  0
   -3.3505   -1.4441   -0.1655 N   0  0  0  0  0  0  0  0  0  0  0  0
   -3.3217   -0.8846   -1.5225 C   0  0  0  0  0  0  0  0  0  0  0  0
   -2.3286    0.2780   -1.4188 C   0  0  0  0  0  0  0  0  0  0  0  0
   -0.9927   -0.3142   -1.0995 C   0  0  0  0  0  0  0  0  0  0  0  0
   -1.0141   -0.8509    0.3095 C   0  0  0  0  0  0  0  0  0  0  0  0
   -2.1006   -1.9031    0.3702 C   0  0  0  0  0  0  0  0  0  0  0  0
    0.0868    0.6439   -1.3039 N   0  0  0  0  0  0  0  0  0  0  0  0
    0.0489    1.0286   -2.6812 C   0  0  0  0  0  0  0  0  0  0  0  0
    1.3468    1.6087   -3.1916 C   0  0  0  0  0  0  0  0  0  0  0  0
    2.0942    2.0827   -1.9478 C   0  0  0  0  0  0  0  0  0  0  0  0
    2.5366    0.8172   -1.2627 C   0  0  2  0  0  0  0  0  0  0  0  0
    1.3189    0.0578   -0.8593 C   0  0  0  0  0  0  0  0  0  0  0  0
    3.5054    0.9838   -0.2329 N   0  0  0  0  0  0  0  0  0  0  0  0
    4.7895    0.4220   -0.3899 C   0  0  0  0  0  0  0  0  0  0  0  0
    5.1622   -0.2348   -1.3955 O   0  0  0  0  0  0  0  0  0  0  0  0
    5.7365    0.6405    0.7249 C   0  0  0  0  0  0  0  0  0  0  0  0
    5.6374    1.2720    1.8805 C   0  0  0  0  0  0  0  0  0  0  0  0
    6.6999    1.3027    2.7143 C   0  0  0  0  0  0  0  0  0  0  0  0
    7.8331    0.6700    2.3097 C   0  0  0  0  0  0  0  0  0  0  0  0
    7.4228   -0.0427    0.6250 S   0  0  0  0  0  0  0  0  0  0  0  0
   -5.8927    0.0069    2.0020 H   0  0  0  0  0  0  0  0  0  0  0  0
   -6.0543   -0.3300    3.7351 H   0  0  0  0  0  0  0  0  0  0  0  0
   -7.4244   -0.7091    2.5612 H   0  0  0  0  0  0  0  0  0  0  0  0
   -6.5781   -2.7371    2.0564 H   0  0  0  0  0  0  0  0  0  0  0  0
   -5.5137   -2.5271    3.5538 H   0  0  0  0  0  0  0  0  0  0  0  0
   -2.9307   -1.5981   -2.2536 H   0  0  0  0  0  0  0  0  0  0  0  0
   -4.2791   -0.4481   -1.8160 H   0  0  0  0  0  0  0  0  0  0  0  0
   -2.3866    0.8024   -2.3705 H   0  0  0  0  0  0  0  0  0  0  0  0
   -2.6461    0.9647   -0.5929 H   0  0  0  0  0  0  0  0  0  0  0  0
   -0.7848   -1.1725   -1.7744 H   0  0  0  0  0  0  0  0  0  0  0  0
   -0.0631   -1.4155    0.5271 H   0  0  0  0  0  0  0  0  0  0  0  0
   -1.1068   -0.0934    1.0873 H   0  0  0  0  0  0  0  0  0  0  0  0
   -2.2221   -2.3379    1.3715 H   0  0  0  0  0  0  0  0  0  0  0  0
   -1.7446   -2.7287   -0.3082 H   0  0  0  0  0  0  0  0  0  0  0  0
   -0.2858    0.2106   -3.3457 H   0  0  0  0  0  0  0  0  0  0  0  0
   -0.6939    1.8754   -2.7634 H   0  0  0  0  0  0  0  0  0  0  0  0
    1.1975    2.4258   -3.9244 H   0  0  0  0  0  0  0  0  0  0  0  0
    1.9418    0.7698   -3.6082 H   0  0  0  0  0  0  0  0  0  0  0  0
    1.3460    2.6582   -1.3654 H   0  0  0  0  0  0  0  0  0  0  0  0
    2.9341    2.7347   -2.2529 H   0  0  0  0  0  0  0  0  0  0  0  0
    3.0342    0.2124   -2.0763 H   0  0  0  0  0  0  0  0  0  0  0  0
    1.2911    0.0879    0.2650 H   0  0  0  0  0  0  0  0  0  0  0  0
    1.3389   -1.0163   -1.1558 H   0  0  0  0  0  0  0  0  0  0  0  0
    3.2317    1.5281    0.6259 H   0  0  0  0  0  0  0  0  0  0  0  0
    4.6771    1.7861    2.1806 H   0  0  0  0  0  0  0  0  0  0  0  0
    6.6768    1.8186    3.7006 H   0  0  0  0  0  0  0  0  0  0  0  0
    8.8133    0.5217    2.7354 H   0  0  0  0  0  0  0  0  0  0  0  0
  1  2  1  0
  2  3  1  0
  3  4  1  0
  4  5  2  0
  4  6  1  0
  6  7  1  0
  7  8  1  0
  8  9  1  0
  9 10  1  0
 10 11  1  0
  9 12  1  0
 12 13  1  0
 13 14  1  0
 14 15  1  0
 15 16  1  0
 16 17  1  0
 16 18  1  0
 18 19  1  0
 19 20  2  0
 19 21  1  0
 21 22  2  0
 22 23  1  0
 23 24  2  0
 24 25  1  0
 11  6  1  0
 17 12  1  0
 25 21  1  0
  1 26  1  0
  1 27  1  0
  1 28  1  0
  2 29  1  0
  2 30  1  0
  7 31  1  0
  7 32  1  0
  8 33  1  0
  8 34  1  0
  9 35  1  0
 10 36  1  0
 10 37  1  0
 11 38  1  0
 11 39  1  0
 13 40  1  0
 13 41  1  0
 14 42  1  0
 14 43  1  0
 15 44  1  0
 15 45  1  0
 16 46  1  6
 17 47  1  0
 17 48  1  0
 18 49  1  0
 22 50  1  0
 23 51  1  0
 24 52  1  0
M  END
>  <Ligand ID>  (1) 
LIG0001947

>  <Ligand>  (1) 
CHEMBL1916232

>  <SMILES>  (1) 
CCOC(=O)N1CCC(CC1)N1CCC[C@H](C1)NC(=O)c1cccs1

>  <CID>  (1) 
46873654.0

>  <ChEMBL ID>  (1) 
nan

>  <InChiKey>  (1) 
NQGIVGGFNIKUAD-CQSZACIVSA-N

>  <InChi>  (1) 
InChI=1S/C18H27N3O3S/c1-2-24-18(23)20-10-7-15(8-11-20)21-9-3-5-14(13-21)19-17(22)16-6-4-12-25-16/h4,6,12,14-15H,2-3,5,7-11,13H2,1H3,(H,19,22)/t14-/m1/s1

>  <IUPAC Name>  (1) 
ethyl 4-[(3R)-3-(thiophene-2-carbonylamino)piperidin-1-yl]piperidine-1-carboxylate

$$$$
