
     RDKit          3D

 19 19  0  0  0  0  0  0  0  0999 V2000
   -3.4614   -0.2797    0.4461 O   0  0  0  0  0  0  0  0  0  0  0  0
   -2.0983   -0.1626    0.5593 C   0  0  0  0  0  0  0  0  0  0  0  0
   -1.3755   -0.1789   -0.7883 C   0  0  0  0  0  0  0  0  0  0  0  0
    0.0817   -0.0409   -0.4366 C   0  0  0  0  0  0  0  0  0  0  0  0
    0.6311    1.2235   -0.3475 C   0  0  0  0  0  0  0  0  0  0  0  0
    1.9674    1.3136   -0.0236 C   0  0  0  0  0  0  0  0  0  0  0  0
    2.7214    0.1692    0.2019 C   0  0  0  0  0  0  0  0  0  0  0  0
    2.1384   -1.0973    0.1047 C   0  0  0  0  0  0  0  0  0  0  0  0
    0.8025   -1.1959   -0.2187 C   0  0  0  0  0  0  0  0  0  0  0  0
   -3.9052    0.3545    1.0733 H   0  0  0  0  0  0  0  0  0  0  0  0
   -1.6933   -1.0379    1.1274 H   0  0  0  0  0  0  0  0  0  0  0  0
   -1.7943    0.7858    1.0704 H   0  0  0  0  0  0  0  0  0  0  0  0
   -1.6535    0.7333   -1.3729 H   0  0  0  0  0  0  0  0  0  0  0  0
   -1.5532   -1.1129   -1.3361 H   0  0  0  0  0  0  0  0  0  0  0  0
    0.0056    2.0911   -0.5317 H   0  0  0  0  0  0  0  0  0  0  0  0
    2.4080    2.3157    0.0482 H   0  0  0  0  0  0  0  0  0  0  0  0
    3.7583    0.2825    0.4516 H   0  0  0  0  0  0  0  0  0  0  0  0
    2.7106   -2.0034    0.2773 H   0  0  0  0  0  0  0  0  0  0  0  0
    0.3096   -2.1599   -0.3048 H   0  0  0  0  0  0  0  0  0  0  0  0
  1  2  1  0
  2  3  1  0
  3  4  1  0
  4  5  2  0
  5  6  1  0
  6  7  2  0
  7  8  1  0
  8  9  2  0
  9  4  1  0
  1 10  1  0
  2 11  1  0
  2 12  1  0
  3 13  1  0
  3 14  1  0
  5 15  1  0
  6 16  1  0
  7 17  1  0
  8 18  1  0
  9 19  1  0
M  END
>  <Ligand ID>  (1) 
LIG0000164

>  <Ligand>  (1) 
Phenylethyl Alcohol

>  <SMILES>  (1) 
OCCc1ccccc1

>  <CID>  (1) 
6054.0

>  <ChEMBL ID>  (1) 
nan

>  <InChiKey>  (1) 
WRMNZCZEMHIOCP-UHFFFAOYSA-N

>  <InChi>  (1) 
InChI=1S/C8H10O/c9-7-6-8-4-2-1-3-5-8/h1-5,9H,6-7H2

>  <IUPAC Name>  (1) 
2-phenylethanol

$$$$
