
     RDKit          3D

 59 60  0  0  0  0  0  0  0  0999 V2000
   -3.8625   -0.8325   -2.1286 O   0  0  0  0  0  0  0  0  0  0  0  0
   -4.2955   -0.0662   -1.2409 C   0  0  0  0  0  0  0  0  0  0  0  0
   -5.7267    0.3553   -1.3731 C   0  0  2  0  0  0  0  0  0  0  0  0
   -6.4235   -0.1291   -0.1117 C   0  0  0  0  0  0  0  0  0  0  0  0
   -7.7647    0.1826   -0.0929 O   0  0  0  0  0  0  0  0  0  0  0  0
   -8.5299   -0.3600    1.3136 P   0  0  0  0  0  0  0  0  0  0  0  0
   -8.5963    0.7232    2.3670 O   0  0  0  0  0  0  0  0  0  0  0  0
   -7.7148   -1.6702    1.9842 O   0  0  0  0  0  0  0  0  0  0  0  0
  -10.0945   -0.8273    0.9087 O   0  0  0  0  0  0  0  0  0  0  0  0
   -6.3164   -0.2399   -2.5430 N   0  0  0  0  0  0  0  0  0  0  0  0
   -5.7610    1.8656   -1.3793 C   0  0  0  0  0  0  0  0  0  0  0  0
   -3.5156    0.4015   -0.1561 N   0  0  0  0  0  0  0  0  0  0  0  0
   -2.1626    0.0835    0.0856 C   0  0  0  0  0  0  0  0  0  0  0  0
   -1.3763   -0.7264   -0.6816 C   0  0  0  0  0  0  0  0  0  0  0  0
   -0.0611   -0.9832   -0.3716 C   0  0  0  0  0  0  0  0  0  0  0  0
    0.5617   -0.4270    0.7590 C   0  0  0  0  0  0  0  0  0  0  0  0
   -0.2415    0.3832    1.5202 C   0  0  0  0  0  0  0  0  0  0  0  0
   -1.5738    0.6441    1.2061 C   0  0  0  0  0  0  0  0  0  0  0  0
    1.8519   -0.7545    0.9600 O   0  0  0  0  0  0  0  0  0  0  0  0
    2.6930   -0.3229    1.9579 C   0  0  0  0  0  0  0  0  0  0  0  0
    2.9644    1.1468    1.8560 C   0  0  0  0  0  0  0  0  0  0  0  0
    3.6107    1.4818    0.5014 C   0  0  0  0  0  0  0  0  0  0  0  0
    4.8906    0.7238    0.4147 C   0  0  0  0  0  0  0  0  0  0  0  0
    5.6344    0.9804   -0.8825 C   0  0  0  0  0  0  0  0  0  0  0  0
    6.8775    0.1612   -0.8185 C   0  0  0  0  0  0  0  0  0  0  0  0
    6.8175   -1.1278   -1.3163 C   0  0  0  0  0  0  0  0  0  0  0  0
    7.9421   -1.9137   -1.2750 C   0  0  0  0  0  0  0  0  0  0  0  0
    9.1226   -1.4588   -0.7550 C   0  0  0  0  0  0  0  0  0  0  0  0
    9.1899   -0.1572   -0.2503 C   0  0  0  0  0  0  0  0  0  0  0  0
    8.0599    0.6400   -0.2890 C   0  0  0  0  0  0  0  0  0  0  0  0
   -6.3371   -1.2400   -0.0193 H   0  0  0  0  0  0  0  0  0  0  0  0
   -5.9244    0.2702    0.7896 H   0  0  0  0  0  0  0  0  0  0  0  0
   -8.3789   -2.3282    2.2968 H   0  0  0  0  0  0  0  0  0  0  0  0
  -10.2969   -0.7723   -0.0539 H   0  0  0  0  0  0  0  0  0  0  0  0
   -6.1718    0.4475   -3.3417 H   0  0  0  0  0  0  0  0  0  0  0  0
   -5.9014   -1.1365   -2.8220 H   0  0  0  0  0  0  0  0  0  0  0  0
   -4.7434    2.2969   -1.5308 H   0  0  0  0  0  0  0  0  0  0  0  0
   -6.1505    2.2614   -0.3982 H   0  0  0  0  0  0  0  0  0  0  0  0
   -6.3948    2.2659   -2.2082 H   0  0  0  0  0  0  0  0  0  0  0  0
   -4.0213    1.0443    0.5144 H   0  0  0  0  0  0  0  0  0  0  0  0
   -1.7667   -1.1950   -1.5645 H   0  0  0  0  0  0  0  0  0  0  0  0
    0.5160   -1.6419   -1.0280 H   0  0  0  0  0  0  0  0  0  0  0  0
    0.1158    0.8428    2.4229 H   0  0  0  0  0  0  0  0  0  0  0  0
   -2.1495    1.3071    1.8695 H   0  0  0  0  0  0  0  0  0  0  0  0
    3.6356   -0.9199    2.0410 H   0  0  0  0  0  0  0  0  0  0  0  0
    2.1856   -0.4736    2.9536 H   0  0  0  0  0  0  0  0  0  0  0  0
    3.7586    1.3632    2.6454 H   0  0  0  0  0  0  0  0  0  0  0  0
    2.0981    1.7530    2.0464 H   0  0  0  0  0  0  0  0  0  0  0  0
    3.7201    2.5682    0.4164 H   0  0  0  0  0  0  0  0  0  0  0  0
    2.8570    1.1602   -0.2534 H   0  0  0  0  0  0  0  0  0  0  0  0
    4.6352   -0.3687    0.3901 H   0  0  0  0  0  0  0  0  0  0  0  0
    5.5418    1.0129    1.2401 H   0  0  0  0  0  0  0  0  0  0  0  0
    5.9179    2.0413   -0.9360 H   0  0  0  0  0  0  0  0  0  0  0  0
    5.0317    0.7420   -1.7608 H   0  0  0  0  0  0  0  0  0  0  0  0
    5.9170   -1.5542   -1.7426 H   0  0  0  0  0  0  0  0  0  0  0  0
    7.8958   -2.9159   -1.6620 H   0  0  0  0  0  0  0  0  0  0  0  0
    9.9960   -2.0952   -0.7325 H   0  0  0  0  0  0  0  0  0  0  0  0
   10.1186    0.2012    0.1590 H   0  0  0  0  0  0  0  0  0  0  0  0
    8.0964    1.6551    0.0999 H   0  0  0  0  0  0  0  0  0  0  0  0
  1  2  2  0
  2  3  1  0
  3  4  1  0
  4  5  1  0
  5  6  1  0
  6  7  2  0
  6  8  1  0
  6  9  1  0
  3 10  1  6
  3 11  1  0
  2 12  1  0
 12 13  1  0
 13 14  2  0
 14 15  1  0
 15 16  2  0
 16 17  1  0
 17 18  2  0
 16 19  1  0
 19 20  1  0
 20 21  1  0
 21 22  1  0
 22 23  1  0
 23 24  1  0
 24 25  1  0
 25 26  2  0
 26 27  1  0
 27 28  2  0
 28 29  1  0
 29 30  2  0
 18 13  1  0
 30 25  1  0
  4 31  1  0
  4 32  1  0
  8 33  1  0
  9 34  1  0
 10 35  1  0
 10 36  1  0
 11 37  1  0
 11 38  1  0
 11 39  1  0
 12 40  1  0
 14 41  1  0
 15 42  1  0
 17 43  1  0
 18 44  1  0
 20 45  1  0
 20 46  1  0
 21 47  1  0
 21 48  1  0
 22 49  1  0
 22 50  1  0
 23 51  1  0
 23 52  1  0
 24 53  1  0
 24 54  1  0
 26 55  1  0
 27 56  1  0
 28 57  1  0
 29 58  1  0
 30 59  1  0
M  END
>  <Ligand ID>  (1) 
LIG0005101

>  <Ligand>  (1) 
CHEMBL473156

>  <SMILES>  (1) 
O=C([C@](COP(=O)(O)O)(N)C)Nc1ccc(cc1)OCCCCCc1ccccc1

>  <CID>  (1) 
44565597.0

>  <ChEMBL ID>  (1) 
nan

>  <InChiKey>  (1) 
WDBMBYAFMOKUJU-NRFANRHFSA-N

>  <InChi>  (1) 
InChI=1S/C21H29N2O6P/c1-21(22,16-29-30(25,26)27)20(24)23-18-11-13-19(14-12-18)28-15-7-3-6-10-17-8-4-2-5-9-17/h2,4-5,8-9,11-14H,3,6-7,10,15-16,22H2,1H3,(H,23,24)(H2,25,26,27)/t21-/m0/s1

>  <IUPAC Name>  (1) 
[(2S)-2-amino-2-methyl-3-oxo-3-[4-(5-phenylpentoxy)anilino]propyl] dihydrogen phosphate

$$$$
