
     RDKit          3D

 79 82  0  0  0  0  0  0  0  0999 V2000
   11.4664    3.1809    0.9335 O   0  0  0  0  0  0  0  0  0  0  0  0
   11.0700    1.9237    0.4173 C   0  0  0  0  0  0  0  0  0  0  0  0
   10.6866    1.9312   -0.7607 O   0  0  0  0  0  0  0  0  0  0  0  0
   11.1644    0.7923    1.3336 C   0  0  0  0  0  0  0  0  0  0  0  0
   10.7217   -0.5322    0.7953 C   0  0  0  0  0  0  0  0  0  0  0  0
    9.3048   -0.5020    0.3966 C   0  0  0  0  0  0  0  0  0  0  0  0
    8.8399   -0.3213   -0.8812 C   0  0  0  0  0  0  0  0  0  0  0  0
    7.4782   -0.2843   -1.1458 C   0  0  0  0  0  0  0  0  0  0  0  0
    6.5558   -0.4317   -0.1132 C   0  0  0  0  0  0  0  0  0  0  0  0
    7.0074   -0.6152    1.1775 C   0  0  0  0  0  0  0  0  0  0  0  0
    8.3649   -0.6490    1.4223 C   0  0  0  0  0  0  0  0  0  0  0  0
    5.2142   -0.3834   -0.4542 O   0  0  0  0  0  0  0  0  0  0  0  0
    4.1537   -0.5171    0.4811 C   0  0  0  0  0  0  0  0  0  0  0  0
    2.8984   -0.3997   -0.3453 C   0  0  0  0  0  0  0  0  0  0  0  0
    2.3200   -1.5233   -0.8976 C   0  0  0  0  0  0  0  0  0  0  0  0
    1.1707   -1.3784   -1.6483 C   0  0  0  0  0  0  0  0  0  0  0  0
    0.5637   -0.1616   -1.8782 C   0  0  0  0  0  0  0  0  0  0  0  0
    1.1747    0.9477   -1.3058 C   0  0  0  0  0  0  0  0  0  0  0  0
    2.3238    0.8541   -0.5480 C   0  0  0  0  0  0  0  0  0  0  0  0
   -0.6624    0.0235   -2.6758 C   0  0  0  0  0  0  0  0  0  0  0  0
   -1.8377   -0.0048   -1.8567 N   0  0  0  0  0  0  0  0  0  0  0  0
   -1.9278   -1.2729   -1.1849 C   0  0  0  0  0  0  0  0  0  0  0  0
   -3.1293   -1.4234   -0.2895 C   0  0  0  0  0  0  0  0  0  0  0  0
   -4.1678   -0.4009   -0.5920 C   0  0  0  0  0  0  0  0  0  0  0  0
   -4.2590   -0.2840   -2.1056 C   0  0  0  0  0  0  0  0  0  0  0  0
   -2.9997    0.2559   -2.6815 C   0  0  0  0  0  0  0  0  0  0  0  0
   -3.9474    0.8479   -0.0683 O   0  0  0  0  0  0  0  0  0  0  0  0
   -3.8747    0.8892    1.3058 C   0  0  0  0  0  0  0  0  0  0  0  0
   -5.1294    0.3851    1.9812 C   0  0  0  0  0  0  0  0  0  0  0  0
   -5.6751   -0.8485    1.3473 C   0  0  0  0  0  0  0  0  0  0  0  0
   -5.5600   -0.8428   -0.1538 C   0  0  0  0  0  0  0  0  0  0  0  0
   -7.0930   -1.1504    1.7266 C   0  0  0  0  0  0  0  0  0  0  0  0
   -8.0474   -0.0801    1.3579 C   0  0  0  0  0  0  0  0  0  0  0  0
   -8.3613    0.9670    2.2157 C   0  0  0  0  0  0  0  0  0  0  0  0
   -9.2500    1.9656    1.8775 C   0  0  0  0  0  0  0  0  0  0  0  0
   -9.8739    1.9657    0.6541 C   0  0  0  0  0  0  0  0  0  0  0  0
   -9.5855    0.9412   -0.2209 C   0  0  0  0  0  0  0  0  0  0  0  0
   -8.6995   -0.0482    0.1250 C   0  0  0  0  0  0  0  0  0  0  0  0
  -10.7560    2.9165    0.2619 F   0  0  0  0  0  0  0  0  0  0  0  0
    0.6907    0.0000    0.0000 Cl  0  0  0  0  0  0  0  0  0  0  0  0
   11.8004    3.9271    0.3181 H   0  0  0  0  0  0  0  0  0  0  0  0
   10.5442    1.0879    2.2411 H   0  0  0  0  0  0  0  0  0  0  0  0
   12.1937    0.6941    1.7863 H   0  0  0  0  0  0  0  0  0  0  0  0
   11.3186   -0.7774   -0.1207 H   0  0  0  0  0  0  0  0  0  0  0  0
   10.8821   -1.3008    1.5854 H   0  0  0  0  0  0  0  0  0  0  0  0
    9.4962   -0.2224   -1.7104 H   0  0  0  0  0  0  0  0  0  0  0  0
    7.1064   -0.1383   -2.1713 H   0  0  0  0  0  0  0  0  0  0  0  0
    6.2783   -0.7315    1.9844 H   0  0  0  0  0  0  0  0  0  0  0  0
    8.6604   -0.7954    2.4543 H   0  0  0  0  0  0  0  0  0  0  0  0
    4.2075   -1.4658    1.0202 H   0  0  0  0  0  0  0  0  0  0  0  0
    4.1467    0.3297    1.2080 H   0  0  0  0  0  0  0  0  0  0  0  0
    2.7794   -2.4998   -0.7318 H   0  0  0  0  0  0  0  0  0  0  0  0
    0.6910   -2.2540   -2.0982 H   0  0  0  0  0  0  0  0  0  0  0  0
    0.7557    1.9451   -1.4410 H   0  0  0  0  0  0  0  0  0  0  0  0
    2.8161    1.7038   -0.0935 H   0  0  0  0  0  0  0  0  0  0  0  0
   -0.5920    1.0184   -3.1874 H   0  0  0  0  0  0  0  0  0  0  0  0
   -0.7207   -0.7040   -3.5296 H   0  0  0  0  0  0  0  0  0  0  0  0
   -0.9764   -1.3390   -0.5718 H   0  0  0  0  0  0  0  0  0  0  0  0
   -1.8810   -2.0643   -1.9831 H   0  0  0  0  0  0  0  0  0  0  0  0
   -2.8550   -1.4696    0.7840 H   0  0  0  0  0  0  0  0  0  0  0  0
   -3.5719   -2.4177   -0.5159 H   0  0  0  0  0  0  0  0  0  0  0  0
   -4.4938   -1.3147   -2.4928 H   0  0  0  0  0  0  0  0  0  0  0  0
   -5.1526    0.3721   -2.2918 H   0  0  0  0  0  0  0  0  0  0  0  0
   -3.1100    1.3544   -2.8138 H   0  0  0  0  0  0  0  0  0  0  0  0
   -2.8206   -0.1720   -3.6992 H   0  0  0  0  0  0  0  0  0  0  0  0
   -3.7721    1.9581    1.5964 H   0  0  0  0  0  0  0  0  0  0  0  0
   -2.9808    0.3823    1.7237 H   0  0  0  0  0  0  0  0  0  0  0  0
   -4.8776    0.1899    3.0423 H   0  0  0  0  0  0  0  0  0  0  0  0
   -5.8876    1.1981    1.9795 H   0  0  0  0  0  0  0  0  0  0  0  0
   -5.0723   -1.7294    1.7133 H   0  0  0  0  0  0  0  0  0  0  0  0
   -5.7023   -1.8771   -0.5211 H   0  0  0  0  0  0  0  0  0  0  0  0
   -6.2494   -0.1345   -0.6497 H   0  0  0  0  0  0  0  0  0  0  0  0
   -7.4349   -2.1202    1.2920 H   0  0  0  0  0  0  0  0  0  0  0  0
   -7.1633   -1.2871    2.8278 H   0  0  0  0  0  0  0  0  0  0  0  0
   -7.9157    1.0343    3.1991 H   0  0  0  0  0  0  0  0  0  0  0  0
   -9.4855    2.7738    2.5528 H   0  0  0  0  0  0  0  0  0  0  0  0
  -10.0808    0.9370   -1.1974 H   0  0  0  0  0  0  0  0  0  0  0  0
   -8.5224   -0.8231   -0.6055 H   0  0  0  0  0  0  0  0  0  0  0  0
   -0.6907    0.0000    0.0000 H   0  0  0  0  0  0  0  0  0  0  0  0
  1  2  1  0
  2  3  2  0
  2  4  1  0
  4  5  1  0
  5  6  1  0
  6  7  2  0
  7  8  1  0
  8  9  2  0
  9 10  1  0
 10 11  2  0
  9 12  1  0
 12 13  1  0
 13 14  1  0
 14 15  2  0
 15 16  1  0
 16 17  2  0
 17 18  1  0
 18 19  2  0
 17 20  1  0
 20 21  1  0
 21 22  1  0
 22 23  1  0
 23 24  1  0
 24 25  1  0
 25 26  1  0
 24 27  1  0
 27 28  1  0
 28 29  1  0
 29 30  1  0
 30 31  1  0
 30 32  1  0
 32 33  1  0
 33 34  2  0
 34 35  1  0
 35 36  2  0
 36 37  1  0
 37 38  2  0
 36 39  1  0
 11  6  1  0
 19 14  1  0
 26 21  1  0
 38 33  1  0
 31 24  1  0
  1 41  1  0
  4 42  1  0
  4 43  1  0
  5 44  1  0
  5 45  1  0
  7 46  1  0
  8 47  1  0
 10 48  1  0
 11 49  1  0
 13 50  1  0
 13 51  1  0
 15 52  1  0
 16 53  1  0
 18 54  1  0
 19 55  1  0
 20 56  1  0
 20 57  1  0
 22 58  1  0
 22 59  1  0
 23 60  1  0
 23 61  1  0
 25 62  1  0
 25 63  1  0
 26 64  1  0
 26 65  1  0
 28 66  1  0
 28 67  1  0
 29 68  1  0
 29 69  1  0
 30 70  1  0
 31 71  1  0
 31 72  1  0
 32 73  1  0
 32 74  1  0
 34 75  1  0
 35 76  1  0
 37 77  1  0
 38 78  1  0
 40 79  1  0
M  END
>  <Ligand ID>  (1) 
LIG0001387

>  <Ligand>  (1) 
CHEMBL3941821

>  <SMILES>  (1) 
OC(=O)CCc1ccc(cc1)OCc1ccc(cc1)CN1CCC2(CC1)OCCC(C2)Cc1ccc(cc1)F.Cl

>  <CID>  (1) 
134146590.0

>  <ChEMBL ID>  (1) 
nan

>  <InChiKey>  (1) 
XSYVABUHWWDTQM-UHFFFAOYSA-N

>  <InChi>  (1) 
InChI=1S/C33H38FNO4.ClH/c34-30-10-5-26(6-11-30)21-29-15-20-39-33(22-29)16-18-35(19-17-33)23-27-1-3-28(4-2-27)24-38-31-12-7-25(8-13-31)9-14-32(36)37;/h1-8,10-13,29H,9,14-24H2,(H,36,37);1H

>  <IUPAC Name>  (1) 
3-[4-[[4-[[4-[(4-fluorophenyl)methyl]-1-oxa-9-azaspiro[5.5]undecan-9-yl]methyl]phenyl]methoxy]phenyl]propanoic acid;hydrochloride

$$$$
