
     RDKit          3D

 62 64  0  0  0  0  0  0  0  0999 V2000
    7.9717   -1.1270   -0.9321 C   0  0  0  0  0  0  0  0  0  0  0  0
    7.8100   -1.1649    0.3835 C   0  0  0  0  0  0  0  0  0  0  0  0
    7.0336   -0.1009    1.0894 C   0  0  0  0  0  0  0  0  0  0  0  0
    5.8655   -0.7857    1.7882 C   0  0  0  0  0  0  0  0  0  0  0  0
    5.0375    0.2446    2.5248 C   0  0  0  0  0  0  0  0  0  0  0  0
    4.4750    1.2937    1.6078 C   0  0  0  0  0  0  0  0  0  0  0  0
    3.5843    0.6520    0.5672 C   0  0  2  0  0  0  0  0  0  0  0  0
    3.0160    1.7305   -0.3608 C   0  0  0  0  0  0  0  0  0  0  0  0
    2.2106    1.0052   -1.4194 C   0  0  0  0  0  0  0  0  0  0  0  0
    1.0352    0.3897   -0.7346 C   0  0  0  0  0  0  0  0  0  0  0  0
    1.2214   -0.1293    0.5216 C   0  0  0  0  0  0  0  0  0  0  0  0
    2.5058   -0.1233    1.2490 C   0  0  0  0  0  0  0  0  0  0  0  0
    0.1334   -0.6950    1.1465 C   0  0  0  0  0  0  0  0  0  0  0  0
   -1.1132   -0.7340    0.5138 C   0  0  0  0  0  0  0  0  0  0  0  0
   -1.3155   -0.2198   -0.7410 C   0  0  0  0  0  0  0  0  0  0  0  0
   -0.2072    0.3544   -1.3731 C   0  0  0  0  0  0  0  0  0  0  0  0
   -2.6334   -0.2682   -1.3939 C   0  0  1  0  0  0  0  0  0  0  0  0
   -2.9982   -1.7151   -1.6379 C   0  0  0  0  0  0  0  0  0  0  0  0
   -4.4884   -1.8152   -1.3703 C   0  0  0  0  0  0  0  0  0  0  0  0
   -4.7984   -0.7140   -0.3766 C   0  0  2  0  0  0  0  0  0  0  0  0
   -3.7498    0.3475   -0.6143 C   0  0  0  0  0  0  0  0  0  0  0  0
   -4.6980   -1.2763    0.9450 N   0  0  0  0  0  0  0  0  0  0  0  0
   -6.1980   -0.2389   -0.6930 C   0  0  0  0  0  0  0  0  0  0  0  0
   -6.6685    0.7336    0.1541 O   0  0  0  0  0  0  0  0  0  0  0  0
   -8.2258    1.2448   -0.2191 P   0  0  0  0  0  0  0  0  0  0  0  0
   -8.9817    1.6678    1.0226 O   0  0  0  0  0  0  0  0  0  0  0  0
   -8.1326    2.6071   -1.2213 O   0  0  0  0  0  0  0  0  0  0  0  0
   -9.0829    0.0571   -1.0767 O   0  0  0  0  0  0  0  0  0  0  0  0
    7.5471   -0.3267   -1.5300 H   0  0  0  0  0  0  0  0  0  0  0  0
    8.5351   -1.9041   -1.4218 H   0  0  0  0  0  0  0  0  0  0  0  0
    8.2261   -1.9496    0.9713 H   0  0  0  0  0  0  0  0  0  0  0  0
    6.6886    0.6284    0.3586 H   0  0  0  0  0  0  0  0  0  0  0  0
    7.6812    0.3766    1.8261 H   0  0  0  0  0  0  0  0  0  0  0  0
    5.2193   -1.3029    1.0742 H   0  0  0  0  0  0  0  0  0  0  0  0
    6.2298   -1.5180    2.5437 H   0  0  0  0  0  0  0  0  0  0  0  0
    5.6835    0.6572    3.3112 H   0  0  0  0  0  0  0  0  0  0  0  0
    4.1736   -0.2941    2.9917 H   0  0  0  0  0  0  0  0  0  0  0  0
    5.2776    1.8862    1.1243 H   0  0  0  0  0  0  0  0  0  0  0  0
    3.8341    1.9639    2.2056 H   0  0  0  0  0  0  0  0  0  0  0  0
    4.1993    0.0086   -0.1001 H   0  0  0  0  0  0  0  0  0  0  0  0
    3.8890    2.2427   -0.8129 H   0  0  0  0  0  0  0  0  0  0  0  0
    2.3671    2.3848    0.2207 H   0  0  0  0  0  0  0  0  0  0  0  0
    1.8879    1.6841   -2.2345 H   0  0  0  0  0  0  0  0  0  0  0  0
    2.8004    0.1463   -1.8356 H   0  0  0  0  0  0  0  0  0  0  0  0
    2.8346   -1.1912    1.3209 H   0  0  0  0  0  0  0  0  0  0  0  0
    2.3360    0.3026    2.2742 H   0  0  0  0  0  0  0  0  0  0  0  0
    0.2469   -1.1189    2.1503 H   0  0  0  0  0  0  0  0  0  0  0  0
   -1.9024   -1.1940    1.0771 H   0  0  0  0  0  0  0  0  0  0  0  0
   -0.2998    0.7791   -2.3666 H   0  0  0  0  0  0  0  0  0  0  0  0
   -2.5377    0.2107   -2.3987 H   0  0  0  0  0  0  0  0  0  0  0  0
   -2.8215   -2.0305   -2.6696 H   0  0  0  0  0  0  0  0  0  0  0  0
   -2.4916   -2.4200   -0.9597 H   0  0  0  0  0  0  0  0  0  0  0  0
   -4.7843   -2.8201   -0.9800 H   0  0  0  0  0  0  0  0  0  0  0  0
   -5.0833   -1.6807   -2.2980 H   0  0  0  0  0  0  0  0  0  0  0  0
   -4.2010    1.2001   -1.1977 H   0  0  0  0  0  0  0  0  0  0  0  0
   -3.4540    0.7855    0.3580 H   0  0  0  0  0  0  0  0  0  0  0  0
   -5.6576   -1.4076    1.3172 H   0  0  0  0  0  0  0  0  0  0  0  0
   -4.1775   -2.1672    0.9298 H   0  0  0  0  0  0  0  0  0  0  0  0
   -6.8304   -1.1313   -0.7933 H   0  0  0  0  0  0  0  0  0  0  0  0
   -6.1384    0.2057   -1.7176 H   0  0  0  0  0  0  0  0  0  0  0  0
   -9.0265    2.9783   -1.4163 H   0  0  0  0  0  0  0  0  0  0  0  0
   -8.8601   -0.8259   -0.6721 H   0  0  0  0  0  0  0  0  0  0  0  0
  1  2  2  0
  2  3  1  0
  3  4  1  0
  4  5  1  0
  5  6  1  0
  6  7  1  0
  7  8  1  0
  8  9  1  0
  9 10  1  0
 10 11  2  0
 11 12  1  0
 11 13  1  0
 13 14  2  0
 14 15  1  0
 15 16  2  0
 15 17  1  0
 17 18  1  0
 18 19  1  0
 19 20  1  0
 20 21  1  0
 20 22  1  1
 20 23  1  0
 23 24  1  0
 24 25  1  0
 25 26  2  0
 25 27  1  0
 25 28  1  0
 12  7  1  0
 21 17  1  0
 16 10  1  0
  1 29  1  0
  1 30  1  0
  2 31  1  0
  3 32  1  0
  3 33  1  0
  4 34  1  0
  4 35  1  0
  5 36  1  0
  5 37  1  0
  6 38  1  0
  6 39  1  0
  7 40  1  6
  8 41  1  0
  8 42  1  0
  9 43  1  0
  9 44  1  0
 12 45  1  0
 12 46  1  0
 13 47  1  0
 14 48  1  0
 16 49  1  0
 17 50  1  6
 18 51  1  0
 18 52  1  0
 19 53  1  0
 19 54  1  0
 21 55  1  0
 21 56  1  0
 22 57  1  0
 22 58  1  0
 23 59  1  0
 23 60  1  0
 27 61  1  0
 28 62  1  0
M  END
>  <Ligand ID>  (1) 
LIG0005619

>  <Ligand>  (1) 
BDBM65223

>  <SMILES>  (1) 
C=CCCCC[C@@H]1CCc2c(C1)ccc(c2)[C@H]1CC[C@](C1)(N)COP(=O)(O)O

>  <CID>  (1) 
131953693.0

>  <ChEMBL ID>  (1) 
nan

>  <InChiKey>  (1) 
ZBVTUCXYBGLKCQ-VOQZNFBZSA-N

>  <InChi>  (1) 
InChI=1S/C22H34NO4P/c1-2-3-4-5-6-17-7-8-19-14-20(10-9-18(19)13-17)21-11-12-22(23,15-21)16-27-28(24,25)26/h2,9-10,14,17,21H,1,3-8,11-13,15-16,23H2,(H2,24,25,26)/t17-,21+,22-/m1/s1

>  <IUPAC Name>  (1) 
[(1R,3S)-1-amino-3-[(6R)-6-hex-5-enyl-5,6,7,8-tetrahydronaphthalen-2-yl]cyclopentyl]methyl dihydrogen phosphate

$$$$
