
     RDKit          3D

 84 86  0  0  0  0  0  0  0  0999 V2000
   -3.2171    0.7735    1.3215 O   0  0  0  0  0  0  0  0  0  0  0  0
   -4.1346   -0.1131    1.3336 C   0  0  0  0  0  0  0  0  0  0  0  0
   -3.7788   -1.4822    1.1139 N   0  0  0  0  0  0  0  0  0  0  0  0
   -2.4812   -1.9958    0.9131 C   0  0  2  0  0  0  0  0  0  0  0  0
   -1.6903   -1.2571   -0.1740 C   0  0  0  0  0  0  0  0  0  0  0  0
   -2.1690   -0.3308   -0.8223 O   0  0  0  0  0  0  0  0  0  0  0  0
   -0.3555   -1.7688   -0.3227 N   0  0  0  0  0  0  0  0  0  0  0  0
    0.6012   -1.2049   -1.2695 C   0  0  1  0  0  0  0  0  0  0  0  0
    1.8032   -0.9359   -0.4503 C   0  0  0  0  0  0  0  0  0  0  0  0
    1.6423   -1.1189    0.8088 O   0  0  0  0  0  0  0  0  0  0  0  0
    3.0653   -0.5187   -0.8676 N   0  0  0  0  0  0  0  0  0  0  0  0
    4.0715   -0.3231    0.2026 C   0  0  1  0  0  0  0  0  0  0  0  0
    5.0842   -1.3965    0.1345 C   0  0  0  0  0  0  0  0  0  0  0  0
    5.2687   -2.1508   -0.8567 O   0  0  0  0  0  0  0  0  0  0  0  0
    5.9599   -1.6673    1.2408 N   0  0  0  0  0  0  0  0  0  0  0  0
    4.7583    1.0055   -0.0257 C   0  0  0  0  0  0  0  0  0  0  0  0
    5.8076    1.2449    1.0110 C   0  0  0  0  0  0  0  0  0  0  0  0
    6.5506    2.5580    0.8643 C   0  0  0  0  0  0  0  0  0  0  0  0
    5.6837    3.7185    0.9437 N   0  0  0  0  0  0  0  0  0  0  0  0
    6.2700    4.8586    0.7690 C   0  0  0  0  0  0  0  0  0  0  0  0
    5.5801    6.1087    0.8096 N   0  0  0  0  0  0  0  0  0  0  0  0
    7.6776    4.9365    0.5210 N   0  0  0  0  0  0  0  0  0  0  0  0
    0.9173   -2.0525   -2.4303 C   0  0  0  0  0  0  0  0  0  0  0  0
    1.5556   -3.3549   -2.2114 C   0  0  0  0  0  0  0  0  0  0  0  0
    0.8889   -4.5082   -1.8182 C   0  0  0  0  0  0  0  0  0  0  0  0
    1.5685   -5.7260   -1.6891 C   0  0  0  0  0  0  0  0  0  0  0  0
    2.9293   -5.8305   -1.9477 C   0  0  0  0  0  0  0  0  0  0  0  0
    3.5555   -4.6658   -2.3352 C   0  0  0  0  0  0  0  0  0  0  0  0
    2.8999   -3.4842   -2.4613 C   0  0  0  0  0  0  0  0  0  0  0  0
   -2.4996   -3.4524    0.5966 C   0  0  0  0  0  0  0  0  0  0  0  0
   -3.3406   -3.6959   -0.6392 C   0  0  0  0  0  0  0  0  0  0  0  0
   -4.6608   -4.0146   -0.6298 N   0  0  0  0  0  0  0  0  0  0  0  0
   -5.1197   -4.1193   -1.9135 C   0  0  0  0  0  0  0  0  0  0  0  0
   -4.0524   -3.8605   -2.7544 N   0  0  0  0  0  0  0  0  0  0  0  0
   -2.9987   -3.6093   -1.9529 C   0  0  0  0  0  0  0  0  0  0  0  0
   -5.5534    0.1869    1.5592 C   0  0  0  0  0  0  0  0  0  0  0  0
   -6.0197    1.5476    1.1615 C   0  0  0  0  0  0  0  0  0  0  0  0
   -5.3477    2.6798    1.7665 C   0  0  0  0  0  0  0  0  0  0  0  0
   -4.4278    2.6499    2.6196 O   0  0  0  0  0  0  0  0  0  0  0  0
   -5.7732    4.0366    1.3456 C   0  0  0  0  0  0  0  0  0  0  0  0
   -6.8590    4.1489    0.4609 C   0  0  0  0  0  0  0  0  0  0  0  0
   -7.2365    5.4108    0.0579 C   0  0  0  0  0  0  0  0  0  0  0  0
   -6.5982    6.5651    0.4822 C   0  0  0  0  0  0  0  0  0  0  0  0
   -5.5343    6.4413    1.3503 C   0  0  0  0  0  0  0  0  0  0  0  0
   -5.1426    5.1731    1.7661 C   0  0  0  0  0  0  0  0  0  0  0  0
   -4.5922   -2.1534    1.1069 H   0  0  0  0  0  0  0  0  0  0  0  0
   -1.8153   -1.7461    1.7998 H   0  0  0  0  0  0  0  0  0  0  0  0
    0.0067   -2.5713    0.2426 H   0  0  0  0  0  0  0  0  0  0  0  0
    0.2250   -0.2248   -1.6648 H   0  0  0  0  0  0  0  0  0  0  0  0
    3.2548   -0.3669   -1.8562 H   0  0  0  0  0  0  0  0  0  0  0  0
    3.5931   -0.3113    1.2086 H   0  0  0  0  0  0  0  0  0  0  0  0
    5.5972   -1.3397    2.1736 H   0  0  0  0  0  0  0  0  0  0  0  0
    6.8704   -2.1378    1.1667 H   0  0  0  0  0  0  0  0  0  0  0  0
    5.1514    0.9569   -1.0787 H   0  0  0  0  0  0  0  0  0  0  0  0
    3.9988    1.8369   -0.0147 H   0  0  0  0  0  0  0  0  0  0  0  0
    5.3470    1.2198    2.0129 H   0  0  0  0  0  0  0  0  0  0  0  0
    6.5940    0.4410    0.9914 H   0  0  0  0  0  0  0  0  0  0  0  0
    7.1722    2.6424   -0.0255 H   0  0  0  0  0  0  0  0  0  0  0  0
    7.2723    2.5750    1.7382 H   0  0  0  0  0  0  0  0  0  0  0  0
    4.8921    6.3078    1.5990 H   0  0  0  0  0  0  0  0  0  0  0  0
    5.7622    6.8278    0.0535 H   0  0  0  0  0  0  0  0  0  0  0  0
    8.2702    4.3325    1.1419 H   0  0  0  0  0  0  0  0  0  0  0  0
    8.0520    5.5509   -0.2246 H   0  0  0  0  0  0  0  0  0  0  0  0
    1.6068   -1.4300   -3.0859 H   0  0  0  0  0  0  0  0  0  0  0  0
    0.0304   -2.1886   -3.1229 H   0  0  0  0  0  0  0  0  0  0  0  0
   -0.1491   -4.5179   -1.5999 H   0  0  0  0  0  0  0  0  0  0  0  0
    1.0754   -6.6356   -1.3848 H   0  0  0  0  0  0  0  0  0  0  0  0
    3.4749   -6.7667   -1.8566 H   0  0  0  0  0  0  0  0  0  0  0  0
    4.6276   -4.7539   -2.5388 H   0  0  0  0  0  0  0  0  0  0  0  0
    3.4424   -2.5813   -2.7824 H   0  0  0  0  0  0  0  0  0  0  0  0
   -1.5164   -3.8574    0.3341 H   0  0  0  0  0  0  0  0  0  0  0  0
   -2.9805   -4.0331    1.4025 H   0  0  0  0  0  0  0  0  0  0  0  0
   -5.3000   -4.1814    0.1647 H   0  0  0  0  0  0  0  0  0  0  0  0
   -6.1246   -4.3595   -2.2258 H   0  0  0  0  0  0  0  0  0  0  0  0
   -2.0288   -3.3667   -2.3480 H   0  0  0  0  0  0  0  0  0  0  0  0
   -6.1484   -0.5501    0.9437 H   0  0  0  0  0  0  0  0  0  0  0  0
   -5.8469    0.0343    2.6316 H   0  0  0  0  0  0  0  0  0  0  0  0
   -6.0898    1.6337    0.0307 H   0  0  0  0  0  0  0  0  0  0  0  0
   -7.1245    1.6458    1.4452 H   0  0  0  0  0  0  0  0  0  0  0  0
   -7.3565    3.2638    0.1275 H   0  0  0  0  0  0  0  0  0  0  0  0
   -8.0829    5.4584   -0.6225 H   0  0  0  0  0  0  0  0  0  0  0  0
   -6.9825    7.4899    0.1012 H   0  0  0  0  0  0  0  0  0  0  0  0
   -5.0331    7.3477    1.6811 H   0  0  0  0  0  0  0  0  0  0  0  0
   -4.2937    5.1030    2.4557 H   0  0  0  0  0  0  0  0  0  0  0  0
  1  2  2  0
  2  3  1  0
  3  4  1  0
  4  5  1  0
  5  6  2  0
  5  7  1  0
  7  8  1  0
  8  9  1  0
  9 10  2  0
  9 11  1  0
 11 12  1  0
 12 13  1  0
 13 14  2  0
 13 15  1  0
 12 16  1  0
 16 17  1  0
 17 18  1  0
 18 19  1  0
 19 20  2  3
 20 21  1  0
 20 22  1  0
  8 23  1  0
 23 24  1  0
 24 25  2  0
 25 26  1  0
 26 27  2  0
 27 28  1  0
 28 29  2  0
  4 30  1  0
 30 31  1  0
 31 32  1  0
 32 33  1  0
 33 34  2  0
 34 35  1  0
  2 36  1  0
 36 37  1  0
 37 38  1  0
 38 39  2  0
 38 40  1  0
 40 41  2  0
 41 42  1  0
 42 43  2  0
 43 44  1  0
 44 45  2  0
 29 24  1  0
 35 31  2  0
 45 40  1  0
  3 46  1  0
  4 47  1  1
  7 48  1  0
  8 49  1  6
 11 50  1  0
 12 51  1  1
 15 52  1  0
 15 53  1  0
 16 54  1  0
 16 55  1  0
 17 56  1  0
 17 57  1  0
 18 58  1  0
 18 59  1  0
 21 60  1  0
 21 61  1  0
 22 62  1  0
 22 63  1  0
 23 64  1  0
 23 65  1  0
 25 66  1  0
 26 67  1  0
 27 68  1  0
 28 69  1  0
 29 70  1  0
 30 71  1  0
 30 72  1  0
 32 73  1  0
 33 74  1  0
 35 75  1  0
 36 76  1  0
 36 77  1  0
 37 78  1  0
 37 79  1  0
 41 80  1  0
 42 81  1  0
 43 82  1  0
 44 83  1  0
 45 84  1  0
M  END
>  <Ligand ID>  (1) 
LIG0002655

>  <Ligand>  (1) 
CHEMBL569221

>  <SMILES>  (1) 
O=C(N[C@H](C(=O)N[C@@H](C(=O)N[C@@H](C(=O)N)CCCN=C(N)N)Cc1ccccc1)Cc1[nH]cnc1)CCC(=O)c1ccccc1

>  <CID>  (1) 
45487295.0

>  <ChEMBL ID>  (1) 
nan

>  <InChiKey>  (1) 
PLXFBHOHFXMKET-SDHSZQHLSA-N

>  <InChi>  (1) 
InChI=1S/C31H39N9O5/c32-28(43)23(12-7-15-36-31(33)34)39-29(44)24(16-20-8-3-1-4-9-20)40-30(45)25(17-22-18-35-19-37-22)38-27(42)14-13-26(41)21-10-5-2-6-11-21/h1-6,8-11,18-19,23-25H,7,12-17H2,(H2,32,43)(H,35,37)(H,38,42)(H,39,44)(H,40,45)(H4,33,34,36)/t23-,24-,25+/m1/s1

>  <IUPAC Name>  (1) 
(2R)-5-(diaminomethylideneamino)-2-[[(2R)-2-[[(2S)-3-(1H-imidazol-5-yl)-2-[(4-oxo-4-phenylbutanoyl)amino]propanoyl]amino]-3-phenylpropanoyl]amino]pentanamide

$$$$
