
     RDKit          3D

 53 55  0  0  0  0  0  0  0  0999 V2000
    7.9313   -2.0386   -0.9148 C   0  0  0  0  0  0  0  0  0  0  0  0
    7.6525   -0.5951   -0.6804 C   0  0  0  0  0  0  0  0  0  0  0  0
    6.8029   -0.3331    0.5376 C   0  0  1  0  0  0  0  0  0  0  0  0
    5.5544   -0.9417    0.4741 O   0  0  0  0  0  0  0  0  0  0  0  0
    4.3169   -0.3744    0.5124 C   0  0  0  0  0  0  0  0  0  0  0  0
    4.0473    0.9703    0.6264 C   0  0  0  0  0  0  0  0  0  0  0  0
    2.7661    1.4885    0.6601 C   0  0  0  0  0  0  0  0  0  0  0  0
    1.7054    0.6104    0.5750 C   0  0  0  0  0  0  0  0  0  0  0  0
    1.9232   -0.7409    0.4600 C   0  0  0  0  0  0  0  0  0  0  0  0
    3.2155   -1.2169    0.4300 C   0  0  0  0  0  0  0  0  0  0  0  0
    3.3855   -2.6470    0.3079 C   0  0  0  0  0  0  0  0  0  0  0  0
    3.5254   -3.8086    0.2290 N   0  0  0  0  0  0  0  0  0  0  0  0
    0.3439    1.1392    0.6091 C   0  0  0  0  0  0  0  0  0  0  0  0
   -0.0106    2.3891    0.7149 O   0  0  0  0  0  0  0  0  0  0  0  0
   -1.3242    2.4966    0.7128 N   0  0  0  0  0  0  0  0  0  0  0  0
   -1.8496    1.2638    0.6009 C   0  0  0  0  0  0  0  0  0  0  0  0
   -0.7976    0.4280    0.5373 N   0  0  0  0  0  0  0  0  0  0  0  0
   -3.2440    0.8435    0.5522 C   0  0  0  0  0  0  0  0  0  0  0  0
   -3.5826   -0.5011    0.4318 C   0  0  0  0  0  0  0  0  0  0  0  0
   -4.9120   -0.8967    0.3860 C   0  0  0  0  0  0  0  0  0  0  0  0
   -5.9448   -0.0082    0.4542 C   0  0  0  0  0  0  0  0  0  0  0  0
   -5.5918    1.3422    0.5755 C   0  0  0  0  0  0  0  0  0  0  0  0
   -4.2829    1.7445    0.6221 C   0  0  0  0  0  0  0  0  0  0  0  0
   -3.9762    3.1983    0.7518 C   0  0  0  0  0  0  0  0  0  0  0  0
   -7.3745   -0.3308    0.3919 C   0  0  0  0  0  0  0  0  0  0  0  0
   -7.9419   -0.1674   -0.9728 C   0  0  0  0  0  0  0  0  0  0  0  0
   -7.3782   -0.9821   -2.0414 C   0  0  0  0  0  0  0  0  0  0  0  0
   -6.4714   -1.8298   -1.9629 O   0  0  0  0  0  0  0  0  0  0  0  0
   -7.9215   -0.7948   -3.3335 O   0  0  0  0  0  0  0  0  0  0  0  0
    7.4689   -0.7847    1.8108 C   0  0  0  0  0  0  0  0  0  0  0  0
    8.9671   -2.3493   -0.6189 H   0  0  0  0  0  0  0  0  0  0  0  0
    7.8945   -2.2188   -2.0290 H   0  0  0  0  0  0  0  0  0  0  0  0
    7.2251   -2.7501   -0.4764 H   0  0  0  0  0  0  0  0  0  0  0  0
    8.6296   -0.0819   -0.5714 H   0  0  0  0  0  0  0  0  0  0  0  0
    7.1706   -0.1298   -1.5578 H   0  0  0  0  0  0  0  0  0  0  0  0
    6.6671    0.7608    0.6314 H   0  0  0  0  0  0  0  0  0  0  0  0
    4.8663    1.6698    0.6939 H   0  0  0  0  0  0  0  0  0  0  0  0
    2.6210    2.5685    0.7522 H   0  0  0  0  0  0  0  0  0  0  0  0
    1.0703   -1.3992    0.3957 H   0  0  0  0  0  0  0  0  0  0  0  0
   -2.7817   -1.2367    0.3743 H   0  0  0  0  0  0  0  0  0  0  0  0
   -5.0944   -1.9475    0.3087 H   0  0  0  0  0  0  0  0  0  0  0  0
   -6.3625    2.1042    0.6357 H   0  0  0  0  0  0  0  0  0  0  0  0
   -3.3293    3.4529   -0.1377 H   0  0  0  0  0  0  0  0  0  0  0  0
   -4.8868    3.8132    0.7620 H   0  0  0  0  0  0  0  0  0  0  0  0
   -3.3486    3.3337    1.6402 H   0  0  0  0  0  0  0  0  0  0  0  0
   -7.5265   -1.3631    0.8030 H   0  0  0  0  0  0  0  0  0  0  0  0
   -7.8876    0.3933    1.0931 H   0  0  0  0  0  0  0  0  0  0  0  0
   -9.0643   -0.3100   -0.8889 H   0  0  0  0  0  0  0  0  0  0  0  0
   -7.8720    0.9314   -1.2581 H   0  0  0  0  0  0  0  0  0  0  0  0
   -7.7085   -1.4268   -4.0799 H   0  0  0  0  0  0  0  0  0  0  0  0
    7.6610   -1.8915    1.7985 H   0  0  0  0  0  0  0  0  0  0  0  0
    6.7141   -0.6621    2.6274 H   0  0  0  0  0  0  0  0  0  0  0  0
    8.3399   -0.1836    2.0887 H   0  0  0  0  0  0  0  0  0  0  0  0
  1  2  1  0
  2  3  1  0
  3  4  1  0
  4  5  1  0
  5  6  2  0
  6  7  1  0
  7  8  2  0
  8  9  1  0
  9 10  2  0
 10 11  1  0
 11 12  3  0
  8 13  1  0
 13 14  1  0
 14 15  1  0
 15 16  2  0
 16 17  1  0
 16 18  1  0
 18 19  2  0
 19 20  1  0
 20 21  2  0
 21 22  1  0
 22 23  2  0
 23 24  1  0
 21 25  1  0
 25 26  1  0
 26 27  1  0
 27 28  2  0
 27 29  1  0
  3 30  1  0
 10  5  1  0
 17 13  2  0
 23 18  1  0
  1 31  1  0
  1 32  1  0
  1 33  1  0
  2 34  1  0
  2 35  1  0
  3 36  1  1
  6 37  1  0
  7 38  1  0
  9 39  1  0
 19 40  1  0
 20 41  1  0
 22 42  1  0
 24 43  1  0
 24 44  1  0
 24 45  1  0
 25 46  1  0
 25 47  1  0
 26 48  1  0
 26 49  1  0
 29 50  1  0
 30 51  1  0
 30 52  1  0
 30 53  1  0
M  END
>  <Ligand ID>  (1) 
LIG0001653

>  <Ligand>  (1) 
CHEMBL378054

>  <SMILES>  (1) 
CC[C@@H](Oc1ccc(cc1C#N)c1onc(n1)c1ccc(cc1C)CCC(=O)O)C

>  <CID>  (1) 
44412936.0

>  <ChEMBL ID>  (1) 
nan

>  <InChiKey>  (1) 
SSWBUZXDOZQJGX-HNNXBMFYSA-N

>  <InChi>  (1) 
InChI=1S/C23H23N3O4/c1-4-15(3)29-20-9-7-17(12-18(20)13-24)23-25-22(26-30-23)19-8-5-16(11-14(19)2)6-10-21(27)28/h5,7-9,11-12,15H,4,6,10H2,1-3H3,(H,27,28)/t15-/m0/s1

>  <IUPAC Name>  (1) 
3-[4-[5-[4-[(2S)-butan-2-yl]oxy-3-cyanophenyl]-1,2,4-oxadiazol-3-yl]-3-methylphenyl]propanoic acid

$$$$
