
     RDKit          3D

 62 64  0  0  0  0  0  0  0  0999 V2000
   -4.9492    2.3538    2.4946 C   0  0  0  0  0  0  0  0  0  0  0  0
   -6.4030    2.1589    2.0133 C   0  0  0  0  0  0  0  0  0  0  0  0
   -6.5498    1.3836    0.8758 C   0  0  0  0  0  0  0  0  0  0  0  0
   -6.6967    0.6260   -0.2361 O   0  0  0  0  0  0  0  0  0  0  0  0
   -5.6426    0.0693   -0.9853 C   0  0  0  0  0  0  0  0  0  0  0  0
   -4.3343    0.2901   -0.6285 C   0  0  0  0  0  0  0  0  0  0  0  0
   -3.3278   -0.2847   -1.4036 C   0  0  0  0  0  0  0  0  0  0  0  0
   -3.7172   -1.0584   -2.5073 C   0  0  0  0  0  0  0  0  0  0  0  0
   -5.0432   -1.2536   -2.8318 C   0  0  0  0  0  0  0  0  0  0  0  0
   -6.0458   -0.6810   -2.0587 C   0  0  0  0  0  0  0  0  0  0  0  0
   -7.4616   -0.8519   -2.3449 C   0  0  0  0  0  0  0  0  0  0  0  0
   -7.9238   -1.5038   -3.2972 O   0  0  0  0  0  0  0  0  0  0  0  0
   -8.4289   -0.2504   -1.5063 O   0  0  0  0  0  0  0  0  0  0  0  0
   -1.9161   -0.0615   -1.1443 C   0  0  0  0  0  0  0  0  0  0  0  0
   -1.4677    0.2052    0.1591 C   0  0  0  0  0  0  0  0  0  0  0  0
   -0.1276    0.3610    0.3361 C   0  0  0  0  0  0  0  0  0  0  0  0
    0.7765    0.2685   -0.6801 C   0  0  0  0  0  0  0  0  0  0  0  0
    0.3045    0.0067   -1.9414 C   0  0  0  0  0  0  0  0  0  0  0  0
   -1.0484   -0.1635   -2.2073 C   0  0  0  0  0  0  0  0  0  0  0  0
    2.2574    0.4686   -0.5130 C   0  0  0  0  0  0  0  0  0  0  0  0
    2.7564   -0.7472    0.1683 C   0  0  2  0  0  0  0  0  0  0  0  0
    4.1723   -0.8383    0.4029 N   0  0  0  0  0  0  0  0  0  0  0  0
    4.9604   -0.7487   -0.7839 C   0  0  0  0  0  0  0  0  0  0  0  0
    6.3786   -1.1529   -0.5038 C   0  0  1  0  0  0  0  0  0  0  0  0
    6.9340   -0.3617    0.6118 C   0  0  0  0  0  0  0  0  0  0  0  0
    7.9233    0.5734    0.3682 C   0  0  0  0  0  0  0  0  0  0  0  0
    8.5110    1.3206    1.3738 C   0  0  0  0  0  0  0  0  0  0  0  0
    8.0281    1.0597    2.6658 C   0  0  0  0  0  0  0  0  0  0  0  0
    7.0702    0.1526    2.9030 N   0  0  0  0  0  0  0  0  0  0  0  0
    6.5187   -0.5600    1.8924 C   0  0  0  0  0  0  0  0  0  0  0  0
    6.3056   -2.4976   -0.0668 O   0  0  0  0  0  0  0  0  0  0  0  0
    2.2456   -2.0003   -0.4642 C   0  0  0  0  0  0  0  0  0  0  0  0
   -4.5766    1.3709    2.8393 H   0  0  0  0  0  0  0  0  0  0  0  0
   -4.3660    2.7345    1.6622 H   0  0  0  0  0  0  0  0  0  0  0  0
   -5.0090    3.0711    3.3169 H   0  0  0  0  0  0  0  0  0  0  0  0
   -6.8110    3.2233    1.8992 H   0  0  0  0  0  0  0  0  0  0  0  0
   -6.9905    1.8034    2.9315 H   0  0  0  0  0  0  0  0  0  0  0  0
   -6.4156    0.2350    1.5693 H   0  0  0  0  0  0  0  0  0  0  0  0
   -7.8709    1.2526    1.0848 H   0  0  0  0  0  0  0  0  0  0  0  0
   -4.0391    0.8749    0.2227 H   0  0  0  0  0  0  0  0  0  0  0  0
   -2.9908   -1.5364   -3.1456 H   0  0  0  0  0  0  0  0  0  0  0  0
   -5.3578   -1.8406   -3.6795 H   0  0  0  0  0  0  0  0  0  0  0  0
   -9.2843   -0.7531   -1.3707 H   0  0  0  0  0  0  0  0  0  0  0  0
   -2.2107    0.2677    0.9334 H   0  0  0  0  0  0  0  0  0  0  0  0
    0.2409    0.5670    1.3501 H   0  0  0  0  0  0  0  0  0  0  0  0
    0.9861   -0.0781   -2.7842 H   0  0  0  0  0  0  0  0  0  0  0  0
   -1.3521   -0.3678   -3.2244 H   0  0  0  0  0  0  0  0  0  0  0  0
    2.3652    1.4214    0.0052 H   0  0  0  0  0  0  0  0  0  0  0  0
    2.7168    0.5306   -1.5299 H   0  0  0  0  0  0  0  0  0  0  0  0
    2.2368   -0.7477    1.2186 H   0  0  0  0  0  0  0  0  0  0  0  0
    4.3858    0.0784    0.9280 H   0  0  0  0  0  0  0  0  0  0  0  0
    4.5391   -1.2804   -1.6634 H   0  0  0  0  0  0  0  0  0  0  0  0
    5.0294    0.3266   -1.1409 H   0  0  0  0  0  0  0  0  0  0  0  0
    7.0205   -1.0672   -1.4092 H   0  0  0  0  0  0  0  0  0  0  0  0
    8.2819    0.7559   -0.6591 H   0  0  0  0  0  0  0  0  0  0  0  0
    9.2902    2.0544    1.1960 H   0  0  0  0  0  0  0  0  0  0  0  0
    8.4988    1.6482    3.4750 H   0  0  0  0  0  0  0  0  0  0  0  0
    5.7545   -1.2798    2.1966 H   0  0  0  0  0  0  0  0  0  0  0  0
    5.4793   -2.5224    0.5134 H   0  0  0  0  0  0  0  0  0  0  0  0
    1.1497   -1.9401   -0.6982 H   0  0  0  0  0  0  0  0  0  0  0  0
    2.4263   -2.8725    0.2281 H   0  0  0  0  0  0  0  0  0  0  0  0
    2.8143   -2.2125   -1.3831 H   0  0  0  0  0  0  0  0  0  0  0  0
  1  2  1  0
  2  3  1  0
  3  4  1  0
  4  5  1  0
  5  6  2  0
  6  7  1  0
  7  8  2  0
  8  9  1  0
  9 10  2  0
 10 11  1  0
 11 12  2  0
 11 13  1  0
  7 14  1  0
 14 15  2  0
 15 16  1  0
 16 17  2  0
 17 18  1  0
 18 19  2  0
 17 20  1  0
 20 21  1  0
 21 22  1  0
 22 23  1  0
 23 24  1  0
 24 25  1  0
 25 26  2  0
 26 27  1  0
 27 28  2  0
 28 29  1  0
 29 30  2  0
 24 31  1  0
 21 32  1  0
 10  5  1  0
 19 14  1  0
 30 25  1  0
  1 33  1  0
  1 34  1  0
  1 35  1  0
  2 36  1  0
  2 37  1  0
  3 38  1  0
  3 39  1  0
  6 40  1  0
  8 41  1  0
  9 42  1  0
 13 43  1  0
 15 44  1  0
 16 45  1  0
 18 46  1  0
 19 47  1  0
 20 48  1  0
 20 49  1  0
 21 50  1  1
 22 51  1  0
 23 52  1  0
 23 53  1  0
 24 54  1  6
 26 55  1  0
 27 56  1  0
 28 57  1  0
 30 58  1  0
 31 59  1  0
 32 60  1  0
 32 61  1  0
 32 62  1  0
M  END
>  <Ligand ID>  (1) 
LIG0001909

>  <Ligand>  (1) 
CHEMBL507506

>  <SMILES>  (1) 
CCCOc1cc(ccc1C(=O)O)c1ccc(cc1)C[C@H](NC[C@@H](c1cccnc1)O)C

>  <CID>  (1) 
44560793.0

>  <ChEMBL ID>  (1) 
nan

>  <InChiKey>  (1) 
PAMFWLSSFZPHMC-KOSHJBKYSA-N

>  <InChi>  (1) 
InChI=1S/C26H30N2O4/c1-3-13-32-25-15-21(10-11-23(25)26(30)31)20-8-6-19(7-9-20)14-18(2)28-17-24(29)22-5-4-12-27-16-22/h4-12,15-16,18,24,28-29H,3,13-14,17H2,1-2H3,(H,30,31)/t18-,24+/m1/s1

>  <IUPAC Name>  (1) 
4-[4-[(2R)-2-[[(2R)-2-hydroxy-2-pyridin-3-ylethyl]amino]propyl]phenyl]-2-propoxybenzoic acid

$$$$
