
     RDKit          3D

 31 33  0  0  0  0  0  0  0  0999 V2000
    1.6519   -2.7574   -0.4824 O   0  0  0  0  0  0  0  0  0  0  0  0
    0.9069   -1.7559   -0.3443 C   0  0  0  0  0  0  0  0  0  0  0  0
   -0.4887   -1.9333   -0.4596 N   0  0  0  0  0  0  0  0  0  0  0  0
   -1.4445   -0.8547   -0.5413 C   0  0  0  0  0  0  0  0  0  0  0  0
   -2.6758   -1.1574    0.2981 C   0  0  0  0  0  0  0  0  0  0  0  0
   -3.6700   -0.1852   -0.0296 N   0  0  0  0  0  0  0  0  0  0  0  0
   -3.1521    1.0897   -0.4030 C   0  0  0  0  0  0  0  0  0  0  0  0
   -1.8309    1.4376    0.2983 C   0  0  0  0  0  0  0  0  0  0  0  0
   -0.8949    0.3991   -0.0590 N   0  0  0  0  0  0  0  0  0  0  0  0
    0.5061    0.6146    0.0637 C   0  0  0  0  0  0  0  0  0  0  0  0
    1.4207   -0.4188   -0.0701 C   0  0  0  0  0  0  0  0  0  0  0  0
    2.7800   -0.2171    0.0475 C   0  0  0  0  0  0  0  0  0  0  0  0
    3.7254   -1.3768   -0.1075 C   0  0  0  0  0  0  0  0  0  0  0  0
    3.2810    1.0625    0.3104 C   0  0  0  0  0  0  0  0  0  0  0  0
    2.3862    2.0954    0.4453 C   0  0  0  0  0  0  0  0  0  0  0  0
    1.0318    1.8646    0.3227 C   0  0  0  0  0  0  0  0  0  0  0  0
   -0.8633   -2.9094   -0.4885 H   0  0  0  0  0  0  0  0  0  0  0  0
   -1.8338   -0.7541   -1.5923 H   0  0  0  0  0  0  0  0  0  0  0  0
   -2.3727   -0.9815    1.3612 H   0  0  0  0  0  0  0  0  0  0  0  0
   -3.0525   -2.1778    0.1551 H   0  0  0  0  0  0  0  0  0  0  0  0
   -4.5079   -0.1693    0.5815 H   0  0  0  0  0  0  0  0  0  0  0  0
   -3.8475    1.9290   -0.1743 H   0  0  0  0  0  0  0  0  0  0  0  0
   -2.9274    1.1716   -1.4988 H   0  0  0  0  0  0  0  0  0  0  0  0
   -1.9816    1.4322    1.4046 H   0  0  0  0  0  0  0  0  0  0  0  0
   -1.5966    2.4355   -0.0635 H   0  0  0  0  0  0  0  0  0  0  0  0
    3.6710   -1.7845   -1.1461 H   0  0  0  0  0  0  0  0  0  0  0  0
    3.5900   -2.1383    0.6695 H   0  0  0  0  0  0  0  0  0  0  0  0
    4.7619   -0.9926    0.0148 H   0  0  0  0  0  0  0  0  0  0  0  0
    4.3366    1.2477    0.4070 H   0  0  0  0  0  0  0  0  0  0  0  0
    2.7277    3.0792    0.6448 H   0  0  0  0  0  0  0  0  0  0  0  0
    0.3628    2.7054    0.4360 H   0  0  0  0  0  0  0  0  0  0  0  0
  1  2  2  0
  2  3  1  0
  3  4  1  0
  4  5  1  0
  5  6  1  0
  6  7  1  0
  7  8  1  0
  8  9  1  0
  9 10  1  0
 10 11  2  0
 11 12  1  0
 12 13  1  0
 12 14  2  0
 14 15  1  0
 15 16  2  0
 11  2  1  0
  9  4  1  0
 16 10  1  0
  3 17  1  0
  4 18  1  0
  5 19  1  0
  5 20  1  0
  6 21  1  0
  7 22  1  0
  7 23  1  0
  8 24  1  0
  8 25  1  0
 13 26  1  0
 13 27  1  0
 13 28  1  0
 14 29  1  0
 15 30  1  0
 16 31  1  0
M  END
>  <Ligand ID>  (1) 
LIG0003693

>  <Ligand>  (1) 
CHEMBL590078

>  <SMILES>  (1) 
O=C1NC2CNCCN2c2c1c(C)ccc2

>  <CID>  (1) 
11615459.0

>  <ChEMBL ID>  (1) 
nan

>  <InChiKey>  (1) 
RGCZEETYNQZRTH-UHFFFAOYSA-N

>  <InChi>  (1) 
InChI=1S/C12H15N3O/c1-8-3-2-4-9-11(8)12(16)14-10-7-13-5-6-15(9)10/h2-4,10,13H,5-7H2,1H3,(H,14,16)

>  <IUPAC Name>  (1) 
7-methyl-1,2,3,4,4a,5-hexahydropyrazino[1,2-a]quinazolin-6-one

$$$$
