
     RDKit          3D

135140  0  0  0  0  0  0  0  0999 V2000
   -4.2797    7.7372    3.6881 N   0  0  0  0  0  0  0  0  0  0  0  0
   -5.1081    6.6005    3.4955 C   0  0  0  0  0  0  0  0  0  0  0  0
   -5.1483    5.9060    2.4120 N   0  0  0  0  0  0  0  0  0  0  0  0
   -4.3349    6.2075    1.2393 C   0  0  0  0  0  0  0  0  0  0  0  0
   -3.5827    4.9676    0.7893 C   0  0  0  0  0  0  0  0  0  0  0  0
   -2.6872    4.5122    1.9081 C   0  0  0  0  0  0  0  0  0  0  0  0
   -1.9003    3.2493    1.5566 C   0  0  2  0  0  0  0  0  0  0  0  0
   -1.0952    3.5301    0.4060 N   0  0  0  0  0  0  0  0  0  0  0  0
    0.3242    3.4517    0.3010 C   0  0  0  0  0  0  0  0  0  0  0  0
    0.9141    3.0239    1.2892 O   0  0  0  0  0  0  0  0  0  0  0  0
    0.9250    3.8884   -0.9758 C   0  0  2  0  0  0  0  0  0  0  0  0
   -0.0823    3.7043   -2.1032 C   0  0  0  0  0  0  0  0  0  0  0  0
    0.8630    3.5201   -3.2843 C   0  0  0  0  0  0  0  0  0  0  0  0
    1.8638    2.5834   -2.6180 C   0  0  0  0  0  0  0  0  0  0  0  0
    2.1323    3.2725   -1.4085 N   0  0  0  0  0  0  0  0  0  0  0  0
    3.4006    3.3565   -0.7216 C   0  0  0  0  0  0  0  0  0  0  0  0
    3.3026    3.9809    0.3521 O   0  0  0  0  0  0  0  0  0  0  0  0
    4.6415    2.7662   -1.2629 C   0  0  1  0  0  0  0  0  0  0  0  0
    5.8133    3.7240   -1.1564 C   0  0  0  0  0  0  0  0  0  0  0  0
    6.4125    3.4181    0.1995 C   0  0  0  0  0  0  0  0  0  0  0  0
    5.9417    2.0217    0.5652 C   0  0  0  0  0  0  0  0  0  0  0  0
    5.1729    1.6223   -0.5636 N   0  0  0  0  0  0  0  0  0  0  0  0
    4.8351    0.3332   -1.0194 C   0  0  0  0  0  0  0  0  0  0  0  0
    3.9946    0.2901   -1.9388 O   0  0  0  0  0  0  0  0  0  0  0  0
    5.3492   -0.9706   -0.5239 C   0  0  2  0  0  0  0  0  0  0  0  0
    6.5685   -1.4483   -1.2788 C   0  0  0  0  0  0  0  0  0  0  0  0
    7.6489   -0.4576   -1.1762 C   0  0  0  0  0  0  0  0  0  0  0  0
    8.6539   -0.4701   -0.2367 C   0  0  0  0  0  0  0  0  0  0  0  0
    9.6076    0.5453   -0.2821 C   0  0  0  0  0  0  0  0  0  0  0  0
    9.5563    1.5482   -1.2458 C   0  0  0  0  0  0  0  0  0  0  0  0
    8.5555    1.5563   -2.1788 C   0  0  0  0  0  0  0  0  0  0  0  0
    7.6140    0.5659   -2.1436 C   0  0  0  0  0  0  0  0  0  0  0  0
    4.2068   -1.8669   -0.9353 N   0  0  0  0  0  0  0  0  0  0  0  0
    3.5080   -2.6045    0.0675 C   0  0  0  0  0  0  0  0  0  0  0  0
    3.9905   -2.5522    1.1941 O   0  0  0  0  0  0  0  0  0  0  0  0
    2.3061   -3.3588   -0.2671 C   0  0  1  0  0  0  0  0  0  0  0  0
    1.7097   -4.0010    0.8840 N   0  0  0  0  0  0  0  0  0  0  0  0
    0.4796   -4.7024    0.8894 C   0  0  0  0  0  0  0  0  0  0  0  0
   -0.1451   -4.7561   -0.1522 O   0  0  0  0  0  0  0  0  0  0  0  0
    0.0523   -5.3054    2.2136 C   0  0  1  0  0  0  0  0  0  0  0  0
   -1.4100   -5.2032    2.2036 N   0  0  0  0  0  0  0  0  0  0  0  0
   -2.0095   -3.9553    1.8651 C   0  0  0  0  0  0  0  0  0  0  0  0
   -1.2160   -3.0929    1.4416 O   0  0  0  0  0  0  0  0  0  0  0  0
   -3.4338   -3.6003    1.9514 C   0  0  1  0  0  0  0  0  0  0  0  0
   -3.6727   -2.4507    1.0672 N   0  0  0  0  0  0  0  0  0  0  0  0
   -3.1918   -1.1350    1.2480 C   0  0  0  0  0  0  0  0  0  0  0  0
   -2.4399   -0.9395    2.1990 O   0  0  0  0  0  0  0  0  0  0  0  0
   -3.6025   -0.0245    0.2755 C   0  0  1  0  0  0  0  0  0  0  0  0
   -2.7112    1.0800    0.4358 N   0  0  0  0  0  0  0  0  0  0  0  0
   -2.7904    2.0795    1.4533 C   0  0  0  0  0  0  0  0  0  0  0  0
   -3.6966    1.8717    2.2880 O   0  0  0  0  0  0  0  0  0  0  0  0
   -3.7825   -0.5021   -1.1079 C   0  0  0  0  0  0  0  0  0  0  0  0
   -4.1944    0.6434   -1.9842 C   0  0  0  0  0  0  0  0  0  0  0  0
   -5.5440    0.9788   -2.1377 C   0  0  0  0  0  0  0  0  0  0  0  0
   -5.8925    2.0366   -2.9756 C   0  0  0  0  0  0  0  0  0  0  0  0
   -4.9569    2.7722   -3.6641 C   0  0  0  0  0  0  0  0  0  0  0  0
   -3.6052    2.4374   -3.5108 C   0  0  0  0  0  0  0  0  0  0  0  0
   -3.2937    1.3967   -2.6839 C   0  0  0  0  0  0  0  0  0  0  0  0
   -4.5002   -4.5604    2.0237 C   0  0  0  0  0  0  0  0  0  0  0  0
   -4.7765   -5.5361    0.9935 C   0  0  0  0  0  0  0  0  0  0  0  0
   -4.3465   -6.8497    0.9581 C   0  0  0  0  0  0  0  0  0  0  0  0
   -4.6622   -7.6851   -0.0849 C   0  0  0  0  0  0  0  0  0  0  0  0
   -5.4339   -7.2704   -1.1732 C   0  0  0  0  0  0  0  0  0  0  0  0
   -5.8656   -5.9683   -1.1437 C   0  0  0  0  0  0  0  0  0  0  0  0
   -5.5486   -5.1414   -0.1052 C   0  0  0  0  0  0  0  0  0  0  0  0
    0.5402   -6.6842    2.3574 C   0  0  0  0  0  0  0  0  0  0  0  0
    0.0202   -7.6051    1.3005 C   0  0  0  0  0  0  0  0  0  0  0  0
   -0.8772   -7.1597    0.5325 O   0  0  0  0  0  0  0  0  0  0  0  0
    0.5080   -8.9347    1.1513 N   0  0  0  0  0  0  0  0  0  0  0  0
    1.3142   -2.2265   -0.7171 C   0  0  0  0  0  0  0  0  0  0  0  0
   -5.9753    6.1589    4.5549 N   0  0  0  0  0  0  0  0  0  0  0  0
   -3.4113    7.6446    4.2860 H   0  0  0  0  0  0  0  0  0  0  0  0
   -4.5044    8.6749    3.2479 H   0  0  0  0  0  0  0  0  0  0  0  0
   -5.0069    6.5911    0.4374 H   0  0  0  0  0  0  0  0  0  0  0  0
   -3.6532    7.0479    1.4677 H   0  0  0  0  0  0  0  0  0  0  0  0
   -2.9374    5.2834   -0.0788 H   0  0  0  0  0  0  0  0  0  0  0  0
   -4.3280    4.2133    0.5024 H   0  0  0  0  0  0  0  0  0  0  0  0
   -3.3138    4.3776    2.8135 H   0  0  0  0  0  0  0  0  0  0  0  0
   -1.9485    5.2963    2.1036 H   0  0  0  0  0  0  0  0  0  0  0  0
   -1.2529    3.0555    2.4706 H   0  0  0  0  0  0  0  0  0  0  0  0
   -1.5843    3.8254   -0.4536 H   0  0  0  0  0  0  0  0  0  0  0  0
    1.0192    5.0074   -0.8881 H   0  0  0  0  0  0  0  0  0  0  0  0
   -0.5936    2.7342   -1.9775 H   0  0  0  0  0  0  0  0  0  0  0  0
   -0.7776    4.5483   -2.2229 H   0  0  0  0  0  0  0  0  0  0  0  0
    0.3822    3.0583   -4.1400 H   0  0  0  0  0  0  0  0  0  0  0  0
    1.4164    4.4383   -3.5065 H   0  0  0  0  0  0  0  0  0  0  0  0
    1.3497    1.6116   -2.4243 H   0  0  0  0  0  0  0  0  0  0  0  0
    2.7204    2.3614   -3.2749 H   0  0  0  0  0  0  0  0  0  0  0  0
    4.5114    2.5687   -2.3527 H   0  0  0  0  0  0  0  0  0  0  0  0
    6.5119    3.6352   -1.9890 H   0  0  0  0  0  0  0  0  0  0  0  0
    5.3725    4.7410   -1.2199 H   0  0  0  0  0  0  0  0  0  0  0  0
    7.5190    3.3782    0.0541 H   0  0  0  0  0  0  0  0  0  0  0  0
    6.1097    4.1625    0.9619 H   0  0  0  0  0  0  0  0  0  0  0  0
    6.7820    1.3679    0.8468 H   0  0  0  0  0  0  0  0  0  0  0  0
    5.2898    2.0998    1.4969 H   0  0  0  0  0  0  0  0  0  0  0  0
    5.5062   -0.9418    0.5245 H   0  0  0  0  0  0  0  0  0  0  0  0
    6.3667   -1.6673   -2.3344 H   0  0  0  0  0  0  0  0  0  0  0  0
    6.9370   -2.3865   -0.8046 H   0  0  0  0  0  0  0  0  0  0  0  0
    8.6867   -1.2381    0.4957 H   0  0  0  0  0  0  0  0  0  0  0  0
   10.4165    0.6001    0.4224 H   0  0  0  0  0  0  0  0  0  0  0  0
   10.2871    2.3443   -1.3019 H   0  0  0  0  0  0  0  0  0  0  0  0
    8.4807    2.3208   -2.9422 H   0  0  0  0  0  0  0  0  0  0  0  0
    6.8329    0.5974   -2.8866 H   0  0  0  0  0  0  0  0  0  0  0  0
    3.9180   -1.9723   -1.8874 H   0  0  0  0  0  0  0  0  0  0  0  0
    2.3642   -3.9742   -1.1256 H   0  0  0  0  0  0  0  0  0  0  0  0
    2.2180   -3.9415    1.7696 H   0  0  0  0  0  0  0  0  0  0  0  0
    0.4306   -4.6142    2.9591 H   0  0  0  0  0  0  0  0  0  0  0  0
   -2.0263   -5.9673    2.4232 H   0  0  0  0  0  0  0  0  0  0  0  0
   -3.4696   -3.0385    2.9912 H   0  0  0  0  0  0  0  0  0  0  0  0
   -4.2393   -2.6123    0.2334 H   0  0  0  0  0  0  0  0  0  0  0  0
   -4.5861    0.3273    0.7220 H   0  0  0  0  0  0  0  0  0  0  0  0
   -1.9310    1.2007   -0.2146 H   0  0  0  0  0  0  0  0  0  0  0  0
   -4.5811   -1.2563   -1.2126 H   0  0  0  0  0  0  0  0  0  0  0  0
   -2.8145   -0.9074   -1.5358 H   0  0  0  0  0  0  0  0  0  0  0  0
   -6.3115    0.4300   -1.6182 H   0  0  0  0  0  0  0  0  0  0  0  0
   -6.9343    2.3371   -3.1223 H   0  0  0  0  0  0  0  0  0  0  0  0
   -5.2562    3.5829   -4.3019 H   0  0  0  0  0  0  0  0  0  0  0  0
   -2.8806    3.0220   -4.0592 H   0  0  0  0  0  0  0  0  0  0  0  0
   -2.2422    1.1471   -2.5816 H   0  0  0  0  0  0  0  0  0  0  0  0
   -4.3803   -5.1444    2.9989 H   0  0  0  0  0  0  0  0  0  0  0  0
   -5.4633   -4.0050    2.2097 H   0  0  0  0  0  0  0  0  0  0  0  0
   -3.7656   -7.2679    1.7591 H   0  0  0  0  0  0  0  0  0  0  0  0
   -4.2933   -8.7265   -0.0557 H   0  0  0  0  0  0  0  0  0  0  0  0
   -5.6613   -7.9642   -1.9724 H   0  0  0  0  0  0  0  0  0  0  0  0
   -6.4611   -5.5790   -1.9480 H   0  0  0  0  0  0  0  0  0  0  0  0
   -5.9375   -4.1272   -0.1468 H   0  0  0  0  0  0  0  0  0  0  0  0
    1.6434   -6.6885    2.2539 H   0  0  0  0  0  0  0  0  0  0  0  0
    0.3069   -7.0633    3.3675 H   0  0  0  0  0  0  0  0  0  0  0  0
    0.1997   -9.7414    1.7280 H   0  0  0  0  0  0  0  0  0  0  0  0
    1.2374   -9.1757    0.4137 H   0  0  0  0  0  0  0  0  0  0  0  0
    0.5197   -2.6580   -1.3494 H   0  0  0  0  0  0  0  0  0  0  0  0
    0.9540   -1.8183    0.2484 H   0  0  0  0  0  0  0  0  0  0  0  0
    1.9446   -1.4729   -1.2049 H   0  0  0  0  0  0  0  0  0  0  0  0
   -6.2058    6.7762    5.3815 H   0  0  0  0  0  0  0  0  0  0  0  0
   -6.4146    5.2215    4.5540 H   0  0  0  0  0  0  0  0  0  0  0  0
  1  2  1  0
  2  3  2  3
  3  4  1  0
  4  5  1  0
  5  6  1  0
  6  7  1  0
  7  8  1  0
  8  9  1  0
  9 10  2  0
  9 11  1  0
 11 12  1  0
 12 13  1  0
 13 14  1  0
 14 15  1  0
 15 16  1  0
 16 17  2  0
 16 18  1  0
 18 19  1  0
 19 20  1  0
 20 21  1  0
 21 22  1  0
 22 23  1  0
 23 24  2  0
 23 25  1  0
 25 26  1  0
 26 27  1  0
 27 28  2  0
 28 29  1  0
 29 30  2  0
 30 31  1  0
 31 32  2  0
 25 33  1  0
 33 34  1  0
 34 35  2  0
 34 36  1  0
 36 37  1  0
 37 38  1  0
 38 39  2  0
 38 40  1  0
 40 41  1  0
 41 42  1  0
 42 43  2  0
 42 44  1  0
 44 45  1  0
 45 46  1  0
 46 47  2  0
 46 48  1  0
 48 49  1  0
 49 50  1  0
 50 51  2  0
 48 52  1  0
 52 53  1  0
 53 54  2  0
 54 55  1  0
 55 56  2  0
 56 57  1  0
 57 58  2  0
 44 59  1  0
 59 60  1  0
 60 61  2  0
 61 62  1  0
 62 63  2  0
 63 64  1  0
 64 65  2  0
 40 66  1  0
 66 67  1  0
 67 68  2  0
 67 69  1  0
 36 70  1  0
  2 71  1  0
 50  7  1  0
 58 53  1  0
 65 60  1  0
 15 11  1  0
 22 18  1  0
 32 27  1  0
  1 72  1  0
  1 73  1  0
  4 74  1  0
  4 75  1  0
  5 76  1  0
  5 77  1  0
  6 78  1  0
  6 79  1  0
  7 80  1  1
  8 81  1  0
 11 82  1  1
 12 83  1  0
 12 84  1  0
 13 85  1  0
 13 86  1  0
 14 87  1  0
 14 88  1  0
 18 89  1  6
 19 90  1  0
 19 91  1  0
 20 92  1  0
 20 93  1  0
 21 94  1  0
 21 95  1  0
 25 96  1  1
 26 97  1  0
 26 98  1  0
 28 99  1  0
 29100  1  0
 30101  1  0
 31102  1  0
 32103  1  0
 33104  1  0
 36105  1  6
 37106  1  0
 40107  1  1
 41108  1  0
 44109  1  1
 45110  1  0
 48111  1  1
 49112  1  0
 52113  1  0
 52114  1  0
 54115  1  0
 55116  1  0
 56117  1  0
 57118  1  0
 58119  1  0
 59120  1  0
 59121  1  0
 61122  1  0
 62123  1  0
 63124  1  0
 64125  1  0
 65126  1  0
 66127  1  0
 66128  1  0
 69129  1  0
 69130  1  0
 70131  1  0
 70132  1  0
 70133  1  0
 71134  1  0
 71135  1  0
M  END
>  <Ligand ID>  (1) 
LIG0005499

>  <Ligand>  (1) 
CHEMBL3577981

>  <SMILES>  (1) 
NC(=NCCC[C@@H]1NC(=O)[C@@H]2CCCN2C(=O)[C@H]2CCCN2C(=O)[C@H](Cc2ccccc2)NC(=O)[C@@H](NC(=O)[C@@H](NC(=O)[C@@H](NC(=O)[C@@H](NC1=O)Cc1ccccc1)Cc1ccccc1)CC(=O)N)C)N

>  <CID>  (1) 
122178151.0

>  <ChEMBL ID>  (1) 
nan

>  <InChiKey>  (1) 
MTKQTEXYJKPBQD-GNDHHEKASA-N

>  <InChi>  (1) 
InChI=1S/C50H64N12O9/c1-30-42(64)60-38(28-33-18-9-4-10-19-33)48(70)62-25-13-22-40(62)49(71)61-24-12-21-39(61)47(69)56-34(20-11-23-54-50(52)53)43(65)57-35(26-31-14-5-2-6-15-31)45(67)58-36(27-32-16-7-3-8-17-32)46(68)59-37(29-41(51)63)44(66)55-30/h2-10,14-19,30,34-40H,11-13,20-29H2,1H3,(H2,51,63)(H,55,66)(H,56,69)(H,57,65)(H,58,67)(H,59,68)(H,60,64)(H4,52,53,54)/t30-,34-,35-,36-,37-,38-,39-,40+/m0/s1

>  <IUPAC Name>  (1) 
2-[(3R,9S,12S,15S,18S,21S,24S,27S)-9,18,21-tribenzyl-24-[3-(diaminomethylideneamino)propyl]-12-methyl-2,8,11,14,17,20,23,26-octaoxo-1,7,10,13,16,19,22,25-octazatricyclo[25.3.0.03,7]triacontan-15-yl]acetamide

$$$$
