
     RDKit          3D

 32 34  0  0  0  0  0  0  0  0999 V2000
    3.4908   -1.5809    0.1574 C   0  0  0  0  0  0  0  0  0  0  0  0
    2.3875   -0.6367   -0.2480 C   0  0  1  0  0  0  0  0  0  0  0  0
    1.7149    0.0082    0.9285 C   0  0  0  0  0  0  0  0  0  0  0  0
    0.6793    0.8888    0.4554 N   0  0  0  0  0  0  0  0  0  0  0  0
    0.9194    2.2175    0.2407 C   0  0  0  0  0  0  0  0  0  0  0  0
   -0.2182    2.8582   -0.1797 C   0  0  0  0  0  0  0  0  0  0  0  0
   -1.1931    1.8944   -0.2270 C   0  0  0  0  0  0  0  0  0  0  0  0
   -0.6026    0.7002    0.1688 C   0  0  0  0  0  0  0  0  0  0  0  0
   -1.3988   -0.3991    0.1932 C   0  0  0  0  0  0  0  0  0  0  0  0
   -0.8928   -1.6174    0.5607 C   0  0  0  0  0  0  0  0  0  0  0  0
   -1.7218   -2.7103    0.5683 N   0  0  0  0  0  0  0  0  0  0  0  0
   -3.0081   -2.5924    0.2215 C   0  0  0  0  0  0  0  0  0  0  0  0
   -3.5834   -1.4010   -0.1590 C   0  0  0  0  0  0  0  0  0  0  0  0
   -2.7304   -0.2943   -0.1631 C   0  0  0  0  0  0  0  0  0  0  0  0
   -3.3167    0.8944   -0.5554 C   0  0  0  0  0  0  0  0  0  0  0  0
   -2.5132    2.0108   -0.5835 C   0  0  0  0  0  0  0  0  0  0  0  0
    2.9735    0.3783   -1.1112 N   0  0  0  0  0  0  0  0  0  0  0  0
    4.1919   -1.0224    0.8296 H   0  0  0  0  0  0  0  0  0  0  0  0
    3.1239   -2.5091    0.6345 H   0  0  0  0  0  0  0  0  0  0  0  0
    4.0165   -1.8832   -0.7736 H   0  0  0  0  0  0  0  0  0  0  0  0
    1.6659   -1.2053   -0.8679 H   0  0  0  0  0  0  0  0  0  0  0  0
    1.5020   -0.6054    1.7932 H   0  0  0  0  0  0  0  0  0  0  0  0
    2.5587    0.6806    1.3537 H   0  0  0  0  0  0  0  0  0  0  0  0
    1.8618    2.7527    0.3671 H   0  0  0  0  0  0  0  0  0  0  0  0
   -0.3362    3.8954   -0.4242 H   0  0  0  0  0  0  0  0  0  0  0  0
    0.1092   -1.8347    0.8416 H   0  0  0  0  0  0  0  0  0  0  0  0
   -3.6148   -3.4675    0.2423 H   0  0  0  0  0  0  0  0  0  0  0  0
   -4.6135   -1.3128   -0.4358 H   0  0  0  0  0  0  0  0  0  0  0  0
   -4.3611    0.9745   -0.8343 H   0  0  0  0  0  0  0  0  0  0  0  0
   -2.9703    2.9427   -0.8909 H   0  0  0  0  0  0  0  0  0  0  0  0
    3.6574    0.9752   -0.5884 H   0  0  0  0  0  0  0  0  0  0  0  0
    2.2225    1.0003   -1.5145 H   0  0  0  0  0  0  0  0  0  0  0  0
  1  2  1  0
  2  3  1  0
  3  4  1  0
  4  5  1  0
  5  6  2  0
  6  7  1  0
  7  8  2  0
  8  9  1  0
  9 10  2  0
 10 11  1  0
 11 12  2  0
 12 13  1  0
 13 14  2  0
 14 15  1  0
 15 16  2  0
  2 17  1  0
  8  4  1  0
 14  9  1  0
 16  7  1  0
  1 18  1  0
  1 19  1  0
  1 20  1  0
  2 21  1  6
  3 22  1  0
  3 23  1  0
  5 24  1  0
  6 25  1  0
 10 26  1  0
 12 27  1  0
 13 28  1  0
 15 29  1  0
 16 30  1  0
 17 31  1  0
 17 32  1  0
M  END
>  <Ligand ID>  (1) 
LIG0002141

>  <Ligand>  (1) 
CHEMBL201897

>  <SMILES>  (1) 
C[C@@H](Cn1ccc2c1c1cnccc1cc2)N

>  <CID>  (1) 
18715558.0

>  <ChEMBL ID>  (1) 
nan

>  <InChiKey>  (1) 
WLQHTTMOCDZDRH-JTQLQIEISA-N

>  <InChi>  (1) 
InChI=1S/C14H15N3/c1-10(15)9-17-7-5-12-3-2-11-4-6-16-8-13(11)14(12)17/h2-8,10H,9,15H2,1H3/t10-/m0/s1

>  <IUPAC Name>  (1) 
(2S)-1-pyrrolo[3,2-h]isoquinolin-1-ylpropan-2-amine

$$$$
