
     RDKit          3D

155160  0  0  0  0  0  0  0  0999 V2000
  -12.4169   -3.8990   -1.1379 C   0  0  0  0  0  0  0  0  0  0  0  0
  -11.0659   -3.7179   -0.4454 C   0  0  0  0  0  0  0  0  0  0  0  0
  -10.8923   -2.3133    0.0299 C   0  0  0  0  0  0  0  0  0  0  0  0
   -9.5675   -2.1551    0.7247 C   0  0  0  0  0  0  0  0  0  0  0  0
   -8.4557   -2.4695   -0.2104 C   0  0  2  0  0  0  0  0  0  0  0  0
   -7.1066   -2.3142    0.4561 C   0  0  0  0  0  0  0  0  0  0  0  0
   -6.8008   -2.9164    1.5055 O   0  0  0  0  0  0  0  0  0  0  0  0
   -6.1466   -1.4257   -0.1660 N   0  0  0  0  0  0  0  0  0  0  0  0
   -4.8461   -1.2128    0.3840 C   0  0  1  0  0  0  0  0  0  0  0  0
   -3.7671   -1.8391   -0.4620 C   0  0  0  0  0  0  0  0  0  0  0  0
   -3.7921   -3.2844   -0.6876 C   0  0  0  0  0  0  0  0  0  0  0  0
   -4.5208   -4.1320   -0.1749 O   0  0  0  0  0  0  0  0  0  0  0  0
   -2.8407   -3.7736   -1.6331 N   0  0  0  0  0  0  0  0  0  0  0  0
   -2.5978   -5.0937   -2.0742 C   0  0  0  0  0  0  0  0  0  0  0  0
   -2.1899   -6.1195   -1.0868 C   0  0  0  0  0  0  0  0  0  0  0  0
   -1.0868   -5.7353   -0.1501 C   0  0  0  0  0  0  0  0  0  0  0  0
    0.0212   -4.9324   -0.7760 C   0  0  0  0  0  0  0  0  0  0  0  0
    1.1415   -4.7696    0.1594 C   0  0  2  0  0  0  0  0  0  0  0  0
    1.9947   -3.6191   -0.1538 N   0  0  0  0  0  0  0  0  0  0  0  0
    3.0871   -3.2439    0.7380 C   0  0  0  0  0  0  0  0  0  0  0  0
    3.2877   -4.1066    1.6112 O   0  0  0  0  0  0  0  0  0  0  0  0
    3.8436   -2.0172    0.5955 C   0  0  1  0  0  0  0  0  0  0  0  0
    3.2529   -0.9625   -0.1897 N   0  0  0  0  0  0  0  0  0  0  0  0
    3.8832   -0.2848   -1.2732 C   0  0  0  0  0  0  0  0  0  0  0  0
    5.0076   -0.7211   -1.5776 O   0  0  0  0  0  0  0  0  0  0  0  0
    3.3041    0.8376   -2.0138 C   0  0  1  0  0  0  0  0  0  0  0  0
    2.1613    1.4389   -1.3431 N   0  0  0  0  0  0  0  0  0  0  0  0
    2.1641    1.9440   -0.0326 C   0  0  0  0  0  0  0  0  0  0  0  0
    3.3325    1.7729    0.4827 O   0  0  0  0  0  0  0  0  0  0  0  0
    1.2010    2.5729    0.8271 C   0  0  2  0  0  0  0  0  0  0  0  0
   -0.1839    2.7400    0.4559 N   0  0  0  0  0  0  0  0  0  0  0  0
   -1.2336    1.8587    0.9293 C   0  0  0  0  0  0  0  0  0  0  0  0
   -0.7707    0.8742    1.5166 O   0  0  0  0  0  0  0  0  0  0  0  0
   -2.6575    2.0100    0.7728 C   0  0  1  0  0  0  0  0  0  0  0  0
   -3.2203    0.6599    0.9944 N   0  0  0  0  0  0  0  0  0  0  0  0
   -4.4262    0.2481    0.3414 C   0  0  0  0  0  0  0  0  0  0  0  0
   -5.0610    1.1340   -0.2227 O   0  0  0  0  0  0  0  0  0  0  0  0
   -3.3336    2.9651    1.7221 C   0  0  0  0  0  0  0  0  0  0  0  0
   -3.1895    2.6299    3.1396 C   0  0  0  0  0  0  0  0  0  0  0  0
   -2.1792    3.0721    3.9489 N   0  0  0  0  0  0  0  0  0  0  0  0
   -2.3291    2.5966    5.1796 C   0  0  0  0  0  0  0  0  0  0  0  0
   -3.4294    1.8339    5.2241 N   0  0  0  0  0  0  0  0  0  0  0  0
   -3.9680    1.8454    3.9761 C   0  0  0  0  0  0  0  0  0  0  0  0
   -0.6865    3.7682   -0.4145 C   0  0  0  0  0  0  0  0  0  0  0  0
    1.7260    3.6525    1.7266 C   0  0  0  0  0  0  0  0  0  0  0  0
    2.3464    4.8400    1.1752 C   0  0  0  0  0  0  0  0  0  0  0  0
    1.5887    5.9666    0.8065 C   0  0  0  0  0  0  0  0  0  0  0  0
    2.1736    7.1035    0.2978 C   0  0  0  0  0  0  0  0  0  0  0  0
    3.5353    7.1961    0.1231 C   0  0  0  0  0  0  0  0  0  0  0  0
    4.3047    6.1123    0.4739 C   0  0  0  0  0  0  0  0  0  0  0  0
    3.7107    4.9806    0.9820 C   0  0  0  0  0  0  0  0  0  0  0  0
    5.6572    6.2054    0.2997 C   0  0  0  0  0  0  0  0  0  0  0  0
    6.2519    7.3448   -0.2111 C   0  0  0  0  0  0  0  0  0  0  0  0
    5.4454    8.4097   -0.5518 C   0  0  0  0  0  0  0  0  0  0  0  0
    4.0550    8.3666   -0.3945 C   0  0  0  0  0  0  0  0  0  0  0  0
    0.9301    1.5110   -2.0707 C   0  0  0  0  0  0  0  0  0  0  0  0
    4.4065    1.7464   -2.4678 C   0  0  0  0  0  0  0  0  0  0  0  0
    5.2770    2.3920   -1.4721 C   0  0  0  0  0  0  0  0  0  0  0  0
    6.3792    3.1325   -2.2415 C   0  0  0  0  0  0  0  0  0  0  0  0
    5.7415    4.1352   -3.0911 N   0  0  0  0  0  0  0  0  0  0  0  0
    6.3926    5.2143   -3.4197 C   0  0  0  0  0  0  0  0  0  0  0  0
    7.7198    5.3073   -2.8893 N   0  0  0  0  0  0  0  0  0  0  0  0
    5.8686    6.2365   -4.2356 N   0  0  0  0  0  0  0  0  0  0  0  0
    4.3582   -1.5421    1.9227 C   0  0  0  0  0  0  0  0  0  0  0  0
    5.2724   -2.5479    2.4893 C   0  0  0  0  0  0  0  0  0  0  0  0
    5.1338   -3.4604    3.5038 C   0  0  0  0  0  0  0  0  0  0  0  0
    6.2932   -4.1644    3.6413 N   0  0  0  0  0  0  0  0  0  0  0  0
    7.1918   -3.7256    2.7310 C   0  0  0  0  0  0  0  0  0  0  0  0
    6.5720   -2.7264    2.0133 C   0  0  0  0  0  0  0  0  0  0  0  0
    7.3166   -2.1207    1.0149 C   0  0  0  0  0  0  0  0  0  0  0  0
    8.6286   -2.4929    0.7370 C   0  0  0  0  0  0  0  0  0  0  0  0
    9.2385   -3.4950    1.4605 C   0  0  0  0  0  0  0  0  0  0  0  0
    8.4885   -4.0919    2.4537 C   0  0  0  0  0  0  0  0  0  0  0  0
    2.0282   -6.0204   -0.0253 C   0  0  0  0  0  0  0  0  0  0  0  0
    1.5718   -7.1612    0.1939 O   0  0  0  0  0  0  0  0  0  0  0  0
    3.3738   -5.8826   -0.4499 N   0  0  0  0  0  0  0  0  0  0  0  0
   -8.5232   -1.5831   -1.3533 N   0  0  0  0  0  0  0  0  0  0  0  0
   -8.5220   -2.0037   -2.6977 C   0  0  0  0  0  0  0  0  0  0  0  0
   -8.4584   -3.2271   -3.0286 O   0  0  0  0  0  0  0  0  0  0  0  0
   -8.5996   -0.9527   -3.7501 C   0  0  0  0  0  0  0  0  0  0  0  0
  -12.8322   -4.9216   -0.9304 H   0  0  0  0  0  0  0  0  0  0  0  0
  -13.1122   -3.1210   -0.7736 H   0  0  0  0  0  0  0  0  0  0  0  0
  -12.3174   -3.8566   -2.2452 H   0  0  0  0  0  0  0  0  0  0  0  0
  -10.3208   -4.0094   -1.2046 H   0  0  0  0  0  0  0  0  0  0  0  0
  -11.0544   -4.4204    0.4306 H   0  0  0  0  0  0  0  0  0  0  0  0
  -10.8760   -1.6513   -0.8768 H   0  0  0  0  0  0  0  0  0  0  0  0
  -11.7211   -1.9960    0.6987 H   0  0  0  0  0  0  0  0  0  0  0  0
   -9.4994   -2.8273    1.6111 H   0  0  0  0  0  0  0  0  0  0  0  0
   -9.4716   -1.1173    1.1416 H   0  0  0  0  0  0  0  0  0  0  0  0
   -8.4821   -3.5350   -0.5302 H   0  0  0  0  0  0  0  0  0  0  0  0
   -6.4144   -0.9130   -1.0537 H   0  0  0  0  0  0  0  0  0  0  0  0
   -4.7209   -1.5642    1.3977 H   0  0  0  0  0  0  0  0  0  0  0  0
   -2.7458   -1.5975   -0.0404 H   0  0  0  0  0  0  0  0  0  0  0  0
   -3.7313   -1.3430   -1.4849 H   0  0  0  0  0  0  0  0  0  0  0  0
   -2.2513   -3.0127   -2.0525 H   0  0  0  0  0  0  0  0  0  0  0  0
   -3.5773   -5.4833   -2.5229 H   0  0  0  0  0  0  0  0  0  0  0  0
   -1.9225   -5.1129   -2.9772 H   0  0  0  0  0  0  0  0  0  0  0  0
   -3.0349   -6.4794   -0.4525 H   0  0  0  0  0  0  0  0  0  0  0  0
   -1.8310   -7.0252   -1.6440 H   0  0  0  0  0  0  0  0  0  0  0  0
   -1.4791   -5.2252    0.7710 H   0  0  0  0  0  0  0  0  0  0  0  0
   -0.6544   -6.6809    0.2291 H   0  0  0  0  0  0  0  0  0  0  0  0
    0.2788   -5.4743   -1.7215 H   0  0  0  0  0  0  0  0  0  0  0  0
   -0.3170   -3.9221   -1.0967 H   0  0  0  0  0  0  0  0  0  0  0  0
    0.9012   -4.7788    1.2009 H   0  0  0  0  0  0  0  0  0  0  0  0
    1.9157   -3.0256   -0.9696 H   0  0  0  0  0  0  0  0  0  0  0  0
    4.8156   -2.2457    0.0133 H   0  0  0  0  0  0  0  0  0  0  0  0
    2.2976   -0.6637    0.0134 H   0  0  0  0  0  0  0  0  0  0  0  0
    2.9496    0.4170   -3.0208 H   0  0  0  0  0  0  0  0  0  0  0  0
    1.1239    1.6944    1.6077 H   0  0  0  0  0  0  0  0  0  0  0  0
   -2.9593    2.3218   -0.2192 H   0  0  0  0  0  0  0  0  0  0  0  0
   -2.7996   -0.0322    1.6101 H   0  0  0  0  0  0  0  0  0  0  0  0
   -3.1217    3.9894    1.4332 H   0  0  0  0  0  0  0  0  0  0  0  0
   -4.4378    2.8233    1.5043 H   0  0  0  0  0  0  0  0  0  0  0  0
   -1.3806    3.6976    3.6758 H   0  0  0  0  0  0  0  0  0  0  0  0
   -1.7060    2.7523    6.0695 H   0  0  0  0  0  0  0  0  0  0  0  0
   -4.8819    1.3223    3.6450 H   0  0  0  0  0  0  0  0  0  0  0  0
   -1.4504    3.3756   -1.1529 H   0  0  0  0  0  0  0  0  0  0  0  0
   -1.2393    4.5604    0.1072 H   0  0  0  0  0  0  0  0  0  0  0  0
    0.1041    4.1387   -1.0843 H   0  0  0  0  0  0  0  0  0  0  0  0
    2.5257    3.1507    2.3549 H   0  0  0  0  0  0  0  0  0  0  0  0
    0.9935    3.9501    2.5047 H   0  0  0  0  0  0  0  0  0  0  0  0
    0.5150    5.9888    0.9143 H   0  0  0  0  0  0  0  0  0  0  0  0
    1.5585    7.9660    0.0180 H   0  0  0  0  0  0  0  0  0  0  0  0
    4.3801    4.1686    1.2439 H   0  0  0  0  0  0  0  0  0  0  0  0
    6.3263    5.3776    0.5593 H   0  0  0  0  0  0  0  0  0  0  0  0
    7.3327    7.4328   -0.3528 H   0  0  0  0  0  0  0  0  0  0  0  0
    5.8414    9.3446   -0.9630 H   0  0  0  0  0  0  0  0  0  0  0  0
    3.4264    9.2220   -0.6648 H   0  0  0  0  0  0  0  0  0  0  0  0
    0.0768    1.2101   -1.4459 H   0  0  0  0  0  0  0  0  0  0  0  0
    1.0131    0.7604   -2.9287 H   0  0  0  0  0  0  0  0  0  0  0  0
    0.7944    2.4661   -2.5762 H   0  0  0  0  0  0  0  0  0  0  0  0
    5.0931    1.0602   -3.0765 H   0  0  0  0  0  0  0  0  0  0  0  0
    4.0416    2.4499   -3.2641 H   0  0  0  0  0  0  0  0  0  0  0  0
    5.7539    1.7069   -0.7864 H   0  0  0  0  0  0  0  0  0  0  0  0
    4.6928    3.2257   -0.9924 H   0  0  0  0  0  0  0  0  0  0  0  0
    6.8803    2.4023   -2.8973 H   0  0  0  0  0  0  0  0  0  0  0  0
    7.1326    3.5738   -1.5794 H   0  0  0  0  0  0  0  0  0  0  0  0
    7.8977    5.5339   -1.8754 H   0  0  0  0  0  0  0  0  0  0  0  0
    8.5741    5.1553   -3.4793 H   0  0  0  0  0  0  0  0  0  0  0  0
    5.1573    6.0047   -4.9680 H   0  0  0  0  0  0  0  0  0  0  0  0
    6.1998    7.2122   -4.0994 H   0  0  0  0  0  0  0  0  0  0  0  0
    3.5285   -1.3801    2.6589 H   0  0  0  0  0  0  0  0  0  0  0  0
    4.9508   -0.6302    1.7411 H   0  0  0  0  0  0  0  0  0  0  0  0
    4.2283   -3.5881    4.1028 H   0  0  0  0  0  0  0  0  0  0  0  0
    6.5192   -4.9227    4.3154 H   0  0  0  0  0  0  0  0  0  0  0  0
    6.9260   -1.3158    0.3994 H   0  0  0  0  0  0  0  0  0  0  0  0
    9.1979   -1.9947   -0.0689 H   0  0  0  0  0  0  0  0  0  0  0  0
   10.2382   -3.7425    1.2076 H   0  0  0  0  0  0  0  0  0  0  0  0
    9.0101   -4.8881    3.0098 H   0  0  0  0  0  0  0  0  0  0  0  0
    4.0909   -6.3936    0.1248 H   0  0  0  0  0  0  0  0  0  0  0  0
    3.6210   -5.3091   -1.2831 H   0  0  0  0  0  0  0  0  0  0  0  0
   -8.5748   -0.5496   -1.1261 H   0  0  0  0  0  0  0  0  0  0  0  0
   -8.5647   -1.4537   -4.7440 H   0  0  0  0  0  0  0  0  0  0  0  0
   -7.6959   -0.2979   -3.6378 H   0  0  0  0  0  0  0  0  0  0  0  0
   -9.5201   -0.3527   -3.6262 H   0  0  0  0  0  0  0  0  0  0  0  0
  1  2  1  0
  2  3  1  0
  3  4  1  0
  4  5  1  0
  5  6  1  0
  6  7  2  0
  6  8  1  0
  8  9  1  0
  9 10  1  0
 10 11  1  0
 11 12  2  0
 11 13  1  0
 13 14  1  0
 14 15  1  0
 15 16  1  0
 16 17  1  0
 17 18  1  0
 18 19  1  0
 19 20  1  0
 20 21  2  0
 20 22  1  0
 22 23  1  0
 23 24  1  0
 24 25  2  0
 24 26  1  0
 26 27  1  0
 27 28  1  0
 28 29  2  0
 28 30  1  0
 30 31  1  0
 31 32  1  0
 32 33  2  0
 32 34  1  0
 34 35  1  0
 35 36  1  0
 36 37  2  0
 34 38  1  0
 38 39  1  0
 39 40  1  0
 40 41  1  0
 41 42  2  0
 42 43  1  0
 31 44  1  0
 30 45  1  0
 45 46  1  0
 46 47  2  0
 47 48  1  0
 48 49  2  0
 49 50  1  0
 50 51  2  0
 50 52  1  0
 52 53  2  0
 53 54  1  0
 54 55  2  0
 27 56  1  0
 26 57  1  0
 57 58  1  0
 58 59  1  0
 59 60  1  0
 60 61  2  3
 61 62  1  0
 61 63  1  0
 22 64  1  0
 64 65  1  0
 65 66  2  0
 66 67  1  0
 67 68  1  0
 68 69  2  0
 69 70  1  0
 70 71  2  0
 71 72  1  0
 72 73  2  0
 18 74  1  0
 74 75  2  0
 74 76  1  0
  5 77  1  0
 77 78  1  0
 78 79  2  0
 78 80  1  0
 36  9  1  0
 43 39  2  0
 51 46  1  0
 69 65  1  0
 55 49  1  0
 73 68  1  0
  1 81  1  0
  1 82  1  0
  1 83  1  0
  2 84  1  0
  2 85  1  0
  3 86  1  0
  3 87  1  0
  4 88  1  0
  4 89  1  0
  5 90  1  6
  8 91  1  0
  9 92  1  1
 10 93  1  0
 10 94  1  0
 13 95  1  0
 14 96  1  0
 14 97  1  0
 15 98  1  0
 15 99  1  0
 16100  1  0
 16101  1  0
 17102  1  0
 17103  1  0
 18104  1  1
 19105  1  0
 22106  1  6
 23107  1  0
 26108  1  6
 30109  1  1
 34110  1  6
 35111  1  0
 38112  1  0
 38113  1  0
 40114  1  0
 41115  1  0
 43116  1  0
 44117  1  0
 44118  1  0
 44119  1  0
 45120  1  0
 45121  1  0
 47122  1  0
 48123  1  0
 51124  1  0
 52125  1  0
 53126  1  0
 54127  1  0
 55128  1  0
 56129  1  0
 56130  1  0
 56131  1  0
 57132  1  0
 57133  1  0
 58134  1  0
 58135  1  0
 59136  1  0
 59137  1  0
 62138  1  0
 62139  1  0
 63140  1  0
 63141  1  0
 64142  1  0
 64143  1  0
 66144  1  0
 67145  1  0
 70146  1  0
 71147  1  0
 72148  1  0
 73149  1  0
 76150  1  0
 76151  1  0
 77152  1  0
 80153  1  0
 80154  1  0
 80155  1  0
M  END
>  <Ligand ID>  (1) 
LIG0001825

>  <Ligand>  (1) 
CHEMBL3600843

>  <SMILES>  (1) 
CCCC[C@H](C(=O)N[C@H]1CC(=O)NCCCC[C@H](NC(=O)[C@@H](NC(=O)[C@@H](N(C(=O)[C@H](N(C(=O)[C@@H](NC1=O)Cc1[nH]cnc1)C)Cc1ccc2c(c1)cccc2)C)CCCN=C(N)N)Cc1c[nH]c2c1cccc2)C(=O)N)NC(=O)C

>  <CID>  (1) 
122184582.0

>  <ChEMBL ID>  (1) 
nan

>  <InChiKey>  (1) 
PIVHBXZYYYPXHW-PRXASQLMSA-N

>  <InChi>  (1) 
InChI=1S/C56H75N15O9/c1-5-6-17-42(65-33(2)72)50(75)67-44-29-48(73)61-23-12-11-19-41(49(57)74)66-51(76)43(27-37-30-63-40-18-10-9-16-39(37)40)68-53(78)46(20-13-24-62-56(58)59)70(3)55(80)47(26-34-21-22-35-14-7-8-15-36(35)25-34)71(4)54(79)45(69-52(44)77)28-38-31-60-32-64-38/h7-10,14-16,18,21-22,25,30-32,41-47,63H,5-6,11-13,17,19-20,23-24,26-29H2,1-4H3,(H2,57,74)(H,60,64)(H,61,73)(H,65,72)(H,66,76)(H,67,75)(H,68,78)(H,69,77)(H4,58,59,62)/t41-,42+,43-,44-,45-,46-,47+/m0/s1

>  <IUPAC Name>  (1) 
(3S,6S,9R,12S,15S,23S)-15-[[(2R)-2-acetamidohexanoyl]amino]-6-[3-(diaminomethylideneamino)propyl]-12-(1H-imidazol-5-ylmethyl)-3-(1H-indol-3-ylmethyl)-7,10-dimethyl-9-(naphthalen-2-ylmethyl)-2,5,8,11,14,17-hexaoxo-1,4,7,10,13,18-hexazacyclotricosane-23-carboxamide

$$$$
