
     RDKit          3D

 56 58  0  0  0  0  0  0  0  0999 V2000
   -0.5620   -0.3447   -0.3771 O   0  0  0  0  0  0  0  0  0  0  0  0
   -0.5153    0.0755    0.8038 C   0  0  0  0  0  0  0  0  0  0  0  0
    0.5882    0.0678    1.7240 C   0  0  2  0  0  0  0  0  0  0  0  0
    0.7550    1.2702    2.6258 C   0  0  0  0  0  0  0  0  0  0  0  0
    2.0879    1.1132    3.3658 C   0  0  0  0  0  0  0  0  0  0  0  0
    2.4497   -0.3485    3.4832 C   0  0  0  0  0  0  0  0  0  0  0  0
    2.7923   -0.9291    2.1142 C   0  0  0  0  0  0  0  0  0  0  0  0
    1.9301   -0.1726    1.1823 N   0  0  0  0  0  0  0  0  0  0  0  0
    2.3232    0.2723   -0.0768 C   0  0  0  0  0  0  0  0  0  0  0  0
    1.4582    1.0113   -0.7083 O   0  0  0  0  0  0  0  0  0  0  0  0
    3.5025    0.0663   -0.8063 N   0  0  0  0  0  0  0  0  0  0  0  0
    3.5618    0.7437   -2.1214 C   0  0  0  0  0  0  0  0  0  0  0  0
    4.7612    1.6759   -2.2017 C   0  0  0  0  0  0  0  0  0  0  0  0
    6.1862    0.6014   -2.1678 S   0  0  0  0  0  0  0  0  0  0  0  0
    6.8387    0.4685   -3.5045 O   0  0  0  0  0  0  0  0  0  0  0  0
    7.2104    1.1083   -1.1836 O   0  0  0  0  0  0  0  0  0  0  0  0
    5.5751   -0.9855   -1.6567 C   0  0  0  0  0  0  0  0  0  0  0  0
    4.6422   -0.7251   -0.4559 C   0  0  0  0  0  0  0  0  0  0  0  0
   -1.7670    0.6437    1.2780 N   0  0  0  0  0  0  0  0  0  0  0  0
   -2.8857    0.6716    0.4001 C   0  0  0  0  0  0  0  0  0  0  0  0
   -3.2158    1.6701   -0.4705 N   0  0  0  0  0  0  0  0  0  0  0  0
   -4.3075    1.3128   -1.0865 O   0  0  0  0  0  0  0  0  0  0  0  0
   -4.7202    0.1373   -0.6762 C   0  0  0  0  0  0  0  0  0  0  0  0
   -3.8487   -0.3385    0.2861 C   0  0  0  0  0  0  0  0  0  0  0  0
   -5.9491   -0.5420   -1.1983 C   0  0  0  0  0  0  0  0  0  0  0  0
   -6.0909   -1.8718   -0.4840 C   0  0  0  0  0  0  0  0  0  0  0  0
   -7.1869    0.2594   -0.9050 C   0  0  0  0  0  0  0  0  0  0  0  0
   -5.8121   -0.8771   -2.6756 C   0  0  0  0  0  0  0  0  0  0  0  0
    0.3851   -0.8182    2.4279 H   0  0  0  0  0  0  0  0  0  0  0  0
    0.6748    2.2346    2.1320 H   0  0  0  0  0  0  0  0  0  0  0  0
   -0.0380    1.1888    3.3914 H   0  0  0  0  0  0  0  0  0  0  0  0
    2.8808    1.6858    2.8384 H   0  0  0  0  0  0  0  0  0  0  0  0
    1.9388    1.5141    4.3869 H   0  0  0  0  0  0  0  0  0  0  0  0
    3.3685   -0.4305    4.1409 H   0  0  0  0  0  0  0  0  0  0  0  0
    1.6765   -0.9745    3.9269 H   0  0  0  0  0  0  0  0  0  0  0  0
    2.4865   -1.9908    2.1129 H   0  0  0  0  0  0  0  0  0  0  0  0
    3.8476   -0.8503    1.9037 H   0  0  0  0  0  0  0  0  0  0  0  0
    2.6353    1.2991   -2.2749 H   0  0  0  0  0  0  0  0  0  0  0  0
    3.7275   -0.0515   -2.8756 H   0  0  0  0  0  0  0  0  0  0  0  0
    4.7186    2.1401   -3.1862 H   0  0  0  0  0  0  0  0  0  0  0  0
    4.7678    2.4441   -1.4317 H   0  0  0  0  0  0  0  0  0  0  0  0
    6.4144   -1.5660   -1.2141 H   0  0  0  0  0  0  0  0  0  0  0  0
    5.0850   -1.4793   -2.4858 H   0  0  0  0  0  0  0  0  0  0  0  0
    5.3341   -0.2128    0.2722 H   0  0  0  0  0  0  0  0  0  0  0  0
    4.3841   -1.7719   -0.1198 H   0  0  0  0  0  0  0  0  0  0  0  0
   -1.8293    1.0273    2.2649 H   0  0  0  0  0  0  0  0  0  0  0  0
   -3.9020   -1.2748    0.8241 H   0  0  0  0  0  0  0  0  0  0  0  0
   -5.8890   -1.7219    0.6038 H   0  0  0  0  0  0  0  0  0  0  0  0
   -7.1072   -2.2984   -0.6079 H   0  0  0  0  0  0  0  0  0  0  0  0
   -5.3976   -2.6134   -0.9094 H   0  0  0  0  0  0  0  0  0  0  0  0
   -7.6850   -0.0197    0.0536 H   0  0  0  0  0  0  0  0  0  0  0  0
   -6.9795    1.3494   -0.8446 H   0  0  0  0  0  0  0  0  0  0  0  0
   -7.9414    0.0407   -1.7087 H   0  0  0  0  0  0  0  0  0  0  0  0
   -5.5276    0.0282   -3.2145 H   0  0  0  0  0  0  0  0  0  0  0  0
   -5.0345   -1.6782   -2.7268 H   0  0  0  0  0  0  0  0  0  0  0  0
   -6.7956   -1.2346   -3.0069 H   0  0  0  0  0  0  0  0  0  0  0  0
  1  2  2  0
  2  3  1  0
  3  4  1  0
  4  5  1  0
  5  6  1  0
  6  7  1  0
  7  8  1  0
  8  9  1  0
  9 10  2  0
  9 11  1  0
 11 12  1  0
 12 13  1  0
 13 14  1  0
 14 15  2  0
 14 16  2  0
 14 17  1  0
 17 18  1  0
  2 19  1  0
 19 20  1  0
 20 21  2  0
 21 22  1  0
 22 23  1  0
 23 24  2  0
 23 25  1  0
 25 26  1  0
 25 27  1  0
 25 28  1  0
  8  3  1  0
 18 11  1  0
 24 20  1  0
  3 29  1  1
  4 30  1  0
  4 31  1  0
  5 32  1  0
  5 33  1  0
  6 34  1  0
  6 35  1  0
  7 36  1  0
  7 37  1  0
 12 38  1  0
 12 39  1  0
 13 40  1  0
 13 41  1  0
 17 42  1  0
 17 43  1  0
 18 44  1  0
 18 45  1  0
 19 46  1  0
 24 47  1  0
 26 48  1  0
 26 49  1  0
 26 50  1  0
 27 51  1  0
 27 52  1  0
 27 53  1  0
 28 54  1  0
 28 55  1  0
 28 56  1  0
M  END
>  <Ligand ID>  (1) 
LIG0001472

>  <Ligand>  (1) 
CHEMBL3354553

>  <SMILES>  (1) 
O=C([C@@H]1CCCCN1C(=O)N1CCS(=O)(=O)CC1)Nc1noc(c1)C(C)(C)C

>  <CID>  (1) 
70865101.0

>  <ChEMBL ID>  (1) 
nan

>  <InChiKey>  (1) 
VBVSLBXYPFYZIR-ZDUSSCGKSA-N

>  <InChi>  (1) 
InChI=1S/C18H28N4O5S/c1-18(2,3)14-12-15(20-27-14)19-16(23)13-6-4-5-7-22(13)17(24)21-8-10-28(25,26)11-9-21/h12-13H,4-11H2,1-3H3,(H,19,20,23)/t13-/m0/s1

>  <IUPAC Name>  (1) 
(2S)-N-(5-tert-butyl-1,2-oxazol-3-yl)-1-(1,1-dioxo-1,4-thiazinane-4-carbonyl)piperidine-2-carboxamide

$$$$
