
     RDKit          3D

147151  0  0  0  0  0  0  0  0999 V2000
  -10.5619   -1.8062   -2.4145 C   0  0  0  0  0  0  0  0  0  0  0  0
   -9.8966   -0.5461   -2.8614 C   0  0  0  0  0  0  0  0  0  0  0  0
   -8.4250   -0.5941   -2.8549 C   0  0  0  0  0  0  0  0  0  0  0  0
   -7.6519   -0.6645   -1.6100 C   0  0  0  0  0  0  0  0  0  0  0  0
   -7.7980   -1.7184   -0.6044 C   0  0  1  0  0  0  0  0  0  0  0  0
   -6.7764   -1.5484    0.5216 C   0  0  0  0  0  0  0  0  0  0  0  0
   -7.2366   -1.5080    1.6975 O   0  0  0  0  0  0  0  0  0  0  0  0
   -5.3854   -1.4473    0.2338 N   0  0  0  0  0  0  0  0  0  0  0  0
   -4.4854   -1.3096    1.3367 C   0  0  1  0  0  0  0  0  0  0  0  0
   -3.5948   -2.5233    1.5512 C   0  0  0  0  0  0  0  0  0  0  0  0
   -2.6421   -2.7336    0.4326 C   0  0  0  0  0  0  0  0  0  0  0  0
   -2.5411   -2.0195   -0.5722 O   0  0  0  0  0  0  0  0  0  0  0  0
   -1.7291   -3.8458    0.4625 N   0  0  0  0  0  0  0  0  0  0  0  0
   -0.7590   -4.0813   -0.6164 C   0  0  0  0  0  0  0  0  0  0  0  0
   -0.0362   -5.3499   -0.1979 C   0  0  0  0  0  0  0  0  0  0  0  0
    1.0318   -5.8135   -1.1199 C   0  0  0  0  0  0  0  0  0  0  0  0
    2.2185   -4.9438   -1.2977 C   0  0  0  0  0  0  0  0  0  0  0  0
    2.9994   -4.6793    0.0053 C   0  0  2  0  0  0  0  0  0  0  0  0
    4.1830   -3.8769   -0.3358 N   0  0  0  0  0  0  0  0  0  0  0  0
    4.1628   -2.4304   -0.2580 C   0  0  0  0  0  0  0  0  0  0  0  0
    3.0448   -1.9924    0.0734 O   0  0  0  0  0  0  0  0  0  0  0  0
    5.3537   -1.6023   -0.5570 C   0  0  1  0  0  0  0  0  0  0  0  0
    5.0226   -0.1826   -0.6422 N   0  0  0  0  0  0  0  0  0  0  0  0
    4.3261    0.5531    0.3480 C   0  0  0  0  0  0  0  0  0  0  0  0
    3.9788   -0.0543    1.3604 O   0  0  0  0  0  0  0  0  0  0  0  0
    4.0080    2.0258    0.1872 C   0  0  1  0  0  0  0  0  0  0  0  0
    3.0882    2.2190    1.3272 N   0  0  0  0  0  0  0  0  0  0  0  0
    1.7417    2.5137    1.0194 C   0  0  0  0  0  0  0  0  0  0  0  0
    1.4534    2.6546   -0.1717 O   0  0  0  0  0  0  0  0  0  0  0  0
    0.6543    2.6620    2.0597 C   0  0  2  0  0  0  0  0  0  0  0  0
   -0.6054    2.9173    1.3708 N   0  0  0  0  0  0  0  0  0  0  0  0
   -1.2981    1.7999    0.7454 C   0  0  0  0  0  0  0  0  0  0  0  0
   -0.6821    0.7248    0.8763 O   0  0  0  0  0  0  0  0  0  0  0  0
   -2.5394    1.8692    0.0434 C   0  0  1  0  0  0  0  0  0  0  0  0
   -3.5422    0.8413    0.2762 N   0  0  0  0  0  0  0  0  0  0  0  0
   -3.5341   -0.1725    1.2337 C   0  0  0  0  0  0  0  0  0  0  0  0
   -2.6408   -0.1099    2.0962 O   0  0  0  0  0  0  0  0  0  0  0  0
   -4.5731    1.2107   -0.6540 C   0  0  0  0  0  0  0  0  0  0  0  0
   -4.6013    2.7289   -0.6691 C   0  0  2  0  0  0  0  0  0  0  0  0
   -3.3611    3.1270    0.1275 C   0  0  0  0  0  0  0  0  0  0  0  0
   -5.7657    3.2265    0.0261 N   0  0  0  0  0  0  0  0  0  0  0  0
   -6.1853    4.4357   -0.0171 C   0  0  0  0  0  0  0  0  0  0  0  0
   -7.3614    4.8143    0.7204 N   0  0  0  0  0  0  0  0  0  0  0  0
   -5.5313    5.4648   -0.7815 N   0  0  0  0  0  0  0  0  0  0  0  0
    0.9786    3.5542    3.1758 C   0  0  0  0  0  0  0  0  0  0  0  0
    1.2763    4.9383    2.7808 C   0  0  0  0  0  0  0  0  0  0  0  0
    2.5414    5.4047    2.4768 C   0  0  0  0  0  0  0  0  0  0  0  0
    2.7664    6.7120    2.1114 C   0  0  0  0  0  0  0  0  0  0  0  0
    1.7215    7.6275    2.0317 C   0  0  0  0  0  0  0  0  0  0  0  0
    0.4421    7.1657    2.3367 C   0  0  0  0  0  0  0  0  0  0  0  0
    0.2462    5.8518    2.6995 C   0  0  0  0  0  0  0  0  0  0  0  0
    5.1851    2.9090    0.3824 C   0  0  0  0  0  0  0  0  0  0  0  0
    6.3398    2.6956   -0.5306 C   0  0  0  0  0  0  0  0  0  0  0  0
    7.4858    3.6823   -0.2582 C   0  0  0  0  0  0  0  0  0  0  0  0
    7.0637    5.0560   -0.4409 N   0  0  0  0  0  0  0  0  0  0  0  0
    6.7459    5.4348   -1.6406 C   0  0  0  0  0  0  0  0  0  0  0  0
    6.3250    6.7870   -1.8504 N   0  0  0  0  0  0  0  0  0  0  0  0
    6.8028    4.5502   -2.7574 N   0  0  0  0  0  0  0  0  0  0  0  0
    6.4982   -1.8049    0.3764 C   0  0  0  0  0  0  0  0  0  0  0  0
    7.0798   -3.1458    0.4591 C   0  0  0  0  0  0  0  0  0  0  0  0
    6.9184   -3.9926    1.5359 C   0  0  0  0  0  0  0  0  0  0  0  0
    7.6285   -5.1282    1.2711 N   0  0  0  0  0  0  0  0  0  0  0  0
    8.2203   -5.0022    0.0626 C   0  0  0  0  0  0  0  0  0  0  0  0
    7.8977   -3.7734   -0.4735 C   0  0  0  0  0  0  0  0  0  0  0  0
    8.3882   -3.4121   -1.7092 C   0  0  0  0  0  0  0  0  0  0  0  0
    9.2099   -4.3151   -2.3925 C   0  0  0  0  0  0  0  0  0  0  0  0
    9.5158   -5.5538   -1.8171 C   0  0  0  0  0  0  0  0  0  0  0  0
    9.0257   -5.9196   -0.5779 C   0  0  0  0  0  0  0  0  0  0  0  0
    3.3202   -5.9295    0.6927 C   0  0  0  0  0  0  0  0  0  0  0  0
    2.4860   -6.7657    1.1299 O   0  0  0  0  0  0  0  0  0  0  0  0
    4.6983   -6.2848    0.9135 N   0  0  0  0  0  0  0  0  0  0  0  0
   -9.1042   -1.7579    0.0788 N   0  0  0  0  0  0  0  0  0  0  0  0
   -9.6943   -0.6094    0.6542 C   0  0  0  0  0  0  0  0  0  0  0  0
   -9.1911    0.5316    0.6512 O   0  0  0  0  0  0  0  0  0  0  0  0
  -11.0262   -0.7491    1.3243 C   0  0  0  0  0  0  0  0  0  0  0  0
   -9.8290   -2.6028   -2.3078 H   0  0  0  0  0  0  0  0  0  0  0  0
  -11.2135   -1.6436   -1.5421 H   0  0  0  0  0  0  0  0  0  0  0  0
  -11.3199   -2.1213   -3.2358 H   0  0  0  0  0  0  0  0  0  0  0  0
  -10.3013   -0.2282   -3.8669 H   0  0  0  0  0  0  0  0  0  0  0  0
  -10.2601    0.2888   -2.1842 H   0  0  0  0  0  0  0  0  0  0  0  0
   -8.0745    0.3610   -3.4146 H   0  0  0  0  0  0  0  0  0  0  0  0
   -8.0597   -1.4500   -3.5453 H   0  0  0  0  0  0  0  0  0  0  0  0
   -6.5277   -0.6539   -1.9197 H   0  0  0  0  0  0  0  0  0  0  0  0
   -7.7625    0.3828   -1.1385 H   0  0  0  0  0  0  0  0  0  0  0  0
   -7.6233   -2.7091   -1.0229 H   0  0  0  0  0  0  0  0  0  0  0  0
   -5.0292   -1.4728   -0.7441 H   0  0  0  0  0  0  0  0  0  0  0  0
   -5.0306   -1.1989    2.3159 H   0  0  0  0  0  0  0  0  0  0  0  0
   -2.9984   -2.3995    2.4756 H   0  0  0  0  0  0  0  0  0  0  0  0
   -4.2304   -3.4396    1.6730 H   0  0  0  0  0  0  0  0  0  0  0  0
   -1.8210   -4.4416    1.2877 H   0  0  0  0  0  0  0  0  0  0  0  0
   -1.3454   -4.2502   -1.5406 H   0  0  0  0  0  0  0  0  0  0  0  0
   -0.0863   -3.2297   -0.7456 H   0  0  0  0  0  0  0  0  0  0  0  0
   -0.8341   -6.1534   -0.1869 H   0  0  0  0  0  0  0  0  0  0  0  0
    0.2652   -5.2885    0.8793 H   0  0  0  0  0  0  0  0  0  0  0  0
    1.2905   -6.8588   -0.8321 H   0  0  0  0  0  0  0  0  0  0  0  0
    0.5531   -5.9238   -2.1323 H   0  0  0  0  0  0  0  0  0  0  0  0
    1.8516   -3.9699   -1.7125 H   0  0  0  0  0  0  0  0  0  0  0  0
    2.9193   -5.3319   -2.0612 H   0  0  0  0  0  0  0  0  0  0  0  0
    2.2892   -4.0893    0.6173 H   0  0  0  0  0  0  0  0  0  0  0  0
    5.0688   -4.2638   -0.6461 H   0  0  0  0  0  0  0  0  0  0  0  0
    5.6484   -1.9045   -1.6148 H   0  0  0  0  0  0  0  0  0  0  0  0
    5.2921    0.3616   -1.4726 H   0  0  0  0  0  0  0  0  0  0  0  0
    3.5148    2.1984   -0.7697 H   0  0  0  0  0  0  0  0  0  0  0  0
    3.3426    2.1608    2.2989 H   0  0  0  0  0  0  0  0  0  0  0  0
    0.5697    1.5894    2.4440 H   0  0  0  0  0  0  0  0  0  0  0  0
   -1.0780    3.8024    1.2676 H   0  0  0  0  0  0  0  0  0  0  0  0
   -2.2448    1.7853   -1.0814 H   0  0  0  0  0  0  0  0  0  0  0  0
   -5.5719    0.8911   -0.3698 H   0  0  0  0  0  0  0  0  0  0  0  0
   -4.2480    0.8719   -1.6578 H   0  0  0  0  0  0  0  0  0  0  0  0
   -4.4881    3.1343   -1.6842 H   0  0  0  0  0  0  0  0  0  0  0  0
   -3.6002    3.3959    1.1629 H   0  0  0  0  0  0  0  0  0  0  0  0
   -2.8110    3.9489   -0.4169 H   0  0  0  0  0  0  0  0  0  0  0  0
   -7.4634    5.7988    1.0458 H   0  0  0  0  0  0  0  0  0  0  0  0
   -8.1059    4.0832    0.9203 H   0  0  0  0  0  0  0  0  0  0  0  0
   -6.0564    5.8212   -1.6178 H   0  0  0  0  0  0  0  0  0  0  0  0
   -4.6066    5.8412   -0.5390 H   0  0  0  0  0  0  0  0  0  0  0  0
    0.1539    3.4850    3.9191 H   0  0  0  0  0  0  0  0  0  0  0  0
    1.8681    3.1384    3.7092 H   0  0  0  0  0  0  0  0  0  0  0  0
    3.3795    4.7249    2.5278 H   0  0  0  0  0  0  0  0  0  0  0  0
    3.7846    7.0043    1.8890 H   0  0  0  0  0  0  0  0  0  0  0  0
    1.9322    8.6353    1.7440 H   0  0  0  0  0  0  0  0  0  0  0  0
   -0.3946    7.8652    2.2811 H   0  0  0  0  0  0  0  0  0  0  0  0
   -0.7844    5.5623    2.9237 H   0  0  0  0  0  0  0  0  0  0  0  0
    5.4629    2.8622    1.4563 H   0  0  0  0  0  0  0  0  0  0  0  0
    4.8318    3.9573    0.2243 H   0  0  0  0  0  0  0  0  0  0  0  0
    6.7936    1.6997   -0.2333 H   0  0  0  0  0  0  0  0  0  0  0  0
    6.0800    2.6204   -1.5829 H   0  0  0  0  0  0  0  0  0  0  0  0
    7.8476    3.5826    0.7772 H   0  0  0  0  0  0  0  0  0  0  0  0
    8.3316    3.4159   -0.9195 H   0  0  0  0  0  0  0  0  0  0  0  0
    5.7271    7.0416   -2.6874 H   0  0  0  0  0  0  0  0  0  0  0  0
    6.6002    7.5405   -1.1828 H   0  0  0  0  0  0  0  0  0  0  0  0
    5.9533    4.2882   -3.3215 H   0  0  0  0  0  0  0  0  0  0  0  0
    7.6946    4.1050   -3.0870 H   0  0  0  0  0  0  0  0  0  0  0  0
    6.2601   -1.3936    1.4088 H   0  0  0  0  0  0  0  0  0  0  0  0
    7.3126   -1.0903    0.0310 H   0  0  0  0  0  0  0  0  0  0  0  0
    6.3450   -3.8302    2.4442 H   0  0  0  0  0  0  0  0  0  0  0  0
    7.6662   -5.9353    1.9452 H   0  0  0  0  0  0  0  0  0  0  0  0
    8.1285   -2.4495   -2.1167 H   0  0  0  0  0  0  0  0  0  0  0  0
    9.6041   -4.0489   -3.3638 H   0  0  0  0  0  0  0  0  0  0  0  0
   10.1576   -6.2416   -2.3684 H   0  0  0  0  0  0  0  0  0  0  0  0
    9.2625   -6.8747   -0.1351 H   0  0  0  0  0  0  0  0  0  0  0  0
    5.3280   -6.5933    0.1445 H   0  0  0  0  0  0  0  0  0  0  0  0
    5.0086   -6.2034    1.9219 H   0  0  0  0  0  0  0  0  0  0  0  0
   -9.6374   -2.6738    0.1583 H   0  0  0  0  0  0  0  0  0  0  0  0
  -11.1770   -1.8008    1.6053 H   0  0  0  0  0  0  0  0  0  0  0  0
  -10.9943   -0.1098    2.2293 H   0  0  0  0  0  0  0  0  0  0  0  0
  -11.8289   -0.3672    0.6802 H   0  0  0  0  0  0  0  0  0  0  0  0
  1  2  1  0
  2  3  1  0
  3  4  1  0
  4  5  1  0
  5  6  1  0
  6  7  2  0
  6  8  1  0
  8  9  1  0
  9 10  1  0
 10 11  1  0
 11 12  2  0
 11 13  1  0
 13 14  1  0
 14 15  1  0
 15 16  1  0
 16 17  1  0
 17 18  1  0
 18 19  1  0
 19 20  1  0
 20 21  2  0
 20 22  1  0
 22 23  1  0
 23 24  1  0
 24 25  2  0
 24 26  1  0
 26 27  1  0
 27 28  1  0
 28 29  2  0
 28 30  1  0
 30 31  1  0
 31 32  1  0
 32 33  2  0
 32 34  1  0
 34 35  1  0
 35 36  1  0
 36 37  2  0
 35 38  1  0
 38 39  1  0
 39 40  1  0
 39 41  1  0
 41 42  2  3
 42 43  1  0
 42 44  1  0
 30 45  1  0
 45 46  1  0
 46 47  2  0
 47 48  1  0
 48 49  2  0
 49 50  1  0
 50 51  2  0
 26 52  1  0
 52 53  1  0
 53 54  1  0
 54 55  1  0
 55 56  2  3
 56 57  1  0
 56 58  1  0
 22 59  1  0
 59 60  1  0
 60 61  2  0
 61 62  1  0
 62 63  1  0
 63 64  2  0
 64 65  1  0
 65 66  2  0
 66 67  1  0
 67 68  2  0
 18 69  1  0
 69 70  2  0
 69 71  1  0
  5 72  1  0
 72 73  1  0
 73 74  2  0
 73 75  1  0
 36  9  1  0
 51 46  1  0
 64 60  1  0
 40 34  1  0
 68 63  1  0
  1 76  1  0
  1 77  1  0
  1 78  1  0
  2 79  1  0
  2 80  1  0
  3 81  1  0
  3 82  1  0
  4 83  1  0
  4 84  1  0
  5 85  1  6
  8 86  1  0
  9 87  1  1
 10 88  1  0
 10 89  1  0
 13 90  1  0
 14 91  1  0
 14 92  1  0
 15 93  1  0
 15 94  1  0
 16 95  1  0
 16 96  1  0
 17 97  1  0
 17 98  1  0
 18 99  1  1
 19100  1  0
 22101  1  6
 23102  1  0
 26103  1  6
 27104  1  0
 30105  1  1
 31106  1  0
 34107  1  6
 38108  1  0
 38109  1  0
 39110  1  6
 40111  1  0
 40112  1  0
 43113  1  0
 43114  1  0
 44115  1  0
 44116  1  0
 45117  1  0
 45118  1  0
 47119  1  0
 48120  1  0
 49121  1  0
 50122  1  0
 51123  1  0
 52124  1  0
 52125  1  0
 53126  1  0
 53127  1  0
 54128  1  0
 54129  1  0
 57130  1  0
 57131  1  0
 58132  1  0
 58133  1  0
 59134  1  0
 59135  1  0
 61136  1  0
 62137  1  0
 65138  1  0
 66139  1  0
 67140  1  0
 68141  1  0
 71142  1  0
 71143  1  0
 72144  1  0
 75145  1  0
 75146  1  0
 75147  1  0
M  END
>  <Ligand ID>  (1) 
LIG0001776

>  <Ligand>  (1) 
CHEMBL524861

>  <SMILES>  (1) 
CCCC[C@@H](C(=O)N[C@H]1CC(=O)NCCCC[C@H](NC(=O)[C@@H](NC(=O)[C@@H](NC(=O)[C@H](NC(=O)[C@H]2N(C1=O)C[C@H](C2)N=C(N)N)Cc1ccccc1)CCCN=C(N)N)Cc1c[nH]c2c1cccc2)C(=O)N)NC(=O)C

>  <CID>  (1) 
44158169.0

>  <ChEMBL ID>  (1) 
nan

>  <InChiKey>  (1) 
UMHVNRYGRKBTCG-KARZDNGNSA-N

>  <InChi>  (1) 
InChI=1S/C50H72N16O9/c1-3-4-16-35(59-28(2)67)43(70)65-39-25-41(68)56-20-11-10-18-34(42(51)69)61-46(73)38(23-30-26-58-33-17-9-8-15-32(30)33)63-44(71)36(19-12-21-57-49(52)53)62-45(72)37(22-29-13-6-5-7-14-29)64-47(74)40-24-31(60-50(54)55)27-66(40)48(39)75/h5-9,13-15,17,26,31,34-40,58H,3-4,10-12,16,18-25,27H2,1-2H3,(H2,51,69)(H,56,68)(H,59,67)(H,61,73)(H,62,72)(H,63,71)(H,64,74)(H,65,70)(H4,52,53,57)(H4,54,55,60)/t31-,34-,35-,36-,37+,38-,39-,40-/m0/s1

>  <IUPAC Name>  (1) 
(3S,11S,14S,17S,20R,23S,25S)-3-[[(2S)-2-acetamidohexanoyl]amino]-20-benzyl-25-(diaminomethylideneamino)-17-[3-(diaminomethylideneamino)propyl]-14-(1H-indol-3-ylmethyl)-2,5,13,16,19,22-hexaoxo-1,6,12,15,18,21-hexazabicyclo[21.3.0]hexacosane-11-carboxamide

$$$$
