
     RDKit          3D

 26 25  0  0  0  0  0  0  0  0999 V2000
    3.8534    0.6044   -0.2364 C   0  0  0  0  0  0  0  0  0  0  0  0
    2.5200   -0.0694   -0.1391 C   0  0  0  0  0  0  0  0  0  0  0  0
    1.7513    0.4569    1.0536 C   0  0  0  0  0  0  0  0  0  0  0  0
    0.4012   -0.2107    1.1721 C   0  0  0  0  0  0  0  0  0  0  0  0
   -0.4684    0.0150   -0.0482 C   0  0  0  0  0  0  0  0  0  0  0  0
   -1.7615   -0.7150    0.2453 C   0  0  0  0  0  0  0  0  0  0  0  0
   -2.7530   -0.5896   -0.8851 C   0  0  0  0  0  0  0  0  0  0  0  0
   -3.1067    0.8292   -1.1500 C   0  0  0  0  0  0  0  0  0  0  0  0
   -2.8938    1.3819   -2.2797 O   0  0  0  0  0  0  0  0  0  0  0  0
   -3.6874    1.5805   -0.1384 O   0  0  0  0  0  0  0  0  0  0  0  0
   -4.3881   -1.4607   -0.2649 Br  0  0  0  0  0  0  0  0  0  0  0  0
    3.8861    1.3278   -1.0902 H   0  0  0  0  0  0  0  0  0  0  0  0
    4.6561   -0.1596   -0.3168 H   0  0  0  0  0  0  0  0  0  0  0  0
    4.0356    1.2012    0.7004 H   0  0  0  0  0  0  0  0  0  0  0  0
    2.6372   -1.1697   -0.1033 H   0  0  0  0  0  0  0  0  0  0  0  0
    1.9426    0.1849   -1.0757 H   0  0  0  0  0  0  0  0  0  0  0  0
    2.3187    0.1671    1.9614 H   0  0  0  0  0  0  0  0  0  0  0  0
    1.5436    1.5398    0.9699 H   0  0  0  0  0  0  0  0  0  0  0  0
    0.4939   -1.3019    1.3552 H   0  0  0  0  0  0  0  0  0  0  0  0
   -0.1380    0.2508    2.0239 H   0  0  0  0  0  0  0  0  0  0  0  0
   -0.6281    1.0987   -0.2002 H   0  0  0  0  0  0  0  0  0  0  0  0
    0.0138   -0.4630   -0.9501 H   0  0  0  0  0  0  0  0  0  0  0  0
   -1.5022   -1.7867    0.3175 H   0  0  0  0  0  0  0  0  0  0  0  0
   -2.1921   -0.3688    1.1847 H   0  0  0  0  0  0  0  0  0  0  0  0
   -2.4185   -1.1087   -1.7853 H   0  0  0  0  0  0  0  0  0  0  0  0
   -4.1157    2.4966   -0.3207 H   0  0  0  0  0  0  0  0  0  0  0  0
  1  2  1  0
  2  3  1  0
  3  4  1  0
  4  5  1  0
  5  6  1  0
  6  7  1  0
  7  8  1  0
  8  9  2  0
  8 10  1  0
  7 11  1  0
  1 12  1  0
  1 13  1  0
  1 14  1  0
  2 15  1  0
  2 16  1  0
  3 17  1  0
  3 18  1  0
  4 19  1  0
  4 20  1  0
  5 21  1  0
  5 22  1  0
  6 23  1  0
  6 24  1  0
  7 25  1  0
 10 26  1  0
M  END
>  <Ligand ID>  (1) 
LIG0001048

>  <Ligand>  (1) 
2-bromooctanoic acid

>  <SMILES>  (1) 
CCCCCCC(C(=O)O)Br

>  <CID>  (1) 
552003.0

>  <ChEMBL ID>  (1) 
nan

>  <InChiKey>  (1) 
GTGTXZRPJHDASG-UHFFFAOYSA-N

>  <InChi>  (1) 
InChI=1S/C8H15BrO2/c1-2-3-4-5-6-7(9)8(10)11/h7H,2-6H2,1H3,(H,10,11)

>  <IUPAC Name>  (1) 
2-bromooctanoic acid

$$$$
