
     RDKit          3D

 52 54  0  0  0  0  0  0  0  0999 V2000
   -1.7159   -3.6016   -1.2493 C   0  0  0  0  0  0  0  0  0  0  0  0
   -1.9586   -2.1974   -0.7711 C   0  0  0  0  0  0  0  0  0  0  0  0
   -0.7191   -1.5529   -0.2617 C   0  0  0  0  0  0  0  0  0  0  0  0
    0.3530   -2.1619   -0.3618 O   0  0  0  0  0  0  0  0  0  0  0  0
   -0.7095   -0.1919    0.3663 C   0  0  0  0  0  0  0  0  0  0  0  0
   -1.2507   -0.2565    1.7424 C   0  0  0  0  0  0  0  0  0  0  0  0
   -1.6630   -1.4399    2.3483 C   0  0  0  0  0  0  0  0  0  0  0  0
   -2.1500   -1.4765    3.6416 C   0  0  0  0  0  0  0  0  0  0  0  0
   -2.2520   -0.3448    4.3973 C   0  0  0  0  0  0  0  0  0  0  0  0
   -1.8511    0.8427    3.8275 C   0  0  0  0  0  0  0  0  0  0  0  0
   -1.3635    0.8822    2.5342 C   0  0  0  0  0  0  0  0  0  0  0  0
   -1.6193    0.5940   -0.5003 C   0  0  0  0  0  0  0  0  0  0  0  0
   -1.3768    0.5824   -1.8788 C   0  0  0  0  0  0  0  0  0  0  0  0
   -2.1744    1.2743   -2.7727 C   0  0  0  0  0  0  0  0  0  0  0  0
   -3.2467    2.0050   -2.3270 C   0  0  0  0  0  0  0  0  0  0  0  0
   -3.5030    2.0300   -0.9927 C   0  0  0  0  0  0  0  0  0  0  0  0
   -2.6936    1.3279   -0.0827 C   0  0  0  0  0  0  0  0  0  0  0  0
    0.6492    0.4147    0.4681 C   0  0  0  0  0  0  0  0  0  0  0  0
    1.4224    0.6581   -0.7553 C   0  0  0  0  0  0  0  0  0  0  0  0
    2.7326    1.2241   -0.4065 N   0  0  0  0  0  0  0  0  0  0  0  0
    3.4316    1.6381   -1.5986 C   0  0  0  0  0  0  0  0  0  0  0  0
    4.5110    0.6587   -1.9892 C   0  0  0  0  0  0  0  0  0  0  0  0
    5.4542    0.7618   -0.9371 O   0  0  0  0  0  0  0  0  0  0  0  0
    4.8933    0.0771    0.1142 C   0  0  0  0  0  0  0  0  0  0  0  0
    3.4922    0.3901    0.4621 C   0  0  0  0  0  0  0  0  0  0  0  0
   -1.9966   -3.6909   -2.3181 H   0  0  0  0  0  0  0  0  0  0  0  0
   -0.6864   -3.9607   -1.1000 H   0  0  0  0  0  0  0  0  0  0  0  0
   -2.4253   -4.3027   -0.7183 H   0  0  0  0  0  0  0  0  0  0  0  0
   -2.7985   -2.1814   -0.0618 H   0  0  0  0  0  0  0  0  0  0  0  0
   -2.3703   -1.6056   -1.6542 H   0  0  0  0  0  0  0  0  0  0  0  0
   -1.5976   -2.3752    1.8381 H   0  0  0  0  0  0  0  0  0  0  0  0
   -2.4626   -2.4170    4.0777 H   0  0  0  0  0  0  0  0  0  0  0  0
   -2.6329   -0.3556    5.4114 H   0  0  0  0  0  0  0  0  0  0  0  0
   -1.9381    1.7265    4.4439 H   0  0  0  0  0  0  0  0  0  0  0  0
   -1.0649    1.8687    2.1800 H   0  0  0  0  0  0  0  0  0  0  0  0
   -0.5660    0.0169   -2.3177 H   0  0  0  0  0  0  0  0  0  0  0  0
   -1.9590    1.2462   -3.8409 H   0  0  0  0  0  0  0  0  0  0  0  0
   -3.8730    2.5452   -3.0162 H   0  0  0  0  0  0  0  0  0  0  0  0
   -4.3581    2.6084   -0.6345 H   0  0  0  0  0  0  0  0  0  0  0  0
   -2.9881    1.4026    0.9309 H   0  0  0  0  0  0  0  0  0  0  0  0
    1.2110   -0.0850    1.2872 H   0  0  0  0  0  0  0  0  0  0  0  0
    0.4513    1.4443    0.9220 H   0  0  0  0  0  0  0  0  0  0  0  0
    0.9751    1.4935   -1.3781 H   0  0  0  0  0  0  0  0  0  0  0  0
    1.6087   -0.1631   -1.4388 H   0  0  0  0  0  0  0  0  0  0  0  0
    2.7165    1.8454   -2.3923 H   0  0  0  0  0  0  0  0  0  0  0  0
    3.9750    2.6108   -1.4023 H   0  0  0  0  0  0  0  0  0  0  0  0
    4.9349    0.9903   -2.9533 H   0  0  0  0  0  0  0  0  0  0  0  0
    4.0700   -0.3370   -1.9957 H   0  0  0  0  0  0  0  0  0  0  0  0
    5.0362   -1.0333   -0.0378 H   0  0  0  0  0  0  0  0  0  0  0  0
    5.5733    0.2828    0.9979 H   0  0  0  0  0  0  0  0  0  0  0  0
    3.0000   -0.6063    0.6795 H   0  0  0  0  0  0  0  0  0  0  0  0
    3.4734    0.8946    1.4741 H   0  0  0  0  0  0  0  0  0  0  0  0
  1  2  1  0
  2  3  1  0
  3  4  2  0
  3  5  1  0
  5  6  1  0
  6  7  2  0
  7  8  1  0
  8  9  2  0
  9 10  1  0
 10 11  2  0
  5 12  1  0
 12 13  2  0
 13 14  1  0
 14 15  2  0
 15 16  1  0
 16 17  2  0
  5 18  1  0
 18 19  1  0
 19 20  1  0
 20 21  1  0
 21 22  1  0
 22 23  1  0
 23 24  1  0
 24 25  1  0
 11  6  1  0
 17 12  1  0
 25 20  1  0
  1 26  1  0
  1 27  1  0
  1 28  1  0
  2 29  1  0
  2 30  1  0
  7 31  1  0
  8 32  1  0
  9 33  1  0
 10 34  1  0
 11 35  1  0
 13 36  1  0
 14 37  1  0
 15 38  1  0
 16 39  1  0
 17 40  1  0
 18 41  1  0
 18 42  1  0
 19 43  1  0
 19 44  1  0
 21 45  1  0
 21 46  1  0
 22 47  1  0
 22 48  1  0
 24 49  1  0
 24 50  1  0
 25 51  1  0
 25 52  1  0
M  END
>  <Ligand ID>  (1) 
LIG0004035

>  <Ligand>  (1) 
4,4-Diphenyl-6-morpholino-3-hexanone

>  <SMILES>  (1) 
CCC(=O)C(c1ccccc1)(c1ccccc1)CCN1CCOCC1

>  <CID>  (1) 
44686.0

>  <ChEMBL ID>  (1) 
nan

>  <InChiKey>  (1) 
SXKOCXTXIUNMEN-UHFFFAOYSA-N

>  <InChi>  (1) 
InChI=1S/C22H27NO2/c1-2-21(24)22(19-9-5-3-6-10-19,20-11-7-4-8-12-20)13-14-23-15-17-25-18-16-23/h3-12H,2,13-18H2,1H3

>  <IUPAC Name>  (1) 
6-morpholin-4-yl-4,4-diphenylhexan-3-one

$$$$
