
     RDKit          3D

 22 22  0  0  0  0  0  0  0  0999 V2000
    3.2411    1.9716   -0.7083 O   0  0  0  0  0  0  0  0  0  0  0  0
    3.8348    1.4325    0.2762 C   0  0  0  0  0  0  0  0  0  0  0  0
    3.6658    0.0928    0.6070 O   0  0  0  0  0  0  0  0  0  0  0  0
    2.8106   -0.7545   -0.1462 C   0  0  0  0  0  0  0  0  0  0  0  0
    1.4192   -0.2378   -0.1235 C   0  0  0  0  0  0  0  0  0  0  0  0
    0.4212   -0.9458    0.3614 C   0  0  0  0  0  0  0  0  0  0  0  0
   -0.9592   -0.4843    0.4062 C   0  0  0  0  0  0  0  0  0  0  0  0
   -1.3580    0.7486   -0.0586 C   0  0  0  0  0  0  0  0  0  0  0  0
   -2.6883    1.1691   -0.0050 C   0  0  0  0  0  0  0  0  0  0  0  0
   -3.6564    0.3417    0.5265 C   0  0  0  0  0  0  0  0  0  0  0  0
   -3.2545   -0.8930    0.9915 C   0  0  0  0  0  0  0  0  0  0  0  0
   -1.9392   -1.2983    0.9339 C   0  0  0  0  0  0  0  0  0  0  0  0
    4.4825    2.0907    0.8400 H   0  0  0  0  0  0  0  0  0  0  0  0
    2.8884   -1.7694    0.2645 H   0  0  0  0  0  0  0  0  0  0  0  0
    3.1495   -0.7088   -1.2192 H   0  0  0  0  0  0  0  0  0  0  0  0
    1.2429    0.7507   -0.5216 H   0  0  0  0  0  0  0  0  0  0  0  0
    0.6637   -1.9279    0.7450 H   0  0  0  0  0  0  0  0  0  0  0  0
   -0.6617    1.4329   -0.4796 H   0  0  0  0  0  0  0  0  0  0  0  0
   -2.9555    2.1515   -0.3843 H   0  0  0  0  0  0  0  0  0  0  0  0
   -4.6815    0.6829    0.5604 H   0  0  0  0  0  0  0  0  0  0  0  0
   -3.9813   -1.5694    1.4145 H   0  0  0  0  0  0  0  0  0  0  0  0
   -1.6840   -2.2758    1.3133 H   0  0  0  0  0  0  0  0  0  0  0  0
  1  2  2  0
  2  3  1  0
  3  4  1  0
  4  5  1  0
  5  6  2  0
  6  7  1  0
  7  8  2  0
  8  9  1  0
  9 10  2  0
 10 11  1  0
 11 12  2  0
 12  7  1  0
  2 13  1  0
  4 14  1  0
  4 15  1  0
  5 16  1  0
  6 17  1  0
  8 18  1  0
  9 19  1  0
 10 20  1  0
 11 21  1  0
 12 22  1  0
M  END
>  <Ligand ID>  (1) 
LIG0000774

>  <Ligand>  (1) 
Cinnamyl formate

>  <SMILES>  (1) 
O=COC/C=C/c1ccccc1

>  <CID>  (1) 
5354883.0

>  <ChEMBL ID>  (1) 
nan

>  <InChiKey>  (1) 
LBHJXKYRYCUGPD-QPJJXVBHSA-N

>  <InChi>  (1) 
InChI=1S/C10H10O2/c11-9-12-8-4-7-10-5-2-1-3-6-10/h1-7,9H,8H2/b7-4+

>  <IUPAC Name>  (1) 
[(E)-3-phenylprop-2-enyl] formate

$$$$
