
     RDKit          3D

 17 17  0  0  0  0  0  0  0  0999 V2000
    3.3973   -0.2516   -0.0892 C   0  0  0  0  0  0  0  0  0  0  0  0
    2.0775   -1.4396    0.1989 S   0  0  0  0  0  0  0  0  0  0  0  0
    0.5329   -1.0329   -1.2264 S   0  0  0  0  0  0  0  0  0  0  0  0
   -0.5655    0.1475   -0.4557 C   0  0  0  0  0  0  0  0  0  0  0  0
   -0.4706    1.5265   -0.5151 C   0  0  0  0  0  0  0  0  0  0  0  0
   -1.5393    2.0183    0.2315 C   0  0  0  0  0  0  0  0  0  0  0  0
   -2.2234    0.9973    0.7029 O   0  0  0  0  0  0  0  0  0  0  0  0
   -1.6814   -0.1326    0.3200 C   0  0  0  0  0  0  0  0  0  0  0  0
   -2.2105   -1.4718    0.6820 C   0  0  0  0  0  0  0  0  0  0  0  0
    3.6230    0.3712    0.8148 H   0  0  0  0  0  0  0  0  0  0  0  0
    4.3246   -0.8113   -0.3861 H   0  0  0  0  0  0  0  0  0  0  0  0
    3.2006    0.4548   -0.9190 H   0  0  0  0  0  0  0  0  0  0  0  0
    0.2928    2.1118   -1.0439 H   0  0  0  0  0  0  0  0  0  0  0  0
   -1.7941    3.0387    0.4139 H   0  0  0  0  0  0  0  0  0  0  0  0
   -3.0748   -1.7634    0.0452 H   0  0  0  0  0  0  0  0  0  0  0  0
   -2.4503   -1.5063    1.7661 H   0  0  0  0  0  0  0  0  0  0  0  0
   -1.4388   -2.2564    0.5153 H   0  0  0  0  0  0  0  0  0  0  0  0
  1  2  1  0
  2  3  1  0
  3  4  1  0
  4  5  1  0
  5  6  2  0
  6  7  1  0
  7  8  1  0
  8  9  1  0
  8  4  2  0
  1 10  1  0
  1 11  1  0
  1 12  1  0
  5 13  1  0
  6 14  1  0
  9 15  1  0
  9 16  1  0
  9 17  1  0
M  END
>  <Ligand ID>  (1) 
LIG0000638

>  <Ligand>  (1) 
2-Methyl-3-(methyldisulfanyl)furan

>  <SMILES>  (1) 
CSSc1ccoc1C

>  <CID>  (1) 
47649.0

>  <ChEMBL ID>  (1) 
nan

>  <InChiKey>  (1) 
SRUTWBWLFKSTIS-UHFFFAOYSA-N

>  <InChi>  (1) 
InChI=1S/C6H8OS2/c1-5-6(9-8-2)3-4-7-5/h3-4H,1-2H3

>  <IUPAC Name>  (1) 
2-methyl-3-(methyldisulfanyl)furan

$$$$
