
     RDKit          3D

 49 51  0  0  0  0  0  0  0  0999 V2000
    7.1085   -1.6308    1.9961 O   0  0  0  0  0  0  0  0  0  0  0  0
    7.5577   -0.7971    0.9823 C   0  0  0  0  0  0  0  0  0  0  0  0
    8.0126    0.3640    1.2745 O   0  0  0  0  0  0  0  0  0  0  0  0
    7.5509   -1.1485   -0.4464 C   0  0  0  0  0  0  0  0  0  0  0  0
    6.8356   -0.0735   -1.2323 C   0  0  0  0  0  0  0  0  0  0  0  0
    5.4234    0.0994   -0.8411 C   0  0  0  0  0  0  0  0  0  0  0  0
    4.4507   -0.6342   -1.4849 C   0  0  0  0  0  0  0  0  0  0  0  0
    3.0950   -0.5185   -1.1538 C   0  0  0  0  0  0  0  0  0  0  0  0
    2.6794    0.3498   -0.1532 C   0  0  0  0  0  0  0  0  0  0  0  0
    3.6512    1.0876    0.4956 C   0  0  0  0  0  0  0  0  0  0  0  0
    4.9928    0.9590    0.1516 C   0  0  0  0  0  0  0  0  0  0  0  0
    3.2874    2.0308    1.5912 C   0  0  0  0  0  0  0  0  0  0  0  0
    1.2761    0.5108    0.2024 C   0  0  0  0  0  0  0  0  0  0  0  0
    0.7895    1.3092    1.1693 N   0  0  0  0  0  0  0  0  0  0  0  0
   -0.4879    1.2137    1.1846 O   0  0  0  0  0  0  0  0  0  0  0  0
   -0.8650    0.3656    0.2465 C   0  0  0  0  0  0  0  0  0  0  0  0
    0.2216   -0.1001   -0.3942 N   0  0  0  0  0  0  0  0  0  0  0  0
   -2.2762    0.0435    0.0110 C   0  0  0  0  0  0  0  0  0  0  0  0
   -3.2406    0.6498    0.7733 C   0  0  0  0  0  0  0  0  0  0  0  0
   -4.5908    0.4113    0.5933 C   0  0  0  0  0  0  0  0  0  0  0  0
   -5.0228   -0.4677   -0.3856 C   0  0  0  0  0  0  0  0  0  0  0  0
   -4.0563   -1.0806   -1.1556 C   0  0  0  0  0  0  0  0  0  0  0  0
   -2.6915   -0.8330   -0.9652 C   0  0  0  0  0  0  0  0  0  0  0  0
   -4.5190   -2.2097   -2.4131 Cl  0  0  0  0  0  0  0  0  0  0  0  0
   -6.3318   -0.7640   -0.6384 O   0  0  0  0  0  0  0  0  0  0  0  0
   -7.4683   -0.2635   -0.0060 C   0  0  0  0  0  0  0  0  0  0  0  0
   -8.3869    0.4444   -1.0043 C   0  0  0  0  0  0  0  0  0  0  0  0
   -8.2626   -1.4287    0.5407 C   0  0  0  0  0  0  0  0  0  0  0  0
    7.5855   -1.5869    2.9099 H   0  0  0  0  0  0  0  0  0  0  0  0
    8.6337   -1.0827   -0.7712 H   0  0  0  0  0  0  0  0  0  0  0  0
    7.2234   -2.1639   -0.6811 H   0  0  0  0  0  0  0  0  0  0  0  0
    7.3496    0.8995   -0.9718 H   0  0  0  0  0  0  0  0  0  0  0  0
    6.9170   -0.1809   -2.3092 H   0  0  0  0  0  0  0  0  0  0  0  0
    4.6859   -1.3168   -2.2600 H   0  0  0  0  0  0  0  0  0  0  0  0
    2.3337   -1.0939   -1.6612 H   0  0  0  0  0  0  0  0  0  0  0  0
    5.6875    1.5635    0.6925 H   0  0  0  0  0  0  0  0  0  0  0  0
    2.6343    2.8174    1.2118 H   0  0  0  0  0  0  0  0  0  0  0  0
    2.7709    1.5013    2.4205 H   0  0  0  0  0  0  0  0  0  0  0  0
    4.2100    2.4548    2.0395 H   0  0  0  0  0  0  0  0  0  0  0  0
   -2.9727    1.3479    1.5575 H   0  0  0  0  0  0  0  0  0  0  0  0
   -5.3360    0.9094    1.2187 H   0  0  0  0  0  0  0  0  0  0  0  0
   -1.9385   -1.3247   -1.5772 H   0  0  0  0  0  0  0  0  0  0  0  0
   -7.2741    0.4421    0.8239 H   0  0  0  0  0  0  0  0  0  0  0  0
   -8.9318    1.2558   -0.4578 H   0  0  0  0  0  0  0  0  0  0  0  0
   -7.8130    0.8937   -1.8482 H   0  0  0  0  0  0  0  0  0  0  0  0
   -9.1559   -0.2722   -1.3712 H   0  0  0  0  0  0  0  0  0  0  0  0
   -9.1771   -1.0975    1.0697 H   0  0  0  0  0  0  0  0  0  0  0  0
   -7.6239   -1.9510    1.3017 H   0  0  0  0  0  0  0  0  0  0  0  0
   -8.5415   -2.1282   -0.2750 H   0  0  0  0  0  0  0  0  0  0  0  0
  1  2  1  0
  2  3  2  0
  2  4  1  0
  4  5  1  0
  5  6  1  0
  6  7  2  0
  7  8  1  0
  8  9  2  0
  9 10  1  0
 10 11  2  0
 10 12  1  0
  9 13  1  0
 13 14  2  0
 14 15  1  0
 15 16  1  0
 16 17  2  0
 16 18  1  0
 18 19  2  0
 19 20  1  0
 20 21  2  0
 21 22  1  0
 22 23  2  0
 22 24  1  0
 21 25  1  0
 25 26  1  0
 26 27  1  0
 26 28  1  0
 11  6  1  0
 17 13  1  0
 23 18  1  0
  1 29  1  0
  4 30  1  0
  4 31  1  0
  5 32  1  0
  5 33  1  0
  7 34  1  0
  8 35  1  0
 11 36  1  0
 12 37  1  0
 12 38  1  0
 12 39  1  0
 19 40  1  0
 20 41  1  0
 23 42  1  0
 26 43  1  0
 27 44  1  0
 27 45  1  0
 27 46  1  0
 28 47  1  0
 28 48  1  0
 28 49  1  0
M  END
>  <Ligand ID>  (1) 
LIG0001683

>  <Ligand>  (1) 
CHEMBL206940

>  <SMILES>  (1) 
OC(=O)CCc1ccc(c(c1)C)c1noc(n1)c1ccc(c(c1)Cl)OC(C)C

>  <CID>  (1) 
11603726.0

>  <ChEMBL ID>  (1) 
nan

>  <InChiKey>  (1) 
AOXVYFLXNZEUPI-UHFFFAOYSA-N

>  <InChi>  (1) 
InChI=1S/C21H21ClN2O4/c1-12(2)27-18-8-6-15(11-17(18)22)21-23-20(24-28-21)16-7-4-14(10-13(16)3)5-9-19(25)26/h4,6-8,10-12H,5,9H2,1-3H3,(H,25,26)

>  <IUPAC Name>  (1) 
3-[4-[5-(3-chloro-4-propan-2-yloxyphenyl)-1,2,4-oxadiazol-3-yl]-3-methylphenyl]propanoic acid

$$$$
