
     RDKit          3D

 50 53  0  0  0  0  0  0  0  0999 V2000
   -4.7906    2.4553   -2.1212 C   0  0  0  0  0  0  0  0  0  0  0  0
   -5.6434    1.5230   -1.4843 O   0  0  0  0  0  0  0  0  0  0  0  0
   -5.0515    0.5868   -0.6601 C   0  0  0  0  0  0  0  0  0  0  0  0
   -3.6850    0.5924   -0.4906 C   0  0  0  0  0  0  0  0  0  0  0  0
   -3.0319   -0.3331    0.3327 C   0  0  0  0  0  0  0  0  0  0  0  0
   -1.5812   -0.3002    0.4913 C   0  0  0  0  0  0  0  0  0  0  0  0
   -0.8842   -1.1158    1.2322 C   0  0  0  0  0  0  0  0  0  0  0  0
    0.5466   -1.1190    1.4172 C   0  0  0  0  0  0  0  0  0  0  0  0
    1.0379   -2.0144    2.1957 O   0  0  0  0  0  0  0  0  0  0  0  0
    1.4567   -0.2196    0.8142 N   0  0  0  0  0  0  0  0  0  0  0  0
    1.2180    0.7705   -0.0079 N   0  0  0  0  0  0  0  0  0  0  0  0
    2.3139    1.4218   -0.3887 C   0  0  0  0  0  0  0  0  0  0  0  0
    3.3651    0.7989    0.2435 C   0  0  0  0  0  0  0  0  0  0  0  0
    2.8121   -0.2194    0.9871 C   0  0  0  0  0  0  0  0  0  0  0  0
    3.8960   -0.9536    1.7126 C   0  0  0  0  0  0  0  0  0  0  0  0
    5.1680   -0.3029    1.2759 C   0  0  2  0  0  0  0  0  0  0  0  0
    4.8407    0.8381    0.4004 C   0  0  1  0  0  0  0  0  0  0  0  0
    5.5567   -0.3222   -0.1771 C   0  0  0  0  0  0  0  0  0  0  0  0
    7.0060   -0.0845   -0.5356 C   0  0  0  0  0  0  0  0  0  0  0  0
    4.7823   -1.3008   -1.0361 C   0  0  0  0  0  0  0  0  0  0  0  0
    2.3938    2.5724   -1.2985 C   0  0  0  0  0  0  0  0  0  0  0  0
   -3.8469   -1.2479    0.9605 C   0  0  0  0  0  0  0  0  0  0  0  0
   -5.2282   -1.2634    0.7969 C   0  0  0  0  0  0  0  0  0  0  0  0
   -5.8459   -0.3403   -0.0199 C   0  0  0  0  0  0  0  0  0  0  0  0
   -7.2184   -0.3001   -0.2269 O   0  0  0  0  0  0  0  0  0  0  0  0
   -8.1239   -1.1829    0.3639 C   0  0  0  0  0  0  0  0  0  0  0  0
   -4.2045    2.9819   -1.3268 H   0  0  0  0  0  0  0  0  0  0  0  0
   -4.1274    1.9962   -2.8863 H   0  0  0  0  0  0  0  0  0  0  0  0
   -5.4021    3.2247   -2.6408 H   0  0  0  0  0  0  0  0  0  0  0  0
   -3.0663    1.3215   -0.9949 H   0  0  0  0  0  0  0  0  0  0  0  0
   -1.0572    0.4662   -0.0547 H   0  0  0  0  0  0  0  0  0  0  0  0
   -1.4623   -1.8842    1.7729 H   0  0  0  0  0  0  0  0  0  0  0  0
    3.7809   -0.8481    2.7989 H   0  0  0  0  0  0  0  0  0  0  0  0
    3.8711   -2.0352    1.4861 H   0  0  0  0  0  0  0  0  0  0  0  0
    5.9708   -0.2219    2.0460 H   0  0  0  0  0  0  0  0  0  0  0  0
    5.3283    1.8033    0.6057 H   0  0  0  0  0  0  0  0  0  0  0  0
    7.5591    0.0776    0.4246 H   0  0  0  0  0  0  0  0  0  0  0  0
    7.4407   -0.9404   -1.1212 H   0  0  0  0  0  0  0  0  0  0  0  0
    7.0484    0.8689   -1.1198 H   0  0  0  0  0  0  0  0  0  0  0  0
    4.5688   -2.2328   -0.4655 H   0  0  0  0  0  0  0  0  0  0  0  0
    3.8027   -0.8393   -1.3056 H   0  0  0  0  0  0  0  0  0  0  0  0
    5.3795   -1.5892   -1.9303 H   0  0  0  0  0  0  0  0  0  0  0  0
    2.6540    3.4567   -0.6641 H   0  0  0  0  0  0  0  0  0  0  0  0
    3.2772    2.4236   -1.9795 H   0  0  0  0  0  0  0  0  0  0  0  0
    1.4905    2.7130   -1.9002 H   0  0  0  0  0  0  0  0  0  0  0  0
   -3.4468   -2.0016    1.6142 H   0  0  0  0  0  0  0  0  0  0  0  0
   -5.8335   -2.0041    1.3122 H   0  0  0  0  0  0  0  0  0  0  0  0
   -7.6525   -2.1860    0.4050 H   0  0  0  0  0  0  0  0  0  0  0  0
   -8.3401   -0.8415    1.4085 H   0  0  0  0  0  0  0  0  0  0  0  0
   -9.0424   -1.1757   -0.2619 H   0  0  0  0  0  0  0  0  0  0  0  0
  1  2  1  0
  2  3  1  0
  3  4  2  0
  4  5  1  0
  5  6  1  0
  6  7  2  0
  7  8  1  0
  8  9  2  0
  8 10  1  0
 10 11  1  0
 11 12  2  0
 12 13  1  0
 13 14  2  0
 14 15  1  0
 15 16  1  0
 16 17  1  0
 17 18  1  0
 18 19  1  0
 18 20  1  0
 12 21  1  0
  5 22  2  0
 22 23  1  0
 23 24  2  0
 24 25  1  0
 25 26  1  0
 24  3  1  0
 14 10  1  0
 18 16  1  0
 17 13  1  0
  1 27  1  0
  1 28  1  0
  1 29  1  0
  4 30  1  0
  6 31  1  0
  7 32  1  0
 15 33  1  0
 15 34  1  0
 16 35  1  1
 17 36  1  1
 19 37  1  0
 19 38  1  0
 19 39  1  0
 20 40  1  0
 20 41  1  0
 20 42  1  0
 21 43  1  0
 21 44  1  0
 21 45  1  0
 22 46  1  0
 23 47  1  0
 26 48  1  0
 26 49  1  0
 26 50  1  0
M  END
>  <Ligand ID>  (1) 
LIG0003964

>  <Ligand>  (1) 
CHEMBL600762

>  <SMILES>  (1) 
COc1cc(/C=C/C(=O)n2nc(c3c2C[C@@H]2[C@H]3C2(C)C)C)ccc1OC

>  <CID>  (1) 
46224712.0

>  <ChEMBL ID>  (1) 
nan

>  <InChiKey>  (1) 
VUKYWEMGKPJSJA-IVYBTYKASA-N

>  <InChi>  (1) 
InChI=1S/C21H24N2O3/c1-12-19-15(11-14-20(19)21(14,2)3)23(22-12)18(24)9-7-13-6-8-16(25-4)17(10-13)26-5/h6-10,14,20H,11H2,1-5H3/b9-7+/t14-,20-/m1/s1

>  <IUPAC Name>  (1) 
(E)-3-(3,4-dimethoxyphenyl)-1-[(2S,4R)-3,3,9-trimethyl-7,8-diazatricyclo[4.3.0.02,4]nona-1(6),8-dien-7-yl]prop-2-en-1-one

$$$$
