
     RDKit          3D

 57 62  0  0  0  0  0  0  0  0999 V2000
    3.4428    1.4473   -1.6470 C   0  0  0  0  0  0  0  0  0  0  0  0
    3.0091    1.2888   -0.3653 O   0  0  0  0  0  0  0  0  0  0  0  0
    1.7855    0.6724   -0.1916 C   0  0  2  0  0  0  0  0  0  0  0  0
    1.4643    0.7157    1.2961 C   0  0  0  0  0  0  0  0  0  0  0  0
    0.2541   -0.1281    1.6321 C   0  0  0  0  0  0  0  0  0  0  0  0
    0.4830   -1.1578    2.5095 O   0  0  0  0  0  0  0  0  0  0  0  0
   -0.3498   -0.6023    0.3470 C   0  0  2  0  0  0  0  0  0  0  0  0
    0.6125   -1.4960   -0.3335 C   0  0  0  0  0  0  0  0  0  0  0  0
    1.9378   -0.7933   -0.6053 C   0  0  2  0  0  0  0  0  0  0  0  0
    3.0648   -1.4342    0.1399 C   0  0  2  0  0  0  0  0  0  0  0  0
    4.2621   -0.8128   -0.0927 O   0  0  0  0  0  0  0  0  0  0  0  0
    3.1944   -2.9054   -0.2110 C   0  0  0  0  0  0  0  0  0  0  0  0
   -0.6082    0.5602   -0.5864 C   0  0  2  0  0  0  0  0  0  0  0  0
    0.6799    1.2623   -0.9602 C   0  0  1  0  0  0  0  0  0  0  0  0
    0.3351    2.6062   -0.7215 O   0  0  0  0  0  0  0  0  0  0  0  0
   -0.7468    2.7442    0.1317 C   0  0  0  0  0  0  0  0  0  0  0  0
   -1.3128    1.5343    0.2724 C   0  0  0  0  0  0  0  0  0  0  0  0
   -2.3902    1.1761    1.0215 C   0  0  0  0  0  0  0  0  0  0  0  0
   -2.7528   -0.2571    1.0718 C   0  0  0  0  0  0  0  0  0  0  0  0
   -1.6948   -1.2117    0.6029 C   0  0  1  0  0  0  0  0  0  0  0  0
   -2.0777   -1.8389   -0.6648 N   0  0  0  0  0  0  0  0  0  0  0  0
   -2.4248   -0.8387   -1.6097 C   0  0  0  0  0  0  0  0  0  0  0  0
   -1.4299    0.2363   -1.7633 C   0  0  0  0  0  0  0  0  0  0  0  0
   -3.0558   -2.8678   -0.4951 C   0  0  0  0  0  0  0  0  0  0  0  0
   -2.9986    2.1859    1.7332 C   0  0  0  0  0  0  0  0  0  0  0  0
   -2.4785    3.4846    1.6436 C   0  0  0  0  0  0  0  0  0  0  0  0
   -1.3594    3.7776    0.8522 C   0  0  0  0  0  0  0  0  0  0  0  0
   -0.8367    5.0562    0.7574 O   0  0  0  0  0  0  0  0  0  0  0  0
    4.4546    1.9480   -1.5724 H   0  0  0  0  0  0  0  0  0  0  0  0
    3.5791    0.5566   -2.2651 H   0  0  0  0  0  0  0  0  0  0  0  0
    2.8467    2.2328   -2.2084 H   0  0  0  0  0  0  0  0  0  0  0  0
    1.3180    1.7960    1.5070 H   0  0  0  0  0  0  0  0  0  0  0  0
    2.3401    0.4273    1.9226 H   0  0  0  0  0  0  0  0  0  0  0  0
   -0.4115    0.5746    2.2173 H   0  0  0  0  0  0  0  0  0  0  0  0
    0.2848   -2.0558    2.2188 H   0  0  0  0  0  0  0  0  0  0  0  0
    0.7606   -2.4150    0.2673 H   0  0  0  0  0  0  0  0  0  0  0  0
    0.1847   -1.7491   -1.3281 H   0  0  0  0  0  0  0  0  0  0  0  0
    2.1914   -0.7859   -1.6805 H   0  0  0  0  0  0  0  0  0  0  0  0
    2.8285   -1.4275    1.2349 H   0  0  0  0  0  0  0  0  0  0  0  0
    4.7366   -1.2723   -0.8351 H   0  0  0  0  0  0  0  0  0  0  0  0
    2.5707   -3.5661    0.4091 H   0  0  0  0  0  0  0  0  0  0  0  0
    4.2505   -3.2074   -0.0426 H   0  0  0  0  0  0  0  0  0  0  0  0
    2.9413   -2.9943   -1.2851 H   0  0  0  0  0  0  0  0  0  0  0  0
    0.7956    1.1663   -2.0667 H   0  0  0  0  0  0  0  0  0  0  0  0
   -3.6962   -0.4521    0.5517 H   0  0  0  0  0  0  0  0  0  0  0  0
   -2.9632   -0.5654    2.1514 H   0  0  0  0  0  0  0  0  0  0  0  0
   -1.5636   -2.0538    1.3070 H   0  0  0  0  0  0  0  0  0  0  0  0
   -2.5094   -1.3913   -2.6091 H   0  0  0  0  0  0  0  0  0  0  0  0
   -3.4509   -0.4427   -1.4144 H   0  0  0  0  0  0  0  0  0  0  0  0
   -2.0209    1.1785   -2.0171 H   0  0  0  0  0  0  0  0  0  0  0  0
   -0.8300    0.0793   -2.6977 H   0  0  0  0  0  0  0  0  0  0  0  0
   -3.0755   -3.4972   -1.3938 H   0  0  0  0  0  0  0  0  0  0  0  0
   -2.7494   -3.5064    0.3555 H   0  0  0  0  0  0  0  0  0  0  0  0
   -4.0389   -2.4302   -0.2890 H   0  0  0  0  0  0  0  0  0  0  0  0
   -3.8569    1.9463    2.3383 H   0  0  0  0  0  0  0  0  0  0  0  0
   -2.9645    4.2944    2.2114 H   0  0  0  0  0  0  0  0  0  0  0  0
    0.0389    5.2085    1.2491 H   0  0  0  0  0  0  0  0  0  0  0  0
  1  2  1  0
  3  2  1  1
  3  4  1  0
  4  5  1  0
  5  6  1  0
  7  5  1  1
  7  8  1  0
  8  9  1  0
  9 10  1  0
 10 11  1  0
 10 12  1  0
  7 13  1  0
 13 14  1  0
 14 15  1  0
 15 16  1  0
 16 17  2  0
 17 18  1  0
 18 19  1  0
 19 20  1  0
 20 21  1  0
 21 22  1  0
 22 23  1  0
 21 24  1  0
 18 25  2  0
 25 26  1  0
 26 27  2  0
 27 28  1  0
  9  3  1  0
 13 23  1  6
 14  3  1  0
 27 16  1  0
 20  7  1  0
 17 13  1  0
  1 29  1  0
  1 30  1  0
  1 31  1  0
  4 32  1  0
  4 33  1  0
  5 34  1  0
  6 35  1  0
  8 36  1  0
  8 37  1  0
  9 38  1  6
 10 39  1  1
 11 40  1  0
 12 41  1  0
 12 42  1  0
 12 43  1  0
 14 44  1  6
 19 45  1  0
 19 46  1  0
 20 47  1  1
 22 48  1  0
 22 49  1  0
 23 50  1  0
 23 51  1  0
 24 52  1  0
 24 53  1  0
 24 54  1  0
 25 55  1  0
 26 56  1  0
 28 57  1  0
M  END
>  <Ligand ID>  (1) 
LIG0002195

>  <Ligand>  (1) 
CHEMBL235239

>  <SMILES>  (1) 
CO[C@]12CC(O)[C@]3(C[C@@H]1[C@H](O)C)[C@@]14[C@H]2Oc2c4c(C[C@H]3N(CC1)C)ccc2O

>  <CID>  (1) 
44433402.0

>  <ChEMBL ID>  (1) 
nan

>  <InChiKey>  (1) 
ILSVNVUECQFENV-JHKYCETMSA-N

>  <InChi>  (1) 
InChI=1S/C22H29NO5/c1-11(24)13-9-21-15-8-12-4-5-14(25)18-17(12)20(21,6-7-23(15)2)19(28-18)22(13,27-3)10-16(21)26/h4-5,11,13,15-16,19,24-26H,6-10H2,1-3H3/t11-,13-,15-,16?,19-,20+,21-,22-/m1/s1

>  <IUPAC Name>  (1) 
(1R,2S,6R,14R,15R,19R)-19-[(1R)-1-hydroxyethyl]-15-methoxy-5-methyl-13-oxa-5-azahexacyclo[13.2.2.12,8.01,6.02,14.012,20]icosa-8(20),9,11-triene-11,17-diol

$$$$
