
     RDKit          3D

 62 64  0  0  0  0  0  0  0  0999 V2000
    9.5582   -0.4188   -2.3707 C   0  0  0  0  0  0  0  0  0  0  0  0
    8.8688    0.8147   -2.1813 O   0  0  0  0  0  0  0  0  0  0  0  0
    8.0494    0.9014   -1.0553 C   0  0  0  0  0  0  0  0  0  0  0  0
    7.9142   -0.1647   -0.1649 C   0  0  0  0  0  0  0  0  0  0  0  0
    7.0975   -0.0506    0.9407 C   0  0  0  0  0  0  0  0  0  0  0  0
    6.4140    1.1246    1.1622 C   0  0  0  0  0  0  0  0  0  0  0  0
    6.5526    2.1884    0.2679 C   0  0  0  0  0  0  0  0  0  0  0  0
    7.3657    2.0923   -0.8442 C   0  0  0  0  0  0  0  0  0  0  0  0
    5.3771    1.3435    2.5262 S   0  0  0  0  0  0  0  0  0  0  0  0
    5.4144    2.7924    2.9117 O   0  0  0  0  0  0  0  0  0  0  0  0
    5.8698    0.5664    3.7204 O   0  0  0  0  0  0  0  0  0  0  0  0
    3.7805    0.8684    2.1032 N   0  0  0  0  0  0  0  0  0  0  0  0
    3.7154   -0.5296    1.7353 C   0  0  0  0  0  0  0  0  0  0  0  0
    2.2910   -0.8036    1.3990 C   0  0  0  0  0  0  0  0  0  0  0  0
    1.4900   -1.2224    2.4607 C   0  0  0  0  0  0  0  0  0  0  0  0
    0.1431   -1.4921    2.2036 C   0  0  0  0  0  0  0  0  0  0  0  0
   -0.4056   -1.3564    0.9460 C   0  0  0  0  0  0  0  0  0  0  0  0
    0.4099   -0.9411   -0.0834 C   0  0  0  0  0  0  0  0  0  0  0  0
    1.7647   -0.6621    0.1385 C   0  0  0  0  0  0  0  0  0  0  0  0
   -1.8196   -1.6590    0.7893 C   0  0  0  0  0  0  0  0  0  0  0  0
   -2.4475   -2.0137    1.8251 O   0  0  0  0  0  0  0  0  0  0  0  0
   -2.5181   -1.5787   -0.4417 N   0  0  0  0  0  0  0  0  0  0  0  0
   -3.9444   -1.8906   -0.5542 C   0  0  0  0  0  0  0  0  0  0  0  0
   -4.7968   -1.0015    0.3017 C   0  0  0  0  0  0  0  0  0  0  0  0
   -4.6029    0.3675   -0.1166 N   0  0  0  0  0  0  0  0  0  0  0  0
   -5.1309    0.6833   -1.3993 C   0  0  0  0  0  0  0  0  0  0  0  0
   -6.6096    0.4846   -1.4936 C   0  0  0  0  0  0  0  0  0  0  0  0
   -7.1653   -0.7253   -1.8883 C   0  0  0  0  0  0  0  0  0  0  0  0
   -8.5356   -0.9079   -1.9756 C   0  0  0  0  0  0  0  0  0  0  0  0
   -9.3971    0.1151   -1.6705 C   0  0  0  0  0  0  0  0  0  0  0  0
   -8.8761    1.3356   -1.2730 C   0  0  0  0  0  0  0  0  0  0  0  0
   -7.5123    1.4900   -1.1950 C   0  0  0  0  0  0  0  0  0  0  0  0
   -4.8064    1.3428    0.9066 C   0  0  0  0  0  0  0  0  0  0  0  0
    8.8119   -1.2241   -2.4881 H   0  0  0  0  0  0  0  0  0  0  0  0
   10.1567   -0.6768   -1.4498 H   0  0  0  0  0  0  0  0  0  0  0  0
   10.2615   -0.3809   -3.2057 H   0  0  0  0  0  0  0  0  0  0  0  0
    8.4473   -1.0816   -0.3374 H   0  0  0  0  0  0  0  0  0  0  0  0
    7.0035   -0.9021    1.6312 H   0  0  0  0  0  0  0  0  0  0  0  0
    6.0284    3.1305    0.4117 H   0  0  0  0  0  0  0  0  0  0  0  0
    7.4541    2.9340   -1.5214 H   0  0  0  0  0  0  0  0  0  0  0  0
    3.4743    1.4183    1.2745 H   0  0  0  0  0  0  0  0  0  0  0  0
    4.3487   -0.6949    0.8233 H   0  0  0  0  0  0  0  0  0  0  0  0
    4.0970   -1.2034    2.5124 H   0  0  0  0  0  0  0  0  0  0  0  0
    1.9008   -1.3355    3.4561 H   0  0  0  0  0  0  0  0  0  0  0  0
   -0.4276   -1.8127    3.0657 H   0  0  0  0  0  0  0  0  0  0  0  0
    0.0072   -0.8299   -1.0635 H   0  0  0  0  0  0  0  0  0  0  0  0
    2.4031   -0.3358   -0.6713 H   0  0  0  0  0  0  0  0  0  0  0  0
   -1.9644   -1.2845   -1.2782 H   0  0  0  0  0  0  0  0  0  0  0  0
   -4.2314   -1.7418   -1.6114 H   0  0  0  0  0  0  0  0  0  0  0  0
   -4.1341   -2.9672   -0.3524 H   0  0  0  0  0  0  0  0  0  0  0  0
   -5.8495   -1.3393    0.1399 H   0  0  0  0  0  0  0  0  0  0  0  0
   -4.5534   -1.1622    1.3555 H   0  0  0  0  0  0  0  0  0  0  0  0
   -4.9583    1.7753   -1.5690 H   0  0  0  0  0  0  0  0  0  0  0  0
   -4.5797    0.1681   -2.2003 H   0  0  0  0  0  0  0  0  0  0  0  0
   -6.5515   -1.5628   -2.1407 H   0  0  0  0  0  0  0  0  0  0  0  0
   -8.9873   -1.8490   -2.2833 H   0  0  0  0  0  0  0  0  0  0  0  0
  -10.4768   -0.0464   -1.7446 H   0  0  0  0  0  0  0  0  0  0  0  0
   -9.5378    2.1546   -1.0290 H   0  0  0  0  0  0  0  0  0  0  0  0
   -7.1528    2.4616   -0.8799 H   0  0  0  0  0  0  0  0  0  0  0  0
   -4.4795    1.0184    1.9051 H   0  0  0  0  0  0  0  0  0  0  0  0
   -5.8584    1.7009    0.9882 H   0  0  0  0  0  0  0  0  0  0  0  0
   -4.1601    2.2287    0.6320 H   0  0  0  0  0  0  0  0  0  0  0  0
  1  2  1  0
  2  3  1  0
  3  4  2  0
  4  5  1  0
  5  6  2  0
  6  7  1  0
  7  8  2  0
  6  9  1  0
  9 10  2  0
  9 11  2  0
  9 12  1  0
 12 13  1  0
 13 14  1  0
 14 15  2  0
 15 16  1  0
 16 17  2  0
 17 18  1  0
 18 19  2  0
 17 20  1  0
 20 21  2  0
 20 22  1  0
 22 23  1  0
 23 24  1  0
 24 25  1  0
 25 26  1  0
 26 27  1  0
 27 28  2  0
 28 29  1  0
 29 30  2  0
 30 31  1  0
 31 32  2  0
 25 33  1  0
  8  3  1  0
 19 14  1  0
 32 27  1  0
  1 34  1  0
  1 35  1  0
  1 36  1  0
  4 37  1  0
  5 38  1  0
  7 39  1  0
  8 40  1  0
 12 41  1  0
 13 42  1  0
 13 43  1  0
 15 44  1  0
 16 45  1  0
 18 46  1  0
 19 47  1  0
 22 48  1  0
 23 49  1  0
 23 50  1  0
 24 51  1  0
 24 52  1  0
 26 53  1  0
 26 54  1  0
 28 55  1  0
 29 56  1  0
 30 57  1  0
 31 58  1  0
 32 59  1  0
 33 60  1  0
 33 61  1  0
 33 62  1  0
M  END
>  <Ligand ID>  (1) 
LIG0004554

>  <Ligand>  (1) 
MLS002699333

>  <SMILES>  (1) 
COc1ccc(cc1)S(=O)(=O)NCc1ccc(cc1)C(=O)NCCN(Cc1ccccc1)C

>  <CID>  (1) 
20854195.0

>  <ChEMBL ID>  (1) 
nan

>  <InChiKey>  (1) 
XAYUBJJWLVNUMR-UHFFFAOYSA-N

>  <InChi>  (1) 
InChI=1S/C25H29N3O4S/c1-28(19-21-6-4-3-5-7-21)17-16-26-25(29)22-10-8-20(9-11-22)18-27-33(30,31)24-14-12-23(32-2)13-15-24/h3-15,27H,16-19H2,1-2H3,(H,26,29)

>  <IUPAC Name>  (1) 
N-[2-[benzyl(methyl)amino]ethyl]-4-[[(4-methoxyphenyl)sulfonylamino]methyl]benzamide

$$$$
