
     RDKit          3D

 73 73  0  0  0  0  0  0  0  0999 V2000
   -0.9868   -0.0961   -0.0280 C   0  0  0  0  0  0  0  0  0  0  0  0
    0.4387    0.3174    0.0680 C   0  0  0  0  0  0  0  0  0  0  0  0
    0.7901    1.4119    0.5587 O   0  0  0  0  0  0  0  0  0  0  0  0
    1.3922   -0.5464   -0.4044 O   0  0  0  0  0  0  0  0  0  0  0  0
   -9.9880   -0.2592   -0.5462 O   0  0  0  0  0  0  0  0  0  0  0  0
   -9.6034    0.4378    0.5973 C   0  0  0  0  0  0  0  0  0  0  0  0
   -8.1376    0.6859    0.6198 C   0  0  0  0  0  0  0  0  0  0  0  0
   -7.2701   -0.0232    1.4096 C   0  0  0  0  0  0  0  0  0  0  0  0
   -5.8953    0.2152    1.4248 C   0  0  0  0  0  0  0  0  0  0  0  0
   -5.4157    1.2101    0.6029 C   0  0  0  0  0  0  0  0  0  0  0  0
   -6.2591    1.9508   -0.2117 C   0  0  0  0  0  0  0  0  0  0  0  0
   -7.6312    1.6839   -0.2007 C   0  0  0  0  0  0  0  0  0  0  0  0
   -8.4880    2.4347   -1.0265 O   0  0  0  0  0  0  0  0  0  0  0  0
   -5.0767   -0.6071    2.3213 C   0  0  2  0  0  0  0  0  0  0  0  0
   -3.6115   -0.6768    1.9147 C   0  0  0  0  0  0  0  0  0  0  0  0
   -3.4232   -1.2573    0.6278 N   0  0  0  0  0  0  0  0  0  0  0  0
   -2.0754   -1.3520    0.1704 C   0  0  0  0  0  0  0  0  0  0  0  0
   -1.4242   -0.0293   -0.1277 C   0  0  0  0  0  0  0  0  0  0  0  0
   -0.0032   -0.3550   -0.5982 C   0  0  0  0  0  0  0  0  0  0  0  0
    0.7310    0.9068   -0.9209 C   0  0  0  0  0  0  0  0  0  0  0  0
    2.1385    0.6542   -1.4033 C   0  0  0  0  0  0  0  0  0  0  0  0
    2.9346   -0.0559   -0.3630 C   0  0  0  0  0  0  0  0  0  0  0  0
    4.2526   -0.3104   -0.7413 O   0  0  0  0  0  0  0  0  0  0  0  0
    4.4173   -1.0751   -1.8458 C   0  0  0  0  0  0  0  0  0  0  0  0
    5.8757   -1.2868   -2.1508 C   0  0  0  0  0  0  0  0  0  0  0  0
    6.5179   -0.1272   -2.3703 O   0  0  0  0  0  0  0  0  0  0  0  0
    6.7149    0.7863   -1.3928 C   0  0  0  0  0  0  0  0  0  0  0  0
    7.5841    0.3340   -0.2696 C   0  0  0  0  0  0  0  0  0  0  0  0
    7.1645   -0.2318    0.8831 C   0  0  0  0  0  0  0  0  0  0  0  0
    8.0866   -0.6230    1.8560 C   0  0  0  0  0  0  0  0  0  0  0  0
    9.4360   -0.4650    1.7132 C   0  0  0  0  0  0  0  0  0  0  0  0
    9.8724    0.1188    0.5247 C   0  0  0  0  0  0  0  0  0  0  0  0
    8.9648    0.5008   -0.4263 C   0  0  0  0  0  0  0  0  0  0  0  0
   -5.5225   -1.9482    2.2989 O   0  0  0  0  0  0  0  0  0  0  0  0
   -1.2342   -0.5359   -1.0184 H   0  0  0  0  0  0  0  0  0  0  0  0
   -1.6007    0.7962    0.2176 H   0  0  0  0  0  0  0  0  0  0  0  0
   -1.1458   -0.8900    0.7522 H   0  0  0  0  0  0  0  0  0  0  0  0
    2.3466   -0.4571   -0.1457 H   0  0  0  0  0  0  0  0  0  0  0  0
   -9.2968   -0.9181   -0.8283 H   0  0  0  0  0  0  0  0  0  0  0  0
   -9.8839   -0.1861    1.4709 H   0  0  0  0  0  0  0  0  0  0  0  0
  -10.1910    1.3778    0.6341 H   0  0  0  0  0  0  0  0  0  0  0  0
   -7.6865   -0.8118    2.0548 H   0  0  0  0  0  0  0  0  0  0  0  0
   -4.3689    1.4270    0.5903 H   0  0  0  0  0  0  0  0  0  0  0  0
   -5.8468    2.7263   -0.8461 H   0  0  0  0  0  0  0  0  0  0  0  0
   -8.7556    2.0277   -1.9288 H   0  0  0  0  0  0  0  0  0  0  0  0
   -5.1724   -0.2081    3.3430 H   0  0  0  0  0  0  0  0  0  0  0  0
   -3.1949    0.3650    2.0042 H   0  0  0  0  0  0  0  0  0  0  0  0
   -3.1071   -1.3228    2.6671 H   0  0  0  0  0  0  0  0  0  0  0  0
   -4.0088   -0.8112   -0.0929 H   0  0  0  0  0  0  0  0  0  0  0  0
   -2.0780   -1.9202   -0.7902 H   0  0  0  0  0  0  0  0  0  0  0  0
   -1.4021   -1.8663    0.9049 H   0  0  0  0  0  0  0  0  0  0  0  0
   -1.3617    0.6429    0.7418 H   0  0  0  0  0  0  0  0  0  0  0  0
   -1.9852    0.5321   -0.9193 H   0  0  0  0  0  0  0  0  0  0  0  0
    0.4389   -0.9331    0.2173 H   0  0  0  0  0  0  0  0  0  0  0  0
   -0.1254   -0.9765   -1.5084 H   0  0  0  0  0  0  0  0  0  0  0  0
    0.1647    1.5625   -1.6261 H   0  0  0  0  0  0  0  0  0  0  0  0
    0.7521    1.5129    0.0330 H   0  0  0  0  0  0  0  0  0  0  0  0
    2.0984   -0.0398   -2.2935 H   0  0  0  0  0  0  0  0  0  0  0  0
    2.5624    1.6238   -1.7036 H   0  0  0  0  0  0  0  0  0  0  0  0
    2.9872    0.5591    0.5610 H   0  0  0  0  0  0  0  0  0  0  0  0
    2.4181   -1.0050   -0.0630 H   0  0  0  0  0  0  0  0  0  0  0  0
    3.9760   -0.6408   -2.7741 H   0  0  0  0  0  0  0  0  0  0  0  0
    3.9620   -2.0915   -1.7715 H   0  0  0  0  0  0  0  0  0  0  0  0
    6.2843   -1.8742   -1.2726 H   0  0  0  0  0  0  0  0  0  0  0  0
    5.9942   -1.9820   -3.0433 H   0  0  0  0  0  0  0  0  0  0  0  0
    5.8164    1.3098   -1.0009 H   0  0  0  0  0  0  0  0  0  0  0  0
    7.2905    1.6410   -1.8857 H   0  0  0  0  0  0  0  0  0  0  0  0
    6.1458   -0.3988    1.1044 H   0  0  0  0  0  0  0  0  0  0  0  0
    7.7219   -1.0802    2.7834 H   0  0  0  0  0  0  0  0  0  0  0  0
   10.1273   -0.7771    2.4831 H   0  0  0  0  0  0  0  0  0  0  0  0
   10.9327    0.2619    0.3717 H   0  0  0  0  0  0  0  0  0  0  0  0
    9.3398    0.9538   -1.3434 H   0  0  0  0  0  0  0  0  0  0  0  0
   -5.4135   -2.2224    1.3572 H   0  0  0  0  0  0  0  0  0  0  0  0
  1  2  1  0
  2  3  2  0
  2  4  1  0
  5  6  1  0
  6  7  1  0
  7  8  2  0
  8  9  1  0
  9 10  2  0
 10 11  1  0
 11 12  2  0
 12 13  1  0
  9 14  1  0
 14 15  1  0
 15 16  1  0
 16 17  1  0
 17 18  1  0
 18 19  1  0
 19 20  1  0
 20 21  1  0
 21 22  1  0
 22 23  1  0
 23 24  1  0
 24 25  1  0
 25 26  1  0
 26 27  1  0
 27 28  1  0
 28 29  2  0
 29 30  1  0
 30 31  2  0
 31 32  1  0
 32 33  2  0
 14 34  1  0
 12  7  1  0
 33 28  1  0
  1 35  1  0
  1 36  1  0
  1 37  1  0
  4 38  1  0
  5 39  1  0
  6 40  1  0
  6 41  1  0
  8 42  1  0
 10 43  1  0
 11 44  1  0
 13 45  1  0
 14 46  1  1
 15 47  1  0
 15 48  1  0
 16 49  1  0
 17 50  1  0
 17 51  1  0
 18 52  1  0
 18 53  1  0
 19 54  1  0
 19 55  1  0
 20 56  1  0
 20 57  1  0
 21 58  1  0
 21 59  1  0
 22 60  1  0
 22 61  1  0
 24 62  1  0
 24 63  1  0
 25 64  1  0
 25 65  1  0
 27 66  1  0
 27 67  1  0
 29 68  1  0
 30 69  1  0
 31 70  1  0
 32 71  1  0
 33 72  1  0
 34 73  1  0
M  END
>  <Ligand ID>  (1) 
LIG0003347

>  <Ligand>  (1) 
CHEMBL1085395

>  <SMILES>  (1) 
CC(=O)O.OCc1cc(ccc1O)[C@H](CNCCCCCCOCCOCc1ccccc1)O

>  <CID>  (1) 
46832504.0

>  <ChEMBL ID>  (1) 
nan

>  <InChiKey>  (1) 
IJTVGIOQMJOXGO-JIDHJSLPSA-N

>  <InChi>  (1) 
InChI=1S/C24H35NO5.C2H4O2/c26-18-22-16-21(10-11-23(22)27)24(28)17-25-12-6-1-2-7-13-29-14-15-30-19-20-8-4-3-5-9-20;1-2(3)4/h3-5,8-11,16,24-28H,1-2,6-7,12-15,17-19H2;1H3,(H,3,4)/t24-;/m0./s1

>  <IUPAC Name>  (1) 
acetic acid;2-(hydroxymethyl)-4-[(1R)-1-hydroxy-2-[6-(2-phenylmethoxyethoxy)hexylamino]ethyl]phenol

$$$$
