
     RDKit          3D

 75 80  0  0  0  0  0  0  0  0999 V2000
   -5.5967    0.5198   -2.3568 C   0  0  0  0  0  0  0  0  0  0  0  0
   -4.9646   -0.1326   -1.0948 C   0  0  1  0  0  0  0  0  0  0  0  0
   -3.8355   -0.9840   -1.6706 C   0  0  0  0  0  0  0  0  0  0  0  0
   -2.6599   -0.1858   -2.0863 C   0  0  0  0  0  0  0  0  0  0  0  0
   -1.4332   -0.3339   -1.5998 C   0  0  0  0  0  0  0  0  0  0  0  0
   -0.9953   -1.2923   -0.5805 C   0  0  1  0  0  0  0  0  0  0  0  0
   -0.5745   -2.5299   -1.3637 C   0  0  2  0  0  0  0  0  0  0  0  0
   -0.1358   -3.5375   -0.3607 O   0  0  0  0  0  0  0  0  0  0  0  0
    0.6747   -3.0269   -1.3407 C   0  0  1  0  0  0  0  0  0  0  0  0
    1.1260   -4.0316   -2.3665 C   0  0  0  0  0  0  0  0  0  0  0  0
    1.7085   -1.9635   -1.0480 C   0  0  2  0  0  0  0  0  0  0  0  0
    1.3970   -1.2542    0.1970 C   0  0  2  0  0  0  0  0  0  0  0  0
   -0.0292   -0.8175    0.4419 C   0  0  1  0  0  0  0  0  0  0  0  0
    0.1205    0.6408    0.4976 C   0  0  0  0  0  0  0  0  0  0  0  0
   -0.6276    1.5588    0.9584 O   0  0  0  0  0  0  0  0  0  0  0  0
    1.3866    1.0335   -0.1048 N   0  0  0  0  0  0  0  0  0  0  0  0
    2.2836   -0.0313    0.2466 C   0  0  1  0  0  0  0  0  0  0  0  0
    3.0179    0.1441    1.5387 C   0  0  0  0  0  0  0  0  0  0  0  0
    3.8790    1.3556    1.5562 C   0  0  0  0  0  0  0  0  0  0  0  0
    3.6800    2.5674    2.1830 C   0  0  0  0  0  0  0  0  0  0  0  0
    4.7315    3.3931    1.9289 N   0  0  0  0  0  0  0  0  0  0  0  0
    5.6081    2.7306    1.1456 C   0  0  0  0  0  0  0  0  0  0  0  0
    5.1089    1.4703    0.8989 C   0  0  0  0  0  0  0  0  0  0  0  0
    5.8641    0.6336    0.1103 C   0  0  0  0  0  0  0  0  0  0  0  0
    7.0864    1.0687   -0.4080 C   0  0  0  0  0  0  0  0  0  0  0  0
    7.5800    2.3247   -0.1596 C   0  0  0  0  0  0  0  0  0  0  0  0
    6.8115    3.1669    0.6388 C   0  0  0  0  0  0  0  0  0  0  0  0
   -0.4170   -1.2375    1.8297 C   0  0  0  0  0  0  0  0  0  0  0  0
    0.4706   -1.8565    2.5269 O   0  0  0  0  0  0  0  0  0  0  0  0
   -1.6876   -1.0271    2.4710 C   0  0  0  0  0  0  0  0  0  0  0  0
   -2.7348   -0.4005    1.9936 C   0  0  0  0  0  0  0  0  0  0  0  0
   -4.0241   -0.2282    2.7148 C   0  0  0  0  0  0  0  0  0  0  0  0
   -4.1009   -0.7260    3.8134 O   0  0  0  0  0  0  0  0  0  0  0  0
   -5.0519    0.5427    1.9550 C   0  0  1  0  0  0  0  0  0  0  0  0
   -4.4356    1.3179    0.8696 C   0  0  0  0  0  0  0  0  0  0  0  0
   -4.3944    1.0452   -0.3874 C   0  0  0  0  0  0  0  0  0  0  0  0
   -3.6779    2.5656    1.3249 C   0  0  0  0  0  0  0  0  0  0  0  0
   -6.1748   -0.1036    1.5997 O   0  0  0  0  0  0  0  0  0  0  0  0
    1.9656   -1.1420   -2.2646 C   0  0  0  0  0  0  0  0  0  0  0  0
   -6.5827    0.9521   -2.0804 H   0  0  0  0  0  0  0  0  0  0  0  0
   -4.9456    1.3296   -2.7148 H   0  0  0  0  0  0  0  0  0  0  0  0
   -5.7424   -0.2786   -3.1055 H   0  0  0  0  0  0  0  0  0  0  0  0
   -5.6980   -0.7165   -0.6252 H   0  0  0  0  0  0  0  0  0  0  0  0
   -4.1996   -1.4628   -2.6429 H   0  0  0  0  0  0  0  0  0  0  0  0
   -3.5541   -1.8273   -1.0534 H   0  0  0  0  0  0  0  0  0  0  0  0
   -2.8295    0.5746   -2.8469 H   0  0  0  0  0  0  0  0  0  0  0  0
   -0.6653    0.3403   -2.0116 H   0  0  0  0  0  0  0  0  0  0  0  0
   -1.9202   -1.7118   -0.0785 H   0  0  0  0  0  0  0  0  0  0  0  0
   -1.3842   -2.8915   -2.0272 H   0  0  0  0  0  0  0  0  0  0  0  0
    2.2493   -4.0908   -2.4381 H   0  0  0  0  0  0  0  0  0  0  0  0
    0.8176   -5.0854   -2.1013 H   0  0  0  0  0  0  0  0  0  0  0  0
    0.7026   -3.8661   -3.3781 H   0  0  0  0  0  0  0  0  0  0  0  0
    2.6617   -2.5459   -0.8651 H   0  0  0  0  0  0  0  0  0  0  0  0
    1.7451   -1.8940    1.0612 H   0  0  0  0  0  0  0  0  0  0  0  0
    1.5684    1.8986   -0.6605 H   0  0  0  0  0  0  0  0  0  0  0  0
    3.0660   -0.0291   -0.5653 H   0  0  0  0  0  0  0  0  0  0  0  0
    2.4022    0.1116    2.4395 H   0  0  0  0  0  0  0  0  0  0  0  0
    3.7136   -0.7364    1.6130 H   0  0  0  0  0  0  0  0  0  0  0  0
    2.8033    2.7784    2.7756 H   0  0  0  0  0  0  0  0  0  0  0  0
    4.8379    4.3724    2.2821 H   0  0  0  0  0  0  0  0  0  0  0  0
    5.4873   -0.3651   -0.0961 H   0  0  0  0  0  0  0  0  0  0  0  0
    7.6839    0.4134   -1.0283 H   0  0  0  0  0  0  0  0  0  0  0  0
    8.5322    2.6706   -0.5606 H   0  0  0  0  0  0  0  0  0  0  0  0
    7.2251    4.1457    0.8153 H   0  0  0  0  0  0  0  0  0  0  0  0
   -1.8271   -1.4172    3.4577 H   0  0  0  0  0  0  0  0  0  0  0  0
   -2.6968    0.0171    1.0552 H   0  0  0  0  0  0  0  0  0  0  0  0
   -5.3949    1.3177    2.7391 H   0  0  0  0  0  0  0  0  0  0  0  0
   -3.8650    1.7647   -1.0502 H   0  0  0  0  0  0  0  0  0  0  0  0
   -4.4883    3.2948    1.5662 H   0  0  0  0  0  0  0  0  0  0  0  0
   -3.1276    2.3499    2.2689 H   0  0  0  0  0  0  0  0  0  0  0  0
   -2.9921    2.8697    0.5423 H   0  0  0  0  0  0  0  0  0  0  0  0
   -6.5703   -0.6181    2.3449 H   0  0  0  0  0  0  0  0  0  0  0  0
    1.6901   -0.0882   -2.1680 H   0  0  0  0  0  0  0  0  0  0  0  0
    3.0123   -1.2693   -2.6706 H   0  0  0  0  0  0  0  0  0  0  0  0
    1.3355   -1.5449   -3.1120 H   0  0  0  0  0  0  0  0  0  0  0  0
  1  2  1  0
  2  3  1  0
  3  4  1  0
  4  5  2  3
  5  6  1  0
  6  7  1  0
  7  8  1  0
  8  9  1  0
  9 10  1  6
  9 11  1  0
 11 12  1  0
 12 13  1  0
 13 14  1  1
 14 15  2  0
 14 16  1  0
 16 17  1  0
 17 18  1  0
 18 19  1  0
 19 20  2  0
 20 21  1  0
 21 22  1  0
 22 23  2  0
 23 24  1  0
 24 25  2  0
 25 26  1  0
 26 27  2  0
 13 28  1  0
 28 29  2  0
 28 30  1  0
 30 31  2  3
 31 32  1  0
 32 33  2  0
 32 34  1  0
 34 35  1  0
 35 36  2  3
 35 37  1  0
 34 38  1  0
 11 39  1  0
 36  2  1  0
 13  6  1  0
 23 19  1  0
  9  7  1  0
 17 12  1  0
 27 22  1  0
  1 40  1  0
  1 41  1  0
  1 42  1  0
  2 43  1  1
  3 44  1  0
  3 45  1  0
  4 46  1  0
  5 47  1  0
  6 48  1  1
  7 49  1  6
 10 50  1  0
 10 51  1  0
 10 52  1  0
 11 53  1  1
 12 54  1  1
 16 55  1  0
 17 56  1  6
 18 57  1  0
 18 58  1  0
 20 59  1  0
 21 60  1  0
 24 61  1  0
 25 62  1  0
 26 63  1  0
 27 64  1  0
 30 65  1  0
 31 66  1  0
 34 67  1  1
 36 68  1  0
 37 69  1  0
 37 70  1  0
 37 71  1  0
 38 72  1  0
 39 73  1  0
 39 74  1  0
 39 75  1  0
M  END
>  <Ligand ID>  (1) 
LIG0005533

>  <Ligand>  (1) 
MLS000876953

>  <SMILES>  (1) 
C[C@H]1CC=C[C@H]2[C@@H]3O[C@]3(C)[C@H]([C@@H]3[C@]2(C(=O)N[C@H]3Cc2c[nH]c3c2cccc3)C(=O)C=CC(=O)[C@@H](C(=C1)C)O)C

>  <CID>  (1) 
122811.0

>  <ChEMBL ID>  (1) 
nan

>  <InChiKey>  (1) 
OUMWCYMRLMEZJH-RRFIZBDMSA-N

>  <InChi>  (1) 
InChI=1S/C32H36N2O5/c1-17-8-7-10-22-29-31(4,39-29)19(3)27-24(15-20-16-33-23-11-6-5-9-21(20)23)34-30(38)32(22,27)26(36)13-12-25(35)28(37)18(2)14-17/h5-7,9-14,16-17,19,22,24,27-29,33,37H,8,15H2,1-4H3,(H,34,38)/t17-,19-,22-,24-,27-,28+,29-,31+,32+/m0/s1

>  <IUPAC Name>  (1) 
(1R,6R,9S,13R,14S,16R,17S,18R,19S)-6-hydroxy-19-(1H-indol-3-ylmethyl)-7,9,16,17-tetramethyl-15-oxa-20-azatetracyclo[11.8.0.01,18.014,16]henicosa-3,7,11-triene-2,5,21-trione

$$$$
