
     RDKit          3D

 26 26  0  0  0  0  0  0  0  0999 V2000
    3.8247    0.8924   -0.2949 N   0  0  0  0  0  0  0  0  0  0  0  0
    2.8848    0.0511    0.4426 C   0  0  0  0  0  0  0  0  0  0  0  0
    1.4759    0.3981    0.0076 C   0  0  1  0  0  0  0  0  0  0  0  0
    1.1145    0.2218   -1.4473 C   0  0  0  0  0  0  0  0  0  0  0  0
    0.5150   -0.6608   -0.3491 C   0  0  2  0  0  0  0  0  0  0  0  0
   -0.9317   -0.4772   -0.1228 C   0  0  0  0  0  0  0  0  0  0  0  0
   -1.5033    0.7801    0.0460 C   0  0  0  0  0  0  0  0  0  0  0  0
   -2.8405    0.9575    0.2557 C   0  0  0  0  0  0  0  0  0  0  0  0
   -3.6899   -0.1203    0.3090 C   0  0  0  0  0  0  0  0  0  0  0  0
   -3.1652   -1.3789    0.1471 C   0  0  0  0  0  0  0  0  0  0  0  0
   -1.8098   -1.5489   -0.0648 C   0  0  0  0  0  0  0  0  0  0  0  0
   -5.3940    0.1102    0.5765 Cl  0  0  0  0  0  0  0  0  0  0  0  0
    0.6915    0.0000    0.0000 Cl  0  0  0  0  0  0  0  0  0  0  0  0
    4.7736    0.4740   -0.3501 H   0  0  0  0  0  0  0  0  0  0  0  0
    3.8261    1.8603    0.0473 H   0  0  0  0  0  0  0  0  0  0  0  0
    3.1254   -0.9950    0.2410 H   0  0  0  0  0  0  0  0  0  0  0  0
    2.9520    0.2960    1.5365 H   0  0  0  0  0  0  0  0  0  0  0  0
    1.0972    1.3135    0.4636 H   0  0  0  0  0  0  0  0  0  0  0  0
    0.4217    0.9541   -1.9300 H   0  0  0  0  0  0  0  0  0  0  0  0
    1.8844   -0.1953   -2.1180 H   0  0  0  0  0  0  0  0  0  0  0  0
    0.8234   -1.7218   -0.4658 H   0  0  0  0  0  0  0  0  0  0  0  0
   -0.8667    1.6341    0.0091 H   0  0  0  0  0  0  0  0  0  0  0  0
   -3.2862    1.9359    0.3871 H   0  0  0  0  0  0  0  0  0  0  0  0
   -3.8146   -2.2490    0.1848 H   0  0  0  0  0  0  0  0  0  0  0  0
   -1.4167   -2.5319   -0.1888 H   0  0  0  0  0  0  0  0  0  0  0  0
   -0.6915    0.0000    0.0000 H   0  0  0  0  0  0  0  0  0  0  0  0
  1  2  1  0
  2  3  1  0
  3  4  1  0
  4  5  1  0
  5  6  1  0
  6  7  2  0
  7  8  1  0
  8  9  2  0
  9 10  1  0
 10 11  2  0
  9 12  1  0
  5  3  1  0
 11  6  1  0
  1 14  1  0
  1 15  1  0
  2 16  1  0
  2 17  1  0
  3 18  1  1
  4 19  1  0
  4 20  1  0
  5 21  1  6
  7 22  1  0
  8 23  1  0
 10 24  1  0
 11 25  1  0
 13 26  1  0
M  END
>  <Ligand ID>  (1) 
LIG0002383

>  <Ligand>  (1) 
CHEMBL469729

>  <SMILES>  (1) 
NC[C@H]1C[C@@H]1c1ccc(cc1)Cl.Cl

>  <CID>  (1) 
44572811.0

>  <ChEMBL ID>  (1) 
nan

>  <InChiKey>  (1) 
PRZAIAIMOMXLFZ-GHXDPTCOSA-N

>  <InChi>  (1) 
InChI=1S/C10H12ClN.ClH/c11-9-3-1-7(2-4-9)10-5-8(10)6-12;/h1-4,8,10H,5-6,12H2;1H/t8-,10-;/m1./s1

>  <IUPAC Name>  (1) 
[(1S,2S)-2-(4-chlorophenyl)cyclopropyl]methanamine;hydrochloride

$$$$
