
     RDKit          3D

 32 34  0  0  0  0  0  0  0  0999 V2000
   -4.5191    1.0314    1.0110 O   0  0  0  0  0  0  0  0  0  0  0  0
   -3.3268    0.8165    0.8246 C   0  0  0  0  0  0  0  0  0  0  0  0
   -2.8284   -0.1511   -0.1894 C   0  0  0  0  0  0  0  0  0  0  0  0
   -2.0194   -1.2285    0.4885 C   0  0  0  0  0  0  0  0  0  0  0  0
   -0.6266   -0.7091    0.5594 C   0  0  0  0  0  0  0  0  0  0  0  0
   -0.6176    0.6089   -0.2210 C   0  0  0  0  0  0  0  0  0  0  0  0
   -1.8419    0.6345   -1.0556 C   0  0  0  0  0  0  0  0  0  0  0  0
    0.6874    0.4820   -0.9410 C   0  0  0  0  0  0  0  0  0  0  0  0
    0.6105   -0.9477   -1.4636 C   0  0  0  0  0  0  0  0  0  0  0  0
    0.3953   -1.5883   -0.0971 C   0  0  0  0  0  0  0  0  0  0  0  0
    1.7282   -1.1865    0.5032 C   0  0  0  0  0  0  0  0  0  0  0  0
    1.7347    0.2995    0.1410 C   0  0  0  0  0  0  0  0  0  0  0  0
    3.0099    0.6674   -0.2552 O   0  0  0  0  0  0  0  0  0  0  0  0
    3.6038    1.6016    0.5806 C   0  0  0  0  0  0  0  0  0  0  0  0
   -2.5452    1.3347    1.4054 H   0  0  0  0  0  0  0  0  0  0  0  0
   -3.6246   -0.6164   -0.7710 H   0  0  0  0  0  0  0  0  0  0  0  0
   -2.4026   -1.3282    1.5263 H   0  0  0  0  0  0  0  0  0  0  0  0
   -2.1054   -2.2092   -0.0198 H   0  0  0  0  0  0  0  0  0  0  0  0
   -0.3053   -0.4463    1.5874 H   0  0  0  0  0  0  0  0  0  0  0  0
   -0.6008    1.4857    0.4433 H   0  0  0  0  0  0  0  0  0  0  0  0
   -1.7982    0.1258   -2.0308 H   0  0  0  0  0  0  0  0  0  0  0  0
   -2.2659    1.6540   -1.1705 H   0  0  0  0  0  0  0  0  0  0  0  0
    0.9271    1.2285   -1.6783 H   0  0  0  0  0  0  0  0  0  0  0  0
   -0.1912   -1.1239   -2.1733 H   0  0  0  0  0  0  0  0  0  0  0  0
    1.6184   -1.1863   -1.8770 H   0  0  0  0  0  0  0  0  0  0  0  0
    0.1852   -2.6444   -0.1312 H   0  0  0  0  0  0  0  0  0  0  0  0
    2.5887   -1.6502   -0.0146 H   0  0  0  0  0  0  0  0  0  0  0  0
    1.7720   -1.3652    1.5900 H   0  0  0  0  0  0  0  0  0  0  0  0
    1.4392    0.8375    1.0662 H   0  0  0  0  0  0  0  0  0  0  0  0
    4.6191    1.8138    0.1570 H   0  0  0  0  0  0  0  0  0  0  0  0
    2.9605    2.5045    0.5437 H   0  0  0  0  0  0  0  0  0  0  0  0
    3.7388    1.2549    1.6031 H   0  0  0  0  0  0  0  0  0  0  0  0
  1  2  2  0
  2  3  1  0
  3  4  1  0
  4  5  1  0
  5  6  1  0
  6  7  1  0
  6  8  1  0
  8  9  1  0
  9 10  1  0
 10 11  1  0
 11 12  1  0
 12 13  1  0
 13 14  1  0
  7  3  1  0
 12  8  1  0
 10  5  1  0
  2 15  1  0
  3 16  1  0
  4 17  1  0
  4 18  1  0
  5 19  1  0
  6 20  1  0
  7 21  1  0
  7 22  1  0
  8 23  1  0
  9 24  1  0
  9 25  1  0
 10 26  1  0
 11 27  1  0
 11 28  1  0
 12 29  1  0
 14 30  1  0
 14 31  1  0
 14 32  1  0
M  END
>  <Ligand ID>  (1) 
LIG0000421

>  <Ligand>  (1) 
Scentenal

>  <SMILES>  (1) 
O=CC1CC2C(C1)C1CC2CC1OC

>  <CID>  (1) 
163529.0

>  <ChEMBL ID>  (1) 
nan

>  <InChiKey>  (1) 
UOGMZEGKCNHMBF-UHFFFAOYSA-N

>  <InChi>  (1) 
InChI=1S/C12H18O2/c1-14-12-5-8-4-11(12)10-3-7(6-13)2-9(8)10/h6-12H,2-5H2,1H3

>  <IUPAC Name>  (1) 
8-methoxytricyclo[5.2.1.02,6]decane-4-carbaldehyde

$$$$
