
     RDKit          3D

 50 52  0  0  0  0  0  0  0  0999 V2000
   -7.3652    3.9041   -1.3922 Cl  0  0  0  0  0  0  0  0  0  0  0  0
   -7.1193    2.3597   -0.5709 C   0  0  0  0  0  0  0  0  0  0  0  0
   -8.0887    1.8173    0.2634 C   0  0  0  0  0  0  0  0  0  0  0  0
   -7.8666    0.6125    0.8898 C   0  0  0  0  0  0  0  0  0  0  0  0
   -6.6773   -0.0135    0.6608 C   0  0  0  0  0  0  0  0  0  0  0  0
   -5.6885    0.5000   -0.1660 C   0  0  0  0  0  0  0  0  0  0  0  0
   -5.9089    1.7007   -0.7902 C   0  0  0  0  0  0  0  0  0  0  0  0
   -4.4183   -0.2482   -0.3876 C   0  0  2  0  0  0  0  0  0  0  0  0
   -3.2281    0.5379    0.1519 C   0  0  0  0  0  0  0  0  0  0  0  0
   -2.0039   -0.1711   -0.1969 N   0  0  0  0  0  0  0  0  0  0  0  0
   -1.7991   -1.3914    0.4859 C   0  0  0  0  0  0  0  0  0  0  0  0
   -0.6729   -2.2455    0.0342 C   0  0  0  0  0  0  0  0  0  0  0  0
    0.6621   -1.6391    0.0832 C   0  0  0  0  0  0  0  0  0  0  0  0
    1.5023   -1.6532    1.1736 C   0  0  0  0  0  0  0  0  0  0  0  0
    2.7674   -1.1143    1.1496 C   0  0  0  0  0  0  0  0  0  0  0  0
    3.2758   -0.5209    0.0185 C   0  0  0  0  0  0  0  0  0  0  0  0
    2.4512   -0.4901   -1.0926 C   0  0  0  0  0  0  0  0  0  0  0  0
    1.1812   -1.0315   -1.0650 C   0  0  0  0  0  0  0  0  0  0  0  0
    3.0020    0.2531   -2.5983 Cl  0  0  0  0  0  0  0  0  0  0  0  0
    4.6293    0.0074   -0.0253 C   0  0  0  0  0  0  0  0  0  0  0  0
    5.1649    0.8639    0.9025 C   0  0  0  0  0  0  0  0  0  0  0  0
    6.5011    1.2565    0.7332 C   0  0  0  0  0  0  0  0  0  0  0  0
    7.2662    0.8096   -0.3196 C   0  0  0  0  0  0  0  0  0  0  0  0
    6.7291   -0.0553   -1.2587 C   0  0  0  0  0  0  0  0  0  0  0  0
    5.4175   -0.4326   -1.0825 C   0  0  0  0  0  0  0  0  0  0  0  0
    8.6553    1.1989   -0.5146 C   0  0  0  0  0  0  0  0  0  0  0  0
    9.1431    1.9965    0.3340 O   0  0  0  0  0  0  0  0  0  0  0  0
    9.4373    0.7458   -1.5544 O   0  0  0  0  0  0  0  0  0  0  0  0
   -4.2130   -0.3293   -1.7892 O   0  0  0  0  0  0  0  0  0  0  0  0
   -9.0161    2.3487    0.4085 H   0  0  0  0  0  0  0  0  0  0  0  0
   -8.5772    0.1323    1.5478 H   0  0  0  0  0  0  0  0  0  0  0  0
   -6.4740   -0.9796    1.1512 H   0  0  0  0  0  0  0  0  0  0  0  0
   -5.1350    2.0847   -1.4236 H   0  0  0  0  0  0  0  0  0  0  0  0
   -4.5219   -1.2460    0.0610 H   0  0  0  0  0  0  0  0  0  0  0  0
   -3.1999    1.5136   -0.3669 H   0  0  0  0  0  0  0  0  0  0  0  0
   -3.2993    0.6883    1.2278 H   0  0  0  0  0  0  0  0  0  0  0  0
   -1.7832   -0.1214   -1.1913 H   0  0  0  0  0  0  0  0  0  0  0  0
   -1.6292   -1.1722    1.5815 H   0  0  0  0  0  0  0  0  0  0  0  0
   -2.7440   -1.9998    0.4736 H   0  0  0  0  0  0  0  0  0  0  0  0
   -0.8558   -2.5263   -1.0542 H   0  0  0  0  0  0  0  0  0  0  0  0
   -0.6667   -3.2456    0.5510 H   0  0  0  0  0  0  0  0  0  0  0  0
    1.1245   -2.1234    2.0958 H   0  0  0  0  0  0  0  0  0  0  0  0
    3.3842   -1.1594    2.0488 H   0  0  0  0  0  0  0  0  0  0  0  0
    0.5604   -0.9921   -1.9452 H   0  0  0  0  0  0  0  0  0  0  0  0
    4.5565    1.2052    1.7187 H   0  0  0  0  0  0  0  0  0  0  0  0
    6.9247    1.9307    1.4658 H   0  0  0  0  0  0  0  0  0  0  0  0
    7.3030   -0.4254   -2.0969 H   0  0  0  0  0  0  0  0  0  0  0  0
    5.0085   -1.1039   -1.8191 H   0  0  0  0  0  0  0  0  0  0  0  0
   10.2614    1.2496   -1.8930 H   0  0  0  0  0  0  0  0  0  0  0  0
   -3.9570   -1.2856   -1.9632 H   0  0  0  0  0  0  0  0  0  0  0  0
  1  2  1  0
  2  3  2  0
  3  4  1  0
  4  5  2  0
  5  6  1  0
  6  7  2  0
  6  8  1  0
  8  9  1  0
  9 10  1  0
 10 11  1  0
 11 12  1  0
 12 13  1  0
 13 14  2  0
 14 15  1  0
 15 16  2  0
 16 17  1  0
 17 18  2  0
 17 19  1  0
 16 20  1  0
 20 21  2  0
 21 22  1  0
 22 23  2  0
 23 24  1  0
 24 25  2  0
 23 26  1  0
 26 27  2  0
 26 28  1  0
  8 29  1  0
  7  2  1  0
 18 13  1  0
 25 20  1  0
  3 30  1  0
  4 31  1  0
  5 32  1  0
  7 33  1  0
  8 34  1  1
  9 35  1  0
  9 36  1  0
 10 37  1  0
 11 38  1  0
 11 39  1  0
 12 40  1  0
 12 41  1  0
 14 42  1  0
 15 43  1  0
 18 44  1  0
 21 45  1  0
 22 46  1  0
 24 47  1  0
 25 48  1  0
 28 49  1  0
 29 50  1  0
M  END
>  <Ligand ID>  (1) 
LIG0005817

>  <Ligand>  (1) 
CHEMBL257106

>  <SMILES>  (1) 
Clc1cccc(c1)[C@H](CNCCc1ccc(c(c1)Cl)c1ccc(cc1)C(=O)O)O

>  <CID>  (1) 
24822971.0

>  <ChEMBL ID>  (1) 
nan

>  <InChiKey>  (1) 
IQKCPEMRGFWRHP-QFIPXVFZSA-N

>  <InChi>  (1) 
InChI=1S/C23H21Cl2NO3/c24-19-3-1-2-18(13-19)22(27)14-26-11-10-15-4-9-20(21(25)12-15)16-5-7-17(8-6-16)23(28)29/h1-9,12-13,22,26-27H,10-11,14H2,(H,28,29)/t22-/m0/s1

>  <IUPAC Name>  (1) 
4-[2-chloro-4-[2-[[(2R)-2-(3-chlorophenyl)-2-hydroxyethyl]amino]ethyl]phenyl]benzoic acid

$$$$
