
     RDKit          3D

 59 61  0  0  0  0  0  0  0  0999 V2000
   -8.1317    1.6636   -2.1447 C   0  0  0  0  0  0  0  0  0  0  0  0
   -7.7241    1.3718   -0.7113 C   0  0  0  0  0  0  0  0  0  0  0  0
   -6.3106    1.1555   -0.6464 O   0  0  0  0  0  0  0  0  0  0  0  0
   -5.6844    0.8709    0.5462 C   0  0  0  0  0  0  0  0  0  0  0  0
   -6.3797    0.7992    1.6118 O   0  0  0  0  0  0  0  0  0  0  0  0
   -4.2637    0.6521    0.6200 N   0  0  0  0  0  0  0  0  0  0  0  0
   -3.4994    0.7431   -0.6259 C   0  0  0  0  0  0  0  0  0  0  0  0
   -2.5995   -0.4751   -0.6684 C   0  0  0  0  0  0  0  0  0  0  0  0
   -1.7481   -0.4879    0.5989 C   0  0  0  0  0  0  0  0  0  0  0  0
   -2.5979   -0.7463    1.7949 C   0  0  0  0  0  0  0  0  0  0  0  0
   -3.6453    0.3578    1.8799 C   0  0  0  0  0  0  0  0  0  0  0  0
   -0.6413   -1.3471    0.4191 N   0  0  0  0  0  0  0  0  0  0  0  0
   -0.9052   -2.7154    0.1360 C   0  0  0  0  0  0  0  0  0  0  0  0
    0.3177   -3.1842   -0.6657 C   0  0  0  0  0  0  0  0  0  0  0  0
    1.5103   -3.1603    0.2570 C   0  0  0  0  0  0  0  0  0  0  0  0
    1.6788   -1.8940    1.0034 C   0  0  2  0  0  0  0  0  0  0  0  0
    0.4402   -1.1532    1.3462 C   0  0  0  0  0  0  0  0  0  0  0  0
    2.5599   -0.9851    0.2613 N   0  0  0  0  0  0  0  0  0  0  0  0
    3.8104   -0.5562    0.7672 C   0  0  0  0  0  0  0  0  0  0  0  0
    4.1428   -1.0022    1.9154 O   0  0  0  0  0  0  0  0  0  0  0  0
    4.6896    0.3466    0.0343 C   0  0  0  0  0  0  0  0  0  0  0  0
    4.3900    0.8628   -1.2052 C   0  0  0  0  0  0  0  0  0  0  0  0
    5.2717    1.7211   -1.8549 C   0  0  0  0  0  0  0  0  0  0  0  0
    6.4617    2.0756   -1.2792 C   0  0  0  0  0  0  0  0  0  0  0  0
    6.7814    1.5660   -0.0313 C   0  0  0  0  0  0  0  0  0  0  0  0
    5.8904    0.7111    0.6030 C   0  0  0  0  0  0  0  0  0  0  0  0
    7.9578    1.8643    0.6322 O   0  0  0  0  0  0  0  0  0  0  0  0
    8.9343    2.7183    0.0867 C   0  0  0  0  0  0  0  0  0  0  0  0
   -9.1988    1.4719   -2.3106 H   0  0  0  0  0  0  0  0  0  0  0  0
   -7.8413    2.7181   -2.3792 H   0  0  0  0  0  0  0  0  0  0  0  0
   -7.5770    1.0044   -2.8290 H   0  0  0  0  0  0  0  0  0  0  0  0
   -8.0096    2.2367   -0.0465 H   0  0  0  0  0  0  0  0  0  0  0  0
   -8.2867    0.5047   -0.3141 H   0  0  0  0  0  0  0  0  0  0  0  0
   -2.8944    1.6724   -0.6453 H   0  0  0  0  0  0  0  0  0  0  0  0
   -4.1809    0.6459   -1.4911 H   0  0  0  0  0  0  0  0  0  0  0  0
   -1.8915   -0.4387   -1.5105 H   0  0  0  0  0  0  0  0  0  0  0  0
   -3.2828   -1.3554   -0.7135 H   0  0  0  0  0  0  0  0  0  0  0  0
   -1.3587    0.5469    0.6901 H   0  0  0  0  0  0  0  0  0  0  0  0
   -1.9744   -0.6534    2.7037 H   0  0  0  0  0  0  0  0  0  0  0  0
   -3.0909   -1.7258    1.8159 H   0  0  0  0  0  0  0  0  0  0  0  0
   -3.1573    1.3129    2.2136 H   0  0  0  0  0  0  0  0  0  0  0  0
   -4.4229    0.0772    2.5997 H   0  0  0  0  0  0  0  0  0  0  0  0
   -0.9287   -3.3883    1.0196 H   0  0  0  0  0  0  0  0  0  0  0  0
   -1.7909   -2.7961   -0.5139 H   0  0  0  0  0  0  0  0  0  0  0  0
    0.1499   -4.1555   -1.1255 H   0  0  0  0  0  0  0  0  0  0  0  0
    0.4870   -2.3971   -1.4306 H   0  0  0  0  0  0  0  0  0  0  0  0
    2.4300   -3.3561   -0.3582 H   0  0  0  0  0  0  0  0  0  0  0  0
    1.4202   -4.0514    0.9266 H   0  0  0  0  0  0  0  0  0  0  0  0
    2.2311   -2.1089    1.9590 H   0  0  0  0  0  0  0  0  0  0  0  0
    0.1349   -1.4051    2.3937 H   0  0  0  0  0  0  0  0  0  0  0  0
    0.6570   -0.0661    1.3773 H   0  0  0  0  0  0  0  0  0  0  0  0
    2.2199   -0.6640   -0.6688 H   0  0  0  0  0  0  0  0  0  0  0  0
    3.4564    0.5988   -1.6823 H   0  0  0  0  0  0  0  0  0  0  0  0
    4.9636    2.0849   -2.8276 H   0  0  0  0  0  0  0  0  0  0  0  0
    7.1563    2.7411   -1.7720 H   0  0  0  0  0  0  0  0  0  0  0  0
    6.1402    0.3138    1.5764 H   0  0  0  0  0  0  0  0  0  0  0  0
    9.7051    2.1239   -0.4834 H   0  0  0  0  0  0  0  0  0  0  0  0
    9.4936    3.1818    0.9469 H   0  0  0  0  0  0  0  0  0  0  0  0
    8.5356    3.5538   -0.4943 H   0  0  0  0  0  0  0  0  0  0  0  0
  1  2  1  0
  2  3  1  0
  3  4  1  0
  4  5  2  0
  4  6  1  0
  6  7  1  0
  7  8  1  0
  8  9  1  0
  9 10  1  0
 10 11  1  0
  9 12  1  0
 12 13  1  0
 13 14  1  0
 14 15  1  0
 15 16  1  0
 16 17  1  0
 16 18  1  0
 18 19  1  0
 19 20  2  0
 19 21  1  0
 21 22  2  0
 22 23  1  0
 23 24  2  0
 24 25  1  0
 25 26  2  0
 25 27  1  0
 27 28  1  0
 11  6  1  0
 17 12  1  0
 26 21  1  0
  1 29  1  0
  1 30  1  0
  1 31  1  0
  2 32  1  0
  2 33  1  0
  7 34  1  0
  7 35  1  0
  8 36  1  0
  8 37  1  0
  9 38  1  0
 10 39  1  0
 10 40  1  0
 11 41  1  0
 11 42  1  0
 13 43  1  0
 13 44  1  0
 14 45  1  0
 14 46  1  0
 15 47  1  0
 15 48  1  0
 16 49  1  1
 17 50  1  0
 17 51  1  0
 18 52  1  0
 22 53  1  0
 23 54  1  0
 24 55  1  0
 26 56  1  0
 28 57  1  0
 28 58  1  0
 28 59  1  0
M  END
>  <Ligand ID>  (1) 
LIG0001942

>  <Ligand>  (1) 
CHEMBL1916228

>  <SMILES>  (1) 
CCOC(=O)N1CCC(CC1)N1CCC[C@H](C1)NC(=O)c1cccc(c1)OC

>  <CID>  (1) 
57399810.0

>  <ChEMBL ID>  (1) 
nan

>  <InChiKey>  (1) 
CNCZYARBRUPEET-QGZVFWFLSA-N

>  <InChi>  (1) 
InChI=1S/C21H31N3O4/c1-3-28-21(26)23-12-9-18(10-13-23)24-11-5-7-17(15-24)22-20(25)16-6-4-8-19(14-16)27-2/h4,6,8,14,17-18H,3,5,7,9-13,15H2,1-2H3,(H,22,25)/t17-/m1/s1

>  <IUPAC Name>  (1) 
ethyl 4-[(3R)-3-[(3-methoxybenzoyl)amino]piperidin-1-yl]piperidine-1-carboxylate

$$$$
