
     RDKit          3D

 10  9  0  0  0  0  0  0  0  0999 V2000
    2.1676    0.8970   -0.4362 O   0  0  0  0  0  0  0  0  0  0  0  0
    1.2584   -0.1631   -0.4761 C   0  0  0  0  0  0  0  0  0  0  0  0
    1.3610   -1.0373   -1.3658 O   0  0  0  0  0  0  0  0  0  0  0  0
    0.1864   -0.2281    0.5414 C   0  0  0  0  0  0  0  0  0  0  0  0
   -1.1418    0.2646   -0.0379 C   0  0  0  0  0  0  0  0  0  0  0  0
    0.0088   -1.2528    0.9346 H   0  0  0  0  0  0  0  0  0  0  0  0
    0.4534    0.4103    1.4001 H   0  0  0  0  0  0  0  0  0  0  0  0
   -1.7720    0.5146    0.8325 H   0  0  0  0  0  0  0  0  0  0  0  0
   -1.5752   -0.5234   -0.6879 H   0  0  0  0  0  0  0  0  0  0  0  0
   -0.9466    1.1182   -0.7045 H   0  0  0  0  0  0  0  0  0  0  0  0
  1  2  1  0
  2  3  2  0
  2  4  1  0
  4  5  1  0
  4  6  1  0
  4  7  1  0
  5  8  1  0
  5  9  1  0
  5 10  1  0
M  CHG  1   1  -1
M  END
>  <Ligand ID>  (1) 
LIG0000452

>  <Ligand>  (1) 
propanoate

>  <SMILES>  (1) 
[O-]C(=O)CC

>  <CID>  (1) 
104745.0

>  <ChEMBL ID>  (1) 
nan

>  <InChiKey>  (1) 
XBDQKXXYIPTUBI-UHFFFAOYSA-M

>  <InChi>  (1) 
InChI=1S/C3H6O2/c1-2-3(4)5/h2H2,1H3,(H,4,5)/p-1

>  <IUPAC Name>  (1) 
propanoate

$$$$
