
     RDKit          3D

 46 48  0  0  0  0  0  0  0  0999 V2000
   10.1270    1.7689    0.4336 F   0  0  0  0  0  0  0  0  0  0  0  0
    8.9115    1.1597    0.4007 C   0  0  0  0  0  0  0  0  0  0  0  0
    7.7991    1.7120    1.0449 C   0  0  0  0  0  0  0  0  0  0  0  0
    6.5687    1.0531    0.9864 C   0  0  0  0  0  0  0  0  0  0  0  0
    6.4181   -0.1352    0.3066 C   0  0  0  0  0  0  0  0  0  0  0  0
    7.5327   -0.6673   -0.3262 C   0  0  0  0  0  0  0  0  0  0  0  0
    8.7586   -0.0322   -0.2809 C   0  0  0  0  0  0  0  0  0  0  0  0
    7.4495   -2.1831   -1.2235 Cl  0  0  0  0  0  0  0  0  0  0  0  0
    5.1455   -0.8561    0.2259 C   0  0  0  0  0  0  0  0  0  0  0  0
    4.9267   -2.0106   -0.4302 N   0  0  0  0  0  0  0  0  0  0  0  0
    3.6841   -2.3598   -0.2841 O   0  0  0  0  0  0  0  0  0  0  0  0
    3.0656   -1.4673    0.4539 C   0  0  0  0  0  0  0  0  0  0  0  0
    3.9657   -0.5224    0.7795 N   0  0  0  0  0  0  0  0  0  0  0  0
    1.6276   -1.5770    0.8069 C   0  0  0  0  0  0  0  0  0  0  0  0
    0.8419   -0.8620   -0.2812 C   0  0  0  0  0  0  0  0  0  0  0  0
   -0.6335   -1.0030    0.1197 C   0  0  0  0  0  0  0  0  0  0  0  0
   -1.4060   -0.3332   -0.8857 N   0  0  0  0  0  0  0  0  0  0  0  0
   -2.8261   -0.3035   -0.7913 C   0  0  0  0  0  0  0  0  0  0  0  0
   -3.6032   -1.2502   -1.3878 N   0  0  0  0  0  0  0  0  0  0  0  0
   -4.8501   -0.9672   -1.1285 O   0  0  0  0  0  0  0  0  0  0  0  0
   -4.9394    0.1168   -0.3918 C   0  0  0  0  0  0  0  0  0  0  0  0
   -3.6474    0.5892   -0.1437 C   0  0  0  0  0  0  0  0  0  0  0  0
   -6.2074    0.7494    0.1045 C   0  0  0  0  0  0  0  0  0  0  0  0
   -6.6535    1.7765   -0.9138 C   0  0  0  0  0  0  0  0  0  0  0  0
   -6.0107    1.3234    1.4766 C   0  0  0  0  0  0  0  0  0  0  0  0
   -7.2701   -0.3368    0.0954 C   0  0  0  0  0  0  0  0  0  0  0  0
    7.8982    2.6618    1.5945 H   0  0  0  0  0  0  0  0  0  0  0  0
    5.7193    1.4932    1.4886 H   0  0  0  0  0  0  0  0  0  0  0  0
    9.6385   -0.4612   -0.7848 H   0  0  0  0  0  0  0  0  0  0  0  0
    1.4825   -1.0233    1.7491 H   0  0  0  0  0  0  0  0  0  0  0  0
    1.3086   -2.6359    0.8741 H   0  0  0  0  0  0  0  0  0  0  0  0
    1.0165   -1.3147   -1.2766 H   0  0  0  0  0  0  0  0  0  0  0  0
    1.0974    0.1940   -0.3557 H   0  0  0  0  0  0  0  0  0  0  0  0
   -0.7984   -0.5659    1.1235 H   0  0  0  0  0  0  0  0  0  0  0  0
   -0.9109   -2.0688    0.2154 H   0  0  0  0  0  0  0  0  0  0  0  0
   -0.9780    0.1575   -1.7234 H   0  0  0  0  0  0  0  0  0  0  0  0
   -3.3381    1.4374    0.4116 H   0  0  0  0  0  0  0  0  0  0  0  0
   -6.3042    1.5079   -1.9187 H   0  0  0  0  0  0  0  0  0  0  0  0
   -7.7643    1.8291   -0.8605 H   0  0  0  0  0  0  0  0  0  0  0  0
   -6.2228    2.7761   -0.6593 H   0  0  0  0  0  0  0  0  0  0  0  0
   -5.0216    1.8089    1.5808 H   0  0  0  0  0  0  0  0  0  0  0  0
   -6.1149    0.5136    2.2361 H   0  0  0  0  0  0  0  0  0  0  0  0
   -6.7754    2.0822    1.7284 H   0  0  0  0  0  0  0  0  0  0  0  0
   -7.2946   -0.9349    1.0129 H   0  0  0  0  0  0  0  0  0  0  0  0
   -7.1427   -1.0139   -0.7720 H   0  0  0  0  0  0  0  0  0  0  0  0
   -8.2698    0.1750   -0.0283 H   0  0  0  0  0  0  0  0  0  0  0  0
  1  2  1  0
  2  3  2  0
  3  4  1  0
  4  5  2  0
  5  6  1  0
  6  7  2  0
  6  8  1  0
  5  9  1  0
  9 10  2  0
 10 11  1  0
 11 12  1  0
 12 13  2  0
 12 14  1  0
 14 15  1  0
 15 16  1  0
 16 17  1  0
 17 18  1  0
 18 19  2  0
 19 20  1  0
 20 21  1  0
 21 22  2  0
 21 23  1  0
 23 24  1  0
 23 25  1  0
 23 26  1  0
  7  2  1  0
 13  9  1  0
 22 18  1  0
  3 27  1  0
  4 28  1  0
  7 29  1  0
 14 30  1  0
 14 31  1  0
 15 32  1  0
 15 33  1  0
 16 34  1  0
 16 35  1  0
 17 36  1  0
 22 37  1  0
 24 38  1  0
 24 39  1  0
 24 40  1  0
 25 41  1  0
 25 42  1  0
 25 43  1  0
 26 44  1  0
 26 45  1  0
 26 46  1  0
M  END
>  <Ligand ID>  (1) 
LIG0003382

>  <Ligand>  (1) 
CHEMBL500670

>  <SMILES>  (1) 
Fc1ccc(c(c1)Cl)c1noc(n1)CCCNc1noc(c1)C(C)(C)C

>  <CID>  (1) 
25034208.0

>  <ChEMBL ID>  (1) 
nan

>  <InChiKey>  (1) 
ZPMCQPHGBGPKNX-UHFFFAOYSA-N

>  <InChi>  (1) 
InChI=1S/C18H20ClFN4O2/c1-18(2,3)14-10-15(23-25-14)21-8-4-5-16-22-17(24-26-16)12-7-6-11(20)9-13(12)19/h6-7,9-10H,4-5,8H2,1-3H3,(H,21,23)

>  <IUPAC Name>  (1) 
5-tert-butyl-N-[3-[3-(2-chloro-4-fluorophenyl)-1,2,4-oxadiazol-5-yl]propyl]-1,2-oxazol-3-amine

$$$$
