
     RDKit          3D

141143  0  0  0  0  0  0  0  0999 V2000
   -8.0176   -0.0248   -1.6375 C   0  0  0  0  0  0  0  0  0  0  0  0
   -8.3851   -1.0715   -0.6380 C   0  0  0  0  0  0  0  0  0  0  0  0
   -7.2887   -1.9362   -0.1218 C   0  0  1  0  0  0  0  0  0  0  0  0
   -6.2460   -1.1319    0.6211 C   0  0  2  0  0  0  0  0  0  0  0  0
   -5.6236   -0.0798   -0.1421 N   0  0  0  0  0  0  0  0  0  0  0  0
   -5.8381    1.2741    0.3155 C   0  0  0  0  0  0  0  0  0  0  0  0
   -6.5429    1.3660    1.3349 O   0  0  0  0  0  0  0  0  0  0  0  0
   -5.3158    2.4875   -0.2990 C   0  0  1  0  0  0  0  0  0  0  0  0
   -4.4695    2.1679   -1.4287 N   0  0  0  0  0  0  0  0  0  0  0  0
   -3.0661    2.5359   -1.4415 C   0  0  0  0  0  0  0  0  0  0  0  0
   -2.6662    3.0443   -0.3905 O   0  0  0  0  0  0  0  0  0  0  0  0
   -2.2027    2.3079   -2.6280 C   0  0  0  0  0  0  0  0  0  0  0  0
   -0.7492    2.6746   -2.2808 C   0  0  0  0  0  0  0  0  0  0  0  0
   -0.3639    1.6270   -0.8240 S   0  0  0  0  0  0  0  0  0  0  0  0
   -0.4219   -0.3610   -1.5286 S   0  0  0  0  0  0  0  0  0  0  0  0
    1.2834   -0.8230   -2.0346 C   0  0  0  0  0  0  0  0  0  0  0  0
    2.0672   -0.8798   -0.7930 C   0  0  2  0  0  0  0  0  0  0  0  0
    1.2023   -1.6922    0.1323 N   0  0  0  0  0  0  0  0  0  0  0  0
    1.7029   -2.1456    1.3837 C   0  0  0  0  0  0  0  0  0  0  0  0
    2.9023   -1.9053    1.5908 O   0  0  0  0  0  0  0  0  0  0  0  0
    0.8172   -2.8565    2.3725 C   0  0  1  0  0  0  0  0  0  0  0  0
   -0.4269   -3.2876    1.7975 N   0  0  0  0  0  0  0  0  0  0  0  0
   -1.5795   -2.4389    1.6278 C   0  0  0  0  0  0  0  0  0  0  0  0
   -1.3770   -1.2618    1.9695 O   0  0  0  0  0  0  0  0  0  0  0  0
   -2.8313   -2.9856    1.0906 C   0  0  1  0  0  0  0  0  0  0  0  0
   -3.8085   -2.0118    0.6497 N   0  0  0  0  0  0  0  0  0  0  0  0
   -5.1805   -2.0995    1.1060 C   0  0  0  0  0  0  0  0  0  0  0  0
   -5.3831   -3.0154    1.8982 O   0  0  0  0  0  0  0  0  0  0  0  0
   -2.6027   -4.1060    0.0991 C   0  0  0  0  0  0  0  0  0  0  0  0
   -3.9289   -4.6421   -0.4233 C   0  0  0  0  0  0  0  0  0  0  0  0
   -3.6086   -5.7668   -1.3698 C   0  0  0  0  0  0  0  0  0  0  0  0
   -2.4350   -6.1508   -1.5881 O   0  0  0  0  0  0  0  0  0  0  0  0
   -4.7137   -6.3938   -2.0217 N   0  0  0  0  0  0  0  0  0  0  0  0
    1.5720   -3.9219    3.0516 C   0  0  0  0  0  0  0  0  0  0  0  0
    0.7756   -4.6684    4.0492 C   0  0  0  0  0  0  0  0  0  0  0  0
   -0.4388   -4.3079    4.2215 O   0  0  0  0  0  0  0  0  0  0  0  0
    1.2678   -5.7486    4.8234 N   0  0  0  0  0  0  0  0  0  0  0  0
    2.3951    0.3577   -0.0963 C   0  0  0  0  0  0  0  0  0  0  0  0
    1.8958    0.4289    1.1129 O   0  0  0  0  0  0  0  0  0  0  0  0
    3.1442    1.4833   -0.4441 N   0  0  0  0  0  0  0  0  0  0  0  0
    3.3375    2.4167    0.6982 C   0  0  0  0  0  0  0  0  0  0  0  0
    4.5056    2.0543    1.5362 C   0  0  0  0  0  0  0  0  0  0  0  0
    4.8735    2.7037    2.5539 O   0  0  0  0  0  0  0  0  0  0  0  0
    5.3271    0.8958    1.2398 N   0  0  0  0  0  0  0  0  0  0  0  0
    6.4631    0.5319    2.0496 C   0  0  2  0  0  0  0  0  0  0  0  0
    7.6435    1.4097    1.6875 C   0  0  0  0  0  0  0  0  0  0  0  0
    8.7275    1.0725    2.2343 O   0  0  0  0  0  0  0  0  0  0  0  0
    7.5395    2.5099    0.8139 N   0  0  0  0  0  0  0  0  0  0  0  0
    8.6835    3.3105    0.4885 C   0  0  0  0  0  0  0  0  0  0  0  0
    9.6688    2.4194   -0.1793 C   0  0  0  0  0  0  0  0  0  0  0  0
    9.5009    1.2103   -0.3969 O   0  0  0  0  0  0  0  0  0  0  0  0
   10.9019    3.0459   -0.5906 N   0  0  0  0  0  0  0  0  0  0  0  0
    6.8515   -0.8861    2.0972 C   0  0  0  0  0  0  0  0  0  0  0  0
    7.2887   -1.5695    0.8650 C   0  0  0  0  0  0  0  0  0  0  0  0
    7.6342   -3.0183    1.2858 C   0  0  0  0  0  0  0  0  0  0  0  0
    6.2905   -1.7219   -0.2397 C   0  0  0  0  0  0  0  0  0  0  0  0
    3.6448    1.9255   -1.6949 C   0  0  0  0  0  0  0  0  0  0  0  0
    4.9578    1.4169   -2.1741 C   0  0  0  0  0  0  0  0  0  0  0  0
    5.3624    2.0422   -3.4706 C   0  0  0  0  0  0  0  0  0  0  0  0
    4.9862    1.5789   -4.7001 C   0  0  0  0  0  0  0  0  0  0  0  0
    5.4277    2.2365   -5.8249 C   0  0  0  0  0  0  0  0  0  0  0  0
    6.2106    3.3097   -5.7222 N   0  0  0  0  0  0  0  0  0  0  0  0
    6.6010    3.7917   -4.5189 C   0  0  0  0  0  0  0  0  0  0  0  0
    6.1845    3.1651   -3.3452 C   0  0  0  0  0  0  0  0  0  0  0  0
   -6.3786    3.4989   -0.7147 C   0  0  0  0  0  0  0  0  0  0  0  0
   -7.1618    3.9715    0.4353 C   0  0  0  0  0  0  0  0  0  0  0  0
   -8.3339    3.4149    0.8891 C   0  0  0  0  0  0  0  0  0  0  0  0
   -9.0349    3.8959    1.9833 C   0  0  0  0  0  0  0  0  0  0  0  0
   -8.5568    4.9846    2.6682 C   0  0  0  0  0  0  0  0  0  0  0  0
   -7.3850    5.5736    2.2469 C   0  0  0  0  0  0  0  0  0  0  0  0
   -6.6820    5.0837    1.1426 C   0  0  0  0  0  0  0  0  0  0  0  0
   -9.2912    5.4305    3.7546 O   0  0  0  0  0  0  0  0  0  0  0  0
   -7.9630   -2.8374    0.9358 C   0  0  0  0  0  0  0  0  0  0  0  0
   -8.7273   -0.0826   -2.5464 H   0  0  0  0  0  0  0  0  0  0  0  0
   -8.2184    0.9984   -1.2562 H   0  0  0  0  0  0  0  0  0  0  0  0
   -7.0318   -0.1249   -2.1017 H   0  0  0  0  0  0  0  0  0  0  0  0
   -8.9359   -0.5625    0.2239 H   0  0  0  0  0  0  0  0  0  0  0  0
   -9.2186   -1.6948   -1.0877 H   0  0  0  0  0  0  0  0  0  0  0  0
   -6.7936   -2.5450   -0.8775 H   0  0  0  0  0  0  0  0  0  0  0  0
   -6.7445   -0.7653    1.5334 H   0  0  0  0  0  0  0  0  0  0  0  0
   -5.0375   -0.1517   -0.9595 H   0  0  0  0  0  0  0  0  0  0  0  0
   -4.6716    3.0181    0.4518 H   0  0  0  0  0  0  0  0  0  0  0  0
   -4.7631    1.6714   -2.2749 H   0  0  0  0  0  0  0  0  0  0  0  0
   -2.2588    1.3289   -3.0719 H   0  0  0  0  0  0  0  0  0  0  0  0
   -2.4658    3.0820   -3.4251 H   0  0  0  0  0  0  0  0  0  0  0  0
   -0.0813    2.3754   -3.0930 H   0  0  0  0  0  0  0  0  0  0  0  0
   -0.6600    3.7295   -2.0041 H   0  0  0  0  0  0  0  0  0  0  0  0
    1.2525   -1.8073   -2.5759 H   0  0  0  0  0  0  0  0  0  0  0  0
    1.6083   -0.0149   -2.7036 H   0  0  0  0  0  0  0  0  0  0  0  0
    3.0507   -1.4174   -0.8725 H   0  0  0  0  0  0  0  0  0  0  0  0
    0.2541   -1.9529   -0.0931 H   0  0  0  0  0  0  0  0  0  0  0  0
    0.6194   -2.0073    3.1117 H   0  0  0  0  0  0  0  0  0  0  0  0
   -0.5276   -4.2395    1.4822 H   0  0  0  0  0  0  0  0  0  0  0  0
   -3.2765   -3.5663    1.9903 H   0  0  0  0  0  0  0  0  0  0  0  0
   -3.6357   -1.2331    0.0238 H   0  0  0  0  0  0  0  0  0  0  0  0
   -2.1061   -4.9794    0.5626 H   0  0  0  0  0  0  0  0  0  0  0  0
   -1.9655   -3.7303   -0.7089 H   0  0  0  0  0  0  0  0  0  0  0  0
   -4.4971   -5.1269    0.4012 H   0  0  0  0  0  0  0  0  0  0  0  0
   -4.5135   -3.8544   -0.8948 H   0  0  0  0  0  0  0  0  0  0  0  0
   -5.6998   -6.2492   -1.7271 H   0  0  0  0  0  0  0  0  0  0  0  0
   -4.5309   -7.0239   -2.8293 H   0  0  0  0  0  0  0  0  0  0  0  0
    2.0535   -4.6531    2.3577 H   0  0  0  0  0  0  0  0  0  0  0  0
    2.4649   -3.4726    3.5920 H   0  0  0  0  0  0  0  0  0  0  0  0
    1.3717   -5.6511    5.8657 H   0  0  0  0  0  0  0  0  0  0  0  0
    1.5408   -6.6711    4.4016 H   0  0  0  0  0  0  0  0  0  0  0  0
    3.5504    3.4304    0.3058 H   0  0  0  0  0  0  0  0  0  0  0  0
    2.4598    2.3910    1.3664 H   0  0  0  0  0  0  0  0  0  0  0  0
    4.9949    0.3553    0.4130 H   0  0  0  0  0  0  0  0  0  0  0  0
    6.2343    0.8963    3.0959 H   0  0  0  0  0  0  0  0  0  0  0  0
    6.6041    2.7308    0.4130 H   0  0  0  0  0  0  0  0  0  0  0  0
    8.3657    4.1557   -0.1381 H   0  0  0  0  0  0  0  0  0  0  0  0
    9.1378    3.6646    1.4510 H   0  0  0  0  0  0  0  0  0  0  0  0
   10.8734    3.8213   -1.2957 H   0  0  0  0  0  0  0  0  0  0  0  0
   11.8139    2.7049   -0.1662 H   0  0  0  0  0  0  0  0  0  0  0  0
    7.6828   -0.9853    2.8412 H   0  0  0  0  0  0  0  0  0  0  0  0
    5.9580   -1.4524    2.5037 H   0  0  0  0  0  0  0  0  0  0  0  0
    8.2674   -1.1726    0.4890 H   0  0  0  0  0  0  0  0  0  0  0  0
    6.6666   -3.5632    1.2590 H   0  0  0  0  0  0  0  0  0  0  0  0
    8.3023   -3.4022    0.4878 H   0  0  0  0  0  0  0  0  0  0  0  0
    8.1131   -3.0007    2.2730 H   0  0  0  0  0  0  0  0  0  0  0  0
    6.6218   -2.6079   -0.8652 H   0  0  0  0  0  0  0  0  0  0  0  0
    5.3003   -1.9468    0.1451 H   0  0  0  0  0  0  0  0  0  0  0  0
    6.3618   -0.8678   -0.9538 H   0  0  0  0  0  0  0  0  0  0  0  0
    3.7782    3.0762   -1.6538 H   0  0  0  0  0  0  0  0  0  0  0  0
    2.9330    1.8257   -2.5535 H   0  0  0  0  0  0  0  0  0  0  0  0
    5.8010    1.5170   -1.4741 H   0  0  0  0  0  0  0  0  0  0  0  0
    4.8709    0.3126   -2.4014 H   0  0  0  0  0  0  0  0  0  0  0  0
    4.3449    0.7016   -4.7633 H   0  0  0  0  0  0  0  0  0  0  0  0
    5.1369    1.8799   -6.7885 H   0  0  0  0  0  0  0  0  0  0  0  0
    7.2370    4.6604   -4.4141 H   0  0  0  0  0  0  0  0  0  0  0  0
    6.4883    3.5358   -2.3733 H   0  0  0  0  0  0  0  0  0  0  0  0
   -5.8001    4.3382   -1.1868 H   0  0  0  0  0  0  0  0  0  0  0  0
   -6.9964    3.0408   -1.5036 H   0  0  0  0  0  0  0  0  0  0  0  0
   -8.7633    2.5716    0.3813 H   0  0  0  0  0  0  0  0  0  0  0  0
   -9.9407    3.4105    2.2888 H   0  0  0  0  0  0  0  0  0  0  0  0
   -7.0135    6.4293    2.7874 H   0  0  0  0  0  0  0  0  0  0  0  0
   -5.7559    5.5432    0.8046 H   0  0  0  0  0  0  0  0  0  0  0  0
  -10.2770    5.6388    3.5916 H   0  0  0  0  0  0  0  0  0  0  0  0
   -7.5667   -2.6685    1.9311 H   0  0  0  0  0  0  0  0  0  0  0  0
   -9.0664   -2.5973    1.0115 H   0  0  0  0  0  0  0  0  0  0  0  0
   -7.9128   -3.9020    0.6460 H   0  0  0  0  0  0  0  0  0  0  0  0
  1  2  1  0
  2  3  1  0
  3  4  1  0
  4  5  1  0
  5  6  1  0
  6  7  2  0
  6  8  1  0
  8  9  1  0
  9 10  1  0
 10 11  2  0
 10 12  1  0
 12 13  1  0
 13 14  1  0
 14 15  1  0
 15 16  1  0
 16 17  1  0
 17 18  1  0
 18 19  1  0
 19 20  2  0
 19 21  1  0
 21 22  1  0
 22 23  1  0
 23 24  2  0
 23 25  1  0
 25 26  1  0
 26 27  1  0
 27 28  2  0
 25 29  1  0
 29 30  1  0
 30 31  1  0
 31 32  2  0
 31 33  1  0
 21 34  1  0
 34 35  1  0
 35 36  2  0
 35 37  1  0
 17 38  1  0
 38 39  2  0
 38 40  1  0
 40 41  1  0
 41 42  1  0
 42 43  2  0
 42 44  1  0
 44 45  1  0
 45 46  1  0
 46 47  2  0
 46 48  1  0
 48 49  1  0
 49 50  1  0
 50 51  2  0
 50 52  1  0
 45 53  1  0
 53 54  1  0
 54 55  1  0
 54 56  1  0
 40 57  1  0
 57 58  1  0
 58 59  1  0
 59 60  2  0
 60 61  1  0
 61 62  2  0
 62 63  1  0
 63 64  2  0
  8 65  1  0
 65 66  1  0
 66 67  2  0
 67 68  1  0
 68 69  2  0
 69 70  1  0
 70 71  2  0
 69 72  1  0
  3 73  1  0
 27  4  1  0
 64 59  1  0
 71 66  1  0
  1 74  1  0
  1 75  1  0
  1 76  1  0
  2 77  1  0
  2 78  1  0
  3 79  1  6
  4 80  1  1
  5 81  1  0
  8 82  1  1
  9 83  1  0
 12 84  1  0
 12 85  1  0
 13 86  1  0
 13 87  1  0
 16 88  1  0
 16 89  1  0
 17 90  1  6
 18 91  1  0
 21 92  1  1
 22 93  1  0
 25 94  1  1
 26 95  1  0
 29 96  1  0
 29 97  1  0
 30 98  1  0
 30 99  1  0
 33100  1  0
 33101  1  0
 34102  1  0
 34103  1  0
 37104  1  0
 37105  1  0
 41106  1  0
 41107  1  0
 44108  1  0
 45109  1  1
 48110  1  0
 49111  1  0
 49112  1  0
 52113  1  0
 52114  1  0
 53115  1  0
 53116  1  0
 54117  1  0
 55118  1  0
 55119  1  0
 55120  1  0
 56121  1  0
 56122  1  0
 56123  1  0
 57124  1  0
 57125  1  0
 58126  1  0
 58127  1  0
 60128  1  0
 61129  1  0
 63130  1  0
 64131  1  0
 65132  1  0
 65133  1  0
 67134  1  0
 68135  1  0
 70136  1  0
 71137  1  0
 72138  1  0
 73139  1  0
 73140  1  0
 73141  1  0
M  END
>  <Ligand ID>  (1) 
LIG0001647

>  <Ligand>  (1) 
CHEMBL3353955

>  <SMILES>  (1) 
CC[C@@H]([C@@H]1NC(=O)[C@@H](NC(=O)CCSSC[C@H](NC(=O)[C@@H](NC(=O)[C@@H](NC1=O)CCC(=O)N)CC(=O)N)C(=O)N(CC(=O)N[C@H](C(=O)NCC(=O)N)CC(C)C)CCc1ccncc1)Cc1ccc(cc1)O)C

>  <CID>  (1) 
118719844.0

>  <ChEMBL ID>  (1) 
nan

>  <InChiKey>  (1) 
DJUWRCYKBXNLDA-SJMOYVGOSA-N

>  <InChi>  (1) 
InChI=1S/C47H68N12O12S2/c1-5-27(4)41-46(70)55-31(10-11-36(48)61)43(67)56-34(22-37(49)62)44(68)57-35(25-73-72-19-15-39(64)53-33(45(69)58-41)21-29-6-8-30(60)9-7-29)47(71)59(18-14-28-12-16-51-17-13-28)24-40(65)54-32(20-26(2)3)42(66)52-23-38(50)63/h6-9,12-13,16-17,26-27,31-35,41,60H,5,10-11,14-15,18-25H2,1-4H3,(H2,48,61)(H2,49,62)(H2,50,63)(H,52,66)(H,53,64)(H,54,65)(H,55,70)(H,56,67)(H,57,68)(H,58,69)/t27-,31-,32-,33-,34-,35-,41-/m0/s1

>  <IUPAC Name>  (1) 
(4R,7S,10S,13S,16S)-7-(2-amino-2-oxoethyl)-N-[2-[[(2S)-1-[(2-amino-2-oxoethyl)amino]-4-methyl-1-oxopentan-2-yl]amino]-2-oxoethyl]-10-(3-amino-3-oxopropyl)-13-[(2S)-butan-2-yl]-16-[(4-hydroxyphenyl)methyl]-6,9,12,15,18-pentaoxo-N-(2-pyridin-4-ylethyl)-1,2-dithia-5,8,11,14,17-pentazacycloicosane-4-carboxamide

$$$$
