
     RDKit          3D

 26 25  0  0  0  0  0  0  0  0999 V2000
   -4.2788    1.3946   -0.6586 O   0  0  0  0  0  0  0  0  0  0  0  0
   -4.1493    0.1885   -0.5452 C   0  0  0  0  0  0  0  0  0  0  0  0
   -2.9487   -0.4075    0.1249 C   0  0  0  0  0  0  0  0  0  0  0  0
   -1.9973    0.6497    0.6009 C   0  0  0  0  0  0  0  0  0  0  0  0
   -0.7834    0.0965    1.2768 C   0  0  0  0  0  0  0  0  0  0  0  0
    0.0857   -0.8035    0.4762 C   0  0  0  0  0  0  0  0  0  0  0  0
    0.6536   -0.2060   -0.7323 C   0  0  0  0  0  0  0  0  0  0  0  0
    1.9541   -0.0750   -0.9867 C   0  0  0  0  0  0  0  0  0  0  0  0
    3.0344   -0.5078   -0.0977 C   0  0  0  0  0  0  0  0  0  0  0  0
    3.8574    0.7196    0.2571 C   0  0  0  0  0  0  0  0  0  0  0  0
   -4.9110   -0.4404   -0.9342 H   0  0  0  0  0  0  0  0  0  0  0  0
   -2.4667   -1.0839   -0.6326 H   0  0  0  0  0  0  0  0  0  0  0  0
   -3.2931   -1.0479    0.9596 H   0  0  0  0  0  0  0  0  0  0  0  0
   -1.8222    1.3466   -0.2159 H   0  0  0  0  0  0  0  0  0  0  0  0
   -2.5410    1.2312    1.3764 H   0  0  0  0  0  0  0  0  0  0  0  0
   -0.1885    0.8862    1.7720 H   0  0  0  0  0  0  0  0  0  0  0  0
   -1.1783   -0.5370    2.1253 H   0  0  0  0  0  0  0  0  0  0  0  0
    0.7822   -1.2900    1.1426 H   0  0  0  0  0  0  0  0  0  0  0  0
   -0.5829   -1.6396    0.1093 H   0  0  0  0  0  0  0  0  0  0  0  0
   -0.0600    0.1641   -1.4908 H   0  0  0  0  0  0  0  0  0  0  0  0
    2.2376    0.3935   -1.9360 H   0  0  0  0  0  0  0  0  0  0  0  0
    3.7081   -1.1616   -0.7276 H   0  0  0  0  0  0  0  0  0  0  0  0
    2.7733   -1.0965    0.7576 H   0  0  0  0  0  0  0  0  0  0  0  0
    3.2937    1.6645    0.0027 H   0  0  0  0  0  0  0  0  0  0  0  0
    4.7806    0.7829   -0.3414 H   0  0  0  0  0  0  0  0  0  0  0  0
    4.0406    0.7787    1.3536 H   0  0  0  0  0  0  0  0  0  0  0  0
  1  2  2  0
  2  3  1  0
  3  4  1  0
  4  5  1  0
  5  6  1  0
  6  7  1  0
  7  8  2  0
  8  9  1  0
  9 10  1  0
  2 11  1  0
  3 12  1  0
  3 13  1  0
  4 14  1  0
  4 15  1  0
  5 16  1  0
  5 17  1  0
  6 18  1  0
  6 19  1  0
  7 20  1  0
  8 21  1  0
  9 22  1  0
  9 23  1  0
 10 24  1  0
 10 25  1  0
 10 26  1  0
M  END
>  <Ligand ID>  (1) 
LIG0000202

>  <Ligand>  (1) 
cis-6-Nonenal

>  <SMILES>  (1) 
O=CCCCC/C=C\CC

>  <CID>  (1) 
5362720.0

>  <ChEMBL ID>  (1) 
nan

>  <InChiKey>  (1) 
RTNPCOBSXBGDMO-ARJAWSKDSA-N

>  <InChi>  (1) 
InChI=1S/C9H16O/c1-2-3-4-5-6-7-8-9-10/h3-4,9H,2,5-8H2,1H3/b4-3-

>  <IUPAC Name>  (1) 
(Z)-non-6-enal

$$$$
