
     RDKit          3D

 34 35  0  0  0  0  0  0  0  0999 V2000
    5.4586    0.0602   -0.1304 C   0  0  0  0  0  0  0  0  0  0  0  0
    4.0177   -0.3833    0.1067 C   0  0  0  0  0  0  0  0  0  0  0  0
    3.0967    0.5768   -0.2851 O   0  0  0  0  0  0  0  0  0  0  0  0
    1.7186    0.5021   -0.2111 C   0  0  0  0  0  0  0  0  0  0  0  0
    1.0141   -0.5575    0.2730 C   0  0  0  0  0  0  0  0  0  0  0  0
   -0.3831   -0.5690    0.3200 C   0  0  0  0  0  0  0  0  0  0  0  0
   -0.9031   -1.8248    0.8844 C   0  0  0  0  0  0  0  0  0  0  0  0
   -2.1752   -2.3392    0.3660 C   0  0  0  0  0  0  0  0  0  0  0  0
   -3.0728   -1.4443   -0.2641 N   0  0  0  0  0  0  0  0  0  0  0  0
   -3.2794   -0.2281    0.5011 C   0  0  0  0  0  0  0  0  0  0  0  0
   -2.4950    0.8320   -0.2287 C   0  0  0  0  0  0  0  0  0  0  0  0
   -1.0495    0.5500   -0.1489 C   0  0  0  0  0  0  0  0  0  0  0  0
   -0.3591    1.6562   -0.6530 C   0  0  0  0  0  0  0  0  0  0  0  0
    1.0209    1.6208   -0.6790 C   0  0  0  0  0  0  0  0  0  0  0  0
    1.9758    3.1430   -1.3728 Br  0  0  0  0  0  0  0  0  0  0  0  0
   -2.8702    2.2043    0.2505 C   0  0  0  0  0  0  0  0  0  0  0  0
    5.5294    1.1668   -0.2599 H   0  0  0  0  0  0  0  0  0  0  0  0
    6.1298   -0.1949    0.7143 H   0  0  0  0  0  0  0  0  0  0  0  0
    5.8536   -0.4434   -1.0301 H   0  0  0  0  0  0  0  0  0  0  0  0
    3.9490   -0.4911    1.2239 H   0  0  0  0  0  0  0  0  0  0  0  0
    3.8842   -1.3937   -0.3114 H   0  0  0  0  0  0  0  0  0  0  0  0
    1.5599   -1.4239    0.6352 H   0  0  0  0  0  0  0  0  0  0  0  0
   -0.1134   -2.6050    0.6799 H   0  0  0  0  0  0  0  0  0  0  0  0
   -0.8815   -1.7590    2.0103 H   0  0  0  0  0  0  0  0  0  0  0  0
   -2.7355   -2.7853    1.2402 H   0  0  0  0  0  0  0  0  0  0  0  0
   -2.0410   -3.2143   -0.3223 H   0  0  0  0  0  0  0  0  0  0  0  0
   -2.8666   -1.2501   -1.2553 H   0  0  0  0  0  0  0  0  0  0  0  0
   -4.3644    0.0635    0.4655 H   0  0  0  0  0  0  0  0  0  0  0  0
   -2.9578   -0.3425    1.5569 H   0  0  0  0  0  0  0  0  0  0  0  0
   -2.8098    0.7527   -1.2993 H   0  0  0  0  0  0  0  0  0  0  0  0
   -0.8916    2.5176   -1.0134 H   0  0  0  0  0  0  0  0  0  0  0  0
   -3.9134    2.1870    0.6632 H   0  0  0  0  0  0  0  0  0  0  0  0
   -2.8411    2.9408   -0.5772 H   0  0  0  0  0  0  0  0  0  0  0  0
   -2.2048    2.4756    1.0793 H   0  0  0  0  0  0  0  0  0  0  0  0
  1  2  1  0
  2  3  1  0
  3  4  1  0
  4  5  2  0
  5  6  1  0
  6  7  1  0
  7  8  1  0
  8  9  1  0
  9 10  1  0
 10 11  1  0
 11 12  1  0
 12 13  1  0
 13 14  2  0
 14 15  1  0
 11 16  1  0
 14  4  1  0
 12  6  2  0
  1 17  1  0
  1 18  1  0
  1 19  1  0
  2 20  1  0
  2 21  1  0
  5 22  1  0
  7 23  1  0
  7 24  1  0
  8 25  1  0
  8 26  1  0
  9 27  1  0
 10 28  1  0
 10 29  1  0
 11 30  1  0
 13 31  1  0
 16 32  1  0
 16 33  1  0
 16 34  1  0
M  END
>  <Ligand ID>  (1) 
LIG0004472

>  <Ligand>  (1) 
CHEMBL360968

>  <SMILES>  (1) 
CCOc1cc2CCNCC(c2cc1Br)C

>  <CID>  (1) 
10401602.0

>  <ChEMBL ID>  (1) 
nan

>  <InChiKey>  (1) 
LQGCCOADXMPGTL-UHFFFAOYSA-N

>  <InChi>  (1) 
InChI=1S/C13H18BrNO/c1-3-16-13-6-10-4-5-15-8-9(2)11(10)7-12(13)14/h6-7,9,15H,3-5,8H2,1-2H3

>  <IUPAC Name>  (1) 
7-bromo-8-ethoxy-5-methyl-2,3,4,5-tetrahydro-1H-3-benzazepine

$$$$
