
     RDKit          3D

 25 27  0  0  0  0  0  0  0  0999 V2000
   -3.3396   -0.6715   -0.5067 C   0  0  0  0  0  0  0  0  0  0  0  0
   -2.2872    0.3387   -0.2760 C   0  0  0  0  0  0  0  0  0  0  0  0
   -2.5991    1.6843   -0.0990 C   0  0  0  0  0  0  0  0  0  0  0  0
   -1.5937    2.5860    0.1119 C   0  0  0  0  0  0  0  0  0  0  0  0
   -0.3291    2.1412    0.1417 N   0  0  0  0  0  0  0  0  0  0  0  0
    0.0138    0.8672   -0.0222 C   0  0  0  0  0  0  0  0  0  0  0  0
   -0.9666   -0.0789   -0.2379 C   0  0  0  0  0  0  0  0  0  0  0  0
   -0.6922   -1.4230   -0.4175 C   0  0  0  0  0  0  0  0  0  0  0  0
    0.6219   -1.8457   -0.3806 C   0  0  0  0  0  0  0  0  0  0  0  0
    1.6119   -0.9207   -0.1674 C   0  0  0  0  0  0  0  0  0  0  0  0
    1.3214    0.4343    0.0126 C   0  0  0  0  0  0  0  0  0  0  0  0
    2.3157    1.3270    0.2213 N   0  0  0  0  0  0  0  0  0  0  0  0
    3.6203    0.9321    0.2615 C   0  0  0  0  0  0  0  0  0  0  0  0
    3.9257   -0.4032    0.0856 C   0  0  0  0  0  0  0  0  0  0  0  0
    2.9251   -1.3240   -0.1278 C   0  0  0  0  0  0  0  0  0  0  0  0
   -3.2461   -1.0666   -1.5527 H   0  0  0  0  0  0  0  0  0  0  0  0
   -3.3686   -1.4909    0.2206 H   0  0  0  0  0  0  0  0  0  0  0  0
   -4.3386   -0.1601   -0.4450 H   0  0  0  0  0  0  0  0  0  0  0  0
   -3.6618    1.9728   -0.1368 H   0  0  0  0  0  0  0  0  0  0  0  0
   -1.8401    3.6431    0.2508 H   0  0  0  0  0  0  0  0  0  0  0  0
   -1.4574   -2.1410   -0.5827 H   0  0  0  0  0  0  0  0  0  0  0  0
    0.8495   -2.9118   -0.5223 H   0  0  0  0  0  0  0  0  0  0  0  0
    4.4165    1.6495    0.4290 H   0  0  0  0  0  0  0  0  0  0  0  0
    4.9648   -0.7480    0.1131 H   0  0  0  0  0  0  0  0  0  0  0  0
    3.1336   -2.3908   -0.2710 H   0  0  0  0  0  0  0  0  0  0  0  0
  1  2  1  0
  2  3  2  0
  3  4  1  0
  4  5  2  0
  5  6  1  0
  6  7  2  0
  7  8  1  0
  8  9  2  0
  9 10  1  0
 10 11  2  0
 11 12  1  0
 12 13  2  0
 13 14  1  0
 14 15  2  0
  7  2  1  0
 15 10  1  0
 11  6  1  0
  1 16  1  0
  1 17  1  0
  1 18  1  0
  3 19  1  0
  4 20  1  0
  8 21  1  0
  9 22  1  0
 13 23  1  0
 14 24  1  0
 15 25  1  0
M  END
>  <Ligand ID>  (1) 
LIG0003696

>  <Ligand>  (1) 
4-Methyl-1,10-phenanthroline

>  <SMILES>  (1) 
Cc1ccnc2c1ccc1c2nccc1

>  <CID>  (1) 
93149.0

>  <ChEMBL ID>  (1) 
nan

>  <InChiKey>  (1) 
NAZZKEZTSOOCSZ-UHFFFAOYSA-N

>  <InChi>  (1) 
InChI=1S/C13H10N2/c1-9-6-8-15-13-11(9)5-4-10-3-2-7-14-12(10)13/h2-8H,1H3

>  <IUPAC Name>  (1) 
4-methyl-1,10-phenanthroline

$$$$
