
     RDKit          3D

 58 60  0  0  0  0  0  0  0  0999 V2000
   -8.3051    1.4009    0.5357 C   0  0  0  0  0  0  0  0  0  0  0  0
   -7.8222    0.1737   -0.2372 C   0  0  0  0  0  0  0  0  0  0  0  0
   -6.4130    0.1996   -0.1986 O   0  0  0  0  0  0  0  0  0  0  0  0
   -5.5666   -0.7281   -0.7682 C   0  0  0  0  0  0  0  0  0  0  0  0
   -6.0395   -1.7070   -1.3906 O   0  0  0  0  0  0  0  0  0  0  0  0
   -4.1617   -0.5046   -0.6049 N   0  0  0  0  0  0  0  0  0  0  0  0
   -3.6875    0.6630    0.1184 C   0  0  0  0  0  0  0  0  0  0  0  0
   -2.5139    0.4228    0.9640 C   0  0  0  0  0  0  0  0  0  0  0  0
   -1.5031   -0.5745    0.5616 C   0  0  0  0  0  0  0  0  0  0  0  0
   -2.2760   -1.8039    0.0342 C   0  0  0  0  0  0  0  0  0  0  0  0
   -3.1477   -1.3923   -1.1312 C   0  0  0  0  0  0  0  0  0  0  0  0
   -0.5527   -0.1434   -0.4307 N   0  0  0  0  0  0  0  0  0  0  0  0
   -0.4310    1.2798   -0.5387 C   0  0  0  0  0  0  0  0  0  0  0  0
    0.3509    1.7950    0.6439 C   0  0  0  0  0  0  0  0  0  0  0  0
    1.8032    1.6980    0.1466 C   0  0  0  0  0  0  0  0  0  0  0  0
    1.8683    0.3073   -0.4779 C   0  0  2  0  0  0  0  0  0  0  0  0
    0.7918   -0.6122   -0.0570 C   0  0  0  0  0  0  0  0  0  0  0  0
    3.1571   -0.1907   -0.0510 N   0  0  0  0  0  0  0  0  0  0  0  0
    4.1744   -0.5847   -0.9743 C   0  0  0  0  0  0  0  0  0  0  0  0
    3.9935   -0.5455   -2.2185 O   0  0  0  0  0  0  0  0  0  0  0  0
    5.4406   -1.0273   -0.4020 C   0  0  0  0  0  0  0  0  0  0  0  0
    5.8876   -2.3155   -0.3719 C   0  0  0  0  0  0  0  0  0  0  0  0
    7.1349   -2.5351    0.2040 C   0  0  0  0  0  0  0  0  0  0  0  0
    7.9053   -1.5140    0.7288 C   0  0  0  0  0  0  0  0  0  0  0  0
    7.4524   -0.2183    0.6972 C   0  0  0  0  0  0  0  0  0  0  0  0
    6.2278    0.0132    0.1337 C   0  0  0  0  0  0  0  0  0  0  0  0
    5.7130    1.4308    0.0960 C   0  0  0  0  0  0  0  0  0  0  0  0
   -9.1140    1.1568    1.2491 H   0  0  0  0  0  0  0  0  0  0  0  0
   -7.4857    1.8482    1.1310 H   0  0  0  0  0  0  0  0  0  0  0  0
   -8.6622    2.1910   -0.1604 H   0  0  0  0  0  0  0  0  0  0  0  0
   -8.1824    0.3038   -1.2709 H   0  0  0  0  0  0  0  0  0  0  0  0
   -8.2676   -0.6958    0.2715 H   0  0  0  0  0  0  0  0  0  0  0  0
   -4.5590    0.9705    0.7761 H   0  0  0  0  0  0  0  0  0  0  0  0
   -3.6485    1.4681   -0.6258 H   0  0  0  0  0  0  0  0  0  0  0  0
   -2.0598    1.4193    1.2137 H   0  0  0  0  0  0  0  0  0  0  0  0
   -2.8992    0.0849    1.9771 H   0  0  0  0  0  0  0  0  0  0  0  0
   -0.9529   -0.9404    1.4320 H   0  0  0  0  0  0  0  0  0  0  0  0
   -1.5901   -2.6111   -0.2837 H   0  0  0  0  0  0  0  0  0  0  0  0
   -2.9267   -2.1112    0.8772 H   0  0  0  0  0  0  0  0  0  0  0  0
   -3.5567   -2.2611   -1.6519 H   0  0  0  0  0  0  0  0  0  0  0  0
   -2.4953   -0.8080   -1.8187 H   0  0  0  0  0  0  0  0  0  0  0  0
   -1.3347    1.8593   -0.6364 H   0  0  0  0  0  0  0  0  0  0  0  0
    0.1245    1.4464   -1.5120 H   0  0  0  0  0  0  0  0  0  0  0  0
    0.2941    1.1094    1.4904 H   0  0  0  0  0  0  0  0  0  0  0  0
    0.1002    2.8455    0.9019 H   0  0  0  0  0  0  0  0  0  0  0  0
    1.8805    2.4356   -0.6778 H   0  0  0  0  0  0  0  0  0  0  0  0
    2.5376    1.8793    0.9206 H   0  0  0  0  0  0  0  0  0  0  0  0
    1.8407    0.3749   -1.6016 H   0  0  0  0  0  0  0  0  0  0  0  0
    0.9677   -1.5823   -0.5502 H   0  0  0  0  0  0  0  0  0  0  0  0
    0.7766   -0.8024    1.0323 H   0  0  0  0  0  0  0  0  0  0  0  0
    3.3063   -0.2441    1.0008 H   0  0  0  0  0  0  0  0  0  0  0  0
    5.2770   -3.0979   -0.7811 H   0  0  0  0  0  0  0  0  0  0  0  0
    7.5449   -3.5321    0.2583 H   0  0  0  0  0  0  0  0  0  0  0  0
    8.8771   -1.6783    1.1754 H   0  0  0  0  0  0  0  0  0  0  0  0
    8.0045    0.6301    1.0913 H   0  0  0  0  0  0  0  0  0  0  0  0
    6.5285    2.1384   -0.1241 H   0  0  0  0  0  0  0  0  0  0  0  0
    4.9479    1.5210   -0.7198 H   0  0  0  0  0  0  0  0  0  0  0  0
    5.2460    1.6949    1.0748 H   0  0  0  0  0  0  0  0  0  0  0  0
  1  2  1  0
  2  3  1  0
  3  4  1  0
  4  5  2  0
  4  6  1  0
  6  7  1  0
  7  8  1  0
  8  9  1  0
  9 10  1  0
 10 11  1  0
  9 12  1  0
 12 13  1  0
 13 14  1  0
 14 15  1  0
 15 16  1  0
 16 17  1  0
 16 18  1  0
 18 19  1  0
 19 20  2  0
 19 21  1  0
 21 22  2  0
 22 23  1  0
 23 24  2  0
 24 25  1  0
 25 26  2  0
 26 27  1  0
 11  6  1  0
 17 12  1  0
 26 21  1  0
  1 28  1  0
  1 29  1  0
  1 30  1  0
  2 31  1  0
  2 32  1  0
  7 33  1  0
  7 34  1  0
  8 35  1  0
  8 36  1  0
  9 37  1  0
 10 38  1  0
 10 39  1  0
 11 40  1  0
 11 41  1  0
 13 42  1  0
 13 43  1  0
 14 44  1  0
 14 45  1  0
 15 46  1  0
 15 47  1  0
 16 48  1  6
 17 49  1  0
 17 50  1  0
 18 51  1  0
 22 52  1  0
 23 53  1  0
 24 54  1  0
 25 55  1  0
 27 56  1  0
 27 57  1  0
 27 58  1  0
M  END
>  <Ligand ID>  (1) 
LIG0000444

>  <Ligand>  (1) 
CHEMBL1916224

>  <SMILES>  (1) 
CCOC(=O)N1CCC(CC1)N1CCC[C@H](C1)NC(=O)c1ccccc1C

>  <CID>  (1) 
57391102.0

>  <ChEMBL ID>  (1) 
nan

>  <InChiKey>  (1) 
NYDGEZQQIMDHCY-QGZVFWFLSA-N

>  <InChi>  (1) 
InChI=1S/C21H31N3O3/c1-3-27-21(26)23-13-10-18(11-14-23)24-12-6-8-17(15-24)22-20(25)19-9-5-4-7-16(19)2/h4-5,7,9,17-18H,3,6,8,10-15H2,1-2H3,(H,22,25)/t17-/m1/s1

>  <IUPAC Name>  (1) 
ethyl 4-[(3R)-3-[(2-methylbenzoyl)amino]piperidin-1-yl]piperidine-1-carboxylate

$$$$
