
     RDKit          3D

 58 63  0  0  0  0  0  0  0  0999 V2000
    4.7477    4.5327   -1.3767 C   0  0  0  0  0  0  0  0  0  0  0  0
    3.6921    3.4942   -1.2779 C   0  0  0  0  0  0  0  0  0  0  0  0
    2.9570    3.0837   -2.3519 C   0  0  0  0  0  0  0  0  0  0  0  0
    1.9791    2.1036   -2.1953 C   0  0  0  0  0  0  0  0  0  0  0  0
    1.7543    1.5435   -0.9364 C   0  0  0  0  0  0  0  0  0  0  0  0
    2.5113    1.9776    0.1282 C   0  0  0  0  0  0  0  0  0  0  0  0
    3.4660    2.9371   -0.0343 C   0  0  0  0  0  0  0  0  0  0  0  0
    2.2773    1.4256    1.3268 N   0  0  0  0  0  0  0  0  0  0  0  0
    1.3281    0.4634    1.5189 C   0  0  0  0  0  0  0  0  0  0  0  0
    1.2118    0.0388    2.6787 O   0  0  0  0  0  0  0  0  0  0  0  0
    0.5441   -0.0074    0.4899 C   0  0  0  0  0  0  0  0  0  0  0  0
    0.7891    0.5682   -0.7551 C   0  0  0  0  0  0  0  0  0  0  0  0
   -0.4740   -1.0708    0.6272 C   0  0  0  0  0  0  0  0  0  0  0  0
    0.1703   -2.3253    0.9328 N   0  0  0  0  0  0  0  0  0  0  0  0
    0.9185   -2.7689    2.0780 C   0  0  0  0  0  0  0  0  0  0  0  0
    0.9183   -4.2833    1.9741 C   0  0  0  0  0  0  0  0  0  0  0  0
    0.5747   -4.5775    0.5706 C   0  0  0  0  0  0  0  0  0  0  0  0
    0.1404   -3.4199   -0.0145 C   0  0  0  0  0  0  0  0  0  0  0  0
   -0.2330   -3.5005   -1.3527 C   0  0  0  0  0  0  0  0  0  0  0  0
   -0.1751   -4.6752   -2.0667 C   0  0  0  0  0  0  0  0  0  0  0  0
    0.2738   -5.8322   -1.4315 C   0  0  0  0  0  0  0  0  0  0  0  0
    0.6462   -5.7725   -0.1128 C   0  0  0  0  0  0  0  0  0  0  0  0
   -1.4845   -0.7814    1.6665 C   0  0  0  0  0  0  0  0  0  0  0  0
   -1.2689   -0.8707    3.0105 N   0  0  0  0  0  0  0  0  0  0  0  0
   -2.3516   -0.5678    3.6667 N   0  0  0  0  0  0  0  0  0  0  0  0
   -3.2772   -0.2802    2.7743 N   0  0  0  0  0  0  0  0  0  0  0  0
   -2.7501   -0.4097    1.5433 N   0  0  0  0  0  0  0  0  0  0  0  0
   -3.5472   -0.1508    0.3652 C   0  0  0  0  0  0  0  0  0  0  0  0
   -3.4847    1.2708   -0.0251 C   0  0  0  0  0  0  0  0  0  0  0  0
   -2.6300    1.7869   -0.9711 C   0  0  0  0  0  0  0  0  0  0  0  0
   -2.5867    3.1225   -1.3140 C   0  0  0  0  0  0  0  0  0  0  0  0
   -3.4491    3.9849   -0.6714 C   0  0  0  0  0  0  0  0  0  0  0  0
   -4.3279    3.5078    0.2890 C   0  0  0  0  0  0  0  0  0  0  0  0
   -4.3479    2.1643    0.6112 C   0  0  0  0  0  0  0  0  0  0  0  0
    5.7212    4.0062   -1.3332 H   0  0  0  0  0  0  0  0  0  0  0  0
    4.7128    5.2047   -0.4902 H   0  0  0  0  0  0  0  0  0  0  0  0
    4.6260    5.1588   -2.2787 H   0  0  0  0  0  0  0  0  0  0  0  0
    3.1271    3.5176   -3.3405 H   0  0  0  0  0  0  0  0  0  0  0  0
    1.3889    1.7748   -3.0603 H   0  0  0  0  0  0  0  0  0  0  0  0
    4.0423    3.2539    0.8259 H   0  0  0  0  0  0  0  0  0  0  0  0
    2.8590    1.7605    2.1400 H   0  0  0  0  0  0  0  0  0  0  0  0
    0.2430    0.2789   -1.6464 H   0  0  0  0  0  0  0  0  0  0  0  0
   -1.0000   -1.1239   -0.3717 H   0  0  0  0  0  0  0  0  0  0  0  0
    0.4565   -2.4919    3.0530 H   0  0  0  0  0  0  0  0  0  0  0  0
    1.9748   -2.4626    1.9776 H   0  0  0  0  0  0  0  0  0  0  0  0
    1.9336   -4.7086    2.1616 H   0  0  0  0  0  0  0  0  0  0  0  0
    0.2156   -4.7426    2.6985 H   0  0  0  0  0  0  0  0  0  0  0  0
   -0.5874   -2.5995   -1.8637 H   0  0  0  0  0  0  0  0  0  0  0  0
   -0.4733   -4.7123   -3.1146 H   0  0  0  0  0  0  0  0  0  0  0  0
    0.3053   -6.7363   -2.0258 H   0  0  0  0  0  0  0  0  0  0  0  0
    0.9964   -6.6670    0.3892 H   0  0  0  0  0  0  0  0  0  0  0  0
   -3.1078   -0.7284   -0.4859 H   0  0  0  0  0  0  0  0  0  0  0  0
   -4.6176   -0.4109    0.4968 H   0  0  0  0  0  0  0  0  0  0  0  0
   -1.9702    1.0886   -1.4613 H   0  0  0  0  0  0  0  0  0  0  0  0
   -1.9117    3.5175   -2.0581 H   0  0  0  0  0  0  0  0  0  0  0  0
   -3.4050    5.0390   -0.9516 H   0  0  0  0  0  0  0  0  0  0  0  0
   -4.9886    4.2271    0.7680 H   0  0  0  0  0  0  0  0  0  0  0  0
   -5.0530    1.8453    1.3673 H   0  0  0  0  0  0  0  0  0  0  0  0
  1  2  1  0
  2  3  2  0
  3  4  1  0
  4  5  2  0
  5  6  1  0
  6  7  2  0
  6  8  1  0
  8  9  1  0
  9 10  2  0
  9 11  1  0
 11 12  2  0
 11 13  1  0
 13 14  1  0
 14 15  1  0
 15 16  1  0
 16 17  1  0
 17 18  2  0
 18 19  1  0
 19 20  2  0
 20 21  1  0
 21 22  2  0
 13 23  1  0
 23 24  2  0
 24 25  1  0
 25 26  2  0
 26 27  1  0
 27 28  1  0
 28 29  1  0
 29 30  2  0
 30 31  1  0
 31 32  2  0
 32 33  1  0
 33 34  2  0
  7  2  1  0
 18 14  1  0
 27 23  1  0
 34 29  1  0
 12  5  1  0
 22 17  1  0
  1 35  1  0
  1 36  1  0
  1 37  1  0
  3 38  1  0
  4 39  1  0
  7 40  1  0
  8 41  1  0
 12 42  1  0
 13 43  1  0
 15 44  1  0
 15 45  1  0
 16 46  1  0
 16 47  1  0
 19 48  1  0
 20 49  1  0
 21 50  1  0
 22 51  1  0
 28 52  1  0
 28 53  1  0
 30 54  1  0
 31 55  1  0
 32 56  1  0
 33 57  1  0
 34 58  1  0
M  END
>  <Ligand ID>  (1) 
LIG0003894

>  <Ligand>  (1) 
ASN 03777435

>  <SMILES>  (1) 
Cc1ccc2c(c1)[nH]c(=O)c(c2)C(N1CCc2c1cccc2)c1nnnn1Cc1ccccc1

>  <CID>  (1) 
3176482.0

>  <ChEMBL ID>  (1) 
nan

>  <InChiKey>  (1) 
HKTXMLSEGYKOND-UHFFFAOYSA-N

>  <InChi>  (1) 
InChI=1S/C27H24N6O/c1-18-11-12-21-16-22(27(34)28-23(21)15-18)25(32-14-13-20-9-5-6-10-24(20)32)26-29-30-31-33(26)17-19-7-3-2-4-8-19/h2-12,15-16,25H,13-14,17H2,1H3,(H,28,34)

>  <IUPAC Name>  (1) 
3-[(1-benzyltetrazol-5-yl)-(2,3-dihydroindol-1-yl)methyl]-7-methyl-1H-quinolin-2-one

$$$$
