
     RDKit          3D

 53 55  0  0  0  0  0  0  0  0999 V2000
   -7.5970   -2.8327    1.4325 C   0  0  0  0  0  0  0  0  0  0  0  0
   -6.6291   -3.0990    0.4686 O   0  0  0  0  0  0  0  0  0  0  0  0
   -5.5773   -2.2654    0.1165 C   0  0  0  0  0  0  0  0  0  0  0  0
   -4.7236   -2.7435   -0.8842 C   0  0  0  0  0  0  0  0  0  0  0  0
   -3.6642   -1.9438   -1.2635 C   0  0  0  0  0  0  0  0  0  0  0  0
   -3.4514   -0.7124   -0.6767 C   0  0  0  0  0  0  0  0  0  0  0  0
   -4.2974   -0.2297    0.3206 C   0  0  0  0  0  0  0  0  0  0  0  0
   -5.3559   -1.0343    0.6961 C   0  0  0  0  0  0  0  0  0  0  0  0
   -4.0521    1.0134    0.8879 O   0  0  0  0  0  0  0  0  0  0  0  0
   -4.9410    1.4571    1.8964 C   0  0  0  0  0  0  0  0  0  0  0  0
   -2.3119    0.1063   -1.1103 C   0  0  0  0  0  0  0  0  0  0  0  0
   -1.1277   -0.0876   -0.4285 C   0  0  0  0  0  0  0  0  0  0  0  0
   -1.0351   -1.0385    0.6392 C   0  0  0  0  0  0  0  0  0  0  0  0
   -0.9698   -1.7999    1.5062 N   0  0  0  0  0  0  0  0  0  0  0  0
   -0.0129    0.6599   -0.7947 C   0  0  0  0  0  0  0  0  0  0  0  0
    1.4940    0.3763    0.1130 S   0  0  0  0  0  0  0  0  0  0  0  0
    2.7692    1.4792   -0.5745 C   0  0  0  0  0  0  0  0  0  0  0  0
    4.0598    1.3116    0.1215 C   0  0  0  0  0  0  0  0  0  0  0  0
    4.2743    2.1312    1.2349 C   0  0  0  0  0  0  0  0  0  0  0  0
    5.4428    2.0681    1.9694 C   0  0  0  0  0  0  0  0  0  0  0  0
    6.3632    1.1756    1.5558 N   0  0  0  0  0  0  0  0  0  0  0  0
    6.1916    0.3764    0.4962 C   0  0  0  0  0  0  0  0  0  0  0  0
    5.0350    0.4199   -0.2533 C   0  0  0  0  0  0  0  0  0  0  0  0
    7.2527   -0.5609    0.1271 C   0  0  0  0  0  0  0  0  0  0  0  0
    7.1367   -1.3424   -0.8731 O   0  0  0  0  0  0  0  0  0  0  0  0
    8.4525   -0.6286    0.8779 N   0  0  0  0  0  0  0  0  0  0  0  0
    9.5431   -1.5099    0.5952 C   0  0  0  0  0  0  0  0  0  0  0  0
   -0.1107    1.5508   -1.7993 N   0  0  0  0  0  0  0  0  0  0  0  0
   -1.2789    1.7451   -2.4753 C   0  0  0  0  0  0  0  0  0  0  0  0
   -2.4102    1.0205   -2.1404 C   0  0  0  0  0  0  0  0  0  0  0  0
   -3.6648    1.1878   -2.8215 C   0  0  0  0  0  0  0  0  0  0  0  0
   -4.6736    1.3082   -3.3822 N   0  0  0  0  0  0  0  0  0  0  0  0
   -1.3610    2.6955   -3.5382 N   0  0  0  0  0  0  0  0  0  0  0  0
   -7.7287   -1.7790    1.7044 H   0  0  0  0  0  0  0  0  0  0  0  0
   -7.4595   -3.5039    2.3254 H   0  0  0  0  0  0  0  0  0  0  0  0
   -8.5802   -3.1398    0.9803 H   0  0  0  0  0  0  0  0  0  0  0  0
   -4.8796   -3.7070   -1.3520 H   0  0  0  0  0  0  0  0  0  0  0  0
   -3.0178   -2.3463   -2.0463 H   0  0  0  0  0  0  0  0  0  0  0  0
   -6.0250   -0.6828    1.4660 H   0  0  0  0  0  0  0  0  0  0  0  0
   -4.7776    2.5223    2.1604 H   0  0  0  0  0  0  0  0  0  0  0  0
   -4.7674    0.9061    2.8618 H   0  0  0  0  0  0  0  0  0  0  0  0
   -6.0038    1.3512    1.6281 H   0  0  0  0  0  0  0  0  0  0  0  0
    2.9437    1.2610   -1.6550 H   0  0  0  0  0  0  0  0  0  0  0  0
    2.4514    2.5380   -0.5015 H   0  0  0  0  0  0  0  0  0  0  0  0
    3.5071    2.8516    1.5519 H   0  0  0  0  0  0  0  0  0  0  0  0
    5.5600    2.7163    2.8137 H   0  0  0  0  0  0  0  0  0  0  0  0
    4.8591   -0.2063   -1.1121 H   0  0  0  0  0  0  0  0  0  0  0  0
    8.5190    0.0302    1.6995 H   0  0  0  0  0  0  0  0  0  0  0  0
   10.4587   -1.1117    1.0322 H   0  0  0  0  0  0  0  0  0  0  0  0
    9.7112   -1.5426   -0.5157 H   0  0  0  0  0  0  0  0  0  0  0  0
    9.2998   -2.5272    0.9504 H   0  0  0  0  0  0  0  0  0  0  0  0
   -0.7074    2.7067   -4.3482 H   0  0  0  0  0  0  0  0  0  0  0  0
   -2.1322    3.4087   -3.4713 H   0  0  0  0  0  0  0  0  0  0  0  0
  1  2  1  0
  2  3  1  0
  3  4  2  0
  4  5  1  0
  5  6  2  0
  6  7  1  0
  7  8  2  0
  7  9  1  0
  9 10  1  0
  6 11  1  0
 11 12  2  0
 12 13  1  0
 13 14  3  0
 12 15  1  0
 15 16  1  0
 16 17  1  0
 17 18  1  0
 18 19  2  0
 19 20  1  0
 20 21  2  0
 21 22  1  0
 22 23  2  0
 22 24  1  0
 24 25  2  0
 24 26  1  0
 26 27  1  0
 15 28  2  0
 28 29  1  0
 29 30  2  0
 30 31  1  0
 31 32  3  0
 29 33  1  0
  8  3  1  0
 30 11  1  0
 23 18  1  0
  1 34  1  0
  1 35  1  0
  1 36  1  0
  4 37  1  0
  5 38  1  0
  8 39  1  0
 10 40  1  0
 10 41  1  0
 10 42  1  0
 17 43  1  0
 17 44  1  0
 19 45  1  0
 20 46  1  0
 23 47  1  0
 26 48  1  0
 27 49  1  0
 27 50  1  0
 27 51  1  0
 33 52  1  0
 33 53  1  0
M  END
>  <Ligand ID>  (1) 
LIG0004657

>  <Ligand>  (1) 
SCHEMBL3345651

>  <SMILES>  (1) 
COc1ccc(c(c1)OC)c1c(C#N)c(SCc2ccnc(c2)C(=O)NC)nc(c1C#N)N

>  <CID>  (1) 
68606242.0

>  <ChEMBL ID>  (1) 
nan

>  <InChiKey>  (1) 
KXKGESVADAZNSM-UHFFFAOYSA-N

>  <InChi>  (1) 
InChI=1S/C23H20N6O3S/c1-27-22(30)18-8-13(6-7-28-18)12-33-23-17(11-25)20(16(10-24)21(26)29-23)15-5-4-14(31-2)9-19(15)32-3/h4-9H,12H2,1-3H3,(H2,26,29)(H,27,30)

>  <IUPAC Name>  (1) 
4-[[6-amino-3,5-dicyano-4-(2,4-dimethoxyphenyl)pyridin-2-yl]sulfanylmethyl]-N-methylpyridine-2-carboxamide

$$$$
