
     RDKit          3D

 37 38  0  0  0  0  0  0  0  0999 V2000
    4.5814   -0.3306   -0.0553 C   0  0  0  0  0  0  0  0  0  0  0  0
    3.6465   -1.4243   -0.4525 C   0  0  0  0  0  0  0  0  0  0  0  0
    2.2081   -1.0987   -0.5585 C   0  0  0  0  0  0  0  0  0  0  0  0
    1.5201   -0.6612    0.5892 N   0  0  0  0  0  0  0  0  0  0  0  0
    1.8173    0.6078    1.1137 C   0  0  0  0  0  0  0  0  0  0  0  0
    1.1116    1.6234    0.1985 C   0  0  0  0  0  0  0  0  0  0  0  0
   -0.3141    1.6603    0.6929 C   0  0  0  0  0  0  0  0  0  0  0  0
   -0.7502    0.2648    0.9904 C   0  0  2  0  0  0  0  0  0  0  0  0
    0.0924   -0.8324    0.4555 C   0  0  0  0  0  0  0  0  0  0  0  0
   -2.1157    0.1369    0.3503 C   0  0  0  0  0  0  0  0  0  0  0  0
   -2.1745    0.2186   -1.0350 C   0  0  0  0  0  0  0  0  0  0  0  0
   -3.3836    0.1164   -1.6936 C   0  0  0  0  0  0  0  0  0  0  0  0
   -4.5137   -0.0693   -0.9035 C   0  0  0  0  0  0  0  0  0  0  0  0
   -4.4635   -0.1509    0.4579 C   0  0  0  0  0  0  0  0  0  0  0  0
   -3.2542   -0.0477    1.1043 C   0  0  0  0  0  0  0  0  0  0  0  0
   -5.6384   -0.3356    1.1501 O   0  0  0  0  0  0  0  0  0  0  0  0
    4.2778    0.6310   -0.4851 H   0  0  0  0  0  0  0  0  0  0  0  0
    5.6165   -0.5007   -0.5189 H   0  0  0  0  0  0  0  0  0  0  0  0
    4.8249   -0.2991    1.0315 H   0  0  0  0  0  0  0  0  0  0  0  0
    3.8294   -2.3563    0.1732 H   0  0  0  0  0  0  0  0  0  0  0  0
    4.0078   -1.7738   -1.4723 H   0  0  0  0  0  0  0  0  0  0  0  0
    1.6776   -2.0443   -0.9136 H   0  0  0  0  0  0  0  0  0  0  0  0
    2.0815   -0.3894   -1.4233 H   0  0  0  0  0  0  0  0  0  0  0  0
    2.8352    0.8886    1.3272 H   0  0  0  0  0  0  0  0  0  0  0  0
    1.3001    0.6516    2.1348 H   0  0  0  0  0  0  0  0  0  0  0  0
    1.0620    1.2629   -0.8524 H   0  0  0  0  0  0  0  0  0  0  0  0
    1.6204    2.6107    0.2294 H   0  0  0  0  0  0  0  0  0  0  0  0
   -0.9793    2.2292    0.0110 H   0  0  0  0  0  0  0  0  0  0  0  0
   -0.2498    2.2021    1.6855 H   0  0  0  0  0  0  0  0  0  0  0  0
   -0.9154    0.0925    2.0849 H   0  0  0  0  0  0  0  0  0  0  0  0
   -0.1436   -1.7532    1.0630 H   0  0  0  0  0  0  0  0  0  0  0  0
   -0.1848   -1.1148   -0.5963 H   0  0  0  0  0  0  0  0  0  0  0  0
   -1.2992    0.3624   -1.6540 H   0  0  0  0  0  0  0  0  0  0  0  0
   -3.4208    0.1813   -2.7667 H   0  0  0  0  0  0  0  0  0  0  0  0
   -5.4498   -0.1461   -1.4459 H   0  0  0  0  0  0  0  0  0  0  0  0
   -3.1758   -0.1080    2.1801 H   0  0  0  0  0  0  0  0  0  0  0  0
   -5.6844   -0.3040    2.1669 H   0  0  0  0  0  0  0  0  0  0  0  0
  1  2  1  0
  2  3  1  0
  3  4  1  0
  4  5  1  0
  5  6  1  0
  6  7  1  0
  7  8  1  0
  8  9  1  0
  8 10  1  0
 10 11  2  0
 11 12  1  0
 12 13  2  0
 13 14  1  0
 14 15  2  0
 14 16  1  0
  9  4  1  0
 15 10  1  0
  1 17  1  0
  1 18  1  0
  1 19  1  0
  2 20  1  0
  2 21  1  0
  3 22  1  0
  3 23  1  0
  5 24  1  0
  5 25  1  0
  6 26  1  0
  6 27  1  0
  7 28  1  0
  7 29  1  0
  8 30  1  1
  9 31  1  0
  9 32  1  0
 11 33  1  0
 12 34  1  0
 13 35  1  0
 15 36  1  0
 16 37  1  0
M  END
>  <Ligand ID>  (1) 
LIG0001906

>  <Ligand>  (1) 
Preclamol

>  <SMILES>  (1) 
CCCN1CCC[C@H](C1)c1cccc(c1)O

>  <CID>  (1) 
5311189.0

>  <ChEMBL ID>  (1) 
nan

>  <InChiKey>  (1) 
HTSNFXAICLXZMA-CYBMUJFWSA-N

>  <InChi>  (1) 
InChI=1S/C14H21NO/c1-2-8-15-9-4-6-13(11-15)12-5-3-7-14(16)10-12/h3,5,7,10,13,16H,2,4,6,8-9,11H2,1H3/t13-/m1/s1

>  <IUPAC Name>  (1) 
3-[(3S)-1-propylpiperidin-3-yl]phenol

$$$$
