
     RDKit          3D

 38 39  0  0  0  0  0  0  0  0999 V2000
   -3.8520   -2.3685    1.1010 O   0  0  0  0  0  0  0  0  0  0  0  0
   -2.7795   -1.5555    0.8052 C   0  0  0  0  0  0  0  0  0  0  0  0
   -1.5481   -2.1103    0.5358 C   0  0  0  0  0  0  0  0  0  0  0  0
   -1.3254   -3.4880    0.5474 O   0  0  0  0  0  0  0  0  0  0  0  0
   -0.4511   -1.3104    0.2348 C   0  0  0  0  0  0  0  0  0  0  0  0
   -0.6101    0.0598    0.2083 C   0  0  0  0  0  0  0  0  0  0  0  0
   -1.8626    0.6084    0.4830 C   0  0  0  0  0  0  0  0  0  0  0  0
   -2.9377   -0.1738    0.7780 C   0  0  0  0  0  0  0  0  0  0  0  0
   -4.4975    0.5223    1.1194 Cl  0  0  0  0  0  0  0  0  0  0  0  0
   -2.2821    2.0448    0.5163 C   0  0  0  0  0  0  0  0  0  0  0  0
   -1.2270    2.8974   -0.1972 C   0  0  0  0  0  0  0  0  0  0  0  0
   -0.8290    2.3212   -1.4408 N   0  0  0  0  0  0  0  0  0  0  0  0
    0.3421    1.5159   -1.4362 C   0  0  0  0  0  0  0  0  0  0  0  0
    0.6031    0.8261   -0.1190 C   0  0  0  0  0  0  0  0  0  0  0  0
    1.8026    0.0012   -0.1601 C   0  0  0  0  0  0  0  0  0  0  0  0
    2.2909   -0.6268   -1.2818 C   0  0  0  0  0  0  0  0  0  0  0  0
    3.4383   -1.4046   -1.2773 C   0  0  0  0  0  0  0  0  0  0  0  0
    4.1498   -1.5788   -0.1088 C   0  0  0  0  0  0  0  0  0  0  0  0
    3.6880   -0.9647    1.0285 C   0  0  0  0  0  0  0  0  0  0  0  0
    2.5444   -0.1925    1.0125 C   0  0  0  0  0  0  0  0  0  0  0  0
    0.7645    0.0000    0.0000 Br  0  0  0  0  0  0  0  0  0  0  0  0
   -4.0400   -2.8204    1.9692 H   0  0  0  0  0  0  0  0  0  0  0  0
   -1.8983   -4.0462   -0.0933 H   0  0  0  0  0  0  0  0  0  0  0  0
    0.5207   -1.7344    0.0218 H   0  0  0  0  0  0  0  0  0  0  0  0
   -2.1913    2.3366    1.5987 H   0  0  0  0  0  0  0  0  0  0  0  0
   -3.2852    2.1675    0.1033 H   0  0  0  0  0  0  0  0  0  0  0  0
   -1.7922    3.8406   -0.4587 H   0  0  0  0  0  0  0  0  0  0  0  0
   -0.4277    3.2313    0.4654 H   0  0  0  0  0  0  0  0  0  0  0  0
   -0.6785    3.0865   -2.1645 H   0  0  0  0  0  0  0  0  0  0  0  0
    1.2502    2.0239   -1.8164 H   0  0  0  0  0  0  0  0  0  0  0  0
    0.1293    0.6745   -2.1606 H   0  0  0  0  0  0  0  0  0  0  0  0
    0.7342    1.5732    0.7035 H   0  0  0  0  0  0  0  0  0  0  0  0
    1.7781   -0.5225   -2.2042 H   0  0  0  0  0  0  0  0  0  0  0  0
    3.8039   -1.8942   -2.1900 H   0  0  0  0  0  0  0  0  0  0  0  0
    5.0513   -2.1724   -0.0393 H   0  0  0  0  0  0  0  0  0  0  0  0
    4.1920   -1.0503    1.9989 H   0  0  0  0  0  0  0  0  0  0  0  0
    2.1965    0.2830    1.9176 H   0  0  0  0  0  0  0  0  0  0  0  0
   -0.7645    0.0000    0.0000 H   0  0  0  0  0  0  0  0  0  0  0  0
  1  2  1  0
  2  3  2  0
  3  4  1  0
  3  5  1  0
  5  6  2  0
  6  7  1  0
  7  8  2  0
  8  9  1  0
  7 10  1  0
 10 11  1  0
 11 12  1  0
 12 13  1  0
 13 14  1  0
 14 15  1  0
 15 16  2  0
 16 17  1  0
 17 18  2  0
 18 19  1  0
 19 20  2  0
  8  2  1  0
 20 15  1  0
 14  6  1  0
  1 22  1  0
  4 23  1  0
  5 24  1  0
 10 25  1  0
 10 26  1  0
 11 27  1  0
 11 28  1  0
 12 29  1  0
 13 30  1  0
 13 31  1  0
 14 32  1  0
 16 33  1  0
 17 34  1  0
 18 35  1  0
 19 36  1  0
 20 37  1  0
 21 38  1  0
M  END
>  <Ligand ID>  (1) 
LIG0003231

>  <Ligand>  (1) 
SKF 81297 hydrobromide

>  <SMILES>  (1) 
Oc1c(O)cc2c(c1Cl)CCNCC2c1ccccc1.Br

>  <CID>  (1) 
11957706.0

>  <ChEMBL ID>  (1) 
nan

>  <InChiKey>  (1) 
RMIJGBMRNYUZRG-UHFFFAOYSA-N

>  <InChi>  (1) 
InChI=1S/C16H16ClNO2.BrH/c17-15-11-6-7-18-9-13(10-4-2-1-3-5-10)12(11)8-14(19)16(15)20;/h1-5,8,13,18-20H,6-7,9H2;1H

>  <IUPAC Name>  (1) 
9-chloro-5-phenyl-2,3,4,5-tetrahydro-1H-3-benzazepine-7,8-diol;hydrobromide

$$$$
