
     RDKit          3D

159160  0  0  0  0  0  0  0  0999 V2000
  -10.9140    4.7715    2.3199 N   0  0  0  0  0  0  0  0  0  0  0  0
   -9.7701    5.5832    2.0501 C   0  0  0  0  0  0  0  0  0  0  0  0
   -9.1811    5.4588    0.6937 C   0  0  0  0  0  0  0  0  0  0  0  0
   -8.6530    4.1119    0.3042 C   0  0  0  0  0  0  0  0  0  0  0  0
   -9.6693    3.0318    0.2930 C   0  0  0  0  0  0  0  0  0  0  0  0
   -9.1564    1.7023   -0.1398 C   0  0  1  0  0  0  0  0  0  0  0  0
   -8.0777    1.1137    0.6863 C   0  0  0  0  0  0  0  0  0  0  0  0
   -7.0455    1.7074    1.0621 O   0  0  0  0  0  0  0  0  0  0  0  0
   -8.2331   -0.2416    1.0780 N   0  0  0  0  0  0  0  0  0  0  0  0
   -7.3091   -0.9965    1.8704 C   0  0  2  0  0  0  0  0  0  0  0  0
   -6.3205   -1.7267    0.9999 C   0  0  0  0  0  0  0  0  0  0  0  0
   -5.5279   -2.5843    1.4519 O   0  0  0  0  0  0  0  0  0  0  0  0
   -6.3457   -1.3697   -0.3731 N   0  0  0  0  0  0  0  0  0  0  0  0
   -5.5151   -1.9077   -1.4128 C   0  0  2  0  0  0  0  0  0  0  0  0
   -4.3210   -1.0138   -1.6428 C   0  0  0  0  0  0  0  0  0  0  0  0
   -3.6351   -1.1090   -2.7047 O   0  0  0  0  0  0  0  0  0  0  0  0
   -3.9838   -0.0570   -0.6165 N   0  0  0  0  0  0  0  0  0  0  0  0
   -2.8249    0.7906   -0.8784 C   0  0  2  0  0  0  0  0  0  0  0  0
   -1.5899   -0.0709   -0.6958 C   0  0  0  0  0  0  0  0  0  0  0  0
   -1.8101   -1.2612   -0.3079 O   0  0  0  0  0  0  0  0  0  0  0  0
   -0.2845    0.4078   -0.9464 N   0  0  0  0  0  0  0  0  0  0  0  0
    0.8096   -0.5044   -0.7789 C   0  0  2  0  0  0  0  0  0  0  0  0
    1.9426   -0.0169    0.0375 C   0  0  0  0  0  0  0  0  0  0  0  0
    1.9488    1.1732    0.5153 O   0  0  0  0  0  0  0  0  0  0  0  0
    3.0006   -0.9240    0.2508 N   0  0  0  0  0  0  0  0  0  0  0  0
    4.2189   -0.6299    1.0073 C   0  0  2  0  0  0  0  0  0  0  0  0
    5.3355   -1.1061    0.1884 C   0  0  0  0  0  0  0  0  0  0  0  0
    5.0187   -1.7462   -0.8835 O   0  0  0  0  0  0  0  0  0  0  0  0
    6.7215   -0.9631    0.4050 N   0  0  0  0  0  0  0  0  0  0  0  0
    7.5736   -1.5518   -0.5934 C   0  0  0  0  0  0  0  0  0  0  0  0
    9.0175   -1.4020   -0.3790 C   0  0  0  0  0  0  0  0  0  0  0  0
    9.7497   -1.9566   -1.2777 O   0  0  0  0  0  0  0  0  0  0  0  0
    9.6530   -0.7349    0.6766 N   0  0  0  0  0  0  0  0  0  0  0  0
   11.0709   -0.6127    0.8983 C   0  0  2  0  0  0  0  0  0  0  0  0
   11.5484    0.7199    0.6322 C   0  0  0  0  0  0  0  0  0  0  0  0
   10.6892    1.6283    0.3628 O   0  0  0  0  0  0  0  0  0  0  0  0
   12.9252    1.1486    0.6388 N   0  0  0  0  0  0  0  0  0  0  0  0
   13.1604    2.5277    0.3680 C   0  0  2  0  0  0  0  0  0  0  0  0
   12.4759    3.3237    1.4666 C   0  0  0  0  0  0  0  0  0  0  0  0
   12.5628    4.5843    1.3654 O   0  0  0  0  0  0  0  0  0  0  0  0
   11.7913    2.6809    2.5278 N   0  0  0  0  0  0  0  0  0  0  0  0
   12.8405    3.0980   -0.9411 C   0  0  0  0  0  0  0  0  0  0  0  0
   13.5300    2.6706   -2.1603 C   0  0  0  0  0  0  0  0  0  0  0  0
   13.5249    0.9738   -2.6414 S   0  0  0  0  0  0  0  0  0  0  0  0
   14.6529   -0.0799   -1.7207 C   0  0  0  0  0  0  0  0  0  0  0  0
   11.8961   -1.7464    0.3079 C   0  0  0  0  0  0  0  0  0  0  0  0
   11.5414   -3.0897    0.8979 C   0  0  0  0  0  0  0  0  0  0  0  0
   11.7958   -3.0874    2.4014 C   0  0  0  0  0  0  0  0  0  0  0  0
   12.4631   -4.1144    0.2431 C   0  0  0  0  0  0  0  0  0  0  0  0
    4.1610   -1.3312    2.3578 C   0  0  0  0  0  0  0  0  0  0  0  0
    2.9358   -0.8384    3.1415 C   0  0  0  0  0  0  0  0  0  0  0  0
    5.3488   -0.9923    3.2279 C   0  0  0  0  0  0  0  0  0  0  0  0
    1.3393   -0.8950   -2.1828 C   0  0  0  0  0  0  0  0  0  0  0  0
    1.7896    0.3490   -2.8817 C   0  0  0  0  0  0  0  0  0  0  0  0
    0.8526    1.0223   -3.6396 C   0  0  0  0  0  0  0  0  0  0  0  0
    1.2138    2.1989   -4.3052 C   0  0  0  0  0  0  0  0  0  0  0  0
    2.5144    2.7014   -4.2119 C   0  0  0  0  0  0  0  0  0  0  0  0
    3.4344    1.9879   -3.4334 C   0  0  0  0  0  0  0  0  0  0  0  0
    3.0775    0.8285   -2.7773 C   0  0  0  0  0  0  0  0  0  0  0  0
   -2.7461    1.9851   -0.0173 C   0  0  0  0  0  0  0  0  0  0  0  0
   -1.6431    2.7771   -0.2866 O   0  0  0  0  0  0  0  0  0  0  0  0
   -6.2865   -2.1280   -2.6646 C   0  0  0  0  0  0  0  0  0  0  0  0
   -6.8910   -0.9198   -3.2548 C   0  0  0  0  0  0  0  0  0  0  0  0
   -6.7543    0.2440   -2.8039 O   0  0  0  0  0  0  0  0  0  0  0  0
   -7.6728   -1.1029   -4.4034 O   0  0  0  0  0  0  0  0  0  0  0  0
   -7.9086   -1.8420    2.9411 C   0  0  2  0  0  0  0  0  0  0  0  0
   -8.6106   -1.0214    3.8251 O   0  0  0  0  0  0  0  0  0  0  0  0
   -6.8263   -2.6156    3.6412 C   0  0  0  0  0  0  0  0  0  0  0  0
  -10.2682    0.7844   -0.3055 N   0  0  0  0  0  0  0  0  0  0  0  0
  -10.5763    0.1395   -1.5335 C   0  0  0  0  0  0  0  0  0  0  0  0
   -9.8256    0.3960   -2.5105 O   0  0  0  0  0  0  0  0  0  0  0  0
  -11.6931   -0.7801   -1.6967 C   0  0  2  0  0  0  0  0  0  0  0  0
  -11.8722   -1.8528   -0.7077 C   0  0  0  0  0  0  0  0  0  0  0  0
  -13.0633   -2.6938   -1.0315 C   0  0  0  0  0  0  0  0  0  0  0  0
  -13.5078   -3.7575   -0.3236 N   0  0  0  0  0  0  0  0  0  0  0  0
  -14.6008   -4.2471   -0.9272 C   0  0  0  0  0  0  0  0  0  0  0  0
  -14.8685   -3.4990   -2.0333 N   0  0  0  0  0  0  0  0  0  0  0  0
  -13.9299   -2.5423   -2.1064 C   0  0  0  0  0  0  0  0  0  0  0  0
  -11.5856   -1.3353   -3.0536 N   0  0  0  0  0  0  0  0  0  0  0  0
  -11.0635    4.7681    3.3647 H   0  0  0  0  0  0  0  0  0  0  0  0
  -11.7207    5.0921    1.7741 H   0  0  0  0  0  0  0  0  0  0  0  0
  -10.0867    6.6600    2.1679 H   0  0  0  0  0  0  0  0  0  0  0  0
   -8.9620    5.4564    2.8123 H   0  0  0  0  0  0  0  0  0  0  0  0
   -8.3672    6.2457    0.6337 H   0  0  0  0  0  0  0  0  0  0  0  0
   -9.9387    5.8022   -0.0561 H   0  0  0  0  0  0  0  0  0  0  0  0
   -7.8977    3.8371    1.0894 H   0  0  0  0  0  0  0  0  0  0  0  0
   -8.1513    4.1698   -0.6906 H   0  0  0  0  0  0  0  0  0  0  0  0
  -10.2412    2.9102    1.2420 H   0  0  0  0  0  0  0  0  0  0  0  0
  -10.4497    3.3265   -0.4721 H   0  0  0  0  0  0  0  0  0  0  0  0
   -8.7234    1.8492   -1.1668 H   0  0  0  0  0  0  0  0  0  0  0  0
   -9.1100   -0.7645    0.7680 H   0  0  0  0  0  0  0  0  0  0  0  0
   -6.6471   -0.2265    2.3818 H   0  0  0  0  0  0  0  0  0  0  0  0
   -7.0451   -0.6279   -0.6964 H   0  0  0  0  0  0  0  0  0  0  0  0
   -5.0683   -2.8999   -1.0966 H   0  0  0  0  0  0  0  0  0  0  0  0
   -4.5413    0.0230    0.2672 H   0  0  0  0  0  0  0  0  0  0  0  0
   -2.7956    1.0793   -1.9623 H   0  0  0  0  0  0  0  0  0  0  0  0
   -0.1030    1.3887   -1.2499 H   0  0  0  0  0  0  0  0  0  0  0  0
    0.4472   -1.4473   -0.3549 H   0  0  0  0  0  0  0  0  0  0  0  0
    2.9642   -1.9116   -0.1460 H   0  0  0  0  0  0  0  0  0  0  0  0
    4.1981    0.4419    1.2332 H   0  0  0  0  0  0  0  0  0  0  0  0
    7.0275   -0.4517    1.2486 H   0  0  0  0  0  0  0  0  0  0  0  0
    7.2876   -1.1748   -1.6273 H   0  0  0  0  0  0  0  0  0  0  0  0
    7.3386   -2.6482   -0.6450 H   0  0  0  0  0  0  0  0  0  0  0  0
    9.0323   -0.2635    1.3999 H   0  0  0  0  0  0  0  0  0  0  0  0
   11.2407   -0.8247    2.0328 H   0  0  0  0  0  0  0  0  0  0  0  0
   13.6162    0.4142    0.8571 H   0  0  0  0  0  0  0  0  0  0  0  0
   14.2636    2.6957    0.6060 H   0  0  0  0  0  0  0  0  0  0  0  0
   12.1666    1.7781    2.9001 H   0  0  0  0  0  0  0  0  0  0  0  0
   10.9336    3.1524    2.8872 H   0  0  0  0  0  0  0  0  0  0  0  0
   11.7209    3.0219   -1.1738 H   0  0  0  0  0  0  0  0  0  0  0  0
   13.0483    4.2371   -0.8634 H   0  0  0  0  0  0  0  0  0  0  0  0
   13.2372    3.3603   -3.0251 H   0  0  0  0  0  0  0  0  0  0  0  0
   14.6331    2.9712   -2.0441 H   0  0  0  0  0  0  0  0  0  0  0  0
   15.1778    0.4816   -0.8984 H   0  0  0  0  0  0  0  0  0  0  0  0
   15.4849   -0.4242   -2.3907 H   0  0  0  0  0  0  0  0  0  0  0  0
   14.1113   -0.9004   -1.2733 H   0  0  0  0  0  0  0  0  0  0  0  0
   12.9563   -1.5679    0.6539 H   0  0  0  0  0  0  0  0  0  0  0  0
   11.9365   -1.7578   -0.7788 H   0  0  0  0  0  0  0  0  0  0  0  0
   10.5239   -3.4302    0.7488 H   0  0  0  0  0  0  0  0  0  0  0  0
   12.5122   -2.3127    2.7036 H   0  0  0  0  0  0  0  0  0  0  0  0
   12.2486   -4.0718    2.6747 H   0  0  0  0  0  0  0  0  0  0  0  0
   10.8540   -2.9827    2.9406 H   0  0  0  0  0  0  0  0  0  0  0  0
   13.4450   -3.6565    0.0155 H   0  0  0  0  0  0  0  0  0  0  0  0
   11.9384   -4.4424   -0.6670 H   0  0  0  0  0  0  0  0  0  0  0  0
   12.5571   -4.9902    0.9041 H   0  0  0  0  0  0  0  0  0  0  0  0
    4.0746   -2.4168    2.2939 H   0  0  0  0  0  0  0  0  0  0  0  0
    2.8049    0.2431    3.0483 H   0  0  0  0  0  0  0  0  0  0  0  0
    3.0833   -1.0689    4.2272 H   0  0  0  0  0  0  0  0  0  0  0  0
    2.0188   -1.3411    2.8119 H   0  0  0  0  0  0  0  0  0  0  0  0
    5.6759    0.0673    3.1431 H   0  0  0  0  0  0  0  0  0  0  0  0
    6.1859   -1.7103    3.1012 H   0  0  0  0  0  0  0  0  0  0  0  0
    5.0704   -1.0944    4.3205 H   0  0  0  0  0  0  0  0  0  0  0  0
    0.5237   -1.3477   -2.7692 H   0  0  0  0  0  0  0  0  0  0  0  0
    2.1675   -1.6138   -2.1260 H   0  0  0  0  0  0  0  0  0  0  0  0
   -0.1681    0.6843   -3.7532 H   0  0  0  0  0  0  0  0  0  0  0  0
    0.4627    2.7310   -4.9068 H   0  0  0  0  0  0  0  0  0  0  0  0
    2.8153    3.6112   -4.7184 H   0  0  0  0  0  0  0  0  0  0  0  0
    4.4447    2.3501   -3.3427 H   0  0  0  0  0  0  0  0  0  0  0  0
    3.7963    0.2937   -2.1810 H   0  0  0  0  0  0  0  0  0  0  0  0
   -3.6829    2.5920   -0.1203 H   0  0  0  0  0  0  0  0  0  0  0  0
   -2.6838    1.7437    1.0732 H   0  0  0  0  0  0  0  0  0  0  0  0
   -1.5198    3.4119    0.4835 H   0  0  0  0  0  0  0  0  0  0  0  0
   -7.1207   -2.8553   -2.4190 H   0  0  0  0  0  0  0  0  0  0  0  0
   -5.6837   -2.7017   -3.4228 H   0  0  0  0  0  0  0  0  0  0  0  0
   -8.3484   -0.4162   -4.7265 H   0  0  0  0  0  0  0  0  0  0  0  0
   -8.6624   -2.5599    2.5305 H   0  0  0  0  0  0  0  0  0  0  0  0
   -9.5679   -1.2008    3.8640 H   0  0  0  0  0  0  0  0  0  0  0  0
   -5.8561   -2.1071    3.7064 H   0  0  0  0  0  0  0  0  0  0  0  0
   -7.1123   -2.8056    4.7196 H   0  0  0  0  0  0  0  0  0  0  0  0
   -6.6354   -3.6283    3.2007 H   0  0  0  0  0  0  0  0  0  0  0  0
  -10.8541    0.6132    0.5532 H   0  0  0  0  0  0  0  0  0  0  0  0
  -12.6329   -0.1587   -1.7436 H   0  0  0  0  0  0  0  0  0  0  0  0
  -10.9958   -2.5578   -0.7879 H   0  0  0  0  0  0  0  0  0  0  0  0
  -11.8663   -1.5399    0.3465 H   0  0  0  0  0  0  0  0  0  0  0  0
  -13.0984   -4.1538    0.5466 H   0  0  0  0  0  0  0  0  0  0  0  0
  -15.2006   -5.0922   -0.6267 H   0  0  0  0  0  0  0  0  0  0  0  0
  -13.9016   -1.8055   -2.8942 H   0  0  0  0  0  0  0  0  0  0  0  0
  -11.4204   -2.3635   -3.0495 H   0  0  0  0  0  0  0  0  0  0  0  0
  -10.9291   -0.8096   -3.6480 H   0  0  0  0  0  0  0  0  0  0  0  0
  1  2  1  0
  2  3  1  0
  3  4  1  0
  4  5  1  0
  5  6  1  0
  6  7  1  0
  7  8  2  0
  7  9  1  0
  9 10  1  0
 10 11  1  0
 11 12  2  0
 11 13  1  0
 13 14  1  0
 14 15  1  0
 15 16  2  0
 15 17  1  0
 17 18  1  0
 18 19  1  0
 19 20  2  0
 19 21  1  0
 21 22  1  0
 22 23  1  0
 23 24  2  0
 23 25  1  0
 25 26  1  0
 26 27  1  0
 27 28  2  0
 27 29  1  0
 29 30  1  0
 30 31  1  0
 31 32  2  0
 31 33  1  0
 33 34  1  0
 34 35  1  0
 35 36  2  0
 35 37  1  0
 37 38  1  0
 38 39  1  0
 39 40  2  0
 39 41  1  0
 38 42  1  0
 42 43  1  0
 43 44  1  0
 44 45  1  0
 34 46  1  0
 46 47  1  0
 47 48  1  0
 47 49  1  0
 26 50  1  0
 50 51  1  0
 50 52  1  0
 22 53  1  0
 53 54  1  0
 54 55  2  0
 55 56  1  0
 56 57  2  0
 57 58  1  0
 58 59  2  0
 18 60  1  0
 60 61  1  0
 14 62  1  0
 62 63  1  0
 63 64  2  0
 63 65  1  0
 10 66  1  0
 66 67  1  0
 66 68  1  0
  6 69  1  0
 69 70  1  0
 70 71  2  0
 70 72  1  0
 72 73  1  0
 73 74  1  0
 74 75  1  0
 75 76  1  0
 76 77  2  0
 77 78  1  0
 72 79  1  0
 59 54  1  0
 78 74  2  0
  1 80  1  0
  1 81  1  0
  2 82  1  0
  2 83  1  0
  3 84  1  0
  3 85  1  0
  4 86  1  0
  4 87  1  0
  5 88  1  0
  5 89  1  0
  6 90  1  6
  9 91  1  0
 10 92  1  1
 13 93  1  0
 14 94  1  1
 17 95  1  0
 18 96  1  6
 21 97  1  0
 22 98  1  1
 25 99  1  0
 26100  1  1
 29101  1  0
 30102  1  0
 30103  1  0
 33104  1  0
 34105  1  1
 37106  1  0
 38107  1  1
 41108  1  0
 41109  1  0
 42110  1  0
 42111  1  0
 43112  1  0
 43113  1  0
 45114  1  0
 45115  1  0
 45116  1  0
 46117  1  0
 46118  1  0
 47119  1  0
 48120  1  0
 48121  1  0
 48122  1  0
 49123  1  0
 49124  1  0
 49125  1  0
 50126  1  0
 51127  1  0
 51128  1  0
 51129  1  0
 52130  1  0
 52131  1  0
 52132  1  0
 53133  1  0
 53134  1  0
 55135  1  0
 56136  1  0
 57137  1  0
 58138  1  0
 59139  1  0
 60140  1  0
 60141  1  0
 61142  1  0
 62143  1  0
 62144  1  0
 65145  1  0
 66146  1  6
 67147  1  0
 68148  1  0
 68149  1  0
 68150  1  0
 69151  1  0
 72152  1  6
 73153  1  0
 73154  1  0
 75155  1  0
 76156  1  0
 78157  1  0
 79158  1  0
 79159  1  0
M  END
>  <Ligand ID>  (1) 
LIG0001103

>  <Ligand>  (1) 
neurokinin A

>  <SMILES>  (1) 
NCCCC[C@@H](C(=O)N[C@H](C(=O)N[C@H](C(=O)N[C@H](C(=O)N[C@H](C(=O)N[C@H](C(=O)NCC(=O)N[C@H](C(=O)N[C@H](C(=O)N)CCSC)CC(C)C)C(C)C)Cc1ccccc1)CO)CC(=O)O)[C@H](O)C)NC(=O)[C@H](Cc1[nH]cnc1)N

>  <CID>  (1) 
5311311.0

>  <ChEMBL ID>  (1) 
nan

>  <InChiKey>  (1) 
HEAUFJZALFKPBA-JPQUDPSNSA-N

>  <InChi>  (1) 
InChI=1S/C50H80N14O14S/c1-26(2)18-34(45(73)58-32(42(53)70)15-17-79-6)57-38(67)23-55-49(77)40(27(3)4)63-47(75)35(19-29-12-8-7-9-13-29)60-48(76)37(24-65)62-46(74)36(21-39(68)69)61-50(78)41(28(5)66)64-44(72)33(14-10-11-16-51)59-43(71)31(52)20-30-22-54-25-56-30/h7-9,12-13,22,25-28,31-37,40-41,65-66H,10-11,14-21,23-24,51-52H2,1-6H3,(H2,53,70)(H,54,56)(H,55,77)(H,57,67)(H,58,73)(H,59,71)(H,60,76)(H,61,78)(H,62,74)(H,63,75)(H,64,72)(H,68,69)/t28-,31+,32+,33+,34+,35+,36+,37+,40+,41+/m1/s1

>  <IUPAC Name>  (1) 
(3S)-3-[[(2S,3R)-2-[[(2S)-6-amino-2-[[(2S)-2-amino-3-(1H-imidazol-5-yl)propanoyl]amino]hexanoyl]amino]-3-hydroxybutanoyl]amino]-4-[[(2S)-1-[[(2S)-1-[[(2S)-1-[[2-[[(2S)-1-[[(2S)-1-amino-4-methylsulfanyl-1-oxobutan-2-yl]amino]-4-methyl-1-oxopentan-2-yl]amino]-2-oxoethyl]amino]-3-methyl-1-oxobutan-2-yl]amino]-1-oxo-3-phenylpropan-2-yl]amino]-3-hydroxy-1-oxopropan-2-yl]amino]-4-oxobutanoic acid

$$$$
