
     RDKit          3D

 55 58  0  0  0  0  0  0  0  0999 V2000
    4.7203   -4.4869   -0.5297 C   0  0  0  0  0  0  0  0  0  0  0  0
    5.4859   -3.3170   -0.4863 O   0  0  0  0  0  0  0  0  0  0  0  0
    5.0510   -2.0940    0.0178 C   0  0  0  0  0  0  0  0  0  0  0  0
    5.9832   -1.0578   -0.0382 C   0  0  0  0  0  0  0  0  0  0  0  0
    5.6161    0.1797    0.4446 C   0  0  0  0  0  0  0  0  0  0  0  0
    4.3490    0.3464    0.9618 C   0  0  0  0  0  0  0  0  0  0  0  0
    3.4146   -0.6670    1.0250 C   0  0  0  0  0  0  0  0  0  0  0  0
    3.7852   -1.9135    0.5383 C   0  0  0  0  0  0  0  0  0  0  0  0
    2.0781   -0.3912    1.6021 C   0  0  0  0  0  0  0  0  0  0  0  0
    1.1187    0.1271    0.5964 C   0  0  0  0  0  0  0  0  0  0  0  0
    0.8310    1.4923    0.6063 C   0  0  0  0  0  0  0  0  0  0  0  0
   -0.0465    2.0552   -0.2930 C   0  0  0  0  0  0  0  0  0  0  0  0
   -0.6235    1.2436   -1.1894 N   0  0  0  0  0  0  0  0  0  0  0  0
   -0.3722   -0.0655   -1.2282 N   0  0  0  0  0  0  0  0  0  0  0  0
    0.4909   -0.6274   -0.3457 C   0  0  0  0  0  0  0  0  0  0  0  0
    0.7045   -1.8434   -0.4049 O   0  0  0  0  0  0  0  0  0  0  0  0
   -1.0553   -0.8365   -2.2417 C   0  0  0  0  0  0  0  0  0  0  0  0
   -2.3702   -1.3728   -1.7721 C   0  0  0  0  0  0  0  0  0  0  0  0
   -3.0202   -2.0516   -2.5919 O   0  0  0  0  0  0  0  0  0  0  0  0
   -2.8316   -1.1090   -0.4586 N   0  0  0  0  0  0  0  0  0  0  0  0
   -4.0343   -1.5478    0.1028 C   0  0  0  0  0  0  0  0  0  0  0  0
   -4.9905   -2.3095   -0.4954 C   0  0  0  0  0  0  0  0  0  0  0  0
   -6.1698   -2.7078    0.1358 C   0  0  0  0  0  0  0  0  0  0  0  0
   -6.4178   -2.3296    1.4377 C   0  0  0  0  0  0  0  0  0  0  0  0
   -5.4445   -1.5541    2.0471 C   0  0  0  0  0  0  0  0  0  0  0  0
   -4.2954   -1.1682    1.4261 C   0  0  0  0  0  0  0  0  0  0  0  0
   -7.5267   -2.6704    2.1157 F   0  0  0  0  0  0  0  0  0  0  0  0
   -0.3768    3.4717   -0.3209 C   0  0  0  0  0  0  0  0  0  0  0  0
   -1.2704    3.9064   -1.2729 C   0  0  0  0  0  0  0  0  0  0  0  0
   -1.6473    5.2281   -1.3807 C   0  0  0  0  0  0  0  0  0  0  0  0
   -1.0981    6.1353   -0.4926 C   0  0  0  0  0  0  0  0  0  0  0  0
   -0.2113    5.7449    0.4627 C   0  0  0  0  0  0  0  0  0  0  0  0
    0.1438    4.4007    0.5387 C   0  0  0  0  0  0  0  0  0  0  0  0
   -1.5781    7.8003   -0.6349 Cl  0  0  0  0  0  0  0  0  0  0  0  0
    4.1586   -4.6376   -1.4690 H   0  0  0  0  0  0  0  0  0  0  0  0
    4.0850   -4.5145    0.3838 H   0  0  0  0  0  0  0  0  0  0  0  0
    5.4450   -5.3436   -0.4036 H   0  0  0  0  0  0  0  0  0  0  0  0
    6.9762   -1.1918   -0.4444 H   0  0  0  0  0  0  0  0  0  0  0  0
    6.3399    0.9896    0.4027 H   0  0  0  0  0  0  0  0  0  0  0  0
    4.0477    1.3213    1.3464 H   0  0  0  0  0  0  0  0  0  0  0  0
    3.1026   -2.7309    0.5651 H   0  0  0  0  0  0  0  0  0  0  0  0
    1.6995   -1.3836    1.9812 H   0  0  0  0  0  0  0  0  0  0  0  0
    2.1312    0.3309    2.4640 H   0  0  0  0  0  0  0  0  0  0  0  0
    1.3104    2.1062    1.3354 H   0  0  0  0  0  0  0  0  0  0  0  0
   -1.1204   -0.2469   -3.1574 H   0  0  0  0  0  0  0  0  0  0  0  0
   -0.3988   -1.7197   -2.4789 H   0  0  0  0  0  0  0  0  0  0  0  0
   -2.1699   -0.5149    0.1294 H   0  0  0  0  0  0  0  0  0  0  0  0
   -4.8725   -2.6446   -1.5074 H   0  0  0  0  0  0  0  0  0  0  0  0
   -6.9049   -3.3196   -0.3906 H   0  0  0  0  0  0  0  0  0  0  0  0
   -5.6152   -1.2465    3.0619 H   0  0  0  0  0  0  0  0  0  0  0  0
   -3.5880   -0.5572    1.9888 H   0  0  0  0  0  0  0  0  0  0  0  0
   -1.7255    3.2219   -1.9913 H   0  0  0  0  0  0  0  0  0  0  0  0
   -2.3519    5.5364   -2.1400 H   0  0  0  0  0  0  0  0  0  0  0  0
    0.2122    6.4439    1.1469 H   0  0  0  0  0  0  0  0  0  0  0  0
    0.8467    4.0905    1.2952 H   0  0  0  0  0  0  0  0  0  0  0  0
  1  2  1  0
  2  3  1  0
  3  4  2  0
  4  5  1  0
  5  6  2  0
  6  7  1  0
  7  8  2  0
  7  9  1  0
  9 10  1  0
 10 11  2  0
 11 12  1  0
 12 13  2  0
 13 14  1  0
 14 15  1  0
 15 16  2  0
 14 17  1  0
 17 18  1  0
 18 19  2  0
 18 20  1  0
 20 21  1  0
 21 22  2  0
 22 23  1  0
 23 24  2  0
 24 25  1  0
 25 26  2  0
 24 27  1  0
 12 28  1  0
 28 29  2  0
 29 30  1  0
 30 31  2  0
 31 32  1  0
 32 33  2  0
 31 34  1  0
  8  3  1  0
 15 10  1  0
 26 21  1  0
 33 28  1  0
  1 35  1  0
  1 36  1  0
  1 37  1  0
  4 38  1  0
  5 39  1  0
  6 40  1  0
  8 41  1  0
  9 42  1  0
  9 43  1  0
 11 44  1  0
 17 45  1  0
 17 46  1  0
 20 47  1  0
 22 48  1  0
 23 49  1  0
 25 50  1  0
 26 51  1  0
 29 52  1  0
 30 53  1  0
 32 54  1  0
 33 55  1  0
M  END
>  <Ligand ID>  (1) 
LIG0004842

>  <Ligand>  (1) 
CHEMBL2391269

>  <SMILES>  (1) 
COc1cccc(c1)Cc1cc(nn(c1=O)CC(=O)Nc1ccc(cc1)F)c1ccc(cc1)Cl

>  <CID>  (1) 
71698713.0

>  <ChEMBL ID>  (1) 
nan

>  <InChiKey>  (1) 
GQCTVNROIUWJCC-UHFFFAOYSA-N

>  <InChi>  (1) 
InChI=1S/C26H21ClFN3O3/c1-34-23-4-2-3-17(14-23)13-19-15-24(18-5-7-20(27)8-6-18)30-31(26(19)33)16-25(32)29-22-11-9-21(28)10-12-22/h2-12,14-15H,13,16H2,1H3,(H,29,32)

>  <IUPAC Name>  (1) 
2-[3-(4-chlorophenyl)-5-[(3-methoxyphenyl)methyl]-6-oxopyridazin-1-yl]-N-(4-fluorophenyl)acetamide

$$$$
