
     RDKit          3D

 22 22  0  0  0  0  0  0  0  0999 V2000
    3.2658    0.8560    0.9780 O   0  0  0  0  0  0  0  0  0  0  0  0
    2.1099    0.7697    0.1678 C   0  0  0  0  0  0  0  0  0  0  0  0
    1.8866   -0.6876   -0.1302 C   0  0  0  0  0  0  0  0  0  0  0  0
    0.6756   -0.9463   -0.9955 C   0  0  0  0  0  0  0  0  0  0  0  0
   -0.5784   -0.4792   -0.3971 C   0  0  0  0  0  0  0  0  0  0  0  0
   -1.3837   -1.2619    0.4256 C   0  0  0  0  0  0  0  0  0  0  0  0
   -2.5581   -0.7267    0.9464 C   0  0  0  0  0  0  0  0  0  0  0  0
   -2.9621    0.5647    0.6772 C   0  0  0  0  0  0  0  0  0  0  0  0
   -2.1615    1.3389   -0.1392 C   0  0  0  0  0  0  0  0  0  0  0  0
   -0.9959    0.8139   -0.6587 C   0  0  0  0  0  0  0  0  0  0  0  0
    4.0505    0.7730    0.4021 H   0  0  0  0  0  0  0  0  0  0  0  0
    1.3010    1.2035    0.7775 H   0  0  0  0  0  0  0  0  0  0  0  0
    2.2977    1.3948   -0.7062 H   0  0  0  0  0  0  0  0  0  0  0  0
    1.8215   -1.2205    0.8404 H   0  0  0  0  0  0  0  0  0  0  0  0
    2.7686   -1.0756   -0.6804 H   0  0  0  0  0  0  0  0  0  0  0  0
    0.6599   -2.0466   -1.1720 H   0  0  0  0  0  0  0  0  0  0  0  0
    0.8149   -0.4783   -1.9901 H   0  0  0  0  0  0  0  0  0  0  0  0
   -1.0800   -2.2733    0.6445 H   0  0  0  0  0  0  0  0  0  0  0  0
   -3.1863   -1.3374    1.5884 H   0  0  0  0  0  0  0  0  0  0  0  0
   -3.8768    0.9921    1.0786 H   0  0  0  0  0  0  0  0  0  0  0  0
   -2.4587    2.3585   -0.3655 H   0  0  0  0  0  0  0  0  0  0  0  0
   -0.4103    1.4683   -1.2915 H   0  0  0  0  0  0  0  0  0  0  0  0
  1  2  1  0
  2  3  1  0
  3  4  1  0
  4  5  1  0
  5  6  2  0
  6  7  1  0
  7  8  2  0
  8  9  1  0
  9 10  2  0
 10  5  1  0
  1 11  1  0
  2 12  1  0
  2 13  1  0
  3 14  1  0
  3 15  1  0
  4 16  1  0
  4 17  1  0
  6 18  1  0
  7 19  1  0
  8 20  1  0
  9 21  1  0
 10 22  1  0
M  END
>  <Ligand ID>  (1) 
LIG0000781

>  <Ligand>  (1) 
3-Phenylpropanol

>  <SMILES>  (1) 
OCCCc1ccccc1

>  <CID>  (1) 
31234.0

>  <ChEMBL ID>  (1) 
nan

>  <InChiKey>  (1) 
VAJVDSVGBWFCLW-UHFFFAOYSA-N

>  <InChi>  (1) 
InChI=1S/C9H12O/c10-8-4-7-9-5-2-1-3-6-9/h1-3,5-6,10H,4,7-8H2

>  <IUPAC Name>  (1) 
3-phenylpropan-1-ol

$$$$
