
     RDKit          3D

127129  0  0  0  0  0  0  0  0999 V2000
    8.9939   -2.4094    0.6298 N   0  0  0  0  0  0  0  0  0  0  0  0
    7.9342   -2.5995   -0.3445 C   0  0  0  0  0  0  0  0  0  0  0  0
    8.0287   -1.5760   -1.4630 C   0  0  0  0  0  0  0  0  0  0  0  0
    7.9172   -0.1554   -0.9794 C   0  0  1  0  0  0  0  0  0  0  0  0
    8.0145    0.8356   -2.1153 C   0  0  0  0  0  0  0  0  0  0  0  0
    7.1103    1.6731   -2.3457 O   0  0  0  0  0  0  0  0  0  0  0  0
    9.2134    0.7471   -2.9046 N   0  0  0  0  0  0  0  0  0  0  0  0
    9.4195    1.6586   -4.0264 C   0  0  0  0  0  0  0  0  0  0  0  0
    9.4069    3.0399   -3.4383 C   0  0  0  0  0  0  0  0  0  0  0  0
    9.5699    3.9855   -4.2642 O   0  0  0  0  0  0  0  0  0  0  0  0
    9.2269    3.2882   -2.0616 N   0  0  0  0  0  0  0  0  0  0  0  0
    6.6810    0.0343   -0.2526 N   0  0  0  0  0  0  0  0  0  0  0  0
    6.7426    0.6480    1.0108 C   0  0  0  0  0  0  0  0  0  0  0  0
    7.9149    0.9949    1.4096 O   0  0  0  0  0  0  0  0  0  0  0  0
    5.6374    0.9350    1.9136 C   0  0  2  0  0  0  0  0  0  0  0  0
    5.9233    0.4863    3.3213 C   0  0  0  0  0  0  0  0  0  0  0  0
    5.3359   -0.8835    3.3431 C   0  0  0  0  0  0  0  0  0  0  0  0
    4.2647   -0.8794    2.2746 C   0  0  0  0  0  0  0  0  0  0  0  0
    4.3527    0.3983    1.5697 N   0  0  0  0  0  0  0  0  0  0  0  0
    3.4014    1.0289    0.7336 C   0  0  0  0  0  0  0  0  0  0  0  0
    3.7736    2.1709    0.2418 O   0  0  0  0  0  0  0  0  0  0  0  0
    2.0844    0.5892    0.3540 C   0  0  2  0  0  0  0  0  0  0  0  0
    1.0157    1.6369    0.8337 C   0  0  0  0  0  0  0  0  0  0  0  0
    1.4934    3.2670    0.1388 S   0  0  0  0  0  0  0  0  0  0  0  0
    1.3787    3.1818   -1.9392 S   0  0  0  0  0  0  0  0  0  0  0  0
   -0.1334    3.6320   -2.7318 C   0  0  0  0  0  0  0  0  0  0  0  0
   -1.3347    2.7682   -2.4733 C   0  0  2  0  0  0  0  0  0  0  0  0
   -2.3423    3.0710   -3.5126 N   0  0  0  0  0  0  0  0  0  0  0  0
   -2.0313    3.2351   -1.2101 C   0  0  0  0  0  0  0  0  0  0  0  0
   -1.4816    3.4681   -0.1430 O   0  0  0  0  0  0  0  0  0  0  0  0
   -3.4640    3.4363   -1.2066 N   0  0  0  0  0  0  0  0  0  0  0  0
   -4.2270    3.8500   -0.0546 C   0  0  1  0  0  0  0  0  0  0  0  0
   -5.0799    5.0533   -0.2601 C   0  0  0  0  0  0  0  0  0  0  0  0
   -6.0489    4.7223   -1.3662 C   0  0  0  0  0  0  0  0  0  0  0  0
   -5.8748    4.9151   -2.6859 N   0  0  0  0  0  0  0  0  0  0  0  0
   -6.9694    4.4871   -3.3396 C   0  0  0  0  0  0  0  0  0  0  0  0
   -7.8642    4.0126   -2.4490 N   0  0  0  0  0  0  0  0  0  0  0  0
   -7.3050    4.1544   -1.2351 C   0  0  0  0  0  0  0  0  0  0  0  0
   -5.0513    2.6790    0.4502 C   0  0  0  0  0  0  0  0  0  0  0  0
   -5.8420    2.7483    1.3863 O   0  0  0  0  0  0  0  0  0  0  0  0
   -4.9094    1.4260   -0.1841 N   0  0  0  0  0  0  0  0  0  0  0  0
   -5.6737    0.2032    0.2666 C   0  0  2  0  0  0  0  0  0  0  0  0
   -4.7689   -0.5044    1.1605 C   0  0  0  0  0  0  0  0  0  0  0  0
   -3.6182    0.0388    1.3146 O   0  0  0  0  0  0  0  0  0  0  0  0
   -4.9220   -1.7060    1.9082 N   0  0  0  0  0  0  0  0  0  0  0  0
   -3.7973   -2.0668    2.7355 C   0  0  2  0  0  0  0  0  0  0  0  0
   -2.6049   -2.3612    1.8046 C   0  0  0  0  0  0  0  0  0  0  0  0
   -2.7461   -2.6094    0.6215 O   0  0  0  0  0  0  0  0  0  0  0  0
   -1.3166   -2.3268    2.3547 N   0  0  0  0  0  0  0  0  0  0  0  0
   -0.0490   -2.4753    1.6480 C   0  0  2  0  0  0  0  0  0  0  0  0
    0.4183   -1.0845    1.3033 C   0  0  0  0  0  0  0  0  0  0  0  0
   -0.4083   -0.1935    1.5243 O   0  0  0  0  0  0  0  0  0  0  0  0
    1.6652   -0.7241    0.7822 N   0  0  0  0  0  0  0  0  0  0  0  0
   -0.2250   -3.2187    0.3151 C   0  0  0  0  0  0  0  0  0  0  0  0
   -0.7931   -4.5521    0.5924 C   0  0  0  0  0  0  0  0  0  0  0  0
   -1.0437   -5.2829   -0.4177 O   0  0  0  0  0  0  0  0  0  0  0  0
   -1.0583   -5.0280    1.9035 N   0  0  0  0  0  0  0  0  0  0  0  0
   -3.9138   -2.9729    3.8545 C   0  0  0  0  0  0  0  0  0  0  0  0
   -4.3957   -4.3604    3.6702 C   0  0  0  0  0  0  0  0  0  0  0  0
   -5.8000   -4.4387    3.2634 C   0  0  0  0  0  0  0  0  0  0  0  0
   -6.6953   -3.6603    3.6755 O   0  0  0  0  0  0  0  0  0  0  0  0
   -6.2373   -5.4540    2.3435 N   0  0  0  0  0  0  0  0  0  0  0  0
   -6.2672   -0.4476   -0.9059 C   0  0  2  0  0  0  0  0  0  0  0  0
   -7.0392   -1.6792   -0.6480 C   0  0  0  0  0  0  0  0  0  0  0  0
   -7.6570   -2.2573   -1.9259 C   0  0  0  0  0  0  0  0  0  0  0  0
   -5.3065   -0.5899   -2.0767 C   0  0  0  0  0  0  0  0  0  0  0  0
    9.2851   -3.3260    1.0501 H   0  0  0  0  0  0  0  0  0  0  0  0
    9.8452   -1.9829    0.1923 H   0  0  0  0  0  0  0  0  0  0  0  0
    8.0788   -3.5869   -0.8127 H   0  0  0  0  0  0  0  0  0  0  0  0
    6.9776   -2.4911    0.1947 H   0  0  0  0  0  0  0  0  0  0  0  0
    7.3663   -1.8105   -2.2999 H   0  0  0  0  0  0  0  0  0  0  0  0
    9.0885   -1.6791   -1.8434 H   0  0  0  0  0  0  0  0  0  0  0  0
    8.8071    0.0705   -0.3608 H   0  0  0  0  0  0  0  0  0  0  0  0
    9.9469    0.0144   -2.6655 H   0  0  0  0  0  0  0  0  0  0  0  0
   10.4750    1.5089   -4.3794 H   0  0  0  0  0  0  0  0  0  0  0  0
    8.6933    1.5276   -4.8269 H   0  0  0  0  0  0  0  0  0  0  0  0
    8.7921    4.2003   -1.7526 H   0  0  0  0  0  0  0  0  0  0  0  0
    9.4906    2.6379   -1.2966 H   0  0  0  0  0  0  0  0  0  0  0  0
    5.7629   -0.2568   -0.6142 H   0  0  0  0  0  0  0  0  0  0  0  0
    5.5040    2.0436    1.9674 H   0  0  0  0  0  0  0  0  0  0  0  0
    5.4242    1.0980    4.0850 H   0  0  0  0  0  0  0  0  0  0  0  0
    7.0223    0.4258    3.4876 H   0  0  0  0  0  0  0  0  0  0  0  0
    6.0872   -1.6929    3.2028 H   0  0  0  0  0  0  0  0  0  0  0  0
    4.8692   -1.0991    4.3358 H   0  0  0  0  0  0  0  0  0  0  0  0
    4.4894   -1.6977    1.5929 H   0  0  0  0  0  0  0  0  0  0  0  0
    3.2650   -1.0294    2.7553 H   0  0  0  0  0  0  0  0  0  0  0  0
    1.9200    0.6724   -0.7560 H   0  0  0  0  0  0  0  0  0  0  0  0
    0.9059    1.6422    1.9007 H   0  0  0  0  0  0  0  0  0  0  0  0
    0.0857    1.3937    0.2882 H   0  0  0  0  0  0  0  0  0  0  0  0
   -0.3904    4.7145   -2.5296 H   0  0  0  0  0  0  0  0  0  0  0  0
    0.0687    3.6342   -3.8515 H   0  0  0  0  0  0  0  0  0  0  0  0
   -1.1531    1.7009   -2.4906 H   0  0  0  0  0  0  0  0  0  0  0  0
   -2.9908    2.2841   -3.6678 H   0  0  0  0  0  0  0  0  0  0  0  0
   -1.9104    3.3945   -4.3886 H   0  0  0  0  0  0  0  0  0  0  0  0
   -3.9093    3.2585   -2.1072 H   0  0  0  0  0  0  0  0  0  0  0  0
   -3.5329    4.0538    0.8109 H   0  0  0  0  0  0  0  0  0  0  0  0
   -4.5056    5.9601   -0.5071 H   0  0  0  0  0  0  0  0  0  0  0  0
   -5.6411    5.2558    0.6714 H   0  0  0  0  0  0  0  0  0  0  0  0
   -5.0011    5.3368   -3.0710 H   0  0  0  0  0  0  0  0  0  0  0  0
   -7.1385    4.5054   -4.4048 H   0  0  0  0  0  0  0  0  0  0  0  0
   -7.7742    3.8649   -0.3081 H   0  0  0  0  0  0  0  0  0  0  0  0
   -4.2643    1.3741   -0.9681 H   0  0  0  0  0  0  0  0  0  0  0  0
   -6.5121    0.5811    0.9325 H   0  0  0  0  0  0  0  0  0  0  0  0
   -5.7980   -2.1836    1.7990 H   0  0  0  0  0  0  0  0  0  0  0  0
   -3.4264   -1.0582    3.1600 H   0  0  0  0  0  0  0  0  0  0  0  0
   -1.2549   -2.1852    3.3710 H   0  0  0  0  0  0  0  0  0  0  0  0
    0.6859   -2.9915    2.2564 H   0  0  0  0  0  0  0  0  0  0  0  0
    2.3401   -1.4960    0.6831 H   0  0  0  0  0  0  0  0  0  0  0  0
    0.8354   -3.3716   -0.0815 H   0  0  0  0  0  0  0  0  0  0  0  0
   -0.7924   -2.6893   -0.4297 H   0  0  0  0  0  0  0  0  0  0  0  0
   -1.7118   -5.8422    2.0181 H   0  0  0  0  0  0  0  0  0  0  0  0
   -0.5953   -4.5542    2.7194 H   0  0  0  0  0  0  0  0  0  0  0  0
   -2.9074   -3.0331    4.3669 H   0  0  0  0  0  0  0  0  0  0  0  0
   -4.5468   -2.4748    4.6436 H   0  0  0  0  0  0  0  0  0  0  0  0
   -3.7307   -4.9574    3.0003 H   0  0  0  0  0  0  0  0  0  0  0  0
   -4.3298   -4.8991    4.6572 H   0  0  0  0  0  0  0  0  0  0  0  0
   -7.1015   -6.0104    2.4867 H   0  0  0  0  0  0  0  0  0  0  0  0
   -5.6775   -5.6722    1.4674 H   0  0  0  0  0  0  0  0  0  0  0  0
   -7.0318    0.3078   -1.3067 H   0  0  0  0  0  0  0  0  0  0  0  0
   -7.8384   -1.6193    0.0949 H   0  0  0  0  0  0  0  0  0  0  0  0
   -6.3351   -2.5012   -0.2979 H   0  0  0  0  0  0  0  0  0  0  0  0
   -8.4701   -2.9578   -1.6334 H   0  0  0  0  0  0  0  0  0  0  0  0
   -8.1202   -1.4824   -2.5600 H   0  0  0  0  0  0  0  0  0  0  0  0
   -6.8892   -2.8739   -2.4289 H   0  0  0  0  0  0  0  0  0  0  0  0
   -5.8759   -1.1675   -2.8629 H   0  0  0  0  0  0  0  0  0  0  0  0
   -4.4253   -1.1902   -1.8676 H   0  0  0  0  0  0  0  0  0  0  0  0
   -5.1527    0.3985   -2.5120 H   0  0  0  0  0  0  0  0  0  0  0  0
  1  2  1  0
  2  3  1  0
  3  4  1  0
  4  5  1  0
  5  6  2  0
  5  7  1  0
  7  8  1  0
  8  9  1  0
  9 10  2  0
  9 11  1  0
  4 12  1  0
 12 13  1  0
 13 14  2  0
 13 15  1  0
 15 16  1  0
 16 17  1  0
 17 18  1  0
 18 19  1  0
 19 20  1  0
 20 21  2  0
 20 22  1  0
 22 23  1  0
 23 24  1  0
 24 25  1  0
 25 26  1  0
 26 27  1  0
 27 28  1  0
 27 29  1  0
 29 30  2  0
 29 31  1  0
 31 32  1  0
 32 33  1  0
 33 34  1  0
 34 35  1  0
 35 36  1  0
 36 37  2  0
 37 38  1  0
 32 39  1  0
 39 40  2  0
 39 41  1  0
 41 42  1  0
 42 43  1  0
 43 44  2  0
 43 45  1  0
 45 46  1  0
 46 47  1  0
 47 48  2  0
 47 49  1  0
 49 50  1  0
 50 51  1  0
 51 52  2  0
 51 53  1  0
 50 54  1  0
 54 55  1  0
 55 56  2  0
 55 57  1  0
 46 58  1  0
 58 59  1  0
 59 60  1  0
 60 61  2  0
 60 62  1  0
 42 63  1  0
 63 64  1  0
 64 65  1  0
 63 66  1  0
 19 15  1  0
 53 22  1  0
 38 34  2  0
  1 67  1  0
  1 68  1  0
  2 69  1  0
  2 70  1  0
  3 71  1  0
  3 72  1  0
  4 73  1  1
  7 74  1  0
  8 75  1  0
  8 76  1  0
 11 77  1  0
 11 78  1  0
 12 79  1  0
 15 80  1  1
 16 81  1  0
 16 82  1  0
 17 83  1  0
 17 84  1  0
 18 85  1  0
 18 86  1  0
 22 87  1  6
 23 88  1  0
 23 89  1  0
 26 90  1  0
 26 91  1  0
 27 92  1  1
 28 93  1  0
 28 94  1  0
 31 95  1  0
 32 96  1  1
 33 97  1  0
 33 98  1  0
 35 99  1  0
 36100  1  0
 38101  1  0
 41102  1  0
 42103  1  1
 45104  1  0
 46105  1  1
 49106  1  0
 50107  1  1
 53108  1  0
 54109  1  0
 54110  1  0
 57111  1  0
 57112  1  0
 58113  1  0
 58114  1  0
 59115  1  0
 59116  1  0
 62117  1  0
 62118  1  0
 63119  1  6
 64120  1  0
 64121  1  0
 65122  1  0
 65123  1  0
 65124  1  0
 66125  1  0
 66126  1  0
 66127  1  0
M  END
>  <Ligand ID>  (1) 
LIG0001615

>  <Ligand>  (1) 
CHEMBL1819544

>  <SMILES>  (1) 
NCC[C@@H](C(=O)NCC(=O)N)NC(=O)[C@@H]1CCCN1C(=O)[C@@H]1CSSC[C@H](N)C(=O)N[C@@H](Cc2[nH]cnc2)C(=O)N[C@H](C(=O)N[C@H](C(=O)N[C@H](C(=O)N1)CC(=O)N)CCC(=O)N)[C@H](CC)C

>  <CID>  (1) 
53362793.0

>  <ChEMBL ID>  (1) 
nan

>  <InChiKey>  (1) 
IHJXSTUXSZOYMZ-URPKOMAESA-N

>  <InChi>  (1) 
InChI=1S/C38H61N15O11S2/c1-3-18(2)30-37(63)48-21(6-7-27(41)54)33(59)50-24(12-28(42)55)34(60)51-25(16-66-65-15-20(40)31(57)49-23(35(61)52-30)11-19-13-44-17-46-19)38(64)53-10-4-5-26(53)36(62)47-22(8-9-39)32(58)45-14-29(43)56/h13,17-18,20-26,30H,3-12,14-16,39-40H2,1-2H3,(H2,41,54)(H2,42,55)(H2,43,56)(H,44,46)(H,45,58)(H,47,62)(H,48,63)(H,49,57)(H,50,59)(H,51,60)(H,52,61)/t18-,20-,21-,22-,23-,24-,25-,26-,30-/m0/s1

>  <IUPAC Name>  (1) 
(2S)-N-[(2S)-4-amino-1-[(2-amino-2-oxoethyl)amino]-1-oxobutan-2-yl]-1-[(4R,7S,10S,13S,16S,19R)-19-amino-7-(2-amino-2-oxoethyl)-10-(3-amino-3-oxopropyl)-13-[(2S)-butan-2-yl]-16-(1H-imidazol-5-ylmethyl)-6,9,12,15,18-pentaoxo-1,2-dithia-5,8,11,14,17-pentazacycloicosane-4-carbonyl]pyrrolidine-2-carboxamide

$$$$
