
     RDKit          3D

 61 63  0  0  0  0  0  0  0  0999 V2000
   -0.5310   -2.5910    0.6407 C   0  0  0  0  0  0  0  0  0  0  0  0
   -1.3630   -1.3672    0.4980 C   0  0  0  0  0  0  0  0  0  0  0  0
   -0.7823   -0.1940    0.0360 C   0  0  0  0  0  0  0  0  0  0  0  0
    0.5661   -0.1348   -0.2989 O   0  0  0  0  0  0  0  0  0  0  0  0
    1.0710    1.0903   -0.7579 C   0  0  0  0  0  0  0  0  0  0  0  0
    2.5588    0.9667   -1.0756 C   0  0  0  0  0  0  0  0  0  0  0  0
    3.3396    0.5625    0.1587 C   0  0  0  0  0  0  0  0  0  0  0  0
    4.8101    0.4449   -0.1761 C   0  0  0  0  0  0  0  0  0  0  0  0
    5.5920    0.0703    0.9427 O   0  0  0  0  0  0  0  0  0  0  0  0
    6.9759   -0.0802    0.7904 C   0  0  0  0  0  0  0  0  0  0  0  0
    7.7206   -0.4450    1.8903 C   0  0  0  0  0  0  0  0  0  0  0  0
    9.0838   -0.5941    1.7434 C   0  0  0  0  0  0  0  0  0  0  0  0
    9.7253   -0.3900    0.5322 C   0  0  0  0  0  0  0  0  0  0  0  0
    8.9432   -0.0255   -0.5445 C   0  0  0  0  0  0  0  0  0  0  0  0
    7.5757    0.1319   -0.4304 C   0  0  0  0  0  0  0  0  0  0  0  0
    9.5734    0.2028   -1.8500 C   0  0  0  0  0  0  0  0  0  0  0  0
    8.8649    0.5404   -2.8579 O   0  0  0  0  0  0  0  0  0  0  0  0
   10.9329    0.0607   -2.0238 O   0  0  0  0  0  0  0  0  0  0  0  0
   -1.6211    0.9038   -0.0701 C   0  0  0  0  0  0  0  0  0  0  0  0
   -2.9588    0.8480    0.2610 C   0  0  0  0  0  0  0  0  0  0  0  0
   -3.5238   -0.3233    0.7188 C   0  0  0  0  0  0  0  0  0  0  0  0
   -2.7128   -1.4333    0.8349 C   0  0  0  0  0  0  0  0  0  0  0  0
   -3.2071   -2.6705    1.2940 O   0  0  0  0  0  0  0  0  0  0  0  0
   -4.9252   -0.4499    1.0836 C   0  0  0  0  0  0  0  0  0  0  0  0
   -5.3105   -1.5787    1.4851 O   0  0  0  0  0  0  0  0  0  0  0  0
   -5.9124    0.6323    1.0181 C   0  0  0  0  0  0  0  0  0  0  0  0
   -6.7368    0.4893   -0.2437 C   0  0  0  0  0  0  0  0  0  0  0  0
   -7.7433    1.6130   -0.2874 C   0  0  0  0  0  0  0  0  0  0  0  0
   -8.8600    0.9918   -1.1094 C   0  0  0  0  0  0  0  0  0  0  0  0
   -8.9995   -0.3631   -0.4385 C   0  0  0  0  0  0  0  0  0  0  0  0
   -7.5424   -0.7656   -0.2721 C   0  0  0  0  0  0  0  0  0  0  0  0
    0.5086   -2.3928    0.3612 H   0  0  0  0  0  0  0  0  0  0  0  0
   -1.0151   -3.3913    0.0707 H   0  0  0  0  0  0  0  0  0  0  0  0
   -0.6031   -2.9017    1.7146 H   0  0  0  0  0  0  0  0  0  0  0  0
    0.4996    1.4032   -1.6423 H   0  0  0  0  0  0  0  0  0  0  0  0
    1.0028    1.8092    0.0827 H   0  0  0  0  0  0  0  0  0  0  0  0
    2.9203    1.9512   -1.4491 H   0  0  0  0  0  0  0  0  0  0  0  0
    2.6301    0.1838   -1.8575 H   0  0  0  0  0  0  0  0  0  0  0  0
    3.0010   -0.4664    0.4429 H   0  0  0  0  0  0  0  0  0  0  0  0
    3.1987    1.2642    0.9891 H   0  0  0  0  0  0  0  0  0  0  0  0
    4.9948   -0.2040   -1.0445 H   0  0  0  0  0  0  0  0  0  0  0  0
    5.1306    1.4864   -0.4705 H   0  0  0  0  0  0  0  0  0  0  0  0
    7.2019   -0.6009    2.8333 H   0  0  0  0  0  0  0  0  0  0  0  0
    9.6366   -0.8791    2.6199 H   0  0  0  0  0  0  0  0  0  0  0  0
   10.7840   -0.5211    0.4805 H   0  0  0  0  0  0  0  0  0  0  0  0
    7.0209    0.4170   -1.2994 H   0  0  0  0  0  0  0  0  0  0  0  0
   11.4192    0.6778   -2.6912 H   0  0  0  0  0  0  0  0  0  0  0  0
   -1.1771    1.8310   -0.4316 H   0  0  0  0  0  0  0  0  0  0  0  0
   -3.5531    1.7240    0.1582 H   0  0  0  0  0  0  0  0  0  0  0  0
   -2.7564   -3.0120    2.1312 H   0  0  0  0  0  0  0  0  0  0  0  0
   -6.5271    0.6128    1.9265 H   0  0  0  0  0  0  0  0  0  0  0  0
   -5.3974    1.6136    1.0211 H   0  0  0  0  0  0  0  0  0  0  0  0
   -6.0917    0.5923   -1.1381 H   0  0  0  0  0  0  0  0  0  0  0  0
   -8.1338    1.8926    0.7084 H   0  0  0  0  0  0  0  0  0  0  0  0
   -7.3055    2.4799   -0.8267 H   0  0  0  0  0  0  0  0  0  0  0  0
   -9.7848    1.5766   -1.0468 H   0  0  0  0  0  0  0  0  0  0  0  0
   -8.4778    0.8249   -2.1370 H   0  0  0  0  0  0  0  0  0  0  0  0
   -9.4733   -0.2587    0.5381 H   0  0  0  0  0  0  0  0  0  0  0  0
   -9.5216   -1.0934   -1.0744 H   0  0  0  0  0  0  0  0  0  0  0  0
   -7.2602   -1.3590   -1.1689 H   0  0  0  0  0  0  0  0  0  0  0  0
   -7.4744   -1.4029    0.6180 H   0  0  0  0  0  0  0  0  0  0  0  0
  1  2  1  0
  2  3  2  0
  3  4  1  0
  4  5  1  0
  5  6  1  0
  6  7  1  0
  7  8  1  0
  8  9  1  0
  9 10  1  0
 10 11  2  0
 11 12  1  0
 12 13  2  0
 13 14  1  0
 14 15  2  0
 14 16  1  0
 16 17  2  0
 16 18  1  0
  3 19  1  0
 19 20  2  0
 20 21  1  0
 21 22  2  0
 22 23  1  0
 21 24  1  0
 24 25  2  0
 24 26  1  0
 26 27  1  0
 27 28  1  0
 28 29  1  0
 29 30  1  0
 30 31  1  0
 22  2  1  0
 31 27  1  0
 15 10  1  0
  1 32  1  0
  1 33  1  0
  1 34  1  0
  5 35  1  0
  5 36  1  0
  6 37  1  0
  6 38  1  0
  7 39  1  0
  7 40  1  0
  8 41  1  0
  8 42  1  0
 11 43  1  0
 12 44  1  0
 13 45  1  0
 15 46  1  0
 18 47  1  0
 19 48  1  0
 20 49  1  0
 23 50  1  0
 26 51  1  0
 26 52  1  0
 27 53  1  0
 28 54  1  0
 28 55  1  0
 29 56  1  0
 29 57  1  0
 30 58  1  0
 30 59  1  0
 31 60  1  0
 31 61  1  0
M  END
>  <Ligand ID>  (1) 
LIG0003653

>  <Ligand>  (1) 
CHEMBL3287676

>  <SMILES>  (1) 
Cc1c(OCCCCOc2cccc(c2)C(=O)O)ccc(c1O)C(=O)CC1CCCC1

>  <CID>  (1) 
90643861.0

>  <ChEMBL ID>  (1) 
nan

>  <InChiKey>  (1) 
UUGVIOPJBPICMU-UHFFFAOYSA-N

>  <InChi>  (1) 
InChI=1S/C25H30O6/c1-17-23(12-11-21(24(17)27)22(26)15-18-7-2-3-8-18)31-14-5-4-13-30-20-10-6-9-19(16-20)25(28)29/h6,9-12,16,18,27H,2-5,7-8,13-15H2,1H3,(H,28,29)

>  <IUPAC Name>  (1) 
3-[4-[4-(2-cyclopentylacetyl)-3-hydroxy-2-methylphenoxy]butoxy]benzoic acid

$$$$
