
     RDKit          3D

 16 15  0  0  0  0  0  0  0  0999 V2000
    1.8816   -0.9894    0.0289 N   0  0  0  0  0  0  0  0  0  0  0  0
    1.0150    0.1201    0.3177 C   0  0  0  0  0  0  0  0  0  0  0  0
   -0.2718    0.1021   -0.4669 C   0  0  0  0  0  0  0  0  0  0  0  0
   -1.0124    1.3549    0.0020 C   0  0  0  0  0  0  0  0  0  0  0  0
   -1.1602   -1.0538   -0.1142 C   0  0  0  0  0  0  0  0  0  0  0  0
    2.5390   -1.0693    0.8617 H   0  0  0  0  0  0  0  0  0  0  0  0
    2.5012   -0.7605   -0.7819 H   0  0  0  0  0  0  0  0  0  0  0  0
    1.5540    1.0525    0.0452 H   0  0  0  0  0  0  0  0  0  0  0  0
    0.7279    0.2011    1.3789 H   0  0  0  0  0  0  0  0  0  0  0  0
   -0.1105    0.1543   -1.5566 H   0  0  0  0  0  0  0  0  0  0  0  0
   -1.9777    1.4778   -0.5033 H   0  0  0  0  0  0  0  0  0  0  0  0
   -1.0994    1.2153    1.0956 H   0  0  0  0  0  0  0  0  0  0  0  0
   -0.3154    2.2044   -0.2342 H   0  0  0  0  0  0  0  0  0  0  0  0
   -0.6349   -1.9982    0.0633 H   0  0  0  0  0  0  0  0  0  0  0  0
   -1.7440   -0.8058    0.8095 H   0  0  0  0  0  0  0  0  0  0  0  0
   -1.8923   -1.2055   -0.9457 H   0  0  0  0  0  0  0  0  0  0  0  0
  1  2  1  0
  2  3  1  0
  3  4  1  0
  3  5  1  0
  1  6  1  0
  1  7  1  0
  2  8  1  0
  2  9  1  0
  3 10  1  0
  4 11  1  0
  4 12  1  0
  4 13  1  0
  5 14  1  0
  5 15  1  0
  5 16  1  0
M  END
>  <Ligand ID>  (1) 
LIG0000118

>  <Ligand>  (1) 
Isobutylamine

>  <SMILES>  (1) 
NCC(C)C

>  <CID>  (1) 
6558.0

>  <ChEMBL ID>  (1) 
nan

>  <InChiKey>  (1) 
KDSNLYIMUZNERS-UHFFFAOYSA-N

>  <InChi>  (1) 
InChI=1S/C4H11N/c1-4(2)3-5/h4H,3,5H2,1-2H3

>  <IUPAC Name>  (1) 
2-methylpropan-1-amine

$$$$
