
     RDKit          3D

 84 86  0  0  0  0  0  0  0  0999 V2000
  -12.4886    3.3489    2.1306 O   0  0  0  0  0  0  0  0  0  0  0  0
  -11.8435    3.7498    1.0001 N   0  0  0  0  0  0  0  0  0  0  0  0
  -12.0735    4.8439    0.4301 O   0  0  0  0  0  0  0  0  0  0  0  0
  -10.8861    2.9058    0.4276 C   0  0  0  0  0  0  0  0  0  0  0  0
   -9.8128    3.3060   -0.3294 C   0  0  0  0  0  0  0  0  0  0  0  0
   -8.9162    2.5521   -0.8931 C   0  0  0  0  0  0  0  0  0  0  0  0
   -8.9083    0.8750   -0.7896 C   0  0  0  0  0  0  0  0  0  0  0  0
   -9.9537    0.8838   -0.0730 C   0  0  0  0  0  0  0  0  0  0  0  0
  -10.9257    1.5176    0.5488 C   0  0  0  0  0  0  0  0  0  0  0  0
  -11.7547    0.6912    1.1725 N   0  0  0  0  0  0  0  0  0  0  0  0
  -11.3340   -0.5157    0.9640 O   0  0  0  0  0  0  0  0  0  0  0  0
  -10.3108   -0.5360    0.2601 N   0  0  0  0  0  0  0  0  0  0  0  0
   -7.7607    0.8668   -1.5765 N   0  0  0  0  0  0  0  0  0  0  0  0
   -7.3550   -0.6378   -1.6806 C   0  0  0  0  0  0  0  0  0  0  0  0
   -6.7704   -0.9443   -0.3385 C   0  0  0  0  0  0  0  0  0  0  0  0
   -6.4412   -2.3742   -0.0501 C   0  0  0  0  0  0  0  0  0  0  0  0
   -5.7829   -2.4628    1.3029 C   0  0  0  0  0  0  0  0  0  0  0  0
   -4.3626   -1.8930    1.3337 C   0  0  0  0  0  0  0  0  0  0  0  0
   -3.4805   -2.7200    0.4755 C   0  0  0  0  0  0  0  0  0  0  0  0
   -2.0702   -2.4391    0.3226 C   0  0  0  0  0  0  0  0  0  0  0  0
   -1.5692   -1.1993   -0.3397 C   0  0  0  0  0  0  0  0  0  0  0  0
   -0.0831   -1.3214   -0.3774 C   0  0  0  0  0  0  0  0  0  0  0  0
    0.5845   -1.1861    0.9679 C   0  0  0  0  0  0  0  0  0  0  0  0
    0.5389    0.3372    1.3444 C   0  0  0  0  0  0  0  0  0  0  0  0
    1.3124    0.8907    0.2619 O   0  0  0  0  0  0  0  0  0  0  0  0
    2.6696    0.6340    0.2012 C   0  0  0  0  0  0  0  0  0  0  0  0
    3.3416   -0.0319    1.2452 C   0  0  0  0  0  0  0  0  0  0  0  0
    4.6875   -0.3238    1.1937 C   0  0  0  0  0  0  0  0  0  0  0  0
    5.4400    0.0490    0.0701 C   0  0  0  0  0  0  0  0  0  0  0  0
    4.8122    0.7077   -0.9607 C   0  0  0  0  0  0  0  0  0  0  0  0
    3.4631    0.9737   -0.8573 C   0  0  0  0  0  0  0  0  0  0  0  0
    6.8692   -0.3137    0.1120 C   0  0  0  0  0  0  0  0  0  0  0  0
    7.6119    0.5205   -0.8929 C   0  0  0  0  0  0  0  0  0  0  0  0
    9.0776    0.2464   -0.8958 C   0  0  2  0  0  0  0  0  0  0  0  0
    9.7256    0.5789    0.4258 C   0  0  0  0  0  0  0  0  0  0  0  0
   11.1046    0.3523    0.3013 O   0  0  0  0  0  0  0  0  0  0  0  0
   11.9295    1.8234    0.5491 P   0  0  0  0  0  0  0  0  0  0  0  0
   13.2958    1.7399   -0.0792 O   0  0  0  0  0  0  0  0  0  0  0  0
   11.0928    3.0841   -0.2101 O   0  0  0  0  0  0  0  0  0  0  0  0
   12.0922    2.1659    2.1812 O   0  0  0  0  0  0  0  0  0  0  0  0
    9.6485    1.0852   -1.9600 N   0  0  0  0  0  0  0  0  0  0  0  0
    9.3026   -1.2180   -1.2332 C   0  0  0  0  0  0  0  0  0  0  0  0
   -9.7510    4.4137   -0.4475 H   0  0  0  0  0  0  0  0  0  0  0  0
   -8.1277    2.9286   -1.4538 H   0  0  0  0  0  0  0  0  0  0  0  0
   -7.1250    1.4019   -2.0685 H   0  0  0  0  0  0  0  0  0  0  0  0
   -8.2206   -1.2126   -1.9461 H   0  0  0  0  0  0  0  0  0  0  0  0
   -6.5863   -0.6888   -2.4455 H   0  0  0  0  0  0  0  0  0  0  0  0
   -5.8869   -0.2788   -0.1679 H   0  0  0  0  0  0  0  0  0  0  0  0
   -7.5216   -0.5649    0.4105 H   0  0  0  0  0  0  0  0  0  0  0  0
   -5.9106   -2.9149   -0.8521 H   0  0  0  0  0  0  0  0  0  0  0  0
   -7.4165   -2.9221    0.0561 H   0  0  0  0  0  0  0  0  0  0  0  0
   -6.4351   -1.9363    2.0246 H   0  0  0  0  0  0  0  0  0  0  0  0
   -5.7387   -3.5246    1.6118 H   0  0  0  0  0  0  0  0  0  0  0  0
   -3.9942   -1.9497    2.3856 H   0  0  0  0  0  0  0  0  0  0  0  0
   -4.4349   -0.8240    1.1058 H   0  0  0  0  0  0  0  0  0  0  0  0
   -3.9085   -2.8120   -0.5862 H   0  0  0  0  0  0  0  0  0  0  0  0
   -3.5744   -3.8022    0.8458 H   0  0  0  0  0  0  0  0  0  0  0  0
   -1.6500   -3.2940   -0.3453 H   0  0  0  0  0  0  0  0  0  0  0  0
   -1.5203   -2.6513    1.2874 H   0  0  0  0  0  0  0  0  0  0  0  0
   -1.8157   -0.2598    0.1805 H   0  0  0  0  0  0  0  0  0  0  0  0
   -1.9598   -1.1245   -1.3760 H   0  0  0  0  0  0  0  0  0  0  0  0
    0.3435   -0.5461   -1.0550 H   0  0  0  0  0  0  0  0  0  0  0  0
    0.1414   -2.3549   -0.7932 H   0  0  0  0  0  0  0  0  0  0  0  0
    1.6024   -1.5764    0.9139 H   0  0  0  0  0  0  0  0  0  0  0  0
    0.0327   -1.6360    1.8042 H   0  0  0  0  0  0  0  0  0  0  0  0
    0.9855    0.5054    2.3279 H   0  0  0  0  0  0  0  0  0  0  0  0
   -0.4793    0.7092    1.3313 H   0  0  0  0  0  0  0  0  0  0  0  0
    2.8268   -0.3073    2.1598 H   0  0  0  0  0  0  0  0  0  0  0  0
    5.1708   -0.8405    2.0314 H   0  0  0  0  0  0  0  0  0  0  0  0
    5.3880    1.0030   -1.8281 H   0  0  0  0  0  0  0  0  0  0  0  0
    3.0240    1.5029   -1.6954 H   0  0  0  0  0  0  0  0  0  0  0  0
    7.2286   -0.1539    1.1540 H   0  0  0  0  0  0  0  0  0  0  0  0
    6.9509   -1.4121   -0.1167 H   0  0  0  0  0  0  0  0  0  0  0  0
    7.2004    0.2007   -1.9054 H   0  0  0  0  0  0  0  0  0  0  0  0
    7.3414    1.5836   -0.7706 H   0  0  0  0  0  0  0  0  0  0  0  0
    9.3286   -0.1224    1.1924 H   0  0  0  0  0  0  0  0  0  0  0  0
    9.5568    1.6303    0.7265 H   0  0  0  0  0  0  0  0  0  0  0  0
   11.3687    3.1553   -1.1750 H   0  0  0  0  0  0  0  0  0  0  0  0
   12.1264    3.1204    2.3908 H   0  0  0  0  0  0  0  0  0  0  0  0
   10.6196    0.6975   -2.1127 H   0  0  0  0  0  0  0  0  0  0  0  0
    9.1024    0.9092   -2.8408 H   0  0  0  0  0  0  0  0  0  0  0  0
   10.2418   -1.3005   -1.7883 H   0  0  0  0  0  0  0  0  0  0  0  0
    9.2807   -1.7661   -0.2656 H   0  0  0  0  0  0  0  0  0  0  0  0
    8.4798   -1.5982   -1.8848 H   0  0  0  0  0  0  0  0  0  0  0  0
  1  2  1  0
  2  3  2  0
  2  4  1  0
  4  5  2  0
  5  6  1  0
  6  7  2  0
  7  8  1  0
  8  9  1  0
  9 10  2  0
 10 11  1  0
 11 12  1  0
  7 13  1  0
 13 14  1  0
 14 15  1  0
 15 16  1  0
 16 17  1  0
 17 18  1  0
 18 19  1  0
 19 20  1  0
 20 21  1  0
 21 22  1  0
 22 23  1  0
 23 24  1  0
 24 25  1  0
 25 26  1  0
 26 27  2  0
 27 28  1  0
 28 29  2  0
 29 30  1  0
 30 31  2  0
 29 32  1  0
 32 33  1  0
 33 34  1  0
 34 35  1  0
 35 36  1  0
 36 37  1  0
 37 38  2  0
 37 39  1  0
 37 40  1  0
 34 41  1  6
 34 42  1  0
  9  4  1  0
 31 26  1  0
 12  8  2  0
  5 43  1  0
  6 44  1  0
 13 45  1  0
 14 46  1  0
 14 47  1  0
 15 48  1  0
 15 49  1  0
 16 50  1  0
 16 51  1  0
 17 52  1  0
 17 53  1  0
 18 54  1  0
 18 55  1  0
 19 56  1  0
 19 57  1  0
 20 58  1  0
 20 59  1  0
 21 60  1  0
 21 61  1  0
 22 62  1  0
 22 63  1  0
 23 64  1  0
 23 65  1  0
 24 66  1  0
 24 67  1  0
 27 68  1  0
 28 69  1  0
 30 70  1  0
 31 71  1  0
 32 72  1  0
 32 73  1  0
 33 74  1  0
 33 75  1  0
 35 76  1  0
 35 77  1  0
 39 78  1  0
 40 79  1  0
 41 80  1  0
 41 81  1  0
 42 82  1  0
 42 83  1  0
 42 84  1  0
M  CHG  2   1  -1   2   1
M  END
>  <Ligand ID>  (1) 
LIG0005130

>  <Ligand>  (1) 
CHEMBL371758

>  <SMILES>  (1) 
[O-][N+](=O)c1ccc(c2c1non2)NCCCCCCCCCCCOc1ccc(cc1)CC[C@](COP(=O)(O)O)(N)C

>  <CID>  (1) 
11678855.0

>  <ChEMBL ID>  (1) 
nan

>  <InChiKey>  (1) 
KPWIKEPVWRXDHZ-MUUNZHRXSA-N

>  <InChi>  (1) 
InChI=1S/C28H42N5O8P/c1-28(29,21-40-42(36,37)38)18-17-22-11-13-23(14-12-22)39-20-10-8-6-4-2-3-5-7-9-19-30-24-15-16-25(33(34)35)27-26(24)31-41-32-27/h11-16,30H,2-10,17-21,29H2,1H3,(H2,36,37,38)/t28-/m1/s1

>  <IUPAC Name>  (1) 
[(2R)-2-amino-2-methyl-4-[4-[11-[(4-nitro-2,1,3-benzoxadiazol-7-yl)amino]undecoxy]phenyl]butyl] dihydrogen phosphate

$$$$
