
     RDKit          3D

 50 53  0  0  0  0  0  0  0  0999 V2000
    6.8597   -3.2513    1.5611 C   0  0  0  0  0  0  0  0  0  0  0  0
    6.6596   -1.9961    0.9632 O   0  0  0  0  0  0  0  0  0  0  0  0
    5.4096   -1.4883    0.6583 C   0  0  0  0  0  0  0  0  0  0  0  0
    4.2289   -2.1493    0.9040 C   0  0  0  0  0  0  0  0  0  0  0  0
    2.9871   -1.5968    0.5785 C   0  0  0  0  0  0  0  0  0  0  0  0
    2.9864   -0.3541   -0.0031 C   0  0  0  0  0  0  0  0  0  0  0  0
    4.1530    0.3461   -0.2679 C   0  0  0  0  0  0  0  0  0  0  0  0
    5.3617   -0.2378    0.0706 C   0  0  0  0  0  0  0  0  0  0  0  0
    1.7697    0.2830   -0.3674 N   0  0  0  0  0  0  0  0  0  0  0  0
    0.9283   -0.2123   -1.2848 C   0  0  0  0  0  0  0  0  0  0  0  0
   -0.1770    0.6303   -1.4287 C   0  0  0  0  0  0  0  0  0  0  0  0
    0.0507    1.6588   -0.5453 C   0  0  0  0  0  0  0  0  0  0  0  0
    1.2406    1.4096    0.0775 N   0  0  0  0  0  0  0  0  0  0  0  0
   -0.7413    2.8289   -0.2249 C   0  0  0  0  0  0  0  0  0  0  0  0
   -0.9606    3.1047    1.1178 C   0  0  0  0  0  0  0  0  0  0  0  0
   -1.7034    4.2191    1.5057 C   0  0  0  0  0  0  0  0  0  0  0  0
   -2.2466    5.0874    0.5633 C   0  0  0  0  0  0  0  0  0  0  0  0
   -2.0186    4.7981   -0.7645 C   0  0  0  0  0  0  0  0  0  0  0  0
   -1.2827    3.6938   -1.1417 C   0  0  0  0  0  0  0  0  0  0  0  0
   -2.5345    5.6240   -1.7074 F   0  0  0  0  0  0  0  0  0  0  0  0
   -1.3383    0.4465   -2.3292 C   0  0  0  0  0  0  0  0  0  0  0  0
   -2.5269    0.0000   -1.6257 N   0  0  0  0  0  0  0  0  0  0  0  0
   -2.3682   -1.2592   -0.9527 C   0  0  0  0  0  0  0  0  0  0  0  0
   -3.5907   -1.6969   -0.2490 C   0  0  0  0  0  0  0  0  0  0  0  0
   -3.8584   -1.3637    1.0723 C   0  0  0  0  0  0  0  0  0  0  0  0
   -5.0351   -1.8383    1.6002 C   0  0  0  0  0  0  0  0  0  0  0  0
   -5.9341   -2.6096    0.8909 C   0  0  0  0  0  0  0  0  0  0  0  0
   -5.6408   -2.9179   -0.4018 N   0  0  0  0  0  0  0  0  0  0  0  0
   -4.4888   -2.4704   -0.9655 C   0  0  0  0  0  0  0  0  0  0  0  0
    7.8562   -3.6255    1.1859 H   0  0  0  0  0  0  0  0  0  0  0  0
    6.0824   -3.9987    1.3099 H   0  0  0  0  0  0  0  0  0  0  0  0
    6.9751   -3.2049    2.6676 H   0  0  0  0  0  0  0  0  0  0  0  0
    4.2458   -3.1151    1.3571 H   0  0  0  0  0  0  0  0  0  0  0  0
    2.0683   -2.1346    0.7806 H   0  0  0  0  0  0  0  0  0  0  0  0
    4.1295    1.3315   -0.7302 H   0  0  0  0  0  0  0  0  0  0  0  0
    6.2776    0.3105   -0.1367 H   0  0  0  0  0  0  0  0  0  0  0  0
    1.0663   -1.1441   -1.8541 H   0  0  0  0  0  0  0  0  0  0  0  0
   -0.5588    2.4590    1.8908 H   0  0  0  0  0  0  0  0  0  0  0  0
   -1.8913    4.4607    2.5414 H   0  0  0  0  0  0  0  0  0  0  0  0
   -2.8269    5.9583    0.8378 H   0  0  0  0  0  0  0  0  0  0  0  0
   -1.1380    3.5351   -2.1979 H   0  0  0  0  0  0  0  0  0  0  0  0
   -1.0846   -0.4190   -3.0122 H   0  0  0  0  0  0  0  0  0  0  0  0
   -1.5850    1.3429   -2.8906 H   0  0  0  0  0  0  0  0  0  0  0  0
   -2.6924    0.7452   -0.8900 H   0  0  0  0  0  0  0  0  0  0  0  0
   -1.6051   -1.0725   -0.1415 H   0  0  0  0  0  0  0  0  0  0  0  0
   -1.9274   -2.0441   -1.5983 H   0  0  0  0  0  0  0  0  0  0  0  0
   -3.1489   -0.7590    1.6214 H   0  0  0  0  0  0  0  0  0  0  0  0
   -5.2938   -1.6075    2.6287 H   0  0  0  0  0  0  0  0  0  0  0  0
   -6.8685   -2.9752    1.3395 H   0  0  0  0  0  0  0  0  0  0  0  0
   -4.2702   -2.7313   -2.0128 H   0  0  0  0  0  0  0  0  0  0  0  0
  1  2  1  0
  2  3  1  0
  3  4  2  0
  4  5  1  0
  5  6  2  0
  6  7  1  0
  7  8  2  0
  6  9  1  0
  9 10  1  0
 10 11  2  0
 11 12  1  0
 12 13  2  0
 12 14  1  0
 14 15  2  0
 15 16  1  0
 16 17  2  0
 17 18  1  0
 18 19  2  0
 18 20  1  0
 11 21  1  0
 21 22  1  0
 22 23  1  0
 23 24  1  0
 24 25  2  0
 25 26  1  0
 26 27  2  0
 27 28  1  0
 28 29  2  0
  8  3  1  0
 13  9  1  0
 19 14  1  0
 29 24  1  0
  1 30  1  0
  1 31  1  0
  1 32  1  0
  4 33  1  0
  5 34  1  0
  7 35  1  0
  8 36  1  0
 10 37  1  0
 15 38  1  0
 16 39  1  0
 17 40  1  0
 19 41  1  0
 21 42  1  0
 21 43  1  0
 22 44  1  0
 23 45  1  0
 23 46  1  0
 25 47  1  0
 26 48  1  0
 27 49  1  0
 29 50  1  0
M  END
>  <Ligand ID>  (1) 
LIG0004818

>  <Ligand>  (1) 
MLS000733242

>  <SMILES>  (1) 
COc1ccc(cc1)n1cc(c(n1)c1cccc(c1)F)CNCc1cccnc1

>  <CID>  (1) 
16187264.0

>  <ChEMBL ID>  (1) 
nan

>  <InChiKey>  (1) 
CZPUVLUVRJNPPC-UHFFFAOYSA-N

>  <InChi>  (1) 
InChI=1S/C23H21FN4O/c1-29-22-9-7-21(8-10-22)28-16-19(15-26-14-17-4-3-11-25-13-17)23(27-28)18-5-2-6-20(24)12-18/h2-13,16,26H,14-15H2,1H3

>  <IUPAC Name>  (1) 
N-[[3-(3-fluorophenyl)-1-(4-methoxyphenyl)pyrazol-4-yl]methyl]-1-pyridin-3-ylmethanamine

$$$$
