
     RDKit          3D

 59 63  0  0  0  0  0  0  0  0999 V2000
    9.4012    0.9754    0.6553 C   0  0  0  0  0  0  0  0  0  0  0  0
    8.2526    1.7789    0.3484 O   0  0  0  0  0  0  0  0  0  0  0  0
    7.2467    1.3087   -0.4771 C   0  0  0  0  0  0  0  0  0  0  0  0
    7.2649    0.0569   -1.0597 C   0  0  0  0  0  0  0  0  0  0  0  0
    6.2148   -0.3342   -1.8742 C   0  0  0  0  0  0  0  0  0  0  0  0
    5.1304    0.5065   -2.1252 C   0  0  0  0  0  0  0  0  0  0  0  0
    5.1376    1.7577   -1.5276 C   0  0  0  0  0  0  0  0  0  0  0  0
    6.1821    2.1708   -0.7060 C   0  0  0  0  0  0  0  0  0  0  0  0
    4.0483    0.1159   -2.9587 N   0  0  0  0  0  0  0  0  0  0  0  0
    3.4002   -1.4872   -2.7252 S   0  0  0  0  0  0  0  0  0  0  0  0
    4.3984   -2.5493   -3.0533 O   0  0  0  0  0  0  0  0  0  0  0  0
    2.2726   -1.6642   -3.7305 O   0  0  0  0  0  0  0  0  0  0  0  0
    2.7805   -1.5978   -1.1045 C   0  0  0  0  0  0  0  0  0  0  0  0
    3.6353   -2.0225   -0.1146 C   0  0  0  0  0  0  0  0  0  0  0  0
    3.1243   -2.1043    1.1592 C   0  0  0  0  0  0  0  0  0  0  0  0
    1.7931   -1.7659    1.4118 C   0  0  0  0  0  0  0  0  0  0  0  0
    0.9338   -1.3429    0.4330 C   0  0  0  0  0  0  0  0  0  0  0  0
    1.4841   -1.2693   -0.8536 C   0  0  0  0  0  0  0  0  0  0  0  0
   -0.4220   -1.0251    0.5632 N   0  0  0  0  0  0  0  0  0  0  0  0
   -1.2876   -1.2670    1.6264 C   0  0  0  0  0  0  0  0  0  0  0  0
   -0.9572   -1.8437    2.6723 O   0  0  0  0  0  0  0  0  0  0  0  0
   -2.6958   -0.8227    1.5374 C   0  0  0  0  0  0  0  0  0  0  0  0
   -3.6855   -0.9588    2.4465 C   0  0  0  0  0  0  0  0  0  0  0  0
   -4.9042   -0.4756    2.1545 C   0  0  0  0  0  0  0  0  0  0  0  0
   -5.0617    0.1312    0.9360 C   0  0  0  0  0  0  0  0  0  0  0  0
   -3.4080    0.0190    0.1538 S   0  0  0  0  0  0  0  0  0  0  0  0
   -6.3169    0.5797    0.7414 N   0  0  0  0  0  0  0  0  0  0  0  0
   -6.9785    0.2718    1.8195 N   0  0  0  0  0  0  0  0  0  0  0  0
   -6.1876   -0.3691    2.7190 C   0  0  0  0  0  0  0  0  0  0  0  0
   -6.6671   -0.8391    4.0354 C   0  0  0  0  0  0  0  0  0  0  0  0
   -6.7662    1.2530   -0.4405 C   0  0  0  0  0  0  0  0  0  0  0  0
   -7.4570    2.4454   -0.3997 C   0  0  0  0  0  0  0  0  0  0  0  0
   -7.8441    3.0108   -1.5846 C   0  0  0  0  0  0  0  0  0  0  0  0
   -7.5807    2.4520   -2.8253 C   0  0  0  0  0  0  0  0  0  0  0  0
   -6.8794    1.2420   -2.8615 C   0  0  0  0  0  0  0  0  0  0  0  0
   -6.4831    0.6616   -1.6650 C   0  0  0  0  0  0  0  0  0  0  0  0
   -7.9712    3.0251   -3.9887 F   0  0  0  0  0  0  0  0  0  0  0  0
    1.4005   -1.8857    2.7299 O   0  0  0  0  0  0  0  0  0  0  0  0
   10.1112    1.5150    1.2848 H   0  0  0  0  0  0  0  0  0  0  0  0
    9.8601    0.6648   -0.3232 H   0  0  0  0  0  0  0  0  0  0  0  0
    9.0075    0.0316    1.1058 H   0  0  0  0  0  0  0  0  0  0  0  0
    8.1186   -0.5840   -0.8523 H   0  0  0  0  0  0  0  0  0  0  0  0
    6.2512   -1.3215   -2.3207 H   0  0  0  0  0  0  0  0  0  0  0  0
    4.3073    2.4451   -1.6991 H   0  0  0  0  0  0  0  0  0  0  0  0
    6.1320    3.1650   -0.2648 H   0  0  0  0  0  0  0  0  0  0  0  0
    3.6570    0.7654   -3.6833 H   0  0  0  0  0  0  0  0  0  0  0  0
    4.6633   -2.2879   -0.2880 H   0  0  0  0  0  0  0  0  0  0  0  0
    3.7803   -2.4338    1.9387 H   0  0  0  0  0  0  0  0  0  0  0  0
    0.8842   -0.9429   -1.7077 H   0  0  0  0  0  0  0  0  0  0  0  0
   -0.8631   -0.5122   -0.2706 H   0  0  0  0  0  0  0  0  0  0  0  0
   -3.4774   -1.4687    3.4231 H   0  0  0  0  0  0  0  0  0  0  0  0
   -5.8090   -1.0217    4.7308 H   0  0  0  0  0  0  0  0  0  0  0  0
   -7.2638   -0.0354    4.5518 H   0  0  0  0  0  0  0  0  0  0  0  0
   -7.2438   -1.7893    3.9682 H   0  0  0  0  0  0  0  0  0  0  0  0
   -7.6664    2.8884    0.5706 H   0  0  0  0  0  0  0  0  0  0  0  0
   -8.3937    3.9562   -1.5920 H   0  0  0  0  0  0  0  0  0  0  0  0
   -6.6534    0.7713   -3.8226 H   0  0  0  0  0  0  0  0  0  0  0  0
   -5.9317   -0.2903   -1.6988 H   0  0  0  0  0  0  0  0  0  0  0  0
    1.9820   -1.6528    3.5160 H   0  0  0  0  0  0  0  0  0  0  0  0
  1  2  1  0
  2  3  1  0
  3  4  2  0
  4  5  1  0
  5  6  2  0
  6  7  1  0
  7  8  2  0
  6  9  1  0
  9 10  1  0
 10 11  2  0
 10 12  2  0
 10 13  1  0
 13 14  2  0
 14 15  1  0
 15 16  2  0
 16 17  1  0
 17 18  2  0
 17 19  1  0
 19 20  1  0
 20 21  2  0
 20 22  1  0
 22 23  2  0
 23 24  1  0
 24 25  2  0
 25 26  1  0
 25 27  1  0
 27 28  1  0
 28 29  2  0
 29 30  1  0
 27 31  1  0
 31 32  2  0
 32 33  1  0
 33 34  2  0
 34 35  1  0
 35 36  2  0
 34 37  1  0
 16 38  1  0
  8  3  1  0
 18 13  1  0
 26 22  1  0
 36 31  1  0
 29 24  1  0
  1 39  1  0
  1 40  1  0
  1 41  1  0
  4 42  1  0
  5 43  1  0
  7 44  1  0
  8 45  1  0
  9 46  1  0
 14 47  1  0
 15 48  1  0
 18 49  1  0
 19 50  1  0
 23 51  1  0
 30 52  1  0
 30 53  1  0
 30 54  1  0
 32 55  1  0
 33 56  1  0
 35 57  1  0
 36 58  1  0
 38 59  1  0
M  END
>  <Ligand ID>  (1) 
LIG0003977

>  <Ligand>  (1) 
MLS000401592

>  <SMILES>  (1) 
COc1ccc(cc1)NS(=O)(=O)c1ccc(c(c1)NC(=O)c1cc2c(s1)n(nc2C)c1ccc(cc1)F)O

>  <CID>  (1) 
3690550.0

>  <ChEMBL ID>  (1) 
nan

>  <InChiKey>  (1) 
AIXCLGQVXMIORW-UHFFFAOYSA-N

>  <InChi>  (1) 
InChI=1S/C26H21FN4O5S2/c1-15-21-14-24(37-26(21)31(29-15)18-7-3-16(27)4-8-18)25(33)28-22-13-20(11-12-23(22)32)38(34,35)30-17-5-9-19(36-2)10-6-17/h3-14,30,32H,1-2H3,(H,28,33)

>  <IUPAC Name>  (1) 
1-(4-fluorophenyl)-N-[2-hydroxy-5-[(4-methoxyphenyl)sulfamoyl]phenyl]-3-methylthieno[2,3-c]pyrazole-5-carboxamide

$$$$
