
     RDKit          3D

130132  0  0  0  0  0  0  0  0999 V2000
    2.3147   -0.4797   -2.7022 N   0  0  0  0  0  0  0  0  0  0  0  0
    3.2704    0.6231   -2.6802 C   0  0  0  0  0  0  0  0  0  0  0  0
    2.7829    1.8383   -3.3453 C   0  0  0  0  0  0  0  0  0  0  0  0
    1.5986    2.5677   -2.9180 C   0  0  0  0  0  0  0  0  0  0  0  0
    1.4471    3.2961   -1.6674 C   0  0  0  0  0  0  0  0  0  0  0  0
    1.5488    2.7002   -0.3322 C   0  0  1  0  0  0  0  0  0  0  0  0
    0.6199    1.6070   -0.0105 C   0  0  0  0  0  0  0  0  0  0  0  0
   -0.6301    1.8469   -0.1551 O   0  0  0  0  0  0  0  0  0  0  0  0
    0.9599    0.3185    0.4447 N   0  0  0  0  0  0  0  0  0  0  0  0
   -0.1112   -0.6766    0.7888 C   0  0  1  0  0  0  0  0  0  0  0  0
   -0.8263   -1.0321   -0.3983 C   0  0  0  0  0  0  0  0  0  0  0  0
   -0.4658   -0.4296   -1.4847 O   0  0  0  0  0  0  0  0  0  0  0  0
   -1.9066   -1.9482   -0.5938 N   0  0  0  0  0  0  0  0  0  0  0  0
   -2.4608   -2.0231   -1.8999 C   0  0  2  0  0  0  0  0  0  0  0  0
   -3.6817   -1.0356   -1.8968 C   0  0  0  0  0  0  0  0  0  0  0  0
   -4.4837   -1.0452   -2.8400 O   0  0  0  0  0  0  0  0  0  0  0  0
   -3.7565   -0.1856   -0.7643 N   0  0  0  0  0  0  0  0  0  0  0  0
   -4.8430    0.7951   -0.5651 C   0  0  2  0  0  0  0  0  0  0  0  0
   -4.5554    1.9840   -1.4366 C   0  0  0  0  0  0  0  0  0  0  0  0
   -3.4659    1.9805   -2.0668 O   0  0  0  0  0  0  0  0  0  0  0  0
   -5.4271    3.0830   -1.5876 N   0  0  0  0  0  0  0  0  0  0  0  0
   -5.1426    4.2040   -2.4325 C   0  0  0  0  0  0  0  0  0  0  0  0
   -3.8856    4.8602   -2.0276 C   0  0  0  0  0  0  0  0  0  0  0  0
   -3.5176    5.8719   -2.6857 O   0  0  0  0  0  0  0  0  0  0  0  0
   -3.0573    4.4425   -0.9564 N   0  0  0  0  0  0  0  0  0  0  0  0
   -4.9632    1.1127    0.8839 C   0  0  0  0  0  0  0  0  0  0  0  0
   -5.9878    2.0510    1.2988 C   0  0  0  0  0  0  0  0  0  0  0  0
   -5.8369    3.3834    1.7004 C   0  0  0  0  0  0  0  0  0  0  0  0
   -7.0571    3.8650    2.0316 N   0  0  0  0  0  0  0  0  0  0  0  0
   -7.9844    2.9141    1.8658 C   0  0  0  0  0  0  0  0  0  0  0  0
   -7.3530    1.7517    1.4035 C   0  0  0  0  0  0  0  0  0  0  0  0
   -8.0819    0.6004    1.1554 C   0  0  0  0  0  0  0  0  0  0  0  0
   -9.4536    0.6038    1.3700 C   0  0  0  0  0  0  0  0  0  0  0  0
  -10.0627    1.7471    1.8222 C   0  0  0  0  0  0  0  0  0  0  0  0
   -9.3661    2.9245    2.0826 C   0  0  0  0  0  0  0  0  0  0  0  0
   -2.8802   -3.2487   -2.5751 C   0  0  0  0  0  0  0  0  0  0  0  0
   -1.8238   -4.2902   -2.7582 C   0  0  0  0  0  0  0  0  0  0  0  0
   -1.4204   -4.9516   -1.4205 C   0  0  0  0  0  0  0  0  0  0  0  0
   -2.5600   -5.5726   -0.9211 N   0  0  0  0  0  0  0  0  0  0  0  0
   -3.2481   -6.1857   -0.1791 C   0  0  0  0  0  0  0  0  0  0  0  0
   -4.6557   -6.4196   -0.5605 N   0  0  0  0  0  0  0  0  0  0  0  0
   -2.9594   -6.7887    1.1037 N   0  0  0  0  0  0  0  0  0  0  0  0
    0.5137   -1.6070    1.7084 C   0  0  0  0  0  0  0  0  0  0  0  0
   -0.2074   -2.7268    2.2942 C   0  0  0  0  0  0  0  0  0  0  0  0
   -1.0418   -2.4466    3.3877 C   0  0  0  0  0  0  0  0  0  0  0  0
   -1.7044   -3.4181    4.0807 C   0  0  0  0  0  0  0  0  0  0  0  0
   -1.5622   -4.7465    3.7073 C   0  0  0  0  0  0  0  0  0  0  0  0
   -0.7475   -5.0178    2.6397 C   0  0  0  0  0  0  0  0  0  0  0  0
   -0.0772   -4.0426    1.9354 C   0  0  0  0  0  0  0  0  0  0  0  0
    2.8828    2.5777    0.1632 N   0  0  0  0  0  0  0  0  0  0  0  0
    3.1030    2.9867    1.5318 C   0  0  0  0  0  0  0  0  0  0  0  0
    2.1286    3.4382    2.2284 O   0  0  0  0  0  0  0  0  0  0  0  0
    4.3991    2.9317    2.2286 C   0  0  0  0  0  0  0  0  0  0  0  0
    5.5130    2.4167    1.5258 N   0  0  0  0  0  0  0  0  0  0  0  0
    5.6434    1.0938    1.0106 C   0  0  0  0  0  0  0  0  0  0  0  0
    4.6996    0.2429    1.1592 O   0  0  0  0  0  0  0  0  0  0  0  0
    6.8871    0.7383    0.3122 C   0  0  1  0  0  0  0  0  0  0  0  0
    7.8078    1.8694    0.2754 N   0  0  0  0  0  0  0  0  0  0  0  0
    8.8280    2.1082    1.1935 C   0  0  0  0  0  0  0  0  0  0  0  0
    9.1273    1.4117    2.1963 O   0  0  0  0  0  0  0  0  0  0  0  0
    9.7041    3.3331    1.0058 C   0  0  0  0  0  0  0  0  0  0  0  0
    7.5542   -0.4711    0.9659 C   0  0  0  0  0  0  0  0  0  0  0  0
    8.7745   -0.8666    0.2246 C   0  0  0  0  0  0  0  0  0  0  0  0
    8.4525   -1.2700   -1.2065 C   0  0  0  0  0  0  0  0  0  0  0  0
    7.5117   -2.4394   -1.2930 C   0  0  0  0  0  0  0  0  0  0  0  0
    1.5673   -0.3170   -3.3792 H   0  0  0  0  0  0  0  0  0  0  0  0
    2.7935   -1.4019   -2.8042 H   0  0  0  0  0  0  0  0  0  0  0  0
    4.1212    0.2202   -3.3514 H   0  0  0  0  0  0  0  0  0  0  0  0
    3.7238    0.6566   -1.7055 H   0  0  0  0  0  0  0  0  0  0  0  0
    3.6910    2.5269   -3.4743 H   0  0  0  0  0  0  0  0  0  0  0  0
    2.6119    1.5347   -4.4473 H   0  0  0  0  0  0  0  0  0  0  0  0
    0.7002    1.8787   -3.1238 H   0  0  0  0  0  0  0  0  0  0  0  0
    1.4023    3.3499   -3.7533 H   0  0  0  0  0  0  0  0  0  0  0  0
    0.4723    3.9378   -1.7002 H   0  0  0  0  0  0  0  0  0  0  0  0
    2.2075    4.1475   -1.6898 H   0  0  0  0  0  0  0  0  0  0  0  0
    1.1052    3.5447    0.3680 H   0  0  0  0  0  0  0  0  0  0  0  0
    1.9638    0.0650    0.5377 H   0  0  0  0  0  0  0  0  0  0  0  0
   -0.8374   -0.0041    1.4225 H   0  0  0  0  0  0  0  0  0  0  0  0
   -2.2013   -2.4752    0.2502 H   0  0  0  0  0  0  0  0  0  0  0  0
   -1.8083   -1.4585   -2.6532 H   0  0  0  0  0  0  0  0  0  0  0  0
   -3.0522   -0.1934    0.0153 H   0  0  0  0  0  0  0  0  0  0  0  0
   -5.7762    0.3909   -0.9718 H   0  0  0  0  0  0  0  0  0  0  0  0
   -6.3314    3.0418   -1.0482 H   0  0  0  0  0  0  0  0  0  0  0  0
   -6.0000    4.9219   -2.4158 H   0  0  0  0  0  0  0  0  0  0  0  0
   -5.0329    3.8120   -3.4681 H   0  0  0  0  0  0  0  0  0  0  0  0
   -3.4026    4.4357    0.0218 H   0  0  0  0  0  0  0  0  0  0  0  0
   -2.0616    4.1219   -1.0932 H   0  0  0  0  0  0  0  0  0  0  0  0
   -3.9800    1.5243    1.2885 H   0  0  0  0  0  0  0  0  0  0  0  0
   -5.0305    0.1306    1.4605 H   0  0  0  0  0  0  0  0  0  0  0  0
   -4.9252    3.9616    1.7575 H   0  0  0  0  0  0  0  0  0  0  0  0
   -7.1966    4.8658    2.3695 H   0  0  0  0  0  0  0  0  0  0  0  0
   -7.5988   -0.3077    0.7966 H   0  0  0  0  0  0  0  0  0  0  0  0
   -9.9679   -0.3187    1.1593 H   0  0  0  0  0  0  0  0  0  0  0  0
  -11.1469    1.6816    1.9750 H   0  0  0  0  0  0  0  0  0  0  0  0
   -9.8771    3.8118    2.4428 H   0  0  0  0  0  0  0  0  0  0  0  0
   -3.8204   -3.7035   -2.1404 H   0  0  0  0  0  0  0  0  0  0  0  0
   -3.2306   -3.0097   -3.6396 H   0  0  0  0  0  0  0  0  0  0  0  0
   -0.8866   -3.8959   -3.1662 H   0  0  0  0  0  0  0  0  0  0  0  0
   -2.1366   -5.1137   -3.4285 H   0  0  0  0  0  0  0  0  0  0  0  0
   -1.0039   -4.1836   -0.7556 H   0  0  0  0  0  0  0  0  0  0  0  0
   -0.5794   -5.6610   -1.6444 H   0  0  0  0  0  0  0  0  0  0  0  0
   -5.3792   -5.7452   -0.2957 H   0  0  0  0  0  0  0  0  0  0  0  0
   -4.8798   -7.2932   -1.1087 H   0  0  0  0  0  0  0  0  0  0  0  0
   -3.3111   -6.3080    1.9569 H   0  0  0  0  0  0  0  0  0  0  0  0
   -2.4039   -7.6993    1.1510 H   0  0  0  0  0  0  0  0  0  0  0  0
    1.4584   -2.0076    1.1628 H   0  0  0  0  0  0  0  0  0  0  0  0
    1.0474   -1.0068    2.5391 H   0  0  0  0  0  0  0  0  0  0  0  0
   -1.1665   -1.4188    3.6885 H   0  0  0  0  0  0  0  0  0  0  0  0
   -2.3496   -3.2306    4.9163 H   0  0  0  0  0  0  0  0  0  0  0  0
   -2.0666   -5.5607    4.2234 H   0  0  0  0  0  0  0  0  0  0  0  0
   -0.5983   -6.0318    2.3201 H   0  0  0  0  0  0  0  0  0  0  0  0
    0.5685   -4.2520    1.0892 H   0  0  0  0  0  0  0  0  0  0  0  0
    3.7275    2.2621   -0.3251 H   0  0  0  0  0  0  0  0  0  0  0  0
    4.2459    2.2499    3.1153 H   0  0  0  0  0  0  0  0  0  0  0  0
    4.6470    3.9221    2.6850 H   0  0  0  0  0  0  0  0  0  0  0  0
    6.3319    3.0600    1.3607 H   0  0  0  0  0  0  0  0  0  0  0  0
    6.7138    0.4075   -0.7061 H   0  0  0  0  0  0  0  0  0  0  0  0
    7.6683    2.5384   -0.5085 H   0  0  0  0  0  0  0  0  0  0  0  0
    9.5342    3.8057    0.0355 H   0  0  0  0  0  0  0  0  0  0  0  0
   10.7343    3.0162    1.1272 H   0  0  0  0  0  0  0  0  0  0  0  0
    9.4437    4.0704    1.8113 H   0  0  0  0  0  0  0  0  0  0  0  0
    6.8095   -1.3076    0.8031 H   0  0  0  0  0  0  0  0  0  0  0  0
    7.6585   -0.3989    2.0415 H   0  0  0  0  0  0  0  0  0  0  0  0
    9.6039   -0.1796    0.1640 H   0  0  0  0  0  0  0  0  0  0  0  0
    9.1940   -1.8106    0.6819 H   0  0  0  0  0  0  0  0  0  0  0  0
    9.4493   -1.6237   -1.6158 H   0  0  0  0  0  0  0  0  0  0  0  0
    8.1631   -0.4114   -1.8515 H   0  0  0  0  0  0  0  0  0  0  0  0
    7.3352   -2.9368   -0.3134 H   0  0  0  0  0  0  0  0  0  0  0  0
    6.5826   -2.1182   -1.8068 H   0  0  0  0  0  0  0  0  0  0  0  0
    7.9416   -3.2651   -1.9342 H   0  0  0  0  0  0  0  0  0  0  0  0
  1  2  1  0
  2  3  1  0
  3  4  1  0
  4  5  1  0
  5  6  1  0
  6  7  1  0
  7  8  2  0
  7  9  1  0
  9 10  1  0
 10 11  1  0
 11 12  2  0
 11 13  1  0
 13 14  1  0
 14 15  1  0
 15 16  2  0
 15 17  1  0
 17 18  1  0
 18 19  1  0
 19 20  2  0
 19 21  1  0
 21 22  1  0
 22 23  1  0
 23 24  2  0
 23 25  1  0
 18 26  1  0
 26 27  1  0
 27 28  2  0
 28 29  1  0
 29 30  1  0
 30 31  2  0
 31 32  1  0
 32 33  2  0
 33 34  1  0
 34 35  2  0
 14 36  1  0
 36 37  1  0
 37 38  1  0
 38 39  1  0
 39 40  2  3
 40 41  1  0
 40 42  1  0
 10 43  1  0
 43 44  1  0
 44 45  2  0
 45 46  1  0
 46 47  2  0
 47 48  1  0
 48 49  2  0
  6 50  1  0
 50 51  1  0
 51 52  2  0
 51 53  1  0
 53 54  1  0
 54 55  1  0
 55 56  2  0
 55 57  1  0
 57 58  1  0
 58 59  1  0
 59 60  2  0
 59 61  1  0
 57 62  1  0
 62 63  1  0
 63 64  1  0
 64 65  1  0
 31 27  1  0
 49 44  1  0
 35 30  1  0
  1 66  1  0
  1 67  1  0
  2 68  1  0
  2 69  1  0
  3 70  1  0
  3 71  1  0
  4 72  1  0
  4 73  1  0
  5 74  1  0
  5 75  1  0
  6 76  1  1
  9 77  1  0
 10 78  1  1
 13 79  1  0
 14 80  1  6
 17 81  1  0
 18 82  1  6
 21 83  1  0
 22 84  1  0
 22 85  1  0
 25 86  1  0
 25 87  1  0
 26 88  1  0
 26 89  1  0
 28 90  1  0
 29 91  1  0
 32 92  1  0
 33 93  1  0
 34 94  1  0
 35 95  1  0
 36 96  1  0
 36 97  1  0
 37 98  1  0
 37 99  1  0
 38100  1  0
 38101  1  0
 41102  1  0
 41103  1  0
 42104  1  0
 42105  1  0
 43106  1  0
 43107  1  0
 45108  1  0
 46109  1  0
 47110  1  0
 48111  1  0
 49112  1  0
 50113  1  0
 53114  1  0
 53115  1  0
 54116  1  0
 57117  1  6
 58118  1  0
 61119  1  0
 61120  1  0
 61121  1  0
 62122  1  0
 62123  1  0
 63124  1  0
 63125  1  0
 64126  1  0
 64127  1  0
 65128  1  0
 65129  1  0
 65130  1  0
M  END
>  <Ligand ID>  (1) 
LIG0004164

>  <Ligand>  (1) 
CHEMBL365913

>  <SMILES>  (1) 
NCCCC[C@@H](C(=O)N[C@@H](C(=O)N[C@H](C(=O)N[C@H](C(=O)NCC(=O)N)Cc1c[nH]c2c1cccc2)CCCN=C(N)N)Cc1ccccc1)NC(=O)CNC(=O)[C@@H](NC(=O)C)CCCC

>  <CID>  (1) 
44398340.0

>  <ChEMBL ID>  (1) 
nan

>  <InChiKey>  (1) 
WOSXQRHNBLCZBB-XLIVJYPCSA-N

>  <InChi>  (1) 
InChI=1S/C44H65N13O8/c1-3-4-16-32(53-27(2)58)39(61)52-26-38(60)54-33(18-10-11-20-45)41(63)56-35(22-28-13-6-5-7-14-28)43(65)55-34(19-12-21-49-44(47)48)42(64)57-36(40(62)51-25-37(46)59)23-29-24-50-31-17-9-8-15-30(29)31/h5-9,13-15,17,24,32-36,50H,3-4,10-12,16,18-23,25-26,45H2,1-2H3,(H2,46,59)(H,51,62)(H,52,61)(H,53,58)(H,54,60)(H,55,65)(H,56,63)(H,57,64)(H4,47,48,49)/t32-,33-,34-,35+,36-/m0/s1

>  <IUPAC Name>  (1) 
(2S)-2-[[2-[[(2S)-2-acetamidohexanoyl]amino]acetyl]amino]-6-amino-N-[(2R)-1-[[(2S)-1-[[(2S)-1-[(2-amino-2-oxoethyl)amino]-3-(1H-indol-3-yl)-1-oxopropan-2-yl]amino]-5-(diaminomethylideneamino)-1-oxopentan-2-yl]amino]-1-oxo-3-phenylpropan-2-yl]hexanamide

$$$$
