
     RDKit          3D

 41 44  0  0  0  0  0  0  0  0999 V2000
   -6.6023   -2.5886   -0.3453 F   0  0  0  0  0  0  0  0  0  0  0  0
   -5.7022   -1.6110   -0.0786 C   0  0  0  0  0  0  0  0  0  0  0  0
   -5.9719   -0.6840    0.9054 C   0  0  0  0  0  0  0  0  0  0  0  0
   -5.0383    0.3016    1.1600 C   0  0  0  0  0  0  0  0  0  0  0  0
   -3.8534    0.3986    0.4755 C   0  0  0  0  0  0  0  0  0  0  0  0
   -3.6248   -0.5584   -0.5086 C   0  0  0  0  0  0  0  0  0  0  0  0
   -4.5366   -1.5587   -0.7897 C   0  0  0  0  0  0  0  0  0  0  0  0
   -2.4921   -0.5424   -1.2423 F   0  0  0  0  0  0  0  0  0  0  0  0
   -2.8759    1.4600    0.7766 C   0  0  0  0  0  0  0  0  0  0  0  0
   -1.4718    0.9216    1.7639 S   0  0  0  0  0  0  0  0  0  0  0  0
   -0.4392   -0.2495    0.9047 C   0  0  0  0  0  0  0  0  0  0  0  0
   -0.6306   -1.5865    0.9710 N   0  0  0  0  0  0  0  0  0  0  0  0
    0.2864   -2.1621    0.2308 N   0  0  0  0  0  0  0  0  0  0  0  0
    1.0574   -1.1947   -0.3034 C   0  0  0  0  0  0  0  0  0  0  0  0
    0.6214    0.0084    0.1049 N   0  0  0  0  0  0  0  0  0  0  0  0
    1.0928    1.3270   -0.1817 C   0  0  0  0  0  0  0  0  0  0  0  0
    2.1065    1.8022    0.7520 C   0  0  0  0  0  0  0  0  0  0  0  0
    2.0062    2.4768    1.9214 C   0  0  0  0  0  0  0  0  0  0  0  0
    3.0931    2.8147    2.6199 C   0  0  0  0  0  0  0  0  0  0  0  0
    4.3298    2.4024    2.0217 C   0  0  0  0  0  0  0  0  0  0  0  0
    3.9201    1.5639    0.5155 S   0  0  0  0  0  0  0  0  0  0  0  0
    2.1951   -1.4057   -1.1905 C   0  0  0  0  0  0  0  0  0  0  0  0
    3.3463   -2.0625   -0.7406 C   0  0  0  0  0  0  0  0  0  0  0  0
    4.3613   -2.2063   -1.6661 C   0  0  0  0  0  0  0  0  0  0  0  0
    4.2280   -1.7232   -2.9547 C   0  0  0  0  0  0  0  0  0  0  0  0
    3.0741   -1.0813   -3.3560 C   0  0  0  0  0  0  0  0  0  0  0  0
    2.0887   -0.9443   -2.4495 N   0  0  0  0  0  0  0  0  0  0  0  0
   -6.9120   -0.7669    1.4426 H   0  0  0  0  0  0  0  0  0  0  0  0
   -5.2581    1.0248    1.9353 H   0  0  0  0  0  0  0  0  0  0  0  0
   -4.3427   -2.2967   -1.5595 H   0  0  0  0  0  0  0  0  0  0  0  0
   -2.5437    1.8878   -0.1971 H   0  0  0  0  0  0  0  0  0  0  0  0
   -3.4159    2.2897    1.2876 H   0  0  0  0  0  0  0  0  0  0  0  0
    0.2551    2.0623   -0.1507 H   0  0  0  0  0  0  0  0  0  0  0  0
    1.5043    1.4371   -1.2200 H   0  0  0  0  0  0  0  0  0  0  0  0
    0.9810    2.7517    2.3021 H   0  0  0  0  0  0  0  0  0  0  0  0
    3.1484    3.3482    3.5585 H   0  0  0  0  0  0  0  0  0  0  0  0
    5.3674    2.5936    2.4584 H   0  0  0  0  0  0  0  0  0  0  0  0
    3.4211   -2.4315    0.2810 H   0  0  0  0  0  0  0  0  0  0  0  0
    5.2855   -2.7092   -1.3780 H   0  0  0  0  0  0  0  0  0  0  0  0
    5.0059   -1.8197   -3.7079 H   0  0  0  0  0  0  0  0  0  0  0  0
    2.9358   -0.6892   -4.3682 H   0  0  0  0  0  0  0  0  0  0  0  0
  1  2  1  0
  2  3  2  0
  3  4  1  0
  4  5  2  0
  5  6  1  0
  6  7  2  0
  6  8  1  0
  5  9  1  0
  9 10  1  0
 10 11  1  0
 11 12  2  0
 12 13  1  0
 13 14  2  0
 14 15  1  0
 15 16  1  0
 16 17  1  0
 17 18  2  0
 18 19  1  0
 19 20  2  0
 20 21  1  0
 14 22  1  0
 22 23  2  0
 23 24  1  0
 24 25  2  0
 25 26  1  0
 26 27  2  0
  7  2  1  0
 15 11  1  0
 21 17  1  0
 27 22  1  0
  3 28  1  0
  4 29  1  0
  7 30  1  0
  9 31  1  0
  9 32  1  0
 16 33  1  0
 16 34  1  0
 18 35  1  0
 19 36  1  0
 20 37  1  0
 23 38  1  0
 24 39  1  0
 25 40  1  0
 26 41  1  0
M  END
>  <Ligand ID>  (1) 
LIG0002773

>  <Ligand>  (1) 
KSC-5-247E

>  <SMILES>  (1) 
Fc1ccc(c(c1)F)CSc1nnc(n1Cc1cccs1)c1ccccn1

>  <CID>  (1) 
44601468.0

>  <ChEMBL ID>  (1) 
nan

>  <InChiKey>  (1) 
FLFDFOZJEHKPGG-UHFFFAOYSA-N

>  <InChi>  (1) 
InChI=1S/C19H14F2N4S2/c20-14-7-6-13(16(21)10-14)12-27-19-24-23-18(17-5-1-2-8-22-17)25(19)11-15-4-3-9-26-15/h1-10H,11-12H2

>  <IUPAC Name>  (1) 
2-[5-[(2,4-difluorophenyl)methylsulfanyl]-4-(thiophen-2-ylmethyl)-1,2,4-triazol-3-yl]pyridine

$$$$
