
     RDKit          3D

227233  0  0  0  0  0  0  0  0999 V2000
    8.2173    6.3253   -0.4368 C   0  0  0  0  0  0  0  0  0  0  0  0
    7.1456    5.3136   -0.8340 C   0  0  0  0  0  0  0  0  0  0  0  0
    6.2600    4.9567    0.3058 C   0  0  0  0  0  0  0  0  0  0  0  0
    5.2169    3.9724   -0.0586 C   0  0  0  0  0  0  0  0  0  0  0  0
    5.6328    2.5959   -0.4383 C   0  0  1  0  0  0  0  0  0  0  0  0
    4.4047    1.7837   -0.8007 C   0  0  0  0  0  0  0  0  0  0  0  0
    4.2978    1.2319   -1.9204 O   0  0  0  0  0  0  0  0  0  0  0  0
    3.4077    1.7011    0.1781 N   0  0  0  0  0  0  0  0  0  0  0  0
    2.1390    1.0525    0.0979 C   0  0  1  0  0  0  0  0  0  0  0  0
    2.0577   -0.2127    0.8343 C   0  0  0  0  0  0  0  0  0  0  0  0
    0.9351   -0.6545    1.1429 O   0  0  0  0  0  0  0  0  0  0  0  0
    3.1470   -1.0359    1.2529 N   0  0  0  0  0  0  0  0  0  0  0  0
    2.9708   -2.2650    1.9955 C   0  0  0  0  0  0  0  0  0  0  0  0
    2.0729   -3.2375    1.3222 C   0  0  0  0  0  0  0  0  0  0  0  0
    1.4924   -3.0490    0.2420 O   0  0  0  0  0  0  0  0  0  0  0  0
    1.8008   -4.5369    1.9034 N   0  0  0  0  0  0  0  0  0  0  0  0
    0.8357   -5.4682    1.3103 C   0  0  1  0  0  0  0  0  0  0  0  0
    1.5074   -6.5384    0.5180 C   0  0  0  0  0  0  0  0  0  0  0  0
    2.4224   -7.3193    1.3507 C   0  0  0  0  0  0  0  0  0  0  0  0
    2.1961   -8.4841    2.0855 C   0  0  0  0  0  0  0  0  0  0  0  0
    3.3472   -8.8458    2.6743 N   0  0  0  0  0  0  0  0  0  0  0  0
    4.2868   -7.9525    2.3386 C   0  0  0  0  0  0  0  0  0  0  0  0
    3.7253   -7.0119    1.5260 N   0  0  0  0  0  0  0  0  0  0  0  0
   -0.0389   -6.0445    2.3490 C   0  0  0  0  0  0  0  0  0  0  0  0
    0.1052   -5.6716    3.5254 O   0  0  0  0  0  0  0  0  0  0  0  0
   -1.0655   -7.0172    2.1483 N   0  0  0  0  0  0  0  0  0  0  0  0
   -1.8821   -7.4599    3.2899 C   0  0  2  0  0  0  0  0  0  0  0  0
   -1.8979   -8.9471    3.3476 C   0  0  0  0  0  0  0  0  0  0  0  0
   -2.4761   -9.5627    2.1334 C   0  0  0  0  0  0  0  0  0  0  0  0
   -3.8436   -9.8066    2.1490 C   0  0  0  0  0  0  0  0  0  0  0  0
   -4.5006  -10.3733    1.0977 C   0  0  0  0  0  0  0  0  0  0  0  0
   -3.7992  -10.7264   -0.0400 C   0  0  0  0  0  0  0  0  0  0  0  0
   -2.4456  -10.4817   -0.0463 C   0  0  0  0  0  0  0  0  0  0  0  0
   -1.7724   -9.9083    1.0139 C   0  0  0  0  0  0  0  0  0  0  0  0
   -3.2816   -6.8776    3.1003 C   0  0  0  0  0  0  0  0  0  0  0  0
   -4.0859   -6.9899    4.0014 O   0  0  0  0  0  0  0  0  0  0  0  0
   -3.6013   -6.2377    1.9219 N   0  0  0  0  0  0  0  0  0  0  0  0
   -4.7771   -5.5686    1.4136 C   0  0  2  0  0  0  0  0  0  0  0  0
   -4.2592   -4.3009    0.9031 C   0  0  0  0  0  0  0  0  0  0  0  0
   -3.0879   -3.9998    1.1758 O   0  0  0  0  0  0  0  0  0  0  0  0
   -4.9674   -3.3328    0.0896 N   0  0  0  0  0  0  0  0  0  0  0  0
   -4.1554   -2.2310   -0.2901 C   0  0  2  0  0  0  0  0  0  0  0  0
   -4.6546   -0.9726   -0.7874 C   0  0  0  0  0  0  0  0  0  0  0  0
   -5.7854   -0.6334   -1.1319 O   0  0  0  0  0  0  0  0  0  0  0  0
   -3.6647    0.0614   -0.8858 N   0  0  0  0  0  0  0  0  0  0  0  0
   -3.6644    1.3480   -1.4271 C   0  0  2  0  0  0  0  0  0  0  0  0
   -2.3684    1.4410   -2.3336 C   0  0  0  0  0  0  0  0  0  0  0  0
   -1.1170    0.4088   -1.5115 S   0  0  0  0  0  0  0  0  0  0  0  0
   -0.5140    1.0152    0.3728 S   0  0  0  0  0  0  0  0  0  0  0  0
    0.9830    1.9947    0.4415 C   0  0  0  0  0  0  0  0  0  0  0  0
    0.9559    3.0252   -0.6609 C   0  0  0  0  0  0  0  0  0  0  0  0
    1.2017    2.6934    1.7412 C   0  0  0  0  0  0  0  0  0  0  0  0
   -3.4676    2.5101   -0.4960 C   0  0  0  0  0  0  0  0  0  0  0  0
   -3.3365    2.2906    0.7526 O   0  0  0  0  0  0  0  0  0  0  0  0
   -3.4417    3.7660   -1.0919 N   0  0  0  0  0  0  0  0  0  0  0  0
   -3.2589    5.0672   -0.5063 C   0  0  2  0  0  0  0  0  0  0  0  0
   -4.4426    5.8538   -0.9277 C   0  0  0  0  0  0  0  0  0  0  0  0
   -4.5018    7.1029   -0.9675 O   0  0  0  0  0  0  0  0  0  0  0  0
   -5.6710    5.1897   -1.3397 N   0  0  0  0  0  0  0  0  0  0  0  0
   -6.7226    6.0690   -1.7683 C   0  0  2  0  0  0  0  0  0  0  0  0
   -7.2401    6.8083   -0.5518 C   0  0  0  0  0  0  0  0  0  0  0  0
   -8.1598    7.6660   -0.7984 O   0  0  0  0  0  0  0  0  0  0  0  0
   -6.7641    6.5906    0.7565 N   0  0  0  0  0  0  0  0  0  0  0  0
   -7.3747    7.4138    1.8135 C   0  0  0  0  0  0  0  0  0  0  0  0
   -7.1245    8.8666    1.5021 C   0  0  0  0  0  0  0  0  0  0  0  0
   -6.4728    9.2141    0.4687 O   0  0  0  0  0  0  0  0  0  0  0  0
   -7.5964    9.9140    2.3328 N   0  0  0  0  0  0  0  0  0  0  0  0
   -7.8220    5.2771   -2.3974 C   0  0  0  0  0  0  0  0  0  0  0  0
   -8.4584    4.2879   -1.5070 C   0  0  0  0  0  0  0  0  0  0  0  0
   -9.5245    4.6583   -0.7106 C   0  0  0  0  0  0  0  0  0  0  0  0
  -10.1632    3.7461    0.1395 C   0  0  0  0  0  0  0  0  0  0  0  0
   -9.7520    2.4365    0.2140 C   0  0  0  0  0  0  0  0  0  0  0  0
   -8.6850    2.0537   -0.5792 C   0  0  0  0  0  0  0  0  0  0  0  0
   -8.0512    2.9662   -1.4230 C   0  0  0  0  0  0  0  0  0  0  0  0
   -1.9806    5.7093   -0.9348 C   0  0  0  0  0  0  0  0  0  0  0  0
   -1.8163    7.0513   -0.2933 C   0  0  0  0  0  0  0  0  0  0  0  0
   -1.8012    6.9945    1.2271 C   0  0  0  0  0  0  0  0  0  0  0  0
   -1.6472    8.3595    1.6748 N   0  0  0  0  0  0  0  0  0  0  0  0
   -2.5869    9.0800    2.1605 C   0  0  0  0  0  0  0  0  0  0  0  0
   -2.3211   10.4307    2.5761 N   0  0  0  0  0  0  0  0  0  0  0  0
   -3.9028    8.5295    2.2874 N   0  0  0  0  0  0  0  0  0  0  0  0
   -3.3393   -2.8544   -1.4985 C   0  0  0  0  0  0  0  0  0  0  0  0
   -4.2348   -3.3200   -2.5616 C   0  0  0  0  0  0  0  0  0  0  0  0
   -4.6750   -4.6509   -2.6331 C   0  0  0  0  0  0  0  0  0  0  0  0
   -5.5105   -4.7865   -3.6851 N   0  0  0  0  0  0  0  0  0  0  0  0
   -5.6395   -3.5899   -4.3178 C   0  0  0  0  0  0  0  0  0  0  0  0
   -4.8501   -2.7061   -3.6145 C   0  0  0  0  0  0  0  0  0  0  0  0
   -4.7920   -1.4115   -4.0704 C   0  0  0  0  0  0  0  0  0  0  0  0
   -5.4761   -0.9687   -5.1757 C   0  0  0  0  0  0  0  0  0  0  0  0
   -6.2716   -1.8906   -5.8687 C   0  0  0  0  0  0  0  0  0  0  0  0
   -6.3634   -3.2027   -5.4545 C   0  0  0  0  0  0  0  0  0  0  0  0
   -5.9996   -5.5593    2.2268 C   0  0  0  0  0  0  0  0  0  0  0  0
   -6.6462   -6.8968    2.3819 C   0  0  0  0  0  0  0  0  0  0  0  0
   -7.2254   -7.3476    1.0306 C   0  0  0  0  0  0  0  0  0  0  0  0
   -8.1769   -6.3202    0.6432 N   0  0  0  0  0  0  0  0  0  0  0  0
   -9.3974   -6.4310    1.0305 C   0  0  0  0  0  0  0  0  0  0  0  0
  -10.3710   -5.4323    0.6719 N   0  0  0  0  0  0  0  0  0  0  0  0
   -9.8718   -7.5162    1.8142 N   0  0  0  0  0  0  0  0  0  0  0  0
    6.6130    2.4354   -1.4453 N   0  0  0  0  0  0  0  0  0  0  0  0
    7.8501    1.8486   -1.1082 C   0  0  0  0  0  0  0  0  0  0  0  0
    8.0187    1.4907    0.1021 O   0  0  0  0  0  0  0  0  0  0  0  0
    9.0012    1.6036   -2.0085 C   0  0  2  0  0  0  0  0  0  0  0  0
    8.7431    0.4377   -2.8872 C   0  0  0  0  0  0  0  0  0  0  0  0
    9.9106    0.1479   -3.8261 C   0  0  0  0  0  0  0  0  0  0  0  0
    7.5171    0.6260   -3.7386 C   0  0  0  0  0  0  0  0  0  0  0  0
   10.1899    1.3136   -1.1727 N   0  0  0  0  0  0  0  0  0  0  0  0
   11.2206    2.2628   -1.1416 C   0  0  0  0  0  0  0  0  0  0  0  0
   11.1325    3.3410   -1.8253 O   0  0  0  0  0  0  0  0  0  0  0  0
   12.4545    2.1159   -0.3426 C   0  0  2  0  0  0  0  0  0  0  0  0
   13.6919    2.6800   -0.9549 C   0  0  0  0  0  0  0  0  0  0  0  0
   14.8821    2.4956   -0.0762 C   0  0  0  0  0  0  0  0  0  0  0  0
   15.7509    1.4339   -0.1801 C   0  0  0  0  0  0  0  0  0  0  0  0
   16.7997    1.3320    0.7102 C   0  0  0  0  0  0  0  0  0  0  0  0
   16.9805    2.2852    1.6983 C   0  0  0  0  0  0  0  0  0  0  0  0
   16.1150    3.3481    1.8041 C   0  0  0  0  0  0  0  0  0  0  0  0
   15.0861    3.4384    0.9222 C   0  0  0  0  0  0  0  0  0  0  0  0
   18.0312    2.1769    2.5819 O   0  0  0  0  0  0  0  0  0  0  0  0
   12.6019    0.8106    0.2424 N   0  0  0  0  0  0  0  0  0  0  0  0
    7.7573    7.3317   -0.6158 H   0  0  0  0  0  0  0  0  0  0  0  0
    8.4284    6.1707    0.6197 H   0  0  0  0  0  0  0  0  0  0  0  0
    9.1227    6.2515   -1.0707 H   0  0  0  0  0  0  0  0  0  0  0  0
    6.4596    5.7930   -1.6097 H   0  0  0  0  0  0  0  0  0  0  0  0
    7.6624    4.5261   -1.3609 H   0  0  0  0  0  0  0  0  0  0  0  0
    5.7095    5.8750    0.6921 H   0  0  0  0  0  0  0  0  0  0  0  0
    6.8505    4.6421    1.2149 H   0  0  0  0  0  0  0  0  0  0  0  0
    4.6075    4.4652   -0.8817 H   0  0  0  0  0  0  0  0  0  0  0  0
    4.4627    3.9245    0.7988 H   0  0  0  0  0  0  0  0  0  0  0  0
    6.0004    2.1055    0.4973 H   0  0  0  0  0  0  0  0  0  0  0  0
    3.6045    2.1665    1.1285 H   0  0  0  0  0  0  0  0  0  0  0  0
    1.9621    0.8058   -1.0143 H   0  0  0  0  0  0  0  0  0  0  0  0
    4.0682   -0.6720    0.9765 H   0  0  0  0  0  0  0  0  0  0  0  0
    4.0099   -2.6904    2.1052 H   0  0  0  0  0  0  0  0  0  0  0  0
    2.6349   -2.1042    3.0430 H   0  0  0  0  0  0  0  0  0  0  0  0
    2.3403   -4.7282    2.7478 H   0  0  0  0  0  0  0  0  0  0  0  0
    0.2019   -4.8895    0.5576 H   0  0  0  0  0  0  0  0  0  0  0  0
    0.6790   -7.1877    0.1062 H   0  0  0  0  0  0  0  0  0  0  0  0
    2.0634   -6.0976   -0.3390 H   0  0  0  0  0  0  0  0  0  0  0  0
    1.2425   -8.9862    2.1547 H   0  0  0  0  0  0  0  0  0  0  0  0
    3.4267   -9.6939    3.2718 H   0  0  0  0  0  0  0  0  0  0  0  0
    5.3096   -8.0167    2.6839 H   0  0  0  0  0  0  0  0  0  0  0  0
   -1.1564   -7.3606    1.1991 H   0  0  0  0  0  0  0  0  0  0  0  0
   -1.4413   -7.0548    4.2069 H   0  0  0  0  0  0  0  0  0  0  0  0
   -2.3201   -9.3615    4.2877 H   0  0  0  0  0  0  0  0  0  0  0  0
   -0.8171   -9.2833    3.3776 H   0  0  0  0  0  0  0  0  0  0  0  0
   -4.4219   -9.5420    3.0330 H   0  0  0  0  0  0  0  0  0  0  0  0
   -5.5662  -10.5259    1.1870 H   0  0  0  0  0  0  0  0  0  0  0  0
   -4.3139  -11.1822   -0.8919 H   0  0  0  0  0  0  0  0  0  0  0  0
   -1.8349  -10.7358   -0.9117 H   0  0  0  0  0  0  0  0  0  0  0  0
   -0.7232   -9.7222    0.9900 H   0  0  0  0  0  0  0  0  0  0  0  0
   -2.7922   -6.2255    1.2102 H   0  0  0  0  0  0  0  0  0  0  0  0
   -5.0554   -6.2685    0.5271 H   0  0  0  0  0  0  0  0  0  0  0  0
   -5.9270   -3.5667   -0.0932 H   0  0  0  0  0  0  0  0  0  0  0  0
   -3.3513   -2.0260    0.4926 H   0  0  0  0  0  0  0  0  0  0  0  0
   -2.7454   -0.2508   -0.4239 H   0  0  0  0  0  0  0  0  0  0  0  0
   -4.4977    1.5827   -2.1226 H   0  0  0  0  0  0  0  0  0  0  0  0
   -2.5638    1.0389   -3.3201 H   0  0  0  0  0  0  0  0  0  0  0  0
   -2.0015    2.4599   -2.3852 H   0  0  0  0  0  0  0  0  0  0  0  0
    1.8881    2.9729   -1.2855 H   0  0  0  0  0  0  0  0  0  0  0  0
    0.0909    2.9108   -1.3451 H   0  0  0  0  0  0  0  0  0  0  0  0
    0.9772    4.0517   -0.2265 H   0  0  0  0  0  0  0  0  0  0  0  0
    1.8390    3.6027    1.6423 H   0  0  0  0  0  0  0  0  0  0  0  0
    1.6544    2.0873    2.5227 H   0  0  0  0  0  0  0  0  0  0  0  0
    0.1745    2.9849    2.1189 H   0  0  0  0  0  0  0  0  0  0  0  0
   -3.5760    3.7887   -2.1580 H   0  0  0  0  0  0  0  0  0  0  0  0
   -3.2803    4.9109    0.5899 H   0  0  0  0  0  0  0  0  0  0  0  0
   -5.6895    4.1609   -1.2909 H   0  0  0  0  0  0  0  0  0  0  0  0
   -6.2892    6.8782   -2.4208 H   0  0  0  0  0  0  0  0  0  0  0  0
   -6.0287    5.8860    0.9546 H   0  0  0  0  0  0  0  0  0  0  0  0
   -6.9100    7.1112    2.7719 H   0  0  0  0  0  0  0  0  0  0  0  0
   -8.4453    7.1723    1.8155 H   0  0  0  0  0  0  0  0  0  0  0  0
   -7.1527   10.1550    3.2594 H   0  0  0  0  0  0  0  0  0  0  0  0
   -8.4159   10.5291    2.0894 H   0  0  0  0  0  0  0  0  0  0  0  0
   -8.6399    5.9318   -2.8001 H   0  0  0  0  0  0  0  0  0  0  0  0
   -7.4493    4.7506   -3.3337 H   0  0  0  0  0  0  0  0  0  0  0  0
   -9.9440    5.6537   -0.6820 H   0  0  0  0  0  0  0  0  0  0  0  0
  -10.9953    4.0717    0.7530 H   0  0  0  0  0  0  0  0  0  0  0  0
  -10.2740    1.7691    0.8752 H   0  0  0  0  0  0  0  0  0  0  0  0
   -8.3850    1.0208   -0.5051 H   0  0  0  0  0  0  0  0  0  0  0  0
   -7.2342    2.5732   -2.0052 H   0  0  0  0  0  0  0  0  0  0  0  0
   -1.9891    5.8780   -2.0319 H   0  0  0  0  0  0  0  0  0  0  0  0
   -1.1118    5.0923   -0.6135 H   0  0  0  0  0  0  0  0  0  0  0  0
   -0.7640    7.3845   -0.6043 H   0  0  0  0  0  0  0  0  0  0  0  0
   -2.4495    7.8556   -0.6458 H   0  0  0  0  0  0  0  0  0  0  0  0
   -0.8767    6.4416    1.5005 H   0  0  0  0  0  0  0  0  0  0  0  0
   -2.6461    6.4730    1.6679 H   0  0  0  0  0  0  0  0  0  0  0  0
   -1.4414   10.6975    3.0764 H   0  0  0  0  0  0  0  0  0  0  0  0
   -3.0556   11.1156    2.3466 H   0  0  0  0  0  0  0  0  0  0  0  0
   -4.2330    7.7487    1.6802 H   0  0  0  0  0  0  0  0  0  0  0  0
   -4.4984    8.9709    3.0345 H   0  0  0  0  0  0  0  0  0  0  0  0
   -2.7247   -3.6549   -1.0937 H   0  0  0  0  0  0  0  0  0  0  0  0
   -2.6758   -2.0758   -1.9098 H   0  0  0  0  0  0  0  0  0  0  0  0
   -4.3831   -5.4514   -1.9400 H   0  0  0  0  0  0  0  0  0  0  0  0
   -6.0156   -5.6358   -4.0267 H   0  0  0  0  0  0  0  0  0  0  0  0
   -4.1755   -0.6962   -3.5503 H   0  0  0  0  0  0  0  0  0  0  0  0
   -5.4128    0.0696   -5.5263 H   0  0  0  0  0  0  0  0  0  0  0  0
   -6.7990   -1.5099   -6.7247 H   0  0  0  0  0  0  0  0  0  0  0  0
   -6.9777   -3.8998   -6.0014 H   0  0  0  0  0  0  0  0  0  0  0  0
   -5.7841   -5.1510    3.2672 H   0  0  0  0  0  0  0  0  0  0  0  0
   -6.7187   -4.8481    1.7179 H   0  0  0  0  0  0  0  0  0  0  0  0
   -5.9181   -7.6987    2.6114 H   0  0  0  0  0  0  0  0  0  0  0  0
   -7.4005   -6.9147    3.1775 H   0  0  0  0  0  0  0  0  0  0  0  0
   -6.4631   -7.5184    0.2785 H   0  0  0  0  0  0  0  0  0  0  0  0
   -7.7884   -8.2948    1.1460 H   0  0  0  0  0  0  0  0  0  0  0  0
  -11.4022   -5.6583    0.6673 H   0  0  0  0  0  0  0  0  0  0  0  0
  -10.0039   -4.4764    0.4174 H   0  0  0  0  0  0  0  0  0  0  0  0
   -9.6137   -7.7005    2.7975 H   0  0  0  0  0  0  0  0  0  0  0  0
  -10.5344   -8.1868    1.3767 H   0  0  0  0  0  0  0  0  0  0  0  0
    6.4429    2.7494   -2.4241 H   0  0  0  0  0  0  0  0  0  0  0  0
    9.2439    2.4986   -2.5978 H   0  0  0  0  0  0  0  0  0  0  0  0
    8.5523   -0.4951   -2.2773 H   0  0  0  0  0  0  0  0  0  0  0  0
    9.5052   -0.4935   -4.6414 H   0  0  0  0  0  0  0  0  0  0  0  0
   10.6883   -0.3882   -3.2730 H   0  0  0  0  0  0  0  0  0  0  0  0
   10.2443    1.0862   -4.2817 H   0  0  0  0  0  0  0  0  0  0  0  0
    7.4694   -0.1456   -4.5587 H   0  0  0  0  0  0  0  0  0  0  0  0
    7.5221    1.6335   -4.1929 H   0  0  0  0  0  0  0  0  0  0  0  0
    6.5926    0.4962   -3.1429 H   0  0  0  0  0  0  0  0  0  0  0  0
   10.2717    0.4392   -0.6168 H   0  0  0  0  0  0  0  0  0  0  0  0
   12.2740    2.7968    0.5741 H   0  0  0  0  0  0  0  0  0  0  0  0
   13.5966    3.7439   -1.2265 H   0  0  0  0  0  0  0  0  0  0  0  0
   13.9329    2.1591   -1.9154 H   0  0  0  0  0  0  0  0  0  0  0  0
   15.5847    0.7231   -0.9561 H   0  0  0  0  0  0  0  0  0  0  0  0
   17.4972    0.5222    0.6649 H   0  0  0  0  0  0  0  0  0  0  0  0
   16.2535    4.0903    2.5709 H   0  0  0  0  0  0  0  0  0  0  0  0
   14.4146    4.2829    1.0113 H   0  0  0  0  0  0  0  0  0  0  0  0
   18.5724    3.0337    2.7751 H   0  0  0  0  0  0  0  0  0  0  0  0
   13.5699    0.5400    0.4279 H   0  0  0  0  0  0  0  0  0  0  0  0
   11.9176    0.6241    1.0003 H   0  0  0  0  0  0  0  0  0  0  0  0
  1  2  1  0
  2  3  1  0
  3  4  1  0
  4  5  1  0
  5  6  1  0
  6  7  2  0
  6  8  1  0
  8  9  1  0
  9 10  1  0
 10 11  2  0
 10 12  1  0
 12 13  1  0
 13 14  1  0
 14 15  2  0
 14 16  1  0
 16 17  1  0
 17 18  1  0
 18 19  1  0
 19 20  2  0
 20 21  1  0
 21 22  1  0
 22 23  2  0
 17 24  1  0
 24 25  2  0
 24 26  1  0
 26 27  1  0
 27 28  1  0
 28 29  1  0
 29 30  2  0
 30 31  1  0
 31 32  2  0
 32 33  1  0
 33 34  2  0
 27 35  1  0
 35 36  2  0
 35 37  1  0
 37 38  1  0
 38 39  1  0
 39 40  2  0
 39 41  1  0
 41 42  1  0
 42 43  1  0
 43 44  2  0
 43 45  1  0
 45 46  1  0
 46 47  1  0
 47 48  1  0
 48 49  1  0
 49 50  1  0
 50 51  1  0
 50 52  1  0
 46 53  1  0
 53 54  2  0
 53 55  1  0
 55 56  1  0
 56 57  1  0
 57 58  2  0
 57 59  1  0
 59 60  1  0
 60 61  1  0
 61 62  2  0
 61 63  1  0
 63 64  1  0
 64 65  1  0
 65 66  2  0
 65 67  1  0
 60 68  1  0
 68 69  1  0
 69 70  2  0
 70 71  1  0
 71 72  2  0
 72 73  1  0
 73 74  2  0
 56 75  1  0
 75 76  1  0
 76 77  1  0
 77 78  1  0
 78 79  2  3
 79 80  1  0
 79 81  1  0
 42 82  1  0
 82 83  1  0
 83 84  2  0
 84 85  1  0
 85 86  1  0
 86 87  2  0
 87 88  1  0
 88 89  2  0
 89 90  1  0
 90 91  2  0
 38 92  1  0
 92 93  1  0
 93 94  1  0
 94 95  1  0
 95 96  2  3
 96 97  1  0
 96 98  1  0
  5 99  1  0
 99100  1  0
100101  2  0
100102  1  0
102103  1  0
103104  1  0
103105  1  0
102106  1  0
106107  1  0
107108  2  0
107109  1  0
109110  1  0
110111  1  0
111112  2  0
112113  1  0
113114  2  0
114115  1  0
115116  2  0
114117  1  0
109118  1  0
 50  9  1  0
 74 69  1  0
 87 83  1  0
116111  1  0
 23 19  1  0
 34 29  1  0
 91 86  1  0
  1119  1  0
  1120  1  0
  1121  1  0
  2122  1  0
  2123  1  0
  3124  1  0
  3125  1  0
  4126  1  0
  4127  1  0
  5128  1  1
  8129  1  0
  9130  1  6
 12131  1  0
 13132  1  0
 13133  1  0
 16134  1  0
 17135  1  6
 18136  1  0
 18137  1  0
 20138  1  0
 21139  1  0
 22140  1  0
 26141  1  0
 27142  1  1
 28143  1  0
 28144  1  0
 30145  1  0
 31146  1  0
 32147  1  0
 33148  1  0
 34149  1  0
 37150  1  0
 38151  1  6
 41152  1  0
 42153  1  1
 45154  1  0
 46155  1  6
 47156  1  0
 47157  1  0
 51158  1  0
 51159  1  0
 51160  1  0
 52161  1  0
 52162  1  0
 52163  1  0
 55164  1  0
 56165  1  1
 59166  1  0
 60167  1  6
 63168  1  0
 64169  1  0
 64170  1  0
 67171  1  0
 67172  1  0
 68173  1  0
 68174  1  0
 70175  1  0
 71176  1  0
 72177  1  0
 73178  1  0
 74179  1  0
 75180  1  0
 75181  1  0
 76182  1  0
 76183  1  0
 77184  1  0
 77185  1  0
 80186  1  0
 80187  1  0
 81188  1  0
 81189  1  0
 82190  1  0
 82191  1  0
 84192  1  0
 85193  1  0
 88194  1  0
 89195  1  0
 90196  1  0
 91197  1  0
 92198  1  0
 92199  1  0
 93200  1  0
 93201  1  0
 94202  1  0
 94203  1  0
 97204  1  0
 97205  1  0
 98206  1  0
 98207  1  0
 99208  1  0
102209  1  6
103210  1  0
104211  1  0
104212  1  0
104213  1  0
105214  1  0
105215  1  0
105216  1  0
106217  1  0
109218  1  1
110219  1  0
110220  1  0
112221  1  0
113222  1  0
115223  1  0
116224  1  0
117225  1  0
118226  1  0
118227  1  0
M  END
>  <Ligand ID>  (1) 
LIG0004155

>  <Ligand>  (1) 
CID 44364158

>  <SMILES>  (1) 
CCCC[C@@H](C(=O)N[C@H]1C(=O)NCC(=O)N[C@@H](Cc2c[nH]cn2)C(=O)N[C@H](Cc2ccccc2)C(=O)N[C@H](C(=O)N[C@H](C(=O)N[C@H](CSSC1(C)C)C(=O)N[C@H](C(=O)N[C@H](C(=O)NCC(=O)N)Cc1ccccc1)CCCN=C(N)N)Cc1c[nH]c2c1cccc2)CCCN=C(N)N)NC(=O)[C@H](C(C)C)NC(=O)[C@H](Cc1ccc(cc1)O)N

>  <CID>  (1) 
44364158.0

>  <ChEMBL ID>  (1) 
nan

>  <InChiKey>  (1) 
STCDJTWBNWJNLP-KGSPXNQHSA-N

>  <InChi>  (1) 
InChI=1S/C79H109N23O14S2/c1-6-7-23-54(96-75(115)64(44(2)3)101-66(106)52(80)33-47-27-29-50(103)30-28-47)70(110)102-65-76(116)91-41-63(105)93-60(37-49-39-86-43-92-49)73(113)98-58(35-46-20-12-9-13-21-46)71(111)94-55(25-16-31-87-77(82)83)69(109)99-59(36-48-38-89-53-24-15-14-22-51(48)53)72(112)100-61(42-117-118-79(65,4)5)74(114)95-56(26-17-32-88-78(84)85)68(108)97-57(67(107)90-40-62(81)104)34-45-18-10-8-11-19-45/h8-15,18-22,24,27-30,38-39,43-44,52,54-61,64-65,89,103H,6-7,16-17,23,25-26,31-37,40-42,80H2,1-5H3,(H2,81,104)(H,86,92)(H,90,107)(H,91,116)(H,93,105)(H,94,111)(H,95,114)(H,96,115)(H,97,108)(H,98,113)(H,99,109)(H,100,112)(H,101,106)(H,102,110)(H4,82,83,87)(H4,84,85,88)/t52-,54-,55-,56-,57-,58+,59-,60-,61+,64-,65-/m0/s1

>  <IUPAC Name>  (1) 
(4S,7S,10S,13R,16S,22S)-22-[[(2S)-2-[[(2S)-2-[[(2S)-2-amino-3-(4-hydroxyphenyl)propanoyl]amino]-3-methylbutanoyl]amino]hexanoyl]amino]-N-[(2S)-1-[[(2S)-1-[(2-amino-2-oxoethyl)amino]-1-oxo-3-phenylpropan-2-yl]amino]-5-(diaminomethylideneamino)-1-oxopentan-2-yl]-13-benzyl-10-[3-(diaminomethylideneamino)propyl]-16-(1H-imidazol-4-ylmethyl)-7-(1H-indol-3-ylmethyl)-23,23-dimethyl-6,9,12,15,18,21-hexaoxo-1,2-dithia-5,8,11,14,17,20-hexazacyclotricosane-4-carboxamide

$$$$
