
     RDKit          3D

 25 24  0  0  0  0  0  0  0  0999 V2000
   -3.4162    0.1388    0.2990 C   0  0  0  0  0  0  0  0  0  0  0  0
   -2.2950   -0.7092   -0.2441 C   0  0  0  0  0  0  0  0  0  0  0  0
   -1.2254    0.0702   -0.9214 C   0  0  0  0  0  0  0  0  0  0  0  0
   -0.5500    1.0775   -0.0225 C   0  0  0  0  0  0  0  0  0  0  0  0
    0.0600    0.5189    1.0754 O   0  0  0  0  0  0  0  0  0  0  0  0
    1.0450   -0.3894    0.7755 C   0  0  0  0  0  0  0  0  0  0  0  0
    2.1733    0.2284   -0.0415 C   0  0  0  0  0  0  0  0  0  0  0  0
    2.7723    1.2725    0.6530 O   0  0  0  0  0  0  0  0  0  0  0  0
    3.1865   -0.8888   -0.2753 C   0  0  0  0  0  0  0  0  0  0  0  0
   -4.3704   -0.4288    0.2579 H   0  0  0  0  0  0  0  0  0  0  0  0
   -3.2804    0.4672    1.3358 H   0  0  0  0  0  0  0  0  0  0  0  0
   -3.5759    0.9957   -0.4041 H   0  0  0  0  0  0  0  0  0  0  0  0
   -1.9198   -1.4114    0.5276 H   0  0  0  0  0  0  0  0  0  0  0  0
   -2.7638   -1.3622   -1.0219 H   0  0  0  0  0  0  0  0  0  0  0  0
   -0.4921   -0.6554   -1.3284 H   0  0  0  0  0  0  0  0  0  0  0  0
   -1.6606    0.6309   -1.7745 H   0  0  0  0  0  0  0  0  0  0  0  0
   -1.3341    1.7814    0.3362 H   0  0  0  0  0  0  0  0  0  0  0  0
    0.1630    1.7093   -0.5874 H   0  0  0  0  0  0  0  0  0  0  0  0
    0.7065   -1.2817    0.2174 H   0  0  0  0  0  0  0  0  0  0  0  0
    1.5069   -0.7315    1.7236 H   0  0  0  0  0  0  0  0  0  0  0  0
    1.8340    0.5741   -1.0154 H   0  0  0  0  0  0  0  0  0  0  0  0
    3.1954    1.9216    0.0356 H   0  0  0  0  0  0  0  0  0  0  0  0
    4.1759   -0.5001   -0.6043 H   0  0  0  0  0  0  0  0  0  0  0  0
    2.7987   -1.5642   -1.0509 H   0  0  0  0  0  0  0  0  0  0  0  0
    3.2663   -1.4636    0.6715 H   0  0  0  0  0  0  0  0  0  0  0  0
  1  2  1  0
  2  3  1  0
  3  4  1  0
  4  5  1  0
  5  6  1  0
  6  7  1  0
  7  8  1  0
  7  9  1  0
  1 10  1  0
  1 11  1  0
  1 12  1  0
  2 13  1  0
  2 14  1  0
  3 15  1  0
  3 16  1  0
  4 17  1  0
  4 18  1  0
  6 19  1  0
  6 20  1  0
  7 21  1  0
  8 22  1  0
  9 23  1  0
  9 24  1  0
  9 25  1  0
M  END
>  <Ligand ID>  (1) 
LIG0000554

>  <Ligand>  (1) 
1-Butoxy-2-propanol

>  <SMILES>  (1) 
CCCCOCC(O)C

>  <CID>  (1) 
21210.0

>  <ChEMBL ID>  (1) 
nan

>  <InChiKey>  (1) 
RWNUSVWFHDHRCJ-UHFFFAOYSA-N

>  <InChi>  (1) 
InChI=1S/C7H16O2/c1-3-4-5-9-6-7(2)8/h7-8H,3-6H2,1-2H3

>  <IUPAC Name>  (1) 
1-butoxypropan-2-ol

$$$$
