
     RDKit          3D

 58 62  0  0  0  0  0  0  0  0999 V2000
   -2.0472    4.6557    0.8134 C   0  0  0  0  0  0  0  0  0  0  0  0
   -3.2485    4.0391    0.4306 O   0  0  0  0  0  0  0  0  0  0  0  0
   -3.3707    2.6687    0.1796 C   0  0  0  0  0  0  0  0  0  0  0  0
   -2.2705    1.8526    0.3064 C   0  0  0  0  0  0  0  0  0  0  0  0
   -2.4019    0.5126    0.0573 C   0  0  0  0  0  0  0  0  0  0  0  0
   -3.6525    0.0575   -0.3099 C   0  0  0  0  0  0  0  0  0  0  0  0
   -4.7534    0.8729   -0.4367 C   0  0  0  0  0  0  0  0  0  0  0  0
   -4.6215    2.2227   -0.1872 C   0  0  0  0  0  0  0  0  0  0  0  0
   -5.6899    3.0921   -0.2981 O   0  0  0  0  0  0  0  0  0  0  0  0
   -6.9400    2.5601   -0.6787 C   0  0  0  0  0  0  0  0  0  0  0  0
   -3.8139   -1.2748   -0.5454 N   0  0  0  0  0  0  0  0  0  0  0  0
   -2.7386   -2.1057   -0.4104 C   0  0  0  0  0  0  0  0  0  0  0  0
   -1.5365   -1.6287   -0.0528 N   0  0  0  0  0  0  0  0  0  0  0  0
   -1.3082   -0.2947    0.1980 C   0  0  0  0  0  0  0  0  0  0  0  0
   -0.0009    0.0652    0.5014 N   0  0  0  0  0  0  0  0  0  0  0  0
    0.7977   -0.9437    1.2549 C   0  0  0  0  0  0  0  0  0  0  0  0
    1.9803   -1.3669    0.4525 C   0  0  0  0  0  0  0  0  0  0  0  0
    2.1763   -0.4898   -0.6763 N   0  0  0  0  0  0  0  0  0  0  0  0
    2.1946    0.8630   -0.2065 C   0  0  0  0  0  0  0  0  0  0  0  0
    0.7380    1.2456    0.1505 C   0  0  0  0  0  0  0  0  0  0  0  0
    3.6219   -0.8007   -1.5280 S   0  0  0  0  0  0  0  0  0  0  0  0
    3.6088   -2.1655   -2.1705 O   0  0  0  0  0  0  0  0  0  0  0  0
    3.6692    0.1803   -2.6827 O   0  0  0  0  0  0  0  0  0  0  0  0
    5.0635   -0.5807   -0.5627 C   0  0  0  0  0  0  0  0  0  0  0  0
    5.6460    0.6778   -0.5505 C   0  0  0  0  0  0  0  0  0  0  0  0
    6.7852    0.9241    0.1888 C   0  0  0  0  0  0  0  0  0  0  0  0
    7.3439   -0.0913    0.9185 C   0  0  0  0  0  0  0  0  0  0  0  0
    6.7497   -1.3314    0.8921 C   0  0  0  0  0  0  0  0  0  0  0  0
    5.6143   -1.6134    0.1670 C   0  0  0  0  0  0  0  0  0  0  0  0
   -2.9707   -3.5391   -0.6767 C   0  0  0  0  0  0  0  0  0  0  0  0
   -2.3365   -4.5869    0.2293 C   0  0  0  0  0  0  0  0  0  0  0  0
   -1.9040   -4.4145   -1.1801 C   0  0  0  0  0  0  0  0  0  0  0  0
   -1.6623    4.0808    1.7043 H   0  0  0  0  0  0  0  0  0  0  0  0
   -1.3460    4.6825   -0.0239 H   0  0  0  0  0  0  0  0  0  0  0  0
   -2.3172    5.6984    1.1237 H   0  0  0  0  0  0  0  0  0  0  0  0
   -1.3555    2.3138    0.6161 H   0  0  0  0  0  0  0  0  0  0  0  0
   -5.7066    0.4426   -0.7305 H   0  0  0  0  0  0  0  0  0  0  0  0
   -7.2224    1.6486   -0.0887 H   0  0  0  0  0  0  0  0  0  0  0  0
   -6.9555    2.2873   -1.7440 H   0  0  0  0  0  0  0  0  0  0  0  0
   -7.7586    3.2880   -0.4546 H   0  0  0  0  0  0  0  0  0  0  0  0
    0.1547   -1.7603    1.6255 H   0  0  0  0  0  0  0  0  0  0  0  0
    1.1409   -0.3991    2.1706 H   0  0  0  0  0  0  0  0  0  0  0  0
    2.9139   -1.3927    1.0602 H   0  0  0  0  0  0  0  0  0  0  0  0
    1.8376   -2.4086    0.0756 H   0  0  0  0  0  0  0  0  0  0  0  0
    2.8488    0.8968    0.6786 H   0  0  0  0  0  0  0  0  0  0  0  0
    2.6129    1.5200   -0.9801 H   0  0  0  0  0  0  0  0  0  0  0  0
    0.3861    1.7576   -0.7740 H   0  0  0  0  0  0  0  0  0  0  0  0
    0.8737    1.9260    1.0161 H   0  0  0  0  0  0  0  0  0  0  0  0
    5.1979    1.4751   -1.1303 H   0  0  0  0  0  0  0  0  0  0  0  0
    7.1810    1.9340    0.1470 H   0  0  0  0  0  0  0  0  0  0  0  0
    8.2368    0.1368    1.4868 H   0  0  0  0  0  0  0  0  0  0  0  0
    7.2010   -2.1371    1.4769 H   0  0  0  0  0  0  0  0  0  0  0  0
    5.1383   -2.5813    0.1376 H   0  0  0  0  0  0  0  0  0  0  0  0
   -4.0061   -3.8006   -0.9626 H   0  0  0  0  0  0  0  0  0  0  0  0
   -1.7400   -4.1540    1.0607 H   0  0  0  0  0  0  0  0  0  0  0  0
   -2.9270   -5.4684    0.5442 H   0  0  0  0  0  0  0  0  0  0  0  0
   -0.9151   -3.9883   -1.4326 H   0  0  0  0  0  0  0  0  0  0  0  0
   -2.1953   -5.2601   -1.8637 H   0  0  0  0  0  0  0  0  0  0  0  0
  1  2  1  0
  2  3  1  0
  3  4  2  0
  4  5  1  0
  5  6  2  0
  6  7  1  0
  7  8  2  0
  8  9  1  0
  9 10  1  0
  6 11  1  0
 11 12  2  0
 12 13  1  0
 13 14  2  0
 14 15  1  0
 15 16  1  0
 16 17  1  0
 17 18  1  0
 18 19  1  0
 19 20  1  0
 18 21  1  0
 21 22  2  0
 21 23  2  0
 21 24  1  0
 24 25  2  0
 25 26  1  0
 26 27  2  0
 27 28  1  0
 28 29  2  0
 12 30  1  0
 30 31  1  0
 31 32  1  0
  8  3  1  0
 20 15  1  0
 29 24  1  0
 32 30  1  0
 14  5  1  0
  1 33  1  0
  1 34  1  0
  1 35  1  0
  4 36  1  0
  7 37  1  0
 10 38  1  0
 10 39  1  0
 10 40  1  0
 16 41  1  0
 16 42  1  0
 17 43  1  0
 17 44  1  0
 19 45  1  0
 19 46  1  0
 20 47  1  0
 20 48  1  0
 25 49  1  0
 26 50  1  0
 27 51  1  0
 28 52  1  0
 29 53  1  0
 30 54  1  0
 31 55  1  0
 31 56  1  0
 32 57  1  0
 32 58  1  0
M  END
>  <Ligand ID>  (1) 
LIG0004750

>  <Ligand>  (1) 
CHEMBL2431132

>  <SMILES>  (1) 
COc1cc2c(cc1OC)nc(nc2N1CCN(CC1)S(=O)(=O)c1ccccc1)C1CC1

>  <CID>  (1) 
56593283.0

>  <ChEMBL ID>  (1) 
nan

>  <InChiKey>  (1) 
MHFYXZJTMQZPBR-UHFFFAOYSA-N

>  <InChi>  (1) 
InChI=1S/C23H26N4O4S/c1-30-20-14-18-19(15-21(20)31-2)24-22(16-8-9-16)25-23(18)26-10-12-27(13-11-26)32(28,29)17-6-4-3-5-7-17/h3-7,14-16H,8-13H2,1-2H3

>  <IUPAC Name>  (1) 
4-[4-(benzenesulfonyl)piperazin-1-yl]-2-cyclopropyl-6,7-dimethoxyquinazoline

$$$$
