
     RDKit          3D

 35 34  0  0  0  0  0  0  0  0999 V2000
    3.5505    2.0707   -0.7962 C   0  0  0  0  0  0  0  0  0  0  0  0
    3.4115    0.5868   -0.5283 C   0  0  0  0  0  0  0  0  0  0  0  0
    2.5651    0.3339    0.7027 C   0  0  0  0  0  0  0  0  0  0  0  0
    2.4201   -1.1478    0.9781 C   0  0  0  0  0  0  0  0  0  0  0  0
    1.7663   -1.8861   -0.1608 C   0  0  0  0  0  0  0  0  0  0  0  0
    0.3746   -1.3668   -0.4567 C   0  0  0  0  0  0  0  0  0  0  0  0
   -0.4655   -1.5336    0.7515 C   0  0  0  0  0  0  0  0  0  0  0  0
   -1.7950   -1.0931    0.6261 O   0  0  0  0  0  0  0  0  0  0  0  0
   -2.1564    0.2013    0.3298 C   0  0  0  0  0  0  0  0  0  0  0  0
   -1.2488    1.0519    0.1584 O   0  0  0  0  0  0  0  0  0  0  0  0
   -3.6051    0.5185    0.2294 C   0  0  0  0  0  0  0  0  0  0  0  0
   -3.8613    1.9604   -0.0976 C   0  0  0  0  0  0  0  0  0  0  0  0
   -4.2487   -0.4152   -0.7768 C   0  0  0  0  0  0  0  0  0  0  0  0
    2.5899    2.4675   -1.1714 H   0  0  0  0  0  0  0  0  0  0  0  0
    3.8271    2.5945    0.1484 H   0  0  0  0  0  0  0  0  0  0  0  0
    4.3600    2.2189   -1.5413 H   0  0  0  0  0  0  0  0  0  0  0  0
    2.9667    0.0872   -1.4105 H   0  0  0  0  0  0  0  0  0  0  0  0
    4.4428    0.2000   -0.4007 H   0  0  0  0  0  0  0  0  0  0  0  0
    1.6327    0.8944    0.6999 H   0  0  0  0  0  0  0  0  0  0  0  0
    3.1751    0.7330    1.5602 H   0  0  0  0  0  0  0  0  0  0  0  0
    3.4628   -1.5229    1.0972 H   0  0  0  0  0  0  0  0  0  0  0  0
    1.9298   -1.3037    1.9364 H   0  0  0  0  0  0  0  0  0  0  0  0
    1.6158   -2.9324    0.1959 H   0  0  0  0  0  0  0  0  0  0  0  0
    2.4106   -1.9600   -1.0416 H   0  0  0  0  0  0  0  0  0  0  0  0
    0.3785   -0.3590   -0.8826 H   0  0  0  0  0  0  0  0  0  0  0  0
    0.0057   -2.0918   -1.2420 H   0  0  0  0  0  0  0  0  0  0  0  0
   -0.3990   -2.5842    1.0978 H   0  0  0  0  0  0  0  0  0  0  0  0
   -0.0406   -0.9162    1.5978 H   0  0  0  0  0  0  0  0  0  0  0  0
   -4.0407    0.3271    1.2474 H   0  0  0  0  0  0  0  0  0  0  0  0
   -3.3965    2.2562   -1.0581 H   0  0  0  0  0  0  0  0  0  0  0  0
   -3.5935    2.5722    0.7639 H   0  0  0  0  0  0  0  0  0  0  0  0
   -4.9759    2.0494   -0.1998 H   0  0  0  0  0  0  0  0  0  0  0  0
   -3.5384   -0.5793   -1.6286 H   0  0  0  0  0  0  0  0  0  0  0  0
   -5.1816   -0.0186   -1.1874 H   0  0  0  0  0  0  0  0  0  0  0  0
   -4.3389   -1.4131   -0.2987 H   0  0  0  0  0  0  0  0  0  0  0  0
  1  2  1  0
  2  3  1  0
  3  4  1  0
  4  5  1  0
  5  6  1  0
  6  7  1  0
  7  8  1  0
  8  9  1  0
  9 10  2  0
  9 11  1  0
 11 12  1  0
 11 13  1  0
  1 14  1  0
  1 15  1  0
  1 16  1  0
  2 17  1  0
  2 18  1  0
  3 19  1  0
  3 20  1  0
  4 21  1  0
  4 22  1  0
  5 23  1  0
  5 24  1  0
  6 25  1  0
  6 26  1  0
  7 27  1  0
  7 28  1  0
 11 29  1  0
 12 30  1  0
 12 31  1  0
 12 32  1  0
 13 33  1  0
 13 34  1  0
 13 35  1  0
M  END
>  <Ligand ID>  (1) 
LIG0000192

>  <Ligand>  (1) 
Heptyl isobutyrate

>  <SMILES>  (1) 
CCCCCCCOC(=O)C(C)C

>  <CID>  (1) 
61304.0

>  <ChEMBL ID>  (1) 
nan

>  <InChiKey>  (1) 
RFDUMBPGZUIKOG-UHFFFAOYSA-N

>  <InChi>  (1) 
InChI=1S/C11H22O2/c1-4-5-6-7-8-9-13-11(12)10(2)3/h10H,4-9H2,1-3H3

>  <IUPAC Name>  (1) 
heptyl 2-methylpropanoate

$$$$
