
     RDKit          3D

 67 69  0  0  0  0  0  0  0  0999 V2000
   -3.3401    4.5836   -2.0466 N   0  0  0  0  0  0  0  0  0  0  0  0
   -3.2788    3.5619   -1.5037 C   0  0  0  0  0  0  0  0  0  0  0  0
   -3.2107    2.2821   -0.8483 C   0  0  0  0  0  0  0  0  0  0  0  0
   -4.3379    1.7747   -0.1881 C   0  0  0  0  0  0  0  0  0  0  0  0
   -4.3335    0.5652    0.4507 C   0  0  0  0  0  0  0  0  0  0  0  0
   -5.3557   -0.0266    1.1124 O   0  0  0  0  0  0  0  0  0  0  0  0
   -6.6503    0.4360    1.2646 C   0  0  0  0  0  0  0  0  0  0  0  0
   -7.3486    0.4868   -0.0744 C   0  0  0  0  0  0  0  0  0  0  0  0
   -8.6477    0.9475   -0.0133 O   0  0  0  0  0  0  0  0  0  0  0  0
   -9.5101    0.1732    0.7385 C   0  0  0  0  0  0  0  0  0  0  0  0
   -9.6509   -1.2304    0.2114 C   0  0  0  0  0  0  0  0  0  0  0  0
  -10.5751   -2.2002    0.9141 C   0  0  0  0  0  0  0  0  0  0  0  0
   -9.0834   -2.3370    1.0668 C   0  0  0  0  0  0  0  0  0  0  0  0
   -3.1209   -0.1394    0.4045 C   0  0  0  0  0  0  0  0  0  0  0  0
   -2.0112    0.3553   -0.2425 C   0  0  0  0  0  0  0  0  0  0  0  0
   -2.0388    1.5714   -0.8781 C   0  0  0  0  0  0  0  0  0  0  0  0
   -0.9603    2.1267   -1.5475 O   0  0  0  0  0  0  0  0  0  0  0  0
    0.2677    1.4096   -1.5959 C   0  0  0  0  0  0  0  0  0  0  0  0
    1.3141    2.2042   -2.3658 C   0  0  0  0  0  0  0  0  0  0  0  0
    2.5768    1.4384   -2.5461 C   0  0  0  0  0  0  0  0  0  0  0  0
    3.2784    1.0942   -1.3674 N   0  0  0  0  0  0  0  0  0  0  0  0
    3.8914    2.1589   -0.6236 C   0  0  0  0  0  0  0  0  0  0  0  0
    4.6348    1.4872    0.5467 C   0  0  0  0  0  0  0  0  0  0  0  0
    5.6100    0.5779   -0.0591 N   0  0  0  0  0  0  0  0  0  0  0  0
    6.4896   -0.2234    0.7296 C   0  0  0  0  0  0  0  0  0  0  0  0
    6.4665   -0.1808    1.9761 O   0  0  0  0  0  0  0  0  0  0  0  0
    7.3959   -1.0748    0.0401 N   0  0  0  0  0  0  0  0  0  0  0  0
    8.3287   -1.9259    0.6939 C   0  0  0  0  0  0  0  0  0  0  0  0
    7.9798   -3.2136    1.0456 C   0  0  0  0  0  0  0  0  0  0  0  0
    8.8910   -4.0404    1.6744 C   0  0  0  0  0  0  0  0  0  0  0  0
   10.1708   -3.6242    1.9748 C   0  0  0  0  0  0  0  0  0  0  0  0
   10.5284   -2.3372    1.6264 C   0  0  0  0  0  0  0  0  0  0  0  0
    9.6148   -1.4962    0.9916 C   0  0  0  0  0  0  0  0  0  0  0  0
   11.0466   -4.4825    2.6023 O   0  0  0  0  0  0  0  0  0  0  0  0
    1.5698    3.4177   -1.7501 O   0  0  0  0  0  0  0  0  0  0  0  0
   -5.1965    2.4149   -0.1998 H   0  0  0  0  0  0  0  0  0  0  0  0
   -7.2199   -0.2749    1.9293 H   0  0  0  0  0  0  0  0  0  0  0  0
   -6.7041    1.4300    1.7827 H   0  0  0  0  0  0  0  0  0  0  0  0
   -6.8143    1.0168   -0.8553 H   0  0  0  0  0  0  0  0  0  0  0  0
   -7.4390   -0.6036   -0.3893 H   0  0  0  0  0  0  0  0  0  0  0  0
   -9.2134    0.1250    1.8057 H   0  0  0  0  0  0  0  0  0  0  0  0
  -10.5248    0.6581    0.6313 H   0  0  0  0  0  0  0  0  0  0  0  0
   -9.6138   -1.3412   -0.8928 H   0  0  0  0  0  0  0  0  0  0  0  0
  -11.1389   -1.7921    1.7526 H   0  0  0  0  0  0  0  0  0  0  0  0
  -11.0563   -2.9952    0.2895 H   0  0  0  0  0  0  0  0  0  0  0  0
   -8.5561   -3.1365    0.4972 H   0  0  0  0  0  0  0  0  0  0  0  0
   -8.6470   -2.1504    2.0468 H   0  0  0  0  0  0  0  0  0  0  0  0
   -3.0374   -1.1147    0.8932 H   0  0  0  0  0  0  0  0  0  0  0  0
   -1.0990   -0.2240   -0.2509 H   0  0  0  0  0  0  0  0  0  0  0  0
    0.7031    1.2202   -0.5984 H   0  0  0  0  0  0  0  0  0  0  0  0
    0.1131    0.4258   -2.0744 H   0  0  0  0  0  0  0  0  0  0  0  0
    0.8749    2.3498   -3.3924 H   0  0  0  0  0  0  0  0  0  0  0  0
    2.3522    0.5244   -3.1476 H   0  0  0  0  0  0  0  0  0  0  0  0
    3.2858    2.0740   -3.1641 H   0  0  0  0  0  0  0  0  0  0  0  0
    2.7874    0.4017   -0.7597 H   0  0  0  0  0  0  0  0  0  0  0  0
    4.6412    2.6781   -1.2427 H   0  0  0  0  0  0  0  0  0  0  0  0
    3.1277    2.8502   -0.1959 H   0  0  0  0  0  0  0  0  0  0  0  0
    5.0992    2.2162    1.2152 H   0  0  0  0  0  0  0  0  0  0  0  0
    3.9221    0.8615    1.1206 H   0  0  0  0  0  0  0  0  0  0  0  0
    5.6856    0.4937   -1.1179 H   0  0  0  0  0  0  0  0  0  0  0  0
    7.4231   -1.1205   -1.0234 H   0  0  0  0  0  0  0  0  0  0  0  0
    6.9668   -3.5534    0.8125 H   0  0  0  0  0  0  0  0  0  0  0  0
    8.6135   -5.0465    1.9479 H   0  0  0  0  0  0  0  0  0  0  0  0
   11.5084   -1.9508    1.8309 H   0  0  0  0  0  0  0  0  0  0  0  0
    9.8949   -0.4747    0.7139 H   0  0  0  0  0  0  0  0  0  0  0  0
   11.8866   -4.0810    3.0160 H   0  0  0  0  0  0  0  0  0  0  0  0
    0.7737    3.9989   -1.8855 H   0  0  0  0  0  0  0  0  0  0  0  0
  1  2  3  0
  2  3  1  0
  3  4  2  0
  4  5  1  0
  5  6  1  0
  6  7  1  0
  7  8  1  0
  8  9  1  0
  9 10  1  0
 10 11  1  0
 11 12  1  0
 12 13  1  0
  5 14  2  0
 14 15  1  0
 15 16  2  0
 16 17  1  0
 17 18  1  0
 18 19  1  0
 19 20  1  0
 20 21  1  0
 21 22  1  0
 22 23  1  0
 23 24  1  0
 24 25  1  0
 25 26  2  0
 25 27  1  0
 27 28  1  0
 28 29  2  0
 29 30  1  0
 30 31  2  0
 31 32  1  0
 32 33  2  0
 31 34  1  0
 19 35  1  0
 16  3  1  0
 33 28  1  0
 13 11  1  0
  4 36  1  0
  7 37  1  0
  7 38  1  0
  8 39  1  0
  8 40  1  0
 10 41  1  0
 10 42  1  0
 11 43  1  0
 12 44  1  0
 12 45  1  0
 13 46  1  0
 13 47  1  0
 14 48  1  0
 15 49  1  0
 18 50  1  0
 18 51  1  0
 19 52  1  0
 20 53  1  0
 20 54  1  0
 21 55  1  0
 22 56  1  0
 22 57  1  0
 23 58  1  0
 23 59  1  0
 24 60  1  0
 27 61  1  0
 29 62  1  0
 30 63  1  0
 32 64  1  0
 33 65  1  0
 34 66  1  0
 35 67  1  0
M  END
>  <Ligand ID>  (1) 
LIG0002968

>  <Ligand>  (1) 
LK-204545

>  <SMILES>  (1) 
N#Cc1cc(OCCOCC2CC2)ccc1OCC(CNCCNC(=O)Nc1ccc(cc1)O)O

>  <CID>  (1) 
5311116.0

>  <ChEMBL ID>  (1) 
nan

>  <InChiKey>  (1) 
VAWYRUMIUGPAEX-UHFFFAOYSA-N

>  <InChi>  (1) 
InChI=1S/C25H32N4O6/c26-14-19-13-23(34-12-11-33-16-18-1-2-18)7-8-24(19)35-17-22(31)15-27-9-10-28-25(32)29-20-3-5-21(30)6-4-20/h3-8,13,18,22,27,30-31H,1-2,9-12,15-17H2,(H2,28,29,32)

>  <IUPAC Name>  (1) 
1-[2-[[3-[2-cyano-4-[2-(cyclopropylmethoxy)ethoxy]phenoxy]-2-hydroxypropyl]amino]ethyl]-3-(4-hydroxyphenyl)urea

$$$$
