
     RDKit          3D

 36 39  0  0  0  0  0  0  0  0999 V2000
   -3.4014    3.9132   -1.7044 Br  0  0  0  0  0  0  0  0  0  0  0  0
   -3.6670    2.4062   -0.5650 C   0  0  0  0  0  0  0  0  0  0  0  0
   -4.7288    2.3402    0.3338 C   0  0  0  0  0  0  0  0  0  0  0  0
   -4.8811    1.2422    1.1307 C   0  0  0  0  0  0  0  0  0  0  0  0
   -3.9789    0.1794    1.0536 C   0  0  0  0  0  0  0  0  0  0  0  0
   -2.9081    0.2276    0.1585 C   0  0  0  0  0  0  0  0  0  0  0  0
   -2.7822    1.3412   -0.6267 C   0  0  0  0  0  0  0  0  0  0  0  0
   -2.0079   -0.9117    0.1258 C   0  0  0  0  0  0  0  0  0  0  0  0
   -2.5178   -2.1615    0.1047 N   0  0  0  0  0  0  0  0  0  0  0  0
   -1.7570   -3.2442    0.0759 N   0  0  0  0  0  0  0  0  0  0  0  0
   -0.4146   -3.1738    0.0656 C   0  0  0  0  0  0  0  0  0  0  0  0
    0.1538   -1.9294    0.0862 C   0  0  0  0  0  0  0  0  0  0  0  0
   -0.6348   -0.8072    0.1161 C   0  0  0  0  0  0  0  0  0  0  0  0
    0.1953    0.2788    0.1326 C   0  0  0  0  0  0  0  0  0  0  0  0
    1.4530   -0.1769    0.1129 N   0  0  0  0  0  0  0  0  0  0  0  0
    1.4110   -1.5123    0.0850 N   0  0  0  0  0  0  0  0  0  0  0  0
    2.6862    0.5337    0.1182 C   0  0  0  0  0  0  0  0  0  0  0  0
    2.8851    1.6943    0.8369 C   0  0  0  0  0  0  0  0  0  0  0  0
    4.1189    2.3228    0.7856 C   0  0  0  0  0  0  0  0  0  0  0  0
    5.1708    1.8255    0.0328 C   0  0  0  0  0  0  0  0  0  0  0  0
    4.9712    0.6706   -0.6818 C   0  0  0  0  0  0  0  0  0  0  0  0
    3.7439    0.0367   -0.6367 C   0  0  0  0  0  0  0  0  0  0  0  0
    0.4273   -4.4020    0.0331 C   0  0  0  0  0  0  0  0  0  0  0  0
   -5.3855    3.2031    0.3352 H   0  0  0  0  0  0  0  0  0  0  0  0
   -5.7221    1.2344    1.8152 H   0  0  0  0  0  0  0  0  0  0  0  0
   -4.1281   -0.6908    1.7082 H   0  0  0  0  0  0  0  0  0  0  0  0
   -1.9631    1.4030   -1.3296 H   0  0  0  0  0  0  0  0  0  0  0  0
   -0.0961    1.3067    0.1577 H   0  0  0  0  0  0  0  0  0  0  0  0
    2.0658    2.1021    1.4373 H   0  0  0  0  0  0  0  0  0  0  0  0
    4.3069    3.2474    1.3466 H   0  0  0  0  0  0  0  0  0  0  0  0
    6.1389    2.3001   -0.0202 H   0  0  0  0  0  0  0  0  0  0  0  0
    5.7388    0.2065   -1.3006 H   0  0  0  0  0  0  0  0  0  0  0  0
    3.5828   -0.8748   -1.1992 H   0  0  0  0  0  0  0  0  0  0  0  0
    1.4905   -4.1014    0.0784 H   0  0  0  0  0  0  0  0  0  0  0  0
    0.2191   -4.9701   -0.9094 H   0  0  0  0  0  0  0  0  0  0  0  0
    0.2157   -5.0593    0.9112 H   0  0  0  0  0  0  0  0  0  0  0  0
  1  2  1  0
  2  3  2  0
  3  4  1  0
  4  5  2  0
  5  6  1  0
  6  7  2  0
  6  8  1  0
  8  9  2  0
  9 10  1  0
 10 11  2  0
 11 12  1  0
 12 13  1  0
 13 14  2  0
 14 15  1  0
 15 16  1  0
 15 17  1  0
 17 18  2  0
 18 19  1  0
 19 20  2  0
 20 21  1  0
 21 22  2  0
 11 23  1  0
  7  2  1  0
 13  8  1  0
 22 17  1  0
 16 12  2  0
  3 24  1  0
  4 25  1  0
  5 26  1  0
  7 27  1  0
 14 28  1  0
 18 29  1  0
 19 30  1  0
 20 31  1  0
 21 32  1  0
 22 33  1  0
 23 34  1  0
 23 35  1  0
 23 36  1  0
M  END
>  <Ligand ID>  (1) 
LIG0003984

>  <Ligand>  (1) 
MLS-0108743.0001

>  <SMILES>  (1) 
Brc1cccc(c1)c1nnc(c2c1cn(n2)c1ccccc1)C

>  <CID>  (1) 
1214667.0

>  <ChEMBL ID>  (1) 
nan

>  <InChiKey>  (1) 
JLOBHBFPMZARDU-UHFFFAOYSA-N

>  <InChi>  (1) 
InChI=1S/C18H13BrN4/c1-12-17-16(11-23(22-17)15-8-3-2-4-9-15)18(21-20-12)13-6-5-7-14(19)10-13/h2-11H,1H3

>  <IUPAC Name>  (1) 
4-(3-bromophenyl)-7-methyl-2-phenylpyrazolo[3,4-d]pyridazine

$$$$
