
     RDKit          3D

 49 51  0  0  0  0  0  0  0  0999 V2000
   -5.6716    1.0916   -1.9973 C   0  0  0  0  0  0  0  0  0  0  0  0
   -5.0100    0.0089   -1.1660 C   0  0  2  0  0  0  0  0  0  0  0  0
   -5.8461   -0.1964    0.0685 C   0  0  0  0  0  0  0  0  0  0  0  0
   -5.0986    0.3623    1.2344 C   0  0  0  0  0  0  0  0  0  0  0  0
   -3.8602    0.9587    0.6105 C   0  0  0  0  0  0  0  0  0  0  0  0
   -3.7408    0.5334   -0.7169 N   0  0  0  0  0  0  0  0  0  0  0  0
   -2.6126   -0.0975   -1.2307 C   0  0  0  0  0  0  0  0  0  0  0  0
   -2.2689   -1.4865   -0.8177 C   0  0  0  0  0  0  0  0  0  0  0  0
   -1.9827   -1.6127    0.6479 C   0  0  0  0  0  0  0  0  0  0  0  0
   -0.9228   -0.8342    1.0301 O   0  0  0  0  0  0  0  0  0  0  0  0
    0.3939   -0.8059    0.7417 C   0  0  0  0  0  0  0  0  0  0  0  0
    1.1490    0.2121    1.3523 C   0  0  0  0  0  0  0  0  0  0  0  0
    2.4960    0.3498    1.1453 C   0  0  0  0  0  0  0  0  0  0  0  0
    3.1672   -0.5207    0.3168 C   0  0  0  0  0  0  0  0  0  0  0  0
    2.4689   -1.5287   -0.2992 C   0  0  0  0  0  0  0  0  0  0  0  0
    1.0988   -1.6520   -0.0751 C   0  0  0  0  0  0  0  0  0  0  0  0
    4.5988   -0.3127    0.1438 C   0  0  0  0  0  0  0  0  0  0  0  0
    5.3938   -1.1075   -0.6532 C   0  0  0  0  0  0  0  0  0  0  0  0
    6.7522   -0.8793   -0.7916 C   0  0  0  0  0  0  0  0  0  0  0  0
    7.2941    0.1754   -0.1032 C   0  0  0  0  0  0  0  0  0  0  0  0
    8.5280    0.4005   -0.2148 O   0  0  0  0  0  0  0  0  0  0  0  0
    6.5017    0.9485    0.6767 N   0  0  0  0  0  0  0  0  0  0  0  0
    5.1914    0.7012    0.7887 N   0  0  0  0  0  0  0  0  0  0  0  0
    7.1390    2.0508    1.3793 C   0  0  0  0  0  0  0  0  0  0  0  0
   -6.7719    0.9531   -2.0136 H   0  0  0  0  0  0  0  0  0  0  0  0
   -5.4588    2.0978   -1.5821 H   0  0  0  0  0  0  0  0  0  0  0  0
   -5.3118    1.0380   -3.0598 H   0  0  0  0  0  0  0  0  0  0  0  0
   -4.8992   -0.9205   -1.7542 H   0  0  0  0  0  0  0  0  0  0  0  0
   -6.0809   -1.2861    0.2353 H   0  0  0  0  0  0  0  0  0  0  0  0
   -6.8606    0.2748   -0.0275 H   0  0  0  0  0  0  0  0  0  0  0  0
   -4.8720   -0.3879    2.0169 H   0  0  0  0  0  0  0  0  0  0  0  0
   -5.7290    1.1549    1.7134 H   0  0  0  0  0  0  0  0  0  0  0  0
   -4.1026    2.0838    0.5547 H   0  0  0  0  0  0  0  0  0  0  0  0
   -2.9576    0.8875    1.2411 H   0  0  0  0  0  0  0  0  0  0  0  0
   -2.6336   -0.0516   -2.3637 H   0  0  0  0  0  0  0  0  0  0  0  0
   -1.7211    0.5820   -1.0039 H   0  0  0  0  0  0  0  0  0  0  0  0
   -1.3905   -1.8263   -1.3941 H   0  0  0  0  0  0  0  0  0  0  0  0
   -3.0913   -2.2118   -1.0869 H   0  0  0  0  0  0  0  0  0  0  0  0
   -1.6986   -2.6998    0.8846 H   0  0  0  0  0  0  0  0  0  0  0  0
   -2.8810   -1.4660    1.2908 H   0  0  0  0  0  0  0  0  0  0  0  0
    0.6542    0.9289    2.0218 H   0  0  0  0  0  0  0  0  0  0  0  0
    3.0091    1.1654    1.6565 H   0  0  0  0  0  0  0  0  0  0  0  0
    2.9719   -2.2213   -0.9516 H   0  0  0  0  0  0  0  0  0  0  0  0
    0.6188   -2.4659   -0.5694 H   0  0  0  0  0  0  0  0  0  0  0  0
    4.9642   -1.9379   -1.1925 H   0  0  0  0  0  0  0  0  0  0  0  0
    7.3621   -1.5210   -1.4297 H   0  0  0  0  0  0  0  0  0  0  0  0
    7.7377    1.6888    2.2258 H   0  0  0  0  0  0  0  0  0  0  0  0
    6.3026    2.6629    1.8179 H   0  0  0  0  0  0  0  0  0  0  0  0
    7.6816    2.7283    0.7002 H   0  0  0  0  0  0  0  0  0  0  0  0
  1  2  1  0
  2  3  1  0
  3  4  1  0
  4  5  1  0
  5  6  1  0
  6  7  1  0
  7  8  1  0
  8  9  1  0
  9 10  1  0
 10 11  1  0
 11 12  2  0
 12 13  1  0
 13 14  2  0
 14 15  1  0
 15 16  2  0
 14 17  1  0
 17 18  1  0
 18 19  2  0
 19 20  1  0
 20 21  2  0
 20 22  1  0
 22 23  1  0
 22 24  1  0
  6  2  1  0
 16 11  1  0
 23 17  2  0
  1 25  1  0
  1 26  1  0
  1 27  1  0
  2 28  1  6
  3 29  1  0
  3 30  1  0
  4 31  1  0
  4 32  1  0
  5 33  1  0
  5 34  1  0
  7 35  1  0
  7 36  1  0
  8 37  1  0
  8 38  1  0
  9 39  1  0
  9 40  1  0
 12 41  1  0
 13 42  1  0
 15 43  1  0
 16 44  1  0
 18 45  1  0
 19 46  1  0
 24 47  1  0
 24 48  1  0
 24 49  1  0
M  END
>  <Ligand ID>  (1) 
LIG0005250

>  <Ligand>  (1) 
CHEMBL1813057

>  <SMILES>  (1) 
C[C@@H]1CCCN1CCCOc1ccc(cc1)c1ccc(=O)n(n1)C

>  <CID>  (1) 
23725172.0

>  <ChEMBL ID>  (1) 
nan

>  <InChiKey>  (1) 
LWTPHINMYBPWKW-OAHLLOKOSA-N

>  <InChi>  (1) 
InChI=1S/C19H25N3O2/c1-15-5-3-12-22(15)13-4-14-24-17-8-6-16(7-9-17)18-10-11-19(23)21(2)20-18/h6-11,15H,3-5,12-14H2,1-2H3/t15-/m1/s1

>  <IUPAC Name>  (1) 
2-methyl-6-[4-[3-[(2R)-2-methylpyrrolidin-1-yl]propoxy]phenyl]pyridazin-3-one

$$$$
