
     RDKit          3D

141143  0  0  0  0  0  0  0  0999 V2000
    9.4485    0.7008    2.4582 C   0  0  0  0  0  0  0  0  0  0  0  0
    8.7533   -0.2905    1.5284 C   0  0  0  0  0  0  0  0  0  0  0  0
    7.5482    0.3879    0.8639 C   0  0  1  0  0  0  0  0  0  0  0  0
    6.9417   -0.6811   -0.0642 C   0  0  2  0  0  0  0  0  0  0  0  0
    5.8025   -0.1336   -0.7752 N   0  0  0  0  0  0  0  0  0  0  0  0
    5.3835    1.1895   -0.9179 C   0  0  0  0  0  0  0  0  0  0  0  0
    6.0317    2.0826   -0.3991 O   0  0  0  0  0  0  0  0  0  0  0  0
    4.1105    1.4080   -1.7150 C   0  0  1  0  0  0  0  0  0  0  0  0
    3.3706    2.5254   -1.1718 N   0  0  0  0  0  0  0  0  0  0  0  0
    2.2033    2.1908   -0.4032 C   0  0  0  0  0  0  0  0  0  0  0  0
    1.9540    0.9858   -0.2863 O   0  0  0  0  0  0  0  0  0  0  0  0
    1.3080    3.1567    0.2361 C   0  0  0  0  0  0  0  0  0  0  0  0
    0.1403    2.4779    0.9298 C   0  0  0  0  0  0  0  0  0  0  0  0
   -0.8027    1.4484   -0.2233 S   0  0  0  0  0  0  0  0  0  0  0  0
   -2.3656    0.8923    0.3698 C   0  0  0  0  0  0  0  0  0  0  0  0
   -2.4840   -0.1441    1.4118 C   0  0  0  0  0  0  0  0  0  0  0  0
   -2.1797   -1.5374    1.0910 C   0  0  2  0  0  0  0  0  0  0  0  0
   -0.7504   -1.9015    1.0076 N   0  0  0  0  0  0  0  0  0  0  0  0
   -0.5038   -3.2928    0.8470 C   0  0  0  0  0  0  0  0  0  0  0  0
   -1.5891   -3.9472    0.6052 O   0  0  0  0  0  0  0  0  0  0  0  0
    0.7069   -4.0691    0.8875 C   0  0  1  0  0  0  0  0  0  0  0  0
    1.8126   -3.5934    1.6930 N   0  0  0  0  0  0  0  0  0  0  0  0
    3.0019   -3.0183    1.2575 C   0  0  0  0  0  0  0  0  0  0  0  0
    3.0000   -2.8320   -0.0323 O   0  0  0  0  0  0  0  0  0  0  0  0
    4.2105   -2.5831    1.9306 C   0  0  1  0  0  0  0  0  0  0  0  0
    4.9811   -1.6702    1.0592 N   0  0  0  0  0  0  0  0  0  0  0  0
    6.3810   -1.7378    0.8201 C   0  0  0  0  0  0  0  0  0  0  0  0
    6.9737   -2.6549    1.3760 O   0  0  0  0  0  0  0  0  0  0  0  0
    4.2135   -2.1117    3.3231 C   0  0  0  0  0  0  0  0  0  0  0  0
    3.8029   -3.1136    4.3331 C   0  0  0  0  0  0  0  0  0  0  0  0
    4.6376   -4.3450    4.3729 C   0  0  0  0  0  0  0  0  0  0  0  0
    5.7137   -4.5021    3.7741 O   0  0  0  0  0  0  0  0  0  0  0  0
    4.1749   -5.4508    5.1665 N   0  0  0  0  0  0  0  0  0  0  0  0
    0.3858   -5.5213    1.2085 C   0  0  0  0  0  0  0  0  0  0  0  0
    1.6276   -6.3525    1.2562 C   0  0  0  0  0  0  0  0  0  0  0  0
    2.7600   -5.8552    0.9868 O   0  0  0  0  0  0  0  0  0  0  0  0
    1.5132   -7.7120    1.6106 N   0  0  0  0  0  0  0  0  0  0  0  0
   -2.7908   -1.8845   -0.2569 C   0  0  0  0  0  0  0  0  0  0  0  0
   -1.9205   -2.0475   -1.1661 O   0  0  0  0  0  0  0  0  0  0  0  0
   -4.1880   -2.0301   -0.4887 N   0  0  0  0  0  0  0  0  0  0  0  0
   -4.5701   -2.4173   -1.8332 C   0  0  0  0  0  0  0  0  0  0  0  0
   -4.7351   -1.3739   -2.8412 C   0  0  0  0  0  0  0  0  0  0  0  0
   -3.6843   -0.9678   -3.6822 C   0  0  0  0  0  0  0  0  0  0  0  0
   -3.8515   -0.0058   -4.6528 C   0  0  0  0  0  0  0  0  0  0  0  0
   -5.0680    0.6067   -4.8433 C   0  0  0  0  0  0  0  0  0  0  0  0
   -6.1074    0.2396   -4.0475 C   0  0  0  0  0  0  0  0  0  0  0  0
   -5.9391   -0.7086   -3.0929 C   0  0  0  0  0  0  0  0  0  0  0  0
   -5.1382    1.5390   -5.8299 F   0  0  0  0  0  0  0  0  0  0  0  0
   -5.1233   -1.8843    0.5617 C   0  0  0  0  0  0  0  0  0  0  0  0
   -5.8215   -0.6555    0.8654 C   0  0  0  0  0  0  0  0  0  0  0  0
   -6.5662   -0.6918    1.9371 O   0  0  0  0  0  0  0  0  0  0  0  0
   -5.8345    0.5744    0.1992 N   0  0  0  0  0  0  0  0  0  0  0  0
   -6.5870    1.7525    0.6884 C   0  0  2  0  0  0  0  0  0  0  0  0
   -7.9983    1.5223    0.3519 C   0  0  0  0  0  0  0  0  0  0  0  0
   -8.9433    2.3223    0.5676 O   0  0  0  0  0  0  0  0  0  0  0  0
   -8.4397    0.2886   -0.2813 N   0  0  0  0  0  0  0  0  0  0  0  0
   -9.8368    0.1255   -0.5787 C   0  0  0  0  0  0  0  0  0  0  0  0
  -10.3100    1.1477   -1.5067 C   0  0  0  0  0  0  0  0  0  0  0  0
  -11.5333    1.1451   -1.8582 O   0  0  0  0  0  0  0  0  0  0  0  0
   -9.5092    2.1782   -2.0742 N   0  0  0  0  0  0  0  0  0  0  0  0
   -6.0302    3.0006    0.1898 C   0  0  0  0  0  0  0  0  0  0  0  0
   -6.6648    4.2518    0.6242 C   0  0  0  0  0  0  0  0  0  0  0  0
   -6.7271    4.4731    2.1231 C   0  0  0  0  0  0  0  0  0  0  0  0
   -7.8757    4.7704   -0.0320 C   0  0  0  0  0  0  0  0  0  0  0  0
    4.3923    1.5171   -3.1855 C   0  0  0  0  0  0  0  0  0  0  0  0
    5.2843    2.6129   -3.5760 C   0  0  0  0  0  0  0  0  0  0  0  0
    4.8316    3.8932   -3.8841 C   0  0  0  0  0  0  0  0  0  0  0  0
    5.7153    4.8882   -4.2572 C   0  0  0  0  0  0  0  0  0  0  0  0
    7.0768    4.6055   -4.3258 C   0  0  0  0  0  0  0  0  0  0  0  0
    7.5590    3.3394   -4.0247 C   0  0  0  0  0  0  0  0  0  0  0  0
    6.6436    2.3793   -3.6577 C   0  0  0  0  0  0  0  0  0  0  0  0
    8.0115    5.5742   -4.6966 O   0  0  0  0  0  0  0  0  0  0  0  0
    6.6635    0.8142    1.9712 C   0  0  0  0  0  0  0  0  0  0  0  0
   10.4596    0.2810    2.6331 H   0  0  0  0  0  0  0  0  0  0  0  0
    8.8902    0.6745    3.4172 H   0  0  0  0  0  0  0  0  0  0  0  0
    9.5105    1.6935    1.9945 H   0  0  0  0  0  0  0  0  0  0  0  0
    9.4135   -0.6492    0.7145 H   0  0  0  0  0  0  0  0  0  0  0  0
    8.3880   -1.1532    2.0889 H   0  0  0  0  0  0  0  0  0  0  0  0
    8.0170    1.1937    0.2672 H   0  0  0  0  0  0  0  0  0  0  0  0
    7.7896   -0.9736   -0.6528 H   0  0  0  0  0  0  0  0  0  0  0  0
    5.2111   -0.8478   -1.2565 H   0  0  0  0  0  0  0  0  0  0  0  0
    3.5134    0.4876   -1.5874 H   0  0  0  0  0  0  0  0  0  0  0  0
    3.5646    3.5102   -1.2632 H   0  0  0  0  0  0  0  0  0  0  0  0
    0.8880    3.8180   -0.5758 H   0  0  0  0  0  0  0  0  0  0  0  0
    1.8208    3.8343    0.9440 H   0  0  0  0  0  0  0  0  0  0  0  0
    0.4781    1.9536    1.8338 H   0  0  0  0  0  0  0  0  0  0  0  0
   -0.5592    3.2845    1.2542 H   0  0  0  0  0  0  0  0  0  0  0  0
   -2.9541    1.8320    0.6767 H   0  0  0  0  0  0  0  0  0  0  0  0
   -2.9592    0.5906   -0.5616 H   0  0  0  0  0  0  0  0  0  0  0  0
   -3.4321   -0.0539    1.9604 H   0  0  0  0  0  0  0  0  0  0  0  0
   -1.6496    0.1533    2.1791 H   0  0  0  0  0  0  0  0  0  0  0  0
   -2.6184   -2.2463    1.8150 H   0  0  0  0  0  0  0  0  0  0  0  0
    0.0313   -1.2856    1.0483 H   0  0  0  0  0  0  0  0  0  0  0  0
    1.1129   -4.0800   -0.1621 H   0  0  0  0  0  0  0  0  0  0  0  0
    1.6814   -3.6973    2.7070 H   0  0  0  0  0  0  0  0  0  0  0  0
    4.9296   -3.4949    1.9441 H   0  0  0  0  0  0  0  0  0  0  0  0
    4.4536   -0.9434    0.5976 H   0  0  0  0  0  0  0  0  0  0  0  0
    3.5939   -1.1666    3.4018 H   0  0  0  0  0  0  0  0  0  0  0  0
    5.2877   -1.8484    3.5670 H   0  0  0  0  0  0  0  0  0  0  0  0
    2.7379   -3.2892    4.5056 H   0  0  0  0  0  0  0  0  0  0  0  0
    4.0895   -2.5991    5.3598 H   0  0  0  0  0  0  0  0  0  0  0  0
    3.2503   -5.4358    5.6429 H   0  0  0  0  0  0  0  0  0  0  0  0
    4.7448   -6.3132    5.2957 H   0  0  0  0  0  0  0  0  0  0  0  0
   -0.1035   -5.5628    2.2065 H   0  0  0  0  0  0  0  0  0  0  0  0
   -0.3233   -5.9460    0.4755 H   0  0  0  0  0  0  0  0  0  0  0  0
    2.3630   -8.2986    1.7024 H   0  0  0  0  0  0  0  0  0  0  0  0
    0.6029   -8.1629    1.7859 H   0  0  0  0  0  0  0  0  0  0  0  0
   -3.7887   -3.1267   -2.2643 H   0  0  0  0  0  0  0  0  0  0  0  0
   -5.4735   -3.1079   -1.7914 H   0  0  0  0  0  0  0  0  0  0  0  0
   -2.6983   -1.4033   -3.6100 H   0  0  0  0  0  0  0  0  0  0  0  0
   -3.0085    0.2736   -5.2832 H   0  0  0  0  0  0  0  0  0  0  0  0
   -7.0813    0.7262   -4.1968 H   0  0  0  0  0  0  0  0  0  0  0  0
   -6.7901   -0.9804   -2.4935 H   0  0  0  0  0  0  0  0  0  0  0  0
   -4.6198   -2.2345    1.5167 H   0  0  0  0  0  0  0  0  0  0  0  0
   -5.9177   -2.7151    0.4346 H   0  0  0  0  0  0  0  0  0  0  0  0
   -5.2909    0.6695   -0.6800 H   0  0  0  0  0  0  0  0  0  0  0  0
   -6.5641    1.6122    1.8165 H   0  0  0  0  0  0  0  0  0  0  0  0
   -7.7944   -0.4646   -0.5091 H   0  0  0  0  0  0  0  0  0  0  0  0
  -10.0321   -0.8776   -1.0310 H   0  0  0  0  0  0  0  0  0  0  0  0
  -10.4668    0.2151    0.3466 H   0  0  0  0  0  0  0  0  0  0  0  0
   -9.9312    3.1125   -2.2541 H   0  0  0  0  0  0  0  0  0  0  0  0
   -8.5167    1.9769   -2.2968 H   0  0  0  0  0  0  0  0  0  0  0  0
   -4.9201    3.0997    0.3481 H   0  0  0  0  0  0  0  0  0  0  0  0
   -6.0878    3.0176   -0.9564 H   0  0  0  0  0  0  0  0  0  0  0  0
   -5.8483    5.0705    0.3409 H   0  0  0  0  0  0  0  0  0  0  0  0
   -7.2717    3.6643    2.6414 H   0  0  0  0  0  0  0  0  0  0  0  0
   -5.7538    4.6931    2.5605 H   0  0  0  0  0  0  0  0  0  0  0  0
   -7.3785    5.3817    2.2475 H   0  0  0  0  0  0  0  0  0  0  0  0
   -8.1374    4.3085   -1.0076 H   0  0  0  0  0  0  0  0  0  0  0  0
   -7.6615    5.8568   -0.3508 H   0  0  0  0  0  0  0  0  0  0  0  0
   -8.7618    4.9317    0.6372 H   0  0  0  0  0  0  0  0  0  0  0  0
    4.8857    0.5462   -3.4663 H   0  0  0  0  0  0  0  0  0  0  0  0
    3.4302    1.6233   -3.6914 H   0  0  0  0  0  0  0  0  0  0  0  0
    3.7856    4.0562   -3.8160 H   0  0  0  0  0  0  0  0  0  0  0  0
    5.3812    5.8882   -4.5018 H   0  0  0  0  0  0  0  0  0  0  0  0
    8.6339    3.1508   -4.0895 H   0  0  0  0  0  0  0  0  0  0  0  0
    7.0380    1.3994   -3.4257 H   0  0  0  0  0  0  0  0  0  0  0  0
    8.4242    6.1886   -3.9912 H   0  0  0  0  0  0  0  0  0  0  0  0
    5.5996    0.6571    1.8805 H   0  0  0  0  0  0  0  0  0  0  0  0
    6.9458    0.3308    2.9603 H   0  0  0  0  0  0  0  0  0  0  0  0
    6.8452    1.9111    2.1942 H   0  0  0  0  0  0  0  0  0  0  0  0
  1  2  1  0
  2  3  1  0
  3  4  1  0
  4  5  1  0
  5  6  1  0
  6  7  2  0
  6  8  1  0
  8  9  1  0
  9 10  1  0
 10 11  2  0
 10 12  1  0
 12 13  1  0
 13 14  1  0
 14 15  1  0
 15 16  1  0
 16 17  1  0
 17 18  1  0
 18 19  1  0
 19 20  2  0
 19 21  1  0
 21 22  1  0
 22 23  1  0
 23 24  2  0
 23 25  1  0
 25 26  1  0
 26 27  1  0
 27 28  2  0
 25 29  1  0
 29 30  1  0
 30 31  1  0
 31 32  2  0
 31 33  1  0
 21 34  1  0
 34 35  1  0
 35 36  2  0
 35 37  1  0
 17 38  1  0
 38 39  2  0
 38 40  1  0
 40 41  1  0
 41 42  1  0
 42 43  2  0
 43 44  1  0
 44 45  2  0
 45 46  1  0
 46 47  2  0
 45 48  1  0
 40 49  1  0
 49 50  1  0
 50 51  2  0
 50 52  1  0
 52 53  1  0
 53 54  1  0
 54 55  2  0
 54 56  1  0
 56 57  1  0
 57 58  1  0
 58 59  2  0
 58 60  1  0
 53 61  1  0
 61 62  1  0
 62 63  1  0
 62 64  1  0
  8 65  1  0
 65 66  1  0
 66 67  2  0
 67 68  1  0
 68 69  2  0
 69 70  1  0
 70 71  2  0
 69 72  1  0
  3 73  1  0
 27  4  1  0
 47 42  1  0
 71 66  1  0
  1 74  1  0
  1 75  1  0
  1 76  1  0
  2 77  1  0
  2 78  1  0
  3 79  1  6
  4 80  1  6
  5 81  1  0
  8 82  1  6
  9 83  1  0
 12 84  1  0
 12 85  1  0
 13 86  1  0
 13 87  1  0
 15 88  1  0
 15 89  1  0
 16 90  1  0
 16 91  1  0
 17 92  1  1
 18 93  1  0
 21 94  1  6
 22 95  1  0
 25 96  1  1
 26 97  1  0
 29 98  1  0
 29 99  1  0
 30100  1  0
 30101  1  0
 33102  1  0
 33103  1  0
 34104  1  0
 34105  1  0
 37106  1  0
 37107  1  0
 41108  1  0
 41109  1  0
 43110  1  0
 44111  1  0
 46112  1  0
 47113  1  0
 49114  1  0
 49115  1  0
 52116  1  0
 53117  1  1
 56118  1  0
 57119  1  0
 57120  1  0
 60121  1  0
 60122  1  0
 61123  1  0
 61124  1  0
 62125  1  0
 63126  1  0
 63127  1  0
 63128  1  0
 64129  1  0
 64130  1  0
 64131  1  0
 65132  1  0
 65133  1  0
 67134  1  0
 68135  1  0
 70136  1  0
 71137  1  0
 72138  1  0
 73139  1  0
 73140  1  0
 73141  1  0
M  END
>  <Ligand ID>  (1) 
LIG0001554

>  <Ligand>  (1) 
CHEMBL3354595

>  <SMILES>  (1) 
CC[C@@H]([C@@H]1NC(=O)[C@@H](NC(=O)CCSCC[C@H](NC(=O)[C@@H](NC(=O)[C@@H](NC1=O)CCC(=O)N)CC(=O)N)C(=O)N(Cc1ccc(cc1)F)CC(=O)N[C@H](C(=O)NCC(=O)N)CC(C)C)Cc1ccc(cc1)O)C

>  <CID>  (1) 
118720284.0

>  <ChEMBL ID>  (1) 
nan

>  <InChiKey>  (1) 
RHAXUNULWVZJGM-NIFJBHDKSA-N

>  <InChi>  (1) 
InChI=1S/C48H68FN11O12S/c1-5-27(4)42-47(71)56-32(14-15-37(50)62)44(68)58-36(22-38(51)63)45(69)57-33(16-18-73-19-17-40(65)54-35(46(70)59-42)21-28-8-12-31(61)13-9-28)48(72)60(24-29-6-10-30(49)11-7-29)25-41(66)55-34(20-26(2)3)43(67)53-23-39(52)64/h6-13,26-27,32-36,42,61H,5,14-25H2,1-4H3,(H2,50,62)(H2,51,63)(H2,52,64)(H,53,67)(H,54,65)(H,55,66)(H,56,71)(H,57,69)(H,58,68)(H,59,70)/t27-,32-,33-,34-,35-,36-,42-/m0/s1

>  <IUPAC Name>  (1) 
(4S,7S,10S,13S,16S)-7-(2-amino-2-oxoethyl)-N-[2-[[(2S)-1-[(2-amino-2-oxoethyl)amino]-4-methyl-1-oxopentan-2-yl]amino]-2-oxoethyl]-10-(3-amino-3-oxopropyl)-13-[(2S)-butan-2-yl]-N-[(4-fluorophenyl)methyl]-16-[(4-hydroxyphenyl)methyl]-6,9,12,15,18-pentaoxo-1-thia-5,8,11,14,17-pentazacycloicosane-4-carboxamide

$$$$
