
     RDKit          3D

 14 13  0  0  0  0  0  0  0  0999 V2000
   -2.8374   -0.9591   -1.5959 Br  0  0  0  0  0  0  0  0  0  0  0  0
   -1.5008    0.1115   -0.6556 C   0  0  0  0  0  0  0  0  0  0  0  0
   -0.6378   -0.7399    0.2276 C   0  0  0  0  0  0  0  0  0  0  0  0
    0.4146   -0.0005    0.9843 C   0  0  0  0  0  0  0  0  0  0  0  0
    1.3842    0.7147    0.1579 C   0  0  0  0  0  0  0  0  0  0  0  0
    1.1557    1.8502   -0.3798 O   0  0  0  0  0  0  0  0  0  0  0  0
    2.6663    0.1972   -0.1130 O   0  0  0  0  0  0  0  0  0  0  0  0
   -2.0728    0.8638   -0.0874 H   0  0  0  0  0  0  0  0  0  0  0  0
   -0.9018    0.6236   -1.4405 H   0  0  0  0  0  0  0  0  0  0  0  0
   -0.2458   -1.6075   -0.3454 H   0  0  0  0  0  0  0  0  0  0  0  0
   -1.3081   -1.1975    0.9914 H   0  0  0  0  0  0  0  0  0  0  0  0
    0.9457   -0.7600    1.6012 H   0  0  0  0  0  0  0  0  0  0  0  0
   -0.1224    0.6596    1.7148 H   0  0  0  0  0  0  0  0  0  0  0  0
    3.0604    0.2440   -1.0595 H   0  0  0  0  0  0  0  0  0  0  0  0
  1  2  1  0
  2  3  1  0
  3  4  1  0
  4  5  1  0
  5  6  2  0
  5  7  1  0
  2  8  1  0
  2  9  1  0
  3 10  1  0
  3 11  1  0
  4 12  1  0
  4 13  1  0
  7 14  1  0
M  END
>  <Ligand ID>  (1) 
LIG0000281

>  <Ligand>  (1) 
4-Bromobutyric acid

>  <SMILES>  (1) 
BrCCCC(=O)O

>  <CID>  (1) 
75809.0

>  <ChEMBL ID>  (1) 
nan

>  <InChiKey>  (1) 
GRHQDJDRGZFIPO-UHFFFAOYSA-N

>  <InChi>  (1) 
InChI=1S/C4H7BrO2/c5-3-1-2-4(6)7/h1-3H2,(H,6,7)

>  <IUPAC Name>  (1) 
4-bromobutanoic acid

$$$$
