
     RDKit          3D

 59 60  0  0  0  0  0  0  0  0999 V2000
    0.4696   -2.9284   -0.4924 O   0  0  0  0  0  0  0  0  0  0  0  0
    0.4350   -2.2928    0.7278 C   0  0  0  0  0  0  0  0  0  0  0  0
   -0.2095   -0.9164    0.6455 C   0  0  0  0  0  0  0  0  0  0  0  0
   -1.5041   -0.9709    0.2031 O   0  0  0  0  0  0  0  0  0  0  0  0
   -2.1102    0.2891    0.1214 C   0  0  0  0  0  0  0  0  0  0  0  0
   -2.3714    0.7236   -1.2759 C   0  0  0  0  0  0  0  0  0  0  0  0
   -2.8905    2.1208   -1.2868 C   0  0  0  0  0  0  0  0  0  0  0  0
   -2.0928    3.0084   -2.2247 C   0  0  0  0  0  0  0  0  0  0  0  0
   -2.9020    2.7734    0.0503 C   0  0  0  0  0  0  0  0  0  0  0  0
   -3.5553    1.9663    1.1257 C   0  0  0  0  0  0  0  0  0  0  0  0
   -3.1771    0.5012    1.1233 C   0  0  0  0  0  0  0  0  0  0  0  0
   -4.3526   -0.4044    1.0963 C   0  0  0  0  0  0  0  0  0  0  0  0
   -4.0944   -1.8499    1.2879 C   0  0  0  0  0  0  0  0  0  0  0  0
   -5.2465   -0.2427   -0.1173 C   0  0  0  0  0  0  0  0  0  0  0  0
    1.8566   -2.1460    1.2846 C   0  0  0  0  0  0  0  0  0  0  0  0
    2.6615   -1.3757    0.3855 N   0  0  0  0  0  0  0  0  0  0  0  0
    4.0258   -1.1696    0.8529 C   0  0  0  0  0  0  0  0  0  0  0  0
    4.7191   -0.2399   -0.0462 C   0  0  0  0  0  0  0  0  0  0  0  0
    5.9863   -0.4073   -0.5458 C   0  0  0  0  0  0  0  0  0  0  0  0
    6.5672    0.5066   -1.3808 C   0  0  0  0  0  0  0  0  0  0  0  0
    5.9026    1.6488   -1.7639 C   0  0  0  0  0  0  0  0  0  0  0  0
    4.6273    1.8261   -1.2665 C   0  0  0  0  0  0  0  0  0  0  0  0
    4.0439    0.9079   -0.4277 C   0  0  0  0  0  0  0  0  0  0  0  0
    4.6870   -2.5069    1.0155 C   0  0  0  0  0  0  0  0  0  0  0  0
    0.7084   -2.3347   -1.2399 H   0  0  0  0  0  0  0  0  0  0  0  0
   -0.1169   -2.9189    1.4571 H   0  0  0  0  0  0  0  0  0  0  0  0
   -0.2132   -0.4857    1.6673 H   0  0  0  0  0  0  0  0  0  0  0  0
    0.3747   -0.2400    0.0123 H   0  0  0  0  0  0  0  0  0  0  0  0
   -1.2752    0.9756    0.4681 H   0  0  0  0  0  0  0  0  0  0  0  0
   -2.9434    0.0248   -1.9098 H   0  0  0  0  0  0  0  0  0  0  0  0
   -1.3560    0.7512   -1.7759 H   0  0  0  0  0  0  0  0  0  0  0  0
   -3.9297    2.1124   -1.7226 H   0  0  0  0  0  0  0  0  0  0  0  0
   -2.5049    2.9664   -3.2529 H   0  0  0  0  0  0  0  0  0  0  0  0
   -1.0464    2.6337   -2.2649 H   0  0  0  0  0  0  0  0  0  0  0  0
   -2.0618    4.0630   -1.9175 H   0  0  0  0  0  0  0  0  0  0  0  0
   -1.8920    3.1372    0.3324 H   0  0  0  0  0  0  0  0  0  0  0  0
   -3.5113    3.7131   -0.0540 H   0  0  0  0  0  0  0  0  0  0  0  0
   -3.2758    2.4901    2.0856 H   0  0  0  0  0  0  0  0  0  0  0  0
   -4.6775    2.0923    1.1130 H   0  0  0  0  0  0  0  0  0  0  0  0
   -2.6630    0.3235    2.1155 H   0  0  0  0  0  0  0  0  0  0  0  0
   -5.0265   -0.1066    1.9541 H   0  0  0  0  0  0  0  0  0  0  0  0
   -4.9511   -2.3559    1.8044 H   0  0  0  0  0  0  0  0  0  0  0  0
   -3.2091   -2.1253    1.8808 H   0  0  0  0  0  0  0  0  0  0  0  0
   -4.0975   -2.3664    0.2846 H   0  0  0  0  0  0  0  0  0  0  0  0
   -4.9582   -0.8754   -0.9753 H   0  0  0  0  0  0  0  0  0  0  0  0
   -5.4293    0.8233   -0.3654 H   0  0  0  0  0  0  0  0  0  0  0  0
   -6.2758   -0.6218    0.1574 H   0  0  0  0  0  0  0  0  0  0  0  0
    2.3249   -3.1519    1.3962 H   0  0  0  0  0  0  0  0  0  0  0  0
    1.7717   -1.6107    2.2496 H   0  0  0  0  0  0  0  0  0  0  0  0
    2.6954   -1.7330   -0.5742 H   0  0  0  0  0  0  0  0  0  0  0  0
    3.9171   -0.7287    1.8864 H   0  0  0  0  0  0  0  0  0  0  0  0
    6.5570   -1.2835   -0.2823 H   0  0  0  0  0  0  0  0  0  0  0  0
    7.5695    0.3305   -1.7492 H   0  0  0  0  0  0  0  0  0  0  0  0
    6.2931    2.4009   -2.4097 H   0  0  0  0  0  0  0  0  0  0  0  0
    4.0687    2.7061   -1.5395 H   0  0  0  0  0  0  0  0  0  0  0  0
    3.0424    1.1025   -0.0709 H   0  0  0  0  0  0  0  0  0  0  0  0
    4.5838   -3.1636    0.1510 H   0  0  0  0  0  0  0  0  0  0  0  0
    5.7745   -2.3753    1.2120 H   0  0  0  0  0  0  0  0  0  0  0  0
    4.2580   -2.9910    1.9331 H   0  0  0  0  0  0  0  0  0  0  0  0
  1  2  1  0
  2  3  1  0
  3  4  1  0
  4  5  1  0
  5  6  1  0
  6  7  1  0
  7  8  1  0
  7  9  1  0
  9 10  1  0
 10 11  1  0
 11 12  1  0
 12 13  1  0
 12 14  1  0
  2 15  1  0
 15 16  1  0
 16 17  1  0
 17 18  1  0
 18 19  2  0
 19 20  1  0
 20 21  2  0
 21 22  1  0
 22 23  2  0
 17 24  1  0
 11  5  1  0
 23 18  1  0
  1 25  1  0
  2 26  1  0
  3 27  1  0
  3 28  1  0
  5 29  1  0
  6 30  1  0
  6 31  1  0
  7 32  1  0
  8 33  1  0
  8 34  1  0
  8 35  1  0
  9 36  1  0
  9 37  1  0
 10 38  1  0
 10 39  1  0
 11 40  1  0
 12 41  1  0
 13 42  1  0
 13 43  1  0
 13 44  1  0
 14 45  1  0
 14 46  1  0
 14 47  1  0
 15 48  1  0
 15 49  1  0
 16 50  1  0
 17 51  1  0
 19 52  1  0
 20 53  1  0
 21 54  1  0
 22 55  1  0
 23 56  1  0
 24 57  1  0
 24 58  1  0
 24 59  1  0
M  END
>  <Ligand ID>  (1) 
LIG0004001

>  <Ligand>  (1) 
MLS000516282

>  <SMILES>  (1) 
OC(COC1CC(C)CCC1C(C)C)CNC(c1ccccc1)C

>  <CID>  (1) 
3314979.0

>  <ChEMBL ID>  (1) 
nan

>  <InChiKey>  (1) 
JTFAPYUEBOLXAA-UHFFFAOYSA-N

>  <InChi>  (1) 
InChI=1S/C21H35NO2/c1-15(2)20-11-10-16(3)12-21(20)24-14-19(23)13-22-17(4)18-8-6-5-7-9-18/h5-9,15-17,19-23H,10-14H2,1-4H3

>  <IUPAC Name>  (1) 
1-(5-methyl-2-propan-2-ylcyclohexyl)oxy-3-(1-phenylethylamino)propan-2-ol

$$$$
