
     RDKit          3D

 45 48  0  0  0  0  0  0  0  0999 V2000
   -9.2659    1.2495    0.9816 O   0  0  0  0  0  0  0  0  0  0  0  0
   -8.4362    0.2435    0.4808 C   0  0  0  0  0  0  0  0  0  0  0  0
   -8.8979   -0.5914   -0.3343 O   0  0  0  0  0  0  0  0  0  0  0  0
   -7.0143    0.1041    0.8600 C   0  0  0  0  0  0  0  0  0  0  0  0
   -6.1940    0.1330   -0.3956 C   0  0  0  0  0  0  0  0  0  0  0  0
   -4.7416   -0.0094   -0.1159 C   0  0  0  0  0  0  0  0  0  0  0  0
   -3.8022    0.0027   -1.1567 C   0  0  0  0  0  0  0  0  0  0  0  0
   -2.5652   -0.1480   -0.5483 C   0  0  0  0  0  0  0  0  0  0  0  0
   -2.8158   -0.2455    0.8250 C   0  0  0  0  0  0  0  0  0  0  0  0
   -4.1171   -0.1585    1.0343 O   0  0  0  0  0  0  0  0  0  0  0  0
   -1.7525   -0.4081    1.7128 C   0  0  0  0  0  0  0  0  0  0  0  0
   -0.4811   -0.4665    1.1741 C   0  0  0  0  0  0  0  0  0  0  0  0
   -0.2215   -0.3733   -0.1662 C   0  0  0  0  0  0  0  0  0  0  0  0
   -1.2776   -0.2111   -1.0499 C   0  0  0  0  0  0  0  0  0  0  0  0
    1.1603   -0.4593   -0.6892 C   0  0  0  0  0  0  0  0  0  0  0  0
    1.3622   -0.9941   -1.9611 C   0  0  0  0  0  0  0  0  0  0  0  0
    2.6084   -1.1135   -2.4937 C   0  0  0  0  0  0  0  0  0  0  0  0
    2.8097   -1.7907   -4.0986 Cl  0  0  0  0  0  0  0  0  0  0  0  0
    3.6792   -0.6858   -1.7357 C   0  0  0  0  0  0  0  0  0  0  0  0
    3.5522   -0.1477   -0.4752 C   0  0  0  0  0  0  0  0  0  0  0  0
    2.2516   -0.0468    0.0263 C   0  0  0  0  0  0  0  0  0  0  0  0
    4.5786    0.2870    0.3098 O   0  0  0  0  0  0  0  0  0  0  0  0
    5.9336    0.2489   -0.0082 C   0  0  0  0  0  0  0  0  0  0  0  0
    6.6894    1.5515    0.2285 C   0  0  0  0  0  0  0  0  0  0  0  0
    7.4026    0.9902    1.4336 C   0  0  0  0  0  0  0  0  0  0  0  0
    6.7552   -0.3569    1.1131 C   0  0  0  0  0  0  0  0  0  0  0  0
  -10.1845    1.3674    0.5749 H   0  0  0  0  0  0  0  0  0  0  0  0
   -6.6478    0.8472    1.5676 H   0  0  0  0  0  0  0  0  0  0  0  0
   -6.8684   -0.8989    1.3179 H   0  0  0  0  0  0  0  0  0  0  0  0
   -6.4340    1.0696   -0.9790 H   0  0  0  0  0  0  0  0  0  0  0  0
   -6.5316   -0.6960   -1.0926 H   0  0  0  0  0  0  0  0  0  0  0  0
   -4.0040    0.1086   -2.2068 H   0  0  0  0  0  0  0  0  0  0  0  0
   -1.8775   -0.4924    2.7760 H   0  0  0  0  0  0  0  0  0  0  0  0
    0.3542   -0.5939    1.8641 H   0  0  0  0  0  0  0  0  0  0  0  0
   -1.1594   -0.1325   -2.1202 H   0  0  0  0  0  0  0  0  0  0  0  0
    0.4956   -1.3110   -2.5144 H   0  0  0  0  0  0  0  0  0  0  0  0
    4.6535   -0.7921   -2.1766 H   0  0  0  0  0  0  0  0  0  0  0  0
    2.0880    0.3637    1.0022 H   0  0  0  0  0  0  0  0  0  0  0  0
    6.1973   -0.2362   -0.9796 H   0  0  0  0  0  0  0  0  0  0  0  0
    7.3349    1.7817   -0.6298 H   0  0  0  0  0  0  0  0  0  0  0  0
    6.0413    2.4032    0.5286 H   0  0  0  0  0  0  0  0  0  0  0  0
    8.5239    0.9927    1.3377 H   0  0  0  0  0  0  0  0  0  0  0  0
    7.0640    1.4095    2.4192 H   0  0  0  0  0  0  0  0  0  0  0  0
    7.5505   -1.0666    0.7814 H   0  0  0  0  0  0  0  0  0  0  0  0
    6.2039   -0.7277    1.9844 H   0  0  0  0  0  0  0  0  0  0  0  0
  1  2  1  0
  2  3  2  0
  2  4  1  0
  4  5  1  0
  5  6  1  0
  6  7  2  0
  7  8  1  0
  8  9  2  0
  9 10  1  0
  9 11  1  0
 11 12  2  0
 12 13  1  0
 13 14  2  0
 13 15  1  0
 15 16  2  0
 16 17  1  0
 17 18  1  0
 17 19  2  0
 19 20  1  0
 20 21  2  0
 20 22  1  0
 22 23  1  0
 23 24  1  0
 24 25  1  0
 25 26  1  0
 10  6  1  0
 21 15  1  0
 26 23  1  0
 14  8  1  0
  1 27  1  0
  4 28  1  0
  4 29  1  0
  5 30  1  0
  5 31  1  0
  7 32  1  0
 11 33  1  0
 12 34  1  0
 14 35  1  0
 16 36  1  0
 19 37  1  0
 21 38  1  0
 23 39  1  0
 24 40  1  0
 24 41  1  0
 25 42  1  0
 25 43  1  0
 26 44  1  0
 26 45  1  0
M  END
>  <Ligand ID>  (1) 
LIG0002934

>  <Ligand>  (1) 
CHEMBL3947787

>  <SMILES>  (1) 
OC(=O)CCc1cc2c(o1)ccc(c2)c1cc(Cl)cc(c1)OC1CCC1

>  <CID>  (1) 
134147174.0

>  <ChEMBL ID>  (1) 
nan

>  <InChiKey>  (1) 
KLEOPTWEMLEDDG-UHFFFAOYSA-N

>  <InChi>  (1) 
InChI=1S/C21H19ClO4/c22-16-9-14(10-19(12-16)25-17-2-1-3-17)13-4-6-20-15(8-13)11-18(26-20)5-7-21(23)24/h4,6,8-12,17H,1-3,5,7H2,(H,23,24)

>  <IUPAC Name>  (1) 
3-[5-(3-chloro-5-cyclobutyloxyphenyl)-1-benzofuran-2-yl]propanoic acid

$$$$
