
     RDKit          3D

 84 87  0  0  0  0  0  0  0  0999 V2000
   -4.0400   -5.0891   -1.6698 N   0  0  0  0  0  0  0  0  0  0  0  0
   -3.0027   -4.1461   -1.2908 C   0  0  0  0  0  0  0  0  0  0  0  0
   -2.6952   -3.3305   -2.1848 O   0  0  0  0  0  0  0  0  0  0  0  0
   -2.4665   -4.2654    0.0442 C   0  0  0  0  0  0  0  0  0  0  0  0
   -1.5159   -3.2417    0.5530 C   0  0  1  0  0  0  0  0  0  0  0  0
   -2.0322   -1.8803    0.6582 C   0  0  0  0  0  0  0  0  0  0  0  0
   -2.4702   -1.5449    1.8274 O   0  0  0  0  0  0  0  0  0  0  0  0
   -2.1157   -0.8795   -0.3214 N   0  0  0  0  0  0  0  0  0  0  0  0
   -2.6491    0.4005    0.0192 C   0  0  1  0  0  0  0  0  0  0  0  0
   -1.6558    1.4887    0.2284 C   0  0  0  0  0  0  0  0  0  0  0  0
   -2.2327    2.6318    0.4485 O   0  0  0  0  0  0  0  0  0  0  0  0
   -0.2753    1.4341    0.2184 N   0  0  0  0  0  0  0  0  0  0  0  0
    0.6735    0.3299    0.0310 C   0  0  0  0  0  0  0  0  0  0  0  0
    1.7844    0.9334   -0.8175 C   0  0  2  0  0  0  0  0  0  0  0  0
    1.4523    2.4374   -0.8636 C   0  0  0  0  0  0  0  0  0  0  0  0
    0.6499    2.5746    0.4056 C   0  0  1  0  0  0  0  0  0  0  0  0
   -0.0467    3.8533    0.5607 C   0  0  0  0  0  0  0  0  0  0  0  0
    0.8910    5.0451    0.7477 C   0  0  0  0  0  0  0  0  0  0  0  0
    1.7590    4.9284    1.9524 C   0  0  0  0  0  0  0  0  0  0  0  0
    2.6582    6.0226    2.1702 N   0  0  0  0  0  0  0  0  0  0  0  0
    2.6183    7.1954    1.7117 C   0  0  0  0  0  0  0  0  0  0  0  0
    3.6732    8.0952    2.1080 N   0  0  0  0  0  0  0  0  0  0  0  0
    1.6415    7.7371    0.8406 N   0  0  0  0  0  0  0  0  0  0  0  0
    1.7823    0.3900   -2.0677 O   0  0  0  0  0  0  0  0  0  0  0  0
    2.9190   -0.2291   -2.4820 C   0  0  0  0  0  0  0  0  0  0  0  0
    3.3869   -1.3722   -1.7046 C   0  0  0  0  0  0  0  0  0  0  0  0
    2.8684   -2.6355   -2.0080 C   0  0  0  0  0  0  0  0  0  0  0  0
    3.2742   -3.7709   -1.3272 C   0  0  0  0  0  0  0  0  0  0  0  0
    4.2151   -3.6791   -0.3175 C   0  0  0  0  0  0  0  0  0  0  0  0
    4.7475   -2.4344    0.0049 C   0  0  0  0  0  0  0  0  0  0  0  0
    4.3231   -1.3232   -0.6909 C   0  0  0  0  0  0  0  0  0  0  0  0
    5.6972   -2.3322    1.0218 C   0  0  0  0  0  0  0  0  0  0  0  0
    6.1289   -3.4385    1.7244 C   0  0  0  0  0  0  0  0  0  0  0  0
    5.5940   -4.6751    1.3975 C   0  0  0  0  0  0  0  0  0  0  0  0
    4.6442   -4.7864    0.3823 C   0  0  0  0  0  0  0  0  0  0  0  0
   -3.7597    0.8491   -0.8936 C   0  0  0  0  0  0  0  0  0  0  0  0
   -4.8653   -0.1244   -0.8202 C   0  0  0  0  0  0  0  0  0  0  0  0
   -5.8105   -0.0087    0.2012 C   0  0  0  0  0  0  0  0  0  0  0  0
   -6.8790   -0.8986    0.2822 C   0  0  0  0  0  0  0  0  0  0  0  0
   -7.0235   -1.9149   -0.6488 C   0  0  0  0  0  0  0  0  0  0  0  0
   -6.0873   -2.0392   -1.6708 C   0  0  0  0  0  0  0  0  0  0  0  0
   -5.0359   -1.1444   -1.7313 C   0  0  0  0  0  0  0  0  0  0  0  0
   -1.2645   -3.6640    1.9682 N   0  0  0  0  0  0  0  0  0  0  0  0
   -3.8450   -5.7210   -2.4615 H   0  0  0  0  0  0  0  0  0  0  0  0
   -4.9521   -5.1213   -1.1536 H   0  0  0  0  0  0  0  0  0  0  0  0
   -1.9832   -5.2806    0.1298 H   0  0  0  0  0  0  0  0  0  0  0  0
   -3.3317   -4.3241    0.7629 H   0  0  0  0  0  0  0  0  0  0  0  0
   -0.5206   -3.2987    0.0551 H   0  0  0  0  0  0  0  0  0  0  0  0
   -1.8013   -1.0709   -1.2720 H   0  0  0  0  0  0  0  0  0  0  0  0
   -3.1672    0.3523    1.0506 H   0  0  0  0  0  0  0  0  0  0  0  0
    0.2258   -0.5137   -0.4556 H   0  0  0  0  0  0  0  0  0  0  0  0
    1.0617   -0.0001    1.0201 H   0  0  0  0  0  0  0  0  0  0  0  0
    2.7359    0.7925   -0.2706 H   0  0  0  0  0  0  0  0  0  0  0  0
    0.8235    2.5850   -1.7781 H   0  0  0  0  0  0  0  0  0  0  0  0
    2.3922    2.9833   -0.8661 H   0  0  0  0  0  0  0  0  0  0  0  0
    1.3415    2.3522    1.2386 H   0  0  0  0  0  0  0  0  0  0  0  0
   -0.6339    3.8214    1.5088 H   0  0  0  0  0  0  0  0  0  0  0  0
   -0.7078    4.1163   -0.2648 H   0  0  0  0  0  0  0  0  0  0  0  0
    1.4329    5.2933   -0.1675 H   0  0  0  0  0  0  0  0  0  0  0  0
    0.1799    5.8992    0.9604 H   0  0  0  0  0  0  0  0  0  0  0  0
    1.0752    4.9092    2.8425 H   0  0  0  0  0  0  0  0  0  0  0  0
    2.3401    3.9575    1.9270 H   0  0  0  0  0  0  0  0  0  0  0  0
    3.4542    9.0858    2.4031 H   0  0  0  0  0  0  0  0  0  0  0  0
    4.6727    7.7540    2.1011 H   0  0  0  0  0  0  0  0  0  0  0  0
    1.7898    7.6614   -0.1869 H   0  0  0  0  0  0  0  0  0  0  0  0
    0.8148    8.1892    1.2834 H   0  0  0  0  0  0  0  0  0  0  0  0
    2.7347   -0.5847   -3.5386 H   0  0  0  0  0  0  0  0  0  0  0  0
    3.7499    0.5226   -2.5810 H   0  0  0  0  0  0  0  0  0  0  0  0
    2.1205   -2.7622   -2.8009 H   0  0  0  0  0  0  0  0  0  0  0  0
    2.8867   -4.7608   -1.5439 H   0  0  0  0  0  0  0  0  0  0  0  0
    4.7640   -0.3776   -0.4183 H   0  0  0  0  0  0  0  0  0  0  0  0
    6.1323   -1.3657    1.2957 H   0  0  0  0  0  0  0  0  0  0  0  0
    6.8752   -3.3382    2.5195 H   0  0  0  0  0  0  0  0  0  0  0  0
    5.9342   -5.5465    1.9501 H   0  0  0  0  0  0  0  0  0  0  0  0
    4.2395   -5.7755    0.1465 H   0  0  0  0  0  0  0  0  0  0  0  0
   -4.1385    1.8150   -0.4974 H   0  0  0  0  0  0  0  0  0  0  0  0
   -3.4268    0.9362   -1.9499 H   0  0  0  0  0  0  0  0  0  0  0  0
   -5.7074    0.7868    0.9395 H   0  0  0  0  0  0  0  0  0  0  0  0
   -7.6293   -0.8307    1.0664 H   0  0  0  0  0  0  0  0  0  0  0  0
   -7.8458   -2.6028   -0.5897 H   0  0  0  0  0  0  0  0  0  0  0  0
   -6.1651   -2.8256   -2.4236 H   0  0  0  0  0  0  0  0  0  0  0  0
   -4.2747   -1.1875   -2.5236 H   0  0  0  0  0  0  0  0  0  0  0  0
   -2.0621   -3.3584    2.5567 H   0  0  0  0  0  0  0  0  0  0  0  0
   -1.0433   -4.6650    1.9890 H   0  0  0  0  0  0  0  0  0  0  0  0
  1  2  1  0
  2  3  2  0
  2  4  1  0
  4  5  1  0
  5  6  1  0
  6  7  2  0
  6  8  1  0
  8  9  1  0
  9 10  1  0
 10 11  2  0
 10 12  1  0
 12 13  1  0
 13 14  1  0
 14 15  1  0
 15 16  1  0
 16 17  1  0
 17 18  1  0
 18 19  1  0
 19 20  1  0
 20 21  2  3
 21 22  1  0
 21 23  1  0
 14 24  1  0
 24 25  1  0
 25 26  1  0
 26 27  2  0
 27 28  1  0
 28 29  2  0
 29 30  1  0
 30 31  2  0
 30 32  1  0
 32 33  2  0
 33 34  1  0
 34 35  2  0
  9 36  1  0
 36 37  1  0
 37 38  2  0
 38 39  1  0
 39 40  2  0
 40 41  1  0
 41 42  2  0
  5 43  1  0
 16 12  1  0
 31 26  1  0
 42 37  1  0
 35 29  1  0
  1 44  1  0
  1 45  1  0
  4 46  1  0
  4 47  1  0
  5 48  1  6
  8 49  1  0
  9 50  1  1
 13 51  1  0
 13 52  1  0
 14 53  1  1
 15 54  1  0
 15 55  1  0
 16 56  1  1
 17 57  1  0
 17 58  1  0
 18 59  1  0
 18 60  1  0
 19 61  1  0
 19 62  1  0
 22 63  1  0
 22 64  1  0
 23 65  1  0
 23 66  1  0
 25 67  1  0
 25 68  1  0
 27 69  1  0
 28 70  1  0
 31 71  1  0
 32 72  1  0
 33 73  1  0
 34 74  1  0
 35 75  1  0
 36 76  1  0
 36 77  1  0
 38 78  1  0
 39 79  1  0
 40 80  1  0
 41 81  1  0
 42 82  1  0
 43 83  1  0
 43 84  1  0
M  END
>  <Ligand ID>  (1) 
LIG0002400

>  <Ligand>  (1) 
CHEMBL377210

>  <SMILES>  (1) 
NC(=O)C[C@@H](C(=O)N[C@@H](C(=O)N1C[C@H](C[C@H]1CCCN=C(N)N)OCc1ccc2c(c1)cccc2)Cc1ccccc1)N

>  <CID>  (1) 
44413842.0

>  <ChEMBL ID>  (1) 
nan

>  <InChiKey>  (1) 
MNJTTYMJKZNPFK-WXIAYYLYSA-N

>  <InChi>  (1) 
InChI=1S/C32H41N7O4/c33-27(18-29(34)40)30(41)38-28(16-21-7-2-1-3-8-21)31(42)39-19-26(17-25(39)11-6-14-37-32(35)36)43-20-22-12-13-23-9-4-5-10-24(23)15-22/h1-5,7-10,12-13,15,25-28H,6,11,14,16-20,33H2,(H2,34,40)(H,38,41)(H4,35,36,37)/t25-,26+,27+,28-/m1/s1

>  <IUPAC Name>  (1) 
(2S)-2-amino-N-[(2R)-1-[(2R,4S)-2-[3-(diaminomethylideneamino)propyl]-4-(naphthalen-2-ylmethoxy)pyrrolidin-1-yl]-1-oxo-3-phenylpropan-2-yl]butanediamide

$$$$
