
     RDKit          3D

 53 56  0  0  0  0  0  0  0  0999 V2000
    7.2797   -0.5145   -2.3628 C   0  0  0  0  0  0  0  0  0  0  0  0
    6.1581   -0.9734   -1.5386 N   0  0  0  0  0  0  0  0  0  0  0  0
    5.4354   -0.0565   -0.7386 C   0  0  0  0  0  0  0  0  0  0  0  0
    5.7372    1.1807   -0.7133 O   0  0  0  0  0  0  0  0  0  0  0  0
    4.3218   -0.5450    0.0725 C   0  0  0  0  0  0  0  0  0  0  0  0
    3.9484   -1.8352    0.0931 N   0  0  0  0  0  0  0  0  0  0  0  0
    2.9275   -2.3061    0.8322 C   0  0  0  0  0  0  0  0  0  0  0  0
    2.2261   -1.4126    1.6117 C   0  0  0  0  0  0  0  0  0  0  0  0
    2.5434   -0.0859    1.6450 C   0  0  0  0  0  0  0  0  0  0  0  0
    3.6031    0.3327    0.8625 C   0  0  0  0  0  0  0  0  0  0  0  0
    1.8410    0.9412    2.4353 C   0  0  0  0  0  0  0  0  0  0  0  0
    0.8682    1.6203    1.7072 O   0  0  0  0  0  0  0  0  0  0  0  0
   -0.2128    1.0493    1.1226 C   0  0  0  0  0  0  0  0  0  0  0  0
   -0.5548   -0.2413    1.1274 N   0  0  0  0  0  0  0  0  0  0  0  0
   -1.6503   -0.7212    0.5184 C   0  0  0  0  0  0  0  0  0  0  0  0
   -1.8996   -2.1208    0.6009 N   0  0  0  0  0  0  0  0  0  0  0  0
   -1.2485   -3.2709    1.2129 C   0  0  0  0  0  0  0  0  0  0  0  0
   -2.2138   -4.2163    0.5858 C   0  0  0  0  0  0  0  0  0  0  0  0
   -2.9192   -2.9870    0.1015 C   0  0  0  0  0  0  0  0  0  0  0  0
   -2.9007   -4.9432    1.5613 O   0  0  0  0  0  0  0  0  0  0  0  0
   -2.5352    0.1075   -0.1813 C   0  0  0  0  0  0  0  0  0  0  0  0
   -2.2098    1.4460   -0.2048 C   0  0  0  0  0  0  0  0  0  0  0  0
   -1.0837    1.9041    0.4272 C   0  0  0  0  0  0  0  0  0  0  0  0
   -0.8117    3.3202    0.3568 C   0  0  0  0  0  0  0  0  0  0  0  0
   -0.5932    4.4700    0.2990 N   0  0  0  0  0  0  0  0  0  0  0  0
   -3.0889    2.3882   -0.9202 C   0  0  0  0  0  0  0  0  0  0  0  0
   -4.1011    2.9513   -0.1824 C   0  0  0  0  0  0  0  0  0  0  0  0
   -4.9895    3.8547   -0.7591 C   0  0  0  0  0  0  0  0  0  0  0  0
   -4.8110    4.1605   -2.1010 C   0  0  0  0  0  0  0  0  0  0  0  0
   -3.7847    3.5821   -2.8272 C   0  0  0  0  0  0  0  0  0  0  0  0
   -2.8930    2.6796   -2.2612 C   0  0  0  0  0  0  0  0  0  0  0  0
   -3.6967   -0.4010   -0.8272 C   0  0  0  0  0  0  0  0  0  0  0  0
   -4.6356   -0.8013   -1.3323 N   0  0  0  0  0  0  0  0  0  0  0  0
    7.3830   -1.1519   -3.2539 H   0  0  0  0  0  0  0  0  0  0  0  0
    6.9853    0.4907   -2.7363 H   0  0  0  0  0  0  0  0  0  0  0  0
    8.1921   -0.3888   -1.7690 H   0  0  0  0  0  0  0  0  0  0  0  0
    5.9518   -1.9920   -1.5943 H   0  0  0  0  0  0  0  0  0  0  0  0
    2.6485   -3.3603    0.8274 H   0  0  0  0  0  0  0  0  0  0  0  0
    1.4178   -1.7995    2.2085 H   0  0  0  0  0  0  0  0  0  0  0  0
    3.9133    1.3755    0.8387 H   0  0  0  0  0  0  0  0  0  0  0  0
    1.2978    0.4751    3.3132 H   0  0  0  0  0  0  0  0  0  0  0  0
    2.5682    1.6309    2.9259 H   0  0  0  0  0  0  0  0  0  0  0  0
   -0.2113   -3.4241    0.8377 H   0  0  0  0  0  0  0  0  0  0  0  0
   -1.2709   -3.2589    2.3238 H   0  0  0  0  0  0  0  0  0  0  0  0
   -1.7724   -4.8578   -0.2079 H   0  0  0  0  0  0  0  0  0  0  0  0
   -2.8863   -2.9650   -1.0261 H   0  0  0  0  0  0  0  0  0  0  0  0
   -3.9378   -2.8512    0.5209 H   0  0  0  0  0  0  0  0  0  0  0  0
   -3.0015   -4.4388    2.3933 H   0  0  0  0  0  0  0  0  0  0  0  0
   -4.2448    2.7132    0.8744 H   0  0  0  0  0  0  0  0  0  0  0  0
   -5.7813    4.2981   -0.1901 H   0  0  0  0  0  0  0  0  0  0  0  0
   -5.5120    4.8645   -2.5292 H   0  0  0  0  0  0  0  0  0  0  0  0
   -3.6952    3.8547   -3.8571 H   0  0  0  0  0  0  0  0  0  0  0  0
   -2.1005    2.2296   -2.8109 H   0  0  0  0  0  0  0  0  0  0  0  0
  1  2  1  0
  2  3  1  0
  3  4  2  0
  3  5  1  0
  5  6  2  0
  6  7  1  0
  7  8  2  0
  8  9  1  0
  9 10  2  0
  9 11  1  0
 11 12  1  0
 12 13  1  0
 13 14  2  0
 14 15  1  0
 15 16  1  0
 16 17  1  0
 17 18  1  0
 18 19  1  0
 18 20  1  0
 15 21  2  0
 21 22  1  0
 22 23  2  0
 23 24  1  0
 24 25  3  0
 22 26  1  0
 26 27  2  0
 27 28  1  0
 28 29  2  0
 29 30  1  0
 30 31  2  0
 21 32  1  0
 32 33  3  0
 10  5  1  0
 23 13  1  0
 31 26  1  0
 19 16  1  0
  1 34  1  0
  1 35  1  0
  1 36  1  0
  2 37  1  0
  7 38  1  0
  8 39  1  0
 10 40  1  0
 11 41  1  0
 11 42  1  0
 17 43  1  0
 17 44  1  0
 18 45  1  0
 19 46  1  0
 19 47  1  0
 20 48  1  0
 27 49  1  0
 28 50  1  0
 29 51  1  0
 30 52  1  0
 31 53  1  0
M  END
>  <Ligand ID>  (1) 
LIG0004655

>  <Ligand>  (1) 
SCHEMBL245505

>  <SMILES>  (1) 
CNC(=O)c1nccc(c1)COc1nc(N2CC(C2)O)c(c(c1C#N)c1ccccc1)C#N

>  <CID>  (1) 
66631651.0

>  <ChEMBL ID>  (1) 
nan

>  <InChiKey>  (1) 
RIKWPWBAAMITPO-UHFFFAOYSA-N

>  <InChi>  (1) 
InChI=1S/C24H20N6O3/c1-27-23(32)20-9-15(7-8-28-20)14-33-24-19(11-26)21(16-5-3-2-4-6-16)18(10-25)22(29-24)30-12-17(31)13-30/h2-9,17,31H,12-14H2,1H3,(H,27,32)

>  <IUPAC Name>  (1) 
4-[[3,5-dicyano-6-(3-hydroxyazetidin-1-yl)-4-phenylpyridin-2-yl]oxymethyl]-N-methylpyridine-2-carboxamide

$$$$
