
     RDKit          3D

 40 39  0  0  0  0  0  0  0  0999 V2000
    6.3061   -0.7373    0.5318 C   0  0  0  0  0  0  0  0  0  0  0  0
    4.9203   -0.9370   -0.0610 C   0  0  0  0  0  0  0  0  0  0  0  0
    3.9006   -0.4527    0.9313 C   0  0  0  0  0  0  0  0  0  0  0  0
    2.4886   -0.6218    0.4173 C   0  0  0  0  0  0  0  0  0  0  0  0
    2.2803    0.1428   -0.8416 C   0  0  0  0  0  0  0  0  0  0  0  0
    0.9232    0.0559   -1.4521 C   0  0  0  0  0  0  0  0  0  0  0  0
   -0.1923    0.5678   -0.5329 C   0  0  0  0  0  0  0  0  0  0  0  0
   -1.5050    0.4434   -1.2223 C   0  0  0  0  0  0  0  0  0  0  0  0
   -2.7084    0.8897   -0.4897 C   0  0  0  0  0  0  0  0  0  0  0  0
   -3.0250    0.2189    0.7949 C   0  0  0  0  0  0  0  0  0  0  0  0
   -4.2907    0.8295    1.3609 C   0  0  0  0  0  0  0  0  0  0  0  0
   -5.4839    0.6870    0.4665 C   0  0  0  0  0  0  0  0  0  0  0  0
   -5.7237   -0.7761    0.2493 C   0  0  0  0  0  0  0  0  0  0  0  0
   -6.2425   -1.4495    1.1074 O   0  0  0  0  0  0  0  0  0  0  0  0
    7.0425   -1.3241   -0.0756 H   0  0  0  0  0  0  0  0  0  0  0  0
    6.3137   -1.0288    1.5905 H   0  0  0  0  0  0  0  0  0  0  0  0
    6.5284    0.3488    0.4669 H   0  0  0  0  0  0  0  0  0  0  0  0
    4.7977   -1.9963   -0.2782 H   0  0  0  0  0  0  0  0  0  0  0  0
    4.9051   -0.3173   -0.9864 H   0  0  0  0  0  0  0  0  0  0  0  0
    4.1197    0.6060    1.2177 H   0  0  0  0  0  0  0  0  0  0  0  0
    3.9759   -1.1078    1.8396 H   0  0  0  0  0  0  0  0  0  0  0  0
    1.8035   -0.3618    1.2416 H   0  0  0  0  0  0  0  0  0  0  0  0
    2.3643   -1.7201    0.2496 H   0  0  0  0  0  0  0  0  0  0  0  0
    2.6683    1.1835   -0.7482 H   0  0  0  0  0  0  0  0  0  0  0  0
    2.9664   -0.3323   -1.6045 H   0  0  0  0  0  0  0  0  0  0  0  0
    0.7543   -0.9833   -1.7503 H   0  0  0  0  0  0  0  0  0  0  0  0
    0.9348    0.6728   -2.3656 H   0  0  0  0  0  0  0  0  0  0  0  0
    0.0181    1.6279   -0.2801 H   0  0  0  0  0  0  0  0  0  0  0  0
   -0.0880   -0.0155    0.3810 H   0  0  0  0  0  0  0  0  0  0  0  0
   -1.5930   -0.6303   -1.5547 H   0  0  0  0  0  0  0  0  0  0  0  0
   -1.4628    1.0136   -2.1739 H   0  0  0  0  0  0  0  0  0  0  0  0
   -3.5833    0.7011   -1.1775 H   0  0  0  0  0  0  0  0  0  0  0  0
   -2.7264    1.9992   -0.3548 H   0  0  0  0  0  0  0  0  0  0  0  0
   -2.2644    0.3482    1.5827 H   0  0  0  0  0  0  0  0  0  0  0  0
   -3.2637   -0.8475    0.5978 H   0  0  0  0  0  0  0  0  0  0  0  0
   -4.5561    0.3256    2.3254 H   0  0  0  0  0  0  0  0  0  0  0  0
   -4.1315    1.8946    1.6562 H   0  0  0  0  0  0  0  0  0  0  0  0
   -6.3575    1.0418    1.0827 H   0  0  0  0  0  0  0  0  0  0  0  0
   -5.3918    1.2667   -0.4493 H   0  0  0  0  0  0  0  0  0  0  0  0
   -5.4220   -1.2252   -0.6980 H   0  0  0  0  0  0  0  0  0  0  0  0
  1  2  1  0
  2  3  1  0
  3  4  1  0
  4  5  1  0
  5  6  1  0
  6  7  1  0
  7  8  1  0
  8  9  1  0
  9 10  1  0
 10 11  1  0
 11 12  1  0
 12 13  1  0
 13 14  2  0
  1 15  1  0
  1 16  1  0
  1 17  1  0
  2 18  1  0
  2 19  1  0
  3 20  1  0
  3 21  1  0
  4 22  1  0
  4 23  1  0
  5 24  1  0
  5 25  1  0
  6 26  1  0
  6 27  1  0
  7 28  1  0
  7 29  1  0
  8 30  1  0
  8 31  1  0
  9 32  1  0
  9 33  1  0
 10 34  1  0
 10 35  1  0
 11 36  1  0
 11 37  1  0
 12 38  1  0
 12 39  1  0
 13 40  1  0
M  END
>  <Ligand ID>  (1) 
LIG0005033

>  <Ligand>  (1) 
tridecanal

>  <SMILES>  (1) 
CCCCCCCCCCCCC=O

>  <CID>  (1) 
25311.0

>  <ChEMBL ID>  (1) 
nan

>  <InChiKey>  (1) 
BGEHHAVMRVXCGR-UHFFFAOYSA-N

>  <InChi>  (1) 
InChI=1S/C13H26O/c1-2-3-4-5-6-7-8-9-10-11-12-13-14/h13H,2-12H2,1H3

>  <IUPAC Name>  (1) 
tridecanal

$$$$
