
     RDKit          3D

 68 72  0  0  0  0  0  0  0  0999 V2000
   10.8505    2.1176    2.8248 C   0  0  0  0  0  0  0  0  0  0  0  0
   10.2255    2.9634    1.8863 O   0  0  0  0  0  0  0  0  0  0  0  0
    9.0718    2.6422    1.1825 C   0  0  0  0  0  0  0  0  0  0  0  0
    8.4904    3.4981    0.2715 C   0  0  0  0  0  0  0  0  0  0  0  0
    7.3415    3.1612   -0.4189 C   0  0  0  0  0  0  0  0  0  0  0  0
    6.8001    1.9108   -0.1473 C   0  0  0  0  0  0  0  0  0  0  0  0
    7.4111    1.0779    0.7723 C   0  0  0  0  0  0  0  0  0  0  0  0
    8.5297    1.4360    1.4286 N   0  0  0  0  0  0  0  0  0  0  0  0
    5.5950    1.4139   -0.7980 C   0  0  0  0  0  0  0  0  0  0  0  0
    5.2445    1.7412   -2.1000 C   0  0  0  0  0  0  0  0  0  0  0  0
    4.0635    1.2189   -2.6388 C   0  0  0  0  0  0  0  0  0  0  0  0
    3.2289    0.3884   -1.9249 C   0  0  0  0  0  0  0  0  0  0  0  0
    3.5953    0.0774   -0.6387 C   0  0  0  0  0  0  0  0  0  0  0  0
    4.7657    0.5768   -0.0618 C   0  0  0  0  0  0  0  0  0  0  0  0
    2.0013   -0.1345   -2.5559 C   0  0  0  0  0  0  0  0  0  0  0  0
    1.8325    0.1769   -3.7468 O   0  0  0  0  0  0  0  0  0  0  0  0
    1.0654   -0.9374   -1.8685 N   0  0  0  0  0  0  0  0  0  0  0  0
   -0.1211   -1.4771   -2.3875 C   0  0  0  0  0  0  0  0  0  0  0  0
   -0.5791   -1.3078   -3.6705 C   0  0  0  0  0  0  0  0  0  0  0  0
   -1.7725   -1.8553   -4.1379 C   0  0  0  0  0  0  0  0  0  0  0  0
   -2.5599   -2.6087   -3.3042 C   0  0  0  0  0  0  0  0  0  0  0  0
   -2.1269   -2.7991   -2.0002 C   0  0  0  0  0  0  0  0  0  0  0  0
   -0.9261   -2.2459   -1.5442 C   0  0  0  0  0  0  0  0  0  0  0  0
   -0.4431   -2.4967   -0.1506 C   0  0  0  0  0  0  0  0  0  0  0  0
   -3.0313   -3.5740   -1.1154 C   0  0  0  0  0  0  0  0  0  0  0  0
   -3.8499   -2.6979   -0.3001 N   0  0  0  0  0  0  0  0  0  0  0  0
   -3.5285   -2.2072    0.8577 N   0  0  0  0  0  0  0  0  0  0  0  0
   -4.2991   -1.3870    1.5907 C   0  0  0  0  0  0  0  0  0  0  0  0
   -5.5525   -0.9884    1.1397 C   0  0  0  0  0  0  0  0  0  0  0  0
   -5.9210   -1.4997   -0.0963 C   0  0  0  0  0  0  0  0  0  0  0  0
   -5.0710   -2.3507   -0.8113 C   0  0  0  0  0  0  0  0  0  0  0  0
   -5.4889   -2.7552   -1.9039 O   0  0  0  0  0  0  0  0  0  0  0  0
   -6.3736   -0.1073    1.8914 N   0  0  0  0  0  0  0  0  0  0  0  0
   -5.7948    0.7243    2.9365 C   0  0  0  0  0  0  0  0  0  0  0  0
   -6.2866    2.1589    2.8809 C   0  0  0  0  0  0  0  0  0  0  0  0
   -7.5714    2.2866    2.2374 N   0  0  0  0  0  0  0  0  0  0  0  0
   -8.3711    1.0831    2.3833 C   0  0  0  0  0  0  0  0  0  0  0  0
   -7.8103   -0.0642    1.6074 C   0  0  0  0  0  0  0  0  0  0  0  0
   10.2685    1.2029    3.0311 H   0  0  0  0  0  0  0  0  0  0  0  0
   11.8789    1.9106    2.4116 H   0  0  0  0  0  0  0  0  0  0  0  0
   10.9673    2.7129    3.7725 H   0  0  0  0  0  0  0  0  0  0  0  0
    8.9591    4.4376    0.1170 H   0  0  0  0  0  0  0  0  0  0  0  0
    6.8605    3.8048   -1.1353 H   0  0  0  0  0  0  0  0  0  0  0  0
    7.0251    0.0844    1.0135 H   0  0  0  0  0  0  0  0  0  0  0  0
    5.8855    2.3912   -2.6806 H   0  0  0  0  0  0  0  0  0  0  0  0
    3.8079    1.4820   -3.6472 H   0  0  0  0  0  0  0  0  0  0  0  0
    3.0094   -0.5633   -0.0106 H   0  0  0  0  0  0  0  0  0  0  0  0
    5.0094    0.3095    0.9446 H   0  0  0  0  0  0  0  0  0  0  0  0
    1.3120   -1.1266   -0.8507 H   0  0  0  0  0  0  0  0  0  0  0  0
   -0.0293   -0.7409   -4.3775 H   0  0  0  0  0  0  0  0  0  0  0  0
   -2.0864   -1.6839   -5.1743 H   0  0  0  0  0  0  0  0  0  0  0  0
   -3.4651   -3.0102   -3.7057 H   0  0  0  0  0  0  0  0  0  0  0  0
   -0.4442   -1.5506    0.4185 H   0  0  0  0  0  0  0  0  0  0  0  0
    0.6253   -2.8430   -0.1676 H   0  0  0  0  0  0  0  0  0  0  0  0
   -1.0769   -3.2280    0.3774 H   0  0  0  0  0  0  0  0  0  0  0  0
   -2.4739   -4.3063   -0.5008 H   0  0  0  0  0  0  0  0  0  0  0  0
   -3.7037   -4.1953   -1.7772 H   0  0  0  0  0  0  0  0  0  0  0  0
   -3.9002   -1.0608    2.5342 H   0  0  0  0  0  0  0  0  0  0  0  0
   -6.8748   -1.2393   -0.5123 H   0  0  0  0  0  0  0  0  0  0  0  0
   -4.6870    0.7452    2.8504 H   0  0  0  0  0  0  0  0  0  0  0  0
   -6.0734    0.2871    3.9081 H   0  0  0  0  0  0  0  0  0  0  0  0
   -5.5477    2.7219    2.2408 H   0  0  0  0  0  0  0  0  0  0  0  0
   -6.2692    2.6295    3.8833 H   0  0  0  0  0  0  0  0  0  0  0  0
   -7.4259    2.4073    1.1998 H   0  0  0  0  0  0  0  0  0  0  0  0
   -8.4608    0.8590    3.4573 H   0  0  0  0  0  0  0  0  0  0  0  0
   -9.3834    1.3368    2.0202 H   0  0  0  0  0  0  0  0  0  0  0  0
   -8.0403    0.0573    0.5425 H   0  0  0  0  0  0  0  0  0  0  0  0
   -8.3010   -0.9914    1.9912 H   0  0  0  0  0  0  0  0  0  0  0  0
  1  2  1  0
  2  3  1  0
  3  4  2  0
  4  5  1  0
  5  6  2  0
  6  7  1  0
  7  8  2  0
  6  9  1  0
  9 10  2  0
 10 11  1  0
 11 12  2  0
 12 13  1  0
 13 14  2  0
 12 15  1  0
 15 16  2  0
 15 17  1  0
 17 18  1  0
 18 19  2  0
 19 20  1  0
 20 21  2  0
 21 22  1  0
 22 23  2  0
 23 24  1  0
 22 25  1  0
 25 26  1  0
 26 27  1  0
 27 28  2  0
 28 29  1  0
 29 30  2  0
 30 31  1  0
 31 32  2  0
 29 33  1  0
 33 34  1  0
 34 35  1  0
 35 36  1  0
 36 37  1  0
 37 38  1  0
  8  3  1  0
 14  9  1  0
 23 18  1  0
 31 26  1  0
 38 33  1  0
  1 39  1  0
  1 40  1  0
  1 41  1  0
  4 42  1  0
  5 43  1  0
  7 44  1  0
 10 45  1  0
 11 46  1  0
 13 47  1  0
 14 48  1  0
 17 49  1  0
 19 50  1  0
 20 51  1  0
 21 52  1  0
 24 53  1  0
 24 54  1  0
 24 55  1  0
 25 56  1  0
 25 57  1  0
 28 58  1  0
 30 59  1  0
 34 60  1  0
 34 61  1  0
 35 62  1  0
 35 63  1  0
 36 64  1  0
 37 65  1  0
 37 66  1  0
 38 67  1  0
 38 68  1  0
M  END
>  <Ligand ID>  (1) 
LIG0003659

>  <Ligand>  (1) 
1103458-91-8

>  <SMILES>  (1) 
COc1ccc(cn1)c1ccc(cc1)C(=O)Nc1cccc(c1C)Cn1ncc(cc1=O)N1CCNCC1

>  <CID>  (1) 
25209705.0

>  <ChEMBL ID>  (1) 
nan

>  <InChiKey>  (1) 
IFWGJAXMPXZADJ-UHFFFAOYSA-N

>  <InChi>  (1) 
InChI=1S/C29H30N6O3/c1-20-24(19-35-28(36)16-25(18-32-35)34-14-12-30-13-15-34)4-3-5-26(20)33-29(37)22-8-6-21(7-9-22)23-10-11-27(38-2)31-17-23/h3-11,16-18,30H,12-15,19H2,1-2H3,(H,33,37)

>  <IUPAC Name>  (1) 
4-(6-methoxypyridin-3-yl)-N-[2-methyl-3-[(6-oxo-4-piperazin-1-ylpyridazin-1-yl)methyl]phenyl]benzamide

$$$$
