
     RDKit          3D

 62 65  0  0  0  0  0  0  0  0999 V2000
    2.7186   -1.7034   -2.2316 N   0  0  0  0  0  0  0  0  0  0  0  0
    3.3542   -0.6875   -1.4418 C   0  0  1  0  0  0  0  0  0  0  0  0
    2.4614   -0.1467   -0.4374 C   0  0  0  0  0  0  0  0  0  0  0  0
    3.0191    0.7142    0.3655 O   0  0  0  0  0  0  0  0  0  0  0  0
    1.0998   -0.3923   -0.1809 N   0  0  0  0  0  0  0  0  0  0  0  0
    0.2032   -1.2320   -0.8884 C   0  0  0  0  0  0  0  0  0  0  0  0
   -1.1913   -0.7162   -1.0867 C   0  0  0  0  0  0  0  0  0  0  0  0
   -1.8089    0.0002    0.0673 C   0  0  0  0  0  0  0  0  0  0  0  0
   -0.7172    0.9538    0.5987 C   0  0  0  0  0  0  0  0  0  0  0  0
    0.5395    0.2960    1.0103 C   0  0  0  0  0  0  0  0  0  0  0  0
   -2.2013   -0.8252    1.2048 C   0  0  0  0  0  0  0  0  0  0  0  0
   -3.1558   -1.8614    1.0819 N   0  0  0  0  0  0  0  0  0  0  0  0
   -4.4830   -1.8492    1.2606 N   0  0  0  0  0  0  0  0  0  0  0  0
   -4.9753   -3.0743    1.0272 C   0  0  0  0  0  0  0  0  0  0  0  0
   -3.9651   -3.8833    0.6962 N   0  0  0  0  0  0  0  0  0  0  0  0
   -2.8356   -3.1461    0.7263 C   0  0  0  0  0  0  0  0  0  0  0  0
   -2.8000    0.9578   -0.5213 C   0  0  0  0  0  0  0  0  0  0  0  0
   -3.8300    0.3580   -1.3985 C   0  0  0  0  0  0  0  0  0  0  0  0
   -4.6548    1.3926   -2.1267 C   0  0  0  0  0  0  0  0  0  0  0  0
   -4.5101    2.7661   -1.5066 C   0  0  0  0  0  0  0  0  0  0  0  0
   -4.6202    2.5945   -0.0077 C   0  0  0  0  0  0  0  0  0  0  0  0
   -3.3140    1.9753    0.4540 C   0  0  0  0  0  0  0  0  0  0  0  0
    4.6243   -1.3175   -0.9018 C   0  0  0  0  0  0  0  0  0  0  0  0
    5.4395   -0.4517   -0.0579 C   0  0  0  0  0  0  0  0  0  0  0  0
    5.3507   -0.3537    1.3141 C   0  0  0  0  0  0  0  0  0  0  0  0
    6.1381    0.4794    2.0746 C   0  0  0  0  0  0  0  0  0  0  0  0
    7.0621    1.2555    1.4394 C   0  0  0  0  0  0  0  0  0  0  0  0
    7.2047    1.2074    0.0673 C   0  0  0  0  0  0  0  0  0  0  0  0
    6.4020    0.3645   -0.6610 C   0  0  0  0  0  0  0  0  0  0  0  0
    8.0931    2.3354    2.3543 Cl  0  0  0  0  0  0  0  0  0  0  0  0
    2.7584   -2.6476   -1.7821 H   0  0  0  0  0  0  0  0  0  0  0  0
    3.3291   -1.8077   -3.0974 H   0  0  0  0  0  0  0  0  0  0  0  0
    3.6082    0.1545   -2.1455 H   0  0  0  0  0  0  0  0  0  0  0  0
    0.5917   -1.4439   -1.8984 H   0  0  0  0  0  0  0  0  0  0  0  0
    0.1207   -2.1948   -0.3118 H   0  0  0  0  0  0  0  0  0  0  0  0
   -1.1481   -0.0215   -1.9518 H   0  0  0  0  0  0  0  0  0  0  0  0
   -1.8234   -1.5657   -1.4029 H   0  0  0  0  0  0  0  0  0  0  0  0
   -1.1539    1.4337    1.5238 H   0  0  0  0  0  0  0  0  0  0  0  0
   -0.5424    1.7653   -0.1308 H   0  0  0  0  0  0  0  0  0  0  0  0
    1.2429    1.1262    1.3010 H   0  0  0  0  0  0  0  0  0  0  0  0
    0.4441   -0.3841    1.8546 H   0  0  0  0  0  0  0  0  0  0  0  0
   -2.4810   -0.1561    2.0745 H   0  0  0  0  0  0  0  0  0  0  0  0
   -1.2523   -1.3130    1.5959 H   0  0  0  0  0  0  0  0  0  0  0  0
   -6.0278   -3.3138    1.1085 H   0  0  0  0  0  0  0  0  0  0  0  0
   -1.8659   -3.5361    0.5029 H   0  0  0  0  0  0  0  0  0  0  0  0
   -2.1586    1.5750   -1.2369 H   0  0  0  0  0  0  0  0  0  0  0  0
   -3.2649   -0.1935   -2.2100 H   0  0  0  0  0  0  0  0  0  0  0  0
   -4.5162   -0.3656   -0.9966 H   0  0  0  0  0  0  0  0  0  0  0  0
   -4.3654    1.5057   -3.1914 H   0  0  0  0  0  0  0  0  0  0  0  0
   -5.7358    1.1472   -2.1180 H   0  0  0  0  0  0  0  0  0  0  0  0
   -3.5702    3.2131   -1.8305 H   0  0  0  0  0  0  0  0  0  0  0  0
   -5.3972    3.3786   -1.8268 H   0  0  0  0  0  0  0  0  0  0  0  0
   -4.7232    3.5618    0.5142 H   0  0  0  0  0  0  0  0  0  0  0  0
   -5.4454    1.8913    0.2214 H   0  0  0  0  0  0  0  0  0  0  0  0
   -2.6018    2.8191    0.5893 H   0  0  0  0  0  0  0  0  0  0  0  0
   -3.4128    1.5162    1.4570 H   0  0  0  0  0  0  0  0  0  0  0  0
    5.2365   -1.5908   -1.8085 H   0  0  0  0  0  0  0  0  0  0  0  0
    4.4016   -2.2728   -0.4156 H   0  0  0  0  0  0  0  0  0  0  0  0
    4.6119   -0.9756    1.8264 H   0  0  0  0  0  0  0  0  0  0  0  0
    6.0155    0.5080    3.1589 H   0  0  0  0  0  0  0  0  0  0  0  0
    7.9376    1.8249   -0.4214 H   0  0  0  0  0  0  0  0  0  0  0  0
    6.5407    0.3519   -1.7334 H   0  0  0  0  0  0  0  0  0  0  0  0
  1  2  1  0
  2  3  1  0
  3  4  2  0
  3  5  1  0
  5  6  1  0
  6  7  1  0
  7  8  1  0
  8  9  1  0
  9 10  1  0
  8 11  1  0
 11 12  1  0
 12 13  1  0
 13 14  2  0
 14 15  1  0
 15 16  2  0
  8 17  1  0
 17 18  1  0
 18 19  1  0
 19 20  1  0
 20 21  1  0
 21 22  1  0
  2 23  1  0
 23 24  1  0
 24 25  2  0
 25 26  1  0
 26 27  2  0
 27 28  1  0
 28 29  2  0
 27 30  1  0
 10  5  1  0
 16 12  1  0
 22 17  1  0
 29 24  1  0
  1 31  1  0
  1 32  1  0
  2 33  1  6
  6 34  1  0
  6 35  1  0
  7 36  1  0
  7 37  1  0
  9 38  1  0
  9 39  1  0
 10 40  1  0
 10 41  1  0
 11 42  1  0
 11 43  1  0
 14 44  1  0
 16 45  1  0
 17 46  1  0
 18 47  1  0
 18 48  1  0
 19 49  1  0
 19 50  1  0
 20 51  1  0
 20 52  1  0
 21 53  1  0
 21 54  1  0
 22 55  1  0
 22 56  1  0
 23 57  1  0
 23 58  1  0
 25 59  1  0
 26 60  1  0
 28 61  1  0
 29 62  1  0
M  END
>  <Ligand ID>  (1) 
LIG0003051

>  <Ligand>  (1) 
CHEMBL272099

>  <SMILES>  (1) 
N[C@@H](C(=O)N1CCC(CC1)(Cn1ncnc1)C1CCCCC1)Cc1ccc(cc1)Cl

>  <CID>  (1) 
9867330.0

>  <ChEMBL ID>  (1) 
nan

>  <InChiKey>  (1) 
VADQRJNCGGKONM-OAQYLSRUSA-N

>  <InChi>  (1) 
InChI=1S/C23H32ClN5O/c24-20-8-6-18(7-9-20)14-21(25)22(30)28-12-10-23(11-13-28,15-29-17-26-16-27-29)19-4-2-1-3-5-19/h6-9,16-17,19,21H,1-5,10-15,25H2/t21-/m1/s1

>  <IUPAC Name>  (1) 
(2R)-2-amino-3-(4-chlorophenyl)-1-[4-cyclohexyl-4-(1,2,4-triazol-1-ylmethyl)piperidin-1-yl]propan-1-one

$$$$
