
     RDKit          3D

 71 75  0  0  0  0  0  0  0  0999 V2000
    7.1786    2.6789   -2.4069 C   0  0  0  0  0  0  0  0  0  0  0  0
    7.8439    1.4734   -2.1550 O   0  0  0  0  0  0  0  0  0  0  0  0
    7.3605    0.5063   -1.2995 C   0  0  0  0  0  0  0  0  0  0  0  0
    6.1505    0.6727   -0.6170 C   0  0  0  0  0  0  0  0  0  0  0  0
    5.7154   -0.3438    0.2356 C   0  0  0  0  0  0  0  0  0  0  0  0
    6.4925   -1.4745    0.3747 C   0  0  0  0  0  0  0  0  0  0  0  0
    7.6879   -1.6570   -0.2894 C   0  0  0  0  0  0  0  0  0  0  0  0
    8.1017   -0.6430   -1.1269 C   0  0  0  0  0  0  0  0  0  0  0  0
    9.2973   -0.7818   -1.8158 O   0  0  0  0  0  0  0  0  0  0  0  0
   10.1232   -1.9100   -1.7102 C   0  0  0  0  0  0  0  0  0  0  0  0
    4.4641   -0.2430    0.9786 C   0  0  0  0  0  0  0  0  0  0  0  0
    3.9669   -1.1363    1.8048 O   0  0  0  0  0  0  0  0  0  0  0  0
    2.8241   -0.7110    2.2934 C   0  0  0  0  0  0  0  0  0  0  0  0
    2.5485    0.5268    1.7650 C   0  0  0  0  0  0  0  0  0  0  0  0
    3.6022    0.7911    0.9412 N   0  0  0  0  0  0  0  0  0  0  0  0
    1.4230    1.4451    1.9497 C   0  0  0  0  0  0  0  0  0  0  0  0
    0.2245    1.1544    1.2734 N   0  0  0  0  0  0  0  0  0  0  0  0
    0.2571    1.0729   -0.1450 C   0  0  0  0  0  0  0  0  0  0  0  0
   -1.1868    0.8979   -0.6370 C   0  0  0  0  0  0  0  0  0  0  0  0
   -1.7587   -0.4297   -0.1847 C   0  0  0  0  0  0  0  0  0  0  0  0
   -0.8979   -0.9025    0.9677 C   0  0  0  0  0  0  0  0  0  0  0  0
   -0.7301    0.3096    1.8829 C   0  0  0  0  0  0  0  0  0  0  0  0
   -3.1535   -0.3003    0.3406 C   0  0  0  0  0  0  0  0  0  0  0  0
   -3.4683   -0.6164    1.5167 O   0  0  0  0  0  0  0  0  0  0  0  0
   -4.1423    0.2119   -0.5758 N   0  0  0  0  0  0  0  0  0  0  0  0
   -5.4770    0.3394   -0.0857 C   0  0  0  0  0  0  0  0  0  0  0  0
   -5.9694    1.7861   -0.1394 C   0  0  0  0  0  0  0  0  0  0  0  0
   -7.4030    1.9136    0.2454 C   0  0  0  0  0  0  0  0  0  0  0  0
   -8.0339    0.5874    0.6663 C   0  0  0  0  0  0  0  0  0  0  0  0
   -7.7869   -0.3589   -0.4537 C   0  0  0  0  0  0  0  0  0  0  0  0
   -6.4510   -0.4897   -0.8477 C   0  0  0  0  0  0  0  0  0  0  0  0
   -6.0854   -1.3333   -1.8729 C   0  0  0  0  0  0  0  0  0  0  0  0
   -7.0955   -2.0428   -2.4931 C   0  0  0  0  0  0  0  0  0  0  0  0
   -8.4280   -1.9255   -2.1152 C   0  0  0  0  0  0  0  0  0  0  0  0
   -8.7905   -1.0705   -1.0775 C   0  0  0  0  0  0  0  0  0  0  0  0
    1.9667   -1.4433    3.2597 C   0  0  0  0  0  0  0  0  0  0  0  0
    6.7542    3.0509   -1.4317 H   0  0  0  0  0  0  0  0  0  0  0  0
    6.3622    2.6148   -3.1314 H   0  0  0  0  0  0  0  0  0  0  0  0
    7.9261    3.4495   -2.7427 H   0  0  0  0  0  0  0  0  0  0  0  0
    5.5624    1.5518   -0.7347 H   0  0  0  0  0  0  0  0  0  0  0  0
    6.1326   -2.2481    1.0421 H   0  0  0  0  0  0  0  0  0  0  0  0
    8.2170   -2.5643   -0.1172 H   0  0  0  0  0  0  0  0  0  0  0  0
    9.7809   -2.7418   -2.3703 H   0  0  0  0  0  0  0  0  0  0  0  0
   10.1607   -2.3245   -0.6769 H   0  0  0  0  0  0  0  0  0  0  0  0
   11.1693   -1.6960   -1.9810 H   0  0  0  0  0  0  0  0  0  0  0  0
    1.6988    2.5111    1.6976 H   0  0  0  0  0  0  0  0  0  0  0  0
    1.1764    1.5132    3.0511 H   0  0  0  0  0  0  0  0  0  0  0  0
    0.5920    2.0551   -0.5397 H   0  0  0  0  0  0  0  0  0  0  0  0
    0.9312    0.3035   -0.5549 H   0  0  0  0  0  0  0  0  0  0  0  0
   -1.1714    0.9397   -1.7487 H   0  0  0  0  0  0  0  0  0  0  0  0
   -1.7282    1.7692   -0.2537 H   0  0  0  0  0  0  0  0  0  0  0  0
   -1.7178   -1.1335   -1.0434 H   0  0  0  0  0  0  0  0  0  0  0  0
   -1.4595   -1.6956    1.4928 H   0  0  0  0  0  0  0  0  0  0  0  0
    0.0773   -1.2927    0.6344 H   0  0  0  0  0  0  0  0  0  0  0  0
   -1.7092    0.8779    1.8715 H   0  0  0  0  0  0  0  0  0  0  0  0
   -0.5784    0.0286    2.9192 H   0  0  0  0  0  0  0  0  0  0  0  0
   -3.9146    0.4778   -1.5409 H   0  0  0  0  0  0  0  0  0  0  0  0
   -5.5791    0.0200    0.9720 H   0  0  0  0  0  0  0  0  0  0  0  0
   -5.3332    2.4373    0.4961 H   0  0  0  0  0  0  0  0  0  0  0  0
   -5.8436    2.0882   -1.1941 H   0  0  0  0  0  0  0  0  0  0  0  0
   -7.9909    2.2734   -0.6083 H   0  0  0  0  0  0  0  0  0  0  0  0
   -7.4839    2.5724    1.1354 H   0  0  0  0  0  0  0  0  0  0  0  0
   -9.1143    0.7502    0.7900 H   0  0  0  0  0  0  0  0  0  0  0  0
   -7.5609    0.2171    1.6068 H   0  0  0  0  0  0  0  0  0  0  0  0
   -5.0453   -1.4138   -2.1555 H   0  0  0  0  0  0  0  0  0  0  0  0
   -6.8720   -2.7170   -3.3000 H   0  0  0  0  0  0  0  0  0  0  0  0
   -9.1967   -2.4830   -2.6074 H   0  0  0  0  0  0  0  0  0  0  0  0
   -9.8113   -0.9502   -0.7531 H   0  0  0  0  0  0  0  0  0  0  0  0
    2.5570   -2.1540    3.8780 H   0  0  0  0  0  0  0  0  0  0  0  0
    1.1710   -1.9532    2.6822 H   0  0  0  0  0  0  0  0  0  0  0  0
    1.4706   -0.6880    3.9172 H   0  0  0  0  0  0  0  0  0  0  0  0
  1  2  1  0
  2  3  1  0
  3  4  2  0
  4  5  1  0
  5  6  2  0
  6  7  1  0
  7  8  2  0
  8  9  1  0
  9 10  1  0
  5 11  1  0
 11 12  1  0
 12 13  1  0
 13 14  2  0
 14 15  1  0
 14 16  1  0
 16 17  1  0
 17 18  1  0
 18 19  1  0
 19 20  1  0
 20 21  1  0
 21 22  1  0
 20 23  1  0
 23 24  2  0
 23 25  1  0
 25 26  1  0
 26 27  1  0
 27 28  1  0
 28 29  1  0
 29 30  1  0
 30 31  2  0
 31 32  1  0
 32 33  2  0
 33 34  1  0
 34 35  2  0
 13 36  1  0
  8  3  1  0
 15 11  2  0
 22 17  1  0
 31 26  1  0
 35 30  1  0
  1 37  1  0
  1 38  1  0
  1 39  1  0
  4 40  1  0
  6 41  1  0
  7 42  1  0
 10 43  1  0
 10 44  1  0
 10 45  1  0
 16 46  1  0
 16 47  1  0
 18 48  1  0
 18 49  1  0
 19 50  1  0
 19 51  1  0
 20 52  1  0
 21 53  1  0
 21 54  1  0
 22 55  1  0
 22 56  1  0
 25 57  1  0
 26 58  1  0
 27 59  1  0
 27 60  1  0
 28 61  1  0
 28 62  1  0
 29 63  1  0
 29 64  1  0
 32 65  1  0
 33 66  1  0
 34 67  1  0
 35 68  1  0
 36 69  1  0
 36 70  1  0
 36 71  1  0
M  END
>  <Ligand ID>  (1) 
LIG0003672

>  <Ligand>  (1) 
MLS000095176

>  <SMILES>  (1) 
COc1cc(ccc1OC)c1oc(c(n1)CN1CCC(CC1)C(=O)NC1CCCc2c1cccc2)C

>  <CID>  (1) 
3244713.0

>  <ChEMBL ID>  (1) 
nan

>  <InChiKey>  (1) 
MWTSUKHWPXHRNU-UHFFFAOYSA-N

>  <InChi>  (1) 
InChI=1S/C29H35N3O4/c1-19-25(31-29(36-19)22-11-12-26(34-2)27(17-22)35-3)18-32-15-13-21(14-16-32)28(33)30-24-10-6-8-20-7-4-5-9-23(20)24/h4-5,7,9,11-12,17,21,24H,6,8,10,13-16,18H2,1-3H3,(H,30,33)

>  <IUPAC Name>  (1) 
1-[[2-(3,4-dimethoxyphenyl)-5-methyl-1,3-oxazol-4-yl]methyl]-N-(1,2,3,4-tetrahydronaphthalen-1-yl)piperidine-4-carboxamide

$$$$
