
     RDKit          3D

 39 41  0  0  0  0  0  0  0  0999 V2000
   -2.0797   -1.1668    1.0751 O   0  0  0  0  0  0  0  0  0  0  0  0
   -1.7406   -0.4895    0.0785 C   0  0  0  0  0  0  0  0  0  0  0  0
   -2.6369    0.2872   -0.6636 N   0  0  0  0  0  0  0  0  0  0  0  0
   -4.0204    0.4355   -0.4274 C   0  0  0  0  0  0  0  0  0  0  0  0
   -4.7238   -0.1677    0.5858 C   0  0  0  0  0  0  0  0  0  0  0  0
   -6.0993    0.0309    0.7534 C   0  0  0  0  0  0  0  0  0  0  0  0
   -6.7615    0.8479   -0.1154 C   0  0  0  0  0  0  0  0  0  0  0  0
   -6.0789    1.4331   -1.0983 N   0  0  0  0  0  0  0  0  0  0  0  0
   -4.7633    1.2540   -1.2729 C   0  0  0  0  0  0  0  0  0  0  0  0
   -8.2137    1.0933    0.0145 C   0  0  0  0  0  0  0  0  0  0  0  0
   -8.9564   -0.0005   -0.3704 F   0  0  0  0  0  0  0  0  0  0  0  0
   -8.5901    2.1949   -0.7292 F   0  0  0  0  0  0  0  0  0  0  0  0
   -8.4445    1.3334    1.3639 F   0  0  0  0  0  0  0  0  0  0  0  0
   -0.3069   -0.5352   -0.3084 C   0  0  0  0  0  0  0  0  0  0  0  0
    0.4992   -1.4189    0.6021 C   0  0  0  0  0  0  0  0  0  0  0  0
    1.9154   -1.4102    0.1493 C   0  0  0  0  0  0  0  0  0  0  0  0
    2.4704   -2.2228   -0.7117 O   0  0  0  0  0  0  0  0  0  0  0  0
    3.7333   -1.9496   -0.8930 N   0  0  0  0  0  0  0  0  0  0  0  0
    4.0496   -0.8977   -0.1146 C   0  0  0  0  0  0  0  0  0  0  0  0
    2.9120   -0.5702    0.5293 N   0  0  0  0  0  0  0  0  0  0  0  0
    5.3702   -0.2808   -0.0267 C   0  0  0  0  0  0  0  0  0  0  0  0
    6.3860   -0.7907   -0.7841 C   0  0  0  0  0  0  0  0  0  0  0  0
    7.6431   -0.2061   -0.7026 C   0  0  0  0  0  0  0  0  0  0  0  0
    7.8782    0.8791    0.1305 C   0  0  0  0  0  0  0  0  0  0  0  0
    6.8231    1.3670    0.8822 C   0  0  0  0  0  0  0  0  0  0  0  0
    5.5531    0.8035    0.8225 C   0  0  0  0  0  0  0  0  0  0  0  0
    4.2308    1.4447    1.7895 Cl  0  0  0  0  0  0  0  0  0  0  0  0
    9.1131    1.4324    0.1929 F   0  0  0  0  0  0  0  0  0  0  0  0
   -2.2413    0.8149   -1.4812 H   0  0  0  0  0  0  0  0  0  0  0  0
   -4.2622   -0.8172    1.2967 H   0  0  0  0  0  0  0  0  0  0  0  0
   -6.6271   -0.4563    1.5591 H   0  0  0  0  0  0  0  0  0  0  0  0
   -4.2904    1.7769   -2.1085 H   0  0  0  0  0  0  0  0  0  0  0  0
    0.1665    0.4609   -0.3444 H   0  0  0  0  0  0  0  0  0  0  0  0
   -0.2562   -0.9772   -1.3234 H   0  0  0  0  0  0  0  0  0  0  0  0
    0.4981   -1.0713    1.6542 H   0  0  0  0  0  0  0  0  0  0  0  0
    0.0899   -2.4604    0.6070 H   0  0  0  0  0  0  0  0  0  0  0  0
    6.2873   -1.6362   -1.4606 H   0  0  0  0  0  0  0  0  0  0  0  0
    8.4743   -0.5906   -1.2949 H   0  0  0  0  0  0  0  0  0  0  0  0
    6.9994    2.2264    1.5452 H   0  0  0  0  0  0  0  0  0  0  0  0
  1  2  2  0
  2  3  1  0
  3  4  1  0
  4  5  2  0
  5  6  1  0
  6  7  2  0
  7  8  1  0
  8  9  2  0
  7 10  1  0
 10 11  1  0
 10 12  1  0
 10 13  1  0
  2 14  1  0
 14 15  1  0
 15 16  1  0
 16 17  1  0
 17 18  1  0
 18 19  2  0
 19 20  1  0
 19 21  1  0
 21 22  2  0
 22 23  1  0
 23 24  2  0
 24 25  1  0
 25 26  2  0
 26 27  1  0
 24 28  1  0
  9  4  1  0
 20 16  2  0
 26 21  1  0
  3 29  1  0
  5 30  1  0
  6 31  1  0
  9 32  1  0
 14 33  1  0
 14 34  1  0
 15 35  1  0
 15 36  1  0
 22 37  1  0
 23 38  1  0
 25 39  1  0
M  END
>  <Ligand ID>  (1) 
LIG0002486

>  <Ligand>  (1) 
CHEMBL500926

>  <SMILES>  (1) 
O=C(Nc1ccc(nc1)C(F)(F)F)CCc1onc(n1)c1ccc(cc1Cl)F

>  <CID>  (1) 
25034003.0

>  <ChEMBL ID>  (1) 
nan

>  <InChiKey>  (1) 
OEKIQSIIDRYSEZ-UHFFFAOYSA-N

>  <InChi>  (1) 
InChI=1S/C17H11ClF4N4O2/c18-12-7-9(19)1-3-11(12)16-25-15(28-26-16)6-5-14(27)24-10-2-4-13(23-8-10)17(20,21)22/h1-4,7-8H,5-6H2,(H,24,27)

>  <IUPAC Name>  (1) 
3-[3-(2-chloro-4-fluorophenyl)-1,2,4-oxadiazol-5-yl]-N-[6-(trifluoromethyl)pyridin-3-yl]propanamide

$$$$
