
     RDKit          3D

 51 54  0  0  0  0  0  0  0  0999 V2000
   -1.5463   -1.5979   -1.7988 C   0  0  0  0  0  0  0  0  0  0  0  0
   -1.3994   -1.9719   -0.3641 C   0  0  1  0  0  0  0  0  0  0  0  0
   -0.0030   -2.4730   -0.1233 C   0  0  0  0  0  0  0  0  0  0  0  0
    0.9664   -1.4649    0.0807 N   0  0  0  0  0  0  0  0  0  0  0  0
    0.6597   -0.4467    0.9924 C   0  0  0  0  0  0  0  0  0  0  0  0
   -0.7335    0.1001    0.9241 C   0  0  0  0  0  0  0  0  0  0  0  0
   -1.7775   -0.9363    0.6313 C   0  0  1  0  0  0  0  0  0  0  0  0
   -3.0215   -0.2099    0.2788 C   0  0  0  0  0  0  0  0  0  0  0  0
   -4.1762   -0.4658    0.9895 C   0  0  0  0  0  0  0  0  0  0  0  0
   -5.3740    0.1627    0.7378 C   0  0  0  0  0  0  0  0  0  0  0  0
   -5.4185    1.0989   -0.2812 C   0  0  0  0  0  0  0  0  0  0  0  0
   -4.2981    1.3924   -1.0205 C   0  0  0  0  0  0  0  0  0  0  0  0
   -3.1028    0.7272   -0.7273 C   0  0  0  0  0  0  0  0  0  0  0  0
   -6.6961    1.7948   -0.5782 C   0  0  0  0  0  0  0  0  0  0  0  0
   -7.1622    1.5514   -1.8486 F   0  0  0  0  0  0  0  0  0  0  0  0
   -7.6484    1.4518    0.3796 F   0  0  0  0  0  0  0  0  0  0  0  0
   -6.4757    3.1447   -0.4788 F   0  0  0  0  0  0  0  0  0  0  0  0
    1.9365   -1.2499   -0.9166 C   0  0  0  0  0  0  0  0  0  0  0  0
    2.8690   -0.1566   -0.5470 C   0  0  0  0  0  0  0  0  0  0  0  0
    2.7463    1.1583   -0.8284 N   0  0  0  0  0  0  0  0  0  0  0  0
    3.8086    1.7989   -0.3105 C   0  0  0  0  0  0  0  0  0  0  0  0
    4.6268    0.8849    0.3129 C   0  0  0  0  0  0  0  0  0  0  0  0
    4.0273   -0.3075    0.1532 N   0  0  0  0  0  0  0  0  0  0  0  0
    4.5052   -1.5703    0.6336 C   0  0  0  0  0  0  0  0  0  0  0  0
    5.7890    1.3185    0.9221 C   0  0  0  0  0  0  0  0  0  0  0  0
    6.0662    2.6585    0.8702 C   0  0  0  0  0  0  0  0  0  0  0  0
    5.2308    3.5716    0.2369 C   0  0  0  0  0  0  0  0  0  0  0  0
    4.1082    3.1073   -0.3443 N   0  0  0  0  0  0  0  0  0  0  0  0
   -0.8439   -0.8042   -2.1029 H   0  0  0  0  0  0  0  0  0  0  0  0
   -2.5652   -1.2657   -2.0791 H   0  0  0  0  0  0  0  0  0  0  0  0
   -1.3795   -2.5390   -2.4056 H   0  0  0  0  0  0  0  0  0  0  0  0
   -2.0845   -2.8562   -0.1990 H   0  0  0  0  0  0  0  0  0  0  0  0
    0.3309   -3.1479   -0.9323 H   0  0  0  0  0  0  0  0  0  0  0  0
   -0.0507   -3.0841    0.8227 H   0  0  0  0  0  0  0  0  0  0  0  0
    1.3693    0.3899    0.9350 H   0  0  0  0  0  0  0  0  0  0  0  0
    0.7949   -0.8706    2.0311 H   0  0  0  0  0  0  0  0  0  0  0  0
   -0.7798    0.8869    0.1251 H   0  0  0  0  0  0  0  0  0  0  0  0
   -0.9736    0.5466    1.9119 H   0  0  0  0  0  0  0  0  0  0  0  0
   -2.0070   -1.4975    1.5894 H   0  0  0  0  0  0  0  0  0  0  0  0
   -4.1766   -1.1984    1.8000 H   0  0  0  0  0  0  0  0  0  0  0  0
   -6.2803   -0.0490    1.3076 H   0  0  0  0  0  0  0  0  0  0  0  0
   -4.3727    2.1263   -1.8048 H   0  0  0  0  0  0  0  0  0  0  0  0
   -2.2319    0.9700   -1.3121 H   0  0  0  0  0  0  0  0  0  0  0  0
    1.5376   -1.0412   -1.9293 H   0  0  0  0  0  0  0  0  0  0  0  0
    2.5586   -2.1885   -0.9820 H   0  0  0  0  0  0  0  0  0  0  0  0
    4.8373   -2.1747   -0.2417 H   0  0  0  0  0  0  0  0  0  0  0  0
    3.6468   -2.0806    1.1382 H   0  0  0  0  0  0  0  0  0  0  0  0
    5.2966   -1.4158    1.3898 H   0  0  0  0  0  0  0  0  0  0  0  0
    6.4201    0.5808    1.4082 H   0  0  0  0  0  0  0  0  0  0  0  0
    6.9653    3.0295    1.3359 H   0  0  0  0  0  0  0  0  0  0  0  0
    5.4815    4.6124    0.2172 H   0  0  0  0  0  0  0  0  0  0  0  0
  1  2  1  0
  2  3  1  0
  3  4  1  0
  4  5  1  0
  5  6  1  0
  6  7  1  0
  7  8  1  0
  8  9  2  0
  9 10  1  0
 10 11  2  0
 11 12  1  0
 12 13  2  0
 11 14  1  0
 14 15  1  0
 14 16  1  0
 14 17  1  0
  4 18  1  0
 18 19  1  0
 19 20  2  0
 20 21  1  0
 21 22  2  0
 22 23  1  0
 23 24  1  0
 22 25  1  0
 25 26  2  0
 26 27  1  0
 27 28  2  0
  7  2  1  0
 13  8  1  0
 23 19  1  0
 28 21  1  0
  1 29  1  0
  1 30  1  0
  1 31  1  0
  2 32  1  1
  3 33  1  0
  3 34  1  0
  5 35  1  0
  5 36  1  0
  6 37  1  0
  6 38  1  0
  7 39  1  1
  9 40  1  0
 10 41  1  0
 12 42  1  0
 13 43  1  0
 18 44  1  0
 18 45  1  0
 24 46  1  0
 24 47  1  0
 24 48  1  0
 25 49  1  0
 26 50  1  0
 27 51  1  0
M  END
>  <Ligand ID>  (1) 
LIG0005539

>  <Ligand>  (1) 
CHEMBL1774227

>  <SMILES>  (1) 
C[C@H]1CN(CC[C@H]1c1ccc(cc1)C(F)(F)F)Cc1nc2c(n1C)cccn2

>  <CID>  (1) 
51357934.0

>  <ChEMBL ID>  (1) 
nan

>  <InChiKey>  (1) 
IORJDNYKXIMYCK-WMLDXEAASA-N

>  <InChi>  (1) 
InChI=1S/C21H23F3N4/c1-14-12-28(13-19-26-20-18(27(19)2)4-3-10-25-20)11-9-17(14)15-5-7-16(8-6-15)21(22,23)24/h3-8,10,14,17H,9,11-13H2,1-2H3/t14-,17+/m0/s1

>  <IUPAC Name>  (1) 
1-methyl-2-[[(3R,4R)-3-methyl-4-[4-(trifluoromethyl)phenyl]piperidin-1-yl]methyl]imidazo[4,5-b]pyridine

$$$$
