
     RDKit          3D

 22 21  0  0  0  0  0  0  0  0999 V2000
    3.1023    0.5206    0.3421 C   0  0  0  0  0  0  0  0  0  0  0  0
    2.3003   -0.6015   -0.2402 C   0  0  0  0  0  0  0  0  0  0  0  0
    0.8389   -0.2237   -0.4304 C   0  0  0  0  0  0  0  0  0  0  0  0
    0.1787    0.1490    0.8516 C   0  0  0  0  0  0  0  0  0  0  0  0
   -1.2413    0.5164    0.6301 C   0  0  0  0  0  0  0  0  0  0  0  0
   -2.1152   -0.5251    0.0725 C   0  0  0  0  0  0  0  0  0  0  0  0
   -1.7943   -1.6634   -0.1956 O   0  0  0  0  0  0  0  0  0  0  0  0
   -3.5421   -0.1578   -0.1947 C   0  0  0  0  0  0  0  0  0  0  0  0
    4.1355    0.5937   -0.0878 H   0  0  0  0  0  0  0  0  0  0  0  0
    2.6451    1.5176    0.1668 H   0  0  0  0  0  0  0  0  0  0  0  0
    3.2493    0.3819    1.4386 H   0  0  0  0  0  0  0  0  0  0  0  0
    2.4286   -1.5332    0.3480 H   0  0  0  0  0  0  0  0  0  0  0  0
    2.6989   -0.8004   -1.2593 H   0  0  0  0  0  0  0  0  0  0  0  0
    0.2985   -1.0737   -0.8856 H   0  0  0  0  0  0  0  0  0  0  0  0
    0.8120    0.5811   -1.1907 H   0  0  0  0  0  0  0  0  0  0  0  0
    0.1754   -0.7133    1.5796 H   0  0  0  0  0  0  0  0  0  0  0  0
    0.6877    0.9850    1.3783 H   0  0  0  0  0  0  0  0  0  0  0  0
   -1.7194    0.8848    1.5714 H   0  0  0  0  0  0  0  0  0  0  0  0
   -1.3421    1.3913   -0.0824 H   0  0  0  0  0  0  0  0  0  0  0  0
   -3.7517    0.9103   -0.0118 H   0  0  0  0  0  0  0  0  0  0  0  0
   -3.7882   -0.3557   -1.2733 H   0  0  0  0  0  0  0  0  0  0  0  0
   -4.2569   -0.7841    0.3772 H   0  0  0  0  0  0  0  0  0  0  0  0
  1  2  1  0
  2  3  1  0
  3  4  1  0
  4  5  1  0
  5  6  1  0
  6  7  2  0
  6  8  1  0
  1  9  1  0
  1 10  1  0
  1 11  1  0
  2 12  1  0
  2 13  1  0
  3 14  1  0
  3 15  1  0
  4 16  1  0
  4 17  1  0
  5 18  1  0
  5 19  1  0
  8 20  1  0
  8 21  1  0
  8 22  1  0
M  END
>  <Ligand ID>  (1) 
LIG0000017

>  <Ligand>  (1) 
2-heptanone

>  <SMILES>  (1) 
CCCCCC(=O)C

>  <CID>  (1) 
8051.0

>  <ChEMBL ID>  (1) 
nan

>  <InChiKey>  (1) 
CATSNJVOTSVZJV-UHFFFAOYSA-N

>  <InChi>  (1) 
InChI=1S/C7H14O/c1-3-4-5-6-7(2)8/h3-6H2,1-2H3

>  <IUPAC Name>  (1) 
heptan-2-one

$$$$
