
     RDKit          3D

 23 22  0  0  0  0  0  0  0  0999 V2000
   -3.2120    0.3794   -0.1491 C   0  0  0  0  0  0  0  0  0  0  0  0
   -2.3424   -0.2699    0.8801 C   0  0  0  0  0  0  0  0  0  0  0  0
   -1.4344   -1.3253    0.2959 C   0  0  0  0  0  0  0  0  0  0  0  0
   -0.4970   -0.8164   -0.7409 C   0  0  0  0  0  0  0  0  0  0  0  0
    0.4273    0.2327   -0.2769 C   0  0  0  0  0  0  0  0  0  0  0  0
    1.7183    0.0319   -0.3381 C   0  0  0  0  0  0  0  0  0  0  0  0
    2.6607    1.0480    0.1122 C   0  0  0  0  0  0  0  0  0  0  0  0
    2.2617    2.1460    0.5720 O   0  0  0  0  0  0  0  0  0  0  0  0
    4.1265    0.8104    0.0387 C   0  0  0  0  0  0  0  0  0  0  0  0
   -2.6751    0.8489   -0.9821 H   0  0  0  0  0  0  0  0  0  0  0  0
   -4.0013   -0.3152   -0.5500 H   0  0  0  0  0  0  0  0  0  0  0  0
   -3.7690    1.1985    0.3738 H   0  0  0  0  0  0  0  0  0  0  0  0
   -1.8217    0.4990    1.4464 H   0  0  0  0  0  0  0  0  0  0  0  0
   -3.0365   -0.8348    1.5608 H   0  0  0  0  0  0  0  0  0  0  0  0
   -0.9054   -1.8987    1.0827 H   0  0  0  0  0  0  0  0  0  0  0  0
   -2.0847   -2.0766   -0.2134 H   0  0  0  0  0  0  0  0  0  0  0  0
    0.0586   -1.6932   -1.1334 H   0  0  0  0  0  0  0  0  0  0  0  0
   -1.1210   -0.4619   -1.6076 H   0  0  0  0  0  0  0  0  0  0  0  0
    0.0006    1.1453    0.1035 H   0  0  0  0  0  0  0  0  0  0  0  0
    2.0972   -0.9022   -0.7286 H   0  0  0  0  0  0  0  0  0  0  0  0
    4.3739   -0.1384   -0.4561 H   0  0  0  0  0  0  0  0  0  0  0  0
    4.6234    1.6312   -0.5426 H   0  0  0  0  0  0  0  0  0  0  0  0
    4.5522    0.7613    1.0782 H   0  0  0  0  0  0  0  0  0  0  0  0
  1  2  1  0
  2  3  1  0
  3  4  1  0
  4  5  1  0
  5  6  2  0
  6  7  1  0
  7  8  2  0
  7  9  1  0
  1 10  1  0
  1 11  1  0
  1 12  1  0
  2 13  1  0
  2 14  1  0
  3 15  1  0
  3 16  1  0
  4 17  1  0
  4 18  1  0
  5 19  1  0
  6 20  1  0
  9 21  1  0
  9 22  1  0
  9 23  1  0
M  END
>  <Ligand ID>  (1) 
LIG0000316

>  <Ligand>  (1) 
3-Octen-2-one

>  <SMILES>  (1) 
CCCC/C=C/C(=O)C

>  <CID>  (1) 
5363229.0

>  <ChEMBL ID>  (1) 
nan

>  <InChiKey>  (1) 
ZCFOBLITZWHNNC-VOTSOKGWSA-N

>  <InChi>  (1) 
InChI=1S/C8H14O/c1-3-4-5-6-7-8(2)9/h6-7H,3-5H2,1-2H3/b7-6+

>  <IUPAC Name>  (1) 
(E)-oct-3-en-2-one

$$$$
