
     RDKit          3D

 26 27  0  0  0  0  0  0  0  0999 V2000
   -2.7093    0.2460   -0.7386 C   0  0  0  0  0  0  0  0  0  0  0  0
   -2.3219   -0.7741    0.2958 C   0  0  1  0  0  0  0  0  0  0  0  0
   -1.2554   -0.2024    1.1699 C   0  0  0  0  0  0  0  0  0  0  0  0
   -0.0248    0.1827    0.4575 C   0  0  0  0  0  0  0  0  0  0  0  0
    0.1854    1.4382   -0.0805 C   0  0  0  0  0  0  0  0  0  0  0  0
    1.3673    1.7258   -0.7359 C   0  0  0  0  0  0  0  0  0  0  0  0
    2.3408    0.7480   -0.8506 C   0  0  0  0  0  0  0  0  0  0  0  0
    2.1497   -0.5175   -0.3181 C   0  0  0  0  0  0  0  0  0  0  0  0
    0.9661   -0.7987    0.3358 C   0  0  0  0  0  0  0  0  0  0  0  0
    3.3087   -1.2648   -0.6006 O   0  0  0  0  0  0  0  0  0  0  0  0
    4.3722   -0.3314   -0.8413 C   0  0  0  0  0  0  0  0  0  0  0  0
    3.6052    0.7246   -1.4359 O   0  0  0  0  0  0  0  0  0  0  0  0
   -3.4808   -1.0681    1.1186 N   0  0  0  0  0  0  0  0  0  0  0  0
   -3.4339   -0.2711   -1.4283 H   0  0  0  0  0  0  0  0  0  0  0  0
   -3.2140    1.1242   -0.2504 H   0  0  0  0  0  0  0  0  0  0  0  0
   -1.8150    0.5840   -1.2673 H   0  0  0  0  0  0  0  0  0  0  0  0
   -2.0595   -1.6913   -0.2202 H   0  0  0  0  0  0  0  0  0  0  0  0
   -1.6462    0.6827    1.6962 H   0  0  0  0  0  0  0  0  0  0  0  0
   -1.0186   -0.9584    1.9631 H   0  0  0  0  0  0  0  0  0  0  0  0
   -0.5887    2.1989    0.0166 H   0  0  0  0  0  0  0  0  0  0  0  0
    1.5473    2.7165   -1.1670 H   0  0  0  0  0  0  0  0  0  0  0  0
    0.8470   -1.7784    0.7345 H   0  0  0  0  0  0  0  0  0  0  0  0
    5.1568   -0.7170   -1.4884 H   0  0  0  0  0  0  0  0  0  0  0  0
    4.7100   -0.0287    0.1824 H   0  0  0  0  0  0  0  0  0  0  0  0
   -3.1563   -1.7629    1.8389 H   0  0  0  0  0  0  0  0  0  0  0  0
   -3.8323   -0.2066    1.6141 H   0  0  0  0  0  0  0  0  0  0  0  0
  1  2  1  0
  2  3  1  0
  3  4  1  0
  4  5  2  0
  5  6  1  0
  6  7  2  0
  7  8  1  0
  8  9  2  0
  8 10  1  0
 10 11  1  0
 11 12  1  0
  2 13  1  0
  9  4  1  0
 12  7  1  0
  1 14  1  0
  1 15  1  0
  1 16  1  0
  2 17  1  6
  3 18  1  0
  3 19  1  0
  5 20  1  0
  6 21  1  0
  9 22  1  0
 11 23  1  0
 11 24  1  0
 13 25  1  0
 13 26  1  0
M  END
>  <Ligand ID>  (1) 
LIG0005211

>  <Ligand>  (1) 
(S)-Mda

>  <SMILES>  (1) 
C[C@@H](Cc1ccc2c(c1)OCO2)N

>  <CID>  (1) 
3050061.0

>  <ChEMBL ID>  (1) 
nan

>  <InChiKey>  (1) 
NGBBVGZWCFBOGO-ZETCQYMHSA-N

>  <InChi>  (1) 
InChI=1S/C10H13NO2/c1-7(11)4-8-2-3-9-10(5-8)13-6-12-9/h2-3,5,7H,4,6,11H2,1H3/t7-/m0/s1

>  <IUPAC Name>  (1) 
(2S)-1-(1,3-benzodioxol-5-yl)propan-2-amine

$$$$
