
     RDKit          3D

206214  0  0  0  0  0  0  0  0999 V2000
  -11.2686    2.5760    2.4323 N   0  0  0  0  0  0  0  0  0  0  0  0
  -10.6783    2.7985    1.1450 C   0  0  0  0  0  0  0  0  0  0  0  0
  -11.0888    3.7951    0.4849 N   0  0  0  0  0  0  0  0  0  0  0  0
   -9.6459    1.8841    0.6739 N   0  0  0  0  0  0  0  0  0  0  0  0
   -8.7021    2.4399   -0.2607 C   0  0  0  0  0  0  0  0  0  0  0  0
   -7.8662    3.4458    0.4495 C   0  0  0  0  0  0  0  0  0  0  0  0
   -6.9434    3.0710    1.5303 C   0  0  0  0  0  0  0  0  0  0  0  0
   -5.7119    2.3189    1.3211 C   0  0  2  0  0  0  0  0  0  0  0  0
   -5.0190    3.1124    0.2971 N   0  0  0  0  0  0  0  0  0  0  0  0
   -3.9898    3.4918   -0.1430 C   0  0  0  0  0  0  0  0  0  0  0  0
   -4.0720    4.3510   -1.3155 O   0  0  0  0  0  0  0  0  0  0  0  0
   -2.5631    3.2807    0.2482 C   0  0  1  0  0  0  0  0  0  0  0  0
   -2.1549    1.9020   -0.0060 C   0  0  0  0  0  0  0  0  0  0  0  0
   -2.5089    1.1749   -1.5973 S   0  0  0  0  0  0  0  0  0  0  0  0
   -4.2656    0.9613   -1.9700 C   0  0  0  0  0  0  0  0  0  0  0  0
   -5.0396    0.0970   -1.1365 C   0  0  0  0  0  0  0  0  0  0  0  0
   -5.2258   -1.0882   -1.6121 O   0  0  0  0  0  0  0  0  0  0  0  0
   -5.7183    0.0785    0.1169 N   0  0  0  0  0  0  0  0  0  0  0  0
   -5.4292    0.9071    1.2327 C   0  0  0  0  0  0  0  0  0  0  0  0
   -6.5640   -1.1302    0.4347 C   0  0  1  0  0  0  0  0  0  0  0  0
   -7.7087   -1.1829   -0.4973 C   0  0  0  0  0  0  0  0  0  0  0  0
   -8.5986   -2.3765   -0.3151 C   0  0  0  0  0  0  0  0  0  0  0  0
   -9.6994   -2.4634    0.5466 C   0  0  0  0  0  0  0  0  0  0  0  0
  -10.2357   -3.6813    0.5052 N   0  0  0  0  0  0  0  0  0  0  0  0
   -9.5380   -4.4432   -0.3639 C   0  0  0  0  0  0  0  0  0  0  0  0
   -8.5148   -3.6252   -0.8759 C   0  0  0  0  0  0  0  0  0  0  0  0
   -7.6753   -4.1726   -1.8079 C   0  0  0  0  0  0  0  0  0  0  0  0
   -7.8385   -5.4779   -2.2143 C   0  0  0  0  0  0  0  0  0  0  0  0
   -8.8587   -6.2709   -1.6923 C   0  0  0  0  0  0  0  0  0  0  0  0
   -9.7144   -5.7363   -0.7548 C   0  0  0  0  0  0  0  0  0  0  0  0
   -5.8529   -2.3820    0.5925 C   0  0  0  0  0  0  0  0  0  0  0  0
   -4.6292   -2.6614    0.3228 N   0  0  0  0  0  0  0  0  0  0  0  0
   -3.9973   -3.9539    0.5172 C   0  0  1  0  0  0  0  0  0  0  0  0
   -4.5495   -5.0725   -0.2951 C   0  0  0  0  0  0  0  0  0  0  0  0
   -3.7676   -6.3322    0.0373 C   0  0  0  0  0  0  0  0  0  0  0  0
   -2.8597   -6.3379    0.9549 N   0  0  0  0  0  0  0  0  0  0  0  0
   -4.1123   -7.4561   -0.7153 O   0  0  0  0  0  0  0  0  0  0  0  0
   -2.5271   -3.8718    0.1684 C   0  0  0  0  0  0  0  0  0  0  0  0
   -2.1504   -4.4447   -0.8874 N   0  0  0  0  0  0  0  0  0  0  0  0
   -0.9258   -4.6074   -1.5636 C   0  0  1  0  0  0  0  0  0  0  0  0
   -0.1119   -3.3439   -1.6719 C   0  0  0  0  0  0  0  0  0  0  0  0
   -0.1499   -5.8011   -1.1560 C   0  0  0  0  0  0  0  0  0  0  0  0
    0.9468   -5.9488   -0.6716 N   0  0  0  0  0  0  0  0  0  0  0  0
    2.1264   -5.4680   -0.1872 C   0  0  1  0  0  0  0  0  0  0  0  0
    3.1734   -6.5444    0.1637 C   0  0  0  0  0  0  0  0  0  0  0  0
    2.6385   -7.4531    1.2042 C   0  0  0  0  0  0  0  0  0  0  0  0
    2.7794   -7.1920    2.5481 C   0  0  0  0  0  0  0  0  0  0  0  0
    2.2777   -8.0720    3.5021 C   0  0  0  0  0  0  0  0  0  0  0  0
    1.6203   -9.2360    3.1338 C   0  0  0  0  0  0  0  0  0  0  0  0
    1.4867   -9.4825    1.7640 C   0  0  0  0  0  0  0  0  0  0  0  0
    1.9895   -8.6016    0.8170 C   0  0  0  0  0  0  0  0  0  0  0  0
    2.8078   -4.3956   -1.0025 C   0  0  0  0  0  0  0  0  0  0  0  0
    3.0761   -3.3069   -0.4137 N   0  0  0  0  0  0  0  0  0  0  0  0
    3.7180   -2.1254   -0.9725 C   0  0  1  0  0  0  0  0  0  0  0  0
    2.8535   -0.9700   -0.5526 C   0  0  0  0  0  0  0  0  0  0  0  0
    2.7873   -0.7103    1.2174 S   0  0  0  0  0  0  0  0  0  0  0  0
    4.5189    0.3173    1.9567 S   0  0  0  0  0  0  0  0  0  0  0  0
    4.0305    2.0982    1.9547 C   0  0  0  0  0  0  0  0  0  0  0  0
    3.7151    2.4947    0.5363 C   0  0  1  0  0  0  0  0  0  0  0  0
    3.1627    3.8601    0.4212 C   0  0  0  0  0  0  0  0  0  0  0  0
    2.9423    4.4615    1.5246 O   0  0  0  0  0  0  0  0  0  0  0  0
    2.8691    4.5165   -0.8156 N   0  0  0  0  0  0  0  0  0  0  0  0
    2.3140    5.8410   -0.7101 C   0  0  2  0  0  0  0  0  0  0  0  0
    0.9259    5.8629   -0.1362 C   0  0  0  0  0  0  0  0  0  0  0  0
    0.0671    6.6032   -0.7163 N   0  0  0  0  0  0  0  0  0  0  0  0
   -1.3020    6.7916   -0.3516 C   0  0  1  0  0  0  0  0  0  0  0  0
   -2.0247    5.6046    0.0078 C   0  0  0  0  0  0  0  0  0  0  0  0
   -1.6976    4.3600   -0.1874 N   0  0  0  0  0  0  0  0  0  0  0  0
   -3.2696    5.7737    0.6652 O   0  0  0  0  0  0  0  0  0  0  0  0
   -1.3247    7.9447    0.6204 C   0  0  0  0  0  0  0  0  0  0  0  0
   -2.6110    8.3493    1.1527 C   0  0  0  0  0  0  0  0  0  0  0  0
   -3.1590    7.9105    2.3430 C   0  0  0  0  0  0  0  0  0  0  0  0
   -4.3780    8.3302    2.8070 C   0  0  0  0  0  0  0  0  0  0  0  0
   -5.1286    9.2268    2.0909 C   0  0  0  0  0  0  0  0  0  0  0  0
   -4.6239    9.6911    0.8977 C   0  0  0  0  0  0  0  0  0  0  0  0
   -3.3783    9.2689    0.4139 C   0  0  0  0  0  0  0  0  0  0  0  0
    0.5459    5.1312    0.9691 O   0  0  0  0  0  0  0  0  0  0  0  0
    2.2606    6.3610   -2.1112 C   0  0  0  0  0  0  0  0  0  0  0  0
    2.0886    5.0781   -2.9008 C   0  0  0  0  0  0  0  0  0  0  0  0
    3.0179    4.0958   -2.1933 C   0  0  0  0  0  0  0  0  0  0  0  0
    4.7644    2.2657   -0.4065 N   0  0  0  0  0  0  0  0  0  0  0  0
    5.7246    3.0814   -0.6878 C   0  0  0  0  0  0  0  0  0  0  0  0
    6.7182    2.6682   -1.6906 C   0  0  2  0  0  0  0  0  0  0  0  0
    8.1136    2.6789   -1.1323 C   0  0  0  0  0  0  0  0  0  0  0  0
    8.5749    3.9990   -0.6652 C   0  0  0  0  0  0  0  0  0  0  0  0
    9.1854    4.8282   -1.5972 C   0  0  0  0  0  0  0  0  0  0  0  0
    9.6414    6.0616   -1.1979 C   0  0  0  0  0  0  0  0  0  0  0  0
    9.5300    6.5398    0.0947 C   0  0  0  0  0  0  0  0  0  0  0  0
    8.9223    5.7146    1.0193 C   0  0  0  0  0  0  0  0  0  0  0  0
    8.4584    4.4663    0.6218 C   0  0  0  0  0  0  0  0  0  0  0  0
   10.0239    7.8029    0.4041 O   0  0  0  0  0  0  0  0  0  0  0  0
    6.7371    3.5595   -2.8564 N   0  0  0  0  0  0  0  0  0  0  0  0
    5.7611    4.2845   -0.0387 O   0  0  0  0  0  0  0  0  0  0  0  0
    5.1495   -2.0448   -0.6955 C   0  0  0  0  0  0  0  0  0  0  0  0
    5.7135   -3.0208   -0.1655 N   0  0  0  0  0  0  0  0  0  0  0  0
    6.9267   -3.4967    0.2958 C   0  0  2  0  0  0  0  0  0  0  0  0
    7.7417   -2.5646    1.1278 C   0  0  0  0  0  0  0  0  0  0  0  0
    8.0469   -2.8086    2.3458 N   0  0  0  0  0  0  0  0  0  0  0  0
    8.2312   -1.3459    0.6175 O   0  0  0  0  0  0  0  0  0  0  0  0
    7.8102   -4.0409   -0.8344 C   0  0  0  0  0  0  0  0  0  0  0  0
    9.0900   -4.5819   -0.3980 C   0  0  0  0  0  0  0  0  0  0  0  0
   10.2629   -3.8866   -0.2542 C   0  0  0  0  0  0  0  0  0  0  0  0
   11.4546   -4.4872    0.1531 C   0  0  0  0  0  0  0  0  0  0  0  0
   11.4753   -5.8572    0.4309 C   0  0  0  0  0  0  0  0  0  0  0  0
   10.3032   -6.5643    0.2922 C   0  0  0  0  0  0  0  0  0  0  0  0
    9.1417   -5.9534   -0.1104 C   0  0  0  0  0  0  0  0  0  0  0  0
   12.6532   -6.4725    0.8319 O   0  0  0  0  0  0  0  0  0  0  0  0
    5.9269   -0.9133   -0.9989 O   0  0  0  0  0  0  0  0  0  0  0  0
    3.1251   -4.5988   -2.3405 O   0  0  0  0  0  0  0  0  0  0  0  0
   -0.8918   -7.0263   -1.4044 O   0  0  0  0  0  0  0  0  0  0  0  0
   -1.6132   -3.1981    0.9584 O   0  0  0  0  0  0  0  0  0  0  0  0
   -6.5916   -3.4816    1.1232 O   0  0  0  0  0  0  0  0  0  0  0  0
  -11.4056    3.4093    3.0404 H   0  0  0  0  0  0  0  0  0  0  0  0
  -11.5573    1.6452    2.7871 H   0  0  0  0  0  0  0  0  0  0  0  0
  -10.7816    4.0938   -0.4295 H   0  0  0  0  0  0  0  0  0  0  0  0
   -9.6953    0.9414    1.0635 H   0  0  0  0  0  0  0  0  0  0  0  0
   -9.2714    3.0038   -1.0564 H   0  0  0  0  0  0  0  0  0  0  0  0
   -8.0524    1.7344   -0.7751 H   0  0  0  0  0  0  0  0  0  0  0  0
   -7.3171    4.0931   -0.3181 H   0  0  0  0  0  0  0  0  0  0  0  0
   -8.6319    4.2210    0.8316 H   0  0  0  0  0  0  0  0  0  0  0  0
   -7.5765    2.6323    2.3875 H   0  0  0  0  0  0  0  0  0  0  0  0
   -6.6447    4.0716    2.0173 H   0  0  0  0  0  0  0  0  0  0  0  0
   -5.0194    2.6063    2.2728 H   0  0  0  0  0  0  0  0  0  0  0  0
   -4.9418    4.4273   -1.8161 H   0  0  0  0  0  0  0  0  0  0  0  0
   -2.5961    3.4351    1.3883 H   0  0  0  0  0  0  0  0  0  0  0  0
   -1.0144    1.8755    0.0796 H   0  0  0  0  0  0  0  0  0  0  0  0
   -2.4713    1.2090    0.8386 H   0  0  0  0  0  0  0  0  0  0  0  0
   -4.2276    0.4349   -3.0159 H   0  0  0  0  0  0  0  0  0  0  0  0
   -4.6736    1.9536   -2.2693 H   0  0  0  0  0  0  0  0  0  0  0  0
   -6.1410    0.5017    2.1273 H   0  0  0  0  0  0  0  0  0  0  0  0
   -4.4735    0.5857    1.7730 H   0  0  0  0  0  0  0  0  0  0  0  0
   -7.0283   -0.9316    1.4511 H   0  0  0  0  0  0  0  0  0  0  0  0
   -7.4499   -1.1616   -1.5893 H   0  0  0  0  0  0  0  0  0  0  0  0
   -8.3829   -0.3371   -0.2759 H   0  0  0  0  0  0  0  0  0  0  0  0
  -10.0237   -1.5891    1.1389 H   0  0  0  0  0  0  0  0  0  0  0  0
  -11.0841   -3.9975    1.0678 H   0  0  0  0  0  0  0  0  0  0  0  0
   -6.8901   -3.5741   -2.2212 H   0  0  0  0  0  0  0  0  0  0  0  0
   -7.1952   -5.9451   -2.9469 H   0  0  0  0  0  0  0  0  0  0  0  0
   -9.0261   -7.2899   -1.9790 H   0  0  0  0  0  0  0  0  0  0  0  0
  -10.5344   -6.3030   -0.3061 H   0  0  0  0  0  0  0  0  0  0  0  0
   -4.0474   -4.1571    1.6015 H   0  0  0  0  0  0  0  0  0  0  0  0
   -4.3106   -4.9346   -1.3925 H   0  0  0  0  0  0  0  0  0  0  0  0
   -5.6143   -5.2599   -0.2462 H   0  0  0  0  0  0  0  0  0  0  0  0
   -2.3261   -7.2359    1.1705 H   0  0  0  0  0  0  0  0  0  0  0  0
   -3.6022   -8.3306   -0.5794 H   0  0  0  0  0  0  0  0  0  0  0  0
   -1.1362   -4.8497   -2.6867 H   0  0  0  0  0  0  0  0  0  0  0  0
    0.6130   -3.4788   -2.5048 H   0  0  0  0  0  0  0  0  0  0  0  0
    0.3279   -3.0317   -0.7320 H   0  0  0  0  0  0  0  0  0  0  0  0
   -0.8726   -2.5677   -2.0322 H   0  0  0  0  0  0  0  0  0  0  0  0
    1.9237   -5.0061    0.8390 H   0  0  0  0  0  0  0  0  0  0  0  0
    3.9987   -5.9719    0.6233 H   0  0  0  0  0  0  0  0  0  0  0  0
    3.5054   -7.1052   -0.7099 H   0  0  0  0  0  0  0  0  0  0  0  0
    3.2888   -6.2891    2.8340 H   0  0  0  0  0  0  0  0  0  0  0  0
    2.3876   -7.8667    4.5571 H   0  0  0  0  0  0  0  0  0  0  0  0
    1.2253   -9.9377    3.8495 H   0  0  0  0  0  0  0  0  0  0  0  0
    0.9793  -10.3745    1.4672 H   0  0  0  0  0  0  0  0  0  0  0  0
    1.8792   -8.8163   -0.2186 H   0  0  0  0  0  0  0  0  0  0  0  0
    3.5687   -2.2175   -2.0893 H   0  0  0  0  0  0  0  0  0  0  0  0
    3.1179   -0.0641   -1.1378 H   0  0  0  0  0  0  0  0  0  0  0  0
    1.8098   -1.2152   -0.8817 H   0  0  0  0  0  0  0  0  0  0  0  0
    4.8642    2.6551    2.3978 H   0  0  0  0  0  0  0  0  0  0  0  0
    3.1507    2.2322    2.6076 H   0  0  0  0  0  0  0  0  0  0  0  0
    2.8530    1.8018    0.1931 H   0  0  0  0  0  0  0  0  0  0  0  0
    2.9962    6.4418   -0.0569 H   0  0  0  0  0  0  0  0  0  0  0  0
   -1.8048    7.1615   -1.3262 H   0  0  0  0  0  0  0  0  0  0  0  0
   -3.5478    5.2152    1.4598 H   0  0  0  0  0  0  0  0  0  0  0  0
   -0.9245    8.8240    0.0242 H   0  0  0  0  0  0  0  0  0  0  0  0
   -0.5513    7.8272    1.4251 H   0  0  0  0  0  0  0  0  0  0  0  0
   -2.5412    7.1925    2.9073 H   0  0  0  0  0  0  0  0  0  0  0  0
   -4.7857    7.9650    3.7646 H   0  0  0  0  0  0  0  0  0  0  0  0
   -6.0962    9.5860    2.4172 H   0  0  0  0  0  0  0  0  0  0  0  0
   -5.1710   10.3956    0.2924 H   0  0  0  0  0  0  0  0  0  0  0  0
   -2.9769    9.6224   -0.5210 H   0  0  0  0  0  0  0  0  0  0  0  0
    0.0077    5.5458    1.6863 H   0  0  0  0  0  0  0  0  0  0  0  0
    1.4033    7.0409   -2.2728 H   0  0  0  0  0  0  0  0  0  0  0  0
    3.1776    6.9003   -2.3695 H   0  0  0  0  0  0  0  0  0  0  0  0
    2.4629    5.2684   -3.9060 H   0  0  0  0  0  0  0  0  0  0  0  0
    1.0466    4.7765   -2.8953 H   0  0  0  0  0  0  0  0  0  0  0  0
    4.0503    4.2832   -2.5583 H   0  0  0  0  0  0  0  0  0  0  0  0
    2.7133    3.0516   -2.2965 H   0  0  0  0  0  0  0  0  0  0  0  0
    6.5069    1.6563   -2.1015 H   0  0  0  0  0  0  0  0  0  0  0  0
    8.7823    2.2942   -1.9452 H   0  0  0  0  0  0  0  0  0  0  0  0
    8.2184    1.9215   -0.3109 H   0  0  0  0  0  0  0  0  0  0  0  0
    9.3120    4.5286   -2.6350 H   0  0  0  0  0  0  0  0  0  0  0  0
   10.1286    6.7390   -1.9121 H   0  0  0  0  0  0  0  0  0  0  0  0
    8.8110    6.0559    2.0442 H   0  0  0  0  0  0  0  0  0  0  0  0
    7.9946    3.8554    1.3855 H   0  0  0  0  0  0  0  0  0  0  0  0
    9.9663    8.5318   -0.3069 H   0  0  0  0  0  0  0  0  0  0  0  0
    6.9070    4.5266   -2.4801 H   0  0  0  0  0  0  0  0  0  0  0  0
    7.5005    3.2117   -3.4607 H   0  0  0  0  0  0  0  0  0  0  0  0
    5.5824    4.3925    0.9495 H   0  0  0  0  0  0  0  0  0  0  0  0
    6.7294   -4.4198    0.9288 H   0  0  0  0  0  0  0  0  0  0  0  0
    8.6087   -2.1735    2.9345 H   0  0  0  0  0  0  0  0  0  0  0  0
    8.4029   -0.5726    1.2351 H   0  0  0  0  0  0  0  0  0  0  0  0
    7.9273   -3.1955   -1.5668 H   0  0  0  0  0  0  0  0  0  0  0  0
    7.2550   -4.8410   -1.3964 H   0  0  0  0  0  0  0  0  0  0  0  0
   10.2615   -2.8253   -0.4655 H   0  0  0  0  0  0  0  0  0  0  0  0
   12.3630   -3.9320    0.2612 H   0  0  0  0  0  0  0  0  0  0  0  0
   10.3245   -7.6278    0.5052 H   0  0  0  0  0  0  0  0  0  0  0  0
    8.2420   -6.5787   -0.2048 H   0  0  0  0  0  0  0  0  0  0  0  0
   12.7115   -7.4731    0.8873 H   0  0  0  0  0  0  0  0  0  0  0  0
    6.7480   -1.0145   -1.5895 H   0  0  0  0  0  0  0  0  0  0  0  0
    3.8392   -4.0704   -2.8306 H   0  0  0  0  0  0  0  0  0  0  0  0
   -0.6458   -7.8317   -0.8322 H   0  0  0  0  0  0  0  0  0  0  0  0
   -0.7236   -3.6493    1.2470 H   0  0  0  0  0  0  0  0  0  0  0  0
   -6.1715   -4.1769    1.7290 H   0  0  0  0  0  0  0  0  0  0  0  0
  1  2  1  0
  2  3  2  3
  2  4  1  0
  4  5  1  0
  5  6  1  0
  6  7  1  0
  7  8  1  0
  8  9  1  0
  9 10  2  3
 10 11  1  0
 10 12  1  0
 12 13  1  0
 13 14  1  0
 14 15  1  0
 15 16  1  0
 16 17  2  0
 16 18  1  0
 18 19  1  0
 18 20  1  0
 20 21  1  0
 21 22  1  0
 22 23  2  0
 23 24  1  0
 24 25  1  0
 25 26  2  0
 26 27  1  0
 27 28  2  0
 28 29  1  0
 29 30  2  0
 20 31  1  0
 31 32  2  3
 32 33  1  0
 33 34  1  0
 34 35  1  0
 35 36  2  3
 35 37  1  0
 33 38  1  0
 38 39  2  3
 39 40  1  0
 40 41  1  0
 40 42  1  0
 42 43  2  3
 43 44  1  0
 44 45  1  0
 45 46  1  0
 46 47  2  0
 47 48  1  0
 48 49  2  0
 49 50  1  0
 50 51  2  0
 44 52  1  0
 52 53  2  3
 53 54  1  0
 54 55  1  0
 55 56  1  0
 56 57  1  0
 57 58  1  0
 58 59  1  0
 59 60  1  0
 60 61  2  0
 60 62  1  0
 62 63  1  0
 63 64  1  0
 64 65  2  3
 65 66  1  0
 66 67  1  0
 67 68  2  3
 67 69  1  0
 66 70  1  0
 70 71  1  0
 71 72  2  0
 72 73  1  0
 73 74  2  0
 74 75  1  0
 75 76  2  0
 64 77  1  0
 63 78  1  0
 78 79  1  0
 79 80  1  0
 59 81  1  0
 81 82  2  3
 82 83  1  0
 83 84  1  0
 84 85  1  0
 85 86  2  0
 86 87  1  0
 87 88  2  0
 88 89  1  0
 89 90  2  0
 88 91  1  0
 83 92  1  0
 82 93  1  0
 54 94  1  0
 94 95  2  3
 95 96  1  0
 96 97  1  0
 97 98  2  3
 97 99  1  0
 96100  1  0
100101  1  0
101102  2  0
102103  1  0
103104  2  0
104105  1  0
105106  2  0
104107  1  0
 94108  1  0
 52109  1  0
 42110  1  0
 38111  1  0
 31112  1  0
 19  8  1  0
 26 22  1  0
 51 46  1  0
 80 62  1  0
 90 85  1  0
106101  1  0
 68 12  1  0
 76 71  1  0
 30 25  1  0
  1113  1  0
  1114  1  0
  3115  1  0
  4116  1  0
  5117  1  0
  5118  1  0
  6119  1  0
  6120  1  0
  7121  1  0
  7122  1  0
  8123  1  1
 11124  1  0
 12125  1  1
 13126  1  0
 13127  1  0
 15128  1  0
 15129  1  0
 19130  1  0
 19131  1  0
 20132  1  1
 21133  1  0
 21134  1  0
 23135  1  0
 24136  1  0
 27137  1  0
 28138  1  0
 29139  1  0
 30140  1  0
 33141  1  1
 34142  1  0
 34143  1  0
 36144  1  0
 37145  1  0
 40146  1  6
 41147  1  0
 41148  1  0
 41149  1  0
 44150  1  1
 45151  1  0
 45152  1  0
 47153  1  0
 48154  1  0
 49155  1  0
 50156  1  0
 51157  1  0
 54158  1  6
 55159  1  0
 55160  1  0
 58161  1  0
 58162  1  0
 59163  1  6
 63164  1  1
 66165  1  6
 69166  1  0
 70167  1  0
 70168  1  0
 72169  1  0
 73170  1  0
 74171  1  0
 75172  1  0
 76173  1  0
 77174  1  0
 78175  1  0
 78176  1  0
 79177  1  0
 79178  1  0
 80179  1  0
 80180  1  0
 83181  1  6
 84182  1  0
 84183  1  0
 86184  1  0
 87185  1  0
 89186  1  0
 90187  1  0
 91188  1  0
 92189  1  0
 92190  1  0
 93191  1  0
 96192  1  1
 98193  1  0
 99194  1  0
100195  1  0
100196  1  0
102197  1  0
103198  1  0
105199  1  0
106200  1  0
107201  1  0
108202  1  0
109203  1  0
110204  1  0
111205  1  0
112206  1  0
M  END
>  <Ligand ID>  (1) 
LIG0001115

>  <Ligand>  (1) 
CID 102096774

>  <SMILES>  (1) 
NC(=N)NCCC[C@@H]1N=C(O)[C@H]2CSCC(=O)N(C1)[C@@H](Cc1c[nH]c3c1cccc3)C(=N[C@@H](CC(=N)O)C(=N[C@@H](C)C(=N[C@@H](Cc1ccccc1)C(=N[C@@H](CSSC[C@@H](C(=O)N1[C@H](C(=N[C@@H](C(=N2)O)Cc2ccccc2)O)CCC1)N=C([C@H](Cc1ccc(cc1)O)N)O)C(=N[C@H](C(=N)O)Cc1ccc(cc1)O)O)O)O)O)O

>  <CID>  (1) 
102096774.0

>  <ChEMBL ID>  (1) 
nan

>  <InChiKey>  (1) 
PRYYHHFRVDNBGC-HOFFULRPSA-N

>  <InChi>  (1) 
InChI=1S/C76H94N18O15S3/c1-42-66(100)87-55(32-43-12-4-2-5-13-43)69(103)91-59(72(106)86-54(65(79)99)31-46-22-26-50(96)27-23-46)39-111-112-40-60(92-67(101)52(77)30-45-20-24-49(95)25-21-45)75(109)93-29-11-19-61(93)73(107)88-56(33-44-14-6-3-7-15-44)70(104)90-58-38-110-41-64(98)94(37-48(85-71(58)105)16-10-28-82-76(80)81)62(34-47-36-83-53-18-9-8-17-51(47)53)74(108)89-57(35-63(78)97)68(102)84-42/h2-9,12-15,17-18,20-27,36,42,48,52,54-62,83,95-96H,10-11,16,19,28-35,37-41,77H2,1H3,(H2,78,97)(H2,79,99)(H,84,102)(H,85,105)(H,86,106)(H,87,100)(H,88,107)(H,89,108)(H,90,104)(H,91,103)(H,92,101)(H4,80,81,82)/t42-,48-,52-,54-,55-,56+,57-,58+,59-,60-,61-,62-/m0/s1

>  <IUPAC Name>  (1) 
(1S,4R,7S,13R,18R,21S,24S,27S,30S,38S)-13-[[(2S)-2-amino-1-hydroxy-3-(4-hydroxyphenyl)propylidene]amino]-4,21-dibenzyl-38-(3-carbamimidamidopropyl)-3,6,20,23,26,29,36-heptahydroxy-N-[(2S)-1-hydroxy-3-(4-hydroxyphenyl)-1-iminopropan-2-yl]-27-(2-hydroxy-2-iminoethyl)-30-(1H-indol-3-ylmethyl)-24-methyl-12,32-dioxo-15,16,34-trithia-2,5,11,19,22,25,28,31,37-nonazatricyclo[29.4.4.07,11]nonatriaconta-2,5,19,22,25,28,36-heptaene-18-carboximidic acid

$$$$
