
     RDKit          3D

 22 22  0  0  0  0  0  0  0  0999 V2000
    4.1280    0.2379    0.0101 C   0  0  0  0  0  0  0  0  0  0  0  0
    2.8462   -0.5095    0.1923 C   0  0  0  0  0  0  0  0  0  0  0  0
    2.8427   -1.6678    0.7291 O   0  0  0  0  0  0  0  0  0  0  0  0
    1.6433    0.0628   -0.2275 O   0  0  0  0  0  0  0  0  0  0  0  0
    0.4638   -0.6966   -0.0266 C   0  0  0  0  0  0  0  0  0  0  0  0
   -0.7613    0.0330   -0.5222 C   0  0  0  0  0  0  0  0  0  0  0  0
   -1.9674   -0.8263   -0.1232 C   0  0  0  0  0  0  0  0  0  0  0  0
   -3.0574    0.2217   -0.2163 C   0  0  0  0  0  0  0  0  0  0  0  0
   -2.3336    1.4731    0.1460 C   0  0  0  0  0  0  0  0  0  0  0  0
   -0.9697    1.2353    0.1018 O   0  0  0  0  0  0  0  0  0  0  0  0
    4.2944    0.4288   -1.0523 H   0  0  0  0  0  0  0  0  0  0  0  0
    4.9556   -0.3860    0.3920 H   0  0  0  0  0  0  0  0  0  0  0  0
    4.1381    1.1563    0.6406 H   0  0  0  0  0  0  0  0  0  0  0  0
    0.5923   -1.6133   -0.6321 H   0  0  0  0  0  0  0  0  0  0  0  0
    0.3576   -0.8974    1.0456 H   0  0  0  0  0  0  0  0  0  0  0  0
   -0.6979    0.1893   -1.6035 H   0  0  0  0  0  0  0  0  0  0  0  0
   -2.1118   -1.6804   -0.7840 H   0  0  0  0  0  0  0  0  0  0  0  0
   -1.7963   -1.0942    0.9457 H   0  0  0  0  0  0  0  0  0  0  0  0
   -3.9045    0.0217    0.4902 H   0  0  0  0  0  0  0  0  0  0  0  0
   -3.4267    0.2910   -1.2567 H   0  0  0  0  0  0  0  0  0  0  0  0
   -2.5877    1.7326    1.1949 H   0  0  0  0  0  0  0  0  0  0  0  0
   -2.6478    2.2879   -0.5451 H   0  0  0  0  0  0  0  0  0  0  0  0
  1  2  1  0
  2  3  2  0
  2  4  1  0
  4  5  1  0
  5  6  1  0
  6  7  1  0
  7  8  1  0
  8  9  1  0
  9 10  1  0
 10  6  1  0
  1 11  1  0
  1 12  1  0
  1 13  1  0
  5 14  1  0
  5 15  1  0
  6 16  1  0
  7 17  1  0
  7 18  1  0
  8 19  1  0
  8 20  1  0
  9 21  1  0
  9 22  1  0
M  END
>  <Ligand ID>  (1) 
LIG0001023

>  <Ligand>  (1) 
Tetrahydrofurfuryl acetate

>  <SMILES>  (1) 
CC(=O)OCC1CCCO1

>  <CID>  (1) 
12506.0

>  <ChEMBL ID>  (1) 
nan

>  <InChiKey>  (1) 
AAQDYYFAFXGBFZ-UHFFFAOYSA-N

>  <InChi>  (1) 
InChI=1S/C7H12O3/c1-6(8)10-5-7-3-2-4-9-7/h7H,2-5H2,1H3

>  <IUPAC Name>  (1) 
oxolan-2-ylmethyl acetate

$$$$
