
     RDKit          3D

 61 62  0  0  0  0  0  0  0  0999 V2000
    8.7715    0.3493   -0.5845 C   0  0  0  0  0  0  0  0  0  0  0  0
    8.1192   -0.2057    0.6426 C   0  0  0  0  0  0  0  0  0  0  0  0
    6.6223   -0.3591    0.5129 C   0  0  0  0  0  0  0  0  0  0  0  0
    6.0298    0.9949    0.2427 C   0  0  0  0  0  0  0  0  0  0  0  0
    4.5165    0.9311    0.0975 C   0  0  0  0  0  0  0  0  0  0  0  0
    3.8524    0.4094    1.3214 C   0  0  0  0  0  0  0  0  0  0  0  0
    2.3631    0.3756    1.1393 C   0  0  0  0  0  0  0  0  0  0  0  0
    1.9970   -0.5184    0.0087 C   0  0  0  0  0  0  0  0  0  0  0  0
    0.5193   -0.5948   -0.2019 C   0  0  0  0  0  0  0  0  0  0  0  0
   -0.0591    0.3187   -1.0610 C   0  0  0  0  0  0  0  0  0  0  0  0
   -1.4377    0.2852   -1.2886 C   0  0  0  0  0  0  0  0  0  0  0  0
   -2.2191   -0.6709   -0.6461 C   0  0  0  0  0  0  0  0  0  0  0  0
   -1.6130   -1.5775    0.2124 C   0  0  0  0  0  0  0  0  0  0  0  0
   -0.2499   -1.5460    0.4388 C   0  0  0  0  0  0  0  0  0  0  0  0
   -3.6651   -0.6879   -0.8997 C   0  0  2  0  0  0  0  0  0  0  0  0
   -3.8261   -0.8845   -2.4133 C   0  0  0  0  0  0  0  0  0  0  0  0
   -5.1737   -0.2510   -2.7344 C   0  0  2  0  0  0  0  0  0  0  0  0
   -5.5505    0.4346   -1.5409 N   0  0  0  0  0  0  0  0  0  0  0  0
   -4.3623    0.6124   -0.7184 C   0  0  1  0  0  0  0  0  0  0  0  0
   -4.8494    0.8314    0.7002 C   0  0  0  0  0  0  0  0  0  0  0  0
   -3.7908    1.0165    1.5905 O   0  0  0  0  0  0  0  0  0  0  0  0
   -4.3264    1.2577    3.1718 P   0  0  0  0  0  0  0  0  0  0  0  0
   -4.3945    2.7557    3.4774 O   0  0  0  0  0  0  0  0  0  0  0  0
   -5.7988    0.5115    3.4934 O   0  0  0  0  0  0  0  0  0  0  0  0
   -3.1765    0.6066    4.2287 O   0  0  0  0  0  0  0  0  0  0  0  0
   -6.0853   -1.3926   -3.1167 C   0  0  0  0  0  0  0  0  0  0  0  0
   -7.3869   -0.9971   -3.3353 O   0  0  0  0  0  0  0  0  0  0  0  0
    8.2587   -0.0828   -1.4736 H   0  0  0  0  0  0  0  0  0  0  0  0
    9.8230   -0.0458   -0.6162 H   0  0  0  0  0  0  0  0  0  0  0  0
    8.8510    1.4357   -0.6345 H   0  0  0  0  0  0  0  0  0  0  0  0
    8.3348    0.3990    1.5283 H   0  0  0  0  0  0  0  0  0  0  0  0
    8.5273   -1.2364    0.7992 H   0  0  0  0  0  0  0  0  0  0  0  0
    6.3738   -1.0260   -0.3483 H   0  0  0  0  0  0  0  0  0  0  0  0
    6.2511   -0.8153    1.4448 H   0  0  0  0  0  0  0  0  0  0  0  0
    6.4231    1.3306   -0.7504 H   0  0  0  0  0  0  0  0  0  0  0  0
    6.2600    1.6806    1.0588 H   0  0  0  0  0  0  0  0  0  0  0  0
    4.2718    0.4082   -0.8325 H   0  0  0  0  0  0  0  0  0  0  0  0
    4.1806    1.9812   -0.0405 H   0  0  0  0  0  0  0  0  0  0  0  0
    4.1039    1.0901    2.1808 H   0  0  0  0  0  0  0  0  0  0  0  0
    4.1672   -0.6292    1.5842 H   0  0  0  0  0  0  0  0  0  0  0  0
    1.9021   -0.0340    2.0687 H   0  0  0  0  0  0  0  0  0  0  0  0
    1.9560    1.4071    1.0400 H   0  0  0  0  0  0  0  0  0  0  0  0
    2.3781   -1.5366    0.2570 H   0  0  0  0  0  0  0  0  0  0  0  0
    2.4262   -0.2695   -0.9706 H   0  0  0  0  0  0  0  0  0  0  0  0
    0.5478    1.0626   -1.5611 H   0  0  0  0  0  0  0  0  0  0  0  0
   -1.8192    1.0163   -1.9612 H   0  0  0  0  0  0  0  0  0  0  0  0
   -2.2526   -2.3204    0.7057 H   0  0  0  0  0  0  0  0  0  0  0  0
    0.2174   -2.2697    1.1210 H   0  0  0  0  0  0  0  0  0  0  0  0
   -4.2034   -1.4795   -0.3442 H   0  0  0  0  0  0  0  0  0  0  0  0
   -3.0624   -0.2804   -2.9274 H   0  0  0  0  0  0  0  0  0  0  0  0
   -3.7772   -1.9555   -2.6522 H   0  0  0  0  0  0  0  0  0  0  0  0
   -5.1107    0.4978   -3.5549 H   0  0  0  0  0  0  0  0  0  0  0  0
   -6.2018   -0.1960   -0.9888 H   0  0  0  0  0  0  0  0  0  0  0  0
   -3.8276    1.4778   -1.1037 H   0  0  0  0  0  0  0  0  0  0  0  0
   -5.4630    0.0019    1.0656 H   0  0  0  0  0  0  0  0  0  0  0  0
   -5.4838    1.7373    0.7818 H   0  0  0  0  0  0  0  0  0  0  0  0
   -6.5649    0.9726    3.0575 H   0  0  0  0  0  0  0  0  0  0  0  0
   -2.8193    1.2742    4.8725 H   0  0  0  0  0  0  0  0  0  0  0  0
   -5.9588   -2.2034   -2.3900 H   0  0  0  0  0  0  0  0  0  0  0  0
   -5.7050   -1.7516   -4.1142 H   0  0  0  0  0  0  0  0  0  0  0  0
   -7.8304   -1.6460   -3.9665 H   0  0  0  0  0  0  0  0  0  0  0  0
  1  2  1  0
  2  3  1  0
  3  4  1  0
  4  5  1  0
  5  6  1  0
  6  7  1  0
  7  8  1  0
  8  9  1  0
  9 10  2  0
 10 11  1  0
 11 12  2  0
 12 13  1  0
 13 14  2  0
 12 15  1  0
 15 16  1  0
 16 17  1  0
 17 18  1  0
 18 19  1  0
 19 20  1  0
 20 21  1  0
 21 22  1  0
 22 23  2  0
 22 24  1  0
 22 25  1  0
 17 26  1  0
 26 27  1  0
 14  9  1  0
 19 15  1  0
  1 28  1  0
  1 29  1  0
  1 30  1  0
  2 31  1  0
  2 32  1  0
  3 33  1  0
  3 34  1  0
  4 35  1  0
  4 36  1  0
  5 37  1  0
  5 38  1  0
  6 39  1  0
  6 40  1  0
  7 41  1  0
  7 42  1  0
  8 43  1  0
  8 44  1  0
 10 45  1  0
 11 46  1  0
 13 47  1  0
 14 48  1  0
 15 49  1  1
 16 50  1  0
 16 51  1  0
 17 52  1  6
 18 53  1  0
 19 54  1  6
 20 55  1  0
 20 56  1  0
 24 57  1  0
 25 58  1  0
 26 59  1  0
 26 60  1  0
 27 61  1  0
M  END
>  <Ligand ID>  (1) 
LIG0004232

>  <Ligand>  (1) 
CHEMBL247901

>  <SMILES>  (1) 
CCCCCCCCc1ccc(cc1)[C@@H]1C[C@H](N[C@H]1COP(=O)(O)O)CO

>  <CID>  (1) 
44438262.0

>  <ChEMBL ID>  (1) 
nan

>  <InChiKey>  (1) 
DXYHOMLATOQDGJ-UFYCRDLUSA-N

>  <InChi>  (1) 
InChI=1S/C20H34NO5P/c1-2-3-4-5-6-7-8-16-9-11-17(12-10-16)19-13-18(14-22)21-20(19)15-26-27(23,24)25/h9-12,18-22H,2-8,13-15H2,1H3,(H2,23,24,25)/t18-,19-,20-/m0/s1

>  <IUPAC Name>  (1) 
[(2R,3S,5S)-5-(hydroxymethyl)-3-(4-octylphenyl)pyrrolidin-2-yl]methyl dihydrogen phosphate

$$$$
