
     RDKit          3D

 24 25  0  0  0  0  0  0  0  0999 V2000
   -4.3754    0.5474   -0.6123 C   0  0  0  0  0  0  0  0  0  0  0  0
   -3.4813   -0.4565    0.0273 C   0  0  0  0  0  0  0  0  0  0  0  0
   -3.9714   -1.4119    0.6830 O   0  0  0  0  0  0  0  0  0  0  0  0
   -2.1146   -0.2713   -0.1443 O   0  0  0  0  0  0  0  0  0  0  0  0
   -1.2077   -1.2073    0.4495 C   0  0  0  0  0  0  0  0  0  0  0  0
    0.1647   -0.7457    0.0929 C   0  0  0  0  0  0  0  0  0  0  0  0
    0.8053   -1.1695   -1.0561 C   0  0  0  0  0  0  0  0  0  0  0  0
    2.0922   -0.7030   -1.3388 C   0  0  0  0  0  0  0  0  0  0  0  0
    2.6916    0.1825   -0.4434 C   0  0  0  0  0  0  0  0  0  0  0  0
    2.0364    0.5951    0.6996 C   0  0  0  0  0  0  0  0  0  0  0  0
    0.7673    0.1376    0.9824 C   0  0  0  0  0  0  0  0  0  0  0  0
    2.9039    1.4584    1.3526 O   0  0  0  0  0  0  0  0  0  0  0  0
    4.0712    1.6559    0.5698 C   0  0  0  0  0  0  0  0  0  0  0  0
    3.9495    0.7659   -0.5240 O   0  0  0  0  0  0  0  0  0  0  0  0
   -4.6847    1.2906    0.1749 H   0  0  0  0  0  0  0  0  0  0  0  0
   -5.2908    0.0712   -0.9819 H   0  0  0  0  0  0  0  0  0  0  0  0
   -3.8817    1.1004   -1.4183 H   0  0  0  0  0  0  0  0  0  0  0  0
   -1.4022   -2.2193    0.0299 H   0  0  0  0  0  0  0  0  0  0  0  0
   -1.3641   -1.2485    1.5472 H   0  0  0  0  0  0  0  0  0  0  0  0
    0.3121   -1.8573   -1.7302 H   0  0  0  0  0  0  0  0  0  0  0  0
    2.6179   -1.0231   -2.2393 H   0  0  0  0  0  0  0  0  0  0  0  0
    0.2321    0.4575    1.8898 H   0  0  0  0  0  0  0  0  0  0  0  0
    4.1279    2.6930    0.1676 H   0  0  0  0  0  0  0  0  0  0  0  0
    5.0017    1.3579    1.1099 H   0  0  0  0  0  0  0  0  0  0  0  0
  1  2  1  0
  2  3  2  0
  2  4  1  0
  4  5  1  0
  5  6  1  0
  6  7  2  0
  7  8  1  0
  8  9  2  0
  9 10  1  0
 10 11  2  0
 10 12  1  0
 12 13  1  0
 13 14  1  0
 11  6  1  0
 14  9  1  0
  1 15  1  0
  1 16  1  0
  1 17  1  0
  5 18  1  0
  5 19  1  0
  7 20  1  0
  8 21  1  0
 11 22  1  0
 13 23  1  0
 13 24  1  0
M  END
>  <Ligand ID>  (1) 
LIG0000178

>  <Ligand>  (1) 
Piperonyl acetate

>  <SMILES>  (1) 
CC(=O)OCc1ccc2c(c1)OCO2

>  <CID>  (1) 
9473.0

>  <ChEMBL ID>  (1) 
nan

>  <InChiKey>  (1) 
PFWYHTORQZAGCA-UHFFFAOYSA-N

>  <InChi>  (1) 
InChI=1S/C10H10O4/c1-7(11)12-5-8-2-3-9-10(4-8)14-6-13-9/h2-4H,5-6H2,1H3

>  <IUPAC Name>  (1) 
1,3-benzodioxol-5-ylmethyl acetate

$$$$
