
     RDKit          3D

 83 91  0  0  0  0  0  0  0  0999 V2000
    1.8526   -3.1993    0.9201 C   0  0  0  0  0  0  0  0  0  0  0  0
    1.7167   -1.8638    0.9221 O   0  0  0  0  0  0  0  0  0  0  0  0
    0.5465   -1.2635    0.5902 C   0  0  2  0  0  0  0  0  0  0  0  0
    0.1552   -1.6430   -0.8180 C   0  0  0  0  0  0  0  0  0  0  0  0
   -1.0733   -0.9380   -1.3348 C   0  0  0  0  0  0  0  0  0  0  0  0
   -1.5818   -0.1079   -0.1822 C   0  0  2  0  0  0  0  0  0  0  0  0
   -0.4915    0.8826    0.0292 C   0  0  0  0  0  0  0  0  0  0  0  0
    0.5818    0.2223    0.8472 C   0  0  2  0  0  0  0  0  0  0  0  0
    1.9245    0.8835    0.7980 C   0  0  1  0  0  0  0  0  0  0  0  0
    2.6660    0.7896   -0.4536 C   0  0  0  0  0  0  0  0  0  0  0  0
    3.9898    1.4283   -0.6208 C   0  0  0  0  0  0  0  0  0  0  0  0
    4.4110    1.1082   -2.0805 C   0  0  0  0  0  0  0  0  0  0  0  0
    5.6538    0.2942   -1.9838 C   0  0  0  0  0  0  0  0  0  0  0  0
    5.5163   -0.3510   -0.6181 C   0  0  0  0  0  0  0  0  0  0  0  0
    5.1589    0.9453    0.1180 C   0  0  0  0  0  0  0  0  0  0  0  0
    6.3505    1.8155   -0.3434 C   0  0  0  0  0  0  0  0  0  0  0  0
    6.7829    1.2582   -1.6827 C   0  0  0  0  0  0  0  0  0  0  0  0
    1.6765    2.2546    1.0398 O   0  0  0  0  0  0  0  0  0  0  0  0
    2.7506    0.4124    1.9681 C   0  0  0  0  0  0  0  0  0  0  0  0
   -1.8021   -1.0510    0.9595 C   0  0  2  0  0  0  0  0  0  0  0  0
   -0.5724   -1.7754    1.4557 C   0  0  1  0  0  0  0  0  0  0  0  0
   -0.8679   -3.1443    1.3664 O   0  0  0  0  0  0  0  0  0  0  0  0
   -1.9910   -3.3738    0.5861 C   0  0  0  0  0  0  0  0  0  0  0  0
   -2.5332   -2.1688    0.3193 C   0  0  0  0  0  0  0  0  0  0  0  0
   -3.6454   -1.9086   -0.4220 C   0  0  0  0  0  0  0  0  0  0  0  0
   -4.0384   -0.4999   -0.6367 C   0  0  0  0  0  0  0  0  0  0  0  0
   -2.9446    0.5098   -0.4334 C   0  0  1  0  0  0  0  0  0  0  0  0
   -3.3137    1.3413    0.6441 N   0  0  0  0  0  0  0  0  0  0  0  0
   -2.9429    0.9568    1.9386 C   0  0  0  0  0  0  0  0  0  0  0  0
   -2.6576   -0.5287    2.0759 C   0  0  0  0  0  0  0  0  0  0  0  0
   -3.4966    2.7087    0.4257 C   0  0  0  0  0  0  0  0  0  0  0  0
   -4.7468    2.8841   -0.4412 C   0  0  0  0  0  0  0  0  0  0  0  0
   -5.0426    4.3520   -0.7421 C   0  0  0  0  0  0  0  0  0  0  0  0
   -5.9699    3.4893    0.0862 C   0  0  0  0  0  0  0  0  0  0  0  0
   -4.2993   -2.9979   -0.9610 C   0  0  0  0  0  0  0  0  0  0  0  0
   -3.7873   -4.2798   -0.7184 C   0  0  0  0  0  0  0  0  0  0  0  0
   -2.6416   -4.4823    0.0476 C   0  0  0  0  0  0  0  0  0  0  0  0
   -2.1200   -5.7371    0.2979 O   0  0  0  0  0  0  0  0  0  0  0  0
    1.2527   -3.8162    1.5765 H   0  0  0  0  0  0  0  0  0  0  0  0
    1.8063   -3.5434   -0.1560 H   0  0  0  0  0  0  0  0  0  0  0  0
    2.9353   -3.4179    1.1849 H   0  0  0  0  0  0  0  0  0  0  0  0
    0.9494   -1.5130   -1.5647 H   0  0  0  0  0  0  0  0  0  0  0  0
   -0.0734   -2.7278   -0.8070 H   0  0  0  0  0  0  0  0  0  0  0  0
   -1.7775   -1.5830   -1.8324 H   0  0  0  0  0  0  0  0  0  0  0  0
   -0.7692   -0.1721   -2.1253 H   0  0  0  0  0  0  0  0  0  0  0  0
    0.0276    1.1698   -0.9363 H   0  0  0  0  0  0  0  0  0  0  0  0
   -0.8032    1.8638    0.4388 H   0  0  0  0  0  0  0  0  0  0  0  0
    0.2359    0.4400    1.9003 H   0  0  0  0  0  0  0  0  0  0  0  0
    2.0935    1.1117   -1.3619 H   0  0  0  0  0  0  0  0  0  0  0  0
    2.8339   -0.3175   -0.6885 H   0  0  0  0  0  0  0  0  0  0  0  0
    3.9576    2.5442   -0.5304 H   0  0  0  0  0  0  0  0  0  0  0  0
    3.6598    0.5302   -2.6137 H   0  0  0  0  0  0  0  0  0  0  0  0
    4.5761    2.0544   -2.6242 H   0  0  0  0  0  0  0  0  0  0  0  0
    5.8377   -0.3989   -2.7846 H   0  0  0  0  0  0  0  0  0  0  0  0
    4.7323   -1.1060   -0.5483 H   0  0  0  0  0  0  0  0  0  0  0  0
    6.5155   -0.7323   -0.2738 H   0  0  0  0  0  0  0  0  0  0  0  0
    5.1469    0.8404    1.1834 H   0  0  0  0  0  0  0  0  0  0  0  0
    7.1723    1.7201    0.3986 H   0  0  0  0  0  0  0  0  0  0  0  0
    5.9812    2.8344   -0.4756 H   0  0  0  0  0  0  0  0  0  0  0  0
    6.8601    2.0684   -2.4479 H   0  0  0  0  0  0  0  0  0  0  0  0
    7.7227    0.6691   -1.6119 H   0  0  0  0  0  0  0  0  0  0  0  0
    1.5310    2.7434    0.1852 H   0  0  0  0  0  0  0  0  0  0  0  0
    2.0109    0.0622    2.7686 H   0  0  0  0  0  0  0  0  0  0  0  0
    3.3491   -0.4849    1.7899 H   0  0  0  0  0  0  0  0  0  0  0  0
    3.2637    1.2438    2.4919 H   0  0  0  0  0  0  0  0  0  0  0  0
   -0.3718   -1.5534    2.5316 H   0  0  0  0  0  0  0  0  0  0  0  0
   -4.5258   -0.3644   -1.6461 H   0  0  0  0  0  0  0  0  0  0  0  0
   -4.8696   -0.2962    0.0817 H   0  0  0  0  0  0  0  0  0  0  0  0
   -2.8592    1.1111   -1.3576 H   0  0  0  0  0  0  0  0  0  0  0  0
   -2.1004    1.4897    2.4187 H   0  0  0  0  0  0  0  0  0  0  0  0
   -3.8277    1.1726    2.6098 H   0  0  0  0  0  0  0  0  0  0  0  0
   -3.6475   -1.0292    2.1533 H   0  0  0  0  0  0  0  0  0  0  0  0
   -2.1873   -0.6831    3.0822 H   0  0  0  0  0  0  0  0  0  0  0  0
   -3.5378    3.3335    1.3316 H   0  0  0  0  0  0  0  0  0  0  0  0
   -2.6794    3.1757   -0.2037 H   0  0  0  0  0  0  0  0  0  0  0  0
   -4.7213    2.2215   -1.3365 H   0  0  0  0  0  0  0  0  0  0  0  0
   -5.3451    4.6133   -1.7745 H   0  0  0  0  0  0  0  0  0  0  0  0
   -4.4964    5.1336   -0.1958 H   0  0  0  0  0  0  0  0  0  0  0  0
   -5.9996    3.6632    1.1862 H   0  0  0  0  0  0  0  0  0  0  0  0
   -6.9293    3.1825   -0.4072 H   0  0  0  0  0  0  0  0  0  0  0  0
   -5.1800   -2.8286   -1.5496 H   0  0  0  0  0  0  0  0  0  0  0  0
   -4.3033   -5.1447   -1.1434 H   0  0  0  0  0  0  0  0  0  0  0  0
   -2.6200   -6.5026    0.7205 H   0  0  0  0  0  0  0  0  0  0  0  0
  1  2  1  0
  3  2  1  1
  3  4  1  0
  4  5  1  0
  6  5  1  6
  6  7  1  0
  7  8  1  0
  8  9  1  0
  9 10  1  0
 10 11  1  0
 11 12  1  0
 12 13  1  0
 13 14  1  0
 14 15  1  0
 15 16  1  0
 16 17  1  0
  9 18  1  1
  9 19  1  0
  6 20  1  0
 20 21  1  0
 21 22  1  0
 22 23  1  0
 23 24  2  0
 24 25  1  0
 25 26  1  0
 26 27  1  0
 27 28  1  0
 28 29  1  0
 29 30  1  0
 28 31  1  0
 31 32  1  0
 32 33  1  0
 33 34  1  0
 25 35  2  0
 35 36  1  0
 36 37  2  0
 37 38  1  0
  8  3  1  0
 15 11  1  0
 20 30  1  1
 34 32  1  0
 21  3  1  0
 37 23  1  0
 27  6  1  0
 17 13  1  0
 24 20  1  0
  1 39  1  0
  1 40  1  0
  1 41  1  0
  4 42  1  0
  4 43  1  0
  5 44  1  0
  5 45  1  0
  7 46  1  0
  7 47  1  0
  8 48  1  1
 10 49  1  0
 10 50  1  0
 11 51  1  0
 12 52  1  0
 12 53  1  0
 13 54  1  0
 14 55  1  0
 14 56  1  0
 15 57  1  0
 16 58  1  0
 16 59  1  0
 17 60  1  0
 17 61  1  0
 18 62  1  0
 19 63  1  0
 19 64  1  0
 19 65  1  0
 21 66  1  1
 26 67  1  0
 26 68  1  0
 27 69  1  6
 29 70  1  0
 29 71  1  0
 30 72  1  0
 30 73  1  0
 31 74  1  0
 31 75  1  0
 32 76  1  0
 33 77  1  0
 33 78  1  0
 34 79  1  0
 34 80  1  0
 35 81  1  0
 36 82  1  0
 38 83  1  0
M  END
>  <Ligand ID>  (1) 
LIG0001086

>  <Ligand>  (1) 
CHEMBL1834413

>  <SMILES>  (1) 
CO[C@]12CC[C@]3(C[C@@H]1[C@@](CC1CC4CC1CC4)(O)C)[C@@]14[C@H]2Oc2c4c(C[C@H]3N(CC1)CC1CC1)ccc2O

>  <CID>  (1) 
56658044.0

>  <ChEMBL ID>  (1) 
nan

>  <InChiKey>  (1) 
KMMPJTLXSZEWDK-VAZJWBNESA-N

>  <InChi>  (1) 
InChI=1S/C33H45NO4/c1-30(36,16-23-14-20-5-6-21(23)13-20)25-17-31-9-10-33(25,37-2)29-32(31)11-12-34(18-19-3-4-19)26(31)15-22-7-8-24(35)28(38-29)27(22)32/h7-8,19-21,23,25-26,29,35-36H,3-6,9-18H2,1-2H3/t20?,21?,23?,25-,26-,29-,30-,31-,32+,33-/m1/s1

>  <IUPAC Name>  (1) 
(1S,2S,6R,14R,15R,16R)-16-[(2R)-1-(2-bicyclo[2.2.1]heptanyl)-2-hydroxypropan-2-yl]-5-(cyclopropylmethyl)-15-methoxy-13-oxa-5-azahexacyclo[13.2.2.12,8.01,6.02,14.012,20]icosa-8(20),9,11-trien-11-ol

$$$$
