
     RDKit          3D

 62 63  0  0  0  0  0  0  0  0999 V2000
   -2.4867   -1.7468    0.1879 O   0  0  0  0  0  0  0  0  0  0  0  0
   -2.7017   -0.6058    0.9728 C   0  0  1  0  0  0  0  0  0  0  0  0
   -3.3707   -1.1266    2.2333 C   0  0  0  0  0  0  0  0  0  0  0  0
   -4.5615   -1.7335    1.9514 O   0  0  0  0  0  0  0  0  0  0  0  0
   -5.6984   -1.2010    1.4700 C   0  0  0  0  0  0  0  0  0  0  0  0
   -6.7595   -2.1021    1.2370 C   0  0  0  0  0  0  0  0  0  0  0  0
   -7.9731   -1.6976    0.7525 C   0  0  0  0  0  0  0  0  0  0  0  0
   -8.2358   -0.3789    0.4605 C   0  0  0  0  0  0  0  0  0  0  0  0
   -7.2182    0.5234    0.6789 C   0  0  0  0  0  0  0  0  0  0  0  0
   -5.9754    0.1070    1.1761 C   0  0  0  0  0  0  0  0  0  0  0  0
   -7.5187    2.2100    0.3180 Cl  0  0  0  0  0  0  0  0  0  0  0  0
   -1.5180    0.1732    1.3265 C   0  0  0  0  0  0  0  0  0  0  0  0
   -0.6472    0.8697    0.3972 C   0  0  0  0  0  0  0  0  0  0  0  0
    0.0737    0.2301   -0.7327 C   0  0  1  0  0  0  0  0  0  0  0  0
   -0.8103   -0.3110   -1.7814 C   0  0  2  0  0  0  0  0  0  0  0  0
   -0.5718   -1.6603   -2.0727 O   0  0  0  0  0  0  0  0  0  0  0  0
   -0.5133    0.5221   -3.0442 C   0  0  0  0  0  0  0  0  0  0  0  0
    0.0678    1.8103   -2.4908 C   0  0  1  0  0  0  0  0  0  0  0  0
    0.9306    1.2711   -1.3820 C   0  0  2  0  0  0  0  0  0  0  0  0
    2.1942    0.7328   -2.0091 C   0  0  0  0  0  0  0  0  0  0  0  0
    3.1077    0.0441   -1.0243 C   0  0  0  0  0  0  0  0  0  0  0  0
    3.5192    1.0184    0.0524 C   0  0  0  0  0  0  0  0  0  0  0  0
    4.4375    0.3305    1.0434 C   0  0  0  0  0  0  0  0  0  0  0  0
    5.6846   -0.1907    0.3860 C   0  0  0  0  0  0  0  0  0  0  0  0
    6.5090   -0.8518    1.4869 C   0  0  0  0  0  0  0  0  0  0  0  0
    7.7678   -1.4017    0.9391 C   0  0  0  0  0  0  0  0  0  0  0  0
    8.0608   -1.3070   -0.2690 O   0  0  0  0  0  0  0  0  0  0  0  0
    8.6291   -2.0360    1.8158 O   0  0  0  0  0  0  0  0  0  0  0  0
    0.8348    2.3805   -3.5174 O   0  0  0  0  0  0  0  0  0  0  0  0
   -2.1673   -2.4718    0.7651 H   0  0  0  0  0  0  0  0  0  0  0  0
   -3.4441    0.0473    0.4460 H   0  0  0  0  0  0  0  0  0  0  0  0
   -2.6711   -1.9304    2.6189 H   0  0  0  0  0  0  0  0  0  0  0  0
   -3.4380   -0.3156    3.0071 H   0  0  0  0  0  0  0  0  0  0  0  0
   -6.6378   -3.1599    1.4401 H   0  0  0  0  0  0  0  0  0  0  0  0
   -8.7590   -2.4189    0.5880 H   0  0  0  0  0  0  0  0  0  0  0  0
   -9.1780   -0.0255    0.0778 H   0  0  0  0  0  0  0  0  0  0  0  0
   -5.2694    0.9026    1.3333 H   0  0  0  0  0  0  0  0  0  0  0  0
   -1.8969    0.9335    2.1264 H   0  0  0  0  0  0  0  0  0  0  0  0
   -0.8813   -0.4962    2.0493 H   0  0  0  0  0  0  0  0  0  0  0  0
   -1.2238    1.7975   -0.0013 H   0  0  0  0  0  0  0  0  0  0  0  0
    0.1326    1.4498    1.0431 H   0  0  0  0  0  0  0  0  0  0  0  0
    0.7551   -0.6072   -0.3186 H   0  0  0  0  0  0  0  0  0  0  0  0
   -1.8968   -0.1650   -1.6486 H   0  0  0  0  0  0  0  0  0  0  0  0
   -0.0527   -2.0286   -1.3218 H   0  0  0  0  0  0  0  0  0  0  0  0
   -1.4309    0.7606   -3.6051 H   0  0  0  0  0  0  0  0  0  0  0  0
    0.1518   -0.0043   -3.7337 H   0  0  0  0  0  0  0  0  0  0  0  0
   -0.7114    2.4921   -2.1293 H   0  0  0  0  0  0  0  0  0  0  0  0
    1.2299    2.0742   -0.6632 H   0  0  0  0  0  0  0  0  0  0  0  0
    2.7477    1.6160   -2.3896 H   0  0  0  0  0  0  0  0  0  0  0  0
    1.9904    0.1094   -2.9004 H   0  0  0  0  0  0  0  0  0  0  0  0
    4.0416   -0.1902   -1.6051 H   0  0  0  0  0  0  0  0  0  0  0  0
    2.7419   -0.9195   -0.6541 H   0  0  0  0  0  0  0  0  0  0  0  0
    4.0242    1.8653   -0.4430 H   0  0  0  0  0  0  0  0  0  0  0  0
    2.6113    1.3326    0.6392 H   0  0  0  0  0  0  0  0  0  0  0  0
    3.8960   -0.5597    1.4321 H   0  0  0  0  0  0  0  0  0  0  0  0
    4.7340    1.0459    1.8224 H   0  0  0  0  0  0  0  0  0  0  0  0
    5.4751   -0.9934   -0.3529 H   0  0  0  0  0  0  0  0  0  0  0  0
    6.3262    0.6142   -0.0224 H   0  0  0  0  0  0  0  0  0  0  0  0
    5.9510   -1.6811    1.9574 H   0  0  0  0  0  0  0  0  0  0  0  0
    6.7435   -0.0918    2.2559 H   0  0  0  0  0  0  0  0  0  0  0  0
    9.6245   -2.0754    1.6502 H   0  0  0  0  0  0  0  0  0  0  0  0
    1.2249    1.6276   -4.0255 H   0  0  0  0  0  0  0  0  0  0  0  0
  1  2  1  0
  2  3  1  0
  3  4  1  0
  4  5  1  0
  5  6  2  0
  6  7  1  0
  7  8  2  0
  8  9  1  0
  9 10  2  0
  9 11  1  0
  2 12  1  0
 12 13  1  0
 13 14  1  0
 14 15  1  0
 15 16  1  0
 15 17  1  0
 17 18  1  0
 18 19  1  0
 19 20  1  0
 20 21  1  0
 21 22  1  0
 22 23  1  0
 23 24  1  0
 24 25  1  0
 25 26  1  0
 26 27  2  0
 26 28  1  0
 18 29  1  0
 10  5  1  0
 19 14  1  0
  1 30  1  0
  2 31  1  6
  3 32  1  0
  3 33  1  0
  6 34  1  0
  7 35  1  0
  8 36  1  0
 10 37  1  0
 12 38  1  0
 12 39  1  0
 13 40  1  0
 13 41  1  0
 14 42  1  1
 15 43  1  1
 16 44  1  0
 17 45  1  0
 17 46  1  0
 18 47  1  1
 19 48  1  1
 20 49  1  0
 20 50  1  0
 21 51  1  0
 21 52  1  0
 22 53  1  0
 22 54  1  0
 23 55  1  0
 23 56  1  0
 24 57  1  0
 24 58  1  0
 25 59  1  0
 25 60  1  0
 28 61  1  0
 29 62  1  0
M  END
>  <Ligand ID>  (1) 
LIG0001182

>  <Ligand>  (1) 
13,14-dihydro-16-m-chlorophenoxy-w-tetranor-PGF1alpha;

>  <SMILES>  (1) 
O[C@@H](COc1cccc(c1)Cl)CC[C@H]1[C@H](O)C[C@@H]([C@@H]1CCCCCCC(=O)O)O

>  <CID>  (1) 
5311240.0

>  <ChEMBL ID>  (1) 
nan

>  <InChiKey>  (1) 
XECZBZWECQIBDA-LELZANKISA-N

>  <InChi>  (1) 
InChI=1S/C22H33ClO6/c23-15-6-5-7-17(12-15)29-14-16(24)10-11-19-18(20(25)13-21(19)26)8-3-1-2-4-9-22(27)28/h5-7,12,16,18-21,24-26H,1-4,8-11,13-14H2,(H,27,28)/t16-,18-,19-,20+,21-/m1/s1

>  <IUPAC Name>  (1) 
7-[(1R,2R,3R,5S)-2-[(3R)-4-(3-chlorophenoxy)-3-hydroxybutyl]-3,5-dihydroxycyclopentyl]heptanoic acid

$$$$
