
     RDKit          3D

 47 46  0  0  0  0  0  0  0  0999 V2000
    6.0977    0.5199   -0.2816 C   0  0  0  0  0  0  0  0  0  0  0  0
    5.5437   -0.1851    0.9062 C   0  0  0  0  0  0  0  0  0  0  0  0
    4.3093    0.3290    1.5089 C   0  0  0  0  0  0  0  0  0  0  0  0
    3.0451    0.3732    0.7227 C   0  0  0  0  0  0  0  0  0  0  0  0
    2.9845    1.1655   -0.4995 C   0  0  0  0  0  0  0  0  0  0  0  0
    1.6742    1.1828   -1.1988 C   0  0  0  0  0  0  0  0  0  0  0  0
    1.1134   -0.0266   -1.7964 C   0  0  0  0  0  0  0  0  0  0  0  0
    0.7986   -1.2291   -1.0091 C   0  0  0  0  0  0  0  0  0  0  0  0
   -0.1452   -1.0466    0.1405 C   0  0  0  0  0  0  0  0  0  0  0  0
   -1.4476   -0.5313   -0.3933 C   0  0  0  0  0  0  0  0  0  0  0  0
   -2.4169   -0.3413    0.7547 C   0  0  0  0  0  0  0  0  0  0  0  0
   -3.7009    0.1829    0.1412 C   0  0  0  0  0  0  0  0  0  0  0  0
   -4.7241    0.3987    1.2276 C   0  0  0  0  0  0  0  0  0  0  0  0
   -5.9855    0.9269    0.5932 C   0  0  0  0  0  0  0  0  0  0  0  0
   -6.5007   -0.0344   -0.3849 C   0  0  0  0  0  0  0  0  0  0  0  0
   -6.1535   -0.1098   -1.5887 O   0  0  0  0  0  0  0  0  0  0  0  0
   -7.4601   -0.9518    0.0420 O   0  0  0  0  0  0  0  0  0  0  0  0
    5.8900   -0.0644   -1.1923 H   0  0  0  0  0  0  0  0  0  0  0  0
    5.8094    1.5600   -0.3874 H   0  0  0  0  0  0  0  0  0  0  0  0
    7.2231    0.5386   -0.2126 H   0  0  0  0  0  0  0  0  0  0  0  0
    5.5279   -1.3095    0.7568 H   0  0  0  0  0  0  0  0  0  0  0  0
    6.3352   -0.0994    1.7205 H   0  0  0  0  0  0  0  0  0  0  0  0
    4.5479    1.3561    1.9188 H   0  0  0  0  0  0  0  0  0  0  0  0
    4.1199   -0.2653    2.4400 H   0  0  0  0  0  0  0  0  0  0  0  0
    2.6639   -0.6533    0.6206 H   0  0  0  0  0  0  0  0  0  0  0  0
    2.2836    0.8426    1.4414 H   0  0  0  0  0  0  0  0  0  0  0  0
    3.7438    0.8800   -1.2782 H   0  0  0  0  0  0  0  0  0  0  0  0
    3.2253    2.2657   -0.3053 H   0  0  0  0  0  0  0  0  0  0  0  0
    1.6762    1.9863   -2.0266 H   0  0  0  0  0  0  0  0  0  0  0  0
    0.8733    1.6561   -0.5059 H   0  0  0  0  0  0  0  0  0  0  0  0
    0.2339    0.2422   -2.4939 H   0  0  0  0  0  0  0  0  0  0  0  0
    1.8657   -0.3848   -2.5946 H   0  0  0  0  0  0  0  0  0  0  0  0
    0.1534   -1.8709   -1.7552 H   0  0  0  0  0  0  0  0  0  0  0  0
    1.6383   -1.8760   -0.8084 H   0  0  0  0  0  0  0  0  0  0  0  0
   -0.3290   -2.0632    0.5614 H   0  0  0  0  0  0  0  0  0  0  0  0
    0.2586   -0.3851    0.9338 H   0  0  0  0  0  0  0  0  0  0  0  0
   -1.8442   -1.3194   -1.0868 H   0  0  0  0  0  0  0  0  0  0  0  0
   -1.3716    0.3903   -0.9731 H   0  0  0  0  0  0  0  0  0  0  0  0
   -2.5763   -1.2924    1.2825 H   0  0  0  0  0  0  0  0  0  0  0  0
   -2.0115    0.4398    1.4217 H   0  0  0  0  0  0  0  0  0  0  0  0
   -4.1199   -0.5694   -0.5807 H   0  0  0  0  0  0  0  0  0  0  0  0
   -3.5457    1.1297   -0.3912 H   0  0  0  0  0  0  0  0  0  0  0  0
   -4.3399    1.1145    1.9888 H   0  0  0  0  0  0  0  0  0  0  0  0
   -4.9159   -0.5963    1.7027 H   0  0  0  0  0  0  0  0  0  0  0  0
   -5.7360    1.8667    0.0592 H   0  0  0  0  0  0  0  0  0  0  0  0
   -6.7701    1.1577    1.3404 H   0  0  0  0  0  0  0  0  0  0  0  0
   -7.5410   -1.8332   -0.4810 H   0  0  0  0  0  0  0  0  0  0  0  0
  1  2  1  0
  2  3  1  0
  3  4  1  0
  4  5  1  0
  5  6  1  0
  6  7  1  0
  7  8  1  0
  8  9  1  0
  9 10  1  0
 10 11  1  0
 11 12  1  0
 12 13  1  0
 13 14  1  0
 14 15  1  0
 15 16  2  0
 15 17  1  0
  1 18  1  0
  1 19  1  0
  1 20  1  0
  2 21  1  0
  2 22  1  0
  3 23  1  0
  3 24  1  0
  4 25  1  0
  4 26  1  0
  5 27  1  0
  5 28  1  0
  6 29  1  0
  6 30  1  0
  7 31  1  0
  7 32  1  0
  8 33  1  0
  8 34  1  0
  9 35  1  0
  9 36  1  0
 10 37  1  0
 10 38  1  0
 11 39  1  0
 11 40  1  0
 12 41  1  0
 12 42  1  0
 13 43  1  0
 13 44  1  0
 14 45  1  0
 14 46  1  0
 17 47  1  0
M  END
>  <Ligand ID>  (1) 
LIG0000468

>  <Ligand>  (1) 
pentadecanoic acid

>  <SMILES>  (1) 
CCCCCCCCCCCCCCC(=O)O

>  <CID>  (1) 
13849.0

>  <ChEMBL ID>  (1) 
nan

>  <InChiKey>  (1) 
WQEPLUUGTLDZJY-UHFFFAOYSA-N

>  <InChi>  (1) 
InChI=1S/C15H30O2/c1-2-3-4-5-6-7-8-9-10-11-12-13-14-15(16)17/h2-14H2,1H3,(H,16,17)

>  <IUPAC Name>  (1) 
pentadecanoic acid

$$$$
