
     RDKit          3D

 93 95  0  0  0  0  0  0  0  0999 V2000
  -12.7197    3.9198    0.7882 O   0  0  0  0  0  0  0  0  0  0  0  0
  -12.0941    2.9459    1.5785 C   0  0  0  0  0  0  0  0  0  0  0  0
  -11.4947    1.9425    0.6430 C   0  0  0  0  0  0  0  0  0  0  0  0
  -10.1309    1.9089    0.3844 C   0  0  0  0  0  0  0  0  0  0  0  0
   -9.6144    0.9636   -0.4880 C   0  0  0  0  0  0  0  0  0  0  0  0
  -10.4716    0.0913   -1.0680 C   0  0  0  0  0  0  0  0  0  0  0  0
  -11.8464    0.1080   -0.8212 C   0  0  0  0  0  0  0  0  0  0  0  0
  -12.3711    1.0458    0.0462 C   0  0  0  0  0  0  0  0  0  0  0  0
  -13.7360    1.0565    0.2871 O   0  0  0  0  0  0  0  0  0  0  0  0
   -8.1430    0.9973   -0.7000 C   0  0  2  0  0  0  0  0  0  0  0  0
   -7.6726   -0.1024   -1.6225 C   0  0  0  0  0  0  0  0  0  0  0  0
   -7.7628   -1.3916   -1.0946 N   0  0  0  0  0  0  0  0  0  0  0  0
   -6.9199   -1.8622   -0.0810 C   0  0  0  0  0  0  0  0  0  0  0  0
   -5.5240   -2.2088   -0.3630 C   0  0  0  0  0  0  0  0  0  0  0  0
   -4.5307   -1.2966   -0.8864 C   0  0  0  0  0  0  0  0  0  0  0  0
   -4.1330   -0.0676   -0.2007 C   0  0  0  0  0  0  0  0  0  0  0  0
   -3.5681   -0.1640    1.1631 C   0  0  0  0  0  0  0  0  0  0  0  0
   -2.3216   -0.9779    1.2988 C   0  0  0  0  0  0  0  0  0  0  0  0
   -1.2412   -0.5601    0.5718 O   0  0  0  0  0  0  0  0  0  0  0  0
   -0.1257   -1.4044    0.7519 C   0  0  0  0  0  0  0  0  0  0  0  0
    0.9911   -0.8231   -0.1113 C   0  0  0  0  0  0  0  0  0  0  0  0
    1.3692    0.5697    0.2842 C   0  0  0  0  0  0  0  0  0  0  0  0
    2.4615    1.1183   -0.5948 C   0  0  0  0  0  0  0  0  0  0  0  0
    3.6485    0.2607   -0.5058 C   0  0  0  0  0  0  0  0  0  0  0  0
    3.7495   -0.7740   -1.4351 C   0  0  0  0  0  0  0  0  0  0  0  0
    4.8454   -1.5990   -1.3823 C   0  0  0  0  0  0  0  0  0  0  0  0
    5.8242   -1.3839   -0.4072 C   0  0  0  0  0  0  0  0  0  0  0  0
    5.7534   -0.3825    0.5135 C   0  0  0  0  0  0  0  0  0  0  0  0
    4.6263    0.4418    0.4351 C   0  0  0  0  0  0  0  0  0  0  0  0
    6.6949   -0.1040    1.5217 N   0  0  0  0  0  0  0  0  0  0  0  0
    7.8924   -0.8059    1.7692 C   0  0  0  0  0  0  0  0  0  0  0  0
    8.2321   -1.7851    1.0756 O   0  0  0  0  0  0  0  0  0  0  0  0
    8.7603   -0.4126    2.8327 N   0  0  0  0  0  0  0  0  0  0  0  0
    9.9746   -1.1764    3.0003 C   0  0  0  0  0  0  0  0  0  0  0  0
   10.8925   -1.0924    1.8441 C   0  0  0  0  0  0  0  0  0  0  0  0
   11.9604   -1.7640    1.8784 O   0  0  0  0  0  0  0  0  0  0  0  0
   10.6605   -0.3027    0.6900 N   0  0  0  0  0  0  0  0  0  0  0  0
   11.6133   -0.2977   -0.3775 C   0  0  0  0  0  0  0  0  0  0  0  0
   10.9483   -0.5304   -1.7153 C   0  0  0  0  0  0  0  0  0  0  0  0
   10.2772    0.7911   -2.0061 C   0  0  0  0  0  0  0  0  0  0  0  0
   10.9088    1.8256   -1.1173 C   0  0  0  0  0  0  0  0  0  0  0  0
   12.1248    1.1388   -0.5388 C   0  0  0  0  0  0  0  0  0  0  0  0
   -7.4531    1.0770    0.4906 O   0  0  0  0  0  0  0  0  0  0  0  0
  -12.3264    4.8096    0.8784 H   0  0  0  0  0  0  0  0  0  0  0  0
  -12.8759    2.4634    2.1875 H   0  0  0  0  0  0  0  0  0  0  0  0
  -11.3435    3.3993    2.2573 H   0  0  0  0  0  0  0  0  0  0  0  0
   -9.4868    2.6329    0.8771 H   0  0  0  0  0  0  0  0  0  0  0  0
  -10.1237   -0.6528   -1.7415 H   0  0  0  0  0  0  0  0  0  0  0  0
  -12.5095   -0.6123   -1.3084 H   0  0  0  0  0  0  0  0  0  0  0  0
  -14.1798    1.9255    0.5922 H   0  0  0  0  0  0  0  0  0  0  0  0
   -7.9330    1.9577   -1.2601 H   0  0  0  0  0  0  0  0  0  0  0  0
   -6.7082    0.2389   -2.0311 H   0  0  0  0  0  0  0  0  0  0  0  0
   -8.3726   -0.0496   -2.5120 H   0  0  0  0  0  0  0  0  0  0  0  0
   -8.2220   -2.1123   -1.6924 H   0  0  0  0  0  0  0  0  0  0  0  0
   -7.0572   -1.1831    0.7999 H   0  0  0  0  0  0  0  0  0  0  0  0
   -7.4057   -2.8266    0.3050 H   0  0  0  0  0  0  0  0  0  0  0  0
   -5.0428   -2.7723    0.5175 H   0  0  0  0  0  0  0  0  0  0  0  0
   -5.5855   -3.0919   -1.0995 H   0  0  0  0  0  0  0  0  0  0  0  0
   -3.5883   -1.9413   -1.0920 H   0  0  0  0  0  0  0  0  0  0  0  0
   -4.7784   -1.0185   -1.9561 H   0  0  0  0  0  0  0  0  0  0  0  0
   -4.9207    0.6957   -0.2300 H   0  0  0  0  0  0  0  0  0  0  0  0
   -3.3247    0.3909   -0.8652 H   0  0  0  0  0  0  0  0  0  0  0  0
   -3.3339    0.8673    1.5040 H   0  0  0  0  0  0  0  0  0  0  0  0
   -4.3023   -0.5561    1.8970 H   0  0  0  0  0  0  0  0  0  0  0  0
   -2.5535   -2.0616    1.2027 H   0  0  0  0  0  0  0  0  0  0  0  0
   -2.0068   -0.8712    2.3810 H   0  0  0  0  0  0  0  0  0  0  0  0
   -0.3667   -2.3976    0.3231 H   0  0  0  0  0  0  0  0  0  0  0  0
    0.1716   -1.4763    1.8096 H   0  0  0  0  0  0  0  0  0  0  0  0
    1.9161   -1.4527    0.0197 H   0  0  0  0  0  0  0  0  0  0  0  0
    0.6745   -0.8330   -1.1587 H   0  0  0  0  0  0  0  0  0  0  0  0
    1.7260    0.5325    1.3465 H   0  0  0  0  0  0  0  0  0  0  0  0
    0.5226    1.2878    0.2059 H   0  0  0  0  0  0  0  0  0  0  0  0
    2.7256    2.1300   -0.1739 H   0  0  0  0  0  0  0  0  0  0  0  0
    2.0765    1.2189   -1.6305 H   0  0  0  0  0  0  0  0  0  0  0  0
    2.9913   -0.9357   -2.1832 H   0  0  0  0  0  0  0  0  0  0  0  0
    4.9126   -2.3921   -2.1034 H   0  0  0  0  0  0  0  0  0  0  0  0
    6.6455   -2.0618   -0.4247 H   0  0  0  0  0  0  0  0  0  0  0  0
    4.4809    1.2717    1.1294 H   0  0  0  0  0  0  0  0  0  0  0  0
    6.5042    0.7127    2.1731 H   0  0  0  0  0  0  0  0  0  0  0  0
    8.5440    0.3860    3.4688 H   0  0  0  0  0  0  0  0  0  0  0  0
    9.7573   -2.2278    3.2849 H   0  0  0  0  0  0  0  0  0  0  0  0
   10.5622   -0.7807    3.8810 H   0  0  0  0  0  0  0  0  0  0  0  0
    9.8138    0.2956    0.5931 H   0  0  0  0  0  0  0  0  0  0  0  0
   12.4609   -0.9893   -0.1801 H   0  0  0  0  0  0  0  0  0  0  0  0
   10.1910   -1.3380   -1.7020 H   0  0  0  0  0  0  0  0  0  0  0  0
   11.7435   -0.7261   -2.4727 H   0  0  0  0  0  0  0  0  0  0  0  0
    9.1783    0.7383   -1.8220 H   0  0  0  0  0  0  0  0  0  0  0  0
   10.5005    1.0708   -3.0604 H   0  0  0  0  0  0  0  0  0  0  0  0
   10.2347    2.0826   -0.2872 H   0  0  0  0  0  0  0  0  0  0  0  0
   11.1819    2.7531   -1.6700 H   0  0  0  0  0  0  0  0  0  0  0  0
   12.4461    1.5517    0.4342 H   0  0  0  0  0  0  0  0  0  0  0  0
   12.9306    1.1591   -1.3022 H   0  0  0  0  0  0  0  0  0  0  0  0
   -6.8783    1.8555    0.5362 H   0  0  0  0  0  0  0  0  0  0  0  0
  1  2  1  0
  2  3  1  0
  3  4  2  0
  4  5  1  0
  5  6  2  0
  6  7  1  0
  7  8  2  0
  8  9  1  0
  5 10  1  0
 10 11  1  0
 11 12  1  0
 12 13  1  0
 13 14  1  0
 14 15  1  0
 15 16  1  0
 16 17  1  0
 17 18  1  0
 18 19  1  0
 19 20  1  0
 20 21  1  0
 21 22  1  0
 22 23  1  0
 23 24  1  0
 24 25  2  0
 25 26  1  0
 26 27  2  0
 27 28  1  0
 28 29  2  0
 28 30  1  0
 30 31  1  0
 31 32  2  0
 31 33  1  0
 33 34  1  0
 34 35  1  0
 35 36  2  0
 35 37  1  0
 37 38  1  0
 38 39  1  0
 39 40  1  0
 40 41  1  0
 41 42  1  0
 10 43  1  0
  8  3  1  0
 29 24  1  0
 42 38  1  0
  1 44  1  0
  2 45  1  0
  2 46  1  0
  4 47  1  0
  6 48  1  0
  7 49  1  0
  9 50  1  0
 10 51  1  6
 11 52  1  0
 11 53  1  0
 12 54  1  0
 13 55  1  0
 13 56  1  0
 14 57  1  0
 14 58  1  0
 15 59  1  0
 15 60  1  0
 16 61  1  0
 16 62  1  0
 17 63  1  0
 17 64  1  0
 18 65  1  0
 18 66  1  0
 20 67  1  0
 20 68  1  0
 21 69  1  0
 21 70  1  0
 22 71  1  0
 22 72  1  0
 23 73  1  0
 23 74  1  0
 25 75  1  0
 26 76  1  0
 27 77  1  0
 29 78  1  0
 30 79  1  0
 33 80  1  0
 34 81  1  0
 34 82  1  0
 37 83  1  0
 38 84  1  0
 39 85  1  0
 39 86  1  0
 40 87  1  0
 40 88  1  0
 41 89  1  0
 41 90  1  0
 42 91  1  0
 42 92  1  0
 43 93  1  0
M  END
>  <Ligand ID>  (1) 
LIG0003036

>  <Ligand>  (1) 
CHEMBL1835860

>  <SMILES>  (1) 
OCc1cc(ccc1O)[C@H](CNCCCCCCOCCCCc1cccc(c1)NC(=O)NCC(=O)NC1CCCC1)O

>  <CID>  (1) 
56668796.0

>  <ChEMBL ID>  (1) 
nan

>  <InChiKey>  (1) 
JVVREJHHLJKHIA-HKBQPEDESA-N

>  <InChi>  (1) 
InChI=1S/C33H50N4O6/c38-24-27-21-26(15-16-30(27)39)31(40)22-34-17-6-1-2-7-18-43-19-8-5-10-25-11-9-14-29(20-25)37-33(42)35-23-32(41)36-28-12-3-4-13-28/h9,11,14-16,20-21,28,31,34,38-40H,1-8,10,12-13,17-19,22-24H2,(H,36,41)(H2,35,37,42)/t31-/m0/s1

>  <IUPAC Name>  (1) 
N-cyclopentyl-2-[[3-[4-[6-[[(2R)-2-hydroxy-2-[4-hydroxy-3-(hydroxymethyl)phenyl]ethyl]amino]hexoxy]butyl]phenyl]carbamoylamino]acetamide

$$$$
