
     RDKit          3D

  2  1  0  0  0  0  0  0  0  0999 V2000
    0.9282    0.0000    0.0000 O   0  0  0  0  0  0  0  0  0  0  0  0
   -0.9282    0.0000    0.0000 Ca  0  0  0  0  0  2  0  0  0  0  0  0
  1  2  2  0
M  END
>  <Ligand ID>  (1) 
LIG0002093

>  <Ligand>  (1) 
Lime

>  <SMILES>  (1) 
O=[Ca]

>  <CID>  (1) 
14778.0

>  <ChEMBL ID>  (1) 
nan

>  <InChiKey>  (1) 
ODINCKMPIJJUCX-UHFFFAOYSA-N

>  <InChi>  (1) 
InChI=1S/Ca.O

>  <IUPAC Name>  (1) 
oxocalcium

$$$$
