
     RDKit          3D

 86 94  0  0  0  0  0  0  0  0999 V2000
   -3.4347   -3.6467   -2.2255 C   0  0  0  0  0  0  0  0  0  0  0  0
   -4.0212   -3.0017   -1.0228 C   0  0  0  0  0  0  0  0  0  0  0  0
   -3.0188   -2.5116    0.0031 C   0  0  1  0  0  0  0  0  0  0  0  0
   -3.9099   -1.9128    1.1052 C   0  0  0  0  0  0  0  0  0  0  0  0
   -2.4736   -3.6481    0.5626 O   0  0  0  0  0  0  0  0  0  0  0  0
   -1.2821   -4.0705    0.0769 C   0  0  0  0  0  0  0  0  0  0  0  0
   -0.5589   -3.2558   -0.7299 O   0  0  0  0  0  0  0  0  0  0  0  0
   -0.5817   -1.9484   -0.2942 C   0  0  1  0  0  0  0  0  0  0  0  0
   -2.0449   -1.5184   -0.4925 C   0  0  2  0  0  0  0  0  0  0  0  0
   -2.1729   -0.1143   -0.0085 C   0  0  0  0  0  0  0  0  0  0  0  0
   -0.8746    0.3933    0.5764 C   0  0  2  0  0  0  0  0  0  0  0  0
   -0.4757   -0.4966    1.7012 C   0  0  0  0  0  0  0  0  0  0  0  0
   -0.2282   -1.9074    1.1525 C   0  0  0  0  0  0  0  0  0  0  0  0
   -0.9260    1.8241    1.0448 C   0  0  1  0  0  0  0  0  0  0  0  0
    0.4115    2.3759    1.3927 C   0  0  0  0  0  0  0  0  0  0  0  0
    1.5525    1.4786    1.1483 C   0  0  0  0  0  0  0  0  0  0  0  0
    1.4137    0.4823    0.2361 C   0  0  0  0  0  0  0  0  0  0  0  0
    0.1393    0.3755   -0.5321 C   0  0  1  0  0  0  0  0  0  0  0  0
    0.2399   -1.0191   -1.1171 C   0  0  1  0  0  0  0  0  0  0  0  0
    1.6490   -1.2495   -1.0836 O   0  0  0  0  0  0  0  0  0  0  0  0
    2.2745   -0.4740   -0.1218 C   0  0  0  0  0  0  0  0  0  0  0  0
    3.5312   -0.4648    0.5323 C   0  0  0  0  0  0  0  0  0  0  0  0
    4.3835   -1.4214    0.1629 O   0  0  0  0  0  0  0  0  0  0  0  0
    5.6413   -1.7738    0.4989 C   0  0  0  0  0  0  0  0  0  0  0  0
    6.6421   -0.7404    0.1737 C   0  0  0  0  0  0  0  0  0  0  0  0
    7.2000    0.1668    1.0055 C   0  0  0  0  0  0  0  0  0  0  0  0
    8.1242    1.1175    0.6113 C   0  0  0  0  0  0  0  0  0  0  0  0
    8.4898    1.1290   -0.7124 C   0  0  0  0  0  0  0  0  0  0  0  0
    7.9659    0.2399   -1.6101 C   0  0  0  0  0  0  0  0  0  0  0  0
    7.0475   -0.6901   -1.1715 C   0  0  0  0  0  0  0  0  0  0  0  0
    3.7224    0.5308    1.4693 C   0  0  0  0  0  0  0  0  0  0  0  0
    2.7712    1.5054    1.7993 C   0  0  0  0  0  0  0  0  0  0  0  0
    0.0880    1.4458   -1.5293 C   0  0  0  0  0  0  0  0  0  0  0  0
   -0.8722    2.5289   -1.2595 C   0  0  0  0  0  0  0  0  0  0  0  0
   -1.5657    2.5726   -0.0320 N   0  0  0  0  0  0  0  0  0  0  0  0
   -1.8428    3.8921    0.4175 C   0  0  0  0  0  0  0  0  0  0  0  0
   -2.8496    4.6380   -0.4371 C   0  0  0  0  0  0  0  0  0  0  0  0
   -3.1158    6.0471    0.0780 C   0  0  0  0  0  0  0  0  0  0  0  0
   -2.3486    5.8970   -1.1757 C   0  0  0  0  0  0  0  0  0  0  0  0
   -4.8974   -4.0533   -0.3286 C   0  0  0  0  0  0  0  0  0  0  0  0
   -4.9683   -1.9090   -1.4587 C   0  0  0  0  0  0  0  0  0  0  0  0
   -4.2346   -3.6143   -3.0198 H   0  0  0  0  0  0  0  0  0  0  0  0
   -3.2923   -4.7581   -2.0769 H   0  0  0  0  0  0  0  0  0  0  0  0
   -2.5685   -3.1738   -2.6786 H   0  0  0  0  0  0  0  0  0  0  0  0
   -3.3574   -1.6783    2.0191 H   0  0  0  0  0  0  0  0  0  0  0  0
   -4.5868   -1.1435    0.7238 H   0  0  0  0  0  0  0  0  0  0  0  0
   -4.5950   -2.7589    1.4123 H   0  0  0  0  0  0  0  0  0  0  0  0
   -1.4524   -5.0402   -0.4788 H   0  0  0  0  0  0  0  0  0  0  0  0
   -0.6348   -4.4032    0.9339 H   0  0  0  0  0  0  0  0  0  0  0  0
   -2.1444   -1.5069   -1.6198 H   0  0  0  0  0  0  0  0  0  0  0  0
   -2.4460    0.5689   -0.8367 H   0  0  0  0  0  0  0  0  0  0  0  0
   -2.9243    0.0281    0.7894 H   0  0  0  0  0  0  0  0  0  0  0  0
   -1.3295   -0.4858    2.4282 H   0  0  0  0  0  0  0  0  0  0  0  0
    0.4099   -0.2439    2.2596 H   0  0  0  0  0  0  0  0  0  0  0  0
    0.8540   -2.1882    1.2296 H   0  0  0  0  0  0  0  0  0  0  0  0
   -0.8253   -2.5653    1.7796 H   0  0  0  0  0  0  0  0  0  0  0  0
   -1.5994    1.8769    1.9152 H   0  0  0  0  0  0  0  0  0  0  0  0
    0.5895    3.3947    0.9685 H   0  0  0  0  0  0  0  0  0  0  0  0
    0.4245    2.5769    2.5103 H   0  0  0  0  0  0  0  0  0  0  0  0
   -0.1047   -1.0304   -2.1672 H   0  0  0  0  0  0  0  0  0  0  0  0
    5.7795   -2.0095    1.6040 H   0  0  0  0  0  0  0  0  0  0  0  0
    5.8895   -2.7399   -0.0424 H   0  0  0  0  0  0  0  0  0  0  0  0
    6.9300    0.1587    2.0433 H   0  0  0  0  0  0  0  0  0  0  0  0
    8.5540    1.8297    1.2908 H   0  0  0  0  0  0  0  0  0  0  0  0
    9.2085    1.8569   -1.0544 H   0  0  0  0  0  0  0  0  0  0  0  0
    8.2443    0.2365   -2.6571 H   0  0  0  0  0  0  0  0  0  0  0  0
    6.6482   -1.3834   -1.9053 H   0  0  0  0  0  0  0  0  0  0  0  0
    4.6399    0.5970    2.0197 H   0  0  0  0  0  0  0  0  0  0  0  0
    2.9489    2.2688    2.5341 H   0  0  0  0  0  0  0  0  0  0  0  0
    1.1187    1.9400   -1.5657 H   0  0  0  0  0  0  0  0  0  0  0  0
    0.0077    1.0583   -2.5924 H   0  0  0  0  0  0  0  0  0  0  0  0
   -0.4132    3.5373   -1.4665 H   0  0  0  0  0  0  0  0  0  0  0  0
   -1.6770    2.4586   -2.0689 H   0  0  0  0  0  0  0  0  0  0  0  0
   -2.3525    3.7859    1.4213 H   0  0  0  0  0  0  0  0  0  0  0  0
   -0.9865    4.5654    0.5402 H   0  0  0  0  0  0  0  0  0  0  0  0
   -3.7154    4.1172   -0.8702 H   0  0  0  0  0  0  0  0  0  0  0  0
   -4.1521    6.4486   -0.0086 H   0  0  0  0  0  0  0  0  0  0  0  0
   -2.6058    6.4046    0.9943 H   0  0  0  0  0  0  0  0  0  0  0  0
   -2.7863    6.1468   -2.1537 H   0  0  0  0  0  0  0  0  0  0  0  0
   -1.2445    6.0319   -1.0904 H   0  0  0  0  0  0  0  0  0  0  0  0
   -5.2212   -4.8034   -1.0809 H   0  0  0  0  0  0  0  0  0  0  0  0
   -4.3303   -4.6265    0.4238 H   0  0  0  0  0  0  0  0  0  0  0  0
   -5.8467   -3.6114    0.0498 H   0  0  0  0  0  0  0  0  0  0  0  0
   -5.8242   -1.8071   -0.7695 H   0  0  0  0  0  0  0  0  0  0  0  0
   -4.4618   -0.9308   -1.5862 H   0  0  0  0  0  0  0  0  0  0  0  0
   -5.3578   -2.1978   -2.4581 H   0  0  0  0  0  0  0  0  0  0  0  0
  1  2  1  0
  3  2  1  6
  3  4  1  0
  3  5  1  0
  5  6  1  0
  6  7  1  0
  8  7  1  6
  8  9  1  0
  9 10  1  0
 11 10  1  6
 11 12  1  0
 12 13  1  0
 11 14  1  0
 14 15  1  0
 15 16  1  0
 16 17  2  0
 17 18  1  0
 18 19  1  0
 19 20  1  0
 20 21  1  0
 21 22  2  0
 22 23  1  0
 23 24  1  0
 24 25  1  0
 25 26  2  0
 26 27  1  0
 27 28  2  0
 28 29  1  0
 29 30  2  0
 22 31  1  0
 31 32  2  0
 18 33  1  6
 33 34  1  0
 34 35  1  0
 35 36  1  0
 36 37  1  0
 37 38  1  0
 38 39  1  0
  2 40  1  0
  2 41  1  0
  9  3  1  0
 18 11  1  0
 30 25  1  0
 39 37  1  0
 13  8  1  0
 35 14  1  0
 19  8  1  0
 32 16  1  0
 21 17  1  0
  1 42  1  0
  1 43  1  0
  1 44  1  0
  4 45  1  0
  4 46  1  0
  4 47  1  0
  6 48  1  0
  6 49  1  0
  9 50  1  6
 10 51  1  0
 10 52  1  0
 12 53  1  0
 12 54  1  0
 13 55  1  0
 13 56  1  0
 14 57  1  1
 15 58  1  0
 15 59  1  0
 19 60  1  6
 24 61  1  0
 24 62  1  0
 26 63  1  0
 27 64  1  0
 28 65  1  0
 29 66  1  0
 30 67  1  0
 31 68  1  0
 32 69  1  0
 33 70  1  0
 33 71  1  0
 34 72  1  0
 34 73  1  0
 36 74  1  0
 36 75  1  0
 37 76  1  0
 38 77  1  0
 38 78  1  0
 39 79  1  0
 39 80  1  0
 40 81  1  0
 40 82  1  0
 40 83  1  0
 41 84  1  0
 41 85  1  0
 41 86  1  0
M  END
>  <Ligand ID>  (1) 
LIG0005113

>  <Ligand>  (1) 
SCHEMBL17681502

>  <SMILES>  (1) 
CC([C@@]1(C)OCO[C@@]23[C@@H]1C[C@]1(CC2)[C@H]2Cc4c5[C@]1([C@H]3Oc5c(OCc1ccccc1)cc4)CCN2CC1CC1)(C)C

>  <CID>  (1) 
121278739.0

>  <ChEMBL ID>  (1) 
nan

>  <InChiKey>  (1) 
GMWKLQVLCZTICI-BHPNABNESA-N

>  <InChi>  (1) 
InChI=1S/C36H45NO4/c1-32(2,3)33(4)27-19-34-14-15-36(27,40-22-39-33)31-35(34)16-17-37(20-23-10-11-23)28(34)18-25-12-13-26(30(41-31)29(25)35)38-21-24-8-6-5-7-9-24/h5-9,12-13,23,27-28,31H,10-11,14-22H2,1-4H3/t27-,28-,31-,33+,34-,35+,36-/m1/s1

>  <IUPAC Name>  (1) 
(1S,2S,6R,14R,15R,19S,20R)-19-tert-butyl-5-(cyclopropylmethyl)-19-methyl-11-phenylmethoxy-13,16,18-trioxa-5-azaheptacyclo[13.6.2.12,8.01,6.02,14.015,20.012,24]tetracosa-8(24),9,11-triene

$$$$
