
     RDKit          3D

 35 36  0  0  0  0  0  0  0  0999 V2000
   -3.4977    2.6271    0.6254 C   0  0  0  0  0  0  0  0  0  0  0  0
   -2.4241    2.5186   -0.4398 C   0  0  0  0  0  0  0  0  0  0  0  0
   -1.8048    1.2514   -0.4198 O   0  0  0  0  0  0  0  0  0  0  0  0
   -2.4558    0.0606   -0.6142 C   0  0  0  0  0  0  0  0  0  0  0  0
   -3.7118    0.1570   -0.8247 O   0  0  0  0  0  0  0  0  0  0  0  0
   -1.8944   -1.2581   -0.6077 C   0  0  0  0  0  0  0  0  0  0  0  0
   -2.7338   -2.3499   -0.8277 C   0  0  0  0  0  0  0  0  0  0  0  0
   -2.2956   -3.6506   -0.8411 C   0  0  0  0  0  0  0  0  0  0  0  0
   -0.9706   -3.9450   -0.6324 C   0  0  0  0  0  0  0  0  0  0  0  0
   -0.1205   -2.8847   -0.4128 C   0  0  0  0  0  0  0  0  0  0  0  0
   -0.5656   -1.5583   -0.3987 C   0  0  0  0  0  0  0  0  0  0  0  0
    0.3756   -0.5465   -0.1668 N   0  0  0  0  0  0  0  0  0  0  0  0
    1.7793   -0.9365    0.0491 C   0  0  0  0  0  0  0  0  0  0  0  0
    2.6658    0.2018    0.2799 C   0  0  0  0  0  0  0  0  0  0  0  0
    2.2825    1.4402    0.2972 N   0  0  0  0  0  0  0  0  0  0  0  0
    3.3916    2.3319    0.5499 C   0  0  0  0  0  0  0  0  0  0  0  0
    4.5946    1.4734    0.2385 C   0  0  0  0  0  0  0  0  0  0  0  0
    4.0665    0.1489    0.5192 N   0  0  0  0  0  0  0  0  0  0  0  0
   -3.2253    2.0342    1.5389 H   0  0  0  0  0  0  0  0  0  0  0  0
   -3.6899    3.6826    0.9062 H   0  0  0  0  0  0  0  0  0  0  0  0
   -4.4135    2.1633    0.2061 H   0  0  0  0  0  0  0  0  0  0  0  0
   -2.8579    2.8062   -1.3995 H   0  0  0  0  0  0  0  0  0  0  0  0
   -1.6117    3.2700   -0.2236 H   0  0  0  0  0  0  0  0  0  0  0  0
   -3.8101   -2.2121   -1.0042 H   0  0  0  0  0  0  0  0  0  0  0  0
   -2.9783   -4.4695   -1.0153 H   0  0  0  0  0  0  0  0  0  0  0  0
   -0.6522   -4.9637   -0.6472 H   0  0  0  0  0  0  0  0  0  0  0  0
    0.9244   -3.1347   -0.2493 H   0  0  0  0  0  0  0  0  0  0  0  0
    0.2102    0.4733   -0.1256 H   0  0  0  0  0  0  0  0  0  0  0  0
    2.0673   -1.5330   -0.8413 H   0  0  0  0  0  0  0  0  0  0  0  0
    1.7389   -1.6516    0.8943 H   0  0  0  0  0  0  0  0  0  0  0  0
    3.3629    3.2700   -0.0063 H   0  0  0  0  0  0  0  0  0  0  0  0
    3.3956    2.4967    1.6657 H   0  0  0  0  0  0  0  0  0  0  0  0
    5.4112    1.7677    0.9168 H   0  0  0  0  0  0  0  0  0  0  0  0
    4.8449    1.6183   -0.8344 H   0  0  0  0  0  0  0  0  0  0  0  0
    4.6021   -0.6991    0.8391 H   0  0  0  0  0  0  0  0  0  0  0  0
  1  2  1  0
  2  3  1  0
  3  4  1  0
  4  5  2  0
  4  6  1  0
  6  7  2  0
  7  8  1  0
  8  9  2  0
  9 10  1  0
 10 11  2  0
 11 12  1  0
 12 13  1  0
 13 14  1  0
 14 15  2  0
 15 16  1  0
 16 17  1  0
 17 18  1  0
 11  6  1  0
 18 14  1  0
  1 19  1  0
  1 20  1  0
  1 21  1  0
  2 22  1  0
  2 23  1  0
  7 24  1  0
  8 25  1  0
  9 26  1  0
 10 27  1  0
 12 28  1  0
 13 29  1  0
 13 30  1  0
 16 31  1  0
 16 32  1  0
 17 33  1  0
 17 34  1  0
 18 35  1  0
M  END
>  <Ligand ID>  (1) 
LIG0004449

>  <Ligand>  (1) 
CHEMBL329928

>  <SMILES>  (1) 
CCOC(=O)c1ccccc1NCC1=NCCN1

>  <CID>  (1) 
44329790.0

>  <ChEMBL ID>  (1) 
nan

>  <InChiKey>  (1) 
DQJYNCPVANWHMM-UHFFFAOYSA-N

>  <InChi>  (1) 
InChI=1S/C13H17N3O2/c1-2-18-13(17)10-5-3-4-6-11(10)16-9-12-14-7-8-15-12/h3-6,16H,2,7-9H2,1H3,(H,14,15)

>  <IUPAC Name>  (1) 
ethyl 2-(4,5-dihydro-1H-imidazol-2-ylmethylamino)benzoate

$$$$
