
     RDKit          3D

 18 17  0  0  0  0  0  0  0  0999 V2000
   -1.6573    0.7824   -0.3940 C   0  0  0  0  0  0  0  0  0  0  0  0
   -0.7355   -0.2661   -0.9302 C   0  0  0  0  0  0  0  0  0  0  0  0
    0.0296   -0.9525    0.1833 C   0  0  0  0  0  0  0  0  0  0  0  0
    0.8459    0.0839    0.9236 C   0  0  0  0  0  0  0  0  0  0  0  0
    1.8075    0.7293   -0.0519 C   0  0  0  0  0  0  0  0  0  0  0  0
   -0.8735   -1.5990    0.9896 O   0  0  0  0  0  0  0  0  0  0  0  0
   -1.7841    0.6795    0.7215 H   0  0  0  0  0  0  0  0  0  0  0  0
   -2.6604    0.7424   -0.9100 H   0  0  0  0  0  0  0  0  0  0  0  0
   -1.2899    1.8205   -0.5523 H   0  0  0  0  0  0  0  0  0  0  0  0
   -0.0034    0.1292   -1.6408 H   0  0  0  0  0  0  0  0  0  0  0  0
   -1.3573   -1.0786   -1.3983 H   0  0  0  0  0  0  0  0  0  0  0  0
    0.7171   -1.6998   -0.2464 H   0  0  0  0  0  0  0  0  0  0  0  0
    0.1557    0.8695    1.3374 H   0  0  0  0  0  0  0  0  0  0  0  0
    1.3839   -0.3271    1.7765 H   0  0  0  0  0  0  0  0  0  0  0  0
    2.8024    0.8546    0.4199 H   0  0  0  0  0  0  0  0  0  0  0  0
    1.4374    1.7419   -0.3085 H   0  0  0  0  0  0  0  0  0  0  0  0
    1.9087    0.0881   -0.9306 H   0  0  0  0  0  0  0  0  0  0  0  0
   -0.7268   -2.5983    1.0111 H   0  0  0  0  0  0  0  0  0  0  0  0
  1  2  1  0
  2  3  1  0
  3  4  1  0
  4  5  1  0
  3  6  1  0
  1  7  1  0
  1  8  1  0
  1  9  1  0
  2 10  1  0
  2 11  1  0
  3 12  1  0
  4 13  1  0
  4 14  1  0
  5 15  1  0
  5 16  1  0
  5 17  1  0
  6 18  1  0
M  END
>  <Ligand ID>  (1) 
LIG0000539

>  <Ligand>  (1) 
3-Pentanol

>  <SMILES>  (1) 
CCC(CC)O

>  <CID>  (1) 
11428.0

>  <ChEMBL ID>  (1) 
nan

>  <InChiKey>  (1) 
AQIXEPGDORPWBJ-UHFFFAOYSA-N

>  <InChi>  (1) 
InChI=1S/C5H12O/c1-3-5(6)4-2/h5-6H,3-4H2,1-2H3

>  <IUPAC Name>  (1) 
pentan-3-ol

$$$$
