
     RDKit          3D

 60 63  0  0  0  0  0  0  0  0999 V2000
    0.3555    0.7058   -0.8366 O   0  0  0  0  0  0  0  0  0  0  0  0
    0.5070    0.0455    0.2154 C   0  0  0  0  0  0  0  0  0  0  0  0
   -0.6691   -0.3219    1.1107 C   0  0  0  0  0  0  0  0  0  0  0  0
   -0.4627    0.4203    2.3874 C   0  0  0  0  0  0  0  0  0  0  0  0
   -0.0896   -0.3532    3.5991 C   0  0  0  0  0  0  0  0  0  0  0  0
   -0.9312   -1.6011    3.6638 C   0  0  0  0  0  0  0  0  0  0  0  0
   -0.4128   -2.4464    2.4908 C   0  0  0  0  0  0  0  0  0  0  0  0
   -0.8076   -1.7902    1.1879 C   0  0  0  0  0  0  0  0  0  0  0  0
   -1.7873    0.3231    0.4233 N   0  0  0  0  0  0  0  0  0  0  0  0
   -1.7233    1.7584    0.2571 C   0  0  0  0  0  0  0  0  0  0  0  0
   -0.7741    2.4609    0.6649 O   0  0  0  0  0  0  0  0  0  0  0  0
   -2.8077    2.4903   -0.4246 C   0  0  0  0  0  0  0  0  0  0  0  0
   -2.6963    2.9099   -1.7347 C   0  0  0  0  0  0  0  0  0  0  0  0
   -3.7323    3.5840   -2.2986 N   0  0  0  0  0  0  0  0  0  0  0  0
   -4.8583    3.8337   -1.5648 C   0  0  0  0  0  0  0  0  0  0  0  0
   -4.9763    3.4162   -0.2522 C   0  0  0  0  0  0  0  0  0  0  0  0
   -3.9139    2.7431    0.2734 N   0  0  0  0  0  0  0  0  0  0  0  0
   -2.9353   -0.3272   -0.1141 C   0  0  0  0  0  0  0  0  0  0  0  0
   -2.8090   -0.8031   -1.5114 C   0  0  0  0  0  0  0  0  0  0  0  0
   -2.3422   -2.0568   -1.8420 C   0  0  0  0  0  0  0  0  0  0  0  0
   -2.3688   -2.1375   -3.2165 C   0  0  0  0  0  0  0  0  0  0  0  0
   -2.8589   -0.9045   -3.6504 C   0  0  0  0  0  0  0  0  0  0  0  0
   -3.0968   -0.1689   -2.6136 O   0  0  0  0  0  0  0  0  0  0  0  0
    1.8329   -0.3761    0.5834 N   0  0  0  0  0  0  0  0  0  0  0  0
    2.9166   -0.0125   -0.2757 C   0  0  0  0  0  0  0  0  0  0  0  0
    3.9504    0.7955    0.4523 C   0  0  0  0  0  0  0  0  0  0  0  0
    5.3099    0.2121    0.1833 C   0  0  0  0  0  0  0  0  0  0  0  0
    5.5794    0.0418   -1.2995 C   0  0  0  0  0  0  0  0  0  0  0  0
    4.4649   -0.6485   -2.0274 C   0  0  0  0  0  0  0  0  0  0  0  0
    3.5263   -1.2281   -0.9681 C   0  0  0  0  0  0  0  0  0  0  0  0
   -1.4070    0.9710    2.6510 H   0  0  0  0  0  0  0  0  0  0  0  0
    0.3151    1.2317    2.1999 H   0  0  0  0  0  0  0  0  0  0  0  0
    0.9759   -0.6588    3.5677 H   0  0  0  0  0  0  0  0  0  0  0  0
   -0.3102    0.2883    4.4801 H   0  0  0  0  0  0  0  0  0  0  0  0
   -0.8216   -2.1820    4.5744 H   0  0  0  0  0  0  0  0  0  0  0  0
   -1.9826   -1.3601    3.3937 H   0  0  0  0  0  0  0  0  0  0  0  0
   -0.8684   -3.4550    2.5141 H   0  0  0  0  0  0  0  0  0  0  0  0
    0.6594   -2.5548    2.6500 H   0  0  0  0  0  0  0  0  0  0  0  0
   -0.1896   -2.2874    0.4087 H   0  0  0  0  0  0  0  0  0  0  0  0
   -1.8435   -2.1059    1.0100 H   0  0  0  0  0  0  0  0  0  0  0  0
   -1.8212    2.7155   -2.3027 H   0  0  0  0  0  0  0  0  0  0  0  0
   -5.6665    4.3741   -2.0541 H   0  0  0  0  0  0  0  0  0  0  0  0
   -5.8612    3.6061    0.3434 H   0  0  0  0  0  0  0  0  0  0  0  0
   -3.7795    0.4348   -0.1722 H   0  0  0  0  0  0  0  0  0  0  0  0
   -3.3147   -1.1054    0.5338 H   0  0  0  0  0  0  0  0  0  0  0  0
   -2.0036   -2.8742   -1.2262 H   0  0  0  0  0  0  0  0  0  0  0  0
   -2.0724   -2.9816   -3.8325 H   0  0  0  0  0  0  0  0  0  0  0  0
   -2.9775   -0.7119   -4.7102 H   0  0  0  0  0  0  0  0  0  0  0  0
    2.0237   -0.9250    1.4315 H   0  0  0  0  0  0  0  0  0  0  0  0
    2.5332    0.6192   -1.1366 H   0  0  0  0  0  0  0  0  0  0  0  0
    3.7775    0.7301    1.5504 H   0  0  0  0  0  0  0  0  0  0  0  0
    3.9425    1.8651    0.1702 H   0  0  0  0  0  0  0  0  0  0  0  0
    5.4566   -0.7585    0.6980 H   0  0  0  0  0  0  0  0  0  0  0  0
    6.0594    0.9550    0.5545 H   0  0  0  0  0  0  0  0  0  0  0  0
    5.7662    1.0837   -1.6917 H   0  0  0  0  0  0  0  0  0  0  0  0
    6.5220   -0.5206   -1.4210 H   0  0  0  0  0  0  0  0  0  0  0  0
    3.8709    0.1168   -2.5702 H   0  0  0  0  0  0  0  0  0  0  0  0
    4.8511   -1.4403   -2.6959 H   0  0  0  0  0  0  0  0  0  0  0  0
    4.0812   -1.8874   -0.3040 H   0  0  0  0  0  0  0  0  0  0  0  0
    2.6955   -1.7472   -1.4771 H   0  0  0  0  0  0  0  0  0  0  0  0
  1  2  2  0
  2  3  1  0
  3  4  1  0
  4  5  1  0
  5  6  1  0
  6  7  1  0
  7  8  1  0
  3  9  1  0
  9 10  1  0
 10 11  2  0
 10 12  1  0
 12 13  2  0
 13 14  1  0
 14 15  2  0
 15 16  1  0
 16 17  2  0
  9 18  1  0
 18 19  1  0
 19 20  2  0
 20 21  1  0
 21 22  2  0
 22 23  1  0
  2 24  1  0
 24 25  1  0
 25 26  1  0
 26 27  1  0
 27 28  1  0
 28 29  1  0
 29 30  1  0
  8  3  1  0
 17 12  1  0
 23 19  1  0
 30 25  1  0
  4 31  1  0
  4 32  1  0
  5 33  1  0
  5 34  1  0
  6 35  1  0
  6 36  1  0
  7 37  1  0
  7 38  1  0
  8 39  1  0
  8 40  1  0
 13 41  1  0
 15 42  1  0
 16 43  1  0
 18 44  1  0
 18 45  1  0
 20 46  1  0
 21 47  1  0
 22 48  1  0
 24 49  1  0
 25 50  1  0
 26 51  1  0
 26 52  1  0
 27 53  1  0
 27 54  1  0
 28 55  1  0
 28 56  1  0
 29 57  1  0
 29 58  1  0
 30 59  1  0
 30 60  1  0
M  END
>  <Ligand ID>  (1) 
LIG0003059

>  <Ligand>  (1) 
MLS000519757

>  <SMILES>  (1) 
O=C(C1(CCCCC1)N(C(=O)c1cnccn1)Cc1ccco1)NC1CCCCC1

>  <CID>  (1) 
4098324.0

>  <ChEMBL ID>  (1) 
nan

>  <InChiKey>  (1) 
JWGUDDMHZNCSGD-UHFFFAOYSA-N

>  <InChi>  (1) 
InChI=1S/C23H30N4O3/c28-21(20-16-24-13-14-25-20)27(17-19-10-7-15-30-19)23(11-5-2-6-12-23)22(29)26-18-8-3-1-4-9-18/h7,10,13-16,18H,1-6,8-9,11-12,17H2,(H,26,29)

>  <IUPAC Name>  (1) 
N-[1-(cyclohexylcarbamoyl)cyclohexyl]-N-(furan-2-ylmethyl)pyrazine-2-carboxamide

$$$$
