
     RDKit          3D

 52 52  0  0  0  0  0  0  0  0999 V2000
   -3.4428   -3.4311   -0.6190 C   0  0  0  0  0  0  0  0  0  0  0  0
   -2.9301   -2.1158   -0.6234 O   0  0  0  0  0  0  0  0  0  0  0  0
   -3.7605   -1.0693   -0.3063 C   0  0  0  0  0  0  0  0  0  0  0  0
   -5.1043   -1.2365    0.0271 C   0  0  0  0  0  0  0  0  0  0  0  0
   -5.9261   -0.1815    0.3432 C   0  0  0  0  0  0  0  0  0  0  0  0
   -5.4559    1.1138    0.3466 C   0  0  0  0  0  0  0  0  0  0  0  0
   -4.1228    1.3038    0.0180 C   0  0  0  0  0  0  0  0  0  0  0  0
   -3.2915    0.2262   -0.3026 C   0  0  0  0  0  0  0  0  0  0  0  0
   -1.9760    0.5634   -0.6108 O   0  0  0  0  0  0  0  0  0  0  0  0
   -0.9595    0.6339    0.3559 C   0  0  0  0  0  0  0  0  0  0  0  0
    0.3276    1.0404   -0.3152 C   0  0  0  0  0  0  0  0  0  0  0  0
    0.7511    0.1289   -1.3211 N   0  0  0  0  0  0  0  0  0  0  0  0
    1.9824    0.5312   -1.9728 C   0  0  0  0  0  0  0  0  0  0  0  0
    3.2014    0.1408   -1.1935 C   0  0  0  0  0  0  0  0  0  0  0  0
    2.9616   -0.7395   -0.1003 N   0  0  0  0  0  0  0  0  0  0  0  0
    1.7406   -1.4678    0.1531 C   0  0  0  0  0  0  0  0  0  0  0  0
    0.7646   -1.2575   -0.9458 C   0  0  0  0  0  0  0  0  0  0  0  0
    4.0220   -0.9298    0.8500 C   0  0  0  0  0  0  0  0  0  0  0  0
    3.8768   -1.7069    1.8551 O   0  0  0  0  0  0  0  0  0  0  0  0
    5.3121   -0.2608    0.7317 C   0  0  0  0  0  0  0  0  0  0  0  0
    6.2765   -0.3193    1.7088 C   0  0  0  0  0  0  0  0  0  0  0  0
    7.3831    0.4215    1.2901 C   0  0  0  0  0  0  0  0  0  0  0  0
    7.0058    0.9067    0.0272 C   0  0  0  0  0  0  0  0  0  0  0  0
    5.8003    0.4754   -0.2333 O   0  0  0  0  0  0  0  0  0  0  0  0
   -3.6185    2.5976    0.0114 O   0  0  0  0  0  0  0  0  0  0  0  0
   -4.4541    3.6903    0.3286 C   0  0  0  0  0  0  0  0  0  0  0  0
    0.0000    0.0000    0.0000 Cl  0  0  0  0  0  0  0  0  0  0  0  0
    0.0000    0.0000    0.0000 H   0  0  0  0  0 15  0  0  0  0  0  0
   -2.6129   -4.1834   -0.6793 H   0  0  0  0  0  0  0  0  0  0  0  0
   -4.0514   -3.5789    0.2976 H   0  0  0  0  0  0  0  0  0  0  0  0
   -4.1125   -3.5219   -1.5226 H   0  0  0  0  0  0  0  0  0  0  0  0
   -5.5416   -2.2255    0.0436 H   0  0  0  0  0  0  0  0  0  0  0  0
   -6.9866   -0.3269    0.6033 H   0  0  0  0  0  0  0  0  0  0  0  0
   -6.0852    1.9523    0.5926 H   0  0  0  0  0  0  0  0  0  0  0  0
   -1.2424    1.3394    1.1689 H   0  0  0  0  0  0  0  0  0  0  0  0
   -0.8939   -0.3615    0.8523 H   0  0  0  0  0  0  0  0  0  0  0  0
    0.1079    2.0115   -0.8302 H   0  0  0  0  0  0  0  0  0  0  0  0
    1.0841    1.2482    0.4650 H   0  0  0  0  0  0  0  0  0  0  0  0
    1.9075    1.6308   -2.1024 H   0  0  0  0  0  0  0  0  0  0  0  0
    1.9953    0.0957   -2.9945 H   0  0  0  0  0  0  0  0  0  0  0  0
    3.6341    1.0880   -0.7859 H   0  0  0  0  0  0  0  0  0  0  0  0
    3.9389   -0.3236   -1.8841 H   0  0  0  0  0  0  0  0  0  0  0  0
    2.0357   -2.5612    0.1403 H   0  0  0  0  0  0  0  0  0  0  0  0
    1.3536   -1.2599    1.1747 H   0  0  0  0  0  0  0  0  0  0  0  0
   -0.2621   -1.5328   -0.6829 H   0  0  0  0  0  0  0  0  0  0  0  0
    1.1328   -1.8252   -1.8355 H   0  0  0  0  0  0  0  0  0  0  0  0
    6.2781   -0.8247    2.6701 H   0  0  0  0  0  0  0  0  0  0  0  0
    8.3130    0.5861    1.8147 H   0  0  0  0  0  0  0  0  0  0  0  0
    7.6838    1.5226   -0.5363 H   0  0  0  0  0  0  0  0  0  0  0  0
   -3.9274    4.6355    0.0707 H   0  0  0  0  0  0  0  0  0  0  0  0
   -4.7222    3.7163    1.4053 H   0  0  0  0  0  0  0  0  0  0  0  0
   -5.3907    3.6408   -0.2847 H   0  0  0  0  0  0  0  0  0  0  0  0
  1  2  1  0
  2  3  1  0
  3  4  2  0
  4  5  1  0
  5  6  2  0
  6  7  1  0
  7  8  2  0
  8  9  1  0
  9 10  1  0
 10 11  1  0
 11 12  1  0
 12 13  1  0
 13 14  1  0
 14 15  1  0
 15 16  1  0
 16 17  1  0
 15 18  1  0
 18 19  2  0
 18 20  1  0
 20 21  2  0
 21 22  1  0
 22 23  2  0
 23 24  1  0
  7 25  1  0
 25 26  1  0
  8  3  1  0
 17 12  1  0
 24 20  1  0
  1 29  1  0
  1 30  1  0
  1 31  1  0
  4 32  1  0
  5 33  1  0
  6 34  1  0
 10 35  1  0
 10 36  1  0
 11 37  1  0
 11 38  1  0
 13 39  1  0
 13 40  1  0
 14 41  1  0
 14 42  1  0
 16 43  1  0
 16 44  1  0
 17 45  1  0
 17 46  1  0
 21 47  1  0
 22 48  1  0
 23 49  1  0
 26 50  1  0
 26 51  1  0
 26 52  1  0
M  CHG  2  27  -1  28   1
M  END
>  <Ligand ID>  (1) 
LIG0005073

>  <Ligand>  (1) 
AC1LCZO9

>  <SMILES>  (1) 
COc1cccc(c1OCCN1CCN(CC1)C(=O)c1ccco1)OC.[Cl-].[H+]

>  <CID>  (1) 
658889.0

>  <ChEMBL ID>  (1) 
nan

>  <InChiKey>  (1) 
SLWNXDOOGGHXNA-UHFFFAOYSA-N

>  <InChi>  (1) 
InChI=1S/C19H24N2O5.ClH/c1-23-15-5-3-6-16(24-2)18(15)26-14-12-20-8-10-21(11-9-20)19(22)17-7-4-13-25-17;/h3-7,13H,8-12,14H2,1-2H3;1H

>  <IUPAC Name>  (1) 
[4-[2-(2,6-dimethoxyphenoxy)ethyl]piperazin-1-yl]-(furan-2-yl)methanone;hydron;chloride

$$$$
