
     RDKit          3D

 45 48  0  0  0  0  0  0  0  0999 V2000
    4.7575   -0.2001   -0.6801 C   0  0  0  0  0  0  0  0  0  0  0  0
    3.7933   -1.1652   -0.0254 C   0  0  2  0  0  0  0  0  0  0  0  0
    3.6345   -2.4337   -0.8070 C   0  0  0  0  0  0  0  0  0  0  0  0
    2.1295   -2.6101   -0.9546 C   0  0  0  0  0  0  0  0  0  0  0  0
    1.6922   -1.1533   -1.0593 C   0  0  0  0  0  0  0  0  0  0  0  0
    2.4889   -0.5331   -0.0101 N   0  0  0  0  0  0  0  0  0  0  0  0
    2.1223    0.5012    0.8938 C   0  0  0  0  0  0  0  0  0  0  0  0
    2.9436    0.9431    1.7701 O   0  0  0  0  0  0  0  0  0  0  0  0
    0.8091    1.1331    0.8998 C   0  0  0  0  0  0  0  0  0  0  0  0
    0.7690    2.4906    0.6625 C   0  0  0  0  0  0  0  0  0  0  0  0
   -0.3975    3.1635    0.6474 N   0  0  0  0  0  0  0  0  0  0  0  0
   -1.5471    2.4976    0.8684 C   0  0  0  0  0  0  0  0  0  0  0  0
   -1.5412    1.1155    1.1133 C   0  0  0  0  0  0  0  0  0  0  0  0
   -0.3373    0.4668    1.1206 N   0  0  0  0  0  0  0  0  0  0  0  0
   -2.7365    0.5171    1.3269 O   0  0  0  0  0  0  0  0  0  0  0  0
   -3.0844   -0.7873    1.5910 C   0  0  0  0  0  0  0  0  0  0  0  0
   -2.6221   -1.6587    0.4429 C   0  0  0  0  0  0  0  0  0  0  0  0
   -2.8732   -3.1204    0.4676 C   0  0  0  0  0  0  0  0  0  0  0  0
   -1.4866   -2.6062    0.7150 C   0  0  0  0  0  0  0  0  0  0  0  0
   -2.8629    3.2241    0.8558 C   0  0  0  0  0  0  0  0  0  0  0  0
   -3.6213    3.3695   -0.4023 C   0  0  0  0  0  0  0  0  0  0  0  0
   -2.8017    4.5199    0.0351 C   0  0  0  0  0  0  0  0  0  0  0  0
    4.3003    0.3767   -1.5151 H   0  0  0  0  0  0  0  0  0  0  0  0
    5.6172   -0.7743   -1.0827 H   0  0  0  0  0  0  0  0  0  0  0  0
    5.0891    0.5568    0.0673 H   0  0  0  0  0  0  0  0  0  0  0  0
    4.0665   -1.3245    1.0397 H   0  0  0  0  0  0  0  0  0  0  0  0
    4.1495   -2.3303   -1.7718 H   0  0  0  0  0  0  0  0  0  0  0  0
    4.0856   -3.2444   -0.2069 H   0  0  0  0  0  0  0  0  0  0  0  0
    1.8815   -3.1835   -1.8527 H   0  0  0  0  0  0  0  0  0  0  0  0
    1.7229   -3.0209   -0.0149 H   0  0  0  0  0  0  0  0  0  0  0  0
    1.9788   -0.6975   -2.0159 H   0  0  0  0  0  0  0  0  0  0  0  0
    0.6140   -1.0624   -0.8513 H   0  0  0  0  0  0  0  0  0  0  0  0
    1.6721    3.0715    0.4787 H   0  0  0  0  0  0  0  0  0  0  0  0
   -4.1711   -0.9624    1.7085 H   0  0  0  0  0  0  0  0  0  0  0  0
   -2.6272   -1.2011    2.5206 H   0  0  0  0  0  0  0  0  0  0  0  0
   -2.5350   -1.1149   -0.5234 H   0  0  0  0  0  0  0  0  0  0  0  0
   -3.4440   -3.4895    1.3253 H   0  0  0  0  0  0  0  0  0  0  0  0
   -3.1161   -3.5453   -0.5470 H   0  0  0  0  0  0  0  0  0  0  0  0
   -1.1163   -2.6736    1.7773 H   0  0  0  0  0  0  0  0  0  0  0  0
   -0.7448   -2.8661   -0.0475 H   0  0  0  0  0  0  0  0  0  0  0  0
   -3.4005    3.3236    1.8247 H   0  0  0  0  0  0  0  0  0  0  0  0
   -3.3761    2.7994   -1.3188 H   0  0  0  0  0  0  0  0  0  0  0  0
   -4.7169    3.5257   -0.2925 H   0  0  0  0  0  0  0  0  0  0  0  0
   -3.2458    5.4381    0.4548 H   0  0  0  0  0  0  0  0  0  0  0  0
   -1.9117    4.7249   -0.5872 H   0  0  0  0  0  0  0  0  0  0  0  0
  1  2  1  0
  2  3  1  0
  3  4  1  0
  4  5  1  0
  5  6  1  0
  6  7  1  0
  7  8  2  0
  7  9  1  0
  9 10  2  0
 10 11  1  0
 11 12  2  0
 12 13  1  0
 13 14  2  0
 13 15  1  0
 15 16  1  0
 16 17  1  0
 17 18  1  0
 18 19  1  0
 12 20  1  0
 20 21  1  0
 21 22  1  0
  6  2  1  0
 14  9  1  0
 19 17  1  0
 22 20  1  0
  1 23  1  0
  1 24  1  0
  1 25  1  0
  2 26  1  1
  3 27  1  0
  3 28  1  0
  4 29  1  0
  4 30  1  0
  5 31  1  0
  5 32  1  0
 10 33  1  0
 16 34  1  0
 16 35  1  0
 17 36  1  0
 18 37  1  0
 18 38  1  0
 19 39  1  0
 19 40  1  0
 20 41  1  0
 21 42  1  0
 21 43  1  0
 22 44  1  0
 22 45  1  0
M  END
>  <Ligand ID>  (1) 
LIG0005241

>  <Ligand>  (1) 
SCHEMBL15775595

>  <SMILES>  (1) 
C[C@@H]1CCCN1C(=O)c1cnc(c(n1)OCC1CC1)C1CC1

>  <CID>  (1) 
90203135.0

>  <ChEMBL ID>  (1) 
nan

>  <InChiKey>  (1) 
MJOBLMCVCVMOJT-LLVKDONJSA-N

>  <InChi>  (1) 
InChI=1S/C17H23N3O2/c1-11-3-2-8-20(11)17(21)14-9-18-15(13-6-7-13)16(19-14)22-10-12-4-5-12/h9,11-13H,2-8,10H2,1H3/t11-/m1/s1

>  <IUPAC Name>  (1) 
[5-cyclopropyl-6-(cyclopropylmethoxy)pyrazin-2-yl]-[(2R)-2-methylpyrrolidin-1-yl]methanone

$$$$
