
     RDKit          3D

133135  0  0  0  0  0  0  0  0999 V2000
   -9.7837    3.8139   -2.5006 C   0  0  0  0  0  0  0  0  0  0  0  0
  -10.7301    2.9989   -1.1859 S   0  0  0  0  0  0  0  0  0  0  0  0
  -10.1235    1.2757   -0.9966 C   0  0  0  0  0  0  0  0  0  0  0  0
   -8.7297    1.2325   -0.4613 C   0  0  0  0  0  0  0  0  0  0  0  0
   -8.1576   -0.1408   -0.2892 C   0  0  1  0  0  0  0  0  0  0  0  0
   -8.0587   -0.9006   -1.5592 C   0  0  0  0  0  0  0  0  0  0  0  0
   -6.9301   -1.4224   -1.8318 O   0  0  0  0  0  0  0  0  0  0  0  0
   -9.0890   -1.1005   -2.4901 N   0  0  0  0  0  0  0  0  0  0  0  0
   -6.8868   -0.1710    0.4247 N   0  0  0  0  0  0  0  0  0  0  0  0
   -6.7247   -1.0634    1.5423 C   0  0  0  0  0  0  0  0  0  0  0  0
   -7.7606   -1.7530    1.7987 O   0  0  0  0  0  0  0  0  0  0  0  0
   -5.4904   -1.1714    2.3023 C   0  0  1  0  0  0  0  0  0  0  0  0
   -4.4541   -0.2620    1.7651 N   0  0  0  0  0  0  0  0  0  0  0  0
   -3.6700   -0.5513    0.6469 C   0  0  0  0  0  0  0  0  0  0  0  0
   -3.8380   -1.6119    0.0324 O   0  0  0  0  0  0  0  0  0  0  0  0
   -2.6530    0.4940    0.2810 C   0  0  0  0  0  0  0  0  0  0  0  0
   -1.8731    0.1965   -0.8450 N   0  0  0  0  0  0  0  0  0  0  0  0
   -2.4188    0.6733   -2.1437 C   0  0  0  0  0  0  0  0  0  0  0  0
   -2.0350    2.1487   -2.2788 C   0  0  0  0  0  0  0  0  0  0  0  0
   -0.5936    2.2672   -2.4281 N   0  0  0  0  0  0  0  0  0  0  0  0
   -0.0176    1.7632   -3.6632 C   0  0  0  0  0  0  0  0  0  0  0  0
   -0.8779    1.3525   -4.4586 O   0  0  0  0  0  0  0  0  0  0  0  0
    1.4066    1.7651   -3.8714 C   0  0  0  0  0  0  0  0  0  0  0  0
    1.9222    1.7665   -5.2939 C   0  0  0  0  0  0  0  0  0  0  0  0
    3.2959    1.2905   -5.1649 C   0  0  0  0  0  0  0  0  0  0  0  0
    3.5338    0.5751   -4.1189 O   0  0  0  0  0  0  0  0  0  0  0  0
    4.4502    1.4476   -5.9608 N   0  0  0  0  0  0  0  0  0  0  0  0
    5.6084    0.7137   -5.3767 C   0  0  0  0  0  0  0  0  0  0  0  0
    5.7989    1.3181   -4.0114 C   0  0  0  0  0  0  0  0  0  0  0  0
    5.2300    2.3184   -3.5880 O   0  0  0  0  0  0  0  0  0  0  0  0
    6.6978    0.6693   -3.1416 N   0  0  0  0  0  0  0  0  0  0  0  0
    7.0336    1.0351   -1.7823 C   0  0  1  0  0  0  0  0  0  0  0  0
    6.1291    0.2812   -0.8279 C   0  0  0  0  0  0  0  0  0  0  0  0
    6.5384   -0.6476   -0.1198 O   0  0  0  0  0  0  0  0  0  0  0  0
    4.7454    0.6044   -0.6777 N   0  0  0  0  0  0  0  0  0  0  0  0
    3.9003   -0.2362    0.1870 C   0  0  2  0  0  0  0  0  0  0  0  0
    2.4858    0.0251    0.1221 C   0  0  0  0  0  0  0  0  0  0  0  0
    1.9884    1.0900   -0.2450 O   0  0  0  0  0  0  0  0  0  0  0  0
    1.4972   -0.9821    0.4794 N   0  0  0  0  0  0  0  0  0  0  0  0
    0.0797   -0.6814    0.5964 C   0  0  1  0  0  0  0  0  0  0  0  0
   -0.6140   -0.4218   -0.6857 C   0  0  0  0  0  0  0  0  0  0  0  0
   -0.1069   -0.7384   -1.7302 O   0  0  0  0  0  0  0  0  0  0  0  0
   -0.4834   -1.8932    1.2999 C   0  0  0  0  0  0  0  0  0  0  0  0
   -0.2305   -3.1664    0.5409 C   0  0  0  0  0  0  0  0  0  0  0  0
    0.7910   -4.0264    0.9257 C   0  0  0  0  0  0  0  0  0  0  0  0
    1.0397   -5.1882    0.2014 C   0  0  0  0  0  0  0  0  0  0  0  0
    0.3093   -5.5434   -0.9038 C   0  0  0  0  0  0  0  0  0  0  0  0
   -0.7080   -4.6936   -1.2922 C   0  0  0  0  0  0  0  0  0  0  0  0
   -0.9500   -3.5373   -0.5678 C   0  0  0  0  0  0  0  0  0  0  0  0
    4.2759    0.2414    1.6525 C   0  0  0  0  0  0  0  0  0  0  0  0
    3.5505   -0.4715    2.6788 C   0  0  0  0  0  0  0  0  0  0  0  0
    4.1038   -1.6526    3.2003 C   0  0  0  0  0  0  0  0  0  0  0  0
    3.4720   -2.3560    4.1973 C   0  0  0  0  0  0  0  0  0  0  0  0
    2.2802   -1.9070    4.6987 C   0  0  0  0  0  0  0  0  0  0  0  0
    1.7391   -0.7443    4.1815 C   0  0  0  0  0  0  0  0  0  0  0  0
    2.3367   -0.0098    3.1851 C   0  0  0  0  0  0  0  0  0  0  0  0
    8.4585    0.7875   -1.5596 C   0  0  0  0  0  0  0  0  0  0  0  0
    9.0568    1.0810   -0.2432 C   0  0  0  0  0  0  0  0  0  0  0  0
    8.9993    2.4953    0.2373 C   0  0  0  0  0  0  0  0  0  0  0  0
    9.6761    2.4769    1.5503 N   0  0  0  0  0  0  0  0  0  0  0  0
   10.3841    3.4816    1.9552 C   0  0  0  0  0  0  0  0  0  0  0  0
   10.5721    4.6666    1.1964 N   0  0  0  0  0  0  0  0  0  0  0  0
   10.9874    3.3197    3.2537 N   0  0  0  0  0  0  0  0  0  0  0  0
   -5.4554   -1.0459    3.7535 C   0  0  0  0  0  0  0  0  0  0  0  0
   -6.1838   -1.9573    4.6530 C   0  0  0  0  0  0  0  0  0  0  0  0
   -7.6552   -2.0429    4.5940 C   0  0  0  0  0  0  0  0  0  0  0  0
   -5.7751   -1.5694    6.0953 C   0  0  0  0  0  0  0  0  0  0  0  0
  -10.4446    4.5965   -2.9447 H   0  0  0  0  0  0  0  0  0  0  0  0
   -8.8675    4.2445   -2.0522 H   0  0  0  0  0  0  0  0  0  0  0  0
   -9.5764    3.0862   -3.3208 H   0  0  0  0  0  0  0  0  0  0  0  0
  -10.8441    0.8109   -0.2782 H   0  0  0  0  0  0  0  0  0  0  0  0
  -10.2946    0.7918   -1.9554 H   0  0  0  0  0  0  0  0  0  0  0  0
   -8.0549    1.9106   -1.0321 H   0  0  0  0  0  0  0  0  0  0  0  0
   -8.7699    1.6904    0.5652 H   0  0  0  0  0  0  0  0  0  0  0  0
   -8.9255   -0.7073    0.3306 H   0  0  0  0  0  0  0  0  0  0  0  0
   -9.0677   -0.6974   -3.4738 H   0  0  0  0  0  0  0  0  0  0  0  0
   -9.9351   -1.6811   -2.2115 H   0  0  0  0  0  0  0  0  0  0  0  0
   -6.0991    0.4220    0.1568 H   0  0  0  0  0  0  0  0  0  0  0  0
   -5.0778   -2.2001    2.0052 H   0  0  0  0  0  0  0  0  0  0  0  0
   -4.2598    0.6712    2.2308 H   0  0  0  0  0  0  0  0  0  0  0  0
   -2.0676    0.6684    1.2172 H   0  0  0  0  0  0  0  0  0  0  0  0
   -3.2110    1.4672    0.1474 H   0  0  0  0  0  0  0  0  0  0  0  0
   -3.5099    0.6173   -2.1083 H   0  0  0  0  0  0  0  0  0  0  0  0
   -2.0403    0.0347   -2.9416 H   0  0  0  0  0  0  0  0  0  0  0  0
   -2.6050    2.5706   -3.1215 H   0  0  0  0  0  0  0  0  0  0  0  0
   -2.3759    2.6417   -1.3497 H   0  0  0  0  0  0  0  0  0  0  0  0
    0.0659    2.6610   -1.7783 H   0  0  0  0  0  0  0  0  0  0  0  0
    1.8824    2.6340   -3.3673 H   0  0  0  0  0  0  0  0  0  0  0  0
    1.8270    0.8765   -3.3104 H   0  0  0  0  0  0  0  0  0  0  0  0
    1.3407    1.1076   -5.9428 H   0  0  0  0  0  0  0  0  0  0  0  0
    1.9309    2.8240   -5.6297 H   0  0  0  0  0  0  0  0  0  0  0  0
    4.4338    1.9836   -6.7858 H   0  0  0  0  0  0  0  0  0  0  0  0
    6.4850    1.0098   -5.9836 H   0  0  0  0  0  0  0  0  0  0  0  0
    5.4336   -0.3588   -5.3591 H   0  0  0  0  0  0  0  0  0  0  0  0
    7.1696   -0.1652   -3.5208 H   0  0  0  0  0  0  0  0  0  0  0  0
    6.7880    2.1290   -1.6647 H   0  0  0  0  0  0  0  0  0  0  0  0
    4.4216    1.4214   -1.1820 H   0  0  0  0  0  0  0  0  0  0  0  0
    4.2302   -1.2470    0.1099 H   0  0  0  0  0  0  0  0  0  0  0  0
    1.9202   -1.9022    0.6216 H   0  0  0  0  0  0  0  0  0  0  0  0
   -0.0663    0.2823    1.1489 H   0  0  0  0  0  0  0  0  0  0  0  0
    0.0495   -2.0222    2.2903 H   0  0  0  0  0  0  0  0  0  0  0  0
   -1.5503   -1.8922    1.5086 H   0  0  0  0  0  0  0  0  0  0  0  0
    1.4193   -3.8615    1.7787 H   0  0  0  0  0  0  0  0  0  0  0  0
    1.8405   -5.8800    0.4856 H   0  0  0  0  0  0  0  0  0  0  0  0
    0.4587   -6.4227   -1.4886 H   0  0  0  0  0  0  0  0  0  0  0  0
   -1.3225   -4.9348   -2.1720 H   0  0  0  0  0  0  0  0  0  0  0  0
   -1.7413   -2.9152   -0.9246 H   0  0  0  0  0  0  0  0  0  0  0  0
    4.1487    1.3276    1.7250 H   0  0  0  0  0  0  0  0  0  0  0  0
    5.3573    0.0274    1.7549 H   0  0  0  0  0  0  0  0  0  0  0  0
    5.0472   -2.0298    2.8187 H   0  0  0  0  0  0  0  0  0  0  0  0
    3.9173   -3.2779    4.5957 H   0  0  0  0  0  0  0  0  0  0  0  0
    1.8074   -2.4785    5.4813 H   0  0  0  0  0  0  0  0  0  0  0  0
    0.7919   -0.3754    4.5691 H   0  0  0  0  0  0  0  0  0  0  0  0
    1.8721    0.9074    2.8023 H   0  0  0  0  0  0  0  0  0  0  0  0
    9.0257    1.4197   -2.3147 H   0  0  0  0  0  0  0  0  0  0  0  0
    8.6753   -0.3008   -1.7819 H   0  0  0  0  0  0  0  0  0  0  0  0
   10.1217    0.7427   -0.1726 H   0  0  0  0  0  0  0  0  0  0  0  0
    8.5612    0.4699    0.5787 H   0  0  0  0  0  0  0  0  0  0  0  0
    8.0094    2.9056    0.4248 H   0  0  0  0  0  0  0  0  0  0  0  0
    9.5982    3.1921   -0.3865 H   0  0  0  0  0  0  0  0  0  0  0  0
   10.2284    5.6154    1.4984 H   0  0  0  0  0  0  0  0  0  0  0  0
   11.0741    4.6791    0.2594 H   0  0  0  0  0  0  0  0  0  0  0  0
   10.4319    2.9984    4.0754 H   0  0  0  0  0  0  0  0  0  0  0  0
   12.0115    3.5464    3.3048 H   0  0  0  0  0  0  0  0  0  0  0  0
   -5.5963    0.0503    4.0930 H   0  0  0  0  0  0  0  0  0  0  0  0
   -4.3503   -1.1727    4.0469 H   0  0  0  0  0  0  0  0  0  0  0  0
   -5.7800   -3.0117    4.5540 H   0  0  0  0  0  0  0  0  0  0  0  0
   -7.9961   -2.1936    5.6845 H   0  0  0  0  0  0  0  0  0  0  0  0
   -8.1895   -1.1066    4.3322 H   0  0  0  0  0  0  0  0  0  0  0  0
   -8.0749   -2.9622    4.1191 H   0  0  0  0  0  0  0  0  0  0  0  0
   -6.3640   -0.7261    6.4595 H   0  0  0  0  0  0  0  0  0  0  0  0
   -5.9323   -2.4436    6.7482 H   0  0  0  0  0  0  0  0  0  0  0  0
   -4.7016   -1.3360    6.0979 H   0  0  0  0  0  0  0  0  0  0  0  0
  1  2  1  0
  2  3  1  0
  3  4  1  0
  4  5  1  0
  5  6  1  0
  6  7  2  0
  6  8  1  0
  5  9  1  0
  9 10  1  0
 10 11  2  0
 10 12  1  0
 12 13  1  0
 13 14  1  0
 14 15  2  0
 14 16  1  0
 16 17  1  0
 17 18  1  0
 18 19  1  0
 19 20  1  0
 20 21  1  0
 21 22  2  0
 21 23  1  0
 23 24  1  0
 24 25  1  0
 25 26  2  0
 25 27  1  0
 27 28  1  0
 28 29  1  0
 29 30  2  0
 29 31  1  0
 31 32  1  0
 32 33  1  0
 33 34  2  0
 33 35  1  0
 35 36  1  0
 36 37  1  0
 37 38  2  0
 37 39  1  0
 39 40  1  0
 40 41  1  0
 41 42  2  0
 40 43  1  0
 43 44  1  0
 44 45  2  0
 45 46  1  0
 46 47  2  0
 47 48  1  0
 48 49  2  0
 36 50  1  0
 50 51  1  0
 51 52  2  0
 52 53  1  0
 53 54  2  0
 54 55  1  0
 55 56  2  0
 32 57  1  0
 57 58  1  0
 58 59  1  0
 59 60  1  0
 60 61  2  3
 61 62  1  0
 61 63  1  0
 12 64  1  0
 64 65  1  0
 65 66  1  0
 65 67  1  0
 41 17  1  0
 49 44  1  0
 56 51  1  0
  1 68  1  0
  1 69  1  0
  1 70  1  0
  3 71  1  0
  3 72  1  0
  4 73  1  0
  4 74  1  0
  5 75  1  1
  8 76  1  0
  8 77  1  0
  9 78  1  0
 12 79  1  1
 13 80  1  0
 16 81  1  0
 16 82  1  0
 18 83  1  0
 18 84  1  0
 19 85  1  0
 19 86  1  0
 20 87  1  0
 23 88  1  0
 23 89  1  0
 24 90  1  0
 24 91  1  0
 27 92  1  0
 28 93  1  0
 28 94  1  0
 31 95  1  0
 32 96  1  6
 35 97  1  0
 36 98  1  1
 39 99  1  0
 40100  1  1
 43101  1  0
 43102  1  0
 45103  1  0
 46104  1  0
 47105  1  0
 48106  1  0
 49107  1  0
 50108  1  0
 50109  1  0
 52110  1  0
 53111  1  0
 54112  1  0
 55113  1  0
 56114  1  0
 57115  1  0
 57116  1  0
 58117  1  0
 58118  1  0
 59119  1  0
 59120  1  0
 62121  1  0
 62122  1  0
 63123  1  0
 63124  1  0
 64125  1  0
 64126  1  0
 65127  1  0
 66128  1  0
 66129  1  0
 66130  1  0
 67131  1  0
 67132  1  0
 67133  1  0
M  END
>  <Ligand ID>  (1) 
LIG0003441

>  <Ligand>  (1) 
CHEMBL304752

>  <SMILES>  (1) 
CSCC[C@@H](C(=O)N)NC(=O)[C@@H](NC(=O)CN1CCNC(=O)CCC(=O)NCC(=O)N[C@@H](C(=O)N[C@H](C(=O)N[C@@H](C1=O)Cc1ccccc1)Cc1ccccc1)CCCN=C(N)N)CC(C)C

>  <CID>  (1) 
44308551.0

>  <ChEMBL ID>  (1) 
nan

>  <InChiKey>  (1) 
WGEKOVQGZROQRH-FVXJUOQQSA-N

>  <InChi>  (1) 
InChI=1S/C45H66N12O9S/c1-28(2)23-33(42(64)54-31(40(46)62)18-22-67-3)53-39(61)27-57-21-20-49-36(58)16-17-37(59)51-26-38(60)52-32(15-10-19-50-45(47)48)41(63)55-34(24-29-11-6-4-7-12-29)43(65)56-35(44(57)66)25-30-13-8-5-9-14-30/h4-9,11-14,28,31-35H,10,15-27H2,1-3H3,(H2,46,62)(H,49,58)(H,51,59)(H,52,60)(H,53,61)(H,54,64)(H,55,63)(H,56,65)(H4,47,48,50)/t31-,32+,33-,34-,35+/m0/s1

>  <IUPAC Name>  (1) 
(2S)-N-[(2S)-1-amino-4-methylsulfanyl-1-oxobutan-2-yl]-2-[[2-[(6R,9S,12R)-6,9-dibenzyl-12-[3-(diaminomethylideneamino)propyl]-5,8,11,14,17,20-hexaoxo-1,4,7,10,13,16-hexazacycloicos-4-yl]acetyl]amino]-4-methylpentanamide

$$$$
