
     RDKit          3D

 17 18  0  0  0  0  0  0  0  0999 V2000
    3.5705    1.2764   -0.3970 O   0  0  0  0  0  0  0  0  0  0  0  0
    2.4504    0.7236   -0.1882 C   0  0  0  0  0  0  0  0  0  0  0  0
    2.3758   -0.5019    0.4832 C   0  0  0  0  0  0  0  0  0  0  0  0
    1.1641   -1.1244    0.7226 C   0  0  0  0  0  0  0  0  0  0  0  0
    0.0147   -0.4889    0.2717 C   0  0  0  0  0  0  0  0  0  0  0  0
    0.1715    0.7120   -0.3790 C   0  0  0  0  0  0  0  0  0  0  0  0
    1.3317    1.2817   -0.5937 O   0  0  0  0  0  0  0  0  0  0  0  0
   -0.9952    1.3370   -0.8256 C   0  0  0  0  0  0  0  0  0  0  0  0
   -2.2440    0.7591   -0.6141 C   0  0  0  0  0  0  0  0  0  0  0  0
   -2.3512   -0.4554    0.0484 C   0  0  0  0  0  0  0  0  0  0  0  0
   -1.2091   -1.0809    0.4932 C   0  0  0  0  0  0  0  0  0  0  0  0
    3.2647   -1.0056    0.8387 H   0  0  0  0  0  0  0  0  0  0  0  0
    1.1343   -2.0790    1.2480 H   0  0  0  0  0  0  0  0  0  0  0  0
   -0.9182    2.2887   -1.3454 H   0  0  0  0  0  0  0  0  0  0  0  0
   -3.1208    1.2664   -0.9705 H   0  0  0  0  0  0  0  0  0  0  0  0
   -3.3522   -0.8810    0.1972 H   0  0  0  0  0  0  0  0  0  0  0  0
   -1.2869   -2.0279    1.0103 H   0  0  0  0  0  0  0  0  0  0  0  0
  1  2  2  0
  2  3  1  0
  3  4  2  0
  4  5  1  0
  5  6  2  0
  6  7  1  0
  6  8  1  0
  8  9  2  0
  9 10  1  0
 10 11  2  0
  7  2  1  0
 11  5  1  0
  3 12  1  0
  4 13  1  0
  8 14  1  0
  9 15  1  0
 10 16  1  0
 11 17  1  0
M  END
>  <Ligand ID>  (1) 
LIG0000067

>  <Ligand>  (1) 
Coumarin

>  <SMILES>  (1) 
O=c1ccc2c(o1)cccc2

>  <CID>  (1) 
323.0

>  <ChEMBL ID>  (1) 
nan

>  <InChiKey>  (1) 
ZYGHJZDHTFUPRJ-UHFFFAOYSA-N

>  <InChi>  (1) 
InChI=1S/C9H6O2/c10-9-6-5-7-3-1-2-4-8(7)11-9/h1-6H

>  <IUPAC Name>  (1) 
chromen-2-one

$$$$
