
     RDKit          3D

101106  0  0  0  0  0  0  0  0999 V2000
   -5.6792    5.6111   -1.6588 Br  0  0  0  0  0  0  0  0  0  0  0  0
   -4.5953    4.3158   -0.7958 C   0  0  0  0  0  0  0  0  0  0  0  0
   -3.2170    4.3884   -0.9649 C   0  0  0  0  0  0  0  0  0  0  0  0
   -2.4015    3.4614   -0.3504 C   0  0  0  0  0  0  0  0  0  0  0  0
   -2.8684    2.4383    0.4423 C   0  0  0  0  0  0  0  0  0  0  0  0
   -4.2604    2.3863    0.5973 C   0  0  0  0  0  0  0  0  0  0  0  0
   -5.0950    3.3027   -0.0076 C   0  0  0  0  0  0  0  0  0  0  0  0
   -2.0685    1.4521    1.1414 C   0  0  0  0  0  0  0  0  0  0  0  0
   -1.6321    0.2382    0.3999 C   0  0  1  0  0  0  0  0  0  0  0  0
   -2.6465   -0.5927   -0.1440 N   0  0  0  0  0  0  0  0  0  0  0  0
   -3.4927   -0.1626   -1.2317 C   0  0  0  0  0  0  0  0  0  0  0  0
   -4.9335   -0.4682   -1.0156 C   0  0  0  0  0  0  0  0  0  0  0  0
   -5.8711    0.1946   -1.7319 N   0  0  0  0  0  0  0  0  0  0  0  0
   -7.0986   -0.2240   -1.3843 C   0  0  0  0  0  0  0  0  0  0  0  0
   -6.9717   -1.1830   -0.4190 C   0  0  0  0  0  0  0  0  0  0  0  0
   -5.6115   -1.3192   -0.2049 C   0  0  0  0  0  0  0  0  0  0  0  0
   -5.0872   -2.2723    0.7759 C   0  0  0  0  0  0  0  0  0  0  0  0
   -3.8289   -2.9354    0.2952 C   0  0  1  0  0  0  0  0  0  0  0  0
   -2.7413   -1.9000    0.4667 C   0  0  0  0  0  0  0  0  0  0  0  0
   -1.8149   -2.2448    1.2426 O   0  0  0  0  0  0  0  0  0  0  0  0
   -3.4717   -4.1354    0.9632 N   0  0  0  0  0  0  0  0  0  0  0  0
   -3.2716   -5.3788    0.3041 C   0  0  0  0  0  0  0  0  0  0  0  0
   -3.4166   -5.4387   -0.9566 O   0  0  0  0  0  0  0  0  0  0  0  0
   -2.9004   -6.6299    0.9892 C   0  0  0  0  0  0  0  0  0  0  0  0
   -8.0975   -1.7982    0.1320 C   0  0  0  0  0  0  0  0  0  0  0  0
   -9.3743   -1.4335   -0.3044 C   0  0  0  0  0  0  0  0  0  0  0  0
   -9.5163   -0.4689   -1.2764 C   0  0  0  0  0  0  0  0  0  0  0  0
   -8.3772    0.1276   -1.8080 C   0  0  0  0  0  0  0  0  0  0  0  0
   -0.4897    0.5230   -0.5191 C   0  0  0  0  0  0  0  0  0  0  0  0
   -0.5560    0.3196   -1.7531 O   0  0  0  0  0  0  0  0  0  0  0  0
    0.6915    1.0427    0.1172 N   0  0  0  0  0  0  0  0  0  0  0  0
    1.8956    1.3725   -0.6101 C   0  0  2  0  0  0  0  0  0  0  0  0
    2.8820    0.2829   -0.2050 C   0  0  0  0  0  0  0  0  0  0  0  0
    2.5332   -0.6252    0.5773 O   0  0  0  0  0  0  0  0  0  0  0  0
    4.1827    0.3456   -0.7433 N   0  0  0  0  0  0  0  0  0  0  0  0
    5.2333   -0.6091   -0.4607 C   0  0  2  0  0  0  0  0  0  0  0  0
    6.3510    0.0343    0.3030 C   0  0  0  0  0  0  0  0  0  0  0  0
    7.3773   -0.6051    0.6482 O   0  0  0  0  0  0  0  0  0  0  0  0
    6.2033    1.4301    0.6314 N   0  0  0  0  0  0  0  0  0  0  0  0
    5.7334   -1.2624   -1.7070 C   0  0  0  0  0  0  0  0  0  0  0  0
    6.8079   -2.2328   -1.3698 C   0  0  0  0  0  0  0  0  0  0  0  0
    8.1580   -2.0941   -1.5366 C   0  0  0  0  0  0  0  0  0  0  0  0
    8.7796   -3.2267   -1.0924 N   0  0  0  0  0  0  0  0  0  0  0  0
    7.8307   -4.0903   -0.6416 C   0  0  0  0  0  0  0  0  0  0  0  0
    6.6042   -3.4893   -0.8065 C   0  0  0  0  0  0  0  0  0  0  0  0
    5.4955   -4.2090   -0.4048 C   0  0  0  0  0  0  0  0  0  0  0  0
    5.5782   -5.4731    0.1399 C   0  0  0  0  0  0  0  0  0  0  0  0
    6.8291   -6.0631    0.2981 C   0  0  0  0  0  0  0  0  0  0  0  0
    7.9570   -5.3659   -0.0952 C   0  0  0  0  0  0  0  0  0  0  0  0
    2.5372    2.6560   -0.1581 C   0  0  0  0  0  0  0  0  0  0  0  0
    1.6835    3.8708   -0.2872 C   0  0  0  0  0  0  0  0  0  0  0  0
    2.4246    5.1296    0.1951 C   0  0  0  0  0  0  0  0  0  0  0  0
    2.7875    4.9714    1.5953 N   0  0  0  0  0  0  0  0  0  0  0  0
    2.6933    6.0097    2.3878 C   0  0  0  0  0  0  0  0  0  0  0  0
    2.2281    7.2229    1.7628 N   0  0  0  0  0  0  0  0  0  0  0  0
    3.0152    5.9693    3.7521 N   0  0  0  0  0  0  0  0  0  0  0  0
   -2.7702    5.1803   -1.5852 H   0  0  0  0  0  0  0  0  0  0  0  0
   -1.3564    3.5429   -0.5029 H   0  0  0  0  0  0  0  0  0  0  0  0
   -4.7368    1.6212    1.2009 H   0  0  0  0  0  0  0  0  0  0  0  0
   -6.1698    3.2585    0.1141 H   0  0  0  0  0  0  0  0  0  0  0  0
   -2.5927    1.1135    2.0630 H   0  0  0  0  0  0  0  0  0  0  0  0
   -1.1216    1.9729    1.4682 H   0  0  0  0  0  0  0  0  0  0  0  0
   -1.1333   -0.4038    1.2086 H   0  0  0  0  0  0  0  0  0  0  0  0
   -3.2857    0.8342   -1.6054 H   0  0  0  0  0  0  0  0  0  0  0  0
   -3.2045   -0.8496   -2.0934 H   0  0  0  0  0  0  0  0  0  0  0  0
   -5.7126    0.9316   -2.4597 H   0  0  0  0  0  0  0  0  0  0  0  0
   -5.7895   -3.0509    1.0797 H   0  0  0  0  0  0  0  0  0  0  0  0
   -4.8302   -1.7116    1.7123 H   0  0  0  0  0  0  0  0  0  0  0  0
   -3.9397   -3.0924   -0.7970 H   0  0  0  0  0  0  0  0  0  0  0  0
   -3.3450   -4.1216    1.9994 H   0  0  0  0  0  0  0  0  0  0  0  0
   -2.9619   -6.5432    2.1000 H   0  0  0  0  0  0  0  0  0  0  0  0
   -1.8934   -6.9862    0.6666 H   0  0  0  0  0  0  0  0  0  0  0  0
   -3.6097   -7.4275    0.6882 H   0  0  0  0  0  0  0  0  0  0  0  0
   -7.9689   -2.5674    0.9080 H   0  0  0  0  0  0  0  0  0  0  0  0
  -10.2152   -1.9462    0.1609 H   0  0  0  0  0  0  0  0  0  0  0  0
  -10.5150   -0.1907   -1.6100 H   0  0  0  0  0  0  0  0  0  0  0  0
   -8.5109    0.8734   -2.5604 H   0  0  0  0  0  0  0  0  0  0  0  0
    0.7273    1.2053    1.1598 H   0  0  0  0  0  0  0  0  0  0  0  0
    1.7835    1.3603   -1.7077 H   0  0  0  0  0  0  0  0  0  0  0  0
    4.4471    1.1316   -1.4034 H   0  0  0  0  0  0  0  0  0  0  0  0
    4.7837   -1.3892    0.1916 H   0  0  0  0  0  0  0  0  0  0  0  0
    5.6631    1.6625    1.5205 H   0  0  0  0  0  0  0  0  0  0  0  0
    6.5950    2.1883    0.0452 H   0  0  0  0  0  0  0  0  0  0  0  0
    6.1767   -0.5049   -2.4035 H   0  0  0  0  0  0  0  0  0  0  0  0
    4.8802   -1.7347   -2.2252 H   0  0  0  0  0  0  0  0  0  0  0  0
    8.6866   -1.2334   -1.9528 H   0  0  0  0  0  0  0  0  0  0  0  0
    9.8130   -3.3587   -1.1166 H   0  0  0  0  0  0  0  0  0  0  0  0
    4.5036   -3.7580   -0.5230 H   0  0  0  0  0  0  0  0  0  0  0  0
    4.6811   -6.0225    0.4504 H   0  0  0  0  0  0  0  0  0  0  0  0
    6.9060   -7.0549    0.7247 H   0  0  0  0  0  0  0  0  0  0  0  0
    8.9419   -5.8018    0.0178 H   0  0  0  0  0  0  0  0  0  0  0  0
    3.4617    2.8103   -0.7738 H   0  0  0  0  0  0  0  0  0  0  0  0
    2.9096    2.5736    0.8893 H   0  0  0  0  0  0  0  0  0  0  0  0
    1.3916    4.0296   -1.3262 H   0  0  0  0  0  0  0  0  0  0  0  0
    0.8067    3.7834    0.4226 H   0  0  0  0  0  0  0  0  0  0  0  0
    3.3083    5.3521   -0.4302 H   0  0  0  0  0  0  0  0  0  0  0  0
    1.6962    5.9642    0.1036 H   0  0  0  0  0  0  0  0  0  0  0  0
    2.9048    7.6381    1.0641 H   0  0  0  0  0  0  0  0  0  0  0  0
    1.3086    7.6492    1.9816 H   0  0  0  0  0  0  0  0  0  0  0  0
    2.2054    5.9517    4.4326 H   0  0  0  0  0  0  0  0  0  0  0  0
    3.9749    5.9552    4.1522 H   0  0  0  0  0  0  0  0  0  0  0  0
  1  2  1  0
  2  3  2  0
  3  4  1  0
  4  5  2  0
  5  6  1  0
  6  7  2  0
  5  8  1  0
  8  9  1  0
  9 10  1  0
 10 11  1  0
 11 12  1  0
 12 13  1  0
 13 14  1  0
 14 15  2  0
 15 16  1  0
 16 17  1  0
 17 18  1  0
 18 19  1  0
 19 20  2  0
 18 21  1  0
 21 22  1  0
 22 23  2  0
 22 24  1  0
 15 25  1  0
 25 26  2  0
 26 27  1  0
 27 28  2  0
  9 29  1  0
 29 30  2  0
 29 31  1  0
 31 32  1  0
 32 33  1  0
 33 34  2  0
 33 35  1  0
 35 36  1  0
 36 37  1  0
 37 38  2  0
 37 39  1  0
 36 40  1  0
 40 41  1  0
 41 42  2  0
 42 43  1  0
 43 44  1  0
 44 45  2  0
 45 46  1  0
 46 47  2  0
 47 48  1  0
 48 49  2  0
 32 50  1  0
 50 51  1  0
 51 52  1  0
 52 53  1  0
 53 54  2  3
 54 55  1  0
 54 56  1  0
  7  2  1  0
 19 10  1  0
 45 41  1  0
 16 12  2  0
 49 44  1  0
 28 14  1  0
  3 57  1  0
  4 58  1  0
  6 59  1  0
  7 60  1  0
  8 61  1  0
  8 62  1  0
  9 63  1  1
 11 64  1  0
 11 65  1  0
 13 66  1  0
 17 67  1  0
 17 68  1  0
 18 69  1  6
 21 70  1  0
 24 71  1  0
 24 72  1  0
 24 73  1  0
 25 74  1  0
 26 75  1  0
 27 76  1  0
 28 77  1  0
 31 78  1  0
 32 79  1  6
 35 80  1  0
 36 81  1  1
 39 82  1  0
 39 83  1  0
 40 84  1  0
 40 85  1  0
 42 86  1  0
 43 87  1  0
 46 88  1  0
 47 89  1  0
 48 90  1  0
 49 91  1  0
 50 92  1  0
 50 93  1  0
 51 94  1  0
 51 95  1  0
 52 96  1  0
 52 97  1  0
 55 98  1  0
 55 99  1  0
 56100  1  0
 56101  1  0
M  END
>  <Ligand ID>  (1) 
LIG0003319

>  <Ligand>  (1) 
CHEMBL3421678

>  <SMILES>  (1) 
Brc1ccc(cc1)C[C@@H](N1Cc2[nH]c3c(c2C[C@@H](C1=O)NC(=O)C)cccc3)C(=O)N[C@H](C(=O)N[C@H](C(=O)N)Cc1c[nH]c2c1cccc2)CCCN=C(N)N

>  <CID>  (1) 
118735101.0

>  <ChEMBL ID>  (1) 
nan

>  <InChiKey>  (1) 
OHCPZTLEXGQYJG-UJWBSGRQSA-N

>  <InChi>  (1) 
InChI=1S/C40H45BrN10O5/c1-22(52)47-33-19-28-27-8-3-5-10-30(27)48-34(28)21-51(39(33)56)35(17-23-12-14-25(41)15-13-23)38(55)49-31(11-6-16-45-40(43)44)37(54)50-32(36(42)53)18-24-20-46-29-9-4-2-7-26(24)29/h2-5,7-10,12-15,20,31-33,35,46,48H,6,11,16-19,21H2,1H3,(H2,42,53)(H,47,52)(H,49,55)(H,50,54)(H4,43,44,45)/t31-,32-,33-,35+/m0/s1

>  <IUPAC Name>  (1) 
(2S)-2-[[(2R)-2-[(4S)-4-acetamido-3-oxo-1,4,5,10-tetrahydroazepino[3,4-b]indol-2-yl]-3-(4-bromophenyl)propanoyl]amino]-N-[(2S)-1-amino-3-(1H-indol-3-yl)-1-oxopropan-2-yl]-5-(diaminomethylideneamino)pentanamide

$$$$
