
     RDKit          3D

 33 35  0  0  0  0  0  0  0  0999 V2000
    2.4239   -1.6558   -0.8769 O   0  0  0  0  0  0  0  0  0  0  0  0
    2.2029   -0.5377   -0.4001 C   0  0  0  0  0  0  0  0  0  0  0  0
    0.7831   -0.1120   -0.1749 C   0  0  0  0  0  0  0  0  0  0  0  0
    0.2514    1.3877    0.4723 S   0  0  0  0  0  0  0  0  0  0  0  0
   -1.4376    1.0458    0.3839 C   0  0  0  0  0  0  0  0  0  0  0  0
   -1.5088   -0.1998   -0.1369 C   0  0  0  0  0  0  0  0  0  0  0  0
   -0.3535   -0.8030   -0.4280 C   0  0  0  0  0  0  0  0  0  0  0  0
   -0.2561   -2.1566   -0.9995 N   0  0  0  0  0  0  0  0  0  0  0  0
   -2.8262   -0.7021   -0.3047 C   0  0  0  0  0  0  0  0  0  0  0  0
   -3.0864   -2.0359   -0.8566 C   0  0  0  0  0  0  0  0  0  0  0  0
   -3.9056    0.0737    0.0565 C   0  0  0  0  0  0  0  0  0  0  0  0
   -3.7962    1.3416    0.5854 C   0  0  0  0  0  0  0  0  0  0  0  0
   -2.5264    1.8005    0.7366 N   0  0  0  0  0  0  0  0  0  0  0  0
   -4.9795    2.1439    0.9611 C   0  0  0  0  0  0  0  0  0  0  0  0
   -5.5349   -0.5547   -0.1542 Cl  0  0  0  0  0  0  0  0  0  0  0  0
    3.2232    0.3873   -0.0450 N   0  0  0  0  0  0  0  0  0  0  0  0
    4.6169    0.0953   -0.2132 C   0  0  0  0  0  0  0  0  0  0  0  0
    5.6240    1.1358   -0.4501 C   0  0  0  0  0  0  0  0  0  0  0  0
    5.5835    0.4879    0.8939 C   0  0  0  0  0  0  0  0  0  0  0  0
   -0.3373   -2.9765   -0.3874 H   0  0  0  0  0  0  0  0  0  0  0  0
   -0.1041   -2.2037   -2.0354 H   0  0  0  0  0  0  0  0  0  0  0  0
   -2.5046   -2.2624   -1.7686 H   0  0  0  0  0  0  0  0  0  0  0  0
   -2.7270   -2.7696   -0.0796 H   0  0  0  0  0  0  0  0  0  0  0  0
   -4.1546   -2.2278   -0.9499 H   0  0  0  0  0  0  0  0  0  0  0  0
   -5.6577    1.4403    1.5111 H   0  0  0  0  0  0  0  0  0  0  0  0
   -4.7074    2.9560    1.6549 H   0  0  0  0  0  0  0  0  0  0  0  0
   -5.5493    2.5227    0.0830 H   0  0  0  0  0  0  0  0  0  0  0  0
    2.9452    1.3287    0.3594 H   0  0  0  0  0  0  0  0  0  0  0  0
    4.8314   -0.9109   -0.6427 H   0  0  0  0  0  0  0  0  0  0  0  0
    6.5356    0.8860   -1.0546 H   0  0  0  0  0  0  0  0  0  0  0  0
    5.3711    2.2117   -0.5623 H   0  0  0  0  0  0  0  0  0  0  0  0
    6.3658   -0.2322    1.1925 H   0  0  0  0  0  0  0  0  0  0  0  0
    5.1950    1.0955    1.7270 H   0  0  0  0  0  0  0  0  0  0  0  0
  1  2  2  0
  2  3  1  0
  3  4  1  0
  4  5  1  0
  5  6  2  0
  6  7  1  0
  7  8  1  0
  6  9  1  0
  9 10  1  0
  9 11  2  0
 11 12  1  0
 12 13  2  0
 12 14  1  0
 11 15  1  0
  2 16  1  0
 16 17  1  0
 17 18  1  0
 18 19  1  0
  7  3  2  0
 19 17  1  0
 13  5  1  0
  8 20  1  0
  8 21  1  0
 10 22  1  0
 10 23  1  0
 10 24  1  0
 14 25  1  0
 14 26  1  0
 14 27  1  0
 16 28  1  0
 17 29  1  0
 18 30  1  0
 18 31  1  0
 19 32  1  0
 19 33  1  0
M  END
>  <Ligand ID>  (1) 
LIG0000435

>  <Ligand>  (1) 
CHEMBL2313377

>  <SMILES>  (1) 
O=C(c1sc2c(c1N)c(C)c(c(n2)C)Cl)NC1CC1

>  <CID>  (1) 
53382542.0

>  <ChEMBL ID>  (1) 
nan

>  <InChiKey>  (1) 
VIZLOCIWSKXQJN-UHFFFAOYSA-N

>  <InChi>  (1) 
InChI=1S/C13H14ClN3OS/c1-5-8-10(15)11(12(18)17-7-3-4-7)19-13(8)16-6(2)9(5)14/h7H,3-4,15H2,1-2H3,(H,17,18)

>  <IUPAC Name>  (1) 
3-amino-5-chloro-N-cyclopropyl-4,6-dimethylthieno[2,3-b]pyridine-2-carboxamide

$$$$
