
     RDKit          3D

 48 48  0  0  0  0  0  0  0  0999 V2000
   -0.6591    2.4710   -1.5223 O   0  0  0  0  0  0  0  0  0  0  0  0
   -1.0304    2.7969   -0.3366 C   0  0  0  0  0  0  0  0  0  0  0  0
   -2.4361    2.9846   -0.0135 C   0  0  0  0  0  0  0  0  0  0  0  0
   -3.2705    2.0053    0.6588 C   0  0  0  0  0  0  0  0  0  0  0  0
   -3.5565    0.6842    0.0165 C   0  0  0  0  0  0  0  0  0  0  0  0
   -2.3890   -0.2437   -0.0884 C   0  0  0  0  0  0  0  0  0  0  0  0
   -2.7255   -1.5580   -0.8016 C   0  0  0  0  0  0  0  0  0  0  0  0
   -1.4141   -2.3569   -0.8808 C   0  0  0  0  0  0  0  0  0  0  0  0
   -0.9306   -2.8315    0.4535 C   0  0  0  0  0  0  0  0  0  0  0  0
    0.5624   -3.2359    0.3657 C   0  0  0  0  0  0  0  0  0  0  0  0
    1.3264   -1.9202    0.2465 C   0  0  0  0  0  0  0  0  0  0  0  0
    2.7692   -2.0273    0.0269 C   0  0  0  0  0  0  0  0  0  0  0  0
    3.6188   -0.8260    0.0355 C   0  0  0  0  0  0  0  0  0  0  0  0
    3.4249    0.3188   -0.8224 C   0  0  0  0  0  0  0  0  0  0  0  0
    2.2467    1.2407   -0.6572 C   0  0  0  0  0  0  0  0  0  0  0  0
    2.1212    1.7933    0.7112 C   0  0  0  0  0  0  0  0  0  0  0  0
    1.2272    2.9625    0.8330 C   0  0  0  0  0  0  0  0  0  0  0  0
   -0.0755    2.9656    0.5730 O   0  0  0  0  0  0  0  0  0  0  0  0
   -2.5664    4.0208    0.4793 H   0  0  0  0  0  0  0  0  0  0  0  0
   -2.9515    3.2047   -1.0226 H   0  0  0  0  0  0  0  0  0  0  0  0
   -4.3004    2.4923    0.7937 H   0  0  0  0  0  0  0  0  0  0  0  0
   -2.9690    1.8502    1.7467 H   0  0  0  0  0  0  0  0  0  0  0  0
   -4.0282    0.8500   -0.9946 H   0  0  0  0  0  0  0  0  0  0  0  0
   -4.3573    0.1194    0.5867 H   0  0  0  0  0  0  0  0  0  0  0  0
   -1.5560    0.2258   -0.6060 H   0  0  0  0  0  0  0  0  0  0  0  0
   -2.0566   -0.4716    0.9681 H   0  0  0  0  0  0  0  0  0  0  0  0
   -3.1495   -1.3920   -1.7909 H   0  0  0  0  0  0  0  0  0  0  0  0
   -3.4014   -2.1384   -0.1541 H   0  0  0  0  0  0  0  0  0  0  0  0
   -1.7206   -3.2749   -1.4918 H   0  0  0  0  0  0  0  0  0  0  0  0
   -0.6945   -1.8044   -1.4955 H   0  0  0  0  0  0  0  0  0  0  0  0
   -1.0927   -2.1212    1.2482 H   0  0  0  0  0  0  0  0  0  0  0  0
   -1.4389   -3.8090    0.6718 H   0  0  0  0  0  0  0  0  0  0  0  0
    0.8046   -3.7220    1.3038 H   0  0  0  0  0  0  0  0  0  0  0  0
    0.6444   -3.8840   -0.4991 H   0  0  0  0  0  0  0  0  0  0  0  0
    0.7634   -1.2915   -0.4177 H   0  0  0  0  0  0  0  0  0  0  0  0
    1.1763   -1.4576    1.2773 H   0  0  0  0  0  0  0  0  0  0  0  0
    2.9114   -2.6296   -0.9320 H   0  0  0  0  0  0  0  0  0  0  0  0
    3.2414   -2.7361    0.7888 H   0  0  0  0  0  0  0  0  0  0  0  0
    3.7503   -0.4259    1.1116 H   0  0  0  0  0  0  0  0  0  0  0  0
    4.6871   -1.2366   -0.1182 H   0  0  0  0  0  0  0  0  0  0  0  0
    4.3237    1.0079   -0.6835 H   0  0  0  0  0  0  0  0  0  0  0  0
    3.4847    0.1106   -1.9256 H   0  0  0  0  0  0  0  0  0  0  0  0
    1.3066    0.8027   -1.0068 H   0  0  0  0  0  0  0  0  0  0  0  0
    2.3715    2.1518   -1.3332 H   0  0  0  0  0  0  0  0  0  0  0  0
    3.1538    2.0939    1.1029 H   0  0  0  0  0  0  0  0  0  0  0  0
    1.7412    1.0343    1.4513 H   0  0  0  0  0  0  0  0  0  0  0  0
    1.3668    3.3878    1.9186 H   0  0  0  0  0  0  0  0  0  0  0  0
    1.7462    3.8194    0.2247 H   0  0  0  0  0  0  0  0  0  0  0  0
  1  2  2  0
  2  3  1  0
  3  4  1  0
  4  5  1  0
  5  6  1  0
  6  7  1  0
  7  8  1  0
  8  9  1  0
  9 10  1  0
 10 11  1  0
 11 12  1  0
 12 13  1  0
 13 14  1  0
 14 15  1  0
 15 16  1  0
 16 17  1  0
 17 18  1  0
 18  2  1  0
  3 19  1  0
  3 20  1  0
  4 21  1  0
  4 22  1  0
  5 23  1  0
  5 24  1  0
  6 25  1  0
  6 26  1  0
  7 27  1  0
  7 28  1  0
  8 29  1  0
  8 30  1  0
  9 31  1  0
  9 32  1  0
 10 33  1  0
 10 34  1  0
 11 35  1  0
 11 36  1  0
 12 37  1  0
 12 38  1  0
 13 39  1  0
 13 40  1  0
 14 41  1  0
 14 42  1  0
 15 43  1  0
 15 44  1  0
 16 45  1  0
 16 46  1  0
 17 47  1  0
 17 48  1  0
M  END
>  <Ligand ID>  (1) 
LIG0000420

>  <Ligand>  (1) 
1,16-hexadecalactone

>  <SMILES>  (1) 
O=C1CCCCCCCCCCCCCCCO1

>  <CID>  (1) 
7984.0

>  <ChEMBL ID>  (1) 
nan

>  <InChiKey>  (1) 
LOKPJYNMYCVCRM-UHFFFAOYSA-N

>  <InChi>  (1) 
InChI=1S/C16H30O2/c17-16-14-12-10-8-6-4-2-1-3-5-7-9-11-13-15-18-16/h1-15H2

>  <IUPAC Name>  (1) 
oxacycloheptadecan-2-one

$$$$
