
     RDKit          3D

 43 46  0  0  0  0  0  0  0  0999 V2000
    8.6065    0.7517   -0.9039 O   0  0  0  0  0  0  0  0  0  0  0  0
    7.9782   -0.0715    0.0090 C   0  0  0  0  0  0  0  0  0  0  0  0
    8.6319   -0.4378    1.0193 O   0  0  0  0  0  0  0  0  0  0  0  0
    6.5590   -0.5366   -0.1635 C   0  0  0  0  0  0  0  0  0  0  0  0
    5.7072    0.3350    0.7228 C   0  0  0  0  0  0  0  0  0  0  0  0
    4.2692    0.0162    0.6800 C   0  0  0  0  0  0  0  0  0  0  0  0
    3.6559   -0.8527    1.4782 O   0  0  0  0  0  0  0  0  0  0  0  0
    2.3685   -0.8988    1.1737 C   0  0  0  0  0  0  0  0  0  0  0  0
    2.1463   -0.0210    0.1341 C   0  0  0  0  0  0  0  0  0  0  0  0
    3.3541    0.5704   -0.1905 C   0  0  0  0  0  0  0  0  0  0  0  0
    0.9005    0.1747   -0.4287 C   0  0  0  0  0  0  0  0  0  0  0  0
   -0.1671   -0.5626    0.0974 C   0  0  0  0  0  0  0  0  0  0  0  0
    0.0348   -1.4484    1.1402 C   0  0  0  0  0  0  0  0  0  0  0  0
    1.3051   -1.6105    1.6724 C   0  0  0  0  0  0  0  0  0  0  0  0
   -1.4615   -0.3331   -0.5177 C   0  0  0  0  0  0  0  0  0  0  0  0
   -2.6057   -0.1620    0.2554 C   0  0  0  0  0  0  0  0  0  0  0  0
   -3.8471    0.0564   -0.3101 C   0  0  0  0  0  0  0  0  0  0  0  0
   -3.9344    0.1026   -1.6777 C   0  0  0  0  0  0  0  0  0  0  0  0
   -2.8141   -0.0634   -2.4970 C   0  0  0  0  0  0  0  0  0  0  0  0
   -1.5801   -0.2811   -1.9099 C   0  0  0  0  0  0  0  0  0  0  0  0
   -0.4670   -0.4465   -2.6840 F   0  0  0  0  0  0  0  0  0  0  0  0
   -4.9802    0.2226    0.5881 C   0  0  0  0  0  0  0  0  0  0  0  0
   -4.7582    0.1583    1.8215 O   0  0  0  0  0  0  0  0  0  0  0  0
   -6.3646    0.4603    0.1477 C   0  0  0  0  0  0  0  0  0  0  0  0
   -7.5220    0.1043    0.9820 C   0  0  0  0  0  0  0  0  0  0  0  0
   -7.0609    1.5606    0.9920 C   0  0  0  0  0  0  0  0  0  0  0  0
    9.2385    1.5020   -0.5892 H   0  0  0  0  0  0  0  0  0  0  0  0
    6.2828   -0.4476   -1.2328 H   0  0  0  0  0  0  0  0  0  0  0  0
    6.5419   -1.5898    0.1782 H   0  0  0  0  0  0  0  0  0  0  0  0
    5.8591    1.3901    0.3722 H   0  0  0  0  0  0  0  0  0  0  0  0
    6.1207    0.2990    1.7482 H   0  0  0  0  0  0  0  0  0  0  0  0
    3.5105    1.3100   -0.9711 H   0  0  0  0  0  0  0  0  0  0  0  0
    0.7480    0.8674   -1.2428 H   0  0  0  0  0  0  0  0  0  0  0  0
   -0.8010   -2.0061    1.5308 H   0  0  0  0  0  0  0  0  0  0  0  0
    1.4420   -2.3170    2.4968 H   0  0  0  0  0  0  0  0  0  0  0  0
   -2.4493   -0.2127    1.3313 H   0  0  0  0  0  0  0  0  0  0  0  0
   -4.8879    0.2710   -2.1429 H   0  0  0  0  0  0  0  0  0  0  0  0
   -2.8879   -0.0261   -3.5643 H   0  0  0  0  0  0  0  0  0  0  0  0
   -6.5192    0.5110   -0.9453 H   0  0  0  0  0  0  0  0  0  0  0  0
   -7.4438   -0.4907    1.9040 H   0  0  0  0  0  0  0  0  0  0  0  0
   -8.5036   -0.0092    0.4612 H   0  0  0  0  0  0  0  0  0  0  0  0
   -7.5945    2.3099    0.3982 H   0  0  0  0  0  0  0  0  0  0  0  0
   -6.6106    1.8517    1.9439 H   0  0  0  0  0  0  0  0  0  0  0  0
  1  2  1  0
  2  3  2  0
  2  4  1  0
  4  5  1  0
  5  6  1  0
  6  7  1  0
  7  8  1  0
  8  9  2  0
  9 10  1  0
  9 11  1  0
 11 12  2  0
 12 13  1  0
 13 14  2  0
 12 15  1  0
 15 16  2  0
 16 17  1  0
 17 18  2  0
 18 19  1  0
 19 20  2  0
 20 21  1  0
 17 22  1  0
 22 23  2  0
 22 24  1  0
 24 25  1  0
 25 26  1  0
 10  6  2  0
 20 15  1  0
 26 24  1  0
 14  8  1  0
  1 27  1  0
  4 28  1  0
  4 29  1  0
  5 30  1  0
  5 31  1  0
 10 32  1  0
 11 33  1  0
 13 34  1  0
 14 35  1  0
 16 36  1  0
 18 37  1  0
 19 38  1  0
 24 39  1  0
 25 40  1  0
 25 41  1  0
 26 42  1  0
 26 43  1  0
M  END
>  <Ligand ID>  (1) 
LIG0002944

>  <Ligand>  (1) 
CHEMBL3927879

>  <SMILES>  (1) 
OC(=O)CCc1oc2c(c1)cc(cc2)c1cc(ccc1F)C(=O)C1CC1

>  <CID>  (1) 
134141029.0

>  <ChEMBL ID>  (1) 
nan

>  <InChiKey>  (1) 
ZBFAQUJBQJNPBX-UHFFFAOYSA-N

>  <InChi>  (1) 
InChI=1S/C21H17FO4/c22-18-6-3-14(21(25)12-1-2-12)11-17(18)13-4-7-19-15(9-13)10-16(26-19)5-8-20(23)24/h3-4,6-7,9-12H,1-2,5,8H2,(H,23,24)

>  <IUPAC Name>  (1) 
3-[5-[5-(cyclopropanecarbonyl)-2-fluorophenyl]-1-benzofuran-2-yl]propanoic acid

$$$$
