
     RDKit          3D

 94 94  0  0  0  0  0  0  0  0999 V2000
  -10.2949   -1.8717    3.2627 C   0  0  0  0  0  0  0  0  0  0  0  0
   -9.1033   -2.7735    3.0243 C   0  0  0  0  0  0  0  0  0  0  0  0
   -7.8350   -2.1858    3.6100 C   0  0  0  0  0  0  0  0  0  0  0  0
   -7.5255   -0.8327    2.9915 C   0  0  0  0  0  0  0  0  0  0  0  0
   -7.3341   -0.9110    1.5158 C   0  0  0  0  0  0  0  0  0  0  0  0
   -7.0688    0.4636    0.9672 C   0  0  0  0  0  0  0  0  0  0  0  0
   -5.8425    1.0730    1.5741 C   0  0  0  0  0  0  0  0  0  0  0  0
   -5.5568    2.4215    1.0310 C   0  0  0  0  0  0  0  0  0  0  0  0
   -5.3681    2.6915   -0.3930 C   0  0  0  0  0  0  0  0  0  0  0  0
   -4.3298    2.1599   -1.2623 C   0  0  0  0  0  0  0  0  0  0  0  0
   -4.1513    0.7902   -1.6795 C   0  0  0  0  0  0  0  0  0  0  0  0
   -3.8906   -0.3523   -0.8106 C   0  0  0  0  0  0  0  0  0  0  0  0
   -2.6869   -0.2667    0.0570 C   0  0  0  0  0  0  0  0  0  0  0  0
   -1.3728   -0.1177   -0.6732 C   0  0  0  0  0  0  0  0  0  0  0  0
   -1.0489   -1.2380   -1.5965 C   0  0  0  0  0  0  0  0  0  0  0  0
    0.1497   -1.0788   -2.2385 O   0  0  0  0  0  0  0  0  0  0  0  0
    0.5897   -0.1506   -3.1195 C   0  0  0  0  0  0  0  0  0  0  0  0
   -0.1235    0.9118   -3.6249 C   0  0  0  0  0  0  0  0  0  0  0  0
    0.3960    1.8228   -4.5231 C   0  0  0  0  0  0  0  0  0  0  0  0
    1.6987    1.6625   -4.9382 C   0  0  0  0  0  0  0  0  0  0  0  0
    2.4805    0.6003   -4.4611 C   0  0  0  0  0  0  0  0  0  0  0  0
    1.9126   -0.2765   -3.5693 C   0  0  0  0  0  0  0  0  0  0  0  0
    3.8398    0.4968   -5.0036 C   0  0  0  0  0  0  0  0  0  0  0  0
    4.8153    1.4302   -4.3998 C   0  0  0  0  0  0  0  0  0  0  0  0
    4.9772    1.2597   -2.9556 C   0  0  0  0  0  0  0  0  0  0  0  0
    5.9501    1.9356   -2.4432 O   0  0  0  0  0  0  0  0  0  0  0  0
    4.2530    0.5034   -2.1118 O   0  0  0  0  0  0  0  0  0  0  0  0
    4.3254    0.2665   -0.7481 C   0  0  0  0  0  0  0  0  0  0  0  0
    5.5801   -0.4448   -0.3736 C   0  0  2  0  0  0  0  0  0  0  0  0
    5.6292   -0.7560    1.1223 C   0  0  0  0  0  0  0  0  0  0  0  0
    5.6563    0.4613    1.7776 O   0  0  0  0  0  0  0  0  0  0  0  0
    6.1765    0.3710    3.3676 P   0  0  0  0  0  0  0  0  0  0  0  0
    5.0606   -0.1082    4.2456 O   0  0  0  0  0  0  0  0  0  0  0  0
    7.4968   -0.6824    3.5245 O   0  0  0  0  0  0  0  0  0  0  0  0
    8.6359   -0.1674    2.9580 C   0  0  0  0  0  0  0  0  0  0  0  0
    9.8047   -1.1297    3.0432 C   0  0  1  0  0  0  0  0  0  0  0  0
    9.4531   -2.3210    2.2319 C   0  0  0  0  0  0  0  0  0  0  0  0
    8.4657   -3.0066    2.6382 O   0  0  0  0  0  0  0  0  0  0  0  0
   10.1360   -2.7014    1.0888 O   0  0  0  0  0  0  0  0  0  0  0  0
   10.9508   -0.4854    2.4104 N   0  0  0  0  0  0  0  0  0  0  0  0
    6.6406    1.9518    3.8345 O   0  0  0  0  0  0  0  0  0  0  0  0
    6.6922    0.2872   -0.7233 O   0  0  0  0  0  0  0  0  0  0  0  0
  -10.7453   -1.6177    2.2687 H   0  0  0  0  0  0  0  0  0  0  0  0
  -10.0055   -0.9425    3.7997 H   0  0  0  0  0  0  0  0  0  0  0  0
  -11.1017   -2.3557    3.8453 H   0  0  0  0  0  0  0  0  0  0  0  0
   -9.2793   -3.7230    3.5668 H   0  0  0  0  0  0  0  0  0  0  0  0
   -8.9763   -3.0293    1.9632 H   0  0  0  0  0  0  0  0  0  0  0  0
   -7.9680   -2.0193    4.6971 H   0  0  0  0  0  0  0  0  0  0  0  0
   -7.0132   -2.8683    3.3621 H   0  0  0  0  0  0  0  0  0  0  0  0
   -6.5267   -0.5564    3.4467 H   0  0  0  0  0  0  0  0  0  0  0  0
   -8.2375   -0.0718    3.3049 H   0  0  0  0  0  0  0  0  0  0  0  0
   -6.4269   -1.5227    1.2448 H   0  0  0  0  0  0  0  0  0  0  0  0
   -8.1655   -1.4239    0.9883 H   0  0  0  0  0  0  0  0  0  0  0  0
   -7.0055    0.4599   -0.1373 H   0  0  0  0  0  0  0  0  0  0  0  0
   -7.9600    1.1000    1.2125 H   0  0  0  0  0  0  0  0  0  0  0  0
   -6.0859    1.2391    2.7179 H   0  0  0  0  0  0  0  0  0  0  0  0
   -4.9574    0.4528    1.6440 H   0  0  0  0  0  0  0  0  0  0  0  0
   -6.2853    3.1707    1.4991 H   0  0  0  0  0  0  0  0  0  0  0  0
   -4.5729    2.7703    1.5341 H   0  0  0  0  0  0  0  0  0  0  0  0
   -6.3934    2.5094   -0.9546 H   0  0  0  0  0  0  0  0  0  0  0  0
   -5.3901    3.8507   -0.4634 H   0  0  0  0  0  0  0  0  0  0  0  0
   -3.3388    2.6011   -0.8403 H   0  0  0  0  0  0  0  0  0  0  0  0
   -4.3756    2.8455   -2.2205 H   0  0  0  0  0  0  0  0  0  0  0  0
   -5.1183    0.5041   -2.2596 H   0  0  0  0  0  0  0  0  0  0  0  0
   -3.4264    0.8172   -2.5721 H   0  0  0  0  0  0  0  0  0  0  0  0
   -3.6599   -1.2313   -1.5271 H   0  0  0  0  0  0  0  0  0  0  0  0
   -4.7519   -0.7182   -0.2774 H   0  0  0  0  0  0  0  0  0  0  0  0
   -2.7091    0.4822    0.8524 H   0  0  0  0  0  0  0  0  0  0  0  0
   -2.6051   -1.2563    0.5938 H   0  0  0  0  0  0  0  0  0  0  0  0
   -0.5927   -0.1917    0.1582 H   0  0  0  0  0  0  0  0  0  0  0  0
   -1.2650    0.8970   -1.0399 H   0  0  0  0  0  0  0  0  0  0  0  0
   -1.0387   -2.1707   -0.9772 H   0  0  0  0  0  0  0  0  0  0  0  0
   -1.8309   -1.4087   -2.3735 H   0  0  0  0  0  0  0  0  0  0  0  0
   -1.1521    1.0649   -3.3352 H   0  0  0  0  0  0  0  0  0  0  0  0
   -0.1587    2.6588   -4.9223 H   0  0  0  0  0  0  0  0  0  0  0  0
    2.1181    2.3685   -5.6405 H   0  0  0  0  0  0  0  0  0  0  0  0
    2.4909   -1.1213   -3.2017 H   0  0  0  0  0  0  0  0  0  0  0  0
    3.8509    0.6750   -6.1220 H   0  0  0  0  0  0  0  0  0  0  0  0
    4.2602   -0.5445   -4.8687 H   0  0  0  0  0  0  0  0  0  0  0  0
    4.6200    2.5041   -4.6782 H   0  0  0  0  0  0  0  0  0  0  0  0
    5.8381    1.2436   -4.8476 H   0  0  0  0  0  0  0  0  0  0  0  0
    3.4408   -0.3830   -0.4934 H   0  0  0  0  0  0  0  0  0  0  0  0
    4.1968    1.2017   -0.1422 H   0  0  0  0  0  0  0  0  0  0  0  0
    5.6084   -1.4210   -0.9248 H   0  0  0  0  0  0  0  0  0  0  0  0
    6.5611   -1.3110    1.3319 H   0  0  0  0  0  0  0  0  0  0  0  0
    4.7680   -1.4027    1.4045 H   0  0  0  0  0  0  0  0  0  0  0  0
    8.9570    0.7931    3.4169 H   0  0  0  0  0  0  0  0  0  0  0  0
    8.4504    0.0466    1.8889 H   0  0  0  0  0  0  0  0  0  0  0  0
   10.0302   -1.4029    4.0961 H   0  0  0  0  0  0  0  0  0  0  0  0
    9.7240   -3.3468    0.3986 H   0  0  0  0  0  0  0  0  0  0  0  0
   10.8366   -0.6580    1.3686 H   0  0  0  0  0  0  0  0  0  0  0  0
   10.9270    0.5464    2.5313 H   0  0  0  0  0  0  0  0  0  0  0  0
    6.9009    2.4744    3.0102 H   0  0  0  0  0  0  0  0  0  0  0  0
    7.3063   -0.2810   -1.2501 H   0  0  0  0  0  0  0  0  0  0  0  0
  1  2  1  0
  2  3  1  0
  3  4  1  0
  4  5  1  0
  5  6  1  0
  6  7  1  0
  7  8  1  0
  8  9  1  0
  9 10  1  0
 10 11  1  0
 11 12  1  0
 12 13  1  0
 13 14  1  0
 14 15  1  0
 15 16  1  0
 16 17  1  0
 17 18  2  0
 18 19  1  0
 19 20  2  0
 20 21  1  0
 21 22  2  0
 21 23  1  0
 23 24  1  0
 24 25  1  0
 25 26  2  0
 25 27  1  0
 27 28  1  0
 28 29  1  0
 29 30  1  0
 30 31  1  0
 31 32  1  0
 32 33  2  0
 32 34  1  0
 34 35  1  0
 35 36  1  0
 36 37  1  0
 37 38  2  0
 37 39  1  0
 36 40  1  0
 32 41  1  0
 29 42  1  0
 22 17  1  0
  1 43  1  0
  1 44  1  0
  1 45  1  0
  2 46  1  0
  2 47  1  0
  3 48  1  0
  3 49  1  0
  4 50  1  0
  4 51  1  0
  5 52  1  0
  5 53  1  0
  6 54  1  0
  6 55  1  0
  7 56  1  0
  7 57  1  0
  8 58  1  0
  8 59  1  0
  9 60  1  0
  9 61  1  0
 10 62  1  0
 10 63  1  0
 11 64  1  0
 11 65  1  0
 12 66  1  0
 12 67  1  0
 13 68  1  0
 13 69  1  0
 14 70  1  0
 14 71  1  0
 15 72  1  0
 15 73  1  0
 18 74  1  0
 19 75  1  0
 20 76  1  0
 22 77  1  0
 23 78  1  0
 23 79  1  0
 24 80  1  0
 24 81  1  0
 28 82  1  0
 28 83  1  0
 29 84  1  6
 30 85  1  0
 30 86  1  0
 35 87  1  0
 35 88  1  0
 36 89  1  1
 39 90  1  0
 40 91  1  0
 40 92  1  0
 41 93  1  0
 42 94  1  0
M  END
>  <Ligand ID>  (1) 
LIG0004270

>  <Ligand>  (1) 
CHEMBL3577175

>  <SMILES>  (1) 
CCCCCCCCCCCCCCCOc1cccc(c1)CCC(=O)OC[C@H](COP(=O)(OC[C@@H](C(=O)O)N)O)O

>  <CID>  (1) 
122177521.0

>  <ChEMBL ID>  (1) 
nan

>  <InChiKey>  (1) 
WQJJSZPJURMPSD-IAPPQJPRSA-N

>  <InChi>  (1) 
InChI=1S/C30H52NO10P/c1-2-3-4-5-6-7-8-9-10-11-12-13-14-20-38-27-17-15-16-25(21-27)18-19-29(33)39-22-26(32)23-40-42(36,37)41-24-28(31)30(34)35/h15-17,21,26,28,32H,2-14,18-20,22-24,31H2,1H3,(H,34,35)(H,36,37)/t26-,28+/m1/s1

>  <IUPAC Name>  (1) 
(2S)-2-amino-3-[hydroxy-[(2R)-2-hydroxy-3-[3-(3-pentadecoxyphenyl)propanoyloxy]propoxy]phosphoryl]oxypropanoic acid

$$$$
