
     RDKit          3D

 49 51  0  0  0  0  0  0  0  0999 V2000
    1.6459   -3.1187    0.4267 O   0  0  0  0  0  0  0  0  0  0  0  0
    1.7148   -1.8941   -0.2942 C   0  0  2  0  0  0  0  0  0  0  0  0
    3.2136   -1.7787   -0.6525 C   0  0  2  0  0  0  0  0  0  0  0  0
    3.8430   -3.0093   -0.6408 O   0  0  0  0  0  0  0  0  0  0  0  0
    3.6571   -0.8488    0.4499 C   0  0  2  0  0  0  0  0  0  0  0  0
    2.6471    0.1114    0.4163 O   0  0  0  0  0  0  0  0  0  0  0  0
    1.5153   -0.7388    0.5712 C   0  0  1  0  0  0  0  0  0  0  0  0
    0.3082   -0.0108    0.5934 N   0  0  0  0  0  0  0  0  0  0  0  0
    0.0997    0.7910    1.6922 C   0  0  0  0  0  0  0  0  0  0  0  0
   -1.0253    1.5604    1.8325 C   0  0  0  0  0  0  0  0  0  0  0  0
   -2.0226    1.5617    0.8478 C   0  0  0  0  0  0  0  0  0  0  0  0
   -3.0178    2.2719    1.0173 O   0  0  0  0  0  0  0  0  0  0  0  0
   -1.7904    0.7718   -0.2078 N   0  0  0  0  0  0  0  0  0  0  0  0
   -0.6611    0.0151   -0.3219 C   0  0  0  0  0  0  0  0  0  0  0  0
   -0.5716   -0.6751   -1.3547 O   0  0  0  0  0  0  0  0  0  0  0  0
   -2.7446    0.7133   -1.2855 C   0  0  0  0  0  0  0  0  0  0  0  0
   -3.8007   -0.3069   -1.0967 C   0  0  0  0  0  0  0  0  0  0  0  0
   -3.4546   -1.5163   -1.1713 O   0  0  0  0  0  0  0  0  0  0  0  0
   -5.2030    0.0314   -0.8325 C   0  0  0  0  0  0  0  0  0  0  0  0
   -5.6497    1.3353   -0.7430 C   0  0  0  0  0  0  0  0  0  0  0  0
   -6.9892    1.6449   -0.4987 C   0  0  0  0  0  0  0  0  0  0  0  0
   -7.9185    0.6363   -0.3378 C   0  0  0  0  0  0  0  0  0  0  0  0
   -7.4894   -0.6673   -0.4242 C   0  0  0  0  0  0  0  0  0  0  0  0
   -6.1405   -0.9596   -0.6698 C   0  0  0  0  0  0  0  0  0  0  0  0
    5.0244   -0.2754    0.2114 C   0  0  0  0  0  0  0  0  0  0  0  0
    5.3577    0.6651    1.1815 O   0  0  0  0  0  0  0  0  0  0  0  0
    6.7527    1.5207    0.7581 P   0  0  0  0  0  0  0  0  0  0  0  0
    6.8800    2.7975    1.5625 O   0  0  0  0  0  0  0  0  0  0  0  0
    8.1367    0.6039    1.0243 O   0  0  0  0  0  0  0  0  0  0  0  0
    6.7029    1.9519   -0.8770 O   0  0  0  0  0  0  0  0  0  0  0  0
    2.1735   -3.7734   -0.0818 H   0  0  0  0  0  0  0  0  0  0  0  0
    1.1196   -2.0580   -1.1757 H   0  0  0  0  0  0  0  0  0  0  0  0
    3.2539   -1.2688   -1.6469 H   0  0  0  0  0  0  0  0  0  0  0  0
    4.4929   -3.0068   -1.4172 H   0  0  0  0  0  0  0  0  0  0  0  0
    3.5775   -1.4144    1.3937 H   0  0  0  0  0  0  0  0  0  0  0  0
    1.6688   -1.1107    1.6403 H   0  0  0  0  0  0  0  0  0  0  0  0
    0.8284    0.8296    2.4762 H   0  0  0  0  0  0  0  0  0  0  0  0
   -1.1447    2.1853    2.7345 H   0  0  0  0  0  0  0  0  0  0  0  0
   -2.2356    0.3982   -2.2533 H   0  0  0  0  0  0  0  0  0  0  0  0
   -3.1671    1.7046   -1.5412 H   0  0  0  0  0  0  0  0  0  0  0  0
   -4.9924    2.1607   -0.8552 H   0  0  0  0  0  0  0  0  0  0  0  0
   -7.2915    2.6938   -0.4365 H   0  0  0  0  0  0  0  0  0  0  0  0
   -8.9430    0.9304   -0.1526 H   0  0  0  0  0  0  0  0  0  0  0  0
   -8.2283   -1.4542   -0.2974 H   0  0  0  0  0  0  0  0  0  0  0  0
   -5.9059   -2.0080   -0.7197 H   0  0  0  0  0  0  0  0  0  0  0  0
    5.7398   -1.1165    0.3003 H   0  0  0  0  0  0  0  0  0  0  0  0
    5.0934    0.1459   -0.8095 H   0  0  0  0  0  0  0  0  0  0  0  0
    8.3436    0.0580    0.2293 H   0  0  0  0  0  0  0  0  0  0  0  0
    6.5971    2.9205   -1.0195 H   0  0  0  0  0  0  0  0  0  0  0  0
  1  2  1  0
  2  3  1  0
  3  4  1  0
  3  5  1  0
  5  6  1  0
  6  7  1  0
  7  8  1  0
  8  9  1  0
  9 10  2  0
 10 11  1  0
 11 12  2  0
 11 13  1  0
 13 14  1  0
 14 15  2  0
 13 16  1  0
 16 17  1  0
 17 18  2  0
 17 19  1  0
 19 20  2  0
 20 21  1  0
 21 22  2  0
 22 23  1  0
 23 24  2  0
  5 25  1  0
 25 26  1  0
 26 27  1  0
 27 28  2  0
 27 29  1  0
 27 30  1  0
  7  2  1  0
 14  8  1  0
 24 19  1  0
  1 31  1  0
  2 32  1  6
  3 33  1  6
  4 34  1  0
  5 35  1  1
  7 36  1  1
  9 37  1  0
 10 38  1  0
 16 39  1  0
 16 40  1  0
 20 41  1  0
 21 42  1  0
 22 43  1  0
 23 44  1  0
 24 45  1  0
 25 46  1  0
 25 47  1  0
 29 48  1  0
 30 49  1  0
M  END
>  <Ligand ID>  (1) 
LIG0002597

>  <Ligand>  (1) 
CHEMBL215381

>  <SMILES>  (1) 
O[C@@H]1[C@H](O)[C@H](O[C@H]1n1ccc(=O)n(c1=O)CC(=O)c1ccccc1)COP(=O)(O)O

>  <CID>  (1) 
11993885.0

>  <ChEMBL ID>  (1) 
nan

>  <InChiKey>  (1) 
BVOHBCXZDSIVFU-DTZQCDIJSA-N

>  <InChi>  (1) 
InChI=1S/C17H19N2O10P/c20-11(10-4-2-1-3-5-10)8-19-13(21)6-7-18(17(19)24)16-15(23)14(22)12(29-16)9-28-30(25,26)27/h1-7,12,14-16,22-23H,8-9H2,(H2,25,26,27)/t12-,14-,15-,16-/m1/s1

>  <IUPAC Name>  (1) 
[(2R,3S,4R,5R)-5-(2,4-dioxo-3-phenacylpyrimidin-1-yl)-3,4-dihydroxyoxolan-2-yl]methyl dihydrogen phosphate

$$$$
