
     RDKit          3D

 24 24  0  0  0  0  0  0  0  0999 V2000
    3.7788    0.2853   -0.2303 C   0  0  0  0  0  0  0  0  0  0  0  0
    2.2870    0.1536   -0.2550 C   0  0  0  0  0  0  0  0  0  0  0  0
    1.4884    0.7714    0.6954 C   0  0  0  0  0  0  0  0  0  0  0  0
    0.1339    0.5859    0.5807 C   0  0  0  0  0  0  0  0  0  0  0  0
   -0.4537   -0.1687   -0.4127 C   0  0  0  0  0  0  0  0  0  0  0  0
    0.3598   -0.7840   -1.3612 C   0  0  0  0  0  0  0  0  0  0  0  0
    1.7445   -0.6113   -1.2677 C   0  0  0  0  0  0  0  0  0  0  0  0
   -1.9293   -0.2917   -0.4270 C   0  0  0  0  0  0  0  0  0  0  0  0
   -2.3850   -1.0870    0.7943 C   0  0  0  0  0  0  0  0  0  0  0  0
   -2.6669    0.9901   -0.4454 C   0  0  0  0  0  0  0  0  0  0  0  0
    4.2092   -0.6811    0.1244 H   0  0  0  0  0  0  0  0  0  0  0  0
    4.0745    1.0974    0.4734 H   0  0  0  0  0  0  0  0  0  0  0  0
    4.1836    0.4866   -1.2326 H   0  0  0  0  0  0  0  0  0  0  0  0
    1.9387    1.3744    1.4912 H   0  0  0  0  0  0  0  0  0  0  0  0
   -0.4962    1.0621    1.3148 H   0  0  0  0  0  0  0  0  0  0  0  0
   -0.0896   -1.3805   -2.1480 H   0  0  0  0  0  0  0  0  0  0  0  0
    2.3647   -1.1021   -2.0211 H   0  0  0  0  0  0  0  0  0  0  0  0
   -2.1895   -0.9398   -1.3063 H   0  0  0  0  0  0  0  0  0  0  0  0
   -1.7146   -0.8665    1.6368 H   0  0  0  0  0  0  0  0  0  0  0  0
   -2.4884   -2.1667    0.5619 H   0  0  0  0  0  0  0  0  0  0  0  0
   -3.4209   -0.7366    1.0729 H   0  0  0  0  0  0  0  0  0  0  0  0
   -3.3547    0.9902   -1.3328 H   0  0  0  0  0  0  0  0  0  0  0  0
   -3.3275    1.1198    0.4366 H   0  0  0  0  0  0  0  0  0  0  0  0
   -2.0470    1.8994   -0.4845 H   0  0  0  0  0  0  0  0  0  0  0  0
  1  2  1  0
  2  3  2  0
  3  4  1  0
  4  5  2  0
  5  6  1  0
  6  7  2  0
  5  8  1  0
  8  9  1  0
  8 10  1  0
  7  2  1  0
  1 11  1  0
  1 12  1  0
  1 13  1  0
  3 14  1  0
  4 15  1  0
  6 16  1  0
  7 17  1  0
  8 18  1  0
  9 19  1  0
  9 20  1  0
  9 21  1  0
 10 22  1  0
 10 23  1  0
 10 24  1  0
M  END
>  <Ligand ID>  (1) 
LIG0000150

>  <Ligand>  (1) 
p-cymene

>  <SMILES>  (1) 
Cc1ccc(cc1)C(C)C

>  <CID>  (1) 
7463.0

>  <ChEMBL ID>  (1) 
nan

>  <InChiKey>  (1) 
HFPZCAJZSCWRBC-UHFFFAOYSA-N

>  <InChi>  (1) 
InChI=1S/C10H14/c1-8(2)10-6-4-9(3)5-7-10/h4-8H,1-3H3

>  <IUPAC Name>  (1) 
1-methyl-4-propan-2-ylbenzene

$$$$
