
     RDKit          3D

 33 34  0  0  0  0  0  0  0  0999 V2000
    1.4137    2.8930    0.2261 C   0  0  0  0  0  0  0  0  0  0  0  0
    1.3286    1.7620    1.0308 O   0  0  0  0  0  0  0  0  0  0  0  0
    1.1818    0.4457    0.5733 C   0  0  0  0  0  0  0  0  0  0  0  0
   -0.0647   -0.1180    0.3769 C   0  0  0  0  0  0  0  0  0  0  0  0
   -1.2404    0.7375    0.6738 C   0  0  0  0  0  0  0  0  0  0  0  0
   -2.4907    0.1664    0.2810 N   0  0  0  0  0  0  0  0  0  0  0  0
   -3.4491    1.1746   -0.1481 C   0  0  0  0  0  0  0  0  0  0  0  0
   -2.3215   -0.7532   -0.8338 C   0  0  0  0  0  0  0  0  0  0  0  0
   -1.5560   -1.9503   -0.2604 C   0  0  0  0  0  0  0  0  0  0  0  0
   -0.1652   -1.4175   -0.0747 C   0  0  0  0  0  0  0  0  0  0  0  0
    0.9521   -2.1960   -0.3449 C   0  0  0  0  0  0  0  0  0  0  0  0
    2.1954   -1.6122   -0.1416 C   0  0  0  0  0  0  0  0  0  0  0  0
    2.3098   -0.2966    0.3157 C   0  0  0  0  0  0  0  0  0  0  0  0
    3.6437    0.0217    0.4268 O   0  0  0  0  0  0  0  0  0  0  0  0
    4.3895   -1.0948   -0.0524 C   0  0  0  0  0  0  0  0  0  0  0  0
    3.4704   -2.1250   -0.3194 O   0  0  0  0  0  0  0  0  0  0  0  0
    0.0000    0.0000    0.0000 Br  0  0  0  0  0  0  0  0  0  0  0  0
    2.4000    3.3980    0.4348 H   0  0  0  0  0  0  0  0  0  0  0  0
    0.6482    3.6650    0.5316 H   0  0  0  0  0  0  0  0  0  0  0  0
    1.2739    2.6563   -0.8321 H   0  0  0  0  0  0  0  0  0  0  0  0
   -1.0531    1.7471    0.2131 H   0  0  0  0  0  0  0  0  0  0  0  0
   -1.2561    0.8533    1.7976 H   0  0  0  0  0  0  0  0  0  0  0  0
   -2.9115   -0.4095    1.0640 H   0  0  0  0  0  0  0  0  0  0  0  0
   -4.4671    0.7911    0.0593 H   0  0  0  0  0  0  0  0  0  0  0  0
   -3.2535    2.1756    0.2428 H   0  0  0  0  0  0  0  0  0  0  0  0
   -3.4186    1.2826   -1.2698 H   0  0  0  0  0  0  0  0  0  0  0  0
   -3.2858   -1.0787   -1.2396 H   0  0  0  0  0  0  0  0  0  0  0  0
   -1.6584   -0.2777   -1.5790 H   0  0  0  0  0  0  0  0  0  0  0  0
   -1.5569   -2.7565   -1.0330 H   0  0  0  0  0  0  0  0  0  0  0  0
   -1.9901   -2.2683    0.7060 H   0  0  0  0  0  0  0  0  0  0  0  0
    0.8508   -3.1971   -0.6929 H   0  0  0  0  0  0  0  0  0  0  0  0
    5.0176   -0.8403   -0.9345 H   0  0  0  0  0  0  0  0  0  0  0  0
    5.0633   -1.3782    0.8027 H   0  0  0  0  0  0  0  0  0  0  0  0
  1  2  1  0
  2  3  1  0
  3  4  2  0
  4  5  1  0
  5  6  1  0
  6  7  1  0
  6  8  1  0
  8  9  1  0
  9 10  1  0
 10 11  2  0
 11 12  1  0
 12 13  2  0
 13 14  1  0
 14 15  1  0
 15 16  1  0
 13  3  1  0
 10  4  1  0
 16 12  1  0
  1 18  1  0
  1 19  1  0
  1 20  1  0
  5 21  1  0
  5 22  1  0
  6 23  1  0
  7 24  1  0
  7 25  1  0
  7 26  1  0
  8 27  1  0
  8 28  1  0
  9 29  1  0
  9 30  1  0
 11 31  1  0
 15 32  1  0
 15 33  1  0
M  CHG  2   6   1  17  -1
M  END
>  <Ligand ID>  (1) 
LIG0005557

>  <Ligand>  (1) 
NSC99784

>  <SMILES>  (1) 
COc1c2C[NH+](C)CCc2cc2c1OCO2.[Br-]

>  <CID>  (1) 
5459345.0

>  <ChEMBL ID>  (1) 
nan

>  <InChiKey>  (1) 
VMLDPXIOBIJNAW-UHFFFAOYSA-N

>  <InChi>  (1) 
InChI=1S/C12H15NO3.BrH/c1-13-4-3-8-5-10-12(16-7-15-10)11(14-2)9(8)6-13;/h5H,3-4,6-7H2,1-2H3;1H

>  <IUPAC Name>  (1) 
4-methoxy-6-methyl-5,6,7,8-tetrahydro-[1,3]dioxolo[4,5-g]isoquinolin-6-ium;bromide

$$$$
