
     RDKit          3D

 89 95  0  0  0  0  0  0  0  0999 V2000
   -1.0720    0.2780   -0.0881 C   0  0  0  0  0  0  0  0  0  0  0  0
    0.4884   -0.5348    0.1487 S   0  0  0  0  0  0  0  0  0  0  0  0
    0.3650   -1.9149   -0.3963 O   0  0  0  0  0  0  0  0  0  0  0  0
    0.7409   -0.6268    1.6142 O   0  0  0  0  0  0  0  0  0  0  0  0
    1.6958    0.2973   -0.6408 O   0  0  0  0  0  0  0  0  0  0  0  0
    4.0242   -3.0099   -1.8683 C   0  0  0  0  0  0  0  0  0  0  0  0
    3.9295   -1.5937   -2.0742 N   0  0  0  0  0  0  0  0  0  0  0  0
    2.5834   -1.0901   -1.9158 C   0  0  0  0  0  0  0  0  0  0  0  0
    2.1174   -1.2818   -0.4842 C   0  0  1  0  0  0  0  0  0  0  0  0
    3.1952   -0.9198    0.5018 C   0  0  0  0  0  0  0  0  0  0  0  0
    4.3200   -0.1365   -0.1463 C   0  0  0  0  0  0  0  0  0  0  0  0
    4.8972   -0.8044   -1.3342 C   0  0  1  0  0  0  0  0  0  0  0  0
    6.1778   -1.5316   -1.1860 C   0  0  0  0  0  0  0  0  0  0  0  0
    7.0438   -1.1092   -0.0807 C   0  0  0  0  0  0  0  0  0  0  0  0
    8.3458   -1.3745    0.2443 C   0  0  0  0  0  0  0  0  0  0  0  0
    8.6119   -0.6967    1.4041 N   0  0  0  0  0  0  0  0  0  0  0  0
    7.5286   -0.0272    1.8039 C   0  0  0  0  0  0  0  0  0  0  0  0
    6.5549   -0.2853    0.8789 C   0  0  0  0  0  0  0  0  0  0  0  0
    5.2773    0.2183    0.9230 C   0  0  0  0  0  0  0  0  0  0  0  0
    4.9366    1.0446    1.9685 C   0  0  0  0  0  0  0  0  0  0  0  0
    5.8929    1.3392    2.9388 C   0  0  0  0  0  0  0  0  0  0  0  0
    7.1860    0.8058    2.8585 C   0  0  0  0  0  0  0  0  0  0  0  0
    0.8494   -0.5757   -0.3147 C   0  0  0  0  0  0  0  0  0  0  0  0
   -0.2233   -1.1820    0.0272 O   0  0  0  0  0  0  0  0  0  0  0  0
    0.7200    0.8239   -0.5163 N   0  0  0  0  0  0  0  0  0  0  0  0
   -0.5447    1.5017   -0.3429 C   0  0  2  0  0  0  0  0  0  0  0  0
   -0.4714    2.9811   -0.6036 C   0  0  0  0  0  0  0  0  0  0  0  0
   -1.0793    1.3048    0.9240 O   0  0  0  0  0  0  0  0  0  0  0  0
   -2.4158    1.0615    0.8192 C   0  0  2  0  0  0  0  0  0  0  0  0
   -2.7321    0.7802   -0.5491 N   0  0  0  0  0  0  0  0  0  0  0  0
   -1.5347    0.9195   -1.2961 C   0  0  0  0  0  0  0  0  0  0  0  0
   -1.3460    0.6187   -2.4995 O   0  0  0  0  0  0  0  0  0  0  0  0
   -4.0985    0.4350   -0.8885 C   0  0  1  0  0  0  0  0  0  0  0  0
   -4.3062   -1.0575   -0.9571 C   0  0  0  0  0  0  0  0  0  0  0  0
   -5.6887   -1.4500   -1.3009 C   0  0  0  0  0  0  0  0  0  0  0  0
   -6.6752   -1.6669   -0.3449 C   0  0  0  0  0  0  0  0  0  0  0  0
   -7.9570   -2.0332   -0.7171 C   0  0  0  0  0  0  0  0  0  0  0  0
   -8.2612   -2.1855   -2.0580 C   0  0  0  0  0  0  0  0  0  0  0  0
   -7.2924   -1.9739   -3.0243 C   0  0  0  0  0  0  0  0  0  0  0  0
   -6.0086   -1.6067   -2.6436 C   0  0  0  0  0  0  0  0  0  0  0  0
   -5.0678    1.0913    0.0277 C   0  0  0  0  0  0  0  0  0  0  0  0
   -6.2870    1.0666   -0.2979 O   0  0  0  0  0  0  0  0  0  0  0  0
   -4.6454    1.7268    1.2305 N   0  0  0  0  0  0  0  0  0  0  0  0
   -3.2805    2.2219    1.2736 C   0  0  1  0  0  0  0  0  0  0  0  0
   -3.0181    2.5967    2.7125 C   0  0  0  0  0  0  0  0  0  0  0  0
   -4.3840    2.8145    3.2942 C   0  0  0  0  0  0  0  0  0  0  0  0
   -5.3281    1.9939    2.4779 C   0  0  0  0  0  0  0  0  0  0  0  0
   -2.8227   -0.0684    1.5577 O   0  0  0  0  0  0  0  0  0  0  0  0
   -1.1641    0.4604   -1.1876 H   0  0  0  0  0  0  0  0  0  0  0  0
   -1.8978   -0.3401    0.3029 H   0  0  0  0  0  0  0  0  0  0  0  0
   -1.0369    1.2191    0.4771 H   0  0  0  0  0  0  0  0  0  0  0  0
    1.8806    1.1616   -0.2300 H   0  0  0  0  0  0  0  0  0  0  0  0
    3.0781   -3.4783   -2.2763 H   0  0  0  0  0  0  0  0  0  0  0  0
    4.0848   -3.3515   -0.8391 H   0  0  0  0  0  0  0  0  0  0  0  0
    4.8355   -3.4736   -2.4537 H   0  0  0  0  0  0  0  0  0  0  0  0
    2.5979   -0.0021   -2.1282 H   0  0  0  0  0  0  0  0  0  0  0  0
    1.9393   -1.6031   -2.6367 H   0  0  0  0  0  0  0  0  0  0  0  0
    1.9208   -2.3688   -0.3787 H   0  0  0  0  0  0  0  0  0  0  0  0
    3.6350   -1.8266    0.9653 H   0  0  0  0  0  0  0  0  0  0  0  0
    2.7974   -0.3067    1.3317 H   0  0  0  0  0  0  0  0  0  0  0  0
    3.8369    0.8542   -0.4116 H   0  0  0  0  0  0  0  0  0  0  0  0
    5.1289    0.0342   -2.0678 H   0  0  0  0  0  0  0  0  0  0  0  0
    6.7436   -1.5577   -2.1667 H   0  0  0  0  0  0  0  0  0  0  0  0
    5.9626   -2.6169   -1.0031 H   0  0  0  0  0  0  0  0  0  0  0  0
    9.0580   -1.9939   -0.2861 H   0  0  0  0  0  0  0  0  0  0  0  0
    9.5286   -0.6947    1.9146 H   0  0  0  0  0  0  0  0  0  0  0  0
    3.9442    1.4636    2.0447 H   0  0  0  0  0  0  0  0  0  0  0  0
    5.6733    1.9838    3.7798 H   0  0  0  0  0  0  0  0  0  0  0  0
    7.9414    1.0222    3.6005 H   0  0  0  0  0  0  0  0  0  0  0  0
    1.5334    1.4080   -0.7959 H   0  0  0  0  0  0  0  0  0  0  0  0
   -0.2326    3.5597    0.3107 H   0  0  0  0  0  0  0  0  0  0  0  0
    0.3601    3.1988   -1.3341 H   0  0  0  0  0  0  0  0  0  0  0  0
   -1.4317    3.3646   -1.0290 H   0  0  0  0  0  0  0  0  0  0  0  0
   -4.3346    0.8306   -1.9132 H   0  0  0  0  0  0  0  0  0  0  0  0
   -3.6099   -1.5040   -1.6951 H   0  0  0  0  0  0  0  0  0  0  0  0
   -4.0142   -1.4627    0.0378 H   0  0  0  0  0  0  0  0  0  0  0  0
   -6.4011   -1.5375    0.7112 H   0  0  0  0  0  0  0  0  0  0  0  0
   -8.7043   -2.1945    0.0651 H   0  0  0  0  0  0  0  0  0  0  0  0
   -9.2786   -2.4746   -2.3242 H   0  0  0  0  0  0  0  0  0  0  0  0
   -7.5324   -2.0940   -4.0794 H   0  0  0  0  0  0  0  0  0  0  0  0
   -5.2793   -1.4504   -3.4299 H   0  0  0  0  0  0  0  0  0  0  0  0
   -3.1805    3.0751    0.5897 H   0  0  0  0  0  0  0  0  0  0  0  0
   -2.4999    3.5802    2.6859 H   0  0  0  0  0  0  0  0  0  0  0  0
   -2.4620    1.8268    3.2620 H   0  0  0  0  0  0  0  0  0  0  0  0
   -4.7153    3.8741    3.2231 H   0  0  0  0  0  0  0  0  0  0  0  0
   -4.4228    2.5353    4.3849 H   0  0  0  0  0  0  0  0  0  0  0  0
   -6.3128    2.4997    2.3230 H   0  0  0  0  0  0  0  0  0  0  0  0
   -5.5663    1.0326    3.0050 H   0  0  0  0  0  0  0  0  0  0  0  0
   -3.3445    0.1629    2.3495 H   0  0  0  0  0  0  0  0  0  0  0  0
  1  2  1  0
  2  3  2  0
  2  4  2  0
  2  5  1  0
  6  7  1  0
  7  8  1  0
  8  9  1  0
  9 10  1  0
 10 11  1  0
 11 12  1  0
 12 13  1  0
 13 14  1  0
 14 15  2  0
 15 16  1  0
 16 17  1  0
 17 18  2  0
 18 19  1  0
 19 20  2  0
 20 21  1  0
 21 22  2  0
  9 23  1  0
 23 24  2  0
 23 25  1  0
 26 25  1  1
 26 27  1  0
 26 28  1  0
 28 29  1  0
 29 30  1  0
 30 31  1  0
 31 32  2  0
 30 33  1  0
 33 34  1  0
 34 35  1  0
 35 36  2  0
 36 37  1  0
 37 38  2  0
 38 39  1  0
 39 40  2  0
 33 41  1  0
 41 42  2  0
 41 43  1  0
 43 44  1  0
 44 45  1  0
 45 46  1  0
 46 47  1  0
 29 48  1  1
 12  7  1  0
 18 14  1  0
 31 26  1  0
 40 35  1  0
 47 43  1  0
 19 11  1  0
 44 29  1  0
 22 17  1  0
  1 49  1  0
  1 50  1  0
  1 51  1  0
  5 52  1  0
  6 53  1  0
  6 54  1  0
  6 55  1  0
  8 56  1  0
  8 57  1  0
  9 58  1  6
 10 59  1  0
 10 60  1  0
 11 61  1  0
 12 62  1  6
 13 63  1  0
 13 64  1  0
 15 65  1  0
 16 66  1  0
 20 67  1  0
 21 68  1  0
 22 69  1  0
 25 70  1  0
 27 71  1  0
 27 72  1  0
 27 73  1  0
 33 74  1  6
 34 75  1  0
 34 76  1  0
 36 77  1  0
 37 78  1  0
 38 79  1  0
 39 80  1  0
 40 81  1  0
 44 82  1  6
 45 83  1  0
 45 84  1  0
 46 85  1  0
 46 86  1  0
 47 87  1  0
 47 88  1  0
 48 89  1  0
M  END
>  <Ligand ID>  (1) 
LIG0005138

>  <Ligand>  (1) 
Dihydroergotamine mesylate

>  <SMILES>  (1) 
CS(=O)(=O)O.CN1C[C@@H](CC2[C@H]1Cc1c[nH]c3c1c2ccc3)C(=O)N[C@]1(C)O[C@@]2(N(C1=O)[C@@H](Cc1ccccc1)C(=O)N1[C@H]2CCC1)O

>  <CID>  (1) 
6420006.0

>  <ChEMBL ID>  (1) 
nan

>  <InChiKey>  (1) 
ADYPXRFPBQGGAH-WVVAGBSPSA-N

>  <InChi>  (1) 
InChI=1S/C33H37N5O5.CH4O3S/c1-32(35-29(39)21-15-23-22-10-6-11-24-28(22)20(17-34-24)16-25(23)36(2)18-21)31(41)38-26(14-19-8-4-3-5-9-19)30(40)37-13-7-12-27(37)33(38,42)43-32;1-5(2,3)4/h3-6,8-11,17,21,23,25-27,34,42H,7,12-16,18H2,1-2H3,(H,35,39);1H3,(H,2,3,4)/t21-,23?,25-,26+,27+,32-,33+;/m1./s1

>  <IUPAC Name>  (1) 
(6aR,9R)-N-[(1S,2S,4R,7S)-7-benzyl-2-hydroxy-4-methyl-5,8-dioxo-3-oxa-6,9-diazatricyclo[7.3.0.02,6]dodecan-4-yl]-7-methyl-6,6a,8,9,10,10a-hexahydro-4H-indolo[4,3-fg]quinoline-9-carboxamide;methanesulfonic acid

$$$$
