
     RDKit          3D

 31 32  0  0  0  0  0  0  0  0999 V2000
   -2.7947   -0.8013    1.3091 C   0  0  0  0  0  0  0  0  0  0  0  0
   -1.7364   -0.7483    0.2233 C   0  0  0  0  0  0  0  0  0  0  0  0
   -1.0911    0.6248    0.3283 C   0  0  2  0  0  0  0  0  0  0  0  0
   -2.2546    1.5756    0.0980 C   0  0  0  0  0  0  0  0  0  0  0  0
   -2.9856    2.0763    1.0186 O   0  0  0  0  0  0  0  0  0  0  0  0
   -2.3474    1.7738   -1.2708 O   0  0  0  0  0  0  0  0  0  0  0  0
   -1.2643    1.1976   -1.9352 C   0  0  0  0  0  0  0  0  0  0  0  0
   -0.2195    0.9526   -0.8150 C   0  0  2  0  0  0  0  0  0  0  0  0
    0.7241   -0.0094   -1.3379 C   0  0  0  0  0  0  0  0  0  0  0  0
    1.8286   -0.5623   -0.6034 C   0  0  0  0  0  0  0  0  0  0  0  0
    2.6446   -1.5768   -1.1781 C   0  0  0  0  0  0  0  0  0  0  0  0
    3.5673   -1.9484   -0.3206 N   0  0  0  0  0  0  0  0  0  0  0  0
    3.4199   -1.2489    0.7852 C   0  0  0  0  0  0  0  0  0  0  0  0
    2.3587   -0.4020    0.6124 N   0  0  0  0  0  0  0  0  0  0  0  0
    1.9633    0.5141    1.6353 C   0  0  0  0  0  0  0  0  0  0  0  0
   -2.6854   -1.7525    1.8909 H   0  0  0  0  0  0  0  0  0  0  0  0
   -2.6685    0.0071    2.0609 H   0  0  0  0  0  0  0  0  0  0  0  0
   -3.8215   -0.6989    0.8883 H   0  0  0  0  0  0  0  0  0  0  0  0
   -2.2637   -0.8410   -0.7554 H   0  0  0  0  0  0  0  0  0  0  0  0
   -1.0365   -1.5718    0.3581 H   0  0  0  0  0  0  0  0  0  0  0  0
   -0.7224    0.7400    1.3399 H   0  0  0  0  0  0  0  0  0  0  0  0
   -1.5429    0.2366   -2.3658 H   0  0  0  0  0  0  0  0  0  0  0  0
   -0.8145    1.9180   -2.6768 H   0  0  0  0  0  0  0  0  0  0  0  0
    0.1816    1.9814   -0.6420 H   0  0  0  0  0  0  0  0  0  0  0  0
    0.1133   -0.9026   -1.7243 H   0  0  0  0  0  0  0  0  0  0  0  0
    1.1300    0.4017   -2.3088 H   0  0  0  0  0  0  0  0  0  0  0  0
    2.5350   -1.9934   -2.1757 H   0  0  0  0  0  0  0  0  0  0  0  0
    4.0469   -1.3460    1.6704 H   0  0  0  0  0  0  0  0  0  0  0  0
    2.8718    0.8553    2.2160 H   0  0  0  0  0  0  0  0  0  0  0  0
    1.3094    0.0620    2.4235 H   0  0  0  0  0  0  0  0  0  0  0  0
    1.5545    1.4864    1.2519 H   0  0  0  0  0  0  0  0  0  0  0  0
  1  2  1  0
  2  3  1  0
  3  4  1  0
  4  5  2  0
  4  6  1  0
  6  7  1  0
  7  8  1  0
  8  9  1  0
  9 10  1  0
 10 11  2  0
 11 12  1  0
 12 13  2  0
 13 14  1  0
 14 15  1  0
  8  3  1  0
 14 10  1  0
  1 16  1  0
  1 17  1  0
  1 18  1  0
  2 19  1  0
  2 20  1  0
  3 21  1  1
  7 22  1  0
  7 23  1  0
  8 24  1  1
  9 25  1  0
  9 26  1  0
 11 27  1  0
 13 28  1  0
 15 29  1  0
 15 30  1  0
 15 31  1  0
M  END
>  <Ligand ID>  (1) 
LIG0003541

>  <Ligand>  (1) 
pilocarpine

>  <SMILES>  (1) 
CC[C@@H]1C(=O)OC[C@@H]1Cc1cncn1C

>  <CID>  (1) 
5910.0

>  <ChEMBL ID>  (1) 
nan

>  <InChiKey>  (1) 
QCHFTSOMWOSFHM-WPRPVWTQSA-N

>  <InChi>  (1) 
InChI=1S/C11H16N2O2/c1-3-10-8(6-15-11(10)14)4-9-5-12-7-13(9)2/h5,7-8,10H,3-4,6H2,1-2H3/t8-,10-/m0/s1

>  <IUPAC Name>  (1) 
(3S,4R)-3-ethyl-4-[(3-methylimidazol-4-yl)methyl]oxolan-2-one

$$$$
