
     RDKit          3D

 73 80  0  0  0  0  0  0  0  0999 V2000
    0.5570    6.0067   -0.8695 O   0  0  0  0  0  0  0  0  0  0  0  0
    1.2324    4.8096   -0.8808 C   0  0  0  0  0  0  0  0  0  0  0  0
    2.4939    4.6536   -1.4719 C   0  0  0  0  0  0  0  0  0  0  0  0
    3.1654    3.4251   -1.4731 C   0  0  0  0  0  0  0  0  0  0  0  0
    2.5685    2.3443   -0.8762 C   0  0  0  0  0  0  0  0  0  0  0  0
    1.3461    2.5630   -0.3184 C   0  0  0  0  0  0  0  0  0  0  0  0
    0.6280    3.7110   -0.2757 C   0  0  0  0  0  0  0  0  0  0  0  0
   -0.5523    3.4146    0.3886 O   0  0  0  0  0  0  0  0  0  0  0  0
   -0.6882    1.9993    0.5894 C   0  0  2  0  0  0  0  0  0  0  0  0
    0.6789    1.4375    0.3697 C   0  0  2  0  0  0  0  0  0  0  0  0
    1.4222    1.0594    1.5795 C   0  0  0  0  0  0  0  0  0  0  0  0
    2.2565   -0.1645    1.5528 C   0  0  0  0  0  0  0  0  0  0  0  0
    2.2396   -0.9317    0.3577 N   0  0  0  0  0  0  0  0  0  0  0  0
    2.0330   -0.1182   -0.8343 C   0  0  2  0  0  0  0  0  0  0  0  0
    3.0998    0.9633   -0.8271 C   0  0  0  0  0  0  0  0  0  0  0  0
    0.6276    0.3708   -0.7095 C   0  0  2  0  0  0  0  0  0  0  0  0
    0.0926    0.9552   -1.9914 C   0  0  0  0  0  0  0  0  0  0  0  0
   -1.2881    1.4675   -1.7721 C   0  0  0  0  0  0  0  0  0  0  0  0
   -1.6818    1.3392   -0.3256 C   0  0  2  0  0  0  0  0  0  0  0  0
   -2.9754    1.7495   -0.0833 O   0  0  0  0  0  0  0  0  0  0  0  0
   -3.8596    1.1465   -0.9185 C   0  0  0  0  0  0  0  0  0  0  0  0
   -3.7632   -0.1805   -1.1525 O   0  0  0  0  0  0  0  0  0  0  0  0
   -2.8523   -0.8988   -0.3995 C   0  0  2  0  0  0  0  0  0  0  0  0
   -1.6669   -0.1490    0.0716 C   0  0  1  0  0  0  0  0  0  0  0  0
   -0.3213   -0.7054   -0.2959 C   0  0  0  0  0  0  0  0  0  0  0  0
   -2.4363   -2.0294   -1.3568 C   0  0  0  0  0  0  0  0  0  0  0  0
   -3.6277   -1.5973    0.6986 C   0  0  0  0  0  0  0  0  0  0  0  0
   -2.7659   -2.4270    1.6181 C   0  0  0  0  0  0  0  0  0  0  0  0
   -4.4276   -0.6432    1.5625 C   0  0  0  0  0  0  0  0  0  0  0  0
   -4.6580   -2.5626    0.1165 C   0  0  0  0  0  0  0  0  0  0  0  0
    3.3826   -1.7545    0.1840 C   0  0  0  0  0  0  0  0  0  0  0  0
    3.4936   -2.8930    1.1514 C   0  0  0  0  0  0  0  0  0  0  0  0
    4.7261   -3.7653    0.9460 C   0  0  0  0  0  0  0  0  0  0  0  0
    4.7137   -2.8466    2.1256 C   0  0  0  0  0  0  0  0  0  0  0  0
   -0.0386    6.2313   -1.6561 H   0  0  0  0  0  0  0  0  0  0  0  0
    2.9702    5.5266   -1.9499 H   0  0  0  0  0  0  0  0  0  0  0  0
    4.1355    3.2922   -1.9230 H   0  0  0  0  0  0  0  0  0  0  0  0
   -1.0502    1.8552    1.6292 H   0  0  0  0  0  0  0  0  0  0  0  0
    2.1161    1.9108    1.8500 H   0  0  0  0  0  0  0  0  0  0  0  0
    0.7116    1.0491    2.4612 H   0  0  0  0  0  0  0  0  0  0  0  0
    3.3313    0.0226    1.8455 H   0  0  0  0  0  0  0  0  0  0  0  0
    1.8955   -0.8483    2.3731 H   0  0  0  0  0  0  0  0  0  0  0  0
    2.1547   -0.7879   -1.7043 H   0  0  0  0  0  0  0  0  0  0  0  0
    3.7548    0.8210   -1.7318 H   0  0  0  0  0  0  0  0  0  0  0  0
    3.7685    0.9038    0.0588 H   0  0  0  0  0  0  0  0  0  0  0  0
    0.0603    0.0906   -2.7191 H   0  0  0  0  0  0  0  0  0  0  0  0
    0.7227    1.7003   -2.4718 H   0  0  0  0  0  0  0  0  0  0  0  0
   -2.0199    0.8737   -2.3689 H   0  0  0  0  0  0  0  0  0  0  0  0
   -1.3926    2.5173   -2.0763 H   0  0  0  0  0  0  0  0  0  0  0  0
   -4.8893    1.4041   -0.5326 H   0  0  0  0  0  0  0  0  0  0  0  0
   -3.8259    1.6889   -1.9051 H   0  0  0  0  0  0  0  0  0  0  0  0
   -1.7035   -0.1047    1.2022 H   0  0  0  0  0  0  0  0  0  0  0  0
   -0.3349   -1.4429   -1.1255 H   0  0  0  0  0  0  0  0  0  0  0  0
    0.1553   -1.2110    0.5931 H   0  0  0  0  0  0  0  0  0  0  0  0
   -1.8289   -2.7961   -0.8852 H   0  0  0  0  0  0  0  0  0  0  0  0
   -3.3849   -2.5315   -1.6916 H   0  0  0  0  0  0  0  0  0  0  0  0
   -2.0088   -1.6228   -2.2974 H   0  0  0  0  0  0  0  0  0  0  0  0
   -2.3643   -1.7980    2.4675 H   0  0  0  0  0  0  0  0  0  0  0  0
   -2.0123   -3.0415    1.1246 H   0  0  0  0  0  0  0  0  0  0  0  0
   -3.4579   -3.1549    2.1315 H   0  0  0  0  0  0  0  0  0  0  0  0
   -4.8102   -1.2921    2.4088 H   0  0  0  0  0  0  0  0  0  0  0  0
   -3.8554    0.1830    1.9832 H   0  0  0  0  0  0  0  0  0  0  0  0
   -5.3611   -0.3560    1.0267 H   0  0  0  0  0  0  0  0  0  0  0  0
   -5.2420   -2.1216   -0.7043 H   0  0  0  0  0  0  0  0  0  0  0  0
   -4.2212   -3.5484   -0.1285 H   0  0  0  0  0  0  0  0  0  0  0  0
   -5.3735   -2.7696    0.9384 H   0  0  0  0  0  0  0  0  0  0  0  0
    4.3524   -1.2198    0.1711 H   0  0  0  0  0  0  0  0  0  0  0  0
    3.3100   -2.2125   -0.8447 H   0  0  0  0  0  0  0  0  0  0  0  0
    2.5836   -3.3881    1.5252 H   0  0  0  0  0  0  0  0  0  0  0  0
    5.4438   -3.4904    0.1402 H   0  0  0  0  0  0  0  0  0  0  0  0
    4.6344   -4.8453    1.0977 H   0  0  0  0  0  0  0  0  0  0  0  0
    4.5723   -3.3406    3.1039 H   0  0  0  0  0  0  0  0  0  0  0  0
    5.3094   -1.8957    2.1045 H   0  0  0  0  0  0  0  0  0  0  0  0
  1  2  1  0
  2  3  2  0
  3  4  1  0
  4  5  2  0
  5  6  1  0
  6  7  2  0
  7  8  1  0
  8  9  1  0
  9 10  1  0
 10 11  1  1
 11 12  1  0
 12 13  1  0
 13 14  1  0
 14 15  1  0
 14 16  1  0
 16 17  1  6
 17 18  1  0
 18 19  1  0
 19 20  1  6
 20 21  1  0
 21 22  1  0
 22 23  1  0
 23 24  1  0
 24 25  1  0
 23 26  1  6
 23 27  1  0
 27 28  1  0
 27 29  1  0
 27 30  1  0
 13 31  1  0
 31 32  1  0
 32 33  1  0
 33 34  1  0
  7  2  1  0
 19  9  1  0
 34 32  1  0
 15  5  1  0
 25 16  1  0
 10  6  1  0
 24 19  1  0
 16 10  1  0
  1 35  1  0
  3 36  1  0
  4 37  1  0
  9 38  1  1
 11 39  1  0
 11 40  1  0
 12 41  1  0
 12 42  1  0
 14 43  1  6
 15 44  1  0
 15 45  1  0
 17 46  1  0
 17 47  1  0
 18 48  1  0
 18 49  1  0
 21 50  1  0
 21 51  1  0
 24 52  1  1
 25 53  1  0
 25 54  1  0
 26 55  1  0
 26 56  1  0
 26 57  1  0
 28 58  1  0
 28 59  1  0
 28 60  1  0
 29 61  1  0
 29 62  1  0
 29 63  1  0
 30 64  1  0
 30 65  1  0
 30 66  1  0
 31 67  1  0
 31 68  1  0
 32 69  1  0
 33 70  1  0
 33 71  1  0
 34 72  1  0
 34 73  1  0
M  END
>  <Ligand ID>  (1) 
LIG0005111

>  <Ligand>  (1) 
SCHEMBL15486162

>  <SMILES>  (1) 
Oc1ccc2c3c1O[C@@H]1[C@@]43CCN([C@H](C2)[C@@]24CC[C@@]31OCO[C@]([C@H]3C2)(C)C(C)(C)C)CC1CC1

>  <CID>  (1) 
73211769.0

>  <ChEMBL ID>  (1) 
nan

>  <InChiKey>  (1) 
OWNPADNXDQCYAS-IHFGGWKQSA-N

>  <InChi>  (1) 
InChI=1S/C29H39NO4/c1-25(2,3)26(4)20-14-27-9-10-29(20,33-16-32-26)24-28(27)11-12-30(15-17-5-6-17)21(27)13-18-7-8-19(31)23(34-24)22(18)28/h7-8,17,20-21,24,31H,5-6,9-16H2,1-4H3/t20-,21-,24-,26+,27-,28+,29-/m1/s1

>  <IUPAC Name>  (1) 
(1S,2S,6R,14R,15R,19S,20R)-19-tert-butyl-5-(cyclopropylmethyl)-19-methyl-13,16,18-trioxa-5-azaheptacyclo[13.6.2.12,8.01,6.02,14.015,20.012,24]tetracosa-8(24),9,11-trien-11-ol

$$$$
