
     RDKit          3D

 32 32  0  0  0  0  0  0  0  0999 V2000
    4.6458   -0.3954    0.2357 C   0  0  0  0  0  0  0  0  0  0  0  0
    3.2180   -0.7847    0.2969 C   0  0  0  0  0  0  0  0  0  0  0  0
    2.2273    0.1272    0.0977 C   0  0  0  0  0  0  0  0  0  0  0  0
    0.8987   -0.3934    0.1870 C   0  0  0  0  0  0  0  0  0  0  0  0
    0.8730   -1.6704    0.4475 O   0  0  0  0  0  0  0  0  0  0  0  0
   -0.3887    0.2207    0.0450 C   0  0  0  0  0  0  0  0  0  0  0  0
   -0.5930    1.5098   -0.2206 C   0  0  0  0  0  0  0  0  0  0  0  0
    0.5194    2.4434   -0.3942 C   0  0  0  0  0  0  0  0  0  0  0  0
   -1.9571    2.0579   -0.3732 C   0  0  0  0  0  0  0  0  0  0  0  0
   -3.0035    1.2789   -0.2514 C   0  0  0  0  0  0  0  0  0  0  0  0
   -2.8996   -0.1646    0.0380 C   0  0  0  0  0  0  0  0  0  0  0  0
   -1.5591   -0.7268    0.2432 C   0  0  0  0  0  0  0  0  0  0  0  0
   -1.5052   -1.2387    1.6958 C   0  0  0  0  0  0  0  0  0  0  0  0
   -1.3977   -1.9363   -0.6545 C   0  0  0  0  0  0  0  0  0  0  0  0
    5.0299   -0.0076    1.2053 H   0  0  0  0  0  0  0  0  0  0  0  0
    5.2819   -1.1782   -0.1861 H   0  0  0  0  0  0  0  0  0  0  0  0
    4.7334    0.4734   -0.4808 H   0  0  0  0  0  0  0  0  0  0  0  0
    3.0017   -1.8183    0.5054 H   0  0  0  0  0  0  0  0  0  0  0  0
    2.5840    1.1061   -0.0982 H   0  0  0  0  0  0  0  0  0  0  0  0
    0.0660    3.4699   -0.6029 H   0  0  0  0  0  0  0  0  0  0  0  0
    1.0888    2.6567    0.5192 H   0  0  0  0  0  0  0  0  0  0  0  0
    1.0827    2.2526   -1.3137 H   0  0  0  0  0  0  0  0  0  0  0  0
   -2.1408    3.1009   -0.5868 H   0  0  0  0  0  0  0  0  0  0  0  0
   -3.9973    1.6886   -0.3634 H   0  0  0  0  0  0  0  0  0  0  0  0
   -3.4397   -0.7386   -0.7980 H   0  0  0  0  0  0  0  0  0  0  0  0
   -3.5988   -0.3893    0.9134 H   0  0  0  0  0  0  0  0  0  0  0  0
   -2.3112   -0.7559    2.3087 H   0  0  0  0  0  0  0  0  0  0  0  0
   -0.5541   -1.0391    2.1835 H   0  0  0  0  0  0  0  0  0  0  0  0
   -1.7268   -2.3200    1.7026 H   0  0  0  0  0  0  0  0  0  0  0  0
   -2.3828   -2.2287   -1.1248 H   0  0  0  0  0  0  0  0  0  0  0  0
   -0.6987   -1.7823   -1.4796 H   0  0  0  0  0  0  0  0  0  0  0  0
   -1.0962   -2.8179   -0.0561 H   0  0  0  0  0  0  0  0  0  0  0  0
  1  2  1  0
  2  3  2  3
  3  4  1  0
  4  5  2  0
  4  6  1  0
  6  7  2  0
  7  8  1  0
  7  9  1  0
  9 10  2  0
 10 11  1  0
 11 12  1  0
 12 13  1  0
 12 14  1  0
 12  6  1  0
  1 15  1  0
  1 16  1  0
  1 17  1  0
  2 18  1  0
  3 19  1  0
  8 20  1  0
  8 21  1  0
  8 22  1  0
  9 23  1  0
 10 24  1  0
 11 25  1  0
 11 26  1  0
 13 27  1  0
 13 28  1  0
 13 29  1  0
 14 30  1  0
 14 31  1  0
 14 32  1  0
M  END
>  <Ligand ID>  (1) 
LIG0002057

>  <Ligand>  (1) 
2,6,6-Trimethyl-1-crotonyl-1,3-cyclohexadiene

>  <SMILES>  (1) 
CC=CC(=O)C1=C(C)C=CCC1(C)C

>  <CID>  (1) 
62775.0

>  <ChEMBL ID>  (1) 
nan

>  <InChiKey>  (1) 
POIARNZEYGURDG-UHFFFAOYSA-N

>  <InChi>  (1) 
InChI=1S/C13H18O/c1-5-7-11(14)12-10(2)8-6-9-13(12,3)4/h5-8H,9H2,1-4H3

>  <IUPAC Name>  (1) 
1-(2,6,6-trimethylcyclohexa-1,3-dien-1-yl)but-2-en-1-one

$$$$
