
     RDKit          3D

 53 54  0  0  0  0  0  0  0  0999 V2000
   -6.6773    1.4285    1.5057 C   0  0  0  0  0  0  0  0  0  0  0  0
   -6.8135    1.7771    0.0413 C   0  0  0  0  0  0  0  0  0  0  0  0
   -6.4886    0.5457   -0.7753 C   0  0  0  0  0  0  0  0  0  0  0  0
   -5.1213    0.0629   -0.5322 C   0  0  0  0  0  0  0  0  0  0  0  0
   -4.7911   -0.8595    0.4496 C   0  0  0  0  0  0  0  0  0  0  0  0
   -3.4904   -1.2637    0.6178 C   0  0  0  0  0  0  0  0  0  0  0  0
   -3.2215   -2.1073    1.5233 O   0  0  0  0  0  0  0  0  0  0  0  0
   -2.4705   -0.7935   -0.1519 N   0  0  0  0  0  0  0  0  0  0  0  0
   -2.8221    0.1012   -1.0972 C   0  0  0  0  0  0  0  0  0  0  0  0
   -1.9267    0.5636   -1.8298 O   0  0  0  0  0  0  0  0  0  0  0  0
   -4.0902    0.5145   -1.2832 N   0  0  0  0  0  0  0  0  0  0  0  0
   -1.1310   -1.2503    0.0678 C   0  0  2  0  0  0  0  0  0  0  0  0
   -0.3115   -0.1281    0.1148 O   0  0  0  0  0  0  0  0  0  0  0  0
    0.9758   -0.6133   -0.1117 C   0  0  1  0  0  0  0  0  0  0  0  0
    0.8066   -1.6555   -1.1915 C   0  0  2  0  0  0  0  0  0  0  0  0
   -0.5610   -2.2145   -0.8803 C   0  0  1  0  0  0  0  0  0  0  0  0
   -0.3368   -3.4738   -0.2775 O   0  0  0  0  0  0  0  0  0  0  0  0
    1.8147   -2.6027   -1.0814 O   0  0  0  0  0  0  0  0  0  0  0  0
    1.8448    0.5349   -0.5875 C   0  0  0  0  0  0  0  0  0  0  0  0
    3.1434    0.0360   -0.8140 O   0  0  0  0  0  0  0  0  0  0  0  0
    4.1591    1.2752   -1.3493 P   0  0  0  0  0  0  0  0  0  0  0  0
    5.1689    0.7389   -2.3358 O   0  0  0  0  0  0  0  0  0  0  0  0
    4.9865    2.0223   -0.0769 O   0  0  0  0  0  0  0  0  0  0  0  0
    6.5377    1.3567   -0.0135 P   0  0  0  0  0  0  0  0  0  0  0  0
    7.1083    1.2687   -1.4310 O   0  0  0  0  0  0  0  0  0  0  0  0
    6.4212   -0.2267    0.5867 O   0  0  0  0  0  0  0  0  0  0  0  0
    6.4064   -0.1851    2.2770 P   0  0  0  0  0  0  0  0  0  0  0  0
    7.7439   -0.4913    2.8854 O   0  0  0  0  0  0  0  0  0  0  0  0
    5.2407   -1.3250    2.7645 O   0  0  0  0  0  0  0  0  0  0  0  0
    5.8879    1.3590    2.7910 O   0  0  0  0  0  0  0  0  0  0  0  0
    7.5932    2.2712    0.9400 O   0  0  0  0  0  0  0  0  0  0  0  0
    3.1662    2.4442   -2.0664 O   0  0  0  0  0  0  0  0  0  0  0  0
   -5.5744    1.3032    1.7100 H   0  0  0  0  0  0  0  0  0  0  0  0
   -7.1084    2.2137    2.1563 H   0  0  0  0  0  0  0  0  0  0  0  0
   -7.1603    0.4627    1.7331 H   0  0  0  0  0  0  0  0  0  0  0  0
   -7.8180    2.1662   -0.1925 H   0  0  0  0  0  0  0  0  0  0  0  0
   -6.1011    2.5547   -0.2585 H   0  0  0  0  0  0  0  0  0  0  0  0
   -6.6706    0.7698   -1.8289 H   0  0  0  0  0  0  0  0  0  0  0  0
   -7.2063   -0.2555   -0.4871 H   0  0  0  0  0  0  0  0  0  0  0  0
   -5.5981   -1.2512    1.0813 H   0  0  0  0  0  0  0  0  0  0  0  0
   -4.3429    1.2207   -2.0349 H   0  0  0  0  0  0  0  0  0  0  0  0
   -1.0763   -1.6920    1.0967 H   0  0  0  0  0  0  0  0  0  0  0  0
    1.3331   -1.0478    0.8276 H   0  0  0  0  0  0  0  0  0  0  0  0
    0.8841   -1.2215   -2.1932 H   0  0  0  0  0  0  0  0  0  0  0  0
   -1.1560   -2.4568   -1.7780 H   0  0  0  0  0  0  0  0  0  0  0  0
    0.1874   -3.3040    0.5394 H   0  0  0  0  0  0  0  0  0  0  0  0
    2.1836   -2.9300   -1.9161 H   0  0  0  0  0  0  0  0  0  0  0  0
    1.4407    0.9556   -1.5261 H   0  0  0  0  0  0  0  0  0  0  0  0
    1.9133    1.2740    0.2363 H   0  0  0  0  0  0  0  0  0  0  0  0
    4.7680   -1.0370    3.5993 H   0  0  0  0  0  0  0  0  0  0  0  0
    6.6827    1.8524    3.1358 H   0  0  0  0  0  0  0  0  0  0  0  0
    8.4532    2.4271    0.4737 H   0  0  0  0  0  0  0  0  0  0  0  0
    3.2146    2.4032   -3.0524 H   0  0  0  0  0  0  0  0  0  0  0  0
  1  2  1  0
  2  3  1  0
  3  4  1  0
  4  5  2  0
  5  6  1  0
  6  7  2  0
  6  8  1  0
  8  9  1  0
  9 10  2  0
  9 11  1  0
  8 12  1  0
 12 13  1  0
 13 14  1  0
 14 15  1  0
 15 16  1  0
 16 17  1  0
 15 18  1  0
 14 19  1  0
 19 20  1  0
 20 21  1  0
 21 22  2  0
 21 23  1  0
 23 24  1  0
 24 25  2  0
 24 26  1  0
 26 27  1  0
 27 28  2  0
 27 29  1  0
 27 30  1  0
 24 31  1  0
 21 32  1  0
 11  4  1  0
 16 12  1  0
  1 33  1  0
  1 34  1  0
  1 35  1  0
  2 36  1  0
  2 37  1  0
  3 38  1  0
  3 39  1  0
  5 40  1  0
 11 41  1  0
 12 42  1  1
 14 43  1  1
 15 44  1  6
 16 45  1  6
 17 46  1  0
 18 47  1  0
 19 48  1  0
 19 49  1  0
 29 50  1  0
 30 51  1  0
 31 52  1  0
 32 53  1  0
M  END
>  <Ligand ID>  (1) 
LIG0004180

>  <Ligand>  (1) 
CHEMBL425805

>  <SMILES>  (1) 
CCCc1cc(=O)n(c(=O)[nH]1)[C@@H]1O[C@@H]([C@H]([C@H]1O)O)COP(=O)(OP(=O)(OP(=O)(O)O)O)O

>  <CID>  (1) 
11995643.0

>  <ChEMBL ID>  (1) 
nan

>  <InChiKey>  (1) 
NHAYKDHIHBRAHL-QCNRFFRDSA-N

>  <InChi>  (1) 
InChI=1S/C12H21N2O15P3/c1-2-3-6-4-8(15)14(12(18)13-6)11-10(17)9(16)7(27-11)5-26-31(22,23)29-32(24,25)28-30(19,20)21/h4,7,9-11,16-17H,2-3,5H2,1H3,(H,13,18)(H,22,23)(H,24,25)(H2,19,20,21)/t7-,9-,10-,11-/m1/s1

>  <IUPAC Name>  (1) 
[[(2R,3S,4R,5R)-5-(2,4-dioxo-6-propyl-1H-pyrimidin-3-yl)-3,4-dihydroxyoxolan-2-yl]methoxy-hydroxyphosphoryl] phosphono hydrogen phosphate

$$$$
