
     RDKit          3D

 57 60  0  0  0  0  0  0  0  0999 V2000
    8.6012    0.7523    0.8721 N   0  0  0  0  0  0  0  0  0  0  0  0
    7.2715    0.7144    0.3470 C   0  0  0  0  0  0  0  0  0  0  0  0
    6.5081    1.6445    0.6709 O   0  0  0  0  0  0  0  0  0  0  0  0
    6.9055   -0.2943   -0.4541 O   0  0  0  0  0  0  0  0  0  0  0  0
    5.7088   -0.5979   -1.1011 C   0  0  0  0  0  0  0  0  0  0  0  0
    4.5415   -0.8230   -0.2247 C   0  0  0  0  0  0  0  0  0  0  0  0
    4.0640    0.1936    0.6081 N   0  0  0  0  0  0  0  0  0  0  0  0
    3.4302    1.3342    0.0245 C   0  0  0  0  0  0  0  0  0  0  0  0
    2.1055    1.1168   -0.5986 C   0  0  0  0  0  0  0  0  0  0  0  0
    1.3490   -0.1006   -0.1739 C   0  0  0  0  0  0  0  0  0  0  0  0
    1.8094   -0.7025    1.1141 C   0  0  0  0  0  0  0  0  0  0  0  0
    3.1655   -0.3502    1.5833 C   0  0  0  0  0  0  0  0  0  0  0  0
   -0.0592    0.2294   -0.0255 N   0  0  0  0  0  0  0  0  0  0  0  0
   -0.7944   -0.9595    0.3465 C   0  0  0  0  0  0  0  0  0  0  0  0
   -2.1484   -0.4870    0.8909 C   0  0  0  0  0  0  0  0  0  0  0  0
   -2.8371    0.2301   -0.2451 C   0  0  0  0  0  0  0  0  0  0  0  0
   -2.0306    0.2364   -1.5162 C   0  0  0  0  0  0  0  0  0  0  0  0
   -0.6300    0.7557   -1.2307 C   0  0  0  0  0  0  0  0  0  0  0  0
   -4.1298   -0.3582   -0.4461 N   0  0  0  0  0  0  0  0  0  0  0  0
   -4.4901   -1.4718   -1.1078 C   0  0  0  0  0  0  0  0  0  0  0  0
   -3.7212   -2.2479   -1.7059 O   0  0  0  0  0  0  0  0  0  0  0  0
   -5.8219   -1.6579   -1.0477 N   0  0  0  0  0  0  0  0  0  0  0  0
   -6.3523   -0.6554   -0.3372 C   0  0  0  0  0  0  0  0  0  0  0  0
   -5.3012    0.1521    0.0366 C   0  0  0  0  0  0  0  0  0  0  0  0
   -5.5415    1.2944    0.7979 C   0  0  0  0  0  0  0  0  0  0  0  0
   -6.8328    1.6261    1.1829 C   0  0  0  0  0  0  0  0  0  0  0  0
   -7.8698    0.8053    0.7985 C   0  0  0  0  0  0  0  0  0  0  0  0
   -7.6290   -0.3319    0.0407 C   0  0  0  0  0  0  0  0  0  0  0  0
    8.8225    0.6732    1.8813 H   0  0  0  0  0  0  0  0  0  0  0  0
    9.3691    0.8682    0.1653 H   0  0  0  0  0  0  0  0  0  0  0  0
    5.5045    0.0740   -1.9683 H   0  0  0  0  0  0  0  0  0  0  0  0
    5.9134   -1.5908   -1.6088 H   0  0  0  0  0  0  0  0  0  0  0  0
    3.6952   -1.3089   -0.8035 H   0  0  0  0  0  0  0  0  0  0  0  0
    4.8394   -1.6791    0.4634 H   0  0  0  0  0  0  0  0  0  0  0  0
    3.2616    2.0360    0.8967 H   0  0  0  0  0  0  0  0  0  0  0  0
    4.0812    1.9338   -0.6486 H   0  0  0  0  0  0  0  0  0  0  0  0
    1.4541    2.0226   -0.4462 H   0  0  0  0  0  0  0  0  0  0  0  0
    2.2645    1.1174   -1.7122 H   0  0  0  0  0  0  0  0  0  0  0  0
    1.3641   -0.8275   -1.0135 H   0  0  0  0  0  0  0  0  0  0  0  0
    1.7534   -1.8066    1.0172 H   0  0  0  0  0  0  0  0  0  0  0  0
    1.0976   -0.4462    1.9537 H   0  0  0  0  0  0  0  0  0  0  0  0
    3.1260    0.3763    2.4466 H   0  0  0  0  0  0  0  0  0  0  0  0
    3.6953   -1.2389    2.0375 H   0  0  0  0  0  0  0  0  0  0  0  0
   -0.3035   -1.6120    1.0632 H   0  0  0  0  0  0  0  0  0  0  0  0
   -0.9732   -1.5948   -0.5711 H   0  0  0  0  0  0  0  0  0  0  0  0
   -1.9139    0.2345    1.7000 H   0  0  0  0  0  0  0  0  0  0  0  0
   -2.7192   -1.3386    1.2850 H   0  0  0  0  0  0  0  0  0  0  0  0
   -2.9709    1.3126    0.0321 H   0  0  0  0  0  0  0  0  0  0  0  0
   -2.0238   -0.7000   -2.0725 H   0  0  0  0  0  0  0  0  0  0  0  0
   -2.5162    0.9943   -2.1837 H   0  0  0  0  0  0  0  0  0  0  0  0
   -0.7306    1.8684   -1.0978 H   0  0  0  0  0  0  0  0  0  0  0  0
    0.0264    0.5767   -2.1114 H   0  0  0  0  0  0  0  0  0  0  0  0
   -6.3548   -2.4603   -1.4886 H   0  0  0  0  0  0  0  0  0  0  0  0
   -4.7036    1.9178    1.0831 H   0  0  0  0  0  0  0  0  0  0  0  0
   -7.0096    2.5181    1.7760 H   0  0  0  0  0  0  0  0  0  0  0  0
   -8.8650    1.0489    1.0876 H   0  0  0  0  0  0  0  0  0  0  0  0
   -8.4550   -0.9789   -0.2618 H   0  0  0  0  0  0  0  0  0  0  0  0
  1  2  1  0
  2  3  2  0
  2  4  1  0
  4  5  1  0
  5  6  1  0
  6  7  1  0
  7  8  1  0
  8  9  1  0
  9 10  1  0
 10 11  1  0
 11 12  1  0
 10 13  1  0
 13 14  1  0
 14 15  1  0
 15 16  1  0
 16 17  1  0
 17 18  1  0
 16 19  1  0
 19 20  1  0
 20 21  2  0
 20 22  1  0
 22 23  1  0
 23 24  2  0
 24 25  1  0
 25 26  2  0
 26 27  1  0
 27 28  2  0
 12  7  1  0
 18 13  1  0
 24 19  1  0
 28 23  1  0
  1 29  1  0
  1 30  1  0
  5 31  1  0
  5 32  1  0
  6 33  1  0
  6 34  1  0
  8 35  1  0
  8 36  1  0
  9 37  1  0
  9 38  1  0
 10 39  1  0
 11 40  1  0
 11 41  1  0
 12 42  1  0
 12 43  1  0
 14 44  1  0
 14 45  1  0
 15 46  1  0
 15 47  1  0
 16 48  1  0
 17 49  1  0
 17 50  1  0
 18 51  1  0
 18 52  1  0
 22 53  1  0
 25 54  1  0
 26 55  1  0
 27 56  1  0
 28 57  1  0
M  END
>  <Ligand ID>  (1) 
LIG0000875

>  <Ligand>  (1) 
CHEMBL485913

>  <SMILES>  (1) 
NC(=O)OCCN1CCC(CC1)N1CCC(CC1)n1c(=O)[nH]c2c1cccc2

>  <CID>  (1) 
44589681.0

>  <ChEMBL ID>  (1) 
nan

>  <InChiKey>  (1) 
RMXFQZCSLVEMPG-UHFFFAOYSA-N

>  <InChi>  (1) 
InChI=1S/C20H29N5O3/c21-19(26)28-14-13-23-9-5-15(6-10-23)24-11-7-16(8-12-24)25-18-4-2-1-3-17(18)22-20(25)27/h1-4,15-16H,5-14H2,(H2,21,26)(H,22,27)

>  <IUPAC Name>  (1) 
2-[4-[4-(2-oxo-3H-benzimidazol-1-yl)piperidin-1-yl]piperidin-1-yl]ethyl carbamate

$$$$
