
     RDKit          3D

 13 12  0  0  0  0  0  0  0  0999 V2000
    2.2227   -0.2305   -0.4097 C   0  0  0  0  0  0  0  0  0  0  0  0
    0.8792   -0.1651    0.7787 S   0  0  0  0  0  0  0  0  0  0  0  0
   -0.7068    0.2850    0.0417 C   0  0  0  0  0  0  0  0  0  0  0  0
   -1.2871    1.7956    0.8876 S   0  0  0  0  0  0  0  0  0  0  0  0
   -1.6479   -0.8696    0.3252 C   0  0  0  0  0  0  0  0  0  0  0  0
    2.0002    0.4740   -1.2350 H   0  0  0  0  0  0  0  0  0  0  0  0
    2.4002   -1.2532   -0.8260 H   0  0  0  0  0  0  0  0  0  0  0  0
    3.1875    0.1114    0.0436 H   0  0  0  0  0  0  0  0  0  0  0  0
   -0.6033    0.4806   -1.0484 H   0  0  0  0  0  0  0  0  0  0  0  0
   -0.7862    2.9513    0.2719 H   0  0  0  0  0  0  0  0  0  0  0  0
   -2.6366   -0.5555    0.6759 H   0  0  0  0  0  0  0  0  0  0  0  0
   -1.2431   -1.5668    1.1006 H   0  0  0  0  0  0  0  0  0  0  0  0
   -1.7788   -1.4573   -0.6062 H   0  0  0  0  0  0  0  0  0  0  0  0
  1  2  1  0
  2  3  1  0
  3  4  1  0
  3  5  1  0
  1  6  1  0
  1  7  1  0
  1  8  1  0
  3  9  1  0
  4 10  1  0
  5 11  1  0
  5 12  1  0
  5 13  1  0
M  END
>  <Ligand ID>  (1) 
LIG0002086

>  <Ligand>  (1) 
1-methylsulfanylethanethiol

>  <SMILES>  (1) 
CSC(S)C

>  <CID>  (1) 
525462.0

>  <ChEMBL ID>  (1) 
nan

>  <InChiKey>  (1) 
GHIADNFHCKUPJL-UHFFFAOYSA-N

>  <InChi>  (1) 
InChI=1S/C3H8S2/c1-3(4)5-2/h3-4H,1-2H3

>  <IUPAC Name>  (1) 
1-methylsulfanylethanethiol

$$$$
