
     RDKit          3D

 83 88  0  0  0  0  0  0  0  0999 V2000
    2.9132    1.9958    0.4194 O   0  0  0  0  0  0  0  0  0  0  0  0
    3.4348    0.9607   -0.0926 C   0  0  0  0  0  0  0  0  0  0  0  0
    4.8907    0.7604    0.2309 C   0  0  2  0  0  0  0  0  0  0  0  0
    5.3100   -0.4480   -0.4292 N   0  0  0  0  0  0  0  0  0  0  0  0
    5.2590   -1.5464    0.5095 C   0  0  0  0  0  0  0  0  0  0  0  0
    6.3753   -1.2847    1.4807 C   0  0  0  0  0  0  0  0  0  0  0  0
    6.2847   -0.0397    2.1195 C   0  0  0  0  0  0  0  0  0  0  0  0
    5.1106    0.7789    1.7216 C   0  0  0  0  0  0  0  0  0  0  0  0
    7.2289    0.3514    3.0339 C   0  0  0  0  0  0  0  0  0  0  0  0
    8.2590   -0.5298    3.2907 C   0  0  0  0  0  0  0  0  0  0  0  0
    8.3503   -1.7681    2.6566 C   0  0  0  0  0  0  0  0  0  0  0  0
    7.3888   -2.1695    1.7234 C   0  0  0  0  0  0  0  0  0  0  0  0
    2.7101    0.0530   -0.9096 N   0  0  0  0  0  0  0  0  0  0  0  0
    1.3014    0.3785   -1.1338 C   0  0  2  0  0  0  0  0  0  0  0  0
    0.4672   -0.7112   -0.6192 C   0  0  0  0  0  0  0  0  0  0  0  0
    1.0779   -1.7460   -0.1820 O   0  0  0  0  0  0  0  0  0  0  0  0
   -0.9376   -0.7416   -0.5529 N   0  0  0  0  0  0  0  0  0  0  0  0
   -1.5212   -1.9886   -0.0166 C   0  0  0  0  0  0  0  0  0  0  0  0
   -2.5524   -1.6152    0.9834 C   0  0  0  0  0  0  0  0  0  0  0  0
   -3.6070   -0.6799    0.4738 C   0  0  0  0  0  0  0  0  0  0  0  0
   -2.8216    0.5957    0.0629 C   0  0  0  0  0  0  0  0  0  0  0  0
   -1.7836    0.3626   -0.9629 C   0  0  0  0  0  0  0  0  0  0  0  0
   -4.3655   -0.1425    1.6606 C   0  0  0  0  0  0  0  0  0  0  0  0
   -5.0301   -1.1103    2.5156 C   0  0  0  0  0  0  0  0  0  0  0  0
   -5.1235   -2.4503    2.4978 N   0  0  0  0  0  0  0  0  0  0  0  0
   -5.8466   -2.9034    3.4934 N   0  0  0  0  0  0  0  0  0  0  0  0
   -6.2256   -1.8345    4.1645 N   0  0  0  0  0  0  0  0  0  0  0  0
   -5.7604   -0.7460    3.6148 N   0  0  0  0  0  0  0  0  0  0  0  0
   -5.9759    0.6319    4.0822 C   0  0  0  0  0  0  0  0  0  0  0  0
   -4.3987   -1.0966   -0.6907 C   0  0  0  0  0  0  0  0  0  0  0  0
   -5.4581   -0.0422   -1.0641 C   0  0  0  0  0  0  0  0  0  0  0  0
   -6.2489   -0.7136   -2.1983 C   0  0  0  0  0  0  0  0  0  0  0  0
   -7.1274   -1.5842   -1.5991 O   0  0  0  0  0  0  0  0  0  0  0  0
   -6.5511   -2.3935   -0.6255 C   0  0  0  0  0  0  0  0  0  0  0  0
   -5.0209   -2.4213   -0.7571 C   0  0  0  0  0  0  0  0  0  0  0  0
    1.1525    0.6175   -2.6236 C   0  0  0  0  0  0  0  0  0  0  0  0
    2.0096    1.7272   -3.0861 C   0  0  0  0  0  0  0  0  0  0  0  0
    3.2970    1.4446   -3.5135 C   0  0  0  0  0  0  0  0  0  0  0  0
    4.1679    2.4109   -3.9602 C   0  0  0  0  0  0  0  0  0  0  0  0
    3.7258    3.7158   -3.9782 C   0  0  0  0  0  0  0  0  0  0  0  0
    2.4516    4.0622   -3.5646 C   0  0  0  0  0  0  0  0  0  0  0  0
    1.6229    3.0450   -3.1258 C   0  0  0  0  0  0  0  0  0  0  0  0
    4.8201    4.9561   -4.5426 Cl  0  0  0  0  0  0  0  0  0  0  0  0
    5.4341    1.6591   -0.1851 H   0  0  0  0  0  0  0  0  0  0  0  0
    6.3314   -0.2979   -0.6858 H   0  0  0  0  0  0  0  0  0  0  0  0
    5.3598   -2.5355    0.0240 H   0  0  0  0  0  0  0  0  0  0  0  0
    4.3258   -1.5318    1.1292 H   0  0  0  0  0  0  0  0  0  0  0  0
    5.2026    1.8127    2.1160 H   0  0  0  0  0  0  0  0  0  0  0  0
    4.2215    0.2575    2.1917 H   0  0  0  0  0  0  0  0  0  0  0  0
    7.1258    1.3170    3.5068 H   0  0  0  0  0  0  0  0  0  0  0  0
    9.0219   -0.2284    4.0191 H   0  0  0  0  0  0  0  0  0  0  0  0
    9.1764   -2.4567    2.8718 H   0  0  0  0  0  0  0  0  0  0  0  0
    7.4175   -3.1076    1.2128 H   0  0  0  0  0  0  0  0  0  0  0  0
    3.1704   -0.7867   -1.3172 H   0  0  0  0  0  0  0  0  0  0  0  0
    1.0450    1.3144   -0.6135 H   0  0  0  0  0  0  0  0  0  0  0  0
   -1.9093   -2.5123   -0.9093 H   0  0  0  0  0  0  0  0  0  0  0  0
   -0.7740   -2.6127    0.4822 H   0  0  0  0  0  0  0  0  0  0  0  0
   -2.0216   -1.0551    1.7945 H   0  0  0  0  0  0  0  0  0  0  0  0
   -2.9221   -2.5241    1.4674 H   0  0  0  0  0  0  0  0  0  0  0  0
   -2.3057    0.9920    0.9756 H   0  0  0  0  0  0  0  0  0  0  0  0
   -3.5711    1.3657   -0.1942 H   0  0  0  0  0  0  0  0  0  0  0  0
   -2.1436    0.2098   -1.9933 H   0  0  0  0  0  0  0  0  0  0  0  0
   -1.1142    1.2587   -0.9308 H   0  0  0  0  0  0  0  0  0  0  0  0
   -5.0458    0.6914    1.3785 H   0  0  0  0  0  0  0  0  0  0  0  0
   -3.5934    0.3707    2.3148 H   0  0  0  0  0  0  0  0  0  0  0  0
   -5.0412    1.2314    3.8998 H   0  0  0  0  0  0  0  0  0  0  0  0
   -6.2485    0.6148    5.1369 H   0  0  0  0  0  0  0  0  0  0  0  0
   -6.7618    1.0565    3.4249 H   0  0  0  0  0  0  0  0  0  0  0  0
   -3.6989   -1.0231   -1.5912 H   0  0  0  0  0  0  0  0  0  0  0  0
   -6.1725    0.1378   -0.2593 H   0  0  0  0  0  0  0  0  0  0  0  0
   -5.0265    0.8532   -1.5086 H   0  0  0  0  0  0  0  0  0  0  0  0
   -6.8772    0.0485   -2.7308 H   0  0  0  0  0  0  0  0  0  0  0  0
   -5.5757   -1.2521   -2.8990 H   0  0  0  0  0  0  0  0  0  0  0  0
   -6.8807   -3.4263   -0.8649 H   0  0  0  0  0  0  0  0  0  0  0  0
   -6.9005   -2.1845    0.3803 H   0  0  0  0  0  0  0  0  0  0  0  0
   -4.6703   -3.2145   -0.1032 H   0  0  0  0  0  0  0  0  0  0  0  0
   -4.9008   -2.8717   -1.7995 H   0  0  0  0  0  0  0  0  0  0  0  0
    0.1113    0.8302   -2.8862 H   0  0  0  0  0  0  0  0  0  0  0  0
    1.4297   -0.2882   -3.2065 H   0  0  0  0  0  0  0  0  0  0  0  0
    3.6379    0.4291   -3.4974 H   0  0  0  0  0  0  0  0  0  0  0  0
    5.1551    2.1157   -4.2765 H   0  0  0  0  0  0  0  0  0  0  0  0
    2.0959    5.0903   -3.5769 H   0  0  0  0  0  0  0  0  0  0  0  0
    0.6402    3.2939   -2.8043 H   0  0  0  0  0  0  0  0  0  0  0  0
  1  2  2  0
  2  3  1  0
  3  4  1  0
  4  5  1  0
  5  6  1  0
  6  7  2  0
  7  8  1  0
  7  9  1  0
  9 10  2  0
 10 11  1  0
 11 12  2  0
  2 13  1  0
 13 14  1  0
 14 15  1  0
 15 16  2  0
 15 17  1  0
 17 18  1  0
 18 19  1  0
 19 20  1  0
 20 21  1  0
 21 22  1  0
 20 23  1  0
 23 24  1  0
 24 25  2  0
 25 26  1  0
 26 27  2  0
 27 28  1  0
 28 29  1  0
 20 30  1  0
 30 31  1  0
 31 32  1  0
 32 33  1  0
 33 34  1  0
 34 35  1  0
 14 36  1  0
 36 37  1  0
 37 38  2  0
 38 39  1  0
 39 40  2  0
 40 41  1  0
 41 42  2  0
 40 43  1  0
  8  3  1  0
 22 17  1  0
 28 24  1  0
 35 30  1  0
 42 37  1  0
 12  6  1  0
  3 44  1  6
  4 45  1  0
  5 46  1  0
  5 47  1  0
  8 48  1  0
  8 49  1  0
  9 50  1  0
 10 51  1  0
 11 52  1  0
 12 53  1  0
 13 54  1  0
 14 55  1  1
 18 56  1  0
 18 57  1  0
 19 58  1  0
 19 59  1  0
 21 60  1  0
 21 61  1  0
 22 62  1  0
 22 63  1  0
 23 64  1  0
 23 65  1  0
 29 66  1  0
 29 67  1  0
 29 68  1  0
 30 69  1  0
 31 70  1  0
 31 71  1  0
 32 72  1  0
 32 73  1  0
 34 74  1  0
 34 75  1  0
 35 76  1  0
 35 77  1  0
 36 78  1  0
 36 79  1  0
 38 80  1  0
 39 81  1  0
 41 82  1  0
 42 83  1  0
M  END
>  <Ligand ID>  (1) 
LIG0004566

>  <Ligand>  (1) 
CHEMBL399715

>  <SMILES>  (1) 
O=C([C@@H]1NCc2c(C1)cccc2)N[C@H](C(=O)N1CCC(CC1)(Cc1nnnn1C)C1CCOCC1)Cc1ccc(cc1)Cl

>  <CID>  (1) 
44441648.0

>  <ChEMBL ID>  (1) 
nan

>  <InChiKey>  (1) 
GQMIABUSQPZJIB-IZLXSDGUSA-N

>  <InChi>  (1) 
InChI=1S/C32H40ClN7O3/c1-39-29(36-37-38-39)20-32(25-10-16-43-17-11-25)12-14-40(15-13-32)31(42)28(18-22-6-8-26(33)9-7-22)35-30(41)27-19-23-4-2-3-5-24(23)21-34-27/h2-9,25,27-28,34H,10-21H2,1H3,(H,35,41)/t27-,28+/m1/s1

>  <IUPAC Name>  (1) 
(3R)-N-[(2S)-3-(4-chlorophenyl)-1-[4-[(1-methyltetrazol-5-yl)methyl]-4-(oxan-4-yl)piperidin-1-yl]-1-oxopropan-2-yl]-1,2,3,4-tetrahydroisoquinoline-3-carboxamide

$$$$
