
     RDKit          3D

 61 63  0  0  0  0  0  0  0  0999 V2000
   -1.0747   -2.6734    1.0308 C   0  0  0  0  0  0  0  0  0  0  0  0
   -1.3208   -1.2343    0.6561 C   0  0  0  0  0  0  0  0  0  0  0  0
   -0.2901   -0.2924    0.8302 C   0  0  0  0  0  0  0  0  0  0  0  0
    0.8745   -0.7572    1.3359 O   0  0  0  0  0  0  0  0  0  0  0  0
    2.0556   -0.0952    1.5952 C   0  0  0  0  0  0  0  0  0  0  0  0
    2.6780    0.4201    0.3277 C   0  0  0  0  0  0  0  0  0  0  0  0
    2.9346   -0.8233   -0.5432 C   0  0  0  0  0  0  0  0  0  0  0  0
    3.5614   -0.4188   -1.8472 C   0  0  0  0  0  0  0  0  0  0  0  0
    4.7538    0.2188   -1.6642 O   0  0  0  0  0  0  0  0  0  0  0  0
    5.9554   -0.1023   -1.1509 C   0  0  0  0  0  0  0  0  0  0  0  0
    6.3559   -1.3065   -0.6279 C   0  0  0  0  0  0  0  0  0  0  0  0
    7.6246   -1.5365   -0.1175 C   0  0  0  0  0  0  0  0  0  0  0  0
    8.5440   -0.5166   -0.1279 C   0  0  0  0  0  0  0  0  0  0  0  0
    8.1921    0.7104   -0.6422 C   0  0  0  0  0  0  0  0  0  0  0  0
    6.9307    0.9118   -1.1406 C   0  0  0  0  0  0  0  0  0  0  0  0
    9.1741    1.7982   -0.6533 C   0  0  0  0  0  0  0  0  0  0  0  0
    8.8988    2.9385   -1.1125 O   0  0  0  0  0  0  0  0  0  0  0  0
   10.4487    1.5919   -0.1500 O   0  0  0  0  0  0  0  0  0  0  0  0
    9.7682   -0.7759    0.3766 F   0  0  0  0  0  0  0  0  0  0  0  0
   -0.6007    0.9903    0.4653 C   0  0  0  0  0  0  0  0  0  0  0  0
   -1.8435    1.3450   -0.0434 C   0  0  0  0  0  0  0  0  0  0  0  0
   -2.8566    0.3950   -0.2105 C   0  0  0  0  0  0  0  0  0  0  0  0
   -2.5529   -0.8831    0.1524 C   0  0  0  0  0  0  0  0  0  0  0  0
   -3.4979   -1.8605    0.0165 O   0  0  0  0  0  0  0  0  0  0  0  0
   -4.1226    0.8451   -0.7535 C   0  0  0  0  0  0  0  0  0  0  0  0
   -4.2771    2.0862   -1.0384 O   0  0  0  0  0  0  0  0  0  0  0  0
   -5.2919   -0.0154   -1.0199 C   0  0  0  0  0  0  0  0  0  0  0  0
   -6.2015   -0.1170    0.1977 C   0  0  0  0  0  0  0  0  0  0  0  0
   -6.6833    1.2651    0.5520 C   0  0  0  0  0  0  0  0  0  0  0  0
   -7.9305    0.9585    1.3747 C   0  0  0  0  0  0  0  0  0  0  0  0
   -8.5890   -0.1236    0.5658 C   0  0  0  0  0  0  0  0  0  0  0  0
   -7.4679   -0.8633   -0.1337 C   0  0  0  0  0  0  0  0  0  0  0  0
   -1.9876   -3.1834    1.3421 H   0  0  0  0  0  0  0  0  0  0  0  0
   -0.2568   -2.7620    1.7730 H   0  0  0  0  0  0  0  0  0  0  0  0
   -0.7262   -3.1619    0.0891 H   0  0  0  0  0  0  0  0  0  0  0  0
    2.7865   -0.8483    2.0039 H   0  0  0  0  0  0  0  0  0  0  0  0
    1.9434    0.7189    2.3566 H   0  0  0  0  0  0  0  0  0  0  0  0
    2.0967    1.1322   -0.2284 H   0  0  0  0  0  0  0  0  0  0  0  0
    3.6630    0.9137    0.5400 H   0  0  0  0  0  0  0  0  0  0  0  0
    3.5858   -1.4747    0.0085 H   0  0  0  0  0  0  0  0  0  0  0  0
    1.9371   -1.3019   -0.6865 H   0  0  0  0  0  0  0  0  0  0  0  0
    3.6285   -1.3026   -2.5279 H   0  0  0  0  0  0  0  0  0  0  0  0
    2.8096    0.2925   -2.3181 H   0  0  0  0  0  0  0  0  0  0  0  0
    5.6833   -2.1436   -0.6078 H   0  0  0  0  0  0  0  0  0  0  0  0
    7.8881   -2.4998    0.2819 H   0  0  0  0  0  0  0  0  0  0  0  0
    6.7128    1.9018   -1.5330 H   0  0  0  0  0  0  0  0  0  0  0  0
   11.2616    2.1208   -0.4404 H   0  0  0  0  0  0  0  0  0  0  0  0
    0.1046    1.7944    0.5766 H   0  0  0  0  0  0  0  0  0  0  0  0
   -2.0305    2.3937   -0.3191 H   0  0  0  0  0  0  0  0  0  0  0  0
   -3.8508   -2.4426    0.7614 H   0  0  0  0  0  0  0  0  0  0  0  0
   -5.0827   -1.0216   -1.3702 H   0  0  0  0  0  0  0  0  0  0  0  0
   -5.9470    0.4462   -1.8097 H   0  0  0  0  0  0  0  0  0  0  0  0
   -5.7033   -0.5952    1.0637 H   0  0  0  0  0  0  0  0  0  0  0  0
   -5.9492    1.8652    1.0972 H   0  0  0  0  0  0  0  0  0  0  0  0
   -7.0530    1.7490   -0.3737 H   0  0  0  0  0  0  0  0  0  0  0  0
   -7.6374    0.5778    2.3655 H   0  0  0  0  0  0  0  0  0  0  0  0
   -8.5601    1.8634    1.3888 H   0  0  0  0  0  0  0  0  0  0  0  0
   -9.1899   -0.7904    1.2187 H   0  0  0  0  0  0  0  0  0  0  0  0
   -9.2558    0.3443   -0.1656 H   0  0  0  0  0  0  0  0  0  0  0  0
   -7.5837   -0.8198   -1.2359 H   0  0  0  0  0  0  0  0  0  0  0  0
   -7.4365   -1.9121    0.2491 H   0  0  0  0  0  0  0  0  0  0  0  0
  1  2  1  0
  2  3  2  0
  3  4  1  0
  4  5  1  0
  5  6  1  0
  6  7  1  0
  7  8  1  0
  8  9  1  0
  9 10  1  0
 10 11  2  0
 11 12  1  0
 12 13  2  0
 13 14  1  0
 14 15  2  0
 14 16  1  0
 16 17  2  0
 16 18  1  0
 13 19  1  0
  3 20  1  0
 20 21  2  0
 21 22  1  0
 22 23  2  0
 23 24  1  0
 22 25  1  0
 25 26  2  0
 25 27  1  0
 27 28  1  0
 28 29  1  0
 29 30  1  0
 30 31  1  0
 31 32  1  0
 23  2  1  0
 32 28  1  0
 15 10  1  0
  1 33  1  0
  1 34  1  0
  1 35  1  0
  5 36  1  0
  5 37  1  0
  6 38  1  0
  6 39  1  0
  7 40  1  0
  7 41  1  0
  8 42  1  0
  8 43  1  0
 11 44  1  0
 12 45  1  0
 15 46  1  0
 18 47  1  0
 20 48  1  0
 21 49  1  0
 24 50  1  0
 27 51  1  0
 27 52  1  0
 28 53  1  0
 29 54  1  0
 29 55  1  0
 30 56  1  0
 30 57  1  0
 31 58  1  0
 31 59  1  0
 32 60  1  0
 32 61  1  0
M  END
>  <Ligand ID>  (1) 
LIG0003651

>  <Ligand>  (1) 
CHEMBL3287688

>  <SMILES>  (1) 
Cc1c(OCCCCOc2ccc(c(c2)C(=O)O)F)ccc(c1O)C(=O)CC1CCCC1

>  <CID>  (1) 
90643866.0

>  <ChEMBL ID>  (1) 
nan

>  <InChiKey>  (1) 
ZDFSALGWQWSKTM-UHFFFAOYSA-N

>  <InChi>  (1) 
InChI=1S/C25H29FO6/c1-16-23(11-9-19(24(16)28)22(27)14-17-6-2-3-7-17)32-13-5-4-12-31-18-8-10-21(26)20(15-18)25(29)30/h8-11,15,17,28H,2-7,12-14H2,1H3,(H,29,30)

>  <IUPAC Name>  (1) 
5-[4-[4-(2-cyclopentylacetyl)-3-hydroxy-2-methylphenoxy]butoxy]-2-fluorobenzoic acid

$$$$
