
     RDKit          3D

 32 33  0  0  0  0  0  0  0  0999 V2000
   -3.9383    0.0444    1.9666 N   0  0  0  0  0  0  0  0  0  0  0  0
   -4.3680    0.9365    0.9244 C   0  0  0  0  0  0  0  0  0  0  0  0
   -4.0347    0.4502   -0.4509 C   0  0  0  0  0  0  0  0  0  0  0  0
   -2.6056    0.2535   -0.7069 C   0  0  0  0  0  0  0  0  0  0  0  0
   -1.7538    1.2192   -1.2033 C   0  0  0  0  0  0  0  0  0  0  0  0
   -0.4090    0.9865   -1.4291 C   0  0  0  0  0  0  0  0  0  0  0  0
    0.8471    2.4935   -2.1874 I   0  0  0  0  0  0  0  0  0  0  0  0
    0.1399   -0.2526   -1.1580 C   0  0  0  0  0  0  0  0  0  0  0  0
   -0.7033   -1.2371   -0.6576 C   0  0  0  0  0  0  0  0  0  0  0  0
   -2.0424   -0.9940   -0.4364 C   0  0  0  0  0  0  0  0  0  0  0  0
    0.0755   -3.1430   -0.2261 I   0  0  0  0  0  0  0  0  0  0  0  0
    1.4585   -0.5737   -1.3500 O   0  0  0  0  0  0  0  0  0  0  0  0
    2.4681   -0.4362   -0.4323 C   0  0  0  0  0  0  0  0  0  0  0  0
    2.3362    0.0458    0.8370 C   0  0  0  0  0  0  0  0  0  0  0  0
    3.4272    0.1478    1.6994 C   0  0  0  0  0  0  0  0  0  0  0  0
    4.6890   -0.2403    1.2908 C   0  0  0  0  0  0  0  0  0  0  0  0
    4.8380   -0.7337   -0.0008 C   0  0  0  0  0  0  0  0  0  0  0  0
    3.7451   -0.8268   -0.8397 C   0  0  0  0  0  0  0  0  0  0  0  0
    6.7177   -1.3574   -0.7359 I   0  0  0  0  0  0  0  0  0  0  0  0
    5.7993   -0.1549    2.1173 O   0  0  0  0  0  0  0  0  0  0  0  0
   -4.2274   -0.9150    1.7089 H   0  0  0  0  0  0  0  0  0  0  0  0
   -4.3268    0.3844    2.8647 H   0  0  0  0  0  0  0  0  0  0  0  0
   -4.0323    1.9701    1.0571 H   0  0  0  0  0  0  0  0  0  0  0  0
   -5.4899    0.9440    0.9820 H   0  0  0  0  0  0  0  0  0  0  0  0
   -4.5506   -0.5176   -0.6438 H   0  0  0  0  0  0  0  0  0  0  0  0
   -4.3996    1.2450   -1.1569 H   0  0  0  0  0  0  0  0  0  0  0  0
   -2.2004    2.1860   -1.4106 H   0  0  0  0  0  0  0  0  0  0  0  0
   -2.6535   -1.8117   -0.0406 H   0  0  0  0  0  0  0  0  0  0  0  0
    1.3412    0.3544    1.1661 H   0  0  0  0  0  0  0  0  0  0  0  0
    3.2929    0.5375    2.7107 H   0  0  0  0  0  0  0  0  0  0  0  0
    3.8922   -1.2202   -1.8545 H   0  0  0  0  0  0  0  0  0  0  0  0
    6.6677    0.2154    1.7512 H   0  0  0  0  0  0  0  0  0  0  0  0
  1  2  1  0
  2  3  1  0
  3  4  1  0
  4  5  2  0
  5  6  1  0
  6  7  1  0
  6  8  2  0
  8  9  1  0
  9 10  2  0
  9 11  1  0
  8 12  1  0
 12 13  1  0
 13 14  2  0
 14 15  1  0
 15 16  2  0
 16 17  1  0
 17 18  2  0
 17 19  1  0
 16 20  1  0
 10  4  1  0
 18 13  1  0
  1 21  1  0
  1 22  1  0
  2 23  1  0
  2 24  1  0
  3 25  1  0
  3 26  1  0
  5 27  1  0
 10 28  1  0
 14 29  1  0
 15 30  1  0
 18 31  1  0
 20 32  1  0
M  END
>  <Ligand ID>  (1) 
LIG0005796

>  <Ligand>  (1) 
3,3',5-Triiodothyronamine

>  <SMILES>  (1) 
NCCc1cc(I)c(c(c1)I)Oc1ccc(c(c1)I)O

>  <CID>  (1) 
165262.0

>  <ChEMBL ID>  (1) 
nan

>  <InChiKey>  (1) 
KIXGKGGCXPSNDX-UHFFFAOYSA-N

>  <InChi>  (1) 
InChI=1S/C14H12I3NO2/c15-10-7-9(1-2-13(10)19)20-14-11(16)5-8(3-4-18)6-12(14)17/h1-2,5-7,19H,3-4,18H2

>  <IUPAC Name>  (1) 
4-[4-(2-aminoethyl)-2,6-diiodophenoxy]-2-iodophenol

$$$$
