
     RDKit          3D

 60 64  0  0  0  0  0  0  0  0999 V2000
    6.5516   -2.3998   -0.8538 N   0  0  0  0  0  0  0  0  0  0  0  0
    6.4240   -1.2536   -0.7496 C   0  0  0  0  0  0  0  0  0  0  0  0
    6.2558    0.1844   -0.6401 C   0  0  0  0  0  0  0  0  0  0  0  0
    7.3472    0.8964   -0.1917 C   0  0  0  0  0  0  0  0  0  0  0  0
    7.2288    2.2486   -0.0751 C   0  0  0  0  0  0  0  0  0  0  0  0
    6.0412    2.8663   -0.4022 C   0  0  0  0  0  0  0  0  0  0  0  0
    4.9326    2.1784   -0.8537 C   0  0  0  0  0  0  0  0  0  0  0  0
    5.0619    0.7994   -0.9696 C   0  0  0  0  0  0  0  0  0  0  0  0
    3.9418   -0.0564   -1.4433 C   0  0  0  0  0  0  0  0  0  0  0  0
    3.3191   -0.7718   -0.3458 N   0  0  0  0  0  0  0  0  0  0  0  0
    2.8207    0.2180    0.5901 C   0  0  0  0  0  0  0  0  0  0  0  0
    1.9206   -0.3609    1.6277 C   0  0  0  0  0  0  0  0  0  0  0  0
    0.8457   -1.2804    1.0881 C   0  0  0  0  0  0  0  0  0  0  0  0
    1.5752   -2.3059    0.2315 C   0  0  0  0  0  0  0  0  0  0  0  0
    2.2179   -1.5480   -0.9111 C   0  0  0  0  0  0  0  0  0  0  0  0
   -0.1341   -0.6198    0.3127 N   0  0  0  0  0  0  0  0  0  0  0  0
   -1.1910   -1.5324   -0.0508 C   0  0  0  0  0  0  0  0  0  0  0  0
   -2.4805   -1.2118    0.7083 C   0  0  0  0  0  0  0  0  0  0  0  0
   -2.9642    0.1515    0.3588 C   0  0  0  0  0  0  0  0  0  0  0  0
   -1.8128    0.9825   -0.1361 C   0  0  0  0  0  0  0  0  0  0  0  0
   -0.6386    0.6211    0.7907 C   0  0  0  0  0  0  0  0  0  0  0  0
   -4.1091    0.1481   -0.5241 N   0  0  0  0  0  0  0  0  0  0  0  0
   -4.1864    0.0491   -1.8555 C   0  0  0  0  0  0  0  0  0  0  0  0
   -3.2189   -0.0658   -2.6260 O   0  0  0  0  0  0  0  0  0  0  0  0
   -5.4679    0.0899   -2.2701 N   0  0  0  0  0  0  0  0  0  0  0  0
   -6.2528    0.2187   -1.1870 C   0  0  0  0  0  0  0  0  0  0  0  0
   -5.4069    0.2541   -0.1134 C   0  0  0  0  0  0  0  0  0  0  0  0
   -5.8993    0.3835    1.1886 C   0  0  0  0  0  0  0  0  0  0  0  0
   -7.2449    0.4794    1.4383 C   0  0  0  0  0  0  0  0  0  0  0  0
   -8.0980    0.4444    0.3644 C   0  0  0  0  0  0  0  0  0  0  0  0
   -7.6052    0.3151   -0.9364 C   0  0  0  0  0  0  0  0  0  0  0  0
    8.2973    0.4243    0.0725 H   0  0  0  0  0  0  0  0  0  0  0  0
    8.0674    2.8215    0.2724 H   0  0  0  0  0  0  0  0  0  0  0  0
    5.9851    3.9519   -0.2960 H   0  0  0  0  0  0  0  0  0  0  0  0
    3.9958    2.6690   -1.1116 H   0  0  0  0  0  0  0  0  0  0  0  0
    4.3859   -0.7672   -2.1911 H   0  0  0  0  0  0  0  0  0  0  0  0
    3.2100    0.5588   -2.0104 H   0  0  0  0  0  0  0  0  0  0  0  0
    3.7114    0.6235    1.1142 H   0  0  0  0  0  0  0  0  0  0  0  0
    2.3772    1.0788    0.0564 H   0  0  0  0  0  0  0  0  0  0  0  0
    2.5485   -0.9785    2.3115 H   0  0  0  0  0  0  0  0  0  0  0  0
    1.5338    0.4560    2.2399 H   0  0  0  0  0  0  0  0  0  0  0  0
    0.4060   -1.8124    1.9465 H   0  0  0  0  0  0  0  0  0  0  0  0
    2.3394   -2.8502    0.8335 H   0  0  0  0  0  0  0  0  0  0  0  0
    0.9232   -3.0702   -0.1998 H   0  0  0  0  0  0  0  0  0  0  0  0
    1.4741   -0.8328   -1.2934 H   0  0  0  0  0  0  0  0  0  0  0  0
    2.6579   -2.2138   -1.6706 H   0  0  0  0  0  0  0  0  0  0  0  0
   -1.3521   -1.6254   -1.1397 H   0  0  0  0  0  0  0  0  0  0  0  0
   -0.9366   -2.5734    0.3080 H   0  0  0  0  0  0  0  0  0  0  0  0
   -2.2173   -1.3270    1.7859 H   0  0  0  0  0  0  0  0  0  0  0  0
   -3.1865   -2.0240    0.4279 H   0  0  0  0  0  0  0  0  0  0  0  0
   -3.2770    0.6407    1.3318 H   0  0  0  0  0  0  0  0  0  0  0  0
   -1.5545    0.7918   -1.2010 H   0  0  0  0  0  0  0  0  0  0  0  0
   -2.0125    2.0740   -0.0795 H   0  0  0  0  0  0  0  0  0  0  0  0
    0.0918    1.4349    0.6862 H   0  0  0  0  0  0  0  0  0  0  0  0
   -1.0845    0.5872    1.8169 H   0  0  0  0  0  0  0  0  0  0  0  0
   -5.8490    0.0364   -3.2387 H   0  0  0  0  0  0  0  0  0  0  0  0
   -5.2289    0.4127    2.0499 H   0  0  0  0  0  0  0  0  0  0  0  0
   -7.6262    0.5799    2.4463 H   0  0  0  0  0  0  0  0  0  0  0  0
   -9.1595    0.5213    0.5703 H   0  0  0  0  0  0  0  0  0  0  0  0
   -8.2936    0.2899   -1.7621 H   0  0  0  0  0  0  0  0  0  0  0  0
  1  2  3  0
  2  3  1  0
  3  4  2  0
  4  5  1  0
  5  6  2  0
  6  7  1  0
  7  8  2  0
  8  9  1  0
  9 10  1  0
 10 11  1  0
 11 12  1  0
 12 13  1  0
 13 14  1  0
 14 15  1  0
 13 16  1  0
 16 17  1  0
 17 18  1  0
 18 19  1  0
 19 20  1  0
 20 21  1  0
 19 22  1  0
 22 23  1  0
 23 24  2  0
 23 25  1  0
 25 26  1  0
 26 27  2  0
 27 28  1  0
 28 29  2  0
 29 30  1  0
 30 31  2  0
  8  3  1  0
 15 10  1  0
 21 16  1  0
 27 22  1  0
 31 26  1  0
  4 32  1  0
  5 33  1  0
  6 34  1  0
  7 35  1  0
  9 36  1  0
  9 37  1  0
 11 38  1  0
 11 39  1  0
 12 40  1  0
 12 41  1  0
 13 42  1  0
 14 43  1  0
 14 44  1  0
 15 45  1  0
 15 46  1  0
 17 47  1  0
 17 48  1  0
 18 49  1  0
 18 50  1  0
 19 51  1  0
 20 52  1  0
 20 53  1  0
 21 54  1  0
 21 55  1  0
 25 56  1  0
 28 57  1  0
 29 58  1  0
 30 59  1  0
 31 60  1  0
M  END
>  <Ligand ID>  (1) 
LIG0000873

>  <Ligand>  (1) 
CHEMBL476990

>  <SMILES>  (1) 
N#Cc1ccccc1CN1CCC(CC1)N1CCC(CC1)n1c(=O)[nH]c2c1cccc2

>  <CID>  (1) 
44578978.0

>  <ChEMBL ID>  (1) 
nan

>  <InChiKey>  (1) 
WRCIAIDMFLNHQO-UHFFFAOYSA-N

>  <InChi>  (1) 
InChI=1S/C25H29N5O/c26-17-19-5-1-2-6-20(19)18-28-13-9-21(10-14-28)29-15-11-22(12-16-29)30-24-8-4-3-7-23(24)27-25(30)31/h1-8,21-22H,9-16,18H2,(H,27,31)

>  <IUPAC Name>  (1) 
2-[[4-[4-(2-oxo-3H-benzimidazol-1-yl)piperidin-1-yl]piperidin-1-yl]methyl]benzonitrile

$$$$
