
     RDKit          3D

 45 45  0  0  0  0  0  0  0  0999 V2000
    3.3916    1.9921    1.4539 O   0  0  0  0  0  0  0  0  0  0  0  0
    2.5747    1.4288    0.6887 C   0  0  0  0  0  0  0  0  0  0  0  0
    2.3657   -0.0430    0.6345 C   0  0  0  0  0  0  0  0  0  0  0  0
    2.7868   -0.7438   -0.6171 C   0  0  0  0  0  0  0  0  0  0  0  0
    2.1819   -2.1625   -0.5052 C   0  0  0  0  0  0  0  0  0  0  0  0
    0.6605   -2.0545   -0.6723 C   0  0  0  0  0  0  0  0  0  0  0  0
   -0.0530   -3.2855   -0.2967 C   0  0  0  0  0  0  0  0  0  0  0  0
   -1.5346   -3.3020   -0.3213 C   0  0  0  0  0  0  0  0  0  0  0  0
   -2.2518   -2.4636    0.6894 C   0  0  0  0  0  0  0  0  0  0  0  0
   -2.0288   -1.0096    0.6446 C   0  0  0  0  0  0  0  0  0  0  0  0
   -2.4357   -0.3426   -0.6681 C   0  0  0  0  0  0  0  0  0  0  0  0
   -1.8160    1.0037   -0.8089 C   0  0  0  0  0  0  0  0  0  0  0  0
   -2.1305    1.9644    0.3147 C   0  0  0  0  0  0  0  0  0  0  0  0
   -1.1335    3.1249    0.1482 C   0  0  0  0  0  0  0  0  0  0  0  0
   -1.2847    3.9826   -0.7398 O   0  0  0  0  0  0  0  0  0  0  0  0
   -0.1047    3.0925    1.0307 O   0  0  0  0  0  0  0  0  0  0  0  0
    1.0358    3.9468    1.0995 C   0  0  0  0  0  0  0  0  0  0  0  0
    1.6859    3.5696   -0.3087 C   0  0  0  0  0  0  0  0  0  0  0  0
    1.8140    2.1829   -0.1404 O   0  0  0  0  0  0  0  0  0  0  0  0
    2.9616   -0.4821    1.5265 H   0  0  0  0  0  0  0  0  0  0  0  0
    1.3410   -0.3297    0.9035 H   0  0  0  0  0  0  0  0  0  0  0  0
    3.8689   -0.8572   -0.7547 H   0  0  0  0  0  0  0  0  0  0  0  0
    2.3128   -0.2261   -1.4705 H   0  0  0  0  0  0  0  0  0  0  0  0
    2.6102   -2.8531   -1.2432 H   0  0  0  0  0  0  0  0  0  0  0  0
    2.3933   -2.5356    0.5036 H   0  0  0  0  0  0  0  0  0  0  0  0
    0.3098   -1.0888   -0.3948 H   0  0  0  0  0  0  0  0  0  0  0  0
    0.4987   -2.0156   -1.8508 H   0  0  0  0  0  0  0  0  0  0  0  0
    0.3671   -4.1225   -0.9446 H   0  0  0  0  0  0  0  0  0  0  0  0
    0.2715   -3.5648    0.7621 H   0  0  0  0  0  0  0  0  0  0  0  0
   -1.8377   -4.3792   -0.1098 H   0  0  0  0  0  0  0  0  0  0  0  0
   -1.9401   -3.0523   -1.3514 H   0  0  0  0  0  0  0  0  0  0  0  0
   -1.9484   -2.8165    1.7312 H   0  0  0  0  0  0  0  0  0  0  0  0
   -3.3629   -2.6785    0.5766 H   0  0  0  0  0  0  0  0  0  0  0  0
   -1.1319   -0.5970    1.0633 H   0  0  0  0  0  0  0  0  0  0  0  0
   -2.8306   -0.6041    1.4190 H   0  0  0  0  0  0  0  0  0  0  0  0
   -2.1808   -1.0428   -1.4792 H   0  0  0  0  0  0  0  0  0  0  0  0
   -3.5624   -0.2667   -0.6678 H   0  0  0  0  0  0  0  0  0  0  0  0
   -0.7298    0.9369   -1.0080 H   0  0  0  0  0  0  0  0  0  0  0  0
   -2.2229    1.4259   -1.7888 H   0  0  0  0  0  0  0  0  0  0  0  0
   -1.9911    1.4629    1.2760 H   0  0  0  0  0  0  0  0  0  0  0  0
   -3.1237    2.3562    0.1880 H   0  0  0  0  0  0  0  0  0  0  0  0
    1.7065    3.5217    1.8485 H   0  0  0  0  0  0  0  0  0  0  0  0
    0.8303    4.9988    1.1433 H   0  0  0  0  0  0  0  0  0  0  0  0
    2.6501    4.0603   -0.4051 H   0  0  0  0  0  0  0  0  0  0  0  0
    1.0168    3.8687   -1.0990 H   0  0  0  0  0  0  0  0  0  0  0  0
  1  2  2  0
  2  3  1  0
  3  4  1  0
  4  5  1  0
  5  6  1  0
  6  7  1  0
  7  8  1  0
  8  9  1  0
  9 10  1  0
 10 11  1  0
 11 12  1  0
 12 13  1  0
 13 14  1  0
 14 15  2  0
 14 16  1  0
 16 17  1  0
 17 18  1  0
 18 19  1  0
 19  2  1  0
  3 20  1  0
  3 21  1  0
  4 22  1  0
  4 23  1  0
  5 24  1  0
  5 25  1  0
  6 26  1  0
  6 27  1  0
  7 28  1  0
  7 29  1  0
  8 30  1  0
  8 31  1  0
  9 32  1  0
  9 33  1  0
 10 34  1  0
 10 35  1  0
 11 36  1  0
 11 37  1  0
 12 38  1  0
 12 39  1  0
 13 40  1  0
 13 41  1  0
 17 42  1  0
 17 43  1  0
 18 44  1  0
 18 45  1  0
M  END
>  <Ligand ID>  (1) 
LIG0000040

>  <Ligand>  (1) 
ethylene brassylate

>  <SMILES>  (1) 
O=C1CCCCCCCCCCCC(=O)OCCO1

>  <CID>  (1) 
61014.0

>  <ChEMBL ID>  (1) 
nan

>  <InChiKey>  (1) 
XRHCAGNSDHCHFJ-UHFFFAOYSA-N

>  <InChi>  (1) 
InChI=1S/C15H26O4/c16-14-10-8-6-4-2-1-3-5-7-9-11-15(17)19-13-12-18-14/h1-13H2

>  <IUPAC Name>  (1) 
1,4-dioxacycloheptadecane-5,17-dione

$$$$
