
     RDKit          3D

 26 25  0  0  0  0  0  0  0  0999 V2000
    4.3674    0.5529   -0.0565 C   0  0  0  0  0  0  0  0  0  0  0  0
    3.1862   -0.0496   -0.8279 C   0  0  0  0  0  0  0  0  0  0  0  0
    2.1924   -0.6159    0.1255 C   0  0  0  0  0  0  0  0  0  0  0  0
    0.9338   -0.1889    0.1852 C   0  0  0  0  0  0  0  0  0  0  0  0
   -0.0303   -0.7623    1.1343 C   0  0  0  0  0  0  0  0  0  0  0  0
   -1.2395   -1.3948    0.4988 C   0  0  0  0  0  0  0  0  0  0  0  0
   -1.9608   -0.3492   -0.2931 C   0  0  0  0  0  0  0  0  0  0  0  0
   -3.2183   -0.0047   -0.0377 C   0  0  0  0  0  0  0  0  0  0  0  0
   -3.9524    1.0338   -0.8154 C   0  0  0  0  0  0  0  0  0  0  0  0
   -3.0556    1.5089   -1.7950 O   0  0  0  0  0  0  0  0  0  0  0  0
    4.0957    1.6178    0.0855 H   0  0  0  0  0  0  0  0  0  0  0  0
    5.3285    0.3776   -0.5383 H   0  0  0  0  0  0  0  0  0  0  0  0
    4.3374    0.0947    0.9754 H   0  0  0  0  0  0  0  0  0  0  0  0
    2.7261    0.7178   -1.4752 H   0  0  0  0  0  0  0  0  0  0  0  0
    3.5590   -0.8928   -1.4566 H   0  0  0  0  0  0  0  0  0  0  0  0
    2.5398   -1.4130    0.7903 H   0  0  0  0  0  0  0  0  0  0  0  0
    0.5905    0.6009   -0.4739 H   0  0  0  0  0  0  0  0  0  0  0  0
    0.4100   -1.4677    1.8515 H   0  0  0  0  0  0  0  0  0  0  0  0
   -0.4212    0.0898    1.7565 H   0  0  0  0  0  0  0  0  0  0  0  0
   -1.9136   -1.6851    1.3324 H   0  0  0  0  0  0  0  0  0  0  0  0
   -0.9739   -2.2433   -0.1467 H   0  0  0  0  0  0  0  0  0  0  0  0
   -1.4748    0.1679   -1.1114 H   0  0  0  0  0  0  0  0  0  0  0  0
   -3.7450   -0.4988    0.7756 H   0  0  0  0  0  0  0  0  0  0  0  0
   -4.8008    0.5032   -1.2997 H   0  0  0  0  0  0  0  0  0  0  0  0
   -4.2703    1.8164   -0.1165 H   0  0  0  0  0  0  0  0  0  0  0  0
   -3.2103    2.4843   -1.8788 H   0  0  0  0  0  0  0  0  0  0  0  0
  1  2  1  0
  2  3  1  0
  3  4  2  0
  4  5  1  0
  5  6  1  0
  6  7  1  0
  7  8  2  0
  8  9  1  0
  9 10  1  0
  1 11  1  0
  1 12  1  0
  1 13  1  0
  2 14  1  0
  2 15  1  0
  3 16  1  0
  4 17  1  0
  5 18  1  0
  5 19  1  0
  6 20  1  0
  6 21  1  0
  7 22  1  0
  8 23  1  0
  9 24  1  0
  9 25  1  0
 10 26  1  0
M  END
>  <Ligand ID>  (1) 
LIG0005000

>  <Ligand>  (1) 
Cucumber alcohol

>  <SMILES>  (1) 
CC/C=C/CC/C=C/CO

>  <CID>  (1) 
5320191.0

>  <ChEMBL ID>  (1) 
nan

>  <InChiKey>  (1) 
AMXYRHBJZOVHOL-DYWGDJMRSA-N

>  <InChi>  (1) 
InChI=1S/C9H16O/c1-2-3-4-5-6-7-8-9-10/h3-4,7-8,10H,2,5-6,9H2,1H3/b4-3+,8-7+

>  <IUPAC Name>  (1) 
(2E,6E)-nona-2,6-dien-1-ol

$$$$
