
     RDKit          3D

 46 47  0  0  0  0  0  0  0  0999 V2000
   -0.9881   -0.4381    0.0488 O   0  0  0  0  0  0  0  0  0  0  0  0
   -0.9609    0.4349   -0.8404 C   0  0  0  0  0  0  0  0  0  0  0  0
   -1.9760    0.6881   -1.8648 C   0  0  0  0  0  0  0  0  0  0  0  0
   -3.1905   -0.1940   -1.8309 C   0  0  0  0  0  0  0  0  0  0  0  0
   -3.9549   -0.1140   -0.5801 C   0  0  0  0  0  0  0  0  0  0  0  0
   -4.8536    0.9428   -0.4057 C   0  0  0  0  0  0  0  0  0  0  0  0
   -5.6157    1.0738    0.7294 C   0  0  0  0  0  0  0  0  0  0  0  0
   -5.5212    0.1448    1.7663 C   0  0  0  0  0  0  0  0  0  0  0  0
   -4.6518   -0.8893    1.6121 C   0  0  0  0  0  0  0  0  0  0  0  0
   -3.8823   -1.0144    0.4560 C   0  0  0  0  0  0  0  0  0  0  0  0
   -2.8801   -1.5789   -2.2924 C   0  0  0  0  0  0  0  0  0  0  0  0
    0.2033    1.2854   -0.8542 N   0  0  0  0  0  0  0  0  0  0  0  0
    1.2161    1.0715    0.1275 C   0  0  0  0  0  0  0  0  0  0  0  0
    1.1194    0.1575    1.0073 N   0  0  0  0  0  0  0  0  0  0  0  0
    2.1022   -0.1269    2.0401 C   0  0  0  0  0  0  0  0  0  0  0  0
    2.7590   -1.4346    1.6885 C   0  0  0  0  0  0  0  0  0  0  0  0
    3.4484   -1.3760    0.3666 C   0  0  0  0  0  0  0  0  0  0  0  0
    4.5917   -0.4600    0.2746 C   0  0  0  0  0  0  0  0  0  0  0  0
    5.2595   -0.2641   -0.9490 C   0  0  0  0  0  0  0  0  0  0  0  0
    6.2311    0.6327   -0.7310 N   0  0  0  0  0  0  0  0  0  0  0  0
    6.2242    1.0201    0.5550 C   0  0  0  0  0  0  0  0  0  0  0  0
    5.2069    0.3328    1.1513 N   0  0  0  0  0  0  0  0  0  0  0  0
    2.3531    1.9555    0.0583 N   0  0  0  0  0  0  0  0  0  0  0  0
   -2.2578    1.7569   -1.9530 H   0  0  0  0  0  0  0  0  0  0  0  0
   -1.4809    0.4618   -2.8568 H   0  0  0  0  0  0  0  0  0  0  0  0
   -3.8607    0.2741   -2.6371 H   0  0  0  0  0  0  0  0  0  0  0  0
   -4.9555    1.6923   -1.1984 H   0  0  0  0  0  0  0  0  0  0  0  0
   -6.3002    1.9246    0.8030 H   0  0  0  0  0  0  0  0  0  0  0  0
   -6.1398    0.2935    2.6335 H   0  0  0  0  0  0  0  0  0  0  0  0
   -4.5700   -1.6269    2.4239 H   0  0  0  0  0  0  0  0  0  0  0  0
   -3.2357   -1.8551    0.4056 H   0  0  0  0  0  0  0  0  0  0  0  0
   -3.8379   -2.1438   -2.3046 H   0  0  0  0  0  0  0  0  0  0  0  0
   -2.5816   -1.5015   -3.3625 H   0  0  0  0  0  0  0  0  0  0  0  0
   -2.0996   -2.0690   -1.7061 H   0  0  0  0  0  0  0  0  0  0  0  0
    0.3074    2.0509   -1.5739 H   0  0  0  0  0  0  0  0  0  0  0  0
    2.7863    0.6962    2.1121 H   0  0  0  0  0  0  0  0  0  0  0  0
    1.5018   -0.3186    2.9577 H   0  0  0  0  0  0  0  0  0  0  0  0
    3.4928   -1.7391    2.4921 H   0  0  0  0  0  0  0  0  0  0  0  0
    2.0167   -2.2619    1.6363 H   0  0  0  0  0  0  0  0  0  0  0  0
    3.7878   -2.3971    0.0401 H   0  0  0  0  0  0  0  0  0  0  0  0
    2.7148   -1.0683   -0.4351 H   0  0  0  0  0  0  0  0  0  0  0  0
    5.0479   -0.7355   -1.8979 H   0  0  0  0  0  0  0  0  0  0  0  0
    6.8913    1.7365    1.0326 H   0  0  0  0  0  0  0  0  0  0  0  0
    5.0144    0.4526    2.1574 H   0  0  0  0  0  0  0  0  0  0  0  0
    2.7510    2.4237    0.8891 H   0  0  0  0  0  0  0  0  0  0  0  0
    2.7681    2.1042   -0.9037 H   0  0  0  0  0  0  0  0  0  0  0  0
  1  2  2  0
  2  3  1  0
  3  4  1  0
  4  5  1  0
  5  6  2  0
  6  7  1  0
  7  8  2  0
  8  9  1  0
  9 10  2  0
  4 11  1  0
  2 12  1  0
 12 13  1  0
 13 14  2  3
 14 15  1  0
 15 16  1  0
 16 17  1  0
 17 18  1  0
 18 19  2  0
 19 20  1  0
 20 21  2  0
 21 22  1  0
 13 23  1  0
 10  5  1  0
 22 18  1  0
  3 24  1  0
  3 25  1  0
  4 26  1  0
  6 27  1  0
  7 28  1  0
  8 29  1  0
  9 30  1  0
 10 31  1  0
 11 32  1  0
 11 33  1  0
 11 34  1  0
 12 35  1  0
 15 36  1  0
 15 37  1  0
 16 38  1  0
 16 39  1  0
 17 40  1  0
 17 41  1  0
 19 42  1  0
 21 43  1  0
 22 44  1  0
 23 45  1  0
 23 46  1  0
M  END
>  <Ligand ID>  (1) 
LIG0001546

>  <Ligand>  (1) 
CHEMBL483406

>  <SMILES>  (1) 
O=C(CC(c1ccccc1)C)NC(=NCCCc1cnc[nH]1)N

>  <CID>  (1) 
25149335.0

>  <ChEMBL ID>  (1) 
nan

>  <InChiKey>  (1) 
NTHUVTORAXKPJS-UHFFFAOYSA-N

>  <InChi>  (1) 
InChI=1S/C17H23N5O/c1-13(14-6-3-2-4-7-14)10-16(23)22-17(18)20-9-5-8-15-11-19-12-21-15/h2-4,6-7,11-13H,5,8-10H2,1H3,(H,19,21)(H3,18,20,22,23)

>  <IUPAC Name>  (1) 
N-[N'-[3-(1H-imidazol-5-yl)propyl]carbamimidoyl]-3-phenylbutanamide

$$$$
