
     RDKit          3D

 69 71  0  0  0  0  0  0  0  0999 V2000
   -4.9139   -4.9098    0.2492 C   0  0  0  0  0  0  0  0  0  0  0  0
   -4.0784   -3.8901    0.8567 N   0  0  0  0  0  0  0  0  0  0  0  0
   -3.3015   -3.1759   -0.1463 C   0  0  0  0  0  0  0  0  0  0  0  0
   -4.2937   -2.3806   -0.9530 C   0  0  0  0  0  0  0  0  0  0  0  0
   -3.6977   -1.5720   -2.0587 C   0  0  0  0  0  0  0  0  0  0  0  0
   -2.7429   -0.6052   -1.5595 N   0  0  0  0  0  0  0  0  0  0  0  0
   -1.3757   -0.9518   -1.4406 C   0  0  0  0  0  0  0  0  0  0  0  0
   -1.0095   -2.1376   -1.7785 O   0  0  0  0  0  0  0  0  0  0  0  0
   -0.3278   -0.0843   -0.9684 C   0  0  0  0  0  0  0  0  0  0  0  0
    0.4782    0.5114   -1.9408 C   0  0  0  0  0  0  0  0  0  0  0  0
    1.5112    1.3484   -1.5780 C   0  0  0  0  0  0  0  0  0  0  0  0
    1.7889    1.6304   -0.2332 C   0  0  0  0  0  0  0  0  0  0  0  0
    0.9934    1.0417    0.7179 C   0  0  0  0  0  0  0  0  0  0  0  0
   -0.0597    0.1889    0.3534 C   0  0  0  0  0  0  0  0  0  0  0  0
    3.1124    2.6961    0.0848 S   0  0  0  0  0  0  0  0  0  0  0  0
    3.2398    3.7232   -1.0072 O   0  0  0  0  0  0  0  0  0  0  0  0
    2.9563    3.4689    1.3717 O   0  0  0  0  0  0  0  0  0  0  0  0
    4.6186    1.8729    0.1674 N   0  0  0  0  0  0  0  0  0  0  0  0
    5.2340    1.8384    1.4400 C   0  0  0  0  0  0  0  0  0  0  0  0
    5.5119    0.4922    2.0255 C   0  0  0  0  0  0  0  0  0  0  0  0
    6.0979   -0.4315    1.0297 C   0  0  0  0  0  0  0  0  0  0  0  0
    5.6674   -0.3037   -0.2749 C   0  0  0  0  0  0  0  0  0  0  0  0
    4.6747    0.7094   -0.6392 C   0  0  0  0  0  0  0  0  0  0  0  0
    6.2067   -1.1635   -1.2089 C   0  0  0  0  0  0  0  0  0  0  0  0
    7.1392   -2.1253   -0.8965 C   0  0  0  0  0  0  0  0  0  0  0  0
    7.5737   -2.2567    0.4087 C   0  0  0  0  0  0  0  0  0  0  0  0
    7.0399   -1.4000    1.3533 C   0  0  0  0  0  0  0  0  0  0  0  0
   -3.1168    0.7077   -1.1810 C   0  0  0  0  0  0  0  0  0  0  0  0
   -2.6238    1.7294   -0.7688 N   0  0  0  0  0  0  0  0  0  0  0  0
   -3.2098    2.8559   -0.4768 C   0  0  0  0  0  0  0  0  0  0  0  0
   -4.5862    2.8646   -0.6714 C   0  0  0  0  0  0  0  0  0  0  0  0
   -4.9044    1.2047   -1.2717 S   0  0  0  0  0  0  0  0  0  0  0  0
   -5.3983    3.9421   -0.4282 C   0  0  0  0  0  0  0  0  0  0  0  0
   -4.8413    5.1283    0.0477 C   0  0  0  0  0  0  0  0  0  0  0  0
   -3.4747    5.1084    0.2368 C   0  0  0  0  0  0  0  0  0  0  0  0
   -2.6613    4.0517    0.0008 C   0  0  0  0  0  0  0  0  0  0  0  0
   -5.6241    6.1984    0.2944 F   0  0  0  0  0  0  0  0  0  0  0  0
   -4.9542   -3.0086    1.6071 C   0  0  0  0  0  0  0  0  0  0  0  0
    0.0000    0.0000    0.0000 Cl  0  0  0  0  0  0  0  0  0  0  0  0
    0.0000    0.0000    0.0000 H   0  0  0  0  0 15  0  0  0  0  0  0
   -5.8772   -4.4623   -0.0633 H   0  0  0  0  0  0  0  0  0  0  0  0
   -5.1413   -5.7119    0.9952 H   0  0  0  0  0  0  0  0  0  0  0  0
   -4.4693   -5.3875   -0.6385 H   0  0  0  0  0  0  0  0  0  0  0  0
   -2.7754   -3.9439   -0.7537 H   0  0  0  0  0  0  0  0  0  0  0  0
   -2.6440   -2.4811    0.3911 H   0  0  0  0  0  0  0  0  0  0  0  0
   -4.9823   -3.1228   -1.4169 H   0  0  0  0  0  0  0  0  0  0  0  0
   -4.8502   -1.7287   -0.2188 H   0  0  0  0  0  0  0  0  0  0  0  0
   -3.1962   -2.2139   -2.8164 H   0  0  0  0  0  0  0  0  0  0  0  0
   -4.4599   -0.9753   -2.6043 H   0  0  0  0  0  0  0  0  0  0  0  0
    0.2977    0.3189   -2.9909 H   0  0  0  0  0  0  0  0  0  0  0  0
    2.1169    1.7934   -2.3800 H   0  0  0  0  0  0  0  0  0  0  0  0
    1.2076    1.2590    1.7548 H   0  0  0  0  0  0  0  0  0  0  0  0
   -0.6827   -0.2708    1.0956 H   0  0  0  0  0  0  0  0  0  0  0  0
    6.1933    2.4284    1.3802 H   0  0  0  0  0  0  0  0  0  0  0  0
    4.6132    2.4085    2.1707 H   0  0  0  0  0  0  0  0  0  0  0  0
    4.6826    0.0509    2.5984 H   0  0  0  0  0  0  0  0  0  0  0  0
    6.3362    0.6581    2.7840 H   0  0  0  0  0  0  0  0  0  0  0  0
    3.6380    0.2774   -0.7192 H   0  0  0  0  0  0  0  0  0  0  0  0
    4.9036    1.0427   -1.6955 H   0  0  0  0  0  0  0  0  0  0  0  0
    5.8794   -1.0861   -2.2571 H   0  0  0  0  0  0  0  0  0  0  0  0
    7.5549   -2.7963   -1.6447 H   0  0  0  0  0  0  0  0  0  0  0  0
    8.3132   -3.0210    0.6527 H   0  0  0  0  0  0  0  0  0  0  0  0
    7.3712   -1.4875    2.3976 H   0  0  0  0  0  0  0  0  0  0  0  0
   -6.4535    3.8301   -0.6161 H   0  0  0  0  0  0  0  0  0  0  0  0
   -3.0034    6.0288    0.6100 H   0  0  0  0  0  0  0  0  0  0  0  0
   -1.5837    4.1413    0.1838 H   0  0  0  0  0  0  0  0  0  0  0  0
   -4.4882   -2.0649    1.9006 H   0  0  0  0  0  0  0  0  0  0  0  0
   -5.9348   -2.8356    1.1083 H   0  0  0  0  0  0  0  0  0  0  0  0
   -5.2142   -3.5639    2.5544 H   0  0  0  0  0  0  0  0  0  0  0  0
  1  2  1  0
  2  3  1  0
  3  4  1  0
  4  5  1  0
  5  6  1  0
  6  7  1  0
  7  8  2  0
  7  9  1  0
  9 10  2  0
 10 11  1  0
 11 12  2  0
 12 13  1  0
 13 14  2  0
 12 15  1  0
 15 16  2  0
 15 17  2  0
 15 18  1  0
 18 19  1  0
 19 20  1  0
 20 21  1  0
 21 22  2  0
 22 23  1  0
 22 24  1  0
 24 25  2  0
 25 26  1  0
 26 27  2  0
  6 28  1  0
 28 29  2  0
 29 30  1  0
 30 31  2  0
 31 32  1  0
 31 33  1  0
 33 34  2  0
 34 35  1  0
 35 36  2  0
 34 37  1  0
  2 38  1  0
 14  9  1  0
 23 18  1  0
 32 28  1  0
 27 21  1  0
 36 30  1  0
  1 41  1  0
  1 42  1  0
  1 43  1  0
  3 44  1  0
  3 45  1  0
  4 46  1  0
  4 47  1  0
  5 48  1  0
  5 49  1  0
 10 50  1  0
 11 51  1  0
 13 52  1  0
 14 53  1  0
 19 54  1  0
 19 55  1  0
 20 56  1  0
 20 57  1  0
 23 58  1  0
 23 59  1  0
 24 60  1  0
 25 61  1  0
 26 62  1  0
 27 63  1  0
 33 64  1  0
 35 65  1  0
 36 66  1  0
 38 67  1  0
 38 68  1  0
 38 69  1  0
M  CHG  2  39  -1  40   1
M  END
>  <Ligand ID>  (1) 
LIG0001079

>  <Ligand>  (1) 
MLS-0383736.0001

>  <SMILES>  (1) 
CN(CCCN(C(=O)c1ccc(cc1)S(=O)(=O)N1CCc2c(C1)cccc2)c1nc2c(s1)cc(cc2)F)C.[Cl-].[H+]

>  <CID>  (1) 
49852586.0

>  <ChEMBL ID>  (1) 
nan

>  <InChiKey>  (1) 
WOZRHAMGRYQYDN-UHFFFAOYSA-N

>  <InChi>  (1) 
InChI=1S/C28H29FN4O3S2.ClH/c1-31(2)15-5-16-33(28-30-25-13-10-23(29)18-26(25)37-28)27(34)21-8-11-24(12-9-21)38(35,36)32-17-14-20-6-3-4-7-22(20)19-32;/h3-4,6-13,18H,5,14-17,19H2,1-2H3;1H

>  <IUPAC Name>  (1) 
4-(3,4-dihydro-1H-isoquinolin-2-ylsulfonyl)-N-[3-(dimethylamino)propyl]-N-(6-fluoro-1,3-benzothiazol-2-yl)benzamide;hydron;chloride

$$$$
