
     RDKit          3D

 78 84  0  0  0  0  0  0  0  0999 V2000
   -1.7377   -2.8643   -1.8089 C   0  0  0  0  0  0  0  0  0  0  0  0
   -2.5597   -2.4775   -0.6018 C   0  0  0  0  0  0  0  0  0  0  0  0
   -2.6256   -0.9368   -0.3915 C   0  0  1  0  0  0  0  0  0  0  0  0
   -3.6025   -0.9572    0.8112 C   0  0  0  0  0  0  0  0  0  0  0  0
   -4.8948   -1.6181    0.2712 C   0  0  0  0  0  0  0  0  0  0  0  0
   -3.0983   -1.9678    1.8503 C   0  0  0  0  0  0  0  0  0  0  0  0
   -4.0077    0.2499    1.4981 C   0  0  0  0  0  0  0  0  0  0  0  0
   -1.3442   -0.3403    0.0531 C   0  0  1  0  0  0  0  0  0  0  0  0
   -0.0925   -0.6746   -0.7050 C   0  0  0  0  0  0  0  0  0  0  0  0
    0.9305    0.4002   -0.5014 C   0  0  1  0  0  0  0  0  0  0  0  0
    0.6709    1.3794   -1.6335 C   0  0  0  0  0  0  0  0  0  0  0  0
   -0.8565    1.5224   -1.5928 C   0  0  0  0  0  0  0  0  0  0  0  0
   -1.4298    1.2379   -0.2059 C   0  0  1  0  0  0  0  0  0  0  0  0
   -2.7135    1.6462   -0.2862 O   0  0  0  0  0  0  0  0  0  0  0  0
   -3.0466    2.9393   -0.4652 C   0  0  0  0  0  0  0  0  0  0  0  0
   -0.6033    1.7825    0.9169 C   0  0  1  0  0  0  0  0  0  0  0  0
    0.7676    1.1935    0.7807 C   0  0  1  0  0  0  0  0  0  0  0  0
    1.3478    0.5806    1.9881 C   0  0  0  0  0  0  0  0  0  0  0  0
    2.1145   -0.6607    1.8095 C   0  0  0  0  0  0  0  0  0  0  0  0
    2.2646   -1.2250    0.5132 N   0  0  0  0  0  0  0  0  0  0  0  0
    2.3314   -0.1190   -0.4605 C   0  0  2  0  0  0  0  0  0  0  0  0
    3.3716    0.8938   -0.0279 C   0  0  0  0  0  0  0  0  0  0  0  0
    2.8546    2.2688    0.1148 C   0  0  0  0  0  0  0  0  0  0  0  0
    1.5494    2.4220    0.4629 C   0  0  0  0  0  0  0  0  0  0  0  0
    0.8398    3.5532    0.5995 C   0  0  0  0  0  0  0  0  0  0  0  0
   -0.4440    3.1888    0.9540 O   0  0  0  0  0  0  0  0  0  0  0  0
    1.5447    4.7396    0.3548 C   0  0  0  0  0  0  0  0  0  0  0  0
    0.8758    5.9333    0.4800 O   0  0  0  0  0  0  0  0  0  0  0  0
    2.8957    4.6572   -0.0059 C   0  0  0  0  0  0  0  0  0  0  0  0
    3.5593    3.4291   -0.1292 C   0  0  0  0  0  0  0  0  0  0  0  0
    3.4927   -1.9540    0.4307 C   0  0  0  0  0  0  0  0  0  0  0  0
    3.7013   -2.7094   -0.8593 C   0  0  0  0  0  0  0  0  0  0  0  0
    5.0114   -3.4839   -0.9424 C   0  0  0  0  0  0  0  0  0  0  0  0
    3.7310   -4.2096   -0.8138 C   0  0  0  0  0  0  0  0  0  0  0  0
   -3.1937   -0.2651   -1.4062 O   0  0  0  0  0  0  0  0  0  0  0  0
   -0.7252   -3.1110   -1.4843 H   0  0  0  0  0  0  0  0  0  0  0  0
   -2.1210   -3.8903   -2.1836 H   0  0  0  0  0  0  0  0  0  0  0  0
   -1.7969   -2.1552   -2.6426 H   0  0  0  0  0  0  0  0  0  0  0  0
   -3.5670   -2.8919   -0.7936 H   0  0  0  0  0  0  0  0  0  0  0  0
   -2.1902   -2.9862    0.3082 H   0  0  0  0  0  0  0  0  0  0  0  0
   -4.9633   -2.6631    0.5996 H   0  0  0  0  0  0  0  0  0  0  0  0
   -5.7763   -1.1170    0.7757 H   0  0  0  0  0  0  0  0  0  0  0  0
   -4.9990   -1.4968   -0.8053 H   0  0  0  0  0  0  0  0  0  0  0  0
   -2.0273   -1.9902    1.9818 H   0  0  0  0  0  0  0  0  0  0  0  0
   -3.5617   -2.9726    1.7217 H   0  0  0  0  0  0  0  0  0  0  0  0
   -3.5110   -1.6336    2.8607 H   0  0  0  0  0  0  0  0  0  0  0  0
   -3.2998    0.8276    2.0937 H   0  0  0  0  0  0  0  0  0  0  0  0
   -4.6877   -0.1633    2.3730 H   0  0  0  0  0  0  0  0  0  0  0  0
   -4.8123    0.8706    0.9894 H   0  0  0  0  0  0  0  0  0  0  0  0
   -1.1849   -0.4843    1.1089 H   0  0  0  0  0  0  0  0  0  0  0  0
   -0.1975   -0.8069   -1.7882 H   0  0  0  0  0  0  0  0  0  0  0  0
    0.3600   -1.5948   -0.2020 H   0  0  0  0  0  0  0  0  0  0  0  0
    0.9952    0.9787   -2.6183 H   0  0  0  0  0  0  0  0  0  0  0  0
    1.0960    2.3627   -1.5233 H   0  0  0  0  0  0  0  0  0  0  0  0
   -1.1400    2.5510   -1.9007 H   0  0  0  0  0  0  0  0  0  0  0  0
   -1.2869    0.7938   -2.2918 H   0  0  0  0  0  0  0  0  0  0  0  0
   -4.1917    2.9639   -0.4601 H   0  0  0  0  0  0  0  0  0  0  0  0
   -2.7724    3.6140    0.3735 H   0  0  0  0  0  0  0  0  0  0  0  0
   -2.8205    3.3726   -1.4543 H   0  0  0  0  0  0  0  0  0  0  0  0
   -1.0486    1.3994    1.8626 H   0  0  0  0  0  0  0  0  0  0  0  0
    2.0698    1.3309    2.4540 H   0  0  0  0  0  0  0  0  0  0  0  0
    0.6136    0.4456    2.8249 H   0  0  0  0  0  0  0  0  0  0  0  0
    3.1328   -0.6354    2.3112 H   0  0  0  0  0  0  0  0  0  0  0  0
    1.5961   -1.4733    2.4255 H   0  0  0  0  0  0  0  0  0  0  0  0
    2.5949   -0.4559   -1.4694 H   0  0  0  0  0  0  0  0  0  0  0  0
    4.2238    0.9294   -0.7702 H   0  0  0  0  0  0  0  0  0  0  0  0
    3.8620    0.6225    0.9244 H   0  0  0  0  0  0  0  0  0  0  0  0
    0.2183    6.1830   -0.2427 H   0  0  0  0  0  0  0  0  0  0  0  0
    3.4536    5.5872   -0.1992 H   0  0  0  0  0  0  0  0  0  0  0  0
    4.5869    3.3452   -0.4041 H   0  0  0  0  0  0  0  0  0  0  0  0
    4.3929   -1.2981    0.5406 H   0  0  0  0  0  0  0  0  0  0  0  0
    3.6047   -2.6933    1.2708 H   0  0  0  0  0  0  0  0  0  0  0  0
    3.3541   -2.2406   -1.7942 H   0  0  0  0  0  0  0  0  0  0  0  0
    5.5349   -3.4277   -1.9308 H   0  0  0  0  0  0  0  0  0  0  0  0
    5.7107   -3.4460   -0.0808 H   0  0  0  0  0  0  0  0  0  0  0  0
    3.5486   -4.7007    0.1724 H   0  0  0  0  0  0  0  0  0  0  0  0
    3.3438   -4.7395   -1.6918 H   0  0  0  0  0  0  0  0  0  0  0  0
   -3.2160   -0.6650   -2.2928 H   0  0  0  0  0  0  0  0  0  0  0  0
  1  2  1  0
  2  3  1  0
  3  4  1  0
  4  5  1  0
  4  6  1  0
  4  7  1  0
  3  8  1  0
  8  9  1  0
 10  9  1  1
 10 11  1  0
 11 12  1  0
 12 13  1  0
 13 14  1  6
 14 15  1  0
 13 16  1  0
 16 17  1  0
 17 18  1  1
 18 19  1  0
 19 20  1  0
 20 21  1  0
 21 22  1  0
 22 23  1  0
 23 24  1  0
 24 25  2  0
 25 26  1  0
 25 27  1  0
 27 28  1  0
 27 29  2  0
 29 30  1  0
 20 31  1  0
 31 32  1  0
 32 33  1  0
 33 34  1  0
  3 35  1  6
 13  8  1  0
 26 16  1  0
 34 32  1  0
 21 10  1  0
 30 23  2  0
 17 10  1  0
 24 17  1  0
  1 36  1  0
  1 37  1  0
  1 38  1  0
  2 39  1  0
  2 40  1  0
  5 41  1  0
  5 42  1  0
  5 43  1  0
  6 44  1  0
  6 45  1  0
  6 46  1  0
  7 47  1  0
  7 48  1  0
  7 49  1  0
  8 50  1  1
  9 51  1  0
  9 52  1  0
 11 53  1  0
 11 54  1  0
 12 55  1  0
 12 56  1  0
 15 57  1  0
 15 58  1  0
 15 59  1  0
 16 60  1  1
 18 61  1  0
 18 62  1  0
 19 63  1  0
 19 64  1  0
 21 65  1  6
 22 66  1  0
 22 67  1  0
 28 68  1  0
 29 69  1  0
 30 70  1  0
 31 71  1  0
 31 72  1  0
 32 73  1  0
 33 74  1  0
 33 75  1  0
 34 76  1  0
 34 77  1  0
 35 78  1  0
M  END
>  <Ligand ID>  (1) 
LIG0003533

>  <Ligand>  (1) 
CHEMBL3262088

>  <SMILES>  (1) 
CC[C@@](C(C)(C)C)([C@H]1C[C@]23CC[C@]1(OC)[C@H]1[C@]43CCN([C@@H]2Cc2c4c(O1)c(O)cc2)CC1CC1)O

>  <CID>  (1) 
90656666.0

>  <ChEMBL ID>  (1) 
nan

>  <InChiKey>  (1) 
GGVDQPNQFCSAQQ-DKMGXXMGSA-N

>  <InChi>  (1) 
InChI=1S/C30H43NO4/c1-6-30(33,26(2,3)4)21-16-27-11-12-29(21,34-5)25-28(27)13-14-31(17-18-7-8-18)22(27)15-19-9-10-20(32)24(35-25)23(19)28/h9-10,18,21-22,25,32-33H,6-8,11-17H2,1-5H3/t21-,22+,25+,27+,28-,29+,30-/m0/s1

>  <IUPAC Name>  (1) 
(1S,2S,6R,14R,15R,16R)-5-(cyclopropylmethyl)-16-[(3S)-3-hydroxy-2,2-dimethylpentan-3-yl]-15-methoxy-13-oxa-5-azahexacyclo[13.2.2.12,8.01,6.02,14.012,20]icosa-8(20),9,11-trien-11-ol

$$$$
