
     RDKit          3D

 42 45  0  0  0  0  0  0  0  0999 V2000
    6.5074   -0.7901   -1.5035 C   0  0  0  0  0  0  0  0  0  0  0  0
    5.4725   -0.5393   -0.4134 C   0  0  0  0  0  0  0  0  0  0  0  0
    4.2075   -0.5268   -1.0339 O   0  0  0  0  0  0  0  0  0  0  0  0
    3.0364   -0.3209   -0.3171 C   0  0  0  0  0  0  0  0  0  0  0  0
    1.8500   -0.3306   -1.0408 C   0  0  0  0  0  0  0  0  0  0  0  0
    0.6584   -0.1308   -0.3762 C   0  0  0  0  0  0  0  0  0  0  0  0
    0.6060    0.0773    0.9762 C   0  0  0  0  0  0  0  0  0  0  0  0
    1.7999    0.0863    1.6991 C   0  0  0  0  0  0  0  0  0  0  0  0
    3.0100   -0.1132    1.0472 C   0  0  0  0  0  0  0  0  0  0  0  0
   -0.6387    0.2745    1.5940 N   0  0  0  0  0  0  0  0  0  0  0  0
   -1.8033    0.2489    0.7789 C   0  0  0  0  0  0  0  0  0  0  0  0
   -2.4938   -0.9372    0.5411 C   0  0  0  0  0  0  0  0  0  0  0  0
   -2.0619   -2.1235    1.0942 C   0  0  0  0  0  0  0  0  0  0  0  0
   -2.7866   -3.2739    0.8248 C   0  0  0  0  0  0  0  0  0  0  0  0
   -3.9159   -3.2286    0.0197 C   0  0  0  0  0  0  0  0  0  0  0  0
   -4.3525   -2.0393   -0.5373 C   0  0  0  0  0  0  0  0  0  0  0  0
   -3.6187   -0.8792   -0.2636 C   0  0  0  0  0  0  0  0  0  0  0  0
   -4.0335    0.2858   -0.8001 N   0  0  0  0  0  0  0  0  0  0  0  0
   -3.3605    1.4314   -0.5662 C   0  0  0  0  0  0  0  0  0  0  0  0
   -2.2313    1.4407    0.2274 C   0  0  0  0  0  0  0  0  0  0  0  0
   -1.5249    2.6102    0.4799 C   0  0  0  0  0  0  0  0  0  0  0  0
   -1.9524    3.7893   -0.0686 C   0  0  0  0  0  0  0  0  0  0  0  0
   -3.0922    3.7905   -0.8718 C   0  0  0  0  0  0  0  0  0  0  0  0
   -3.7968    2.6291   -1.1248 C   0  0  0  0  0  0  0  0  0  0  0  0
    6.0423   -1.4894   -2.2225 H   0  0  0  0  0  0  0  0  0  0  0  0
    7.3813   -1.2668   -1.0520 H   0  0  0  0  0  0  0  0  0  0  0  0
    6.7596    0.1883   -1.9671 H   0  0  0  0  0  0  0  0  0  0  0  0
    5.4913   -1.3686    0.3217 H   0  0  0  0  0  0  0  0  0  0  0  0
    5.7448    0.3809    0.1062 H   0  0  0  0  0  0  0  0  0  0  0  0
    1.8694   -0.4936   -2.1119 H   0  0  0  0  0  0  0  0  0  0  0  0
   -0.2431   -0.1461   -0.9790 H   0  0  0  0  0  0  0  0  0  0  0  0
    1.7385    0.2513    2.7606 H   0  0  0  0  0  0  0  0  0  0  0  0
    3.9341   -0.1087    1.5901 H   0  0  0  0  0  0  0  0  0  0  0  0
   -0.7661    0.4399    2.6205 H   0  0  0  0  0  0  0  0  0  0  0  0
   -1.1750   -2.1536    1.7253 H   0  0  0  0  0  0  0  0  0  0  0  0
   -2.4651   -4.2037    1.2464 H   0  0  0  0  0  0  0  0  0  0  0  0
   -4.4917   -4.1340   -0.1961 H   0  0  0  0  0  0  0  0  0  0  0  0
   -5.2300   -2.0363   -1.1562 H   0  0  0  0  0  0  0  0  0  0  0  0
   -0.6407    2.5817    1.1088 H   0  0  0  0  0  0  0  0  0  0  0  0
   -1.3913    4.6841    0.1391 H   0  0  0  0  0  0  0  0  0  0  0  0
   -3.3774    4.7547   -1.2750 H   0  0  0  0  0  0  0  0  0  0  0  0
   -4.6658    2.6892   -1.7496 H   0  0  0  0  0  0  0  0  0  0  0  0
  1  2  1  0
  2  3  1  0
  3  4  1  0
  4  5  2  0
  5  6  1  0
  6  7  2  0
  7  8  1  0
  8  9  2  0
  7 10  1  0
 10 11  1  0
 11 12  1  0
 12 13  2  0
 13 14  1  0
 14 15  2  0
 15 16  1  0
 16 17  2  0
 17 18  1  0
 18 19  2  0
 19 20  1  0
 20 21  1  0
 21 22  2  0
 22 23  1  0
 23 24  2  0
  9  4  1  0
 20 11  2  0
 17 12  1  0
 24 19  1  0
  1 25  1  0
  1 26  1  0
  1 27  1  0
  2 28  1  0
  2 29  1  0
  5 30  1  0
  6 31  1  0
  8 32  1  0
  9 33  1  0
 10 34  1  0
 13 35  1  0
 14 36  1  0
 15 37  1  0
 16 38  1  0
 21 39  1  0
 22 40  1  0
 23 41  1  0
 24 42  1  0
M  END
>  <Ligand ID>  (1) 
LIG0004484

>  <Ligand>  (1) 
MLS000737612

>  <SMILES>  (1) 
CCOc1ccc(cc1)Nc1c2ccccc2nc2c1cccc2

>  <CID>  (1) 
232570.0

>  <ChEMBL ID>  (1) 
nan

>  <InChiKey>  (1) 
XVEBRLBGCRNIRF-UHFFFAOYSA-N

>  <InChi>  (1) 
InChI=1S/C21H18N2O/c1-2-24-16-13-11-15(12-14-16)22-21-17-7-3-5-9-19(17)23-20-10-6-4-8-18(20)21/h3-14H,2H2,1H3,(H,22,23)

>  <IUPAC Name>  (1) 
N-(4-ethoxyphenyl)acridin-9-amine

$$$$
