
     RDKit          3D

 36 39  0  0  0  0  0  0  0  0999 V2000
   -4.2998    0.3282    1.2827 C   0  0  0  0  0  0  0  0  0  0  0  0
   -3.0587    0.2703    0.4555 C   0  0  0  0  0  0  0  0  0  0  0  0
   -1.8315    0.0490    1.0681 C   0  0  0  0  0  0  0  0  0  0  0  0
   -0.7095    0.0017    0.2763 C   0  0  0  0  0  0  0  0  0  0  0  0
   -0.8428    0.1744   -1.0864 C   0  0  0  0  0  0  0  0  0  0  0  0
   -2.0612    0.3943   -1.6962 C   0  0  0  0  0  0  0  0  0  0  0  0
   -3.1906    0.4428   -0.9063 C   0  0  0  0  0  0  0  0  0  0  0  0
   -4.4832    0.6775   -1.5655 C   0  0  0  0  0  0  0  0  0  0  0  0
    0.3827    0.0867   -1.6369 N   0  0  0  0  0  0  0  0  0  0  0  0
    1.2709   -0.1357   -0.6515 C   0  0  0  0  0  0  0  0  0  0  0  0
    0.6175   -0.1962    0.5770 C   0  0  0  0  0  0  0  0  0  0  0  0
    1.2827   -0.4140    1.7617 C   0  0  0  0  0  0  0  0  0  0  0  0
    0.6131   -0.4830    3.0830 C   0  0  0  0  0  0  0  0  0  0  0  0
    2.6300   -0.5686    1.6625 N   0  0  0  0  0  0  0  0  0  0  0  0
    3.2872   -0.5151    0.4911 C   0  0  0  0  0  0  0  0  0  0  0  0
    2.6426   -0.2980   -0.7094 C   0  0  0  0  0  0  0  0  0  0  0  0
    3.3560   -0.2503   -1.8918 C   0  0  0  0  0  0  0  0  0  0  0  0
    4.7451   -0.4249   -1.8606 C   0  0  0  0  0  0  0  0  0  0  0  0
    5.3983   -0.6449   -0.6439 C   0  0  0  0  0  0  0  0  0  0  0  0
    4.6639   -0.6887    0.5265 C   0  0  0  0  0  0  0  0  0  0  0  0
   -4.9427   -0.5686    1.1335 H   0  0  0  0  0  0  0  0  0  0  0  0
   -4.9134    1.2198    1.0968 H   0  0  0  0  0  0  0  0  0  0  0  0
   -4.0212    0.3939    2.3692 H   0  0  0  0  0  0  0  0  0  0  0  0
   -1.8471   -0.0711    2.1312 H   0  0  0  0  0  0  0  0  0  0  0  0
   -2.1181    0.5243   -2.7678 H   0  0  0  0  0  0  0  0  0  0  0  0
   -4.7480   -0.1912   -2.2237 H   0  0  0  0  0  0  0  0  0  0  0  0
   -5.3002    0.9580   -0.8890 H   0  0  0  0  0  0  0  0  0  0  0  0
   -4.3567    1.5613   -2.2499 H   0  0  0  0  0  0  0  0  0  0  0  0
    0.6451    0.1713   -2.6568 H   0  0  0  0  0  0  0  0  0  0  0  0
   -0.1008   -1.3327    3.0980 H   0  0  0  0  0  0  0  0  0  0  0  0
    1.4142   -0.6309    3.8489 H   0  0  0  0  0  0  0  0  0  0  0  0
    0.0875    0.4239    3.3844 H   0  0  0  0  0  0  0  0  0  0  0  0
    2.8285   -0.0785   -2.8231 H   0  0  0  0  0  0  0  0  0  0  0  0
    5.3053   -0.3861   -2.8003 H   0  0  0  0  0  0  0  0  0  0  0  0
    6.4658   -0.7740   -0.6642 H   0  0  0  0  0  0  0  0  0  0  0  0
    5.1891   -0.8624    1.4765 H   0  0  0  0  0  0  0  0  0  0  0  0
  1  2  1  0
  2  3  2  0
  3  4  1  0
  4  5  2  0
  5  6  1  0
  6  7  2  0
  7  8  1  0
  5  9  1  0
  9 10  1  0
 10 11  2  0
 11 12  1  0
 12 13  1  0
 12 14  2  0
 14 15  1  0
 15 16  2  0
 16 17  1  0
 17 18  2  0
 18 19  1  0
 19 20  2  0
  7  2  1  0
 16 10  1  0
 11  4  1  0
 20 15  1  0
  1 21  1  0
  1 22  1  0
  1 23  1  0
  3 24  1  0
  6 25  1  0
  8 26  1  0
  8 27  1  0
  8 28  1  0
  9 29  1  0
 13 30  1  0
 13 31  1  0
 13 32  1  0
 17 33  1  0
 18 34  1  0
 19 35  1  0
 20 36  1  0
M  END
>  <Ligand ID>  (1) 
LIG0003617

>  <Ligand>  (1) 
6,8,9-trimethyl-11H-indolo[3,2-c]quinoline

>  <SMILES>  (1) 
Cc1cc2c(cc1C)[nH]c1c2c(C)nc2c1cccc2

>  <CID>  (1) 
5412959.0

>  <ChEMBL ID>  (1) 
nan

>  <InChiKey>  (1) 
DISDWAOVQQELPK-UHFFFAOYSA-N

>  <InChi>  (1) 
InChI=1S/C18H16N2/c1-10-8-14-16(9-11(10)2)20-18-13-6-4-5-7-15(13)19-12(3)17(14)18/h4-9,20H,1-3H3

>  <IUPAC Name>  (1) 
6,8,9-trimethyl-11H-indolo[3,2-c]quinoline

$$$$
