
     RDKit          3D

 35 37  0  0  0  0  0  0  0  0999 V2000
    3.7119   -1.8294   -0.6700 C   0  0  0  0  0  0  0  0  0  0  0  0
    3.0299   -0.8856   -1.6213 C   0  0  0  0  0  0  0  0  0  0  0  0
    1.9440   -0.1018   -0.9499 C   0  0  0  0  0  0  0  0  0  0  0  0
    0.6572   -0.5919   -0.9206 C   0  0  0  0  0  0  0  0  0  0  0  0
   -0.3973    0.0647   -0.3250 C   0  0  0  0  0  0  0  0  0  0  0  0
   -1.7173   -0.5052   -0.3584 C   0  0  1  0  0  0  0  0  0  0  0  0
   -1.9747   -1.9299   -0.3782 C   0  0  0  0  0  0  0  0  0  0  0  0
   -3.1882   -2.1614    0.4265 N   0  0  0  0  0  0  0  0  0  0  0  0
   -3.6922   -0.8259    0.7907 C   0  0  0  0  0  0  0  0  0  0  0  0
   -2.4219   -0.0861    0.9481 C   0  0  2  0  0  0  0  0  0  0  0  0
   -2.4777    1.3464    0.9056 N   0  0  0  0  0  0  0  0  0  0  0  0
   -1.1973    2.0258    0.9491 C   0  0  0  0  0  0  0  0  0  0  0  0
   -1.0320    3.1205    1.5013 O   0  0  0  0  0  0  0  0  0  0  0  0
   -0.1089    1.2834    0.2684 C   0  0  0  0  0  0  0  0  0  0  0  0
    1.1657    1.8092    0.2607 C   0  0  0  0  0  0  0  0  0  0  0  0
    2.1915    1.1156   -0.3488 C   0  0  0  0  0  0  0  0  0  0  0  0
    1.4268    3.1233    0.9108 C   0  0  0  0  0  0  0  0  0  0  0  0
    4.6112   -1.4012   -0.1779 H   0  0  0  0  0  0  0  0  0  0  0  0
    4.0965   -2.6781   -1.2936 H   0  0  0  0  0  0  0  0  0  0  0  0
    2.9941   -2.2500    0.0882 H   0  0  0  0  0  0  0  0  0  0  0  0
    3.8064   -0.2234   -2.0444 H   0  0  0  0  0  0  0  0  0  0  0  0
    2.5464   -1.4699   -2.4365 H   0  0  0  0  0  0  0  0  0  0  0  0
    0.4774   -1.5419   -1.3926 H   0  0  0  0  0  0  0  0  0  0  0  0
   -2.2936    0.0304   -1.1744 H   0  0  0  0  0  0  0  0  0  0  0  0
   -2.3150   -2.2132   -1.4186 H   0  0  0  0  0  0  0  0  0  0  0  0
   -1.2055   -2.6480   -0.1269 H   0  0  0  0  0  0  0  0  0  0  0  0
   -2.8019   -2.5401    1.3434 H   0  0  0  0  0  0  0  0  0  0  0  0
   -4.2828   -0.3882   -0.0208 H   0  0  0  0  0  0  0  0  0  0  0  0
   -4.2654   -0.9820    1.7272 H   0  0  0  0  0  0  0  0  0  0  0  0
   -1.7826   -0.4709    1.7687 H   0  0  0  0  0  0  0  0  0  0  0  0
   -3.3360    1.9259    0.8504 H   0  0  0  0  0  0  0  0  0  0  0  0
    3.1898    1.5319   -0.3524 H   0  0  0  0  0  0  0  0  0  0  0  0
    2.5157    3.3617    0.8136 H   0  0  0  0  0  0  0  0  0  0  0  0
    1.2469    3.0310    2.0130 H   0  0  0  0  0  0  0  0  0  0  0  0
    0.8788    3.9545    0.4445 H   0  0  0  0  0  0  0  0  0  0  0  0
  1  2  1  0
  2  3  1  0
  3  4  2  0
  4  5  1  0
  5  6  1  0
  6  7  1  0
  7  8  1  0
  8  9  1  0
  9 10  1  0
 10 11  1  0
 11 12  1  0
 12 13  2  0
 12 14  1  0
 14 15  1  0
 15 16  2  0
 15 17  1  0
 16  3  1  0
 14  5  2  0
 10  6  1  0
  1 18  1  0
  1 19  1  0
  1 20  1  0
  2 21  1  0
  2 22  1  0
  4 23  1  0
  6 24  1  6
  7 25  1  0
  7 26  1  0
  8 27  1  0
  9 28  1  0
  9 29  1  0
 10 30  1  1
 11 31  1  0
 16 32  1  0
 17 33  1  0
 17 34  1  0
 17 35  1  0
M  END
>  <Ligand ID>  (1) 
LIG0004104

>  <Ligand>  (1) 
CHEMBL2337504

>  <SMILES>  (1) 
CCc1cc2[C@H]3CNC[C@@H]3NC(=O)c2c(c1)C

>  <CID>  (1) 
11579853.0

>  <ChEMBL ID>  (1) 
nan

>  <InChiKey>  (1) 
ZRHBFDMVKCPMBT-NEPJUHHUSA-N

>  <InChi>  (1) 
InChI=1S/C14H18N2O/c1-3-9-4-8(2)13-10(5-9)11-6-15-7-12(11)16-14(13)17/h4-5,11-12,15H,3,6-7H2,1-2H3,(H,16,17)/t11-,12+/m1/s1

>  <IUPAC Name>  (1) 
(3aR,9bS)-8-ethyl-6-methyl-1,2,3,3a,4,9b-hexahydropyrrolo[3,4-c]isoquinolin-5-one

$$$$
