
     RDKit          3D

 60 62  0  0  0  0  0  0  0  0999 V2000
    5.1884    2.8221    1.4758 O   0  0  0  0  0  0  0  0  0  0  0  0
    5.4114    1.5481    0.9029 C   0  0  2  0  0  0  0  0  0  0  0  0
    5.9632    1.7298   -0.4900 C   0  0  0  0  0  0  0  0  0  0  0  0
    6.2047    0.5295   -1.1354 O   0  0  0  0  0  0  0  0  0  0  0  0
    7.0461   -0.5024   -0.8696 C   0  0  0  0  0  0  0  0  0  0  0  0
    7.0152   -1.5893   -1.7354 C   0  0  0  0  0  0  0  0  0  0  0  0
    7.8138   -2.6960   -1.5832 C   0  0  0  0  0  0  0  0  0  0  0  0
    8.6949   -2.7664   -0.5395 C   0  0  0  0  0  0  0  0  0  0  0  0
    8.7469   -1.7073    0.3307 C   0  0  0  0  0  0  0  0  0  0  0  0
    7.9360   -0.5872    0.1732 C   0  0  0  0  0  0  0  0  0  0  0  0
    4.0072    0.9505    0.6928 C   0  0  0  0  0  0  0  0  0  0  0  0
    3.3401    1.8708   -0.1870 N   0  0  0  0  0  0  0  0  0  0  0  0
    2.0167    1.4813   -0.5459 C   0  0  0  0  0  0  0  0  0  0  0  0
    1.0059    1.5024    0.5574 C   0  0  0  0  0  0  0  0  0  0  0  0
   -0.3303    1.0651    0.0079 C   0  0  0  0  0  0  0  0  0  0  0  0
   -1.1852    2.0481   -0.4933 C   0  0  0  0  0  0  0  0  0  0  0  0
   -2.3974    1.6237   -0.9941 C   0  0  0  0  0  0  0  0  0  0  0  0
   -2.7655    0.2761   -1.0057 C   0  0  0  0  0  0  0  0  0  0  0  0
   -1.9126   -0.6808   -0.5085 C   0  0  0  0  0  0  0  0  0  0  0  0
   -0.6967   -0.2685   -0.0042 C   0  0  0  0  0  0  0  0  0  0  0  0
   -4.0460   -0.0120   -1.5528 N   0  0  0  0  0  0  0  0  0  0  0  0
   -5.2330   -0.0695   -0.7535 C   0  0  0  0  0  0  0  0  0  0  0  0
   -5.1975    0.1327    0.4912 O   0  0  0  0  0  0  0  0  0  0  0  0
   -6.4961   -0.3801   -1.4844 C   0  0  0  0  0  0  0  0  0  0  0  0
   -7.5803   -0.4023   -0.4592 C   0  0  0  0  0  0  0  0  0  0  0  0
   -8.4298    0.6449   -0.3404 N   0  0  0  0  0  0  0  0  0  0  0  0
   -9.4142    0.6725    0.5670 C   0  0  0  0  0  0  0  0  0  0  0  0
   -9.5309   -0.4415    1.4000 C   0  0  0  0  0  0  0  0  0  0  0  0
   -8.6829   -1.5219    1.3040 C   0  0  0  0  0  0  0  0  0  0  0  0
   -7.6922   -1.5044    0.3612 C   0  0  0  0  0  0  0  0  0  0  0  0
   -6.7990   -2.6846    0.2788 C   0  0  0  0  0  0  0  0  0  0  0  0
    4.4657    2.7584    2.1533 H   0  0  0  0  0  0  0  0  0  0  0  0
    5.9987    0.9491    1.5837 H   0  0  0  0  0  0  0  0  0  0  0  0
    5.1399    2.2469   -1.0749 H   0  0  0  0  0  0  0  0  0  0  0  0
    6.8706    2.3825   -0.4884 H   0  0  0  0  0  0  0  0  0  0  0  0
    6.3368   -1.5925   -2.5819 H   0  0  0  0  0  0  0  0  0  0  0  0
    7.7425   -3.5160   -2.2950 H   0  0  0  0  0  0  0  0  0  0  0  0
    9.3049   -3.6530   -0.4550 H   0  0  0  0  0  0  0  0  0  0  0  0
    9.4455   -1.7631    1.1593 H   0  0  0  0  0  0  0  0  0  0  0  0
    8.0510    0.1904    0.8842 H   0  0  0  0  0  0  0  0  0  0  0  0
    4.1493   -0.0263    0.1993 H   0  0  0  0  0  0  0  0  0  0  0  0
    3.4856    0.8085    1.6534 H   0  0  0  0  0  0  0  0  0  0  0  0
    3.4155    2.8364    0.1437 H   0  0  0  0  0  0  0  0  0  0  0  0
    1.9953    0.4966   -1.0723 H   0  0  0  0  0  0  0  0  0  0  0  0
    1.6639    2.2074   -1.3275 H   0  0  0  0  0  0  0  0  0  0  0  0
    1.3314    0.7821    1.3495 H   0  0  0  0  0  0  0  0  0  0  0  0
    0.8587    2.5000    0.9749 H   0  0  0  0  0  0  0  0  0  0  0  0
   -0.8978    3.0973   -0.4839 H   0  0  0  0  0  0  0  0  0  0  0  0
   -3.0582    2.3992   -1.3831 H   0  0  0  0  0  0  0  0  0  0  0  0
   -2.2214   -1.7099   -0.5288 H   0  0  0  0  0  0  0  0  0  0  0  0
   -0.0173   -1.0374    0.3940 H   0  0  0  0  0  0  0  0  0  0  0  0
   -4.0644   -0.1834   -2.5944 H   0  0  0  0  0  0  0  0  0  0  0  0
   -6.3938   -1.3468   -1.9998 H   0  0  0  0  0  0  0  0  0  0  0  0
   -6.6393    0.4501   -2.1954 H   0  0  0  0  0  0  0  0  0  0  0  0
  -10.1096    1.5212    0.6688 H   0  0  0  0  0  0  0  0  0  0  0  0
  -10.3200   -0.4111    2.1216 H   0  0  0  0  0  0  0  0  0  0  0  0
   -8.7995   -2.3824    1.9723 H   0  0  0  0  0  0  0  0  0  0  0  0
   -7.3041   -3.5149   -0.2908 H   0  0  0  0  0  0  0  0  0  0  0  0
   -5.8066   -2.4651   -0.1673 H   0  0  0  0  0  0  0  0  0  0  0  0
   -6.6243   -3.1076    1.3077 H   0  0  0  0  0  0  0  0  0  0  0  0
  1  2  1  0
  2  3  1  0
  3  4  1  0
  4  5  1  0
  5  6  2  0
  6  7  1  0
  7  8  2  0
  8  9  1  0
  9 10  2  0
  2 11  1  0
 11 12  1  0
 12 13  1  0
 13 14  1  0
 14 15  1  0
 15 16  2  0
 16 17  1  0
 17 18  2  0
 18 19  1  0
 19 20  2  0
 18 21  1  0
 21 22  1  0
 22 23  2  0
 22 24  1  0
 24 25  1  0
 25 26  2  0
 26 27  1  0
 27 28  2  0
 28 29  1  0
 29 30  2  0
 30 31  1  0
 10  5  1  0
 20 15  1  0
 30 25  1  0
  1 32  1  0
  2 33  1  1
  3 34  1  0
  3 35  1  0
  6 36  1  0
  7 37  1  0
  8 38  1  0
  9 39  1  0
 10 40  1  0
 11 41  1  0
 11 42  1  0
 12 43  1  0
 13 44  1  0
 13 45  1  0
 14 46  1  0
 14 47  1  0
 16 48  1  0
 17 49  1  0
 19 50  1  0
 20 51  1  0
 21 52  1  0
 24 53  1  0
 24 54  1  0
 27 55  1  0
 28 56  1  0
 29 57  1  0
 31 58  1  0
 31 59  1  0
 31 60  1  0
M  END
>  <Ligand ID>  (1) 
LIG0003675

>  <Ligand>  (1) 
CHEMBL466924

>  <SMILES>  (1) 
O[C@H](COc1ccccc1)CNCCc1ccc(cc1)NC(=O)Cc1ncccc1C

>  <CID>  (1) 
44574721.0

>  <ChEMBL ID>  (1) 
nan

>  <InChiKey>  (1) 
VMMOGXPDAWGYDP-QFIPXVFZSA-N

>  <InChi>  (1) 
InChI=1S/C25H29N3O3/c1-19-6-5-14-27-24(19)16-25(30)28-21-11-9-20(10-12-21)13-15-26-17-22(29)18-31-23-7-3-2-4-8-23/h2-12,14,22,26,29H,13,15-18H2,1H3,(H,28,30)/t22-/m0/s1

>  <IUPAC Name>  (1) 
N-[4-[2-[[(2S)-2-hydroxy-3-phenoxypropyl]amino]ethyl]phenyl]-2-(3-methylpyridin-2-yl)acetamide

$$$$
