
     RDKit          3D

 56 58  0  0  0  0  0  0  0  0999 V2000
   -5.5176   -0.9823   -2.1890 O   0  0  0  0  0  0  0  0  0  0  0  0
   -5.0922   -1.7077   -1.0778 C   0  0  0  0  0  0  0  0  0  0  0  0
   -4.5219   -0.7726   -0.0352 C   0  0  0  0  0  0  0  0  0  0  0  0
   -5.6585    0.1604    0.3481 C   0  0  0  0  0  0  0  0  0  0  0  0
   -5.2564    1.0315    1.3319 O   0  0  0  0  0  0  0  0  0  0  0  0
   -6.5585    2.0291    1.7049 P   0  0  0  0  0  0  0  0  0  0  0  0
   -6.3423    2.6820    3.0497 O   0  0  0  0  0  0  0  0  0  0  0  0
   -6.7545    3.2514    0.5543 O   0  0  0  0  0  0  0  0  0  0  0  0
   -7.9681    1.0660    1.7588 O   0  0  0  0  0  0  0  0  0  0  0  0
   -4.0592   -1.5060    1.1924 C   0  0  0  0  0  0  0  0  0  0  0  0
   -2.9825   -2.5106    0.9731 C   0  0  0  0  0  0  0  0  0  0  0  0
   -1.7179   -1.9896    0.4466 C   0  0  0  0  0  0  0  0  0  0  0  0
   -0.7684   -1.5459    1.3717 C   0  0  0  0  0  0  0  0  0  0  0  0
    0.4557   -1.0446    0.9777 C   0  0  0  0  0  0  0  0  0  0  0  0
    0.7484   -0.9806   -0.3689 C   0  0  0  0  0  0  0  0  0  0  0  0
   -0.1556   -1.4062   -1.3193 C   0  0  0  0  0  0  0  0  0  0  0  0
   -1.3669   -1.8999   -0.8755 C   0  0  0  0  0  0  0  0  0  0  0  0
    2.0402   -0.4518   -0.7925 C   0  0  0  0  0  0  0  0  0  0  0  0
    2.4890   -0.3195   -2.0907 C   0  0  0  0  0  0  0  0  0  0  0  0
    3.6875    0.1902   -2.0546 O   0  0  0  0  0  0  0  0  0  0  0  0
    4.0458    0.3986   -0.7895 C   0  0  0  0  0  0  0  0  0  0  0  0
    3.0317    0.0031   -0.0163 N   0  0  0  0  0  0  0  0  0  0  0  0
    5.3299    0.9625   -0.3502 C   0  0  0  0  0  0  0  0  0  0  0  0
    5.6463    1.1557    0.9712 C   0  0  0  0  0  0  0  0  0  0  0  0
    6.8895    1.6981    1.3160 C   0  0  0  0  0  0  0  0  0  0  0  0
    7.8109    2.0448    0.3319 C   0  0  0  0  0  0  0  0  0  0  0  0
    7.4943    1.8514   -0.9932 C   0  0  0  0  0  0  0  0  0  0  0  0
    6.2709    1.3195   -1.2881 C   0  0  0  0  0  0  0  0  0  0  0  0
    9.0516    2.5838    0.6256 O   0  0  0  0  0  0  0  0  0  0  0  0
   10.1979    1.7465    0.8341 C   0  0  0  0  0  0  0  0  0  0  0  0
   10.4838    0.9813   -0.2677 F   0  0  0  0  0  0  0  0  0  0  0  0
    9.8172    0.8810    1.8556 F   0  0  0  0  0  0  0  0  0  0  0  0
   11.2987    2.4832    1.1601 F   0  0  0  0  0  0  0  0  0  0  0  0
   -3.4011   -0.0201   -0.5243 N   0  0  0  0  0  0  0  0  0  0  0  0
   -5.7060   -1.6436   -2.9075 H   0  0  0  0  0  0  0  0  0  0  0  0
   -4.3926   -2.4696   -1.4091 H   0  0  0  0  0  0  0  0  0  0  0  0
   -6.0379   -2.1439   -0.6521 H   0  0  0  0  0  0  0  0  0  0  0  0
   -5.9548    0.7002   -0.5950 H   0  0  0  0  0  0  0  0  0  0  0  0
   -6.5443   -0.4508    0.6121 H   0  0  0  0  0  0  0  0  0  0  0  0
   -7.0336    2.8303   -0.2974 H   0  0  0  0  0  0  0  0  0  0  0  0
   -7.7537    0.2716    2.3185 H   0  0  0  0  0  0  0  0  0  0  0  0
   -3.7532   -0.7054    1.9291 H   0  0  0  0  0  0  0  0  0  0  0  0
   -4.9699   -2.0204    1.5985 H   0  0  0  0  0  0  0  0  0  0  0  0
   -3.4221   -3.3133    0.3262 H   0  0  0  0  0  0  0  0  0  0  0  0
   -2.8418   -3.0359    1.9640 H   0  0  0  0  0  0  0  0  0  0  0  0
   -0.9935   -1.5937    2.4393 H   0  0  0  0  0  0  0  0  0  0  0  0
    1.1484   -0.7165    1.7517 H   0  0  0  0  0  0  0  0  0  0  0  0
    0.1023   -1.3437   -2.3683 H   0  0  0  0  0  0  0  0  0  0  0  0
   -2.0576   -2.2294   -1.6337 H   0  0  0  0  0  0  0  0  0  0  0  0
    1.9556   -0.5858   -2.9902 H   0  0  0  0  0  0  0  0  0  0  0  0
    4.9217    0.8828    1.7388 H   0  0  0  0  0  0  0  0  0  0  0  0
    7.1571    1.8576    2.3468 H   0  0  0  0  0  0  0  0  0  0  0  0
    8.2037    2.1166   -1.7879 H   0  0  0  0  0  0  0  0  0  0  0  0
    6.0496    1.1780   -2.3559 H   0  0  0  0  0  0  0  0  0  0  0  0
   -3.4124    0.1943   -1.5264 H   0  0  0  0  0  0  0  0  0  0  0  0
   -3.3329    0.8381    0.0963 H   0  0  0  0  0  0  0  0  0  0  0  0
  1  2  1  0
  2  3  1  0
  3  4  1  0
  4  5  1  0
  5  6  1  0
  6  7  2  0
  6  8  1  0
  6  9  1  0
  3 10  1  0
 10 11  1  0
 11 12  1  0
 12 13  2  0
 13 14  1  0
 14 15  2  0
 15 16  1  0
 16 17  2  0
 15 18  1  0
 18 19  2  0
 19 20  1  0
 20 21  1  0
 21 22  2  0
 21 23  1  0
 23 24  2  0
 24 25  1  0
 25 26  2  0
 26 27  1  0
 27 28  2  0
 26 29  1  0
 29 30  1  0
 30 31  1  0
 30 32  1  0
 30 33  1  0
  3 34  1  0
 17 12  1  0
 22 18  1  0
 28 23  1  0
  1 35  1  0
  2 36  1  0
  2 37  1  0
  4 38  1  0
  4 39  1  0
  8 40  1  0
  9 41  1  0
 10 42  1  0
 10 43  1  0
 11 44  1  0
 11 45  1  0
 13 46  1  0
 14 47  1  0
 16 48  1  0
 17 49  1  0
 19 50  1  0
 24 51  1  0
 25 52  1  0
 27 53  1  0
 28 54  1  0
 34 55  1  0
 34 56  1  0
M  END
>  <Ligand ID>  (1) 
LIG0005924

>  <Ligand>  (1) 
CHEMBL3341922

>  <SMILES>  (1) 
OCC(COP(=O)(O)O)(CCc1ccc(cc1)c1coc(n1)c1ccc(cc1)OC(F)(F)F)N

>  <CID>  (1) 
118716144.0

>  <ChEMBL ID>  (1) 
nan

>  <InChiKey>  (1) 
XPFFOKDJCDPXEG-UHFFFAOYSA-N

>  <InChi>  (1) 
InChI=1S/C21H22F3N2O7P/c22-21(23,24)33-17-7-5-16(6-8-17)19-26-18(11-31-19)15-3-1-14(2-4-15)9-10-20(25,12-27)13-32-34(28,29)30/h1-8,11,27H,9-10,12-13,25H2,(H2,28,29,30)

>  <IUPAC Name>  (1) 
[2-amino-2-(hydroxymethyl)-4-[4-[2-[4-(trifluoromethoxy)phenyl]-1,3-oxazol-4-yl]phenyl]butyl] dihydrogen phosphate

$$$$
