
     RDKit          3D

 69 71  0  0  0  0  0  0  0  0999 V2000
   -9.9119    2.5731    0.2896 O   0  0  0  0  0  0  0  0  0  0  0  0
   -8.5652    2.4024    0.6712 C   0  0  0  0  0  0  0  0  0  0  0  0
   -7.9379    1.2880   -0.1791 C   0  0  1  0  0  0  0  0  0  0  0  0
   -6.6537    1.1448    0.2042 O   0  0  0  0  0  0  0  0  0  0  0  0
   -6.2309   -0.0884    0.6145 C   0  0  2  0  0  0  0  0  0  0  0  0
   -5.8867   -0.8449   -0.4823 O   0  0  0  0  0  0  0  0  0  0  0  0
   -4.3266   -1.4839   -0.4177 P   0  0  0  0  0  0  0  0  0  0  0  0
   -4.4970   -2.9313    0.0539 O   0  0  0  0  0  0  0  0  0  0  0  0
   -3.3432   -0.7388    0.7050 O   0  0  0  0  0  0  0  0  0  0  0  0
   -2.2213    0.3171    0.0712 P   0  0  0  0  0  0  0  0  0  0  0  0
   -2.8346    1.5902   -0.4497 O   0  0  0  0  0  0  0  0  0  0  0  0
   -1.2564   -0.3261   -1.1373 O   0  0  0  0  0  0  0  0  0  0  0  0
   -0.4226   -1.7032   -0.7012 P   0  0  0  0  0  0  0  0  0  0  0  0
   -0.7178   -2.7624   -1.7630 O   0  0  0  0  0  0  0  0  0  0  0  0
    1.2549   -1.4051   -0.8423 O   0  0  0  0  0  0  0  0  0  0  0  0
    2.0842   -1.7596    0.5680 P   0  0  0  0  0  0  0  0  0  0  0  0
    1.1163   -1.5372    1.7308 O   0  0  0  0  0  0  0  0  0  0  0  0
    3.4554   -0.8014    0.7904 O   0  0  0  0  0  0  0  0  0  0  0  0
    3.7823   -0.0915   -0.3623 C   0  0  0  0  0  0  0  0  0  0  0  0
    5.0181    0.7379   -0.0777 C   0  0  1  0  0  0  0  0  0  0  0  0
    6.1048   -0.0304    0.2834 O   0  0  0  0  0  0  0  0  0  0  0  0
    7.1209    0.9454    0.3270 C   0  0  2  0  0  0  0  0  0  0  0  0
    6.9204    1.8284   -0.8837 C   0  0  1  0  0  0  0  0  0  0  0  0
    5.5208    1.4162   -1.3330 C   0  0  2  0  0  0  0  0  0  0  0  0
    4.7263    2.5293   -1.6286 O   0  0  0  0  0  0  0  0  0  0  0  0
    6.8564    3.1598   -0.4926 O   0  0  0  0  0  0  0  0  0  0  0  0
    8.4039    0.3055    0.2805 N   0  0  0  0  0  0  0  0  0  0  0  0
    8.6375   -0.9390   -0.1276 C   0  0  0  0  0  0  0  0  0  0  0  0
    9.9126   -1.4874   -0.1427 C   0  0  0  0  0  0  0  0  0  0  0  0
   10.9845   -0.7273    0.2773 C   0  0  0  0  0  0  0  0  0  0  0  0
   12.1669   -1.1380    0.2980 O   0  0  0  0  0  0  0  0  0  0  0  0
   10.7288    0.5223    0.6842 N   0  0  0  0  0  0  0  0  0  0  0  0
    9.4721    1.0475    0.6937 C   0  0  0  0  0  0  0  0  0  0  0  0
    9.3339    2.2366    1.0956 O   0  0  0  0  0  0  0  0  0  0  0  0
    2.5420   -3.3768    0.5565 O   0  0  0  0  0  0  0  0  0  0  0  0
   -0.7877   -2.2860    0.8199 O   0  0  0  0  0  0  0  0  0  0  0  0
   -1.1938    0.7769    1.3599 O   0  0  0  0  0  0  0  0  0  0  0  0
   -3.6346   -1.5928   -1.9561 O   0  0  0  0  0  0  0  0  0  0  0  0
   -7.3452   -0.8515    1.3410 C   0  0  1  0  0  0  0  0  0  0  0  0
   -8.2929   -1.1823    0.1827 C   0  0  2  0  0  0  0  0  0  0  0  0
   -8.8348    0.1354   -0.2847 C   0  0  2  0  0  0  0  0  0  0  0  0
   -9.3613   -0.0561   -1.5653 O   0  0  0  0  0  0  0  0  0  0  0  0
   -9.2591   -2.0768    0.5197 F   0  0  0  0  0  0  0  0  0  0  0  0
   -6.8470   -1.9679    1.9657 O   0  0  0  0  0  0  0  0  0  0  0  0
  -10.5066    2.2664    1.0198 H   0  0  0  0  0  0  0  0  0  0  0  0
   -8.4608    2.2341    1.7444 H   0  0  0  0  0  0  0  0  0  0  0  0
   -8.0558    3.3488    0.4133 H   0  0  0  0  0  0  0  0  0  0  0  0
   -7.9019    1.7705   -1.2027 H   0  0  0  0  0  0  0  0  0  0  0  0
   -5.3954   -0.0544    1.3279 H   0  0  0  0  0  0  0  0  0  0  0  0
    2.9478    0.6099   -0.5580 H   0  0  0  0  0  0  0  0  0  0  0  0
    3.9539   -0.8007   -1.1771 H   0  0  0  0  0  0  0  0  0  0  0  0
    4.8257    1.4568    0.7188 H   0  0  0  0  0  0  0  0  0  0  0  0
    6.9893    1.4959    1.2671 H   0  0  0  0  0  0  0  0  0  0  0  0
    7.6804    1.6680   -1.6652 H   0  0  0  0  0  0  0  0  0  0  0  0
    5.5588    0.6906   -2.1680 H   0  0  0  0  0  0  0  0  0  0  0  0
    3.8010    2.3694   -1.3385 H   0  0  0  0  0  0  0  0  0  0  0  0
    5.9306    3.4693   -0.4210 H   0  0  0  0  0  0  0  0  0  0  0  0
    7.7936   -1.5365   -0.4580 H   0  0  0  0  0  0  0  0  0  0  0  0
   10.1238   -2.4881   -0.4676 H   0  0  0  0  0  0  0  0  0  0  0  0
   11.5125    1.1305    1.0098 H   0  0  0  0  0  0  0  0  0  0  0  0
    1.7586   -3.9449    0.8208 H   0  0  0  0  0  0  0  0  0  0  0  0
   -1.2288   -1.5834    1.3369 H   0  0  0  0  0  0  0  0  0  0  0  0
   -1.7094    1.0656    2.1465 H   0  0  0  0  0  0  0  0  0  0  0  0
   -3.7473   -0.7624   -2.4767 H   0  0  0  0  0  0  0  0  0  0  0  0
   -7.9149   -0.1627    2.0063 H   0  0  0  0  0  0  0  0  0  0  0  0
   -7.6530   -1.6192   -0.6131 H   0  0  0  0  0  0  0  0  0  0  0  0
   -9.7468    0.3131    0.3584 H   0  0  0  0  0  0  0  0  0  0  0  0
   -8.8318    0.5308   -2.1619 H   0  0  0  0  0  0  0  0  0  0  0  0
   -7.5041   -2.2381    2.6830 H   0  0  0  0  0  0  0  0  0  0  0  0
  1  2  1  0
  2  3  1  0
  3  4  1  0
  4  5  1  0
  5  6  1  0
  6  7  1  0
  7  8  2  0
  7  9  1  0
  9 10  1  0
 10 11  2  0
 10 12  1  0
 12 13  1  0
 13 14  2  0
 13 15  1  0
 15 16  1  0
 16 17  2  0
 16 18  1  0
 18 19  1  0
 19 20  1  0
 20 21  1  0
 21 22  1  0
 22 23  1  0
 23 24  1  0
 24 25  1  0
 23 26  1  0
 22 27  1  0
 27 28  1  0
 28 29  2  0
 29 30  1  0
 30 31  2  0
 30 32  1  0
 32 33  1  0
 33 34  2  0
 16 35  1  0
 13 36  1  0
 10 37  1  0
  7 38  1  0
  5 39  1  0
 39 40  1  0
 40 41  1  0
 41 42  1  0
 40 43  1  0
 39 44  1  0
 41  3  1  0
 24 20  1  0
 33 27  1  0
  1 45  1  0
  2 46  1  0
  2 47  1  0
  3 48  1  6
  5 49  1  1
 19 50  1  0
 19 51  1  0
 20 52  1  1
 22 53  1  1
 23 54  1  6
 24 55  1  6
 25 56  1  0
 26 57  1  0
 28 58  1  0
 29 59  1  0
 32 60  1  0
 35 61  1  0
 36 62  1  0
 37 63  1  0
 38 64  1  0
 39 65  1  1
 40 66  1  6
 41 67  1  1
 42 68  1  0
 44 69  1  0
M  END
>  <Ligand ID>  (1) 
LIG0002823

>  <Ligand>  (1) 
CHEMBL1784904

>  <SMILES>  (1) 
OC[C@H]1O[C@H](OP(=O)(OP(=O)(OP(=O)(OP(=O)(OC[C@H]2O[C@H]([C@@H]([C@@H]2O)O)n2ccc(=O)[nH]c2=O)O)O)O)O)[C@@H]([C@H]([C@@H]1O)F)O

>  <CID>  (1) 
53262904.0

>  <ChEMBL ID>  (1) 
nan

>  <InChiKey>  (1) 
IDFAEUCMIWFSPP-SAINOKEESA-N

>  <InChi>  (1) 
InChI=1S/C15H25FN2O22P4/c16-8-9(21)5(3-19)36-14(11(8)23)37-42(28,29)39-44(32,33)40-43(30,31)38-41(26,27)34-4-6-10(22)12(24)13(35-6)18-2-1-7(20)17-15(18)25/h1-2,5-6,8-14,19,21-24H,3-4H2,(H,26,27)(H,28,29)(H,30,31)(H,32,33)(H,17,20,25)/t5-,6-,8+,9-,10-,11-,12-,13-,14-/m1/s1

>  <IUPAC Name>  (1) 
[[(2R,3S,4R,5R)-5-(2,4-dioxopyrimidin-1-yl)-3,4-dihydroxyoxolan-2-yl]methoxy-hydroxyphosphoryl] [[[(2R,3S,4S,5R,6R)-4-fluoro-3,5-dihydroxy-6-(hydroxymethyl)oxan-2-yl]oxy-hydroxyphosphoryl]oxy-hydroxyphosphoryl] hydrogen phosphate

$$$$
