
     RDKit          3D

 29 30  0  0  0  0  0  0  0  0999 V2000
   -5.1180    0.5527    0.9222 F   0  0  0  0  0  0  0  0  0  0  0  0
   -3.9194    0.3590    0.2335 C   0  0  0  0  0  0  0  0  0  0  0  0
   -2.9681   -0.3877    1.1239 C   0  0  0  0  0  0  0  0  0  0  0  0
   -1.6716   -0.6150    0.3965 C   0  0  0  0  0  0  0  0  0  0  0  0
   -0.9820    0.6640   -0.0319 C   0  0  0  0  0  0  0  0  0  0  0  0
    0.2804    0.3035   -0.6845 C   0  0  0  0  0  0  0  0  0  0  0  0
    0.2377    0.1585   -2.0852 C   0  0  0  0  0  0  0  0  0  0  0  0
    1.3559   -0.2377   -2.7863 C   0  0  0  0  0  0  0  0  0  0  0  0
    1.2511   -0.3496   -4.0505 O   0  0  0  0  0  0  0  0  0  0  0  0
    2.4824   -0.4861   -2.1552 O   0  0  0  0  0  0  0  0  0  0  0  0
    2.5579   -0.3596   -0.8511 C   0  0  0  0  0  0  0  0  0  0  0  0
    1.4689    0.0343   -0.0972 C   0  0  0  0  0  0  0  0  0  0  0  0
    1.5993    0.1605    1.2623 C   0  0  0  0  0  0  0  0  0  0  0  0
    0.6840    0.5140    2.0313 O   0  0  0  0  0  0  0  0  0  0  0  0
    2.7945   -0.1116    1.8085 N   0  0  0  0  0  0  0  0  0  0  0  0
    3.8492   -0.4988    1.0549 C   0  0  0  0  0  0  0  0  0  0  0  0
    4.9222   -0.7299    1.6644 O   0  0  0  0  0  0  0  0  0  0  0  0
    3.7544   -0.6300   -0.2811 N   0  0  0  0  0  0  0  0  0  0  0  0
   -4.2003   -0.4007   -0.8662 F   0  0  0  0  0  0  0  0  0  0  0  0
   -3.4780    1.3492   -0.0444 H   0  0  0  0  0  0  0  0  0  0  0  0
   -3.4179   -1.4107    1.3088 H   0  0  0  0  0  0  0  0  0  0  0  0
   -2.8145    0.1062    2.1135 H   0  0  0  0  0  0  0  0  0  0  0  0
   -1.0016   -1.1703    1.0663 H   0  0  0  0  0  0  0  0  0  0  0  0
   -1.9120   -1.2490   -0.5074 H   0  0  0  0  0  0  0  0  0  0  0  0
   -0.9144    1.2849    0.8793 H   0  0  0  0  0  0  0  0  0  0  0  0
   -1.6370    1.2082   -0.7906 H   0  0  0  0  0  0  0  0  0  0  0  0
   -0.6872    0.3598   -2.6297 H   0  0  0  0  0  0  0  0  0  0  0  0
    2.9159   -0.0217    2.8508 H   0  0  0  0  0  0  0  0  0  0  0  0
    4.5683   -0.9271   -0.8550 H   0  0  0  0  0  0  0  0  0  0  0  0
  1  2  1  0
  2  3  1  0
  3  4  1  0
  4  5  1  0
  5  6  1  0
  6  7  2  0
  7  8  1  0
  8  9  2  0
  8 10  1  0
 10 11  1  0
 11 12  2  0
 12 13  1  0
 13 14  2  0
 13 15  1  0
 15 16  1  0
 16 17  2  0
 16 18  1  0
  2 19  1  0
 12  6  1  0
 18 11  1  0
  2 20  1  0
  3 21  1  0
  3 22  1  0
  4 23  1  0
  4 24  1  0
  5 25  1  0
  5 26  1  0
  7 27  1  0
 15 28  1  0
 18 29  1  0
M  END
>  <Ligand ID>  (1) 
LIG0001212

>  <Ligand>  (1) 
CHEMBL2036951

>  <SMILES>  (1) 
FC(CCCc1cc(=O)oc2c1c(=O)[nH]c(=O)[nH]2)F

>  <CID>  (1) 
59343664.0

>  <ChEMBL ID>  (1) 
nan

>  <InChiKey>  (1) 
CXWCPIWRMMMGLD-UHFFFAOYSA-N

>  <InChi>  (1) 
InChI=1S/C11H10F2N2O4/c12-6(13)3-1-2-5-4-7(16)19-10-8(5)9(17)14-11(18)15-10/h4,6H,1-3H2,(H2,14,15,17,18)

>  <IUPAC Name>  (1) 
5-(4,4-difluorobutyl)-1H-pyrano[2,3-d]pyrimidine-2,4,7-trione

$$$$
