
     RDKit          3D

 18 19  0  0  0  0  0  0  0  0999 V2000
   -1.6142    1.6249   -1.5582 O   0  0  0  0  0  0  0  0  0  0  0  0
   -1.0315    0.8812   -0.7826 C   0  0  0  0  0  0  0  0  0  0  0  0
   -1.4075   -0.5193   -0.4160 C   0  0  0  0  0  0  0  0  0  0  0  0
   -0.3214   -0.9237    0.5525 C   0  0  0  0  0  0  0  0  0  0  0  0
   -0.1120    0.4192    1.2683 C   0  0  0  0  0  0  0  0  0  0  0  0
    0.2057    1.2006   -0.0111 C   0  0  0  0  0  0  0  0  0  0  0  0
    1.3723    0.3940   -0.5207 C   0  0  0  0  0  0  0  0  0  0  0  0
    0.9576   -1.0442   -0.2040 C   0  0  0  0  0  0  0  0  0  0  0  0
   -2.3613   -0.5555    0.1588 H   0  0  0  0  0  0  0  0  0  0  0  0
   -1.4583   -1.1765   -1.2954 H   0  0  0  0  0  0  0  0  0  0  0  0
   -0.5689   -1.7412    1.2067 H   0  0  0  0  0  0  0  0  0  0  0  0
   -1.0768    0.7885    1.6620 H   0  0  0  0  0  0  0  0  0  0  0  0
    0.7161    0.3995    1.9685 H   0  0  0  0  0  0  0  0  0  0  0  0
    0.3726    2.2485    0.1547 H   0  0  0  0  0  0  0  0  0  0  0  0
    1.5835    0.5520   -1.5759 H   0  0  0  0  0  0  0  0  0  0  0  0
    2.2280    0.6286    0.1201 H   0  0  0  0  0  0  0  0  0  0  0  0
    0.7801   -1.6247   -1.1424 H   0  0  0  0  0  0  0  0  0  0  0  0
    1.7359   -1.5518    0.4148 H   0  0  0  0  0  0  0  0  0  0  0  0
  1  2  2  0
  2  3  1  0
  3  4  1  0
  4  5  1  0
  5  6  1  0
  6  7  1  0
  7  8  1  0
  6  2  1  0
  8  4  1  0
  3  9  1  0
  3 10  1  0
  4 11  1  0
  5 12  1  0
  5 13  1  0
  6 14  1  0
  7 15  1  0
  7 16  1  0
  8 17  1  0
  8 18  1  0
M  END
>  <Ligand ID>  (1) 
LIG0000766

>  <Ligand>  (1) 
Norcamphor

>  <SMILES>  (1) 
O=C1CC2CC1CC2

>  <CID>  (1) 
10345.0

>  <ChEMBL ID>  (1) 
nan

>  <InChiKey>  (1) 
KPMKEVXVVHNIEY-UHFFFAOYSA-N

>  <InChi>  (1) 
InChI=1S/C7H10O/c8-7-4-5-1-2-6(7)3-5/h5-6H,1-4H2

>  <IUPAC Name>  (1) 
bicyclo[2.2.1]heptan-2-one

$$$$
