
     RDKit          3D

 48 50  0  0  0  0  0  0  0  0999 V2000
    3.0907   -3.8598    0.5097 C   0  0  0  0  0  0  0  0  0  0  0  0
    3.7413   -2.6011    0.3449 O   0  0  0  0  0  0  0  0  0  0  0  0
    3.0002   -1.4756    0.0045 C   0  0  0  0  0  0  0  0  0  0  0  0
    1.6251   -1.5638   -0.1781 C   0  0  0  0  0  0  0  0  0  0  0  0
    0.9558   -0.3840   -0.5193 C   0  0  0  0  0  0  0  0  0  0  0  0
   -0.5132   -0.3984   -0.7307 C   0  0  0  0  0  0  0  0  0  0  0  0
   -1.2676   -0.1231    0.5501 C   0  0  0  0  0  0  0  0  0  0  0  0
   -0.9027    1.1753    1.0668 N   0  0  0  0  0  0  0  0  0  0  0  0
   -1.5274    2.2665    0.3709 C   0  0  0  0  0  0  0  0  0  0  0  0
   -2.9766    2.2961    0.8404 C   0  0  0  0  0  0  0  0  0  0  0  0
   -3.5416    0.9652    0.4729 C   0  0  0  0  0  0  0  0  0  0  0  0
   -2.7363   -0.1459    0.3423 C   0  0  0  0  0  0  0  0  0  0  0  0
   -3.3026   -1.3744   -0.0031 C   0  0  0  0  0  0  0  0  0  0  0  0
   -4.6822   -1.4539   -0.2108 C   0  0  0  0  0  0  0  0  0  0  0  0
   -5.2823   -2.6753   -0.5594 O   0  0  0  0  0  0  0  0  0  0  0  0
   -5.4993   -0.3497   -0.0833 C   0  0  0  0  0  0  0  0  0  0  0  0
   -4.9078    0.8501    0.2593 C   0  0  0  0  0  0  0  0  0  0  0  0
   -6.8718   -0.4023   -0.2842 O   0  0  0  0  0  0  0  0  0  0  0  0
    1.6724    0.8080   -0.6607 C   0  0  0  0  0  0  0  0  0  0  0  0
    3.0233    0.8760   -0.4775 C   0  0  0  0  0  0  0  0  0  0  0  0
    3.6895   -0.2941   -0.1388 C   0  0  0  0  0  0  0  0  0  0  0  0
    5.0705   -0.2530    0.0543 O   0  0  0  0  0  0  0  0  0  0  0  0
    5.6801    0.0020    1.2861 C   0  0  0  0  0  0  0  0  0  0  0  0
    3.7591    2.0229   -0.6068 O   0  0  0  0  0  0  0  0  0  0  0  0
    3.2130    3.2688   -0.9437 C   0  0  0  0  0  0  0  0  0  0  0  0
    2.4858   -4.0974   -0.3822 H   0  0  0  0  0  0  0  0  0  0  0  0
    2.4451   -3.8973    1.3957 H   0  0  0  0  0  0  0  0  0  0  0  0
    3.8381   -4.6620    0.5940 H   0  0  0  0  0  0  0  0  0  0  0  0
    1.1024   -2.4802   -0.0652 H   0  0  0  0  0  0  0  0  0  0  0  0
   -0.8777   -1.3087   -1.2436 H   0  0  0  0  0  0  0  0  0  0  0  0
   -0.7278    0.4338   -1.4499 H   0  0  0  0  0  0  0  0  0  0  0  0
   -0.9908   -0.8850    1.3121 H   0  0  0  0  0  0  0  0  0  0  0  0
    0.0944    1.2803    1.2741 H   0  0  0  0  0  0  0  0  0  0  0  0
   -1.0120    3.2096    0.5508 H   0  0  0  0  0  0  0  0  0  0  0  0
   -1.5901    2.1361   -0.7307 H   0  0  0  0  0  0  0  0  0  0  0  0
   -3.5451    3.0549    0.2479 H   0  0  0  0  0  0  0  0  0  0  0  0
   -3.0636    2.5485    1.8952 H   0  0  0  0  0  0  0  0  0  0  0  0
   -2.6659   -2.2590   -0.1077 H   0  0  0  0  0  0  0  0  0  0  0  0
   -5.1249   -3.4622    0.0599 H   0  0  0  0  0  0  0  0  0  0  0  0
   -5.5144    1.7356    0.3683 H   0  0  0  0  0  0  0  0  0  0  0  0
   -7.3435   -1.2663   -0.1482 H   0  0  0  0  0  0  0  0  0  0  0  0
    1.1110    1.6952   -0.9257 H   0  0  0  0  0  0  0  0  0  0  0  0
    6.6540    0.5279    1.1094 H   0  0  0  0  0  0  0  0  0  0  0  0
    5.0410    0.5964    1.9416 H   0  0  0  0  0  0  0  0  0  0  0  0
    5.9796   -0.9810    1.7181 H   0  0  0  0  0  0  0  0  0  0  0  0
    2.3107    3.2077   -1.5860 H   0  0  0  0  0  0  0  0  0  0  0  0
    3.9761    3.8424   -1.5392 H   0  0  0  0  0  0  0  0  0  0  0  0
    2.9081    3.8542   -0.0474 H   0  0  0  0  0  0  0  0  0  0  0  0
  1  2  1  0
  2  3  1  0
  3  4  2  0
  4  5  1  0
  5  6  1  0
  6  7  1  0
  7  8  1  0
  8  9  1  0
  9 10  1  0
 10 11  1  0
 11 12  2  0
 12 13  1  0
 13 14  2  0
 14 15  1  0
 14 16  1  0
 16 17  2  0
 16 18  1  0
  5 19  2  0
 19 20  1  0
 20 21  2  0
 21 22  1  0
 22 23  1  0
 20 24  1  0
 24 25  1  0
 21  3  1  0
 12  7  1  0
 17 11  1  0
  1 26  1  0
  1 27  1  0
  1 28  1  0
  4 29  1  0
  6 30  1  0
  6 31  1  0
  7 32  1  0
  8 33  1  0
  9 34  1  0
  9 35  1  0
 10 36  1  0
 10 37  1  0
 13 38  1  0
 15 39  1  0
 17 40  1  0
 18 41  1  0
 19 42  1  0
 23 43  1  0
 23 44  1  0
 23 45  1  0
 25 46  1  0
 25 47  1  0
 25 48  1  0
M  END
>  <Ligand ID>  (1) 
LIG0002008

>  <Ligand>  (1) 
Inolin

>  <SMILES>  (1) 
COc1cc(CC2NCCc3c2cc(O)c(c3)O)cc(c1OC)OC

>  <CID>  (1) 
5581.0

>  <ChEMBL ID>  (1) 
nan

>  <InChiKey>  (1) 
RGVPOXRFEPSFGH-UHFFFAOYSA-N

>  <InChi>  (1) 
InChI=1S/C19H23NO5/c1-23-17-7-11(8-18(24-2)19(17)25-3)6-14-13-10-16(22)15(21)9-12(13)4-5-20-14/h7-10,14,20-22H,4-6H2,1-3H3

>  <IUPAC Name>  (1) 
1-[(3,4,5-trimethoxyphenyl)methyl]-1,2,3,4-tetrahydroisoquinoline-6,7-diol

$$$$
