
     RDKit          3D

 79 82  0  0  0  0  0  0  0  0999 V2000
   -2.7556   -5.1591   -0.5844 C   0  0  0  0  0  0  0  0  0  0  0  0
   -3.5318   -3.9146   -0.3847 C   0  0  0  0  0  0  0  0  0  0  0  0
   -2.8113   -2.7215   -0.0560 N   0  0  0  0  0  0  0  0  0  0  0  0
   -1.9680   -2.2261   -1.0686 C   0  0  0  0  0  0  0  0  0  0  0  0
   -1.4811   -0.8596   -0.7557 C   0  0  0  0  0  0  0  0  0  0  0  0
   -0.2390   -0.5666   -0.2623 C   0  0  0  0  0  0  0  0  0  0  0  0
    0.1097    0.7297   -0.0225 C   0  0  0  0  0  0  0  0  0  0  0  0
   -0.8001    1.7480   -0.2825 C   0  0  0  0  0  0  0  0  0  0  0  0
   -2.0665    1.5024   -0.7797 C   0  0  0  0  0  0  0  0  0  0  0  0
   -2.3882    0.1761   -1.0103 C   0  0  0  0  0  0  0  0  0  0  0  0
   -3.6516   -0.0954   -1.5062 O   0  0  0  0  0  0  0  0  0  0  0  0
   -3.0099    2.6027   -1.0703 C   0  0  0  0  0  0  0  0  0  0  0  0
   -2.5966    3.8431   -0.4399 N   0  0  0  0  0  0  0  0  0  0  0  0
   -2.7945    3.7025    0.9878 C   0  0  0  0  0  0  0  0  0  0  0  0
   -2.3252    4.8831    1.7831 C   0  0  0  0  0  0  0  0  0  0  0  0
   -3.5235    4.8706   -0.9123 C   0  0  0  0  0  0  0  0  0  0  0  0
   -3.3542    5.1485   -2.3932 C   0  0  0  0  0  0  0  0  0  0  0  0
    1.3690    1.1031    0.4990 N   0  0  0  0  0  0  0  0  0  0  0  0
    2.3825    0.1938    0.8821 C   0  0  0  0  0  0  0  0  0  0  0  0
    2.4142   -0.2459    2.1863 C   0  0  0  0  0  0  0  0  0  0  0  0
    1.4727    0.1797    3.0685 C   0  0  0  0  0  0  0  0  0  0  0  0
    1.4866   -0.2513    4.3831 C   0  0  0  0  0  0  0  0  0  0  0  0
    2.4930   -1.1246    4.7478 C   0  0  0  0  0  0  0  0  0  0  0  0
    3.4588   -1.5594    3.8359 C   0  0  0  0  0  0  0  0  0  0  0  0
    3.4390   -1.1253    2.5252 C   0  0  0  0  0  0  0  0  0  0  0  0
    4.3477   -1.5189    1.6128 N   0  0  0  0  0  0  0  0  0  0  0  0
    4.2871   -1.0627    0.3256 C   0  0  0  0  0  0  0  0  0  0  0  0
    3.2938   -0.1867   -0.0786 C   0  0  0  0  0  0  0  0  0  0  0  0
    3.4207    0.1254   -1.3732 N   0  0  0  0  0  0  0  0  0  0  0  0
    2.5717    1.0119   -2.1742 C   0  0  0  0  0  0  0  0  0  0  0  0
    4.4956   -0.5417   -1.8243 C   0  0  0  0  0  0  0  0  0  0  0  0
    5.0494   -1.2812   -0.7999 C   0  0  0  0  0  0  0  0  0  0  0  0
    6.1758   -2.0500   -1.0499 C   0  0  0  0  0  0  0  0  0  0  0  0
    6.7459   -2.0857   -2.3030 C   0  0  0  0  0  0  0  0  0  0  0  0
    6.2058   -1.3537   -3.3389 C   0  0  0  0  0  0  0  0  0  0  0  0
    5.0776   -0.5934   -3.0540 C   0  0  0  0  0  0  0  0  0  0  0  0
   -2.3007   -2.6786    1.2737 C   0  0  0  0  0  0  0  0  0  0  0  0
   -1.1929   -3.6344    1.5932 C   0  0  0  0  0  0  0  0  0  0  0  0
    0.6833    0.0000    0.0000 Cl  0  0  0  0  0  0  0  0  0  0  0  0
   -3.1184   -6.0047    0.0819 H   0  0  0  0  0  0  0  0  0  0  0  0
   -2.9794   -5.5592   -1.6299 H   0  0  0  0  0  0  0  0  0  0  0  0
   -1.6666   -5.0953   -0.5033 H   0  0  0  0  0  0  0  0  0  0  0  0
   -4.2663   -4.0855    0.4581 H   0  0  0  0  0  0  0  0  0  0  0  0
   -4.1681   -3.6935   -1.2694 H   0  0  0  0  0  0  0  0  0  0  0  0
   -2.5200   -2.1950   -2.0309 H   0  0  0  0  0  0  0  0  0  0  0  0
   -1.0555   -2.8227   -1.2749 H   0  0  0  0  0  0  0  0  0  0  0  0
    0.4450   -1.3722   -0.0681 H   0  0  0  0  0  0  0  0  0  0  0  0
   -0.4871    2.7791   -0.0975 H   0  0  0  0  0  0  0  0  0  0  0  0
   -4.3816   -0.2609   -0.7963 H   0  0  0  0  0  0  0  0  0  0  0  0
   -4.0535    2.3214   -0.8235 H   0  0  0  0  0  0  0  0  0  0  0  0
   -3.0278    2.7639   -2.1906 H   0  0  0  0  0  0  0  0  0  0  0  0
   -2.3192    2.7789    1.3293 H   0  0  0  0  0  0  0  0  0  0  0  0
   -3.9078    3.6328    1.1257 H   0  0  0  0  0  0  0  0  0  0  0  0
   -1.3435    4.6430    2.2861 H   0  0  0  0  0  0  0  0  0  0  0  0
   -2.1395    5.7890    1.2169 H   0  0  0  0  0  0  0  0  0  0  0  0
   -3.0976    5.1024    2.5652 H   0  0  0  0  0  0  0  0  0  0  0  0
   -3.3601    5.8518   -0.3993 H   0  0  0  0  0  0  0  0  0  0  0  0
   -4.5608    4.5538   -0.7106 H   0  0  0  0  0  0  0  0  0  0  0  0
   -2.3827    4.7997   -2.7504 H   0  0  0  0  0  0  0  0  0  0  0  0
   -3.4384    6.2277   -2.6166 H   0  0  0  0  0  0  0  0  0  0  0  0
   -4.2205    4.6795   -2.9523 H   0  0  0  0  0  0  0  0  0  0  0  0
    1.6213    2.1303    0.6301 H   0  0  0  0  0  0  0  0  0  0  0  0
    0.6975    0.8541    2.7888 H   0  0  0  0  0  0  0  0  0  0  0  0
    0.7277    0.1028    5.0673 H   0  0  0  0  0  0  0  0  0  0  0  0
    2.5311   -1.4791    5.7837 H   0  0  0  0  0  0  0  0  0  0  0  0
    4.2429   -2.2505    4.1680 H   0  0  0  0  0  0  0  0  0  0  0  0
    2.3963    1.9804   -1.7108 H   0  0  0  0  0  0  0  0  0  0  0  0
    1.6254    0.4779   -2.4766 H   0  0  0  0  0  0  0  0  0  0  0  0
    3.0913    1.1854   -3.1583 H   0  0  0  0  0  0  0  0  0  0  0  0
    6.6143   -2.6258   -0.2610 H   0  0  0  0  0  0  0  0  0  0  0  0
    7.6221   -2.6877   -2.4800 H   0  0  0  0  0  0  0  0  0  0  0  0
    6.5819   -1.3256   -4.3376 H   0  0  0  0  0  0  0  0  0  0  0  0
    4.6266   -0.0027   -3.8499 H   0  0  0  0  0  0  0  0  0  0  0  0
   -3.1475   -2.9476    1.9468 H   0  0  0  0  0  0  0  0  0  0  0  0
   -1.9989   -1.6437    1.5181 H   0  0  0  0  0  0  0  0  0  0  0  0
   -0.7121   -3.2752    2.5438 H   0  0  0  0  0  0  0  0  0  0  0  0
   -0.3686   -3.6678    0.8610 H   0  0  0  0  0  0  0  0  0  0  0  0
   -1.6080   -4.6431    1.8378 H   0  0  0  0  0  0  0  0  0  0  0  0
   -0.6833    0.0000    0.0000 H   0  0  0  0  0  0  0  0  0  0  0  0
  1  2  1  0
  2  3  1  0
  3  4  1  0
  4  5  1  0
  5  6  2  0
  6  7  1  0
  7  8  2  0
  8  9  1  0
  9 10  2  0
 10 11  1  0
  9 12  1  0
 12 13  1  0
 13 14  1  0
 14 15  1  0
 13 16  1  0
 16 17  1  0
  7 18  1  0
 18 19  1  0
 19 20  1  0
 20 21  2  0
 21 22  1  0
 22 23  2  0
 23 24  1  0
 24 25  2  0
 25 26  1  0
 26 27  2  0
 27 28  1  0
 28 29  1  0
 29 30  1  0
 29 31  1  0
 31 32  2  0
 32 33  1  0
 33 34  2  0
 34 35  1  0
 35 36  2  0
  3 37  1  0
 37 38  1  0
 10  5  1  0
 28 19  2  0
 36 31  1  0
 25 20  1  0
 32 27  1  0
  1 40  1  0
  1 41  1  0
  1 42  1  0
  2 43  1  0
  2 44  1  0
  4 45  1  0
  4 46  1  0
  6 47  1  0
  8 48  1  0
 11 49  1  0
 12 50  1  0
 12 51  1  0
 14 52  1  0
 14 53  1  0
 15 54  1  0
 15 55  1  0
 15 56  1  0
 16 57  1  0
 16 58  1  0
 17 59  1  0
 17 60  1  0
 17 61  1  0
 18 62  1  0
 21 63  1  0
 22 64  1  0
 23 65  1  0
 24 66  1  0
 30 67  1  0
 30 68  1  0
 30 69  1  0
 33 70  1  0
 34 71  1  0
 35 72  1  0
 36 73  1  0
 37 74  1  0
 37 75  1  0
 38 76  1  0
 38 77  1  0
 38 78  1  0
 39 79  1  0
M  END
>  <Ligand ID>  (1) 
LIG0004380

>  <Ligand>  (1) 
MLS002701585

>  <SMILES>  (1) 
CCN(Cc1cc(cc(c1O)CN(CC)CC)Nc1c2ccccc2nc2c1n(C)c1c2cccc1)CC.Cl

>  <CID>  (1) 
376179.0

>  <ChEMBL ID>  (1) 
nan

>  <InChiKey>  (1) 
MBGRQOWLEBZBCK-UHFFFAOYSA-N

>  <InChi>  (1) 
InChI=1S/C32H39N5O.ClH/c1-6-36(7-2)20-22-18-24(19-23(32(22)38)21-37(8-3)9-4)33-29-25-14-10-12-16-27(25)34-30-26-15-11-13-17-28(26)35(5)31(29)30;/h10-19,38H,6-9,20-21H2,1-5H3,(H,33,34);1H

>  <IUPAC Name>  (1) 
2,6-bis(diethylaminomethyl)-4-[(10-methylindolo[3,2-b]quinolin-11-yl)amino]phenol;hydrochloride

$$$$
