
     RDKit          3D

 48 49  0  0  0  0  0  0  0  0999 V2000
   -3.1375   -3.1360    2.1985 C   0  0  0  0  0  0  0  0  0  0  0  0
   -3.1041   -2.4832    0.8841 N   0  0  0  0  0  0  0  0  0  0  0  0
   -2.9173   -1.0731    0.8997 C   0  0  0  0  0  0  0  0  0  0  0  0
   -2.7948   -0.4808    2.0081 O   0  0  0  0  0  0  0  0  0  0  0  0
   -2.8778   -0.3787   -0.4052 C   0  0  2  0  0  0  0  0  0  0  0  0
   -2.6730    1.1134   -0.2446 C   0  0  0  0  0  0  0  0  0  0  0  0
   -1.4265    1.4079    0.4360 N   0  0  0  0  0  0  0  0  0  0  0  0
   -0.1743    0.9999   -0.0964 C   0  0  0  0  0  0  0  0  0  0  0  0
   -0.0739    0.3623   -1.1861 O   0  0  0  0  0  0  0  0  0  0  0  0
    1.0453    1.3329    0.6501 C   0  0  0  0  0  0  0  0  0  0  0  0
    1.0128    2.0076    1.8124 N   0  0  0  0  0  0  0  0  0  0  0  0
    2.1123    2.3178    2.5070 C   0  0  0  0  0  0  0  0  0  0  0  0
    3.3340    1.9353    2.0210 C   0  0  0  0  0  0  0  0  0  0  0  0
    3.4708    1.2225    0.8076 C   0  0  0  0  0  0  0  0  0  0  0  0
    2.2870    0.9514    0.1681 C   0  0  0  0  0  0  0  0  0  0  0  0
    4.7143    0.9067    0.4383 O   0  0  0  0  0  0  0  0  0  0  0  0
    5.2632    0.2332   -0.6343 C   0  0  0  0  0  0  0  0  0  0  0  0
    4.7895   -1.1820   -0.6825 C   0  0  0  0  0  0  0  0  0  0  0  0
    5.2673   -2.1147   -1.7379 C   0  0  0  0  0  0  0  0  0  0  0  0
    3.9277   -1.5289   -1.9193 C   0  0  0  0  0  0  0  0  0  0  0  0
    4.7519    2.3564    2.9549 Cl  0  0  0  0  0  0  0  0  0  0  0  0
   -3.8135    1.6718    0.5756 C   0  0  0  0  0  0  0  0  0  0  0  0
   -2.7468    1.7685   -1.6083 C   0  0  0  0  0  0  0  0  0  0  0  0
   -4.2052   -0.6269   -1.0865 C   0  0  0  0  0  0  0  0  0  0  0  0
   -3.8666   -2.6290    2.8712 H   0  0  0  0  0  0  0  0  0  0  0  0
   -2.1338   -3.0184    2.6357 H   0  0  0  0  0  0  0  0  0  0  0  0
   -3.4365   -4.1862    2.0954 H   0  0  0  0  0  0  0  0  0  0  0  0
   -3.2111   -3.0299    0.0150 H   0  0  0  0  0  0  0  0  0  0  0  0
   -2.0897   -0.8078   -1.0567 H   0  0  0  0  0  0  0  0  0  0  0  0
   -1.4205    1.9405    1.3566 H   0  0  0  0  0  0  0  0  0  0  0  0
    2.0018    2.8646    3.4368 H   0  0  0  0  0  0  0  0  0  0  0  0
    2.3097    0.4287   -0.7489 H   0  0  0  0  0  0  0  0  0  0  0  0
    6.3848    0.3027   -0.6611 H   0  0  0  0  0  0  0  0  0  0  0  0
    4.8846    0.7569   -1.5693 H   0  0  0  0  0  0  0  0  0  0  0  0
    4.4369   -1.5988    0.2893 H   0  0  0  0  0  0  0  0  0  0  0  0
    5.2971   -3.1969   -1.4200 H   0  0  0  0  0  0  0  0  0  0  0  0
    6.1235   -1.8529   -2.3746 H   0  0  0  0  0  0  0  0  0  0  0  0
    3.0036   -2.0971   -1.7612 H   0  0  0  0  0  0  0  0  0  0  0  0
    3.8431   -0.7591   -2.7139 H   0  0  0  0  0  0  0  0  0  0  0  0
   -4.6668    0.9656    0.4862 H   0  0  0  0  0  0  0  0  0  0  0  0
   -4.1751    2.6111    0.1113 H   0  0  0  0  0  0  0  0  0  0  0  0
   -3.5224    1.8370    1.6345 H   0  0  0  0  0  0  0  0  0  0  0  0
   -2.6091    1.0392   -2.4346 H   0  0  0  0  0  0  0  0  0  0  0  0
   -1.8654    2.4734   -1.6559 H   0  0  0  0  0  0  0  0  0  0  0  0
   -3.6308    2.4120   -1.7248 H   0  0  0  0  0  0  0  0  0  0  0  0
   -4.9952   -0.9255   -0.3776 H   0  0  0  0  0  0  0  0  0  0  0  0
   -4.0986   -1.4030   -1.8821 H   0  0  0  0  0  0  0  0  0  0  0  0
   -4.5951    0.2898   -1.5928 H   0  0  0  0  0  0  0  0  0  0  0  0
  1  2  1  0
  2  3  1  0
  3  4  2  0
  3  5  1  0
  5  6  1  0
  6  7  1  0
  7  8  1  0
  8  9  2  0
  8 10  1  0
 10 11  2  0
 11 12  1  0
 12 13  2  0
 13 14  1  0
 14 15  2  0
 14 16  1  0
 16 17  1  0
 17 18  1  0
 18 19  1  0
 19 20  1  0
 13 21  1  0
  6 22  1  0
  6 23  1  0
  5 24  1  0
 15 10  1  0
 20 18  1  0
  1 25  1  0
  1 26  1  0
  1 27  1  0
  2 28  1  0
  5 29  1  6
  7 30  1  0
 12 31  1  0
 15 32  1  0
 17 33  1  0
 17 34  1  0
 18 35  1  0
 19 36  1  0
 19 37  1  0
 20 38  1  0
 20 39  1  0
 22 40  1  0
 22 41  1  0
 22 42  1  0
 23 43  1  0
 23 44  1  0
 23 45  1  0
 24 46  1  0
 24 47  1  0
 24 48  1  0
M  END
>  <Ligand ID>  (1) 
LIG0005367

>  <Ligand>  (1) 
SCHEMBL15790167

>  <SMILES>  (1) 
CNC(=O)[C@H](C(NC(=O)c1ncc(c(c1)OCC1CC1)Cl)(C)C)C

>  <CID>  (1) 
76283211.0

>  <ChEMBL ID>  (1) 
nan

>  <InChiKey>  (1) 
QXOSSLGIOAMEQB-SNVBAGLBSA-N

>  <InChi>  (1) 
InChI=1S/C17H24ClN3O3/c1-10(15(22)19-4)17(2,3)21-16(23)13-7-14(12(18)8-20-13)24-9-11-5-6-11/h7-8,10-11H,5-6,9H2,1-4H3,(H,19,22)(H,21,23)/t10-/m1/s1

>  <IUPAC Name>  (1) 
5-chloro-4-(cyclopropylmethoxy)-N-[(3S)-2,3-dimethyl-4-(methylamino)-4-oxobutan-2-yl]pyridine-2-carboxamide

$$$$
