
     RDKit          3D

 50 53  0  0  0  0  0  0  0  0999 V2000
   -4.6230    1.0885    2.3803 C   0  0  0  0  0  0  0  0  0  0  0  0
   -3.9235    0.5359    1.2649 O   0  0  0  0  0  0  0  0  0  0  0  0
   -4.2884    0.7878   -0.0375 C   0  0  0  0  0  0  0  0  0  0  0  0
   -5.3661    1.6000   -0.3497 C   0  0  0  0  0  0  0  0  0  0  0  0
   -5.6945    1.8240   -1.6628 C   0  0  0  0  0  0  0  0  0  0  0  0
   -4.9953    1.2727   -2.7278 C   0  0  0  0  0  0  0  0  0  0  0  0
   -3.9226    0.4646   -2.3955 C   0  0  0  0  0  0  0  0  0  0  0  0
   -3.5697    0.2223   -1.0653 C   0  0  0  0  0  0  0  0  0  0  0  0
   -2.4470   -0.6263   -0.8693 N   0  0  0  0  0  0  0  0  0  0  0  0
   -2.6320   -1.8390   -0.1363 C   0  0  0  0  0  0  0  0  0  0  0  0
   -1.5932   -1.9346    0.9343 C   0  0  0  0  0  0  0  0  0  0  0  0
   -0.2717   -1.6609    0.4227 N   0  0  0  0  0  0  0  0  0  0  0  0
   -0.1619   -0.3925   -0.2265 C   0  0  0  0  0  0  0  0  0  0  0  0
   -1.1242   -0.3158   -1.3797 C   0  0  0  0  0  0  0  0  0  0  0  0
    0.6661   -1.7820    1.5051 C   0  0  0  0  0  0  0  0  0  0  0  0
    2.0351   -1.5038    1.0001 C   0  0  0  0  0  0  0  0  0  0  0  0
    2.8634   -2.4871    0.5002 C   0  0  0  0  0  0  0  0  0  0  0  0
    4.0140   -1.9222    0.1317 N   0  0  0  0  0  0  0  0  0  0  0  0
    3.9421   -0.6392    0.3772 N   0  0  0  0  0  0  0  0  0  0  0  0
    2.7333   -0.3307    0.9166 C   0  0  0  0  0  0  0  0  0  0  0  0
    5.0003    0.2721    0.1044 C   0  0  0  0  0  0  0  0  0  0  0  0
    6.1341    0.2351    0.8968 C   0  0  0  0  0  0  0  0  0  0  0  0
    7.1838    1.1108    0.6564 C   0  0  0  0  0  0  0  0  0  0  0  0
    7.1228    2.0306   -0.3686 C   0  0  0  0  0  0  0  0  0  0  0  0
    5.9781    2.0528   -1.1524 C   0  0  0  0  0  0  0  0  0  0  0  0
    4.9252    1.1866   -0.9243 C   0  0  0  0  0  0  0  0  0  0  0  0
   -5.4588    0.4126    2.6570 H   0  0  0  0  0  0  0  0  0  0  0  0
   -3.9083    1.0416    3.2328 H   0  0  0  0  0  0  0  0  0  0  0  0
   -4.9470    2.1334    2.2003 H   0  0  0  0  0  0  0  0  0  0  0  0
   -5.9612    2.0669    0.4294 H   0  0  0  0  0  0  0  0  0  0  0  0
   -6.5346    2.4570   -1.9139 H   0  0  0  0  0  0  0  0  0  0  0  0
   -5.2871    1.4745   -3.7519 H   0  0  0  0  0  0  0  0  0  0  0  0
   -3.3713    0.0302   -3.2196 H   0  0  0  0  0  0  0  0  0  0  0  0
   -3.6262   -1.9887    0.2698 H   0  0  0  0  0  0  0  0  0  0  0  0
   -2.4363   -2.6894   -0.8390 H   0  0  0  0  0  0  0  0  0  0  0  0
   -1.5835   -3.0095    1.2714 H   0  0  0  0  0  0  0  0  0  0  0  0
   -1.7759   -1.3438    1.8344 H   0  0  0  0  0  0  0  0  0  0  0  0
    0.8646   -0.3652   -0.6905 H   0  0  0  0  0  0  0  0  0  0  0  0
   -0.2353    0.4868    0.4271 H   0  0  0  0  0  0  0  0  0  0  0  0
   -0.8548   -1.1194   -2.1113 H   0  0  0  0  0  0  0  0  0  0  0  0
   -1.0798    0.6914   -1.8329 H   0  0  0  0  0  0  0  0  0  0  0  0
    0.6418   -2.7969    1.9467 H   0  0  0  0  0  0  0  0  0  0  0  0
    0.4310   -1.0798    2.3296 H   0  0  0  0  0  0  0  0  0  0  0  0
    2.6244   -3.5501    0.4172 H   0  0  0  0  0  0  0  0  0  0  0  0
    2.3633    0.6353    1.2288 H   0  0  0  0  0  0  0  0  0  0  0  0
    6.2104   -0.4763    1.7089 H   0  0  0  0  0  0  0  0  0  0  0  0
    8.0407    1.0377    1.3036 H   0  0  0  0  0  0  0  0  0  0  0  0
    7.9553    2.7225   -0.5565 H   0  0  0  0  0  0  0  0  0  0  0  0
    5.9010    2.7637   -1.9646 H   0  0  0  0  0  0  0  0  0  0  0  0
    4.0425    1.2158   -1.5417 H   0  0  0  0  0  0  0  0  0  0  0  0
  1  2  1  0
  2  3  1  0
  3  4  2  0
  4  5  1  0
  5  6  2  0
  6  7  1  0
  7  8  2  0
  8  9  1  0
  9 10  1  0
 10 11  1  0
 11 12  1  0
 12 13  1  0
 13 14  1  0
 12 15  1  0
 15 16  1  0
 16 17  1  0
 17 18  2  0
 18 19  1  0
 19 20  1  0
 19 21  1  0
 21 22  2  0
 22 23  1  0
 23 24  2  0
 24 25  1  0
 25 26  2  0
  8  3  1  0
 14  9  1  0
 20 16  2  0
 26 21  1  0
  1 27  1  0
  1 28  1  0
  1 29  1  0
  4 30  1  0
  5 31  1  0
  6 32  1  0
  7 33  1  0
 10 34  1  0
 10 35  1  0
 11 36  1  0
 11 37  1  0
 13 38  1  0
 13 39  1  0
 14 40  1  0
 14 41  1  0
 15 42  1  0
 15 43  1  0
 17 44  1  0
 20 45  1  0
 22 46  1  0
 23 47  1  0
 24 48  1  0
 25 49  1  0
 26 50  1  0
M  END
>  <Ligand ID>  (1) 
LIG0004872

>  <Ligand>  (1) 
CHEMBL379602

>  <SMILES>  (1) 
COc1ccccc1N1CCN(CC1)Cc1cnn(c1)c1ccccc1

>  <CID>  (1) 
17449900.0

>  <ChEMBL ID>  (1) 
nan

>  <InChiKey>  (1) 
VFDZFYCKUWKAKM-UHFFFAOYSA-N

>  <InChi>  (1) 
InChI=1S/C21H24N4O/c1-26-21-10-6-5-9-20(21)24-13-11-23(12-14-24)16-18-15-22-25(17-18)19-7-3-2-4-8-19/h2-10,15,17H,11-14,16H2,1H3

>  <IUPAC Name>  (1) 
1-(2-methoxyphenyl)-4-[(1-phenylpyrazol-4-yl)methyl]piperazine

$$$$
