
     RDKit          3D

 54 58  0  0  0  0  0  0  0  0999 V2000
   -5.8139   -1.6398   -1.4317 N   0  0  0  0  0  0  0  0  0  0  0  0
   -6.6824   -0.9997   -0.9864 C   0  0  0  0  0  0  0  0  0  0  0  0
   -7.7457   -0.2134   -0.4673 C   0  0  0  0  0  0  0  0  0  0  0  0
   -9.0289   -0.7285   -0.4603 C   0  0  0  0  0  0  0  0  0  0  0  0
  -10.0530    0.0488    0.0482 C   0  0  0  0  0  0  0  0  0  0  0  0
  -11.3188   -0.4486    0.0596 F   0  0  0  0  0  0  0  0  0  0  0  0
   -9.7847    1.3233    0.5405 C   0  0  0  0  0  0  0  0  0  0  0  0
   -8.4927    1.8160    0.5225 C   0  0  0  0  0  0  0  0  0  0  0  0
   -7.4569    1.0474    0.0157 C   0  0  0  0  0  0  0  0  0  0  0  0
   -6.0974    1.5533   -0.0085 C   0  0  0  0  0  0  0  0  0  0  0  0
   -5.6926    2.7519    0.4279 N   0  0  0  0  0  0  0  0  0  0  0  0
   -4.4036    2.8588    0.2471 O   0  0  0  0  0  0  0  0  0  0  0  0
   -3.9865    1.7427   -0.2985 C   0  0  0  0  0  0  0  0  0  0  0  0
   -5.0239    0.9073   -0.4702 N   0  0  0  0  0  0  0  0  0  0  0  0
   -2.5743    1.4025   -0.6901 C   0  0  0  0  0  0  0  0  0  0  0  0
   -1.9028    0.7357    0.5136 C   0  0  0  0  0  0  0  0  0  0  0  0
   -0.5069    0.3937    0.1420 C   0  0  0  0  0  0  0  0  0  0  0  0
   -0.1030    0.6818   -1.0307 O   0  0  0  0  0  0  0  0  0  0  0  0
    0.3335   -0.2414    1.0996 N   0  0  0  0  0  0  0  0  0  0  0  0
    1.6820   -0.5952    0.8052 C   0  0  0  0  0  0  0  0  0  0  0  0
    1.9249   -1.8524    0.2725 C   0  0  0  0  0  0  0  0  0  0  0  0
    3.2132   -2.2752   -0.0429 C   0  0  0  0  0  0  0  0  0  0  0  0
    4.2471   -1.3894    0.1963 C   0  0  0  0  0  0  0  0  0  0  0  0
    4.0117   -0.1343    0.7273 C   0  0  0  0  0  0  0  0  0  0  0  0
    2.7257    0.2812    1.0395 C   0  0  0  0  0  0  0  0  0  0  0  0
    5.2372    0.4904    0.8400 C   0  0  0  0  0  0  0  0  0  0  0  0
    5.6121    1.7395    1.2997 C   0  0  0  0  0  0  0  0  0  0  0  0
    6.9531    2.1000    1.2932 C   0  0  0  0  0  0  0  0  0  0  0  0
    7.8908    1.1959    0.8240 C   0  0  0  0  0  0  0  0  0  0  0  0
    7.5492   -0.0601    0.3577 C   0  0  0  0  0  0  0  0  0  0  0  0
    6.1972   -0.3847    0.3800 C   0  0  0  0  0  0  0  0  0  0  0  0
    5.5870   -1.5364   -0.0140 N   0  0  0  0  0  0  0  0  0  0  0  0
    6.2575   -2.7229   -0.5666 C   0  0  0  0  0  0  0  0  0  0  0  0
    6.3108   -2.5469   -2.0726 C   0  0  0  0  0  0  0  0  0  0  0  0
   -9.1873   -1.7299   -0.8563 H   0  0  0  0  0  0  0  0  0  0  0  0
  -10.6120    1.8998    0.9295 H   0  0  0  0  0  0  0  0  0  0  0  0
   -8.3029    2.8159    0.9124 H   0  0  0  0  0  0  0  0  0  0  0  0
   -2.0660    2.3501   -0.9411 H   0  0  0  0  0  0  0  0  0  0  0  0
   -2.5704    0.6690   -1.5112 H   0  0  0  0  0  0  0  0  0  0  0  0
   -1.9164    1.4609    1.3697 H   0  0  0  0  0  0  0  0  0  0  0  0
   -2.5069   -0.1256    0.8411 H   0  0  0  0  0  0  0  0  0  0  0  0
   -0.0192   -0.4685    2.0565 H   0  0  0  0  0  0  0  0  0  0  0  0
    1.1198   -2.5613    0.0785 H   0  0  0  0  0  0  0  0  0  0  0  0
    3.4155   -3.2518   -0.4582 H   0  0  0  0  0  0  0  0  0  0  0  0
    2.5112    1.2550    1.4551 H   0  0  0  0  0  0  0  0  0  0  0  0
    4.8545    2.4340    1.6643 H   0  0  0  0  0  0  0  0  0  0  0  0
    7.2590    3.0834    1.6539 H   0  0  0  0  0  0  0  0  0  0  0  0
    8.9269    1.4645    0.8149 H   0  0  0  0  0  0  0  0  0  0  0  0
    8.3010   -0.7439   -0.0019 H   0  0  0  0  0  0  0  0  0  0  0  0
    7.2453   -2.8728   -0.1155 H   0  0  0  0  0  0  0  0  0  0  0  0
    5.6092   -3.5963   -0.3458 H   0  0  0  0  0  0  0  0  0  0  0  0
    5.3738   -2.8982   -2.5483 H   0  0  0  0  0  0  0  0  0  0  0  0
    6.3467   -1.4406   -2.2959 H   0  0  0  0  0  0  0  0  0  0  0  0
    7.1532   -3.0455   -2.5509 H   0  0  0  0  0  0  0  0  0  0  0  0
  1  2  3  0
  2  3  1  0
  3  4  2  0
  4  5  1  0
  5  6  1  0
  5  7  2  0
  7  8  1  0
  8  9  2  0
  9 10  1  0
 10 11  2  0
 11 12  1  0
 12 13  1  0
 13 14  2  0
 13 15  1  0
 15 16  1  0
 16 17  1  0
 17 18  2  0
 17 19  1  0
 19 20  1  0
 20 21  2  0
 21 22  1  0
 22 23  2  0
 23 24  1  0
 24 25  2  0
 24 26  1  0
 26 27  2  0
 27 28  1  0
 28 29  2  0
 29 30  1  0
 30 31  2  0
 31 32  1  0
 32 33  1  0
 33 34  1  0
  9  3  1  0
 14 10  1  0
 25 20  1  0
 31 26  1  0
 32 23  1  0
  4 35  1  0
  7 36  1  0
  8 37  1  0
 15 38  1  0
 15 39  1  0
 16 40  1  0
 16 41  1  0
 19 42  1  0
 21 43  1  0
 22 44  1  0
 25 45  1  0
 27 46  1  0
 28 47  1  0
 29 48  1  0
 30 49  1  0
 33 50  1  0
 33 51  1  0
 34 52  1  0
 34 53  1  0
 34 54  1  0
M  END
>  <Ligand ID>  (1) 
LIG0004394

>  <Ligand>  (1) 
CHEMBL499324

>  <SMILES>  (1) 
N#Cc1cc(F)ccc1c1noc(n1)CCC(=O)Nc1ccc2c(c1)c1ccccc1n2CC

>  <CID>  (1) 
25033938.0

>  <ChEMBL ID>  (1) 
nan

>  <InChiKey>  (1) 
NVSKXWGRIBCWNF-UHFFFAOYSA-N

>  <InChi>  (1) 
InChI=1S/C26H20FN5O2/c1-2-32-22-6-4-3-5-20(22)21-14-18(8-10-23(21)32)29-24(33)11-12-25-30-26(31-34-25)19-9-7-17(27)13-16(19)15-28/h3-10,13-14H,2,11-12H2,1H3,(H,29,33)

>  <IUPAC Name>  (1) 
3-[3-(2-cyano-4-fluorophenyl)-1,2,4-oxadiazol-5-yl]-N-(9-ethylcarbazol-3-yl)propanamide

$$$$
