
     RDKit          3D

 39 41  0  0  0  0  0  0  0  0999 V2000
    4.8191    0.2765    1.4967 C   0  0  0  0  0  0  0  0  0  0  0  0
    3.5851   -0.3451    0.8342 C   0  0  0  0  0  0  0  0  0  0  0  0
    3.0591    0.6795   -0.1148 C   0  0  0  0  0  0  0  0  0  0  0  0
    1.8601    0.2825   -0.8673 C   0  0  0  0  0  0  0  0  0  0  0  0
    2.0366   -0.0763   -2.2083 C   0  0  0  0  0  0  0  0  0  0  0  0
    0.9465   -0.4559   -2.9608 C   0  0  0  0  0  0  0  0  0  0  0  0
   -0.3102   -0.4731   -2.3658 C   0  0  0  0  0  0  0  0  0  0  0  0
   -0.5139   -0.1254   -1.0483 C   0  0  0  0  0  0  0  0  0  0  0  0
    0.5953    0.2495   -0.3215 C   0  0  0  0  0  0  0  0  0  0  0  0
    0.3934    0.6317    1.1012 C   0  0  0  0  0  0  0  0  0  0  0  0
   -0.9887    1.1162    1.3995 C   0  0  0  0  0  0  0  0  0  0  0  0
   -1.9935    0.1086    0.8904 C   0  0  0  0  0  0  0  0  0  0  0  0
   -1.8275   -0.1746   -0.5272 N   0  0  0  0  0  0  0  0  0  0  0  0
   -3.0018   -0.4819   -1.2877 C   0  0  0  0  0  0  0  0  0  0  0  0
   -3.9933   -1.1671   -0.3365 C   0  0  0  0  0  0  0  0  0  0  0  0
   -4.3341   -0.3716    0.7970 N   0  0  0  0  0  0  0  0  0  0  0  0
   -3.4018    0.6897    1.0494 C   0  0  0  0  0  0  0  0  0  0  0  0
    4.8768   -0.0364    2.5703 H   0  0  0  0  0  0  0  0  0  0  0  0
    5.6973   -0.0471    0.9213 H   0  0  0  0  0  0  0  0  0  0  0  0
    4.7210    1.3779    1.5007 H   0  0  0  0  0  0  0  0  0  0  0  0
    3.8421   -1.3101    0.3256 H   0  0  0  0  0  0  0  0  0  0  0  0
    2.9049   -0.6017    1.6499 H   0  0  0  0  0  0  0  0  0  0  0  0
    2.8781    1.6087    0.4734 H   0  0  0  0  0  0  0  0  0  0  0  0
    3.9078    0.9592   -0.8066 H   0  0  0  0  0  0  0  0  0  0  0  0
    3.0232   -0.0563   -2.6514 H   0  0  0  0  0  0  0  0  0  0  0  0
    1.0789   -0.7399   -4.0171 H   0  0  0  0  0  0  0  0  0  0  0  0
   -1.1228   -0.7785   -3.0093 H   0  0  0  0  0  0  0  0  0  0  0  0
    0.5242   -0.3186    1.6918 H   0  0  0  0  0  0  0  0  0  0  0  0
    1.0864    1.4207    1.4223 H   0  0  0  0  0  0  0  0  0  0  0  0
   -1.2032    2.1489    1.1162 H   0  0  0  0  0  0  0  0  0  0  0  0
   -1.0916    1.0871    2.5242 H   0  0  0  0  0  0  0  0  0  0  0  0
   -1.9144   -0.8257    1.4423 H   0  0  0  0  0  0  0  0  0  0  0  0
   -2.8561   -1.2175   -2.1033 H   0  0  0  0  0  0  0  0  0  0  0  0
   -3.5372    0.4410   -1.6277 H   0  0  0  0  0  0  0  0  0  0  0  0
   -4.8884   -1.4171   -0.9536 H   0  0  0  0  0  0  0  0  0  0  0  0
   -3.4589   -2.0784    0.0054 H   0  0  0  0  0  0  0  0  0  0  0  0
   -4.3697   -0.9617    1.6698 H   0  0  0  0  0  0  0  0  0  0  0  0
   -3.5417    1.1001    2.0705 H   0  0  0  0  0  0  0  0  0  0  0  0
   -3.4871    1.4757    0.2550 H   0  0  0  0  0  0  0  0  0  0  0  0
  1  2  1  0
  2  3  1  0
  3  4  1  0
  4  5  2  0
  5  6  1  0
  6  7  2  0
  7  8  1  0
  8  9  2  0
  9 10  1  0
 10 11  1  0
 11 12  1  0
 12 13  1  0
 13 14  1  0
 14 15  1  0
 15 16  1  0
 16 17  1  0
  9  4  1  0
 17 12  1  0
 13  8  1  0
  1 18  1  0
  1 19  1  0
  1 20  1  0
  2 21  1  0
  2 22  1  0
  3 23  1  0
  3 24  1  0
  5 25  1  0
  6 26  1  0
  7 27  1  0
 10 28  1  0
 10 29  1  0
 11 30  1  0
 11 31  1  0
 12 32  1  0
 14 33  1  0
 14 34  1  0
 15 35  1  0
 15 36  1  0
 16 37  1  0
 17 38  1  0
 17 39  1  0
M  END
>  <Ligand ID>  (1) 
LIG0004173

>  <Ligand>  (1) 
CHEMBL3947276

>  <SMILES>  (1) 
CCCc1cccc2c1CCC1N2CCNC1

>  <CID>  (1) 
134147456.0

>  <ChEMBL ID>  (1) 
nan

>  <InChiKey>  (1) 
GJVPUHJMJVJTOE-UHFFFAOYSA-N

>  <InChi>  (1) 
InChI=1S/C15H22N2/c1-2-4-12-5-3-6-15-14(12)8-7-13-11-16-9-10-17(13)15/h3,5-6,13,16H,2,4,7-11H2,1H3

>  <IUPAC Name>  (1) 
7-propyl-2,3,4,4a,5,6-hexahydro-1H-pyrazino[1,2-a]quinoline

$$$$
