
     RDKit          3D

 39 42  0  0  0  0  0  0  0  0999 V2000
    6.6378   -0.6802   -0.7053 O   0  0  0  0  0  0  0  0  0  0  0  0
    6.0056    0.5484   -0.4854 C   0  0  0  0  0  0  0  0  0  0  0  0
    6.7030    1.5976   -0.6542 O   0  0  0  0  0  0  0  0  0  0  0  0
    4.6054    0.6870   -0.0776 C   0  0  0  0  0  0  0  0  0  0  0  0
    3.9519   -0.6881    0.0686 C   0  0  2  0  0  0  0  0  0  0  0  0
    4.0336   -1.3688   -1.2702 C   0  0  0  0  0  0  0  0  0  0  0  0
    2.8403   -2.1581   -1.2830 O   0  0  0  0  0  0  0  0  0  0  0  0
    1.8271   -1.4200   -0.6477 C   0  0  0  0  0  0  0  0  0  0  0  0
    2.4615   -0.5076    0.1898 C   0  0  0  0  0  0  0  0  0  0  0  0
    1.7122    0.3724    0.9600 C   0  0  0  0  0  0  0  0  0  0  0  0
    0.3377    0.3443    0.8970 C   0  0  0  0  0  0  0  0  0  0  0  0
   -0.4813    1.1863    1.6313 O   0  0  0  0  0  0  0  0  0  0  0  0
   -1.8034    1.4249    1.1150 C   0  0  0  0  0  0  0  0  0  0  0  0
   -2.4398    0.0747    0.9050 C   0  0  2  0  0  0  0  0  0  0  0  0
   -1.6608   -0.6353   -0.0388 O   0  0  0  0  0  0  0  0  0  0  0  0
   -0.2842   -0.5615    0.0658 C   0  0  0  0  0  0  0  0  0  0  0  0
    0.4497   -1.4446   -0.7077 C   0  0  0  0  0  0  0  0  0  0  0  0
   -3.8257    0.2509    0.4688 C   0  0  0  0  0  0  0  0  0  0  0  0
   -4.5513    1.4124    0.5161 C   0  0  0  0  0  0  0  0  0  0  0  0
   -5.8676    1.5084    0.0861 C   0  0  0  0  0  0  0  0  0  0  0  0
   -6.5010    0.3956   -0.4181 C   0  0  0  0  0  0  0  0  0  0  0  0
   -5.7923   -0.7932   -0.4783 C   0  0  0  0  0  0  0  0  0  0  0  0
   -4.4815   -0.8714   -0.0457 C   0  0  0  0  0  0  0  0  0  0  0  0
   -6.6971   -2.3121   -1.1805 Br  0  0  0  0  0  0  0  0  0  0  0  0
    7.4269   -0.7210   -1.3430 H   0  0  0  0  0  0  0  0  0  0  0  0
    4.0158    1.2020   -0.8866 H   0  0  0  0  0  0  0  0  0  0  0  0
    4.4364    1.2404    0.8544 H   0  0  0  0  0  0  0  0  0  0  0  0
    4.3726   -1.2583    0.8965 H   0  0  0  0  0  0  0  0  0  0  0  0
    4.8696   -2.0655   -1.3708 H   0  0  0  0  0  0  0  0  0  0  0  0
    4.0007   -0.5800   -2.0487 H   0  0  0  0  0  0  0  0  0  0  0  0
    2.2028    1.0721    1.6023 H   0  0  0  0  0  0  0  0  0  0  0  0
   -2.3758    2.0483    1.8389 H   0  0  0  0  0  0  0  0  0  0  0  0
   -1.6602    1.9013    0.1290 H   0  0  0  0  0  0  0  0  0  0  0  0
   -2.4290   -0.4609    1.8917 H   0  0  0  0  0  0  0  0  0  0  0  0
   -0.0199   -2.1712   -1.3735 H   0  0  0  0  0  0  0  0  0  0  0  0
   -4.1087    2.3172    0.8988 H   0  0  0  0  0  0  0  0  0  0  0  0
   -6.4012    2.4563    0.1451 H   0  0  0  0  0  0  0  0  0  0  0  0
   -7.5239    0.4802   -0.7496 H   0  0  0  0  0  0  0  0  0  0  0  0
   -3.9861   -1.8226   -0.1186 H   0  0  0  0  0  0  0  0  0  0  0  0
  1  2  1  0
  2  3  2  0
  2  4  1  0
  4  5  1  0
  5  6  1  0
  6  7  1  0
  7  8  1  0
  8  9  2  0
  9 10  1  0
 10 11  2  0
 11 12  1  0
 12 13  1  0
 13 14  1  0
 14 15  1  0
 15 16  1  0
 16 17  2  0
 14 18  1  0
 18 19  2  0
 19 20  1  0
 20 21  2  0
 21 22  1  0
 22 23  2  0
 22 24  1  0
  9  5  1  0
 16 11  1  0
 23 18  1  0
 17  8  1  0
  1 25  1  0
  4 26  1  0
  4 27  1  0
  5 28  1  1
  6 29  1  0
  6 30  1  0
 10 31  1  0
 13 32  1  0
 13 33  1  0
 14 34  1  1
 17 35  1  0
 19 36  1  0
 20 37  1  0
 21 38  1  0
 23 39  1  0
M  END
>  <Ligand ID>  (1) 
LIG0005722

>  <Ligand>  (1) 
CHEMBL2381282

>  <SMILES>  (1) 
OC(=O)C[C@@H]1COc2c1cc1OC[C@H](Oc1c2)c1cccc(c1)Br

>  <CID>  (1) 
71575419.0

>  <ChEMBL ID>  (1) 
nan

>  <InChiKey>  (1) 
HHYQZGIHLQZUAH-DIFFPNOSSA-N

>  <InChi>  (1) 
InChI=1S/C18H15BrO5/c19-12-3-1-2-10(4-12)17-9-23-15-6-13-11(5-18(20)21)8-22-14(13)7-16(15)24-17/h1-4,6-7,11,17H,5,8-9H2,(H,20,21)/t11-,17+/m1/s1

>  <IUPAC Name>  (1) 
2-[(3R,8S)-3-(3-bromophenyl)-2,3,7,8-tetrahydrofuro[2,3-g][1,4]benzodioxin-8-yl]acetic acid

$$$$
