
     RDKit          3D

 32 34  0  0  0  0  0  0  0  0999 V2000
   -3.8278   -0.2153   -0.5331 C   0  0  0  0  0  0  0  0  0  0  0  0
   -3.9853    0.9776    0.3547 C   0  0  0  0  0  0  0  0  0  0  0  0
   -2.9620    0.8540    1.3519 N   0  0  0  0  0  0  0  0  0  0  0  0
   -2.1570   -0.1242    1.1351 C   0  0  0  0  0  0  0  0  0  0  0  0
   -2.5716   -0.7877   -0.0800 N   0  0  0  0  0  0  0  0  0  0  0  0
   -0.9887   -0.6148    1.9098 C   0  0  0  0  0  0  0  0  0  0  0  0
    0.1641   -0.7262    1.0580 N   0  0  0  0  0  0  0  0  0  0  0  0
    0.8610    0.3440    0.4729 C   0  0  0  0  0  0  0  0  0  0  0  0
    0.4266    1.6274    0.7677 C   0  0  0  0  0  0  0  0  0  0  0  0
    1.0398    2.7614    0.2690 C   0  0  0  0  0  0  0  0  0  0  0  0
    2.1248    2.5713   -0.5513 C   0  0  0  0  0  0  0  0  0  0  0  0
    2.5545    1.3001   -0.8424 C   0  0  0  0  0  0  0  0  0  0  0  0
    1.9490    0.1512   -0.3495 C   0  0  0  0  0  0  0  0  0  0  0  0
    2.4770   -1.1440   -0.7188 C   0  0  0  0  0  0  0  0  0  0  0  0
    2.1228   -2.3974   -0.4191 N   0  0  0  0  0  0  0  0  0  0  0  0
    2.9267   -3.2954   -1.0073 C   0  0  0  0  0  0  0  0  0  0  0  0
    3.8202   -2.5809   -1.7032 N   0  0  0  0  0  0  0  0  0  0  0  0
    3.5562   -1.3004   -1.5343 N   0  0  0  0  0  0  0  0  0  0  0  0
   -3.7266    0.0715   -1.6117 H   0  0  0  0  0  0  0  0  0  0  0  0
   -4.6731   -0.9200   -0.3837 H   0  0  0  0  0  0  0  0  0  0  0  0
   -3.9084    1.9113   -0.2463 H   0  0  0  0  0  0  0  0  0  0  0  0
   -4.9836    1.0106    0.8577 H   0  0  0  0  0  0  0  0  0  0  0  0
   -2.0916   -1.5530   -0.5900 H   0  0  0  0  0  0  0  0  0  0  0  0
   -0.8036    0.0814    2.7696 H   0  0  0  0  0  0  0  0  0  0  0  0
   -1.2561   -1.6176    2.2835 H   0  0  0  0  0  0  0  0  0  0  0  0
    0.5010   -1.7020    0.8687 H   0  0  0  0  0  0  0  0  0  0  0  0
   -0.4178    1.8017    1.4190 H   0  0  0  0  0  0  0  0  0  0  0  0
    0.7174    3.7602    0.4860 H   0  0  0  0  0  0  0  0  0  0  0  0
    2.6322    3.4453   -0.9622 H   0  0  0  0  0  0  0  0  0  0  0  0
    3.4315    1.2476   -1.5081 H   0  0  0  0  0  0  0  0  0  0  0  0
    2.9096   -4.3787   -0.9677 H   0  0  0  0  0  0  0  0  0  0  0  0
    4.1388   -0.5591   -1.9948 H   0  0  0  0  0  0  0  0  0  0  0  0
  1  2  1  0
  2  3  1  0
  3  4  2  0
  4  5  1  0
  4  6  1  0
  6  7  1  0
  7  8  1  0
  8  9  2  0
  9 10  1  0
 10 11  2  0
 11 12  1  0
 12 13  2  0
 13 14  1  0
 14 15  2  0
 15 16  1  0
 16 17  2  0
 17 18  1  0
  5  1  1  0
 13  8  1  0
 18 14  1  0
  1 19  1  0
  1 20  1  0
  2 21  1  0
  2 22  1  0
  5 23  1  0
  6 24  1  0
  6 25  1  0
  7 26  1  0
  9 27  1  0
 10 28  1  0
 11 29  1  0
 12 30  1  0
 16 31  1  0
 18 32  1  0
M  END
>  <Ligand ID>  (1) 
LIG0003185

>  <Ligand>  (1) 
CHEMBL17491

>  <SMILES>  (1) 
C1CN=C(N1)CNc1ccccc1c1ncn[nH]1

>  <CID>  (1) 
22493236.0

>  <ChEMBL ID>  (1) 
nan

>  <InChiKey>  (1) 
LLBMIYKGBZNMOP-UHFFFAOYSA-N

>  <InChi>  (1) 
InChI=1S/C12H14N6/c1-2-4-10(15-7-11-13-5-6-14-11)9(3-1)12-16-8-17-18-12/h1-4,8,15H,5-7H2,(H,13,14)(H,16,17,18)

>  <IUPAC Name>  (1) 
N-(4,5-dihydro-1H-imidazol-2-ylmethyl)-2-(1H-1,2,4-triazol-5-yl)aniline

$$$$
