
     RDKit          3D

 36 38  0  0  0  0  0  0  0  0999 V2000
    3.4552   -3.4672   -0.1282 C   0  0  0  0  0  0  0  0  0  0  0  0
    3.2385   -2.0374   -0.4757 C   0  0  0  0  0  0  0  0  0  0  0  0
    4.0588   -1.2760   -1.2750 C   0  0  0  0  0  0  0  0  0  0  0  0
    3.4367   -0.0238   -1.2956 C   0  0  0  0  0  0  0  0  0  0  0  0
    2.2879   -0.0907   -0.5184 C   0  0  0  0  0  0  0  0  0  0  0  0
    2.2436   -1.3076   -0.0725 O   0  0  0  0  0  0  0  0  0  0  0  0
    1.4137    1.0565   -0.3374 C   0  0  0  0  0  0  0  0  0  0  0  0
    1.7175    2.2643   -0.9545 C   0  0  0  0  0  0  0  0  0  0  0  0
    0.9487    3.3951   -0.8386 C   0  0  0  0  0  0  0  0  0  0  0  0
   -0.1953    3.3714   -0.0768 C   0  0  0  0  0  0  0  0  0  0  0  0
   -0.5058    2.1732    0.5418 C   0  0  0  0  0  0  0  0  0  0  0  0
    0.2662    1.0369    0.4252 C   0  0  0  0  0  0  0  0  0  0  0  0
   -0.1482   -0.1235    1.1196 N   0  0  0  0  0  0  0  0  0  0  0  0
   -1.3463   -0.2169    1.9213 C   0  0  0  0  0  0  0  0  0  0  0  0
   -2.6015   -0.1306    1.1353 C   0  0  0  0  0  0  0  0  0  0  0  0
   -3.6312    0.6254    1.2779 N   0  0  0  0  0  0  0  0  0  0  0  0
   -4.6324    0.3738    0.2824 C   0  0  0  0  0  0  0  0  0  0  0  0
   -4.2549   -0.9931   -0.2410 C   0  0  0  0  0  0  0  0  0  0  0  0
   -2.8344   -1.0001    0.0081 N   0  0  0  0  0  0  0  0  0  0  0  0
    3.8415   -3.5358    0.9007 H   0  0  0  0  0  0  0  0  0  0  0  0
    4.2155   -3.9377   -0.8031 H   0  0  0  0  0  0  0  0  0  0  0  0
    2.4986   -4.0423   -0.1952 H   0  0  0  0  0  0  0  0  0  0  0  0
    4.9747   -1.5756   -1.7738 H   0  0  0  0  0  0  0  0  0  0  0  0
    3.8560    0.7915   -1.8501 H   0  0  0  0  0  0  0  0  0  0  0  0
    2.6125    2.3623   -1.5778 H   0  0  0  0  0  0  0  0  0  0  0  0
    1.2219    4.3124   -1.3355 H   0  0  0  0  0  0  0  0  0  0  0  0
   -0.8195    4.2450    0.0326 H   0  0  0  0  0  0  0  0  0  0  0  0
   -1.4009    2.1755    1.1426 H   0  0  0  0  0  0  0  0  0  0  0  0
    0.4276   -0.9994    1.0754 H   0  0  0  0  0  0  0  0  0  0  0  0
   -1.3597   -1.1515    2.5042 H   0  0  0  0  0  0  0  0  0  0  0  0
   -1.3485    0.6655    2.6240 H   0  0  0  0  0  0  0  0  0  0  0  0
   -4.5899    1.1022   -0.5627 H   0  0  0  0  0  0  0  0  0  0  0  0
   -5.6588    0.3665    0.7468 H   0  0  0  0  0  0  0  0  0  0  0  0
   -4.7780   -1.7398    0.4099 H   0  0  0  0  0  0  0  0  0  0  0  0
   -4.5106   -1.1332   -1.3102 H   0  0  0  0  0  0  0  0  0  0  0  0
   -2.0993   -1.5350   -0.5259 H   0  0  0  0  0  0  0  0  0  0  0  0
  1  2  1  0
  2  3  2  0
  3  4  1  0
  4  5  2  0
  5  6  1  0
  5  7  1  0
  7  8  2  0
  8  9  1  0
  9 10  2  0
 10 11  1  0
 11 12  2  0
 12 13  1  0
 13 14  1  0
 14 15  1  0
 15 16  2  0
 16 17  1  0
 17 18  1  0
 18 19  1  0
  6  2  1  0
 12  7  1  0
 19 15  1  0
  1 20  1  0
  1 21  1  0
  1 22  1  0
  3 23  1  0
  4 24  1  0
  8 25  1  0
  9 26  1  0
 10 27  1  0
 11 28  1  0
 13 29  1  0
 14 30  1  0
 14 31  1  0
 17 32  1  0
 17 33  1  0
 18 34  1  0
 18 35  1  0
 19 36  1  0
M  END
>  <Ligand ID>  (1) 
LIG0003842

>  <Ligand>  (1) 
CHEMBL152725

>  <SMILES>  (1) 
Cc1ccc(o1)c1ccccc1NCC1=NCCN1

>  <CID>  (1) 
44369434.0

>  <ChEMBL ID>  (1) 
nan

>  <InChiKey>  (1) 
XLGXOZAAAMQPIO-UHFFFAOYSA-N

>  <InChi>  (1) 
InChI=1S/C15H17N3O/c1-11-6-7-14(19-11)12-4-2-3-5-13(12)18-10-15-16-8-9-17-15/h2-7,18H,8-10H2,1H3,(H,16,17)

>  <IUPAC Name>  (1) 
N-(4,5-dihydro-1H-imidazol-2-ylmethyl)-2-(5-methylfuran-2-yl)aniline

$$$$
