
     RDKit          3D

 37 38  0  0  0  0  0  0  0  0999 V2000
   -3.5322    1.3803    0.7640 C   0  0  0  0  0  0  0  0  0  0  0  0
   -3.0692    1.5152   -0.6703 C   0  0  0  0  0  0  0  0  0  0  0  0
   -1.5943    1.3003   -0.7627 C   0  0  0  0  0  0  0  0  0  0  0  0
   -1.1768   -0.0593   -0.2791 C   0  0  1  0  0  0  0  0  0  0  0  0
   -1.7961   -1.1819   -1.0490 C   0  0  0  0  0  0  0  0  0  0  0  0
   -1.6059   -2.4258   -0.2081 C   0  0  0  0  0  0  0  0  0  0  0  0
   -0.2405   -2.5437    0.3731 C   0  0  0  0  0  0  0  0  0  0  0  0
    0.7641   -1.5639   -0.1190 C   0  0  0  0  0  0  0  0  0  0  0  0
    0.3014   -0.1963   -0.4428 C   0  0  2  0  0  0  0  0  0  0  0  0
    0.9175    0.7765    0.4755 N   0  0  0  0  0  0  0  0  0  0  0  0
    2.3525    0.8111    0.4542 C   0  0  0  0  0  0  0  0  0  0  0  0
    3.1302    0.1625   -0.3146 N   0  0  0  0  0  0  0  0  0  0  0  0
    4.5206    0.4545   -0.0420 C   0  0  0  0  0  0  0  0  0  0  0  0
    4.4482    1.4233    1.1185 C   0  0  0  0  0  0  0  0  0  0  0  0
    3.0744    1.6101    1.3305 O   0  0  0  0  0  0  0  0  0  0  0  0
   -2.8913    1.9490    1.4555 H   0  0  0  0  0  0  0  0  0  0  0  0
   -4.5821    1.7352    0.8694 H   0  0  0  0  0  0  0  0  0  0  0  0
   -3.5636    0.2881    0.9911 H   0  0  0  0  0  0  0  0  0  0  0  0
   -3.3032    2.5650   -0.9794 H   0  0  0  0  0  0  0  0  0  0  0  0
   -3.6210    0.8250   -1.3124 H   0  0  0  0  0  0  0  0  0  0  0  0
   -1.2395    1.4700   -1.8009 H   0  0  0  0  0  0  0  0  0  0  0  0
   -1.0706    2.0602   -0.1491 H   0  0  0  0  0  0  0  0  0  0  0  0
   -1.4433   -0.1675    0.7839 H   0  0  0  0  0  0  0  0  0  0  0  0
   -1.2602   -1.2868   -2.0350 H   0  0  0  0  0  0  0  0  0  0  0  0
   -2.8762   -1.0552   -1.2180 H   0  0  0  0  0  0  0  0  0  0  0  0
   -1.8620   -3.2866   -0.8597 H   0  0  0  0  0  0  0  0  0  0  0  0
   -2.3905   -2.3897    0.5754 H   0  0  0  0  0  0  0  0  0  0  0  0
    0.1377   -3.5689    0.1799 H   0  0  0  0  0  0  0  0  0  0  0  0
   -0.3211   -2.4601    1.4770 H   0  0  0  0  0  0  0  0  0  0  0  0
    1.2640   -1.9715   -1.0475 H   0  0  0  0  0  0  0  0  0  0  0  0
    1.6072   -1.4894    0.6005 H   0  0  0  0  0  0  0  0  0  0  0  0
    0.6226    0.1209   -1.4622 H   0  0  0  0  0  0  0  0  0  0  0  0
    0.3745    1.3918    1.0949 H   0  0  0  0  0  0  0  0  0  0  0  0
    5.0254    0.9299   -0.9126 H   0  0  0  0  0  0  0  0  0  0  0  0
    5.0744   -0.4779    0.2289 H   0  0  0  0  0  0  0  0  0  0  0  0
    4.9179    2.3939    0.8763 H   0  0  0  0  0  0  0  0  0  0  0  0
    4.9070    0.9620    2.0162 H   0  0  0  0  0  0  0  0  0  0  0  0
  1  2  1  0
  2  3  1  0
  3  4  1  0
  4  5  1  0
  5  6  1  0
  6  7  1  0
  7  8  1  0
  8  9  1  0
  9 10  1  0
 10 11  1  0
 11 12  2  0
 12 13  1  0
 13 14  1  0
 14 15  1  0
  9  4  1  0
 15 11  1  0
  1 16  1  0
  1 17  1  0
  1 18  1  0
  2 19  1  0
  2 20  1  0
  3 21  1  0
  3 22  1  0
  4 23  1  1
  5 24  1  0
  5 25  1  0
  6 26  1  0
  6 27  1  0
  7 28  1  0
  7 29  1  0
  8 30  1  0
  8 31  1  0
  9 32  1  6
 10 33  1  0
 13 34  1  0
 13 35  1  0
 14 36  1  0
 14 37  1  0
M  END
>  <Ligand ID>  (1) 
LIG0004087

>  <Ligand>  (1) 
AGN-190837

>  <SMILES>  (1) 
CCC[C@H]1CCCC[C@@H]1NC1=NCCO1

>  <CID>  (1) 
9815707.0

>  <ChEMBL ID>  (1) 
nan

>  <InChiKey>  (1) 
WDSZUSABLKNHCZ-QWRGUYRKSA-N

>  <InChi>  (1) 
InChI=1S/C12H22N2O/c1-2-5-10-6-3-4-7-11(10)14-12-13-8-9-15-12/h10-11H,2-9H2,1H3,(H,13,14)/t10-,11-/m0/s1

>  <IUPAC Name>  (1) 
N-[(1S,2S)-2-propylcyclohexyl]-4,5-dihydro-1,3-oxazol-2-amine

$$$$
