
     RDKit          3D

 47 49  0  0  0  0  0  0  0  0999 V2000
   -1.9410    3.3975    0.8763 C   0  0  0  0  0  0  0  0  0  0  0  0
   -3.0690    2.8967    1.5331 O   0  0  0  0  0  0  0  0  0  0  0  0
   -3.5821    1.6121    1.3897 C   0  0  0  0  0  0  0  0  0  0  0  0
   -4.7100    1.2918    2.1099 C   0  0  0  0  0  0  0  0  0  0  0  0
   -5.1980    0.0062    1.9463 C   0  0  0  0  0  0  0  0  0  0  0  0
   -4.5905   -0.8830    1.1189 C   0  0  0  0  0  0  0  0  0  0  0  0
   -3.4267   -0.5711    0.3690 C   0  0  0  0  0  0  0  0  0  0  0  0
   -2.9674    0.6899    0.5443 C   0  0  0  0  0  0  0  0  0  0  0  0
   -2.9256   -1.6307   -0.4449 C   0  0  0  0  0  0  0  0  0  0  0  0
   -3.8349   -2.4734   -0.8651 O   0  0  0  0  0  0  0  0  0  0  0  0
   -1.6054   -1.9683   -0.8948 C   0  0  0  0  0  0  0  0  0  0  0  0
   -1.2105   -3.2955   -0.5936 C   0  0  0  0  0  0  0  0  0  0  0  0
    0.0269   -3.7861   -0.9096 C   0  0  0  0  0  0  0  0  0  0  0  0
    0.4105   -5.1876   -0.5900 C   0  0  0  0  0  0  0  0  0  0  0  0
    0.8791   -2.9530   -1.5279 N   0  0  0  0  0  0  0  0  0  0  0  0
    0.5467   -1.7034   -1.8275 N   0  0  0  0  0  0  0  0  0  0  0  0
   -0.6852   -1.1999   -1.5203 C   0  0  0  0  0  0  0  0  0  0  0  0
   -0.8760   -0.0140   -1.8609 O   0  0  0  0  0  0  0  0  0  0  0  0
    1.5710   -0.9133   -2.4804 C   0  0  0  0  0  0  0  0  0  0  0  0
    2.4319   -0.2082   -1.5030 C   0  0  0  0  0  0  0  0  0  0  0  0
    3.2901   -0.9156   -0.8964 O   0  0  0  0  0  0  0  0  0  0  0  0
    2.3407    1.1829   -1.2264 N   0  0  0  0  0  0  0  0  0  0  0  0
    3.2406    1.7011   -0.2543 C   0  0  0  0  0  0  0  0  0  0  0  0
    2.9357    1.7947    1.0854 C   0  0  0  0  0  0  0  0  0  0  0  0
    3.8401    2.3032    2.0249 C   0  0  0  0  0  0  0  0  0  0  0  0
    5.0724    2.7177    1.5609 C   0  0  0  0  0  0  0  0  0  0  0  0
    5.4239    2.6403    0.2103 C   0  0  0  0  0  0  0  0  0  0  0  0
    4.4978    2.1273   -0.7032 C   0  0  0  0  0  0  0  0  0  0  0  0
    6.3347    3.4207    2.8319 Br  0  0  0  0  0  0  0  0  0  0  0  0
   -0.9791    3.1134    1.3789 H   0  0  0  0  0  0  0  0  0  0  0  0
   -1.8996    3.0499   -0.1827 H   0  0  0  0  0  0  0  0  0  0  0  0
   -2.0107    4.5249    0.8784 H   0  0  0  0  0  0  0  0  0  0  0  0
   -5.1799    1.9985    2.7578 H   0  0  0  0  0  0  0  0  0  0  0  0
   -6.0843   -0.2914    2.4943 H   0  0  0  0  0  0  0  0  0  0  0  0
   -5.0376   -1.8782    1.0507 H   0  0  0  0  0  0  0  0  0  0  0  0
   -2.1063    1.0323    0.0434 H   0  0  0  0  0  0  0  0  0  0  0  0
   -1.8908   -3.9735   -0.0930 H   0  0  0  0  0  0  0  0  0  0  0  0
    1.3247   -5.2378    0.0127 H   0  0  0  0  0  0  0  0  0  0  0  0
    0.5406   -5.6815   -1.5947 H   0  0  0  0  0  0  0  0  0  0  0  0
   -0.4707   -5.7064   -0.1438 H   0  0  0  0  0  0  0  0  0  0  0  0
    2.1756   -1.4985   -3.1984 H   0  0  0  0  0  0  0  0  0  0  0  0
    1.0847   -0.1236   -3.0874 H   0  0  0  0  0  0  0  0  0  0  0  0
    1.6355    1.7422   -1.7402 H   0  0  0  0  0  0  0  0  0  0  0  0
    1.9428    1.4514    1.4189 H   0  0  0  0  0  0  0  0  0  0  0  0
    3.5674    2.3635    3.0826 H   0  0  0  0  0  0  0  0  0  0  0  0
    6.4182    2.9789   -0.1305 H   0  0  0  0  0  0  0  0  0  0  0  0
    4.7497    2.0571   -1.7625 H   0  0  0  0  0  0  0  0  0  0  0  0
  1  2  1  0
  2  3  1  0
  3  4  2  0
  4  5  1  0
  5  6  2  0
  6  7  1  0
  7  8  2  0
  7  9  1  0
  9 10  2  0
  9 11  1  0
 11 12  2  0
 12 13  1  0
 13 14  1  0
 13 15  2  0
 15 16  1  0
 16 17  1  0
 17 18  2  0
 16 19  1  0
 19 20  1  0
 20 21  2  0
 20 22  1  0
 22 23  1  0
 23 24  2  0
 24 25  1  0
 25 26  2  0
 26 27  1  0
 27 28  2  0
 26 29  1  0
  8  3  1  0
 17 11  1  0
 28 23  1  0
  1 30  1  0
  1 31  1  0
  1 32  1  0
  4 33  1  0
  5 34  1  0
  6 35  1  0
  8 36  1  0
 12 37  1  0
 14 38  1  0
 14 39  1  0
 14 40  1  0
 19 41  1  0
 19 42  1  0
 22 43  1  0
 24 44  1  0
 25 45  1  0
 27 46  1  0
 28 47  1  0
M  END
>  <Ligand ID>  (1) 
LIG0003935

>  <Ligand>  (1) 
CHEMBL2391446

>  <SMILES>  (1) 
COc1cccc(c1)C(=O)c1cc(C)nn(c1=O)CC(=O)Nc1ccc(cc1)Br

>  <CID>  (1) 
71698362.0

>  <ChEMBL ID>  (1) 
nan

>  <InChiKey>  (1) 
LVXGAEPFJDNERL-UHFFFAOYSA-N

>  <InChi>  (1) 
InChI=1S/C21H18BrN3O4/c1-13-10-18(20(27)14-4-3-5-17(11-14)29-2)21(28)25(24-13)12-19(26)23-16-8-6-15(22)7-9-16/h3-11H,12H2,1-2H3,(H,23,26)

>  <IUPAC Name>  (1) 
N-(4-bromophenyl)-2-[5-(3-methoxybenzoyl)-3-methyl-6-oxopyridazin-1-yl]acetamide

$$$$
