
     RDKit          3D

 35 37  0  0  0  0  0  0  0  0999 V2000
   -5.2905   -1.6098   -1.5607 C   0  0  0  0  0  0  0  0  0  0  0  0
   -3.9026   -1.1013   -1.2948 C   0  0  0  0  0  0  0  0  0  0  0  0
   -2.5413   -1.4879   -2.5505 S   0  0  0  0  0  0  0  0  0  0  0  0
   -1.3440   -0.5941   -1.5372 C   0  0  0  0  0  0  0  0  0  0  0  0
   -2.0679   -0.1234   -0.4087 C   0  0  0  0  0  0  0  0  0  0  0  0
   -3.3301   -0.5065   -0.5205 N   0  0  0  0  0  0  0  0  0  0  0  0
   -1.5897    0.7437    0.6585 C   0  0  0  0  0  0  0  0  0  0  0  0
   -2.5468    1.4277    1.4365 C   0  0  0  0  0  0  0  0  0  0  0  0
   -2.2172    2.4029    2.3351 C   0  0  0  0  0  0  0  0  0  0  0  0
   -0.9128    2.7747    2.5312 C   0  0  0  0  0  0  0  0  0  0  0  0
    0.0450    2.1202    1.7870 C   0  0  0  0  0  0  0  0  0  0  0  0
   -0.3036    1.1184    0.8698 C   0  0  0  0  0  0  0  0  0  0  0  0
    0.7558    0.3751    0.3242 N   0  0  0  0  0  0  0  0  0  0  0  0
    2.1310    0.8522    0.5246 C   0  0  0  0  0  0  0  0  0  0  0  0
    3.1332   -0.0268   -0.1046 C   0  0  0  0  0  0  0  0  0  0  0  0
    3.9822    0.2805   -1.0159 N   0  0  0  0  0  0  0  0  0  0  0  0
    4.8029   -0.8478   -1.3843 C   0  0  0  0  0  0  0  0  0  0  0  0
    4.1266   -2.0417   -0.7391 C   0  0  0  0  0  0  0  0  0  0  0  0
    3.2745   -1.4132    0.2604 N   0  0  0  0  0  0  0  0  0  0  0  0
   -5.9378   -0.8491   -2.0200 H   0  0  0  0  0  0  0  0  0  0  0  0
   -5.6917   -1.8437   -0.5560 H   0  0  0  0  0  0  0  0  0  0  0  0
   -5.2500   -2.5020   -2.2203 H   0  0  0  0  0  0  0  0  0  0  0  0
   -0.2949   -0.4401   -1.8251 H   0  0  0  0  0  0  0  0  0  0  0  0
   -3.6085    1.1891    1.3387 H   0  0  0  0  0  0  0  0  0  0  0  0
   -2.9881    2.8956    2.9052 H   0  0  0  0  0  0  0  0  0  0  0  0
   -0.6951    3.5522    3.2491 H   0  0  0  0  0  0  0  0  0  0  0  0
    1.0704    2.4160    1.9441 H   0  0  0  0  0  0  0  0  0  0  0  0
    0.6992   -0.5320   -0.1675 H   0  0  0  0  0  0  0  0  0  0  0  0
    2.2852    1.8809    0.2022 H   0  0  0  0  0  0  0  0  0  0  0  0
    2.3186    0.8309    1.6358 H   0  0  0  0  0  0  0  0  0  0  0  0
    5.8494   -0.7628   -1.0516 H   0  0  0  0  0  0  0  0  0  0  0  0
    4.8058   -1.0102   -2.4879 H   0  0  0  0  0  0  0  0  0  0  0  0
    4.8515   -2.6772   -0.1688 H   0  0  0  0  0  0  0  0  0  0  0  0
    3.5438   -2.6192   -1.4849 H   0  0  0  0  0  0  0  0  0  0  0  0
    2.8376   -1.8712    1.0961 H   0  0  0  0  0  0  0  0  0  0  0  0
  1  2  1  0
  2  3  1  0
  3  4  1  0
  4  5  2  0
  5  6  1  0
  5  7  1  0
  7  8  2  0
  8  9  1  0
  9 10  2  0
 10 11  1  0
 11 12  2  0
 12 13  1  0
 13 14  1  0
 14 15  1  0
 15 16  2  0
 16 17  1  0
 17 18  1  0
 18 19  1  0
  6  2  2  0
 12  7  1  0
 19 15  1  0
  1 20  1  0
  1 21  1  0
  1 22  1  0
  4 23  1  0
  8 24  1  0
  9 25  1  0
 10 26  1  0
 11 27  1  0
 13 28  1  0
 14 29  1  0
 14 30  1  0
 17 31  1  0
 17 32  1  0
 18 33  1  0
 18 34  1  0
 19 35  1  0
M  END
>  <Ligand ID>  (1) 
LIG0003923

>  <Ligand>  (1) 
CHEMBL434074

>  <SMILES>  (1) 
Cc1scc(n1)c1ccccc1NCC1=NCCN1

>  <CID>  (1) 
9838376.0

>  <ChEMBL ID>  (1) 
nan

>  <InChiKey>  (1) 
VMGZXQADEXNHID-UHFFFAOYSA-N

>  <InChi>  (1) 
InChI=1S/C14H16N4S/c1-10-18-13(9-19-10)11-4-2-3-5-12(11)17-8-14-15-6-7-16-14/h2-5,9,17H,6-8H2,1H3,(H,15,16)

>  <IUPAC Name>  (1) 
N-(4,5-dihydro-1H-imidazol-2-ylmethyl)-2-(2-methyl-1,3-thiazol-4-yl)aniline

$$$$
