
     RDKit          3D

 45 47  0  0  0  0  0  0  0  0999 V2000
    0.3379   -0.7959   -0.2176 O   0  0  0  0  0  0  0  0  0  0  0  0
   -0.5178   -0.3006   -0.9568 C   0  0  0  0  0  0  0  0  0  0  0  0
   -1.9397   -0.6896   -0.7039 C   0  0  0  0  0  0  0  0  0  0  0  0
   -2.0779   -1.6538    0.4165 C   0  0  0  0  0  0  0  0  0  0  0  0
   -3.3278   -1.5892    1.2113 C   0  0  0  0  0  0  0  0  0  0  0  0
   -4.4820   -0.8749    0.6180 C   0  0  0  0  0  0  0  0  0  0  0  0
   -4.1735    0.1882   -0.3788 C   0  0  0  0  0  0  0  0  0  0  0  0
   -2.7095    0.5816   -0.4215 C   0  0  0  0  0  0  0  0  0  0  0  0
   -2.2854    1.2274    0.8499 C   0  0  0  0  0  0  0  0  0  0  0  0
   -1.3890    0.7657    1.5982 O   0  0  0  0  0  0  0  0  0  0  0  0
   -2.9236    2.3967    1.2089 O   0  0  0  0  0  0  0  0  0  0  0  0
   -0.2126    0.5899   -1.9979 N   0  0  0  0  0  0  0  0  0  0  0  0
    1.0526    1.1000   -2.3985 C   0  0  0  0  0  0  0  0  0  0  0  0
    1.8077    1.9737   -1.4744 C   0  0  0  0  0  0  0  0  0  0  0  0
    2.2007    1.4140   -0.1840 C   0  0  0  0  0  0  0  0  0  0  0  0
    1.6697    1.7132    1.0703 C   0  0  0  0  0  0  0  0  0  0  0  0
    2.3750    0.9826    1.9679 N   0  0  0  0  0  0  0  0  0  0  0  0
    3.3137    0.2486    1.3287 C   0  0  0  0  0  0  0  0  0  0  0  0
    3.2348    0.4939   -0.0288 C   0  0  0  0  0  0  0  0  0  0  0  0
    4.0807   -0.1250   -0.9264 C   0  0  0  0  0  0  0  0  0  0  0  0
    5.0270   -1.0113   -0.4390 C   0  0  0  0  0  0  0  0  0  0  0  0
    5.1409   -1.2856    0.9089 C   0  0  0  0  0  0  0  0  0  0  0  0
    4.2602   -0.6325    1.7750 C   0  0  0  0  0  0  0  0  0  0  0  0
   -2.3632   -1.1217   -1.6304 H   0  0  0  0  0  0  0  0  0  0  0  0
   -1.2189   -1.5175    1.1386 H   0  0  0  0  0  0  0  0  0  0  0  0
   -1.8767   -2.6818   -0.0079 H   0  0  0  0  0  0  0  0  0  0  0  0
   -3.6503   -2.6614    1.3779 H   0  0  0  0  0  0  0  0  0  0  0  0
   -3.1472   -1.2310    2.2684 H   0  0  0  0  0  0  0  0  0  0  0  0
   -5.0383   -0.3551    1.4541 H   0  0  0  0  0  0  0  0  0  0  0  0
   -5.2521   -1.5939    0.2214 H   0  0  0  0  0  0  0  0  0  0  0  0
   -4.3754   -0.2483   -1.4013 H   0  0  0  0  0  0  0  0  0  0  0  0
   -4.8509    1.0707   -0.3312 H   0  0  0  0  0  0  0  0  0  0  0  0
   -2.5824    1.2867   -1.2715 H   0  0  0  0  0  0  0  0  0  0  0  0
   -2.7350    2.8444    2.0954 H   0  0  0  0  0  0  0  0  0  0  0  0
   -1.0595    0.9285   -2.5673 H   0  0  0  0  0  0  0  0  0  0  0  0
    1.7247    0.2391   -2.7550 H   0  0  0  0  0  0  0  0  0  0  0  0
    0.9399    1.6831   -3.3635 H   0  0  0  0  0  0  0  0  0  0  0  0
    2.7484    2.3807   -1.9847 H   0  0  0  0  0  0  0  0  0  0  0  0
    1.2456    2.9532   -1.2830 H   0  0  0  0  0  0  0  0  0  0  0  0
    0.8528    2.3958    1.2879 H   0  0  0  0  0  0  0  0  0  0  0  0
    2.2267    0.9756    3.0117 H   0  0  0  0  0  0  0  0  0  0  0  0
    4.0094    0.0752   -1.9858 H   0  0  0  0  0  0  0  0  0  0  0  0
    5.6825   -1.4877   -1.1589 H   0  0  0  0  0  0  0  0  0  0  0  0
    5.8818   -1.9726    1.2375 H   0  0  0  0  0  0  0  0  0  0  0  0
    4.3760   -0.8694    2.8216 H   0  0  0  0  0  0  0  0  0  0  0  0
  1  2  2  0
  2  3  1  0
  3  4  1  0
  4  5  1  0
  5  6  1  0
  6  7  1  0
  7  8  1  0
  8  9  1  0
  9 10  2  0
  9 11  1  0
  2 12  1  0
 12 13  1  0
 13 14  1  0
 14 15  1  0
 15 16  2  0
 16 17  1  0
 17 18  1  0
 18 19  2  0
 19 20  1  0
 20 21  2  0
 21 22  1  0
 22 23  2  0
  8  3  1  0
 19 15  1  0
 23 18  1  0
  3 24  1  0
  4 25  1  0
  4 26  1  0
  5 27  1  0
  5 28  1  0
  6 29  1  0
  6 30  1  0
  7 31  1  0
  7 32  1  0
  8 33  1  0
 11 34  1  0
 12 35  1  0
 13 36  1  0
 13 37  1  0
 14 38  1  0
 14 39  1  0
 16 40  1  0
 17 41  1  0
 20 42  1  0
 21 43  1  0
 22 44  1  0
 23 45  1  0
M  END
>  <Ligand ID>  (1) 
LIG0003025

>  <Ligand>  (1) 
MLS000051191

>  <SMILES>  (1) 
O=C(C1CCCCC1C(=O)O)NCCc1c[nH]c2c1cccc2

>  <CID>  (1) 
2965107.0

>  <ChEMBL ID>  (1) 
nan

>  <InChiKey>  (1) 
URCMCAGJCXKTIR-UHFFFAOYSA-N

>  <InChi>  (1) 
InChI=1S/C18H22N2O3/c21-17(14-6-1-2-7-15(14)18(22)23)19-10-9-12-11-20-16-8-4-3-5-13(12)16/h3-5,8,11,14-15,20H,1-2,6-7,9-10H2,(H,19,21)(H,22,23)

>  <IUPAC Name>  (1) 
2-[2-(1H-indol-3-yl)ethylcarbamoyl]cyclohexane-1-carboxylic acid

$$$$
