
     RDKit          3D

 61 64  0  0  0  0  0  0  0  0999 V2000
    8.4143   -0.8424    0.1611 Cl  0  0  0  0  0  0  0  0  0  0  0  0
    6.7890   -1.5195    0.1077 C   0  0  0  0  0  0  0  0  0  0  0  0
    6.6814   -2.8832    0.1948 C   0  0  0  0  0  0  0  0  0  0  0  0
    5.4250   -3.4407    0.1557 C   0  0  0  0  0  0  0  0  0  0  0  0
    4.3096   -2.6341    0.0317 C   0  0  0  0  0  0  0  0  0  0  0  0
    4.3796   -1.2584   -0.0585 C   0  0  0  0  0  0  0  0  0  0  0  0
    5.6679   -0.7206   -0.0161 C   0  0  0  0  0  0  0  0  0  0  0  0
    3.2248   -0.4286   -0.1818 N   0  0  0  0  0  0  0  0  0  0  0  0
    3.2712    0.9900   -0.3924 C   0  0  0  0  0  0  0  0  0  0  0  0
    2.0945    1.4276   -1.2646 C   0  0  0  0  0  0  0  0  0  0  0  0
    0.8574    0.9221   -0.7369 N   0  0  0  0  0  0  0  0  0  0  0  0
    0.9130   -0.0580    0.3167 C   0  0  0  0  0  0  0  0  0  0  0  0
    1.9326   -1.1068   -0.0752 C   0  0  0  0  0  0  0  0  0  0  0  0
   -0.3569    1.3910   -1.2567 C   0  0  0  0  0  0  0  0  0  0  0  0
   -0.3194    2.2467   -2.1767 O   0  0  0  0  0  0  0  0  0  0  0  0
   -1.6719    0.9555   -0.8052 C   0  0  0  0  0  0  0  0  0  0  0  0
   -2.2165   -0.1412   -1.4602 C   0  0  0  0  0  0  0  0  0  0  0  0
   -3.4480   -0.6280   -1.1096 C   0  0  0  0  0  0  0  0  0  0  0  0
   -4.1463   -0.0022   -0.0821 C   0  0  0  0  0  0  0  0  0  0  0  0
   -3.6238    1.0830    0.5766 C   0  0  0  0  0  0  0  0  0  0  0  0
   -2.3663    1.5754    0.2143 C   0  0  0  0  0  0  0  0  0  0  0  0
   -1.7899    2.6978    0.8719 N   0  0  0  0  0  0  0  0  0  0  0  0
   -1.3843    3.9793    0.3096 C   0  0  0  0  0  0  0  0  0  0  0  0
   -1.6905    5.0182    1.3741 C   0  0  0  0  0  0  0  0  0  0  0  0
   -1.5292    4.2369    2.6469 C   0  0  0  0  0  0  0  0  0  0  0  0
   -1.4825    2.7792    2.3013 C   0  0  0  0  0  0  0  0  0  0  0  0
   -4.2097   -1.9985   -1.8738 S   0  0  0  0  0  0  0  0  0  0  0  0
   -5.6702   -1.7177   -1.9332 O   0  0  0  0  0  0  0  0  0  0  0  0
   -3.7536   -2.1262   -3.3208 O   0  0  0  0  0  0  0  0  0  0  0  0
   -3.8430   -3.4874   -1.1229 N   0  0  0  0  0  0  0  0  0  0  0  0
   -2.4294   -3.7341   -1.1884 C   0  0  0  0  0  0  0  0  0  0  0  0
   -4.3734   -3.6007    0.2111 C   0  0  0  0  0  0  0  0  0  0  0  0
    7.5271   -3.5369    0.2917 H   0  0  0  0  0  0  0  0  0  0  0  0
    5.3047   -4.5293    0.2229 H   0  0  0  0  0  0  0  0  0  0  0  0
    3.3565   -3.1389    0.0062 H   0  0  0  0  0  0  0  0  0  0  0  0
    5.8411    0.3404   -0.0766 H   0  0  0  0  0  0  0  0  0  0  0  0
    3.1641    1.5114    0.6017 H   0  0  0  0  0  0  0  0  0  0  0  0
    4.2318    1.2437   -0.8831 H   0  0  0  0  0  0  0  0  0  0  0  0
    2.1232    2.5433   -1.2358 H   0  0  0  0  0  0  0  0  0  0  0  0
    2.2786    1.0859   -2.2919 H   0  0  0  0  0  0  0  0  0  0  0  0
   -0.0461   -0.5156    0.5606 H   0  0  0  0  0  0  0  0  0  0  0  0
    1.3121    0.4709    1.2242 H   0  0  0  0  0  0  0  0  0  0  0  0
    1.7071   -1.5622   -1.0378 H   0  0  0  0  0  0  0  0  0  0  0  0
    1.9500   -1.8778    0.7293 H   0  0  0  0  0  0  0  0  0  0  0  0
   -1.6838   -0.6228   -2.2482 H   0  0  0  0  0  0  0  0  0  0  0  0
   -5.1197   -0.3730    0.2079 H   0  0  0  0  0  0  0  0  0  0  0  0
   -4.1568    1.5924    1.3902 H   0  0  0  0  0  0  0  0  0  0  0  0
   -0.3086    3.9690    0.0143 H   0  0  0  0  0  0  0  0  0  0  0  0
   -1.9544    4.2527   -0.5946 H   0  0  0  0  0  0  0  0  0  0  0  0
   -0.9539    5.8357    1.2718 H   0  0  0  0  0  0  0  0  0  0  0  0
   -2.7294    5.3378    1.2928 H   0  0  0  0  0  0  0  0  0  0  0  0
   -0.5673    4.5343    3.1191 H   0  0  0  0  0  0  0  0  0  0  0  0
   -2.3491    4.5049    3.3528 H   0  0  0  0  0  0  0  0  0  0  0  0
   -0.5249    2.2929    2.5303 H   0  0  0  0  0  0  0  0  0  0  0  0
   -2.2591    2.2717    2.9088 H   0  0  0  0  0  0  0  0  0  0  0  0
   -1.8726   -2.9577   -1.7333 H   0  0  0  0  0  0  0  0  0  0  0  0
   -2.2816   -4.7527   -1.6471 H   0  0  0  0  0  0  0  0  0  0  0  0
   -2.0837   -3.8593   -0.1230 H   0  0  0  0  0  0  0  0  0  0  0  0
   -3.5977   -3.3973    1.0028 H   0  0  0  0  0  0  0  0  0  0  0  0
   -5.2808   -2.9820    0.3639 H   0  0  0  0  0  0  0  0  0  0  0  0
   -4.6824   -4.6559    0.3621 H   0  0  0  0  0  0  0  0  0  0  0  0
  1  2  1  0
  2  3  2  0
  3  4  1  0
  4  5  2  0
  5  6  1  0
  6  7  2  0
  6  8  1  0
  8  9  1  0
  9 10  1  0
 10 11  1  0
 11 12  1  0
 12 13  1  0
 11 14  1  0
 14 15  2  0
 14 16  1  0
 16 17  2  0
 17 18  1  0
 18 19  2  0
 19 20  1  0
 20 21  2  0
 21 22  1  0
 22 23  1  0
 23 24  1  0
 24 25  1  0
 25 26  1  0
 18 27  1  0
 27 28  2  0
 27 29  2  0
 27 30  1  0
 30 31  1  0
 30 32  1  0
  7  2  1  0
 13  8  1  0
 21 16  1  0
 26 22  1  0
  3 33  1  0
  4 34  1  0
  5 35  1  0
  7 36  1  0
  9 37  1  0
  9 38  1  0
 10 39  1  0
 10 40  1  0
 12 41  1  0
 12 42  1  0
 13 43  1  0
 13 44  1  0
 17 45  1  0
 19 46  1  0
 20 47  1  0
 23 48  1  0
 23 49  1  0
 24 50  1  0
 24 51  1  0
 25 52  1  0
 25 53  1  0
 26 54  1  0
 26 55  1  0
 31 56  1  0
 31 57  1  0
 31 58  1  0
 32 59  1  0
 32 60  1  0
 32 61  1  0
M  END
>  <Ligand ID>  (1) 
LIG0001965

>  <Ligand>  (1) 
MLS-0435543.0001

>  <SMILES>  (1) 
Clc1cccc(c1)N1CCN(CC1)C(=O)c1cc(ccc1N1CCCC1)S(=O)(=O)N(C)C

>  <CID>  (1) 
24982085.0

>  <ChEMBL ID>  (1) 
nan

>  <InChiKey>  (1) 
LKJVNMUZFRSIBN-UHFFFAOYSA-N

>  <InChi>  (1) 
InChI=1S/C23H29ClN4O3S/c1-25(2)32(30,31)20-8-9-22(27-10-3-4-11-27)21(17-20)23(29)28-14-12-26(13-15-28)19-7-5-6-18(24)16-19/h5-9,16-17H,3-4,10-15H2,1-2H3

>  <IUPAC Name>  (1) 
3-[4-(3-chlorophenyl)piperazine-1-carbonyl]-N,N-dimethyl-4-pyrrolidin-1-ylbenzenesulfonamide

$$$$
