
     RDKit          3D

 40 40  0  0  0  0  0  0  0  0999 V2000
    7.7373    0.3118   -1.3769 O   0  0  0  0  0  0  0  0  0  0  0  0
    6.6512    0.1343   -0.5289 C   0  0  0  0  0  0  0  0  0  0  0  0
    6.2158    1.1609    0.0500 O   0  0  0  0  0  0  0  0  0  0  0  0
    6.1077   -1.2193   -0.3798 C   0  0  0  0  0  0  0  0  0  0  0  0
    5.0018   -1.3295    0.4666 O   0  0  0  0  0  0  0  0  0  0  0  0
    3.7817   -0.7271    0.3327 C   0  0  0  0  0  0  0  0  0  0  0  0
    3.4093    0.1126   -0.6872 C   0  0  0  0  0  0  0  0  0  0  0  0
    2.1653    0.7005   -0.7828 C   0  0  0  0  0  0  0  0  0  0  0  0
    1.2292    0.4340    0.2036 C   0  0  0  0  0  0  0  0  0  0  0  0
    1.5708   -0.4174    1.2599 C   0  0  0  0  0  0  0  0  0  0  0  0
    2.8295   -0.9804    1.3093 C   0  0  0  0  0  0  0  0  0  0  0  0
   -0.1460    1.0453    0.1555 C   0  0  0  0  0  0  0  0  0  0  0  0
   -1.1841   -0.1128   -0.7744 P   0  0  0  0  0  0  0  0  0  0  0  0
   -0.3966   -1.2711   -1.3344 O   0  0  0  0  0  0  0  0  0  0  0  0
   -2.5113   -0.6848    0.3254 C   0  0  0  0  0  0  0  0  0  0  0  0
   -3.7089    0.1832    0.0368 C   0  0  0  0  0  0  0  0  0  0  0  0
   -4.9070   -0.1670    0.8758 C   0  0  1  0  0  0  0  0  0  0  0  0
   -6.0042    0.7594    0.4898 C   0  0  0  0  0  0  0  0  0  0  0  0
   -5.8071    2.0205    0.5144 O   0  0  0  0  0  0  0  0  0  0  0  0
   -7.2466    0.2883    0.1002 O   0  0  0  0  0  0  0  0  0  0  0  0
   -5.2881   -1.5382    0.7948 N   0  0  0  0  0  0  0  0  0  0  0  0
   -1.8273    0.7512   -2.0785 O   0  0  0  0  0  0  0  0  0  0  0  0
    8.2522    1.1785   -1.3624 H   0  0  0  0  0  0  0  0  0  0  0  0
    5.8211   -1.5649   -1.3964 H   0  0  0  0  0  0  0  0  0  0  0  0
    6.8995   -1.9062    0.0343 H   0  0  0  0  0  0  0  0  0  0  0  0
    4.1126    0.3355   -1.4707 H   0  0  0  0  0  0  0  0  0  0  0  0
    1.8797    1.3610   -1.5893 H   0  0  0  0  0  0  0  0  0  0  0  0
    0.8485   -0.6380    2.0433 H   0  0  0  0  0  0  0  0  0  0  0  0
    3.0546   -1.6438    2.1583 H   0  0  0  0  0  0  0  0  0  0  0  0
   -0.4896    1.1584    1.2135 H   0  0  0  0  0  0  0  0  0  0  0  0
   -0.1308    2.0638   -0.2745 H   0  0  0  0  0  0  0  0  0  0  0  0
   -2.1479   -0.6223    1.3524 H   0  0  0  0  0  0  0  0  0  0  0  0
   -2.6879   -1.7553    0.0787 H   0  0  0  0  0  0  0  0  0  0  0  0
   -3.4003    1.2228    0.2487 H   0  0  0  0  0  0  0  0  0  0  0  0
   -3.9616    0.0762   -1.0260 H   0  0  0  0  0  0  0  0  0  0  0  0
   -4.6293    0.0707    1.9412 H   0  0  0  0  0  0  0  0  0  0  0  0
   -8.0579    0.8926    0.1227 H   0  0  0  0  0  0  0  0  0  0  0  0
   -4.7131   -2.1486    0.2006 H   0  0  0  0  0  0  0  0  0  0  0  0
   -6.3012   -1.5942    0.5420 H   0  0  0  0  0  0  0  0  0  0  0  0
   -2.0209    1.6962   -1.7881 H   0  0  0  0  0  0  0  0  0  0  0  0
  1  2  1  0
  2  3  2  0
  2  4  1  0
  4  5  1  0
  5  6  1  0
  6  7  2  0
  7  8  1  0
  8  9  2  0
  9 10  1  0
 10 11  2  0
  9 12  1  0
 12 13  1  0
 13 14  2  0
 13 15  1  0
 15 16  1  0
 16 17  1  0
 17 18  1  0
 18 19  2  0
 18 20  1  0
 17 21  1  0
 13 22  1  0
 11  6  1  0
  1 23  1  0
  4 24  1  0
  4 25  1  0
  7 26  1  0
  8 27  1  0
 10 28  1  0
 11 29  1  0
 12 30  1  0
 12 31  1  0
 15 32  1  0
 15 33  1  0
 16 34  1  0
 16 35  1  0
 17 36  1  1
 20 37  1  0
 21 38  1  0
 21 39  1  0
 22 40  1  0
M  END
>  <Ligand ID>  (1) 
LIG0001236

>  <Ligand>  (1) 
CHEMBL3919887

>  <SMILES>  (1) 
OC(=O)COc1ccc(cc1)CP(=O)(CC[C@@H](C(=O)O)N)O

>  <CID>  (1) 
71014602.0

>  <ChEMBL ID>  (1) 
nan

>  <InChiKey>  (1) 
XHNVTQBHEJKWLF-NSHDSACASA-N

>  <InChi>  (1) 
InChI=1S/C13H18NO7P/c14-11(13(17)18)5-6-22(19,20)8-9-1-3-10(4-2-9)21-7-12(15)16/h1-4,11H,5-8,14H2,(H,15,16)(H,17,18)(H,19,20)/t11-/m0/s1

>  <IUPAC Name>  (1) 
(2S)-2-amino-4-[[4-(carboxymethoxy)phenyl]methyl-hydroxyphosphoryl]butanoic acid

$$$$
