
     RDKit          3D

 33 33  0  0  0  0  0  0  0  0999 V2000
   -2.5762    2.5882    0.7518 F   0  0  0  0  0  0  0  0  0  0  0  0
   -3.0659    1.9285   -0.3781 C   0  0  0  0  0  0  0  0  0  0  0  0
   -1.9640    1.5469   -1.2998 C   0  0  0  0  0  0  0  0  0  0  0  0
   -0.9842    0.7141   -0.8353 O   0  0  0  0  0  0  0  0  0  0  0  0
   -1.1164   -0.5684   -0.4173 C   0  0  0  0  0  0  0  0  0  0  0  0
   -2.2556   -1.3236   -0.3861 C   0  0  0  0  0  0  0  0  0  0  0  0
   -2.3006   -2.6391    0.0580 C   0  0  0  0  0  0  0  0  0  0  0  0
   -1.1564   -3.2585    0.5006 C   0  0  0  0  0  0  0  0  0  0  0  0
    0.0068   -2.5284    0.4821 C   0  0  0  0  0  0  0  0  0  0  0  0
    0.0532   -1.2030    0.0353 C   0  0  0  0  0  0  0  0  0  0  0  0
    1.3617   -0.5452    0.0765 C   0  0  2  0  0  0  0  0  0  0  0  0
    1.8639    0.1297    1.2980 C   0  0  0  0  0  0  0  0  0  0  0  0
    1.6002    0.8944    0.0413 C   0  0  1  0  0  0  0  0  0  0  0  0
    2.8060    1.3978   -0.7624 C   0  0  0  0  0  0  0  0  0  0  0  0
    4.0381    0.8439   -0.2486 N   0  0  0  0  0  0  0  0  0  0  0  0
   -1.2376   -4.5411    0.9260 F   0  0  0  0  0  0  0  0  0  0  0  0
    0.6832    0.0000    0.0000 Cl  0  0  0  0  0  0  0  0  0  0  0  0
   -3.7540    1.1741   -0.0364 H   0  0  0  0  0  0  0  0  0  0  0  0
   -3.7055    2.6886   -0.9295 H   0  0  0  0  0  0  0  0  0  0  0  0
   -1.5203    2.5235   -1.6752 H   0  0  0  0  0  0  0  0  0  0  0  0
   -2.4484    1.1392   -2.2401 H   0  0  0  0  0  0  0  0  0  0  0  0
   -3.1785   -0.9138   -0.7303 H   0  0  0  0  0  0  0  0  0  0  0  0
   -3.2272   -3.1996    0.0655 H   0  0  0  0  0  0  0  0  0  0  0  0
    0.9040   -3.0375    0.8369 H   0  0  0  0  0  0  0  0  0  0  0  0
    2.1590   -1.1751   -0.4225 H   0  0  0  0  0  0  0  0  0  0  0  0
    2.9373    0.0749    1.5744 H   0  0  0  0  0  0  0  0  0  0  0  0
    1.2177    0.2626    2.2036 H   0  0  0  0  0  0  0  0  0  0  0  0
    0.8472    1.6842    0.1619 H   0  0  0  0  0  0  0  0  0  0  0  0
    2.8465    2.4847   -0.7841 H   0  0  0  0  0  0  0  0  0  0  0  0
    2.7065    1.0356   -1.8055 H   0  0  0  0  0  0  0  0  0  0  0  0
    4.5008    1.3993    0.4780 H   0  0  0  0  0  0  0  0  0  0  0  0
    4.6419    0.4232   -0.9721 H   0  0  0  0  0  0  0  0  0  0  0  0
   -0.6832    0.0000    0.0000 H   0  0  0  0  0  0  0  0  0  0  0  0
  1  2  1  0
  2  3  1  0
  3  4  1  0
  4  5  1  0
  5  6  2  0
  6  7  1  0
  7  8  2  0
  8  9  1  0
  9 10  2  0
 10 11  1  0
 11 12  1  0
 12 13  1  0
 13 14  1  0
 14 15  1  0
  8 16  1  0
 10  5  1  0
 13 11  1  0
  2 18  1  0
  2 19  1  0
  3 20  1  0
  3 21  1  0
  6 22  1  0
  7 23  1  0
  9 24  1  0
 11 25  1  6
 12 26  1  0
 12 27  1  0
 13 28  1  1
 14 29  1  0
 14 30  1  0
 15 31  1  0
 15 32  1  0
 17 33  1  0
M  END
>  <Ligand ID>  (1) 
LIG0005716

>  <Ligand>  (1) 
CHEMBL3416066

>  <SMILES>  (1) 
FCCOc1ccc(cc1[C@@H]1C[C@H]1CN)F.Cl

>  <CID>  (1) 
118733825.0

>  <ChEMBL ID>  (1) 
nan

>  <InChiKey>  (1) 
RJWLRXULSMGYPC-KXNXZCPBSA-N

>  <InChi>  (1) 
InChI=1S/C12H15F2NO.ClH/c13-3-4-16-12-2-1-9(14)6-11(12)10-5-8(10)7-15;/h1-2,6,8,10H,3-5,7,15H2;1H/t8-,10+;/m0./s1

>  <IUPAC Name>  (1) 
[(1R,2R)-2-[5-fluoro-2-(2-fluoroethoxy)phenyl]cyclopropyl]methanamine;hydrochloride

$$$$
