
     RDKit          3D

 55 58  0  0  0  0  0  0  0  0999 V2000
   -2.2916   -4.2632    0.9082 O   0  0  0  0  0  0  0  0  0  0  0  0
   -2.9645   -3.2853    0.1874 C   0  0  2  0  0  0  0  0  0  0  0  0
   -2.2645   -3.0798   -1.1400 C   0  0  0  0  0  0  0  0  0  0  0  0
   -1.0983   -2.2565   -0.7218 C   0  0  0  0  0  0  0  0  0  0  0  0
   -1.4061   -1.5677    0.4324 C   0  0  0  0  0  0  0  0  0  0  0  0
   -2.8000   -1.9161    0.8135 C   0  0  1  0  0  0  0  0  0  0  0  0
   -3.7597   -1.0331    0.1523 N   0  0  0  0  0  0  0  0  0  0  0  0
   -4.7575   -0.3659    0.8902 C   0  0  0  0  0  0  0  0  0  0  0  0
   -4.7675   -0.5798    2.1493 O   0  0  0  0  0  0  0  0  0  0  0  0
   -5.7377    0.5268    0.2669 C   0  0  0  0  0  0  0  0  0  0  0  0
   -5.7667    0.7992   -1.0759 C   0  0  0  0  0  0  0  0  0  0  0  0
   -6.6881    1.6393   -1.6706 C   0  0  0  0  0  0  0  0  0  0  0  0
   -7.6303    2.2284   -0.8246 C   0  0  0  0  0  0  0  0  0  0  0  0
   -7.6276    1.9741    0.5327 C   0  0  0  0  0  0  0  0  0  0  0  0
   -6.6886    1.1281    1.0843 C   0  0  0  0  0  0  0  0  0  0  0  0
   -8.9208    3.3935   -1.5881 Br  0  0  0  0  0  0  0  0  0  0  0  0
   -0.5018   -0.7248    1.0432 C   0  0  0  0  0  0  0  0  0  0  0  0
    0.7856   -0.5279    0.5123 C   0  0  0  0  0  0  0  0  0  0  0  0
    1.0706   -1.2141   -0.6246 C   0  0  0  0  0  0  0  0  0  0  0  0
    0.1614   -2.0696   -1.2496 C   0  0  0  0  0  0  0  0  0  0  0  0
    1.6629    0.3613    1.1829 N   0  0  0  0  0  0  0  0  0  0  0  0
    3.0336    0.5881    0.7701 C   0  0  0  0  0  0  0  0  0  0  0  0
    3.6505   -0.3973    0.3313 N   0  0  0  0  0  0  0  0  0  0  0  0
    4.9432   -0.6210   -0.1602 C   0  0  0  0  0  0  0  0  0  0  0  0
    5.8914    0.4882   -0.2339 C   0  0  0  0  0  0  0  0  0  0  0  0
    6.1804    1.0911   -1.4682 C   0  0  0  0  0  0  0  0  0  0  0  0
    7.0737    2.1262   -1.5846 C   0  0  0  0  0  0  0  0  0  0  0  0
    7.7428    2.6375   -0.4931 C   0  0  0  0  0  0  0  0  0  0  0  0
    7.4738    2.0598    0.7299 C   0  0  0  0  0  0  0  0  0  0  0  0
    6.5761    1.0200    0.8448 C   0  0  0  0  0  0  0  0  0  0  0  0
    6.3319    0.4709    2.0640 F   0  0  0  0  0  0  0  0  0  0  0  0
    3.5264    1.9738    0.9397 C   0  0  0  0  0  0  0  0  0  0  0  0
   -1.6718   -3.8870    1.5890 H   0  0  0  0  0  0  0  0  0  0  0  0
   -4.0358   -3.5405    0.0347 H   0  0  0  0  0  0  0  0  0  0  0  0
   -2.8723   -2.4857   -1.8478 H   0  0  0  0  0  0  0  0  0  0  0  0
   -1.9430   -4.0440   -1.5884 H   0  0  0  0  0  0  0  0  0  0  0  0
   -2.9681   -1.9409    1.9092 H   0  0  0  0  0  0  0  0  0  0  0  0
   -3.6918   -0.9074   -0.8645 H   0  0  0  0  0  0  0  0  0  0  0  0
   -5.0401    0.3454   -1.7304 H   0  0  0  0  0  0  0  0  0  0  0  0
   -6.6577    1.8113   -2.7262 H   0  0  0  0  0  0  0  0  0  0  0  0
   -8.3575    2.4249    1.2173 H   0  0  0  0  0  0  0  0  0  0  0  0
   -6.7119    0.9449    2.1675 H   0  0  0  0  0  0  0  0  0  0  0  0
   -0.7864   -0.1923    1.9650 H   0  0  0  0  0  0  0  0  0  0  0  0
    2.0261   -1.1235   -1.1094 H   0  0  0  0  0  0  0  0  0  0  0  0
    0.4262   -2.5994   -2.1547 H   0  0  0  0  0  0  0  0  0  0  0  0
    1.2949    0.8883    2.0279 H   0  0  0  0  0  0  0  0  0  0  0  0
    5.4429   -1.5236    0.3427 H   0  0  0  0  0  0  0  0  0  0  0  0
    4.8336   -1.0305   -1.2254 H   0  0  0  0  0  0  0  0  0  0  0  0
    5.6638    0.7045   -2.3464 H   0  0  0  0  0  0  0  0  0  0  0  0
    7.2284    2.5244   -2.5832 H   0  0  0  0  0  0  0  0  0  0  0  0
    8.4263    3.4450   -0.6530 H   0  0  0  0  0  0  0  0  0  0  0  0
    8.0016    2.4612    1.5993 H   0  0  0  0  0  0  0  0  0  0  0  0
    4.1215    2.3124    0.0786 H   0  0  0  0  0  0  0  0  0  0  0  0
    4.1444    2.1030    1.8548 H   0  0  0  0  0  0  0  0  0  0  0  0
    2.6935    2.7054    1.0680 H   0  0  0  0  0  0  0  0  0  0  0  0
  1  2  1  0
  2  3  1  0
  3  4  1  0
  4  5  2  0
  5  6  1  0
  6  7  1  0
  7  8  1  0
  8  9  2  0
  8 10  1  0
 10 11  2  0
 11 12  1  0
 12 13  2  0
 13 14  1  0
 14 15  2  0
 13 16  1  0
  5 17  1  0
 17 18  2  0
 18 19  1  0
 19 20  2  0
 18 21  1  0
 21 22  1  0
 22 23  2  3
 23 24  1  0
 24 25  1  0
 25 26  2  0
 26 27  1  0
 27 28  2  0
 28 29  1  0
 29 30  2  0
 30 31  1  0
 22 32  1  0
  6  2  1  0
 15 10  1  0
 30 25  1  0
 20  4  1  0
  1 33  1  0
  2 34  1  6
  3 35  1  0
  3 36  1  0
  6 37  1  1
  7 38  1  0
 11 39  1  0
 12 40  1  0
 14 41  1  0
 15 42  1  0
 17 43  1  0
 19 44  1  0
 20 45  1  0
 21 46  1  0
 24 47  1  0
 24 48  1  0
 26 49  1  0
 27 50  1  0
 28 51  1  0
 29 52  1  0
 32 53  1  0
 32 54  1  0
 32 55  1  0
M  END
>  <Ligand ID>  (1) 
LIG0003263

>  <Ligand>  (1) 
CHEMBL3618445

>  <SMILES>  (1) 
O[C@@H]1Cc2c([C@H]1NC(=O)c1ccc(cc1)Br)cc(cc2)NC(=NCc1ccccc1F)C

>  <CID>  (1) 
122191002.0

>  <ChEMBL ID>  (1) 
nan

>  <InChiKey>  (1) 
PQFYMKJLSHXJPL-DNQXCXABSA-N

>  <InChi>  (1) 
InChI=1S/C25H23BrFN3O2/c1-15(28-14-18-4-2-3-5-22(18)27)29-20-11-8-17-12-23(31)24(21(17)13-20)30-25(32)16-6-9-19(26)10-7-16/h2-11,13,23-24,31H,12,14H2,1H3,(H,28,29)(H,30,32)/t23-,24-/m1/s1

>  <IUPAC Name>  (1) 
4-bromo-N-[(1R,2R)-6-[[N-[(2-fluorophenyl)methyl]-C-methylcarbonimidoyl]amino]-2-hydroxy-2,3-dihydro-1H-inden-1-yl]benzamide

$$$$
