
     RDKit          3D

 56 59  0  0  0  0  0  0  0  0999 V2000
   -0.9720   -4.3267    2.1977 C   0  0  0  0  0  0  0  0  0  0  0  0
   -0.5648   -3.2829    1.3066 O   0  0  0  0  0  0  0  0  0  0  0  0
   -1.5605   -2.6381    0.5853 C   0  0  0  0  0  0  0  0  0  0  0  0
   -2.8998   -2.9683    0.7017 C   0  0  0  0  0  0  0  0  0  0  0  0
   -3.8747   -2.3176   -0.0220 C   0  0  0  0  0  0  0  0  0  0  0  0
   -3.5418   -1.2970   -0.9024 C   0  0  0  0  0  0  0  0  0  0  0  0
   -2.1946   -0.9655   -1.0189 C   0  0  0  0  0  0  0  0  0  0  0  0
   -1.2174   -1.6249   -0.2870 C   0  0  0  0  0  0  0  0  0  0  0  0
    0.1567   -1.2519   -0.4373 N   0  0  0  0  0  0  0  0  0  0  0  0
    0.7629   -0.2530    0.3673 C   0  0  0  0  0  0  0  0  0  0  0  0
    0.0581    0.3174    1.2392 O   0  0  0  0  0  0  0  0  0  0  0  0
    2.1209    0.0772    0.1787 C   0  0  0  0  0  0  0  0  0  0  0  0
    3.1347   -0.3085   -0.6218 C   0  0  0  0  0  0  0  0  0  0  0  0
    4.3411    0.2416   -0.5213 C   0  0  0  0  0  0  0  0  0  0  0  0
    4.5227    1.2417    0.4510 C   0  0  0  0  0  0  0  0  0  0  0  0
    2.9115    1.3973    1.2460 S   0  0  0  0  0  0  0  0  0  0  0  0
    5.6695    2.0469    0.8417 C   0  0  0  0  0  0  0  0  0  0  0  0
    6.9762    1.2794    0.6491 C   0  0  0  0  0  0  0  0  0  0  0  0
    7.4278    1.2951   -0.7732 C   0  0  0  0  0  0  0  0  0  0  0  0
    6.3301    1.0047   -1.7587 C   0  0  0  0  0  0  0  0  0  0  0  0
    5.4972   -0.1765   -1.4091 C   0  0  0  0  0  0  0  0  0  0  0  0
   -4.7737   -0.4621   -1.8288 S   0  0  0  0  0  0  0  0  0  0  0  0
   -4.1847   -0.0792   -3.1558 O   0  0  0  0  0  0  0  0  0  0  0  0
   -5.9010   -1.4291   -2.1491 O   0  0  0  0  0  0  0  0  0  0  0  0
   -5.4207    0.8983   -1.0676 N   0  0  0  0  0  0  0  0  0  0  0  0
   -6.0836    0.6597    0.1618 C   0  0  0  0  0  0  0  0  0  0  0  0
   -5.5179    1.5210    1.2483 C   0  0  0  0  0  0  0  0  0  0  0  0
   -5.7205    2.8388    0.8485 O   0  0  0  0  0  0  0  0  0  0  0  0
   -4.9969    3.1839   -0.2606 C   0  0  0  0  0  0  0  0  0  0  0  0
   -4.7149    2.1052   -1.2312 C   0  0  0  0  0  0  0  0  0  0  0  0
   -1.4885   -5.1397    1.6535 H   0  0  0  0  0  0  0  0  0  0  0  0
   -0.0929   -4.7439    2.7342 H   0  0  0  0  0  0  0  0  0  0  0  0
   -1.6891   -3.9455    2.9589 H   0  0  0  0  0  0  0  0  0  0  0  0
   -3.1503   -3.7535    1.3798 H   0  0  0  0  0  0  0  0  0  0  0  0
   -4.8868   -2.6236    0.1171 H   0  0  0  0  0  0  0  0  0  0  0  0
   -1.8824   -0.1813   -1.6875 H   0  0  0  0  0  0  0  0  0  0  0  0
    0.7488   -1.7187   -1.1569 H   0  0  0  0  0  0  0  0  0  0  0  0
    2.9337   -1.1181   -1.3877 H   0  0  0  0  0  0  0  0  0  0  0  0
    5.7481    3.0441    0.4061 H   0  0  0  0  0  0  0  0  0  0  0  0
    5.5922    2.1922    1.9588 H   0  0  0  0  0  0  0  0  0  0  0  0
    7.7336    1.8187    1.2580 H   0  0  0  0  0  0  0  0  0  0  0  0
    6.8781    0.2715    1.0895 H   0  0  0  0  0  0  0  0  0  0  0  0
    7.9132    2.2696   -0.9535 H   0  0  0  0  0  0  0  0  0  0  0  0
    8.2051    0.5131   -0.8976 H   0  0  0  0  0  0  0  0  0  0  0  0
    6.7008    0.9067   -2.7942 H   0  0  0  0  0  0  0  0  0  0  0  0
    5.6525    1.8879   -1.7753 H   0  0  0  0  0  0  0  0  0  0  0  0
    6.0660   -0.9985   -0.9254 H   0  0  0  0  0  0  0  0  0  0  0  0
    5.0888   -0.6017   -2.3495 H   0  0  0  0  0  0  0  0  0  0  0  0
   -7.1627    0.9428    0.0285 H   0  0  0  0  0  0  0  0  0  0  0  0
   -6.0007   -0.4240    0.3939 H   0  0  0  0  0  0  0  0  0  0  0  0
   -6.0909    1.3846    2.1997 H   0  0  0  0  0  0  0  0  0  0  0  0
   -4.4595    1.2636    1.3918 H   0  0  0  0  0  0  0  0  0  0  0  0
   -4.0466    3.7145    0.0275 H   0  0  0  0  0  0  0  0  0  0  0  0
   -5.5882    3.9865   -0.7915 H   0  0  0  0  0  0  0  0  0  0  0  0
   -3.6161    1.8711   -1.2004 H   0  0  0  0  0  0  0  0  0  0  0  0
   -4.8754    2.4549   -2.2852 H   0  0  0  0  0  0  0  0  0  0  0  0
  1  2  1  0
  2  3  1  0
  3  4  2  0
  4  5  1  0
  5  6  2  0
  6  7  1  0
  7  8  2  0
  8  9  1  0
  9 10  1  0
 10 11  2  0
 10 12  1  0
 12 13  2  0
 13 14  1  0
 14 15  2  0
 15 16  1  0
 15 17  1  0
 17 18  1  0
 18 19  1  0
 19 20  1  0
 20 21  1  0
  6 22  1  0
 22 23  2  0
 22 24  2  0
 22 25  1  0
 25 26  1  0
 26 27  1  0
 27 28  1  0
 28 29  1  0
 29 30  1  0
  8  3  1  0
 16 12  1  0
 30 25  1  0
 21 14  1  0
  1 31  1  0
  1 32  1  0
  1 33  1  0
  4 34  1  0
  5 35  1  0
  7 36  1  0
  9 37  1  0
 13 38  1  0
 17 39  1  0
 17 40  1  0
 18 41  1  0
 18 42  1  0
 19 43  1  0
 19 44  1  0
 20 45  1  0
 20 46  1  0
 21 47  1  0
 21 48  1  0
 26 49  1  0
 26 50  1  0
 27 51  1  0
 27 52  1  0
 29 53  1  0
 29 54  1  0
 30 55  1  0
 30 56  1  0
M  END
>  <Ligand ID>  (1) 
LIG0001999

>  <Ligand>  (1) 
MLS-0435537.0001

>  <SMILES>  (1) 
COc1ccc(cc1NC(=O)c1cc2c(s1)CCCCC2)S(=O)(=O)N1CCOCC1

>  <CID>  (1) 
16305071.0

>  <ChEMBL ID>  (1) 
nan

>  <InChiKey>  (1) 
BZXFRVYHKUFYBJ-UHFFFAOYSA-N

>  <InChi>  (1) 
InChI=1S/C21H26N2O5S2/c1-27-18-8-7-16(30(25,26)23-9-11-28-12-10-23)14-17(18)22-21(24)20-13-15-5-3-2-4-6-19(15)29-20/h7-8,13-14H,2-6,9-12H2,1H3,(H,22,24)

>  <IUPAC Name>  (1) 
N-(2-methoxy-5-morpholin-4-ylsulfonylphenyl)-5,6,7,8-tetrahydro-4H-cyclohepta[b]thiophene-2-carboxamide

$$$$
