
     RDKit          3D

 55 58  0  0  0  0  0  0  0  0999 V2000
   -4.5353    4.0663   -2.3563 C   0  0  0  0  0  0  0  0  0  0  0  0
   -5.3384    3.0420   -1.8701 O   0  0  0  0  0  0  0  0  0  0  0  0
   -5.0203    2.1055   -0.9068 C   0  0  0  0  0  0  0  0  0  0  0  0
   -6.0236    1.1738   -0.6129 C   0  0  0  0  0  0  0  0  0  0  0  0
   -5.8364    0.1913    0.3258 C   0  0  0  0  0  0  0  0  0  0  0  0
   -4.6221    0.1529    0.9731 C   0  0  0  0  0  0  0  0  0  0  0  0
   -3.6013    1.0741    0.6976 C   0  0  0  0  0  0  0  0  0  0  0  0
   -3.8276    2.0318   -0.2405 C   0  0  0  0  0  0  0  0  0  0  0  0
   -2.3624    0.9126    1.4820 C   0  0  0  0  0  0  0  0  0  0  0  0
   -1.3455    0.0394    0.8705 C   0  0  0  0  0  0  0  0  0  0  0  0
   -1.1880   -1.2659    1.3425 C   0  0  0  0  0  0  0  0  0  0  0  0
   -0.2475   -2.1136    0.7983 C   0  0  0  0  0  0  0  0  0  0  0  0
    0.5087   -1.6308   -0.2027 N   0  0  0  0  0  0  0  0  0  0  0  0
    0.4107   -0.4075   -0.6952 N   0  0  0  0  0  0  0  0  0  0  0  0
   -0.5102    0.4094   -0.1564 C   0  0  0  0  0  0  0  0  0  0  0  0
   -0.5950    1.5661   -0.6309 O   0  0  0  0  0  0  0  0  0  0  0  0
    1.2978    0.0169   -1.7816 C   0  0  0  0  0  0  0  0  0  0  0  0
    2.5478    0.6065   -1.2060 C   0  0  0  0  0  0  0  0  0  0  0  0
    2.6225    0.6410    0.0697 O   0  0  0  0  0  0  0  0  0  0  0  0
    3.6051    1.1055   -2.0060 N   0  0  0  0  0  0  0  0  0  0  0  0
    4.7355    1.6381   -1.2833 C   0  0  0  0  0  0  0  0  0  0  0  0
    5.7530    0.7601   -0.9697 C   0  0  0  0  0  0  0  0  0  0  0  0
    6.8686    1.1668   -0.2768 C   0  0  0  0  0  0  0  0  0  0  0  0
    6.9321    2.4995    0.0964 C   0  0  0  0  0  0  0  0  0  0  0  0
    5.9120    3.3924   -0.2150 C   0  0  0  0  0  0  0  0  0  0  0  0
    4.7986    2.9656   -0.9119 C   0  0  0  0  0  0  0  0  0  0  0  0
    8.0357    2.8814    0.7784 F   0  0  0  0  0  0  0  0  0  0  0  0
   -0.0636   -3.4765    1.2729 C   0  0  0  0  0  0  0  0  0  0  0  0
   -0.7996   -4.0415    2.2895 C   0  0  0  0  0  0  0  0  0  0  0  0
   -0.5902   -5.3380    2.7082 C   0  0  0  0  0  0  0  0  0  0  0  0
    0.3825   -6.1234    2.1092 C   0  0  0  0  0  0  0  0  0  0  0  0
    1.1304   -5.5759    1.0894 C   0  0  0  0  0  0  0  0  0  0  0  0
    0.9019   -4.2743    0.6874 C   0  0  0  0  0  0  0  0  0  0  0  0
   -3.4772    3.8352   -2.1219 H   0  0  0  0  0  0  0  0  0  0  0  0
   -4.6896    4.2675   -3.4396 H   0  0  0  0  0  0  0  0  0  0  0  0
   -4.7657    4.9929   -1.7536 H   0  0  0  0  0  0  0  0  0  0  0  0
   -6.9816    1.2124   -1.1302 H   0  0  0  0  0  0  0  0  0  0  0  0
   -6.5991   -0.5302    0.5603 H   0  0  0  0  0  0  0  0  0  0  0  0
   -4.4739   -0.6233    1.7147 H   0  0  0  0  0  0  0  0  0  0  0  0
   -3.0672    2.7371   -0.4604 H   0  0  0  0  0  0  0  0  0  0  0  0
   -1.9566    1.9477    1.6784 H   0  0  0  0  0  0  0  0  0  0  0  0
   -2.5825    0.5404    2.5257 H   0  0  0  0  0  0  0  0  0  0  0  0
   -1.8361   -1.5738    2.1503 H   0  0  0  0  0  0  0  0  0  0  0  0
    1.5291   -0.8036   -2.4779 H   0  0  0  0  0  0  0  0  0  0  0  0
    0.7683    0.8358   -2.3092 H   0  0  0  0  0  0  0  0  0  0  0  0
    3.5553    1.0817   -3.0377 H   0  0  0  0  0  0  0  0  0  0  0  0
    5.6994   -0.2674   -1.2608 H   0  0  0  0  0  0  0  0  0  0  0  0
    7.6887    0.4831   -0.0171 H   0  0  0  0  0  0  0  0  0  0  0  0
    6.0267    4.4106    0.1061 H   0  0  0  0  0  0  0  0  0  0  0  0
    3.9930    3.6378   -1.1666 H   0  0  0  0  0  0  0  0  0  0  0  0
   -1.5609   -3.4772    2.7838 H   0  0  0  0  0  0  0  0  0  0  0  0
   -1.1820   -5.7612    3.5092 H   0  0  0  0  0  0  0  0  0  0  0  0
    0.5913   -7.1374    2.3905 H   0  0  0  0  0  0  0  0  0  0  0  0
    1.8990   -6.1625    0.6001 H   0  0  0  0  0  0  0  0  0  0  0  0
    1.4859   -3.8374   -0.1130 H   0  0  0  0  0  0  0  0  0  0  0  0
  1  2  1  0
  2  3  1  0
  3  4  2  0
  4  5  1  0
  5  6  2  0
  6  7  1  0
  7  8  2  0
  7  9  1  0
  9 10  1  0
 10 11  2  0
 11 12  1  0
 12 13  2  0
 13 14  1  0
 14 15  1  0
 15 16  2  0
 14 17  1  0
 17 18  1  0
 18 19  2  0
 18 20  1  0
 20 21  1  0
 21 22  2  0
 22 23  1  0
 23 24  2  0
 24 25  1  0
 25 26  2  0
 24 27  1  0
 12 28  1  0
 28 29  2  0
 29 30  1  0
 30 31  2  0
 31 32  1  0
 32 33  2  0
  8  3  1  0
 15 10  1  0
 26 21  1  0
 33 28  1  0
  1 34  1  0
  1 35  1  0
  1 36  1  0
  4 37  1  0
  5 38  1  0
  6 39  1  0
  8 40  1  0
  9 41  1  0
  9 42  1  0
 11 43  1  0
 17 44  1  0
 17 45  1  0
 20 46  1  0
 22 47  1  0
 23 48  1  0
 25 49  1  0
 26 50  1  0
 29 51  1  0
 30 52  1  0
 31 53  1  0
 32 54  1  0
 33 55  1  0
M  END
>  <Ligand ID>  (1) 
LIG0004844

>  <Ligand>  (1) 
CHEMBL2391260

>  <SMILES>  (1) 
COc1cccc(c1)Cc1cc(nn(c1=O)CC(=O)Nc1ccc(cc1)F)c1ccccc1

>  <CID>  (1) 
71698620.0

>  <ChEMBL ID>  (1) 
nan

>  <InChiKey>  (1) 
ZKWLOPBDSPJHCJ-UHFFFAOYSA-N

>  <InChi>  (1) 
InChI=1S/C26H22FN3O3/c1-33-23-9-5-6-18(15-23)14-20-16-24(19-7-3-2-4-8-19)29-30(26(20)32)17-25(31)28-22-12-10-21(27)11-13-22/h2-13,15-16H,14,17H2,1H3,(H,28,31)

>  <IUPAC Name>  (1) 
N-(4-fluorophenyl)-2-[5-[(3-methoxyphenyl)methyl]-6-oxo-3-phenylpyridazin-1-yl]acetamide

$$$$
