
     RDKit          3D

 55 57  0  0  0  0  0  0  0  0999 V2000
   -7.0565    0.0378   -1.8527 C   0  0  0  0  0  0  0  0  0  0  0  0
   -7.1078   -1.3233   -1.1816 C   0  0  0  0  0  0  0  0  0  0  0  0
   -5.8318   -2.1291   -1.4487 C   0  0  0  0  0  0  0  0  0  0  0  0
   -4.7046   -1.3107   -0.8850 C   0  0  0  0  0  0  0  0  0  0  0  0
   -4.3166   -1.4885    0.4294 C   0  0  0  0  0  0  0  0  0  0  0  0
   -3.2752   -0.7097    0.8948 C   0  0  0  0  0  0  0  0  0  0  0  0
   -2.9157   -0.8613    2.0802 O   0  0  0  0  0  0  0  0  0  0  0  0
   -2.6370    0.1965    0.1343 N   0  0  0  0  0  0  0  0  0  0  0  0
   -3.0653    0.3201   -1.1392 C   0  0  0  0  0  0  0  0  0  0  0  0
   -2.5167    1.1520   -1.9220 O   0  0  0  0  0  0  0  0  0  0  0  0
   -4.0613   -0.4087   -1.6237 N   0  0  0  0  0  0  0  0  0  0  0  0
   -1.5585    1.0245    0.5635 C   0  0  2  0  0  0  0  0  0  0  0  0
   -0.5302    0.8399   -0.3972 O   0  0  0  0  0  0  0  0  0  0  0  0
    0.5567    1.4928    0.1154 C   0  0  1  0  0  0  0  0  0  0  0  0
    0.4622    1.3998    1.6244 C   0  0  2  0  0  0  0  0  0  0  0  0
   -0.8451    0.6668    1.8012 C   0  0  1  0  0  0  0  0  0  0  0  0
   -1.3947    1.0745    2.9970 O   0  0  0  0  0  0  0  0  0  0  0  0
   -1.1000    2.7399    2.9775 P   0  0  0  0  0  0  0  0  0  0  0  0
   -2.1731    3.5281    2.2966 O   0  0  0  0  0  0  0  0  0  0  0  0
    0.3487    2.6831    2.0860 O   0  0  0  0  0  0  0  0  0  0  0  0
   -0.7281    3.3432    4.5083 O   0  0  0  0  0  0  0  0  0  0  0  0
    1.8817    0.9128   -0.3002 C   0  0  0  0  0  0  0  0  0  0  0  0
    2.0772   -0.3999    0.0695 O   0  0  0  0  0  0  0  0  0  0  0  0
    3.5737   -1.0154   -0.4140 P   0  0  0  0  0  0  0  0  0  0  0  0
    3.9778   -2.0621    0.6042 O   0  0  0  0  0  0  0  0  0  0  0  0
    4.7466    0.1910   -0.5610 O   0  0  0  0  0  0  0  0  0  0  0  0
    6.1143   -0.2303    0.3333 P   0  0  0  0  0  0  0  0  0  0  0  0
    5.8761    0.2017    1.7815 O   0  0  0  0  0  0  0  0  0  0  0  0
    7.4925    0.5743   -0.1754 O   0  0  0  0  0  0  0  0  0  0  0  0
    8.6234   -0.5330   -0.8160 P   0  0  0  0  0  0  0  0  0  0  0  0
    9.0653   -1.5435    0.2132 O   0  0  0  0  0  0  0  0  0  0  0  0
    9.9507    0.3174   -1.4230 O   0  0  0  0  0  0  0  0  0  0  0  0
    7.8464   -1.2929   -2.1099 O   0  0  0  0  0  0  0  0  0  0  0  0
    6.4164   -1.8860    0.3400 O   0  0  0  0  0  0  0  0  0  0  0  0
    3.4842   -1.7885   -1.9252 O   0  0  0  0  0  0  0  0  0  0  0  0
   -8.0499    0.4816   -1.7308 H   0  0  0  0  0  0  0  0  0  0  0  0
   -6.3366    0.6555   -1.2918 H   0  0  0  0  0  0  0  0  0  0  0  0
   -6.7752   -0.1291   -2.9079 H   0  0  0  0  0  0  0  0  0  0  0  0
   -7.2402   -1.1392   -0.0926 H   0  0  0  0  0  0  0  0  0  0  0  0
   -7.9981   -1.8582   -1.5366 H   0  0  0  0  0  0  0  0  0  0  0  0
   -5.9587   -3.0908   -0.9481 H   0  0  0  0  0  0  0  0  0  0  0  0
   -5.7465   -2.2080   -2.5488 H   0  0  0  0  0  0  0  0  0  0  0  0
   -4.7924   -2.2020    1.0886 H   0  0  0  0  0  0  0  0  0  0  0  0
   -4.3750   -0.2929   -2.6179 H   0  0  0  0  0  0  0  0  0  0  0  0
   -1.8294    2.0941    0.4770 H   0  0  0  0  0  0  0  0  0  0  0  0
    0.5334    2.5230   -0.2735 H   0  0  0  0  0  0  0  0  0  0  0  0
    1.2916    0.8218    2.0797 H   0  0  0  0  0  0  0  0  0  0  0  0
   -0.6406   -0.4071    1.8178 H   0  0  0  0  0  0  0  0  0  0  0  0
   -1.0095    2.6792    5.1822 H   0  0  0  0  0  0  0  0  0  0  0  0
    2.6569    1.5178    0.2169 H   0  0  0  0  0  0  0  0  0  0  0  0
    2.0125    1.0986   -1.3820 H   0  0  0  0  0  0  0  0  0  0  0  0
    9.7386    1.2884   -1.4418 H   0  0  0  0  0  0  0  0  0  0  0  0
    7.3737   -0.5807   -2.6038 H   0  0  0  0  0  0  0  0  0  0  0  0
    6.5935   -2.2720    1.2183 H   0  0  0  0  0  0  0  0  0  0  0  0
    3.8766   -2.6937   -1.8910 H   0  0  0  0  0  0  0  0  0  0  0  0
  1  2  1  0
  2  3  1  0
  3  4  1  0
  4  5  2  0
  5  6  1  0
  6  7  2  0
  6  8  1  0
  8  9  1  0
  9 10  2  0
  9 11  1  0
  8 12  1  0
 12 13  1  0
 13 14  1  0
 14 15  1  0
 15 16  1  0
 16 17  1  0
 17 18  1  0
 18 19  2  0
 18 20  1  0
 18 21  1  0
 14 22  1  0
 22 23  1  0
 23 24  1  0
 24 25  2  0
 24 26  1  0
 26 27  1  0
 27 28  2  0
 27 29  1  0
 29 30  1  0
 30 31  2  0
 30 32  1  0
 30 33  1  0
 27 34  1  0
 24 35  1  0
 11  4  1  0
 16 12  1  0
 20 15  1  0
  1 36  1  0
  1 37  1  0
  1 38  1  0
  2 39  1  0
  2 40  1  0
  3 41  1  0
  3 42  1  0
  5 43  1  0
 11 44  1  0
 12 45  1  1
 14 46  1  1
 15 47  1  1
 16 48  1  1
 21 49  1  0
 22 50  1  0
 22 51  1  0
 32 52  1  0
 33 53  1  0
 34 54  1  0
 35 55  1  0
M  END
>  <Ligand ID>  (1) 
LIG0004181

>  <Ligand>  (1) 
CHEMBL217370

>  <SMILES>  (1) 
CCCc1cc(=O)n(c(=O)[nH]1)[C@@H]1O[C@@H]([C@@H]2[C@H]1OP(=O)(O2)O)COP(=O)(OP(=O)(OP(=O)(O)O)O)O

>  <CID>  (1) 
11994005.0

>  <ChEMBL ID>  (1) 
nan

>  <InChiKey>  (1) 
TVHZXCKQSILXQE-QCNRFFRDSA-N

>  <InChi>  (1) 
InChI=1S/C12H20N2O17P4/c1-2-3-6-4-8(15)14(12(16)13-6)11-10-9(28-34(22,23)29-10)7(27-11)5-26-33(20,21)31-35(24,25)30-32(17,18)19/h4,7,9-11H,2-3,5H2,1H3,(H,13,16)(H,20,21)(H,22,23)(H,24,25)(H2,17,18,19)/t7-,9-,10-,11-/m1/s1

>  <IUPAC Name>  (1) 
[[(3aR,4R,6R,6aR)-4-(2,4-dioxo-6-propyl-1H-pyrimidin-3-yl)-2-hydroxy-2-oxo-3a,4,6,6a-tetrahydrofuro[3,4-d][1,3,2]dioxaphosphol-6-yl]methoxy-hydroxyphosphoryl] phosphono hydrogen phosphate

$$$$
