
     RDKit          3D

 36 37  0  0  0  0  0  0  0  0999 V2000
   -2.7566    0.0175   -1.3576 C   0  0  0  0  0  0  0  0  0  0  0  0
   -3.4838   -1.1129   -0.7214 C   0  0  0  0  0  0  0  0  0  0  0  0
   -3.5929   -1.0359    0.7709 C   0  0  0  0  0  0  0  0  0  0  0  0
   -2.3631   -1.0844    1.5625 C   0  0  0  0  0  0  0  0  0  0  0  0
   -1.3237   -0.0707    1.3402 C   0  0  0  0  0  0  0  0  0  0  0  0
   -1.3148    1.1796    1.9306 C   0  0  0  0  0  0  0  0  0  0  0  0
   -0.2684    2.0774    1.6955 C   0  0  0  0  0  0  0  0  0  0  0  0
    0.7915    1.7257    0.8566 C   0  0  0  0  0  0  0  0  0  0  0  0
    0.7808    0.4781    0.2691 C   0  0  0  0  0  0  0  0  0  0  0  0
   -0.2549   -0.4024    0.5053 C   0  0  0  0  0  0  0  0  0  0  0  0
    1.9439    0.4125   -0.5009 C   0  0  0  0  0  0  0  0  0  0  0  0
    2.3968   -0.7427   -1.3265 C   0  0  0  0  0  0  0  0  0  0  0  0
    3.9134   -0.6905   -1.4858 C   0  0  0  0  0  0  0  0  0  0  0  0
    4.5070   -0.7575   -0.1566 N   0  0  0  0  0  0  0  0  0  0  0  0
    2.6020    1.6168   -0.3457 C   0  0  0  0  0  0  0  0  0  0  0  0
    1.8860    2.4091    0.4865 N   0  0  0  0  0  0  0  0  0  0  0  0
   -1.8143   -0.2895   -1.8321 H   0  0  0  0  0  0  0  0  0  0  0  0
   -2.5464    0.8500   -0.6427 H   0  0  0  0  0  0  0  0  0  0  0  0
   -3.4374    0.4051   -2.1756 H   0  0  0  0  0  0  0  0  0  0  0  0
   -2.9863   -2.0683   -1.0543 H   0  0  0  0  0  0  0  0  0  0  0  0
   -4.5207   -1.2247   -1.1818 H   0  0  0  0  0  0  0  0  0  0  0  0
   -4.2953   -0.2059    1.0675 H   0  0  0  0  0  0  0  0  0  0  0  0
   -4.2010   -1.9561    1.0638 H   0  0  0  0  0  0  0  0  0  0  0  0
   -2.5868   -1.0171    2.6863 H   0  0  0  0  0  0  0  0  0  0  0  0
   -1.9084   -2.1265    1.4862 H   0  0  0  0  0  0  0  0  0  0  0  0
   -2.1198    1.4713    2.5744 H   0  0  0  0  0  0  0  0  0  0  0  0
   -0.2244    3.0528    2.1352 H   0  0  0  0  0  0  0  0  0  0  0  0
   -0.1878   -1.3613    0.0065 H   0  0  0  0  0  0  0  0  0  0  0  0
    2.2101   -1.7191   -0.7878 H   0  0  0  0  0  0  0  0  0  0  0  0
    1.8935   -0.8010   -2.2914 H   0  0  0  0  0  0  0  0  0  0  0  0
    4.1986   -1.6205   -2.0121 H   0  0  0  0  0  0  0  0  0  0  0  0
    4.2210    0.2106   -2.0542 H   0  0  0  0  0  0  0  0  0  0  0  0
    5.3092   -0.1033   -0.0592 H   0  0  0  0  0  0  0  0  0  0  0  0
    3.7969   -0.7052    0.5907 H   0  0  0  0  0  0  0  0  0  0  0  0
    3.5414    1.8190   -0.8472 H   0  0  0  0  0  0  0  0  0  0  0  0
    2.1949    3.3701    0.7503 H   0  0  0  0  0  0  0  0  0  0  0  0
  1  2  1  0
  2  3  1  0
  3  4  1  0
  4  5  1  0
  5  6  2  0
  6  7  1  0
  7  8  2  0
  8  9  1  0
  9 10  2  0
  9 11  1  0
 11 12  1  0
 12 13  1  0
 13 14  1  0
 11 15  2  0
 15 16  1  0
 10  5  1  0
 16  8  1  0
  1 17  1  0
  1 18  1  0
  1 19  1  0
  2 20  1  0
  2 21  1  0
  3 22  1  0
  3 23  1  0
  4 24  1  0
  4 25  1  0
  6 26  1  0
  7 27  1  0
 10 28  1  0
 12 29  1  0
 12 30  1  0
 13 31  1  0
 13 32  1  0
 14 33  1  0
 14 34  1  0
 15 35  1  0
 16 36  1  0
M  END
>  <Ligand ID>  (1) 
LIG0004201

>  <Ligand>  (1) 
2-(5-butyl-1H-indol-3-yl)ethanamine

>  <SMILES>  (1) 
CCCCc1ccc2c(c1)c(CCN)c[nH]2

>  <CID>  (1) 
187811.0

>  <ChEMBL ID>  (1) 
nan

>  <InChiKey>  (1) 
LEVMBRDBNSGBQA-UHFFFAOYSA-N

>  <InChi>  (1) 
InChI=1S/C14H20N2/c1-2-3-4-11-5-6-14-13(9-11)12(7-8-15)10-16-14/h5-6,9-10,16H,2-4,7-8,15H2,1H3

>  <IUPAC Name>  (1) 
2-(5-butyl-1H-indol-3-yl)ethanamine

$$$$
