
     RDKit          3D

 44 48  0  0  0  0  0  0  0  0999 V2000
   -3.0135   -0.3585   -2.3198 O   0  0  0  0  0  0  0  0  0  0  0  0
   -3.3246   -0.5400   -1.1138 C   0  0  0  0  0  0  0  0  0  0  0  0
   -4.7409   -0.5438   -0.6537 C   0  0  2  0  0  0  0  0  0  0  0  0
   -5.2285    0.8857   -0.7069 C   0  0  2  0  0  0  0  0  0  0  0  0
   -4.1257    1.7167   -0.1444 C   0  0  0  0  0  0  0  0  0  0  0  0
   -4.0624    1.4803    1.1681 C   0  0  0  0  0  0  0  0  0  0  0  0
   -5.0651    0.4158    1.4602 C   0  0  2  0  0  0  0  0  0  0  0  0
   -4.6648   -0.8711    0.8284 C   0  0  2  0  0  0  0  0  0  0  0  0
   -3.2481   -1.2311    1.0717 C   0  0  0  0  0  0  0  0  0  0  0  0
   -2.7758   -1.8421    2.0496 O   0  0  0  0  0  0  0  0  0  0  0  0
   -2.4535   -0.7637   -0.0139 N   0  0  0  0  0  0  0  0  0  0  0  0
   -1.0474   -0.5597    0.0029 C   0  0  0  0  0  0  0  0  0  0  0  0
   -0.4967    0.6430    0.3647 C   0  0  0  0  0  0  0  0  0  0  0  0
    0.8635    0.8582    0.3866 C   0  0  0  0  0  0  0  0  0  0  0  0
    1.7541   -0.1468    0.0384 C   0  0  0  0  0  0  0  0  0  0  0  0
    1.2047   -1.3483   -0.3231 C   0  0  0  0  0  0  0  0  0  0  0  0
   -0.1769   -1.5703   -0.3464 C   0  0  0  0  0  0  0  0  0  0  0  0
   -0.8020   -3.1352   -0.8203 Cl  0  0  0  0  0  0  0  0  0  0  0  0
    3.1306    0.1495    0.0854 N   0  0  0  0  0  0  0  0  0  0  0  0
    4.1859   -0.7239   -0.2268 C   0  0  0  0  0  0  0  0  0  0  0  0
    4.0157   -1.9018   -0.5936 O   0  0  0  0  0  0  0  0  0  0  0  0
    5.5859   -0.2594   -0.1273 C   0  0  0  0  0  0  0  0  0  0  0  0
    6.6518   -1.0720   -0.4206 C   0  0  0  0  0  0  0  0  0  0  0  0
    7.9670   -0.6517   -0.3322 C   0  0  0  0  0  0  0  0  0  0  0  0
    8.1905    0.6457    0.0706 C   0  0  0  0  0  0  0  0  0  0  0  0
    7.1124    1.4526    0.3624 C   0  0  0  0  0  0  0  0  0  0  0  0
    5.8498    1.0008    0.2623 N   0  0  0  0  0  0  0  0  0  0  0  0
   -6.1651    0.8674    0.5138 C   0  0  0  0  0  0  0  0  0  0  0  0
   -5.3872   -1.2424   -1.2017 H   0  0  0  0  0  0  0  0  0  0  0  0
   -5.6754    1.2190   -1.6158 H   0  0  0  0  0  0  0  0  0  0  0  0
   -3.4535    2.4094   -0.6409 H   0  0  0  0  0  0  0  0  0  0  0  0
   -3.4336    1.9334    1.9253 H   0  0  0  0  0  0  0  0  0  0  0  0
   -5.3736    0.3698    2.4994 H   0  0  0  0  0  0  0  0  0  0  0  0
   -5.3738   -1.6696    1.0861 H   0  0  0  0  0  0  0  0  0  0  0  0
   -1.1413    1.4573    0.6442 H   0  0  0  0  0  0  0  0  0  0  0  0
    1.2181    1.8527    0.6892 H   0  0  0  0  0  0  0  0  0  0  0  0
    1.8112   -2.1683   -0.6031 H   0  0  0  0  0  0  0  0  0  0  0  0
    3.4217    1.1296    0.3855 H   0  0  0  0  0  0  0  0  0  0  0  0
    6.4609   -2.0979   -0.7386 H   0  0  0  0  0  0  0  0  0  0  0  0
    8.8072   -1.3103   -0.5690 H   0  0  0  0  0  0  0  0  0  0  0  0
    9.2150    1.0369    0.1596 H   0  0  0  0  0  0  0  0  0  0  0  0
    7.2631    2.4754    0.6809 H   0  0  0  0  0  0  0  0  0  0  0  0
   -6.9613    0.1208    0.3776 H   0  0  0  0  0  0  0  0  0  0  0  0
   -6.5183    1.8878    0.7559 H   0  0  0  0  0  0  0  0  0  0  0  0
  1  2  2  0
  2  3  1  0
  3  4  1  0
  4  5  1  0
  5  6  2  0
  6  7  1  0
  7  8  1  0
  8  9  1  0
  9 10  2  0
  9 11  1  0
 11 12  1  0
 12 13  2  0
 13 14  1  0
 14 15  2  0
 15 16  1  0
 16 17  2  0
 17 18  1  0
 15 19  1  0
 19 20  1  0
 20 21  2  0
 20 22  1  0
 22 23  2  0
 23 24  1  0
 24 25  2  0
 25 26  1  0
 26 27  2  0
  7 28  1  0
 11  2  1  0
 17 12  1  0
 27 22  1  0
  8  3  1  0
 28  4  1  0
  3 29  1  6
  4 30  1  6
  5 31  1  0
  6 32  1  0
  7 33  1  1
  8 34  1  6
 13 35  1  0
 14 36  1  0
 16 37  1  0
 19 38  1  0
 23 39  1  0
 24 40  1  0
 25 41  1  0
 26 42  1  0
 28 43  1  0
 28 44  1  0
M  END
>  <Ligand ID>  (1) 
LIG0000816

>  <Ligand>  (1) 
MLS003171619

>  <SMILES>  (1) 
O=C1[C@@H]2[C@@H]3C=C[C@H]([C@@H]2C(=O)N1c1ccc(cc1Cl)NC(=O)c1ccccn1)C3

>  <CID>  (1) 
54752951.0

>  <ChEMBL ID>  (1) 
nan

>  <InChiKey>  (1) 
LJUABYFUJVRUSJ-FRVJLOGJSA-N

>  <InChi>  (1) 
InChI=1S/C21H16ClN3O3/c22-14-10-13(24-19(26)15-3-1-2-8-23-15)6-7-16(14)25-20(27)17-11-4-5-12(9-11)18(17)21(25)28/h1-8,10-12,17-18H,9H2,(H,24,26)/t11-,12+,17-,18+

>  <IUPAC Name>  (1) 
N-[3-chloro-4-[(1S,2R,6S,7R)-3,5-dioxo-4-azatricyclo[5.2.1.02,6]dec-8-en-4-yl]phenyl]pyridine-2-carboxamide

$$$$
