
     RDKit          3D

 45 49  0  0  0  0  0  0  0  0999 V2000
   -5.3232   -2.4366   -4.1027 F   0  0  0  0  0  0  0  0  0  0  0  0
   -4.5070   -1.8886   -3.1685 C   0  0  0  0  0  0  0  0  0  0  0  0
   -4.9034   -1.9513   -1.8517 C   0  0  0  0  0  0  0  0  0  0  0  0
   -4.1114   -1.4077   -0.8428 C   0  0  0  0  0  0  0  0  0  0  0  0
   -2.9149   -0.7952   -1.1345 C   0  0  0  0  0  0  0  0  0  0  0  0
   -2.5489   -0.7510   -2.4690 C   0  0  0  0  0  0  0  0  0  0  0  0
   -3.3151   -1.2809   -3.4804 C   0  0  0  0  0  0  0  0  0  0  0  0
   -1.3660   -0.1503   -2.8002 F   0  0  0  0  0  0  0  0  0  0  0  0
   -2.0733   -0.2247   -0.1240 N   0  0  0  0  0  0  0  0  0  0  0  0
   -0.7454   -0.2108   -0.2714 N   0  0  0  0  0  0  0  0  0  0  0  0
   -0.1674    0.3738    0.8015 C   0  0  0  0  0  0  0  0  0  0  0  0
   -1.2121    0.7227    1.6247 C   0  0  0  0  0  0  0  0  0  0  0  0
   -2.4032    0.3444    1.0378 C   0  0  0  0  0  0  0  0  0  0  0  0
   -3.5418    0.7112    1.9084 C   0  0  2  0  0  0  0  0  0  0  0  0
   -3.7532    2.1843    2.0350 C   0  0  0  0  0  0  0  0  0  0  0  0
   -2.9496    1.4552    3.0467 C   0  0  2  0  0  0  0  0  0  0  0  0
   -1.4571    1.3728    2.9346 C   0  0  0  0  0  0  0  0  0  0  0  0
    1.2588    0.5847    1.0284 C   0  0  0  0  0  0  0  0  0  0  0  0
    1.6173    1.1484    2.0890 O   0  0  0  0  0  0  0  0  0  0  0  0
    2.1979    0.1665    0.0830 N   0  0  0  0  0  0  0  0  0  0  0  0
    3.6165    0.3079    0.1743 C   0  0  0  0  0  0  0  0  0  0  0  0
    4.3076    1.0189   -0.8993 C   0  0  0  0  0  0  0  0  0  0  0  0
    5.1458    0.0197   -1.7054 C   0  0  0  0  0  0  0  0  0  0  0  0
    6.1123   -0.5344   -0.9013 O   0  0  0  0  0  0  0  0  0  0  0  0
    5.6957   -0.9501    0.3383 C   0  0  0  0  0  0  0  0  0  0  0  0
    4.1999   -1.0811    0.3432 C   0  0  0  0  0  0  0  0  0  0  0  0
   -5.8334   -2.4202   -1.5630 H   0  0  0  0  0  0  0  0  0  0  0  0
   -4.4555   -1.4778    0.1638 H   0  0  0  0  0  0  0  0  0  0  0  0
   -3.0405   -1.2531   -4.5285 H   0  0  0  0  0  0  0  0  0  0  0  0
   -4.3656   -0.0052    2.0569 H   0  0  0  0  0  0  0  0  0  0  0  0
   -4.7687    2.5018    2.2903 H   0  0  0  0  0  0  0  0  0  0  0  0
   -3.2592    2.8664    1.2994 H   0  0  0  0  0  0  0  0  0  0  0  0
   -3.4157    1.3943    4.0586 H   0  0  0  0  0  0  0  0  0  0  0  0
   -1.0433    2.4031    3.0024 H   0  0  0  0  0  0  0  0  0  0  0  0
   -1.0580    0.7867    3.7836 H   0  0  0  0  0  0  0  0  0  0  0  0
    1.8213   -0.3048   -0.7937 H   0  0  0  0  0  0  0  0  0  0  0  0
    3.7877    0.8232    1.1645 H   0  0  0  0  0  0  0  0  0  0  0  0
    5.1036    1.6841   -0.4539 H   0  0  0  0  0  0  0  0  0  0  0  0
    3.7258    1.6860   -1.5516 H   0  0  0  0  0  0  0  0  0  0  0  0
    4.5522   -0.7061   -2.2600 H   0  0  0  0  0  0  0  0  0  0  0  0
    5.6860    0.6667   -2.4528 H   0  0  0  0  0  0  0  0  0  0  0  0
    5.9664   -0.2238    1.1371 H   0  0  0  0  0  0  0  0  0  0  0  0
    6.1035   -1.9673    0.6032 H   0  0  0  0  0  0  0  0  0  0  0  0
    3.8222   -1.4314    1.3438 H   0  0  0  0  0  0  0  0  0  0  0  0
    3.8123   -1.7702   -0.4176 H   0  0  0  0  0  0  0  0  0  0  0  0
  1  2  1  0
  2  3  2  0
  3  4  1  0
  4  5  2  0
  5  6  1  0
  6  7  2  0
  6  8  1  0
  5  9  1  0
  9 10  1  0
 10 11  2  0
 11 12  1  0
 12 13  2  0
 13 14  1  0
 14 15  1  0
 15 16  1  0
 16 17  1  0
 11 18  1  0
 18 19  2  0
 18 20  1  0
 20 21  1  0
 21 22  1  0
 22 23  1  0
 23 24  1  0
 24 25  1  0
 25 26  1  0
  7  2  1  0
 13  9  1  0
 16 14  1  0
 26 21  1  0
 17 12  1  0
  3 27  1  0
  4 28  1  0
  7 29  1  0
 14 30  1  1
 15 31  1  0
 15 32  1  0
 16 33  1  1
 17 34  1  0
 17 35  1  0
 20 36  1  0
 21 37  1  0
 22 38  1  0
 22 39  1  0
 23 40  1  0
 23 41  1  0
 25 42  1  0
 25 43  1  0
 26 44  1  0
 26 45  1  0
M  END
>  <Ligand ID>  (1) 
LIG0001392

>  <Ligand>  (1) 
CHEMBL3354958

>  <SMILES>  (1) 
Fc1ccc(c(c1)F)n1nc(c2c1[C@@H]1C[C@@H]1C2)C(=O)NC1CCOCC1

>  <CID>  (1) 
118720568.0

>  <ChEMBL ID>  (1) 
nan

>  <InChiKey>  (1) 
HAEXUVKAIDVGKX-ZWNOBZJWSA-N

>  <InChi>  (1) 
InChI=1S/C19H19F2N3O2/c20-11-1-2-16(15(21)9-11)24-18-13-7-10(13)8-14(18)17(23-24)19(25)22-12-3-5-26-6-4-12/h1-2,9-10,12-13H,3-8H2,(H,22,25)/t10-,13-/m1/s1

>  <IUPAC Name>  (1) 
(2R,4R)-9-(2,4-difluorophenyl)-N-(oxan-4-yl)-8,9-diazatricyclo[4.3.0.02,4]nona-1(6),7-diene-7-carboxamide

$$$$
