
     RDKit          3D

 22 23  0  0  0  0  0  0  0  0999 V2000
    3.8329   -0.8721    0.6565 O   0  0  0  0  0  0  0  0  0  0  0  0
    2.7563   -0.8476   -0.2214 C   0  0  0  0  0  0  0  0  0  0  0  0
    2.8457   -1.5670   -1.2497 O   0  0  0  0  0  0  0  0  0  0  0  0
    1.5455   -0.0212    0.0178 C   0  0  1  0  0  0  0  0  0  0  0  0
    1.0486    0.6387   -1.2477 C   0  0  1  0  0  0  0  0  0  0  0  0
    0.2396   -0.3318   -0.5497 C   0  0  2  0  0  0  0  0  0  0  0  0
   -0.9838    0.2015    0.0595 C   0  0  2  0  0  0  0  0  0  0  0  0
   -0.9887    1.6789    0.1361 C   0  0  0  0  0  0  0  0  0  0  0  0
    0.3229    2.2749   -0.9717 S   0  0  0  0  0  0  0  0  0  0  0  0
   -1.1067   -0.3070    1.4140 N   0  0  0  0  0  0  0  0  0  0  0  0
   -2.2150   -0.2138   -0.6788 C   0  0  0  0  0  0  0  0  0  0  0  0
   -2.3347    0.1208   -1.8967 O   0  0  0  0  0  0  0  0  0  0  0  0
   -3.2294   -0.9503   -0.0815 O   0  0  0  0  0  0  0  0  0  0  0  0
    4.7887   -1.0211    0.3722 H   0  0  0  0  0  0  0  0  0  0  0  0
    1.5967    0.5628    0.9580 H   0  0  0  0  0  0  0  0  0  0  0  0
    1.4585    0.3810   -2.2212 H   0  0  0  0  0  0  0  0  0  0  0  0
    0.1189   -1.3416   -1.0082 H   0  0  0  0  0  0  0  0  0  0  0  0
   -0.7629    2.0677    1.1526 H   0  0  0  0  0  0  0  0  0  0  0  0
   -1.9308    2.1386   -0.2523 H   0  0  0  0  0  0  0  0  0  0  0  0
   -2.0981   -0.3632    1.7432 H   0  0  0  0  0  0  0  0  0  0  0  0
   -0.7241   -1.2683    1.4896 H   0  0  0  0  0  0  0  0  0  0  0  0
   -4.1800   -0.9599   -0.4442 H   0  0  0  0  0  0  0  0  0  0  0  0
  1  2  1  0
  2  3  2  0
  2  4  1  0
  4  5  1  0
  5  6  1  0
  6  7  1  0
  7  8  1  0
  8  9  1  0
  7 10  1  1
  7 11  1  0
 11 12  2  0
 11 13  1  0
  6  4  1  0
  9  5  1  0
  1 14  1  0
  4 15  1  1
  5 16  1  6
  6 17  1  6
  8 18  1  0
  8 19  1  0
 10 20  1  0
 10 21  1  0
 13 22  1  0
M  END
>  <Ligand ID>  (1) 
LIG0000489

>  <Ligand>  (1) 
CHEMBL8839

>  <SMILES>  (1) 
OC(=O)[C@H]1[C@H]2[C@@H]1[C@](CS2)(N)C(=O)O

>  <CID>  (1) 
10198133.0

>  <ChEMBL ID>  (1) 
nan

>  <InChiKey>  (1) 
QBHIOYZCUZBIEN-MDASVERJSA-N

>  <InChi>  (1) 
InChI=1S/C7H9NO4S/c8-7(6(11)12)1-13-4-2(3(4)7)5(9)10/h2-4H,1,8H2,(H,9,10)(H,11,12)/t2-,3-,4+,7+/m1/s1

>  <IUPAC Name>  (1) 
(1R,4S,5S,6S)-4-amino-2-thiabicyclo[3.1.0]hexane-4,6-dicarboxylic acid

$$$$
