
     RDKit          3D

 53 55  0  0  0  0  0  0  0  0999 V2000
    4.3298    0.5925    0.2385 O   0  0  0  0  0  0  0  0  0  0  0  0
    4.7905   -0.4468    0.7966 C   0  0  0  0  0  0  0  0  0  0  0  0
    6.1474   -0.7227    0.7219 O   0  0  0  0  0  0  0  0  0  0  0  0
    6.9632    0.1599    0.0293 C   0  0  0  0  0  0  0  0  0  0  0  0
    7.1876    0.0861   -1.3255 C   0  0  0  0  0  0  0  0  0  0  0  0
    8.0130    1.0004   -1.9483 C   0  0  0  0  0  0  0  0  0  0  0  0
    8.6236    2.0070   -1.1935 C   0  0  0  0  0  0  0  0  0  0  0  0
    8.4059    2.0955    0.1840 C   0  0  0  0  0  0  0  0  0  0  0  0
    7.5740    1.1673    0.7865 C   0  0  0  0  0  0  0  0  0  0  0  0
    3.9421   -1.3220    1.4890 N   0  0  0  0  0  0  0  0  0  0  0  0
    2.5042   -1.0988    1.6068 C   0  0  0  0  0  0  0  0  0  0  0  0
    1.8407   -1.0557    0.2491 C   0  0  0  0  0  0  0  0  0  0  0  0
    0.3570   -0.8245    0.4679 C   0  0  0  0  0  0  0  0  0  0  0  0
   -0.3772   -0.7708   -0.8781 C   0  0  0  0  0  0  0  0  0  0  0  0
   -1.7523   -0.5567   -0.6120 N   0  0  0  0  0  0  0  0  0  0  0  0
   -2.1589    0.6709   -0.0825 C   0  0  0  0  0  0  0  0  0  0  0  0
   -3.5568    1.0637   -0.4661 C   0  0  0  0  0  0  0  0  0  0  0  0
   -4.4046   -0.0634   -0.1571 N   0  0  0  0  0  0  0  0  0  0  0  0
   -4.0170   -1.4329   -0.1823 C   0  0  0  0  0  0  0  0  0  0  0  0
   -2.5769   -1.6843   -0.4582 C   0  0  0  0  0  0  0  0  0  0  0  0
   -5.7622    0.2341    0.2087 C   0  0  0  0  0  0  0  0  0  0  0  0
   -6.2721   -0.1463    1.4278 C   0  0  0  0  0  0  0  0  0  0  0  0
   -7.5805    0.1589    1.7308 C   0  0  0  0  0  0  0  0  0  0  0  0
   -8.4256    0.8315    0.8786 C   0  0  0  0  0  0  0  0  0  0  0  0
   -7.9095    1.2120   -0.3436 C   0  0  0  0  0  0  0  0  0  0  0  0
   -6.6068    0.9188   -0.6694 C   0  0  0  0  0  0  0  0  0  0  0  0
   -6.0342    1.4384   -2.2403 Cl  0  0  0  0  0  0  0  0  0  0  0  0
   -8.9582    2.0705   -1.4521 Cl  0  0  0  0  0  0  0  0  0  0  0  0
    6.7060   -0.6997   -1.8891 H   0  0  0  0  0  0  0  0  0  0  0  0
    8.1830    0.9319   -3.0253 H   0  0  0  0  0  0  0  0  0  0  0  0
    9.2815    2.7362   -1.6861 H   0  0  0  0  0  0  0  0  0  0  0  0
    8.8829    2.8839    0.7816 H   0  0  0  0  0  0  0  0  0  0  0  0
    7.3983    1.2314    1.8724 H   0  0  0  0  0  0  0  0  0  0  0  0
    4.3786   -2.1760    1.9403 H   0  0  0  0  0  0  0  0  0  0  0  0
    2.0635   -1.9164    2.2121 H   0  0  0  0  0  0  0  0  0  0  0  0
    2.3286   -0.1568    2.1626 H   0  0  0  0  0  0  0  0  0  0  0  0
    2.1979   -0.2333   -0.3753 H   0  0  0  0  0  0  0  0  0  0  0  0
    1.9777   -2.0666   -0.2166 H   0  0  0  0  0  0  0  0  0  0  0  0
    0.1716    0.0809    1.0660 H   0  0  0  0  0  0  0  0  0  0  0  0
   -0.1088   -1.6677    1.0237 H   0  0  0  0  0  0  0  0  0  0  0  0
    0.0902    0.0674   -1.4442 H   0  0  0  0  0  0  0  0  0  0  0  0
   -0.1899   -1.7384   -1.3556 H   0  0  0  0  0  0  0  0  0  0  0  0
   -1.4817    1.4717   -0.4945 H   0  0  0  0  0  0  0  0  0  0  0  0
   -2.0219    0.7012    1.0241 H   0  0  0  0  0  0  0  0  0  0  0  0
   -3.8792    1.9472    0.0929 H   0  0  0  0  0  0  0  0  0  0  0  0
   -3.5853    1.2392   -1.5611 H   0  0  0  0  0  0  0  0  0  0  0  0
   -4.3042   -1.8549    0.8247 H   0  0  0  0  0  0  0  0  0  0  0  0
   -4.6917   -1.9696   -0.8819 H   0  0  0  0  0  0  0  0  0  0  0  0
   -2.1539   -2.3293    0.3574 H   0  0  0  0  0  0  0  0  0  0  0  0
   -2.4921   -2.3039   -1.3766 H   0  0  0  0  0  0  0  0  0  0  0  0
   -5.6227   -0.6727    2.1030 H   0  0  0  0  0  0  0  0  0  0  0  0
   -7.9634   -0.1563    2.7103 H   0  0  0  0  0  0  0  0  0  0  0  0
   -9.4514    1.0681    1.1208 H   0  0  0  0  0  0  0  0  0  0  0  0
  1  2  2  0
  2  3  1  0
  3  4  1  0
  4  5  2  0
  5  6  1  0
  6  7  2  0
  7  8  1  0
  8  9  2  0
  2 10  1  0
 10 11  1  0
 11 12  1  0
 12 13  1  0
 13 14  1  0
 14 15  1  0
 15 16  1  0
 16 17  1  0
 17 18  1  0
 18 19  1  0
 19 20  1  0
 18 21  1  0
 21 22  2  0
 22 23  1  0
 23 24  2  0
 24 25  1  0
 25 26  2  0
 26 27  1  0
 25 28  1  0
  9  4  1  0
 20 15  1  0
 26 21  1  0
  5 29  1  0
  6 30  1  0
  7 31  1  0
  8 32  1  0
  9 33  1  0
 10 34  1  0
 11 35  1  0
 11 36  1  0
 12 37  1  0
 12 38  1  0
 13 39  1  0
 13 40  1  0
 14 41  1  0
 14 42  1  0
 16 43  1  0
 16 44  1  0
 17 45  1  0
 17 46  1  0
 19 47  1  0
 19 48  1  0
 20 49  1  0
 20 50  1  0
 22 51  1  0
 23 52  1  0
 24 53  1  0
M  END
>  <Ligand ID>  (1) 
LIG0003164

>  <Ligand>  (1) 
CHEMBL3799603

>  <SMILES>  (1) 
O=C(Oc1ccccc1)NCCCCN1CCN(CC1)c1cccc(c1Cl)Cl

>  <CID>  (1) 
127047319.0

>  <ChEMBL ID>  (1) 
nan

>  <InChiKey>  (1) 
HAABFBIZZCRWSI-UHFFFAOYSA-N

>  <InChi>  (1) 
InChI=1S/C21H25Cl2N3O2/c22-18-9-6-10-19(20(18)23)26-15-13-25(14-16-26)12-5-4-11-24-21(27)28-17-7-2-1-3-8-17/h1-3,6-10H,4-5,11-16H2,(H,24,27)

>  <IUPAC Name>  (1) 
phenyl N-[4-[4-(2,3-dichlorophenyl)piperazin-1-yl]butyl]carbamate

$$$$
