
     RDKit          3D

 58 60  0  0  0  0  0  0  0  0999 V2000
    2.0331   -4.1187   -0.7596 O   0  0  0  0  0  0  0  0  0  0  0  0
    2.0966   -2.7390   -0.9485 C   0  0  2  0  0  0  0  0  0  0  0  0
    3.0011   -2.0060   -0.0783 C   0  0  0  0  0  0  0  0  0  0  0  0
    3.2695   -2.2952    1.2423 C   0  0  0  0  0  0  0  0  0  0  0  0
    4.1316   -1.5786    2.0352 C   0  0  0  0  0  0  0  0  0  0  0  0
    4.7656   -0.5002    1.4625 C   0  0  0  0  0  0  0  0  0  0  0  0
    4.5536   -0.1329    0.1271 C   0  0  0  0  0  0  0  0  0  0  0  0
    3.6809   -0.8958   -0.5974 C   0  0  0  0  0  0  0  0  0  0  0  0
    5.2737    0.9780   -0.3442 N   0  0  0  0  0  0  0  0  0  0  0  0
    4.8663    1.9655   -1.6854 S   0  0  0  0  0  0  0  0  0  0  0  0
    3.6717    1.4522   -2.4231 O   0  0  0  0  0  0  0  0  0  0  0  0
    5.9980    2.0681   -2.6687 O   0  0  0  0  0  0  0  0  0  0  0  0
    4.4286    3.6198   -1.1441 C   0  0  0  0  0  0  0  0  0  0  0  0
    5.6359    0.2183    2.2733 O   0  0  0  0  0  0  0  0  0  0  0  0
    0.7884   -2.1162   -1.3106 C   0  0  0  0  0  0  0  0  0  0  0  0
   -0.3007   -2.2919   -0.4380 N   0  0  0  0  0  0  0  0  0  0  0  0
   -0.2743   -1.6648    0.8308 C   0  0  0  0  0  0  0  0  0  0  0  0
   -0.1167   -0.1658    0.6891 C   0  0  0  0  0  0  0  0  0  0  0  0
   -1.3341    0.3870   -0.0124 C   0  0  0  0  0  0  0  0  0  0  0  0
   -2.4898    0.1313    0.8586 N   0  0  0  0  0  0  0  0  0  0  0  0
   -2.2363   -0.6917    2.0178 C   0  0  0  0  0  0  0  0  0  0  0  0
   -1.5738   -1.9649    1.6022 C   0  0  0  0  0  0  0  0  0  0  0  0
   -3.7468    0.6898    0.5207 C   0  0  0  0  0  0  0  0  0  0  0  0
   -4.8843    0.5663    1.2749 C   0  0  0  0  0  0  0  0  0  0  0  0
   -6.0808    1.1466    0.8649 C   0  0  0  0  0  0  0  0  0  0  0  0
   -6.1640    1.8569   -0.2977 C   0  0  0  0  0  0  0  0  0  0  0  0
   -5.0399    1.9955   -1.0705 C   0  0  0  0  0  0  0  0  0  0  0  0
   -3.8611    1.4176   -0.6565 C   0  0  0  0  0  0  0  0  0  0  0  0
   -7.4335    2.4546   -0.7004 C   0  0  0  0  0  0  0  0  0  0  0  0
   -8.4339    2.2969    0.0555 O   0  0  0  0  0  0  0  0  0  0  0  0
   -7.6103    3.1808   -1.8546 O   0  0  0  0  0  0  0  0  0  0  0  0
    1.6461   -4.3712    0.1083 H   0  0  0  0  0  0  0  0  0  0  0  0
    2.6867   -2.7241   -1.9811 H   0  0  0  0  0  0  0  0  0  0  0  0
    2.7509   -3.1604    1.6720 H   0  0  0  0  0  0  0  0  0  0  0  0
    4.2708   -1.8894    3.0562 H   0  0  0  0  0  0  0  0  0  0  0  0
    3.4947   -0.6575   -1.6158 H   0  0  0  0  0  0  0  0  0  0  0  0
    6.1713    1.2535    0.1680 H   0  0  0  0  0  0  0  0  0  0  0  0
    5.3599    4.2246   -1.0559 H   0  0  0  0  0  0  0  0  0  0  0  0
    3.8390    4.0754   -1.9533 H   0  0  0  0  0  0  0  0  0  0  0  0
    3.8295    3.6079   -0.2317 H   0  0  0  0  0  0  0  0  0  0  0  0
    6.5480    0.5303    2.0393 H   0  0  0  0  0  0  0  0  0  0  0  0
    0.4897   -2.4755   -2.3718 H   0  0  0  0  0  0  0  0  0  0  0  0
    0.9900   -1.0164   -1.5194 H   0  0  0  0  0  0  0  0  0  0  0  0
   -0.6286   -3.2687   -0.3782 H   0  0  0  0  0  0  0  0  0  0  0  0
    0.5458   -2.0477    1.4722 H   0  0  0  0  0  0  0  0  0  0  0  0
    0.7800    0.0620    0.1060 H   0  0  0  0  0  0  0  0  0  0  0  0
   -0.0158    0.2728    1.7161 H   0  0  0  0  0  0  0  0  0  0  0  0
   -1.2153    1.4947   -0.1518 H   0  0  0  0  0  0  0  0  0  0  0  0
   -1.4371   -0.0899   -0.9966 H   0  0  0  0  0  0  0  0  0  0  0  0
   -3.2124   -0.9600    2.5182 H   0  0  0  0  0  0  0  0  0  0  0  0
   -1.6480   -0.1590    2.8036 H   0  0  0  0  0  0  0  0  0  0  0  0
   -2.2804   -2.4941    0.9201 H   0  0  0  0  0  0  0  0  0  0  0  0
   -1.3562   -2.6203    2.4615 H   0  0  0  0  0  0  0  0  0  0  0  0
   -4.8905    0.0311    2.1864 H   0  0  0  0  0  0  0  0  0  0  0  0
   -6.9674    1.0232    1.4983 H   0  0  0  0  0  0  0  0  0  0  0  0
   -5.1001    2.5675   -2.0100 H   0  0  0  0  0  0  0  0  0  0  0  0
   -3.0021    1.5598   -1.3074 H   0  0  0  0  0  0  0  0  0  0  0  0
   -8.2627    3.9682   -1.9257 H   0  0  0  0  0  0  0  0  0  0  0  0
  1  2  1  0
  2  3  1  0
  3  4  2  0
  4  5  1  0
  5  6  2  0
  6  7  1  0
  7  8  2  0
  7  9  1  0
  9 10  1  0
 10 11  2  0
 10 12  2  0
 10 13  1  0
  6 14  1  0
  2 15  1  0
 15 16  1  0
 16 17  1  0
 17 18  1  0
 18 19  1  0
 19 20  1  0
 20 21  1  0
 21 22  1  0
 20 23  1  0
 23 24  2  0
 24 25  1  0
 25 26  2  0
 26 27  1  0
 27 28  2  0
 26 29  1  0
 29 30  2  0
 29 31  1  0
  8  3  1  0
 22 17  1  0
 28 23  1  0
  1 32  1  0
  2 33  1  6
  4 34  1  0
  5 35  1  0
  8 36  1  0
  9 37  1  0
 13 38  1  0
 13 39  1  0
 13 40  1  0
 14 41  1  0
 15 42  1  0
 15 43  1  0
 16 44  1  0
 17 45  1  0
 18 46  1  0
 18 47  1  0
 19 48  1  0
 19 49  1  0
 21 50  1  0
 21 51  1  0
 22 52  1  0
 22 53  1  0
 24 54  1  0
 25 55  1  0
 27 56  1  0
 28 57  1  0
 31 58  1  0
M  END
>  <Ligand ID>  (1) 
LIG0004936

>  <Ligand>  (1) 
CHEMBL284311

>  <SMILES>  (1) 
O[C@H](c1ccc(c(c1)NS(=O)(=O)C)O)CNC1CCN(CC1)c1ccc(cc1)C(=O)O

>  <CID>  (1) 
9803765.0

>  <ChEMBL ID>  (1) 
nan

>  <InChiKey>  (1) 
PTFVLKKBZGVHRY-FQEVSTJZSA-N

>  <InChi>  (1) 
InChI=1S/C21H27N3O6S/c1-31(29,30)23-18-12-15(4-7-19(18)25)20(26)13-22-16-8-10-24(11-9-16)17-5-2-14(3-6-17)21(27)28/h2-7,12,16,20,22-23,25-26H,8-11,13H2,1H3,(H,27,28)/t20-/m0/s1

>  <IUPAC Name>  (1) 
4-[4-[[(2R)-2-hydroxy-2-[4-hydroxy-3-(methanesulfonamido)phenyl]ethyl]amino]piperidin-1-yl]benzoic acid

$$$$
