
     RDKit          3D

 37 39  0  0  0  0  0  0  0  0999 V2000
   -4.3875    1.3022    1.1658 C   0  0  0  0  0  0  0  0  0  0  0  0
   -4.3826   -0.3717    0.5770 S   0  0  0  0  0  0  0  0  0  0  0  0
   -4.9229   -0.3891   -0.8117 O   0  0  0  0  0  0  0  0  0  0  0  0
   -5.2921   -1.2125    1.4304 O   0  0  0  0  0  0  0  0  0  0  0  0
   -2.7569   -1.0109    0.6195 N   0  0  0  0  0  0  0  0  0  0  0  0
   -1.7351   -0.4049   -0.1594 C   0  0  0  0  0  0  0  0  0  0  0  0
   -2.0629    0.6448   -0.9891 C   0  0  0  0  0  0  0  0  0  0  0  0
   -1.1393    1.2885   -1.7826 C   0  0  0  0  0  0  0  0  0  0  0  0
    0.1604    0.8386   -1.7207 C   0  0  0  0  0  0  0  0  0  0  0  0
    0.5398   -0.2259   -0.8913 C   0  0  0  0  0  0  0  0  0  0  0  0
   -0.4067   -0.8447   -0.1132 C   0  0  0  0  0  0  0  0  0  0  0  0
   -0.0367   -1.9653    0.7744 C   0  0  0  0  0  0  0  0  0  0  0  0
    1.4362   -1.9755    1.0972 C   0  0  0  0  0  0  0  0  0  0  0  0
    2.2416   -1.8181   -0.1438 C   0  0  0  0  0  0  0  0  0  0  0  0
    1.9714   -0.5949   -0.9401 C   0  0  0  0  0  0  0  0  0  0  0  0
    2.8507    0.5620   -0.6094 C   0  0  0  0  0  0  0  0  0  0  0  0
    3.3246    1.4830   -1.4924 N   0  0  0  0  0  0  0  0  0  0  0  0
    4.0863    2.3924   -0.8810 C   0  0  0  0  0  0  0  0  0  0  0  0
    4.1087    2.0507    0.4472 C   0  0  0  0  0  0  0  0  0  0  0  0
    3.3543    0.9444    0.5730 N   0  0  0  0  0  0  0  0  0  0  0  0
   -3.3328    1.6741    1.2310 H   0  0  0  0  0  0  0  0  0  0  0  0
   -5.0167    1.9098    0.5018 H   0  0  0  0  0  0  0  0  0  0  0  0
   -4.7939    1.3439    2.1971 H   0  0  0  0  0  0  0  0  0  0  0  0
   -2.5920   -1.8386    1.2316 H   0  0  0  0  0  0  0  0  0  0  0  0
   -3.0907    1.0309   -1.0646 H   0  0  0  0  0  0  0  0  0  0  0  0
   -1.4128    2.1269   -2.4422 H   0  0  0  0  0  0  0  0  0  0  0  0
    0.8964    1.3458   -2.3482 H   0  0  0  0  0  0  0  0  0  0  0  0
   -0.6374   -1.9185    1.7266 H   0  0  0  0  0  0  0  0  0  0  0  0
   -0.3420   -2.9052    0.2692 H   0  0  0  0  0  0  0  0  0  0  0  0
    1.7110   -1.3206    1.9265 H   0  0  0  0  0  0  0  0  0  0  0  0
    1.6365   -3.0208    1.4792 H   0  0  0  0  0  0  0  0  0  0  0  0
    1.9924   -2.7128   -0.7900 H   0  0  0  0  0  0  0  0  0  0  0  0
    3.3362   -1.8708    0.0635 H   0  0  0  0  0  0  0  0  0  0  0  0
    2.2502   -0.8524   -2.0120 H   0  0  0  0  0  0  0  0  0  0  0  0
    4.5880    3.2370   -1.3518 H   0  0  0  0  0  0  0  0  0  0  0  0
    4.6491    2.6011    1.2184 H   0  0  0  0  0  0  0  0  0  0  0  0
    3.2075    0.4773    1.4909 H   0  0  0  0  0  0  0  0  0  0  0  0
  1  2  1  0
  2  3  2  0
  2  4  2  0
  2  5  1  0
  5  6  1  0
  6  7  2  0
  7  8  1  0
  8  9  2  0
  9 10  1  0
 10 11  2  0
 11 12  1  0
 12 13  1  0
 13 14  1  0
 14 15  1  0
 15 16  1  0
 16 17  2  0
 17 18  1  0
 18 19  2  0
 19 20  1  0
 11  6  1  0
 20 16  1  0
 15 10  1  0
  1 21  1  0
  1 22  1  0
  1 23  1  0
  5 24  1  0
  7 25  1  0
  8 26  1  0
  9 27  1  0
 12 28  1  0
 12 29  1  0
 13 30  1  0
 13 31  1  0
 14 32  1  0
 14 33  1  0
 15 34  1  0
 18 35  1  0
 19 36  1  0
 20 37  1  0
M  END
>  <Ligand ID>  (1) 
LIG0002032

>  <Ligand>  (1) 
CHEMBL257977

>  <SMILES>  (1) 
CS(=O)(=O)Nc1cccc2c1CCCC2c1ncc[nH]1

>  <CID>  (1) 
44449278.0

>  <ChEMBL ID>  (1) 
nan

>  <InChiKey>  (1) 
KATMPNHRKCPFCF-UHFFFAOYSA-N

>  <InChi>  (1) 
InChI=1S/C14H17N3O2S/c1-20(18,19)17-13-7-3-4-10-11(13)5-2-6-12(10)14-15-8-9-16-14/h3-4,7-9,12,17H,2,5-6H2,1H3,(H,15,16)

>  <IUPAC Name>  (1) 
N-[5-(1H-imidazol-2-yl)-5,6,7,8-tetrahydronaphthalen-1-yl]methanesulfonamide

$$$$
