
     RDKit          3D

136138  0  0  0  0  0  0  0  0999 V2000
  -10.8478   -2.7039   -1.9555 C   0  0  0  0  0  0  0  0  0  0  0  0
   -9.7094   -2.5926   -0.9142 C   0  0  0  0  0  0  0  0  0  0  0  0
   -9.2474   -1.1578   -0.8233 C   0  0  1  0  0  0  0  0  0  0  0  0
   -8.1943   -0.9305    0.1475 C   0  0  2  0  0  0  0  0  0  0  0  0
   -7.7428    0.4596    0.2621 N   0  0  0  0  0  0  0  0  0  0  0  0
   -6.5663    0.9863   -0.3359 C   0  0  0  0  0  0  0  0  0  0  0  0
   -5.9364    0.2692   -1.1071 O   0  0  0  0  0  0  0  0  0  0  0  0
   -6.1019    2.3709   -0.0389 C   0  0  1  0  0  0  0  0  0  0  0  0
   -4.6864    2.5574   -0.4131 N   0  0  0  0  0  0  0  0  0  0  0  0
   -3.7548    2.6915    0.6421 C   0  0  0  0  0  0  0  0  0  0  0  0
   -4.1919    2.5800    1.7938 O   0  0  0  0  0  0  0  0  0  0  0  0
   -2.2871    2.9545    0.4955 C   0  0  1  0  0  0  0  0  0  0  0  0
   -1.9967    3.1343   -0.9045 N   0  0  0  0  0  0  0  0  0  0  0  0
   -1.9296    4.1630    1.3432 C   0  0  0  0  0  0  0  0  0  0  0  0
   -0.2152    4.5826    1.2221 S   0  0  0  0  0  0  0  0  0  0  0  0
    1.1753    3.2635    1.9915 S   0  0  0  0  0  0  0  0  0  0  0  0
    1.8790    2.0680    0.8948 C   0  0  0  0  0  0  0  0  0  0  0  0
    1.0352    0.9779    0.3642 C   0  0  2  0  0  0  0  0  0  0  0  0
    0.5893    0.1452    1.4939 N   0  0  0  0  0  0  0  0  0  0  0  0
   -0.5721   -0.6273    1.3142 C   0  0  0  0  0  0  0  0  0  0  0  0
   -1.0933   -0.5812    0.1832 O   0  0  0  0  0  0  0  0  0  0  0  0
   -1.2314   -1.4910    2.3304 C   0  0  1  0  0  0  0  0  0  0  0  0
   -2.2284   -2.3326    1.6703 N   0  0  0  0  0  0  0  0  0  0  0  0
   -3.5342   -1.8009    1.4944 C   0  0  0  0  0  0  0  0  0  0  0  0
   -3.7155   -0.6832    2.0271 O   0  0  0  0  0  0  0  0  0  0  0  0
   -4.6386   -2.4170    0.7773 C   0  0  1  0  0  0  0  0  0  0  0  0
   -5.8079   -1.5157    0.7804 N   0  0  0  0  0  0  0  0  0  0  0  0
   -7.0865   -1.9088    0.2940 C   0  0  0  0  0  0  0  0  0  0  0  0
   -7.1530   -3.1253    0.0311 O   0  0  0  0  0  0  0  0  0  0  0  0
   -4.3202   -2.7287   -0.6934 C   0  0  0  0  0  0  0  0  0  0  0  0
   -3.1964   -3.6514   -0.8661 C   0  0  0  0  0  0  0  0  0  0  0  0
   -2.0822   -3.2783   -1.3234 O   0  0  0  0  0  0  0  0  0  0  0  0
   -3.4120   -5.0267   -0.4889 N   0  0  0  0  0  0  0  0  0  0  0  0
   -0.2548   -2.2687    3.1035 C   0  0  0  0  0  0  0  0  0  0  0  0
    0.6209   -3.1970    2.3960 C   0  0  0  0  0  0  0  0  0  0  0  0
    1.5254   -3.7727    3.0987 O   0  0  0  0  0  0  0  0  0  0  0  0
    0.5897   -3.5358    1.0296 N   0  0  0  0  0  0  0  0  0  0  0  0
    1.9629    0.1258   -0.5014 C   0  0  0  0  0  0  0  0  0  0  0  0
    2.1761   -1.0233   -0.0409 O   0  0  0  0  0  0  0  0  0  0  0  0
    2.5080    0.6256   -1.7068 N   0  0  0  0  0  0  0  0  0  0  0  0
    2.3172    1.9492   -2.3254 C   0  0  0  0  0  0  0  0  0  0  0  0
    2.2923    1.5655   -3.8063 C   0  0  0  0  0  0  0  0  0  0  0  0
    3.4060    0.5309   -3.9095 C   0  0  0  0  0  0  0  0  0  0  0  0
    3.3691   -0.1327   -2.5737 C   0  0  1  0  0  0  0  0  0  0  0  0
    4.7389   -0.3266   -2.0642 C   0  0  0  0  0  0  0  0  0  0  0  0
    5.6602   -0.8258   -2.7604 O   0  0  0  0  0  0  0  0  0  0  0  0
    5.0822    0.0479   -0.7353 N   0  0  0  0  0  0  0  0  0  0  0  0
    6.4621   -0.1524   -0.2189 C   0  0  2  0  0  0  0  0  0  0  0  0
    6.4648   -1.4145    0.5875 C   0  0  0  0  0  0  0  0  0  0  0  0
    5.3390   -1.9669    0.8003 O   0  0  0  0  0  0  0  0  0  0  0  0
    7.6215   -2.0136    1.1086 N   0  0  0  0  0  0  0  0  0  0  0  0
    7.4412   -3.2558    1.8755 C   0  0  0  0  0  0  0  0  0  0  0  0
    8.7360   -3.7763    2.3478 C   0  0  0  0  0  0  0  0  0  0  0  0
    8.7116   -4.8448    3.0265 O   0  0  0  0  0  0  0  0  0  0  0  0
    9.9786   -3.1365    2.0740 N   0  0  0  0  0  0  0  0  0  0  0  0
    6.7938    1.0732    0.5389 C   0  0  0  0  0  0  0  0  0  0  0  0
    8.1301    1.1497    1.1785 C   0  0  0  0  0  0  0  0  0  0  0  0
    9.3018    1.0639    0.2268 C   0  0  0  0  0  0  0  0  0  0  0  0
   10.5526    1.1368    0.9663 N   0  0  0  0  0  0  0  0  0  0  0  0
   11.6695    1.0791    0.0467 C   0  0  0  0  0  0  0  0  0  0  0  0
   11.5717    2.3106   -0.8415 C   0  0  0  0  0  0  0  0  0  0  0  0
   12.9928    0.9969    0.7631 C   0  0  0  0  0  0  0  0  0  0  0  0
   -6.8540    3.3702   -0.8773 C   0  0  0  0  0  0  0  0  0  0  0  0
   -8.2992    3.3604   -0.6530 C   0  0  0  0  0  0  0  0  0  0  0  0
   -8.9698    4.1316    0.2951 C   0  0  0  0  0  0  0  0  0  0  0  0
  -10.3342    3.8575    0.2171 C   0  0  0  0  0  0  0  0  0  0  0  0
  -10.4150    2.9070   -0.8052 C   0  0  0  0  0  0  0  0  0  0  0  0
   -9.2159    2.6719   -1.2547 O   0  0  0  0  0  0  0  0  0  0  0  0
   -9.0488   -0.5612   -2.1956 C   0  0  0  0  0  0  0  0  0  0  0  0
  -10.4497   -2.9814   -2.9516 H   0  0  0  0  0  0  0  0  0  0  0  0
  -11.5046   -3.5303   -1.6209 H   0  0  0  0  0  0  0  0  0  0  0  0
  -11.4029   -1.7637   -1.9263 H   0  0  0  0  0  0  0  0  0  0  0  0
   -8.9231   -3.3177   -1.1776 H   0  0  0  0  0  0  0  0  0  0  0  0
  -10.1671   -2.8625    0.0527 H   0  0  0  0  0  0  0  0  0  0  0  0
  -10.1705   -0.6103   -0.4313 H   0  0  0  0  0  0  0  0  0  0  0  0
   -8.6970   -1.0535    1.1953 H   0  0  0  0  0  0  0  0  0  0  0  0
   -8.2893    1.1488    0.8004 H   0  0  0  0  0  0  0  0  0  0  0  0
   -6.2183    2.5637    1.0702 H   0  0  0  0  0  0  0  0  0  0  0  0
   -4.3281    2.5976   -1.3546 H   0  0  0  0  0  0  0  0  0  0  0  0
   -1.7004    2.0911    0.9077 H   0  0  0  0  0  0  0  0  0  0  0  0
   -1.9128    2.2318   -1.4183 H   0  0  0  0  0  0  0  0  0  0  0  0
   -1.0448    3.5992   -1.0000 H   0  0  0  0  0  0  0  0  0  0  0  0
   -2.6123    4.9911    1.0342 H   0  0  0  0  0  0  0  0  0  0  0  0
   -2.2552    3.9728    2.4195 H   0  0  0  0  0  0  0  0  0  0  0  0
    2.4482    2.5745    0.0504 H   0  0  0  0  0  0  0  0  0  0  0  0
    2.7244    1.5535    1.4820 H   0  0  0  0  0  0  0  0  0  0  0  0
    0.2202    1.3350   -0.2630 H   0  0  0  0  0  0  0  0  0  0  0  0
    1.0566    0.0841    2.3917 H   0  0  0  0  0  0  0  0  0  0  0  0
   -1.7581   -0.7683    3.0267 H   0  0  0  0  0  0  0  0  0  0  0  0
   -2.0784   -3.2772    1.3377 H   0  0  0  0  0  0  0  0  0  0  0  0
   -4.9555   -3.3644    1.1838 H   0  0  0  0  0  0  0  0  0  0  0  0
   -5.7174   -0.6057    1.2000 H   0  0  0  0  0  0  0  0  0  0  0  0
   -4.0208   -1.7393   -1.1434 H   0  0  0  0  0  0  0  0  0  0  0  0
   -5.1862   -3.1280   -1.2151 H   0  0  0  0  0  0  0  0  0  0  0  0
   -4.3545   -5.4874   -0.6325 H   0  0  0  0  0  0  0  0  0  0  0  0
   -2.6247   -5.5972   -0.0597 H   0  0  0  0  0  0  0  0  0  0  0  0
   -0.7410   -2.8783    3.9284 H   0  0  0  0  0  0  0  0  0  0  0  0
    0.4420   -1.6044    3.7106 H   0  0  0  0  0  0  0  0  0  0  0  0
    0.0896   -2.9980    0.2986 H   0  0  0  0  0  0  0  0  0  0  0  0
    1.0981   -4.3894    0.6878 H   0  0  0  0  0  0  0  0  0  0  0  0
    3.1413    2.6398   -2.1383 H   0  0  0  0  0  0  0  0  0  0  0  0
    1.3594    2.4066   -2.0859 H   0  0  0  0  0  0  0  0  0  0  0  0
    1.3360    1.1091   -4.1039 H   0  0  0  0  0  0  0  0  0  0  0  0
    2.5525    2.4026   -4.4587 H   0  0  0  0  0  0  0  0  0  0  0  0
    4.3910    1.0338   -4.0429 H   0  0  0  0  0  0  0  0  0  0  0  0
    3.2213   -0.1669   -4.7583 H   0  0  0  0  0  0  0  0  0  0  0  0
    2.9221   -1.1716   -2.7063 H   0  0  0  0  0  0  0  0  0  0  0  0
    4.4259    0.4744   -0.0643 H   0  0  0  0  0  0  0  0  0  0  0  0
    7.0981   -0.2634   -1.1075 H   0  0  0  0  0  0  0  0  0  0  0  0
    8.5561   -1.6120    0.9559 H   0  0  0  0  0  0  0  0  0  0  0  0
    6.9966   -3.9861    1.1441 H   0  0  0  0  0  0  0  0  0  0  0  0
    6.7156   -3.1165    2.6802 H   0  0  0  0  0  0  0  0  0  0  0  0
   10.2413   -2.7379    1.1534 H   0  0  0  0  0  0  0  0  0  0  0  0
   10.6810   -3.0635    2.8595 H   0  0  0  0  0  0  0  0  0  0  0  0
    6.7132    1.9392   -0.1686 H   0  0  0  0  0  0  0  0  0  0  0  0
    6.0345    1.3020    1.3260 H   0  0  0  0  0  0  0  0  0  0  0  0
    8.1906    2.1861    1.6401 H   0  0  0  0  0  0  0  0  0  0  0  0
    8.3124    0.4668    2.0137 H   0  0  0  0  0  0  0  0  0  0  0  0
    9.3009    1.9777   -0.4294 H   0  0  0  0  0  0  0  0  0  0  0  0
    9.3009    0.1932   -0.4263 H   0  0  0  0  0  0  0  0  0  0  0  0
   10.6046    0.3362    1.6415 H   0  0  0  0  0  0  0  0  0  0  0  0
   11.5354    0.1735   -0.6014 H   0  0  0  0  0  0  0  0  0  0  0  0
   10.8945    2.0560   -1.6825 H   0  0  0  0  0  0  0  0  0  0  0  0
   11.1902    3.1482   -0.2040 H   0  0  0  0  0  0  0  0  0  0  0  0
   12.5758    2.5369   -1.2472 H   0  0  0  0  0  0  0  0  0  0  0  0
   13.5542    0.0825    0.5252 H   0  0  0  0  0  0  0  0  0  0  0  0
   13.6052    1.8554    0.4493 H   0  0  0  0  0  0  0  0  0  0  0  0
   12.8530    1.0116    1.8716 H   0  0  0  0  0  0  0  0  0  0  0  0
   -6.6143    3.1324   -1.9364 H   0  0  0  0  0  0  0  0  0  0  0  0
   -6.4506    4.3916   -0.6662 H   0  0  0  0  0  0  0  0  0  0  0  0
   -8.5196    4.8478    0.9988 H   0  0  0  0  0  0  0  0  0  0  0  0
  -11.1423    4.2738    0.7991 H   0  0  0  0  0  0  0  0  0  0  0  0
  -11.3280    2.4272   -1.1806 H   0  0  0  0  0  0  0  0  0  0  0  0
   -8.3777    0.2807   -2.2639 H   0  0  0  0  0  0  0  0  0  0  0  0
  -10.0524   -0.3763   -2.6551 H   0  0  0  0  0  0  0  0  0  0  0  0
   -8.6078   -1.3770   -2.8136 H   0  0  0  0  0  0  0  0  0  0  0  0
  1  2  1  0
  2  3  1  0
  3  4  1  0
  4  5  1  0
  5  6  1  0
  6  7  2  0
  6  8  1  0
  8  9  1  0
  9 10  1  0
 10 11  2  0
 10 12  1  0
 12 13  1  0
 12 14  1  0
 14 15  1  0
 15 16  1  0
 16 17  1  0
 17 18  1  0
 18 19  1  0
 19 20  1  0
 20 21  2  0
 20 22  1  0
 22 23  1  0
 23 24  1  0
 24 25  2  0
 24 26  1  0
 26 27  1  0
 27 28  1  0
 28 29  2  0
 26 30  1  0
 30 31  1  0
 31 32  2  0
 31 33  1  0
 22 34  1  0
 34 35  1  0
 35 36  2  0
 35 37  1  0
 18 38  1  0
 38 39  2  0
 38 40  1  0
 40 41  1  0
 41 42  1  0
 42 43  1  0
 43 44  1  0
 44 45  1  0
 45 46  2  0
 45 47  1  0
 47 48  1  0
 48 49  1  0
 49 50  2  0
 49 51  1  0
 51 52  1  0
 52 53  1  0
 53 54  2  0
 53 55  1  0
 48 56  1  0
 56 57  1  0
 57 58  1  0
 58 59  1  0
 59 60  1  0
 60 61  1  0
 60 62  1  0
  8 63  1  0
 63 64  1  0
 64 65  2  0
 65 66  1  0
 66 67  2  0
 67 68  1  0
  3 69  1  0
 28  4  1  0
 44 40  1  0
 68 64  1  0
  1 70  1  0
  1 71  1  0
  1 72  1  0
  2 73  1  0
  2 74  1  0
  3 75  1  1
  4 76  1  1
  5 77  1  0
  8 78  1  1
  9 79  1  0
 12 80  1  1
 13 81  1  0
 13 82  1  0
 14 83  1  0
 14 84  1  0
 17 85  1  0
 17 86  1  0
 18 87  1  6
 19 88  1  0
 22 89  1  1
 23 90  1  0
 26 91  1  1
 27 92  1  0
 30 93  1  0
 30 94  1  0
 33 95  1  0
 33 96  1  0
 34 97  1  0
 34 98  1  0
 37 99  1  0
 37100  1  0
 41101  1  0
 41102  1  0
 42103  1  0
 42104  1  0
 43105  1  0
 43106  1  0
 44107  1  6
 47108  1  0
 48109  1  6
 51110  1  0
 52111  1  0
 52112  1  0
 55113  1  0
 55114  1  0
 56115  1  0
 56116  1  0
 57117  1  0
 57118  1  0
 58119  1  0
 58120  1  0
 59121  1  0
 60122  1  0
 61123  1  0
 61124  1  0
 61125  1  0
 62126  1  0
 62127  1  0
 62128  1  0
 63129  1  0
 63130  1  0
 65131  1  0
 66132  1  0
 67133  1  0
 69134  1  0
 69135  1  0
 69136  1  0
M  END
>  <Ligand ID>  (1) 
LIG0001607

>  <Ligand>  (1) 
CHEMBL1817758

>  <SMILES>  (1) 
CC[C@@H]([C@@H]1NC(=O)[C@@H](NC(=O)[C@@H](N)CSSC[C@H](NC(=O)[C@@H](NC(=O)[C@@H](NC1=O)CC(=O)N)CC(=O)N)C(=O)N1CCC[C@H]1C(=O)N[C@H](C(=O)NCC(=O)N)CCCNC(C)C)Cc1ccco1)C

>  <CID>  (1) 
53362730.0

>  <ChEMBL ID>  (1) 
nan

>  <InChiKey>  (1) 
ZTDRVFSXOOZPCO-OVCMMVBBSA-N

>  <InChi>  (1) 
InChI=1S/C42H67N13O12S2/c1-5-22(4)34-41(65)52-28(17-32(45)57)37(61)51-27(16-31(44)56)38(62)53-29(20-69-68-19-24(43)35(59)50-26(39(63)54-34)15-23-9-8-14-67-23)42(66)55-13-7-11-30(55)40(64)49-25(10-6-12-47-21(2)3)36(60)48-18-33(46)58/h8-9,14,21-22,24-30,34,47H,5-7,10-13,15-20,43H2,1-4H3,(H2,44,56)(H2,45,57)(H2,46,58)(H,48,60)(H,49,64)(H,50,59)(H,51,61)(H,52,65)(H,53,62)(H,54,63)/t22-,24-,25-,26-,27-,28-,29-,30-,34-/m0/s1

>  <IUPAC Name>  (1) 
(2S)-1-[(4R,7S,10S,13S,16S,19R)-19-amino-7,10-bis(2-amino-2-oxoethyl)-13-[(2S)-butan-2-yl]-16-(furan-2-ylmethyl)-6,9,12,15,18-pentaoxo-1,2-dithia-5,8,11,14,17-pentazacycloicosane-4-carbonyl]-N-[(2S)-1-[(2-amino-2-oxoethyl)amino]-1-oxo-5-(propan-2-ylamino)pentan-2-yl]pyrrolidine-2-carboxamide

$$$$
