
     RDKit          3D

 79 81  0  0  0  0  0  0  0  0999 V2000
   -3.7295   -1.6719    0.9863 O   0  0  0  0  0  0  0  0  0  0  0  0
   -4.3898   -0.6590    0.7159 C   0  0  0  0  0  0  0  0  0  0  0  0
   -3.8268    0.2375   -0.2470 N   0  0  0  0  0  0  0  0  0  0  0  0
   -2.5652    0.0287   -0.9058 C   0  0  2  0  0  0  0  0  0  0  0  0
   -1.5740    0.9593   -0.2803 C   0  0  0  0  0  0  0  0  0  0  0  0
   -1.8765    1.6541    0.7230 O   0  0  0  0  0  0  0  0  0  0  0  0
   -0.2613    1.0786   -0.7983 N   0  0  0  0  0  0  0  0  0  0  0  0
    0.7544    1.9453   -0.2058 C   0  0  1  0  0  0  0  0  0  0  0  0
    2.0337    1.2372   -0.2617 C   0  0  0  0  0  0  0  0  0  0  0  0
    2.0784    0.1740   -0.9601 O   0  0  0  0  0  0  0  0  0  0  0  0
    3.2348    1.6123    0.3887 N   0  0  0  0  0  0  0  0  0  0  0  0
    4.3795    0.7262    0.1580 C   0  0  1  0  0  0  0  0  0  0  0  0
    5.6182    1.5013    0.2592 C   0  0  0  0  0  0  0  0  0  0  0  0
    6.7323    0.9529    0.0706 O   0  0  0  0  0  0  0  0  0  0  0  0
    5.6022    2.8845    0.5685 N   0  0  0  0  0  0  0  0  0  0  0  0
    4.2765   -0.3335    1.2647 C   0  0  0  0  0  0  0  0  0  0  0  0
    4.3617    0.2449    2.6393 C   0  0  0  0  0  0  0  0  0  0  0  0
    4.2103   -0.9443    3.6047 C   0  0  0  0  0  0  0  0  0  0  0  0
    5.2738   -1.8634    3.2826 N   0  0  0  0  0  0  0  0  0  0  0  0
    5.9828   -2.4025    4.1965 C   0  0  0  0  0  0  0  0  0  0  0  0
    5.8347   -2.1855    5.5914 N   0  0  0  0  0  0  0  0  0  0  0  0
    7.0188   -3.3230    3.7975 N   0  0  0  0  0  0  0  0  0  0  0  0
    0.8549    3.1904   -1.1127 C   0  0  0  0  0  0  0  0  0  0  0  0
    1.2426    2.7197   -2.4675 C   0  0  0  0  0  0  0  0  0  0  0  0
    0.2138    2.3829   -3.3269 C   0  0  0  0  0  0  0  0  0  0  0  0
    0.5465    1.9425   -4.5746 C   0  0  0  0  0  0  0  0  0  0  0  0
    1.8524    1.8273   -4.9947 C   0  0  0  0  0  0  0  0  0  0  0  0
    2.9119    2.1658   -4.1413 C   0  0  0  0  0  0  0  0  0  0  0  0
    2.5439    2.6035   -2.8923 C   0  0  0  0  0  0  0  0  0  0  0  0
   -2.5781    0.2987   -2.3858 C   0  0  0  0  0  0  0  0  0  0  0  0
   -3.5357   -0.5975   -3.1010 C   0  0  0  0  0  0  0  0  0  0  0  0
   -4.8319   -0.4052   -3.3706 N   0  0  0  0  0  0  0  0  0  0  0  0
   -5.2662   -1.5024   -4.0286 C   0  0  0  0  0  0  0  0  0  0  0  0
   -4.2438   -2.3892   -4.1747 N   0  0  0  0  0  0  0  0  0  0  0  0
   -3.1408   -1.8261   -3.5912 C   0  0  0  0  0  0  0  0  0  0  0  0
   -5.6881   -0.2755    1.2756 C   0  0  0  0  0  0  0  0  0  0  0  0
   -6.2470   -1.1199    2.3485 C   0  0  0  0  0  0  0  0  0  0  0  0
   -6.4372   -2.5018    1.9032 C   0  0  0  0  0  0  0  0  0  0  0  0
   -7.5605   -2.9831    1.2756 N   0  0  0  0  0  0  0  0  0  0  0  0
   -7.4499   -4.2847    1.0332 C   0  0  0  0  0  0  0  0  0  0  0  0
   -6.2418   -4.6680    1.5045 N   0  0  0  0  0  0  0  0  0  0  0  0
   -5.6227   -3.6169    2.0285 C   0  0  0  0  0  0  0  0  0  0  0  0
   -4.3490    1.1277   -0.5149 H   0  0  0  0  0  0  0  0  0  0  0  0
   -2.1992   -1.0344   -0.7110 H   0  0  0  0  0  0  0  0  0  0  0  0
    0.0260    0.5320   -1.6416 H   0  0  0  0  0  0  0  0  0  0  0  0
    0.5232    2.2876    0.7945 H   0  0  0  0  0  0  0  0  0  0  0  0
    3.2541    2.4521    0.9680 H   0  0  0  0  0  0  0  0  0  0  0  0
    4.2836    0.1820   -0.8029 H   0  0  0  0  0  0  0  0  0  0  0  0
    5.0609    3.2669    1.3990 H   0  0  0  0  0  0  0  0  0  0  0  0
    6.1042    3.6224    0.0206 H   0  0  0  0  0  0  0  0  0  0  0  0
    3.3141   -0.8562    1.1491 H   0  0  0  0  0  0  0  0  0  0  0  0
    5.1477   -1.0112    1.1139 H   0  0  0  0  0  0  0  0  0  0  0  0
    5.4018    0.6335    2.8484 H   0  0  0  0  0  0  0  0  0  0  0  0
    3.5805    1.0084    2.7970 H   0  0  0  0  0  0  0  0  0  0  0  0
    4.3822   -0.5504    4.6217 H   0  0  0  0  0  0  0  0  0  0  0  0
    3.2048   -1.3973    3.4754 H   0  0  0  0  0  0  0  0  0  0  0  0
    6.4420   -1.4780    6.1056 H   0  0  0  0  0  0  0  0  0  0  0  0
    5.1180   -2.7163    6.1772 H   0  0  0  0  0  0  0  0  0  0  0  0
    7.9746   -2.9153    3.7449 H   0  0  0  0  0  0  0  0  0  0  0  0
    6.7949   -4.3256    3.5845 H   0  0  0  0  0  0  0  0  0  0  0  0
   -0.1099    3.7506   -1.1273 H   0  0  0  0  0  0  0  0  0  0  0  0
    1.6370    3.8649   -0.7687 H   0  0  0  0  0  0  0  0  0  0  0  0
   -0.8058    2.4757   -2.9887 H   0  0  0  0  0  0  0  0  0  0  0  0
   -0.2274    1.6686   -5.2824 H   0  0  0  0  0  0  0  0  0  0  0  0
    2.0504    1.4690   -6.0058 H   0  0  0  0  0  0  0  0  0  0  0  0
    3.9339    2.0813   -4.4597 H   0  0  0  0  0  0  0  0  0  0  0  0
    3.3077    2.8918   -2.1665 H   0  0  0  0  0  0  0  0  0  0  0  0
   -1.5810    0.1574   -2.8211 H   0  0  0  0  0  0  0  0  0  0  0  0
   -2.8764    1.3712   -2.5353 H   0  0  0  0  0  0  0  0  0  0  0  0
   -5.3899    0.4552   -3.1080 H   0  0  0  0  0  0  0  0  0  0  0  0
   -6.2903   -1.6283   -4.3734 H   0  0  0  0  0  0  0  0  0  0  0  0
   -2.1716   -2.2672   -3.5315 H   0  0  0  0  0  0  0  0  0  0  0  0
   -5.5284    0.7542    1.7235 H   0  0  0  0  0  0  0  0  0  0  0  0
   -6.4140   -0.1310    0.4278 H   0  0  0  0  0  0  0  0  0  0  0  0
   -5.6193   -1.1321    3.2787 H   0  0  0  0  0  0  0  0  0  0  0  0
   -7.2385   -0.7233    2.7275 H   0  0  0  0  0  0  0  0  0  0  0  0
   -8.3649   -2.3694    1.0477 H   0  0  0  0  0  0  0  0  0  0  0  0
   -8.2199   -4.8651    0.5488 H   0  0  0  0  0  0  0  0  0  0  0  0
   -4.6473   -3.6649    2.4900 H   0  0  0  0  0  0  0  0  0  0  0  0
  1  2  2  0
  2  3  1  0
  3  4  1  0
  4  5  1  0
  5  6  2  0
  5  7  1  0
  7  8  1  0
  8  9  1  0
  9 10  2  0
  9 11  1  0
 11 12  1  0
 12 13  1  0
 13 14  2  0
 13 15  1  0
 12 16  1  0
 16 17  1  0
 17 18  1  0
 18 19  1  0
 19 20  2  3
 20 21  1  0
 20 22  1  0
  8 23  1  0
 23 24  1  0
 24 25  2  0
 25 26  1  0
 26 27  2  0
 27 28  1  0
 28 29  2  0
  4 30  1  0
 30 31  1  0
 31 32  1  0
 32 33  1  0
 33 34  2  0
 34 35  1  0
  2 36  1  0
 36 37  1  0
 37 38  1  0
 38 39  1  0
 39 40  1  0
 40 41  2  0
 41 42  1  0
 29 24  1  0
 35 31  2  0
 42 38  2  0
  3 43  1  0
  4 44  1  6
  7 45  1  0
  8 46  1  1
 11 47  1  0
 12 48  1  6
 15 49  1  0
 15 50  1  0
 16 51  1  0
 16 52  1  0
 17 53  1  0
 17 54  1  0
 18 55  1  0
 18 56  1  0
 21 57  1  0
 21 58  1  0
 22 59  1  0
 22 60  1  0
 23 61  1  0
 23 62  1  0
 25 63  1  0
 26 64  1  0
 27 65  1  0
 28 66  1  0
 29 67  1  0
 30 68  1  0
 30 69  1  0
 32 70  1  0
 33 71  1  0
 35 72  1  0
 36 73  1  0
 36 74  1  0
 37 75  1  0
 37 76  1  0
 39 77  1  0
 40 78  1  0
 42 79  1  0
M  END
>  <Ligand ID>  (1) 
LIG0002656

>  <Ligand>  (1) 
CHEMBL565474

>  <SMILES>  (1) 
O=C(N[C@H](C(=O)N[C@@H](C(=O)N[C@@H](C(=O)N)CCCN=C(N)N)Cc1ccccc1)Cc1[nH]cnc1)CCc1[nH]cnc1

>  <CID>  (1) 
45487290.0

>  <ChEMBL ID>  (1) 
nan

>  <InChiKey>  (1) 
UXEANADRNJPXAY-VSKRKVRLSA-N

>  <InChi>  (1) 
InChI=1S/C27H37N11O4/c28-24(40)20(7-4-10-33-27(29)30)37-25(41)21(11-17-5-2-1-3-6-17)38-26(42)22(12-19-14-32-16-35-19)36-23(39)9-8-18-13-31-15-34-18/h1-3,5-6,13-16,20-22H,4,7-12H2,(H2,28,40)(H,31,34)(H,32,35)(H,36,39)(H,37,41)(H,38,42)(H4,29,30,33)/t20-,21-,22+/m1/s1

>  <IUPAC Name>  (1) 
(2R)-5-(diaminomethylideneamino)-2-[[(2R)-2-[[(2S)-3-(1H-imidazol-5-yl)-2-[3-(1H-imidazol-5-yl)propanoylamino]propanoyl]amino]-3-phenylpropanoyl]amino]pentanamide

$$$$
