
     RDKit          3D

 97100  0  0  0  0  0  0  0  0999 V2000
    1.3699    6.9388   -3.0926 N   0  0  0  0  0  0  0  0  0  0  0  0
    2.0800    5.7523   -3.5106 C   0  0  0  0  0  0  0  0  0  0  0  0
    2.2207    4.8070   -2.8191 N   0  0  0  0  0  0  0  0  0  0  0  0
    2.5013    3.6313   -2.2145 C   0  0  0  0  0  0  0  0  0  0  0  0
    2.9243    3.8369   -0.7624 C   0  0  0  0  0  0  0  0  0  0  0  0
    3.2467    2.5702   -0.0488 C   0  0  0  0  0  0  0  0  0  0  0  0
    2.1579    1.5722    0.0501 C   0  0  1  0  0  0  0  0  0  0  0  0
    2.6403    0.3558    0.7991 C   0  0  0  0  0  0  0  0  0  0  0  0
    2.0089   -0.0903    1.7911 O   0  0  0  0  0  0  0  0  0  0  0  0
    3.8321   -0.2462    0.3188 N   0  0  0  0  0  0  0  0  0  0  0  0
    4.3493   -1.4690    0.9994 C   0  0  2  0  0  0  0  0  0  0  0  0
    5.5705   -1.1710    1.7199 C   0  0  0  0  0  0  0  0  0  0  0  0
    6.0855   -0.0046    1.5785 O   0  0  0  0  0  0  0  0  0  0  0  0
    6.2801   -2.0380    2.5901 N   0  0  0  0  0  0  0  0  0  0  0  0
    4.3773   -2.5122   -0.0550 C   0  0  0  0  0  0  0  0  0  0  0  0
    4.8426   -3.8507    0.2877 C   0  0  0  0  0  0  0  0  0  0  0  0
    3.9640   -4.8959    0.5968 C   0  0  0  0  0  0  0  0  0  0  0  0
    4.6278   -6.0085    0.8876 N   0  0  0  0  0  0  0  0  0  0  0  0
    5.9272   -5.7149    0.7758 C   0  0  0  0  0  0  0  0  0  0  0  0
    6.0973   -4.3991    0.4088 C   0  0  0  0  0  0  0  0  0  0  0  0
    7.3549   -3.8821    0.2240 C   0  0  0  0  0  0  0  0  0  0  0  0
    8.4254   -4.7173    0.4181 C   0  0  0  0  0  0  0  0  0  0  0  0
    8.2581   -6.0331    0.7861 C   0  0  0  0  0  0  0  0  0  0  0  0
    7.0071   -6.5768    0.9775 C   0  0  0  0  0  0  0  0  0  0  0  0
    0.9620    2.1007    0.6541 N   0  0  0  0  0  0  0  0  0  0  0  0
   -0.2722    1.5316    0.2435 C   0  0  0  0  0  0  0  0  0  0  0  0
   -0.3564    0.5947   -0.5999 O   0  0  0  0  0  0  0  0  0  0  0  0
   -1.5991    2.0100    0.7958 C   0  0  1  0  0  0  0  0  0  0  0  0
   -2.6417    1.0912    0.3594 N   0  0  0  0  0  0  0  0  0  0  0  0
   -3.5763    1.3198   -0.6439 C   0  0  0  0  0  0  0  0  0  0  0  0
   -3.6800    2.3596   -1.3398 O   0  0  0  0  0  0  0  0  0  0  0  0
   -4.5700    0.1697   -0.9101 C   0  0  1  0  0  0  0  0  0  0  0  0
   -5.3551    0.6074   -1.9982 N   0  0  0  0  0  0  0  0  0  0  0  0
   -6.9593    0.9910   -1.5691 S   0  0  0  0  0  0  0  0  0  0  0  0
   -7.0074    2.1346   -0.5664 O   0  0  0  0  0  0  0  0  0  0  0  0
   -7.7089    1.5161   -2.7856 O   0  0  0  0  0  0  0  0  0  0  0  0
   -7.8140   -0.4116   -0.9228 C   0  0  0  0  0  0  0  0  0  0  0  0
   -7.1909   -0.8812    0.2147 F   0  0  0  0  0  0  0  0  0  0  0  0
   -9.1243   -0.0488   -0.5813 F   0  0  0  0  0  0  0  0  0  0  0  0
   -7.8701   -1.4508   -1.8304 F   0  0  0  0  0  0  0  0  0  0  0  0
   -3.8070   -1.0706   -1.2012 C   0  0  0  0  0  0  0  0  0  0  0  0
   -4.6299   -2.2590   -1.4717 C   0  0  0  0  0  0  0  0  0  0  0  0
   -5.0348   -2.6161   -2.7340 C   0  0  0  0  0  0  0  0  0  0  0  0
   -5.7949   -3.7635   -2.9157 C   0  0  0  0  0  0  0  0  0  0  0  0
   -6.1633   -4.5645   -1.8774 C   0  0  0  0  0  0  0  0  0  0  0  0
   -5.7663   -4.2234   -0.5962 C   0  0  0  0  0  0  0  0  0  0  0  0
   -5.0214   -3.0964   -0.4314 C   0  0  0  0  0  0  0  0  0  0  0  0
   -7.1200   -6.0186   -2.0689 Cl  0  0  0  0  0  0  0  0  0  0  0  0
   -1.5146    1.9667    2.2892 C   0  0  0  0  0  0  0  0  0  0  0  0
   -2.7708    2.4261    2.9321 C   0  0  0  0  0  0  0  0  0  0  0  0
   -2.8930    3.7587    3.2273 C   0  0  0  0  0  0  0  0  0  0  0  0
   -4.0097    4.3194    3.8239 C   0  0  0  0  0  0  0  0  0  0  0  0
   -5.0499    3.4634    4.1297 C   0  0  0  0  0  0  0  0  0  0  0  0
   -4.9667    2.0947    3.8453 C   0  0  0  0  0  0  0  0  0  0  0  0
   -3.8199    1.5983    3.2471 C   0  0  0  0  0  0  0  0  0  0  0  0
    2.6041    5.8302   -4.8552 N   0  0  0  0  0  0  0  0  0  0  0  0
    1.8566    7.6980   -2.5758 H   0  0  0  0  0  0  0  0  0  0  0  0
    0.3371    7.0098   -3.3280 H   0  0  0  0  0  0  0  0  0  0  0  0
    1.6254    2.9170   -2.1911 H   0  0  0  0  0  0  0  0  0  0  0  0
    3.3093    3.0046   -2.6994 H   0  0  0  0  0  0  0  0  0  0  0  0
    2.2171    4.4944   -0.2314 H   0  0  0  0  0  0  0  0  0  0  0  0
    3.8948    4.4129   -0.8322 H   0  0  0  0  0  0  0  0  0  0  0  0
    3.5739    2.8403    0.9825 H   0  0  0  0  0  0  0  0  0  0  0  0
    4.1758    2.1276   -0.5101 H   0  0  0  0  0  0  0  0  0  0  0  0
    1.8181    1.1843   -0.9639 H   0  0  0  0  0  0  0  0  0  0  0  0
    4.3877    0.0902   -0.4758 H   0  0  0  0  0  0  0  0  0  0  0  0
    3.5635   -1.7152    1.7719 H   0  0  0  0  0  0  0  0  0  0  0  0
    5.7254   -2.8758    2.9427 H   0  0  0  0  0  0  0  0  0  0  0  0
    7.2523   -1.9087    2.8863 H   0  0  0  0  0  0  0  0  0  0  0  0
    5.0156   -2.1503   -0.9268 H   0  0  0  0  0  0  0  0  0  0  0  0
    3.3551   -2.5745   -0.5324 H   0  0  0  0  0  0  0  0  0  0  0  0
    2.8854   -4.8249    0.6011 H   0  0  0  0  0  0  0  0  0  0  0  0
    4.1975   -6.9205    1.1489 H   0  0  0  0  0  0  0  0  0  0  0  0
    7.4217   -2.8476   -0.0619 H   0  0  0  0  0  0  0  0  0  0  0  0
    9.4102   -4.3115    0.2736 H   0  0  0  0  0  0  0  0  0  0  0  0
    9.1527   -6.6173    0.9167 H   0  0  0  0  0  0  0  0  0  0  0  0
    6.8674   -7.6006    1.2632 H   0  0  0  0  0  0  0  0  0  0  0  0
    0.9724    2.8796    1.3754 H   0  0  0  0  0  0  0  0  0  0  0  0
   -1.8043    3.0052    0.3612 H   0  0  0  0  0  0  0  0  0  0  0  0
   -2.6504    0.1702    0.8957 H   0  0  0  0  0  0  0  0  0  0  0  0
   -5.1597    0.0937    0.0169 H   0  0  0  0  0  0  0  0  0  0  0  0
   -5.2229    0.1657   -2.9009 H   0  0  0  0  0  0  0  0  0  0  0  0
   -3.1210   -1.3263   -0.3340 H   0  0  0  0  0  0  0  0  0  0  0  0
   -3.1111   -0.9099   -2.0730 H   0  0  0  0  0  0  0  0  0  0  0  0
   -4.7860   -2.0464   -3.6088 H   0  0  0  0  0  0  0  0  0  0  0  0
   -6.1292   -4.0722   -3.9141 H   0  0  0  0  0  0  0  0  0  0  0  0
   -6.0382   -4.8396    0.2732 H   0  0  0  0  0  0  0  0  0  0  0  0
   -4.7158   -2.8406    0.5772 H   0  0  0  0  0  0  0  0  0  0  0  0
   -0.6972    2.6328    2.6483 H   0  0  0  0  0  0  0  0  0  0  0  0
   -1.2300    0.9498    2.6339 H   0  0  0  0  0  0  0  0  0  0  0  0
   -2.0672    4.4201    2.9803 H   0  0  0  0  0  0  0  0  0  0  0  0
   -4.0372    5.3767    4.0261 H   0  0  0  0  0  0  0  0  0  0  0  0
   -5.9577    3.8298    4.5970 H   0  0  0  0  0  0  0  0  0  0  0  0
   -5.8024    1.4435    4.0973 H   0  0  0  0  0  0  0  0  0  0  0  0
   -3.7221    0.5524    3.0143 H   0  0  0  0  0  0  0  0  0  0  0  0
    3.4466    6.4309   -4.9665 H   0  0  0  0  0  0  0  0  0  0  0  0
    2.1638    5.3180   -5.6487 H   0  0  0  0  0  0  0  0  0  0  0  0
  1  2  1  0
  2  3  2  3
  3  4  1  0
  4  5  1  0
  5  6  1  0
  6  7  1  0
  7  8  1  0
  8  9  2  0
  8 10  1  0
 10 11  1  0
 11 12  1  0
 12 13  2  0
 12 14  1  0
 11 15  1  0
 15 16  1  0
 16 17  2  0
 17 18  1  0
 18 19  1  0
 19 20  2  0
 20 21  1  0
 21 22  2  0
 22 23  1  0
 23 24  2  0
  7 25  1  0
 25 26  1  0
 26 27  2  0
 26 28  1  0
 28 29  1  0
 29 30  1  0
 30 31  2  0
 30 32  1  0
 32 33  1  0
 33 34  1  0
 34 35  2  0
 34 36  2  0
 34 37  1  0
 37 38  1  0
 37 39  1  0
 37 40  1  0
 32 41  1  0
 41 42  1  0
 42 43  2  0
 43 44  1  0
 44 45  2  0
 45 46  1  0
 46 47  2  0
 45 48  1  0
 28 49  1  0
 49 50  1  0
 50 51  2  0
 51 52  1  0
 52 53  2  0
 53 54  1  0
 54 55  2  0
  2 56  1  0
 20 16  1  0
 47 42  1  0
 55 50  1  0
 24 19  1  0
  1 57  1  0
  1 58  1  0
  4 59  1  0
  4 60  1  0
  5 61  1  0
  5 62  1  0
  6 63  1  0
  6 64  1  0
  7 65  1  6
 10 66  1  0
 11 67  1  1
 14 68  1  0
 14 69  1  0
 15 70  1  0
 15 71  1  0
 17 72  1  0
 18 73  1  0
 21 74  1  0
 22 75  1  0
 23 76  1  0
 24 77  1  0
 25 78  1  0
 28 79  1  1
 29 80  1  0
 32 81  1  1
 33 82  1  0
 41 83  1  0
 41 84  1  0
 43 85  1  0
 44 86  1  0
 46 87  1  0
 47 88  1  0
 49 89  1  0
 49 90  1  0
 51 91  1  0
 52 92  1  0
 53 93  1  0
 54 94  1  0
 55 95  1  0
 56 96  1  0
 56 97  1  0
M  END
>  <Ligand ID>  (1) 
LIG0002636

>  <Ligand>  (1) 
CHEMBL364359

>  <SMILES>  (1) 
NC(=NCCC[C@@H](C(=O)N[C@H](C(=O)N)Cc1c[nH]c2c1cccc2)NC(=O)[C@@H](NC(=O)[C@@H](NS(=O)(=O)C(F)(F)F)Cc1ccc(cc1)Cl)Cc1ccccc1)N

>  <CID>  (1) 
44394748.0

>  <ChEMBL ID>  (1) 
nan

>  <InChiKey>  (1) 
ROQOLFFCHJZFOW-KRCBVYEFSA-N

>  <InChi>  (1) 
InChI=1S/C36H41ClF3N9O6S/c37-24-14-12-22(13-15-24)18-30(49-56(54,55)36(38,39)40)34(53)48-29(17-21-7-2-1-3-8-21)33(52)46-27(11-6-16-44-35(42)43)32(51)47-28(31(41)50)19-23-20-45-26-10-5-4-9-25(23)26/h1-5,7-10,12-15,20,27-30,45,49H,6,11,16-19H2,(H2,41,50)(H,46,52)(H,47,51)(H,48,53)(H4,42,43,44)/t27-,28-,29-,30-/m0/s1

>  <IUPAC Name>  (1) 
(2S)-N-[(2S)-1-amino-3-(1H-indol-3-yl)-1-oxopropan-2-yl]-2-[[(2S)-2-[[(2S)-3-(4-chlorophenyl)-2-(trifluoromethylsulfonylamino)propanoyl]amino]-3-phenylpropanoyl]amino]-5-(diaminomethylideneamino)pentanamide

$$$$
