
     RDKit          3D

 67 68  0  0  0  0  0  0  0  0999 V2000
   -3.0648   -2.4108   -0.7016 O   0  0  0  0  0  0  0  0  0  0  0  0
   -3.1027   -1.0636   -0.4831 C   0  0  1  0  0  0  0  0  0  0  0  0
   -3.3148   -0.5637    0.8920 C   0  0  0  0  0  0  0  0  0  0  0  0
   -4.6361   -0.9862    1.5264 C   0  0  0  0  0  0  0  0  0  0  0  0
   -5.8215   -0.5116    0.7852 C   0  0  0  0  0  0  0  0  0  0  0  0
   -6.4844   -1.2297   -0.1794 C   0  0  0  0  0  0  0  0  0  0  0  0
   -7.5888   -0.7532   -0.8613 C   0  0  0  0  0  0  0  0  0  0  0  0
   -8.0493    0.5068   -0.5593 C   0  0  0  0  0  0  0  0  0  0  0  0
   -7.3901    1.2535    0.4177 C   0  0  0  0  0  0  0  0  0  0  0  0
   -6.3071    0.7522    1.0679 C   0  0  0  0  0  0  0  0  0  0  0  0
   -7.9589    2.6106    0.6798 C   0  0  0  0  0  0  0  0  0  0  0  0
   -9.3163    2.5851    0.4781 F   0  0  0  0  0  0  0  0  0  0  0  0
   -7.6671    3.0102    1.9760 F   0  0  0  0  0  0  0  0  0  0  0  0
   -7.3303    3.4924   -0.1766 F   0  0  0  0  0  0  0  0  0  0  0  0
   -2.3073   -0.1790   -1.3333 C   0  0  0  0  0  0  0  0  0  0  0  0
   -0.8662   -0.2370   -1.5270 C   0  0  0  0  0  0  0  0  0  0  0  0
    0.1259   -0.0829   -0.4454 C   0  0  1  0  0  0  0  0  0  0  0  0
    0.0733   -1.1365    0.5983 C   0  0  2  0  0  0  0  0  0  0  0  0
    0.0786   -0.5920    1.8969 O   0  0  0  0  0  0  0  0  0  0  0  0
    1.3110   -2.0251    0.4281 C   0  0  0  0  0  0  0  0  0  0  0  0
    1.7496   -1.6879   -0.9964 C   0  0  1  0  0  0  0  0  0  0  0  0
    1.5578   -0.2077   -0.9983 C   0  0  2  0  0  0  0  0  0  0  0  0
    2.4457    0.5515   -0.0781 C   0  0  0  0  0  0  0  0  0  0  0  0
    3.8939    0.5767   -0.4477 C   0  0  0  0  0  0  0  0  0  0  0  0
    4.6999    1.3993    0.5693 C   0  0  0  0  0  0  0  0  0  0  0  0
    6.1537    1.4743    0.2333 C   0  0  0  0  0  0  0  0  0  0  0  0
    6.7482    0.1040    0.1961 C   0  0  0  0  0  0  0  0  0  0  0  0
    8.2494    0.1898   -0.1474 C   0  0  0  0  0  0  0  0  0  0  0  0
    8.8735    0.9925    0.9139 C   0  0  0  0  0  0  0  0  0  0  0  0
    8.7479    0.6073    2.1203 O   0  0  0  0  0  0  0  0  0  0  0  0
    9.6041    2.1682    0.6728 O   0  0  0  0  0  0  0  0  0  0  0  0
    3.0274   -2.1282   -1.2544 O   0  0  0  0  0  0  0  0  0  0  0  0
   -3.4525   -2.7502   -1.5192 H   0  0  0  0  0  0  0  0  0  0  0  0
   -4.2262   -0.8618   -0.9255 H   0  0  0  0  0  0  0  0  0  0  0  0
   -3.3537    0.5655    0.9157 H   0  0  0  0  0  0  0  0  0  0  0  0
   -2.5564   -0.8312    1.6428 H   0  0  0  0  0  0  0  0  0  0  0  0
   -4.6585   -2.0825    1.7007 H   0  0  0  0  0  0  0  0  0  0  0  0
   -4.6549   -0.5276    2.5332 H   0  0  0  0  0  0  0  0  0  0  0  0
   -6.1345   -2.2227   -0.4284 H   0  0  0  0  0  0  0  0  0  0  0  0
   -8.1087   -1.3261   -1.6228 H   0  0  0  0  0  0  0  0  0  0  0  0
   -8.9219    0.9275   -1.0754 H   0  0  0  0  0  0  0  0  0  0  0  0
   -5.8061    1.3641    1.8317 H   0  0  0  0  0  0  0  0  0  0  0  0
   -2.7703   -0.1965   -2.4023 H   0  0  0  0  0  0  0  0  0  0  0  0
   -2.5827    0.9214   -1.0710 H   0  0  0  0  0  0  0  0  0  0  0  0
   -0.5723   -1.1322   -2.2011 H   0  0  0  0  0  0  0  0  0  0  0  0
   -0.5861    0.6110   -2.2792 H   0  0  0  0  0  0  0  0  0  0  0  0
    0.0434    0.9557    0.0312 H   0  0  0  0  0  0  0  0  0  0  0  0
   -0.7687   -1.8400    0.5553 H   0  0  0  0  0  0  0  0  0  0  0  0
   -0.1126    0.3741    1.7752 H   0  0  0  0  0  0  0  0  0  0  0  0
    2.0762   -1.8538    1.1808 H   0  0  0  0  0  0  0  0  0  0  0  0
    1.0601   -3.1048    0.4218 H   0  0  0  0  0  0  0  0  0  0  0  0
    1.0437   -2.1576   -1.7167 H   0  0  0  0  0  0  0  0  0  0  0  0
    1.6127    0.2420   -2.0122 H   0  0  0  0  0  0  0  0  0  0  0  0
    2.3975    0.1597    0.9686 H   0  0  0  0  0  0  0  0  0  0  0  0
    2.0371    1.5963    0.0179 H   0  0  0  0  0  0  0  0  0  0  0  0
    4.0240    1.1487   -1.4078 H   0  0  0  0  0  0  0  0  0  0  0  0
    4.3264   -0.4116   -0.5770 H   0  0  0  0  0  0  0  0  0  0  0  0
    4.6278    0.9654    1.5905 H   0  0  0  0  0  0  0  0  0  0  0  0
    4.2609    2.4175    0.6643 H   0  0  0  0  0  0  0  0  0  0  0  0
    6.3724    2.0708   -0.6655 H   0  0  0  0  0  0  0  0  0  0  0  0
    6.6387    1.9997    1.1136 H   0  0  0  0  0  0  0  0  0  0  0  0
    6.3363   -0.5657   -0.5782 H   0  0  0  0  0  0  0  0  0  0  0  0
    6.6649   -0.4243    1.1545 H   0  0  0  0  0  0  0  0  0  0  0  0
    8.3056    0.6246   -1.1560 H   0  0  0  0  0  0  0  0  0  0  0  0
    8.5880   -0.8735   -0.0976 H   0  0  0  0  0  0  0  0  0  0  0  0
    9.6303    2.8147    1.4849 H   0  0  0  0  0  0  0  0  0  0  0  0
    3.0858   -3.0756   -0.9715 H   0  0  0  0  0  0  0  0  0  0  0  0
  1  2  1  0
  2  3  1  0
  3  4  1  0
  4  5  1  0
  5  6  2  0
  6  7  1  0
  7  8  2  0
  8  9  1  0
  9 10  2  0
  9 11  1  0
 11 12  1  0
 11 13  1  0
 11 14  1  0
  2 15  1  0
 15 16  1  0
 16 17  1  0
 17 18  1  0
 18 19  1  0
 18 20  1  0
 20 21  1  0
 21 22  1  0
 22 23  1  0
 23 24  1  0
 24 25  1  0
 25 26  1  0
 26 27  1  0
 27 28  1  0
 28 29  1  0
 29 30  2  0
 29 31  1  0
 21 32  1  0
 10  5  1  0
 22 17  1  0
  1 33  1  0
  2 34  1  6
  3 35  1  0
  3 36  1  0
  4 37  1  0
  4 38  1  0
  6 39  1  0
  7 40  1  0
  8 41  1  0
 10 42  1  0
 15 43  1  0
 15 44  1  0
 16 45  1  0
 16 46  1  0
 17 47  1  1
 18 48  1  6
 19 49  1  0
 20 50  1  0
 20 51  1  0
 21 52  1  6
 22 53  1  6
 23 54  1  0
 23 55  1  0
 24 56  1  0
 24 57  1  0
 25 58  1  0
 25 59  1  0
 26 60  1  0
 26 61  1  0
 27 62  1  0
 27 63  1  0
 28 64  1  0
 28 65  1  0
 31 66  1  0
 32 67  1  0
M  END
>  <Ligand ID>  (1) 
LIG0001181

>  <Ligand>  (1) 
CHEMBL39784

>  <SMILES>  (1) 
O[C@@H](CCc1cccc(c1)C(F)(F)F)CC[C@H]1[C@H](O)C[C@@H]([C@@H]1CCCCCCC(=O)O)O

>  <CID>  (1) 
10389527.0

>  <ChEMBL ID>  (1) 
nan

>  <InChiKey>  (1) 
DSVAWVBHUBDAPY-AHJNKEMKSA-N

>  <InChi>  (1) 
InChI=1S/C24H35F3O5/c25-24(26,27)17-7-5-6-16(14-17)10-11-18(28)12-13-20-19(21(29)15-22(20)30)8-3-1-2-4-9-23(31)32/h5-7,14,18-22,28-30H,1-4,8-13,15H2,(H,31,32)/t18-,19+,20+,21-,22+/m0/s1

>  <IUPAC Name>  (1) 
7-[(1R,2R,3R,5S)-3,5-dihydroxy-2-[(3R)-3-hydroxy-5-[3-(trifluoromethyl)phenyl]pentyl]cyclopentyl]heptanoic acid

$$$$
