
     RDKit          3D

 69 70  0  0  0  0  0  0  0  0999 V2000
   -5.9752    3.1084   -0.8491 C   0  0  0  0  0  0  0  0  0  0  0  0
   -5.4530    3.3231    0.5452 C   0  0  0  0  0  0  0  0  0  0  0  0
   -5.4169    1.8008    1.5390 S   0  0  0  0  0  0  0  0  0  0  0  0
   -4.3235    0.5906    0.7833 C   0  0  0  0  0  0  0  0  0  0  0  0
   -2.9565    0.6984    0.9301 C   0  0  0  0  0  0  0  0  0  0  0  0
   -2.1639   -0.2407    0.3155 C   0  0  0  0  0  0  0  0  0  0  0  0
   -2.7513   -1.2650   -0.4283 C   0  0  0  0  0  0  0  0  0  0  0  0
   -4.1175   -1.3578   -0.5627 C   0  0  0  0  0  0  0  0  0  0  0  0
   -4.9350   -0.4154    0.0536 C   0  0  0  0  0  0  0  0  0  0  0  0
   -6.3677   -0.5857   -0.0684 C   0  0  0  0  0  0  0  0  0  0  0  0
   -7.2316    0.3019   -0.1211 O   0  0  0  0  0  0  0  0  0  0  0  0
   -6.8389   -1.9478   -0.1320 N   0  0  0  0  0  0  0  0  0  0  0  0
   -8.5436   -2.2110   -0.2731 S   0  0  0  0  0  0  0  0  0  0  0  0
   -9.2935   -1.6230    0.8851 O   0  0  0  0  0  0  0  0  0  0  0  0
   -9.0564   -1.4948   -1.5019 O   0  0  0  0  0  0  0  0  0  0  0  0
   -8.8730   -3.9481   -0.3315 C   0  0  0  0  0  0  0  0  0  0  0  0
   -0.7082   -0.2404    0.3602 C   0  0  0  0  0  0  0  0  0  0  0  0
   -0.0087   -1.4454    0.3117 C   0  0  0  0  0  0  0  0  0  0  0  0
    1.3707   -1.4733    0.3225 C   0  0  0  0  0  0  0  0  0  0  0  0
    2.0856   -0.3075    0.3793 C   0  0  0  0  0  0  0  0  0  0  0  0
    1.4252    0.9186    0.4305 C   0  0  0  0  0  0  0  0  0  0  0  0
    0.0457    0.9045    0.4185 C   0  0  0  0  0  0  0  0  0  0  0  0
    3.6113   -0.3091    0.3259 C   0  0  0  0  0  0  0  0  0  0  0  0
    4.0343   -0.1141   -1.0900 C   0  0  0  0  0  0  0  0  0  0  0  0
    5.3620   -0.0854   -1.4805 N   0  0  0  0  0  0  0  0  0  0  0  0
    6.2487    0.9355   -1.1264 C   0  0  0  0  0  0  0  0  0  0  0  0
    6.7833    1.0079    0.2643 C   0  0  1  0  0  0  0  0  0  0  0  0
    7.7817   -0.1190    0.4886 C   0  0  0  0  0  0  0  0  0  0  0  0
    8.8998   -0.0474   -0.3420 C   0  0  0  0  0  0  0  0  0  0  0  0
    9.8955   -0.9945   -0.2571 C   0  0  0  0  0  0  0  0  0  0  0  0
    9.7214   -1.9929    0.6753 C   0  0  0  0  0  0  0  0  0  0  0  0
    8.6077   -2.0647    1.5026 C   0  0  0  0  0  0  0  0  0  0  0  0
    7.5962   -1.1016    1.4174 C   0  0  0  0  0  0  0  0  0  0  0  0
    7.5963    2.1937    0.2697 O   0  0  0  0  0  0  0  0  0  0  0  0
   -6.3908    4.2852    1.2829 C   0  0  0  0  0  0  0  0  0  0  0  0
    0.6925    0.0000    0.0000 Cl  0  0  0  0  0  0  0  0  0  0  0  0
   -5.5691    2.1651   -1.2597 H   0  0  0  0  0  0  0  0  0  0  0  0
   -7.0626    3.0741   -0.8685 H   0  0  0  0  0  0  0  0  0  0  0  0
   -5.6386    3.9014   -1.5543 H   0  0  0  0  0  0  0  0  0  0  0  0
   -4.4569    3.7631    0.5000 H   0  0  0  0  0  0  0  0  0  0  0  0
   -2.4995    1.4889    1.5027 H   0  0  0  0  0  0  0  0  0  0  0  0
   -2.1486   -2.0056   -0.9187 H   0  0  0  0  0  0  0  0  0  0  0  0
   -4.5426   -2.1830   -1.1568 H   0  0  0  0  0  0  0  0  0  0  0  0
   -6.1772   -2.7629   -0.0953 H   0  0  0  0  0  0  0  0  0  0  0  0
   -9.1912   -4.2909   -1.3345 H   0  0  0  0  0  0  0  0  0  0  0  0
   -7.9288   -4.4856   -0.0183 H   0  0  0  0  0  0  0  0  0  0  0  0
   -9.6015   -4.1947    0.4594 H   0  0  0  0  0  0  0  0  0  0  0  0
   -0.5377   -2.4083    0.2616 H   0  0  0  0  0  0  0  0  0  0  0  0
    1.8619   -2.4156    0.2845 H   0  0  0  0  0  0  0  0  0  0  0  0
    1.9816    1.8388    0.4787 H   0  0  0  0  0  0  0  0  0  0  0  0
   -0.4439    1.8692    0.4582 H   0  0  0  0  0  0  0  0  0  0  0  0
    3.8823    0.5852    0.9226 H   0  0  0  0  0  0  0  0  0  0  0  0
    3.9485   -1.2698    0.7217 H   0  0  0  0  0  0  0  0  0  0  0  0
    3.5567    0.8646   -1.4474 H   0  0  0  0  0  0  0  0  0  0  0  0
    3.4826   -0.8802   -1.7508 H   0  0  0  0  0  0  0  0  0  0  0  0
    5.7677   -0.9642   -1.8668 H   0  0  0  0  0  0  0  0  0  0  0  0
    7.1421    0.9308   -1.8031 H   0  0  0  0  0  0  0  0  0  0  0  0
    5.7791    1.9440   -1.3290 H   0  0  0  0  0  0  0  0  0  0  0  0
    6.0987    1.1072    1.0675 H   0  0  0  0  0  0  0  0  0  0  0  0
    9.0266    0.7506   -1.0747 H   0  0  0  0  0  0  0  0  0  0  0  0
   10.7427   -0.9107   -0.9117 H   0  0  0  0  0  0  0  0  0  0  0  0
   10.5341   -2.7353    0.7179 H   0  0  0  0  0  0  0  0  0  0  0  0
    8.5170   -2.8664    2.2213 H   0  0  0  0  0  0  0  0  0  0  0  0
    6.7238   -1.1097    2.0266 H   0  0  0  0  0  0  0  0  0  0  0  0
    7.0347    2.8930   -0.0972 H   0  0  0  0  0  0  0  0  0  0  0  0
   -5.8495    5.1716    1.6660 H   0  0  0  0  0  0  0  0  0  0  0  0
   -7.1813    4.6556    0.5611 H   0  0  0  0  0  0  0  0  0  0  0  0
   -6.9116    3.7957    2.1052 H   0  0  0  0  0  0  0  0  0  0  0  0
   -0.6925    0.0000    0.0000 H   0  0  0  0  0  0  0  0  0  0  0  0
  1  2  1  0
  2  3  1  0
  3  4  1  0
  4  5  2  0
  5  6  1  0
  6  7  2  0
  7  8  1  0
  8  9  2  0
  9 10  1  0
 10 11  2  0
 10 12  1  0
 12 13  1  0
 13 14  2  0
 13 15  2  0
 13 16  1  0
  6 17  1  0
 17 18  2  0
 18 19  1  0
 19 20  2  0
 20 21  1  0
 21 22  2  0
 20 23  1  0
 23 24  1  0
 24 25  1  0
 25 26  1  0
 26 27  1  0
 27 28  1  0
 28 29  2  0
 29 30  1  0
 30 31  2  0
 31 32  1  0
 32 33  2  0
 27 34  1  0
  2 35  1  0
  9  4  1  0
 22 17  1  0
 33 28  1  0
  1 37  1  0
  1 38  1  0
  1 39  1  0
  2 40  1  0
  5 41  1  0
  7 42  1  0
  8 43  1  0
 12 44  1  0
 16 45  1  0
 16 46  1  0
 16 47  1  0
 18 48  1  0
 19 49  1  0
 21 50  1  0
 22 51  1  0
 23 52  1  0
 23 53  1  0
 24 54  1  0
 24 55  1  0
 25 56  1  0
 26 57  1  0
 26 58  1  0
 27 59  1  1
 29 60  1  0
 30 61  1  0
 31 62  1  0
 32 63  1  0
 33 64  1  0
 34 65  1  0
 35 66  1  0
 35 67  1  0
 35 68  1  0
 36 69  1  0
M  END
>  <Ligand ID>  (1) 
LIG0001543

>  <Ligand>  (1) 
CHEMBL470856

>  <SMILES>  (1) 
CC(Sc1cc(ccc1C(=O)NS(=O)(=O)C)c1ccc(cc1)CCNC[C@@H](c1ccccc1)O)C.Cl

>  <CID>  (1) 
42626404.0

>  <ChEMBL ID>  (1) 
nan

>  <InChiKey>  (1) 
VATXXVNKLANBME-UQIIZPHYSA-N

>  <InChi>  (1) 
InChI=1S/C27H32N2O4S2.ClH/c1-19(2)34-26-17-23(13-14-24(26)27(31)29-35(3,32)33)21-11-9-20(10-12-21)15-16-28-18-25(30)22-7-5-4-6-8-22;/h4-14,17,19,25,28,30H,15-16,18H2,1-3H3,(H,29,31);1H/t25-;/m0./s1

>  <IUPAC Name>  (1) 
4-[4-[2-[[(2R)-2-hydroxy-2-phenylethyl]amino]ethyl]phenyl]-N-methylsulfonyl-2-propan-2-ylsulfanylbenzamide;hydrochloride

$$$$
