
     RDKit          3D

 41 41  0  0  0  0  0  0  0  0999 V2000
    8.1153    0.8772    1.3706 O   0  0  0  0  0  0  0  0  0  0  0  0
    7.1624   -0.0676    1.0136 C   0  0  0  0  0  0  0  0  0  0  0  0
    7.4932   -1.2824    1.0978 O   0  0  0  0  0  0  0  0  0  0  0  0
    5.8252    0.2903    0.5560 C   0  0  0  0  0  0  0  0  0  0  0  0
    4.9597   -0.6508    0.2295 C   0  0  0  0  0  0  0  0  0  0  0  0
    3.6061   -0.3809   -0.2361 C   0  0  0  0  0  0  0  0  0  0  0  0
    3.0906    0.8878   -0.3834 C   0  0  0  0  0  0  0  0  0  0  0  0
    1.7941    1.1227   -0.8300 C   0  0  0  0  0  0  0  0  0  0  0  0
    0.9994    0.0369   -1.1354 C   0  0  0  0  0  0  0  0  0  0  0  0
    1.4770   -1.2540   -1.0020 C   0  0  0  0  0  0  0  0  0  0  0  0
    2.7714   -1.4320   -0.5546 C   0  0  0  0  0  0  0  0  0  0  0  0
   -0.3804    0.2687   -1.6111 C   0  0  0  0  0  0  0  0  0  0  0  0
   -1.4093    0.7818   -0.2139 P   0  0  0  0  0  0  0  0  0  0  0  0
   -1.5655    2.2830   -0.1251 O   0  0  0  0  0  0  0  0  0  0  0  0
   -3.0998    0.1011   -0.3750 C   0  0  0  0  0  0  0  0  0  0  0  0
   -3.6259   -0.0913    1.0414 C   0  0  0  0  0  0  0  0  0  0  0  0
   -5.0186   -0.6512    1.0134 C   0  0  1  0  0  0  0  0  0  0  0  0
   -5.8848    0.3138    0.2811 C   0  0  0  0  0  0  0  0  0  0  0  0
   -6.4871   -0.1543   -0.7431 O   0  0  0  0  0  0  0  0  0  0  0  0
   -6.0375    1.6386    0.6744 O   0  0  0  0  0  0  0  0  0  0  0  0
   -5.0986   -1.9178    0.3324 N   0  0  0  0  0  0  0  0  0  0  0  0
   -0.6819    0.1619    1.1994 O   0  0  0  0  0  0  0  0  0  0  0  0
   -0.3848    1.2840   -2.5722 O   0  0  0  0  0  0  0  0  0  0  0  0
    9.1176    0.6758    1.2938 H   0  0  0  0  0  0  0  0  0  0  0  0
    5.5522    1.3308    0.4875 H   0  0  0  0  0  0  0  0  0  0  0  0
    5.2977   -1.6716    0.3212 H   0  0  0  0  0  0  0  0  0  0  0  0
    3.6810    1.7496   -0.1550 H   0  0  0  0  0  0  0  0  0  0  0  0
    1.4116    2.1381   -0.9373 H   0  0  0  0  0  0  0  0  0  0  0  0
    0.8113   -2.0650   -1.2553 H   0  0  0  0  0  0  0  0  0  0  0  0
    3.1279   -2.4522   -0.4565 H   0  0  0  0  0  0  0  0  0  0  0  0
   -0.8175   -0.6276   -2.0962 H   0  0  0  0  0  0  0  0  0  0  0  0
   -3.0430   -0.8410   -0.9169 H   0  0  0  0  0  0  0  0  0  0  0  0
   -3.7239    0.8145   -0.9363 H   0  0  0  0  0  0  0  0  0  0  0  0
   -2.9364   -0.6999    1.6499 H   0  0  0  0  0  0  0  0  0  0  0  0
   -3.6679    0.8998    1.5420 H   0  0  0  0  0  0  0  0  0  0  0  0
   -5.3622   -0.8049    2.0515 H   0  0  0  0  0  0  0  0  0  0  0  0
   -6.2316    2.2966   -0.0801 H   0  0  0  0  0  0  0  0  0  0  0  0
   -5.3470   -1.8037   -0.6844 H   0  0  0  0  0  0  0  0  0  0  0  0
   -4.2110   -2.4744    0.4371 H   0  0  0  0  0  0  0  0  0  0  0  0
   -0.9249   -0.7897    1.3201 H   0  0  0  0  0  0  0  0  0  0  0  0
   -0.3543    2.1590   -2.1462 H   0  0  0  0  0  0  0  0  0  0  0  0
  1  2  1  0
  2  3  2  0
  2  4  1  0
  4  5  2  0
  5  6  1  0
  6  7  2  0
  7  8  1  0
  8  9  2  0
  9 10  1  0
 10 11  2  0
  9 12  1  0
 12 13  1  0
 13 14  2  0
 13 15  1  0
 15 16  1  0
 16 17  1  0
 17 18  1  0
 18 19  2  0
 18 20  1  0
 17 21  1  0
 13 22  1  0
 12 23  1  0
 11  6  1  0
  1 24  1  0
  4 25  1  0
  5 26  1  0
  7 27  1  0
  8 28  1  0
 10 29  1  0
 11 30  1  0
 12 31  1  0
 15 32  1  0
 15 33  1  0
 16 34  1  0
 16 35  1  0
 17 36  1  1
 20 37  1  0
 21 38  1  0
 21 39  1  0
 22 40  1  0
 23 41  1  0
M  END
>  <Ligand ID>  (1) 
LIG0002532

>  <Ligand>  (1) 
CHEMBL3982457

>  <SMILES>  (1) 
OC(=O)/C=C/c1ccc(cc1)C(P(=O)(CC[C@@H](C(=O)O)N)O)O

>  <CID>  (1) 
71470571.0

>  <ChEMBL ID>  (1) 
nan

>  <InChiKey>  (1) 
QKKOTCXCHRJFNS-OWFJNCGYSA-N

>  <InChi>  (1) 
InChI=1S/C14H18NO7P/c15-11(13(18)19)7-8-23(21,22)14(20)10-4-1-9(2-5-10)3-6-12(16)17/h1-6,11,14,20H,7-8,15H2,(H,16,17)(H,18,19)(H,21,22)/b6-3+/t11-,14?/m0/s1

>  <IUPAC Name>  (1) 
(2S)-2-amino-4-[[[4-[(E)-2-carboxyethenyl]phenyl]-hydroxymethyl]-hydroxyphosphoryl]butanoic acid

$$$$
