
     RDKit          3D

 26 26  0  0  0  0  0  0  0  0999 V2000
   -3.3478    0.8791   -0.0463 N   0  0  0  0  0  0  0  0  0  0  0  0
   -2.9323   -0.1061    0.8874 C   0  0  0  0  0  0  0  0  0  0  0  0
   -1.5038   -0.5840    0.7112 C   0  0  1  0  0  0  0  0  0  0  0  0
   -1.2237   -1.1956   -0.5967 C   0  0  0  0  0  0  0  0  0  0  0  0
   -0.6393    0.1761   -0.1881 C   0  0  2  0  0  0  0  0  0  0  0  0
    0.8219    0.1730   -0.1596 C   0  0  0  0  0  0  0  0  0  0  0  0
    1.4941    0.5155   -1.3359 C   0  0  0  0  0  0  0  0  0  0  0  0
    2.8576    0.5409   -1.4072 C   0  0  0  0  0  0  0  0  0  0  0  0
    3.6423    0.2314   -0.3275 C   0  0  0  0  0  0  0  0  0  0  0  0
    2.9942   -0.1104    0.8469 C   0  0  0  0  0  0  0  0  0  0  0  0
    1.5995   -0.1368    0.9214 C   0  0  0  0  0  0  0  0  0  0  0  0
    0.9948   -0.4712    2.0704 F   0  0  0  0  0  0  0  0  0  0  0  0
    5.3845    0.2731   -0.4505 Cl  0  0  0  0  0  0  0  0  0  0  0  0
    0.6883    0.0000    0.0000 Cl  0  0  0  0  0  0  0  0  0  0  0  0
   -3.4968    1.8307    0.3002 H   0  0  0  0  0  0  0  0  0  0  0  0
   -3.0531    0.7504   -1.0133 H   0  0  0  0  0  0  0  0  0  0  0  0
   -3.6071   -0.9966    0.7273 H   0  0  0  0  0  0  0  0  0  0  0  0
   -3.1474    0.2345    1.9115 H   0  0  0  0  0  0  0  0  0  0  0  0
   -1.1551   -1.1321    1.6143 H   0  0  0  0  0  0  0  0  0  0  0  0
   -1.8938   -1.1187   -1.4708 H   0  0  0  0  0  0  0  0  0  0  0  0
   -0.5693   -2.0652   -0.6243 H   0  0  0  0  0  0  0  0  0  0  0  0
   -1.0726    1.0820   -0.6536 H   0  0  0  0  0  0  0  0  0  0  0  0
    0.9224    0.7744   -2.2383 H   0  0  0  0  0  0  0  0  0  0  0  0
    3.3388    0.8171   -2.3568 H   0  0  0  0  0  0  0  0  0  0  0  0
    3.5919   -0.3614    1.7223 H   0  0  0  0  0  0  0  0  0  0  0  0
   -0.6883    0.0000    0.0000 H   0  0  0  0  0  0  0  0  0  0  0  0
  1  2  1  0
  2  3  1  0
  3  4  1  0
  4  5  1  0
  5  6  1  0
  6  7  2  0
  7  8  1  0
  8  9  2  0
  9 10  1  0
 10 11  2  0
 11 12  1  0
  9 13  1  0
  5  3  1  0
 11  6  1  0
  1 15  1  0
  1 16  1  0
  2 17  1  0
  2 18  1  0
  3 19  1  1
  4 20  1  0
  4 21  1  0
  5 22  1  6
  7 23  1  0
  8 24  1  0
 10 25  1  0
 14 26  1  0
M  END
>  <Ligand ID>  (1) 
LIG0002359

>  <Ligand>  (1) 
CHEMBL501526

>  <SMILES>  (1) 
NC[C@H]1C[C@@H]1c1ccc(cc1F)Cl.Cl

>  <CID>  (1) 
44572163.0

>  <ChEMBL ID>  (1) 
nan

>  <InChiKey>  (1) 
WITPTHRZRMCSGS-VNUWRVCDSA-N

>  <InChi>  (1) 
InChI=1S/C10H11ClFN.ClH/c11-7-1-2-8(10(12)4-7)9-3-6(9)5-13;/h1-2,4,6,9H,3,5,13H2;1H/t6-,9+;/m1./s1

>  <IUPAC Name>  (1) 
[(1S,2S)-2-(4-chloro-2-fluorophenyl)cyclopropyl]methanamine;hydrochloride

$$$$
