
     RDKit          3D

 29 28  0  0  0  0  0  0  0  0999 V2000
   -2.6382    1.7978   -0.1143 C   0  0  0  0  0  0  0  0  0  0  0  0
   -2.7434    0.5502    0.7186 C   0  0  0  0  0  0  0  0  0  0  0  0
   -1.8022   -0.5374    0.2969 C   0  0  0  0  0  0  0  0  0  0  0  0
   -0.3387   -0.0589    0.3926 C   0  0  0  0  0  0  0  0  0  0  0  0
    0.5645   -1.1651   -0.0226 C   0  0  0  0  0  0  0  0  0  0  0  0
    2.0197   -0.9392   -0.0005 C   0  0  0  0  0  0  0  0  0  0  0  0
    2.5809    0.1434   -0.8686 C   0  0  0  0  0  0  0  0  0  0  0  0
    2.1193    1.5014   -0.6057 C   0  0  0  0  0  0  0  0  0  0  0  0
    1.5513    2.2528   -1.4646 O   0  0  0  0  0  0  0  0  0  0  0  0
    2.2879    2.0670    0.6655 O   0  0  0  0  0  0  0  0  0  0  0  0
    0.3197   -2.4313    0.8245 C   0  0  0  0  0  0  0  0  0  0  0  0
   -1.9951    2.5303    0.4441 H   0  0  0  0  0  0  0  0  0  0  0  0
   -3.6394    2.2628   -0.2714 H   0  0  0  0  0  0  0  0  0  0  0  0
   -2.1786    1.5985   -1.1063 H   0  0  0  0  0  0  0  0  0  0  0  0
   -2.6722    0.7697    1.8093 H   0  0  0  0  0  0  0  0  0  0  0  0
   -3.7667    0.1396    0.5835 H   0  0  0  0  0  0  0  0  0  0  0  0
   -1.9512   -1.3874    0.9874 H   0  0  0  0  0  0  0  0  0  0  0  0
   -1.9935   -0.7648   -0.7628 H   0  0  0  0  0  0  0  0  0  0  0  0
   -0.2952    0.7522   -0.3617 H   0  0  0  0  0  0  0  0  0  0  0  0
   -0.1176    0.3654    1.3715 H   0  0  0  0  0  0  0  0  0  0  0  0
    0.3148   -1.5170   -1.0747 H   0  0  0  0  0  0  0  0  0  0  0  0
    2.4415   -0.8886    1.0420 H   0  0  0  0  0  0  0  0  0  0  0  0
    2.4917   -1.9024   -0.3916 H   0  0  0  0  0  0  0  0  0  0  0  0
    3.7136    0.1203   -0.8615 H   0  0  0  0  0  0  0  0  0  0  0  0
    2.3417   -0.1786   -1.9214 H   0  0  0  0  0  0  0  0  0  0  0  0
    2.5250    3.0620    0.7459 H   0  0  0  0  0  0  0  0  0  0  0  0
   -0.6303   -2.8951    0.5318 H   0  0  0  0  0  0  0  0  0  0  0  0
    0.3138   -2.1344    1.8995 H   0  0  0  0  0  0  0  0  0  0  0  0
    1.1770   -3.1131    0.6860 H   0  0  0  0  0  0  0  0  0  0  0  0
  1  2  1  0
  2  3  1  0
  3  4  1  0
  4  5  1  0
  5  6  1  0
  6  7  1  0
  7  8  1  0
  8  9  2  0
  8 10  1  0
  5 11  1  0
  1 12  1  0
  1 13  1  0
  1 14  1  0
  2 15  1  0
  2 16  1  0
  3 17  1  0
  3 18  1  0
  4 19  1  0
  4 20  1  0
  5 21  1  0
  6 22  1  0
  6 23  1  0
  7 24  1  0
  7 25  1  0
 10 26  1  0
 11 27  1  0
 11 28  1  0
 11 29  1  0
M  END
>  <Ligand ID>  (1) 
LIG0002068

>  <Ligand>  (1) 
4-methyloctanoic acid

>  <SMILES>  (1) 
CCCCC(CCC(=O)O)C

>  <CID>  (1) 
62089.0

>  <ChEMBL ID>  (1) 
nan

>  <InChiKey>  (1) 
LEGGANXCVQPIAI-UHFFFAOYSA-N

>  <InChi>  (1) 
InChI=1S/C9H18O2/c1-3-4-5-8(2)6-7-9(10)11/h8H,3-7H2,1-2H3,(H,10,11)

>  <IUPAC Name>  (1) 
4-methyloctanoic acid

$$$$
