
     RDKit          3D

 30 31  0  0  0  0  0  0  0  0999 V2000
   -1.7370    1.5544    1.1963 C   0  0  0  0  0  0  0  0  0  0  0  0
   -0.9480    1.3246   -0.0678 C   0  0  2  0  0  0  0  0  0  0  0  0
   -1.9046    0.8738   -1.1499 C   0  0  0  0  0  0  0  0  0  0  0  0
   -1.5413   -0.4825   -1.5482 N   0  0  0  0  0  0  0  0  0  0  0  0
   -2.1414   -1.4910   -0.7091 C   0  0  0  0  0  0  0  0  0  0  0  0
   -1.1733   -1.8185    0.4041 C   0  0  0  0  0  0  0  0  0  0  0  0
    0.0588   -1.0059    0.3187 C   0  0  0  0  0  0  0  0  0  0  0  0
    0.1669    0.3588    0.1141 C   0  0  0  0  0  0  0  0  0  0  0  0
    1.3994    0.9818    0.0576 C   0  0  0  0  0  0  0  0  0  0  0  0
    2.5239    0.2023    0.2113 C   0  0  0  0  0  0  0  0  0  0  0  0
    2.4688   -1.1687    0.4185 C   0  0  0  0  0  0  0  0  0  0  0  0
    1.2132   -1.7796    0.4725 C   0  0  0  0  0  0  0  0  0  0  0  0
    3.8403    0.8641    0.1514 C   0  0  0  0  0  0  0  0  0  0  0  0
    3.9169    1.7349    1.2197 F   0  0  0  0  0  0  0  0  0  0  0  0
    3.9223    1.5512   -1.0452 F   0  0  0  0  0  0  0  0  0  0  0  0
    4.8570   -0.0583    0.1972 F   0  0  0  0  0  0  0  0  0  0  0  0
   -2.0543    0.6107    1.6498 H   0  0  0  0  0  0  0  0  0  0  0  0
   -2.6221    2.1698    0.8809 H   0  0  0  0  0  0  0  0  0  0  0  0
   -1.1309    2.2117    1.8705 H   0  0  0  0  0  0  0  0  0  0  0  0
   -0.5598    2.3141   -0.3744 H   0  0  0  0  0  0  0  0  0  0  0  0
   -2.9617    0.9038   -0.8284 H   0  0  0  0  0  0  0  0  0  0  0  0
   -1.8021    1.4991   -2.0816 H   0  0  0  0  0  0  0  0  0  0  0  0
   -1.7447   -0.6420   -2.5453 H   0  0  0  0  0  0  0  0  0  0  0  0
   -3.0902   -1.1739   -0.2435 H   0  0  0  0  0  0  0  0  0  0  0  0
   -2.3798   -2.3728   -1.3305 H   0  0  0  0  0  0  0  0  0  0  0  0
   -0.9143   -2.9091    0.2984 H   0  0  0  0  0  0  0  0  0  0  0  0
   -1.6585   -1.7499    1.4041 H   0  0  0  0  0  0  0  0  0  0  0  0
    1.4686    2.0598   -0.1046 H   0  0  0  0  0  0  0  0  0  0  0  0
    3.3843   -1.7210    0.5311 H   0  0  0  0  0  0  0  0  0  0  0  0
    1.1434   -2.8419    0.6322 H   0  0  0  0  0  0  0  0  0  0  0  0
  1  2  1  0
  2  3  1  0
  3  4  1  0
  4  5  1  0
  5  6  1  0
  6  7  1  0
  7  8  2  0
  8  9  1  0
  9 10  2  0
 10 11  1  0
 11 12  2  0
 10 13  1  0
 13 14  1  0
 13 15  1  0
 13 16  1  0
  8  2  1  0
 12  7  1  0
  1 17  1  0
  1 18  1  0
  1 19  1  0
  2 20  1  6
  3 21  1  0
  3 22  1  0
  4 23  1  0
  5 24  1  0
  5 25  1  0
  6 26  1  0
  6 27  1  0
  9 28  1  0
 11 29  1  0
 12 30  1  0
M  END
>  <Ligand ID>  (1) 
LIG0002181

>  <Ligand>  (1) 
CHEMBL254215

>  <SMILES>  (1) 
C[C@@H]1CNCCc2c1cc(cc2)C(F)(F)F

>  <CID>  (1) 
23395431.0

>  <ChEMBL ID>  (1) 
nan

>  <InChiKey>  (1) 
GBYLNYMTYZRQLE-MRVPVSSYSA-N

>  <InChi>  (1) 
InChI=1S/C12H14F3N/c1-8-7-16-5-4-9-2-3-10(6-11(8)9)12(13,14)15/h2-3,6,8,16H,4-5,7H2,1H3/t8-/m1/s1

>  <IUPAC Name>  (1) 
(5S)-5-methyl-7-(trifluoromethyl)-2,3,4,5-tetrahydro-1H-3-benzazepine

$$$$
