
     RDKit          3D

 58 60  0  0  0  0  0  0  0  0999 V2000
    6.5564    3.4112   -1.3939 O   0  0  0  0  0  0  0  0  0  0  0  0
    5.8681    2.1872   -1.3005 C   0  0  0  0  0  0  0  0  0  0  0  0
    4.9716    1.9916   -2.1348 O   0  0  0  0  0  0  0  0  0  0  0  0
    6.2838    1.2739   -0.2275 C   0  0  0  0  0  0  0  0  0  0  0  0
    5.4809    0.0237   -0.2097 C   0  0  0  0  0  0  0  0  0  0  0  0
    4.0164    0.1812    0.0033 C   0  0  2  0  0  0  0  0  0  0  0  0
    3.6799    0.8487    1.3199 C   0  0  0  0  0  0  0  0  0  0  0  0
    2.1981    1.1077    1.3948 C   0  0  0  0  0  0  0  0  0  0  0  0
    1.4691   -0.2028    1.3922 C   0  0  0  0  0  0  0  0  0  0  0  0
    1.1352   -0.7113    0.0069 C   0  0  1  0  0  0  0  0  0  0  0  0
    2.3617   -1.2886   -0.6763 C   0  0  1  0  0  0  0  0  0  0  0  0
    3.4947   -1.1289    0.1207 O   0  0  0  0  0  0  0  0  0  0  0  0
    2.1444   -2.7836   -0.7798 C   0  0  0  0  0  0  0  0  0  0  0  0
    0.6355   -2.8690   -0.9299 C   0  0  2  0  0  0  0  0  0  0  0  0
    0.2038   -1.8758    0.1255 C   0  0  2  0  0  0  0  0  0  0  0  0
   -1.2231   -1.5510    0.0614 C   0  0  0  0  0  0  0  0  0  0  0  0
   -2.0142   -2.0457   -0.8659 C   0  0  0  0  0  0  0  0  0  0  0  0
   -3.4675   -1.7472   -0.9737 C   0  0  2  0  0  0  0  0  0  0  0  0
   -3.8009   -0.3469   -0.5295 C   0  0  0  0  0  0  0  0  0  0  0  0
   -5.1790   -0.1279   -0.8145 O   0  0  0  0  0  0  0  0  0  0  0  0
   -5.7787    1.0823   -0.5137 C   0  0  0  0  0  0  0  0  0  0  0  0
   -5.1037    2.1392    0.0694 C   0  0  0  0  0  0  0  0  0  0  0  0
   -5.8393    3.2820    0.3082 C   0  0  0  0  0  0  0  0  0  0  0  0
   -7.1695    3.4124    0.0022 C   0  0  0  0  0  0  0  0  0  0  0  0
   -7.8390    2.3585   -0.5783 C   0  0  0  0  0  0  0  0  0  0  0  0
   -7.1228    1.2062   -0.8259 C   0  0  0  0  0  0  0  0  0  0  0  0
   -4.2582   -2.6678   -0.2809 O   0  0  0  0  0  0  0  0  0  0  0  0
    0.2443   -4.1570   -0.6471 O   0  0  0  0  0  0  0  0  0  0  0  0
    6.1512    4.1685   -1.9410 H   0  0  0  0  0  0  0  0  0  0  0  0
    7.3454    0.9637   -0.4462 H   0  0  0  0  0  0  0  0  0  0  0  0
    6.2562    1.7538    0.7738 H   0  0  0  0  0  0  0  0  0  0  0  0
    5.9116   -0.6275    0.6047 H   0  0  0  0  0  0  0  0  0  0  0  0
    5.6380   -0.5764   -1.1354 H   0  0  0  0  0  0  0  0  0  0  0  0
    3.5632    0.6626   -0.8745 H   0  0  0  0  0  0  0  0  0  0  0  0
    4.2160    1.7853    1.4931 H   0  0  0  0  0  0  0  0  0  0  0  0
    3.9049    0.1033    2.1286 H   0  0  0  0  0  0  0  0  0  0  0  0
    2.0265    1.5699    2.4101 H   0  0  0  0  0  0  0  0  0  0  0  0
    1.8377    1.7803    0.6093 H   0  0  0  0  0  0  0  0  0  0  0  0
    0.5074   -0.1058    1.9434 H   0  0  0  0  0  0  0  0  0  0  0  0
    2.0791   -0.9647    1.9333 H   0  0  0  0  0  0  0  0  0  0  0  0
    0.7300    0.1128   -0.5930 H   0  0  0  0  0  0  0  0  0  0  0  0
    2.4901   -0.8174   -1.6672 H   0  0  0  0  0  0  0  0  0  0  0  0
    2.4909   -3.2831    0.1388 H   0  0  0  0  0  0  0  0  0  0  0  0
    2.6687   -3.2028   -1.6618 H   0  0  0  0  0  0  0  0  0  0  0  0
    0.4238   -2.5354   -1.9644 H   0  0  0  0  0  0  0  0  0  0  0  0
    0.3871   -2.3933    1.1047 H   0  0  0  0  0  0  0  0  0  0  0  0
   -1.6330   -0.8803    0.8064 H   0  0  0  0  0  0  0  0  0  0  0  0
   -1.5758   -2.7133   -1.5969 H   0  0  0  0  0  0  0  0  0  0  0  0
   -3.7677   -1.8265   -2.0392 H   0  0  0  0  0  0  0  0  0  0  0  0
   -3.6047   -0.1911    0.5588 H   0  0  0  0  0  0  0  0  0  0  0  0
   -3.2179    0.3942   -1.0770 H   0  0  0  0  0  0  0  0  0  0  0  0
   -4.0631    2.0273    0.3050 H   0  0  0  0  0  0  0  0  0  0  0  0
   -5.3389    4.1211    0.7617 H   0  0  0  0  0  0  0  0  0  0  0  0
   -7.7409    4.3098    0.1914 H   0  0  0  0  0  0  0  0  0  0  0  0
   -8.8823    2.3840   -0.8477 H   0  0  0  0  0  0  0  0  0  0  0  0
   -7.6581    0.3658   -1.2892 H   0  0  0  0  0  0  0  0  0  0  0  0
   -4.0871   -2.6037    0.7071 H   0  0  0  0  0  0  0  0  0  0  0  0
    0.9935   -4.7834   -0.8475 H   0  0  0  0  0  0  0  0  0  0  0  0
  1  2  1  0
  2  3  2  0
  2  4  1  0
  4  5  1  0
  5  6  1  0
  6  7  1  0
  7  8  1  0
  8  9  1  0
  9 10  1  0
 10 11  1  0
 11 12  1  0
 11 13  1  0
 13 14  1  0
 14 15  1  0
 15 16  1  0
 16 17  2  0
 17 18  1  0
 18 19  1  0
 19 20  1  0
 20 21  1  0
 21 22  2  0
 22 23  1  0
 23 24  2  0
 24 25  1  0
 25 26  2  0
 18 27  1  0
 14 28  1  0
 12  6  1  0
 26 21  1  0
 15 10  1  0
  1 29  1  0
  4 30  1  0
  4 31  1  0
  5 32  1  0
  5 33  1  0
  6 34  1  6
  7 35  1  0
  7 36  1  0
  8 37  1  0
  8 38  1  0
  9 39  1  0
  9 40  1  0
 10 41  1  6
 11 42  1  6
 13 43  1  0
 13 44  1  0
 14 45  1  6
 15 46  1  1
 16 47  1  0
 17 48  1  0
 18 49  1  6
 19 50  1  0
 19 51  1  0
 22 52  1  0
 23 53  1  0
 24 54  1  0
 25 55  1  0
 26 56  1  0
 27 57  1  0
 28 58  1  0
M  END
>  <Ligand ID>  (1) 
LIG0002902

>  <Ligand>  (1) 
CHEMBL3956817

>  <SMILES>  (1) 
OC(=O)CC[C@@H]1CCC[C@H]2[C@@H](O1)C[C@H]([C@@H]2/C=C/[C@H](COc1ccccc1)O)O

>  <CID>  (1) 
68785185.0

>  <ChEMBL ID>  (1) 
nan

>  <InChiKey>  (1) 
CYLHGVYASRLHMY-NGVALPOPSA-N

>  <InChi>  (1) 
InChI=1S/C22H30O6/c23-15(14-27-16-5-2-1-3-6-16)9-11-18-19-8-4-7-17(10-12-22(25)26)28-21(19)13-20(18)24/h1-3,5-6,9,11,15,17-21,23-24H,4,7-8,10,12-14H2,(H,25,26)/b11-9+/t15-,17+,18-,19-,20-,21+/m1/s1

>  <IUPAC Name>  (1) 
3-[(2S,5aR,6R,7R,8aS)-7-hydroxy-6-[(E,3R)-3-hydroxy-4-phenoxybut-1-enyl]-3,4,5,5a,6,7,8,8a-octahydro-2H-cyclopenta[b]oxepin-2-yl]propanoic acid

$$$$
