
     RDKit          3D

 66 69  0  0  0  0  0  0  0  0999 V2000
   -1.8647   -2.4637    3.2221 C   0  0  0  0  0  0  0  0  0  0  0  0
   -0.7327   -1.5751    2.7850 C   0  0  2  0  0  0  0  0  0  0  0  0
   -1.1074   -0.1430    2.6692 C   0  0  0  0  0  0  0  0  0  0  0  0
   -2.1772    0.1831    1.7295 C   0  0  0  0  0  0  0  0  0  0  0  0
   -1.9512    0.6580    0.4343 C   0  0  0  0  0  0  0  0  0  0  0  0
   -3.1485    0.8331   -0.1729 N   0  0  0  0  0  0  0  0  0  0  0  0
   -4.1528    0.5008    0.6492 C   0  0  0  0  0  0  0  0  0  0  0  0
   -3.5489    0.1012    1.8211 C   0  0  0  0  0  0  0  0  0  0  0  0
   -4.3529   -0.2916    2.8606 C   0  0  0  0  0  0  0  0  0  0  0  0
   -5.7201   -0.2910    2.7442 C   0  0  0  0  0  0  0  0  0  0  0  0
   -6.2757    0.1099    1.5694 C   0  0  0  0  0  0  0  0  0  0  0  0
   -5.5155    0.5287    0.4557 C   0  0  0  0  0  0  0  0  0  0  0  0
   -6.1970    0.8920   -0.6238 O   0  0  0  0  0  0  0  0  0  0  0  0
   -6.1348    1.3390   -1.8793 C   0  0  0  0  0  0  0  0  0  0  0  0
   -6.9701    2.6335   -2.0362 C   0  0  0  0  0  0  0  0  0  0  0  0
   -6.7932    0.3713   -2.8905 C   0  0  0  0  0  0  0  0  0  0  0  0
   -0.1580   -2.1360    1.5934 N   0  0  0  0  0  0  0  0  0  0  0  0
    0.9856   -1.4594    1.0782 C   0  0  0  0  0  0  0  0  0  0  0  0
    1.4508   -2.1766   -0.1844 C   0  0  1  0  0  0  0  0  0  0  0  0
    2.5525   -1.3483   -0.7539 C   0  0  0  0  0  0  0  0  0  0  0  0
    2.3336   -0.4707   -1.7930 C   0  0  0  0  0  0  0  0  0  0  0  0
    3.3717    0.3029   -2.3211 C   0  0  0  0  0  0  0  0  0  0  0  0
    4.6172    0.1314   -1.7395 C   0  0  0  0  0  0  0  0  0  0  0  0
    4.8539   -0.7369   -0.7054 C   0  0  0  0  0  0  0  0  0  0  0  0
    3.7971   -1.4758   -0.2213 C   0  0  0  0  0  0  0  0  0  0  0  0
    6.1315   -0.9198   -0.1035 N   0  0  0  0  0  0  0  0  0  0  0  0
    7.1605    0.3955    0.3298 S   0  0  0  0  0  0  0  0  0  0  0  0
    8.3984   -0.1974    0.9603 O   0  0  0  0  0  0  0  0  0  0  0  0
    6.4758    1.2593    1.3455 O   0  0  0  0  0  0  0  0  0  0  0  0
    7.6494    1.3685   -0.9980 C   0  0  0  0  0  0  0  0  0  0  0  0
    7.4800    2.6953   -1.2933 C   0  0  0  0  0  0  0  0  0  0  0  0
    7.9749    3.1939   -2.4182 C   0  0  0  0  0  0  0  0  0  0  0  0
    8.6628    2.2989   -3.2602 C   0  0  0  0  0  0  0  0  0  0  0  0
    8.5931    0.6743   -2.3956 S   0  0  0  0  0  0  0  0  0  0  0  0
    1.7971   -3.4887    0.0302 O   0  0  0  0  0  0  0  0  0  0  0  0
   -2.6613   -2.6014    2.4893 H   0  0  0  0  0  0  0  0  0  0  0  0
   -1.3974   -3.4848    3.3651 H   0  0  0  0  0  0  0  0  0  0  0  0
   -2.2208   -2.1986    4.2537 H   0  0  0  0  0  0  0  0  0  0  0  0
    0.0602   -1.6993    3.5823 H   0  0  0  0  0  0  0  0  0  0  0  0
   -0.2537    0.5324    2.4812 H   0  0  0  0  0  0  0  0  0  0  0  0
   -1.4803    0.1716    3.6905 H   0  0  0  0  0  0  0  0  0  0  0  0
   -0.9844    0.8645   -0.0355 H   0  0  0  0  0  0  0  0  0  0  0  0
   -3.2127    1.1811   -1.1472 H   0  0  0  0  0  0  0  0  0  0  0  0
   -3.9376   -0.6029    3.8004 H   0  0  0  0  0  0  0  0  0  0  0  0
   -6.3678   -0.6062    3.5767 H   0  0  0  0  0  0  0  0  0  0  0  0
   -7.3697    0.0976    1.5114 H   0  0  0  0  0  0  0  0  0  0  0  0
   -5.1298    1.5098   -2.2742 H   0  0  0  0  0  0  0  0  0  0  0  0
   -7.1712    2.7477   -3.1011 H   0  0  0  0  0  0  0  0  0  0  0  0
   -7.8446    2.5366   -1.3863 H   0  0  0  0  0  0  0  0  0  0  0  0
   -6.2731    3.4556   -1.7350 H   0  0  0  0  0  0  0  0  0  0  0  0
   -7.7027   -0.0716   -2.4812 H   0  0  0  0  0  0  0  0  0  0  0  0
   -6.0563   -0.4368   -3.1523 H   0  0  0  0  0  0  0  0  0  0  0  0
   -7.0394    0.9615   -3.7836 H   0  0  0  0  0  0  0  0  0  0  0  0
   -0.1117   -3.1554    1.5811 H   0  0  0  0  0  0  0  0  0  0  0  0
    0.8230   -0.4158    0.8219 H   0  0  0  0  0  0  0  0  0  0  0  0
    1.8270   -1.6055    1.8038 H   0  0  0  0  0  0  0  0  0  0  0  0
    0.6348   -2.1739   -0.9446 H   0  0  0  0  0  0  0  0  0  0  0  0
    1.3406   -0.3704   -2.2175 H   0  0  0  0  0  0  0  0  0  0  0  0
    3.1991    0.9962   -3.1416 H   0  0  0  0  0  0  0  0  0  0  0  0
    5.4274    0.7190   -2.1344 H   0  0  0  0  0  0  0  0  0  0  0  0
    3.9729   -2.1749    0.6067 H   0  0  0  0  0  0  0  0  0  0  0  0
    6.4056   -1.9327    0.0600 H   0  0  0  0  0  0  0  0  0  0  0  0
    6.9170    3.3319   -0.5608 H   0  0  0  0  0  0  0  0  0  0  0  0
    7.8914    4.2399   -2.7417 H   0  0  0  0  0  0  0  0  0  0  0  0
    9.1588    2.4560   -4.2321 H   0  0  0  0  0  0  0  0  0  0  0  0
    2.0715   -3.6971    0.9572 H   0  0  0  0  0  0  0  0  0  0  0  0
  1  2  1  0
  2  3  1  0
  3  4  1  0
  4  5  2  0
  5  6  1  0
  6  7  1  0
  7  8  2  0
  8  9  1  0
  9 10  2  0
 10 11  1  0
 11 12  2  0
 12 13  1  0
 13 14  1  0
 14 15  1  0
 14 16  1  0
  2 17  1  0
 17 18  1  0
 18 19  1  0
 19 20  1  0
 20 21  2  0
 21 22  1  0
 22 23  2  0
 23 24  1  0
 24 25  2  0
 24 26  1  0
 26 27  1  0
 27 28  2  0
 27 29  2  0
 27 30  1  0
 30 31  2  0
 31 32  1  0
 32 33  2  0
 33 34  1  0
 19 35  1  0
  8  4  1  0
 25 20  1  0
 34 30  1  0
 12  7  1  0
  1 36  1  0
  1 37  1  0
  1 38  1  0
  2 39  1  1
  3 40  1  0
  3 41  1  0
  5 42  1  0
  6 43  1  0
  9 44  1  0
 10 45  1  0
 11 46  1  0
 14 47  1  0
 15 48  1  0
 15 49  1  0
 15 50  1  0
 16 51  1  0
 16 52  1  0
 16 53  1  0
 17 54  1  0
 18 55  1  0
 18 56  1  0
 19 57  1  6
 21 58  1  0
 22 59  1  0
 23 60  1  0
 25 61  1  0
 26 62  1  0
 31 63  1  0
 32 64  1  0
 33 65  1  0
 35 66  1  0
M  END
>  <Ligand ID>  (1) 
LIG0005467

>  <Ligand>  (1) 
CHEMBL188315

>  <SMILES>  (1) 
C[C@H](Cc1c[nH]c2c1cccc2OC(C)C)NC[C@@H](c1cccc(c1)NS(=O)(=O)c1cccs1)O

>  <CID>  (1) 
44396509.0

>  <ChEMBL ID>  (1) 
nan

>  <InChiKey>  (1) 
GSSWFUNMAVJYOH-JPYJTQIMSA-N

>  <InChi>  (1) 
InChI=1S/C26H31N3O4S2/c1-17(2)33-24-10-5-9-22-20(15-28-26(22)24)13-18(3)27-16-23(30)19-7-4-8-21(14-19)29-35(31,32)25-11-6-12-34-25/h4-12,14-15,17-18,23,27-30H,13,16H2,1-3H3/t18-,23+/m1/s1

>  <IUPAC Name>  (1) 
N-[3-[(1R)-1-hydroxy-2-[[(2R)-1-(7-propan-2-yloxy-1H-indol-3-yl)propan-2-yl]amino]ethyl]phenyl]thiophene-2-sulfonamide

$$$$
