
     RDKit          3D

 35 37  0  0  0  0  0  0  0  0999 V2000
   -4.1426    0.8539   -0.4560 N   0  0  0  0  0  0  0  0  0  0  0  0
   -2.9339    1.5043   -0.9714 C   0  0  0  0  0  0  0  0  0  0  0  0
   -2.0532    0.5194   -1.6904 C   0  0  0  0  0  0  0  0  0  0  0  0
   -1.3759   -0.3518   -0.7279 C   0  0  0  0  0  0  0  0  0  0  0  0
   -1.9100   -0.9152    0.4125 C   0  0  0  0  0  0  0  0  0  0  0  0
   -3.2271   -0.8737    1.0513 C   0  0  0  0  0  0  0  0  0  0  0  0
   -3.9671    0.4178    0.9015 C   0  0  0  0  0  0  0  0  0  0  0  0
   -1.0342   -1.7120    1.1564 C   0  0  0  0  0  0  0  0  0  0  0  0
    0.2363   -1.8981    0.7619 N   0  0  0  0  0  0  0  0  0  0  0  0
    0.7268   -1.3276   -0.3661 C   0  0  0  0  0  0  0  0  0  0  0  0
   -0.0954   -0.5517   -1.1066 N   0  0  0  0  0  0  0  0  0  0  0  0
    2.1388   -1.5686   -0.7524 C   0  0  0  0  0  0  0  0  0  0  0  0
    3.0587   -0.5512   -0.1683 C   0  0  0  0  0  0  0  0  0  0  0  0
    3.2914    0.5845   -0.9223 C   0  0  0  0  0  0  0  0  0  0  0  0
    4.1212    1.5634   -0.4582 C   0  0  0  0  0  0  0  0  0  0  0  0
    4.7286    1.4164    0.7680 C   0  0  0  0  0  0  0  0  0  0  0  0
    4.4851    0.2769    1.5070 C   0  0  0  0  0  0  0  0  0  0  0  0
    3.6521   -0.7244    1.0603 C   0  0  0  0  0  0  0  0  0  0  0  0
   -4.8768    1.5969   -0.4338 H   0  0  0  0  0  0  0  0  0  0  0  0
   -3.2562    2.2686   -1.7135 H   0  0  0  0  0  0  0  0  0  0  0  0
   -2.3898    2.0326   -0.1803 H   0  0  0  0  0  0  0  0  0  0  0  0
   -1.2880    1.1464   -2.2308 H   0  0  0  0  0  0  0  0  0  0  0  0
   -2.6254    0.0008   -2.4762 H   0  0  0  0  0  0  0  0  0  0  0  0
   -3.8870   -1.7247    0.7692 H   0  0  0  0  0  0  0  0  0  0  0  0
   -3.0594   -0.9934    2.1613 H   0  0  0  0  0  0  0  0  0  0  0  0
   -5.0057    0.2184    1.2894 H   0  0  0  0  0  0  0  0  0  0  0  0
   -3.5690    1.2146    1.5689 H   0  0  0  0  0  0  0  0  0  0  0  0
   -1.3920   -2.1829    2.0624 H   0  0  0  0  0  0  0  0  0  0  0  0
    2.2511   -1.5501   -1.8567 H   0  0  0  0  0  0  0  0  0  0  0  0
    2.5044   -2.5556   -0.4234 H   0  0  0  0  0  0  0  0  0  0  0  0
    2.8223    0.7210   -1.8931 H   0  0  0  0  0  0  0  0  0  0  0  0
    4.2860    2.4372   -1.0637 H   0  0  0  0  0  0  0  0  0  0  0  0
    5.3963    2.1644    1.1823 H   0  0  0  0  0  0  0  0  0  0  0  0
    4.9566    0.1656    2.4561 H   0  0  0  0  0  0  0  0  0  0  0  0
    3.4330   -1.6223    1.5943 H   0  0  0  0  0  0  0  0  0  0  0  0
  1  2  1  0
  2  3  1  0
  3  4  1  0
  4  5  2  0
  5  6  1  0
  6  7  1  0
  5  8  1  0
  8  9  2  0
  9 10  1  0
 10 11  2  0
 10 12  1  0
 12 13  1  0
 13 14  2  0
 14 15  1  0
 15 16  2  0
 16 17  1  0
 17 18  2  0
  7  1  1  0
 18 13  1  0
 11  4  1  0
  1 19  1  0
  2 20  1  0
  2 21  1  0
  3 22  1  0
  3 23  1  0
  6 24  1  0
  6 25  1  0
  7 26  1  0
  7 27  1  0
  8 28  1  0
 12 29  1  0
 12 30  1  0
 14 31  1  0
 15 32  1  0
 16 33  1  0
 17 34  1  0
 18 35  1  0
M  END
>  <Ligand ID>  (1) 
LIG0000881

>  <Ligand>  (1) 
2-benzyl-6,7,8,9-tetrahydro-5H-pyrimido[4,5-d]azepine

>  <SMILES>  (1) 
N1CCc2c(CC1)cnc(n2)Cc1ccccc1

>  <CID>  (1) 
25070582.0

>  <ChEMBL ID>  (1) 
nan

>  <InChiKey>  (1) 
CZWQBSKNHUVZLI-UHFFFAOYSA-N

>  <InChi>  (1) 
InChI=1S/C15H17N3/c1-2-4-12(5-3-1)10-15-17-11-13-6-8-16-9-7-14(13)18-15/h1-5,11,16H,6-10H2

>  <IUPAC Name>  (1) 
2-benzyl-6,7,8,9-tetrahydro-5H-pyrimido[4,5-d]azepine

$$$$
