
     RDKit          3D

 16 16  0  0  0  0  0  0  0  0999 V2000
   -2.4094   -0.0633    0.2057 C   0  0  0  0  0  0  0  0  0  0  0  0
   -0.9341   -0.0247    0.0413 C   0  0  0  0  0  0  0  0  0  0  0  0
   -0.3037    1.1743    0.2944 C   0  0  0  0  0  0  0  0  0  0  0  0
    1.0667    1.2406    0.1499 C   0  0  0  0  0  0  0  0  0  0  0  0
    1.7375    0.0998   -0.2417 C   0  0  0  0  0  0  0  0  0  0  0  0
    1.1034   -1.0997   -0.4945 C   0  0  0  0  0  0  0  0  0  0  0  0
   -0.2669   -1.1672   -0.3503 C   0  0  0  0  0  0  0  0  0  0  0  0
    3.1239    0.1689   -0.3873 O   0  0  0  0  0  0  0  0  0  0  0  0
   -2.9112    0.8920   -0.0277 H   0  0  0  0  0  0  0  0  0  0  0  0
   -2.6550   -0.4412    1.2407 H   0  0  0  0  0  0  0  0  0  0  0  0
   -2.7958   -0.8548   -0.4723 H   0  0  0  0  0  0  0  0  0  0  0  0
   -0.8551    2.0386    0.5962 H   0  0  0  0  0  0  0  0  0  0  0  0
    1.6005    2.1623    0.3386 H   0  0  0  0  0  0  0  0  0  0  0  0
    1.6470   -1.9842   -0.8009 H   0  0  0  0  0  0  0  0  0  0  0  0
   -0.8352   -2.0876   -0.5346 H   0  0  0  0  0  0  0  0  0  0  0  0
    3.6873   -0.0538    0.4426 H   0  0  0  0  0  0  0  0  0  0  0  0
  1  2  1  0
  2  3  2  0
  3  4  1  0
  4  5  2  0
  5  6  1  0
  6  7  2  0
  5  8  1  0
  7  2  1  0
  1  9  1  0
  1 10  1  0
  1 11  1  0
  3 12  1  0
  4 13  1  0
  6 14  1  0
  7 15  1  0
  8 16  1  0
M  END
>  <Ligand ID>  (1) 
LIG0000344

>  <Ligand>  (1) 
P-Cresol

>  <SMILES>  (1) 
Cc1ccc(cc1)O

>  <CID>  (1) 
2879.0

>  <ChEMBL ID>  (1) 
nan

>  <InChiKey>  (1) 
IWDCLRJOBJJRNH-UHFFFAOYSA-N

>  <InChi>  (1) 
InChI=1S/C7H8O/c1-6-2-4-7(8)5-3-6/h2-5,8H,1H3

>  <IUPAC Name>  (1) 
4-methylphenol

$$$$
