
     RDKit          3D

 49 50  0  0  0  0  0  0  0  0999 V2000
   -3.1317   -2.4886    2.1373 O   0  0  0  0  0  0  0  0  0  0  0  0
   -3.2137   -1.6273    1.0612 C   0  0  2  0  0  0  0  0  0  0  0  0
   -2.1832   -0.5181    1.1001 C   0  0  1  0  0  0  0  0  0  0  0  0
   -0.7918   -1.0377    0.8250 C   0  0  0  0  0  0  0  0  0  0  0  0
    0.1013   -0.0018    0.6833 O   0  0  0  0  0  0  0  0  0  0  0  0
    1.6363   -0.6502    0.3780 P   0  0  0  0  0  0  0  0  0  0  0  0
    1.4901   -2.0775   -0.0769 O   0  0  0  0  0  0  0  0  0  0  0  0
    2.4206    0.3017   -0.7804 O   0  0  0  0  0  0  0  0  0  0  0  0
    4.0684   -0.0783   -0.7194 P   0  0  0  0  0  0  0  0  0  0  0  0
    4.3872   -0.5822    0.6633 O   0  0  0  0  0  0  0  0  0  0  0  0
    4.9973    1.2480   -1.1558 O   0  0  0  0  0  0  0  0  0  0  0  0
    6.1705    1.5056    0.0474 P   0  0  0  0  0  0  0  0  0  0  0  0
    5.5630    2.4129    1.1072 O   0  0  0  0  0  0  0  0  0  0  0  0
    6.5278    0.0407    0.7890 O   0  0  0  0  0  0  0  0  0  0  0  0
    7.7605   -0.8161    0.0421 P   0  0  0  0  0  0  0  0  0  0  0  0
    7.5497   -2.2985    0.2759 O   0  0  0  0  0  0  0  0  0  0  0  0
    9.2234   -0.3833    0.8042 O   0  0  0  0  0  0  0  0  0  0  0  0
    7.8436   -0.5817   -1.6160 O   0  0  0  0  0  0  0  0  0  0  0  0
    7.5380    2.2811   -0.5533 O   0  0  0  0  0  0  0  0  0  0  0  0
    4.3851   -1.3364   -1.7944 O   0  0  0  0  0  0  0  0  0  0  0  0
    2.5172   -0.5769    1.8213 O   0  0  0  0  0  0  0  0  0  0  0  0
   -2.6653    0.3001    0.0770 O   0  0  0  0  0  0  0  0  0  0  0  0
   -3.9631    0.5438    0.5066 C   0  0  2  0  0  0  0  0  0  0  0  0
   -4.4886   -0.7736    1.0885 C   0  0  2  0  0  0  0  0  0  0  0  0
   -4.7858   -0.5382    2.4329 O   0  0  0  0  0  0  0  0  0  0  0  0
   -4.8562    0.9392   -0.5459 N   0  0  0  0  0  0  0  0  0  0  0  0
   -6.1892    0.8094   -0.3003 C   0  0  0  0  0  0  0  0  0  0  0  0
   -7.1324    1.1640   -1.2530 C   0  0  0  0  0  0  0  0  0  0  0  0
   -6.7166    1.6611   -2.4816 C   0  0  0  0  0  0  0  0  0  0  0  0
   -7.5826    1.9766   -3.3309 O   0  0  0  0  0  0  0  0  0  0  0  0
   -5.3909    1.7751   -2.6878 N   0  0  0  0  0  0  0  0  0  0  0  0
   -4.4932    1.4182   -1.7322 C   0  0  0  0  0  0  0  0  0  0  0  0
   -3.2635    1.5432   -1.9721 O   0  0  0  0  0  0  0  0  0  0  0  0
   -3.1299   -3.4137    1.7769 H   0  0  0  0  0  0  0  0  0  0  0  0
   -3.1222   -2.1327    0.0722 H   0  0  0  0  0  0  0  0  0  0  0  0
   -2.2569    0.0248    2.0472 H   0  0  0  0  0  0  0  0  0  0  0  0
   -0.5099   -1.6310    1.7244 H   0  0  0  0  0  0  0  0  0  0  0  0
   -0.7716   -1.7289   -0.0174 H   0  0  0  0  0  0  0  0  0  0  0  0
    9.1770    0.6163    0.9030 H   0  0  0  0  0  0  0  0  0  0  0  0
    7.3504    0.2167   -1.9258 H   0  0  0  0  0  0  0  0  0  0  0  0
    7.2424    2.9443   -1.2279 H   0  0  0  0  0  0  0  0  0  0  0  0
    3.6868   -1.3925   -2.4901 H   0  0  0  0  0  0  0  0  0  0  0  0
    2.1457    0.1623    2.3988 H   0  0  0  0  0  0  0  0  0  0  0  0
   -3.9153    1.3451    1.2823 H   0  0  0  0  0  0  0  0  0  0  0  0
   -5.3057   -1.2021    0.5104 H   0  0  0  0  0  0  0  0  0  0  0  0
   -4.1487   -0.9739    3.0398 H   0  0  0  0  0  0  0  0  0  0  0  0
   -6.5378    0.4191    0.6630 H   0  0  0  0  0  0  0  0  0  0  0  0
   -8.1761    1.0378   -0.9986 H   0  0  0  0  0  0  0  0  0  0  0  0
   -5.0603    2.1539   -3.6233 H   0  0  0  0  0  0  0  0  0  0  0  0
  1  2  1  0
  2  3  1  0
  3  4  1  0
  4  5  1  0
  5  6  1  0
  6  7  2  0
  6  8  1  0
  8  9  1  0
  9 10  2  0
  9 11  1  0
 11 12  1  0
 12 13  2  0
 12 14  1  0
 14 15  1  0
 15 16  2  0
 15 17  1  0
 15 18  1  0
 12 19  1  0
  9 20  1  0
  6 21  1  0
  3 22  1  0
 22 23  1  0
 23 24  1  0
 24 25  1  0
 23 26  1  0
 26 27  1  0
 27 28  2  0
 28 29  1  0
 29 30  2  0
 29 31  1  0
 31 32  1  0
 32 33  2  0
 24  2  1  0
 32 26  1  0
  1 34  1  0
  2 35  1  6
  3 36  1  1
  4 37  1  0
  4 38  1  0
 17 39  1  0
 18 40  1  0
 19 41  1  0
 20 42  1  0
 21 43  1  0
 23 44  1  1
 24 45  1  6
 25 46  1  0
 27 47  1  0
 28 48  1  0
 31 49  1  0
M  END
>  <Ligand ID>  (1) 
LIG0002819

>  <Ligand>  (1) 
CHEMBL483502

>  <SMILES>  (1) 
O[C@@H]1[C@@H](COP(=O)(OP(=O)(OP(=O)(OP(=O)(O)O)O)O)O)O[C@H]([C@@H]1O)n1ccc(=O)[nH]c1=O

>  <CID>  (1) 
189010.0

>  <ChEMBL ID>  (1) 
nan

>  <InChiKey>  (1) 
SBVYRQFJZOKNGO-XVFCMESISA-N

>  <InChi>  (1) 
InChI=1S/C9H16N2O18P4/c12-5-1-2-11(9(15)10-5)8-7(14)6(13)4(26-8)3-25-31(19,20)28-33(23,24)29-32(21,22)27-30(16,17)18/h1-2,4,6-8,13-14H,3H2,(H,19,20)(H,21,22)(H,23,24)(H,10,12,15)(H2,16,17,18)/t4-,6-,7-,8-/m1/s1

>  <IUPAC Name>  (1) 
[[(2R,3S,4R,5R)-5-(2,4-dioxopyrimidin-1-yl)-3,4-dihydroxyoxolan-2-yl]methoxy-hydroxyphosphoryl] [hydroxy(phosphonooxy)phosphoryl] hydrogen phosphate

$$$$
