
     RDKit          3D

 42 41  0  0  0  0  0  0  0  0999 V2000
    0.7526   -1.7735    1.0770 O   0  0  0  0  0  0  0  0  0  0  0  0
   -0.3845   -1.7748    0.2869 C   0  0  0  0  0  0  0  0  0  0  0  0
   -0.6440   -2.8594   -0.3379 O   0  0  0  0  0  0  0  0  0  0  0  0
   -1.2886   -0.5920    0.1467 C   0  0  1  0  0  0  0  0  0  0  0  0
   -2.5543   -0.8603    0.9872 C   0  0  0  0  0  0  0  0  0  0  0  0
   -3.1753    0.4972    0.9931 C   0  0  2  0  0  0  0  0  0  0  0  0
   -1.9878    1.4222    0.9286 C   0  0  0  0  0  0  0  0  0  0  0  0
   -0.7900    0.5959    0.7750 N   0  0  0  0  0  0  0  0  0  0  0  0
    0.1189    1.3735   -0.0449 C   0  0  0  0  0  0  0  0  0  0  0  0
    1.4017    0.7232   -0.3494 C   0  0  0  0  0  0  0  0  0  0  0  0
    2.5113    0.8594    0.4812 C   0  0  0  0  0  0  0  0  0  0  0  0
    3.6975    0.2413    0.1485 C   0  0  0  0  0  0  0  0  0  0  0  0
    3.7891   -0.5219   -1.0209 C   0  0  0  0  0  0  0  0  0  0  0  0
    2.6769   -0.6341   -1.8148 C   0  0  0  0  0  0  0  0  0  0  0  0
    1.4637   -0.0314   -1.5215 C   0  0  0  0  0  0  0  0  0  0  0  0
    5.0389   -1.1852   -1.3908 C   0  0  0  0  0  0  0  0  0  0  0  0
    5.1211   -1.8780   -2.4530 O   0  0  0  0  0  0  0  0  0  0  0  0
    6.1431   -1.0339   -0.5386 O   0  0  0  0  0  0  0  0  0  0  0  0
   -3.8854    0.7643    2.2391 N   0  0  0  0  0  0  0  0  0  0  0  0
   -4.0954    0.6528   -0.1602 C   0  0  0  0  0  0  0  0  0  0  0  0
   -5.2862    0.9723    0.0677 O   0  0  0  0  0  0  0  0  0  0  0  0
   -3.6754    0.4572   -1.4500 O   0  0  0  0  0  0  0  0  0  0  0  0
    0.6901    0.0000    0.0000 Cl  0  0  0  0  0  0  0  0  0  0  0  0
    0.6900    0.0000    0.0000 Cl  0  0  0  0  0  0  0  0  0  0  0  0
    1.3701   -2.5828    1.1510 H   0  0  0  0  0  0  0  0  0  0  0  0
   -1.5864   -0.4323   -0.9013 H   0  0  0  0  0  0  0  0  0  0  0  0
   -2.1619   -1.0963    2.0099 H   0  0  0  0  0  0  0  0  0  0  0  0
   -3.1799   -1.6504    0.5534 H   0  0  0  0  0  0  0  0  0  0  0  0
   -2.1256    2.0512    0.0050 H   0  0  0  0  0  0  0  0  0  0  0  0
   -1.8898    2.0779    1.8285 H   0  0  0  0  0  0  0  0  0  0  0  0
    0.3573    2.2815    0.5684 H   0  0  0  0  0  0  0  0  0  0  0  0
   -0.3550    1.7441   -0.9720 H   0  0  0  0  0  0  0  0  0  0  0  0
    2.4226    1.4568    1.3874 H   0  0  0  0  0  0  0  0  0  0  0  0
    4.5754    0.3362    0.7852 H   0  0  0  0  0  0  0  0  0  0  0  0
    2.7961   -1.2431   -2.7226 H   0  0  0  0  0  0  0  0  0  0  0  0
    0.6306   -0.1576   -2.1836 H   0  0  0  0  0  0  0  0  0  0  0  0
    7.0238   -1.4205   -0.8576 H   0  0  0  0  0  0  0  0  0  0  0  0
   -4.9220    0.7245    2.0416 H   0  0  0  0  0  0  0  0  0  0  0  0
   -3.6995    1.7382    2.5155 H   0  0  0  0  0  0  0  0  0  0  0  0
   -4.2039    0.7581   -2.2576 H   0  0  0  0  0  0  0  0  0  0  0  0
   -0.6901    0.0000    0.0000 H   0  0  0  0  0  0  0  0  0  0  0  0
   -0.6900    0.0000    0.0000 H   0  0  0  0  0  0  0  0  0  0  0  0
  1  2  1  0
  2  3  2  0
  2  4  1  0
  4  5  1  0
  5  6  1  0
  6  7  1  0
  7  8  1  0
  8  9  1  0
  9 10  1  0
 10 11  2  0
 11 12  1  0
 12 13  2  0
 13 14  1  0
 14 15  2  0
 13 16  1  0
 16 17  2  0
 16 18  1  0
  6 19  1  1
  6 20  1  0
 20 21  2  0
 20 22  1  0
  8  4  1  0
 15 10  1  0
  1 25  1  0
  4 26  1  6
  5 27  1  0
  5 28  1  0
  7 29  1  0
  7 30  1  0
  9 31  1  0
  9 32  1  0
 11 33  1  0
 12 34  1  0
 14 35  1  0
 15 36  1  0
 18 37  1  0
 19 38  1  0
 19 39  1  0
 22 40  1  0
 23 41  1  0
 24 42  1  0
M  END
>  <Ligand ID>  (1) 
LIG0005687

>  <Ligand>  (1) 
CHEMBL539761

>  <SMILES>  (1) 
OC(=O)[C@H]1C[C@](CN1Cc1ccc(cc1)C(=O)O)(N)C(=O)O.Cl.Cl

>  <CID>  (1) 
45264278.0

>  <ChEMBL ID>  (1) 
nan

>  <InChiKey>  (1) 
JWOGQIPIWRFNLA-FMJMIDLFSA-N

>  <InChi>  (1) 
InChI=1S/C14H16N2O6.2ClH/c15-14(13(21)22)5-10(12(19)20)16(7-14)6-8-1-3-9(4-2-8)11(17)18;;/h1-4,10H,5-7,15H2,(H,17,18)(H,19,20)(H,21,22);2*1H/t10-,14-;;/m1../s1

>  <IUPAC Name>  (1) 
(2R,4R)-4-amino-1-[(4-carboxyphenyl)methyl]pyrrolidine-2,4-dicarboxylic acid;dihydrochloride

$$$$
