
     RDKit          3D

 57 61  0  0  0  0  0  0  0  0999 V2000
    2.9955    2.0211   -0.6046 O   0  0  0  0  0  0  0  0  0  0  0  0
    2.6641    1.1740    0.2820 C   0  0  0  0  0  0  0  0  0  0  0  0
    1.3397    0.6233    0.1113 N   0  0  0  0  0  0  0  0  0  0  0  0
    0.5983    1.1017   -1.0249 C   0  0  0  0  0  0  0  0  0  0  0  0
   -0.8626    1.1491   -0.5638 C   0  0  0  0  0  0  0  0  0  0  0  0
   -1.1613   -0.2604   -0.2463 N   0  0  0  0  0  0  0  0  0  0  0  0
   -0.4382   -0.9100    0.8064 C   0  0  0  0  0  0  0  0  0  0  0  0
    0.9064   -0.3281    1.0860 C   0  0  0  0  0  0  0  0  0  0  0  0
   -2.1375   -0.9724   -0.9970 C   0  0  0  0  0  0  0  0  0  0  0  0
   -1.6444   -1.8823   -1.8467 N   0  0  0  0  0  0  0  0  0  0  0  0
   -2.3762   -2.5920   -2.6590 C   0  0  0  0  0  0  0  0  0  0  0  0
   -1.8789   -3.6019   -3.6094 C   0  0  0  0  0  0  0  0  0  0  0  0
   -3.7263   -2.3911   -2.6379 N   0  0  0  0  0  0  0  0  0  0  0  0
   -4.2449   -1.4858   -1.7948 C   0  0  0  0  0  0  0  0  0  0  0  0
   -3.5205   -0.7048   -0.9098 C   0  0  0  0  0  0  0  0  0  0  0  0
   -4.1926    0.1505   -0.1344 C   0  0  0  0  0  0  0  0  0  0  0  0
   -3.6920    1.0736    0.9431 C   0  0  0  0  0  0  0  0  0  0  0  0
   -4.6155    1.2631    2.0810 C   0  0  0  0  0  0  0  0  0  0  0  0
   -6.0434    0.9462    1.9325 C   0  0  0  0  0  0  0  0  0  0  0  0
   -6.4568    1.0894    0.4871 C   0  0  0  0  0  0  0  0  0  0  0  0
   -5.5830    0.2016   -0.2752 C   0  0  0  0  0  0  0  0  0  0  0  0
   -6.0111   -1.0065   -1.5541 S   0  0  0  0  0  0  0  0  0  0  0  0
    3.5098    0.7954    1.3486 N   0  0  0  0  0  0  0  0  0  0  0  0
    4.8354    1.3009    1.5816 C   0  0  0  0  0  0  0  0  0  0  0  0
    5.7840    0.6692    0.6433 C   0  0  0  0  0  0  0  0  0  0  0  0
    6.3584   -0.5238    1.0325 C   0  0  0  0  0  0  0  0  0  0  0  0
    7.2645   -1.1858    0.2287 C   0  0  0  0  0  0  0  0  0  0  0  0
    7.6052   -0.6453   -0.9904 C   0  0  0  0  0  0  0  0  0  0  0  0
    7.0506    0.5555   -1.4230 C   0  0  0  0  0  0  0  0  0  0  0  0
    6.1356    1.1944   -0.5774 C   0  0  0  0  0  0  0  0  0  0  0  0
    0.9330    2.0934   -1.3724 H   0  0  0  0  0  0  0  0  0  0  0  0
    0.6073    0.3997   -1.8892 H   0  0  0  0  0  0  0  0  0  0  0  0
   -1.4776    1.5399   -1.3725 H   0  0  0  0  0  0  0  0  0  0  0  0
   -0.9633    1.8043    0.3184 H   0  0  0  0  0  0  0  0  0  0  0  0
   -0.2986   -1.9790    0.5089 H   0  0  0  0  0  0  0  0  0  0  0  0
   -1.0134   -0.9478    1.7596 H   0  0  0  0  0  0  0  0  0  0  0  0
    1.6511   -1.1534    1.2081 H   0  0  0  0  0  0  0  0  0  0  0  0
    0.8307    0.2546    2.0588 H   0  0  0  0  0  0  0  0  0  0  0  0
   -2.3888   -3.5176   -4.6000 H   0  0  0  0  0  0  0  0  0  0  0  0
   -2.0352   -4.6178   -3.1638 H   0  0  0  0  0  0  0  0  0  0  0  0
   -0.7772   -3.4408   -3.7140 H   0  0  0  0  0  0  0  0  0  0  0  0
   -2.7536    0.6504    1.3965 H   0  0  0  0  0  0  0  0  0  0  0  0
   -3.3977    2.0065    0.4370 H   0  0  0  0  0  0  0  0  0  0  0  0
   -4.5270    2.3504    2.3953 H   0  0  0  0  0  0  0  0  0  0  0  0
   -4.2686    0.7312    3.0239 H   0  0  0  0  0  0  0  0  0  0  0  0
   -6.6644    1.6900    2.4966 H   0  0  0  0  0  0  0  0  0  0  0  0
   -6.3319   -0.0759    2.2670 H   0  0  0  0  0  0  0  0  0  0  0  0
   -6.3841    2.1603    0.1807 H   0  0  0  0  0  0  0  0  0  0  0  0
   -7.4958    0.7766    0.3460 H   0  0  0  0  0  0  0  0  0  0  0  0
    3.1157    0.0787    2.0201 H   0  0  0  0  0  0  0  0  0  0  0  0
    5.1237    1.1253    2.6298 H   0  0  0  0  0  0  0  0  0  0  0  0
    4.8986    2.4109    1.3793 H   0  0  0  0  0  0  0  0  0  0  0  0
    6.1121   -0.9628    1.9700 H   0  0  0  0  0  0  0  0  0  0  0  0
    7.6996   -2.1284    0.5685 H   0  0  0  0  0  0  0  0  0  0  0  0
    8.3183   -1.1761   -1.6112 H   0  0  0  0  0  0  0  0  0  0  0  0
    7.3215    0.9802   -2.3864 H   0  0  0  0  0  0  0  0  0  0  0  0
    5.7032    2.1287   -0.9040 H   0  0  0  0  0  0  0  0  0  0  0  0
  1  2  2  0
  2  3  1  0
  3  4  1  0
  4  5  1  0
  5  6  1  0
  6  7  1  0
  7  8  1  0
  6  9  1  0
  9 10  2  0
 10 11  1  0
 11 12  1  0
 11 13  2  0
 13 14  1  0
 14 15  2  0
 15 16  1  0
 16 17  1  0
 17 18  1  0
 18 19  1  0
 19 20  1  0
 20 21  1  0
 21 22  1  0
  2 23  1  0
 23 24  1  0
 24 25  1  0
 25 26  2  0
 26 27  1  0
 27 28  2  0
 28 29  1  0
 29 30  2  0
  8  3  1  0
 15  9  1  0
 21 16  2  0
 30 25  1  0
 22 14  1  0
  4 31  1  0
  4 32  1  0
  5 33  1  0
  5 34  1  0
  7 35  1  0
  7 36  1  0
  8 37  1  0
  8 38  1  0
 12 39  1  0
 12 40  1  0
 12 41  1  0
 17 42  1  0
 17 43  1  0
 18 44  1  0
 18 45  1  0
 19 46  1  0
 19 47  1  0
 20 48  1  0
 20 49  1  0
 23 50  1  0
 24 51  1  0
 24 52  1  0
 26 53  1  0
 27 54  1  0
 28 55  1  0
 29 56  1  0
 30 57  1  0
M  END
>  <Ligand ID>  (1) 
LIG0003920

>  <Ligand>  (1) 
MLS-0437132.0001

>  <SMILES>  (1) 
O=C(N1CCN(CC1)c1nc(C)nc2c1c1CCCCc1s2)NCc1ccccc1

>  <CID>  (1) 
1468079.0

>  <ChEMBL ID>  (1) 
nan

>  <InChiKey>  (1) 
YYCKOMWYJTYGLL-UHFFFAOYSA-N

>  <InChi>  (1) 
InChI=1S/C23H27N5OS/c1-16-25-21(20-18-9-5-6-10-19(18)30-22(20)26-16)27-11-13-28(14-12-27)23(29)24-15-17-7-3-2-4-8-17/h2-4,7-8H,5-6,9-15H2,1H3,(H,24,29)

>  <IUPAC Name>  (1) 
N-benzyl-4-(2-methyl-5,6,7,8-tetrahydro-[1]benzothiolo[2,3-d]pyrimidin-4-yl)piperazine-1-carboxamide

$$$$
