
     RDKit          3D

 31 33  0  0  0  0  0  0  0  0999 V2000
    8.2945    0.2761    0.0894 Cl  0  0  0  0  0  0  0  0  0  0  0  0
    6.5878   -0.0960    0.0096 C   0  0  0  0  0  0  0  0  0  0  0  0
    6.1061   -1.3640   -0.2592 C   0  0  0  0  0  0  0  0  0  0  0  0
    4.7230   -1.5694   -0.3035 C   0  0  0  0  0  0  0  0  0  0  0  0
    3.8271   -0.5527   -0.0887 C   0  0  0  0  0  0  0  0  0  0  0  0
    4.3190    0.7087    0.1787 C   0  0  0  0  0  0  0  0  0  0  0  0
    5.6918    0.9200    0.2242 C   0  0  0  0  0  0  0  0  0  0  0  0
    2.3965   -0.8325   -0.1487 C   0  0  0  0  0  0  0  0  0  0  0  0
    2.0376   -2.0112   -0.3984 O   0  0  0  0  0  0  0  0  0  0  0  0
    1.4083    0.1351    0.0555 N   0  0  0  0  0  0  0  0  0  0  0  0
    0.0373   -0.3094   -0.0393 C   0  0  0  0  0  0  0  0  0  0  0  0
   -0.6517   -1.2319   -0.2350 N   0  0  0  0  0  0  0  0  0  0  0  0
   -1.9464   -1.2256   -0.2344 N   0  0  0  0  0  0  0  0  0  0  0  0
   -2.6308   -0.2908   -0.0369 C   0  0  0  0  0  0  0  0  0  0  0  0
   -1.2881    1.0242    0.2421 S   0  0  0  0  0  0  0  0  0  0  0  0
   -4.0414    0.1350    0.0523 C   0  0  0  0  0  0  0  0  0  0  0  0
   -5.0297   -0.8067   -0.1475 C   0  0  0  0  0  0  0  0  0  0  0  0
   -6.3554   -0.4342   -0.0694 C   0  0  0  0  0  0  0  0  0  0  0  0
   -6.7073    0.8831    0.2090 C   0  0  0  0  0  0  0  0  0  0  0  0
   -5.7183    1.8457    0.4132 C   0  0  0  0  0  0  0  0  0  0  0  0
   -4.4004    1.4368    0.3275 C   0  0  0  0  0  0  0  0  0  0  0  0
   -6.0321    3.1317    0.6851 F   0  0  0  0  0  0  0  0  0  0  0  0
    6.8142   -2.1579   -0.4269 H   0  0  0  0  0  0  0  0  0  0  0  0
    4.3922   -2.5756   -0.5167 H   0  0  0  0  0  0  0  0  0  0  0  0
    3.6600    1.5345    0.3532 H   0  0  0  0  0  0  0  0  0  0  0  0
    6.0259    1.9419    0.4408 H   0  0  0  0  0  0  0  0  0  0  0  0
    1.6650    1.1212    0.2644 H   0  0  0  0  0  0  0  0  0  0  0  0
   -4.6967   -1.8126   -0.3601 H   0  0  0  0  0  0  0  0  0  0  0  0
   -7.1000   -1.1983   -0.2315 H   0  0  0  0  0  0  0  0  0  0  0  0
   -7.7489    1.1848    0.2723 H   0  0  0  0  0  0  0  0  0  0  0  0
   -3.6388    2.1901    0.4873 H   0  0  0  0  0  0  0  0  0  0  0  0
  1  2  1  0
  2  3  2  0
  3  4  1  0
  4  5  2  0
  5  6  1  0
  6  7  2  0
  5  8  1  0
  8  9  2  0
  8 10  1  0
 10 11  1  0
 11 12  2  0
 12 13  1  0
 13 14  2  0
 14 15  1  0
 14 16  1  0
 16 17  2  0
 17 18  1  0
 18 19  2  0
 19 20  1  0
 20 21  2  0
 20 22  1  0
  7  2  1  0
 15 11  1  0
 21 16  1  0
  3 23  1  0
  4 24  1  0
  6 25  1  0
  7 26  1  0
 10 27  1  0
 17 28  1  0
 18 29  1  0
 19 30  1  0
 21 31  1  0
M  END
>  <Ligand ID>  (1) 
LIG0005859

>  <Ligand>  (1) 
CHEMBL2011724

>  <SMILES>  (1) 
Clc1ccc(cc1)C(=O)Nc1nnc(s1)c1cccc(c1)F

>  <CID>  (1) 
70695741.0

>  <ChEMBL ID>  (1) 
nan

>  <InChiKey>  (1) 
ZNPJOKSMRXRRJJ-UHFFFAOYSA-N

>  <InChi>  (1) 
InChI=1S/C15H9ClFN3OS/c16-11-6-4-9(5-7-11)13(21)18-15-20-19-14(22-15)10-2-1-3-12(17)8-10/h1-8H,(H,18,20,21)

>  <IUPAC Name>  (1) 
4-chloro-N-[5-(3-fluorophenyl)-1,3,4-thiadiazol-2-yl]benzamide

$$$$
