
     RDKit          3D

 82 85  0  0  0  0  0  0  0  0999 V2000
    0.0336    4.1963   -0.2657 C   0  0  0  0  0  0  0  0  0  0  0  0
   -1.3307    3.7071    0.0696 C   0  0  0  0  0  0  0  0  0  0  0  0
   -1.4284    2.3728    0.7269 C   0  0  0  0  0  0  0  0  0  0  0  0
   -0.9943    1.1479    0.0278 C   0  0  2  0  0  0  0  0  0  0  0  0
   -1.1997   -0.0929    0.7663 N   0  0  0  0  0  0  0  0  0  0  0  0
   -0.1210   -0.6154    1.6646 C   0  0  0  0  0  0  0  0  0  0  0  0
    0.9846    0.3390    1.8579 C   0  0  0  0  0  0  0  0  0  0  0  0
    1.5016    0.7400    0.5207 N   0  0  0  0  0  0  0  0  0  0  0  0
    0.4808    1.1997   -0.3563 C   0  0  0  0  0  0  0  0  0  0  0  0
    0.8376    1.6498   -1.4798 O   0  0  0  0  0  0  0  0  0  0  0  0
    2.8953    0.6007    0.1898 C   0  0  2  0  0  0  0  0  0  0  0  0
    3.5895    1.8770   -0.0215 C   0  0  0  0  0  0  0  0  0  0  0  0
    4.4618    2.1305   -0.8812 O   0  0  0  0  0  0  0  0  0  0  0  0
    3.2516    2.9710    0.8452 N   0  0  0  0  0  0  0  0  0  0  0  0
    3.9449    4.2177    0.6090 C   0  0  0  0  0  0  0  0  0  0  0  0
    3.2082   -0.5013   -0.7792 C   0  0  0  0  0  0  0  0  0  0  0  0
    4.6822   -0.5583   -1.0035 C   0  0  0  0  0  0  0  0  0  0  0  0
    5.3310   -0.0338   -2.0965 C   0  0  0  0  0  0  0  0  0  0  0  0
    6.7052   -0.0992   -2.0953 C   0  0  0  0  0  0  0  0  0  0  0  0
    7.4577   -0.6464   -1.0869 C   0  0  0  0  0  0  0  0  0  0  0  0
    6.7789   -1.1722    0.0054 C   0  0  0  0  0  0  0  0  0  0  0  0
    5.3847   -1.1409    0.0713 C   0  0  0  0  0  0  0  0  0  0  0  0
    7.5006   -1.7344    1.0683 C   0  0  0  0  0  0  0  0  0  0  0  0
    8.8750   -1.7785    1.0601 C   0  0  0  0  0  0  0  0  0  0  0  0
    9.5098   -1.2456   -0.0378 C   0  0  0  0  0  0  0  0  0  0  0  0
    8.8571   -0.6815   -1.1132 C   0  0  0  0  0  0  0  0  0  0  0  0
   -2.3484   -0.9133    0.7789 C   0  0  0  0  0  0  0  0  0  0  0  0
   -2.1281   -2.0574    1.3847 O   0  0  0  0  0  0  0  0  0  0  0  0
   -3.7115   -0.7790    0.2825 C   0  0  1  0  0  0  0  0  0  0  0  0
   -3.8463    0.0915   -0.8965 C   0  0  0  0  0  0  0  0  0  0  0  0
   -5.2514    0.1515   -1.4598 C   0  0  0  0  0  0  0  0  0  0  0  0
   -5.5052   -0.7526   -2.5147 C   0  0  0  0  0  0  0  0  0  0  0  0
   -6.7325   -0.8193   -3.1117 C   0  0  0  0  0  0  0  0  0  0  0  0
   -7.7050    0.0300   -2.6433 C   0  0  0  0  0  0  0  0  0  0  0  0
   -7.4612    0.8971   -1.6321 C   0  0  0  0  0  0  0  0  0  0  0  0
   -6.2117    1.0008   -0.9862 C   0  0  0  0  0  0  0  0  0  0  0  0
   -8.9296   -0.0508   -3.2549 F   0  0  0  0  0  0  0  0  0  0  0  0
   -4.5288   -1.9435    0.2381 N   0  0  0  0  0  0  0  0  0  0  0  0
   -4.6065   -3.0751    1.0711 C   0  0  0  0  0  0  0  0  0  0  0  0
   -3.9621   -3.3414    2.0638 O   0  0  0  0  0  0  0  0  0  0  0  0
   -5.6759   -4.0798    0.5874 C   0  0  0  0  0  0  0  0  0  0  0  0
   -5.7276   -5.1539    1.3097 O   0  0  0  0  0  0  0  0  0  0  0  0
   -5.9982   -5.2061    2.6454 C   0  0  0  0  0  0  0  0  0  0  0  0
    0.1904    4.2221   -1.3590 H   0  0  0  0  0  0  0  0  0  0  0  0
    0.7439    3.6450    0.3353 H   0  0  0  0  0  0  0  0  0  0  0  0
    0.1813    5.2807    0.0408 H   0  0  0  0  0  0  0  0  0  0  0  0
   -1.9933    3.7458   -0.8362 H   0  0  0  0  0  0  0  0  0  0  0  0
   -1.7358    4.4405    0.8440 H   0  0  0  0  0  0  0  0  0  0  0  0
   -2.5201    2.2704    1.0682 H   0  0  0  0  0  0  0  0  0  0  0  0
   -0.8361    2.5191    1.7102 H   0  0  0  0  0  0  0  0  0  0  0  0
   -1.5048    1.0745   -0.9910 H   0  0  0  0  0  0  0  0  0  0  0  0
   -0.5795   -0.8898    2.6303 H   0  0  0  0  0  0  0  0  0  0  0  0
    0.2706   -1.5421    1.1606 H   0  0  0  0  0  0  0  0  0  0  0  0
    0.8429    1.1985    2.4875 H   0  0  0  0  0  0  0  0  0  0  0  0
    1.8374   -0.2548    2.3338 H   0  0  0  0  0  0  0  0  0  0  0  0
    3.3355    0.1663    1.1861 H   0  0  0  0  0  0  0  0  0  0  0  0
    2.5430    2.8143    1.5889 H   0  0  0  0  0  0  0  0  0  0  0  0
    3.6067    4.5835   -0.3920 H   0  0  0  0  0  0  0  0  0  0  0  0
    5.0452    3.9760    0.5521 H   0  0  0  0  0  0  0  0  0  0  0  0
    3.8205    4.9365    1.4244 H   0  0  0  0  0  0  0  0  0  0  0  0
    2.8954   -1.4774   -0.3191 H   0  0  0  0  0  0  0  0  0  0  0  0
    2.6681   -0.3903   -1.7664 H   0  0  0  0  0  0  0  0  0  0  0  0
    4.7418    0.3900   -2.9133 H   0  0  0  0  0  0  0  0  0  0  0  0
    7.2191    0.3065   -2.9463 H   0  0  0  0  0  0  0  0  0  0  0  0
    4.8753   -1.5549    0.9257 H   0  0  0  0  0  0  0  0  0  0  0  0
    6.8928   -2.1219    1.8819 H   0  0  0  0  0  0  0  0  0  0  0  0
    9.3935   -2.2232    1.9071 H   0  0  0  0  0  0  0  0  0  0  0  0
   10.6103   -1.2562   -0.1004 H   0  0  0  0  0  0  0  0  0  0  0  0
    9.3526   -0.2625   -1.9766 H   0  0  0  0  0  0  0  0  0  0  0  0
   -4.2332   -0.1759    1.1831 H   0  0  0  0  0  0  0  0  0  0  0  0
   -3.1888   -0.1880   -1.7302 H   0  0  0  0  0  0  0  0  0  0  0  0
   -3.6767    1.1348   -0.5608 H   0  0  0  0  0  0  0  0  0  0  0  0
   -4.6841   -1.4089   -2.8465 H   0  0  0  0  0  0  0  0  0  0  0  0
   -6.8577   -1.5348   -3.9140 H   0  0  0  0  0  0  0  0  0  0  0  0
   -8.2321    1.5760   -1.2471 H   0  0  0  0  0  0  0  0  0  0  0  0
   -6.0970    1.7141   -0.2035 H   0  0  0  0  0  0  0  0  0  0  0  0
   -5.2523   -1.9488   -0.5740 H   0  0  0  0  0  0  0  0  0  0  0  0
   -6.6718   -3.4824    0.6619 H   0  0  0  0  0  0  0  0  0  0  0  0
   -5.5541   -4.2166   -0.5217 H   0  0  0  0  0  0  0  0  0  0  0  0
   -6.9884   -4.7223    2.9016 H   0  0  0  0  0  0  0  0  0  0  0  0
   -6.1595   -6.3026    2.9592 H   0  0  0  0  0  0  0  0  0  0  0  0
   -5.1684   -4.8892    3.2870 H   0  0  0  0  0  0  0  0  0  0  0  0
  1  2  1  0
  2  3  1  0
  3  4  1  0
  4  5  1  0
  5  6  1  0
  6  7  1  0
  7  8  1  0
  8  9  1  0
  9 10  2  0
  8 11  1  0
 11 12  1  0
 12 13  2  0
 12 14  1  0
 14 15  1  0
 11 16  1  0
 16 17  1  0
 17 18  2  0
 18 19  1  0
 19 20  2  0
 20 21  1  0
 21 22  2  0
 21 23  1  0
 23 24  2  0
 24 25  1  0
 25 26  2  0
  5 27  1  0
 27 28  2  0
 27 29  1  0
 29 30  1  0
 30 31  1  0
 31 32  2  0
 32 33  1  0
 33 34  2  0
 34 35  1  0
 35 36  2  0
 34 37  1  0
 29 38  1  0
 38 39  1  0
 39 40  2  0
 39 41  1  0
 41 42  1  0
 42 43  1  0
  9  4  1  0
 22 17  1  0
 36 31  1  0
 26 20  1  0
  1 44  1  0
  1 45  1  0
  1 46  1  0
  2 47  1  0
  2 48  1  0
  3 49  1  0
  3 50  1  0
  4 51  1  6
  6 52  1  0
  6 53  1  0
  7 54  1  0
  7 55  1  0
 11 56  1  1
 14 57  1  0
 15 58  1  0
 15 59  1  0
 15 60  1  0
 16 61  1  0
 16 62  1  0
 18 63  1  0
 19 64  1  0
 22 65  1  0
 23 66  1  0
 24 67  1  0
 25 68  1  0
 26 69  1  0
 29 70  1  1
 30 71  1  0
 30 72  1  0
 32 73  1  0
 33 74  1  0
 35 75  1  0
 36 76  1  0
 38 77  1  0
 41 78  1  0
 41 79  1  0
 43 80  1  0
 43 81  1  0
 43 82  1  0
M  END
>  <Ligand ID>  (1) 
LIG0004086

>  <Ligand>  (1) 
CHEMBL449050

>  <SMILES>  (1) 
CCC[C@@H]1N(CCN(C1=O)[C@H](C(=O)NC)Cc1ccc2c(c1)cccc2)C(=O)[C@@H](Cc1ccc(cc1)F)NC(=O)COC

>  <CID>  (1) 
25132864.0

>  <ChEMBL ID>  (1) 
nan

>  <InChiKey>  (1) 
VTKKYXSRNMKYHV-ULNSLHSMSA-N

>  <InChi>  (1) 
InChI=1S/C33H39FN4O5/c1-4-7-28-33(42)38(29(31(40)35-2)20-23-10-13-24-8-5-6-9-25(24)18-23)17-16-37(28)32(41)27(36-30(39)21-43-3)19-22-11-14-26(34)15-12-22/h5-6,8-15,18,27-29H,4,7,16-17,19-21H2,1-3H3,(H,35,40)(H,36,39)/t27-,28+,29+/m1/s1

>  <IUPAC Name>  (1) 
(2S)-2-[(3S)-4-[(2R)-3-(4-fluorophenyl)-2-[(2-methoxyacetyl)amino]propanoyl]-2-oxo-3-propylpiperazin-1-yl]-N-methyl-3-naphthalen-2-ylpropanamide

$$$$
