
     RDKit          3D

 10 10  0  0  0  0  0  0  0  0999 V2000
    2.6012   -0.3998   -0.8115 S   0  0  0  0  0  0  0  0  0  0  0  0
    0.8890   -0.3214   -0.3736 C   0  0  0  0  0  0  0  0  0  0  0  0
    0.1142    0.7584   -0.1449 C   0  0  0  0  0  0  0  0  0  0  0  0
   -1.1743    0.5728    0.1774 C   0  0  0  0  0  0  0  0  0  0  0  0
   -1.6326   -0.7127    0.2565 C   0  0  0  0  0  0  0  0  0  0  0  0
   -0.2185   -1.7240   -0.1328 S   0  0  0  0  0  0  0  0  0  0  0  0
    3.3621   -0.3288    0.3775 H   0  0  0  0  0  0  0  0  0  0  0  0
    0.5526    1.7885   -0.2264 H   0  0  0  0  0  0  0  0  0  0  0  0
   -1.8706    1.4183    0.3792 H   0  0  0  0  0  0  0  0  0  0  0  0
   -2.6233   -1.0513    0.4986 H   0  0  0  0  0  0  0  0  0  0  0  0
  1  2  1  0
  2  3  2  0
  3  4  1  0
  4  5  2  0
  5  6  1  0
  6  2  1  0
  1  7  1  0
  3  8  1  0
  4  9  1  0
  5 10  1  0
M  END
>  <Ligand ID>  (1) 
LIG0000573

>  <Ligand>  (1) 
2-Thiophenethiol

>  <SMILES>  (1) 
Sc1cccs1

>  <CID>  (1) 
522674.0

>  <ChEMBL ID>  (1) 
nan

>  <InChiKey>  (1) 
SWEDAZLCYJDAGW-UHFFFAOYSA-N

>  <InChi>  (1) 
InChI=1S/C4H4S2/c5-4-2-1-3-6-4/h1-3,5H

>  <IUPAC Name>  (1) 
thiophene-2-thiol

$$$$
