
     RDKit          3D

 62 66  0  0  0  0  0  0  0  0999 V2000
    3.1023   -0.6894    5.9687 Cl  0  0  0  0  0  0  0  0  0  0  0  0
    2.2993   -0.4429    4.4306 C   0  0  0  0  0  0  0  0  0  0  0  0
    2.5144   -1.3466    3.3988 C   0  0  0  0  0  0  0  0  0  0  0  0
    1.8920   -1.1616    2.1961 C   0  0  0  0  0  0  0  0  0  0  0  0
    1.0326   -0.0772    1.9648 C   0  0  0  0  0  0  0  0  0  0  0  0
    0.8396    0.8159    3.0327 C   0  0  0  0  0  0  0  0  0  0  0  0
    1.4700    0.6268    4.2474 C   0  0  0  0  0  0  0  0  0  0  0  0
   -0.2298    2.1857    2.7762 Cl  0  0  0  0  0  0  0  0  0  0  0  0
    0.3686    0.1002    0.7194 N   0  0  0  0  0  0  0  0  0  0  0  0
   -0.9398    0.2303    0.5842 N   0  0  0  0  0  0  0  0  0  0  0  0
   -1.3071    0.3518   -0.7023 C   0  0  0  0  0  0  0  0  0  0  0  0
   -0.1566    0.2972   -1.4582 C   0  0  0  0  0  0  0  0  0  0  0  0
    0.8866    0.1390   -0.5290 C   0  0  0  0  0  0  0  0  0  0  0  0
    2.3252    0.0412   -0.8048 C   0  0  0  0  0  0  0  0  0  0  0  0
    3.0531    0.6761    0.0982 C   0  0  0  0  0  0  0  0  0  0  0  0
    4.5265    0.7197    0.0342 C   0  0  0  0  0  0  0  0  0  0  0  0
    5.3061    0.3538    1.1292 C   0  0  0  0  0  0  0  0  0  0  0  0
    6.7004    0.4467    1.0580 C   0  0  0  0  0  0  0  0  0  0  0  0
    7.2991    0.9047   -0.1085 C   0  0  0  0  0  0  0  0  0  0  0  0
    6.4998    1.2615   -1.1803 C   0  0  0  0  0  0  0  0  0  0  0  0
    5.1200    1.1728   -1.1172 C   0  0  0  0  0  0  0  0  0  0  0  0
    9.0407    1.0367   -0.2430 Cl  0  0  0  0  0  0  0  0  0  0  0  0
    2.9489   -0.6553   -1.9362 C   0  0  0  0  0  0  0  0  0  0  0  0
    2.4207   -0.0508   -3.2294 C   0  0  0  0  0  0  0  0  0  0  0  0
    1.0279   -0.5568   -3.4623 C   0  0  0  0  0  0  0  0  0  0  0  0
   -0.0467    0.3772   -2.9367 C   0  0  0  0  0  0  0  0  0  0  0  0
   -2.6530    0.5115   -1.1771 C   0  0  0  0  0  0  0  0  0  0  0  0
   -2.9811    0.6354   -2.3913 O   0  0  0  0  0  0  0  0  0  0  0  0
   -3.7429    0.5393   -0.2461 N   0  0  0  0  0  0  0  0  0  0  0  0
   -5.1212    0.6984   -0.6607 C   0  0  1  0  0  0  0  0  0  0  0  0
   -5.9257   -0.4740   -0.2436 C   0  0  0  0  0  0  0  0  0  0  0  0
   -5.7376   -0.9164    1.0699 C   0  0  0  0  0  0  0  0  0  0  0  0
   -6.4403   -2.0043    1.5665 C   0  0  0  0  0  0  0  0  0  0  0  0
   -7.3211   -2.6093    0.6923 C   0  0  0  0  0  0  0  0  0  0  0  0
   -7.5001   -2.1644   -0.6053 C   0  0  0  0  0  0  0  0  0  0  0  0
   -6.8003   -1.1016   -1.0586 N   0  0  0  0  0  0  0  0  0  0  0  0
   -5.7105    1.9343   -0.0044 C   0  0  0  0  0  0  0  0  0  0  0  0
    3.1798   -2.1766    3.5937 H   0  0  0  0  0  0  0  0  0  0  0  0
    2.0753   -1.8798    1.4085 H   0  0  0  0  0  0  0  0  0  0  0  0
    1.2919    1.3297    5.0229 H   0  0  0  0  0  0  0  0  0  0  0  0
    2.6362    1.2404    0.9239 H   0  0  0  0  0  0  0  0  0  0  0  0
    4.7983    0.0057    2.0095 H   0  0  0  0  0  0  0  0  0  0  0  0
    7.3124    0.1592    1.9173 H   0  0  0  0  0  0  0  0  0  0  0  0
    6.9106    1.6245   -2.1129 H   0  0  0  0  0  0  0  0  0  0  0  0
    4.4997    1.4659   -1.9463 H   0  0  0  0  0  0  0  0  0  0  0  0
    2.5220   -1.7129   -1.9568 H   0  0  0  0  0  0  0  0  0  0  0  0
    4.0179   -0.8112   -1.9010 H   0  0  0  0  0  0  0  0  0  0  0  0
    2.3940    1.0547   -3.1035 H   0  0  0  0  0  0  0  0  0  0  0  0
    3.0616   -0.2887   -4.0820 H   0  0  0  0  0  0  0  0  0  0  0  0
    0.8472   -1.5812   -3.1081 H   0  0  0  0  0  0  0  0  0  0  0  0
    0.8460   -0.6008   -4.5729 H   0  0  0  0  0  0  0  0  0  0  0  0
    0.1318    1.3999   -3.2993 H   0  0  0  0  0  0  0  0  0  0  0  0
   -0.9977    0.0201   -3.3693 H   0  0  0  0  0  0  0  0  0  0  0  0
   -3.5022    0.4381    0.7605 H   0  0  0  0  0  0  0  0  0  0  0  0
   -5.1470    0.7875   -1.7700 H   0  0  0  0  0  0  0  0  0  0  0  0
   -5.0521   -0.4447    1.7494 H   0  0  0  0  0  0  0  0  0  0  0  0
   -6.3104   -2.3678    2.5873 H   0  0  0  0  0  0  0  0  0  0  0  0
   -7.8693   -3.4609    1.0865 H   0  0  0  0  0  0  0  0  0  0  0  0
   -8.2119   -2.6824   -1.2535 H   0  0  0  0  0  0  0  0  0  0  0  0
   -6.7454    1.7105    0.3176 H   0  0  0  0  0  0  0  0  0  0  0  0
   -5.0806    2.1505    0.9007 H   0  0  0  0  0  0  0  0  0  0  0  0
   -5.6683    2.8149   -0.6743 H   0  0  0  0  0  0  0  0  0  0  0  0
  1  2  1  0
  2  3  2  0
  3  4  1  0
  4  5  2  0
  5  6  1  0
  6  7  2  0
  6  8  1  0
  5  9  1  0
  9 10  1  0
 10 11  2  0
 11 12  1  0
 12 13  2  0
 13 14  1  0
 14 15  2  0
 15 16  1  0
 16 17  2  0
 17 18  1  0
 18 19  2  0
 19 20  1  0
 20 21  2  0
 19 22  1  0
 14 23  1  0
 23 24  1  0
 24 25  1  0
 25 26  1  0
 11 27  1  0
 27 28  2  0
 27 29  1  0
 29 30  1  0
 30 31  1  0
 31 32  2  0
 32 33  1  0
 33 34  2  0
 34 35  1  0
 35 36  2  0
 30 37  1  0
  7  2  1  0
 13  9  1  0
 21 16  1  0
 36 31  1  0
 26 12  1  0
  3 38  1  0
  4 39  1  0
  7 40  1  0
 15 41  1  0
 17 42  1  0
 18 43  1  0
 20 44  1  0
 21 45  1  0
 23 46  1  0
 23 47  1  0
 24 48  1  0
 24 49  1  0
 25 50  1  0
 25 51  1  0
 26 52  1  0
 26 53  1  0
 29 54  1  0
 30 55  1  6
 32 56  1  0
 33 57  1  0
 34 58  1  0
 35 59  1  0
 37 60  1  0
 37 61  1  0
 37 62  1  0
M  END
>  <Ligand ID>  (1) 
LIG0005424

>  <Ligand>  (1) 
CHEMBL3904447

>  <SMILES>  (1) 
Clc1ccc(c(c1)Cl)n1nc(c2c1/C(=C/c1ccc(cc1)Cl)/CCCC2)C(=O)N[C@@H](c1ccccn1)C

>  <CID>  (1) 
134135522.0

>  <ChEMBL ID>  (1) 
nan

>  <InChiKey>  (1) 
PSQIEONVVPPBRD-RILMWAFASA-N

>  <InChi>  (1) 
InChI=1S/C29H25Cl3N4O/c1-18(25-8-4-5-15-33-25)34-29(37)27-23-7-3-2-6-20(16-19-9-11-21(30)12-10-19)28(23)36(35-27)26-14-13-22(31)17-24(26)32/h4-5,8-18H,2-3,6-7H2,1H3,(H,34,37)/b20-16+/t18-/m1/s1

>  <IUPAC Name>  (1) 
(8E)-8-[(4-chlorophenyl)methylidene]-1-(2,4-dichlorophenyl)-N-[(1R)-1-pyridin-2-ylethyl]-4,5,6,7-tetrahydrocyclohepta[c]pyrazole-3-carboxamide

$$$$
