
     RDKit          3D

 16 16  0  0  0  0  0  0  0  0999 V2000
   -2.2666    2.0342   -0.3616 O   0  0  0  0  0  0  0  0  0  0  0  0
   -1.4679    0.9018   -0.1915 C   0  0  0  0  0  0  0  0  0  0  0  0
   -2.0068   -0.3513    0.0414 C   0  0  0  0  0  0  0  0  0  0  0  0
   -1.1613   -1.4368    0.2021 C   0  0  0  0  0  0  0  0  0  0  0  0
   -1.8476   -3.0320    0.4985 Cl  0  0  0  0  0  0  0  0  0  0  0  0
    0.2156   -1.3097    0.1370 C   0  0  0  0  0  0  0  0  0  0  0  0
    0.7276   -0.0434   -0.0973 C   0  0  0  0  0  0  0  0  0  0  0  0
   -0.0846    1.0597   -0.2620 C   0  0  0  0  0  0  0  0  0  0  0  0
    2.1721    0.1761   -0.1804 C   0  0  0  0  0  0  0  0  0  0  0  0
    2.6797    1.3095   -0.3917 O   0  0  0  0  0  0  0  0  0  0  0  0
    3.0797   -0.8769   -0.0273 O   0  0  0  0  0  0  0  0  0  0  0  0
   -2.1197    2.8140    0.2519 H   0  0  0  0  0  0  0  0  0  0  0  0
   -3.0733   -0.4225    0.0871 H   0  0  0  0  0  0  0  0  0  0  0  0
    0.8782   -2.1763    0.2656 H   0  0  0  0  0  0  0  0  0  0  0  0
    0.3351    2.0476   -0.4455 H   0  0  0  0  0  0  0  0  0  0  0  0
    3.9399   -0.6939    0.4736 H   0  0  0  0  0  0  0  0  0  0  0  0
  1  2  1  0
  2  3  2  0
  3  4  1  0
  4  5  1  0
  4  6  2  0
  6  7  1  0
  7  8  2  0
  7  9  1  0
  9 10  2  0
  9 11  1  0
  8  2  1  0
  1 12  1  0
  3 13  1  0
  6 14  1  0
  8 15  1  0
 11 16  1  0
M  END
>  <Ligand ID>  (1) 
LIG0002454

>  <Ligand>  (1) 
3-Chloro-5-hydroxybenzoic acid

>  <SMILES>  (1) 
Oc1cc(Cl)cc(c1)C(=O)O

>  <CID>  (1) 
13071646.0

>  <ChEMBL ID>  (1) 
nan

>  <InChiKey>  (1) 
RJOLIYHZZKAIET-UHFFFAOYSA-N

>  <InChi>  (1) 
InChI=1S/C7H5ClO3/c8-5-1-4(7(10)11)2-6(9)3-5/h1-3,9H,(H,10,11)

>  <IUPAC Name>  (1) 
3-chloro-5-hydroxybenzoic acid

$$$$
