
     RDKit          3D

 22 21  0  0  0  0  0  0  0  0999 V2000
    4.4183    0.0988    0.0335 O   0  0  0  0  0  0  0  0  0  0  0  0
    3.0873    0.2973   -0.3172 C   0  0  0  0  0  0  0  0  0  0  0  0
    2.8645    1.1277   -1.2352 O   0  0  0  0  0  0  0  0  0  0  0  0
    2.0100   -0.4539    0.3820 C   0  0  0  0  0  0  0  0  0  0  0  0
    0.6889    0.0058   -0.2493 C   0  0  0  0  0  0  0  0  0  0  0  0
   -0.4791   -0.6915    0.3825 C   0  0  0  0  0  0  0  0  0  0  0  0
   -1.7645   -0.2453   -0.2524 C   0  0  2  0  0  0  0  0  0  0  0  0
   -2.0345    1.1941   -0.1322 C   0  0  0  0  0  0  0  0  0  0  0  0
   -1.3042    2.1179   -0.5566 O   0  0  0  0  0  0  0  0  0  0  0  0
   -3.2105    1.5774    0.5125 O   0  0  0  0  0  0  0  0  0  0  0  0
   -2.8491   -1.0545    0.2773 N   0  0  0  0  0  0  0  0  0  0  0  0
    5.1372    0.1068   -0.7012 H   0  0  0  0  0  0  0  0  0  0  0  0
    2.0613   -0.1303    1.4410 H   0  0  0  0  0  0  0  0  0  0  0  0
    2.1819   -1.5275    0.2388 H   0  0  0  0  0  0  0  0  0  0  0  0
    0.7162   -0.2135   -1.3253 H   0  0  0  0  0  0  0  0  0  0  0  0
    0.6900    1.1092   -0.0851 H   0  0  0  0  0  0  0  0  0  0  0  0
   -0.3742   -1.7776    0.1841 H   0  0  0  0  0  0  0  0  0  0  0  0
   -0.5103   -0.5245    1.4917 H   0  0  0  0  0  0  0  0  0  0  0  0
   -1.6997   -0.5427   -1.3401 H   0  0  0  0  0  0  0  0  0  0  0  0
   -3.3192    2.4766    0.9858 H   0  0  0  0  0  0  0  0  0  0  0  0
   -2.5761   -2.0078    0.5117 H   0  0  0  0  0  0  0  0  0  0  0  0
   -3.7341   -0.9422   -0.2437 H   0  0  0  0  0  0  0  0  0  0  0  0
  1  2  1  0
  2  3  2  0
  2  4  1  0
  4  5  1  0
  5  6  1  0
  6  7  1  0
  7  8  1  0
  8  9  2  0
  8 10  1  0
  7 11  1  0
  1 12  1  0
  4 13  1  0
  4 14  1  0
  5 15  1  0
  5 16  1  0
  6 17  1  0
  6 18  1  0
  7 19  1  6
 10 20  1  0
 11 21  1  0
 11 22  1  0
M  END
>  <Ligand ID>  (1) 
LIG0000644

>  <Ligand>  (1) 
D-2-aminoadipic acid

>  <SMILES>  (1) 
OC(=O)CCC[C@H](C(=O)O)N

>  <CID>  (1) 
165627.0

>  <ChEMBL ID>  (1) 
nan

>  <InChiKey>  (1) 
OYIFNHCXNCRBQI-SCSAIBSYSA-N

>  <InChi>  (1) 
InChI=1S/C6H11NO4/c7-4(6(10)11)2-1-3-5(8)9/h4H,1-3,7H2,(H,8,9)(H,10,11)/t4-/m1/s1

>  <IUPAC Name>  (1) 
(2R)-2-aminohexanedioic acid

$$$$
