
     RDKit          3D

 83 87  0  0  0  0  0  0  0  0999 V2000
   -6.6866    1.0225    1.5007 O   0  0  0  0  0  0  0  0  0  0  0  0
   -7.7705    1.1830    0.6443 C   0  0  2  0  0  0  0  0  0  0  0  0
   -8.3717   -0.1571    0.4201 C   0  0  0  0  0  0  0  0  0  0  0  0
   -7.6478   -1.3338    0.5299 C   0  0  0  0  0  0  0  0  0  0  0  0
   -8.2278   -2.5618    0.3242 C   0  0  0  0  0  0  0  0  0  0  0  0
   -9.5645   -2.6893   -0.0041 C   0  0  0  0  0  0  0  0  0  0  0  0
  -10.3104   -1.5179   -0.1192 C   0  0  0  0  0  0  0  0  0  0  0  0
   -9.7094   -0.2955    0.0914 C   0  0  0  0  0  0  0  0  0  0  0  0
  -10.5307    0.8200   -0.0468 C   0  0  0  0  0  0  0  0  0  0  0  0
  -11.8634    0.6853   -0.3748 C   0  0  0  0  0  0  0  0  0  0  0  0
  -12.4084   -0.5666   -0.5736 C   0  0  0  0  0  0  0  0  0  0  0  0
  -13.6400   -0.6715   -0.8768 O   0  0  0  0  0  0  0  0  0  0  0  0
  -11.6121   -1.6307   -0.4391 N   0  0  0  0  0  0  0  0  0  0  0  0
  -10.1559   -3.9248   -0.2140 O   0  0  0  0  0  0  0  0  0  0  0  0
   -7.2872    1.7927   -0.6449 C   0  0  0  0  0  0  0  0  0  0  0  0
   -6.3426    1.0019   -1.2937 N   0  0  0  0  0  0  0  0  0  0  0  0
   -5.0476    0.8095   -0.7864 C   0  0  0  0  0  0  0  0  0  0  0  0
   -4.1736    2.0424   -0.7978 C   0  0  0  0  0  0  0  0  0  0  0  0
   -2.8154    1.8165   -0.2570 C   0  0  0  0  0  0  0  0  0  0  0  0
   -2.6209    2.0225    1.0996 C   0  0  0  0  0  0  0  0  0  0  0  0
   -1.3708    1.8250    1.6435 C   0  0  0  0  0  0  0  0  0  0  0  0
   -0.2732    1.4255    0.9043 C   0  0  0  0  0  0  0  0  0  0  0  0
   -0.4945    1.2267   -0.4500 C   0  0  0  0  0  0  0  0  0  0  0  0
   -1.7433    1.4169   -1.0290 C   0  0  0  0  0  0  0  0  0  0  0  0
    0.9884    1.2636    1.5214 N   0  0  0  0  0  0  0  0  0  0  0  0
    2.0211    0.4114    1.0585 C   0  0  0  0  0  0  0  0  0  0  0  0
    3.3071    0.7349    1.3641 C   0  0  0  0  0  0  0  0  0  0  0  0
    4.3266   -0.0886    0.9431 C   0  0  0  0  0  0  0  0  0  0  0  0
    4.1365   -1.2420    0.2180 C   0  0  0  0  0  0  0  0  0  0  0  0
    2.7759   -1.5256   -0.0688 C   0  0  0  0  0  0  0  0  0  0  0  0
    1.7615   -0.7240    0.3399 C   0  0  0  0  0  0  0  0  0  0  0  0
    5.0305   -2.1046   -0.2396 O   0  0  0  0  0  0  0  0  0  0  0  0
    6.3301   -2.4277   -0.3413 C   0  0  0  0  0  0  0  0  0  0  0  0
    7.2664   -1.5113   -1.0547 C   0  0  0  0  0  0  0  0  0  0  0  0
    7.4289   -0.2141   -0.5009 N   0  0  0  0  0  0  0  0  0  0  0  0
    8.2896    0.5739   -1.3798 C   0  0  0  0  0  0  0  0  0  0  0  0
    9.6497   -0.0232   -1.5674 C   0  0  0  0  0  0  0  0  0  0  0  0
   10.1027   -0.8179   -0.4698 N   0  0  0  0  0  0  0  0  0  0  0  0
    9.5310   -0.4704    0.7925 C   0  0  0  0  0  0  0  0  0  0  0  0
    8.0656   -0.2434    0.8121 C   0  0  0  0  0  0  0  0  0  0  0  0
   11.8205   -0.9381   -0.4113 S   0  0  0  0  0  0  0  0  0  0  0  0
   12.2567   -1.5352   -1.7409 O   0  0  0  0  0  0  0  0  0  0  0  0
   12.2916   -1.8516    0.6564 O   0  0  0  0  0  0  0  0  0  0  0  0
   12.6095    0.6388   -0.1970 C   0  0  0  0  0  0  0  0  0  0  0  0
   -6.5349    1.8076    2.0790 H   0  0  0  0  0  0  0  0  0  0  0  0
   -8.4701    1.8626    1.1830 H   0  0  0  0  0  0  0  0  0  0  0  0
   -6.6110   -1.3058    0.7790 H   0  0  0  0  0  0  0  0  0  0  0  0
   -7.6245   -3.4639    0.4214 H   0  0  0  0  0  0  0  0  0  0  0  0
  -10.1582    1.8100    0.0947 H   0  0  0  0  0  0  0  0  0  0  0  0
  -12.4980    1.5719   -0.4780 H   0  0  0  0  0  0  0  0  0  0  0  0
  -12.0744   -2.5730   -0.6006 H   0  0  0  0  0  0  0  0  0  0  0  0
  -10.7186   -4.0466   -1.0402 H   0  0  0  0  0  0  0  0  0  0  0  0
   -6.9729    2.8254   -0.3869 H   0  0  0  0  0  0  0  0  0  0  0  0
   -8.1908    1.8888   -1.3135 H   0  0  0  0  0  0  0  0  0  0  0  0
   -6.5070    0.7496   -2.2825 H   0  0  0  0  0  0  0  0  0  0  0  0
   -4.9640    0.3261    0.2010 H   0  0  0  0  0  0  0  0  0  0  0  0
   -4.5659    0.0369   -1.4749 H   0  0  0  0  0  0  0  0  0  0  0  0
   -4.0206    2.2829   -1.8906 H   0  0  0  0  0  0  0  0  0  0  0  0
   -4.6858    2.9292   -0.3986 H   0  0  0  0  0  0  0  0  0  0  0  0
   -3.4319    2.3337    1.7294 H   0  0  0  0  0  0  0  0  0  0  0  0
   -1.2540    1.9922    2.7019 H   0  0  0  0  0  0  0  0  0  0  0  0
    0.2921    0.9294   -1.1043 H   0  0  0  0  0  0  0  0  0  0  0  0
   -1.9010    1.2570   -2.0866 H   0  0  0  0  0  0  0  0  0  0  0  0
    1.1518    1.8367    2.4006 H   0  0  0  0  0  0  0  0  0  0  0  0
    3.5199    1.6160    1.9222 H   0  0  0  0  0  0  0  0  0  0  0  0
    5.3217    0.1995    1.2123 H   0  0  0  0  0  0  0  0  0  0  0  0
    2.5317   -2.4241   -0.6418 H   0  0  0  0  0  0  0  0  0  0  0  0
    0.7402   -1.0277    0.0841 H   0  0  0  0  0  0  0  0  0  0  0  0
    6.4303   -3.4386   -0.8450 H   0  0  0  0  0  0  0  0  0  0  0  0
    6.7245   -2.6000    0.7290 H   0  0  0  0  0  0  0  0  0  0  0  0
    8.2405   -2.0177   -1.2614 H   0  0  0  0  0  0  0  0  0  0  0  0
    6.8398   -1.3624   -2.0970 H   0  0  0  0  0  0  0  0  0  0  0  0
    8.4220    1.5807   -0.9036 H   0  0  0  0  0  0  0  0  0  0  0  0
    7.8155    0.7330   -2.3541 H   0  0  0  0  0  0  0  0  0  0  0  0
   10.3819    0.8213   -1.6946 H   0  0  0  0  0  0  0  0  0  0  0  0
    9.6869   -0.5910   -2.5441 H   0  0  0  0  0  0  0  0  0  0  0  0
   10.0972    0.4452    1.1427 H   0  0  0  0  0  0  0  0  0  0  0  0
    9.7825   -1.2894    1.5143 H   0  0  0  0  0  0  0  0  0  0  0  0
    7.8762    0.7903    1.2280 H   0  0  0  0  0  0  0  0  0  0  0  0
    7.5756   -0.9215    1.5101 H   0  0  0  0  0  0  0  0  0  0  0  0
   13.6070    0.5647   -0.7099 H   0  0  0  0  0  0  0  0  0  0  0  0
   12.0094    1.4581   -0.6038 H   0  0  0  0  0  0  0  0  0  0  0  0
   12.8155    0.7668    0.9055 H   0  0  0  0  0  0  0  0  0  0  0  0
  1  2  1  0
  2  3  1  0
  3  4  2  0
  4  5  1  0
  5  6  2  0
  6  7  1  0
  7  8  2  0
  8  9  1  0
  9 10  2  0
 10 11  1  0
 11 12  2  0
 11 13  1  0
  6 14  1  0
  2 15  1  0
 15 16  1  0
 16 17  1  0
 17 18  1  0
 18 19  1  0
 19 20  2  0
 20 21  1  0
 21 22  2  0
 22 23  1  0
 23 24  2  0
 22 25  1  0
 25 26  1  0
 26 27  2  0
 27 28  1  0
 28 29  2  0
 29 30  1  0
 30 31  2  0
 29 32  1  0
 32 33  1  0
 33 34  1  0
 34 35  1  0
 35 36  1  0
 36 37  1  0
 37 38  1  0
 38 39  1  0
 39 40  1  0
 38 41  1  0
 41 42  2  0
 41 43  2  0
 41 44  1  0
  8  3  1  0
 24 19  1  0
 31 26  1  0
 40 35  1  0
 13  7  1  0
  1 45  1  0
  2 46  1  1
  4 47  1  0
  5 48  1  0
  9 49  1  0
 10 50  1  0
 13 51  1  0
 14 52  1  0
 15 53  1  0
 15 54  1  0
 16 55  1  0
 17 56  1  0
 17 57  1  0
 18 58  1  0
 18 59  1  0
 20 60  1  0
 21 61  1  0
 23 62  1  0
 24 63  1  0
 25 64  1  0
 27 65  1  0
 28 66  1  0
 30 67  1  0
 31 68  1  0
 33 69  1  0
 33 70  1  0
 34 71  1  0
 34 72  1  0
 36 73  1  0
 36 74  1  0
 37 75  1  0
 37 76  1  0
 39 77  1  0
 39 78  1  0
 40 79  1  0
 40 80  1  0
 44 81  1  0
 44 82  1  0
 44 83  1  0
M  END
>  <Ligand ID>  (1) 
LIG0004922

>  <Ligand>  (1) 
CHEMBL3298832

>  <SMILES>  (1) 
O[C@H](c1ccc(c2c1ccc(=O)[nH]2)O)CNCCc1ccc(cc1)Nc1ccc(cc1)OCCN1CCN(CC1)S(=O)(=O)C

>  <CID>  (1) 
56943517.0

>  <ChEMBL ID>  (1) 
nan

>  <InChiKey>  (1) 
RIXSFNWLADAXSB-PMERELPUSA-N

>  <InChi>  (1) 
InChI=1S/C32H39N5O6S/c1-44(41,42)37-18-16-36(17-19-37)20-21-43-26-8-6-25(7-9-26)34-24-4-2-23(3-5-24)14-15-33-22-30(39)27-10-12-29(38)32-28(27)11-13-31(40)35-32/h2-13,30,33-34,38-39H,14-22H2,1H3,(H,35,40)/t30-/m0/s1

>  <IUPAC Name>  (1) 
8-hydroxy-5-[(1R)-1-hydroxy-2-[2-[4-[4-[2-(4-methylsulfonylpiperazin-1-yl)ethoxy]anilino]phenyl]ethylamino]ethyl]-1H-quinolin-2-one

$$$$
