
     RDKit          3D

 33 35  0  0  0  0  0  0  0  0999 V2000
    4.2393    0.8170   -0.7693 C   0  0  0  0  0  0  0  0  0  0  0  0
    3.2690    1.3533    0.2468 C   0  0  0  0  0  0  0  0  0  0  0  0
    2.0871    0.5989    0.0014 N   0  0  0  0  0  0  0  0  0  0  0  0
    2.1364   -0.0453   -1.0991 C   0  0  0  0  0  0  0  0  0  0  0  0
    3.3747    0.1898   -1.7411 N   0  0  0  0  0  0  0  0  0  0  0  0
    0.9655   -0.8710   -1.5765 C   0  0  0  0  0  0  0  0  0  0  0  0
    0.0700   -1.0862   -0.5263 N   0  0  0  0  0  0  0  0  0  0  0  0
   -0.7948   -1.2940    0.4879 C   0  0  0  0  0  0  0  0  0  0  0  0
   -0.7240   -2.3093    1.4603 C   0  0  0  0  0  0  0  0  0  0  0  0
   -1.7321   -2.5638    2.3755 C   0  0  0  0  0  0  0  0  0  0  0  0
   -2.8368   -1.8031    2.3339 C   0  0  0  0  0  0  0  0  0  0  0  0
   -2.9817   -0.8105    1.4368 C   0  0  0  0  0  0  0  0  0  0  0  0
   -1.9768   -0.5261    0.4984 C   0  0  0  0  0  0  0  0  0  0  0  0
   -2.1962    0.6491   -0.3124 C   0  0  0  0  0  0  0  0  0  0  0  0
   -1.3662    1.4678   -1.0348 C   0  0  0  0  0  0  0  0  0  0  0  0
   -2.1276    2.4930   -1.6357 C   0  0  0  0  0  0  0  0  0  0  0  0
   -3.4020    2.2312   -1.2343 C   0  0  0  0  0  0  0  0  0  0  0  0
   -3.3991    1.1775   -0.4851 O   0  0  0  0  0  0  0  0  0  0  0  0
    4.8531    0.0169   -0.2860 H   0  0  0  0  0  0  0  0  0  0  0  0
    4.8831    1.6227   -1.1867 H   0  0  0  0  0  0  0  0  0  0  0  0
    3.6529    1.2579    1.2895 H   0  0  0  0  0  0  0  0  0  0  0  0
    3.0622    2.4230   -0.0211 H   0  0  0  0  0  0  0  0  0  0  0  0
    3.5512   -0.0785   -2.7341 H   0  0  0  0  0  0  0  0  0  0  0  0
    1.3426   -1.8232   -2.0872 H   0  0  0  0  0  0  0  0  0  0  0  0
    0.4623   -0.3224   -2.4329 H   0  0  0  0  0  0  0  0  0  0  0  0
    1.0358   -1.7451    0.0992 H   0  0  0  0  0  0  0  0  0  0  0  0
    0.1412   -2.9600    1.5457 H   0  0  0  0  0  0  0  0  0  0  0  0
   -1.6280   -3.3515    3.0961 H   0  0  0  0  0  0  0  0  0  0  0  0
   -3.6216   -1.9874    3.0436 H   0  0  0  0  0  0  0  0  0  0  0  0
   -3.9120   -0.2316    1.4604 H   0  0  0  0  0  0  0  0  0  0  0  0
   -0.3194    1.4400   -1.1488 H   0  0  0  0  0  0  0  0  0  0  0  0
   -1.7989    3.2882   -2.2636 H   0  0  0  0  0  0  0  0  0  0  0  0
   -4.3093    2.7824   -1.4707 H   0  0  0  0  0  0  0  0  0  0  0  0
  1  2  1  0
  2  3  1  0
  3  4  2  0
  4  5  1  0
  4  6  1  0
  6  7  1  0
  7  8  1  0
  8  9  2  0
  9 10  1  0
 10 11  2  0
 11 12  1  0
 12 13  2  0
 13 14  1  0
 14 15  2  0
 15 16  1  0
 16 17  2  0
 17 18  1  0
  5  1  1  0
 13  8  1  0
 18 14  1  0
  1 19  1  0
  1 20  1  0
  2 21  1  0
  2 22  1  0
  5 23  1  0
  6 24  1  0
  6 25  1  0
  7 26  1  0
  9 27  1  0
 10 28  1  0
 11 29  1  0
 12 30  1  0
 15 31  1  0
 16 32  1  0
 17 33  1  0
M  END
>  <Ligand ID>  (1) 
LIG0003173

>  <Ligand>  (1) 
CHEMBL152155

>  <SMILES>  (1) 
C1CN=C(N1)CNc1ccccc1c1ccco1

>  <CID>  (1) 
22493318.0

>  <ChEMBL ID>  (1) 
nan

>  <InChiKey>  (1) 
DCUZNLXOAOSQBG-UHFFFAOYSA-N

>  <InChi>  (1) 
InChI=1S/C14H15N3O/c1-2-5-12(17-10-14-15-7-8-16-14)11(4-1)13-6-3-9-18-13/h1-6,9,17H,7-8,10H2,(H,15,16)

>  <IUPAC Name>  (1) 
N-(4,5-dihydro-1H-imidazol-2-ylmethyl)-2-(furan-2-yl)aniline

$$$$
