
     RDKit          3D

102105  0  0  0  0  0  0  0  0999 V2000
   -2.4639    2.5467    6.5992 N   0  0  0  0  0  0  0  0  0  0  0  0
   -2.7916    1.2025    6.8494 C   0  0  0  0  0  0  0  0  0  0  0  0
   -2.5570    0.1898    6.1317 N   0  0  0  0  0  0  0  0  0  0  0  0
   -1.8921    0.1787    4.8712 C   0  0  0  0  0  0  0  0  0  0  0  0
   -2.5970    1.0709    3.8897 C   0  0  0  0  0  0  0  0  0  0  0  0
   -1.9309    1.0908    2.5262 C   0  0  0  0  0  0  0  0  0  0  0  0
   -1.9315   -0.3402    1.9661 C   0  0  1  0  0  0  0  0  0  0  0  0
   -3.3247   -0.7580    1.8393 C   0  0  0  0  0  0  0  0  0  0  0  0
   -3.9930   -1.0173    2.8924 O   0  0  0  0  0  0  0  0  0  0  0  0
   -4.0316   -0.8983    0.6163 N   0  0  0  0  0  0  0  0  0  0  0  0
   -5.4452   -1.3032    0.5556 C   0  0  2  0  0  0  0  0  0  0  0  0
   -5.7284   -2.3223   -0.4384 C   0  0  0  0  0  0  0  0  0  0  0  0
   -4.8688   -2.7408   -1.2694 O   0  0  0  0  0  0  0  0  0  0  0  0
   -7.0613   -2.8814   -0.4666 N   0  0  0  0  0  0  0  0  0  0  0  0
   -6.2062    0.0097    0.3779 C   0  0  0  0  0  0  0  0  0  0  0  0
   -5.7977    0.7736   -0.8045 C   0  0  0  0  0  0  0  0  0  0  0  0
   -4.8928    1.8408   -0.7097 C   0  0  0  0  0  0  0  0  0  0  0  0
   -4.6392    2.3705   -1.9069 N   0  0  0  0  0  0  0  0  0  0  0  0
   -5.3581    1.6743   -2.7844 C   0  0  0  0  0  0  0  0  0  0  0  0
   -6.0839    0.6818   -2.1343 C   0  0  0  0  0  0  0  0  0  0  0  0
   -6.9098   -0.1603   -2.8391 C   0  0  0  0  0  0  0  0  0  0  0  0
   -7.0166   -0.0176   -4.2088 C   0  0  0  0  0  0  0  0  0  0  0  0
   -6.2890    0.9726   -4.8490 C   0  0  0  0  0  0  0  0  0  0  0  0
   -5.4661    1.8164   -4.1658 C   0  0  0  0  0  0  0  0  0  0  0  0
   -1.2543   -0.3582    0.6880 N   0  0  0  0  0  0  0  0  0  0  0  0
    0.1787   -0.5105    0.7469 C   0  0  0  0  0  0  0  0  0  0  0  0
    0.8085   -0.5969    1.8136 O   0  0  0  0  0  0  0  0  0  0  0  0
    0.8814   -0.5566   -0.6058 C   0  0  1  0  0  0  0  0  0  0  0  0
    2.2945   -0.3121   -0.3637 N   0  0  0  0  0  0  0  0  0  0  0  0
    2.8122    0.8998   -0.8565 C   0  0  0  0  0  0  0  0  0  0  0  0
    1.9679    1.6492   -1.4772 O   0  0  0  0  0  0  0  0  0  0  0  0
    4.1685    1.4202   -0.7545 C   0  0  1  0  0  0  0  0  0  0  0  0
    5.1422    0.6099   -0.0847 N   0  0  0  0  0  0  0  0  0  0  0  0
    5.8416    1.1645    1.0619 C   0  0  0  0  0  0  0  0  0  0  0  0
    5.5646    2.3503    1.4574 O   0  0  0  0  0  0  0  0  0  0  0  0
    6.8799    0.3715    1.7749 C   0  0  0  0  0  0  0  0  0  0  0  0
    6.4022   -0.9186    2.3469 C   0  0  0  0  0  0  0  0  0  0  0  0
    8.0566    0.0791    0.8675 C   0  0  0  0  0  0  0  0  0  0  0  0
    7.4044    1.2131    2.9290 C   0  0  0  0  0  0  0  0  0  0  0  0
    4.7143    1.9833   -2.0604 C   0  0  0  0  0  0  0  0  0  0  0  0
    4.8088    1.0168   -3.1503 C   0  0  0  0  0  0  0  0  0  0  0  0
    5.9406    0.2742   -3.3592 N   0  0  0  0  0  0  0  0  0  0  0  0
    5.7788   -0.5333   -4.4121 C   0  0  0  0  0  0  0  0  0  0  0  0
    4.5500   -0.3055   -4.8713 N   0  0  0  0  0  0  0  0  0  0  0  0
    3.9291    0.6260   -4.1354 C   0  0  0  0  0  0  0  0  0  0  0  0
    0.6201   -1.9076   -1.2080 C   0  0  0  0  0  0  0  0  0  0  0  0
    1.1991   -2.1765   -2.5165 C   0  0  0  0  0  0  0  0  0  0  0  0
    2.4407   -2.7622   -2.7109 C   0  0  0  0  0  0  0  0  0  0  0  0
    2.9202   -3.0006   -4.0018 C   0  0  0  0  0  0  0  0  0  0  0  0
    2.1310   -2.6397   -5.1027 C   0  0  0  0  0  0  0  0  0  0  0  0
    0.8987   -2.0586   -4.9166 C   0  0  0  0  0  0  0  0  0  0  0  0
    0.4206   -1.8209   -3.6349 C   0  0  0  0  0  0  0  0  0  0  0  0
   -3.4829    0.9376    8.1005 N   0  0  0  0  0  0  0  0  0  0  0  0
   -1.4691    2.8894    6.4916 H   0  0  0  0  0  0  0  0  0  0  0  0
   -3.2359    3.2327    6.5184 H   0  0  0  0  0  0  0  0  0  0  0  0
   -0.7997    0.4631    4.9546 H   0  0  0  0  0  0  0  0  0  0  0  0
   -1.8312   -0.8956    4.5355 H   0  0  0  0  0  0  0  0  0  0  0  0
   -3.6813    0.9995    3.8743 H   0  0  0  0  0  0  0  0  0  0  0  0
   -2.3946    2.1278    4.2885 H   0  0  0  0  0  0  0  0  0  0  0  0
   -2.5170    1.7052    1.8456 H   0  0  0  0  0  0  0  0  0  0  0  0
   -0.8927    1.4531    2.7242 H   0  0  0  0  0  0  0  0  0  0  0  0
   -1.3571   -0.9840    2.6330 H   0  0  0  0  0  0  0  0  0  0  0  0
   -3.5904   -0.7234   -0.3031 H   0  0  0  0  0  0  0  0  0  0  0  0
   -5.6702   -1.6405    1.6164 H   0  0  0  0  0  0  0  0  0  0  0  0
   -7.2828   -3.6779   -1.1361 H   0  0  0  0  0  0  0  0  0  0  0  0
   -7.8209   -2.5221    0.1548 H   0  0  0  0  0  0  0  0  0  0  0  0
   -7.3080   -0.2290    0.2981 H   0  0  0  0  0  0  0  0  0  0  0  0
   -6.1121    0.6210    1.2844 H   0  0  0  0  0  0  0  0  0  0  0  0
   -4.4250    2.2252    0.2030 H   0  0  0  0  0  0  0  0  0  0  0  0
   -4.0117    3.1709   -2.1458 H   0  0  0  0  0  0  0  0  0  0  0  0
   -7.4527   -0.8971   -2.3006 H   0  0  0  0  0  0  0  0  0  0  0  0
   -7.6639   -0.6696   -4.8062 H   0  0  0  0  0  0  0  0  0  0  0  0
   -6.3549    1.1006   -5.9248 H   0  0  0  0  0  0  0  0  0  0  0  0
   -4.8996    2.5931   -4.6938 H   0  0  0  0  0  0  0  0  0  0  0  0
   -1.7030   -0.2680   -0.2396 H   0  0  0  0  0  0  0  0  0  0  0  0
    0.3805    0.2059   -1.2126 H   0  0  0  0  0  0  0  0  0  0  0  0
    2.9325   -0.9538    0.1343 H   0  0  0  0  0  0  0  0  0  0  0  0
    4.0716    2.3579   -0.1088 H   0  0  0  0  0  0  0  0  0  0  0  0
    5.3950   -0.3765   -0.3624 H   0  0  0  0  0  0  0  0  0  0  0  0
    6.1327   -1.6970    1.6170 H   0  0  0  0  0  0  0  0  0  0  0  0
    7.2334   -1.2727    3.0336 H   0  0  0  0  0  0  0  0  0  0  0  0
    5.5578   -0.6993    3.0515 H   0  0  0  0  0  0  0  0  0  0  0  0
    8.9645    0.0653    1.4972 H   0  0  0  0  0  0  0  0  0  0  0  0
    7.9373   -0.8937    0.3471 H   0  0  0  0  0  0  0  0  0  0  0  0
    8.1716    0.9431    0.1797 H   0  0  0  0  0  0  0  0  0  0  0  0
    6.6859    2.0294    3.2007 H   0  0  0  0  0  0  0  0  0  0  0  0
    8.3941    1.6701    2.6506 H   0  0  0  0  0  0  0  0  0  0  0  0
    7.5792    0.5931    3.8213 H   0  0  0  0  0  0  0  0  0  0  0  0
    4.0327    2.8275   -2.3059 H   0  0  0  0  0  0  0  0  0  0  0  0
    5.6947    2.4351   -1.8002 H   0  0  0  0  0  0  0  0  0  0  0  0
    6.8254    0.3183   -2.7847 H   0  0  0  0  0  0  0  0  0  0  0  0
    6.4896   -1.2482   -4.8368 H   0  0  0  0  0  0  0  0  0  0  0  0
    2.9391    1.0503   -4.2171 H   0  0  0  0  0  0  0  0  0  0  0  0
   -0.4764   -2.1695   -1.1516 H   0  0  0  0  0  0  0  0  0  0  0  0
    1.0782   -2.6662   -0.5009 H   0  0  0  0  0  0  0  0  0  0  0  0
    3.0508   -3.0425   -1.8354 H   0  0  0  0  0  0  0  0  0  0  0  0
    3.9077   -3.4635   -4.1595 H   0  0  0  0  0  0  0  0  0  0  0  0
    2.4701   -2.8073   -6.1141 H   0  0  0  0  0  0  0  0  0  0  0  0
    0.2404   -1.7576   -5.7254 H   0  0  0  0  0  0  0  0  0  0  0  0
   -0.5668   -1.3557   -3.4777 H   0  0  0  0  0  0  0  0  0  0  0  0
   -4.4316    0.5226    8.0995 H   0  0  0  0  0  0  0  0  0  0  0  0
   -2.9578    1.1931    8.9861 H   0  0  0  0  0  0  0  0  0  0  0  0
  1  2  1  0
  2  3  2  3
  3  4  1  0
  4  5  1  0
  5  6  1  0
  6  7  1  0
  7  8  1  0
  8  9  2  0
  8 10  1  0
 10 11  1  0
 11 12  1  0
 12 13  2  0
 12 14  1  0
 11 15  1  0
 15 16  1  0
 16 17  2  0
 17 18  1  0
 18 19  1  0
 19 20  2  0
 20 21  1  0
 21 22  2  0
 22 23  1  0
 23 24  2  0
  7 25  1  0
 25 26  1  0
 26 27  2  0
 26 28  1  0
 28 29  1  0
 29 30  1  0
 30 31  2  0
 30 32  1  0
 32 33  1  0
 33 34  1  0
 34 35  2  0
 34 36  1  0
 36 37  1  0
 36 38  1  0
 36 39  1  0
 32 40  1  0
 40 41  1  0
 41 42  1  0
 42 43  1  0
 43 44  2  0
 44 45  1  0
 28 46  1  0
 46 47  1  0
 47 48  2  0
 48 49  1  0
 49 50  2  0
 50 51  1  0
 51 52  2  0
  2 53  1  0
 20 16  1  0
 45 41  2  0
 52 47  1  0
 24 19  1  0
  1 54  1  0
  1 55  1  0
  4 56  1  0
  4 57  1  0
  5 58  1  0
  5 59  1  0
  6 60  1  0
  6 61  1  0
  7 62  1  1
 10 63  1  0
 11 64  1  1
 14 65  1  0
 14 66  1  0
 15 67  1  0
 15 68  1  0
 17 69  1  0
 18 70  1  0
 21 71  1  0
 22 72  1  0
 23 73  1  0
 24 74  1  0
 25 75  1  0
 28 76  1  6
 29 77  1  0
 32 78  1  1
 33 79  1  0
 37 80  1  0
 37 81  1  0
 37 82  1  0
 38 83  1  0
 38 84  1  0
 38 85  1  0
 39 86  1  0
 39 87  1  0
 39 88  1  0
 40 89  1  0
 40 90  1  0
 42 91  1  0
 43 92  1  0
 45 93  1  0
 46 94  1  0
 46 95  1  0
 48 96  1  0
 49 97  1  0
 50 98  1  0
 51 99  1  0
 52100  1  0
 53101  1  0
 53102  1  0
M  END
>  <Ligand ID>  (1) 
LIG0003378

>  <Ligand>  (1) 
CHEMBL315356

>  <SMILES>  (1) 
NC(=NCCC[C@@H](C(=O)N[C@H](C(=O)N)Cc1c[nH]c2c1cccc2)NC(=O)[C@@H](NC(=O)[C@@H](NC(=O)C(C)(C)C)Cc1[nH]cnc1)Cc1ccccc1)N

>  <CID>  (1) 
44322958.0

>  <ChEMBL ID>  (1) 
nan

>  <InChiKey>  (1) 
XCXOPMSFLOPCFL-KRCBVYEFSA-N

>  <InChi>  (1) 
InChI=1S/C37H49N11O5/c1-37(2,3)35(53)48-30(18-24-20-41-21-44-24)34(52)47-29(16-22-10-5-4-6-11-22)33(51)45-27(14-9-15-42-36(39)40)32(50)46-28(31(38)49)17-23-19-43-26-13-8-7-12-25(23)26/h4-8,10-13,19-21,27-30,43H,9,14-18H2,1-3H3,(H2,38,49)(H,41,44)(H,45,51)(H,46,50)(H,47,52)(H,48,53)(H4,39,40,42)/t27-,28-,29-,30-/m0/s1

>  <IUPAC Name>  (1) 
(2S)-N-[(2S)-1-amino-3-(1H-indol-3-yl)-1-oxopropan-2-yl]-5-(diaminomethylideneamino)-2-[[(2S)-2-[[(2S)-2-(2,2-dimethylpropanoylamino)-3-(1H-imidazol-5-yl)propanoyl]amino]-3-phenylpropanoyl]amino]pentanamide

$$$$
