
     RDKit          3D

183189  0  0  0  0  0  0  0  0999 V2000
    5.1841    6.1469   -0.9343 N   0  0  0  0  0  0  0  0  0  0  0  0
    4.1734    5.1941   -0.9142 N   0  0  0  0  0  0  0  0  0  0  0  0
    2.9314    5.7638   -1.3081 C   0  0  2  0  0  0  0  0  0  0  0  0
    1.7593    4.8558   -1.2213 C   0  0  0  0  0  0  0  0  0  0  0  0
    0.6538    5.0566   -1.7685 O   0  0  0  0  0  0  0  0  0  0  0  0
    1.8793    3.6619   -0.4487 N   0  0  0  0  0  0  0  0  0  0  0  0
    0.7275    2.7194   -0.3280 C   0  0  1  0  0  0  0  0  0  0  0  0
    1.1844    1.6754    0.6111 C   0  0  0  0  0  0  0  0  0  0  0  0
    2.1991    0.7734    0.0436 C   0  0  0  0  0  0  0  0  0  0  0  0
    2.0771    0.4399   -1.1469 O   0  0  0  0  0  0  0  0  0  0  0  0
    3.3362    0.2413    0.7149 N   0  0  0  0  0  0  0  0  0  0  0  0
    4.1753   -0.7734    0.1324 C   0  0  0  0  0  0  0  0  0  0  0  0
    3.6951   -1.0535   -1.2716 N   0  0  0  0  0  0  0  0  0  0  0  0
    2.8038   -2.1465   -1.4849 C   0  0  0  0  0  0  0  0  0  0  0  0
    2.4437   -2.7398   -0.4503 O   0  0  0  0  0  0  0  0  0  0  0  0
    2.3142   -2.5755   -2.7875 C   0  0  0  0  0  0  0  0  0  0  0  0
    2.7001   -2.0207   -3.8727 O   0  0  0  0  0  0  0  0  0  0  0  0
    1.3417   -3.6788   -2.9135 C   0  0  1  0  0  0  0  0  0  0  0  0
    2.0242   -4.8230   -3.6300 C   0  0  0  0  0  0  0  0  0  0  0  0
    3.2066   -5.3450   -2.9400 C   0  0  0  0  0  0  0  0  0  0  0  0
    4.4849   -4.8331   -3.2017 C   0  0  0  0  0  0  0  0  0  0  0  0
    5.5898   -5.3498   -2.5374 C   0  0  0  0  0  0  0  0  0  0  0  0
    5.3954   -6.3710   -1.6247 C   0  0  0  0  0  0  0  0  0  0  0  0
    4.1478   -6.8968   -1.3447 C   0  0  0  0  0  0  0  0  0  0  0  0
    3.0566   -6.3613   -2.0223 C   0  0  0  0  0  0  0  0  0  0  0  0
    0.8532   -4.1962   -1.6459 N   0  0  0  0  0  0  0  0  0  0  0  0
   -0.5376   -4.1002   -1.3158 C   0  0  0  0  0  0  0  0  0  0  0  0
   -1.2400   -3.5702   -2.1955 O   0  0  0  0  0  0  0  0  0  0  0  0
   -1.1776   -4.5624   -0.0751 C   0  0  2  0  0  0  0  0  0  0  0  0
   -0.8894   -6.0213    0.1311 C   0  0  0  0  0  0  0  0  0  0  0  0
   -2.6231   -4.3534   -0.2937 N   0  0  0  0  0  0  0  0  0  0  0  0
   -3.2186   -5.1706   -1.2853 C   0  0  0  0  0  0  0  0  0  0  0  0
   -2.4694   -6.0047   -1.8104 O   0  0  0  0  0  0  0  0  0  0  0  0
   -4.6769   -5.0517   -1.6983 C   0  0  2  0  0  0  0  0  0  0  0  0
   -5.3588   -4.0022   -0.9800 N   0  0  0  0  0  0  0  0  0  0  0  0
   -5.1338   -2.6065   -1.1027 C   0  0  0  0  0  0  0  0  0  0  0  0
   -4.1827   -2.2691   -1.8163 O   0  0  0  0  0  0  0  0  0  0  0  0
   -6.0253   -1.6742   -0.3667 C   0  0  1  0  0  0  0  0  0  0  0  0
   -5.4220   -0.4037   -0.0238 N   0  0  0  0  0  0  0  0  0  0  0  0
   -5.9736    0.3035    1.0762 C   0  0  0  0  0  0  0  0  0  0  0  0
   -7.0255   -0.2434    1.5469 O   0  0  0  0  0  0  0  0  0  0  0  0
   -5.5300    1.5267    1.7080 C   0  0  2  0  0  0  0  0  0  0  0  0
   -4.2296    2.0025    1.2731 N   0  0  0  0  0  0  0  0  0  0  0  0
   -3.9773    3.4246    1.0850 C   0  0  0  0  0  0  0  0  0  0  0  0
   -4.9680    4.1199    1.3832 O   0  0  0  0  0  0  0  0  0  0  0  0
   -2.7672    4.0504    0.6236 C   0  0  1  0  0  0  0  0  0  0  0  0
   -1.7722    3.1141    0.1825 N   0  0  0  0  0  0  0  0  0  0  0  0
   -0.3996    3.5714    0.2183 C   0  0  0  0  0  0  0  0  0  0  0  0
   -0.2171    4.6836    0.7092 O   0  0  0  0  0  0  0  0  0  0  0  0
   -3.1320    5.0035   -0.5366 C   0  0  0  0  0  0  0  0  0  0  0  0
   -4.0789    6.0533   -0.1316 C   0  0  0  0  0  0  0  0  0  0  0  0
   -5.4160    6.1513   -0.4418 C   0  0  0  0  0  0  0  0  0  0  0  0
   -5.9139    7.2573    0.1022 N   0  0  0  0  0  0  0  0  0  0  0  0
   -4.9180    7.8891    0.7685 C   0  0  0  0  0  0  0  0  0  0  0  0
   -3.7313    7.1542    0.6445 C   0  0  0  0  0  0  0  0  0  0  0  0
   -2.5528    7.5666    1.2320 C   0  0  0  0  0  0  0  0  0  0  0  0
   -2.5021    8.7522    1.9864 C   0  0  0  0  0  0  0  0  0  0  0  0
   -3.6931    9.4791    2.1073 C   0  0  0  0  0  0  0  0  0  0  0  0
   -4.8624    9.0661    1.5212 C   0  0  0  0  0  0  0  0  0  0  0  0
   -5.8555    1.7688    3.1175 C   0  0  0  0  0  0  0  0  0  0  0  0
   -5.4183    0.9136    4.2262 C   0  0  0  0  0  0  0  0  0  0  0  0
   -5.8597   -0.5238    4.2207 C   0  0  0  0  0  0  0  0  0  0  0  0
   -5.4026   -1.2144    5.4491 N   0  0  0  0  0  0  0  0  0  0  0  0
   -6.1587   -1.1103    6.5099 C   0  0  0  0  0  0  0  0  0  0  0  0
   -7.3598   -0.3497    6.4385 N   0  0  0  0  0  0  0  0  0  0  0  0
   -5.8530   -1.7238    7.7465 N   0  0  0  0  0  0  0  0  0  0  0  0
   -7.2779   -1.4019   -1.2327 C   0  0  0  0  0  0  0  0  0  0  0  0
   -8.0622   -2.6101   -1.5286 C   0  0  0  0  0  0  0  0  0  0  0  0
   -7.8596   -3.4428   -2.6021 C   0  0  0  0  0  0  0  0  0  0  0  0
   -8.6507   -4.5595   -2.8325 C   0  0  0  0  0  0  0  0  0  0  0  0
   -9.6738   -4.8110   -1.9250 C   0  0  0  0  0  0  0  0  0  0  0  0
   -9.8996   -3.9907   -0.8393 C   0  0  0  0  0  0  0  0  0  0  0  0
   -9.1057   -2.8929   -0.6279 C   0  0  0  0  0  0  0  0  0  0  0  0
   -5.3474   -6.3508   -1.5277 C   0  0  0  0  0  0  0  0  0  0  0  0
   -4.8592   -7.5126   -2.2547 C   0  0  0  0  0  0  0  0  0  0  0  0
   -3.9762   -7.5600   -3.1168 O   0  0  0  0  0  0  0  0  0  0  0  0
   -5.4890   -8.7772   -1.9202 N   0  0  0  0  0  0  0  0  0  0  0  0
    5.6021   -0.5860    0.0992 C   0  0  0  0  0  0  0  0  0  0  0  0
    6.2828   -1.4872   -0.5399 O   0  0  0  0  0  0  0  0  0  0  0  0
    6.3917    0.4359    0.6560 N   0  0  0  0  0  0  0  0  0  0  0  0
    7.7699    0.3671    0.4345 N   0  0  0  0  0  0  0  0  0  0  0  0
    8.5434   -0.4035    1.3378 C   0  0  1  0  0  0  0  0  0  0  0  0
    9.9922   -0.4324    0.9969 C   0  0  0  0  0  0  0  0  0  0  0  0
   10.8065   -1.1521    1.6577 O   0  0  0  0  0  0  0  0  0  0  0  0
   10.5662    0.3437   -0.0955 C   0  0  0  0  0  0  0  0  0  0  0  0
    9.8699    1.1140   -0.8253 O   0  0  0  0  0  0  0  0  0  0  0  0
   11.9189    0.2824   -0.3936 O   0  0  0  0  0  0  0  0  0  0  0  0
    8.3771    0.1265    2.7361 C   0  0  0  0  0  0  0  0  0  0  0  0
    9.1562   -0.5987    3.7603 C   0  0  0  0  0  0  0  0  0  0  0  0
   10.4206   -0.1235    4.1150 C   0  0  0  0  0  0  0  0  0  0  0  0
   11.2021   -0.7750    5.0634 C   0  0  0  0  0  0  0  0  0  0  0  0
   10.7326   -1.9066    5.6642 C   0  0  0  0  0  0  0  0  0  0  0  0
    9.4892   -2.3844    5.3205 C   0  0  0  0  0  0  0  0  0  0  0  0
    8.7043   -1.7501    4.3873 C   0  0  0  0  0  0  0  0  0  0  0  0
   11.5167   -2.5590    6.6139 O   0  0  0  0  0  0  0  0  0  0  0  0
    2.8811    6.5888   -2.5345 C   0  0  0  0  0  0  0  0  0  0  0  0
    3.2819    5.9374   -3.7799 C   0  0  0  0  0  0  0  0  0  0  0  0
    2.3909    5.2720   -4.6136 C   0  0  0  0  0  0  0  0  0  0  0  0
    2.7928    4.6955   -5.8118 C   0  0  0  0  0  0  0  0  0  0  0  0
    4.1150    4.7662   -6.2295 C   0  0  0  0  0  0  0  0  0  0  0  0
    4.9963    5.4183   -5.4149 C   0  0  0  0  0  0  0  0  0  0  0  0
    4.5981    5.9950   -4.2137 C   0  0  0  0  0  0  0  0  0  0  0  0
    4.4684    4.1811   -7.4301 O   0  0  0  0  0  0  0  0  0  0  0  0
    6.0295    5.6988   -1.3902 H   0  0  0  0  0  0  0  0  0  0  0  0
    5.5368    6.3568    0.0487 H   0  0  0  0  0  0  0  0  0  0  0  0
    4.3669    4.3468   -1.4887 H   0  0  0  0  0  0  0  0  0  0  0  0
    2.6839    6.5762   -0.4614 H   0  0  0  0  0  0  0  0  0  0  0  0
    2.7808    3.4798    0.0175 H   0  0  0  0  0  0  0  0  0  0  0  0
    0.4037    2.4173   -1.3230 H   0  0  0  0  0  0  0  0  0  0  0  0
    0.2890    1.0648    0.8951 H   0  0  0  0  0  0  0  0  0  0  0  0
    1.5977    2.1665    1.5451 H   0  0  0  0  0  0  0  0  0  0  0  0
    3.5146    0.6399    1.6350 H   0  0  0  0  0  0  0  0  0  0  0  0
    3.9327   -1.7649    0.6623 H   0  0  0  0  0  0  0  0  0  0  0  0
    3.9598   -0.5128   -2.0626 H   0  0  0  0  0  0  0  0  0  0  0  0
    0.4977   -3.3349   -3.5539 H   0  0  0  0  0  0  0  0  0  0  0  0
    2.3582   -4.3928   -4.5999 H   0  0  0  0  0  0  0  0  0  0  0  0
    1.3109   -5.6620   -3.7897 H   0  0  0  0  0  0  0  0  0  0  0  0
    4.5706   -4.0572   -3.9086 H   0  0  0  0  0  0  0  0  0  0  0  0
    6.5855   -4.9723   -2.7185 H   0  0  0  0  0  0  0  0  0  0  0  0
    6.2246   -6.8212   -1.0721 H   0  0  0  0  0  0  0  0  0  0  0  0
    4.0042   -7.7036   -0.6181 H   0  0  0  0  0  0  0  0  0  0  0  0
    2.0860   -6.7881   -1.7926 H   0  0  0  0  0  0  0  0  0  0  0  0
    1.4224   -4.6610   -0.9315 H   0  0  0  0  0  0  0  0  0  0  0  0
   -0.8458   -4.0389    0.8353 H   0  0  0  0  0  0  0  0  0  0  0  0
   -1.7916   -6.5986    0.3863 H   0  0  0  0  0  0  0  0  0  0  0  0
   -0.1903   -6.1243    0.9902 H   0  0  0  0  0  0  0  0  0  0  0  0
   -0.3762   -6.4069   -0.7713 H   0  0  0  0  0  0  0  0  0  0  0  0
   -3.2055   -3.7043    0.2038 H   0  0  0  0  0  0  0  0  0  0  0  0
   -4.5551   -4.7583   -2.7911 H   0  0  0  0  0  0  0  0  0  0  0  0
   -6.0834   -4.2810   -0.3074 H   0  0  0  0  0  0  0  0  0  0  0  0
   -6.4358   -2.1148    0.5445 H   0  0  0  0  0  0  0  0  0  0  0  0
   -4.6334    0.0426   -0.4903 H   0  0  0  0  0  0  0  0  0  0  0  0
   -6.2165    2.3438    1.1885 H   0  0  0  0  0  0  0  0  0  0  0  0
   -3.4147    1.4296    1.0643 H   0  0  0  0  0  0  0  0  0  0  0  0
   -2.2980    4.6794    1.4262 H   0  0  0  0  0  0  0  0  0  0  0  0
   -1.8887    2.1669   -0.1509 H   0  0  0  0  0  0  0  0  0  0  0  0
   -3.4912    4.3853   -1.3856 H   0  0  0  0  0  0  0  0  0  0  0  0
   -2.1612    5.4390   -0.8503 H   0  0  0  0  0  0  0  0  0  0  0  0
   -5.9559    5.4236   -1.0374 H   0  0  0  0  0  0  0  0  0  0  0  0
   -6.8799    7.6449    0.0711 H   0  0  0  0  0  0  0  0  0  0  0  0
   -1.6681    6.9589    1.1132 H   0  0  0  0  0  0  0  0  0  0  0  0
   -1.5850    9.0934    2.4555 H   0  0  0  0  0  0  0  0  0  0  0  0
   -3.6237   10.3778    2.6873 H   0  0  0  0  0  0  0  0  0  0  0  0
   -5.7618    9.6203    1.6126 H   0  0  0  0  0  0  0  0  0  0  0  0
   -5.7006    2.8658    3.3118 H   0  0  0  0  0  0  0  0  0  0  0  0
   -7.0048    1.7361    3.1592 H   0  0  0  0  0  0  0  0  0  0  0  0
   -4.3276    1.0088    4.4777 H   0  0  0  0  0  0  0  0  0  0  0  0
   -5.9159    1.3416    5.1575 H   0  0  0  0  0  0  0  0  0  0  0  0
   -5.3915   -1.1185    3.4230 H   0  0  0  0  0  0  0  0  0  0  0  0
   -6.9578   -0.5564    4.2496 H   0  0  0  0  0  0  0  0  0  0  0  0
   -7.4575    0.6079    6.8372 H   0  0  0  0  0  0  0  0  0  0  0  0
   -8.2017   -0.7541    5.9583 H   0  0  0  0  0  0  0  0  0  0  0  0
   -6.6021   -1.9050    8.4510 H   0  0  0  0  0  0  0  0  0  0  0  0
   -4.8978   -2.0274    8.0425 H   0  0  0  0  0  0  0  0  0  0  0  0
   -7.0167   -0.9224   -2.1897 H   0  0  0  0  0  0  0  0  0  0  0  0
   -7.8865   -0.6526   -0.6819 H   0  0  0  0  0  0  0  0  0  0  0  0
   -7.0759   -3.2442   -3.2921 H   0  0  0  0  0  0  0  0  0  0  0  0
   -8.5110   -5.2254   -3.6701 H   0  0  0  0  0  0  0  0  0  0  0  0
  -10.3259   -5.6558   -2.0414 H   0  0  0  0  0  0  0  0  0  0  0  0
  -10.7072   -4.2207   -0.1563 H   0  0  0  0  0  0  0  0  0  0  0  0
   -9.2878   -2.2549    0.2247 H   0  0  0  0  0  0  0  0  0  0  0  0
   -5.4336   -6.5458   -0.4227 H   0  0  0  0  0  0  0  0  0  0  0  0
   -6.4348   -6.2323   -1.8326 H   0  0  0  0  0  0  0  0  0  0  0  0
   -5.9343   -9.3803   -2.6321 H   0  0  0  0  0  0  0  0  0  0  0  0
   -5.4531   -9.0200   -0.8845 H   0  0  0  0  0  0  0  0  0  0  0  0
    5.9173    1.1769    1.2009 H   0  0  0  0  0  0  0  0  0  0  0  0
    7.9020   -0.0251   -0.5449 H   0  0  0  0  0  0  0  0  0  0  0  0
    8.1544   -1.4520    1.3023 H   0  0  0  0  0  0  0  0  0  0  0  0
   12.4600    1.0068   -0.8458 H   0  0  0  0  0  0  0  0  0  0  0  0
    7.2723    0.0581    2.9532 H   0  0  0  0  0  0  0  0  0  0  0  0
    8.6784    1.1960    2.7294 H   0  0  0  0  0  0  0  0  0  0  0  0
   10.8336    0.7616    3.6543 H   0  0  0  0  0  0  0  0  0  0  0  0
   12.1704   -0.3580    5.3049 H   0  0  0  0  0  0  0  0  0  0  0  0
    9.0862   -3.2918    5.7853 H   0  0  0  0  0  0  0  0  0  0  0  0
    7.7204   -2.0920    4.0848 H   0  0  0  0  0  0  0  0  0  0  0  0
   12.5306   -2.5394    6.4718 H   0  0  0  0  0  0  0  0  0  0  0  0
    1.8599    7.0301   -2.7049 H   0  0  0  0  0  0  0  0  0  0  0  0
    3.5404    7.5136   -2.4448 H   0  0  0  0  0  0  0  0  0  0  0  0
    1.3502    5.1748   -4.3726 H   0  0  0  0  0  0  0  0  0  0  0  0
    2.1093    4.1745   -6.4718 H   0  0  0  0  0  0  0  0  0  0  0  0
    6.0336    5.4648   -5.7624 H   0  0  0  0  0  0  0  0  0  0  0  0
    5.3796    6.5013   -3.6536 H   0  0  0  0  0  0  0  0  0  0  0  0
    3.9518    4.4848   -8.2545 H   0  0  0  0  0  0  0  0  0  0  0  0
  1  2  1  0
  2  3  1  0
  3  4  1  0
  4  5  2  0
  4  6  1  0
  6  7  1  0
  7  8  1  0
  8  9  1  0
  9 10  2  0
  9 11  1  0
 11 12  1  0
 12 13  1  0
 13 14  1  0
 14 15  2  0
 14 16  1  0
 16 17  2  0
 16 18  1  0
 18 19  1  0
 19 20  1  0
 20 21  2  0
 21 22  1  0
 22 23  2  0
 23 24  1  0
 24 25  2  0
 18 26  1  0
 26 27  1  0
 27 28  2  0
 27 29  1  0
 29 30  1  0
 29 31  1  0
 31 32  1  0
 32 33  2  0
 32 34  1  0
 34 35  1  0
 35 36  1  0
 36 37  2  0
 36 38  1  0
 38 39  1  0
 39 40  1  0
 40 41  2  0
 40 42  1  0
 42 43  1  0
 43 44  1  0
 44 45  2  0
 44 46  1  0
 46 47  1  0
 47 48  1  0
 48 49  2  0
 46 50  1  0
 50 51  1  0
 51 52  2  0
 52 53  1  0
 53 54  1  0
 54 55  2  0
 55 56  1  0
 56 57  2  0
 57 58  1  0
 58 59  2  0
 42 60  1  0
 60 61  1  0
 61 62  1  0
 62 63  1  0
 63 64  2  3
 64 65  1  0
 64 66  1  0
 38 67  1  0
 67 68  1  0
 68 69  2  0
 69 70  1  0
 70 71  2  0
 71 72  1  0
 72 73  2  0
 34 74  1  0
 74 75  1  0
 75 76  2  0
 75 77  1  0
 12 78  1  0
 78 79  2  0
 78 80  1  0
 80 81  1  0
 81 82  1  0
 82 83  1  0
 83 84  2  0
 83 85  1  0
 85 86  2  0
 85 87  1  0
 82 88  1  0
 88 89  1  0
 89 90  2  0
 90 91  1  0
 91 92  2  0
 92 93  1  0
 93 94  2  0
 92 95  1  0
  3 96  1  0
 96 97  1  0
 97 98  2  0
 98 99  1  0
 99100  2  0
100101  1  0
101102  2  0
100103  1  0
 48  7  1  0
 55 51  1  0
 73 68  1  0
 94 89  1  0
102 97  1  0
 25 20  1  0
 59 54  1  0
  1104  1  0
  1105  1  0
  2106  1  0
  3107  1  1
  6108  1  0
  7109  1  6
  8110  1  0
  8111  1  0
 11112  1  0
 12113  1  0
 13114  1  0
 18115  1  6
 19116  1  0
 19117  1  0
 21118  1  0
 22119  1  0
 23120  1  0
 24121  1  0
 25122  1  0
 26123  1  0
 29124  1  1
 30125  1  0
 30126  1  0
 30127  1  0
 31128  1  0
 34129  1  6
 35130  1  0
 38131  1  1
 39132  1  0
 42133  1  6
 43134  1  0
 46135  1  1
 47136  1  0
 50137  1  0
 50138  1  0
 52139  1  0
 53140  1  0
 56141  1  0
 57142  1  0
 58143  1  0
 59144  1  0
 60145  1  0
 60146  1  0
 61147  1  0
 61148  1  0
 62149  1  0
 62150  1  0
 65151  1  0
 65152  1  0
 66153  1  0
 66154  1  0
 67155  1  0
 67156  1  0
 69157  1  0
 70158  1  0
 71159  1  0
 72160  1  0
 73161  1  0
 74162  1  0
 74163  1  0
 77164  1  0
 77165  1  0
 80166  1  0
 81167  1  0
 82168  1  1
 87169  1  0
 88170  1  0
 88171  1  0
 90172  1  0
 91173  1  0
 93174  1  0
 94175  1  0
 95176  1  0
 96177  1  0
 96178  1  0
 98179  1  0
 99180  1  0
101181  1  0
102182  1  0
103183  1  0
M  END
>  <Ligand ID>  (1) 
LIG0001116

>  <Ligand>  (1) 
CID 44310259

>  <SMILES>  (1) 
NN[C@H](C(=O)N[C@H]1CC(=O)NC(NC(=O)C(=O)[C@@H](Cc2ccccc2)NC(=O)[C@H](C)NC(=O)[C@H](NC(=O)[C@@H](NC(=O)[C@H](NC(=O)[C@@H](NC1=O)Cc1c[nH]c2c1cccc2)CCCN=C(N)N)Cc1ccccc1)CC(=O)N)C(=O)NN[C@@H](C(=O)C(=O)O)Cc1ccc(cc1)O)Cc1ccc(cc1)O

>  <CID>  (1) 
44310259.0

>  <ChEMBL ID>  (1) 
nan

>  <InChiKey>  (1) 
XEZOOYRFZJZPBS-AGAQULSSSA-N

>  <InChi>  (1) 
InChI=1S/C68H80N18O17/c1-35-58(93)77-46(27-36-11-4-2-5-12-36)55(91)65(100)83-57(66(101)86-85-47(56(92)67(102)103)28-38-18-22-41(87)23-19-38)82-54(90)33-51(81-64(99)52(84-72)30-39-20-24-42(88)25-21-39)63(98)79-49(31-40-34-74-44-16-9-8-15-43(40)44)62(97)76-45(17-10-26-73-68(70)71)59(94)78-48(29-37-13-6-3-7-14-37)61(96)80-50(32-53(69)89)60(95)75-35/h2-9,11-16,18-25,34-35,45-52,57,74,84-85,87-88H,10,17,26-33,72H2,1H3,(H2,69,89)(H,75,95)(H,76,97)(H,77,93)(H,78,94)(H,79,98)(H,80,96)(H,81,99)(H,82,90)(H,83,100)(H,86,101)(H,102,103)(H4,70,71,73)/t35-,45+,46+,47+,48-,49-,50+,51-,52-,57?/m0/s1

>  <IUPAC Name>  (1) 
(3R)-3-[2-[(6R,9S,12R,15S,18R,21S,24S)-12-(2-amino-2-oxoethyl)-6,15-dibenzyl-18-[3-(diaminomethylideneamino)propyl]-24-[[(2S)-2-hydrazinyl-3-(4-hydroxyphenyl)propanoyl]amino]-21-(1H-indol-3-ylmethyl)-9-methyl-4,5,8,11,14,17,20,23,26-nonaoxo-1,3,7,10,13,16,19,22-octazacyclohexacosane-2-carbonyl]hydrazinyl]-4-(4-hydroxyphenyl)-2-oxobutanoic acid

$$$$
