
     RDKit          3D

 87 88  0  0  0  0  0  0  0  0999 V2000
   -0.9761   -0.1268    0.1167 C   0  0  0  0  0  0  0  0  0  0  0  0
    0.4232    0.2975   -0.1252 C   0  0  0  0  0  0  0  0  0  0  0  0
    0.7088    1.4564   -0.5762 O   0  0  0  0  0  0  0  0  0  0  0  0
    1.4349   -0.6278    0.1613 O   0  0  0  0  0  0  0  0  0  0  0  0
   -8.3134   -1.7278    1.3599 O   0  0  0  0  0  0  0  0  0  0  0  0
   -9.2592   -1.9079    0.3252 C   0  0  0  0  0  0  0  0  0  0  0  0
   -8.8295   -1.1241   -0.8647 C   0  0  0  0  0  0  0  0  0  0  0  0
   -7.6602   -0.3947   -0.8272 C   0  0  0  0  0  0  0  0  0  0  0  0
   -7.2255    0.3463   -1.9143 C   0  0  0  0  0  0  0  0  0  0  0  0
   -7.9289    0.3935   -3.0760 C   0  0  0  0  0  0  0  0  0  0  0  0
   -9.1165   -0.3356   -3.1412 C   0  0  0  0  0  0  0  0  0  0  0  0
   -9.5510   -1.0824   -2.0402 C   0  0  0  0  0  0  0  0  0  0  0  0
  -10.7404   -1.8185   -2.0916 O   0  0  0  0  0  0  0  0  0  0  0  0
   -5.9284    1.0863   -1.7046 C   0  0  2  0  0  0  0  0  0  0  0  0
   -4.8581    0.0176   -1.7380 C   0  0  0  0  0  0  0  0  0  0  0  0
   -3.5469    0.4477   -1.4424 N   0  0  0  0  0  0  0  0  0  0  0  0
   -3.2365    0.8813   -0.1312 C   0  0  0  0  0  0  0  0  0  0  0  0
   -3.2801   -0.2474    0.8444 C   0  0  0  0  0  0  0  0  0  0  0  0
   -2.3594   -1.3665    0.5882 C   0  0  0  0  0  0  0  0  0  0  0  0
   -0.9236   -1.1529    0.4997 C   0  0  0  0  0  0  0  0  0  0  0  0
   -0.1480   -0.6172    1.6441 C   0  0  0  0  0  0  0  0  0  0  0  0
   -0.4637    0.7602    2.0380 C   0  0  0  0  0  0  0  0  0  0  0  0
    0.3085    1.2158    3.1273 O   0  0  0  0  0  0  0  0  0  0  0  0
    1.6590    1.2032    2.8993 C   0  0  0  0  0  0  0  0  0  0  0  0
    2.1274    2.0325    1.7429 C   0  0  0  0  0  0  0  0  0  0  0  0
    3.6285    1.9673    1.5579 C   0  0  0  0  0  0  0  0  0  0  0  0
    4.1322    0.5723    1.3031 C   0  0  0  0  0  0  0  0  0  0  0  0
    5.6257    0.6666    1.1415 C   0  0  0  0  0  0  0  0  0  0  0  0
    6.3588    0.5438    2.3147 C   0  0  0  0  0  0  0  0  0  0  0  0
    7.7393    0.6123    2.2793 C   0  0  0  0  0  0  0  0  0  0  0  0
    8.3441    0.8042    1.0512 C   0  0  0  0  0  0  0  0  0  0  0  0
    7.6000    0.9240   -0.1043 C   0  0  0  0  0  0  0  0  0  0  0  0
    6.2159    0.8582   -0.0898 C   0  0  0  0  0  0  0  0  0  0  0  0
    8.3042    1.1241   -1.3835 C   0  0  0  0  0  0  0  0  0  0  0  0
    8.5686   -0.2125   -1.9350 N   0  0  0  0  0  0  0  0  0  0  0  0
    9.7450   -0.9425   -1.6573 C   0  0  0  0  0  0  0  0  0  0  0  0
   10.8112   -0.5379   -1.1190 O   0  0  0  0  0  0  0  0  0  0  0  0
    9.5122   -2.3403   -2.1267 C   0  0  0  0  0  0  0  0  0  0  0  0
    8.4201   -2.1880   -3.0516 N   0  0  0  0  0  0  0  0  0  0  0  0
    7.7202   -0.9537   -2.7985 C   0  0  0  0  0  0  0  0  0  0  0  0
    6.5970   -0.6252   -3.2565 O   0  0  0  0  0  0  0  0  0  0  0  0
   -6.0534    1.6900   -0.4620 O   0  0  0  0  0  0  0  0  0  0  0  0
   -1.2053    0.0599    1.1834 H   0  0  0  0  0  0  0  0  0  0  0  0
   -1.6272    0.4852   -0.5213 H   0  0  0  0  0  0  0  0  0  0  0  0
   -1.1319   -1.1965   -0.1137 H   0  0  0  0  0  0  0  0  0  0  0  0
    2.3736   -0.3480   -0.1249 H   0  0  0  0  0  0  0  0  0  0  0  0
   -8.7129   -1.8004    2.2553 H   0  0  0  0  0  0  0  0  0  0  0  0
   -9.2198   -2.9742    0.0214 H   0  0  0  0  0  0  0  0  0  0  0  0
  -10.2159   -1.5685    0.7251 H   0  0  0  0  0  0  0  0  0  0  0  0
   -7.0977   -0.4321    0.1008 H   0  0  0  0  0  0  0  0  0  0  0  0
   -7.5757    0.9687   -3.8962 H   0  0  0  0  0  0  0  0  0  0  0  0
   -9.7231   -0.3429   -4.0299 H   0  0  0  0  0  0  0  0  0  0  0  0
  -11.6002   -1.2833   -2.0030 H   0  0  0  0  0  0  0  0  0  0  0  0
   -5.7737    1.8433   -2.5025 H   0  0  0  0  0  0  0  0  0  0  0  0
   -4.8377   -0.3583   -2.8066 H   0  0  0  0  0  0  0  0  0  0  0  0
   -5.1755   -0.8453   -1.1237 H   0  0  0  0  0  0  0  0  0  0  0  0
   -3.0909    0.9728   -2.2176 H   0  0  0  0  0  0  0  0  0  0  0  0
   -2.2286    1.3655   -0.1833 H   0  0  0  0  0  0  0  0  0  0  0  0
   -3.8897    1.6989    0.2757 H   0  0  0  0  0  0  0  0  0  0  0  0
   -3.3887    0.0123    1.9031 H   0  0  0  0  0  0  0  0  0  0  0  0
   -4.3414   -0.7148    0.6550 H   0  0  0  0  0  0  0  0  0  0  0  0
   -2.6976   -1.9209   -0.3435 H   0  0  0  0  0  0  0  0  0  0  0  0
   -2.5387   -2.1146    1.4340 H   0  0  0  0  0  0  0  0  0  0  0  0
   -0.7508   -0.5013   -0.4294 H   0  0  0  0  0  0  0  0  0  0  0  0
   -0.4588   -2.1366    0.1297 H   0  0  0  0  0  0  0  0  0  0  0  0
   -0.2025   -1.3404    2.5130 H   0  0  0  0  0  0  0  0  0  0  0  0
    0.9380   -0.6161    1.3010 H   0  0  0  0  0  0  0  0  0  0  0  0
   -0.2938    1.4186    1.1534 H   0  0  0  0  0  0  0  0  0  0  0  0
   -1.4937    0.9051    2.3638 H   0  0  0  0  0  0  0  0  0  0  0  0
    2.0331    0.1711    2.8061 H   0  0  0  0  0  0  0  0  0  0  0  0
    2.1150    1.6924    3.8158 H   0  0  0  0  0  0  0  0  0  0  0  0
    1.6891    1.7574    0.7734 H   0  0  0  0  0  0  0  0  0  0  0  0
    1.8634    3.0908    1.9350 H   0  0  0  0  0  0  0  0  0  0  0  0
    3.9074    2.5629    0.6644 H   0  0  0  0  0  0  0  0  0  0  0  0
    4.1457    2.4348    2.4175 H   0  0  0  0  0  0  0  0  0  0  0  0
    3.9041   -0.1564    2.0878 H   0  0  0  0  0  0  0  0  0  0  0  0
    3.7485    0.1722    0.3530 H   0  0  0  0  0  0  0  0  0  0  0  0
    5.8712    0.3934    3.2723 H   0  0  0  0  0  0  0  0  0  0  0  0
    8.3029    0.5155    3.1997 H   0  0  0  0  0  0  0  0  0  0  0  0
    9.4431    0.8580    1.0286 H   0  0  0  0  0  0  0  0  0  0  0  0
    5.6116    0.9495   -0.9809 H   0  0  0  0  0  0  0  0  0  0  0  0
    7.6530    1.6920   -2.0690 H   0  0  0  0  0  0  0  0  0  0  0  0
    9.2406    1.6783   -1.1743 H   0  0  0  0  0  0  0  0  0  0  0  0
   10.4454   -2.7316   -2.5791 H   0  0  0  0  0  0  0  0  0  0  0  0
    9.1714   -2.9310   -1.2407 H   0  0  0  0  0  0  0  0  0  0  0  0
    8.1967   -2.8934   -3.7887 H   0  0  0  0  0  0  0  0  0  0  0  0
   -6.9679    1.9366   -0.2183 H   0  0  0  0  0  0  0  0  0  0  0  0
  1  2  1  0
  2  3  2  0
  2  4  1  0
  5  6  1  0
  6  7  1  0
  7  8  2  0
  8  9  1  0
  9 10  2  0
 10 11  1  0
 11 12  2  0
 12 13  1  0
  9 14  1  0
 14 15  1  0
 15 16  1  0
 16 17  1  0
 17 18  1  0
 18 19  1  0
 19 20  1  0
 20 21  1  0
 21 22  1  0
 22 23  1  0
 23 24  1  0
 24 25  1  0
 25 26  1  0
 26 27  1  0
 27 28  1  0
 28 29  2  0
 29 30  1  0
 30 31  2  0
 31 32  1  0
 32 33  2  0
 32 34  1  0
 34 35  1  0
 35 36  1  0
 36 37  2  0
 36 38  1  0
 38 39  1  0
 39 40  1  0
 40 41  2  0
 14 42  1  0
 12  7  1  0
 33 28  1  0
 40 35  1  0
  1 43  1  0
  1 44  1  0
  1 45  1  0
  4 46  1  0
  5 47  1  0
  6 48  1  0
  6 49  1  0
  8 50  1  0
 10 51  1  0
 11 52  1  0
 13 53  1  0
 14 54  1  6
 15 55  1  0
 15 56  1  0
 16 57  1  0
 17 58  1  0
 17 59  1  0
 18 60  1  0
 18 61  1  0
 19 62  1  0
 19 63  1  0
 20 64  1  0
 20 65  1  0
 21 66  1  0
 21 67  1  0
 22 68  1  0
 22 69  1  0
 24 70  1  0
 24 71  1  0
 25 72  1  0
 25 73  1  0
 26 74  1  0
 26 75  1  0
 27 76  1  0
 27 77  1  0
 29 78  1  0
 30 79  1  0
 31 80  1  0
 33 81  1  0
 34 82  1  0
 34 83  1  0
 38 84  1  0
 38 85  1  0
 39 86  1  0
 42 87  1  0
M  END
>  <Ligand ID>  (1) 
LIG0003350

>  <Ligand>  (1) 
SCHEMBL5183054

>  <SMILES>  (1) 
CC(=O)O.OCc1cc(ccc1O)[C@H](CNCCCCCCOCCCCc1cccc(c1)CN1C(=O)CNC1=O)O

>  <CID>  (1) 
56675510.0

>  <ChEMBL ID>  (1) 
nan

>  <InChiKey>  (1) 
YRHXWEBFYLMDDL-YCBFMBTMSA-N

>  <InChi>  (1) 
InChI=1S/C29H41N3O6.C2H4O2/c33-21-25-17-24(11-12-26(25)34)27(35)18-30-13-4-1-2-5-14-38-15-6-3-8-22-9-7-10-23(16-22)20-32-28(36)19-31-29(32)37;1-2(3)4/h7,9-12,16-17,27,30,33-35H,1-6,8,13-15,18-21H2,(H,31,37);1H3,(H,3,4)/t27-;/m0./s1

>  <IUPAC Name>  (1) 
acetic acid;3-[[3-[4-[6-[[(2R)-2-hydroxy-2-[4-hydroxy-3-(hydroxymethyl)phenyl]ethyl]amino]hexoxy]butyl]phenyl]methyl]imidazolidine-2,4-dione

$$$$
