
     RDKit          3D

 51 55  0  0  0  0  0  0  0  0999 V2000
   -0.5109   -1.4691    1.5251 O   0  0  0  0  0  0  0  0  0  0  0  0
   -0.4805   -1.2036    0.2825 C   0  0  0  0  0  0  0  0  0  0  0  0
    0.8454   -0.9335   -0.2361 C   0  0  0  0  0  0  0  0  0  0  0  0
    0.9290    0.0634   -1.2668 N   0  0  0  0  0  0  0  0  0  0  0  0
    0.2031    0.0559   -2.4943 C   0  0  0  0  0  0  0  0  0  0  0  0
    0.7740    0.5817   -3.4843 O   0  0  0  0  0  0  0  0  0  0  0  0
   -1.1346   -0.5106   -2.6769 C   0  0  0  0  0  0  0  0  0  0  0  0
   -1.9920   -1.0646   -1.7239 C   0  0  0  0  0  0  0  0  0  0  0  0
   -1.8014   -1.2401   -0.3100 N   0  0  0  0  0  0  0  0  0  0  0  0
   -2.9294   -1.4471    0.5358 C   0  0  0  0  0  0  0  0  0  0  0  0
   -3.5951   -0.2080    1.0220 C   0  0  0  0  0  0  0  0  0  0  0  0
   -4.6600    0.3618    0.3357 C   0  0  0  0  0  0  0  0  0  0  0  0
   -5.2789    1.5278    0.7885 C   0  0  0  0  0  0  0  0  0  0  0  0
   -4.8600    2.1640    1.9363 C   0  0  0  0  0  0  0  0  0  0  0  0
   -3.8112    1.6105    2.6206 C   0  0  0  0  0  0  0  0  0  0  0  0
   -3.2042    0.4628    2.1722 C   0  0  0  0  0  0  0  0  0  0  0  0
   -3.1945   -1.5247   -2.1264 C   0  0  0  0  0  0  0  0  0  0  0  0
   -3.5643   -1.4482   -3.4513 C   0  0  0  0  0  0  0  0  0  0  0  0
   -2.7523   -0.9096   -4.4320 C   0  0  0  0  0  0  0  0  0  0  0  0
   -1.5216   -0.4382   -4.0202 C   0  0  0  0  0  0  0  0  0  0  0  0
    1.7246   -0.4535    0.8999 C   0  0  0  0  0  0  0  0  0  0  0  0
    3.1033   -0.1555    0.4846 C   0  0  0  0  0  0  0  0  0  0  0  0
    3.7342   -0.3128   -0.7335 C   0  0  0  0  0  0  0  0  0  0  0  0
    5.0075    0.0827   -0.6745 N   0  0  0  0  0  0  0  0  0  0  0  0
    5.2492    0.5092    0.5783 C   0  0  0  0  0  0  0  0  0  0  0  0
    4.0909    0.3737    1.3166 C   0  0  0  0  0  0  0  0  0  0  0  0
    4.0949    0.7514    2.6464 C   0  0  0  0  0  0  0  0  0  0  0  0
    5.2689    1.2525    3.1831 C   0  0  0  0  0  0  0  0  0  0  0  0
    6.4202    1.3822    2.4319 C   0  0  0  0  0  0  0  0  0  0  0  0
    6.4258    1.0070    1.1008 C   0  0  0  0  0  0  0  0  0  0  0  0
    1.3040   -1.9065   -0.5824 H   0  0  0  0  0  0  0  0  0  0  0  0
    1.5793    0.8943   -1.1366 H   0  0  0  0  0  0  0  0  0  0  0  0
   -3.5796   -2.3009    0.3557 H   0  0  0  0  0  0  0  0  0  0  0  0
   -2.4504   -1.8068    1.5259 H   0  0  0  0  0  0  0  0  0  0  0  0
   -5.0646   -0.0556   -0.5634 H   0  0  0  0  0  0  0  0  0  0  0  0
   -6.1056    1.9560    0.2411 H   0  0  0  0  0  0  0  0  0  0  0  0
   -5.3694    3.0627    2.2460 H   0  0  0  0  0  0  0  0  0  0  0  0
   -3.4882    2.1269    3.5317 H   0  0  0  0  0  0  0  0  0  0  0  0
   -2.3886    0.0793    2.7551 H   0  0  0  0  0  0  0  0  0  0  0  0
   -3.8725   -1.9431   -1.4386 H   0  0  0  0  0  0  0  0  0  0  0  0
   -4.5360   -1.8204   -3.7759 H   0  0  0  0  0  0  0  0  0  0  0  0
   -3.0066   -0.8360   -5.4610 H   0  0  0  0  0  0  0  0  0  0  0  0
   -0.8045    0.0062   -4.7134 H   0  0  0  0  0  0  0  0  0  0  0  0
    1.7548   -1.2233    1.6944 H   0  0  0  0  0  0  0  0  0  0  0  0
    1.2624    0.4445    1.3954 H   0  0  0  0  0  0  0  0  0  0  0  0
    3.2785   -0.7045   -1.6298 H   0  0  0  0  0  0  0  0  0  0  0  0
    5.6934    0.0587   -1.4800 H   0  0  0  0  0  0  0  0  0  0  0  0
    3.2187    0.6685    3.2733 H   0  0  0  0  0  0  0  0  0  0  0  0
    5.3255    1.5663    4.2319 H   0  0  0  0  0  0  0  0  0  0  0  0
    7.3513    1.7704    2.8251 H   0  0  0  0  0  0  0  0  0  0  0  0
    7.3182    1.0954    0.4756 H   0  0  0  0  0  0  0  0  0  0  0  0
  1  2  2  0
  2  3  1  0
  3  4  1  0
  4  5  1  0
  5  6  2  0
  5  7  1  0
  7  8  2  0
  8  9  1  0
  9 10  1  0
 10 11  1  0
 11 12  2  0
 12 13  1  0
 13 14  2  0
 14 15  1  0
 15 16  2  0
  8 17  1  0
 17 18  2  0
 18 19  1  0
 19 20  2  0
  3 21  1  0
 21 22  1  0
 22 23  2  0
 23 24  1  0
 24 25  1  0
 25 26  2  0
 26 27  1  0
 27 28  2  0
 28 29  1  0
 29 30  2  0
  9  2  1  0
 16 11  1  0
 26 22  1  0
 20  7  1  0
 30 25  1  0
  3 31  1  0
  4 32  1  0
 10 33  1  0
 10 34  1  0
 12 35  1  0
 13 36  1  0
 14 37  1  0
 15 38  1  0
 16 39  1  0
 17 40  1  0
 18 41  1  0
 19 42  1  0
 20 43  1  0
 21 44  1  0
 21 45  1  0
 23 46  1  0
 24 47  1  0
 27 48  1  0
 28 49  1  0
 29 50  1  0
 30 51  1  0
M  END
>  <Ligand ID>  (1) 
LIG0002691

>  <Ligand>  (1) 
CHEMBL272843

>  <SMILES>  (1) 
O=C1C(NC(=O)c2c(N1Cc1ccccc1)cccc2)Cc1c[nH]c2c1cccc2

>  <CID>  (1) 
44457035.0

>  <ChEMBL ID>  (1) 
nan

>  <InChiKey>  (1) 
YEQKJKZQLXZDFA-UHFFFAOYSA-N

>  <InChi>  (1) 
InChI=1S/C25H21N3O2/c29-24-20-11-5-7-13-23(20)28(16-17-8-2-1-3-9-17)25(30)22(27-24)14-18-15-26-21-12-6-4-10-19(18)21/h1-13,15,22,26H,14,16H2,(H,27,29)

>  <IUPAC Name>  (1) 
1-benzyl-3-(1H-indol-3-ylmethyl)-3,4-dihydro-1,4-benzodiazepine-2,5-dione

$$$$
