
     RDKit          3D

 23 23  0  0  0  0  0  0  0  0999 V2000
    3.4748   -0.2055   -0.0323 C   0  0  0  0  0  0  0  0  0  0  0  0
    1.9829   -0.1620   -0.0358 C   0  0  0  0  0  0  0  0  0  0  0  0
    1.2656   -1.2754   -0.4208 C   0  0  0  0  0  0  0  0  0  0  0  0
   -0.1132   -1.2319   -0.4230 C   0  0  0  0  0  0  0  0  0  0  0  0
   -0.8374   -0.1164   -0.0549 C   0  0  0  0  0  0  0  0  0  0  0  0
   -0.1159    0.9933    0.3288 C   0  0  0  0  0  0  0  0  0  0  0  0
    1.2731    0.9611    0.3350 C   0  0  0  0  0  0  0  0  0  0  0  0
   -0.8108    2.2294    0.7379 C   0  0  0  0  0  0  0  0  0  0  0  0
   -2.2930   -0.1366   -0.0795 C   0  0  0  0  0  0  0  0  0  0  0  0
   -2.9494    0.8821    0.2566 O   0  0  0  0  0  0  0  0  0  0  0  0
   -2.9972   -1.3704   -0.5049 C   0  0  0  0  0  0  0  0  0  0  0  0
    3.8742   -0.3729   -1.0639 H   0  0  0  0  0  0  0  0  0  0  0  0
    3.8557   -1.0321    0.6066 H   0  0  0  0  0  0  0  0  0  0  0  0
    3.8660    0.7448    0.3924 H   0  0  0  0  0  0  0  0  0  0  0  0
    1.8142   -2.1756   -0.7183 H   0  0  0  0  0  0  0  0  0  0  0  0
   -0.6506   -2.1249   -0.7313 H   0  0  0  0  0  0  0  0  0  0  0  0
    1.8363    1.8347    0.6370 H   0  0  0  0  0  0  0  0  0  0  0  0
   -0.0681    3.0421    0.9468 H   0  0  0  0  0  0  0  0  0  0  0  0
   -1.4510    2.0497    1.6167 H   0  0  0  0  0  0  0  0  0  0  0  0
   -1.4090    2.5953   -0.1302 H   0  0  0  0  0  0  0  0  0  0  0  0
   -4.0524   -1.3413   -0.1159 H   0  0  0  0  0  0  0  0  0  0  0  0
   -2.9574   -1.5559   -1.5972 H   0  0  0  0  0  0  0  0  0  0  0  0
   -2.5373   -2.2317    0.0503 H   0  0  0  0  0  0  0  0  0  0  0  0
  1  2  1  0
  2  3  2  0
  3  4  1  0
  4  5  2  0
  5  6  1  0
  6  7  2  0
  6  8  1  0
  5  9  1  0
  9 10  2  0
  9 11  1  0
  7  2  1  0
  1 12  1  0
  1 13  1  0
  1 14  1  0
  3 15  1  0
  4 16  1  0
  7 17  1  0
  8 18  1  0
  8 19  1  0
  8 20  1  0
 11 21  1  0
 11 22  1  0
 11 23  1  0
M  END
>  <Ligand ID>  (1) 
LIG0005004

>  <Ligand>  (1) 
2,4-Dimethylacetophenone

>  <SMILES>  (1) 
Cc1ccc(c(c1)C)C(=O)C

>  <CID>  (1) 
6985.0

>  <ChEMBL ID>  (1) 
nan

>  <InChiKey>  (1) 
HSDSKVWQTONQBJ-UHFFFAOYSA-N

>  <InChi>  (1) 
InChI=1S/C10H12O/c1-7-4-5-10(9(3)11)8(2)6-7/h4-6H,1-3H3

>  <IUPAC Name>  (1) 
1-(2,4-dimethylphenyl)ethanone

$$$$
