
     RDKit          3D

 65 68  0  0  0  0  0  0  0  0999 V2000
    8.7015    1.5488    0.5911 C   0  0  0  0  0  0  0  0  0  0  0  0
    7.6660    2.3963   -0.0656 C   0  0  0  0  0  0  0  0  0  0  0  0
    6.3176    2.1022    0.3170 N   0  0  0  0  0  0  0  0  0  0  0  0
    5.8950    2.2102    1.6830 C   0  0  0  0  0  0  0  0  0  0  0  0
    6.7238    2.5710    2.5645 O   0  0  0  0  0  0  0  0  0  0  0  0
    4.5003    1.9075    2.0934 C   0  0  1  0  0  0  0  0  0  0  0  0
    3.7903    1.5343    0.9700 O   0  0  0  0  0  0  0  0  0  0  0  0
    2.9592    0.4745    1.2755 C   0  0  2  0  0  0  0  0  0  0  0  0
    3.2226    0.0413    2.6923 C   0  0  1  0  0  0  0  0  0  0  0  0
    4.5404    0.7111    3.0124 C   0  0  2  0  0  0  0  0  0  0  0  0
    4.5521    1.1777    4.3246 O   0  0  0  0  0  0  0  0  0  0  0  0
    2.2747    0.5584    3.5804 O   0  0  0  0  0  0  0  0  0  0  0  0
    3.1023   -0.6497    0.3717 N   0  0  0  0  0  0  0  0  0  0  0  0
    4.2077   -1.0270   -0.3065 C   0  0  0  0  0  0  0  0  0  0  0  0
    3.9531   -2.1213   -1.0507 N   0  0  0  0  0  0  0  0  0  0  0  0
    2.6823   -2.4723   -0.8691 C   0  0  0  0  0  0  0  0  0  0  0  0
    2.1581   -1.5537    0.0164 C   0  0  0  0  0  0  0  0  0  0  0  0
    0.8761   -1.5884    0.4428 N   0  0  0  0  0  0  0  0  0  0  0  0
    0.0985   -2.5967   -0.0520 C   0  0  0  0  0  0  0  0  0  0  0  0
   -1.2493   -2.6066    0.4228 N   0  0  0  0  0  0  0  0  0  0  0  0
   -2.2639   -1.8074   -0.2642 C   0  0  0  0  0  0  0  0  0  0  0  0
   -3.6254   -1.9715    0.3716 C   0  0  0  0  0  0  0  0  0  0  0  0
   -4.5894   -1.1251   -0.3699 C   0  0  0  0  0  0  0  0  0  0  0  0
   -5.3057   -1.5483   -1.4661 C   0  0  0  0  0  0  0  0  0  0  0  0
   -6.1997   -0.6919   -2.1144 C   0  0  0  0  0  0  0  0  0  0  0  0
   -6.3503    0.6111   -1.6211 C   0  0  0  0  0  0  0  0  0  0  0  0
   -5.6438    1.0582   -0.5244 C   0  0  0  0  0  0  0  0  0  0  0  0
   -4.7803    0.1656    0.0675 C   0  0  0  0  0  0  0  0  0  0  0  0
   -7.2832    1.5620   -2.2754 C   0  0  0  0  0  0  0  0  0  0  0  0
   -8.6702    1.4284   -1.6439 C   0  0  0  0  0  0  0  0  0  0  0  0
   -9.5811    2.4064   -2.3286 C   0  0  0  0  0  0  0  0  0  0  0  0
   -9.1332    3.1539   -3.2554 O   0  0  0  0  0  0  0  0  0  0  0  0
  -10.9134    2.4757   -1.9298 O   0  0  0  0  0  0  0  0  0  0  0  0
    0.5761   -3.5085   -0.9163 N   0  0  0  0  0  0  0  0  0  0  0  0
    1.8557   -3.4692   -1.3380 C   0  0  0  0  0  0  0  0  0  0  0  0
    2.3611   -4.4421   -2.2590 N   0  0  0  0  0  0  0  0  0  0  0  0
    8.3540    1.1227    1.5572 H   0  0  0  0  0  0  0  0  0  0  0  0
    9.6752    2.0884    0.7122 H   0  0  0  0  0  0  0  0  0  0  0  0
    8.9260    0.6885   -0.0722 H   0  0  0  0  0  0  0  0  0  0  0  0
    7.7364    2.2449   -1.1710 H   0  0  0  0  0  0  0  0  0  0  0  0
    7.9495    3.4547    0.1081 H   0  0  0  0  0  0  0  0  0  0  0  0
    5.5833    1.8016   -0.3566 H   0  0  0  0  0  0  0  0  0  0  0  0
    4.1109    2.8098    2.5780 H   0  0  0  0  0  0  0  0  0  0  0  0
    1.9120    0.8735    1.2685 H   0  0  0  0  0  0  0  0  0  0  0  0
    3.2529   -1.0566    2.8286 H   0  0  0  0  0  0  0  0  0  0  0  0
    5.4080    0.0451    2.8441 H   0  0  0  0  0  0  0  0  0  0  0  0
    5.4344    1.5825    4.5182 H   0  0  0  0  0  0  0  0  0  0  0  0
    2.3912    0.0802    4.4393 H   0  0  0  0  0  0  0  0  0  0  0  0
    5.1834   -0.5617   -0.2960 H   0  0  0  0  0  0  0  0  0  0  0  0
   -1.5622   -3.1610    1.2490 H   0  0  0  0  0  0  0  0  0  0  0  0
   -2.2428   -2.1576   -1.3108 H   0  0  0  0  0  0  0  0  0  0  0  0
   -1.9217   -0.7546   -0.2489 H   0  0  0  0  0  0  0  0  0  0  0  0
   -3.9250   -3.0311    0.3295 H   0  0  0  0  0  0  0  0  0  0  0  0
   -3.5251   -1.6471    1.4266 H   0  0  0  0  0  0  0  0  0  0  0  0
   -5.1626   -2.5725   -1.8237 H   0  0  0  0  0  0  0  0  0  0  0  0
   -6.7672   -1.0123   -2.9742 H   0  0  0  0  0  0  0  0  0  0  0  0
   -5.7644    2.0647   -0.1490 H   0  0  0  0  0  0  0  0  0  0  0  0
   -4.2212    0.5303    0.9421 H   0  0  0  0  0  0  0  0  0  0  0  0
   -7.2927    1.3795   -3.3564 H   0  0  0  0  0  0  0  0  0  0  0  0
   -6.8929    2.6045   -2.1069 H   0  0  0  0  0  0  0  0  0  0  0  0
   -9.0846    0.4333   -1.9005 H   0  0  0  0  0  0  0  0  0  0  0  0
   -8.5762    1.6135   -0.5635 H   0  0  0  0  0  0  0  0  0  0  0  0
  -11.5601    3.1511   -2.3400 H   0  0  0  0  0  0  0  0  0  0  0  0
    1.9782   -5.3940   -2.3533 H   0  0  0  0  0  0  0  0  0  0  0  0
    3.1778   -4.1349   -2.8655 H   0  0  0  0  0  0  0  0  0  0  0  0
  1  2  1  0
  2  3  1  0
  3  4  1  0
  4  5  2  0
  4  6  1  0
  6  7  1  0
  7  8  1  0
  8  9  1  0
  9 10  1  0
 10 11  1  0
  9 12  1  0
  8 13  1  0
 13 14  1  0
 14 15  2  0
 15 16  1  0
 16 17  2  0
 17 18  1  0
 18 19  2  0
 19 20  1  0
 20 21  1  0
 21 22  1  0
 22 23  1  0
 23 24  2  0
 24 25  1  0
 25 26  2  0
 26 27  1  0
 27 28  2  0
 26 29  1  0
 29 30  1  0
 30 31  1  0
 31 32  2  0
 31 33  1  0
 19 34  1  0
 34 35  2  0
 35 36  1  0
 10  6  1  0
 17 13  1  0
 28 23  1  0
 35 16  1  0
  1 37  1  0
  1 38  1  0
  1 39  1  0
  2 40  1  0
  2 41  1  0
  3 42  1  0
  6 43  1  1
  8 44  1  1
  9 45  1  6
 10 46  1  6
 11 47  1  0
 12 48  1  0
 14 49  1  0
 20 50  1  0
 21 51  1  0
 21 52  1  0
 22 53  1  0
 22 54  1  0
 24 55  1  0
 25 56  1  0
 27 57  1  0
 28 58  1  0
 29 59  1  0
 29 60  1  0
 30 61  1  0
 30 62  1  0
 33 63  1  0
 36 64  1  0
 36 65  1  0
M  END
>  <Ligand ID>  (1) 
LIG0001930

>  <Ligand>  (1) 
CGS 21680

>  <SMILES>  (1) 
CCNC(=O)[C@H]1O[C@H]([C@@H]([C@@H]1O)O)n1cnc2c1nc(NCCc1ccc(cc1)CCC(=O)O)nc2N

>  <CID>  (1) 
3086599.0

>  <ChEMBL ID>  (1) 
nan

>  <InChiKey>  (1) 
PAOANWZGLPPROA-RQXXJAGISA-N

>  <InChi>  (1) 
InChI=1S/C23H29N7O6/c1-2-25-21(35)18-16(33)17(34)22(36-18)30-11-27-15-19(24)28-23(29-20(15)30)26-10-9-13-5-3-12(4-6-13)7-8-14(31)32/h3-6,11,16-18,22,33-34H,2,7-10H2,1H3,(H,25,35)(H,31,32)(H3,24,26,28,29)/t16-,17+,18-,22+/m0/s1

>  <IUPAC Name>  (1) 
3-[4-[2-[[6-amino-9-[(2R,3R,4S,5S)-5-(ethylcarbamoyl)-3,4-dihydroxyoxolan-2-yl]purin-2-yl]amino]ethyl]phenyl]propanoic acid

$$$$
