
     RDKit          3D

 22 22  0  0  0  0  0  0  0  0999 V2000
    2.5061    1.0082    0.1811 O   0  0  0  0  0  0  0  0  0  0  0  0
    1.1932    0.4993    0.2901 C   0  0  0  0  0  0  0  0  0  0  0  0
    1.2192   -0.8583   -0.3234 C   0  0  0  0  0  0  0  0  0  0  0  0
    0.0820   -1.7475    0.0401 C   0  0  0  0  0  0  0  0  0  0  0  0
   -1.2689   -1.1522   -0.1637 C   0  0  0  0  0  0  0  0  0  0  0  0
   -1.4944    0.1228    0.5900 C   0  0  0  0  0  0  0  0  0  0  0  0
   -1.1275    1.3296   -0.2230 C   0  0  0  0  0  0  0  0  0  0  0  0
    0.3351    1.4713   -0.4841 C   0  0  0  0  0  0  0  0  0  0  0  0
    3.0061    0.9444    1.0261 H   0  0  0  0  0  0  0  0  0  0  0  0
    0.9748    0.5290    1.3642 H   0  0  0  0  0  0  0  0  0  0  0  0
    1.2361   -0.7413   -1.4181 H   0  0  0  0  0  0  0  0  0  0  0  0
    2.1536   -1.3797   -0.0387 H   0  0  0  0  0  0  0  0  0  0  0  0
    0.1205   -2.1505    1.0698 H   0  0  0  0  0  0  0  0  0  0  0  0
    0.1446   -2.6365   -0.6282 H   0  0  0  0  0  0  0  0  0  0  0  0
   -2.0080   -1.8989    0.2296 H   0  0  0  0  0  0  0  0  0  0  0  0
   -1.5515   -0.9933   -1.2218 H   0  0  0  0  0  0  0  0  0  0  0  0
   -2.5968    0.2086    0.7941 H   0  0  0  0  0  0  0  0  0  0  0  0
   -1.0180    0.0999    1.5918 H   0  0  0  0  0  0  0  0  0  0  0  0
   -1.6335    1.2341   -1.1979 H   0  0  0  0  0  0  0  0  0  0  0  0
   -1.5346    2.2395    0.2557 H   0  0  0  0  0  0  0  0  0  0  0  0
    0.6676    2.4951   -0.1712 H   0  0  0  0  0  0  0  0  0  0  0  0
    0.5942    1.3764   -1.5627 H   0  0  0  0  0  0  0  0  0  0  0  0
  1  2  1  0
  2  3  1  0
  3  4  1  0
  4  5  1  0
  5  6  1  0
  6  7  1  0
  7  8  1  0
  8  2  1  0
  1  9  1  0
  2 10  1  0
  3 11  1  0
  3 12  1  0
  4 13  1  0
  4 14  1  0
  5 15  1  0
  5 16  1  0
  6 17  1  0
  6 18  1  0
  7 19  1  0
  7 20  1  0
  8 21  1  0
  8 22  1  0
M  END
>  <Ligand ID>  (1) 
LIG0000780

>  <Ligand>  (1) 
cycloheptanol

>  <SMILES>  (1) 
OC1CCCCCC1

>  <CID>  (1) 
10399.0

>  <ChEMBL ID>  (1) 
nan

>  <InChiKey>  (1) 
QCRFMSUKWRQZEM-UHFFFAOYSA-N

>  <InChi>  (1) 
InChI=1S/C7H14O/c8-7-5-3-1-2-4-6-7/h7-8H,1-6H2

>  <IUPAC Name>  (1) 
cycloheptanol

$$$$
