
     RDKit          3D

 53 55  0  0  0  0  0  0  0  0999 V2000
   -6.7932   -0.9553   -0.6835 O   0  0  0  0  0  0  0  0  0  0  0  0
   -5.8263   -0.0715   -0.2635 C   0  0  0  0  0  0  0  0  0  0  0  0
   -4.5758   -0.9165    0.1949 C   0  0  0  0  0  0  0  0  0  0  0  0
   -3.6297    0.2132    0.6239 C   0  0  0  0  0  0  0  0  0  0  0  0
   -3.3420    0.9322   -0.5350 O   0  0  0  0  0  0  0  0  0  0  0  0
   -2.3147    2.2193   -0.2655 P   0  0  0  0  0  0  0  0  0  0  0  0
   -1.6913    2.5782   -1.6118 O   0  0  0  0  0  0  0  0  0  0  0  0
   -1.0822    1.8425    0.8087 O   0  0  0  0  0  0  0  0  0  0  0  0
   -3.0988    3.6088    0.2944 O   0  0  0  0  0  0  0  0  0  0  0  0
   -4.1042   -1.5672   -1.0451 C   0  0  0  0  0  0  0  0  0  0  0  0
   -2.9674   -2.4955   -1.0390 C   0  0  0  0  0  0  0  0  0  0  0  0
   -1.6527   -2.0589   -0.5877 C   0  0  0  0  0  0  0  0  0  0  0  0
   -1.1133   -2.2546    0.6641 C   0  0  0  0  0  0  0  0  0  0  0  0
    0.1469   -1.8040    1.0055 C   0  0  0  0  0  0  0  0  0  0  0  0
    0.9465   -1.1256    0.1049 C   0  0  0  0  0  0  0  0  0  0  0  0
    0.4169   -0.9225   -1.1555 C   0  0  0  0  0  0  0  0  0  0  0  0
   -0.8485   -1.3732   -1.5032 C   0  0  0  0  0  0  0  0  0  0  0  0
    2.2577   -0.6569    0.4603 C   0  0  0  0  0  0  0  0  0  0  0  0
    2.8538   -0.8200    1.6925 C   0  0  0  0  0  0  0  0  0  0  0  0
    4.0446   -0.2866    1.7086 O   0  0  0  0  0  0  0  0  0  0  0  0
    4.2524    0.2259    0.5176 C   0  0  0  0  0  0  0  0  0  0  0  0
    3.1789    0.0196   -0.2782 N   0  0  0  0  0  0  0  0  0  0  0  0
    5.4648    0.9239    0.0932 C   0  0  0  0  0  0  0  0  0  0  0  0
    5.6066    1.4376   -1.1860 C   0  0  0  0  0  0  0  0  0  0  0  0
    6.7741    2.0942   -1.5508 C   0  0  0  0  0  0  0  0  0  0  0  0
    7.8011    2.2406   -0.6445 C   0  0  0  0  0  0  0  0  0  0  0  0
    7.6862    1.7376    0.6386 C   0  0  0  0  0  0  0  0  0  0  0  0
    6.5152    1.0899    0.9737 C   0  0  0  0  0  0  0  0  0  0  0  0
    9.0337    2.9127   -0.9697 C   0  0  0  0  0  0  0  0  0  0  0  0
   10.0369    3.4507   -1.2388 N   0  0  0  0  0  0  0  0  0  0  0  0
   -4.9524   -1.7800    1.2564 N   0  0  0  0  0  0  0  0  0  0  0  0
   -7.5272   -0.9894   -0.0018 H   0  0  0  0  0  0  0  0  0  0  0  0
   -6.1456    0.5193    0.5992 H   0  0  0  0  0  0  0  0  0  0  0  0
   -5.4697    0.5834   -1.0631 H   0  0  0  0  0  0  0  0  0  0  0  0
   -2.7547   -0.1410    1.1400 H   0  0  0  0  0  0  0  0  0  0  0  0
   -4.2025    0.9092    1.3054 H   0  0  0  0  0  0  0  0  0  0  0  0
   -1.0025    0.8731    0.8899 H   0  0  0  0  0  0  0  0  0  0  0  0
   -3.8183    3.9108   -0.3139 H   0  0  0  0  0  0  0  0  0  0  0  0
   -4.9863   -2.1691   -1.4685 H   0  0  0  0  0  0  0  0  0  0  0  0
   -3.9264   -0.8107   -1.8667 H   0  0  0  0  0  0  0  0  0  0  0  0
   -2.8735   -2.8879   -2.1138 H   0  0  0  0  0  0  0  0  0  0  0  0
   -3.2289   -3.4513   -0.4889 H   0  0  0  0  0  0  0  0  0  0  0  0
   -1.7174   -2.7809    1.3836 H   0  0  0  0  0  0  0  0  0  0  0  0
    0.5638   -1.9642    1.9986 H   0  0  0  0  0  0  0  0  0  0  0  0
    1.0402   -0.3900   -1.8680 H   0  0  0  0  0  0  0  0  0  0  0  0
   -1.2017   -1.1863   -2.4902 H   0  0  0  0  0  0  0  0  0  0  0  0
    2.4256   -1.3157    2.5517 H   0  0  0  0  0  0  0  0  0  0  0  0
    4.8023    1.3261   -1.9045 H   0  0  0  0  0  0  0  0  0  0  0  0
    6.8978    2.5037   -2.5565 H   0  0  0  0  0  0  0  0  0  0  0  0
    8.4656    1.8309    1.3770 H   0  0  0  0  0  0  0  0  0  0  0  0
    6.4208    0.6884    1.9943 H   0  0  0  0  0  0  0  0  0  0  0  0
   -5.9270   -2.1112    1.1285 H   0  0  0  0  0  0  0  0  0  0  0  0
   -4.8585   -1.3856    2.1996 H   0  0  0  0  0  0  0  0  0  0  0  0
  1  2  1  0
  2  3  1  0
  3  4  1  0
  4  5  1  0
  5  6  1  0
  6  7  2  0
  6  8  1  0
  6  9  1  0
  3 10  1  0
 10 11  1  0
 11 12  1  0
 12 13  2  0
 13 14  1  0
 14 15  2  0
 15 16  1  0
 16 17  2  0
 15 18  1  0
 18 19  2  0
 19 20  1  0
 20 21  1  0
 21 22  2  0
 21 23  1  0
 23 24  2  0
 24 25  1  0
 25 26  2  0
 26 27  1  0
 27 28  2  0
 26 29  1  0
 29 30  3  0
  3 31  1  0
 17 12  1  0
 22 18  1  0
 28 23  1  0
  1 32  1  0
  2 33  1  0
  2 34  1  0
  4 35  1  0
  4 36  1  0
  8 37  1  0
  9 38  1  0
 10 39  1  0
 10 40  1  0
 11 41  1  0
 11 42  1  0
 13 43  1  0
 14 44  1  0
 16 45  1  0
 17 46  1  0
 19 47  1  0
 24 48  1  0
 25 49  1  0
 27 50  1  0
 28 51  1  0
 31 52  1  0
 31 53  1  0
M  END
>  <Ligand ID>  (1) 
LIG0005921

>  <Ligand>  (1) 
CHEMBL3341926

>  <SMILES>  (1) 
OCC(COP(=O)(O)O)(CCc1ccc(cc1)c1coc(n1)c1ccc(cc1)C#N)N

>  <CID>  (1) 
118716148.0

>  <ChEMBL ID>  (1) 
nan

>  <InChiKey>  (1) 
GHEIWXPSGFFNDM-UHFFFAOYSA-N

>  <InChi>  (1) 
InChI=1S/C21H22N3O6P/c22-11-16-3-7-18(8-4-16)20-24-19(12-29-20)17-5-1-15(2-6-17)9-10-21(23,13-25)14-30-31(26,27)28/h1-8,12,25H,9-10,13-14,23H2,(H2,26,27,28)

>  <IUPAC Name>  (1) 
[2-amino-4-[4-[2-(4-cyanophenyl)-1,3-oxazol-4-yl]phenyl]-2-(hydroxymethyl)butyl] dihydrogen phosphate

$$$$
