
     RDKit          3D

 99102  0  0  0  0  0  0  0  0999 V2000
    7.3797   -1.3664   -3.2721 C   0  0  0  0  0  0  0  0  0  0  0  0
    7.0724   -0.5003   -2.0851 C   0  0  0  0  0  0  0  0  0  0  0  0
    7.6618    0.6123   -2.0605 O   0  0  0  0  0  0  0  0  0  0  0  0
    6.1668   -0.9258   -1.0573 N   0  0  0  0  0  0  0  0  0  0  0  0
    5.8600   -0.1383    0.0893 C   0  0  2  0  0  0  0  0  0  0  0  0
    4.5993    0.5939    0.0070 C   0  0  0  0  0  0  0  0  0  0  0  0
    4.4275    1.6694    0.6669 O   0  0  0  0  0  0  0  0  0  0  0  0
    3.5659    0.0946   -0.8143 N   0  0  0  0  0  0  0  0  0  0  0  0
    2.3057    0.6839   -1.0398 C   0  0  2  0  0  0  0  0  0  0  0  0
    1.5369    1.0362    0.2212 C   0  0  0  0  0  0  0  0  0  0  0  0
    1.9829    0.7577    1.3597 O   0  0  0  0  0  0  0  0  0  0  0  0
    0.3050    1.6967   -0.0196 N   0  0  0  0  0  0  0  0  0  0  0  0
   -0.6081    2.1524    1.0186 C   0  0  2  0  0  0  0  0  0  0  0  0
   -1.9256    1.5342    1.0064 C   0  0  0  0  0  0  0  0  0  0  0  0
   -2.7018    1.8077    1.9894 O   0  0  0  0  0  0  0  0  0  0  0  0
   -2.4419    0.6552    0.0091 N   0  0  0  0  0  0  0  0  0  0  0  0
   -3.8029    0.1520    0.1888 C   0  0  2  0  0  0  0  0  0  0  0  0
   -3.9409   -1.3000    0.3844 C   0  0  0  0  0  0  0  0  0  0  0  0
   -5.3912   -1.7057    0.5954 C   0  0  0  0  0  0  0  0  0  0  0  0
   -5.9295   -1.5873    1.8829 C   0  0  0  0  0  0  0  0  0  0  0  0
   -7.2315   -1.9694    2.1286 C   0  0  0  0  0  0  0  0  0  0  0  0
   -7.9518   -2.4592    1.0690 C   0  0  0  0  0  0  0  0  0  0  0  0
   -7.4336   -2.5765   -0.1825 C   0  0  0  0  0  0  0  0  0  0  0  0
   -6.1369   -2.1995   -0.4430 C   0  0  0  0  0  0  0  0  0  0  0  0
   -3.3294   -2.2069   -0.5885 C   0  0  0  0  0  0  0  0  0  0  0  0
   -3.1413   -1.9550   -1.9238 C   0  0  0  0  0  0  0  0  0  0  0  0
   -2.5752   -2.8945   -2.7861 C   0  0  0  0  0  0  0  0  0  0  0  0
   -2.1731   -4.1337   -2.3303 C   0  0  0  0  0  0  0  0  0  0  0  0
   -2.3599   -4.3894   -0.9909 C   0  0  0  0  0  0  0  0  0  0  0  0
   -2.9177   -3.4701   -0.1327 C   0  0  0  0  0  0  0  0  0  0  0  0
   -4.5747    0.7296   -0.9393 C   0  0  0  0  0  0  0  0  0  0  0  0
   -3.9481    1.5094   -1.7413 O   0  0  0  0  0  0  0  0  0  0  0  0
   -5.9414    0.4887   -1.1966 N   0  0  0  0  0  0  0  0  0  0  0  0
   -0.7352    3.6854    0.8846 C   0  0  0  0  0  0  0  0  0  0  0  0
   -1.6557    4.3193    1.8669 C   0  0  0  0  0  0  0  0  0  0  0  0
   -1.6205    5.8218    1.5594 C   0  0  0  0  0  0  0  0  0  0  0  0
   -2.4372    6.5593    2.4187 N   0  0  0  0  0  0  0  0  0  0  0  0
   -3.5910    6.3189    2.8467 C   0  0  0  0  0  0  0  0  0  0  0  0
   -4.3945    5.1835    2.5490 N   0  0  0  0  0  0  0  0  0  0  0  0
   -4.1923    7.2772    3.7344 N   0  0  0  0  0  0  0  0  0  0  0  0
    1.4733   -0.1164   -1.9667 C   0  0  0  0  0  0  0  0  0  0  0  0
    1.3147   -1.5048   -1.3663 C   0  0  0  0  0  0  0  0  0  0  0  0
    2.0811   -2.5617   -1.8326 C   0  0  0  0  0  0  0  0  0  0  0  0
    2.0152   -3.8148   -1.2757 C   0  0  0  0  0  0  0  0  0  0  0  0
    1.1487   -4.0583   -0.1952 C   0  0  0  0  0  0  0  0  0  0  0  0
    0.4140   -2.9841    0.2274 C   0  0  0  0  0  0  0  0  0  0  0  0
    0.4642   -1.7242   -0.3145 C   0  0  0  0  0  0  0  0  0  0  0  0
    7.0329    0.5664    0.6649 C   0  0  0  0  0  0  0  0  0  0  0  0
    8.0337   -0.4924    1.0728 C   0  0  0  0  0  0  0  0  0  0  0  0
    9.0905   -0.9908    0.3765 C   0  0  0  0  0  0  0  0  0  0  0  0
    9.7521   -1.9254    1.1409 N   0  0  0  0  0  0  0  0  0  0  0  0
    9.0909   -1.9969    2.3160 C   0  0  0  0  0  0  0  0  0  0  0  0
    8.0493   -1.1289    2.2779 N   0  0  0  0  0  0  0  0  0  0  0  0
    8.3746   -1.0990   -3.6817 H   0  0  0  0  0  0  0  0  0  0  0  0
    7.3011   -2.4240   -2.9616 H   0  0  0  0  0  0  0  0  0  0  0  0
    6.5724   -1.1699   -4.0343 H   0  0  0  0  0  0  0  0  0  0  0  0
    5.7408   -1.8878   -1.2342 H   0  0  0  0  0  0  0  0  0  0  0  0
    5.6589   -0.9552    0.9152 H   0  0  0  0  0  0  0  0  0  0  0  0
    3.7739   -0.8303   -1.3009 H   0  0  0  0  0  0  0  0  0  0  0  0
    2.4933    1.7067   -1.4389 H   0  0  0  0  0  0  0  0  0  0  0  0
   -0.0155    1.9031   -1.0079 H   0  0  0  0  0  0  0  0  0  0  0  0
   -0.1208    1.9356    1.9796 H   0  0  0  0  0  0  0  0  0  0  0  0
   -1.8473    0.4109   -0.8040 H   0  0  0  0  0  0  0  0  0  0  0  0
   -4.2474    0.6231    1.1316 H   0  0  0  0  0  0  0  0  0  0  0  0
   -3.4823   -1.5244    1.4047 H   0  0  0  0  0  0  0  0  0  0  0  0
   -5.3113   -1.1977    2.6580 H   0  0  0  0  0  0  0  0  0  0  0  0
   -7.6680   -1.8869    3.1169 H   0  0  0  0  0  0  0  0  0  0  0  0
   -8.9858   -2.7689    1.2465 H   0  0  0  0  0  0  0  0  0  0  0  0
   -8.0686   -2.9775   -0.9823 H   0  0  0  0  0  0  0  0  0  0  0  0
   -5.7440   -2.2989   -1.4252 H   0  0  0  0  0  0  0  0  0  0  0  0
   -3.4221   -1.0289   -2.3597 H   0  0  0  0  0  0  0  0  0  0  0  0
   -2.4304   -2.6935   -3.8421 H   0  0  0  0  0  0  0  0  0  0  0  0
   -1.7298   -4.8950   -2.9561 H   0  0  0  0  0  0  0  0  0  0  0  0
   -2.0535   -5.3621   -0.5939 H   0  0  0  0  0  0  0  0  0  0  0  0
   -3.0365   -3.7347    0.9040 H   0  0  0  0  0  0  0  0  0  0  0  0
   -6.6462    0.6627   -0.4796 H   0  0  0  0  0  0  0  0  0  0  0  0
   -6.2324    0.1316   -2.1264 H   0  0  0  0  0  0  0  0  0  0  0  0
    0.3106    4.0644    0.9761 H   0  0  0  0  0  0  0  0  0  0  0  0
   -1.0069    3.9010   -0.1778 H   0  0  0  0  0  0  0  0  0  0  0  0
   -1.3892    4.0685    2.8858 H   0  0  0  0  0  0  0  0  0  0  0  0
   -2.6925    3.9919    1.5856 H   0  0  0  0  0  0  0  0  0  0  0  0
   -1.9560    5.9388    0.4901 H   0  0  0  0  0  0  0  0  0  0  0  0
   -0.5474    6.1619    1.5363 H   0  0  0  0  0  0  0  0  0  0  0  0
   -4.5680    4.3986    3.2128 H   0  0  0  0  0  0  0  0  0  0  0  0
   -4.8742    5.0690    1.6118 H   0  0  0  0  0  0  0  0  0  0  0  0
   -3.6214    7.5225    4.5765 H   0  0  0  0  0  0  0  0  0  0  0  0
   -5.1335    7.6761    3.5195 H   0  0  0  0  0  0  0  0  0  0  0  0
    0.4876    0.3256   -2.1944 H   0  0  0  0  0  0  0  0  0  0  0  0
    1.9630   -0.2864   -2.9431 H   0  0  0  0  0  0  0  0  0  0  0  0
    2.7608   -2.4409   -2.6690 H   0  0  0  0  0  0  0  0  0  0  0  0
    2.5851   -4.6369   -1.6138 H   0  0  0  0  0  0  0  0  0  0  0  0
    1.0824   -5.0448    0.2568 H   0  0  0  0  0  0  0  0  0  0  0  0
   -0.2575   -3.1601    1.0667 H   0  0  0  0  0  0  0  0  0  0  0  0
   -0.1583   -0.9772    0.1040 H   0  0  0  0  0  0  0  0  0  0  0  0
    6.7018    1.0202    1.6567 H   0  0  0  0  0  0  0  0  0  0  0  0
    7.4713    1.3789    0.0929 H   0  0  0  0  0  0  0  0  0  0  0  0
    9.4616   -0.7681   -0.6118 H   0  0  0  0  0  0  0  0  0  0  0  0
    9.3674   -2.6493    3.1398 H   0  0  0  0  0  0  0  0  0  0  0  0
    7.3991   -1.0222    3.0851 H   0  0  0  0  0  0  0  0  0  0  0  0
  1  2  1  0
  2  3  2  0
  2  4  1  0
  4  5  1  0
  5  6  1  0
  6  7  2  0
  6  8  1  0
  8  9  1  0
  9 10  1  0
 10 11  2  0
 10 12  1  0
 12 13  1  0
 13 14  1  0
 14 15  2  0
 14 16  1  0
 16 17  1  0
 17 18  1  0
 18 19  1  0
 19 20  2  0
 20 21  1  0
 21 22  2  0
 22 23  1  0
 23 24  2  0
 18 25  1  0
 25 26  2  0
 26 27  1  0
 27 28  2  0
 28 29  1  0
 29 30  2  0
 17 31  1  0
 31 32  2  0
 31 33  1  0
 13 34  1  0
 34 35  1  0
 35 36  1  0
 36 37  1  0
 37 38  2  3
 38 39  1  0
 38 40  1  0
  9 41  1  0
 41 42  1  0
 42 43  2  0
 43 44  1  0
 44 45  2  0
 45 46  1  0
 46 47  2  0
  5 48  1  0
 48 49  1  0
 49 50  2  0
 50 51  1  0
 51 52  2  0
 52 53  1  0
 24 19  1  0
 30 25  1  0
 47 42  1  0
 53 49  1  0
  1 54  1  0
  1 55  1  0
  1 56  1  0
  4 57  1  0
  5 58  1  1
  8 59  1  0
  9 60  1  6
 12 61  1  0
 13 62  1  1
 16 63  1  0
 17 64  1  1
 18 65  1  0
 20 66  1  0
 21 67  1  0
 22 68  1  0
 23 69  1  0
 24 70  1  0
 26 71  1  0
 27 72  1  0
 28 73  1  0
 29 74  1  0
 30 75  1  0
 33 76  1  0
 33 77  1  0
 34 78  1  0
 34 79  1  0
 35 80  1  0
 35 81  1  0
 36 82  1  0
 36 83  1  0
 39 84  1  0
 39 85  1  0
 40 86  1  0
 40 87  1  0
 41 88  1  0
 41 89  1  0
 43 90  1  0
 44 91  1  0
 45 92  1  0
 46 93  1  0
 47 94  1  0
 48 95  1  0
 48 96  1  0
 50 97  1  0
 52 98  1  0
 53 99  1  0
M  END
>  <Ligand ID>  (1) 
LIG0001408

>  <Ligand>  (1) 
CHEMBL152555

>  <SMILES>  (1) 
CC(=O)N[C@H](C(=O)N[C@H](C(=O)N[C@H](C(=O)N[C@H](C(c1ccccc1)c1ccccc1)C(=O)N)CCCN=C(N)N)Cc1ccccc1)Cc1cnc[nH]1

>  <CID>  (1) 
44369099.0

>  <ChEMBL ID>  (1) 
nan

>  <InChiKey>  (1) 
NHKOQCMKWPGYPI-DKWHRJCPSA-N

>  <InChi>  (1) 
InChI=1S/C38H46N10O5/c1-24(49)45-31(21-28-22-42-23-44-28)37(53)47-30(20-25-12-5-2-6-13-25)36(52)46-29(18-11-19-43-38(40)41)35(51)48-33(34(39)50)32(26-14-7-3-8-15-26)27-16-9-4-10-17-27/h2-10,12-17,22-23,29-33H,11,18-21H2,1H3,(H2,39,50)(H,42,44)(H,45,49)(H,46,52)(H,47,53)(H,48,51)(H4,40,41,43)/t29-,30-,31-,33+/m0/s1

>  <IUPAC Name>  (1) 
(2S)-2-[[(2S)-2-[[(2S)-2-acetamido-3-(1H-imidazol-5-yl)propanoyl]amino]-3-phenylpropanoyl]amino]-N-[(2R)-1-amino-1-oxo-3,3-diphenylpropan-2-yl]-5-(diaminomethylideneamino)pentanamide

$$$$
