
     RDKit          3D

 35 34  0  0  0  0  0  0  0  0999 V2000
   -5.2200   -0.0778   -1.4830 C   0  0  0  0  0  0  0  0  0  0  0  0
   -4.1376    0.3154   -0.4887 C   0  0  0  0  0  0  0  0  0  0  0  0
   -2.8959   -0.5178   -0.6981 C   0  0  0  0  0  0  0  0  0  0  0  0
   -1.8021   -0.1326    0.2938 C   0  0  0  0  0  0  0  0  0  0  0  0
   -0.5739   -0.9626    0.0805 C   0  0  0  0  0  0  0  0  0  0  0  0
    0.4985   -0.5798    1.0654 C   0  0  0  0  0  0  0  0  0  0  0  0
    0.9298    0.8592    0.9693 C   0  0  0  0  0  0  0  0  0  0  0  0
    1.4828    1.1993   -0.3901 C   0  0  0  0  0  0  0  0  0  0  0  0
    2.6767    0.3881   -0.7626 C   0  0  0  0  0  0  0  0  0  0  0  0
    3.8332    0.5494    0.1843 C   0  0  0  0  0  0  0  0  0  0  0  0
    4.9536   -0.3045   -0.2933 C   0  0  0  0  0  0  0  0  0  0  0  0
    6.0283   -0.2989    0.3871 O   0  0  0  0  0  0  0  0  0  0  0  0
    4.9059   -1.0932   -1.4119 O   0  0  0  0  0  0  0  0  0  0  0  0
   -4.9272    0.3437   -2.4694 H   0  0  0  0  0  0  0  0  0  0  0  0
   -5.2470   -1.2061   -1.4954 H   0  0  0  0  0  0  0  0  0  0  0  0
   -6.2100    0.2723   -1.1433 H   0  0  0  0  0  0  0  0  0  0  0  0
   -3.9088    1.3683   -0.6825 H   0  0  0  0  0  0  0  0  0  0  0  0
   -4.4670    0.1579    0.5565 H   0  0  0  0  0  0  0  0  0  0  0  0
   -2.5010   -0.2913   -1.7100 H   0  0  0  0  0  0  0  0  0  0  0  0
   -3.0923   -1.5961   -0.6543 H   0  0  0  0  0  0  0  0  0  0  0  0
   -2.1607   -0.2746    1.3163 H   0  0  0  0  0  0  0  0  0  0  0  0
   -1.5500    0.9392    0.0621 H   0  0  0  0  0  0  0  0  0  0  0  0
   -0.8282   -2.0391    0.2968 H   0  0  0  0  0  0  0  0  0  0  0  0
   -0.1812   -0.8680   -0.9622 H   0  0  0  0  0  0  0  0  0  0  0  0
    1.4152   -1.2029    0.9235 H   0  0  0  0  0  0  0  0  0  0  0  0
    0.0853   -0.7410    2.0874 H   0  0  0  0  0  0  0  0  0  0  0  0
    0.0505    1.4977    1.1716 H   0  0  0  0  0  0  0  0  0  0  0  0
    1.6578    1.0513    1.7833 H   0  0  0  0  0  0  0  0  0  0  0  0
    0.6847    0.9687   -1.1342 H   0  0  0  0  0  0  0  0  0  0  0  0
    1.6976    2.2673   -0.5129 H   0  0  0  0  0  0  0  0  0  0  0  0
    3.0248    0.7773   -1.7566 H   0  0  0  0  0  0  0  0  0  0  0  0
    2.4629   -0.6812   -0.8713 H   0  0  0  0  0  0  0  0  0  0  0  0
    4.1728    1.5998    0.2426 H   0  0  0  0  0  0  0  0  0  0  0  0
    3.5738    0.1352    1.1957 H   0  0  0  0  0  0  0  0  0  0  0  0
    5.5689   -1.8228   -1.6420 H   0  0  0  0  0  0  0  0  0  0  0  0
  1  2  1  0
  2  3  1  0
  3  4  1  0
  4  5  1  0
  5  6  1  0
  6  7  1  0
  7  8  1  0
  8  9  1  0
  9 10  1  0
 10 11  1  0
 11 12  2  0
 11 13  1  0
  1 14  1  0
  1 15  1  0
  1 16  1  0
  2 17  1  0
  2 18  1  0
  3 19  1  0
  3 20  1  0
  4 21  1  0
  4 22  1  0
  5 23  1  0
  5 24  1  0
  6 25  1  0
  6 26  1  0
  7 27  1  0
  7 28  1  0
  8 29  1  0
  8 30  1  0
  9 31  1  0
  9 32  1  0
 10 33  1  0
 10 34  1  0
 13 35  1  0
M  END
>  <Ligand ID>  (1) 
LIG0000309

>  <Ligand>  (1) 
undecanoic acid

>  <SMILES>  (1) 
CCCCCCCCCCC(=O)O

>  <CID>  (1) 
8180.0

>  <ChEMBL ID>  (1) 
nan

>  <InChiKey>  (1) 
ZDPHROOEEOARMN-UHFFFAOYSA-N

>  <InChi>  (1) 
InChI=1S/C11H22O2/c1-2-3-4-5-6-7-8-9-10-11(12)13/h2-10H2,1H3,(H,12,13)

>  <IUPAC Name>  (1) 
undecanoic acid

$$$$
