
     RDKit          3D

 31 32  0  0  0  0  0  0  0  0999 V2000
   -3.6300   -1.3753   -0.7625 C   0  0  0  0  0  0  0  0  0  0  0  0
   -2.9056   -1.6113    0.5426 C   0  0  0  0  0  0  0  0  0  0  0  0
   -1.6476   -1.0180    0.4739 O   0  0  0  0  0  0  0  0  0  0  0  0
   -1.3538    0.3029    0.2764 C   0  0  0  0  0  0  0  0  0  0  0  0
   -2.3121    1.2818    0.1109 C   0  0  0  0  0  0  0  0  0  0  0  0
   -2.0110    2.6131   -0.0880 C   0  0  0  0  0  0  0  0  0  0  0  0
   -0.6787    2.9543   -0.1183 C   0  0  0  0  0  0  0  0  0  0  0  0
    0.2921    1.9809    0.0467 C   0  0  0  0  0  0  0  0  0  0  0  0
    0.0036    0.6514    0.2454 C   0  0  0  0  0  0  0  0  0  0  0  0
    1.0299   -0.4010    0.4244 C   0  0  1  0  0  0  0  0  0  0  0  0
    1.4833   -1.0723   -0.8251 C   0  0  0  0  0  0  0  0  0  0  0  0
    2.4091   -0.1660   -0.0362 C   0  0  2  0  0  0  0  0  0  0  0  0
    3.5870   -0.8404    0.5778 C   0  0  0  0  0  0  0  0  0  0  0  0
    4.8443   -0.4404   -0.0566 N   0  0  0  0  0  0  0  0  0  0  0  0
   -3.7848   -2.3685   -1.2651 H   0  0  0  0  0  0  0  0  0  0  0  0
   -4.6122   -0.8926   -0.5655 H   0  0  0  0  0  0  0  0  0  0  0  0
   -3.0387   -0.7418   -1.4471 H   0  0  0  0  0  0  0  0  0  0  0  0
   -3.4823   -1.2079    1.4096 H   0  0  0  0  0  0  0  0  0  0  0  0
   -2.7376   -2.7024    0.6995 H   0  0  0  0  0  0  0  0  0  0  0  0
   -3.3630    1.0273    0.1339 H   0  0  0  0  0  0  0  0  0  0  0  0
   -2.7798    3.3482   -0.2131 H   0  0  0  0  0  0  0  0  0  0  0  0
   -0.3871    3.9818   -0.2708 H   0  0  0  0  0  0  0  0  0  0  0  0
    1.3089    2.3036    0.0146 H   0  0  0  0  0  0  0  0  0  0  0  0
    0.8136   -1.0643    1.3051 H   0  0  0  0  0  0  0  0  0  0  0  0
    1.6344   -2.1647   -0.7682 H   0  0  0  0  0  0  0  0  0  0  0  0
    1.2423   -0.6969   -1.8235 H   0  0  0  0  0  0  0  0  0  0  0  0
    2.6384    0.8390   -0.4484 H   0  0  0  0  0  0  0  0  0  0  0  0
    3.5016   -1.9349    0.4396 H   0  0  0  0  0  0  0  0  0  0  0  0
    3.6516   -0.6899    1.6763 H   0  0  0  0  0  0  0  0  0  0  0  0
    5.5697   -0.4268    0.6943 H   0  0  0  0  0  0  0  0  0  0  0  0
    4.7143    0.5310   -0.3826 H   0  0  0  0  0  0  0  0  0  0  0  0
  1  2  1  0
  2  3  1  0
  3  4  1  0
  4  5  2  0
  5  6  1  0
  6  7  2  0
  7  8  1  0
  8  9  2  0
  9 10  1  0
 10 11  1  0
 11 12  1  0
 12 13  1  0
 13 14  1  0
  9  4  1  0
 12 10  1  0
  1 15  1  0
  1 16  1  0
  1 17  1  0
  2 18  1  0
  2 19  1  0
  5 20  1  0
  6 21  1  0
  7 22  1  0
  8 23  1  0
 10 24  1  1
 11 25  1  0
 11 26  1  0
 12 27  1  6
 13 28  1  0
 13 29  1  0
 14 30  1  0
 14 31  1  0
M  END
>  <Ligand ID>  (1) 
LIG0004488

>  <Ligand>  (1) 
CHEMBL2022185

>  <SMILES>  (1) 
CCOc1ccccc1[C@H]1C[C@@H]1CN

>  <CID>  (1) 
70683433.0

>  <ChEMBL ID>  (1) 
nan

>  <InChiKey>  (1) 
RQEZVKHCDXBQPK-KOLCDFICSA-N

>  <InChi>  (1) 
InChI=1S/C12H17NO/c1-2-14-12-6-4-3-5-10(12)11-7-9(11)8-13/h3-6,9,11H,2,7-8,13H2,1H3/t9-,11+/m1/s1

>  <IUPAC Name>  (1) 
[(1S,2S)-2-(2-ethoxyphenyl)cyclopropyl]methanamine

$$$$
