
     RDKit          3D

 54 58  0  0  0  0  0  0  0  0999 V2000
    1.7228    1.6858   -0.0726 C   0  0  0  0  0  0  0  0  0  0  0  0
    2.6116    0.5750    0.3648 C   0  0  2  0  0  0  0  0  0  0  0  0
    3.9297    0.6540   -0.4232 C   0  0  0  0  0  0  0  0  0  0  0  0
    4.8134   -0.2525    0.3081 N   0  0  0  0  0  0  0  0  0  0  0  0
    4.3061   -1.4021    1.0294 C   0  0  0  0  0  0  0  0  0  0  0  0
    2.9480   -1.8647    0.5816 C   0  0  0  0  0  0  0  0  0  0  0  0
    2.0903   -0.7480    0.2400 N   0  0  0  0  0  0  0  0  0  0  0  0
    0.7760   -1.0574   -0.1960 C   0  0  0  0  0  0  0  0  0  0  0  0
   -0.0640   -0.0878   -0.5775 N   0  0  0  0  0  0  0  0  0  0  0  0
   -1.3161   -0.3548   -0.9901 C   0  0  0  0  0  0  0  0  0  0  0  0
   -1.8169   -1.6355   -1.0478 C   0  0  0  0  0  0  0  0  0  0  0  0
   -0.9018   -2.6441   -0.6367 C   0  0  0  0  0  0  0  0  0  0  0  0
    0.3351   -2.3250   -0.2344 N   0  0  0  0  0  0  0  0  0  0  0  0
   -3.0020   -2.0251   -1.4245 O   0  0  0  0  0  0  0  0  0  0  0  0
   -4.2284   -1.7848   -1.8688 C   0  0  0  0  0  0  0  0  0  0  0  0
   -5.0327   -0.9305   -0.9667 C   0  0  0  0  0  0  0  0  0  0  0  0
   -5.8354   -1.6139   -0.0425 C   0  0  0  0  0  0  0  0  0  0  0  0
   -6.6032   -0.9126    0.8874 C   0  0  0  0  0  0  0  0  0  0  0  0
   -6.6000    0.4726    0.9300 C   0  0  0  0  0  0  0  0  0  0  0  0
   -5.7982    1.1079    0.0037 C   0  0  0  0  0  0  0  0  0  0  0  0
   -5.0420    0.4185   -0.9128 C   0  0  0  0  0  0  0  0  0  0  0  0
   -4.3265    1.1384   -1.7975 F   0  0  0  0  0  0  0  0  0  0  0  0
   -7.3669    1.2181    1.8639 N   0  0  0  0  0  0  0  0  0  0  0  0
   -7.1683    2.5041    2.1477 C   0  0  0  0  0  0  0  0  0  0  0  0
   -8.0766    2.8675    3.0701 N   0  0  0  0  0  0  0  0  0  0  0  0
   -8.8203    1.8241    3.3484 N   0  0  0  0  0  0  0  0  0  0  0  0
   -8.3822    0.8231    2.6099 N   0  0  0  0  0  0  0  0  0  0  0  0
    6.2190   -0.0078    0.3235 C   0  0  0  0  0  0  0  0  0  0  0  0
    7.1853   -0.7399    0.9424 N   0  0  0  0  0  0  0  0  0  0  0  0
    8.3502   -0.1244    0.6766 N   0  0  0  0  0  0  0  0  0  0  0  0
    8.1175    0.9623   -0.0870 C   0  0  0  0  0  0  0  0  0  0  0  0
    6.8189    0.9782   -0.2651 O   0  0  0  0  0  0  0  0  0  0  0  0
    9.1054    1.9428   -0.6213 C   0  0  0  0  0  0  0  0  0  0  0  0
    9.3496    2.9308    0.3391 F   0  0  0  0  0  0  0  0  0  0  0  0
   10.2499    1.3610   -1.0696 F   0  0  0  0  0  0  0  0  0  0  0  0
    8.5574    2.6227   -1.7082 F   0  0  0  0  0  0  0  0  0  0  0  0
    2.3530    2.6268    0.0022 H   0  0  0  0  0  0  0  0  0  0  0  0
    0.8049    1.8197    0.4950 H   0  0  0  0  0  0  0  0  0  0  0  0
    1.4716    1.6097   -1.1595 H   0  0  0  0  0  0  0  0  0  0  0  0
    2.8928    0.7086    1.4356 H   0  0  0  0  0  0  0  0  0  0  0  0
    4.3120    1.6749   -0.4779 H   0  0  0  0  0  0  0  0  0  0  0  0
    3.7479    0.1951   -1.4224 H   0  0  0  0  0  0  0  0  0  0  0  0
    5.0248   -2.2574    0.9817 H   0  0  0  0  0  0  0  0  0  0  0  0
    4.2109   -1.0979    2.1052 H   0  0  0  0  0  0  0  0  0  0  0  0
    2.4794   -2.3667    1.4585 H   0  0  0  0  0  0  0  0  0  0  0  0
    3.0347   -2.5727   -0.2840 H   0  0  0  0  0  0  0  0  0  0  0  0
   -1.9127    0.4811   -1.2802 H   0  0  0  0  0  0  0  0  0  0  0  0
   -1.2067   -3.6863   -0.6483 H   0  0  0  0  0  0  0  0  0  0  0  0
   -4.1873   -1.2794   -2.9062 H   0  0  0  0  0  0  0  0  0  0  0  0
   -4.8161   -2.7208   -2.1368 H   0  0  0  0  0  0  0  0  0  0  0  0
   -5.8729   -2.7027   -0.0356 H   0  0  0  0  0  0  0  0  0  0  0  0
   -7.2280   -1.4139    1.6083 H   0  0  0  0  0  0  0  0  0  0  0  0
   -5.7769    2.1975    0.0150 H   0  0  0  0  0  0  0  0  0  0  0  0
   -6.4363    3.2085    1.7584 H   0  0  0  0  0  0  0  0  0  0  0  0
  1  2  1  0
  2  3  1  0
  3  4  1  0
  4  5  1  0
  5  6  1  0
  6  7  1  0
  7  8  1  0
  8  9  2  0
  9 10  1  0
 10 11  2  0
 11 12  1  0
 12 13  2  0
 11 14  1  0
 14 15  1  0
 15 16  1  0
 16 17  2  0
 17 18  1  0
 18 19  2  0
 19 20  1  0
 20 21  2  0
 21 22  1  0
 19 23  1  0
 23 24  1  0
 24 25  2  0
 25 26  1  0
 26 27  2  0
  4 28  1  0
 28 29  2  0
 29 30  1  0
 30 31  2  0
 31 32  1  0
 31 33  1  0
 33 34  1  0
 33 35  1  0
 33 36  1  0
  7  2  1  0
 13  8  1  0
 21 16  1  0
 27 23  1  0
 32 28  1  0
  1 37  1  0
  1 38  1  0
  1 39  1  0
  2 40  1  1
  3 41  1  0
  3 42  1  0
  5 43  1  0
  5 44  1  0
  6 45  1  0
  6 46  1  0
 10 47  1  0
 12 48  1  0
 15 49  1  0
 15 50  1  0
 17 51  1  0
 18 52  1  0
 20 53  1  0
 24 54  1  0
M  END
>  <Ligand ID>  (1) 
LIG0005278

>  <Ligand>  (1) 
CHEMBL3358000

>  <SMILES>  (1) 
C[C@@H]1CN(CCN1c1ncc(cn1)OCc1ccc(cc1F)n1cnnn1)c1nnc(o1)C(F)(F)F

>  <CID>  (1) 
118722576.0

>  <ChEMBL ID>  (1) 
nan

>  <InChiKey>  (1) 
AVUCFLHYBFWMSM-GFCCVEGCSA-N

>  <InChi>  (1) 
InChI=1S/C20H18F4N10O2/c1-12-9-32(19-29-28-17(36-19)20(22,23)24)4-5-33(12)18-25-7-15(8-26-18)35-10-13-2-3-14(6-16(13)21)34-11-27-30-31-34/h2-3,6-8,11-12H,4-5,9-10H2,1H3/t12-/m1/s1

>  <IUPAC Name>  (1) 
2-[(3R)-4-[5-[[2-fluoro-4-(tetrazol-1-yl)phenyl]methoxy]pyrimidin-2-yl]-3-methylpiperazin-1-yl]-5-(trifluoromethyl)-1,3,4-oxadiazole

$$$$
