
     RDKit          3D

136138  0  0  0  0  0  0  0  0999 V2000
   -9.0590   -0.7131    1.6620 C   0  0  0  0  0  0  0  0  0  0  0  0
   -8.5495   -0.7500    0.2453 C   0  0  0  0  0  0  0  0  0  0  0  0
   -7.4055    0.2028    0.0421 C   0  0  1  0  0  0  0  0  0  0  0  0
   -6.2508   -0.1876    0.9792 C   0  0  2  0  0  0  0  0  0  0  0  0
   -5.1603    0.7656    0.7556 N   0  0  0  0  0  0  0  0  0  0  0  0
   -5.0003    1.9055    1.6547 C   0  0  0  0  0  0  0  0  0  0  0  0
   -5.8585    1.9539    2.5416 O   0  0  0  0  0  0  0  0  0  0  0  0
   -3.8978    2.8851    1.4701 C   0  0  1  0  0  0  0  0  0  0  0  0
   -2.9509    2.5065    0.4528 N   0  0  0  0  0  0  0  0  0  0  0  0
   -1.5445    2.8912    0.5157 C   0  0  0  0  0  0  0  0  0  0  0  0
   -1.2817    3.6870    1.4082 O   0  0  0  0  0  0  0  0  0  0  0  0
   -0.5884    2.3211   -0.4783 C   0  0  0  0  0  0  0  0  0  0  0  0
    0.5668    3.1835   -0.8028 C   0  0  0  0  0  0  0  0  0  0  0  0
    1.6813    2.3699   -1.9409 S   0  0  0  0  0  0  0  0  0  0  0  0
    3.0577    1.1113   -1.3320 S   0  0  0  0  0  0  0  0  0  0  0  0
    3.1391   -0.5444   -1.0595 C   0  0  0  0  0  0  0  0  0  0  0  0
    2.4307   -1.1357    0.1609 C   0  0  2  0  0  0  0  0  0  0  0  0
    1.0543   -1.3979   -0.1720 N   0  0  0  0  0  0  0  0  0  0  0  0
    0.7369   -2.7977   -0.3720 C   0  0  0  0  0  0  0  0  0  0  0  0
    1.7839   -3.5370   -0.3075 O   0  0  0  0  0  0  0  0  0  0  0  0
   -0.4989   -3.4688   -0.6280 C   0  0  1  0  0  0  0  0  0  0  0  0
   -1.7696   -2.8070   -0.5516 N   0  0  0  0  0  0  0  0  0  0  0  0
   -2.8982   -3.6237   -0.2442 C   0  0  0  0  0  0  0  0  0  0  0  0
   -2.5762   -4.8602   -0.0798 O   0  0  0  0  0  0  0  0  0  0  0  0
   -4.2931   -3.3124   -0.0986 C   0  0  1  0  0  0  0  0  0  0  0  0
   -4.5384   -1.8922    0.0277 N   0  0  0  0  0  0  0  0  0  0  0  0
   -5.7689   -1.5334    0.7025 C   0  0  0  0  0  0  0  0  0  0  0  0
   -6.4522   -2.5104    1.0544 O   0  0  0  0  0  0  0  0  0  0  0  0
   -5.0972   -3.8081   -1.3385 C   0  0  0  0  0  0  0  0  0  0  0  0
   -4.9683   -5.2851   -1.4993 C   0  0  0  0  0  0  0  0  0  0  0  0
   -5.4557   -6.0972   -0.3821 C   0  0  0  0  0  0  0  0  0  0  0  0
   -6.0867   -5.6417    0.6186 O   0  0  0  0  0  0  0  0  0  0  0  0
   -5.2417   -7.5256   -0.3430 N   0  0  0  0  0  0  0  0  0  0  0  0
   -0.4284   -4.2321   -1.9988 C   0  0  0  0  0  0  0  0  0  0  0  0
    0.6462   -5.2271   -1.9433 C   0  0  0  0  0  0  0  0  0  0  0  0
    0.4087   -6.2964   -1.2888 O   0  0  0  0  0  0  0  0  0  0  0  0
    1.9176   -5.1025   -2.5506 N   0  0  0  0  0  0  0  0  0  0  0  0
    2.6035   -0.1528    1.2761 C   0  0  0  0  0  0  0  0  0  0  0  0
    1.6740    0.6242    1.6324 O   0  0  0  0  0  0  0  0  0  0  0  0
    3.8221   -0.0332    2.0109 N   0  0  0  0  0  0  0  0  0  0  0  0
    3.8665    1.0412    3.0200 C   0  0  0  0  0  0  0  0  0  0  0  0
    3.3811    0.4402    4.2808 C   0  0  0  0  0  0  0  0  0  0  0  0
    4.0170   -0.2186    5.2864 C   0  0  0  0  0  0  0  0  0  0  0  0
    3.2881   -0.6482    6.3281 C   0  0  0  0  0  0  0  0  0  0  0  0
    1.9494   -0.4004    6.3228 C   0  0  0  0  0  0  0  0  0  0  0  0
    1.6722    0.5061    4.7348 S   0  0  0  0  0  0  0  0  0  0  0  0
    4.9569   -0.8687    1.9147 C   0  0  0  0  0  0  0  0  0  0  0  0
    6.0634   -0.5640    1.0397 C   0  0  0  0  0  0  0  0  0  0  0  0
    7.0157   -1.4595    1.0343 O   0  0  0  0  0  0  0  0  0  0  0  0
    6.2900    0.5261    0.1993 N   0  0  0  0  0  0  0  0  0  0  0  0
    7.5231    0.6331   -0.6393 C   0  0  2  0  0  0  0  0  0  0  0  0
    8.4100    1.6298   -0.1117 C   0  0  0  0  0  0  0  0  0  0  0  0
    9.6438    1.5841   -0.4043 O   0  0  0  0  0  0  0  0  0  0  0  0
    8.0545    2.7269    0.7493 N   0  0  0  0  0  0  0  0  0  0  0  0
    9.2107    3.5646    1.1264 C   0  0  0  0  0  0  0  0  0  0  0  0
   10.1878    2.7384    1.8852 C   0  0  0  0  0  0  0  0  0  0  0  0
   11.3044    3.2049    2.2943 O   0  0  0  0  0  0  0  0  0  0  0  0
    9.9295    1.3613    2.2030 N   0  0  0  0  0  0  0  0  0  0  0  0
    7.1324    0.7584   -2.0536 C   0  0  0  0  0  0  0  0  0  0  0  0
    8.2248    0.9240   -3.0414 C   0  0  0  0  0  0  0  0  0  0  0  0
    7.5575    0.8881   -4.4613 C   0  0  0  0  0  0  0  0  0  0  0  0
    8.8667    2.3226   -2.9806 C   0  0  0  0  0  0  0  0  0  0  0  0
   -4.4739    4.2730    1.1854 C   0  0  0  0  0  0  0  0  0  0  0  0
   -5.3013    4.3545   -0.0073 C   0  0  0  0  0  0  0  0  0  0  0  0
   -6.6560    4.1114    0.1023 C   0  0  0  0  0  0  0  0  0  0  0  0
   -7.4791    4.1962   -1.0251 C   0  0  0  0  0  0  0  0  0  0  0  0
   -6.9737    4.5202   -2.2729 C   0  0  0  0  0  0  0  0  0  0  0  0
   -5.6195    4.7570   -2.3509 C   0  0  0  0  0  0  0  0  0  0  0  0
   -4.8224    4.6750   -1.2545 C   0  0  0  0  0  0  0  0  0  0  0  0
   -7.8402    4.5866   -3.3463 O   0  0  0  0  0  0  0  0  0  0  0  0
   -7.0160    0.2367   -1.3887 C   0  0  0  0  0  0  0  0  0  0  0  0
   -8.5321   -1.3649    2.3579 H   0  0  0  0  0  0  0  0  0  0  0  0
   -8.9880    0.3723    1.9675 H   0  0  0  0  0  0  0  0  0  0  0  0
  -10.1361   -1.0164    1.6598 H   0  0  0  0  0  0  0  0  0  0  0  0
   -8.3254   -1.7992   -0.0506 H   0  0  0  0  0  0  0  0  0  0  0  0
   -9.4350   -0.4509   -0.3937 H   0  0  0  0  0  0  0  0  0  0  0  0
   -7.7748    1.2048    0.3441 H   0  0  0  0  0  0  0  0  0  0  0  0
   -6.6796   -0.1282    1.9928 H   0  0  0  0  0  0  0  0  0  0  0  0
   -4.4879    0.7207    0.0179 H   0  0  0  0  0  0  0  0  0  0  0  0
   -3.4007    3.0269    2.4547 H   0  0  0  0  0  0  0  0  0  0  0  0
   -3.1576    1.9688   -0.3957 H   0  0  0  0  0  0  0  0  0  0  0  0
   -0.2188    1.3458   -0.1708 H   0  0  0  0  0  0  0  0  0  0  0  0
   -1.1571    2.1178   -1.4397 H   0  0  0  0  0  0  0  0  0  0  0  0
    1.1024    3.4449    0.1506 H   0  0  0  0  0  0  0  0  0  0  0  0
    0.2189    4.1177   -1.3085 H   0  0  0  0  0  0  0  0  0  0  0  0
    4.2106   -0.9582   -1.0735 H   0  0  0  0  0  0  0  0  0  0  0  0
    2.7345   -1.1361   -1.9839 H   0  0  0  0  0  0  0  0  0  0  0  0
    3.0102   -2.0182    0.4238 H   0  0  0  0  0  0  0  0  0  0  0  0
    0.2802   -0.7859   -0.2952 H   0  0  0  0  0  0  0  0  0  0  0  0
   -0.5338   -4.3625    0.1014 H   0  0  0  0  0  0  0  0  0  0  0  0
   -1.9732   -1.8188   -0.6892 H   0  0  0  0  0  0  0  0  0  0  0  0
   -4.7428   -3.7960    0.7935 H   0  0  0  0  0  0  0  0  0  0  0  0
   -3.9749   -1.1253   -0.2835 H   0  0  0  0  0  0  0  0  0  0  0  0
   -4.6164   -3.3289   -2.2223 H   0  0  0  0  0  0  0  0  0  0  0  0
   -6.1384   -3.5063   -1.2975 H   0  0  0  0  0  0  0  0  0  0  0  0
   -3.9183   -5.6358   -1.7308 H   0  0  0  0  0  0  0  0  0  0  0  0
   -5.5484   -5.6360   -2.4135 H   0  0  0  0  0  0  0  0  0  0  0  0
   -5.1079   -8.0251    0.5859 H   0  0  0  0  0  0  0  0  0  0  0  0
   -5.2113   -8.1107   -1.1950 H   0  0  0  0  0  0  0  0  0  0  0  0
   -1.4086   -4.7134   -2.1531 H   0  0  0  0  0  0  0  0  0  0  0  0
   -0.2999   -3.4665   -2.7836 H   0  0  0  0  0  0  0  0  0  0  0  0
    2.7399   -5.6416   -2.1789 H   0  0  0  0  0  0  0  0  0  0  0  0
    2.0300   -4.4774   -3.3680 H   0  0  0  0  0  0  0  0  0  0  0  0
    3.1719    1.8433    2.6974 H   0  0  0  0  0  0  0  0  0  0  0  0
    4.8707    1.4883    3.0821 H   0  0  0  0  0  0  0  0  0  0  0  0
    5.1219   -0.3848    5.2284 H   0  0  0  0  0  0  0  0  0  0  0  0
    3.7461   -1.1953    7.1863 H   0  0  0  0  0  0  0  0  0  0  0  0
    1.1399   -0.6231    7.0066 H   0  0  0  0  0  0  0  0  0  0  0  0
    5.4296   -1.0422    2.9457 H   0  0  0  0  0  0  0  0  0  0  0  0
    4.5425   -1.9198    1.7129 H   0  0  0  0  0  0  0  0  0  0  0  0
    5.5758    1.2827    0.1681 H   0  0  0  0  0  0  0  0  0  0  0  0
    8.0432   -0.3813   -0.4746 H   0  0  0  0  0  0  0  0  0  0  0  0
    7.0940    2.8866    1.0510 H   0  0  0  0  0  0  0  0  0  0  0  0
    8.8935    4.4304    1.7360 H   0  0  0  0  0  0  0  0  0  0  0  0
    9.6984    3.9834    0.2073 H   0  0  0  0  0  0  0  0  0  0  0  0
    8.9251    1.1536    2.4487 H   0  0  0  0  0  0  0  0  0  0  0  0
   10.6792    0.6322    2.1877 H   0  0  0  0  0  0  0  0  0  0  0  0
    6.4651    1.6858   -2.1825 H   0  0  0  0  0  0  0  0  0  0  0  0
    6.4106   -0.0546   -2.3724 H   0  0  0  0  0  0  0  0  0  0  0  0
    9.0107    0.1911   -3.0542 H   0  0  0  0  0  0  0  0  0  0  0  0
    6.5979    1.4128   -4.3840 H   0  0  0  0  0  0  0  0  0  0  0  0
    7.4906   -0.1780   -4.7026 H   0  0  0  0  0  0  0  0  0  0  0  0
    8.3019    1.3576   -5.1174 H   0  0  0  0  0  0  0  0  0  0  0  0
    9.9323    2.2582   -2.8426 H   0  0  0  0  0  0  0  0  0  0  0  0
    8.6286    2.8858   -3.9469 H   0  0  0  0  0  0  0  0  0  0  0  0
    8.3554    2.8910   -2.2074 H   0  0  0  0  0  0  0  0  0  0  0  0
   -3.6439    4.9712    1.1287 H   0  0  0  0  0  0  0  0  0  0  0  0
   -5.0634    4.5257    2.1176 H   0  0  0  0  0  0  0  0  0  0  0  0
   -7.1482    3.8476    1.0197 H   0  0  0  0  0  0  0  0  0  0  0  0
   -8.5351    4.0055   -0.8969 H   0  0  0  0  0  0  0  0  0  0  0  0
   -5.2377    5.0125   -3.3364 H   0  0  0  0  0  0  0  0  0  0  0  0
   -3.7466    4.8673   -1.3168 H   0  0  0  0  0  0  0  0  0  0  0  0
   -8.7708    4.1804   -3.3064 H   0  0  0  0  0  0  0  0  0  0  0  0
   -7.6260   -0.4965   -1.9513 H   0  0  0  0  0  0  0  0  0  0  0  0
   -5.9514   -0.0848   -1.5522 H   0  0  0  0  0  0  0  0  0  0  0  0
   -7.2269    1.2140   -1.8704 H   0  0  0  0  0  0  0  0  0  0  0  0
  1  2  1  0
  2  3  1  0
  3  4  1  0
  4  5  1  0
  5  6  1  0
  6  7  2  0
  6  8  1  0
  8  9  1  0
  9 10  1  0
 10 11  2  0
 10 12  1  0
 12 13  1  0
 13 14  1  0
 14 15  1  0
 15 16  1  0
 16 17  1  0
 17 18  1  0
 18 19  1  0
 19 20  2  0
 19 21  1  0
 21 22  1  0
 22 23  1  0
 23 24  2  0
 23 25  1  0
 25 26  1  0
 26 27  1  0
 27 28  2  0
 25 29  1  0
 29 30  1  0
 30 31  1  0
 31 32  2  0
 31 33  1  0
 21 34  1  0
 34 35  1  0
 35 36  2  0
 35 37  1  0
 17 38  1  0
 38 39  2  0
 38 40  1  0
 40 41  1  0
 41 42  1  0
 42 43  2  0
 43 44  1  0
 44 45  2  0
 45 46  1  0
 40 47  1  0
 47 48  1  0
 48 49  2  0
 48 50  1  0
 50 51  1  0
 51 52  1  0
 52 53  2  0
 52 54  1  0
 54 55  1  0
 55 56  1  0
 56 57  2  0
 56 58  1  0
 51 59  1  0
 59 60  1  0
 60 61  1  0
 60 62  1  0
  8 63  1  0
 63 64  1  0
 64 65  2  0
 65 66  1  0
 66 67  2  0
 67 68  1  0
 68 69  2  0
 67 70  1  0
  3 71  1  0
 27  4  1  0
 46 42  1  0
 69 64  1  0
  1 72  1  0
  1 73  1  0
  1 74  1  0
  2 75  1  0
  2 76  1  0
  3 77  1  1
  4 78  1  1
  5 79  1  0
  8 80  1  1
  9 81  1  0
 12 82  1  0
 12 83  1  0
 13 84  1  0
 13 85  1  0
 16 86  1  0
 16 87  1  0
 17 88  1  1
 18 89  1  0
 21 90  1  1
 22 91  1  0
 25 92  1  1
 26 93  1  0
 29 94  1  0
 29 95  1  0
 30 96  1  0
 30 97  1  0
 33 98  1  0
 33 99  1  0
 34100  1  0
 34101  1  0
 37102  1  0
 37103  1  0
 41104  1  0
 41105  1  0
 43106  1  0
 44107  1  0
 45108  1  0
 47109  1  0
 47110  1  0
 50111  1  0
 51112  1  6
 54113  1  0
 55114  1  0
 55115  1  0
 58116  1  0
 58117  1  0
 59118  1  0
 59119  1  0
 60120  1  0
 61121  1  0
 61122  1  0
 61123  1  0
 62124  1  0
 62125  1  0
 62126  1  0
 63127  1  0
 63128  1  0
 65129  1  0
 66130  1  0
 68131  1  0
 69132  1  0
 70133  1  0
 71134  1  0
 71135  1  0
 71136  1  0
M  END
>  <Ligand ID>  (1) 
LIG0001639

>  <Ligand>  (1) 
CHEMBL3353956

>  <SMILES>  (1) 
CC[C@@H]([C@@H]1NC(=O)[C@@H](NC(=O)CCSSC[C@H](NC(=O)[C@@H](NC(=O)[C@@H](NC1=O)CCC(=O)N)CC(=O)N)C(=O)N(Cc1cccs1)CC(=O)N[C@H](C(=O)NCC(=O)N)CC(C)C)Cc1ccc(cc1)O)C

>  <CID>  (1) 
118719845.0

>  <ChEMBL ID>  (1) 
nan

>  <InChiKey>  (1) 
HMIDMWUTPHTDKB-WRLGQHNVSA-N

>  <InChi>  (1) 
InChI=1S/C45H65N11O12S3/c1-5-25(4)39-44(67)52-29(12-13-34(46)58)41(64)53-32(19-35(47)59)42(65)54-33(23-71-70-16-14-37(61)50-31(43(66)55-39)18-26-8-10-27(57)11-9-26)45(68)56(21-28-7-6-15-69-28)22-38(62)51-30(17-24(2)3)40(63)49-20-36(48)60/h6-11,15,24-25,29-33,39,57H,5,12-14,16-23H2,1-4H3,(H2,46,58)(H2,47,59)(H2,48,60)(H,49,63)(H,50,61)(H,51,62)(H,52,67)(H,53,64)(H,54,65)(H,55,66)/t25-,29-,30-,31-,32-,33-,39-/m0/s1

>  <IUPAC Name>  (1) 
(4R,7S,10S,13S,16S)-7-(2-amino-2-oxoethyl)-N-[2-[[(2S)-1-[(2-amino-2-oxoethyl)amino]-4-methyl-1-oxopentan-2-yl]amino]-2-oxoethyl]-10-(3-amino-3-oxopropyl)-13-[(2S)-butan-2-yl]-16-[(4-hydroxyphenyl)methyl]-6,9,12,15,18-pentaoxo-N-(thiophen-2-ylmethyl)-1,2-dithia-5,8,11,14,17-pentazacycloicosane-4-carboxamide

$$$$
