
     RDKit          3D

 34 36  0  0  0  0  0  0  0  0999 V2000
    4.4752   -2.5325    1.0569 O   0  0  0  0  0  0  0  0  0  0  0  0
    3.5546   -1.6077    0.6403 C   0  0  0  0  0  0  0  0  0  0  0  0
    3.5563   -0.3262    1.1317 C   0  0  0  0  0  0  0  0  0  0  0  0
    2.6246    0.6181    0.7145 C   0  0  0  0  0  0  0  0  0  0  0  0
    1.6762    0.2461   -0.2206 C   0  0  0  0  0  0  0  0  0  0  0  0
    1.6702   -1.0485   -0.7210 C   0  0  0  0  0  0  0  0  0  0  0  0
    2.6036   -1.9485   -0.2848 C   0  0  0  0  0  0  0  0  0  0  0  0
    0.7140   -1.3707   -1.6437 O   0  0  0  0  0  0  0  0  0  0  0  0
    0.7020    1.2399   -0.6542 C   0  0  0  0  0  0  0  0  0  0  0  0
    1.0142    2.3926   -1.2770 N   0  0  0  0  0  0  0  0  0  0  0  0
   -0.0860    3.0794   -1.5409 N   0  0  0  0  0  0  0  0  0  0  0  0
   -1.1757    2.3903   -1.0933 C   0  0  0  0  0  0  0  0  0  0  0  0
   -0.6790    1.2247   -0.5314 C   0  0  0  0  0  0  0  0  0  0  0  0
   -1.3949    0.1318    0.0970 C   0  0  0  0  0  0  0  0  0  0  0  0
   -2.2763   -0.6982   -0.5728 C   0  0  0  0  0  0  0  0  0  0  0  0
   -2.9430   -1.7367    0.0854 C   0  0  0  0  0  0  0  0  0  0  0  0
   -2.7418   -1.9686    1.4348 C   0  0  0  0  0  0  0  0  0  0  0  0
   -1.8540   -1.1355    2.1178 C   0  0  0  0  0  0  0  0  0  0  0  0
   -1.1925   -0.1023    1.4553 C   0  0  0  0  0  0  0  0  0  0  0  0
   -2.5920    2.7904   -1.1817 C   0  0  0  0  0  0  0  0  0  0  0  0
   -3.1626    2.8862    0.0965 F   0  0  0  0  0  0  0  0  0  0  0  0
   -2.6214    4.1060   -1.6705 F   0  0  0  0  0  0  0  0  0  0  0  0
   -3.3142    1.9760   -2.0057 F   0  0  0  0  0  0  0  0  0  0  0  0
    5.4523   -2.5322    0.8026 H   0  0  0  0  0  0  0  0  0  0  0  0
    4.3076   -0.0735    1.8546 H   0  0  0  0  0  0  0  0  0  0  0  0
    2.6147    1.6297    1.0923 H   0  0  0  0  0  0  0  0  0  0  0  0
    2.6136   -2.9580   -0.6636 H   0  0  0  0  0  0  0  0  0  0  0  0
    0.1681   -2.2112   -1.4707 H   0  0  0  0  0  0  0  0  0  0  0  0
   -0.1449    4.0222   -2.0249 H   0  0  0  0  0  0  0  0  0  0  0  0
   -2.4532   -0.5441   -1.6297 H   0  0  0  0  0  0  0  0  0  0  0  0
   -3.6265   -2.3537   -0.5074 H   0  0  0  0  0  0  0  0  0  0  0  0
   -3.2699   -2.7758    1.9154 H   0  0  0  0  0  0  0  0  0  0  0  0
   -1.7179   -1.3394    3.1649 H   0  0  0  0  0  0  0  0  0  0  0  0
   -0.5015    0.5297    2.0338 H   0  0  0  0  0  0  0  0  0  0  0  0
  1  2  1  0
  2  3  2  0
  3  4  1  0
  4  5  2  0
  5  6  1  0
  6  7  2  0
  6  8  1  0
  5  9  1  0
  9 10  2  0
 10 11  1  0
 11 12  1  0
 12 13  2  0
 13 14  1  0
 14 15  2  0
 15 16  1  0
 16 17  2  0
 17 18  1  0
 18 19  2  0
 12 20  1  0
 20 21  1  0
 20 22  1  0
 20 23  1  0
  7  2  1  0
 13  9  1  0
 19 14  1  0
  1 24  1  0
  3 25  1  0
  4 26  1  0
  7 27  1  0
  8 28  1  0
 11 29  1  0
 15 30  1  0
 16 31  1  0
 17 32  1  0
 18 33  1  0
 19 34  1  0
M  END
>  <Ligand ID>  (1) 
LIG0002663

>  <Ligand>  (1) 
394237-55-9

>  <SMILES>  (1) 
Oc1ccc(c(c1)O)c1n[nH]c(c1c1ccccc1)C(F)(F)F

>  <CID>  (1) 
939600.0

>  <ChEMBL ID>  (1) 
nan

>  <InChiKey>  (1) 
YNCLRQFKIQTLSJ-UHFFFAOYSA-N

>  <InChi>  (1) 
InChI=1S/C16H11F3N2O2/c17-16(18,19)15-13(9-4-2-1-3-5-9)14(20-21-15)11-7-6-10(22)8-12(11)23/h1-8,22-23H,(H,20,21)

>  <IUPAC Name>  (1) 
4-[4-phenyl-5-(trifluoromethyl)-1H-pyrazol-3-yl]benzene-1,3-diol

$$$$
