
     RDKit          3D

100103  0  0  0  0  0  0  0  0999 V2000
   -5.2394    5.8851    2.5703 C   0  0  0  0  0  0  0  0  0  0  0  0
   -3.9589    5.5405    1.3512 S   0  0  0  0  0  0  0  0  0  0  0  0
   -2.9648    4.1117    1.8084 C   0  0  0  0  0  0  0  0  0  0  0  0
   -3.6955    2.8358    1.7844 C   0  0  0  0  0  0  0  0  0  0  0  0
   -4.3326    2.4753    2.8379 O   0  0  0  0  0  0  0  0  0  0  0  0
   -3.7116    2.0014    0.6356 N   0  0  0  0  0  0  0  0  0  0  0  0
   -4.4371    0.7243    0.6038 C   0  0  2  0  0  0  0  0  0  0  0  0
   -3.5049   -0.4074    0.4013 C   0  0  0  0  0  0  0  0  0  0  0  0
   -3.8603   -1.6121    0.3327 O   0  0  0  0  0  0  0  0  0  0  0  0
   -2.1314   -0.1191    0.2756 N   0  0  0  0  0  0  0  0  0  0  0  0
   -1.0783   -1.0751    0.0660 C   0  0  2  0  0  0  0  0  0  0  0  0
   -0.0541   -1.0379    1.1469 C   0  0  0  0  0  0  0  0  0  0  0  0
   -0.3062   -0.3072    2.1647 O   0  0  0  0  0  0  0  0  0  0  0  0
    1.1462   -1.7847    1.0345 N   0  0  0  0  0  0  0  0  0  0  0  0
    2.0797   -1.6768    2.1554 C   0  0  2  0  0  0  0  0  0  0  0  0
    3.0387   -0.5676    1.8755 C   0  0  0  0  0  0  0  0  0  0  0  0
    3.9297   -0.3289    2.7316 O   0  0  0  0  0  0  0  0  0  0  0  0
    2.9570    0.1976    0.6943 N   0  0  0  0  0  0  0  0  0  0  0  0
    3.8708    1.3041    0.3879 C   0  0  2  0  0  0  0  0  0  0  0  0
    3.1255    2.5597    0.2905 C   0  0  0  0  0  0  0  0  0  0  0  0
    3.6276    3.7045    0.1826 O   0  0  0  0  0  0  0  0  0  0  0  0
    1.6920    2.5115    0.3172 N   0  0  0  0  0  0  0  0  0  0  0  0
    4.7529    0.9505   -0.7617 C   0  0  0  0  0  0  0  0  0  0  0  0
    5.6714    2.0340   -1.1408 C   0  0  0  0  0  0  0  0  0  0  0  0
    6.9650    2.1911   -0.6401 C   0  0  0  0  0  0  0  0  0  0  0  0
    7.5152    3.3080   -1.1587 N   0  0  0  0  0  0  0  0  0  0  0  0
    6.6249    3.8980   -1.9911 C   0  0  0  0  0  0  0  0  0  0  0  0
    5.4708    3.1148   -1.9905 C   0  0  0  0  0  0  0  0  0  0  0  0
    4.4118    3.5142   -2.7920 C   0  0  0  0  0  0  0  0  0  0  0  0
    4.4525    4.6425   -3.5785 C   0  0  0  0  0  0  0  0  0  0  0  0
    5.5917    5.4184   -3.5783 C   0  0  0  0  0  0  0  0  0  0  0  0
    6.6500    5.0177   -2.7781 C   0  0  0  0  0  0  0  0  0  0  0  0
    2.6845   -2.9879    2.4308 C   0  0  0  0  0  0  0  0  0  0  0  0
    3.6733   -3.0575    3.5548 C   0  0  0  0  0  0  0  0  0  0  0  0
    4.1375   -4.5209    3.6278 C   0  0  0  0  0  0  0  0  0  0  0  0
    3.0334   -5.4189    3.8844 N   0  0  0  0  0  0  0  0  0  0  0  0
    2.8137   -6.4544    3.1634 C   0  0  0  0  0  0  0  0  0  0  0  0
    3.6967   -6.7134    2.0785 N   0  0  0  0  0  0  0  0  0  0  0  0
    1.7113   -7.2778    3.4790 N   0  0  0  0  0  0  0  0  0  0  0  0
   -0.3808   -0.7285   -1.2337 C   0  0  0  0  0  0  0  0  0  0  0  0
   -1.3946   -0.8004   -2.3475 C   0  0  0  0  0  0  0  0  0  0  0  0
   -2.1463    0.3091   -2.7091 C   0  0  0  0  0  0  0  0  0  0  0  0
   -3.0855    0.2255   -3.7387 C   0  0  0  0  0  0  0  0  0  0  0  0
   -3.2805   -0.9761   -4.4178 C   0  0  0  0  0  0  0  0  0  0  0  0
   -2.5206   -2.0619   -4.0385 C   0  0  0  0  0  0  0  0  0  0  0  0
   -1.5825   -2.0116   -3.0233 C   0  0  0  0  0  0  0  0  0  0  0  0
   -5.5338    0.8279   -0.4116 C   0  0  0  0  0  0  0  0  0  0  0  0
   -6.3056   -0.4333   -0.4826 C   0  0  0  0  0  0  0  0  0  0  0  0
   -7.3771   -0.5612    0.3806 C   0  0  0  0  0  0  0  0  0  0  0  0
   -8.1933   -1.6691    0.4242 C   0  0  0  0  0  0  0  0  0  0  0  0
   -7.9046   -2.6933   -0.4513 C   0  0  0  0  0  0  0  0  0  0  0  0
   -6.8438   -2.6107   -1.3327 C   0  0  0  0  0  0  0  0  0  0  0  0
   -6.0455   -1.4633   -1.3369 C   0  0  0  0  0  0  0  0  0  0  0  0
   -8.9066   -4.1414   -0.4527 Cl  0  0  0  0  0  0  0  0  0  0  0  0
   -5.0109    6.8056    3.1727 H   0  0  0  0  0  0  0  0  0  0  0  0
   -6.1625    6.1461    2.0064 H   0  0  0  0  0  0  0  0  0  0  0  0
   -5.4133    5.0583    3.2882 H   0  0  0  0  0  0  0  0  0  0  0  0
   -2.6195    4.3113    2.8672 H   0  0  0  0  0  0  0  0  0  0  0  0
   -2.0331    4.0316    1.2304 H   0  0  0  0  0  0  0  0  0  0  0  0
   -3.2097    2.2621   -0.2310 H   0  0  0  0  0  0  0  0  0  0  0  0
   -4.9061    0.5932    1.5980 H   0  0  0  0  0  0  0  0  0  0  0  0
   -1.8182    0.8965    0.3403 H   0  0  0  0  0  0  0  0  0  0  0  0
   -1.4776   -2.1203   -0.0342 H   0  0  0  0  0  0  0  0  0  0  0  0
    1.3365   -2.3712    0.1962 H   0  0  0  0  0  0  0  0  0  0  0  0
    1.4792   -1.3181    3.0429 H   0  0  0  0  0  0  0  0  0  0  0  0
    2.2002   -0.0491    0.0081 H   0  0  0  0  0  0  0  0  0  0  0  0
    4.5684    1.3583    1.2951 H   0  0  0  0  0  0  0  0  0  0  0  0
    1.1331    2.6879    1.1726 H   0  0  0  0  0  0  0  0  0  0  0  0
    1.2369    2.2835   -0.5957 H   0  0  0  0  0  0  0  0  0  0  0  0
    5.3950    0.0560   -0.5089 H   0  0  0  0  0  0  0  0  0  0  0  0
    4.1581    0.6523   -1.6658 H   0  0  0  0  0  0  0  0  0  0  0  0
    7.4237    1.5080    0.0525 H   0  0  0  0  0  0  0  0  0  0  0  0
    8.4585    3.7202   -0.9993 H   0  0  0  0  0  0  0  0  0  0  0  0
    3.5274    2.8886   -2.7754 H   0  0  0  0  0  0  0  0  0  0  0  0
    3.6306    4.9627   -4.2063 H   0  0  0  0  0  0  0  0  0  0  0  0
    5.6767    6.3304   -4.1854 H   0  0  0  0  0  0  0  0  0  0  0  0
    7.5465    5.6185   -2.7707 H   0  0  0  0  0  0  0  0  0  0  0  0
    1.8473   -3.6872    2.7265 H   0  0  0  0  0  0  0  0  0  0  0  0
    3.1750   -3.4599    1.5361 H   0  0  0  0  0  0  0  0  0  0  0  0
    4.5924   -2.4567    3.3905 H   0  0  0  0  0  0  0  0  0  0  0  0
    3.2481   -2.7819    4.5260 H   0  0  0  0  0  0  0  0  0  0  0  0
    4.5832   -4.8263    2.6478 H   0  0  0  0  0  0  0  0  0  0  0  0
    4.9639   -4.6308    4.3778 H   0  0  0  0  0  0  0  0  0  0  0  0
    4.7025   -6.9089    2.2759 H   0  0  0  0  0  0  0  0  0  0  0  0
    3.3612   -6.7109    1.0949 H   0  0  0  0  0  0  0  0  0  0  0  0
    1.7148   -8.0337    4.1930 H   0  0  0  0  0  0  0  0  0  0  0  0
    0.8246   -7.0997    2.9415 H   0  0  0  0  0  0  0  0  0  0  0  0
    0.0798    0.2598   -1.2335 H   0  0  0  0  0  0  0  0  0  0  0  0
    0.4041   -1.4709   -1.5027 H   0  0  0  0  0  0  0  0  0  0  0  0
   -1.9982    1.2531   -2.1811 H   0  0  0  0  0  0  0  0  0  0  0  0
   -3.6861    1.0680   -4.0441 H   0  0  0  0  0  0  0  0  0  0  0  0
   -3.9922   -1.0903   -5.2166 H   0  0  0  0  0  0  0  0  0  0  0  0
   -2.6201   -3.0395   -4.5274 H   0  0  0  0  0  0  0  0  0  0  0  0
   -0.9915   -2.8899   -2.7413 H   0  0  0  0  0  0  0  0  0  0  0  0
   -5.1456    1.0223   -1.4369 H   0  0  0  0  0  0  0  0  0  0  0  0
   -6.2155    1.6424   -0.1253 H   0  0  0  0  0  0  0  0  0  0  0  0
   -7.6165    0.2484    1.0814 H   0  0  0  0  0  0  0  0  0  0  0  0
   -9.0190   -1.6987    1.1299 H   0  0  0  0  0  0  0  0  0  0  0  0
   -6.6639   -3.4417   -1.9950 H   0  0  0  0  0  0  0  0  0  0  0  0
   -5.2157   -1.3843   -2.0234 H   0  0  0  0  0  0  0  0  0  0  0  0
  1  2  1  0
  2  3  1  0
  3  4  1  0
  4  5  2  0
  4  6  1  0
  6  7  1  0
  7  8  1  0
  8  9  2  0
  8 10  1  0
 10 11  1  0
 11 12  1  0
 12 13  2  0
 12 14  1  0
 14 15  1  0
 15 16  1  0
 16 17  2  0
 16 18  1  0
 18 19  1  0
 19 20  1  0
 20 21  2  0
 20 22  1  0
 19 23  1  0
 23 24  1  0
 24 25  2  0
 25 26  1  0
 26 27  1  0
 27 28  2  0
 28 29  1  0
 29 30  2  0
 30 31  1  0
 31 32  2  0
 15 33  1  0
 33 34  1  0
 34 35  1  0
 35 36  1  0
 36 37  2  3
 37 38  1  0
 37 39  1  0
 11 40  1  0
 40 41  1  0
 41 42  2  0
 42 43  1  0
 43 44  2  0
 44 45  1  0
 45 46  2  0
  7 47  1  0
 47 48  1  0
 48 49  2  0
 49 50  1  0
 50 51  2  0
 51 52  1  0
 52 53  2  0
 51 54  1  0
 28 24  1  0
 46 41  1  0
 53 48  1  0
 32 27  1  0
  1 55  1  0
  1 56  1  0
  1 57  1  0
  3 58  1  0
  3 59  1  0
  6 60  1  0
  7 61  1  1
 10 62  1  0
 11 63  1  6
 14 64  1  0
 15 65  1  1
 18 66  1  0
 19 67  1  1
 22 68  1  0
 22 69  1  0
 23 70  1  0
 23 71  1  0
 25 72  1  0
 26 73  1  0
 29 74  1  0
 30 75  1  0
 31 76  1  0
 32 77  1  0
 33 78  1  0
 33 79  1  0
 34 80  1  0
 34 81  1  0
 35 82  1  0
 35 83  1  0
 38 84  1  0
 38 85  1  0
 39 86  1  0
 39 87  1  0
 40 88  1  0
 40 89  1  0
 42 90  1  0
 43 91  1  0
 44 92  1  0
 45 93  1  0
 46 94  1  0
 47 95  1  0
 47 96  1  0
 49 97  1  0
 50 98  1  0
 52 99  1  0
 53100  1  0
M  END
>  <Ligand ID>  (1) 
LIG0004967

>  <Ligand>  (1) 
CHEMBL362879

>  <SMILES>  (1) 
CSCC(=O)N[C@H](C(=O)N[C@H](C(=O)N[C@H](C(=O)N[C@H](C(=O)N)Cc1c[nH]c2c1cccc2)CCCN=C(N)N)Cc1ccccc1)Cc1ccc(cc1)Cl

>  <CID>  (1) 
44394654.0

>  <ChEMBL ID>  (1) 
nan

>  <InChiKey>  (1) 
PUQCDUHMRXQJAQ-YDPTYEFTSA-N

>  <InChi>  (1) 
InChI=1S/C38H46ClN9O5S/c1-54-22-33(49)45-31(19-24-13-15-26(39)16-14-24)36(52)48-32(18-23-8-3-2-4-9-23)37(53)46-29(12-7-17-43-38(41)42)35(51)47-30(34(40)50)20-25-21-44-28-11-6-5-10-27(25)28/h2-6,8-11,13-16,21,29-32,44H,7,12,17-20,22H2,1H3,(H2,40,50)(H,45,49)(H,46,53)(H,47,51)(H,48,52)(H4,41,42,43)/t29-,30-,31-,32-/m0/s1

>  <IUPAC Name>  (1) 
(2S)-N-[(2S)-1-amino-3-(1H-indol-3-yl)-1-oxopropan-2-yl]-2-[[(2S)-2-[[(2S)-3-(4-chlorophenyl)-2-[(2-methylsulfanylacetyl)amino]propanoyl]amino]-3-phenylpropanoyl]amino]-5-(diaminomethylideneamino)pentanamide

$$$$
