
     RDKit          3D

 66 70  0  0  0  0  0  0  0  0999 V2000
    0.2909   -5.8711   -1.9486 C   0  0  0  0  0  0  0  0  0  0  0  0
   -0.0999   -4.5205   -1.8032 O   0  0  0  0  0  0  0  0  0  0  0  0
    0.7668   -3.4636   -1.8000 C   0  0  0  0  0  0  0  0  0  0  0  0
    2.0127   -3.6569   -1.9330 O   0  0  0  0  0  0  0  0  0  0  0  0
    0.3441   -2.0329   -1.6454 C   0  0  2  0  0  0  0  0  0  0  0  0
    1.5530   -1.1835   -1.6924 C   0  0  0  0  0  0  0  0  0  0  0  0
    1.4529    0.1884   -1.1290 C   0  0  2  0  0  0  0  0  0  0  0  0
    2.7132    0.6292   -0.6678 O   0  0  0  0  0  0  0  0  0  0  0  0
    3.2665    1.7794   -1.2139 C   0  0  0  0  0  0  0  0  0  0  0  0
    2.6776    2.4424   -2.1094 O   0  0  0  0  0  0  0  0  0  0  0  0
    4.5674    2.1927   -0.7055 C   0  0  0  0  0  0  0  0  0  0  0  0
    5.2496    1.5023    0.2701 C   0  0  0  0  0  0  0  0  0  0  0  0
    6.4782    1.8786    0.7610 C   0  0  0  0  0  0  0  0  0  0  0  0
    7.0807    3.0048    0.2658 C   0  0  0  0  0  0  0  0  0  0  0  0
    6.4312    3.7310   -0.7168 C   0  0  0  0  0  0  0  0  0  0  0  0
    5.1928    3.3346   -1.1984 C   0  0  0  0  0  0  0  0  0  0  0  0
    0.4280    0.2710   -0.0216 C   0  0  0  0  0  0  0  0  0  0  0  0
    0.7051    0.9203    0.9419 O   0  0  0  0  0  0  0  0  0  0  0  0
   -0.8330   -0.4710   -0.2455 C   0  0  1  0  0  0  0  0  0  0  0  0
   -0.4955   -1.9100   -0.3892 C   0  0  2  0  0  0  0  0  0  0  0  0
    0.3975   -2.3590    0.7684 C   0  0  0  0  0  0  0  0  0  0  0  0
   -1.6647   -2.8350   -0.4611 C   0  0  0  0  0  0  0  0  0  0  0  0
   -2.9234   -2.3503    0.1671 C   0  0  0  0  0  0  0  0  0  0  0  0
   -3.1219   -0.8795    0.1310 C   0  0  2  0  0  0  0  0  0  0  0  0
   -1.9198   -0.1539    0.7165 C   0  0  1  0  0  0  0  0  0  0  0  0
   -1.7109   -0.6260    2.1210 C   0  0  0  0  0  0  0  0  0  0  0  0
   -2.1707    1.3308    0.7791 C   0  0  0  0  0  0  0  0  0  0  0  0
   -3.4952    1.6834    1.3775 C   0  0  2  0  0  0  0  0  0  0  0  0
   -4.5745    0.9031    0.9729 O   0  0  0  0  0  0  0  0  0  0  0  0
   -4.3794   -0.4489    0.7232 C   0  0  0  0  0  0  0  0  0  0  0  0
   -5.2617   -1.3259    0.9940 O   0  0  0  0  0  0  0  0  0  0  0  0
   -3.7514    3.1347    1.0644 C   0  0  0  0  0  0  0  0  0  0  0  0
   -4.2508    3.6749   -0.0920 C   0  0  0  0  0  0  0  0  0  0  0  0
   -4.3057    5.0500    0.0959 C   0  0  0  0  0  0  0  0  0  0  0  0
   -3.8658    5.3177    1.2925 O   0  0  0  0  0  0  0  0  0  0  0  0
   -3.5241    4.2058    1.9062 C   0  0  0  0  0  0  0  0  0  0  0  0
   -0.4645   -6.4992   -1.4298 H   0  0  0  0  0  0  0  0  0  0  0  0
    1.2342   -5.9778   -1.3620 H   0  0  0  0  0  0  0  0  0  0  0  0
    0.3993   -6.1729   -2.9908 H   0  0  0  0  0  0  0  0  0  0  0  0
   -0.3231   -1.7587   -2.5029 H   0  0  0  0  0  0  0  0  0  0  0  0
    1.8158   -1.0732   -2.7865 H   0  0  0  0  0  0  0  0  0  0  0  0
    2.4741   -1.6814   -1.2761 H   0  0  0  0  0  0  0  0  0  0  0  0
    1.0594    0.8679   -1.9134 H   0  0  0  0  0  0  0  0  0  0  0  0
    4.7947    0.6090    0.6775 H   0  0  0  0  0  0  0  0  0  0  0  0
    6.9426    1.2751    1.5298 H   0  0  0  0  0  0  0  0  0  0  0  0
    8.0415    3.2732    0.6699 H   0  0  0  0  0  0  0  0  0  0  0  0
    6.9443    4.6138   -1.0787 H   0  0  0  0  0  0  0  0  0  0  0  0
    4.7310    3.9370   -1.9642 H   0  0  0  0  0  0  0  0  0  0  0  0
   -1.2069   -0.1342   -1.2436 H   0  0  0  0  0  0  0  0  0  0  0  0
   -0.0489   -3.2429    1.3007 H   0  0  0  0  0  0  0  0  0  0  0  0
    0.6415   -1.5506    1.4635 H   0  0  0  0  0  0  0  0  0  0  0  0
    1.3819   -2.7533    0.4152 H   0  0  0  0  0  0  0  0  0  0  0  0
   -1.4178   -3.8178   -0.0080 H   0  0  0  0  0  0  0  0  0  0  0  0
   -1.8818   -3.0460   -1.5344 H   0  0  0  0  0  0  0  0  0  0  0  0
   -3.0499   -2.7019    1.2121 H   0  0  0  0  0  0  0  0  0  0  0  0
   -3.8044   -2.7992   -0.3713 H   0  0  0  0  0  0  0  0  0  0  0  0
   -3.1618   -0.5842   -0.9590 H   0  0  0  0  0  0  0  0  0  0  0  0
   -0.9191   -0.0252    2.6317 H   0  0  0  0  0  0  0  0  0  0  0  0
   -1.6164   -1.7012    2.2596 H   0  0  0  0  0  0  0  0  0  0  0  0
   -2.6505   -0.3436    2.6763 H   0  0  0  0  0  0  0  0  0  0  0  0
   -1.4082    1.7674    1.4599 H   0  0  0  0  0  0  0  0  0  0  0  0
   -2.0142    1.8210   -0.2138 H   0  0  0  0  0  0  0  0  0  0  0  0
   -3.4322    1.5836    2.4912 H   0  0  0  0  0  0  0  0  0  0  0  0
   -4.5422    3.1320   -0.9720 H   0  0  0  0  0  0  0  0  0  0  0  0
   -4.6542    5.8074   -0.6201 H   0  0  0  0  0  0  0  0  0  0  0  0
   -3.1239    4.0887    2.9084 H   0  0  0  0  0  0  0  0  0  0  0  0
  1  2  1  0
  2  3  1  0
  3  4  2  0
  3  5  1  0
  5  6  1  0
  6  7  1  0
  7  8  1  0
  8  9  1  0
  9 10  2  0
  9 11  1  0
 11 12  2  0
 12 13  1  0
 13 14  2  0
 14 15  1  0
 15 16  2  0
  7 17  1  0
 17 18  2  0
 17 19  1  0
 19 20  1  0
 20 21  1  1
 20 22  1  0
 22 23  1  0
 23 24  1  0
 24 25  1  0
 25 26  1  1
 25 27  1  0
 27 28  1  0
 28 29  1  0
 29 30  1  0
 30 31  2  0
 28 32  1  0
 32 33  1  0
 33 34  2  0
 34 35  1  0
 35 36  1  0
 20  5  1  0
 30 24  1  0
 36 32  2  0
 16 11  1  0
 25 19  1  0
  1 37  1  0
  1 38  1  0
  1 39  1  0
  5 40  1  6
  6 41  1  0
  6 42  1  0
  7 43  1  6
 12 44  1  0
 13 45  1  0
 14 46  1  0
 15 47  1  0
 16 48  1  0
 19 49  1  6
 21 50  1  0
 21 51  1  0
 21 52  1  0
 22 53  1  0
 22 54  1  0
 23 55  1  0
 23 56  1  0
 24 57  1  6
 26 58  1  0
 26 59  1  0
 26 60  1  0
 27 61  1  0
 27 62  1  0
 28 63  1  1
 33 64  1  0
 34 65  1  0
 36 66  1  0
M  END
>  <Ligand ID>  (1) 
LIG0005151

>  <Ligand>  (1) 
herkinorin

>  <SMILES>  (1) 
COC(=O)[C@@H]1C[C@H](OC(=O)c2ccccc2)C(=O)[C@H]2[C@@]1(C)CC[C@@H]1[C@]2(C)C[C@H](OC1=O)c1ccoc1

>  <CID>  (1) 
11431898.0

>  <ChEMBL ID>  (1) 
nan

>  <InChiKey>  (1) 
PYDQMXRFUVDCHC-XAGHGKQISA-N

>  <InChi>  (1) 
InChI=1S/C28H30O8/c1-27-11-9-18-26(32)36-21(17-10-12-34-15-17)14-28(18,2)23(27)22(29)20(13-19(27)25(31)33-3)35-24(30)16-7-5-4-6-8-16/h4-8,10,12,15,18-21,23H,9,11,13-14H2,1-3H3/t18-,19-,20-,21-,23-,27-,28-/m0/s1

>  <IUPAC Name>  (1) 
methyl (2S,4aR,6aR,7R,9S,10aS,10bR)-9-benzoyloxy-2-(furan-3-yl)-6a,10b-dimethyl-4,10-dioxo-2,4a,5,6,7,8,9,10a-octahydro-1H-benzo[f]isochromene-7-carboxylate

$$$$
