
     RDKit          3D

 29 31  0  0  0  0  0  0  0  0999 V2000
   -5.2517    1.8005    0.4121 Cl  0  0  0  0  0  0  0  0  0  0  0  0
   -3.7302    0.9440    0.2100 C   0  0  0  0  0  0  0  0  0  0  0  0
   -2.5063    1.5808    0.3247 C   0  0  0  0  0  0  0  0  0  0  0  0
   -1.3316    0.8684    0.1580 C   0  0  0  0  0  0  0  0  0  0  0  0
   -1.3263   -0.4721   -0.1224 C   0  0  0  0  0  0  0  0  0  0  0  0
   -2.5488   -1.1027   -0.2358 C   0  0  0  0  0  0  0  0  0  0  0  0
   -3.7354   -0.4060   -0.0722 C   0  0  0  0  0  0  0  0  0  0  0  0
   -0.0275   -1.1702   -0.2880 C   0  0  0  0  0  0  0  0  0  0  0  0
    0.6323   -1.1788    1.0558 C   0  0  0  0  0  0  0  0  0  0  0  0
    2.1304   -1.0339    1.0270 C   0  0  0  0  0  0  0  0  0  0  0  0
    2.5658    0.1076    0.1834 C   0  0  0  0  0  0  0  0  0  0  0  0
    1.8825    0.2611   -1.0275 C   0  0  0  0  0  0  0  0  0  0  0  0
    0.7970   -0.6792   -1.4104 C   0  0  0  0  0  0  0  0  0  0  0  0
    2.4438    1.3536   -1.6195 N   0  0  0  0  0  0  0  0  0  0  0  0
    3.4132    1.8524   -0.8346 C   0  0  0  0  0  0  0  0  0  0  0  0
    3.4845    1.0864    0.2682 N   0  0  0  0  0  0  0  0  0  0  0  0
   -2.4686    2.6516    0.5480 H   0  0  0  0  0  0  0  0  0  0  0  0
   -0.4001    1.4344    0.2622 H   0  0  0  0  0  0  0  0  0  0  0  0
   -2.5583   -2.1720   -0.4592 H   0  0  0  0  0  0  0  0  0  0  0  0
   -4.6479   -0.9785   -0.1781 H   0  0  0  0  0  0  0  0  0  0  0  0
   -0.2918   -2.2473   -0.5093 H   0  0  0  0  0  0  0  0  0  0  0  0
    0.2481   -0.3500    1.6895 H   0  0  0  0  0  0  0  0  0  0  0  0
    0.4156   -2.1038    1.6255 H   0  0  0  0  0  0  0  0  0  0  0  0
    2.6382   -1.9815    0.7502 H   0  0  0  0  0  0  0  0  0  0  0  0
    2.4380   -0.8107    2.0713 H   0  0  0  0  0  0  0  0  0  0  0  0
    0.2352   -0.1819   -2.2223 H   0  0  0  0  0  0  0  0  0  0  0  0
    1.3178   -1.5338   -1.9228 H   0  0  0  0  0  0  0  0  0  0  0  0
    2.1455    1.7360   -2.5586 H   0  0  0  0  0  0  0  0  0  0  0  0
    4.0366    2.7255   -1.0490 H   0  0  0  0  0  0  0  0  0  0  0  0
  1  2  1  0
  2  3  2  0
  3  4  1  0
  4  5  2  0
  5  6  1  0
  6  7  2  0
  5  8  1  0
  8  9  1  0
  9 10  1  0
 10 11  1  0
 11 12  2  0
 12 13  1  0
 12 14  1  0
 14 15  1  0
 15 16  2  0
  7  2  1  0
 13  8  1  0
 16 11  1  0
  3 17  1  0
  4 18  1  0
  6 19  1  0
  7 20  1  0
  8 21  1  0
  9 22  1  0
  9 23  1  0
 10 24  1  0
 10 25  1  0
 13 26  1  0
 13 27  1  0
 14 28  1  0
 15 29  1  0
M  END
>  <Ligand ID>  (1) 
LIG0003009

>  <Ligand>  (1) 
CHEMBL466915

>  <SMILES>  (1) 
Clc1ccc(cc1)C1CCc2c(C1)[nH]cn2

>  <CID>  (1) 
44574876.0

>  <ChEMBL ID>  (1) 
nan

>  <InChiKey>  (1) 
UPEUOWBPLHAKGL-UHFFFAOYSA-N

>  <InChi>  (1) 
InChI=1S/C13H13ClN2/c14-11-4-1-9(2-5-11)10-3-6-12-13(7-10)16-8-15-12/h1-2,4-5,8,10H,3,6-7H2,(H,15,16)

>  <IUPAC Name>  (1) 
6-(4-chlorophenyl)-4,5,6,7-tetrahydro-1H-benzimidazole

$$$$
