
     RDKit          3D

 29 30  0  0  0  0  0  0  0  0999 V2000
    4.0158   -1.5566   -0.4578 O   0  0  0  0  0  0  0  0  0  0  0  0
    3.6169   -0.6404    0.2410 C   0  0  0  0  0  0  0  0  0  0  0  0
    2.9540   -0.9462    1.5238 C   0  0  0  0  0  0  0  0  0  0  0  0
    1.6616   -0.3309    1.5764 O   0  0  0  0  0  0  0  0  0  0  0  0
    0.8895    0.1466    0.5103 C   0  0  0  0  0  0  0  0  0  0  0  0
    1.3603    0.8623   -0.5659 C   0  0  0  0  0  0  0  0  0  0  0  0
    2.6537    1.2636   -0.8397 O   0  0  0  0  0  0  0  0  0  0  0  0
    3.8821    0.7148   -0.3542 C   0  0  0  0  0  0  0  0  0  0  0  0
    0.5225    1.2989   -1.5829 C   0  0  0  0  0  0  0  0  0  0  0  0
   -0.8347    0.9905   -1.4888 C   0  0  0  0  0  0  0  0  0  0  0  0
   -1.3051    0.2616   -0.3896 C   0  0  0  0  0  0  0  0  0  0  0  0
   -0.4435   -0.1589    0.6073 C   0  0  0  0  0  0  0  0  0  0  0  0
   -2.7469   -0.0479   -0.3208 C   0  0  0  0  0  0  0  0  0  0  0  0
   -3.0772   -1.5022   -0.3238 C   0  0  0  0  0  0  0  0  0  0  0  0
   -3.4401    0.6662    0.8294 C   0  0  0  0  0  0  0  0  0  0  0  0
    2.8315   -2.0660    1.5827 H   0  0  0  0  0  0  0  0  0  0  0  0
    3.5461   -0.6612    2.4096 H   0  0  0  0  0  0  0  0  0  0  0  0
    4.6319    0.6760   -1.1587 H   0  0  0  0  0  0  0  0  0  0  0  0
    4.2887    1.3397    0.4909 H   0  0  0  0  0  0  0  0  0  0  0  0
    0.9148    1.8662   -2.4300 H   0  0  0  0  0  0  0  0  0  0  0  0
   -1.4806    1.3281   -2.2745 H   0  0  0  0  0  0  0  0  0  0  0  0
   -0.8172   -0.7210    1.4513 H   0  0  0  0  0  0  0  0  0  0  0  0
   -3.2054    0.4059   -1.2456 H   0  0  0  0  0  0  0  0  0  0  0  0
   -3.9900   -1.6845   -0.9325 H   0  0  0  0  0  0  0  0  0  0  0  0
   -3.3702   -1.8059    0.7124 H   0  0  0  0  0  0  0  0  0  0  0  0
   -2.2779   -2.1458   -0.7323 H   0  0  0  0  0  0  0  0  0  0  0  0
   -3.2775    1.7532    0.6320 H   0  0  0  0  0  0  0  0  0  0  0  0
   -3.0002    0.3124    1.7601 H   0  0  0  0  0  0  0  0  0  0  0  0
   -4.5030    0.3815    0.7701 H   0  0  0  0  0  0  0  0  0  0  0  0
  1  2  2  0
  2  3  1  0
  3  4  1  0
  4  5  1  0
  5  6  2  0
  6  7  1  0
  7  8  1  0
  6  9  1  0
  9 10  2  0
 10 11  1  0
 11 12  2  0
 11 13  1  0
 13 14  1  0
 13 15  1  0
  8  2  1  0
 12  5  1  0
  3 16  1  0
  3 17  1  0
  8 18  1  0
  8 19  1  0
  9 20  1  0
 10 21  1  0
 12 22  1  0
 13 23  1  0
 14 24  1  0
 14 25  1  0
 14 26  1  0
 15 27  1  0
 15 28  1  0
 15 29  1  0
M  END
>  <Ligand ID>  (1) 
LIG0000386

>  <Ligand>  (1) 
2H-1,5-Benzodioxepin-3(4H)-one, 7-(1-methylethyl)-

>  <SMILES>  (1) 
O=C1COc2c(OC1)ccc(c2)C(C)C

>  <CID>  (1) 
22934582.0

>  <ChEMBL ID>  (1) 
nan

>  <InChiKey>  (1) 
RFSYHLFFESXTQI-UHFFFAOYSA-N

>  <InChi>  (1) 
InChI=1S/C12H14O3/c1-8(2)9-3-4-11-12(5-9)15-7-10(13)6-14-11/h3-5,8H,6-7H2,1-2H3

>  <IUPAC Name>  (1) 
7-propan-2-yl-1,5-benzodioxepin-3-one

$$$$
