
     RDKit          3D

 16 16  0  0  0  0  0  0  0  0999 V2000
   -2.2179    0.4090    0.4623 C   0  0  0  0  0  0  0  0  0  0  0  0
   -1.4633   -0.4531   -0.5314 C   0  0  0  0  0  0  0  0  0  0  0  0
   -0.0104   -0.2689   -0.2663 C   0  0  0  0  0  0  0  0  0  0  0  0
    0.6994   -1.0593    0.6156 C   0  0  0  0  0  0  0  0  0  0  0  0
    2.0311   -0.8698    0.8409 N   0  0  0  0  0  0  0  0  0  0  0  0
    2.6818    0.1147    0.1888 C   0  0  0  0  0  0  0  0  0  0  0  0
    1.9721    0.9175   -0.7038 C   0  0  0  0  0  0  0  0  0  0  0  0
    0.6477    0.7263   -0.9255 N   0  0  0  0  0  0  0  0  0  0  0  0
   -2.6882   -0.1943    1.2617 H   0  0  0  0  0  0  0  0  0  0  0  0
   -3.0003    0.9770   -0.1181 H   0  0  0  0  0  0  0  0  0  0  0  0
   -1.5991    1.1824    0.9384 H   0  0  0  0  0  0  0  0  0  0  0  0
   -1.7673   -1.5097   -0.3963 H   0  0  0  0  0  0  0  0  0  0  0  0
   -1.6968   -0.1553   -1.5942 H   0  0  0  0  0  0  0  0  0  0  0  0
    0.1940   -1.8550    1.1486 H   0  0  0  0  0  0  0  0  0  0  0  0
    3.7436    0.3137    0.3274 H   0  0  0  0  0  0  0  0  0  0  0  0
    2.4737    1.7250   -1.2480 H   0  0  0  0  0  0  0  0  0  0  0  0
  1  2  1  0
  2  3  1  0
  3  4  2  0
  4  5  1  0
  5  6  2  0
  6  7  1  0
  7  8  2  0
  8  3  1  0
  1  9  1  0
  1 10  1  0
  1 11  1  0
  2 12  1  0
  2 13  1  0
  4 14  1  0
  6 15  1  0
  7 16  1  0
M  END
>  <Ligand ID>  (1) 
LIG0000743

>  <Ligand>  (1) 
2-Ethylpyrazine

>  <SMILES>  (1) 
CCc1cnccn1

>  <CID>  (1) 
26331.0

>  <ChEMBL ID>  (1) 
nan

>  <InChiKey>  (1) 
KVFIJIWMDBAGDP-UHFFFAOYSA-N

>  <InChi>  (1) 
InChI=1S/C6H8N2/c1-2-6-5-7-3-4-8-6/h3-5H,2H2,1H3

>  <IUPAC Name>  (1) 
2-ethylpyrazine

$$$$
