
     RDKit          3D

140146  0  0  0  0  0  0  0  0999 V2000
   12.2662   -2.0220    1.2121 C   0  0  0  0  0  0  0  0  0  0  0  0
   10.9162   -1.8499    0.4724 C   0  0  0  0  0  0  0  0  0  0  0  0
    9.7994   -1.7277    1.4573 C   0  0  0  0  0  0  0  0  0  0  0  0
    8.4526   -1.5411    0.8854 C   0  0  0  0  0  0  0  0  0  0  0  0
    7.9764   -2.6385    0.0312 C   0  0  1  0  0  0  0  0  0  0  0  0
    6.5812   -2.2933   -0.4565 C   0  0  0  0  0  0  0  0  0  0  0  0
    6.4525   -2.3967   -1.7146 O   0  0  0  0  0  0  0  0  0  0  0  0
    5.5483   -1.9020    0.4160 N   0  0  0  0  0  0  0  0  0  0  0  0
    4.2338   -1.6121   -0.2586 C   0  0  1  0  0  0  0  0  0  0  0  0
    3.3193   -2.5727    0.3755 C   0  0  0  0  0  0  0  0  0  0  0  0
    1.9400   -2.6945   -0.0766 C   0  0  0  0  0  0  0  0  0  0  0  0
    1.2452   -1.9124   -0.7218 O   0  0  0  0  0  0  0  0  0  0  0  0
    1.2453   -3.9245    0.2590 N   0  0  0  0  0  0  0  0  0  0  0  0
   -0.1584   -4.1246   -0.1833 C   0  0  0  0  0  0  0  0  0  0  0  0
   -0.6144   -5.4947    0.2200 C   0  0  0  0  0  0  0  0  0  0  0  0
   -1.9792   -5.8981   -0.0852 C   0  0  0  0  0  0  0  0  0  0  0  0
   -2.5538   -5.9527   -1.4143 C   0  0  0  0  0  0  0  0  0  0  0  0
   -2.8476   -4.7452   -2.2122 C   0  0  2  0  0  0  0  0  0  0  0  0
   -3.8364   -3.8901   -1.5714 N   0  0  0  0  0  0  0  0  0  0  0  0
   -3.5794   -2.5449   -1.1814 C   0  0  0  0  0  0  0  0  0  0  0  0
   -2.4325   -2.1381   -1.4221 O   0  0  0  0  0  0  0  0  0  0  0  0
   -4.6372   -1.6929   -0.5178 C   0  0  1  0  0  0  0  0  0  0  0  0
   -4.0387   -0.4431   -0.0782 N   0  0  0  0  0  0  0  0  0  0  0  0
   -4.1465   -0.0453    1.3209 C   0  0  0  0  0  0  0  0  0  0  0  0
   -4.8110   -0.8508    1.9882 O   0  0  0  0  0  0  0  0  0  0  0  0
   -3.5780    1.1220    1.9171 C   0  0  1  0  0  0  0  0  0  0  0  0
   -2.9379    2.1190    1.0705 N   0  0  0  0  0  0  0  0  0  0  0  0
   -1.5335    2.1164    0.9967 C   0  0  0  0  0  0  0  0  0  0  0  0
   -1.0331    1.0921    1.6330 O   0  0  0  0  0  0  0  0  0  0  0  0
   -0.5882    2.9782    0.3747 C   0  0  2  0  0  0  0  0  0  0  0  0
    0.7324    2.2759    0.3672 N   0  0  0  0  0  0  0  0  0  0  0  0
    1.7609    2.6819   -0.5122 C   0  0  0  0  0  0  0  0  0  0  0  0
    1.4747    3.7322   -1.1732 O   0  0  0  0  0  0  0  0  0  0  0  0
    3.0642    2.0837   -0.7413 C   0  0  1  0  0  0  0  0  0  0  0  0
    3.1627    0.6540   -0.8603 N   0  0  0  0  0  0  0  0  0  0  0  0
    4.0558   -0.1707   -0.1169 C   0  0  0  0  0  0  0  0  0  0  0  0
    4.7402    0.4507    0.7193 O   0  0  0  0  0  0  0  0  0  0  0  0
    3.9472    2.8494   -1.7165 C   0  0  0  0  0  0  0  0  0  0  0  0
    4.2144    4.1887   -1.1296 C   0  0  0  0  0  0  0  0  0  0  0  0
    3.8110    4.7077    0.0470 N   0  0  0  0  0  0  0  0  0  0  0  0
    4.2903    5.9706    0.1989 C   0  0  0  0  0  0  0  0  0  0  0  0
    5.0224    6.2714   -0.9117 N   0  0  0  0  0  0  0  0  0  0  0  0
    4.9752    5.2013   -1.7087 C   0  0  0  0  0  0  0  0  0  0  0  0
   -0.3067    4.2808    1.1365 C   0  0  0  0  0  0  0  0  0  0  0  0
   -1.4903    5.1335    1.3179 C   0  0  0  0  0  0  0  0  0  0  0  0
   -1.8080    6.0204    0.2842 C   0  0  0  0  0  0  0  0  0  0  0  0
   -2.8897    6.8676    0.3785 C   0  0  0  0  0  0  0  0  0  0  0  0
   -3.6977    6.8661    1.5002 C   0  0  0  0  0  0  0  0  0  0  0  0
   -3.3740    5.9878    2.5104 C   0  0  0  0  0  0  0  0  0  0  0  0
   -2.2901    5.1256    2.4400 C   0  0  0  0  0  0  0  0  0  0  0  0
   -4.1914    6.0009    3.6353 C   0  0  0  0  0  0  0  0  0  0  0  0
   -5.2778    6.8461    3.7528 C   0  0  0  0  0  0  0  0  0  0  0  0
   -5.5912    7.7312    2.7154 C   0  0  0  0  0  0  0  0  0  0  0  0
   -4.7717    7.7190    1.5852 C   0  0  0  0  0  0  0  0  0  0  0  0
   -3.9714    2.8698    0.4625 C   0  0  0  0  0  0  0  0  0  0  0  0
   -5.1473    2.7809    1.4244 C   0  0  0  0  0  0  0  0  0  0  0  0
   -4.6578    1.9518    2.5836 C   0  0  0  0  0  0  0  0  0  0  0  0
   -5.7117   -1.4996   -1.5389 C   0  0  0  0  0  0  0  0  0  0  0  0
   -6.8593   -0.7025   -1.0821 C   0  0  0  0  0  0  0  0  0  0  0  0
   -7.1152    0.6195   -1.3804 C   0  0  0  0  0  0  0  0  0  0  0  0
   -8.2491    1.0215   -0.7821 N   0  0  0  0  0  0  0  0  0  0  0  0
   -8.7425   -0.0398   -0.0872 C   0  0  0  0  0  0  0  0  0  0  0  0
   -7.9054   -1.1201   -0.2532 C   0  0  0  0  0  0  0  0  0  0  0  0
   -8.2048   -2.3337    0.3602 C   0  0  0  0  0  0  0  0  0  0  0  0
   -9.3366   -2.4977    1.1470 C   0  0  0  0  0  0  0  0  0  0  0  0
  -10.1745   -1.4056    1.3101 C   0  0  0  0  0  0  0  0  0  0  0  0
   -9.8753   -0.2029    0.7011 C   0  0  0  0  0  0  0  0  0  0  0  0
   -3.4964   -5.2199   -3.4923 C   0  0  0  0  0  0  0  0  0  0  0  0
   -2.7978   -5.9814   -4.2194 O   0  0  0  0  0  0  0  0  0  0  0  0
   -4.7964   -4.8524   -3.8741 N   0  0  0  0  0  0  0  0  0  0  0  0
    8.7360   -2.9130   -1.1699 N   0  0  0  0  0  0  0  0  0  0  0  0
    8.9737   -4.2428   -1.6290 C   0  0  0  0  0  0  0  0  0  0  0  0
    8.5418   -5.2593   -1.0228 O   0  0  0  0  0  0  0  0  0  0  0  0
    9.7799   -4.3747   -2.8904 C   0  0  0  0  0  0  0  0  0  0  0  0
   12.3983   -1.1492    1.8641 H   0  0  0  0  0  0  0  0  0  0  0  0
   13.0289   -2.1121    0.4163 H   0  0  0  0  0  0  0  0  0  0  0  0
   12.2130   -2.9429    1.8537 H   0  0  0  0  0  0  0  0  0  0  0  0
   11.0163   -0.9124   -0.1089 H   0  0  0  0  0  0  0  0  0  0  0  0
   10.8241   -2.7571   -0.1645 H   0  0  0  0  0  0  0  0  0  0  0  0
    9.7592   -2.6252    2.1310 H   0  0  0  0  0  0  0  0  0  0  0  0
   10.0623   -0.8561    2.1154 H   0  0  0  0  0  0  0  0  0  0  0  0
    8.4217   -0.5566    0.3447 H   0  0  0  0  0  0  0  0  0  0  0  0
    7.7340   -1.4608    1.7508 H   0  0  0  0  0  0  0  0  0  0  0  0
    7.8421   -3.5659    0.5945 H   0  0  0  0  0  0  0  0  0  0  0  0
    5.6556   -1.8111    1.4350 H   0  0  0  0  0  0  0  0  0  0  0  0
    4.4018   -1.8573   -1.3384 H   0  0  0  0  0  0  0  0  0  0  0  0
    3.7852   -3.5959    0.2185 H   0  0  0  0  0  0  0  0  0  0  0  0
    3.3211   -2.4046    1.4927 H   0  0  0  0  0  0  0  0  0  0  0  0
    1.7722   -4.5983    0.7902 H   0  0  0  0  0  0  0  0  0  0  0  0
   -0.2391   -3.8789   -1.2446 H   0  0  0  0  0  0  0  0  0  0  0  0
   -0.8214   -3.4065    0.3698 H   0  0  0  0  0  0  0  0  0  0  0  0
   -0.5275   -5.4844    1.3596 H   0  0  0  0  0  0  0  0  0  0  0  0
    0.1658   -6.2705   -0.0338 H   0  0  0  0  0  0  0  0  0  0  0  0
   -2.1157   -6.9460    0.3711 H   0  0  0  0  0  0  0  0  0  0  0  0
   -2.6581   -5.3028    0.6272 H   0  0  0  0  0  0  0  0  0  0  0  0
   -1.9695   -6.6658   -2.0827 H   0  0  0  0  0  0  0  0  0  0  0  0
   -3.5445   -6.5119   -1.3251 H   0  0  0  0  0  0  0  0  0  0  0  0
   -2.0235   -4.1256   -2.5422 H   0  0  0  0  0  0  0  0  0  0  0  0
   -4.7798   -4.2260   -1.3725 H   0  0  0  0  0  0  0  0  0  0  0  0
   -5.0827   -2.2542    0.3210 H   0  0  0  0  0  0  0  0  0  0  0  0
   -3.5297    0.2200   -0.6488 H   0  0  0  0  0  0  0  0  0  0  0  0
   -2.8903    0.8520    2.7756 H   0  0  0  0  0  0  0  0  0  0  0  0
   -0.8543    3.3077   -0.6300 H   0  0  0  0  0  0  0  0  0  0  0  0
    0.9434    1.5032    0.9882 H   0  0  0  0  0  0  0  0  0  0  0  0
    3.6360    2.3549    0.2666 H   0  0  0  0  0  0  0  0  0  0  0  0
    2.5713    0.1777   -1.5338 H   0  0  0  0  0  0  0  0  0  0  0  0
    3.5183    2.9746   -2.7100 H   0  0  0  0  0  0  0  0  0  0  0  0
    4.9238    2.3085   -1.7139 H   0  0  0  0  0  0  0  0  0  0  0  0
    3.2176    4.2691    0.7921 H   0  0  0  0  0  0  0  0  0  0  0  0
    4.1220    6.6341    1.0633 H   0  0  0  0  0  0  0  0  0  0  0  0
    5.4894    5.1840   -2.6808 H   0  0  0  0  0  0  0  0  0  0  0  0
    0.1904    4.0508    2.1045 H   0  0  0  0  0  0  0  0  0  0  0  0
    0.4365    4.8407    0.5385 H   0  0  0  0  0  0  0  0  0  0  0  0
   -1.2262    6.0810   -0.6226 H   0  0  0  0  0  0  0  0  0  0  0  0
   -3.1399    7.5556   -0.4189 H   0  0  0  0  0  0  0  0  0  0  0  0
   -2.0556    4.4397    3.2555 H   0  0  0  0  0  0  0  0  0  0  0  0
   -3.9686    5.3122    4.4644 H   0  0  0  0  0  0  0  0  0  0  0  0
   -5.9239    6.8588    4.6376 H   0  0  0  0  0  0  0  0  0  0  0  0
   -6.4261    8.4067    2.7608 H   0  0  0  0  0  0  0  0  0  0  0  0
   -4.9520    8.3730    0.7396 H   0  0  0  0  0  0  0  0  0  0  0  0
   -4.2746    2.4700   -0.5462 H   0  0  0  0  0  0  0  0  0  0  0  0
   -3.8084    3.9293    0.2872 H   0  0  0  0  0  0  0  0  0  0  0  0
   -5.3791    3.7918    1.8632 H   0  0  0  0  0  0  0  0  0  0  0  0
   -6.0749    2.4228    0.9603 H   0  0  0  0  0  0  0  0  0  0  0  0
   -4.1620    2.5839    3.3610 H   0  0  0  0  0  0  0  0  0  0  0  0
   -5.4123    1.2687    3.0062 H   0  0  0  0  0  0  0  0  0  0  0  0
   -5.2527   -1.0090   -2.4271 H   0  0  0  0  0  0  0  0  0  0  0  0
   -6.1012   -2.4899   -1.9177 H   0  0  0  0  0  0  0  0  0  0  0  0
   -6.4406    1.1963   -2.0251 H   0  0  0  0  0  0  0  0  0  0  0  0
   -8.6564    1.9676   -0.8512 H   0  0  0  0  0  0  0  0  0  0  0  0
   -7.5420   -3.1813    0.2263 H   0  0  0  0  0  0  0  0  0  0  0  0
   -9.5822   -3.4434    1.6323 H   0  0  0  0  0  0  0  0  0  0  0  0
  -11.0738   -1.4481    1.9114 H   0  0  0  0  0  0  0  0  0  0  0  0
  -10.5530    0.6494    0.8453 H   0  0  0  0  0  0  0  0  0  0  0  0
   -5.5221   -4.4469   -3.2603 H   0  0  0  0  0  0  0  0  0  0  0  0
   -5.0746   -4.9950   -4.8766 H   0  0  0  0  0  0  0  0  0  0  0  0
    9.1217   -2.0944   -1.7165 H   0  0  0  0  0  0  0  0  0  0  0  0
   10.6236   -3.6626   -2.8562 H   0  0  0  0  0  0  0  0  0  0  0  0
    9.0877   -4.1155   -3.7355 H   0  0  0  0  0  0  0  0  0  0  0  0
   10.1316   -5.4136   -2.9672 H   0  0  0  0  0  0  0  0  0  0  0  0
  1  2  1  0
  2  3  1  0
  3  4  1  0
  4  5  1  0
  5  6  1  0
  6  7  2  0
  6  8  1  0
  8  9  1  0
  9 10  1  0
 10 11  1  0
 11 12  2  0
 11 13  1  0
 13 14  1  0
 14 15  1  0
 15 16  1  0
 16 17  1  0
 17 18  1  0
 18 19  1  0
 19 20  1  0
 20 21  2  0
 20 22  1  0
 22 23  1  0
 23 24  1  0
 24 25  2  0
 24 26  1  0
 26 27  1  0
 27 28  1  0
 28 29  2  0
 28 30  1  0
 30 31  1  0
 31 32  1  0
 32 33  2  0
 32 34  1  0
 34 35  1  0
 35 36  1  0
 36 37  2  0
 34 38  1  0
 38 39  1  0
 39 40  1  0
 40 41  1  0
 41 42  2  0
 42 43  1  0
 30 44  1  0
 44 45  1  0
 45 46  2  0
 46 47  1  0
 47 48  2  0
 48 49  1  0
 49 50  2  0
 49 51  1  0
 51 52  2  0
 52 53  1  0
 53 54  2  0
 27 55  1  0
 55 56  1  0
 56 57  1  0
 22 58  1  0
 58 59  1  0
 59 60  2  0
 60 61  1  0
 61 62  1  0
 62 63  2  0
 63 64  1  0
 64 65  2  0
 65 66  1  0
 66 67  2  0
 18 68  1  0
 68 69  2  0
 68 70  1  0
  5 71  1  0
 71 72  1  0
 72 73  2  0
 72 74  1  0
 36  9  1  0
 43 39  2  0
 50 45  1  0
 63 59  1  0
 57 26  1  0
 67 62  1  0
 54 48  1  0
  1 75  1  0
  1 76  1  0
  1 77  1  0
  2 78  1  0
  2 79  1  0
  3 80  1  0
  3 81  1  0
  4 82  1  0
  4 83  1  0
  5 84  1  1
  8 85  1  0
  9 86  1  6
 10 87  1  0
 10 88  1  0
 13 89  1  0
 14 90  1  0
 14 91  1  0
 15 92  1  0
 15 93  1  0
 16 94  1  0
 16 95  1  0
 17 96  1  0
 17 97  1  0
 18 98  1  6
 19 99  1  0
 22100  1  1
 23101  1  0
 26102  1  1
 30103  1  6
 31104  1  0
 34105  1  1
 35106  1  0
 38107  1  0
 38108  1  0
 40109  1  0
 41110  1  0
 43111  1  0
 44112  1  0
 44113  1  0
 46114  1  0
 47115  1  0
 50116  1  0
 51117  1  0
 52118  1  0
 53119  1  0
 54120  1  0
 55121  1  0
 55122  1  0
 56123  1  0
 56124  1  0
 57125  1  0
 57126  1  0
 58127  1  0
 58128  1  0
 60129  1  0
 61130  1  0
 64131  1  0
 65132  1  0
 66133  1  0
 67134  1  0
 70135  1  0
 70136  1  0
 71137  1  0
 74138  1  0
 74139  1  0
 74140  1  0
M  END
>  <Ligand ID>  (1) 
LIG0001785

>  <Ligand>  (1) 
CHEMBL194552

>  <SMILES>  (1) 
CCCC[C@@H](C(=O)N[C@H]1CC(=O)NCCCC[C@H](NC(=O)[C@@H](NC(=O)[C@H]2N(C(=O)[C@H](NC(=O)[C@@H](NC1=O)Cc1[nH]cnc1)Cc1ccc3c(c1)cccc3)CCC2)Cc1c[nH]c2c1cccc2)C(=O)N)NC(=O)C

>  <CID>  (1) 
16724004.0

>  <ChEMBL ID>  (1) 
nan

>  <InChiKey>  (1) 
NUEQNUVEEKTGQM-GTBIJRGCSA-N

>  <InChi>  (1) 
InChI=1S/C53H66N12O9/c1-3-4-15-40(59-31(2)66)48(69)62-43-27-46(67)56-21-10-9-17-39(47(54)68)60-49(70)41(25-35-28-57-38-16-8-7-14-37(35)38)63-52(73)45-18-11-22-65(45)53(74)44(24-32-19-20-33-12-5-6-13-34(33)23-32)64-50(71)42(61-51(43)72)26-36-29-55-30-58-36/h5-8,12-14,16,19-20,23,28-30,39-45,57H,3-4,9-11,15,17-18,21-22,24-27H2,1-2H3,(H2,54,68)(H,55,58)(H,56,67)(H,59,66)(H,60,70)(H,61,72)(H,62,69)(H,63,73)(H,64,71)/t39-,40-,41-,42-,43-,44+,45-/m0/s1

>  <IUPAC Name>  (1) 
(3R,6S,9S,17S,20S,23S)-9-[[(2S)-2-acetamidohexanoyl]amino]-6-(1H-imidazol-5-ylmethyl)-20-(1H-indol-3-ylmethyl)-3-(naphthalen-2-ylmethyl)-2,5,8,11,19,22-hexaoxo-1,4,7,12,18,21-hexazabicyclo[21.3.0]hexacosane-17-carboxamide

$$$$
