
     RDKit          3D

 65 68  0  0  0  0  0  0  0  0999 V2000
   -1.5695    5.0085   -2.5230 C   0  0  0  0  0  0  0  0  0  0  0  0
   -2.0632    5.0815   -1.1943 O   0  0  0  0  0  0  0  0  0  0  0  0
   -2.1617    3.9412   -0.4131 C   0  0  0  0  0  0  0  0  0  0  0  0
   -1.7790    2.7063   -0.9145 C   0  0  0  0  0  0  0  0  0  0  0  0
   -1.8706    1.5443   -0.1437 C   0  0  0  0  0  0  0  0  0  0  0  0
   -2.3525    1.6858    1.1191 C   0  0  0  0  0  0  0  0  0  0  0  0
   -2.7398    2.9119    1.6369 C   0  0  0  0  0  0  0  0  0  0  0  0
   -2.6495    4.0628    0.8744 C   0  0  0  0  0  0  0  0  0  0  0  0
   -3.0156    5.3114    1.3239 O   0  0  0  0  0  0  0  0  0  0  0  0
   -3.5247    5.5922    2.5983 C   0  0  0  0  0  0  0  0  0  0  0  0
   -1.4493    0.3507   -0.7594 N   0  0  0  0  0  0  0  0  0  0  0  0
   -0.0857   -0.0312   -0.5950 C   0  0  0  0  0  0  0  0  0  0  0  0
    0.3857   -1.0866   -1.1108 O   0  0  0  0  0  0  0  0  0  0  0  0
    0.8742    0.7905    0.1969 C   0  0  0  0  0  0  0  0  0  0  0  0
    2.1784    0.1709    0.1984 N   0  0  0  0  0  0  0  0  0  0  0  0
    2.5548   -0.7053    1.1182 N   0  0  0  0  0  0  0  0  0  0  0  0
    3.7910   -1.1131    0.8826 N   0  0  0  0  0  0  0  0  0  0  0  0
    4.2089   -0.4801   -0.2138 C   0  0  0  0  0  0  0  0  0  0  0  0
    3.1961    0.3131   -0.6259 N   0  0  0  0  0  0  0  0  0  0  0  0
    5.5346   -0.6558   -0.8122 C   0  0  0  0  0  0  0  0  0  0  0  0
    6.6403    0.0521   -0.4137 C   0  0  0  0  0  0  0  0  0  0  0  0
    7.8334   -0.2196   -1.0718 C   0  0  0  0  0  0  0  0  0  0  0  0
    7.9458   -1.1400   -2.0741 C   0  0  0  0  0  0  0  0  0  0  0  0
    6.8183   -1.8545   -2.4728 C   0  0  0  0  0  0  0  0  0  0  0  0
    5.6086   -1.6049   -1.8327 C   0  0  0  0  0  0  0  0  0  0  0  0
    9.2679   -1.3781   -2.7370 C   0  0  0  0  0  0  0  0  0  0  0  0
   -2.3370   -0.4292   -1.5534 C   0  0  0  0  0  0  0  0  0  0  0  0
   -3.0572   -1.5124   -0.8901 C   0  0  0  0  0  0  0  0  0  0  0  0
   -3.8746   -2.1908   -1.6015 O   0  0  0  0  0  0  0  0  0  0  0  0
   -2.9478   -1.8978    0.4633 N   0  0  0  0  0  0  0  0  0  0  0  0
   -3.7075   -2.9772    1.0120 C   0  0  0  0  0  0  0  0  0  0  0  0
   -2.8717   -4.1217    1.5270 C   0  0  0  0  0  0  0  0  0  0  0  0
   -3.9564   -5.0000    2.1251 C   0  0  0  0  0  0  0  0  0  0  0  0
   -4.9866   -4.0295    2.6725 C   0  0  0  0  0  0  0  0  0  0  0  0
   -4.5584   -2.6543    2.1909 C   0  0  0  0  0  0  0  0  0  0  0  0
   -1.7409    5.9699   -3.0604 H   0  0  0  0  0  0  0  0  0  0  0  0
   -2.1129    4.1864   -3.0652 H   0  0  0  0  0  0  0  0  0  0  0  0
   -0.4939    4.7820   -2.5848 H   0  0  0  0  0  0  0  0  0  0  0  0
   -1.4069    2.6609   -1.9167 H   0  0  0  0  0  0  0  0  0  0  0  0
   -2.4496    0.8403    1.7708 H   0  0  0  0  0  0  0  0  0  0  0  0
   -3.1125    2.9788    2.6321 H   0  0  0  0  0  0  0  0  0  0  0  0
   -2.6517    5.9352    3.2143 H   0  0  0  0  0  0  0  0  0  0  0  0
   -4.0163    4.7452    3.0960 H   0  0  0  0  0  0  0  0  0  0  0  0
   -4.1985    6.4921    2.5799 H   0  0  0  0  0  0  0  0  0  0  0  0
    0.5090    0.9644    1.2284 H   0  0  0  0  0  0  0  0  0  0  0  0
    0.9550    1.7594   -0.3754 H   0  0  0  0  0  0  0  0  0  0  0  0
    6.5561    0.7800    0.3776 H   0  0  0  0  0  0  0  0  0  0  0  0
    8.7436    0.3214   -0.7874 H   0  0  0  0  0  0  0  0  0  0  0  0
    6.8924   -2.5968   -3.2765 H   0  0  0  0  0  0  0  0  0  0  0  0
    4.7166   -2.1671   -2.1449 H   0  0  0  0  0  0  0  0  0  0  0  0
    9.9857   -1.8280   -2.0305 H   0  0  0  0  0  0  0  0  0  0  0  0
    9.6725   -0.4273   -3.0921 H   0  0  0  0  0  0  0  0  0  0  0  0
    9.0898   -2.0534   -3.6232 H   0  0  0  0  0  0  0  0  0  0  0  0
   -1.6830   -0.9245   -2.3357 H   0  0  0  0  0  0  0  0  0  0  0  0
   -3.0421    0.1752   -2.1632 H   0  0  0  0  0  0  0  0  0  0  0  0
   -2.2842   -1.3816    1.0754 H   0  0  0  0  0  0  0  0  0  0  0  0
   -4.3518   -3.4083    0.2161 H   0  0  0  0  0  0  0  0  0  0  0  0
   -2.2310   -3.8472    2.3911 H   0  0  0  0  0  0  0  0  0  0  0  0
   -2.3166   -4.6427    0.7265 H   0  0  0  0  0  0  0  0  0  0  0  0
   -3.5606   -5.6680    2.9106 H   0  0  0  0  0  0  0  0  0  0  0  0
   -4.3878   -5.5787    1.2913 H   0  0  0  0  0  0  0  0  0  0  0  0
   -5.9911   -4.2173    2.2326 H   0  0  0  0  0  0  0  0  0  0  0  0
   -5.0688   -4.0807    3.7732 H   0  0  0  0  0  0  0  0  0  0  0  0
   -5.4200   -1.9891    1.9864 H   0  0  0  0  0  0  0  0  0  0  0  0
   -3.8803   -2.2213    2.9669 H   0  0  0  0  0  0  0  0  0  0  0  0
  1  2  1  0
  2  3  1  0
  3  4  2  0
  4  5  1  0
  5  6  2  0
  6  7  1  0
  7  8  2  0
  8  9  1  0
  9 10  1  0
  5 11  1  0
 11 12  1  0
 12 13  2  0
 12 14  1  0
 14 15  1  0
 15 16  1  0
 16 17  2  0
 17 18  1  0
 18 19  2  0
 18 20  1  0
 20 21  2  0
 21 22  1  0
 22 23  2  0
 23 24  1  0
 24 25  2  0
 23 26  1  0
 11 27  1  0
 27 28  1  0
 28 29  2  0
 28 30  1  0
 30 31  1  0
 31 32  1  0
 32 33  1  0
 33 34  1  0
 34 35  1  0
  8  3  1  0
 19 15  1  0
 25 20  1  0
 35 31  1  0
  1 36  1  0
  1 37  1  0
  1 38  1  0
  4 39  1  0
  6 40  1  0
  7 41  1  0
 10 42  1  0
 10 43  1  0
 10 44  1  0
 14 45  1  0
 14 46  1  0
 21 47  1  0
 22 48  1  0
 24 49  1  0
 25 50  1  0
 26 51  1  0
 26 52  1  0
 26 53  1  0
 27 54  1  0
 27 55  1  0
 30 56  1  0
 31 57  1  0
 32 58  1  0
 32 59  1  0
 33 60  1  0
 33 61  1  0
 34 62  1  0
 34 63  1  0
 35 64  1  0
 35 65  1  0
M  END
>  <Ligand ID>  (1) 
LIG0003810

>  <Ligand>  (1) 
SMR000002705

>  <SMILES>  (1) 
COc1cc(ccc1OC)N(C(=O)Cn1nnc(n1)c1ccc(cc1)C)CC(=O)NC1CCCC1

>  <CID>  (1) 
655193.0

>  <ChEMBL ID>  (1) 
nan

>  <InChiKey>  (1) 
GWMOOWPMEPIBOJ-UHFFFAOYSA-N

>  <InChi>  (1) 
InChI=1S/C25H30N6O4/c1-17-8-10-18(11-9-17)25-27-29-31(28-25)16-24(33)30(15-23(32)26-19-6-4-5-7-19)20-12-13-21(34-2)22(14-20)35-3/h8-14,19H,4-7,15-16H2,1-3H3,(H,26,32)

>  <IUPAC Name>  (1) 
N-[2-(cyclopentylamino)-2-oxoethyl]-N-(3,4-dimethoxyphenyl)-2-[5-(4-methylphenyl)tetrazol-2-yl]acetamide

$$$$
