
     RDKit          3D

 38 40  0  0  0  0  0  0  0  0999 V2000
    4.1871   -0.5128    0.6940 C   0  0  0  0  0  0  0  0  0  0  0  0
    3.7205    0.7014    1.4912 C   0  0  0  0  0  0  0  0  0  0  0  0
    3.0213    1.6368    0.5295 C   0  0  0  0  0  0  0  0  0  0  0  0
    1.8477    0.9854   -0.1117 C   0  0  0  0  0  0  0  0  0  0  0  0
    0.6185    1.0924    0.5064 C   0  0  0  0  0  0  0  0  0  0  0  0
   -0.5228    0.5159   -0.0240 C   0  0  0  0  0  0  0  0  0  0  0  0
   -1.8973    0.5285    0.4897 C   0  0  2  0  0  0  0  0  0  0  0  0
   -1.9861   -0.2461    1.7645 C   0  0  0  0  0  0  0  0  0  0  0  0
   -3.2331   -0.8656    2.0410 N   0  0  0  0  0  0  0  0  0  0  0  0
   -4.3295   -0.4051    1.2280 C   0  0  0  0  0  0  0  0  0  0  0  0
   -4.0583   -0.4122   -0.2530 C   0  0  0  0  0  0  0  0  0  0  0  0
   -2.6197   -0.2454   -0.5077 N   0  0  0  0  0  0  0  0  0  0  0  0
   -1.7387   -0.6795   -1.5365 C   0  0  0  0  0  0  0  0  0  0  0  0
   -2.0807   -1.3679   -2.5374 O   0  0  0  0  0  0  0  0  0  0  0  0
   -0.4219   -0.1857   -1.2068 C   0  0  0  0  0  0  0  0  0  0  0  0
    0.7849   -0.3172   -1.8571 C   0  0  0  0  0  0  0  0  0  0  0  0
    1.9088    0.2818   -1.2835 C   0  0  0  0  0  0  0  0  0  0  0  0
    0.8408   -1.0692   -3.1060 C   0  0  0  0  0  0  0  0  0  0  0  0
    0.4911   -2.3402   -3.1405 F   0  0  0  0  0  0  0  0  0  0  0  0
    0.0532   -0.3742   -4.0287 F   0  0  0  0  0  0  0  0  0  0  0  0
    2.1281   -0.9535   -3.6071 F   0  0  0  0  0  0  0  0  0  0  0  0
    4.6684   -0.1761   -0.2395 H   0  0  0  0  0  0  0  0  0  0  0  0
    3.3227   -1.1532    0.4666 H   0  0  0  0  0  0  0  0  0  0  0  0
    4.9255   -1.1082    1.2702 H   0  0  0  0  0  0  0  0  0  0  0  0
    3.0550    0.4131    2.3042 H   0  0  0  0  0  0  0  0  0  0  0  0
    4.6467    1.1991    1.8352 H   0  0  0  0  0  0  0  0  0  0  0  0
    2.6877    2.5343    1.0636 H   0  0  0  0  0  0  0  0  0  0  0  0
    3.7123    1.9568   -0.2727 H   0  0  0  0  0  0  0  0  0  0  0  0
    0.5609    1.6551    1.4469 H   0  0  0  0  0  0  0  0  0  0  0  0
   -2.3197    1.5521    0.5789 H   0  0  0  0  0  0  0  0  0  0  0  0
   -1.7616    0.4670    2.6112 H   0  0  0  0  0  0  0  0  0  0  0  0
   -1.1404   -0.9697    1.7981 H   0  0  0  0  0  0  0  0  0  0  0  0
   -3.1372   -1.8923    1.8696 H   0  0  0  0  0  0  0  0  0  0  0  0
   -5.2482   -0.9847    1.4236 H   0  0  0  0  0  0  0  0  0  0  0  0
   -4.5356    0.6444    1.5255 H   0  0  0  0  0  0  0  0  0  0  0  0
   -4.6156    0.3890   -0.7785 H   0  0  0  0  0  0  0  0  0  0  0  0
   -4.4045   -1.3807   -0.6586 H   0  0  0  0  0  0  0  0  0  0  0  0
    2.8695    0.1847   -1.7887 H   0  0  0  0  0  0  0  0  0  0  0  0
  1  2  1  0
  2  3  1  0
  3  4  1  0
  4  5  2  0
  5  6  1  0
  6  7  1  0
  7  8  1  0
  8  9  1  0
  9 10  1  0
 10 11  1  0
 11 12  1  0
 12 13  1  0
 13 14  2  0
 13 15  1  0
 15 16  1  0
 16 17  2  0
 16 18  1  0
 18 19  1  0
 18 20  1  0
 18 21  1  0
 17  4  1  0
 15  6  2  0
 12  7  1  0
  1 22  1  0
  1 23  1  0
  1 24  1  0
  2 25  1  0
  2 26  1  0
  3 27  1  0
  3 28  1  0
  5 29  1  0
  7 30  1  1
  8 31  1  0
  8 32  1  0
  9 33  1  0
 10 34  1  0
 10 35  1  0
 11 36  1  0
 11 37  1  0
 17 38  1  0
M  END
>  <Ligand ID>  (1) 
LIG0004174

>  <Ligand>  (1) 
CHEMBL373905

>  <SMILES>  (1) 
CCCc1cc2[C@@H]3CNCCN3C(=O)c2c(c1)C(F)(F)F

>  <CID>  (1) 
11163458.0

>  <ChEMBL ID>  (1) 
nan

>  <InChiKey>  (1) 
NVEZXQPMVSTLDV-LBPRGKRZSA-N

>  <InChi>  (1) 
InChI=1S/C15H17F3N2O/c1-2-3-9-6-10-12-8-19-4-5-20(12)14(21)13(10)11(7-9)15(16,17)18/h6-7,12,19H,2-5,8H2,1H3/t12-/m0/s1

>  <IUPAC Name>  (1) 
(10bR)-9-propyl-7-(trifluoromethyl)-2,3,4,10b-tetrahydro-1H-pyrazino[1,2-b]isoindol-6-one

$$$$
