
     RDKit          3D

 61 63  0  0  0  0  0  0  0  0999 V2000
    4.8265   -0.3832   -1.4707 O   0  0  0  0  0  0  0  0  0  0  0  0
    4.9439    0.5357   -0.6005 C   0  0  0  0  0  0  0  0  0  0  0  0
    6.3019    0.9208   -0.1430 C   0  0  2  0  0  0  0  0  0  0  0  0
    7.0008   -0.2296    0.5893 C   0  0  0  0  0  0  0  0  0  0  0  0
    6.2293   -0.6595    1.6696 O   0  0  0  0  0  0  0  0  0  0  0  0
    7.0365   -1.9264    2.4838 P   0  0  0  0  0  0  0  0  0  0  0  0
    8.3633   -2.1870    1.8101 O   0  0  0  0  0  0  0  0  0  0  0  0
    6.0870   -3.3213    2.4800 O   0  0  0  0  0  0  0  0  0  0  0  0
    7.3456   -1.4496    4.0941 O   0  0  0  0  0  0  0  0  0  0  0  0
    6.1476    1.9885    0.8372 N   0  0  0  0  0  0  0  0  0  0  0  0
    7.1733    1.3682   -1.2830 C   0  0  0  0  0  0  0  0  0  0  0  0
    3.7705    1.1579   -0.1004 N   0  0  0  0  0  0  0  0  0  0  0  0
    2.4747    0.7835   -0.5451 C   0  0  0  0  0  0  0  0  0  0  0  0
    1.7336   -0.2146    0.0707 C   0  0  0  0  0  0  0  0  0  0  0  0
    0.4747   -0.5231   -0.4205 C   0  0  0  0  0  0  0  0  0  0  0  0
   -0.0258    0.1589   -1.5076 C   0  0  0  0  0  0  0  0  0  0  0  0
    0.7201    1.1398   -2.1012 C   0  0  0  0  0  0  0  0  0  0  0  0
    1.9799    1.4791   -1.6435 C   0  0  0  0  0  0  0  0  0  0  0  0
   -1.3563   -0.2015   -1.9852 C   0  0  0  0  0  0  0  0  0  0  0  0
   -1.9731   -1.1197   -1.3726 O   0  0  0  0  0  0  0  0  0  0  0  0
   -2.0021    0.4607   -3.1461 C   0  0  0  0  0  0  0  0  0  0  0  0
   -2.9303    1.5143   -2.6282 C   0  0  0  0  0  0  0  0  0  0  0  0
   -3.9704    0.9184   -1.7581 C   0  0  0  0  0  0  0  0  0  0  0  0
   -3.6757    0.8254   -0.4034 C   0  0  0  0  0  0  0  0  0  0  0  0
   -4.6158    0.2757    0.4576 C   0  0  0  0  0  0  0  0  0  0  0  0
   -5.8204   -0.1642   -0.0580 C   0  0  0  0  0  0  0  0  0  0  0  0
   -6.1006   -0.0660   -1.4058 C   0  0  0  0  0  0  0  0  0  0  0  0
   -5.1719    0.4810   -2.2811 C   0  0  0  0  0  0  0  0  0  0  0  0
   -6.8190   -0.7440    0.8333 C   0  0  0  0  0  0  0  0  0  0  0  0
   -8.1538   -0.5884    0.5291 C   0  0  0  0  0  0  0  0  0  0  0  0
   -9.1745   -1.0870    1.2893 C   0  0  0  0  0  0  0  0  0  0  0  0
   -8.8625   -1.7920    2.4354 C   0  0  0  0  0  0  0  0  0  0  0  0
   -7.5160   -1.9584    2.7574 C   0  0  0  0  0  0  0  0  0  0  0  0
   -6.5026   -1.4460    1.9747 C   0  0  0  0  0  0  0  0  0  0  0  0
    7.2025   -1.0337   -0.1517 H   0  0  0  0  0  0  0  0  0  0  0  0
    7.9479    0.1804    0.9907 H   0  0  0  0  0  0  0  0  0  0  0  0
    6.5159   -4.0830    1.9982 H   0  0  0  0  0  0  0  0  0  0  0  0
    8.2479   -1.0482    4.1447 H   0  0  0  0  0  0  0  0  0  0  0  0
    5.5815    1.6272    1.6222 H   0  0  0  0  0  0  0  0  0  0  0  0
    5.6651    2.8032    0.4128 H   0  0  0  0  0  0  0  0  0  0  0  0
    7.8823    0.6019   -1.6387 H   0  0  0  0  0  0  0  0  0  0  0  0
    7.7490    2.2848   -0.9990 H   0  0  0  0  0  0  0  0  0  0  0  0
    6.5476    1.6460   -2.1794 H   0  0  0  0  0  0  0  0  0  0  0  0
    3.8304    1.9171    0.6171 H   0  0  0  0  0  0  0  0  0  0  0  0
    2.1243   -0.7384    0.9097 H   0  0  0  0  0  0  0  0  0  0  0  0
   -0.0820   -1.3028    0.0747 H   0  0  0  0  0  0  0  0  0  0  0  0
    0.3568    1.6916   -2.9526 H   0  0  0  0  0  0  0  0  0  0  0  0
    2.5587    2.2662   -2.1329 H   0  0  0  0  0  0  0  0  0  0  0  0
   -2.6354   -0.2880   -3.6766 H   0  0  0  0  0  0  0  0  0  0  0  0
   -1.2830    0.8894   -3.8600 H   0  0  0  0  0  0  0  0  0  0  0  0
   -2.3311    2.2485   -2.0515 H   0  0  0  0  0  0  0  0  0  0  0  0
   -3.3704    2.0879   -3.4743 H   0  0  0  0  0  0  0  0  0  0  0  0
   -2.7248    1.1765   -0.0215 H   0  0  0  0  0  0  0  0  0  0  0  0
   -4.3620    0.2143    1.5085 H   0  0  0  0  0  0  0  0  0  0  0  0
   -7.0325   -0.4033   -1.8222 H   0  0  0  0  0  0  0  0  0  0  0  0
   -5.3552    0.5750   -3.3460 H   0  0  0  0  0  0  0  0  0  0  0  0
   -8.4205   -0.0336   -0.3733 H   0  0  0  0  0  0  0  0  0  0  0  0
  -10.2096   -0.9395    1.0103 H   0  0  0  0  0  0  0  0  0  0  0  0
   -9.6472   -2.1916    3.0467 H   0  0  0  0  0  0  0  0  0  0  0  0
   -7.2520   -2.5167    3.6660 H   0  0  0  0  0  0  0  0  0  0  0  0
   -5.4431   -1.5776    2.2285 H   0  0  0  0  0  0  0  0  0  0  0  0
  1  2  2  0
  2  3  1  0
  3  4  1  0
  4  5  1  0
  5  6  1  0
  6  7  2  0
  6  8  1  0
  6  9  1  0
  3 10  1  1
  3 11  1  0
  2 12  1  0
 12 13  1  0
 13 14  2  0
 14 15  1  0
 15 16  2  0
 16 17  1  0
 17 18  2  0
 16 19  1  0
 19 20  2  0
 19 21  1  0
 21 22  1  0
 22 23  1  0
 23 24  2  0
 24 25  1  0
 25 26  2  0
 26 27  1  0
 27 28  2  0
 26 29  1  0
 29 30  2  0
 30 31  1  0
 31 32  2  0
 32 33  1  0
 33 34  2  0
 18 13  1  0
 28 23  1  0
 34 29  1  0
  4 35  1  0
  4 36  1  0
  8 37  1  0
  9 38  1  0
 10 39  1  0
 10 40  1  0
 11 41  1  0
 11 42  1  0
 11 43  1  0
 12 44  1  0
 14 45  1  0
 15 46  1  0
 17 47  1  0
 18 48  1  0
 21 49  1  0
 21 50  1  0
 22 51  1  0
 22 52  1  0
 24 53  1  0
 25 54  1  0
 27 55  1  0
 28 56  1  0
 30 57  1  0
 31 58  1  0
 32 59  1  0
 33 60  1  0
 34 61  1  0
M  END
>  <Ligand ID>  (1) 
LIG0005093

>  <Ligand>  (1) 
CHEMBL1090796

>  <SMILES>  (1) 
O=C([C@](COP(=O)(O)O)(N)C)Nc1ccc(cc1)C(=O)CCc1ccc(cc1)c1ccccc1

>  <CID>  (1) 
11503967.0

>  <ChEMBL ID>  (1) 
nan

>  <InChiKey>  (1) 
KNLPKQCGTFMRRN-VWLOTQADSA-N

>  <InChi>  (1) 
InChI=1S/C25H27N2O6P/c1-25(26,17-33-34(30,31)32)24(29)27-22-14-12-21(13-15-22)23(28)16-9-18-7-10-20(11-8-18)19-5-3-2-4-6-19/h2-8,10-15H,9,16-17,26H2,1H3,(H,27,29)(H2,30,31,32)/t25-/m0/s1

>  <IUPAC Name>  (1) 
[(2S)-2-amino-2-methyl-3-oxo-3-[4-[3-(4-phenylphenyl)propanoyl]anilino]propyl] dihydrogen phosphate

$$$$
