
     RDKit          3D

 76 78  0  0  0  0  0  0  0  0999 V2000
   -1.2995    7.0211   -3.3485 N   0  0  0  0  0  0  0  0  0  0  0  0
   -2.1231    6.1991   -2.5021 C   0  0  0  0  0  0  0  0  0  0  0  0
   -1.8669    4.9490   -2.4868 N   0  0  0  0  0  0  0  0  0  0  0  0
   -2.6229    4.0330   -1.6801 C   0  0  0  0  0  0  0  0  0  0  0  0
   -2.0656    3.9122   -0.2792 C   0  0  0  0  0  0  0  0  0  0  0  0
   -0.6517    3.4189   -0.3064 C   0  0  0  0  0  0  0  0  0  0  0  0
   -0.4665    2.0772   -0.9341 C   0  0  1  0  0  0  0  0  0  0  0  0
    0.9821    1.7318   -0.8806 C   0  0  0  0  0  0  0  0  0  0  0  0
    1.8080    2.5476   -1.3878 O   0  0  0  0  0  0  0  0  0  0  0  0
    1.4011    0.5262   -0.2780 N   0  0  0  0  0  0  0  0  0  0  0  0
    2.8097    0.1313   -0.1951 C   0  0  2  0  0  0  0  0  0  0  0  0
    2.9809   -1.0565   -0.9911 C   0  0  0  0  0  0  0  0  0  0  0  0
    1.9253   -1.6316   -1.4446 O   0  0  0  0  0  0  0  0  0  0  0  0
    4.2011   -1.6856   -1.3527 N   0  0  0  0  0  0  0  0  0  0  0  0
    3.3011    0.0957    1.1829 C   0  0  0  0  0  0  0  0  0  0  0  0
    4.6988   -0.3280    1.3030 C   0  0  0  0  0  0  0  0  0  0  0  0
    5.8249    0.5068    1.2893 C   0  0  0  0  0  0  0  0  0  0  0  0
    6.9398   -0.2398    1.3814 N   0  0  0  0  0  0  0  0  0  0  0  0
    6.6234   -1.5265    1.4569 C   0  0  0  0  0  0  0  0  0  0  0  0
    5.2473   -1.6036    1.4106 C   0  0  0  0  0  0  0  0  0  0  0  0
    4.6785   -2.8785    1.4980 C   0  0  0  0  0  0  0  0  0  0  0  0
    5.4568   -4.0076    1.6231 C   0  0  0  0  0  0  0  0  0  0  0  0
    6.8431   -3.8967    1.6652 C   0  0  0  0  0  0  0  0  0  0  0  0
    7.4241   -2.6504    1.5815 C   0  0  0  0  0  0  0  0  0  0  0  0
   -1.2470    1.0303   -0.3130 N   0  0  0  0  0  0  0  0  0  0  0  0
   -2.1364    0.2032   -1.0553 C   0  0  0  0  0  0  0  0  0  0  0  0
   -2.2907    0.3423   -2.3178 O   0  0  0  0  0  0  0  0  0  0  0  0
   -2.9498   -0.8767   -0.4352 C   0  0  1  0  0  0  0  0  0  0  0  0
   -2.6854   -2.1837   -1.1399 C   0  0  0  0  0  0  0  0  0  0  0  0
   -3.4615   -3.2869   -0.5717 C   0  0  0  0  0  0  0  0  0  0  0  0
   -4.7218   -3.6089   -1.0417 C   0  0  0  0  0  0  0  0  0  0  0  0
   -5.4606   -4.6524   -0.5071 C   0  0  0  0  0  0  0  0  0  0  0  0
   -4.8993   -5.3813    0.5288 C   0  0  0  0  0  0  0  0  0  0  0  0
   -3.6420   -5.0771    1.0138 C   0  0  0  0  0  0  0  0  0  0  0  0
   -2.9165   -4.0323    0.4699 C   0  0  0  0  0  0  0  0  0  0  0  0
   -2.6792   -0.9079    0.9707 N   0  0  0  0  0  0  0  0  0  0  0  0
   -3.7648   -0.6419    1.8601 C   0  0  0  0  0  0  0  0  0  0  0  0
   -4.9184   -0.3886    1.4299 O   0  0  0  0  0  0  0  0  0  0  0  0
   -3.4606   -0.6798    3.3244 C   0  0  0  0  0  0  0  0  0  0  0  0
   -3.1389    6.8389   -1.7636 N   0  0  0  0  0  0  0  0  0  0  0  0
   -0.7621    6.6205   -4.1465 H   0  0  0  0  0  0  0  0  0  0  0  0
   -1.2231    8.0584   -3.1751 H   0  0  0  0  0  0  0  0  0  0  0  0
   -2.6041    3.0585   -2.2062 H   0  0  0  0  0  0  0  0  0  0  0  0
   -3.7008    4.3571   -1.5845 H   0  0  0  0  0  0  0  0  0  0  0  0
   -2.0242    4.9450    0.1537 H   0  0  0  0  0  0  0  0  0  0  0  0
   -2.7064    3.3207    0.3823 H   0  0  0  0  0  0  0  0  0  0  0  0
   -0.2182    3.4732    0.7223 H   0  0  0  0  0  0  0  0  0  0  0  0
   -0.0768    4.1604   -0.9232 H   0  0  0  0  0  0  0  0  0  0  0  0
   -0.7451    2.1289   -2.0015 H   0  0  0  0  0  0  0  0  0  0  0  0
    0.6429   -0.0942    0.1197 H   0  0  0  0  0  0  0  0  0  0  0  0
    3.3395    1.0022   -0.7147 H   0  0  0  0  0  0  0  0  0  0  0  0
    4.3058   -2.7305   -1.3914 H   0  0  0  0  0  0  0  0  0  0  0  0
    5.0073   -1.0331   -1.5836 H   0  0  0  0  0  0  0  0  0  0  0  0
    2.6252   -0.5617    1.7901 H   0  0  0  0  0  0  0  0  0  0  0  0
    3.2685    1.1491    1.6046 H   0  0  0  0  0  0  0  0  0  0  0  0
    5.8079    1.6051    1.2149 H   0  0  0  0  0  0  0  0  0  0  0  0
    7.9286    0.1455    1.3922 H   0  0  0  0  0  0  0  0  0  0  0  0
    3.5890   -2.9244    1.4616 H   0  0  0  0  0  0  0  0  0  0  0  0
    4.9875   -4.9953    1.6900 H   0  0  0  0  0  0  0  0  0  0  0  0
    7.4203   -4.8186    1.7647 H   0  0  0  0  0  0  0  0  0  0  0  0
    8.5154   -2.5536    1.6138 H   0  0  0  0  0  0  0  0  0  0  0  0
   -1.1531    0.8738    0.7322 H   0  0  0  0  0  0  0  0  0  0  0  0
   -4.0260   -0.6407   -0.5753 H   0  0  0  0  0  0  0  0  0  0  0  0
   -1.5970   -2.4241   -1.1831 H   0  0  0  0  0  0  0  0  0  0  0  0
   -2.9903   -2.0407   -2.1978 H   0  0  0  0  0  0  0  0  0  0  0  0
   -5.1482   -3.0477   -1.8359 H   0  0  0  0  0  0  0  0  0  0  0  0
   -6.4430   -4.8764   -0.8990 H   0  0  0  0  0  0  0  0  0  0  0  0
   -5.4540   -6.1967    0.9603 H   0  0  0  0  0  0  0  0  0  0  0  0
   -3.2504   -5.6919    1.8376 H   0  0  0  0  0  0  0  0  0  0  0  0
   -1.9448   -3.8070    0.8540 H   0  0  0  0  0  0  0  0  0  0  0  0
   -1.7277   -1.1156    1.3671 H   0  0  0  0  0  0  0  0  0  0  0  0
   -2.8637   -1.5449    3.6251 H   0  0  0  0  0  0  0  0  0  0  0  0
   -2.9096    0.2805    3.5442 H   0  0  0  0  0  0  0  0  0  0  0  0
   -4.4379   -0.6450    3.8530 H   0  0  0  0  0  0  0  0  0  0  0  0
   -3.2846    6.7771   -0.7453 H   0  0  0  0  0  0  0  0  0  0  0  0
   -3.8234    7.4439   -2.2976 H   0  0  0  0  0  0  0  0  0  0  0  0
  1  2  1  0
  2  3  2  3
  3  4  1  0
  4  5  1  0
  5  6  1  0
  6  7  1  0
  7  8  1  0
  8  9  2  0
  8 10  1  0
 10 11  1  0
 11 12  1  0
 12 13  2  0
 12 14  1  0
 11 15  1  0
 15 16  1  0
 16 17  2  0
 17 18  1  0
 18 19  1  0
 19 20  2  0
 20 21  1  0
 21 22  2  0
 22 23  1  0
 23 24  2  0
  7 25  1  0
 25 26  1  0
 26 27  2  0
 26 28  1  0
 28 29  1  0
 29 30  1  0
 30 31  2  0
 31 32  1  0
 32 33  2  0
 33 34  1  0
 34 35  2  0
 28 36  1  0
 36 37  1  0
 37 38  2  0
 37 39  1  0
  2 40  1  0
 20 16  1  0
 35 30  1  0
 24 19  1  0
  1 41  1  0
  1 42  1  0
  4 43  1  0
  4 44  1  0
  5 45  1  0
  5 46  1  0
  6 47  1  0
  6 48  1  0
  7 49  1  6
 10 50  1  0
 11 51  1  6
 14 52  1  0
 14 53  1  0
 15 54  1  0
 15 55  1  0
 17 56  1  0
 18 57  1  0
 21 58  1  0
 22 59  1  0
 23 60  1  0
 24 61  1  0
 25 62  1  0
 28 63  1  1
 29 64  1  0
 29 65  1  0
 31 66  1  0
 32 67  1  0
 33 68  1  0
 34 69  1  0
 35 70  1  0
 36 71  1  0
 39 72  1  0
 39 73  1  0
 39 74  1  0
 40 75  1  0
 40 76  1  0
M  END
>  <Ligand ID>  (1) 
LIG0003316

>  <Ligand>  (1) 
CHEMBL432895

>  <SMILES>  (1) 
NC(=NCCC[C@@H](C(=O)N[C@H](C(=O)N)Cc1c[nH]c2c1cccc2)NC(=O)[C@@H](Cc1ccccc1)NC(=O)C)N

>  <CID>  (1) 
10918643.0

>  <ChEMBL ID>  (1) 
nan

>  <InChiKey>  (1) 
LUCUFURZWPZEOH-KMDXXIMOSA-N

>  <InChi>  (1) 
InChI=1S/C28H36N8O4/c1-17(37)34-24(14-18-8-3-2-4-9-18)27(40)35-22(12-7-13-32-28(30)31)26(39)36-23(25(29)38)15-19-16-33-21-11-6-5-10-20(19)21/h2-6,8-11,16,22-24,33H,7,12-15H2,1H3,(H2,29,38)(H,34,37)(H,35,40)(H,36,39)(H4,30,31,32)/t22-,23-,24+/m0/s1

>  <IUPAC Name>  (1) 
(2S)-2-[[(2R)-2-acetamido-3-phenylpropanoyl]amino]-N-[(2S)-1-amino-3-(1H-indol-3-yl)-1-oxopropan-2-yl]-5-(diaminomethylideneamino)pentanamide

$$$$
