
     RDKit          3D

 24 23  0  0  0  0  0  0  0  0999 V2000
   -2.9881    0.6522   -0.5008 C   0  0  0  0  0  0  0  0  0  0  0  0
   -2.5076   -0.7454   -0.2696 C   0  0  0  0  0  0  0  0  0  0  0  0
   -0.9739   -0.8450   -0.2982 C   0  0  0  0  0  0  0  0  0  0  0  0
   -0.4132    0.0276    0.7717 C   0  0  0  0  0  0  0  0  0  0  0  0
    1.0695    0.0498    0.8910 C   0  0  0  0  0  0  0  0  0  0  0  0
    1.8289    0.5098   -0.2977 C   0  0  2  0  0  0  0  0  0  0  0  0
    1.6682   -0.2071   -1.4509 O   0  0  0  0  0  0  0  0  0  0  0  0
    3.3132    0.4074    0.0724 C   0  0  0  0  0  0  0  0  0  0  0  0
   -3.9094    0.5856   -1.1500 H   0  0  0  0  0  0  0  0  0  0  0  0
   -2.2196    1.3057   -0.9827 H   0  0  0  0  0  0  0  0  0  0  0  0
   -3.3308    1.0652    0.4791 H   0  0  0  0  0  0  0  0  0  0  0  0
   -2.8866   -1.1568    0.6826 H   0  0  0  0  0  0  0  0  0  0  0  0
   -2.8406   -1.4557   -1.0762 H   0  0  0  0  0  0  0  0  0  0  0  0
   -0.7599   -1.9055   -0.1421 H   0  0  0  0  0  0  0  0  0  0  0  0
   -0.6368   -0.4430   -1.2891 H   0  0  0  0  0  0  0  0  0  0  0  0
   -0.8243    1.0622    0.7300 H   0  0  0  0  0  0  0  0  0  0  0  0
   -0.7938   -0.3715    1.7575 H   0  0  0  0  0  0  0  0  0  0  0  0
    1.4333   -0.9299    1.2963 H   0  0  0  0  0  0  0  0  0  0  0  0
    1.3048    0.7741    1.7163 H   0  0  0  0  0  0  0  0  0  0  0  0
    1.5489    1.5659   -0.4911 H   0  0  0  0  0  0  0  0  0  0  0  0
    2.1158   -1.0868   -1.4440 H   0  0  0  0  0  0  0  0  0  0  0  0
    3.4235   -0.5707    0.6124 H   0  0  0  0  0  0  0  0  0  0  0  0
    3.5059    1.2821    0.7433 H   0  0  0  0  0  0  0  0  0  0  0  0
    3.8728    0.4299   -0.8660 H   0  0  0  0  0  0  0  0  0  0  0  0
  1  2  1  0
  2  3  1  0
  3  4  1  0
  4  5  1  0
  5  6  1  0
  6  7  1  0
  6  8  1  0
  1  9  1  0
  1 10  1  0
  1 11  1  0
  2 12  1  0
  2 13  1  0
  3 14  1  0
  3 15  1  0
  4 16  1  0
  4 17  1  0
  5 18  1  0
  5 19  1  0
  6 20  1  6
  7 21  1  0
  8 22  1  0
  8 23  1  0
  8 24  1  0
M  END
>  <Ligand ID>  (1) 
LIG0000619

>  <Ligand>  (1) 
(2R)-heptan-2-ol

>  <SMILES>  (1) 
CCCCC[C@H](O)C

>  <CID>  (1) 
6992611.0

>  <ChEMBL ID>  (1) 
nan

>  <InChiKey>  (1) 
CETWDUZRCINIHU-SSDOTTSWSA-N

>  <InChi>  (1) 
InChI=1S/C7H16O/c1-3-4-5-6-7(2)8/h7-8H,3-6H2,1-2H3/t7-/m1/s1

>  <IUPAC Name>  (1) 
(2R)-heptan-2-ol

$$$$
