
     RDKit          3D

152157  0  0  0  0  0  0  0  0999 V2000
   10.6139   -3.9064   -0.9079 C   0  0  0  0  0  0  0  0  0  0  0  0
    9.2481   -3.2154   -0.8232 C   0  0  0  0  0  0  0  0  0  0  0  0
    9.5039   -1.7943   -0.4284 C   0  0  0  0  0  0  0  0  0  0  0  0
    8.2649   -0.9498   -0.3220 C   0  0  0  0  0  0  0  0  0  0  0  0
    7.2707   -1.4390    0.6994 C   0  0  2  0  0  0  0  0  0  0  0  0
    6.0868   -0.4692    0.6601 C   0  0  0  0  0  0  0  0  0  0  0  0
    5.9520    0.1961    1.6887 O   0  0  0  0  0  0  0  0  0  0  0  0
    5.3381   -0.4613   -0.5055 N   0  0  0  0  0  0  0  0  0  0  0  0
    4.2202    0.2869   -0.9459 C   0  0  1  0  0  0  0  0  0  0  0  0
    2.9148   -0.4286   -0.7943 C   0  0  0  0  0  0  0  0  0  0  0  0
    2.9112   -1.7400   -1.4574 C   0  0  0  0  0  0  0  0  0  0  0  0
    3.8284   -2.2035   -2.1692 O   0  0  0  0  0  0  0  0  0  0  0  0
    1.7903   -2.6499   -1.3298 N   0  0  0  0  0  0  0  0  0  0  0  0
    1.7468   -3.9404   -1.9429 C   0  0  0  0  0  0  0  0  0  0  0  0
    0.4845   -4.6782   -1.6201 C   0  0  0  0  0  0  0  0  0  0  0  0
    0.2714   -4.8600   -0.1041 C   0  0  0  0  0  0  0  0  0  0  0  0
   -0.8315   -5.8294    0.0707 C   0  0  0  0  0  0  0  0  0  0  0  0
   -2.1806   -5.4133   -0.4350 C   0  0  2  0  0  0  0  0  0  0  0  0
   -2.8902   -4.4531    0.3500 N   0  0  0  0  0  0  0  0  0  0  0  0
   -2.9504   -3.0404    0.1888 C   0  0  0  0  0  0  0  0  0  0  0  0
   -2.1955   -2.5677   -0.6709 O   0  0  0  0  0  0  0  0  0  0  0  0
   -3.8616   -2.2772    1.0340 C   0  0  1  0  0  0  0  0  0  0  0  0
   -3.3848   -0.8623    1.0022 N   0  0  0  0  0  0  0  0  0  0  0  0
   -3.2327   -0.1337    2.2320 C   0  0  0  0  0  0  0  0  0  0  0  0
   -3.5104   -0.8352    3.2446 O   0  0  0  0  0  0  0  0  0  0  0  0
   -2.8163    1.2318    2.4127 C   0  0  1  0  0  0  0  0  0  0  0  0
   -2.6263    1.9779    1.1519 N   0  0  0  0  0  0  0  0  0  0  0  0
   -1.3450    2.4738    0.7691 C   0  0  0  0  0  0  0  0  0  0  0  0
   -0.4648    2.1834    1.5814 O   0  0  0  0  0  0  0  0  0  0  0  0
   -0.9893    3.2376   -0.4270 C   0  0  2  0  0  0  0  0  0  0  0  0
    0.4606    3.1894   -0.4443 N   0  0  0  0  0  0  0  0  0  0  0  0
    1.3769    4.0174    0.2619 C   0  0  0  0  0  0  0  0  0  0  0  0
    0.8689    4.8461    1.0163 O   0  0  0  0  0  0  0  0  0  0  0  0
    2.8388    3.8221    0.0351 C   0  0  1  0  0  0  0  0  0  0  0  0
    3.1092    2.5954   -0.7269 N   0  0  0  0  0  0  0  0  0  0  0  0
    4.0425    1.6218   -0.2433 C   0  0  0  0  0  0  0  0  0  0  0  0
    4.6702    1.9687    0.7583 O   0  0  0  0  0  0  0  0  0  0  0  0
    3.5731    4.9822   -0.5024 C   0  0  0  0  0  0  0  0  0  0  0  0
    3.6437    6.1756    0.3296 C   0  0  0  0  0  0  0  0  0  0  0  0
    4.2485    7.3266   -0.1355 N   0  0  0  0  0  0  0  0  0  0  0  0
    4.2236    8.2554    0.8325 C   0  0  0  0  0  0  0  0  0  0  0  0
    3.6220    7.7582    1.9243 N   0  0  0  0  0  0  0  0  0  0  0  0
    3.2718    6.4814    1.6071 C   0  0  0  0  0  0  0  0  0  0  0  0
   -1.4533    4.6688   -0.4383 C   0  0  0  0  0  0  0  0  0  0  0  0
   -1.1079    5.4108   -1.6730 C   0  0  0  0  0  0  0  0  0  0  0  0
   -0.0208    6.2006   -1.8870 C   0  0  0  0  0  0  0  0  0  0  0  0
    0.2340    6.8339   -3.0969 C   0  0  0  0  0  0  0  0  0  0  0  0
   -0.6288    6.6825   -4.1560 C   0  0  0  0  0  0  0  0  0  0  0  0
   -1.7330    5.8931   -3.9641 C   0  0  0  0  0  0  0  0  0  0  0  0
   -1.9891    5.2625   -2.7638 C   0  0  0  0  0  0  0  0  0  0  0  0
   -2.5876    5.7605   -5.0639 C   0  0  0  0  0  0  0  0  0  0  0  0
   -2.3219    6.3901   -6.2584 C   0  0  0  0  0  0  0  0  0  0  0  0
   -1.1899    7.1936   -6.4403 C   0  0  0  0  0  0  0  0  0  0  0  0
   -0.3620    7.3110   -5.3468 C   0  0  0  0  0  0  0  0  0  0  0  0
   -3.6719    2.1950    0.2119 C   0  0  0  0  0  0  0  0  0  0  0  0
   -3.5965    2.0846    3.3438 C   0  0  0  0  0  0  0  0  0  0  0  0
   -5.0243    2.3545    3.1080 C   0  0  0  0  0  0  0  0  0  0  0  0
   -5.9624    1.1792    3.1263 C   0  0  0  0  0  0  0  0  0  0  0  0
   -5.9351    0.5779    4.4338 N   0  0  0  0  0  0  0  0  0  0  0  0
   -7.0317    0.6259    5.1448 C   0  0  0  0  0  0  0  0  0  0  0  0
   -8.1413    1.2789    4.5305 N   0  0  0  0  0  0  0  0  0  0  0  0
   -7.1026    0.0585    6.4437 N   0  0  0  0  0  0  0  0  0  0  0  0
   -5.2714   -2.2087    0.4869 C   0  0  0  0  0  0  0  0  0  0  0  0
   -6.0214   -3.3990    0.2482 C   0  0  0  0  0  0  0  0  0  0  0  0
   -7.0206   -3.9332    1.0793 C   0  0  0  0  0  0  0  0  0  0  0  0
   -7.5176   -5.0455    0.5177 N   0  0  0  0  0  0  0  0  0  0  0  0
   -6.8958   -5.2850   -0.6597 C   0  0  0  0  0  0  0  0  0  0  0  0
   -5.9877   -4.2909   -0.8244 C   0  0  0  0  0  0  0  0  0  0  0  0
   -5.2059   -4.3197   -1.9913 C   0  0  0  0  0  0  0  0  0  0  0  0
   -5.4062   -5.3406   -2.8866 C   0  0  0  0  0  0  0  0  0  0  0  0
   -6.3200   -6.3471   -2.7290 C   0  0  0  0  0  0  0  0  0  0  0  0
   -7.0900   -6.3225   -1.5809 C   0  0  0  0  0  0  0  0  0  0  0  0
   -3.0253   -6.6623   -0.5147 C   0  0  0  0  0  0  0  0  0  0  0  0
   -2.5608   -7.5475   -1.2997 O   0  0  0  0  0  0  0  0  0  0  0  0
   -4.2044   -6.8806    0.1831 N   0  0  0  0  0  0  0  0  0  0  0  0
    7.8136   -1.3639    2.0427 N   0  0  0  0  0  0  0  0  0  0  0  0
    7.7567   -2.5594    2.8176 C   0  0  0  0  0  0  0  0  0  0  0  0
    7.2665   -3.5994    2.3418 O   0  0  0  0  0  0  0  0  0  0  0  0
    8.2978   -2.5132    4.1925 C   0  0  0  0  0  0  0  0  0  0  0  0
   10.5235   -4.9631   -1.1870 H   0  0  0  0  0  0  0  0  0  0  0  0
   11.1483   -3.8535    0.0573 H   0  0  0  0  0  0  0  0  0  0  0  0
   11.2004   -3.3262   -1.6582 H   0  0  0  0  0  0  0  0  0  0  0  0
    8.7912   -3.2879   -1.8104 H   0  0  0  0  0  0  0  0  0  0  0  0
    8.6384   -3.7416   -0.0470 H   0  0  0  0  0  0  0  0  0  0  0  0
   10.1241   -1.7285    0.5000 H   0  0  0  0  0  0  0  0  0  0  0  0
   10.1179   -1.3222   -1.2417 H   0  0  0  0  0  0  0  0  0  0  0  0
    7.7811   -0.9539   -1.3293 H   0  0  0  0  0  0  0  0  0  0  0  0
    8.5853    0.0979   -0.0844 H   0  0  0  0  0  0  0  0  0  0  0  0
    6.8707   -2.4172    0.4450 H   0  0  0  0  0  0  0  0  0  0  0  0
    5.6773   -1.1897   -1.2580 H   0  0  0  0  0  0  0  0  0  0  0  0
    4.3757    0.5931   -1.9985 H   0  0  0  0  0  0  0  0  0  0  0  0
    2.1145    0.2240   -1.2308 H   0  0  0  0  0  0  0  0  0  0  0  0
    2.6581   -0.6073    0.2737 H   0  0  0  0  0  0  0  0  0  0  0  0
    1.0276   -2.2928   -0.7654 H   0  0  0  0  0  0  0  0  0  0  0  0
    1.7763   -3.8381   -3.0699 H   0  0  0  0  0  0  0  0  0  0  0  0
    2.6115   -4.5833   -1.6253 H   0  0  0  0  0  0  0  0  0  0  0  0
    0.4714   -5.6961   -2.0344 H   0  0  0  0  0  0  0  0  0  0  0  0
   -0.4067   -4.1222   -1.9942 H   0  0  0  0  0  0  0  0  0  0  0  0
    1.2252   -5.1859    0.3667 H   0  0  0  0  0  0  0  0  0  0  0  0
    0.0320   -3.8373    0.2613 H   0  0  0  0  0  0  0  0  0  0  0  0
   -0.8871   -6.2506    1.1082 H   0  0  0  0  0  0  0  0  0  0  0  0
   -0.5533   -6.7456   -0.5415 H   0  0  0  0  0  0  0  0  0  0  0  0
   -2.0287   -5.0791   -1.4868 H   0  0  0  0  0  0  0  0  0  0  0  0
   -3.4349   -4.8095    1.1589 H   0  0  0  0  0  0  0  0  0  0  0  0
   -3.8901   -2.6762    2.0475 H   0  0  0  0  0  0  0  0  0  0  0  0
   -3.1438   -0.3698    0.1613 H   0  0  0  0  0  0  0  0  0  0  0  0
   -1.7846    1.1734    2.9223 H   0  0  0  0  0  0  0  0  0  0  0  0
   -1.3205    2.7451   -1.3951 H   0  0  0  0  0  0  0  0  0  0  0  0
    0.8899    2.4632   -1.0317 H   0  0  0  0  0  0  0  0  0  0  0  0
    3.2747    3.6108    1.0568 H   0  0  0  0  0  0  0  0  0  0  0  0
    2.6896    2.3624   -1.6271 H   0  0  0  0  0  0  0  0  0  0  0  0
    4.6588    4.6941   -0.7036 H   0  0  0  0  0  0  0  0  0  0  0  0
    3.2446    5.2447   -1.5661 H   0  0  0  0  0  0  0  0  0  0  0  0
    4.6679    7.4689   -1.0873 H   0  0  0  0  0  0  0  0  0  0  0  0
    4.6406    9.2420    0.6998 H   0  0  0  0  0  0  0  0  0  0  0  0
    2.7949    5.8545    2.3395 H   0  0  0  0  0  0  0  0  0  0  0  0
   -2.5920    4.6503   -0.4404 H   0  0  0  0  0  0  0  0  0  0  0  0
   -1.1779    5.2508    0.4380 H   0  0  0  0  0  0  0  0  0  0  0  0
    0.6982    6.3928   -1.1067 H   0  0  0  0  0  0  0  0  0  0  0  0
    1.1394    7.4600   -3.1903 H   0  0  0  0  0  0  0  0  0  0  0  0
   -2.8745    4.6531   -2.6648 H   0  0  0  0  0  0  0  0  0  0  0  0
   -3.4737    5.1375   -4.9202 H   0  0  0  0  0  0  0  0  0  0  0  0
   -3.0435    6.2290   -7.0670 H   0  0  0  0  0  0  0  0  0  0  0  0
   -0.9878    7.6815   -7.3645 H   0  0  0  0  0  0  0  0  0  0  0  0
    0.5426    7.9144   -5.3927 H   0  0  0  0  0  0  0  0  0  0  0  0
   -4.0921    3.2043    0.3272 H   0  0  0  0  0  0  0  0  0  0  0  0
   -4.5261    1.5057    0.3890 H   0  0  0  0  0  0  0  0  0  0  0  0
   -3.3301    2.1479   -0.8504 H   0  0  0  0  0  0  0  0  0  0  0  0
   -3.0996    3.1124    3.4492 H   0  0  0  0  0  0  0  0  0  0  0  0
   -3.4223    1.6649    4.3888 H   0  0  0  0  0  0  0  0  0  0  0  0
   -5.4135    3.0628    3.9328 H   0  0  0  0  0  0  0  0  0  0  0  0
   -5.2849    2.9293    2.1984 H   0  0  0  0  0  0  0  0  0  0  0  0
   -5.7363    0.4573    2.3157 H   0  0  0  0  0  0  0  0  0  0  0  0
   -7.0115    1.5270    2.9008 H   0  0  0  0  0  0  0  0  0  0  0  0
   -8.8812    0.7495    3.9954 H   0  0  0  0  0  0  0  0  0  0  0  0
   -8.2404    2.3153    4.6034 H   0  0  0  0  0  0  0  0  0  0  0  0
   -8.0151   -0.1852    6.8784 H   0  0  0  0  0  0  0  0  0  0  0  0
   -6.2569   -0.1415    7.0125 H   0  0  0  0  0  0  0  0  0  0  0  0
   -5.2039   -1.5166   -0.4071 H   0  0  0  0  0  0  0  0  0  0  0  0
   -5.8566   -1.5794    1.2244 H   0  0  0  0  0  0  0  0  0  0  0  0
   -7.3073   -3.4690    2.0323 H   0  0  0  0  0  0  0  0  0  0  0  0
   -8.2886   -5.6513    0.9384 H   0  0  0  0  0  0  0  0  0  0  0  0
   -4.4785   -3.5438   -2.1602 H   0  0  0  0  0  0  0  0  0  0  0  0
   -4.7929   -5.3594   -3.7915 H   0  0  0  0  0  0  0  0  0  0  0  0
   -6.4648   -7.1426   -3.4405 H   0  0  0  0  0  0  0  0  0  0  0  0
   -7.8372   -7.0610   -1.3603 H   0  0  0  0  0  0  0  0  0  0  0  0
   -4.8974   -7.5710   -0.2506 H   0  0  0  0  0  0  0  0  0  0  0  0
   -4.5214   -6.4728    1.0737 H   0  0  0  0  0  0  0  0  0  0  0  0
    8.2174   -0.4664    2.3885 H   0  0  0  0  0  0  0  0  0  0  0  0
    8.2780   -3.5537    4.6234 H   0  0  0  0  0  0  0  0  0  0  0  0
    7.6387   -1.8691    4.8197 H   0  0  0  0  0  0  0  0  0  0  0  0
    9.3340   -2.1828    4.2597 H   0  0  0  0  0  0  0  0  0  0  0  0
  1  2  1  0
  2  3  1  0
  3  4  1  0
  4  5  1  0
  5  6  1  0
  6  7  2  0
  6  8  1  0
  8  9  1  0
  9 10  1  0
 10 11  1  0
 11 12  2  0
 11 13  1  0
 13 14  1  0
 14 15  1  0
 15 16  1  0
 16 17  1  0
 17 18  1  0
 18 19  1  0
 19 20  1  0
 20 21  2  0
 20 22  1  0
 22 23  1  0
 23 24  1  0
 24 25  2  0
 24 26  1  0
 26 27  1  0
 27 28  1  0
 28 29  2  0
 28 30  1  0
 30 31  1  0
 31 32  1  0
 32 33  2  0
 32 34  1  0
 34 35  1  0
 35 36  1  0
 36 37  2  0
 34 38  1  0
 38 39  1  0
 39 40  1  0
 40 41  1  0
 41 42  2  0
 42 43  1  0
 30 44  1  0
 44 45  1  0
 45 46  2  0
 46 47  1  0
 47 48  2  0
 48 49  1  0
 49 50  2  0
 49 51  1  0
 51 52  2  0
 52 53  1  0
 53 54  2  0
 27 55  1  0
 26 56  1  0
 56 57  1  0
 57 58  1  0
 58 59  1  0
 59 60  2  3
 60 61  1  0
 60 62  1  0
 22 63  1  0
 63 64  1  0
 64 65  2  0
 65 66  1  0
 66 67  1  0
 67 68  2  0
 68 69  1  0
 69 70  2  0
 70 71  1  0
 71 72  2  0
 18 73  1  0
 73 74  2  0
 73 75  1  0
  5 76  1  0
 76 77  1  0
 77 78  2  0
 77 79  1  0
 36  9  1  0
 43 39  2  0
 50 45  1  0
 68 64  1  0
 54 48  1  0
 72 67  1  0
  1 80  1  0
  1 81  1  0
  1 82  1  0
  2 83  1  0
  2 84  1  0
  3 85  1  0
  3 86  1  0
  4 87  1  0
  4 88  1  0
  5 89  1  6
  8 90  1  0
  9 91  1  6
 10 92  1  0
 10 93  1  0
 13 94  1  0
 14 95  1  0
 14 96  1  0
 15 97  1  0
 15 98  1  0
 16 99  1  0
 16100  1  0
 17101  1  0
 17102  1  0
 18103  1  6
 19104  1  0
 22105  1  1
 23106  1  0
 26107  1  1
 30108  1  6
 31109  1  0
 34110  1  1
 35111  1  0
 38112  1  0
 38113  1  0
 40114  1  0
 41115  1  0
 43116  1  0
 44117  1  0
 44118  1  0
 46119  1  0
 47120  1  0
 50121  1  0
 51122  1  0
 52123  1  0
 53124  1  0
 54125  1  0
 55126  1  0
 55127  1  0
 55128  1  0
 56129  1  0
 56130  1  0
 57131  1  0
 57132  1  0
 58133  1  0
 58134  1  0
 61135  1  0
 61136  1  0
 62137  1  0
 62138  1  0
 63139  1  0
 63140  1  0
 65141  1  0
 66142  1  0
 69143  1  0
 70144  1  0
 71145  1  0
 72146  1  0
 75147  1  0
 75148  1  0
 76149  1  0
 79150  1  0
 79151  1  0
 79152  1  0
M  END
>  <Ligand ID>  (1) 
LIG0001827

>  <Ligand>  (1) 
CHEMBL3600833

>  <SMILES>  (1) 
CCCC[C@H](C(=O)N[C@H]1CC(=O)NCCCC[C@H](NC(=O)[C@@H](NC(=O)[C@@H](N(C(=O)[C@H](NC(=O)[C@@H](NC1=O)Cc1[nH]cnc1)Cc1ccc2c(c1)cccc2)C)CCCN=C(N)N)Cc1c[nH]c2c1cccc2)C(=O)N)NC(=O)C

>  <CID>  (1) 
122184572.0

>  <ChEMBL ID>  (1) 
nan

>  <InChiKey>  (1) 
UBWLAYRWNUNYHG-WEIIMGFKSA-N

>  <InChi>  (1) 
InChI=1S/C55H73N15O9/c1-4-5-16-41(64-32(2)71)49(74)67-44-28-47(72)60-22-11-10-18-40(48(56)73)65-50(75)42(26-36-29-62-39-17-9-8-15-38(36)39)68-53(78)46(19-12-23-61-55(57)58)70(3)54(79)45(25-33-20-21-34-13-6-7-14-35(34)24-33)69-51(76)43(66-52(44)77)27-37-30-59-31-63-37/h6-9,13-15,17,20-21,24,29-31,40-46,62H,4-5,10-12,16,18-19,22-23,25-28H2,1-3H3,(H2,56,73)(H,59,63)(H,60,72)(H,64,71)(H,65,75)(H,66,77)(H,67,74)(H,68,78)(H,69,76)(H4,57,58,61)/t40-,41+,42-,43-,44-,45+,46-/m0/s1

>  <IUPAC Name>  (1) 
(3S,6S,9R,12S,15S,23S)-15-[[(2R)-2-acetamidohexanoyl]amino]-6-[3-(diaminomethylideneamino)propyl]-12-(1H-imidazol-5-ylmethyl)-3-(1H-indol-3-ylmethyl)-7-methyl-9-(naphthalen-2-ylmethyl)-2,5,8,11,14,17-hexaoxo-1,4,7,10,13,18-hexazacyclotricosane-23-carboxamide

$$$$
