
     RDKit          3D

 18 18  0  0  0  0  0  0  0  0999 V2000
    2.3027    0.4395   -0.3791 C   0  0  0  0  0  0  0  0  0  0  0  0
    1.3543   -0.5558    0.2268 C   0  0  0  0  0  0  0  0  0  0  0  0
    0.0589    0.0373    0.6918 C   0  0  0  0  0  0  0  0  0  0  0  0
   -0.7504    0.7020   -0.3707 C   0  0  0  0  0  0  0  0  0  0  0  0
   -2.1719    0.2284   -0.0389 C   0  0  0  0  0  0  0  0  0  0  0  0
   -1.8994   -1.1302    0.5089 C   0  0  0  0  0  0  0  0  0  0  0  0
   -2.5732   -2.1869    0.3976 O   0  0  0  0  0  0  0  0  0  0  0  0
   -0.7033   -1.0467    1.2112 O   0  0  0  0  0  0  0  0  0  0  0  0
    2.0070    1.4825   -0.2549 H   0  0  0  0  0  0  0  0  0  0  0  0
    2.5066    0.1990   -1.4520 H   0  0  0  0  0  0  0  0  0  0  0  0
    3.3013    0.3260    0.1303 H   0  0  0  0  0  0  0  0  0  0  0  0
    1.8065   -1.0488    1.1200 H   0  0  0  0  0  0  0  0  0  0  0  0
    1.1612   -1.3726   -0.5020 H   0  0  0  0  0  0  0  0  0  0  0  0
    0.2478    0.7014    1.5564 H   0  0  0  0  0  0  0  0  0  0  0  0
   -0.5073    0.3740   -1.4069 H   0  0  0  0  0  0  0  0  0  0  0  0
   -0.7659    1.8021   -0.2587 H   0  0  0  0  0  0  0  0  0  0  0  0
   -2.7888    0.1407   -0.9398 H   0  0  0  0  0  0  0  0  0  0  0  0
   -2.5860    0.9078    0.7426 H   0  0  0  0  0  0  0  0  0  0  0  0
  1  2  1  0
  2  3  1  0
  3  4  1  0
  4  5  1  0
  5  6  1  0
  6  7  2  0
  6  8  1  0
  8  3  1  0
  1  9  1  0
  1 10  1  0
  1 11  1  0
  2 12  1  0
  2 13  1  0
  3 14  1  0
  4 15  1  0
  4 16  1  0
  5 17  1  0
  5 18  1  0
M  END
>  <Ligand ID>  (1) 
LIG0000138

>  <Ligand>  (1) 
4-Hexanolide

>  <SMILES>  (1) 
CCC1CCC(=O)O1

>  <CID>  (1) 
12756.0

>  <ChEMBL ID>  (1) 
nan

>  <InChiKey>  (1) 
JBFHTYHTHYHCDJ-UHFFFAOYSA-N

>  <InChi>  (1) 
InChI=1S/C6H10O2/c1-2-5-3-4-6(7)8-5/h5H,2-4H2,1H3

>  <IUPAC Name>  (1) 
5-ethyloxolan-2-one

$$$$
