
     RDKit          3D

 66 70  0  0  0  0  0  0  0  0999 V2000
    0.7572    4.0695   -1.6622 C   0  0  0  0  0  0  0  0  0  0  0  0
    1.5392    2.9206   -1.0117 C   0  0  1  0  0  0  0  0  0  0  0  0
    0.7256    2.5234    0.1658 C   0  0  0  0  0  0  0  0  0  0  0  0
    1.0141    2.8063    1.4145 O   0  0  0  0  0  0  0  0  0  0  0  0
    0.0938    2.3146    2.1974 N   0  0  0  0  0  0  0  0  0  0  0  0
   -0.8425    1.6863    1.4751 C   0  0  0  0  0  0  0  0  0  0  0  0
   -0.4403    1.8113    0.1507 N   0  0  0  0  0  0  0  0  0  0  0  0
   -2.1915    1.2554    1.7801 C   0  0  0  0  0  0  0  0  0  0  0  0
   -2.8758    2.0133    2.7282 C   0  0  0  0  0  0  0  0  0  0  0  0
   -4.2274    1.7255    2.8845 C   0  0  0  0  0  0  0  0  0  0  0  0
   -4.8774    0.7498    2.1542 C   0  0  0  0  0  0  0  0  0  0  0  0
   -4.1534    0.0088    1.2170 C   0  0  0  0  0  0  0  0  0  0  0  0
   -2.7710    0.2900    1.0526 C   0  0  0  0  0  0  0  0  0  0  0  0
   -1.8096   -0.4972    0.3073 N   0  0  0  0  0  0  0  0  0  0  0  0
   -2.0249   -0.9851   -1.0668 C   0  0  0  0  0  0  0  0  0  0  0  0
   -3.3084   -1.6709   -1.2525 C   0  0  0  0  0  0  0  0  0  0  0  0
   -4.5230   -1.6775   -0.6202 C   0  0  0  0  0  0  0  0  0  0  0  0
   -4.9523   -0.9497    0.5220 N   0  0  0  0  0  0  0  0  0  0  0  0
   -5.5686   -2.4465   -1.0363 N   0  0  0  0  0  0  0  0  0  0  0  0
   -5.4568   -3.2518   -2.1085 C   0  0  0  0  0  0  0  0  0  0  0  0
   -4.2590   -3.2918   -2.7905 C   0  0  0  0  0  0  0  0  0  0  0  0
   -3.1998   -2.5129   -2.3693 C   0  0  0  0  0  0  0  0  0  0  0  0
   -6.6382   -4.0777   -2.5244 C   0  0  0  0  0  0  0  0  0  0  0  0
   -6.2961   -4.7041   -3.7125 F   0  0  0  0  0  0  0  0  0  0  0  0
   -6.7704   -5.0705   -1.5529 F   0  0  0  0  0  0  0  0  0  0  0  0
   -7.7762   -3.3243   -2.6660 F   0  0  0  0  0  0  0  0  0  0  0  0
   -0.4185   -0.8944    1.1463 S   0  0  0  0  0  0  0  0  0  0  0  0
   -0.6534   -1.1984    2.6543 O   0  0  0  0  0  0  0  0  0  0  0  0
   -0.4486   -2.3635    0.8455 O   0  0  0  0  0  0  0  0  0  0  0  0
    1.1882   -0.6229    0.7806 C   0  0  0  0  0  0  0  0  0  0  0  0
    2.0853   -0.1151    1.6978 C   0  0  0  0  0  0  0  0  0  0  0  0
    3.3907    0.1032    1.4194 C   0  0  0  0  0  0  0  0  0  0  0  0
    3.9066   -0.1756    0.1792 C   0  0  0  0  0  0  0  0  0  0  0  0
    3.0604   -0.6819   -0.7698 C   0  0  0  0  0  0  0  0  0  0  0  0
    1.7087   -0.9044   -0.4715 C   0  0  0  0  0  0  0  0  0  0  0  0
    5.3440    0.0760   -0.0924 C   0  0  0  0  0  0  0  0  0  0  0  0
    5.7368   -0.2895   -1.5112 C   0  0  0  0  0  0  0  0  0  0  0  0
    6.1327   -0.8189    0.8621 C   0  0  0  0  0  0  0  0  0  0  0  0
    5.7089    1.5245    0.0910 C   0  0  0  0  0  0  0  0  0  0  0  0
    1.6779    1.9590   -1.9737 O   0  0  0  0  0  0  0  0  0  0  0  0
    1.3942    4.6851   -2.3231 H   0  0  0  0  0  0  0  0  0  0  0  0
    0.3987    4.7660   -0.8683 H   0  0  0  0  0  0  0  0  0  0  0  0
   -0.1414    3.6575   -2.1708 H   0  0  0  0  0  0  0  0  0  0  0  0
    2.5406    3.2751   -0.7170 H   0  0  0  0  0  0  0  0  0  0  0  0
   -2.3693    2.7783    3.3015 H   0  0  0  0  0  0  0  0  0  0  0  0
   -4.7953    2.2823    3.6021 H   0  0  0  0  0  0  0  0  0  0  0  0
   -5.9303    0.5336    2.2780 H   0  0  0  0  0  0  0  0  0  0  0  0
   -1.9665   -0.1433   -1.7798 H   0  0  0  0  0  0  0  0  0  0  0  0
   -1.2117   -1.7030   -1.3383 H   0  0  0  0  0  0  0  0  0  0  0  0
   -5.9066   -1.1102    0.8926 H   0  0  0  0  0  0  0  0  0  0  0  0
   -4.1656   -3.9414   -3.6571 H   0  0  0  0  0  0  0  0  0  0  0  0
   -2.2598   -2.5627   -2.9277 H   0  0  0  0  0  0  0  0  0  0  0  0
    1.7440    0.1297    2.7148 H   0  0  0  0  0  0  0  0  0  0  0  0
    4.0593    0.5076    2.1826 H   0  0  0  0  0  0  0  0  0  0  0  0
    3.4536   -0.9128   -1.7717 H   0  0  0  0  0  0  0  0  0  0  0  0
    1.1293   -1.3044   -1.2860 H   0  0  0  0  0  0  0  0  0  0  0  0
    6.8214   -0.0891   -1.5942 H   0  0  0  0  0  0  0  0  0  0  0  0
    5.5297   -1.3396   -1.7592 H   0  0  0  0  0  0  0  0  0  0  0  0
    5.1876    0.4300   -2.1646 H   0  0  0  0  0  0  0  0  0  0  0  0
    7.2151   -0.8210    0.6437 H   0  0  0  0  0  0  0  0  0  0  0  0
    5.9760   -0.5262    1.9106 H   0  0  0  0  0  0  0  0  0  0  0  0
    5.7858   -1.8520    0.7392 H   0  0  0  0  0  0  0  0  0  0  0  0
    6.4153    1.5845    0.9435 H   0  0  0  0  0  0  0  0  0  0  0  0
    6.2574    1.9582   -0.7723 H   0  0  0  0  0  0  0  0  0  0  0  0
    4.8154    2.1813    0.2252 H   0  0  0  0  0  0  0  0  0  0  0  0
    2.4361    2.2236   -2.5518 H   0  0  0  0  0  0  0  0  0  0  0  0
  1  2  1  0
  2  3  1  0
  3  4  1  0
  4  5  1  0
  5  6  2  0
  6  7  1  0
  6  8  1  0
  8  9  2  0
  9 10  1  0
 10 11  2  0
 11 12  1  0
 12 13  2  0
 13 14  1  0
 14 15  1  0
 15 16  1  0
 16 17  2  0
 17 18  1  0
 17 19  1  0
 19 20  2  0
 20 21  1  0
 21 22  2  0
 20 23  1  0
 23 24  1  0
 23 25  1  0
 23 26  1  0
 14 27  1  0
 27 28  2  0
 27 29  2  0
 27 30  1  0
 30 31  2  0
 31 32  1  0
 32 33  2  0
 33 34  1  0
 34 35  2  0
 33 36  1  0
 36 37  1  0
 36 38  1  0
 36 39  1  0
  2 40  1  0
  7  3  2  0
 13  8  1  0
 22 16  1  0
 35 30  1  0
 18 12  1  0
  1 41  1  0
  1 42  1  0
  1 43  1  0
  2 44  1  1
  9 45  1  0
 10 46  1  0
 11 47  1  0
 15 48  1  0
 15 49  1  0
 18 50  1  0
 21 51  1  0
 22 52  1  0
 31 53  1  0
 32 54  1  0
 34 55  1  0
 35 56  1  0
 37 57  1  0
 37 58  1  0
 37 59  1  0
 38 60  1  0
 38 61  1  0
 38 62  1  0
 39 63  1  0
 39 64  1  0
 39 65  1  0
 40 66  1  0
M  END
>  <Ligand ID>  (1) 
LIG0005200

>  <Ligand>  (1) 
CHEMBL2164582

>  <SMILES>  (1) 
C[C@@H](c1onc(n1)c1cccc2c1N(Cc1c(N2)nc(cc1)C(F)(F)F)S(=O)(=O)c1ccc(cc1)C(C)(C)C)O

>  <CID>  (1) 
62707365.0

>  <ChEMBL ID>  (1) 
nan

>  <InChiKey>  (1) 
CEDDFIPODUBZLL-HNNXBMFYSA-N

>  <InChi>  (1) 
InChI=1S/C27H26F3N5O4S/c1-15(36)25-33-24(34-39-25)19-6-5-7-20-22(19)35(14-16-8-13-21(27(28,29)30)32-23(16)31-20)40(37,38)18-11-9-17(10-12-18)26(2,3)4/h5-13,15,36H,14H2,1-4H3,(H,31,32)/t15-/m0/s1

>  <IUPAC Name>  (1) 
(1S)-1-[3-[6-(4-tert-butylphenyl)sulfonyl-2-(trifluoromethyl)-5,11-dihydropyrido[3,2-c][1,5]benzodiazepin-7-yl]-1,2,4-oxadiazol-5-yl]ethanol

$$$$
