
     RDKit          3D

 33 33  0  0  0  0  0  0  0  0999 V2000
    4.1445   -0.1576   -0.6024 C   0  0  0  0  0  0  0  0  0  0  0  0
    3.0385    0.8530   -0.3395 C   0  0  0  0  0  0  0  0  0  0  0  0
    1.8298    0.5987   -1.1634 C   0  0  0  0  0  0  0  0  0  0  0  0
    1.1501   -0.7055   -1.0004 C   0  0  0  0  0  0  0  0  0  0  0  0
    0.6113   -1.0393    0.3408 C   0  0  0  0  0  0  0  0  0  0  0  0
   -0.4220   -0.1092    0.8565 C   0  0  0  0  0  0  0  0  0  0  0  0
   -1.7496   -0.0676    0.4435 C   0  0  0  0  0  0  0  0  0  0  0  0
   -2.4538   -0.8946   -0.5543 C   0  0  0  0  0  0  0  0  0  0  0  0
   -3.2796   -0.0162   -1.4240 C   0  0  0  0  0  0  0  0  0  0  0  0
   -4.5365   -0.2451   -1.4315 O   0  0  0  0  0  0  0  0  0  0  0  0
   -2.7750    1.0013   -2.1990 O   0  0  0  0  0  0  0  0  0  0  0  0
   -3.3993   -1.8105    0.0742 N   0  0  0  0  0  0  0  0  0  0  0  0
   -2.4119    0.9414    1.1566 C   0  0  0  0  0  0  0  0  0  0  0  0
   -1.4785    1.4697    1.9659 N   0  0  0  0  0  0  0  0  0  0  0  0
   -0.3218    0.8547    1.7877 N   0  0  0  0  0  0  0  0  0  0  0  0
    0.8074    1.1928    2.4932 O   0  0  0  0  0  0  0  0  0  0  0  0
    5.0949    0.3069   -0.9247 H   0  0  0  0  0  0  0  0  0  0  0  0
    4.3815   -0.7344    0.3081 H   0  0  0  0  0  0  0  0  0  0  0  0
    3.8005   -0.7922   -1.4498 H   0  0  0  0  0  0  0  0  0  0  0  0
    3.4530    1.8367   -0.7141 H   0  0  0  0  0  0  0  0  0  0  0  0
    2.8763    1.0194    0.7297 H   0  0  0  0  0  0  0  0  0  0  0  0
    2.1666    0.6554   -2.2404 H   0  0  0  0  0  0  0  0  0  0  0  0
    1.1519    1.4739   -1.0580 H   0  0  0  0  0  0  0  0  0  0  0  0
    0.3492   -0.7440   -1.7674 H   0  0  0  0  0  0  0  0  0  0  0  0
    1.8358   -1.5569   -1.2899 H   0  0  0  0  0  0  0  0  0  0  0  0
    1.4197   -1.1109    1.1269 H   0  0  0  0  0  0  0  0  0  0  0  0
    0.1556   -2.0542    0.3529 H   0  0  0  0  0  0  0  0  0  0  0  0
   -1.8268   -1.5010   -1.2023 H   0  0  0  0  0  0  0  0  0  0  0  0
   -3.3492    1.8083   -2.4885 H   0  0  0  0  0  0  0  0  0  0  0  0
   -4.3101   -1.3314    0.3283 H   0  0  0  0  0  0  0  0  0  0  0  0
   -3.6964   -2.4874   -0.6886 H   0  0  0  0  0  0  0  0  0  0  0  0
   -3.4620    1.2243    1.0624 H   0  0  0  0  0  0  0  0  0  0  0  0
    1.2060    2.1212    2.3582 H   0  0  0  0  0  0  0  0  0  0  0  0
  1  2  1  0
  2  3  1  0
  3  4  1  0
  4  5  1  0
  5  6  1  0
  6  7  2  0
  7  8  1  0
  8  9  1  0
  9 10  2  0
  9 11  1  0
  8 12  1  0
  7 13  1  0
 13 14  2  0
 14 15  1  0
 15 16  1  0
 15  6  1  0
  1 17  1  0
  1 18  1  0
  1 19  1  0
  2 20  1  0
  2 21  1  0
  3 22  1  0
  3 23  1  0
  4 24  1  0
  4 25  1  0
  5 26  1  0
  5 27  1  0
  8 28  1  0
 11 29  1  0
 12 30  1  0
 12 31  1  0
 13 32  1  0
 16 33  1  0
M  END
>  <Ligand ID>  (1) 
LIG0001873

>  <Ligand>  (1) 
CHEMBL389833

>  <SMILES>  (1) 
CCCCCc1c(C(C(=O)O)N)cnn1O

>  <CID>  (1) 
44428733.0

>  <ChEMBL ID>  (1) 
nan

>  <InChiKey>  (1) 
YTOFDHJLZIVAMS-UHFFFAOYSA-N

>  <InChi>  (1) 
InChI=1S/C10H17N3O3/c1-2-3-4-5-8-7(6-12-13(8)16)9(11)10(14)15/h6,9,16H,2-5,11H2,1H3,(H,14,15)

>  <IUPAC Name>  (1) 
2-amino-2-(1-hydroxy-5-pentylpyrazol-4-yl)acetic acid

$$$$
