
     RDKit          3D

 26 26  0  0  0  0  0  0  0  0999 V2000
    3.4395    1.4756    0.3720 O   0  0  0  0  0  0  0  0  0  0  0  0
    2.5710    0.9689   -0.5882 C   0  0  0  0  0  0  0  0  0  0  0  0
    2.0914    1.7887   -1.4022 O   0  0  0  0  0  0  0  0  0  0  0  0
    2.1942   -0.4485   -0.6970 C   0  0  2  0  0  0  0  0  0  0  0  0
    0.7063   -0.6802   -0.8149 C   0  0  0  0  0  0  0  0  0  0  0  0
   -0.0872   -0.1718    0.3457 C   0  0  0  0  0  0  0  0  0  0  0  0
   -1.5420   -0.3856    0.2244 C   0  0  0  0  0  0  0  0  0  0  0  0
   -2.3914    0.3976   -0.5506 C   0  0  0  0  0  0  0  0  0  0  0  0
   -2.0907    1.5673   -1.3802 C   0  0  0  0  0  0  0  0  0  0  0  0
   -3.5931   -0.1334   -0.3951 O   0  0  0  0  0  0  0  0  0  0  0  0
   -3.5886   -1.1470    0.3813 N   0  0  0  0  0  0  0  0  0  0  0  0
   -2.3344   -1.3753    0.8167 C   0  0  0  0  0  0  0  0  0  0  0  0
   -1.9307   -2.2623    1.5794 O   0  0  0  0  0  0  0  0  0  0  0  0
    2.7996   -1.2568    0.3441 N   0  0  0  0  0  0  0  0  0  0  0  0
    4.1093    2.2120    0.1578 H   0  0  0  0  0  0  0  0  0  0  0  0
    2.6282   -0.8259   -1.6690 H   0  0  0  0  0  0  0  0  0  0  0  0
    0.4093   -0.2312   -1.7790 H   0  0  0  0  0  0  0  0  0  0  0  0
    0.5959   -1.7791   -0.9683 H   0  0  0  0  0  0  0  0  0  0  0  0
    0.0593    0.9344    0.3767 H   0  0  0  0  0  0  0  0  0  0  0  0
    0.2735   -0.5414    1.3159 H   0  0  0  0  0  0  0  0  0  0  0  0
   -2.3586    2.4734   -0.7973 H   0  0  0  0  0  0  0  0  0  0  0  0
   -1.0708    1.6089   -1.7527 H   0  0  0  0  0  0  0  0  0  0  0  0
   -2.7832    1.5338   -2.2725 H   0  0  0  0  0  0  0  0  0  0  0  0
   -4.4521   -1.7104    0.6358 H   0  0  0  0  0  0  0  0  0  0  0  0
    3.8311   -1.0667    0.2762 H   0  0  0  0  0  0  0  0  0  0  0  0
    2.5145   -0.9451    1.2977 H   0  0  0  0  0  0  0  0  0  0  0  0
  1  2  1  0
  2  3  2  0
  2  4  1  0
  4  5  1  0
  5  6  1  0
  6  7  1  0
  7  8  2  0
  8  9  1  0
  8 10  1  0
 10 11  1  0
 11 12  1  0
 12 13  2  0
  4 14  1  0
 12  7  1  0
  1 15  1  0
  4 16  1  6
  5 17  1  0
  5 18  1  0
  6 19  1  0
  6 20  1  0
  9 21  1  0
  9 22  1  0
  9 23  1  0
 11 24  1  0
 14 25  1  0
 14 26  1  0
M  END
>  <Ligand ID>  (1) 
LIG0000509

>  <Ligand>  (1) 
CHEMBL315268

>  <SMILES>  (1) 
OC(=O)[C@H](CCc1c(C)o[nH]c1=O)N

>  <CID>  (1) 
6604795.0

>  <ChEMBL ID>  (1) 
nan

>  <InChiKey>  (1) 
NZDIZJGEDFARSV-LURJTMIESA-N

>  <InChi>  (1) 
InChI=1S/C8H12N2O4/c1-4-5(7(11)10-14-4)2-3-6(9)8(12)13/h6H,2-3,9H2,1H3,(H,10,11)(H,12,13)/t6-/m0/s1

>  <IUPAC Name>  (1) 
(2S)-2-amino-4-(5-methyl-3-oxo-1,2-oxazol-4-yl)butanoic acid

$$$$
