
     RDKit          3D

 42 43  0  0  0  0  0  0  0  0999 V2000
   -6.6664   -1.4004    0.3650 C   0  0  0  0  0  0  0  0  0  0  0  0
   -5.2577   -0.9271    0.1932 C   0  0  0  0  0  0  0  0  0  0  0  0
   -4.9929   -0.0961   -0.8757 C   0  0  0  0  0  0  0  0  0  0  0  0
   -3.7114    0.3471   -1.0495 C   0  0  0  0  0  0  0  0  0  0  0  0
   -3.3821    1.1132   -2.0054 O   0  0  0  0  0  0  0  0  0  0  0  0
   -2.7534   -0.0451   -0.1686 N   0  0  0  0  0  0  0  0  0  0  0  0
   -3.0558   -0.8517    0.8533 C   0  0  0  0  0  0  0  0  0  0  0  0
   -2.1740   -1.2324    1.6916 O   0  0  0  0  0  0  0  0  0  0  0  0
   -4.2964   -1.3056    1.0563 N   0  0  0  0  0  0  0  0  0  0  0  0
   -1.4162    0.4127   -0.3434 C   0  0  2  0  0  0  0  0  0  0  0  0
   -0.4712   -0.6301   -0.2021 O   0  0  0  0  0  0  0  0  0  0  0  0
    0.6835    0.1215   -0.5153 C   0  0  1  0  0  0  0  0  0  0  0  0
    0.5997    1.1923    0.5482 C   0  0  2  0  0  0  0  0  0  0  0  0
   -0.9172    1.3697    0.6925 C   0  0  1  0  0  0  0  0  0  0  0  0
   -1.2312    2.6725    0.3186 O   0  0  0  0  0  0  0  0  0  0  0  0
    1.1870    2.3649    0.0821 O   0  0  0  0  0  0  0  0  0  0  0  0
    1.9259   -0.6969   -0.4344 C   0  0  0  0  0  0  0  0  0  0  0  0
    3.0042    0.1279   -0.7585 O   0  0  0  0  0  0  0  0  0  0  0  0
    4.3907   -0.8403   -0.6541 P   0  0  0  0  0  0  0  0  0  0  0  0
    5.2284   -0.5368   -1.8730 O   0  0  0  0  0  0  0  0  0  0  0  0
    5.1767   -0.4681    0.7839 O   0  0  0  0  0  0  0  0  0  0  0  0
    6.4761    0.5979    0.5112 P   0  0  0  0  0  0  0  0  0  0  0  0
    6.5141    1.0089   -0.9380 O   0  0  0  0  0  0  0  0  0  0  0  0
    6.2970    1.9194    1.5467 O   0  0  0  0  0  0  0  0  0  0  0  0
    7.8881   -0.2212    0.9477 O   0  0  0  0  0  0  0  0  0  0  0  0
    3.9915   -2.4861   -0.6608 O   0  0  0  0  0  0  0  0  0  0  0  0
   -7.1743   -1.4388   -0.6338 H   0  0  0  0  0  0  0  0  0  0  0  0
   -6.6167   -2.4811    0.6722 H   0  0  0  0  0  0  0  0  0  0  0  0
   -7.2064   -0.7933    1.0970 H   0  0  0  0  0  0  0  0  0  0  0  0
   -5.7519    0.2146   -1.5736 H   0  0  0  0  0  0  0  0  0  0  0  0
   -4.5526   -1.9321    1.8425 H   0  0  0  0  0  0  0  0  0  0  0  0
   -1.2299    0.8321   -1.3619 H   0  0  0  0  0  0  0  0  0  0  0  0
    0.5698    0.6061   -1.5028 H   0  0  0  0  0  0  0  0  0  0  0  0
    1.0712    0.8994    1.4990 H   0  0  0  0  0  0  0  0  0  0  0  0
   -1.2576    1.1002    1.7014 H   0  0  0  0  0  0  0  0  0  0  0  0
   -2.1624    2.8382    0.5880 H   0  0  0  0  0  0  0  0  0  0  0  0
    0.6598    2.7093   -0.6623 H   0  0  0  0  0  0  0  0  0  0  0  0
    1.8717   -1.4855   -1.1945 H   0  0  0  0  0  0  0  0  0  0  0  0
    2.0265   -1.1142    0.5892 H   0  0  0  0  0  0  0  0  0  0  0  0
    5.4200    2.3321    1.3242 H   0  0  0  0  0  0  0  0  0  0  0  0
    7.9119   -1.1366    0.5863 H   0  0  0  0  0  0  0  0  0  0  0  0
    3.3840   -2.6602    0.0943 H   0  0  0  0  0  0  0  0  0  0  0  0
  1  2  1  0
  2  3  2  0
  3  4  1  0
  4  5  2  0
  4  6  1  0
  6  7  1  0
  7  8  2  0
  7  9  1  0
  6 10  1  0
 10 11  1  0
 11 12  1  0
 12 13  1  0
 13 14  1  0
 14 15  1  0
 13 16  1  0
 12 17  1  0
 17 18  1  0
 18 19  1  0
 19 20  2  0
 19 21  1  0
 21 22  1  0
 22 23  2  0
 22 24  1  0
 22 25  1  0
 19 26  1  0
  9  2  1  0
 14 10  1  0
  1 27  1  0
  1 28  1  0
  1 29  1  0
  3 30  1  0
  9 31  1  0
 10 32  1  6
 12 33  1  6
 13 34  1  1
 14 35  1  1
 15 36  1  0
 16 37  1  0
 17 38  1  0
 17 39  1  0
 24 40  1  0
 25 41  1  0
 26 42  1  0
M  END
>  <Ligand ID>  (1) 
LIG0003790

>  <Ligand>  (1) 
CHEMBL386096

>  <SMILES>  (1) 
Cc1cc(=O)n(c(=O)[nH]1)[C@@H]1O[C@@H]([C@H]([C@H]1O)O)COP(=O)(OP(=O)(O)O)O

>  <CID>  (1) 
11993883.0

>  <ChEMBL ID>  (1) 
nan

>  <InChiKey>  (1) 
AZLXOEYOOFJHLI-ZOQUXTDFSA-N

>  <InChi>  (1) 
InChI=1S/C10H16N2O12P2/c1-4-2-6(13)12(10(16)11-4)9-8(15)7(14)5(23-9)3-22-26(20,21)24-25(17,18)19/h2,5,7-9,14-15H,3H2,1H3,(H,11,16)(H,20,21)(H2,17,18,19)/t5-,7-,8-,9-/m1/s1

>  <IUPAC Name>  (1) 
[(2R,3S,4R,5R)-3,4-dihydroxy-5-(6-methyl-2,4-dioxo-1H-pyrimidin-3-yl)oxolan-2-yl]methyl phosphono hydrogen phosphate

$$$$
