
     RDKit          3D

 84 87  0  0  0  0  0  0  0  0999 V2000
  -12.5592   -0.2361    1.2844 O   0  0  0  0  0  0  0  0  0  0  0  0
  -11.8318    0.1895    0.1753 C   0  0  0  0  0  0  0  0  0  0  0  0
  -10.4831   -0.4924    0.1466 C   0  0  1  0  0  0  0  0  0  0  0  0
   -9.7590   -0.1940    1.2890 O   0  0  0  0  0  0  0  0  0  0  0  0
   -8.4245   -0.4451    1.0017 C   0  0  2  0  0  0  0  0  0  0  0  0
   -8.0739    0.3484   -0.1133 O   0  0  0  0  0  0  0  0  0  0  0  0
   -6.7753    1.3538    0.3232 P   0  0  0  0  0  0  0  0  0  0  0  0
   -6.9631    1.8349    1.7353 O   0  0  0  0  0  0  0  0  0  0  0  0
   -5.3307    0.4628    0.2815 O   0  0  0  0  0  0  0  0  0  0  0  0
   -4.5871    0.5933   -1.2338 P   0  0  0  0  0  0  0  0  0  0  0  0
   -5.3457   -0.1646   -2.2989 O   0  0  0  0  0  0  0  0  0  0  0  0
   -2.9867    0.1183   -1.1712 O   0  0  0  0  0  0  0  0  0  0  0  0
   -2.7047   -1.1441   -0.0799 P   0  0  0  0  0  0  0  0  0  0  0  0
   -2.6263   -2.4134   -0.8928 O   0  0  0  0  0  0  0  0  0  0  0  0
   -1.2271   -0.9219    0.7280 O   0  0  0  0  0  0  0  0  0  0  0  0
   -1.1959    0.5246    1.5715 P   0  0  0  0  0  0  0  0  0  0  0  0
   -1.4776    0.2271    3.0393 O   0  0  0  0  0  0  0  0  0  0  0  0
    0.2465    1.3621    1.4203 O   0  0  0  0  0  0  0  0  0  0  0  0
    1.3272    0.5537    1.0710 C   0  0  0  0  0  0  0  0  0  0  0  0
    2.5275    1.4669    0.9815 C   0  0  1  0  0  0  0  0  0  0  0  0
    3.6863    0.7545    0.6325 O   0  0  0  0  0  0  0  0  0  0  0  0
    4.5862    1.8016    0.4887 C   0  0  2  0  0  0  0  0  0  0  0  0
    3.8761    2.6604   -0.5285 C   0  0  1  0  0  0  0  0  0  0  0  0
    2.4149    2.4269   -0.1833 C   0  0  2  0  0  0  0  0  0  0  0  0
    1.8324    3.6405    0.1755 O   0  0  0  0  0  0  0  0  0  0  0  0
    4.2236    3.9896   -0.3909 O   0  0  0  0  0  0  0  0  0  0  0  0
    5.9041    1.4170    0.0917 N   0  0  0  0  0  0  0  0  0  0  0  0
    6.0367    0.6206   -0.9852 C   0  0  0  0  0  0  0  0  0  0  0  0
    7.2802    0.2062   -1.4303 C   0  0  0  0  0  0  0  0  0  0  0  0
    8.3883    0.6533   -0.7096 C   0  0  0  0  0  0  0  0  0  0  0  0
    8.1870    1.4483    0.3585 N   0  0  0  0  0  0  0  0  0  0  0  0
    6.9745    1.8479    0.7865 C   0  0  0  0  0  0  0  0  0  0  0  0
    6.8033    2.5917    1.7875 O   0  0  0  0  0  0  0  0  0  0  0  0
    9.7213    0.2779   -1.0927 N   0  0  0  0  0  0  0  0  0  0  0  0
   10.7631    0.7322   -0.3688 O   0  0  0  0  0  0  0  0  0  0  0  0
   10.8713    0.0943    0.8638 C   0  0  0  0  0  0  0  0  0  0  0  0
   11.0588   -1.3549    0.5861 C   0  0  0  0  0  0  0  0  0  0  0  0
   12.3688   -1.8177    0.4429 C   0  0  0  0  0  0  0  0  0  0  0  0
   12.5899   -3.1626    0.1831 C   0  0  0  0  0  0  0  0  0  0  0  0
   11.5115   -4.0254    0.0695 C   0  0  0  0  0  0  0  0  0  0  0  0
   10.2163   -3.5713    0.2104 C   0  0  0  0  0  0  0  0  0  0  0  0
   10.0012   -2.2334    0.4687 C   0  0  0  0  0  0  0  0  0  0  0  0
   -2.5058    1.4887    1.0411 O   0  0  0  0  0  0  0  0  0  0  0  0
   -3.9764   -1.3028    1.0117 O   0  0  0  0  0  0  0  0  0  0  0  0
   -4.5980    2.2390   -1.6751 O   0  0  0  0  0  0  0  0  0  0  0  0
   -6.6399    2.6833   -0.6967 O   0  0  0  0  0  0  0  0  0  0  0  0
   -8.2370   -1.8873    0.5994 C   0  0  1  0  0  0  0  0  0  0  0  0
   -9.5313   -2.6297    0.8402 C   0  0  2  0  0  0  0  0  0  0  0  0
  -10.6198   -1.9820    0.0108 C   0  0  2  0  0  0  0  0  0  0  0  0
  -10.4869   -2.3956   -1.3164 O   0  0  0  0  0  0  0  0  0  0  0  0
   -9.8537   -2.5268    2.1827 F   0  0  0  0  0  0  0  0  0  0  0  0
   -7.9016   -2.0100   -0.7570 O   0  0  0  0  0  0  0  0  0  0  0  0
  -12.3499    0.3358    2.0651 H   0  0  0  0  0  0  0  0  0  0  0  0
  -12.3441   -0.0296   -0.7658 H   0  0  0  0  0  0  0  0  0  0  0  0
  -11.6288    1.2773    0.2634 H   0  0  0  0  0  0  0  0  0  0  0  0
   -9.9243   -0.0687   -0.7146 H   0  0  0  0  0  0  0  0  0  0  0  0
   -7.7384   -0.1579    1.8081 H   0  0  0  0  0  0  0  0  0  0  0  0
    1.1200    0.1574    0.0627 H   0  0  0  0  0  0  0  0  0  0  0  0
    1.4616   -0.1922    1.8547 H   0  0  0  0  0  0  0  0  0  0  0  0
    2.6975    2.0258    1.9275 H   0  0  0  0  0  0  0  0  0  0  0  0
    4.5711    2.3765    1.4377 H   0  0  0  0  0  0  0  0  0  0  0  0
    4.0376    2.3238   -1.5668 H   0  0  0  0  0  0  0  0  0  0  0  0
    1.8594    1.9264   -1.0030 H   0  0  0  0  0  0  0  0  0  0  0  0
    1.0875    3.8008   -0.4620 H   0  0  0  0  0  0  0  0  0  0  0  0
    3.6159    4.4041    0.2726 H   0  0  0  0  0  0  0  0  0  0  0  0
    5.1660    0.2768   -1.5411 H   0  0  0  0  0  0  0  0  0  0  0  0
    7.4307   -0.4246   -2.2787 H   0  0  0  0  0  0  0  0  0  0  0  0
    9.8303   -0.3401   -1.9276 H   0  0  0  0  0  0  0  0  0  0  0  0
   11.7946    0.5021    1.3441 H   0  0  0  0  0  0  0  0  0  0  0  0
    9.9782    0.2767    1.4900 H   0  0  0  0  0  0  0  0  0  0  0  0
   13.1936   -1.1049    0.5396 H   0  0  0  0  0  0  0  0  0  0  0  0
   13.6172   -3.4760    0.0800 H   0  0  0  0  0  0  0  0  0  0  0  0
   11.6892   -5.0703   -0.1326 H   0  0  0  0  0  0  0  0  0  0  0  0
    9.3459   -4.2231    0.1271 H   0  0  0  0  0  0  0  0  0  0  0  0
    8.9841   -1.8798    0.5788 H   0  0  0  0  0  0  0  0  0  0  0  0
   -2.3172    2.4446    1.2704 H   0  0  0  0  0  0  0  0  0  0  0  0
   -4.6270   -1.9318    0.6601 H   0  0  0  0  0  0  0  0  0  0  0  0
   -3.8817    2.7165   -1.1869 H   0  0  0  0  0  0  0  0  0  0  0  0
   -7.4554    3.2281   -0.6737 H   0  0  0  0  0  0  0  0  0  0  0  0
   -7.4498   -2.3232    1.2493 H   0  0  0  0  0  0  0  0  0  0  0  0
   -9.4242   -3.7098    0.5946 H   0  0  0  0  0  0  0  0  0  0  0  0
  -11.6142   -2.2733    0.4350 H   0  0  0  0  0  0  0  0  0  0  0  0
   -9.9776   -1.6901   -1.7957 H   0  0  0  0  0  0  0  0  0  0  0  0
   -7.4429   -2.8753   -0.8972 H   0  0  0  0  0  0  0  0  0  0  0  0
  1  2  1  0
  2  3  1  0
  3  4  1  0
  4  5  1  0
  5  6  1  0
  6  7  1  0
  7  8  2  0
  7  9  1  0
  9 10  1  0
 10 11  2  0
 10 12  1  0
 12 13  1  0
 13 14  2  0
 13 15  1  0
 15 16  1  0
 16 17  2  0
 16 18  1  0
 18 19  1  0
 19 20  1  0
 20 21  1  0
 21 22  1  0
 22 23  1  0
 23 24  1  0
 24 25  1  0
 23 26  1  0
 22 27  1  0
 27 28  1  0
 28 29  2  0
 29 30  1  0
 30 31  2  0
 31 32  1  0
 32 33  2  0
 30 34  1  0
 34 35  1  0
 35 36  1  0
 36 37  1  0
 37 38  2  0
 38 39  1  0
 39 40  2  0
 40 41  1  0
 41 42  2  0
 16 43  1  0
 13 44  1  0
 10 45  1  0
  7 46  1  0
  5 47  1  0
 47 48  1  0
 48 49  1  0
 49 50  1  0
 48 51  1  0
 47 52  1  0
 49  3  1  0
 24 20  1  0
 32 27  1  0
 42 37  1  0
  1 53  1  0
  2 54  1  0
  2 55  1  0
  3 56  1  6
  5 57  1  1
 19 58  1  0
 19 59  1  0
 20 60  1  1
 22 61  1  1
 23 62  1  6
 24 63  1  6
 25 64  1  0
 26 65  1  0
 28 66  1  0
 29 67  1  0
 34 68  1  0
 36 69  1  0
 36 70  1  0
 38 71  1  0
 39 72  1  0
 40 73  1  0
 41 74  1  0
 42 75  1  0
 43 76  1  0
 44 77  1  0
 45 78  1  0
 46 79  1  0
 47 80  1  1
 48 81  1  6
 49 82  1  1
 50 83  1  0
 52 84  1  0
M  END
>  <Ligand ID>  (1) 
LIG0002710

>  <Ligand>  (1) 
CHEMBL1784291

>  <SMILES>  (1) 
OC[C@H]1O[C@H](OP(=O)(OP(=O)(OP(=O)(OP(=O)(OC[C@H]2O[C@H]([C@@H]([C@@H]2O)O)n2ccc(nc2=O)NOCc2ccccc2)O)O)O)O)[C@@H]([C@H]([C@@H]1O)F)O

>  <CID>  (1) 
53309528.0

>  <ChEMBL ID>  (1) 
nan

>  <InChiKey>  (1) 
VNAVHLYUKQZQDG-PUTNOJKFSA-N

>  <InChi>  (1) 
InChI=1S/C22H32FN3O22P4/c23-15-16(28)12(8-27)44-21(18(15)30)45-50(35,36)47-52(39,40)48-51(37,38)46-49(33,34)42-10-13-17(29)19(31)20(43-13)26-7-6-14(24-22(26)32)25-41-9-11-4-2-1-3-5-11/h1-7,12-13,15-21,27-31H,8-10H2,(H,33,34)(H,35,36)(H,37,38)(H,39,40)(H,24,25,32)/t12-,13-,15+,16-,17-,18-,19-,20-,21-/m1/s1

>  <IUPAC Name>  (1) 
[[(2R,3S,4R,5R)-3,4-dihydroxy-5-[2-oxo-4-(phenylmethoxyamino)pyrimidin-1-yl]oxolan-2-yl]methoxy-hydroxyphosphoryl] [[[(2R,3S,4S,5R,6R)-4-fluoro-3,5-dihydroxy-6-(hydroxymethyl)oxan-2-yl]oxy-hydroxyphosphoryl]oxy-hydroxyphosphoryl] hydrogen phosphate

$$$$
