
     RDKit          3D

 58 62  0  0  0  0  0  0  0  0999 V2000
   -5.6648    5.1339   -1.4458 Cl  0  0  0  0  0  0  0  0  0  0  0  0
   -4.7965    3.7148   -0.9044 C   0  0  0  0  0  0  0  0  0  0  0  0
   -3.4417    3.5468   -1.0886 C   0  0  0  0  0  0  0  0  0  0  0  0
   -2.7805    2.4141   -0.6505 C   0  0  0  0  0  0  0  0  0  0  0  0
   -3.4553    1.3768    0.0046 C   0  0  0  0  0  0  0  0  0  0  0  0
   -4.8019    1.5591    0.1805 C   0  0  0  0  0  0  0  0  0  0  0  0
   -5.4732    2.7030   -0.2615 C   0  0  0  0  0  0  0  0  0  0  0  0
   -2.6700    0.2234    0.4494 C   0  0  0  0  0  0  0  0  0  0  0  0
   -1.7156   -0.3166   -0.5448 C   0  0  0  0  0  0  0  0  0  0  0  0
   -1.9923   -1.2568   -1.4871 C   0  0  0  0  0  0  0  0  0  0  0  0
   -1.0405   -1.7205   -2.3921 C   0  0  0  0  0  0  0  0  0  0  0  0
    0.2477   -1.2167   -2.3482 C   0  0  0  0  0  0  0  0  0  0  0  0
    0.5643   -0.2596   -1.4027 C   0  0  0  0  0  0  0  0  0  0  0  0
   -0.4015    0.1753   -0.5242 C   0  0  0  0  0  0  0  0  0  0  0  0
    1.8716    0.2531   -1.3554 C   0  0  0  0  0  0  0  0  0  0  0  0
    2.2488    1.2564   -0.4275 N   0  0  0  0  0  0  0  0  0  0  0  0
    3.5813    1.8094   -0.3036 C   0  0  0  0  0  0  0  0  0  0  0  0
    4.5600    0.9379    0.3468 C   0  0  0  0  0  0  0  0  0  0  0  0
    4.6399    1.0208    1.7470 C   0  0  0  0  0  0  0  0  0  0  0  0
    5.5153    0.2735    2.4787 C   0  0  0  0  0  0  0  0  0  0  0  0
    6.3544   -0.5967    1.8238 C   0  0  0  0  0  0  0  0  0  0  0  0
    6.2823   -0.6834    0.4557 C   0  0  0  0  0  0  0  0  0  0  0  0
    5.3984    0.0775   -0.2277 N   0  0  0  0  0  0  0  0  0  0  0  0
    7.2924   -1.3924    2.6545 C   0  0  0  0  0  0  0  0  0  0  0  0
    6.7492   -2.6393    2.9462 F   0  0  0  0  0  0  0  0  0  0  0  0
    7.5083   -0.7649    3.8674 F   0  0  0  0  0  0  0  0  0  0  0  0
    8.5300   -1.5491    2.0663 F   0  0  0  0  0  0  0  0  0  0  0  0
    2.7379   -0.2678   -2.2898 C   0  0  0  0  0  0  0  0  0  0  0  0
    2.3650   -1.2311   -3.2189 C   0  0  0  0  0  0  0  0  0  0  0  0
    3.1717   -1.6994   -4.0693 O   0  0  0  0  0  0  0  0  0  0  0  0
    1.1125   -1.7025   -3.2417 N   0  0  0  0  0  0  0  0  0  0  0  0
   -3.5206   -0.7987    1.0990 C   0  0  0  0  0  0  0  0  0  0  0  0
   -3.2735   -1.2140    2.4164 C   0  0  0  0  0  0  0  0  0  0  0  0
   -4.0397   -2.1516    3.0550 C   0  0  0  0  0  0  0  0  0  0  0  0
   -5.1110   -2.7491    2.4342 C   0  0  0  0  0  0  0  0  0  0  0  0
   -5.3805   -2.3625    1.1396 C   0  0  0  0  0  0  0  0  0  0  0  0
   -4.6004   -1.4087    0.4921 C   0  0  0  0  0  0  0  0  0  0  0  0
   -6.1224   -3.9411    3.1791 Cl  0  0  0  0  0  0  0  0  0  0  0  0
   -2.8900    4.3408   -1.5969 H   0  0  0  0  0  0  0  0  0  0  0  0
   -1.7190    2.3804   -0.8454 H   0  0  0  0  0  0  0  0  0  0  0  0
   -5.4077    0.8328    0.6780 H   0  0  0  0  0  0  0  0  0  0  0  0
   -6.5371    2.8261   -0.1124 H   0  0  0  0  0  0  0  0  0  0  0  0
   -2.0524    0.6474    1.3269 H   0  0  0  0  0  0  0  0  0  0  0  0
   -2.9681   -1.6956   -1.5808 H   0  0  0  0  0  0  0  0  0  0  0  0
   -1.3079   -2.4752   -3.1303 H   0  0  0  0  0  0  0  0  0  0  0  0
   -0.1915    0.9033    0.2155 H   0  0  0  0  0  0  0  0  0  0  0  0
    1.5358    1.6472    0.2317 H   0  0  0  0  0  0  0  0  0  0  0  0
    3.9415    2.1290   -1.3359 H   0  0  0  0  0  0  0  0  0  0  0  0
    3.4756    2.8017    0.2164 H   0  0  0  0  0  0  0  0  0  0  0  0
    3.9900    1.6987    2.2882 H   0  0  0  0  0  0  0  0  0  0  0  0
    5.5459    0.3678    3.5661 H   0  0  0  0  0  0  0  0  0  0  0  0
    6.9443   -1.3692   -0.0558 H   0  0  0  0  0  0  0  0  0  0  0  0
    3.7602    0.0634   -2.3566 H   0  0  0  0  0  0  0  0  0  0  0  0
    0.8319   -2.4254   -3.9386 H   0  0  0  0  0  0  0  0  0  0  0  0
   -2.4361   -0.7797    2.9710 H   0  0  0  0  0  0  0  0  0  0  0  0
   -3.8333   -2.4619    4.0777 H   0  0  0  0  0  0  0  0  0  0  0  0
   -6.2309   -2.8218    0.6149 H   0  0  0  0  0  0  0  0  0  0  0  0
   -4.9002   -1.1633   -0.5056 H   0  0  0  0  0  0  0  0  0  0  0  0
  1  2  1  0
  2  3  2  0
  3  4  1  0
  4  5  2  0
  5  6  1  0
  6  7  2  0
  5  8  1  0
  8  9  1  0
  9 10  2  0
 10 11  1  0
 11 12  2  0
 12 13  1  0
 13 14  2  0
 13 15  1  0
 15 16  1  0
 16 17  1  0
 17 18  1  0
 18 19  2  0
 19 20  1  0
 20 21  2  0
 21 22  1  0
 22 23  2  0
 21 24  1  0
 24 25  1  0
 24 26  1  0
 24 27  1  0
 15 28  2  0
 28 29  1  0
 29 30  2  0
 29 31  1  0
  8 32  1  0
 32 33  2  0
 33 34  1  0
 34 35  2  0
 35 36  1  0
 36 37  2  0
 35 38  1  0
  7  2  1  0
 14  9  1  0
 23 18  1  0
 37 32  1  0
 31 12  1  0
  3 39  1  0
  4 40  1  0
  6 41  1  0
  7 42  1  0
  8 43  1  0
 10 44  1  0
 11 45  1  0
 14 46  1  0
 16 47  1  0
 17 48  1  0
 17 49  1  0
 19 50  1  0
 20 51  1  0
 22 52  1  0
 28 53  1  0
 31 54  1  0
 33 55  1  0
 34 56  1  0
 36 57  1  0
 37 58  1  0
M  END
>  <Ligand ID>  (1) 
LIG0005902

>  <Ligand>  (1) 
CHEMBL3943326

>  <SMILES>  (1) 
Clc1ccc(cc1)C(c1ccc2c(c1)c(NCc1ccc(cn1)C(F)(F)F)cc(=O)[nH]2)c1ccc(cc1)Cl

>  <CID>  (1) 
118329980.0

>  <ChEMBL ID>  (1) 
nan

>  <InChiKey>  (1) 
OVAXWAOXAIFSCA-UHFFFAOYSA-N

>  <InChi>  (1) 
InChI=1S/C29H20Cl2F3N3O/c30-21-7-1-17(2-8-21)28(18-3-9-22(31)10-4-18)19-5-12-25-24(13-19)26(14-27(38)37-25)36-16-23-11-6-20(15-35-23)29(32,33)34/h1-15,28H,16H2,(H2,36,37,38)

>  <IUPAC Name>  (1) 
6-[bis(4-chlorophenyl)methyl]-4-[[5-(trifluoromethyl)pyridin-2-yl]methylamino]-1H-quinolin-2-one

$$$$
