
     RDKit          3D

 58 62  0  0  0  0  0  0  0  0999 V2000
   -1.9736   -4.6551    1.9945 C   0  0  0  0  0  0  0  0  0  0  0  0
   -3.1880   -3.9273    1.8510 O   0  0  0  0  0  0  0  0  0  0  0  0
   -3.0890   -2.6594    1.2805 C   0  0  0  0  0  0  0  0  0  0  0  0
   -1.8914   -2.1139    0.8681 C   0  0  0  0  0  0  0  0  0  0  0  0
   -1.8014   -0.8735    0.3110 C   0  0  0  0  0  0  0  0  0  0  0  0
   -2.9596   -0.1426    0.1575 C   0  0  0  0  0  0  0  0  0  0  0  0
   -4.1965   -0.6341    0.5520 C   0  0  0  0  0  0  0  0  0  0  0  0
   -4.2349   -1.9050    1.1152 C   0  0  0  0  0  0  0  0  0  0  0  0
   -5.4403   -2.4615    1.5337 O   0  0  0  0  0  0  0  0  0  0  0  0
   -6.6181   -1.6981    1.3700 C   0  0  0  0  0  0  0  0  0  0  0  0
   -2.8606    1.0716   -0.3921 N   0  0  0  0  0  0  0  0  0  0  0  0
   -1.6579    1.5798   -0.7913 C   0  0  0  0  0  0  0  0  0  0  0  0
   -0.5501    0.8601   -0.6352 N   0  0  0  0  0  0  0  0  0  0  0  0
   -0.5792   -0.3864   -0.0814 C   0  0  0  0  0  0  0  0  0  0  0  0
    0.6462   -1.0822    0.0556 N   0  0  0  0  0  0  0  0  0  0  0  0
    1.2076   -1.4688    1.3479 C   0  0  0  0  0  0  0  0  0  0  0  0
    2.5810   -0.8441    1.5316 C   0  0  0  0  0  0  0  0  0  0  0  0
    3.3009   -0.8239    0.2566 N   0  0  0  0  0  0  0  0  0  0  0  0
    2.8341   -1.7835   -0.7396 C   0  0  0  0  0  0  0  0  0  0  0  0
    1.4199   -1.4471   -1.1145 C   0  0  0  0  0  0  0  0  0  0  0  0
    4.3792    0.0709    0.0105 C   0  0  0  0  0  0  0  0  0  0  0  0
    4.3718    1.0049   -1.0040 C   0  0  0  0  0  0  0  0  0  0  0  0
    5.4653    1.8271   -1.1628 C   0  0  0  0  0  0  0  0  0  0  0  0
    6.5836    1.7494   -0.3314 C   0  0  0  0  0  0  0  0  0  0  0  0
    6.5897    0.8040    0.6948 C   0  0  0  0  0  0  0  0  0  0  0  0
    5.4880   -0.0269    0.8569 C   0  0  0  0  0  0  0  0  0  0  0  0
    5.4992   -0.9506    1.8625 F   0  0  0  0  0  0  0  0  0  0  0  0
   -1.6021    2.9131   -1.3869 C   0  0  0  0  0  0  0  0  0  0  0  0
   -2.7593    3.6489   -1.5447 C   0  0  0  0  0  0  0  0  0  0  0  0
   -2.7556    4.9236   -2.1074 C   0  0  0  0  0  0  0  0  0  0  0  0
   -1.5446    5.4723   -2.5237 C   0  0  0  0  0  0  0  0  0  0  0  0
   -0.3829    4.7430   -2.3694 C   0  0  0  0  0  0  0  0  0  0  0  0
   -0.3927    3.4730   -1.8081 C   0  0  0  0  0  0  0  0  0  0  0  0
   -1.5540   -4.7572    0.9693 H   0  0  0  0  0  0  0  0  0  0  0  0
   -2.2240   -5.6556    2.3926 H   0  0  0  0  0  0  0  0  0  0  0  0
   -1.2961   -4.1549    2.6887 H   0  0  0  0  0  0  0  0  0  0  0  0
   -1.0052   -2.7142    1.0011 H   0  0  0  0  0  0  0  0  0  0  0  0
   -5.1052   -0.0705    0.4361 H   0  0  0  0  0  0  0  0  0  0  0  0
   -6.5060   -0.7420    1.9126 H   0  0  0  0  0  0  0  0  0  0  0  0
   -6.7780   -1.4713    0.2887 H   0  0  0  0  0  0  0  0  0  0  0  0
   -7.5078   -2.1881    1.7758 H   0  0  0  0  0  0  0  0  0  0  0  0
    0.5737   -1.1078    2.1800 H   0  0  0  0  0  0  0  0  0  0  0  0
    1.3254   -2.5612    1.4235 H   0  0  0  0  0  0  0  0  0  0  0  0
    2.4485    0.2020    1.8635 H   0  0  0  0  0  0  0  0  0  0  0  0
    3.1611   -1.4362    2.2394 H   0  0  0  0  0  0  0  0  0  0  0  0
    3.4527   -1.8142   -1.6433 H   0  0  0  0  0  0  0  0  0  0  0  0
    2.7915   -2.8094   -0.2750 H   0  0  0  0  0  0  0  0  0  0  0  0
    1.4226   -0.6175   -1.8638 H   0  0  0  0  0  0  0  0  0  0  0  0
    0.8927   -2.3074   -1.5738 H   0  0  0  0  0  0  0  0  0  0  0  0
    3.5000    1.0627   -1.6497 H   0  0  0  0  0  0  0  0  0  0  0  0
    5.4832    2.5795   -1.9640 H   0  0  0  0  0  0  0  0  0  0  0  0
    7.4425    2.3959   -0.4576 H   0  0  0  0  0  0  0  0  0  0  0  0
    7.4265    0.6933    1.3735 H   0  0  0  0  0  0  0  0  0  0  0  0
   -3.6780    3.1772   -1.2044 H   0  0  0  0  0  0  0  0  0  0  0  0
   -3.6937    5.4855   -2.2199 H   0  0  0  0  0  0  0  0  0  0  0  0
   -1.5348    6.4794   -2.9691 H   0  0  0  0  0  0  0  0  0  0  0  0
    0.5510    5.1558   -2.6863 H   0  0  0  0  0  0  0  0  0  0  0  0
    0.5226    2.9182   -1.6951 H   0  0  0  0  0  0  0  0  0  0  0  0
  1  2  1  0
  2  3  1  0
  3  4  2  0
  4  5  1  0
  5  6  2  0
  6  7  1  0
  7  8  2  0
  8  9  1  0
  9 10  1  0
  6 11  1  0
 11 12  2  0
 12 13  1  0
 13 14  2  0
 14 15  1  0
 15 16  1  0
 16 17  1  0
 17 18  1  0
 18 19  1  0
 19 20  1  0
 18 21  1  0
 21 22  2  0
 22 23  1  0
 23 24  2  0
 24 25  1  0
 25 26  2  0
 26 27  1  0
 12 28  1  0
 28 29  2  0
 29 30  1  0
 30 31  2  0
 31 32  1  0
 32 33  2  0
  8  3  1  0
 20 15  1  0
 26 21  1  0
 33 28  1  0
 14  5  1  0
  1 34  1  0
  1 35  1  0
  1 36  1  0
  4 37  1  0
  7 38  1  0
 10 39  1  0
 10 40  1  0
 10 41  1  0
 16 42  1  0
 16 43  1  0
 17 44  1  0
 17 45  1  0
 19 46  1  0
 19 47  1  0
 20 48  1  0
 20 49  1  0
 22 50  1  0
 23 51  1  0
 24 52  1  0
 25 53  1  0
 29 54  1  0
 30 55  1  0
 31 56  1  0
 32 57  1  0
 33 58  1  0
M  END
>  <Ligand ID>  (1) 
LIG0004747

>  <Ligand>  (1) 
CHEMBL2431135

>  <SMILES>  (1) 
COc1cc2c(cc1OC)nc(nc2N1CCN(CC1)c1ccccc1F)c1ccccc1

>  <CID>  (1) 
1920221.0

>  <ChEMBL ID>  (1) 
nan

>  <InChiKey>  (1) 
DXODZTAGDLSJLS-UHFFFAOYSA-N

>  <InChi>  (1) 
InChI=1S/C26H25FN4O2/c1-32-23-16-19-21(17-24(23)33-2)28-25(18-8-4-3-5-9-18)29-26(19)31-14-12-30(13-15-31)22-11-7-6-10-20(22)27/h3-11,16-17H,12-15H2,1-2H3

>  <IUPAC Name>  (1) 
4-[4-(2-fluorophenyl)piperazin-1-yl]-6,7-dimethoxy-2-phenylquinazoline

$$$$
