
     RDKit          3D

 63 66  0  0  0  0  0  0  0  0999 V2000
    5.9059    0.9212   -1.9142 O   0  0  0  0  0  0  0  0  0  0  0  0
    5.2945    0.5615   -0.7010 C   0  0  2  0  0  0  0  0  0  0  0  0
    5.3996   -0.9446   -0.6141 C   0  0  0  0  0  0  0  0  0  0  0  0
    6.7020   -1.3751   -0.5898 O   0  0  0  0  0  0  0  0  0  0  0  0
    7.5851   -1.1426    0.4262 C   0  0  0  0  0  0  0  0  0  0  0  0
    7.3193   -0.4879    1.6013 C   0  0  0  0  0  0  0  0  0  0  0  0
    8.3265   -0.3129    2.5571 C   0  0  0  0  0  0  0  0  0  0  0  0
    9.5854   -0.7837    2.3480 C   0  0  0  0  0  0  0  0  0  0  0  0
    9.8999   -1.4634    1.1532 C   0  0  0  0  0  0  0  0  0  0  0  0
    8.8891   -1.6200    0.2339 C   0  0  0  0  0  0  0  0  0  0  0  0
   10.6426   -0.6560    3.2350 O   0  0  0  0  0  0  0  0  0  0  0  0
    3.8377    0.9831   -0.7445 C   0  0  0  0  0  0  0  0  0  0  0  0
    3.1021    0.3479   -1.8035 N   0  0  0  0  0  0  0  0  0  0  0  0
    1.6810    0.6204   -1.6063 C   0  0  0  0  0  0  0  0  0  0  0  0
    1.2705   -0.2049   -0.3955 C   0  0  0  0  0  0  0  0  0  0  0  0
   -0.1748    0.0337   -0.1364 C   0  0  0  0  0  0  0  0  0  0  0  0
   -0.4669    1.1986    0.5808 C   0  0  0  0  0  0  0  0  0  0  0  0
   -1.7736    1.4715    0.9106 C   0  0  0  0  0  0  0  0  0  0  0  0
   -2.7642    0.5855    0.5249 C   0  0  0  0  0  0  0  0  0  0  0  0
   -2.4864   -0.5628   -0.1822 C   0  0  0  0  0  0  0  0  0  0  0  0
   -1.1701   -0.8356   -0.5141 C   0  0  0  0  0  0  0  0  0  0  0  0
   -4.1047    0.9600    0.9018 N   0  0  0  0  0  0  0  0  0  0  0  0
   -4.9150    1.5305   -0.0744 C   0  0  0  0  0  0  0  0  0  0  0  0
   -4.4014    1.6652   -1.2410 O   0  0  0  0  0  0  0  0  0  0  0  0
   -6.3024    1.9997    0.0699 C   0  0  0  0  0  0  0  0  0  0  0  0
   -7.2919    1.1194   -0.6420 C   0  0  0  0  0  0  0  0  0  0  0  0
   -7.7796    1.2844   -1.9268 C   0  0  0  0  0  0  0  0  0  0  0  0
   -8.6167    0.2386   -2.1852 N   0  0  0  0  0  0  0  0  0  0  0  0
   -8.6429   -0.5412   -1.0968 C   0  0  0  0  0  0  0  0  0  0  0  0
   -7.8248   -0.0265   -0.1014 C   0  0  0  0  0  0  0  0  0  0  0  0
   -7.6986   -0.6359    1.1198 C   0  0  0  0  0  0  0  0  0  0  0  0
   -8.3910   -1.8176    1.4389 C   0  0  0  0  0  0  0  0  0  0  0  0
   -9.2107   -2.3346    0.4432 C   0  0  0  0  0  0  0  0  0  0  0  0
   -9.3389   -1.7201   -0.7945 C   0  0  0  0  0  0  0  0  0  0  0  0
    5.2643    1.4477   -2.4327 H   0  0  0  0  0  0  0  0  0  0  0  0
    5.7408    1.0635    0.1410 H   0  0  0  0  0  0  0  0  0  0  0  0
    4.8751   -1.3093    0.3019 H   0  0  0  0  0  0  0  0  0  0  0  0
    4.8463   -1.4157   -1.4601 H   0  0  0  0  0  0  0  0  0  0  0  0
    6.3532   -0.1049    1.8788 H   0  0  0  0  0  0  0  0  0  0  0  0
    8.1391    0.1992    3.4976 H   0  0  0  0  0  0  0  0  0  0  0  0
   10.8729   -1.8501    0.9539 H   0  0  0  0  0  0  0  0  0  0  0  0
    9.1454   -2.1424   -0.6786 H   0  0  0  0  0  0  0  0  0  0  0  0
   11.3160    0.1189    3.1745 H   0  0  0  0  0  0  0  0  0  0  0  0
    3.3873    0.9814    0.2451 H   0  0  0  0  0  0  0  0  0  0  0  0
    3.9002    2.0950   -1.0450 H   0  0  0  0  0  0  0  0  0  0  0  0
    3.4116    0.6933   -2.7485 H   0  0  0  0  0  0  0  0  0  0  0  0
    1.0807    0.3077   -2.4644 H   0  0  0  0  0  0  0  0  0  0  0  0
    1.5321    1.7002   -1.3398 H   0  0  0  0  0  0  0  0  0  0  0  0
    1.3951   -1.2719   -0.7477 H   0  0  0  0  0  0  0  0  0  0  0  0
    1.8031   -0.0070    0.5209 H   0  0  0  0  0  0  0  0  0  0  0  0
    0.2824    1.9023    0.8897 H   0  0  0  0  0  0  0  0  0  0  0  0
   -2.0160    2.3660    1.4681 H   0  0  0  0  0  0  0  0  0  0  0  0
   -3.2816   -1.2370   -0.4724 H   0  0  0  0  0  0  0  0  0  0  0  0
   -0.8785   -1.7239   -1.0761 H   0  0  0  0  0  0  0  0  0  0  0  0
   -4.4795    0.8267    1.8544 H   0  0  0  0  0  0  0  0  0  0  0  0
   -6.3828    2.9992   -0.4307 H   0  0  0  0  0  0  0  0  0  0  0  0
   -6.6152    2.0736    1.1344 H   0  0  0  0  0  0  0  0  0  0  0  0
   -7.5322    2.1086   -2.6182 H   0  0  0  0  0  0  0  0  0  0  0  0
   -9.1280    0.1049   -3.0802 H   0  0  0  0  0  0  0  0  0  0  0  0
   -7.0684   -0.2648    1.9084 H   0  0  0  0  0  0  0  0  0  0  0  0
   -8.2937   -2.2867    2.4065 H   0  0  0  0  0  0  0  0  0  0  0  0
   -9.7561   -3.2384    0.6588 H   0  0  0  0  0  0  0  0  0  0  0  0
  -10.0002   -2.1922   -1.5283 H   0  0  0  0  0  0  0  0  0  0  0  0
  1  2  1  0
  2  3  1  0
  3  4  1  0
  4  5  1  0
  5  6  2  0
  6  7  1  0
  7  8  2  0
  8  9  1  0
  9 10  2  0
  8 11  1  0
  2 12  1  0
 12 13  1  0
 13 14  1  0
 14 15  1  0
 15 16  1  0
 16 17  2  0
 17 18  1  0
 18 19  2  0
 19 20  1  0
 20 21  2  0
 19 22  1  0
 22 23  1  0
 23 24  2  0
 23 25  1  0
 25 26  1  0
 26 27  2  0
 27 28  1  0
 28 29  1  0
 29 30  2  0
 30 31  1  0
 31 32  2  0
 32 33  1  0
 33 34  2  0
 10  5  1  0
 21 16  1  0
 30 26  1  0
 34 29  1  0
  1 35  1  0
  2 36  1  1
  3 37  1  0
  3 38  1  0
  6 39  1  0
  7 40  1  0
  9 41  1  0
 10 42  1  0
 11 43  1  0
 12 44  1  0
 12 45  1  0
 13 46  1  0
 14 47  1  0
 14 48  1  0
 15 49  1  0
 15 50  1  0
 17 51  1  0
 18 52  1  0
 20 53  1  0
 21 54  1  0
 22 55  1  0
 25 56  1  0
 25 57  1  0
 27 58  1  0
 28 59  1  0
 31 60  1  0
 32 61  1  0
 33 62  1  0
 34 63  1  0
M  END
>  <Ligand ID>  (1) 
LIG0002738

>  <Ligand>  (1) 
BDBM50293425

>  <SMILES>  (1) 
O[C@H](COc1ccc(cc1)O)CNCCc1ccc(cc1)NC(=O)Cc1c[nH]c2c1cccc2

>  <CID>  (1) 
44127170.0

>  <ChEMBL ID>  (1) 
nan

>  <InChiKey>  (1) 
FROAXINFEPJYHT-QHCPKHFHSA-N

>  <InChi>  (1) 
InChI=1S/C27H29N3O4/c31-22-9-11-24(12-10-22)34-18-23(32)17-28-14-13-19-5-7-21(8-6-19)30-27(33)15-20-16-29-26-4-2-1-3-25(20)26/h1-12,16,23,28-29,31-32H,13-15,17-18H2,(H,30,33)/t23-/m0/s1

>  <IUPAC Name>  (1) 
N-[4-[2-[[(2S)-2-hydroxy-3-(4-hydroxyphenoxy)propyl]amino]ethyl]phenyl]-2-(1H-indol-3-yl)acetamide

$$$$
