
     RDKit          3D

 51 53  0  0  0  0  0  0  0  0999 V2000
   -6.0433    0.4489    4.2682 Cl  0  0  0  0  0  0  0  0  0  0  0  0
   -6.3337    0.1689    2.5619 C   0  0  0  0  0  0  0  0  0  0  0  0
   -7.5779    0.4500    2.0690 C   0  0  0  0  0  0  0  0  0  0  0  0
   -7.8292    0.2417    0.7491 C   0  0  0  0  0  0  0  0  0  0  0  0
   -6.8524   -0.2462   -0.0943 C   0  0  0  0  0  0  0  0  0  0  0  0
   -5.5763   -0.5390    0.3899 C   0  0  0  0  0  0  0  0  0  0  0  0
   -5.3332   -0.3252    1.7245 C   0  0  0  0  0  0  0  0  0  0  0  0
   -4.6057   -1.0640   -0.5807 C   0  0  2  0  0  0  0  0  0  0  0  0
   -3.2084   -1.2173   -0.0906 C   0  0  0  0  0  0  0  0  0  0  0  0
   -2.4413   -0.0395    0.0757 N   0  0  0  0  0  0  0  0  0  0  0  0
   -2.0591    0.6744   -1.1033 C   0  0  0  0  0  0  0  0  0  0  0  0
   -1.0792    0.0024   -1.9965 C   0  0  0  0  0  0  0  0  0  0  0  0
    0.2280   -0.3091   -1.3744 C   0  0  0  0  0  0  0  0  0  0  0  0
    0.4391   -1.5117   -0.7332 C   0  0  0  0  0  0  0  0  0  0  0  0
    1.6371   -1.8538   -0.1371 C   0  0  0  0  0  0  0  0  0  0  0  0
    2.6833   -0.9538   -0.1791 C   0  0  0  0  0  0  0  0  0  0  0  0
    2.5222    0.2621   -0.8084 C   0  0  0  0  0  0  0  0  0  0  0  0
    1.2925    0.5726   -1.4014 C   0  0  0  0  0  0  0  0  0  0  0  0
    3.8643   -1.3473    0.4352 O   0  0  0  0  0  0  0  0  0  0  0  0
    5.0212   -0.6095    0.4876 C   0  0  0  0  0  0  0  0  0  0  0  0
    5.3124    0.2934    1.4817 C   0  0  0  0  0  0  0  0  0  0  0  0
    6.5217    0.9807    1.4228 C   0  0  0  0  0  0  0  0  0  0  0  0
    7.4274    0.7825    0.4046 C   0  0  0  0  0  0  0  0  0  0  0  0
    7.1390   -0.1273   -0.6010 C   0  0  0  0  0  0  0  0  0  0  0  0
    5.9407   -0.8050   -0.5384 C   0  0  0  0  0  0  0  0  0  0  0  0
    8.6990    1.4888    0.3199 C   0  0  0  0  0  0  0  0  0  0  0  0
    9.5280    1.2960   -0.6233 O   0  0  0  0  0  0  0  0  0  0  0  0
    9.0806    2.4224    1.2750 O   0  0  0  0  0  0  0  0  0  0  0  0
   -4.6593   -0.4317   -1.8279 O   0  0  0  0  0  0  0  0  0  0  0  0
   -8.3570    0.8354    2.7248 H   0  0  0  0  0  0  0  0  0  0  0  0
   -8.7895    0.4471    0.3180 H   0  0  0  0  0  0  0  0  0  0  0  0
   -7.0834   -0.4036   -1.1490 H   0  0  0  0  0  0  0  0  0  0  0  0
   -4.3778   -0.5384    2.1439 H   0  0  0  0  0  0  0  0  0  0  0  0
   -4.9590   -2.1199   -0.8108 H   0  0  0  0  0  0  0  0  0  0  0  0
   -3.2594   -1.7104    0.9175 H   0  0  0  0  0  0  0  0  0  0  0  0
   -2.7263   -1.9878   -0.7321 H   0  0  0  0  0  0  0  0  0  0  0  0
   -2.9654    0.6374    0.6695 H   0  0  0  0  0  0  0  0  0  0  0  0
   -2.8826    1.0643   -1.7182 H   0  0  0  0  0  0  0  0  0  0  0  0
   -1.5368    1.6051   -0.7266 H   0  0  0  0  0  0  0  0  0  0  0  0
   -1.5118   -0.8721   -2.5483 H   0  0  0  0  0  0  0  0  0  0  0  0
   -0.8755    0.7398   -2.8264 H   0  0  0  0  0  0  0  0  0  0  0  0
   -0.3492   -2.2484   -0.6742 H   0  0  0  0  0  0  0  0  0  0  0  0
    1.7405   -2.8241    0.3552 H   0  0  0  0  0  0  0  0  0  0  0  0
    3.3582    0.9493   -0.8271 H   0  0  0  0  0  0  0  0  0  0  0  0
    1.1765    1.5344   -1.8949 H   0  0  0  0  0  0  0  0  0  0  0  0
    4.6032    0.4387    2.2664 H   0  0  0  0  0  0  0  0  0  0  0  0
    6.7519    1.6907    2.2043 H   0  0  0  0  0  0  0  0  0  0  0  0
    7.8031   -0.3311   -1.4258 H   0  0  0  0  0  0  0  0  0  0  0  0
    5.7205   -1.5172   -1.3290 H   0  0  0  0  0  0  0  0  0  0  0  0
   10.0555    2.7226    1.3386 H   0  0  0  0  0  0  0  0  0  0  0  0
   -5.2731    0.3339   -1.8513 H   0  0  0  0  0  0  0  0  0  0  0  0
  1  2  1  0
  2  3  2  0
  3  4  1  0
  4  5  2  0
  5  6  1  0
  6  7  2  0
  6  8  1  0
  8  9  1  0
  9 10  1  0
 10 11  1  0
 11 12  1  0
 12 13  1  0
 13 14  2  0
 14 15  1  0
 15 16  2  0
 16 17  1  0
 17 18  2  0
 16 19  1  0
 19 20  1  0
 20 21  2  0
 21 22  1  0
 22 23  2  0
 23 24  1  0
 24 25  2  0
 23 26  1  0
 26 27  2  0
 26 28  1  0
  8 29  1  0
  7  2  1  0
 18 13  1  0
 25 20  1  0
  3 30  1  0
  4 31  1  0
  5 32  1  0
  7 33  1  0
  8 34  1  6
  9 35  1  0
  9 36  1  0
 10 37  1  0
 11 38  1  0
 11 39  1  0
 12 40  1  0
 12 41  1  0
 14 42  1  0
 15 43  1  0
 17 44  1  0
 18 45  1  0
 21 46  1  0
 22 47  1  0
 24 48  1  0
 25 49  1  0
 28 50  1  0
 29 51  1  0
M  END
>  <Ligand ID>  (1) 
LIG0005831

>  <Ligand>  (1) 
CHEMBL411234

>  <SMILES>  (1) 
Clc1cccc(c1)[C@H](CNCCc1ccc(cc1)Oc1ccc(cc1)C(=O)O)O

>  <CID>  (1) 
24824228.0

>  <ChEMBL ID>  (1) 
nan

>  <InChiKey>  (1) 
RKZRYYZYWFDKCO-QFIPXVFZSA-N

>  <InChi>  (1) 
InChI=1S/C23H22ClNO4/c24-19-3-1-2-18(14-19)22(26)15-25-13-12-16-4-8-20(9-5-16)29-21-10-6-17(7-11-21)23(27)28/h1-11,14,22,25-26H,12-13,15H2,(H,27,28)/t22-/m0/s1

>  <IUPAC Name>  (1) 
4-[4-[2-[[(2R)-2-(3-chlorophenyl)-2-hydroxyethyl]amino]ethyl]phenoxy]benzoic acid

$$$$
