
     RDKit          3D

 70 74  0  0  0  0  0  0  0  0999 V2000
   -3.3410   -1.8993    0.2162 O   0  0  0  0  0  0  0  0  0  0  0  0
   -3.0448   -0.9182   -0.7448 C   0  0  2  0  0  0  0  0  0  0  0  0
   -4.4065   -0.5628   -1.3743 C   0  0  0  0  0  0  0  0  0  0  0  0
   -5.3013   -0.1177   -0.4720 O   0  0  0  0  0  0  0  0  0  0  0  0
   -5.4661    0.8862    0.4034 C   0  0  0  0  0  0  0  0  0  0  0  0
   -4.6103    1.9301    0.6611 C   0  0  0  0  0  0  0  0  0  0  0  0
   -4.8696    2.9228    1.5897 C   0  0  0  0  0  0  0  0  0  0  0  0
   -6.0427    2.8846    2.3064 C   0  0  0  0  0  0  0  0  0  0  0  0
   -6.9329    1.8578    2.0826 C   0  0  0  0  0  0  0  0  0  0  0  0
   -6.6569    0.8815    1.1562 C   0  0  0  0  0  0  0  0  0  0  0  0
   -7.7918   -0.0577    1.1443 C   0  0  0  0  0  0  0  0  0  0  0  0
   -7.7971   -1.3655    0.5176 C   0  0  0  0  0  0  0  0  0  0  0  0
   -8.4172   -0.2221   -0.2647 C   0  0  0  0  0  0  0  0  0  0  0  0
   -8.7232    0.4455    2.1346 C   0  0  0  0  0  0  0  0  0  0  0  0
   -9.8461   -0.0624    2.4657 O   0  0  0  0  0  0  0  0  0  0  0  0
   -8.1901    1.6324    2.7086 N   0  0  0  0  0  0  0  0  0  0  0  0
   -2.1647   -1.5449   -1.7813 C   0  0  0  0  0  0  0  0  0  0  0  0
   -0.9328   -2.0651   -1.3893 N   0  0  0  0  0  0  0  0  0  0  0  0
    0.1380   -1.2337   -0.9812 C   0  0  0  0  0  0  0  0  0  0  0  0
    1.4865   -1.9463   -1.1326 C   0  0  0  0  0  0  0  0  0  0  0  0
    2.5551   -1.0270   -0.7111 C   0  0  0  0  0  0  0  0  0  0  0  0
    3.0329   -0.9092    0.5747 C   0  0  0  0  0  0  0  0  0  0  0  0
    4.0506   -0.0293    0.9069 C   0  0  0  0  0  0  0  0  0  0  0  0
    4.6430    0.7795   -0.0377 C   0  0  0  0  0  0  0  0  0  0  0  0
    4.1755    0.6742   -1.3362 C   0  0  0  0  0  0  0  0  0  0  0  0
    3.1564   -0.2089   -1.6609 C   0  0  0  0  0  0  0  0  0  0  0  0
    5.6554    1.6565    0.2889 O   0  0  0  0  0  0  0  0  0  0  0  0
    6.9557    1.2169    0.2878 C   0  0  0  0  0  0  0  0  0  0  0  0
    7.2815   -0.0925   -0.0218 C   0  0  0  0  0  0  0  0  0  0  0  0
    8.6066   -0.4885   -0.0079 C   0  0  0  0  0  0  0  0  0  0  0  0
    9.5791    0.4322    0.3147 C   0  0  0  0  0  0  0  0  0  0  0  0
    9.2222    1.7257    0.6171 C   0  0  0  0  0  0  0  0  0  0  0  0
    7.9201    2.1089    0.6022 N   0  0  0  0  0  0  0  0  0  0  0  0
   10.9716   -0.0155    0.3232 C   0  0  0  0  0  0  0  0  0  0  0  0
   11.1911   -1.2278    0.0589 O   0  0  0  0  0  0  0  0  0  0  0  0
   12.0458    0.8679    0.6146 N   0  0  0  0  0  0  0  0  0  0  0  0
    0.1785    0.0405   -1.7452 C   0  0  0  0  0  0  0  0  0  0  0  0
    0.0439   -1.0039    0.5311 C   0  0  0  0  0  0  0  0  0  0  0  0
   -4.0467   -1.4778    0.8022 H   0  0  0  0  0  0  0  0  0  0  0  0
   -2.6728    0.0178   -0.3354 H   0  0  0  0  0  0  0  0  0  0  0  0
   -4.2288    0.2414   -2.1483 H   0  0  0  0  0  0  0  0  0  0  0  0
   -4.7953   -1.4510   -1.9320 H   0  0  0  0  0  0  0  0  0  0  0  0
   -3.6841    2.0191    0.1233 H   0  0  0  0  0  0  0  0  0  0  0  0
   -4.1485    3.7247    1.7485 H   0  0  0  0  0  0  0  0  0  0  0  0
   -6.2271    3.6573    3.0190 H   0  0  0  0  0  0  0  0  0  0  0  0
   -6.8679   -1.8138    0.1620 H   0  0  0  0  0  0  0  0  0  0  0  0
   -8.5509   -2.0943    0.8735 H   0  0  0  0  0  0  0  0  0  0  0  0
   -7.8833    0.2212   -1.1125 H   0  0  0  0  0  0  0  0  0  0  0  0
   -9.5192   -0.1438   -0.3470 H   0  0  0  0  0  0  0  0  0  0  0  0
   -8.6615    2.1948    3.4403 H   0  0  0  0  0  0  0  0  0  0  0  0
   -2.0991   -0.7832   -2.6132 H   0  0  0  0  0  0  0  0  0  0  0  0
   -2.7229   -2.3923   -2.3091 H   0  0  0  0  0  0  0  0  0  0  0  0
   -0.8457   -3.0643   -1.1824 H   0  0  0  0  0  0  0  0  0  0  0  0
    1.4977   -2.8806   -0.5036 H   0  0  0  0  0  0  0  0  0  0  0  0
    1.6640   -2.2787   -2.1583 H   0  0  0  0  0  0  0  0  0  0  0  0
    2.6335   -1.5059    1.3701 H   0  0  0  0  0  0  0  0  0  0  0  0
    4.4137    0.0521    1.9146 H   0  0  0  0  0  0  0  0  0  0  0  0
    4.6242    1.3022   -2.1141 H   0  0  0  0  0  0  0  0  0  0  0  0
    2.8672   -0.2164   -2.7094 H   0  0  0  0  0  0  0  0  0  0  0  0
    6.4708   -0.7731   -0.2694 H   0  0  0  0  0  0  0  0  0  0  0  0
    8.8250   -1.4988   -0.2489 H   0  0  0  0  0  0  0  0  0  0  0  0
    9.9913    2.4316    0.8663 H   0  0  0  0  0  0  0  0  0  0  0  0
   12.6285    1.2789   -0.1495 H   0  0  0  0  0  0  0  0  0  0  0  0
   12.2491    1.1072    1.6263 H   0  0  0  0  0  0  0  0  0  0  0  0
    0.9286    0.7163   -1.2807 H   0  0  0  0  0  0  0  0  0  0  0  0
    0.5039   -0.1226   -2.7948 H   0  0  0  0  0  0  0  0  0  0  0  0
   -0.7967    0.5879   -1.7280 H   0  0  0  0  0  0  0  0  0  0  0  0
    0.7192   -0.1832    0.8327 H   0  0  0  0  0  0  0  0  0  0  0  0
   -0.9754   -0.8406    0.8752 H   0  0  0  0  0  0  0  0  0  0  0  0
    0.3547   -1.9769    1.0208 H   0  0  0  0  0  0  0  0  0  0  0  0
  1  2  1  0
  2  3  1  0
  3  4  1  0
  4  5  1  0
  5  6  2  0
  6  7  1  0
  7  8  2  0
  8  9  1  0
  9 10  2  0
 10 11  1  0
 11 12  1  0
 12 13  1  0
 11 14  1  0
 14 15  2  0
 14 16  1  0
  2 17  1  0
 17 18  1  0
 18 19  1  0
 19 20  1  0
 20 21  1  0
 21 22  2  0
 22 23  1  0
 23 24  2  0
 24 25  1  0
 25 26  2  0
 24 27  1  0
 27 28  1  0
 28 29  2  0
 29 30  1  0
 30 31  2  0
 31 32  1  0
 32 33  2  0
 31 34  1  0
 34 35  2  0
 34 36  1  0
 19 37  1  0
 19 38  1  0
 10  5  1  0
 13 11  1  0
 26 21  1  0
 33 28  1  0
 16  9  1  0
  1 39  1  0
  2 40  1  1
  3 41  1  0
  3 42  1  0
  6 43  1  0
  7 44  1  0
  8 45  1  0
 12 46  1  0
 12 47  1  0
 13 48  1  0
 13 49  1  0
 16 50  1  0
 17 51  1  0
 17 52  1  0
 18 53  1  0
 20 54  1  0
 20 55  1  0
 22 56  1  0
 23 57  1  0
 25 58  1  0
 26 59  1  0
 29 60  1  0
 30 61  1  0
 32 62  1  0
 36 63  1  0
 36 64  1  0
 37 65  1  0
 37 66  1  0
 37 67  1  0
 38 68  1  0
 38 69  1  0
 38 70  1  0
M  END
>  <Ligand ID>  (1) 
LIG0003397

>  <Ligand>  (1) 
CHEMBL248547

>  <SMILES>  (1) 
O[C@H](COc1cccc2c1C1(CC1)C(=O)N2)CNC(Cc1ccc(cc1)Oc1ccc(cn1)C(=O)N)(C)C

>  <CID>  (1) 
44444173.0

>  <ChEMBL ID>  (1) 
nan

>  <InChiKey>  (1) 
WWQNLFHPDNSZMK-FQEVSTJZSA-N

>  <InChi>  (1) 
InChI=1S/C29H32N4O5/c1-28(2,14-18-6-9-21(10-7-18)38-24-11-8-19(15-31-24)26(30)35)32-16-20(34)17-37-23-5-3-4-22-25(23)29(12-13-29)27(36)33-22/h3-11,15,20,32,34H,12-14,16-17H2,1-2H3,(H2,30,35)(H,33,36)/t20-/m0/s1

>  <IUPAC Name>  (1) 
6-[4-[2-[[(2S)-2-hydroxy-3-(2-oxospiro[1H-indole-3,1'-cyclopropane]-4-yl)oxypropyl]amino]-2-methylpropyl]phenoxy]pyridine-3-carboxamide

$$$$
