
     RDKit          3D

 55 57  0  0  0  0  0  0  0  0999 V2000
    8.3259   -0.5479    0.4412 C   0  0  0  0  0  0  0  0  0  0  0  0
    6.9731    0.0458    0.2038 C   0  0  0  0  0  0  0  0  0  0  0  0
    6.0007   -0.5108    1.2193 C   0  0  0  0  0  0  0  0  0  0  0  0
    4.6227    0.0655    1.0069 C   0  0  0  0  0  0  0  0  0  0  0  0
    3.6123   -0.5706    0.4462 C   0  0  0  0  0  0  0  0  0  0  0  0
    2.3936    0.0768    0.3113 C   0  0  0  0  0  0  0  0  0  0  0  0
    2.6680    1.7037    1.0201 S   0  0  0  0  0  0  0  0  0  0  0  0
    4.3578    1.4101    1.4383 C   0  0  0  0  0  0  0  0  0  0  0  0
    5.3159    2.3255    2.0928 C   0  0  0  0  0  0  0  0  0  0  0  0
    1.1553   -0.4108   -0.2640 C   0  0  0  0  0  0  0  0  0  0  0  0
    1.0753   -1.5854   -0.7389 O   0  0  0  0  0  0  0  0  0  0  0  0
    0.0288    0.4461   -0.2896 N   0  0  0  0  0  0  0  0  0  0  0  0
   -1.1687   -0.1077   -0.8773 C   0  0  0  0  0  0  0  0  0  0  0  0
   -2.0475   -0.7767   -0.0322 C   0  0  0  0  0  0  0  0  0  0  0  0
   -3.2224   -1.3459   -0.4868 C   0  0  0  0  0  0  0  0  0  0  0  0
   -3.4822   -1.2148   -1.8402 C   0  0  0  0  0  0  0  0  0  0  0  0
   -2.6118   -0.5525   -2.6762 C   0  0  0  0  0  0  0  0  0  0  0  0
   -1.4383    0.0165   -2.2245 C   0  0  0  0  0  0  0  0  0  0  0  0
   -0.5641    0.6820   -3.0664 O   0  0  0  0  0  0  0  0  0  0  0  0
   -0.8805    0.7863   -4.4423 C   0  0  0  0  0  0  0  0  0  0  0  0
   -4.2600   -2.1627    0.6279 S   0  0  0  0  0  0  0  0  0  0  0  0
   -4.9647   -3.2731   -0.1273 O   0  0  0  0  0  0  0  0  0  0  0  0
   -3.4907   -2.8277    1.7391 O   0  0  0  0  0  0  0  0  0  0  0  0
   -5.4309   -1.1524    1.3413 N   0  0  0  0  0  0  0  0  0  0  0  0
   -6.3261   -0.5763    0.3986 C   0  0  0  0  0  0  0  0  0  0  0  0
   -5.9258    0.7368   -0.1845 C   0  0  0  0  0  0  0  0  0  0  0  0
   -4.9997    1.4522    0.5387 O   0  0  0  0  0  0  0  0  0  0  0  0
   -5.2245    1.2318    1.8985 C   0  0  0  0  0  0  0  0  0  0  0  0
   -4.8475   -0.2016    2.2272 C   0  0  0  0  0  0  0  0  0  0  0  0
    8.1896   -1.5233    0.9522 H   0  0  0  0  0  0  0  0  0  0  0  0
    8.9359    0.1661    1.0454 H   0  0  0  0  0  0  0  0  0  0  0  0
    8.7925   -0.7741   -0.5423 H   0  0  0  0  0  0  0  0  0  0  0  0
    6.6231   -0.2284   -0.8056 H   0  0  0  0  0  0  0  0  0  0  0  0
    6.9978    1.1417    0.3762 H   0  0  0  0  0  0  0  0  0  0  0  0
    6.3820   -0.2118    2.2261 H   0  0  0  0  0  0  0  0  0  0  0  0
    5.9829   -1.6051    1.1462 H   0  0  0  0  0  0  0  0  0  0  0  0
    3.6838   -1.6195    0.0673 H   0  0  0  0  0  0  0  0  0  0  0  0
    6.0920    1.7613    2.6499 H   0  0  0  0  0  0  0  0  0  0  0  0
    4.7891    2.9839    2.8344 H   0  0  0  0  0  0  0  0  0  0  0  0
    5.7539    2.9676    1.3129 H   0  0  0  0  0  0  0  0  0  0  0  0
    0.0636    1.4130    0.0917 H   0  0  0  0  0  0  0  0  0  0  0  0
   -1.7911   -0.8486    1.0155 H   0  0  0  0  0  0  0  0  0  0  0  0
   -4.4074   -1.6655   -2.1895 H   0  0  0  0  0  0  0  0  0  0  0  0
   -2.8925   -0.4968   -3.7184 H   0  0  0  0  0  0  0  0  0  0  0  0
   -0.5895   -0.1512   -4.9320 H   0  0  0  0  0  0  0  0  0  0  0  0
   -1.9354    1.0622   -4.6199 H   0  0  0  0  0  0  0  0  0  0  0  0
   -0.2796    1.6079   -4.9321 H   0  0  0  0  0  0  0  0  0  0  0  0
   -6.4842   -1.2977   -0.4532 H   0  0  0  0  0  0  0  0  0  0  0  0
   -7.3273   -0.4740    0.9150 H   0  0  0  0  0  0  0  0  0  0  0  0
   -5.5913    0.6662   -1.2431 H   0  0  0  0  0  0  0  0  0  0  0  0
   -6.8465    1.3881   -0.2351 H   0  0  0  0  0  0  0  0  0  0  0  0
   -6.2838    1.3879    2.1669 H   0  0  0  0  0  0  0  0  0  0  0  0
   -4.5483    1.9172    2.4480 H   0  0  0  0  0  0  0  0  0  0  0  0
   -5.2091   -0.4190    3.2742 H   0  0  0  0  0  0  0  0  0  0  0  0
   -3.7445   -0.3102    2.2876 H   0  0  0  0  0  0  0  0  0  0  0  0
  1  2  1  0
  2  3  1  0
  3  4  1  0
  4  5  1  0
  5  6  2  0
  6  7  1  0
  7  8  1  0
  8  9  1  0
  6 10  1  0
 10 11  2  0
 10 12  1  0
 12 13  1  0
 13 14  2  0
 14 15  1  0
 15 16  2  0
 16 17  1  0
 17 18  2  0
 18 19  1  0
 19 20  1  0
 15 21  1  0
 21 22  2  0
 21 23  2  0
 21 24  1  0
 24 25  1  0
 25 26  1  0
 26 27  1  0
 27 28  1  0
 28 29  1  0
  8  4  2  0
 18 13  1  0
 29 24  1  0
  1 30  1  0
  1 31  1  0
  1 32  1  0
  2 33  1  0
  2 34  1  0
  3 35  1  0
  3 36  1  0
  5 37  1  0
  9 38  1  0
  9 39  1  0
  9 40  1  0
 12 41  1  0
 14 42  1  0
 16 43  1  0
 17 44  1  0
 20 45  1  0
 20 46  1  0
 20 47  1  0
 25 48  1  0
 25 49  1  0
 26 50  1  0
 26 51  1  0
 28 52  1  0
 28 53  1  0
 29 54  1  0
 29 55  1  0
M  END
>  <Ligand ID>  (1) 
LIG0001852

>  <Ligand>  (1) 
MLS-0435535.0001

>  <SMILES>  (1) 
CCCc1cc(sc1C)C(=O)Nc1cc(ccc1OC)S(=O)(=O)N1CCOCC1

>  <CID>  (1) 
16279444.0

>  <ChEMBL ID>  (1) 
nan

>  <InChiKey>  (1) 
RLIPDJQJQYCZHX-UHFFFAOYSA-N

>  <InChi>  (1) 
InChI=1S/C20H26N2O5S2/c1-4-5-15-12-19(28-14(15)2)20(23)21-17-13-16(6-7-18(17)26-3)29(24,25)22-8-10-27-11-9-22/h6-7,12-13H,4-5,8-11H2,1-3H3,(H,21,23)

>  <IUPAC Name>  (1) 
N-(2-methoxy-5-morpholin-4-ylsulfonylphenyl)-5-methyl-4-propylthiophene-2-carboxamide

$$$$
