
     RDKit          3D

 19 18  0  0  0  0  0  0  0  0999 V2000
   -1.4778    0.9279    0.6437 C   0  0  0  0  0  0  0  0  0  0  0  0
   -1.4633   -0.5327    0.4428 C   0  0  0  0  0  0  0  0  0  0  0  0
   -0.1842   -1.2229    0.1763 C   0  0  0  0  0  0  0  0  0  0  0  0
    0.5911   -0.8674   -1.0240 C   0  0  0  0  0  0  0  0  0  0  0  0
    1.0806    0.5375   -1.1009 C   0  0  0  0  0  0  0  0  0  0  0  0
    2.0028    0.8998    0.0125 C   0  0  0  0  0  0  0  0  0  0  0  0
    2.3535    0.1184    0.9175 O   0  0  0  0  0  0  0  0  0  0  0  0
    2.4887    2.2005    0.0178 O   0  0  0  0  0  0  0  0  0  0  0  0
   -1.8534    1.5046   -0.2544 H   0  0  0  0  0  0  0  0  0  0  0  0
   -0.5926    1.4011    1.0622 H   0  0  0  0  0  0  0  0  0  0  0  0
   -2.3020    1.1369    1.4096 H   0  0  0  0  0  0  0  0  0  0  0  0
   -2.1974   -0.7464   -0.4022 H   0  0  0  0  0  0  0  0  0  0  0  0
   -1.9456   -1.0418    1.3381 H   0  0  0  0  0  0  0  0  0  0  0  0
   -0.4332   -2.3292    0.1168 H   0  0  0  0  0  0  0  0  0  0  0  0
    0.4575   -1.1934    1.1131 H   0  0  0  0  0  0  0  0  0  0  0  0
    1.5092   -1.5277   -1.1234 H   0  0  0  0  0  0  0  0  0  0  0  0
   -0.0123   -1.1581   -1.9160 H   0  0  0  0  0  0  0  0  0  0  0  0
    1.6755    0.5861   -2.0745 H   0  0  0  0  0  0  0  0  0  0  0  0
    0.3029    1.3066   -1.1430 H   0  0  0  0  0  0  0  0  0  0  0  0
  1  2  1  0
  2  3  1  0
  3  4  1  0
  4  5  1  0
  5  6  1  0
  6  7  2  0
  6  8  1  0
  1  9  1  0
  1 10  1  0
  1 11  1  0
  2 12  1  0
  2 13  1  0
  3 14  1  0
  3 15  1  0
  4 16  1  0
  4 17  1  0
  5 18  1  0
  5 19  1  0
M  CHG  1   8  -1
M  END
>  <Ligand ID>  (1) 
LIG0000749

>  <Ligand>  (1) 
hexanoate

>  <SMILES>  (1) 
CCCCCC(=O)[O-]

>  <CID>  (1) 
4398339.0

>  <ChEMBL ID>  (1) 
nan

>  <InChiKey>  (1) 
FUZZWVXGSFPDMH-UHFFFAOYSA-M

>  <InChi>  (1) 
InChI=1S/C6H12O2/c1-2-3-4-5-6(7)8/h2-5H2,1H3,(H,7,8)/p-1

>  <IUPAC Name>  (1) 
hexanoate

$$$$
