
     RDKit          3D

 48 50  0  0  0  0  0  0  0  0999 V2000
   -0.5309    1.1174   -3.2737 C   0  0  0  0  0  0  0  0  0  0  0  0
    0.3170    1.0591   -2.0255 C   0  0  2  0  0  0  0  0  0  0  0  0
    1.7818    1.1569   -2.4771 C   0  0  0  0  0  0  0  0  0  0  0  0
    2.6300    1.1001   -1.2584 C   0  0  0  0  0  0  0  0  0  0  0  0
    2.9480    2.2864   -0.6146 C   0  0  0  0  0  0  0  0  0  0  0  0
    3.7304    2.3259    0.5248 C   0  0  0  0  0  0  0  0  0  0  0  0
    4.2025    1.1077    1.0203 C   0  0  0  0  0  0  0  0  0  0  0  0
    3.8890   -0.0934    0.3807 C   0  0  0  0  0  0  0  0  0  0  0  0
    3.1152   -0.0805   -0.7379 C   0  0  0  0  0  0  0  0  0  0  0  0
    4.3676   -1.2796    0.8902 C   0  0  0  0  0  0  0  0  0  0  0  0
    5.1613   -1.2893    2.0380 C   0  0  0  0  0  0  0  0  0  0  0  0
    5.4844   -0.0959    2.6905 C   0  0  0  0  0  0  0  0  0  0  0  0
    4.9924    1.0880    2.1612 C   0  0  0  0  0  0  0  0  0  0  0  0
    0.0487   -0.0922   -1.2935 N   0  0  0  0  0  0  0  0  0  0  0  0
   -1.0357   -0.2912   -0.4624 C   0  0  0  0  0  0  0  0  0  0  0  0
   -2.4169   -0.3973   -0.9762 C   0  0  1  0  0  0  0  0  0  0  0  0
   -3.3863   -0.6819    0.1466 C   0  0  0  0  0  0  0  0  0  0  0  0
   -3.8575   -1.9519    0.3946 C   0  0  0  0  0  0  0  0  0  0  0  0
   -4.7441   -2.1230    1.4448 C   0  0  0  0  0  0  0  0  0  0  0  0
   -5.2385   -3.3713    1.7271 O   0  0  0  0  0  0  0  0  0  0  0  0
   -5.1342   -1.0488    2.2092 C   0  0  0  0  0  0  0  0  0  0  0  0
   -4.6656    0.2358    1.9683 C   0  0  0  0  0  0  0  0  0  0  0  0
   -3.7836    0.4017    0.9224 C   0  0  0  0  0  0  0  0  0  0  0  0
   -5.0753    1.3140    2.7580 O   0  0  0  0  0  0  0  0  0  0  0  0
   -2.8685    0.7457   -1.6127 O   0  0  0  0  0  0  0  0  0  0  0  0
    0.1439    1.2381   -4.1934 H   0  0  0  0  0  0  0  0  0  0  0  0
   -1.0745    0.1834   -3.4995 H   0  0  0  0  0  0  0  0  0  0  0  0
   -1.1839    1.9996   -3.2548 H   0  0  0  0  0  0  0  0  0  0  0  0
    0.1809    2.0183   -1.4371 H   0  0  0  0  0  0  0  0  0  0  0  0
    1.9687    2.1217   -2.9900 H   0  0  0  0  0  0  0  0  0  0  0  0
    2.0655    0.3561   -3.1768 H   0  0  0  0  0  0  0  0  0  0  0  0
    2.5705    3.2233   -1.0162 H   0  0  0  0  0  0  0  0  0  0  0  0
    3.9515    3.2637    0.9903 H   0  0  0  0  0  0  0  0  0  0  0  0
    2.8822   -1.0265   -1.2230 H   0  0  0  0  0  0  0  0  0  0  0  0
    4.1563   -2.2531    0.4335 H   0  0  0  0  0  0  0  0  0  0  0  0
    5.5386   -2.2351    2.4386 H   0  0  0  0  0  0  0  0  0  0  0  0
    6.0971   -0.0739    3.5814 H   0  0  0  0  0  0  0  0  0  0  0  0
    5.2000    2.0501    2.6113 H   0  0  0  0  0  0  0  0  0  0  0  0
    0.5179   -0.9661   -1.5972 H   0  0  0  0  0  0  0  0  0  0  0  0
   -0.8491   -1.2786    0.0965 H   0  0  0  0  0  0  0  0  0  0  0  0
   -1.0590    0.4275    0.4379 H   0  0  0  0  0  0  0  0  0  0  0  0
   -2.5762   -1.2426   -1.6822 H   0  0  0  0  0  0  0  0  0  0  0  0
   -3.5186   -2.7601   -0.2366 H   0  0  0  0  0  0  0  0  0  0  0  0
   -6.2236   -3.5979    1.6787 H   0  0  0  0  0  0  0  0  0  0  0  0
   -5.8275   -1.1538    3.0391 H   0  0  0  0  0  0  0  0  0  0  0  0
   -3.3939    1.3945    0.7017 H   0  0  0  0  0  0  0  0  0  0  0  0
   -5.6677    1.1346    3.5333 H   0  0  0  0  0  0  0  0  0  0  0  0
   -3.8303    0.7240   -1.7799 H   0  0  0  0  0  0  0  0  0  0  0  0
  1  2  1  0
  2  3  1  0
  3  4  1  0
  4  5  2  0
  5  6  1  0
  6  7  2  0
  7  8  1  0
  8  9  2  0
  8 10  1  0
 10 11  2  0
 11 12  1  0
 12 13  2  0
  2 14  1  0
 14 15  1  0
 15 16  1  0
 16 17  1  0
 17 18  2  0
 18 19  1  0
 19 20  1  0
 19 21  2  0
 21 22  1  0
 22 23  2  0
 22 24  1  0
 16 25  1  0
  9  4  1  0
 23 17  1  0
 13  7  1  0
  1 26  1  0
  1 27  1  0
  1 28  1  0
  2 29  1  1
  3 30  1  0
  3 31  1  0
  5 32  1  0
  6 33  1  0
  9 34  1  0
 10 35  1  0
 11 36  1  0
 12 37  1  0
 13 38  1  0
 14 39  1  0
 15 40  1  0
 15 41  1  0
 16 42  1  6
 18 43  1  0
 20 44  1  0
 21 45  1  0
 23 46  1  0
 24 47  1  0
 25 48  1  0
M  END
>  <Ligand ID>  (1) 
LIG0005465

>  <Ligand>  (1) 
CHEMBL1800961

>  <SMILES>  (1) 
C[C@H](Cc1ccc2c(c1)cccc2)NC[C@@H](c1cc(O)cc(c1)O)O

>  <CID>  (1) 
53379897.0

>  <ChEMBL ID>  (1) 
nan

>  <InChiKey>  (1) 
LGUXLVJQUKRZBO-SZNDQCEHSA-N

>  <InChi>  (1) 
InChI=1S/C21H23NO3/c1-14(8-15-6-7-16-4-2-3-5-17(16)9-15)22-13-21(25)18-10-19(23)12-20(24)11-18/h2-7,9-12,14,21-25H,8,13H2,1H3/t14-,21+/m1/s1

>  <IUPAC Name>  (1) 
5-[(1R)-1-hydroxy-2-[[(2R)-1-naphthalen-2-ylpropan-2-yl]amino]ethyl]benzene-1,3-diol

$$$$
