
     RDKit          3D

  9  8  0  0  0  0  0  0  0  0999 V2000
   -1.6187   -1.1328   -0.3043 O   0  0  0  0  0  0  0  0  0  0  0  0
   -1.3862    0.0606    0.0448 C   0  0  0  0  0  0  0  0  0  0  0  0
   -0.0348    0.5926    0.1836 C   0  0  0  0  0  0  0  0  0  0  0  0
    0.1027    1.7845    0.5336 O   0  0  0  0  0  0  0  0  0  0  0  0
    1.1093   -0.3139   -0.0994 C   0  0  0  0  0  0  0  0  0  0  0  0
   -2.2636    0.6709    0.2366 H   0  0  0  0  0  0  0  0  0  0  0  0
    2.0408    0.2236   -0.3649 H   0  0  0  0  0  0  0  0  0  0  0  0
    1.2415   -0.9850    0.7707 H   0  0  0  0  0  0  0  0  0  0  0  0
    0.8089   -0.9004   -1.0006 H   0  0  0  0  0  0  0  0  0  0  0  0
  1  2  2  0
  2  3  1  0
  3  4  2  0
  3  5  1  0
  2  6  1  0
  5  7  1  0
  5  8  1  0
  5  9  1  0
M  END
>  <Ligand ID>  (1) 
LIG0000769

>  <Ligand>  (1) 
Pyruvaldehyde

>  <SMILES>  (1) 
O=CC(=O)C

>  <CID>  (1) 
880.0

>  <ChEMBL ID>  (1) 
nan

>  <InChiKey>  (1) 
AIJULSRZWUXGPQ-UHFFFAOYSA-N

>  <InChi>  (1) 
InChI=1S/C3H4O2/c1-3(5)2-4/h2H,1H3

>  <IUPAC Name>  (1) 
2-oxopropanal

$$$$
