
     RDKit          3D

 30 31  0  0  0  0  0  0  0  0999 V2000
    5.7275   -2.0866   -1.0289 Cl  0  0  0  0  0  0  0  0  0  0  0  0
    4.3569   -1.0601   -0.6405 C   0  0  0  0  0  0  0  0  0  0  0  0
    3.2859   -1.6579   -0.0164 C   0  0  0  0  0  0  0  0  0  0  0  0
    2.2029   -0.8535    0.2919 C   0  0  0  0  0  0  0  0  0  0  0  0
    2.1741    0.4879   -0.0027 C   0  0  0  0  0  0  0  0  0  0  0  0
    3.3045    1.0047   -0.6350 C   0  0  0  0  0  0  0  0  0  0  0  0
    4.3669    0.2597   -0.9474 N   0  0  0  0  0  0  0  0  0  0  0  0
    1.0740    1.4098    0.2740 C   0  0  0  0  0  0  0  0  0  0  0  0
    0.1242    1.6462   -0.7264 N   0  0  0  0  0  0  0  0  0  0  0  0
   -0.7088    0.6450   -1.2246 C   0  0  0  0  0  0  0  0  0  0  0  0
   -1.6673    0.0107   -0.3280 C   0  0  0  0  0  0  0  0  0  0  0  0
   -1.5832   -1.2579    0.1899 C   0  0  0  0  0  0  0  0  0  0  0  0
   -2.5521   -1.7951    1.0355 C   0  0  0  0  0  0  0  0  0  0  0  0
   -2.3892   -3.4330    1.6711 Cl  0  0  0  0  0  0  0  0  0  0  0  0
   -3.6608   -1.0332    1.3834 C   0  0  0  0  0  0  0  0  0  0  0  0
   -3.7659    0.2451    0.8735 C   0  0  0  0  0  0  0  0  0  0  0  0
   -2.7947    0.7565    0.0385 C   0  0  0  0  0  0  0  0  0  0  0  0
   -2.9821    2.0508   -0.4274 O   0  0  0  0  0  0  0  0  0  0  0  0
    3.2398   -2.6995    0.2437 H   0  0  0  0  0  0  0  0  0  0  0  0
    1.3698   -1.2830    0.7784 H   0  0  0  0  0  0  0  0  0  0  0  0
    3.3390    2.0521   -0.8908 H   0  0  0  0  0  0  0  0  0  0  0  0
    1.5216    2.4199    0.5348 H   0  0  0  0  0  0  0  0  0  0  0  0
    0.5998    1.0816    1.2313 H   0  0  0  0  0  0  0  0  0  0  0  0
    0.3801    2.4435   -1.3086 H   0  0  0  0  0  0  0  0  0  0  0  0
   -1.2119    0.9890   -2.1739 H   0  0  0  0  0  0  0  0  0  0  0  0
   -0.0490   -0.1978   -1.6004 H   0  0  0  0  0  0  0  0  0  0  0  0
   -0.7384   -1.8684   -0.0737 H   0  0  0  0  0  0  0  0  0  0  0  0
   -4.4286   -1.4322    2.0417 H   0  0  0  0  0  0  0  0  0  0  0  0
   -4.6457    0.8103    1.1668 H   0  0  0  0  0  0  0  0  0  0  0  0
   -3.8894    2.3451   -0.7767 H   0  0  0  0  0  0  0  0  0  0  0  0
  1  2  1  0
  2  3  2  0
  3  4  1  0
  4  5  2  0
  5  6  1  0
  6  7  2  0
  5  8  1  0
  8  9  1  0
  9 10  1  0
 10 11  1  0
 11 12  2  0
 12 13  1  0
 13 14  1  0
 13 15  2  0
 15 16  1  0
 16 17  2  0
 17 18  1  0
  7  2  1  0
 17 11  1  0
  3 19  1  0
  4 20  1  0
  6 21  1  0
  8 22  1  0
  8 23  1  0
  9 24  1  0
 10 25  1  0
 10 26  1  0
 12 27  1  0
 15 28  1  0
 16 29  1  0
 18 30  1  0
M  END
>  <Ligand ID>  (1) 
LIG0005790

>  <Ligand>  (1) 
MLS002207456

>  <SMILES>  (1) 
Clc1ccc(cn1)CNCc1cc(Cl)ccc1O

>  <CID>  (1) 
42601352.0

>  <ChEMBL ID>  (1) 
nan

>  <InChiKey>  (1) 
IPZRIXWTEDMSMG-UHFFFAOYSA-N

>  <InChi>  (1) 
InChI=1S/C13H12Cl2N2O/c14-11-2-3-12(18)10(5-11)8-16-6-9-1-4-13(15)17-7-9/h1-5,7,16,18H,6,8H2

>  <IUPAC Name>  (1) 
4-chloro-2-[[(6-chloropyridin-3-yl)methylamino]methyl]phenol

$$$$
