
     RDKit          3D

 32 34  0  0  0  0  0  0  0  0999 V2000
    4.2651    1.1279    0.2634 C   0  0  0  0  0  0  0  0  0  0  0  0
    3.7176    0.3967   -0.9442 C   0  0  0  0  0  0  0  0  0  0  0  0
    2.4320   -0.2921   -0.6176 C   0  0  0  0  0  0  0  0  0  0  0  0
    1.2405    0.3663   -0.7847 C   0  0  0  0  0  0  0  0  0  0  0  0
    0.0477   -0.2724   -0.4819 C   0  0  0  0  0  0  0  0  0  0  0  0
   -1.3433    0.2411   -0.5848 C   0  0  2  0  0  0  0  0  0  0  0  0
   -1.5885    1.4814    0.2269 C   0  0  0  0  0  0  0  0  0  0  0  0
   -2.9333    1.4466    0.7607 N   0  0  0  0  0  0  0  0  0  0  0  0
   -3.8688    0.8127   -0.1387 C   0  0  0  0  0  0  0  0  0  0  0  0
   -3.5909   -0.6744   -0.1169 C   0  0  0  0  0  0  0  0  0  0  0  0
   -2.1529   -0.8770   -0.1305 N   0  0  0  0  0  0  0  0  0  0  0  0
   -1.3332   -1.9802    0.2199 C   0  0  0  0  0  0  0  0  0  0  0  0
   -1.7368   -3.0884    0.6457 O   0  0  0  0  0  0  0  0  0  0  0  0
    0.0520   -1.5720   -0.0113 C   0  0  0  0  0  0  0  0  0  0  0  0
    1.2546   -2.2599    0.1659 C   0  0  0  0  0  0  0  0  0  0  0  0
    2.4393   -1.6048   -0.1424 C   0  0  0  0  0  0  0  0  0  0  0  0
    1.2643   -3.9172    0.7658 Cl  0  0  0  0  0  0  0  0  0  0  0  0
    5.2873    0.7756    0.5133 H   0  0  0  0  0  0  0  0  0  0  0  0
    4.3464    2.2079    0.0496 H   0  0  0  0  0  0  0  0  0  0  0  0
    3.6162    0.8979    1.1354 H   0  0  0  0  0  0  0  0  0  0  0  0
    3.4883    1.1193   -1.7560 H   0  0  0  0  0  0  0  0  0  0  0  0
    4.4466   -0.3523   -1.2704 H   0  0  0  0  0  0  0  0  0  0  0  0
    1.2232    1.3821   -1.1518 H   0  0  0  0  0  0  0  0  0  0  0  0
   -1.5600    0.4464   -1.6482 H   0  0  0  0  0  0  0  0  0  0  0  0
   -1.4598    2.3859   -0.4144 H   0  0  0  0  0  0  0  0  0  0  0  0
   -0.8930    1.5338    1.0864 H   0  0  0  0  0  0  0  0  0  0  0  0
   -3.2342    2.3824    1.0818 H   0  0  0  0  0  0  0  0  0  0  0  0
   -4.8840    0.9967    0.2818 H   0  0  0  0  0  0  0  0  0  0  0  0
   -3.8797    1.2333   -1.1558 H   0  0  0  0  0  0  0  0  0  0  0  0
   -4.1018   -1.1915   -0.9403 H   0  0  0  0  0  0  0  0  0  0  0  0
   -3.9507   -1.0323    0.8872 H   0  0  0  0  0  0  0  0  0  0  0  0
    3.3898   -2.1192   -0.0130 H   0  0  0  0  0  0  0  0  0  0  0  0
  1  2  1  0
  2  3  1  0
  3  4  2  0
  4  5  1  0
  5  6  1  0
  6  7  1  0
  7  8  1  0
  8  9  1  0
  9 10  1  0
 10 11  1  0
 11 12  1  0
 12 13  2  0
 12 14  1  0
 14 15  1  0
 15 16  2  0
 15 17  1  0
 16  3  1  0
 14  5  2  0
 11  6  1  0
  1 18  1  0
  1 19  1  0
  1 20  1  0
  2 21  1  0
  2 22  1  0
  4 23  1  0
  6 24  1  6
  7 25  1  0
  7 26  1  0
  8 27  1  0
  9 28  1  0
  9 29  1  0
 10 30  1  0
 10 31  1  0
 16 32  1  0
M  END
>  <Ligand ID>  (1) 
LIG0004099

>  <Ligand>  (1) 
CHEMBL223440

>  <SMILES>  (1) 
CCc1cc2[C@@H]3CNCCN3C(=O)c2c(c1)Cl

>  <CID>  (1) 
11483068.0

>  <ChEMBL ID>  (1) 
nan

>  <InChiKey>  (1) 
YMMIJLPGZMHLGI-NSHDSACASA-N

>  <InChi>  (1) 
InChI=1S/C13H15ClN2O/c1-2-8-5-9-11-7-15-3-4-16(11)13(17)12(9)10(14)6-8/h5-6,11,15H,2-4,7H2,1H3/t11-/m0/s1

>  <IUPAC Name>  (1) 
(10bR)-7-chloro-9-ethyl-2,3,4,10b-tetrahydro-1H-pyrazino[1,2-b]isoindol-6-one

$$$$
