
     RDKit          3D

 58 60  0  0  0  0  0  0  0  0999 V2000
   -2.2742    2.3366   -1.8154 C   0  0  0  0  0  0  0  0  0  0  0  0
   -1.8524    1.0902   -1.1064 N   0  0  0  0  0  0  0  0  0  0  0  0
   -2.9855    0.2616   -0.8539 C   0  0  0  0  0  0  0  0  0  0  0  0
   -3.9100    0.4633   -2.0764 C   0  0  0  0  0  0  0  0  0  0  0  0
   -5.2104   -0.3006   -1.9167 C   0  0  0  0  0  0  0  0  0  0  0  0
   -5.8817    0.2214   -0.6796 C   0  0  0  0  0  0  0  0  0  0  0  0
   -5.0585    0.0752    0.5451 C   0  0  0  0  0  0  0  0  0  0  0  0
   -3.6573    0.6266    0.4112 C   0  0  0  0  0  0  0  0  0  0  0  0
   -2.6227   -1.1954   -0.9565 C   0  0  0  0  0  0  0  0  0  0  0  0
   -1.6071   -1.7233   -0.1355 N   0  0  0  0  0  0  0  0  0  0  0  0
   -0.2196   -1.4467   -0.1695 C   0  0  0  0  0  0  0  0  0  0  0  0
    0.2480   -0.6529   -1.0268 O   0  0  0  0  0  0  0  0  0  0  0  0
    0.7413   -2.0515    0.7686 C   0  0  0  0  0  0  0  0  0  0  0  0
    0.3704   -2.9279    1.7563 C   0  0  0  0  0  0  0  0  0  0  0  0
    1.2958   -3.4888    2.6326 C   0  0  0  0  0  0  0  0  0  0  0  0
    2.6159   -3.1428    2.4898 C   0  0  0  0  0  0  0  0  0  0  0  0
    3.0550   -2.2519    1.4997 C   0  0  0  0  0  0  0  0  0  0  0  0
    2.0887   -1.7432    0.6766 C   0  0  0  0  0  0  0  0  0  0  0  0
    4.7445   -1.9491    1.4180 S   0  0  0  0  0  0  0  0  0  0  0  0
    5.3140   -1.5794    2.7899 O   0  0  0  0  0  0  0  0  0  0  0  0
    5.5077   -3.1968    1.0281 O   0  0  0  0  0  0  0  0  0  0  0  0
    5.2366   -0.7085    0.3611 N   0  0  0  0  0  0  0  0  0  0  0  0
    4.7023    0.5582    0.7774 C   0  0  0  0  0  0  0  0  0  0  0  0
    5.1397    1.6382   -0.1639 C   0  0  0  0  0  0  0  0  0  0  0  0
    6.2812    2.4196   -0.0749 C   0  0  0  0  0  0  0  0  0  0  0  0
    6.2990    3.2941   -1.1511 C   0  0  0  0  0  0  0  0  0  0  0  0
    5.1357    2.9885   -1.8548 C   0  0  0  0  0  0  0  0  0  0  0  0
    4.5046    2.0239   -1.2385 O   0  0  0  0  0  0  0  0  0  0  0  0
    3.7647   -3.8652    3.6094 Cl  0  0  0  0  0  0  0  0  0  0  0  0
   -1.3294    1.6674    0.1509 C   0  0  0  0  0  0  0  0  0  0  0  0
   -2.4153    2.1723   -2.8782 H   0  0  0  0  0  0  0  0  0  0  0  0
   -1.3549    2.9919   -1.7407 H   0  0  0  0  0  0  0  0  0  0  0  0
   -3.0437    2.8719   -1.2650 H   0  0  0  0  0  0  0  0  0  0  0  0
   -3.3924    0.0728   -2.9490 H   0  0  0  0  0  0  0  0  0  0  0  0
   -4.1956    1.5081   -2.2155 H   0  0  0  0  0  0  0  0  0  0  0  0
   -5.8481    0.0255   -2.7889 H   0  0  0  0  0  0  0  0  0  0  0  0
   -5.1222   -1.3819   -1.9838 H   0  0  0  0  0  0  0  0  0  0  0  0
   -6.2646    1.2307   -0.8738 H   0  0  0  0  0  0  0  0  0  0  0  0
   -6.7923   -0.4232   -0.5386 H   0  0  0  0  0  0  0  0  0  0  0  0
   -5.0815   -0.9673    0.9199 H   0  0  0  0  0  0  0  0  0  0  0  0
   -5.5411    0.6849    1.3538 H   0  0  0  0  0  0  0  0  0  0  0  0
   -3.6478    1.7059    0.5861 H   0  0  0  0  0  0  0  0  0  0  0  0
   -3.0975    0.1490    1.2601 H   0  0  0  0  0  0  0  0  0  0  0  0
   -2.3702   -1.3613   -2.0633 H   0  0  0  0  0  0  0  0  0  0  0  0
   -3.5344   -1.8471   -0.8461 H   0  0  0  0  0  0  0  0  0  0  0  0
   -1.9002   -2.4244    0.6188 H   0  0  0  0  0  0  0  0  0  0  0  0
   -0.6491   -3.2275    1.9070 H   0  0  0  0  0  0  0  0  0  0  0  0
    0.9929   -4.1726    3.3998 H   0  0  0  0  0  0  0  0  0  0  0  0
    2.3726   -1.0802   -0.1109 H   0  0  0  0  0  0  0  0  0  0  0  0
    6.2632   -0.7122    0.3009 H   0  0  0  0  0  0  0  0  0  0  0  0
    3.6139    0.5265    0.8388 H   0  0  0  0  0  0  0  0  0  0  0  0
    5.0520    0.8237    1.8180 H   0  0  0  0  0  0  0  0  0  0  0  0
    7.0061    2.3270    0.7174 H   0  0  0  0  0  0  0  0  0  0  0  0
    7.0494    4.0335   -1.3747 H   0  0  0  0  0  0  0  0  0  0  0  0
    4.8781    3.5190   -2.7583 H   0  0  0  0  0  0  0  0  0  0  0  0
   -0.2787    1.9446   -0.0987 H   0  0  0  0  0  0  0  0  0  0  0  0
   -1.2747    0.9651    0.9707 H   0  0  0  0  0  0  0  0  0  0  0  0
   -1.8601    2.6051    0.3711 H   0  0  0  0  0  0  0  0  0  0  0  0
  1  2  1  0
  2  3  1  0
  3  4  1  0
  4  5  1  0
  5  6  1  0
  6  7  1  0
  7  8  1  0
  3  9  1  0
  9 10  1  0
 10 11  1  0
 11 12  2  0
 11 13  1  0
 13 14  2  0
 14 15  1  0
 15 16  2  0
 16 17  1  0
 17 18  2  0
 17 19  1  0
 19 20  2  0
 19 21  2  0
 19 22  1  0
 22 23  1  0
 23 24  1  0
 24 25  2  0
 25 26  1  0
 26 27  2  0
 27 28  1  0
 16 29  1  0
  2 30  1  0
  8  3  1  0
 18 13  1  0
 28 24  1  0
  1 31  1  0
  1 32  1  0
  1 33  1  0
  4 34  1  0
  4 35  1  0
  5 36  1  0
  5 37  1  0
  6 38  1  0
  6 39  1  0
  7 40  1  0
  7 41  1  0
  8 42  1  0
  8 43  1  0
  9 44  1  0
  9 45  1  0
 10 46  1  0
 14 47  1  0
 15 48  1  0
 18 49  1  0
 22 50  1  0
 23 51  1  0
 23 52  1  0
 25 53  1  0
 26 54  1  0
 27 55  1  0
 30 56  1  0
 30 57  1  0
 30 58  1  0
M  END
>  <Ligand ID>  (1) 
LIG0004534

>  <Ligand>  (1) 
SMR000150990

>  <SMILES>  (1) 
CN(C1(CCCCC1)CNC(=O)c1ccc(c(c1)S(=O)(=O)NCc1ccco1)Cl)C

>  <CID>  (1) 
4330067.0

>  <ChEMBL ID>  (1) 
nan

>  <InChiKey>  (1) 
FQHHPXBUTCTIAE-UHFFFAOYSA-N

>  <InChi>  (1) 
InChI=1S/C21H28ClN3O4S/c1-25(2)21(10-4-3-5-11-21)15-23-20(26)16-8-9-18(22)19(13-16)30(27,28)24-14-17-7-6-12-29-17/h6-9,12-13,24H,3-5,10-11,14-15H2,1-2H3,(H,23,26)

>  <IUPAC Name>  (1) 
4-chloro-N-[[1-(dimethylamino)cyclohexyl]methyl]-3-(furan-2-ylmethylsulfamoyl)benzamide

$$$$
