
     RDKit          3D

 44 47  0  0  0  0  0  0  0  0999 V2000
    9.3153    0.3238   -0.1585 F   0  0  0  0  0  0  0  0  0  0  0  0
    7.9449    0.3398   -0.2239 C   0  0  0  0  0  0  0  0  0  0  0  0
    7.3229   -0.5254   -1.1029 C   0  0  0  0  0  0  0  0  0  0  0  0
    5.9401   -0.5761   -1.2340 C   0  0  0  0  0  0  0  0  0  0  0  0
    5.1821    0.2716   -0.4536 C   0  0  0  0  0  0  0  0  0  0  0  0
    5.8046    1.1347    0.4232 C   0  0  0  0  0  0  0  0  0  0  0  0
    7.1838    1.1859    0.5547 C   0  0  0  0  0  0  0  0  0  0  0  0
    4.8502    2.1968    1.4007 Cl  0  0  0  0  0  0  0  0  0  0  0  0
    3.7322    0.2153   -0.5941 C   0  0  0  0  0  0  0  0  0  0  0  0
    3.0938   -0.6101   -1.4351 N   0  0  0  0  0  0  0  0  0  0  0  0
    1.8202   -0.3831   -1.2896 O   0  0  0  0  0  0  0  0  0  0  0  0
    1.6122    0.5394   -0.4042 C   0  0  0  0  0  0  0  0  0  0  0  0
    2.8048    0.9495    0.0654 N   0  0  0  0  0  0  0  0  0  0  0  0
    0.2438    1.0260   -0.0117 C   0  0  0  0  0  0  0  0  0  0  0  0
   -0.3016    0.2316    1.1220 C   0  0  0  0  0  0  0  0  0  0  0  0
   -0.4736   -1.2176    0.9126 C   0  0  0  0  0  0  0  0  0  0  0  0
   -1.3877   -1.6640   -0.1680 C   0  0  0  0  0  0  0  0  0  0  0  0
   -2.7893   -1.2123    0.0078 C   0  0  0  0  0  0  0  0  0  0  0  0
   -3.6481   -2.0375    0.7367 C   0  0  0  0  0  0  0  0  0  0  0  0
   -4.9678   -1.7036    0.9510 C   0  0  0  0  0  0  0  0  0  0  0  0
   -5.5003   -0.5338    0.4520 C   0  0  0  0  0  0  0  0  0  0  0  0
   -4.6333    0.2809   -0.2736 C   0  0  0  0  0  0  0  0  0  0  0  0
   -3.3114   -0.0603   -0.4843 C   0  0  0  0  0  0  0  0  0  0  0  0
   -5.1887    1.4509   -0.7656 C   0  0  0  0  0  0  0  0  0  0  0  0
   -6.5242    1.7641   -0.5348 C   0  0  0  0  0  0  0  0  0  0  0  0
   -7.3362    0.9139    0.1940 C   0  0  0  0  0  0  0  0  0  0  0  0
   -6.7739   -0.2222    0.6648 N   0  0  0  0  0  0  0  0  0  0  0  0
    7.9014   -1.2096   -1.7347 H   0  0  0  0  0  0  0  0  0  0  0  0
    5.5016   -1.2711   -1.9364 H   0  0  0  0  0  0  0  0  0  0  0  0
    7.6885    1.8545    1.2353 H   0  0  0  0  0  0  0  0  0  0  0  0
   -0.3981    1.1835   -0.8711 H   0  0  0  0  0  0  0  0  0  0  0  0
    0.4266    2.0619    0.4037 H   0  0  0  0  0  0  0  0  0  0  0  0
    0.4571    0.3370    1.9547 H   0  0  0  0  0  0  0  0  0  0  0  0
   -1.1959    0.7514    1.5323 H   0  0  0  0  0  0  0  0  0  0  0  0
    0.5044   -1.7232    0.8204 H   0  0  0  0  0  0  0  0  0  0  0  0
   -0.9006   -1.6360    1.8723 H   0  0  0  0  0  0  0  0  0  0  0  0
   -1.0919   -1.3465   -1.1827 H   0  0  0  0  0  0  0  0  0  0  0  0
   -1.4029   -2.7769   -0.2065 H   0  0  0  0  0  0  0  0  0  0  0  0
   -3.2671   -2.9639    1.1443 H   0  0  0  0  0  0  0  0  0  0  0  0
   -5.6042   -2.3821    1.5291 H   0  0  0  0  0  0  0  0  0  0  0  0
   -2.6989    0.5990   -1.0463 H   0  0  0  0  0  0  0  0  0  0  0  0
   -4.5914    2.1372   -1.3362 H   0  0  0  0  0  0  0  0  0  0  0  0
   -6.9620    2.6910   -0.9253 H   0  0  0  0  0  0  0  0  0  0  0  0
   -8.3813    1.1213    0.3960 H   0  0  0  0  0  0  0  0  0  0  0  0
  1  2  1  0
  2  3  2  0
  3  4  1  0
  4  5  2  0
  5  6  1  0
  6  7  2  0
  6  8  1  0
  5  9  1  0
  9 10  2  0
 10 11  1  0
 11 12  1  0
 12 13  2  0
 12 14  1  0
 14 15  1  0
 15 16  1  0
 16 17  1  0
 17 18  1  0
 18 19  2  0
 19 20  1  0
 20 21  2  0
 21 22  1  0
 22 23  2  0
 22 24  1  0
 24 25  2  0
 25 26  1  0
 26 27  2  0
  7  2  1  0
 13  9  1  0
 23 18  1  0
 27 21  1  0
  3 28  1  0
  4 29  1  0
  7 30  1  0
 14 31  1  0
 14 32  1  0
 15 33  1  0
 15 34  1  0
 16 35  1  0
 16 36  1  0
 17 37  1  0
 17 38  1  0
 19 39  1  0
 20 40  1  0
 23 41  1  0
 24 42  1  0
 25 43  1  0
 26 44  1  0
M  END
>  <Ligand ID>  (1) 
LIG0002797

>  <Ligand>  (1) 
CHEMBL498470

>  <SMILES>  (1) 
Fc1ccc(c(c1)Cl)c1noc(n1)CCCCc1ccc2c(c1)cccn2

>  <CID>  (1) 
44587055.0

>  <ChEMBL ID>  (1) 
nan

>  <InChiKey>  (1) 
FSUSWHJMGXMKBV-UHFFFAOYSA-N

>  <InChi>  (1) 
InChI=1S/C21H17ClFN3O/c22-18-13-16(23)8-9-17(18)21-25-20(27-26-21)6-2-1-4-14-7-10-19-15(12-14)5-3-11-24-19/h3,5,7-13H,1-2,4,6H2

>  <IUPAC Name>  (1) 
3-(2-chloro-4-fluorophenyl)-5-(4-quinolin-6-ylbutyl)-1,2,4-oxadiazole

$$$$
