
     RDKit          3D

 15 15  0  0  0  0  0  0  0  0999 V2000
   -2.6283    1.2542   -0.4701 O   0  0  0  0  0  0  0  0  0  0  0  0
   -1.6404    0.3318   -0.1270 C   0  0  0  0  0  0  0  0  0  0  0  0
   -1.9562   -0.9017    0.4032 C   0  0  0  0  0  0  0  0  0  0  0  0
   -1.0132   -1.8073    0.7412 N   0  0  0  0  0  0  0  0  0  0  0  0
    0.3031   -1.5486    0.5755 C   0  0  0  0  0  0  0  0  0  0  0  0
    0.6503   -0.3214    0.0465 C   0  0  0  0  0  0  0  0  0  0  0  0
   -0.2861    0.6282   -0.3102 C   0  0  0  0  0  0  0  0  0  0  0  0
    2.0648   -0.0119   -0.1448 C   0  0  0  0  0  0  0  0  0  0  0  0
    2.9600   -0.8413    0.1634 O   0  0  0  0  0  0  0  0  0  0  0  0
    2.4797    1.1960   -0.6686 O   0  0  0  0  0  0  0  0  0  0  0  0
   -2.3938    2.2478   -0.5155 H   0  0  0  0  0  0  0  0  0  0  0  0
   -3.0001   -1.1933    0.5709 H   0  0  0  0  0  0  0  0  0  0  0  0
    1.0783   -2.2495    0.8351 H   0  0  0  0  0  0  0  0  0  0  0  0
    0.0262    1.5592   -0.7136 H   0  0  0  0  0  0  0  0  0  0  0  0
    3.3558    1.6579   -0.3858 H   0  0  0  0  0  0  0  0  0  0  0  0
  1  2  1  0
  2  3  2  0
  3  4  1  0
  4  5  2  0
  5  6  1  0
  6  7  2  0
  6  8  1  0
  8  9  2  0
  8 10  1  0
  7  2  1  0
  1 11  1  0
  3 12  1  0
  5 13  1  0
  7 14  1  0
 10 15  1  0
M  END
>  <Ligand ID>  (1) 
LIG0005753

>  <Ligand>  (1) 
5-Hydroxynicotinic acid

>  <SMILES>  (1) 
Oc1cncc(c1)C(=O)O

>  <CID>  (1) 
34037.0

>  <ChEMBL ID>  (1) 
nan

>  <InChiKey>  (1) 
ATTDCVLRGFEHEO-UHFFFAOYSA-N

>  <InChi>  (1) 
InChI=1S/C6H5NO3/c8-5-1-4(6(9)10)2-7-3-5/h1-3,8H,(H,9,10)

>  <IUPAC Name>  (1) 
5-hydroxypyridine-3-carboxylic acid

$$$$
