
     RDKit          3D

 97104  0  0  0  0  0  0  0  0999 V2000
   10.4389    3.4204    0.5822 C   0  0  0  0  0  0  0  0  0  0  0  0
   10.0972    2.1299    0.1565 O   0  0  0  0  0  0  0  0  0  0  0  0
    9.5592    2.2410   -1.1210 C   0  0  0  0  0  0  0  0  0  0  0  0
    9.1786    0.8403   -1.6055 C   0  0  0  0  0  0  0  0  0  0  0  0
    8.2514    0.3532   -0.7084 O   0  0  0  0  0  0  0  0  0  0  0  0
    7.8025   -0.9297   -1.0052 C   0  0  0  0  0  0  0  0  0  0  0  0
    7.1351   -1.0431   -2.3434 C   0  0  0  0  0  0  0  0  0  0  0  0
    6.0716   -0.3290   -2.6384 O   0  0  0  0  0  0  0  0  0  0  0  0
    4.8652   -0.3162   -2.0804 C   0  0  0  0  0  0  0  0  0  0  0  0
    4.7138    0.0836   -0.6452 C   0  0  0  0  0  0  0  0  0  0  0  0
    3.4169    0.0676   -0.2043 O   0  0  0  0  0  0  0  0  0  0  0  0
    2.4608   -0.8803   -0.0416 C   0  0  0  0  0  0  0  0  0  0  0  0
    2.5861   -2.2279   -0.2867 C   0  0  0  0  0  0  0  0  0  0  0  0
    1.5476   -3.1443   -0.0975 C   0  0  0  0  0  0  0  0  0  0  0  0
    0.3291   -2.6791    0.3610 C   0  0  0  0  0  0  0  0  0  0  0  0
    0.2348   -1.3453    0.5977 C   0  0  0  0  0  0  0  0  0  0  0  0
    1.2141   -0.4306    0.4238 C   0  0  0  0  0  0  0  0  0  0  0  0
    0.6827    0.8006    0.7737 O   0  0  0  0  0  0  0  0  0  0  0  0
   -0.7132    0.7043    0.9367 C   0  0  2  0  0  0  0  0  0  0  0  0
   -1.0196   -0.7621    1.1293 C   0  0  2  0  0  0  0  0  0  0  0  0
   -1.1185   -1.0860    2.5744 C   0  0  0  0  0  0  0  0  0  0  0  0
   -1.8581   -2.3245    2.9051 C   0  0  0  0  0  0  0  0  0  0  0  0
   -2.7637   -2.8277    1.9209 N   0  0  0  0  0  0  0  0  0  0  0  0
   -2.1557   -2.7968    0.5862 C   0  0  2  0  0  0  0  0  0  0  0  0
   -0.8625   -3.5231    0.5577 C   0  0  0  0  0  0  0  0  0  0  0  0
   -2.0605   -1.3321    0.2289 C   0  0  2  0  0  0  0  0  0  0  0  0
   -1.5973   -1.1739   -1.2049 C   0  0  0  0  0  0  0  0  0  0  0  0
   -1.1467    0.2299   -1.4507 C   0  0  0  0  0  0  0  0  0  0  0  0
   -1.5279    1.1296   -0.2953 C   0  0  2  0  0  0  0  0  0  0  0  0
   -1.2461    2.4301   -0.5410 O   0  0  0  0  0  0  0  0  0  0  0  0
   -1.6219    3.0541   -1.6681 C   0  0  0  0  0  0  0  0  0  0  0  0
   -2.9436    0.9265    0.1775 C   0  0  2  0  0  0  0  0  0  0  0  0
   -3.3070   -0.5549    0.3590 C   0  0  0  0  0  0  0  0  0  0  0  0
   -4.0335    1.6999   -0.4405 C   0  0  0  0  0  0  0  0  0  0  0  0
   -5.2282    1.2653    0.1826 O   0  0  0  0  0  0  0  0  0  0  0  0
   -6.3286    1.9173   -0.3087 C   0  0  0  0  0  0  0  0  0  0  0  0
   -6.2910    3.3797   -0.1246 C   0  0  0  0  0  0  0  0  0  0  0  0
   -6.8319    3.9025    1.0432 C   0  0  0  0  0  0  0  0  0  0  0  0
   -6.8283    5.2751    1.2794 C   0  0  0  0  0  0  0  0  0  0  0  0
   -6.2901    6.1620    0.3671 C   0  0  0  0  0  0  0  0  0  0  0  0
   -5.7564    5.6348   -0.7872 C   0  0  0  0  0  0  0  0  0  0  0  0
   -5.7519    4.2612   -1.0397 C   0  0  0  0  0  0  0  0  0  0  0  0
   -3.2060   -4.1369    2.2962 C   0  0  0  0  0  0  0  0  0  0  0  0
   -4.1705   -4.7345    1.2943 C   0  0  0  0  0  0  0  0  0  0  0  0
   -5.4433   -4.0244    1.0217 C   0  0  0  0  0  0  0  0  0  0  0  0
   -5.4644   -5.2258    1.9044 C   0  0  0  0  0  0  0  0  0  0  0  0
    9.5013    4.0326    0.5856 H   0  0  0  0  0  0  0  0  0  0  0  0
   11.1914    3.8391   -0.1245 H   0  0  0  0  0  0  0  0  0  0  0  0
   10.8488    3.3294    1.6173 H   0  0  0  0  0  0  0  0  0  0  0  0
   10.2555    2.7388   -1.8263 H   0  0  0  0  0  0  0  0  0  0  0  0
    8.6251    2.8247   -1.0878 H   0  0  0  0  0  0  0  0  0  0  0  0
    8.6383    1.0202   -2.5772 H   0  0  0  0  0  0  0  0  0  0  0  0
   10.0496    0.2007   -1.7499 H   0  0  0  0  0  0  0  0  0  0  0  0
    7.3358   -1.4611   -0.1873 H   0  0  0  0  0  0  0  0  0  0  0  0
    8.8013   -1.5018   -1.1527 H   0  0  0  0  0  0  0  0  0  0  0  0
    6.9750   -2.1804   -2.4829 H   0  0  0  0  0  0  0  0  0  0  0  0
    7.9422   -0.8072   -3.1036 H   0  0  0  0  0  0  0  0  0  0  0  0
    4.1778    0.4255   -2.6370 H   0  0  0  0  0  0  0  0  0  0  0  0
    4.3926   -1.3265   -2.2488 H   0  0  0  0  0  0  0  0  0  0  0  0
    5.2785    1.0064   -0.3942 H   0  0  0  0  0  0  0  0  0  0  0  0
    5.2450   -0.7120   -0.0316 H   0  0  0  0  0  0  0  0  0  0  0  0
    3.5135   -2.6604   -0.6286 H   0  0  0  0  0  0  0  0  0  0  0  0
    1.6606   -4.1970   -0.2951 H   0  0  0  0  0  0  0  0  0  0  0  0
   -1.0186    1.3152    1.7925 H   0  0  0  0  0  0  0  0  0  0  0  0
   -0.0593   -1.2538    2.9492 H   0  0  0  0  0  0  0  0  0  0  0  0
   -1.4440   -0.2031    3.1884 H   0  0  0  0  0  0  0  0  0  0  0  0
   -1.1985   -3.1541    3.2512 H   0  0  0  0  0  0  0  0  0  0  0  0
   -2.4985   -2.0794    3.8082 H   0  0  0  0  0  0  0  0  0  0  0  0
   -2.8725   -3.2791   -0.0967 H   0  0  0  0  0  0  0  0  0  0  0  0
   -0.8982   -4.3236   -0.2298 H   0  0  0  0  0  0  0  0  0  0  0  0
   -0.6917   -4.0750    1.5197 H   0  0  0  0  0  0  0  0  0  0  0  0
   -2.5383   -1.3253   -1.8246 H   0  0  0  0  0  0  0  0  0  0  0  0
   -0.9111   -1.9313   -1.5650 H   0  0  0  0  0  0  0  0  0  0  0  0
   -0.0441    0.2605   -1.5436 H   0  0  0  0  0  0  0  0  0  0  0  0
   -1.5685    0.6090   -2.4117 H   0  0  0  0  0  0  0  0  0  0  0  0
   -1.2011    2.5835   -2.6072 H   0  0  0  0  0  0  0  0  0  0  0  0
   -2.6355    3.3065   -1.8976 H   0  0  0  0  0  0  0  0  0  0  0  0
   -1.0712    4.0633   -1.6601 H   0  0  0  0  0  0  0  0  0  0  0  0
   -2.9099    1.3133    1.2730 H   0  0  0  0  0  0  0  0  0  0  0  0
   -4.0663   -0.8235   -0.4315 H   0  0  0  0  0  0  0  0  0  0  0  0
   -3.8188   -0.7273    1.3250 H   0  0  0  0  0  0  0  0  0  0  0  0
   -3.8772    2.7724   -0.1836 H   0  0  0  0  0  0  0  0  0  0  0  0
   -4.1324    1.5530   -1.4996 H   0  0  0  0  0  0  0  0  0  0  0  0
   -7.2136    1.5128    0.2236 H   0  0  0  0  0  0  0  0  0  0  0  0
   -6.4689    1.6412   -1.3799 H   0  0  0  0  0  0  0  0  0  0  0  0
   -7.2596    3.2453    1.7764 H   0  0  0  0  0  0  0  0  0  0  0  0
   -7.2623    5.6183    2.2029 H   0  0  0  0  0  0  0  0  0  0  0  0
   -6.3080    7.2092    0.5885 H   0  0  0  0  0  0  0  0  0  0  0  0
   -5.3221    6.2966   -1.5332 H   0  0  0  0  0  0  0  0  0  0  0  0
   -5.3299    3.8623   -1.9490 H   0  0  0  0  0  0  0  0  0  0  0  0
   -3.6678   -4.0392    3.3003 H   0  0  0  0  0  0  0  0  0  0  0  0
   -2.3552   -4.8330    2.4216 H   0  0  0  0  0  0  0  0  0  0  0  0
   -3.7553   -5.3744    0.5043 H   0  0  0  0  0  0  0  0  0  0  0  0
   -5.5728   -3.0062    1.4316 H   0  0  0  0  0  0  0  0  0  0  0  0
   -5.8964   -4.1838    0.0054 H   0  0  0  0  0  0  0  0  0  0  0  0
   -5.6700   -5.0337    2.9874 H   0  0  0  0  0  0  0  0  0  0  0  0
   -5.9146   -6.1687    1.5672 H   0  0  0  0  0  0  0  0  0  0  0  0
  1  2  1  0
  2  3  1  0
  3  4  1  0
  4  5  1  0
  5  6  1  0
  6  7  1  0
  7  8  1  0
  8  9  1  0
  9 10  1  0
 10 11  1  0
 11 12  1  0
 12 13  2  0
 13 14  1  0
 14 15  2  0
 15 16  1  0
 16 17  2  0
 17 18  1  0
 18 19  1  0
 19 20  1  0
 20 21  1  1
 21 22  1  0
 22 23  1  0
 23 24  1  0
 24 25  1  0
 24 26  1  0
 26 27  1  6
 27 28  1  0
 28 29  1  0
 29 30  1  6
 30 31  1  0
 29 32  1  0
 32 33  1  0
 32 34  1  0
 34 35  1  0
 35 36  1  0
 36 37  1  0
 37 38  2  0
 38 39  1  0
 39 40  2  0
 40 41  1  0
 41 42  2  0
 23 43  1  0
 43 44  1  0
 44 45  1  0
 45 46  1  0
 17 12  1  0
 29 19  1  0
 42 37  1  0
 46 44  1  0
 25 15  1  0
 33 26  1  0
 20 16  1  0
 26 20  1  0
  1 47  1  0
  1 48  1  0
  1 49  1  0
  3 50  1  0
  3 51  1  0
  4 52  1  0
  4 53  1  0
  6 54  1  0
  6 55  1  0
  7 56  1  0
  7 57  1  0
  9 58  1  0
  9 59  1  0
 10 60  1  0
 10 61  1  0
 13 62  1  0
 14 63  1  0
 19 64  1  1
 21 65  1  0
 21 66  1  0
 22 67  1  0
 22 68  1  0
 24 69  1  6
 25 70  1  0
 25 71  1  0
 27 72  1  0
 27 73  1  0
 28 74  1  0
 28 75  1  0
 31 76  1  0
 31 77  1  0
 31 78  1  0
 32 79  1  1
 33 80  1  0
 33 81  1  0
 34 82  1  0
 34 83  1  0
 36 84  1  0
 36 85  1  0
 38 86  1  0
 39 87  1  0
 40 88  1  0
 41 89  1  0
 42 90  1  0
 43 91  1  0
 43 92  1  0
 44 93  1  0
 45 94  1  0
 45 95  1  0
 46 96  1  0
 46 97  1  0
M  END
>  <Ligand ID>  (1) 
LIG0004902

>  <Ligand>  (1) 
SCHEMBL878687

>  <SMILES>  (1) 
COCCOCCOCCOc1ccc2c3c1O[C@@H]1[C@@]43CCN([C@H](C2)[C@@]24CC[C@@]1(OC)[C@H](C2)COCc1ccccc1)CC1CC1

>  <CID>  (1) 
66827067.0

>  <ChEMBL ID>  (1) 
nan

>  <InChiKey>  (1) 
CMUPPNWEXDPPDS-OWDVXBOWSA-N

>  <InChi>  (1) 
InChI=1S/C38H51NO7/c1-40-16-17-42-18-19-43-20-21-45-31-11-10-29-22-32-36-12-13-38(41-2,30(23-36)26-44-25-28-6-4-3-5-7-28)35-37(36,33(29)34(31)46-35)14-15-39(32)24-27-8-9-27/h3-7,10-11,27,30,32,35H,8-9,12-26H2,1-2H3/t30-,32-,35-,36-,37+,38-/m1/s1

>  <IUPAC Name>  (1) 
(1S,2S,6R,14R,15R,16R)-5-(cyclopropylmethyl)-15-methoxy-11-[2-[2-(2-methoxyethoxy)ethoxy]ethoxy]-16-(phenylmethoxymethyl)-13-oxa-5-azahexacyclo[13.2.2.12,8.01,6.02,14.012,20]icosa-8(20),9,11-triene

$$$$
