
     RDKit          3D

 27 27  0  0  0  0  0  0  0  0999 V2000
   -1.7211   -1.7665    0.0916 C   0  0  0  0  0  0  0  0  0  0  0  0
   -1.5999   -0.5276   -0.7128 C   0  0  1  0  0  0  0  0  0  0  0  0
   -2.8190    0.3504   -0.4210 C   0  0  0  0  0  0  0  0  0  0  0  0
   -2.2746    1.6884   -0.1869 C   0  0  0  0  0  0  0  0  0  0  0  0
   -2.9554    2.6923    0.1186 O   0  0  0  0  0  0  0  0  0  0  0  0
   -0.9071    1.6695   -0.3542 O   0  0  0  0  0  0  0  0  0  0  0  0
   -0.4175    0.3410   -0.4408 C   0  0  1  0  0  0  0  0  0  0  0  0
    0.3300   -0.0534    0.7880 C   0  0  0  0  0  0  0  0  0  0  0  0
    1.5176    0.8260    1.0536 C   0  0  0  0  0  0  0  0  0  0  0  0
    2.5168    0.7930   -0.0792 C   0  0  0  0  0  0  0  0  0  0  0  0
    3.0568   -0.5895   -0.3296 C   0  0  0  0  0  0  0  0  0  0  0  0
   -2.7881   -1.9151    0.4312 H   0  0  0  0  0  0  0  0  0  0  0  0
   -1.5206   -2.6955   -0.5164 H   0  0  0  0  0  0  0  0  0  0  0  0
   -1.1218   -1.8465    0.9946 H   0  0  0  0  0  0  0  0  0  0  0  0
   -1.5905   -0.8226   -1.7865 H   0  0  0  0  0  0  0  0  0  0  0  0
   -3.4767    0.3862   -1.3314 H   0  0  0  0  0  0  0  0  0  0  0  0
   -3.3524   -0.0070    0.4611 H   0  0  0  0  0  0  0  0  0  0  0  0
    0.2797    0.3492   -1.3285 H   0  0  0  0  0  0  0  0  0  0  0  0
   -0.3360    0.0484    1.6644 H   0  0  0  0  0  0  0  0  0  0  0  0
    0.7303   -1.0739    0.6292 H   0  0  0  0  0  0  0  0  0  0  0  0
    2.0599    0.4588    1.9486 H   0  0  0  0  0  0  0  0  0  0  0  0
    1.2304    1.8822    1.2139 H   0  0  0  0  0  0  0  0  0  0  0  0
    2.0973    1.2108   -0.9921 H   0  0  0  0  0  0  0  0  0  0  0  0
    3.3876    1.4222    0.2268 H   0  0  0  0  0  0  0  0  0  0  0  0
    2.4198   -1.2037   -0.9866 H   0  0  0  0  0  0  0  0  0  0  0  0
    4.0571   -0.5130   -0.8074 H   0  0  0  0  0  0  0  0  0  0  0  0
    3.1973   -1.1040    0.6518 H   0  0  0  0  0  0  0  0  0  0  0  0
  1  2  1  0
  2  3  1  0
  3  4  1  0
  4  5  2  0
  4  6  1  0
  6  7  1  0
  7  8  1  0
  8  9  1  0
  9 10  1  0
 10 11  1  0
  7  2  1  0
  1 12  1  0
  1 13  1  0
  1 14  1  0
  2 15  1  6
  3 16  1  0
  3 17  1  0
  7 18  1  6
  8 19  1  0
  8 20  1  0
  9 21  1  0
  9 22  1  0
 10 23  1  0
 10 24  1  0
 11 25  1  0
 11 26  1  0
 11 27  1  0
M  END
>  <Ligand ID>  (1) 
LIG0001018

>  <Ligand>  (1) 
(-)-cis-Whiskey lactone

>  <SMILES>  (1) 
C[C@H]1CC(=O)O[C@H]1CCCC

>  <CID>  (1) 
11094871.0

>  <ChEMBL ID>  (1) 
nan

>  <InChiKey>  (1) 
WNVCMFHPRIBNCW-YUMQZZPRSA-N

>  <InChi>  (1) 
InChI=1S/C9H16O2/c1-3-4-5-8-7(2)6-9(10)11-8/h7-8H,3-6H2,1-2H3/t7-,8-/m0/s1

>  <IUPAC Name>  (1) 
(4S,5S)-5-butyl-4-methyloxolan-2-one

$$$$
