
     RDKit          3D

 29 30  0  0  0  0  0  0  0  0999 V2000
   -2.4318    0.7167   -0.3372 C   0  0  0  0  0  0  0  0  0  0  0  0
   -1.2060    0.3697    0.5207 C   0  0  0  0  0  0  0  0  0  0  0  0
   -1.3563    1.3408    2.0429 S   0  0  0  0  0  0  0  0  0  0  0  0
   -1.2286   -1.1074    0.7701 C   0  0  0  0  0  0  0  0  0  0  0  0
   -0.2367   -1.8797   -0.0455 C   0  0  0  0  0  0  0  0  0  0  0  0
    0.6958   -0.9936   -0.8103 C   0  0  0  0  0  0  0  0  0  0  0  0
   -0.0497    0.0973   -1.5740 C   0  0  0  0  0  0  0  0  0  0  0  0
   -0.0184    0.8502   -0.2458 C   0  0  0  0  0  0  0  0  0  0  0  0
    1.2572    0.1411    0.0258 C   0  0  0  0  0  0  0  0  0  0  0  0
    2.3925    0.7846   -0.7360 C   0  0  0  0  0  0  0  0  0  0  0  0
    1.6212   -0.1641    1.4312 C   0  0  0  0  0  0  0  0  0  0  0  0
   -2.8025   -0.1860   -0.8675 H   0  0  0  0  0  0  0  0  0  0  0  0
   -2.1960    1.5365   -1.0478 H   0  0  0  0  0  0  0  0  0  0  0  0
   -3.2504    1.0843    0.3071 H   0  0  0  0  0  0  0  0  0  0  0  0
   -1.9860    2.5685    1.7057 H   0  0  0  0  0  0  0  0  0  0  0  0
   -1.1389   -1.3316    1.8663 H   0  0  0  0  0  0  0  0  0  0  0  0
   -2.2393   -1.5380    0.5203 H   0  0  0  0  0  0  0  0  0  0  0  0
    0.3859   -2.5441    0.5845 H   0  0  0  0  0  0  0  0  0  0  0  0
   -0.7191   -2.5452   -0.8095 H   0  0  0  0  0  0  0  0  0  0  0  0
    1.4237   -1.5595   -1.4019 H   0  0  0  0  0  0  0  0  0  0  0  0
    0.5817    0.5687   -2.3412 H   0  0  0  0  0  0  0  0  0  0  0  0
   -1.0485   -0.1843   -1.9303 H   0  0  0  0  0  0  0  0  0  0  0  0
   -0.0119    1.9399   -0.3204 H   0  0  0  0  0  0  0  0  0  0  0  0
    2.9204   -0.0238   -1.3090 H   0  0  0  0  0  0  0  0  0  0  0  0
    3.1859    1.1873   -0.0507 H   0  0  0  0  0  0  0  0  0  0  0  0
    2.0776    1.6102   -1.3859 H   0  0  0  0  0  0  0  0  0  0  0  0
    1.2529   -1.1423    1.8086 H   0  0  0  0  0  0  0  0  0  0  0  0
    2.7367   -0.2613    1.4838 H   0  0  0  0  0  0  0  0  0  0  0  0
    1.3885    0.6652    2.1461 H   0  0  0  0  0  0  0  0  0  0  0  0
  1  2  1  0
  2  3  1  0
  2  4  1  0
  4  5  1  0
  5  6  1  0
  6  7  1  0
  7  8  1  0
  8  9  1  0
  9 10  1  0
  9 11  1  0
  8  2  1  0
  9  6  1  0
  1 12  1  0
  1 13  1  0
  1 14  1  0
  3 15  1  0
  4 16  1  0
  4 17  1  0
  5 18  1  0
  5 19  1  0
  6 20  1  0
  7 21  1  0
  7 22  1  0
  8 23  1  0
 10 24  1  0
 10 25  1  0
 10 26  1  0
 11 27  1  0
 11 28  1  0
 11 29  1  0
M  END
>  <Ligand ID>  (1) 
LIG0000609

>  <Ligand>  (1) 
2-Mercaptopinane

>  <SMILES>  (1) 
CC1(S)CCC2CC1C2(C)C

>  <CID>  (1) 
90984.0

>  <ChEMBL ID>  (1) 
nan

>  <InChiKey>  (1) 
ZPUCQOXKFCVYGL-UHFFFAOYSA-N

>  <InChi>  (1) 
InChI=1S/C10H18S/c1-9(2)7-4-5-10(3,11)8(9)6-7/h7-8,11H,4-6H2,1-3H3

>  <IUPAC Name>  (1) 
2,6,6-trimethylbicyclo[3.1.1]heptane-2-thiol

$$$$
