
     RDKit          3D

 10  9  0  0  0  0  0  0  0  0999 V2000
    1.9100    0.3648   -0.9770 S   0  0  0  0  0  0  0  0  0  0  0  0
    0.6032   -0.6922   -0.2983 C   0  0  0  0  0  0  0  0  0  0  0  0
   -0.3126    0.1982    0.4622 C   0  0  0  0  0  0  0  0  0  0  0  0
   -1.5935    0.3012    0.1335 C   0  0  0  0  0  0  0  0  0  0  0  0
    2.4499    1.0474    0.1574 H   0  0  0  0  0  0  0  0  0  0  0  0
    0.0367   -1.1873   -1.0930 H   0  0  0  0  0  0  0  0  0  0  0  0
    1.0577   -1.4824    0.3250 H   0  0  0  0  0  0  0  0  0  0  0  0
    0.0950    0.7505    1.2800 H   0  0  0  0  0  0  0  0  0  0  0  0
   -2.0071   -0.2585   -0.6954 H   0  0  0  0  0  0  0  0  0  0  0  0
   -2.2393    0.9584    0.7056 H   0  0  0  0  0  0  0  0  0  0  0  0
  1  2  1  0
  2  3  1  0
  3  4  2  0
  1  5  1  0
  2  6  1  0
  2  7  1  0
  3  8  1  0
  4  9  1  0
  4 10  1  0
M  END
>  <Ligand ID>  (1) 
LIG0000483

>  <Ligand>  (1) 
Allyl Mercaptan

>  <SMILES>  (1) 
SCC=C

>  <CID>  (1) 
13367.0

>  <ChEMBL ID>  (1) 
nan

>  <InChiKey>  (1) 
ULIKDJVNUXNQHS-UHFFFAOYSA-N

>  <InChi>  (1) 
InChI=1S/C3H6S/c1-2-3-4/h2,4H,1,3H2

>  <IUPAC Name>  (1) 
prop-2-ene-1-thiol

$$$$
