
     RDKit          3D

 27 26  0  0  0  0  0  0  0  0999 V2000
   -4.1774    0.6571   -0.0215 C   0  0  0  0  0  0  0  0  0  0  0  0
   -2.7514    0.9992    0.4100 C   0  0  0  0  0  0  0  0  0  0  0  0
   -1.8997   -0.1776    0.0544 C   0  0  0  0  0  0  0  0  0  0  0  0
   -0.4396    0.0153    0.4263 C   0  0  0  0  0  0  0  0  0  0  0  0
    0.2696   -1.2486    0.0040 C   0  0  0  0  0  0  0  0  0  0  0  0
    1.7462   -1.2404    0.3026 C   0  0  0  0  0  0  0  0  0  0  0  0
    2.3800   -0.0931   -0.4319 C   0  0  0  0  0  0  0  0  0  0  0  0
    3.8739   -0.0193   -0.1870 C   0  0  0  0  0  0  0  0  0  0  0  0
    4.5072    1.3994   -1.1255 S   0  0  0  0  0  0  0  0  0  0  0  0
   -4.4032    1.0378   -1.0459 H   0  0  0  0  0  0  0  0  0  0  0  0
   -4.9377    1.0541    0.6724 H   0  0  0  0  0  0  0  0  0  0  0  0
   -4.3366   -0.4505   -0.0635 H   0  0  0  0  0  0  0  0  0  0  0  0
   -2.4562    1.9154   -0.1387 H   0  0  0  0  0  0  0  0  0  0  0  0
   -2.7376    1.2372    1.4957 H   0  0  0  0  0  0  0  0  0  0  0  0
   -2.0240   -0.3497   -1.0340 H   0  0  0  0  0  0  0  0  0  0  0  0
   -2.3080   -1.0756    0.5581 H   0  0  0  0  0  0  0  0  0  0  0  0
   -0.3870    0.1647    1.5242 H   0  0  0  0  0  0  0  0  0  0  0  0
   -0.0453    0.9095   -0.0684 H   0  0  0  0  0  0  0  0  0  0  0  0
    0.1040   -1.3652   -1.0901 H   0  0  0  0  0  0  0  0  0  0  0  0
   -0.1607   -2.1433    0.4693 H   0  0  0  0  0  0  0  0  0  0  0  0
    2.1483   -2.2108   -0.0913 H   0  0  0  0  0  0  0  0  0  0  0  0
    1.9392   -1.2019    1.3885 H   0  0  0  0  0  0  0  0  0  0  0  0
    1.9740    0.8576    0.0090 H   0  0  0  0  0  0  0  0  0  0  0  0
    2.1637   -0.2068   -1.5032 H   0  0  0  0  0  0  0  0  0  0  0  0
    4.0738    0.0906    0.8887 H   0  0  0  0  0  0  0  0  0  0  0  0
    4.3622   -0.9569   -0.5809 H   0  0  0  0  0  0  0  0  0  0  0  0
    3.5221    2.4016   -1.2079 H   0  0  0  0  0  0  0  0  0  0  0  0
  1  2  1  0
  2  3  1  0
  3  4  1  0
  4  5  1  0
  5  6  1  0
  6  7  1  0
  7  8  1  0
  8  9  1  0
  1 10  1  0
  1 11  1  0
  1 12  1  0
  2 13  1  0
  2 14  1  0
  3 15  1  0
  3 16  1  0
  4 17  1  0
  4 18  1  0
  5 19  1  0
  5 20  1  0
  6 21  1  0
  6 22  1  0
  7 23  1  0
  7 24  1  0
  8 25  1  0
  8 26  1  0
  9 27  1  0
M  END
>  <Ligand ID>  (1) 
LIG0000071

>  <Ligand>  (1) 
octane-1-thiol

>  <SMILES>  (1) 
CCCCCCCCS

>  <CID>  (1) 
8144.0

>  <ChEMBL ID>  (1) 
nan

>  <InChiKey>  (1) 
KZCOBXFFBQJQHH-UHFFFAOYSA-N

>  <InChi>  (1) 
InChI=1S/C8H18S/c1-2-3-4-5-6-7-8-9/h9H,2-8H2,1H3

>  <IUPAC Name>  (1) 
octane-1-thiol

$$$$
