
     RDKit          3D

 63 66  0  0  0  0  0  0  0  0999 V2000
    3.7245   -0.0569    1.4754 O   0  0  0  0  0  0  0  0  0  0  0  0
    4.7806   -0.0852    0.5328 C   0  0  2  0  0  0  0  0  0  0  0  0
    5.3632    1.2620    0.2888 C   0  0  0  0  0  0  0  0  0  0  0  0
    6.4136    1.3645   -0.5958 O   0  0  0  0  0  0  0  0  0  0  0  0
    7.6536    0.8363   -0.5124 C   0  0  0  0  0  0  0  0  0  0  0  0
    8.5203    1.0869   -1.5861 C   0  0  0  0  0  0  0  0  0  0  0  0
    9.8041    0.6170   -1.6339 C   0  0  0  0  0  0  0  0  0  0  0  0
   10.3151   -0.1410   -0.6070 C   0  0  0  0  0  0  0  0  0  0  0  0
    9.4920   -0.4035    0.4573 C   0  0  0  0  0  0  0  0  0  0  0  0
    8.1827    0.0787    0.5025 C   0  0  0  0  0  0  0  0  0  0  0  0
   11.6320   -0.6341   -0.6352 O   0  0  0  0  0  0  0  0  0  0  0  0
    4.3475   -0.7881   -0.7269 C   0  0  0  0  0  0  0  0  0  0  0  0
    3.2379   -0.2563   -1.4166 N   0  0  0  0  0  0  0  0  0  0  0  0
    1.9759   -0.3547   -0.7925 C   0  0  0  0  0  0  0  0  0  0  0  0
    0.7904    0.1052   -1.6400 C   0  0  0  0  0  0  0  0  0  0  0  0
   -0.4740   -0.0578   -0.8386 C   0  0  0  0  0  0  0  0  0  0  0  0
   -1.0273    0.9490   -0.0977 C   0  0  0  0  0  0  0  0  0  0  0  0
   -2.1808    0.7045    0.6590 C   0  0  0  0  0  0  0  0  0  0  0  0
   -2.7842   -0.5354    0.6811 C   0  0  0  0  0  0  0  0  0  0  0  0
   -2.1948   -1.5392   -0.0872 C   0  0  0  0  0  0  0  0  0  0  0  0
   -1.0603   -1.3133   -0.8368 C   0  0  0  0  0  0  0  0  0  0  0  0
   -3.9361   -0.8340    1.4473 N   0  0  0  0  0  0  0  0  0  0  0  0
   -5.2655   -0.7442    1.0242 C   0  0  0  0  0  0  0  0  0  0  0  0
   -5.5564   -0.3634   -0.1671 O   0  0  0  0  0  0  0  0  0  0  0  0
   -6.3822   -1.0767    1.9117 C   0  0  0  0  0  0  0  0  0  0  0  0
   -7.7354   -1.0546    1.3347 C   0  0  0  0  0  0  0  0  0  0  0  0
   -7.9425   -1.9988    0.2149 C   0  0  0  0  0  0  0  0  0  0  0  0
   -8.4453   -1.3913   -0.8156 N   0  0  0  0  0  0  0  0  0  0  0  0
   -8.6283   -0.0137   -0.5167 C   0  0  0  0  0  0  0  0  0  0  0  0
   -8.2030    0.2228    0.7911 C   0  0  0  0  0  0  0  0  0  0  0  0
   -8.3152    1.5107    1.2374 C   0  0  0  0  0  0  0  0  0  0  0  0
   -8.8043    2.5607    0.5098 C   0  0  0  0  0  0  0  0  0  0  0  0
   -9.2268    2.3150   -0.7969 C   0  0  0  0  0  0  0  0  0  0  0  0
   -9.1363    1.0164   -1.3103 C   0  0  0  0  0  0  0  0  0  0  0  0
    3.9558   -0.5528    2.2940 H   0  0  0  0  0  0  0  0  0  0  0  0
    5.5343   -0.7433    0.9984 H   0  0  0  0  0  0  0  0  0  0  0  0
    5.7499    1.6233    1.2953 H   0  0  0  0  0  0  0  0  0  0  0  0
    4.5843    2.0235    0.0198 H   0  0  0  0  0  0  0  0  0  0  0  0
    8.1831    1.6816   -2.4377 H   0  0  0  0  0  0  0  0  0  0  0  0
   10.4541    0.8354   -2.4897 H   0  0  0  0  0  0  0  0  0  0  0  0
    9.8871   -0.9979    1.2644 H   0  0  0  0  0  0  0  0  0  0  0  0
    7.6361   -0.1699    1.3887 H   0  0  0  0  0  0  0  0  0  0  0  0
   12.0328   -0.8787    0.2777 H   0  0  0  0  0  0  0  0  0  0  0  0
    5.2293   -0.7460   -1.4338 H   0  0  0  0  0  0  0  0  0  0  0  0
    4.1396   -1.8508   -0.4464 H   0  0  0  0  0  0  0  0  0  0  0  0
    3.3012   -0.0605   -2.4068 H   0  0  0  0  0  0  0  0  0  0  0  0
    1.8710    0.1809    0.1763 H   0  0  0  0  0  0  0  0  0  0  0  0
    1.7862   -1.4384   -0.5864 H   0  0  0  0  0  0  0  0  0  0  0  0
    0.7330   -0.4277   -2.6038 H   0  0  0  0  0  0  0  0  0  0  0  0
    0.8653    1.1828   -1.8830 H   0  0  0  0  0  0  0  0  0  0  0  0
   -0.5727    1.9294   -0.1020 H   0  0  0  0  0  0  0  0  0  0  0  0
   -2.6461    1.4770    1.2572 H   0  0  0  0  0  0  0  0  0  0  0  0
   -2.6765   -2.5057   -0.0608 H   0  0  0  0  0  0  0  0  0  0  0  0
   -0.6097   -2.1014   -1.4313 H   0  0  0  0  0  0  0  0  0  0  0  0
   -3.7619   -1.1525    2.4327 H   0  0  0  0  0  0  0  0  0  0  0  0
   -6.1851   -2.0545    2.3670 H   0  0  0  0  0  0  0  0  0  0  0  0
   -6.3590   -0.3376    2.7611 H   0  0  0  0  0  0  0  0  0  0  0  0
   -8.4485   -1.3778    2.1442 H   0  0  0  0  0  0  0  0  0  0  0  0
   -7.6808   -3.0633    0.3149 H   0  0  0  0  0  0  0  0  0  0  0  0
   -7.9781    1.6882    2.2710 H   0  0  0  0  0  0  0  0  0  0  0  0
   -8.8688    3.5492    0.9162 H   0  0  0  0  0  0  0  0  0  0  0  0
   -9.6265    3.1040   -1.4307 H   0  0  0  0  0  0  0  0  0  0  0  0
   -9.4639    0.8215   -2.3212 H   0  0  0  0  0  0  0  0  0  0  0  0
  1  2  1  0
  2  3  1  0
  3  4  1  0
  4  5  1  0
  5  6  2  0
  6  7  1  0
  7  8  2  0
  8  9  1  0
  9 10  2  0
  8 11  1  0
  2 12  1  0
 12 13  1  0
 13 14  1  0
 14 15  1  0
 15 16  1  0
 16 17  2  0
 17 18  1  0
 18 19  2  0
 19 20  1  0
 20 21  2  0
 19 22  1  0
 22 23  1  0
 23 24  2  0
 23 25  1  0
 25 26  1  0
 26 27  1  0
 27 28  2  0
 28 29  1  0
 29 30  2  0
 30 31  1  0
 31 32  2  0
 32 33  1  0
 33 34  2  0
 10  5  1  0
 21 16  1  0
 30 26  1  0
 34 29  1  0
  1 35  1  0
  2 36  1  1
  3 37  1  0
  3 38  1  0
  6 39  1  0
  7 40  1  0
  9 41  1  0
 10 42  1  0
 11 43  1  0
 12 44  1  0
 12 45  1  0
 13 46  1  0
 14 47  1  0
 14 48  1  0
 15 49  1  0
 15 50  1  0
 17 51  1  0
 18 52  1  0
 20 53  1  0
 21 54  1  0
 22 55  1  0
 25 56  1  0
 25 57  1  0
 26 58  1  0
 27 59  1  0
 31 60  1  0
 32 61  1  0
 33 62  1  0
 34 63  1  0
M  END
>  <Ligand ID>  (1) 
LIG0002741

>  <Ligand>  (1) 
CID 45270391

>  <SMILES>  (1) 
O[C@H](COc1ccc(cc1)O)CNCCc1ccc(cc1)NC(=O)CC1C=Nc2c1cccc2

>  <CID>  (1) 
45270391.0

>  <ChEMBL ID>  (1) 
nan

>  <InChiKey>  (1) 
RAOYUDCALMAIKA-AKRCKQFNSA-N

>  <InChi>  (1) 
InChI=1S/C27H29N3O4/c31-22-9-11-24(12-10-22)34-18-23(32)17-28-14-13-19-5-7-21(8-6-19)30-27(33)15-20-16-29-26-4-2-1-3-25(20)26/h1-12,16,20,23,28,31-32H,13-15,17-18H2,(H,30,33)/t20?,23-/m0/s1

>  <IUPAC Name>  (1) 
N-[4-[2-[[(2S)-2-hydroxy-3-(4-hydroxyphenoxy)propyl]amino]ethyl]phenyl]-2-(3H-indol-3-yl)acetamide

$$$$
