
     RDKit          3D

 58 60  0  0  0  0  0  0  0  0999 V2000
   -3.5194    1.7868    0.3429 O   0  0  0  0  0  0  0  0  0  0  0  0
   -3.3933    0.8674   -0.4830 C   0  0  0  0  0  0  0  0  0  0  0  0
   -4.3596   -0.1482   -0.5336 O   0  0  0  0  0  0  0  0  0  0  0  0
   -5.4377   -0.1273    0.3228 C   0  0  0  0  0  0  0  0  0  0  0  0
   -5.3031   -0.7470    1.5410 C   0  0  0  0  0  0  0  0  0  0  0  0
   -6.3245   -0.7847    2.4756 C   0  0  0  0  0  0  0  0  0  0  0  0
   -7.5026   -0.1726    2.1461 C   0  0  0  0  0  0  0  0  0  0  0  0
   -7.6385    0.4477    0.9277 C   0  0  0  0  0  0  0  0  0  0  0  0
   -6.6277    0.4926   -0.0137 C   0  0  0  0  0  0  0  0  0  0  0  0
   -7.0283    1.1538   -1.0995 N   0  0  0  0  0  0  0  0  0  0  0  0
   -8.2995    1.5224   -0.8291 C   0  0  0  0  0  0  0  0  0  0  0  0
   -8.6675    1.0991    0.3880 N   0  0  0  0  0  0  0  0  0  0  0  0
   -2.3196    0.7575   -1.4069 N   0  0  0  0  0  0  0  0  0  0  0  0
   -1.2454    1.7498   -1.4581 C   0  0  0  0  0  0  0  0  0  0  0  0
   -0.5841    1.7621   -0.1273 C   0  0  0  0  0  0  0  0  0  0  0  0
   -0.0190    0.4168    0.2332 C   0  0  0  0  0  0  0  0  0  0  0  0
    0.9935    0.0203   -0.7733 C   0  0  0  0  0  0  0  0  0  0  0  0
    1.6058   -1.2867   -0.4723 N   0  0  0  0  0  0  0  0  0  0  0  0
    2.5168   -1.5425   -1.5236 C   0  0  0  0  0  0  0  0  0  0  0  0
    3.9556   -1.3047   -1.3218 C   0  0  0  0  0  0  0  0  0  0  0  0
    4.3272   -1.3103    0.1227 N   0  0  0  0  0  0  0  0  0  0  0  0
    3.4136   -2.0011    0.9633 C   0  0  0  0  0  0  0  0  0  0  0  0
    2.1133   -1.2150    0.8547 C   0  0  0  0  0  0  0  0  0  0  0  0
    5.5127   -0.6581    0.4503 C   0  0  0  0  0  0  0  0  0  0  0  0
    6.4263   -0.3576   -0.5722 C   0  0  0  0  0  0  0  0  0  0  0  0
    7.6306    0.2602   -0.3327 C   0  0  0  0  0  0  0  0  0  0  0  0
    8.0133    0.6237    0.9405 C   0  0  0  0  0  0  0  0  0  0  0  0
    7.1343    0.3398    1.9583 C   0  0  0  0  0  0  0  0  0  0  0  0
    5.9161   -0.2847    1.7158 C   0  0  0  0  0  0  0  0  0  0  0  0
    4.8837   -0.5621    3.0741 Cl  0  0  0  0  0  0  0  0  0  0  0  0
    7.5905    0.7908    3.6042 Cl  0  0  0  0  0  0  0  0  0  0  0  0
    0.6900    0.0000    0.0000 Cl  0  0  0  0  0  0  0  0  0  0  0  0
   -4.3685   -1.2297    1.7961 H   0  0  0  0  0  0  0  0  0  0  0  0
   -6.1506   -1.2862    3.4072 H   0  0  0  0  0  0  0  0  0  0  0  0
   -8.3171   -0.1942    2.8733 H   0  0  0  0  0  0  0  0  0  0  0  0
   -8.9724    2.0873   -1.4810 H   0  0  0  0  0  0  0  0  0  0  0  0
   -9.5982    1.2460    0.8502 H   0  0  0  0  0  0  0  0  0  0  0  0
   -2.2808   -0.0563   -2.0818 H   0  0  0  0  0  0  0  0  0  0  0  0
   -0.5740    1.5388   -2.2767 H   0  0  0  0  0  0  0  0  0  0  0  0
   -1.6977    2.7590   -1.6914 H   0  0  0  0  0  0  0  0  0  0  0  0
   -1.2385    2.1761    0.6687 H   0  0  0  0  0  0  0  0  0  0  0  0
    0.2630    2.5094   -0.1866 H   0  0  0  0  0  0  0  0  0  0  0  0
   -0.8768   -0.2913    0.2220 H   0  0  0  0  0  0  0  0  0  0  0  0
    0.3378    0.4161    1.2820 H   0  0  0  0  0  0  0  0  0  0  0  0
    1.7897    0.7866   -0.8590 H   0  0  0  0  0  0  0  0  0  0  0  0
    0.5206   -0.0251   -1.7762 H   0  0  0  0  0  0  0  0  0  0  0  0
    2.3938   -2.6334   -1.7936 H   0  0  0  0  0  0  0  0  0  0  0  0
    2.2094   -0.9979   -2.4646 H   0  0  0  0  0  0  0  0  0  0  0  0
    4.2072   -0.2765   -1.7158 H   0  0  0  0  0  0  0  0  0  0  0  0
    4.6023   -2.0274   -1.8590 H   0  0  0  0  0  0  0  0  0  0  0  0
    3.1656   -2.9640    0.3982 H   0  0  0  0  0  0  0  0  0  0  0  0
    3.6927   -2.3268    1.9343 H   0  0  0  0  0  0  0  0  0  0  0  0
    2.2701   -0.1486    1.1144 H   0  0  0  0  0  0  0  0  0  0  0  0
    1.3886   -1.6288    1.5631 H   0  0  0  0  0  0  0  0  0  0  0  0
    6.2129   -0.6064   -1.6099 H   0  0  0  0  0  0  0  0  0  0  0  0
    8.3127    0.4762   -1.1568 H   0  0  0  0  0  0  0  0  0  0  0  0
    8.9447    1.1087    1.1797 H   0  0  0  0  0  0  0  0  0  0  0  0
   -0.6900    0.0000    0.0000 H   0  0  0  0  0  0  0  0  0  0  0  0
  1  2  2  0
  2  3  1  0
  3  4  1  0
  4  5  2  0
  5  6  1  0
  6  7  2  0
  7  8  1  0
  8  9  2  0
  9 10  1  0
 10 11  2  0
 11 12  1  0
  2 13  1  0
 13 14  1  0
 14 15  1  0
 15 16  1  0
 16 17  1  0
 17 18  1  0
 18 19  1  0
 19 20  1  0
 20 21  1  0
 21 22  1  0
 22 23  1  0
 21 24  1  0
 24 25  2  0
 25 26  1  0
 26 27  2  0
 27 28  1  0
 28 29  2  0
 29 30  1  0
 28 31  1  0
  9  4  1  0
 23 18  1  0
 29 24  1  0
 12  8  1  0
  5 33  1  0
  6 34  1  0
  7 35  1  0
 11 36  1  0
 12 37  1  0
 13 38  1  0
 14 39  1  0
 14 40  1  0
 15 41  1  0
 15 42  1  0
 16 43  1  0
 16 44  1  0
 17 45  1  0
 17 46  1  0
 19 47  1  0
 19 48  1  0
 20 49  1  0
 20 50  1  0
 22 51  1  0
 22 52  1  0
 23 53  1  0
 23 54  1  0
 25 55  1  0
 26 56  1  0
 27 57  1  0
 32 58  1  0
M  END
>  <Ligand ID>  (1) 
LIG0003166

>  <Ligand>  (1) 
CHEMBL3798331

>  <SMILES>  (1) 
O=C(Oc1cccc2c1nc[nH]2)NCCCCN1CCN(CC1)c1cccc(c1Cl)Cl.Cl

>  <CID>  (1) 
127047641.0

>  <ChEMBL ID>  (1) 
nan

>  <InChiKey>  (1) 
WEPKFXLEEGTYON-UHFFFAOYSA-N

>  <InChi>  (1) 
InChI=1S/C22H25Cl2N5O2.ClH/c23-16-5-3-7-18(20(16)24)29-13-11-28(12-14-29)10-2-1-9-25-22(30)31-19-8-4-6-17-21(19)27-15-26-17;/h3-8,15H,1-2,9-14H2,(H,25,30)(H,26,27);1H

>  <IUPAC Name>  (1) 
1H-benzimidazol-4-yl N-[4-[4-(2,3-dichlorophenyl)piperazin-1-yl]butyl]carbamate;hydrochloride

$$$$
