
     RDKit          3D

 24 25  0  0  0  0  0  0  0  0999 V2000
    3.4837    0.1643   -1.2632 N   0  0  0  0  0  0  0  0  0  0  0  0
    2.9982   -0.0689    0.0870 C   0  0  0  0  0  0  0  0  0  0  0  0
    1.5419    0.2857    0.2146 C   0  0  2  0  0  0  0  0  0  0  0  0
    1.0003    0.0502    1.6290 C   0  0  0  0  0  0  0  0  0  0  0  0
    0.5019   -0.7281    0.4370 C   0  0  1  0  0  0  0  0  0  0  0  0
   -0.8974   -0.3849    0.0796 C   0  0  0  0  0  0  0  0  0  0  0  0
   -1.3265    0.9208    0.0176 C   0  0  0  0  0  0  0  0  0  0  0  0
   -2.6246    1.2758   -0.3125 C   0  0  0  0  0  0  0  0  0  0  0  0
   -3.5365    0.2617   -0.5946 C   0  0  0  0  0  0  0  0  0  0  0  0
   -3.1422   -1.0722   -0.5429 C   0  0  0  0  0  0  0  0  0  0  0  0
   -1.8386   -1.3765   -0.2093 C   0  0  0  0  0  0  0  0  0  0  0  0
    3.7354    1.1777   -1.3172 H   0  0  0  0  0  0  0  0  0  0  0  0
    2.6986    0.0328   -1.9520 H   0  0  0  0  0  0  0  0  0  0  0  0
    3.6531    0.5479    0.7585 H   0  0  0  0  0  0  0  0  0  0  0  0
    3.2107   -1.1175    0.3733 H   0  0  0  0  0  0  0  0  0  0  0  0
    1.2644    1.1973   -0.3236 H   0  0  0  0  0  0  0  0  0  0  0  0
    0.4278    0.9048    2.0134 H   0  0  0  0  0  0  0  0  0  0  0  0
    1.6191   -0.4883    2.3573 H   0  0  0  0  0  0  0  0  0  0  0  0
    0.7121   -1.8172    0.4495 H   0  0  0  0  0  0  0  0  0  0  0  0
   -0.6312    1.7252    0.2339 H   0  0  0  0  0  0  0  0  0  0  0  0
   -2.9138    2.3242   -0.3476 H   0  0  0  0  0  0  0  0  0  0  0  0
   -4.5587    0.4880   -0.8567 H   0  0  0  0  0  0  0  0  0  0  0  0
   -3.8231   -1.8833   -0.7557 H   0  0  0  0  0  0  0  0  0  0  0  0
   -1.5547   -2.4196   -0.1755 H   0  0  0  0  0  0  0  0  0  0  0  0
  1  2  1  0
  2  3  1  0
  3  4  1  0
  4  5  1  0
  5  6  1  0
  6  7  2  0
  7  8  1  0
  8  9  2  0
  9 10  1  0
 10 11  2  0
  5  3  1  0
 11  6  1  0
  1 12  1  0
  1 13  1  0
  2 14  1  0
  2 15  1  0
  3 16  1  6
  4 17  1  0
  4 18  1  0
  5 19  1  1
  7 20  1  0
  8 21  1  0
  9 22  1  0
 10 23  1  0
 11 24  1  0
M  END
>  <Ligand ID>  (1) 
LIG0005717

>  <Ligand>  (1) 
CHEMBL449134

>  <SMILES>  (1) 
NC[C@@H]1C[C@H]1c1ccccc1

>  <CID>  (1) 
11400855.0

>  <ChEMBL ID>  (1) 
nan

>  <InChiKey>  (1) 
ATTLDOZXPZCOGK-UWVGGRQHSA-N

>  <InChi>  (1) 
InChI=1S/C10H13N/c11-7-9-6-10(9)8-4-2-1-3-5-8/h1-5,9-10H,6-7,11H2/t9-,10-/m0/s1

>  <IUPAC Name>  (1) 
[(1R,2R)-2-phenylcyclopropyl]methanamine

$$$$
