
     RDKit          3D

 44 47  0  0  0  0  0  0  0  0999 V2000
    7.5607    0.8679    0.2805 C   0  0  0  0  0  0  0  0  0  0  0  0
    6.1586    0.3525    0.1993 C   0  0  0  0  0  0  0  0  0  0  0  0
    5.8257   -0.3433   -0.9658 C   0  0  0  0  0  0  0  0  0  0  0  0
    4.5341   -0.8326   -1.0700 C   0  0  0  0  0  0  0  0  0  0  0  0
    3.5986   -0.6380   -0.0483 C   0  0  0  0  0  0  0  0  0  0  0  0
    3.9383    0.0513    1.0995 C   0  0  0  0  0  0  0  0  0  0  0  0
    5.2395    0.5487    1.2131 C   0  0  0  0  0  0  0  0  0  0  0  0
    2.2313   -1.2077   -0.2618 C   0  0  0  0  0  0  0  0  0  0  0  0
    1.1371   -0.0065   -1.0838 S   0  0  0  0  0  0  0  0  0  0  0  0
   -0.4953   -0.6915   -1.3363 C   0  0  0  0  0  0  0  0  0  0  0  0
   -0.8390   -1.3764   -2.4485 N   0  0  0  0  0  0  0  0  0  0  0  0
   -2.1041   -1.7305   -2.2981 N   0  0  0  0  0  0  0  0  0  0  0  0
   -2.5659   -1.2809   -1.1094 C   0  0  0  0  0  0  0  0  0  0  0  0
   -1.5634   -0.6249   -0.4933 N   0  0  0  0  0  0  0  0  0  0  0  0
   -1.5291    0.0352    0.7765 C   0  0  0  0  0  0  0  0  0  0  0  0
   -1.9153    1.4320    0.6146 C   0  0  0  0  0  0  0  0  0  0  0  0
   -3.0852    2.1062    0.6443 C   0  0  0  0  0  0  0  0  0  0  0  0
   -3.1163    3.4201    0.4577 C   0  0  0  0  0  0  0  0  0  0  0  0
   -1.9319    4.0915    0.2320 C   0  0  0  0  0  0  0  0  0  0  0  0
   -0.6712    2.7533    0.2885 S   0  0  0  0  0  0  0  0  0  0  0  0
   -3.9089   -1.4602   -0.5645 C   0  0  0  0  0  0  0  0  0  0  0  0
   -4.9626   -0.6257   -0.8820 C   0  0  0  0  0  0  0  0  0  0  0  0
   -6.1875   -0.8756   -0.3190 C   0  0  0  0  0  0  0  0  0  0  0  0
   -6.3804   -1.9256    0.5418 C   0  0  0  0  0  0  0  0  0  0  0  0
   -5.3022   -2.7388    0.8356 C   0  0  0  0  0  0  0  0  0  0  0  0
   -4.0767   -2.5089    0.2878 N   0  0  0  0  0  0  0  0  0  0  0  0
    7.7860    1.5954   -0.5421 H   0  0  0  0  0  0  0  0  0  0  0  0
    7.7313    1.4009    1.2315 H   0  0  0  0  0  0  0  0  0  0  0  0
    8.2632    0.0256    0.1398 H   0  0  0  0  0  0  0  0  0  0  0  0
    6.5443   -0.4987   -1.7625 H   0  0  0  0  0  0  0  0  0  0  0  0
    4.2633   -1.3788   -1.9779 H   0  0  0  0  0  0  0  0  0  0  0  0
    3.1998    0.1916    1.8795 H   0  0  0  0  0  0  0  0  0  0  0  0
    5.5343    1.0976    2.1104 H   0  0  0  0  0  0  0  0  0  0  0  0
    2.2612   -2.1203   -0.8781 H   0  0  0  0  0  0  0  0  0  0  0  0
    1.7717   -1.5022    0.7194 H   0  0  0  0  0  0  0  0  0  0  0  0
   -0.4713    0.0298    1.1725 H   0  0  0  0  0  0  0  0  0  0  0  0
   -2.1035   -0.5039    1.5477 H   0  0  0  0  0  0  0  0  0  0  0  0
   -4.0367    1.5220    0.8321 H   0  0  0  0  0  0  0  0  0  0  0  0
   -4.0585    4.0161    0.4739 H   0  0  0  0  0  0  0  0  0  0  0  0
   -1.7015    5.1038    0.0606 H   0  0  0  0  0  0  0  0  0  0  0  0
   -4.8009    0.2133   -1.5722 H   0  0  0  0  0  0  0  0  0  0  0  0
   -7.0257   -0.2460   -0.5454 H   0  0  0  0  0  0  0  0  0  0  0  0
   -7.3155   -2.1645    1.0084 H   0  0  0  0  0  0  0  0  0  0  0  0
   -5.4302   -3.5732    1.5121 H   0  0  0  0  0  0  0  0  0  0  0  0
  1  2  1  0
  2  3  2  0
  3  4  1  0
  4  5  2  0
  5  6  1  0
  6  7  2  0
  5  8  1  0
  8  9  1  0
  9 10  1  0
 10 11  2  0
 11 12  1  0
 12 13  2  0
 13 14  1  0
 14 15  1  0
 15 16  1  0
 16 17  2  0
 17 18  1  0
 18 19  2  0
 19 20  1  0
 13 21  1  0
 21 22  2  0
 22 23  1  0
 23 24  2  0
 24 25  1  0
 25 26  2  0
  7  2  1  0
 14 10  1  0
 20 16  1  0
 26 21  1  0
  1 27  1  0
  1 28  1  0
  1 29  1  0
  3 30  1  0
  4 31  1  0
  6 32  1  0
  7 33  1  0
  8 34  1  0
  8 35  1  0
 15 36  1  0
 15 37  1  0
 17 38  1  0
 18 39  1  0
 19 40  1  0
 22 41  1  0
 23 42  1  0
 24 43  1  0
 25 44  1  0
M  END
>  <Ligand ID>  (1) 
LIG0003821

>  <Ligand>  (1) 
KUC103898N

>  <SMILES>  (1) 
Cc1ccc(cc1)CSc1nnc(n1Cc1cccs1)c1ccccn1

>  <CID>  (1) 
44601473.0

>  <ChEMBL ID>  (1) 
nan

>  <InChiKey>  (1) 
MOYWWOZMMWATFP-UHFFFAOYSA-N

>  <InChi>  (1) 
InChI=1S/C20H18N4S2/c1-15-7-9-16(10-8-15)14-26-20-23-22-19(18-6-2-3-11-21-18)24(20)13-17-5-4-12-25-17/h2-12H,13-14H2,1H3

>  <IUPAC Name>  (1) 
2-[5-[(4-methylphenyl)methylsulfanyl]-4-(thiophen-2-ylmethyl)-1,2,4-triazol-3-yl]pyridine

$$$$
