
     RDKit          3D

 27 28  0  0  0  0  0  0  0  0999 V2000
    3.7827    1.0168   -0.7637 N   0  0  0  0  0  0  0  0  0  0  0  0
    3.4116    0.2537    0.4066 C   0  0  0  0  0  0  0  0  0  0  0  0
    2.1239   -0.4774    0.1400 C   0  0  1  0  0  0  0  0  0  0  0  0
    1.5639   -1.3466    1.2687 C   0  0  0  0  0  0  0  0  0  0  0  0
    0.9205   -0.0621    0.8657 C   0  0  2  0  0  0  0  0  0  0  0  0
   -0.4454   -0.1605    0.2575 C   0  0  0  0  0  0  0  0  0  0  0  0
   -0.7007   -1.1228   -0.7140 C   0  0  0  0  0  0  0  0  0  0  0  0
   -1.9517   -1.2404   -1.2960 C   0  0  0  0  0  0  0  0  0  0  0  0
   -2.9765   -0.3971   -0.9188 C   0  0  0  0  0  0  0  0  0  0  0  0
   -2.7311    0.5549    0.0397 C   0  0  0  0  0  0  0  0  0  0  0  0
   -1.4813    0.6634    0.6130 C   0  0  0  0  0  0  0  0  0  0  0  0
   -3.8188    1.4968    0.4828 C   0  0  0  0  0  0  0  0  0  0  0  0
    4.7861    1.2947   -0.7793 H   0  0  0  0  0  0  0  0  0  0  0  0
    3.4718    0.5687   -1.6517 H   0  0  0  0  0  0  0  0  0  0  0  0
    4.1797   -0.4325    0.7603 H   0  0  0  0  0  0  0  0  0  0  0  0
    3.2465    1.0113    1.2177 H   0  0  0  0  0  0  0  0  0  0  0  0
    2.0024   -0.9449   -0.8626 H   0  0  0  0  0  0  0  0  0  0  0  0
    1.0157   -2.2691    1.0092 H   0  0  0  0  0  0  0  0  0  0  0  0
    2.1513   -1.3908    2.2101 H   0  0  0  0  0  0  0  0  0  0  0  0
    1.0050    0.7365    1.6236 H   0  0  0  0  0  0  0  0  0  0  0  0
    0.1020   -1.7851   -1.0111 H   0  0  0  0  0  0  0  0  0  0  0  0
   -2.1757   -1.9840   -2.0569 H   0  0  0  0  0  0  0  0  0  0  0  0
   -3.9728   -0.4720   -1.3652 H   0  0  0  0  0  0  0  0  0  0  0  0
   -1.3318    1.4250    1.3619 H   0  0  0  0  0  0  0  0  0  0  0  0
   -3.9267    1.3153    1.5922 H   0  0  0  0  0  0  0  0  0  0  0  0
   -4.7677    1.2191    0.0049 H   0  0  0  0  0  0  0  0  0  0  0  0
   -3.4828    2.5291    0.2877 H   0  0  0  0  0  0  0  0  0  0  0  0
  1  2  1  0
  2  3  1  0
  3  4  1  0
  4  5  1  0
  5  6  1  0
  6  7  2  0
  7  8  1  0
  8  9  2  0
  9 10  1  0
 10 11  2  0
 10 12  1  0
  5  3  1  0
 11  6  1  0
  1 13  1  0
  1 14  1  0
  2 15  1  0
  2 16  1  0
  3 17  1  6
  4 18  1  0
  4 19  1  0
  5 20  1  1
  7 21  1  0
  8 22  1  0
  9 23  1  0
 11 24  1  0
 12 25  1  0
 12 26  1  0
 12 27  1  0
M  END
>  <Ligand ID>  (1) 
LIG0003845

>  <Ligand>  (1) 
CHEMBL445747

>  <SMILES>  (1) 
NC[C@H]1C[C@@H]1c1cccc(c1)C

>  <CID>  (1) 
44572802.0

>  <ChEMBL ID>  (1) 
nan

>  <InChiKey>  (1) 
PDGGJTWTUULHJG-GHMZBOCLSA-N

>  <InChi>  (1) 
InChI=1S/C11H15N/c1-8-3-2-4-9(5-8)11-6-10(11)7-12/h2-5,10-11H,6-7,12H2,1H3/t10-,11-/m1/s1

>  <IUPAC Name>  (1) 
[(1S,2S)-2-(3-methylphenyl)cyclopropyl]methanamine

$$$$
