
     RDKit          3D

 32 34  0  0  0  0  0  0  0  0999 V2000
   -2.5225    2.7255   -2.6118 O   0  0  0  0  0  0  0  0  0  0  0  0
   -2.2375    1.7146   -1.9462 C   0  0  0  0  0  0  0  0  0  0  0  0
   -2.9230    1.1868   -0.7816 C   0  0  0  0  0  0  0  0  0  0  0  0
   -4.0565    1.6914   -0.1569 C   0  0  0  0  0  0  0  0  0  0  0  0
   -4.5839    1.0463    0.9452 C   0  0  0  0  0  0  0  0  0  0  0  0
   -3.9328   -0.0911    1.3670 C   0  0  0  0  0  0  0  0  0  0  0  0
   -2.8040   -0.5915    0.7433 C   0  0  0  0  0  0  0  0  0  0  0  0
   -2.2750    0.0516   -0.3557 C   0  0  0  0  0  0  0  0  0  0  0  0
   -1.1536   -0.2475   -1.1723 N   0  0  0  0  0  0  0  0  0  0  0  0
   -1.1173    0.7869   -2.1763 C   0  0  0  0  0  0  0  0  0  0  0  0
   -0.3126    0.9482   -3.1169 O   0  0  0  0  0  0  0  0  0  0  0  0
   -0.1981   -1.3130   -1.1283 C   0  0  0  0  0  0  0  0  0  0  0  0
    1.0849   -0.9863   -0.4927 C   0  0  0  0  0  0  0  0  0  0  0  0
    2.0950   -0.5067   -1.3437 C   0  0  0  0  0  0  0  0  0  0  0  0
    3.3420   -0.1657   -0.8582 C   0  0  0  0  0  0  0  0  0  0  0  0
    3.6568   -0.2785    0.4792 C   0  0  0  0  0  0  0  0  0  0  0  0
    2.6683   -0.7492    1.3180 C   0  0  0  0  0  0  0  0  0  0  0  0
    1.4070   -1.0925    0.8175 C   0  0  0  0  0  0  0  0  0  0  0  0
    5.0124    0.1026    0.9434 C   0  0  0  0  0  0  0  0  0  0  0  0
    5.9054   -0.9519    0.8265 F   0  0  0  0  0  0  0  0  0  0  0  0
    5.4710    1.1864    0.1920 F   0  0  0  0  0  0  0  0  0  0  0  0
    5.0021    0.4895    2.2745 F   0  0  0  0  0  0  0  0  0  0  0  0
   -2.1249   -2.0639    1.3918 Cl  0  0  0  0  0  0  0  0  0  0  0  0
   -4.5580    2.5864   -0.4999 H   0  0  0  0  0  0  0  0  0  0  0  0
   -5.4627    1.4315    1.4357 H   0  0  0  0  0  0  0  0  0  0  0  0
   -4.3541   -0.5967    2.2376 H   0  0  0  0  0  0  0  0  0  0  0  0
   -0.0591   -1.6368   -2.1985 H   0  0  0  0  0  0  0  0  0  0  0  0
   -0.6077   -2.1872   -0.5838 H   0  0  0  0  0  0  0  0  0  0  0  0
    1.9445   -0.3886   -2.4035 H   0  0  0  0  0  0  0  0  0  0  0  0
    4.1073    0.2006   -1.5197 H   0  0  0  0  0  0  0  0  0  0  0  0
    2.8808   -0.8522    2.3840 H   0  0  0  0  0  0  0  0  0  0  0  0
    0.7060   -1.4490    1.5373 H   0  0  0  0  0  0  0  0  0  0  0  0
  1  2  2  0
  2  3  1  0
  3  4  2  0
  4  5  1  0
  5  6  2  0
  6  7  1  0
  7  8  2  0
  8  9  1  0
  9 10  1  0
 10 11  2  0
  9 12  1  0
 12 13  1  0
 13 14  2  0
 14 15  1  0
 15 16  2  0
 16 17  1  0
 17 18  2  0
 16 19  1  0
 19 20  1  0
 19 21  1  0
 19 22  1  0
  7 23  1  0
 10  2  1  0
 18 13  1  0
  8  3  1  0
  4 24  1  0
  5 25  1  0
  6 26  1  0
 12 27  1  0
 12 28  1  0
 14 29  1  0
 15 30  1  0
 17 31  1  0
 18 32  1  0
M  END
>  <Ligand ID>  (1) 
LIG0001280

>  <Ligand>  (1) 
CHEMBL503735

>  <SMILES>  (1) 
O=C1c2cccc(c2N(C1=O)Cc1ccc(cc1)C(F)(F)F)Cl

>  <CID>  (1) 
44158142.0

>  <ChEMBL ID>  (1) 
nan

>  <InChiKey>  (1) 
MIAQTWNDRFRVOQ-UHFFFAOYSA-N

>  <InChi>  (1) 
InChI=1S/C16H9ClF3NO2/c17-12-3-1-2-11-13(12)21(15(23)14(11)22)8-9-4-6-10(7-5-9)16(18,19)20/h1-7H,8H2

>  <IUPAC Name>  (1) 
7-chloro-1-[[4-(trifluoromethyl)phenyl]methyl]indole-2,3-dione

$$$$
