
     RDKit          3D

 99103  0  0  0  0  0  0  0  0999 V2000
    3.8479    5.5208    1.0681 N   0  0  0  0  0  0  0  0  0  0  0  0
    2.9668    5.8555    0.0010 C   0  0  0  0  0  0  0  0  0  0  0  0
    2.2881    4.9429   -0.6422 N   0  0  0  0  0  0  0  0  0  0  0  0
    2.3612    3.5334   -0.3423 C   0  0  0  0  0  0  0  0  0  0  0  0
    1.8568    3.1954    1.0422 C   0  0  0  0  0  0  0  0  0  0  0  0
    1.9664    1.7205    1.3072 C   0  0  0  0  0  0  0  0  0  0  0  0
    1.1622    0.8558    0.4394 C   0  0  1  0  0  0  0  0  0  0  0  0
    1.4230   -0.6051    0.8388 C   0  0  0  0  0  0  0  0  0  0  0  0
    0.4617   -1.3037    1.2304 O   0  0  0  0  0  0  0  0  0  0  0  0
    2.7621   -1.0973    0.7363 N   0  0  0  0  0  0  0  0  0  0  0  0
    3.0891   -2.4778    1.0802 C   0  0  2  0  0  0  0  0  0  0  0  0
    3.9736   -2.4874    2.2316 C   0  0  0  0  0  0  0  0  0  0  0  0
    4.4390   -1.3816    2.6485 O   0  0  0  0  0  0  0  0  0  0  0  0
    4.3452   -3.6750    2.9252 N   0  0  0  0  0  0  0  0  0  0  0  0
    3.5590   -3.2408   -0.1120 C   0  0  0  0  0  0  0  0  0  0  0  0
    4.7373   -2.7194   -0.8027 C   0  0  0  0  0  0  0  0  0  0  0  0
    4.6249   -1.9197   -1.9528 C   0  0  0  0  0  0  0  0  0  0  0  0
    5.8393   -1.5499   -2.3683 N   0  0  0  0  0  0  0  0  0  0  0  0
    6.7684   -2.0728   -1.5390 C   0  0  0  0  0  0  0  0  0  0  0  0
    6.0823   -2.7918   -0.5790 C   0  0  0  0  0  0  0  0  0  0  0  0
    6.8120   -3.4270    0.3742 C   0  0  0  0  0  0  0  0  0  0  0  0
    8.1778   -3.3488    0.3755 C   0  0  0  0  0  0  0  0  0  0  0  0
    8.8780   -2.6166   -0.5979 C   0  0  0  0  0  0  0  0  0  0  0  0
    8.1376   -1.9662   -1.5766 C   0  0  0  0  0  0  0  0  0  0  0  0
   -0.2837    1.0192    0.5476 N   0  0  0  0  0  0  0  0  0  0  0  0
   -1.0521    0.3045   -0.4245 C   0  0  0  0  0  0  0  0  0  0  0  0
   -0.4880   -0.4045   -1.2964 O   0  0  0  0  0  0  0  0  0  0  0  0
   -2.5463    0.3479   -0.4580 C   0  0  1  0  0  0  0  0  0  0  0  0
   -3.0772    1.5902   -1.0745 C   0  0  0  0  0  0  0  0  0  0  0  0
   -2.7027    2.8595   -0.4196 C   0  0  0  0  0  0  0  0  0  0  0  0
   -1.6855    3.6080   -0.9734 C   0  0  0  0  0  0  0  0  0  0  0  0
   -1.2348    4.7930   -0.4510 C   0  0  0  0  0  0  0  0  0  0  0  0
   -1.8344    5.2594    0.6942 C   0  0  0  0  0  0  0  0  0  0  0  0
   -2.8564    4.5411    1.2809 C   0  0  0  0  0  0  0  0  0  0  0  0
   -3.3058    3.3334    0.7347 C   0  0  0  0  0  0  0  0  0  0  0  0
   -4.3410    2.6294    1.3256 C   0  0  0  0  0  0  0  0  0  0  0  0
   -4.8888    3.1780    2.4607 C   0  0  0  0  0  0  0  0  0  0  0  0
   -4.4655    4.3668    3.0223 C   0  0  0  0  0  0  0  0  0  0  0  0
   -3.4322    5.0550    2.4185 C   0  0  0  0  0  0  0  0  0  0  0  0
   -2.8924   -0.7510   -1.3946 N   0  0  0  0  0  0  0  0  0  0  0  0
   -3.4956   -1.8807   -0.8011 C   0  0  0  0  0  0  0  0  0  0  0  0
   -3.7198   -1.8958    0.4603 O   0  0  0  0  0  0  0  0  0  0  0  0
   -3.8946   -3.0962   -1.5673 C   0  0  2  0  0  0  0  0  0  0  0  0
   -4.9521   -2.7008   -2.5676 C   0  0  0  0  0  0  0  0  0  0  0  0
   -6.1497   -2.1685   -1.9007 C   0  0  0  0  0  0  0  0  0  0  0  0
   -7.1757   -2.9645   -1.5138 N   0  0  0  0  0  0  0  0  0  0  0  0
   -8.1479   -2.2541   -0.9325 C   0  0  0  0  0  0  0  0  0  0  0  0
   -7.7311   -0.9704   -0.9482 N   0  0  0  0  0  0  0  0  0  0  0  0
   -6.5207   -0.9038   -1.5331 C   0  0  0  0  0  0  0  0  0  0  0  0
   -4.4024   -4.1160   -0.6555 N   0  0  0  0  0  0  0  0  0  0  0  0
   -3.7862   -5.3986   -0.5309 C   0  0  0  0  0  0  0  0  0  0  0  0
   -2.7710   -5.7405   -1.1922 O   0  0  0  0  0  0  0  0  0  0  0  0
   -4.3336   -6.4131    0.4139 C   0  0  0  0  0  0  0  0  0  0  0  0
    2.8422    7.2349   -0.3534 N   0  0  0  0  0  0  0  0  0  0  0  0
    3.5385    5.8621    2.0243 H   0  0  0  0  0  0  0  0  0  0  0  0
    4.7308    4.9871    0.9372 H   0  0  0  0  0  0  0  0  0  0  0  0
    1.7545    2.9750   -1.0776 H   0  0  0  0  0  0  0  0  0  0  0  0
    3.4119    3.1649   -0.4060 H   0  0  0  0  0  0  0  0  0  0  0  0
    0.8117    3.5574    1.1750 H   0  0  0  0  0  0  0  0  0  0  0  0
    2.4860    3.7205    1.7875 H   0  0  0  0  0  0  0  0  0  0  0  0
    1.8048    1.5475    2.4028 H   0  0  0  0  0  0  0  0  0  0  0  0
    3.0548    1.4351    1.1419 H   0  0  0  0  0  0  0  0  0  0  0  0
    1.4647    0.8653   -0.6048 H   0  0  0  0  0  0  0  0  0  0  0  0
    3.4998   -0.4315    0.4025 H   0  0  0  0  0  0  0  0  0  0  0  0
    2.0923   -2.9265    1.3624 H   0  0  0  0  0  0  0  0  0  0  0  0
    4.9281   -3.6524    3.7828 H   0  0  0  0  0  0  0  0  0  0  0  0
    4.0343   -4.6122    2.5816 H   0  0  0  0  0  0  0  0  0  0  0  0
    2.6979   -3.4050   -0.8085 H   0  0  0  0  0  0  0  0  0  0  0  0
    3.8071   -4.2803    0.2496 H   0  0  0  0  0  0  0  0  0  0  0  0
    3.7173   -1.6335   -2.4496 H   0  0  0  0  0  0  0  0  0  0  0  0
    6.0314   -0.9418   -3.2179 H   0  0  0  0  0  0  0  0  0  0  0  0
    6.2940   -4.0001    1.1177 H   0  0  0  0  0  0  0  0  0  0  0  0
    8.8074   -3.8428    1.1187 H   0  0  0  0  0  0  0  0  0  0  0  0
    9.9475   -2.5509   -0.5995 H   0  0  0  0  0  0  0  0  0  0  0  0
    8.5939   -1.3872   -2.3573 H   0  0  0  0  0  0  0  0  0  0  0  0
   -0.7471    1.6079    1.2687 H   0  0  0  0  0  0  0  0  0  0  0  0
   -2.9050    0.1960    0.5399 H   0  0  0  0  0  0  0  0  0  0  0  0
   -2.7464    1.6328   -2.1619 H   0  0  0  0  0  0  0  0  0  0  0  0
   -4.2030    1.5342   -1.1969 H   0  0  0  0  0  0  0  0  0  0  0  0
   -1.1954    3.2450   -1.8917 H   0  0  0  0  0  0  0  0  0  0  0  0
   -0.4313    5.3124   -0.9671 H   0  0  0  0  0  0  0  0  0  0  0  0
   -1.4632    6.1992    1.0933 H   0  0  0  0  0  0  0  0  0  0  0  0
   -4.6746    1.7097    0.8872 H   0  0  0  0  0  0  0  0  0  0  0  0
   -5.7068    2.6794    2.9820 H   0  0  0  0  0  0  0  0  0  0  0  0
   -4.9003    4.7937    3.9166 H   0  0  0  0  0  0  0  0  0  0  0  0
   -3.0640    5.9979    2.8277 H   0  0  0  0  0  0  0  0  0  0  0  0
   -2.6995   -0.6883   -2.4076 H   0  0  0  0  0  0  0  0  0  0  0  0
   -3.0500   -3.5385   -2.1157 H   0  0  0  0  0  0  0  0  0  0  0  0
   -5.2047   -3.5520   -3.2476 H   0  0  0  0  0  0  0  0  0  0  0  0
   -4.5822   -1.8777   -3.2349 H   0  0  0  0  0  0  0  0  0  0  0  0
   -7.2122   -4.0100   -1.6469 H   0  0  0  0  0  0  0  0  0  0  0  0
   -9.0610   -2.6866   -0.5466 H   0  0  0  0  0  0  0  0  0  0  0  0
   -5.9135   -0.0374   -1.7059 H   0  0  0  0  0  0  0  0  0  0  0  0
   -5.2593   -3.8657   -0.0777 H   0  0  0  0  0  0  0  0  0  0  0  0
   -4.8685   -7.2001   -0.1380 H   0  0  0  0  0  0  0  0  0  0  0  0
   -3.4582   -6.8869    0.9156 H   0  0  0  0  0  0  0  0  0  0  0  0
   -5.0251   -5.9482    1.1480 H   0  0  0  0  0  0  0  0  0  0  0  0
    3.6486    7.8985   -0.1455 H   0  0  0  0  0  0  0  0  0  0  0  0
    1.9794    7.6288   -0.8140 H   0  0  0  0  0  0  0  0  0  0  0  0
  1  2  1  0
  2  3  2  3
  3  4  1  0
  4  5  1  0
  5  6  1  0
  6  7  1  0
  7  8  1  0
  8  9  2  0
  8 10  1  0
 10 11  1  0
 11 12  1  0
 12 13  2  0
 12 14  1  0
 11 15  1  0
 15 16  1  0
 16 17  2  0
 17 18  1  0
 18 19  1  0
 19 20  2  0
 20 21  1  0
 21 22  2  0
 22 23  1  0
 23 24  2  0
  7 25  1  0
 25 26  1  0
 26 27  2  0
 26 28  1  0
 28 29  1  0
 29 30  1  0
 30 31  2  0
 31 32  1  0
 32 33  2  0
 33 34  1  0
 34 35  2  0
 35 36  1  0
 36 37  2  0
 37 38  1  0
 38 39  2  0
 28 40  1  0
 40 41  1  0
 41 42  2  0
 41 43  1  0
 43 44  1  0
 44 45  1  0
 45 46  1  0
 46 47  1  0
 47 48  2  0
 48 49  1  0
 43 50  1  0
 50 51  1  0
 51 52  2  0
 51 53  1  0
  2 54  1  0
 20 16  1  0
 35 30  1  0
 49 45  2  0
 24 19  1  0
 39 34  1  0
  1 55  1  0
  1 56  1  0
  4 57  1  0
  4 58  1  0
  5 59  1  0
  5 60  1  0
  6 61  1  0
  6 62  1  0
  7 63  1  6
 10 64  1  0
 11 65  1  1
 14 66  1  0
 14 67  1  0
 15 68  1  0
 15 69  1  0
 17 70  1  0
 18 71  1  0
 21 72  1  0
 22 73  1  0
 23 74  1  0
 24 75  1  0
 25 76  1  0
 28 77  1  1
 29 78  1  0
 29 79  1  0
 31 80  1  0
 32 81  1  0
 33 82  1  0
 36 83  1  0
 37 84  1  0
 38 85  1  0
 39 86  1  0
 40 87  1  0
 43 88  1  6
 44 89  1  0
 44 90  1  0
 46 91  1  0
 47 92  1  0
 49 93  1  0
 50 94  1  0
 53 95  1  0
 53 96  1  0
 53 97  1  0
 54 98  1  0
 54 99  1  0
M  END
>  <Ligand ID>  (1) 
LIG0001440

>  <Ligand>  (1) 
CHEMBL321870

>  <SMILES>  (1) 
NC(=NCCC[C@@H](C(=O)N[C@H](C(=O)N)Cc1c[nH]c2c1cccc2)NC(=O)[C@@H](Cc1cccc2c1cccc2)NC(=O)[C@H](Cc1[nH]cnc1)NC(=O)C)N

>  <CID>  (1) 
10985482.0

>  <ChEMBL ID>  (1) 
nan

>  <InChiKey>  (1) 
ZJZJSTFJNWUUAH-SSNHPIBPSA-N

>  <InChi>  (1) 
InChI=1S/C38H45N11O5/c1-22(50)46-33(18-26-20-42-21-45-26)37(54)49-32(16-24-10-6-9-23-8-2-3-11-27(23)24)36(53)47-30(14-7-15-43-38(40)41)35(52)48-31(34(39)51)17-25-19-44-29-13-5-4-12-28(25)29/h2-6,8-13,19-21,30-33,44H,7,14-18H2,1H3,(H2,39,51)(H,42,45)(H,46,50)(H,47,53)(H,48,52)(H,49,54)(H4,40,41,43)/t30-,31-,32+,33-/m0/s1

>  <IUPAC Name>  (1) 
(2S)-2-[[(2R)-2-[[(2S)-2-acetamido-3-(1H-imidazol-5-yl)propanoyl]amino]-3-naphthalen-1-ylpropanoyl]amino]-N-[(2S)-1-amino-3-(1H-indol-3-yl)-1-oxopropan-2-yl]-5-(diaminomethylideneamino)pentanamide

$$$$
