
     RDKit          3D

 70 74  0  0  0  0  0  0  0  0999 V2000
   -0.5039   -3.3332    0.9946 C   0  0  0  0  0  0  0  0  0  0  0  0
    0.5282   -2.7657    0.0903 C   0  0  2  0  0  0  0  0  0  0  0  0
   -0.0582   -2.2934   -1.2236 C   0  0  0  0  0  0  0  0  0  0  0  0
   -1.0665   -1.2431   -1.1192 C   0  0  0  0  0  0  0  0  0  0  0  0
   -0.7537    0.1167   -1.2679 C   0  0  0  0  0  0  0  0  0  0  0  0
   -1.8647    0.8489   -1.0798 N   0  0  0  0  0  0  0  0  0  0  0  0
   -2.9085    0.0508   -0.8131 C   0  0  0  0  0  0  0  0  0  0  0  0
   -2.4104   -1.2489   -0.8388 C   0  0  0  0  0  0  0  0  0  0  0  0
   -3.2930   -2.2623   -0.6049 C   0  0  0  0  0  0  0  0  0  0  0  0
   -4.6257   -2.0200   -0.3495 C   0  0  0  0  0  0  0  0  0  0  0  0
   -5.1253   -0.7274   -0.3215 C   0  0  0  0  0  0  0  0  0  0  0  0
   -4.2402    0.3293   -0.5602 C   0  0  0  0  0  0  0  0  0  0  0  0
   -4.7004    1.6653   -0.5422 O   0  0  0  0  0  0  0  0  0  0  0  0
   -6.0740    1.8630   -0.2711 C   0  0  0  0  0  0  0  0  0  0  0  0
   -6.4305    3.2963   -0.2830 C   0  0  0  0  0  0  0  0  0  0  0  0
   -6.3267    3.9721    0.9259 C   0  0  0  0  0  0  0  0  0  0  0  0
   -6.6445    5.3225    0.9983 C   0  0  0  0  0  0  0  0  0  0  0  0
   -7.0675    5.9874   -0.1503 C   0  0  0  0  0  0  0  0  0  0  0  0
   -7.1623    5.2918   -1.3433 C   0  0  0  0  0  0  0  0  0  0  0  0
   -6.8474    3.9567   -1.4171 C   0  0  0  0  0  0  0  0  0  0  0  0
    1.6193   -3.6412   -0.1994 N   0  0  0  0  0  0  0  0  0  0  0  0
    2.2988   -4.2070    0.8867 C   0  0  0  0  0  0  0  0  0  0  0  0
    3.1162   -3.2703    1.7391 C   0  0  1  0  0  0  0  0  0  0  0  0
    4.2719   -2.6682    1.0486 C   0  0  0  0  0  0  0  0  0  0  0  0
    4.7268   -3.0290   -0.1945 C   0  0  0  0  0  0  0  0  0  0  0  0
    5.8468   -2.4082   -0.7503 C   0  0  0  0  0  0  0  0  0  0  0  0
    6.5224   -1.4174   -0.0647 C   0  0  0  0  0  0  0  0  0  0  0  0
    6.0729   -1.0425    1.1924 C   0  0  0  0  0  0  0  0  0  0  0  0
    4.9683   -1.6778    1.7045 C   0  0  0  0  0  0  0  0  0  0  0  0
    6.7010   -0.0196    1.9567 N   0  0  0  0  0  0  0  0  0  0  0  0
    5.8416    1.3036    2.6551 S   0  0  0  0  0  0  0  0  0  0  0  0
    4.7881    0.7498    3.5605 O   0  0  0  0  0  0  0  0  0  0  0  0
    6.8346    2.0993    3.4750 O   0  0  0  0  0  0  0  0  0  0  0  0
    5.0767    2.2972    1.4846 C   0  0  0  0  0  0  0  0  0  0  0  0
    3.8116    2.6595    1.2027 C   0  0  0  0  0  0  0  0  0  0  0  0
    3.5474    3.4802    0.1774 C   0  0  0  0  0  0  0  0  0  0  0  0
    4.6433    3.9260   -0.5623 C   0  0  0  0  0  0  0  0  0  0  0  0
    6.0955    3.1200    0.2663 S   0  0  0  0  0  0  0  0  0  0  0  0
    2.3658   -2.2373    2.3082 O   0  0  0  0  0  0  0  0  0  0  0  0
   -1.2075   -2.5366    1.3003 H   0  0  0  0  0  0  0  0  0  0  0  0
   -1.0996   -4.1504    0.5461 H   0  0  0  0  0  0  0  0  0  0  0  0
   -0.0810   -3.6960    1.9652 H   0  0  0  0  0  0  0  0  0  0  0  0
    0.9380   -1.8437    0.5691 H   0  0  0  0  0  0  0  0  0  0  0  0
   -0.5237   -3.1684   -1.7759 H   0  0  0  0  0  0  0  0  0  0  0  0
    0.7584   -1.9705   -1.9285 H   0  0  0  0  0  0  0  0  0  0  0  0
    0.2276    0.5457   -1.5019 H   0  0  0  0  0  0  0  0  0  0  0  0
   -1.8886    1.9063   -1.1414 H   0  0  0  0  0  0  0  0  0  0  0  0
   -2.9199   -3.2717   -0.6334 H   0  0  0  0  0  0  0  0  0  0  0  0
   -5.2821   -2.8616   -0.1673 H   0  0  0  0  0  0  0  0  0  0  0  0
   -6.1642   -0.5085   -0.1204 H   0  0  0  0  0  0  0  0  0  0  0  0
   -6.7037    1.3485   -1.0379 H   0  0  0  0  0  0  0  0  0  0  0  0
   -6.3603    1.3757    0.6950 H   0  0  0  0  0  0  0  0  0  0  0  0
   -5.9935    3.4538    1.8436 H   0  0  0  0  0  0  0  0  0  0  0  0
   -6.5852    5.8961    1.9093 H   0  0  0  0  0  0  0  0  0  0  0  0
   -7.3309    7.0378   -0.1562 H   0  0  0  0  0  0  0  0  0  0  0  0
   -7.4928    5.7892   -2.2578 H   0  0  0  0  0  0  0  0  0  0  0  0
   -6.9075    3.3717   -2.3312 H   0  0  0  0  0  0  0  0  0  0  0  0
    1.5023   -4.2263   -1.0378 H   0  0  0  0  0  0  0  0  0  0  0  0
    1.6757   -4.8921    1.5187 H   0  0  0  0  0  0  0  0  0  0  0  0
    3.0606   -4.9236    0.4544 H   0  0  0  0  0  0  0  0  0  0  0  0
    3.5930   -3.8810    2.5804 H   0  0  0  0  0  0  0  0  0  0  0  0
    4.2229   -3.7945   -0.7516 H   0  0  0  0  0  0  0  0  0  0  0  0
    6.2240   -2.6813   -1.7269 H   0  0  0  0  0  0  0  0  0  0  0  0
    7.3961   -0.9203   -0.4746 H   0  0  0  0  0  0  0  0  0  0  0  0
    4.6293   -1.3825    2.6900 H   0  0  0  0  0  0  0  0  0  0  0  0
    7.7474   -0.1259    2.0704 H   0  0  0  0  0  0  0  0  0  0  0  0
    2.9702    2.2621    1.8423 H   0  0  0  0  0  0  0  0  0  0  0  0
    2.5399    3.8247   -0.1210 H   0  0  0  0  0  0  0  0  0  0  0  0
    4.7482    4.5887   -1.4322 H   0  0  0  0  0  0  0  0  0  0  0  0
    2.7331   -1.3895    2.0287 H   0  0  0  0  0  0  0  0  0  0  0  0
  1  2  1  0
  2  3  1  0
  3  4  1  0
  4  5  2  0
  5  6  1  0
  6  7  1  0
  7  8  2  0
  8  9  1  0
  9 10  2  0
 10 11  1  0
 11 12  2  0
 12 13  1  0
 13 14  1  0
 14 15  1  0
 15 16  2  0
 16 17  1  0
 17 18  2  0
 18 19  1  0
 19 20  2  0
  2 21  1  0
 21 22  1  0
 22 23  1  0
 23 24  1  0
 24 25  2  0
 25 26  1  0
 26 27  2  0
 27 28  1  0
 28 29  2  0
 28 30  1  0
 30 31  1  0
 31 32  2  0
 31 33  2  0
 31 34  1  0
 34 35  2  0
 35 36  1  0
 36 37  2  0
 37 38  1  0
 23 39  1  0
  8  4  1  0
 20 15  1  0
 29 24  1  0
 38 34  1  0
 12  7  1  0
  1 40  1  0
  1 41  1  0
  1 42  1  0
  2 43  1  1
  3 44  1  0
  3 45  1  0
  5 46  1  0
  6 47  1  0
  9 48  1  0
 10 49  1  0
 11 50  1  0
 14 51  1  0
 14 52  1  0
 16 53  1  0
 17 54  1  0
 18 55  1  0
 19 56  1  0
 20 57  1  0
 21 58  1  0
 22 59  1  0
 22 60  1  0
 23 61  1  1
 25 62  1  0
 26 63  1  0
 27 64  1  0
 29 65  1  0
 30 66  1  0
 35 67  1  0
 36 68  1  0
 37 69  1  0
 39 70  1  0
M  END
>  <Ligand ID>  (1) 
LIG0002215

>  <Ligand>  (1) 
CHEMBL186676

>  <SMILES>  (1) 
C[C@H](Cc1c[nH]c2c1cccc2OCc1ccccc1)NC[C@@H](c1cccc(c1)NS(=O)(=O)c1cccs1)O

>  <CID>  (1) 
44396577.0

>  <ChEMBL ID>  (1) 
nan

>  <InChiKey>  (1) 
DWPUALIYKUCWGW-ZBLYBZFDSA-N

>  <InChi>  (1) 
InChI=1S/C30H31N3O4S2/c1-21(16-24-18-32-30-26(24)12-6-13-28(30)37-20-22-8-3-2-4-9-22)31-19-27(34)23-10-5-11-25(17-23)33-39(35,36)29-14-7-15-38-29/h2-15,17-18,21,27,31-34H,16,19-20H2,1H3/t21-,27+/m1/s1

>  <IUPAC Name>  (1) 
N-[3-[(1R)-1-hydroxy-2-[[(2R)-1-(7-phenylmethoxy-1H-indol-3-yl)propan-2-yl]amino]ethyl]phenyl]thiophene-2-sulfonamide

$$$$
