
     RDKit          3D

 27 26  0  0  0  0  0  0  0  0999 V2000
    4.3523    1.9956   -0.7430 O   0  0  0  0  0  0  0  0  0  0  0  0
    3.9012    0.8753   -0.3242 C   0  0  0  0  0  0  0  0  0  0  0  0
    2.4972    0.5198   -0.4253 C   0  0  0  0  0  0  0  0  0  0  0  0
    2.0133   -0.6498    0.0095 C   0  0  0  0  0  0  0  0  0  0  0  0
    0.5867   -1.0099   -0.0938 C   0  0  0  0  0  0  0  0  0  0  0  0
   -0.2159    0.1093   -0.7435 C   0  0  0  0  0  0  0  0  0  0  0  0
   -1.6545   -0.2793   -0.8370 C   0  0  0  0  0  0  0  0  0  0  0  0
   -2.6327    0.4021   -0.2593 C   0  0  0  0  0  0  0  0  0  0  0  0
   -4.0641   -0.0640   -0.4061 C   0  0  0  0  0  0  0  0  0  0  0  0
   -2.4082    1.6144    0.5358 C   0  0  0  0  0  0  0  0  0  0  0  0
    2.9912   -1.5819    0.6092 C   0  0  0  0  0  0  0  0  0  0  0  0
    4.6471    0.2231    0.1069 H   0  0  0  0  0  0  0  0  0  0  0  0
    1.8332    1.2460   -0.8747 H   0  0  0  0  0  0  0  0  0  0  0  0
    0.1237   -1.3345    0.8592 H   0  0  0  0  0  0  0  0  0  0  0  0
    0.4924   -1.8811   -0.7862 H   0  0  0  0  0  0  0  0  0  0  0  0
    0.1177    0.2826   -1.7822 H   0  0  0  0  0  0  0  0  0  0  0  0
   -0.0506    1.0002   -0.1406 H   0  0  0  0  0  0  0  0  0  0  0  0
   -1.8895   -1.1690   -1.4126 H   0  0  0  0  0  0  0  0  0  0  0  0
   -4.0186   -1.1700   -0.2326 H   0  0  0  0  0  0  0  0  0  0  0  0
   -4.6946    0.3534    0.3872 H   0  0  0  0  0  0  0  0  0  0  0  0
   -4.4426    0.0810   -1.4309 H   0  0  0  0  0  0  0  0  0  0  0  0
   -1.6027    2.2819    0.1810 H   0  0  0  0  0  0  0  0  0  0  0  0
   -3.3225    2.2774    0.5498 H   0  0  0  0  0  0  0  0  0  0  0  0
   -2.1963    1.3440    1.5899 H   0  0  0  0  0  0  0  0  0  0  0  0
    3.8997   -1.6700   -0.0193 H   0  0  0  0  0  0  0  0  0  0  0  0
    2.4988   -2.5678    0.7351 H   0  0  0  0  0  0  0  0  0  0  0  0
    3.2384   -1.2288    1.6362 H   0  0  0  0  0  0  0  0  0  0  0  0
  1  2  2  0
  2  3  1  0
  3  4  2  0
  4  5  1  0
  5  6  1  0
  6  7  1  0
  7  8  2  3
  8  9  1  0
  8 10  1  0
  4 11  1  0
  2 12  1  0
  3 13  1  0
  5 14  1  0
  5 15  1  0
  6 16  1  0
  6 17  1  0
  7 18  1  0
  9 19  1  0
  9 20  1  0
  9 21  1  0
 10 22  1  0
 10 23  1  0
 10 24  1  0
 11 25  1  0
 11 26  1  0
 11 27  1  0
M  END
>  <Ligand ID>  (1) 
LIG0000018

>  <Ligand>  (1) 
citral

>  <SMILES>  (1) 
O=C/C=C(/CCC=C(C)C)\C

>  <CID>  (1) 
638011.0

>  <ChEMBL ID>  (1) 
nan

>  <InChiKey>  (1) 
WTEVQBCEXWBHNA-JXMROGBWSA-N

>  <InChi>  (1) 
InChI=1S/C10H16O/c1-9(2)5-4-6-10(3)7-8-11/h5,7-8H,4,6H2,1-3H3/b10-7+

>  <IUPAC Name>  (1) 
(2E)-3,7-dimethylocta-2,6-dienal

$$$$
