
     RDKit          3D

 39 41  0  0  0  0  0  0  0  0999 V2000
    5.7450    0.4891   -1.7189 C   0  0  0  0  0  0  0  0  0  0  0  0
    6.3312   -0.8627   -1.5811 C   0  0  0  0  0  0  0  0  0  0  0  0
    6.8321   -1.3566   -2.5780 O   0  0  0  0  0  0  0  0  0  0  0  0
    6.3567   -1.6535   -0.3394 C   0  0  0  0  0  0  0  0  0  0  0  0
    5.5694   -0.8017    1.0239 S   0  0  0  0  0  0  0  0  0  0  0  0
    3.8167   -0.5946    0.8049 C   0  0  0  0  0  0  0  0  0  0  0  0
    3.1084    0.0634    1.8173 C   0  0  0  0  0  0  0  0  0  0  0  0
    1.7261    0.2487    1.6943 C   0  0  0  0  0  0  0  0  0  0  0  0
    1.1279   -0.2385    0.5573 C   0  0  0  0  0  0  0  0  0  0  0  0
    1.8386   -0.8850   -0.4325 C   0  0  0  0  0  0  0  0  0  0  0  0
    3.1655   -1.0363   -0.2639 N   0  0  0  0  0  0  0  0  0  0  0  0
   -0.3056   -0.0773    0.3773 C   0  0  0  0  0  0  0  0  0  0  0  0
   -1.1340    0.5193    1.2527 N   0  0  0  0  0  0  0  0  0  0  0  0
   -2.3977    0.4934    0.7670 C   0  0  0  0  0  0  0  0  0  0  0  0
   -2.3662   -0.1427   -0.4605 C   0  0  0  0  0  0  0  0  0  0  0  0
   -1.0602   -0.4707   -0.6484 N   0  0  0  0  0  0  0  0  0  0  0  0
   -3.5181   -0.3179   -1.1975 C   0  0  0  0  0  0  0  0  0  0  0  0
   -4.7528    0.1353   -0.7396 C   0  0  0  0  0  0  0  0  0  0  0  0
   -4.7579    0.7649    0.4842 C   0  0  0  0  0  0  0  0  0  0  0  0
   -3.6133    0.9486    1.2353 C   0  0  0  0  0  0  0  0  0  0  0  0
   -6.0291    1.2826    1.0572 C   0  0  0  0  0  0  0  0  0  0  0  0
   -6.0038   -0.0440   -1.5179 C   0  0  0  0  0  0  0  0  0  0  0  0
    6.3540    1.1127   -2.4310 H   0  0  0  0  0  0  0  0  0  0  0  0
    5.7584    1.0642   -0.7590 H   0  0  0  0  0  0  0  0  0  0  0  0
    4.7162    0.3845   -2.0959 H   0  0  0  0  0  0  0  0  0  0  0  0
    5.8641   -2.6270   -0.5511 H   0  0  0  0  0  0  0  0  0  0  0  0
    7.4200   -1.8344   -0.0792 H   0  0  0  0  0  0  0  0  0  0  0  0
    3.5952    0.4410    2.7067 H   0  0  0  0  0  0  0  0  0  0  0  0
    1.1861    0.7614    2.4872 H   0  0  0  0  0  0  0  0  0  0  0  0
    1.3804   -1.2734   -1.3314 H   0  0  0  0  0  0  0  0  0  0  0  0
   -0.9217    0.9575    2.1789 H   0  0  0  0  0  0  0  0  0  0  0  0
   -3.4851   -0.8090   -2.1421 H   0  0  0  0  0  0  0  0  0  0  0  0
   -3.6409    1.4480    2.1978 H   0  0  0  0  0  0  0  0  0  0  0  0
   -5.9703    2.3661    1.2919 H   0  0  0  0  0  0  0  0  0  0  0  0
   -6.8920    1.0880    0.4167 H   0  0  0  0  0  0  0  0  0  0  0  0
   -6.1126    0.7873    2.0682 H   0  0  0  0  0  0  0  0  0  0  0  0
   -6.6826   -0.7542   -0.9634 H   0  0  0  0  0  0  0  0  0  0  0  0
   -5.7164   -0.4864   -2.4858 H   0  0  0  0  0  0  0  0  0  0  0  0
   -6.5318    0.9101   -1.6900 H   0  0  0  0  0  0  0  0  0  0  0  0
  1  2  1  0
  2  3  2  0
  2  4  1  0
  4  5  1  0
  5  6  1  0
  6  7  2  0
  7  8  1  0
  8  9  2  0
  9 10  1  0
 10 11  2  0
  9 12  1  0
 12 13  1  0
 13 14  1  0
 14 15  2  0
 15 16  1  0
 15 17  1  0
 17 18  2  0
 18 19  1  0
 19 20  2  0
 19 21  1  0
 18 22  1  0
 11  6  1  0
 16 12  2  0
 20 14  1  0
  1 23  1  0
  1 24  1  0
  1 25  1  0
  4 26  1  0
  4 27  1  0
  7 28  1  0
  8 29  1  0
 10 30  1  0
 13 31  1  0
 17 32  1  0
 20 33  1  0
 21 34  1  0
 21 35  1  0
 21 36  1  0
 22 37  1  0
 22 38  1  0
 22 39  1  0
M  END
>  <Ligand ID>  (1) 
LIG0003900

>  <Ligand>  (1) 
MLS000718599

>  <SMILES>  (1) 
CC(=O)CSc1ccc(cn1)c1[nH]c2c(n1)cc(c(c2)C)C

>  <CID>  (1) 
1432812.0

>  <ChEMBL ID>  (1) 
nan

>  <InChiKey>  (1) 
FIJUAUXILJRSJJ-UHFFFAOYSA-N

>  <InChi>  (1) 
InChI=1S/C17H17N3OS/c1-10-6-14-15(7-11(10)2)20-17(19-14)13-4-5-16(18-8-13)22-9-12(3)21/h4-8H,9H2,1-3H3,(H,19,20)

>  <IUPAC Name>  (1) 
1-[5-(5,6-dimethyl-1H-benzimidazol-2-yl)pyridin-2-yl]sulfanylpropan-2-one

$$$$
