
     RDKit          3D

 39 38  0  0  0  0  0  0  0  0999 V2000
   -6.3489   -0.1853   -0.6178 C   0  0  0  0  0  0  0  0  0  0  0  0
   -5.0405    0.2456    0.0089 C   0  0  0  0  0  0  0  0  0  0  0  0
   -3.8820   -0.5457   -0.5495 C   0  0  0  0  0  0  0  0  0  0  0  0
   -2.5984   -0.0576    0.1273 C   0  0  0  0  0  0  0  0  0  0  0  0
   -1.4211   -0.7991   -0.3807 C   0  0  0  0  0  0  0  0  0  0  0  0
   -0.1273   -0.3708    0.2828 C   0  0  0  0  0  0  0  0  0  0  0  0
    0.1682    1.0652    0.0497 C   0  0  0  0  0  0  0  0  0  0  0  0
    1.3661    1.6822    0.6300 C   0  0  0  0  0  0  0  0  0  0  0  0
    2.7067    1.2575    0.2540 C   0  0  0  0  0  0  0  0  0  0  0  0
    3.1873   -0.1333    0.4894 C   0  0  0  0  0  0  0  0  0  0  0  0
    4.6686   -0.1113    0.0298 C   0  0  0  0  0  0  0  0  0  0  0  0
    5.2991   -1.4501    0.2052 C   0  0  0  0  0  0  0  0  0  0  0  0
    6.6405   -1.4205   -0.2139 O   0  0  0  0  0  0  0  0  0  0  0  0
   -6.3876   -1.2878   -0.7590 H   0  0  0  0  0  0  0  0  0  0  0  0
   -6.5087    0.2932   -1.6226 H   0  0  0  0  0  0  0  0  0  0  0  0
   -7.2075    0.0870    0.0378 H   0  0  0  0  0  0  0  0  0  0  0  0
   -5.1411    0.1031    1.1131 H   0  0  0  0  0  0  0  0  0  0  0  0
   -4.8827    1.3246   -0.1601 H   0  0  0  0  0  0  0  0  0  0  0  0
   -3.8345   -0.3349   -1.6317 H   0  0  0  0  0  0  0  0  0  0  0  0
   -4.0288   -1.6197   -0.3704 H   0  0  0  0  0  0  0  0  0  0  0  0
   -2.5337    1.0322   -0.0966 H   0  0  0  0  0  0  0  0  0  0  0  0
   -2.6952   -0.2252    1.2186 H   0  0  0  0  0  0  0  0  0  0  0  0
   -1.2831   -0.6003   -1.4642 H   0  0  0  0  0  0  0  0  0  0  0  0
   -1.5436   -1.8859   -0.2769 H   0  0  0  0  0  0  0  0  0  0  0  0
   -0.1325   -0.6268    1.3722 H   0  0  0  0  0  0  0  0  0  0  0  0
    0.6368   -1.0303   -0.1591 H   0  0  0  0  0  0  0  0  0  0  0  0
   -0.7652    1.6653    0.3494 H   0  0  0  0  0  0  0  0  0  0  0  0
    0.1810    1.2747   -1.0765 H   0  0  0  0  0  0  0  0  0  0  0  0
    1.2997    2.8114    0.3945 H   0  0  0  0  0  0  0  0  0  0  0  0
    1.2872    1.7418    1.7790 H   0  0  0  0  0  0  0  0  0  0  0  0
    3.5065    1.9184    0.7585 H   0  0  0  0  0  0  0  0  0  0  0  0
    2.9150    1.4338   -0.8676 H   0  0  0  0  0  0  0  0  0  0  0  0
    3.0764   -0.4931    1.5105 H   0  0  0  0  0  0  0  0  0  0  0  0
    2.7624   -0.9012   -0.2250 H   0  0  0  0  0  0  0  0  0  0  0  0
    4.6319    0.1969   -1.0339 H   0  0  0  0  0  0  0  0  0  0  0  0
    5.1607    0.6919    0.6080 H   0  0  0  0  0  0  0  0  0  0  0  0
    5.3704   -1.6220    1.3182 H   0  0  0  0  0  0  0  0  0  0  0  0
    4.7939   -2.2628   -0.3110 H   0  0  0  0  0  0  0  0  0  0  0  0
    6.7041   -0.8612   -1.0422 H   0  0  0  0  0  0  0  0  0  0  0  0
  1  2  1  0
  2  3  1  0
  3  4  1  0
  4  5  1  0
  5  6  1  0
  6  7  1  0
  7  8  1  0
  8  9  1  0
  9 10  1  0
 10 11  1  0
 11 12  1  0
 12 13  1  0
  1 14  1  0
  1 15  1  0
  1 16  1  0
  2 17  1  0
  2 18  1  0
  3 19  1  0
  3 20  1  0
  4 21  1  0
  4 22  1  0
  5 23  1  0
  5 24  1  0
  6 25  1  0
  6 26  1  0
  7 27  1  0
  7 28  1  0
  8 29  1  0
  8 30  1  0
  9 31  1  0
  9 32  1  0
 10 33  1  0
 10 34  1  0
 11 35  1  0
 11 36  1  0
 12 37  1  0
 12 38  1  0
 13 39  1  0
M  END
>  <Ligand ID>  (1) 
LIG0000380

>  <Ligand>  (1) 
Lauryl Alcohol

>  <SMILES>  (1) 
CCCCCCCCCCCCO

>  <CID>  (1) 
8193.0

>  <ChEMBL ID>  (1) 
nan

>  <InChiKey>  (1) 
LQZZUXJYWNFBMV-UHFFFAOYSA-N

>  <InChi>  (1) 
InChI=1S/C12H26O/c1-2-3-4-5-6-7-8-9-10-11-12-13/h13H,2-12H2,1H3

>  <IUPAC Name>  (1) 
dodecan-1-ol

$$$$
