
     RDKit          3D

 20 20  0  0  0  0  0  0  0  0999 V2000
   -1.3198    1.3526    0.8881 C   0  0  0  0  0  0  0  0  0  0  0  0
   -1.3863    0.0712    0.1174 C   0  0  0  0  0  0  0  0  0  0  0  0
   -0.3905   -0.4933   -0.6492 C   0  0  0  0  0  0  0  0  0  0  0  0
    0.9928    0.0354   -0.8768 C   0  0  0  0  0  0  0  0  0  0  0  0
    1.8649   -0.2329    0.3434 C   0  0  0  0  0  0  0  0  0  0  0  0
    3.1938    0.2878    0.1131 N   0  0  0  0  0  0  0  0  0  0  0  0
   -0.8773   -1.6356   -1.1684 N   0  0  0  0  0  0  0  0  0  0  0  0
   -2.1465   -1.8189   -0.7604 C   0  0  0  0  0  0  0  0  0  0  0  0
   -2.4671   -0.7614    0.0388 N   0  0  0  0  0  0  0  0  0  0  0  0
   -0.7235    1.1666    1.7802 H   0  0  0  0  0  0  0  0  0  0  0  0
   -2.3232    1.7957    1.0593 H   0  0  0  0  0  0  0  0  0  0  0  0
   -0.7688    2.0793    0.2243 H   0  0  0  0  0  0  0  0  0  0  0  0
    0.9420    1.1425   -0.9832 H   0  0  0  0  0  0  0  0  0  0  0  0
    1.4347   -0.3636   -1.8036 H   0  0  0  0  0  0  0  0  0  0  0  0
    1.4179    0.2367    1.2201 H   0  0  0  0  0  0  0  0  0  0  0  0
    1.9350   -1.3504    0.4380 H   0  0  0  0  0  0  0  0  0  0  0  0
    3.6271    0.6060    1.0336 H   0  0  0  0  0  0  0  0  0  0  0  0
    3.1619    1.1554   -0.4978 H   0  0  0  0  0  0  0  0  0  0  0  0
   -2.7603   -2.6595   -1.0379 H   0  0  0  0  0  0  0  0  0  0  0  0
   -3.4067   -0.6137    0.5209 H   0  0  0  0  0  0  0  0  0  0  0  0
  1  2  1  0
  2  3  2  0
  3  4  1  0
  4  5  1  0
  5  6  1  0
  3  7  1  0
  7  8  2  0
  8  9  1  0
  9  2  1  0
  1 10  1  0
  1 11  1  0
  1 12  1  0
  4 13  1  0
  4 14  1  0
  5 15  1  0
  5 16  1  0
  6 17  1  0
  6 18  1  0
  8 19  1  0
  9 20  1  0
M  END
>  <Ligand ID>  (1) 
LIG0000945

>  <Ligand>  (1) 
4-methylhistamine

>  <SMILES>  (1) 
Cc1c(CCN)nc[nH]1

>  <CID>  (1) 
37463.0

>  <ChEMBL ID>  (1) 
nan

>  <InChiKey>  (1) 
UGYXPZQILZRKJJ-UHFFFAOYSA-N

>  <InChi>  (1) 
InChI=1S/C6H11N3/c1-5-6(2-3-7)9-4-8-5/h4H,2-3,7H2,1H3,(H,8,9)

>  <IUPAC Name>  (1) 
2-(5-methyl-1H-imidazol-4-yl)ethanamine

$$$$
