
     RDKit          3D

 54 57  0  0  0  0  0  0  0  0999 V2000
    6.9566   -2.0578    0.9644 C   0  0  0  0  0  0  0  0  0  0  0  0
    7.1541   -0.7522    0.5761 O   0  0  0  0  0  0  0  0  0  0  0  0
    6.5033   -0.4068   -0.5773 C   0  0  0  0  0  0  0  0  0  0  0  0
    4.9861   -0.5612   -0.5000 C   0  0  0  0  0  0  0  0  0  0  0  0
    4.5000    0.3290    0.6040 C   0  0  0  0  0  0  0  0  0  0  0  0
    3.0742    0.3096    0.8228 N   0  0  0  0  0  0  0  0  0  0  0  0
    2.2136    0.6965   -0.2318 C   0  0  0  0  0  0  0  0  0  0  0  0
    2.6938    1.0510   -1.3380 O   0  0  0  0  0  0  0  0  0  0  0  0
    0.7595    0.7110   -0.1156 C   0  0  0  0  0  0  0  0  0  0  0  0
    0.1293    1.9430   -0.2725 C   0  0  0  0  0  0  0  0  0  0  0  0
   -1.2231    1.9633   -0.1664 C   0  0  0  0  0  0  0  0  0  0  0  0
   -1.9391    0.7916    0.0891 C   0  0  0  0  0  0  0  0  0  0  0  0
   -1.3383   -0.4011    0.2415 N   0  0  0  0  0  0  0  0  0  0  0  0
    0.0093   -0.4179    0.1356 C   0  0  0  0  0  0  0  0  0  0  0  0
    0.6816   -1.5239    0.2737 N   0  0  0  0  0  0  0  0  0  0  0  0
   -2.0575   -1.6306    0.5098 C   0  0  0  0  0  0  0  0  0  0  0  0
   -3.4451   -1.6581   -0.0829 C   0  0  0  0  0  0  0  0  0  0  0  0
   -3.7792   -3.1549   -0.0105 C   0  0  0  0  0  0  0  0  0  0  0  0
   -2.5352   -3.7799   -0.5421 C   0  0  0  0  0  0  0  0  0  0  0  0
   -1.4122   -2.8381   -0.1642 C   0  0  0  0  0  0  0  0  0  0  0  0
   -3.2568    0.9094    0.1787 N   0  0  0  0  0  0  0  0  0  0  0  0
   -3.8848    2.0891    0.0337 C   0  0  0  0  0  0  0  0  0  0  0  0
   -3.2224    3.2334   -0.2127 N   0  0  0  0  0  0  0  0  0  0  0  0
   -1.8677    3.1818   -0.3167 C   0  0  0  0  0  0  0  0  0  0  0  0
   -1.1939    4.2177   -0.5464 O   0  0  0  0  0  0  0  0  0  0  0  0
   -3.8304    4.4234   -0.3587 C   0  0  0  0  0  0  0  0  0  0  0  0
   -5.2121    4.5164   -0.2564 C   0  0  0  0  0  0  0  0  0  0  0  0
   -5.9486    3.3708   -0.0034 C   0  0  0  0  0  0  0  0  0  0  0  0
   -5.2661    2.1763    0.1368 C   0  0  0  0  0  0  0  0  0  0  0  0
    7.5144   -2.2669    1.9093 H   0  0  0  0  0  0  0  0  0  0  0  0
    7.4160   -2.7596    0.2125 H   0  0  0  0  0  0  0  0  0  0  0  0
    5.8972   -2.2760    1.1599 H   0  0  0  0  0  0  0  0  0  0  0  0
    6.6889    0.6961   -0.7191 H   0  0  0  0  0  0  0  0  0  0  0  0
    6.8823   -0.8669   -1.5053 H   0  0  0  0  0  0  0  0  0  0  0  0
    4.7048   -1.6224   -0.3605 H   0  0  0  0  0  0  0  0  0  0  0  0
    4.6550   -0.2036   -1.5110 H   0  0  0  0  0  0  0  0  0  0  0  0
    4.8945    1.3555    0.4048 H   0  0  0  0  0  0  0  0  0  0  0  0
    4.9938   -0.0015    1.5404 H   0  0  0  0  0  0  0  0  0  0  0  0
    2.6606    0.0123    1.7519 H   0  0  0  0  0  0  0  0  0  0  0  0
    0.6819    2.8567   -0.4725 H   0  0  0  0  0  0  0  0  0  0  0  0
    1.7173   -1.5549    0.1997 H   0  0  0  0  0  0  0  0  0  0  0  0
   -2.1570   -1.8298    1.6058 H   0  0  0  0  0  0  0  0  0  0  0  0
   -3.4285   -1.3069   -1.1241 H   0  0  0  0  0  0  0  0  0  0  0  0
   -4.2190   -1.1833    0.5586 H   0  0  0  0  0  0  0  0  0  0  0  0
   -4.6798   -3.3569   -0.6306 H   0  0  0  0  0  0  0  0  0  0  0  0
   -3.9383   -3.3806    1.0635 H   0  0  0  0  0  0  0  0  0  0  0  0
   -2.6454   -3.9233   -1.6358 H   0  0  0  0  0  0  0  0  0  0  0  0
   -2.4162   -4.7761   -0.0621 H   0  0  0  0  0  0  0  0  0  0  0  0
   -0.7367   -3.3947    0.5200 H   0  0  0  0  0  0  0  0  0  0  0  0
   -0.9394   -2.5353   -1.1197 H   0  0  0  0  0  0  0  0  0  0  0  0
   -3.2833    5.3422   -0.5578 H   0  0  0  0  0  0  0  0  0  0  0  0
   -5.6873    5.4991   -0.3780 H   0  0  0  0  0  0  0  0  0  0  0  0
   -7.0176    3.4667    0.0722 H   0  0  0  0  0  0  0  0  0  0  0  0
   -5.8069    1.2795    0.3312 H   0  0  0  0  0  0  0  0  0  0  0  0
  1  2  1  0
  2  3  1  0
  3  4  1  0
  4  5  1  0
  5  6  1  0
  6  7  1  0
  7  8  2  0
  7  9  1  0
  9 10  2  0
 10 11  1  0
 11 12  2  0
 12 13  1  0
 13 14  1  0
 14 15  2  3
 13 16  1  0
 16 17  1  0
 17 18  1  0
 18 19  1  0
 19 20  1  0
 12 21  1  0
 21 22  2  0
 22 23  1  0
 23 24  1  0
 24 25  2  0
 23 26  1  0
 26 27  2  0
 27 28  1  0
 28 29  2  0
 14  9  1  0
 20 16  1  0
 29 22  1  0
 24 11  1  0
  1 30  1  0
  1 31  1  0
  1 32  1  0
  3 33  1  0
  3 34  1  0
  4 35  1  0
  4 36  1  0
  5 37  1  0
  5 38  1  0
  6 39  1  0
 10 40  1  0
 15 41  1  0
 16 42  1  0
 17 43  1  0
 17 44  1  0
 18 45  1  0
 18 46  1  0
 19 47  1  0
 19 48  1  0
 20 49  1  0
 20 50  1  0
 26 51  1  0
 27 52  1  0
 28 53  1  0
 29 54  1  0
M  END
>  <Ligand ID>  (1) 
LIG0004900

>  <Ligand>  (1) 
MLS-0437143.0001

>  <SMILES>  (1) 
COCCCNC(=O)c1cc2c(n(c1=N)C1CCCC1)nc1n(c2=O)cccc1

>  <CID>  (1) 
3151382.0

>  <ChEMBL ID>  (1) 
nan

>  <InChiKey>  (1) 
XNZCEUIXIZLUQA-UHFFFAOYSA-N

>  <InChi>  (1) 
InChI=1S/C21H25N5O3/c1-29-12-6-10-23-20(27)15-13-16-19(26(18(15)22)14-7-2-3-8-14)24-17-9-4-5-11-25(17)21(16)28/h4-5,9,11,13-14,22H,2-3,6-8,10,12H2,1H3,(H,23,27)

>  <IUPAC Name>  (1) 
7-cyclopentyl-6-imino-N-(3-methoxypropyl)-2-oxo-1,7,9-triazatricyclo[8.4.0.03,8]tetradeca-3(8),4,9,11,13-pentaene-5-carboxamide

$$$$
