
     RDKit          3D

205212  0  0  0  0  0  0  0  0999 V2000
   11.2327    0.8377    3.2616 N   0  0  0  0  0  0  0  0  0  0  0  0
   10.7990   -0.0548    2.2188 C   0  0  0  0  0  0  0  0  0  0  0  0
   10.6996    0.4843    1.0398 N   0  0  0  0  0  0  0  0  0  0  0  0
   10.4911   -1.4215    2.4424 N   0  0  0  0  0  0  0  0  0  0  0  0
   10.0470   -2.2929    1.3518 C   0  0  0  0  0  0  0  0  0  0  0  0
    8.6687   -1.8454    0.8700 C   0  0  0  0  0  0  0  0  0  0  0  0
    7.6513   -1.9366    1.9744 C   0  0  0  0  0  0  0  0  0  0  0  0
    6.3152   -1.4162    1.4908 C   0  0  2  0  0  0  0  0  0  0  0  0
    5.8634   -2.2079    0.3818 N   0  0  0  0  0  0  0  0  0  0  0  0
    4.5658   -2.7803    0.2442 C   0  0  0  0  0  0  0  0  0  0  0  0
    3.8072   -2.5301    1.2188 O   0  0  0  0  0  0  0  0  0  0  0  0
    4.0540   -3.5862   -0.8473 C   0  0  1  0  0  0  0  0  0  0  0  0
    2.6831   -4.0754   -0.5318 N   0  0  0  0  0  0  0  0  0  0  0  0
    2.3566   -5.4723   -0.6177 C   0  0  0  0  0  0  0  0  0  0  0  0
    3.3059   -6.1975   -0.9374 O   0  0  0  0  0  0  0  0  0  0  0  0
    1.0370   -6.0455   -0.3622 C   0  0  2  0  0  0  0  0  0  0  0  0
    0.4672   -6.8013   -1.5965 C   0  0  0  0  0  0  0  0  0  0  0  0
    1.3760   -7.9120   -1.9710 C   0  0  0  0  0  0  0  0  0  0  0  0
    2.3617   -7.8146   -2.9217 C   0  0  0  0  0  0  0  0  0  0  0  0
    3.1815   -8.8892   -3.1833 C   0  0  0  0  0  0  0  0  0  0  0  0
    3.0415  -10.0861   -2.5080 C   0  0  0  0  0  0  0  0  0  0  0  0
    2.0416  -10.1824   -1.5448 C   0  0  0  0  0  0  0  0  0  0  0  0
    1.1986   -9.1002   -1.2624 C   0  0  0  0  0  0  0  0  0  0  0  0
    3.8276  -11.1949   -2.7233 O   0  0  0  0  0  0  0  0  0  0  0  0
    0.0185   -5.0685    0.0233 N   0  0  0  0  0  0  0  0  0  0  0  0
   -1.0917   -5.4350    0.8651 C   0  0  0  0  0  0  0  0  0  0  0  0
   -1.1102   -6.6432    1.1523 O   0  0  0  0  0  0  0  0  0  0  0  0
   -2.1190   -4.5235    1.3601 C   0  0  2  0  0  0  0  0  0  0  0  0
   -2.5808   -4.9558    2.7658 C   0  0  0  0  0  0  0  0  0  0  0  0
   -3.6471   -6.0082    2.4107 C   0  0  0  0  0  0  0  0  0  0  0  0
   -4.4273   -5.1704    1.3844 C   0  0  0  0  0  0  0  0  0  0  0  0
   -3.4012   -4.5441    0.6239 N   0  0  0  0  0  0  0  0  0  0  0  0
   -3.4861   -3.9560   -0.6675 C   0  0  0  0  0  0  0  0  0  0  0  0
   -2.4000   -3.4702   -1.0561 O   0  0  0  0  0  0  0  0  0  0  0  0
   -4.6320   -3.8520   -1.5626 C   0  0  1  0  0  0  0  0  0  0  0  0
   -4.6613   -4.8563   -2.6837 C   0  0  0  0  0  0  0  0  0  0  0  0
   -5.5437   -5.9344   -2.1319 C   0  0  0  0  0  0  0  0  0  0  0  0
   -6.6059   -5.1364   -1.3739 C   0  0  0  0  0  0  0  0  0  0  0  0
   -5.9396   -3.9847   -0.9127 N   0  0  0  0  0  0  0  0  0  0  0  0
   -6.2587   -2.8960   -0.0177 C   0  0  0  0  0  0  0  0  0  0  0  0
   -5.3647   -2.0288   -0.0196 O   0  0  0  0  0  0  0  0  0  0  0  0
   -7.4490   -2.7673    0.8001 C   0  0  2  0  0  0  0  0  0  0  0  0
   -8.5987   -3.6578    0.5567 C   0  0  0  0  0  0  0  0  0  0  0  0
   -9.7431   -3.3414    1.4843 C   0  0  0  0  0  0  0  0  0  0  0  0
   -9.8360   -3.9227    2.7480 C   0  0  0  0  0  0  0  0  0  0  0  0
  -10.8876   -3.6163    3.5848 C   0  0  0  0  0  0  0  0  0  0  0  0
  -11.8453   -2.7289    3.1542 C   0  0  0  0  0  0  0  0  0  0  0  0
  -11.7632   -2.1541    1.9153 C   0  0  0  0  0  0  0  0  0  0  0  0
  -10.7231   -2.4331    1.0396 C   0  0  0  0  0  0  0  0  0  0  0  0
  -12.8830   -2.4573    4.0288 O   0  0  0  0  0  0  0  0  0  0  0  0
   -7.7822   -1.4734    1.3542 N   0  0  0  0  0  0  0  0  0  0  0  0
   -7.4393   -0.2065    0.9097 C   0  0  0  0  0  0  0  0  0  0  0  0
   -6.8577   -0.1207   -0.1969 O   0  0  0  0  0  0  0  0  0  0  0  0
   -7.6779    1.1167    1.5794 C   0  0  1  0  0  0  0  0  0  0  0  0
   -7.4103    2.1700    0.5654 N   0  0  0  0  0  0  0  0  0  0  0  0
   -6.0851    2.5215    0.2206 C   0  0  0  0  0  0  0  0  0  0  0  0
   -5.1889    1.8530    0.7571 O   0  0  0  0  0  0  0  0  0  0  0  0
   -5.7383    3.6305   -0.7457 C   0  0  1  0  0  0  0  0  0  0  0  0
   -4.3300    3.4990   -1.0952 N   0  0  0  0  0  0  0  0  0  0  0  0
   -3.2902    4.2430   -0.4664 C   0  0  0  0  0  0  0  0  0  0  0  0
   -3.6685    5.0798    0.3587 O   0  0  0  0  0  0  0  0  0  0  0  0
   -1.9089    3.9837   -0.8115 C   0  0  1  0  0  0  0  0  0  0  0  0
   -0.9544    4.7397   -0.0211 N   0  0  0  0  0  0  0  0  0  0  0  0
    0.4379    4.7965   -0.4157 C   0  0  0  0  0  0  0  0  0  0  0  0
    0.7095    4.1186   -1.4105 O   0  0  0  0  0  0  0  0  0  0  0  0
    1.3735    5.6174    0.3857 C   0  0  1  0  0  0  0  0  0  0  0  0
    2.7795    5.2757    0.1736 N   0  0  0  0  0  0  0  0  0  0  0  0
    3.6208    5.3318    1.3099 C   0  0  0  0  0  0  0  0  0  0  0  0
    3.0392    5.7896    2.3600 O   0  0  0  0  0  0  0  0  0  0  0  0
    5.0114    4.9707    1.4679 C   0  0  1  0  0  0  0  0  0  0  0  0
    5.6460    4.2972    0.3195 N   0  0  0  0  0  0  0  0  0  0  0  0
    5.7405    2.9010    0.3245 C   0  0  0  0  0  0  0  0  0  0  0  0
    5.1037    2.3816    1.3259 O   0  0  0  0  0  0  0  0  0  0  0  0
    6.3877    1.9501   -0.5486 C   0  0  1  0  0  0  0  0  0  0  0  0
    6.0511    0.5535   -0.1465 N   0  0  0  0  0  0  0  0  0  0  0  0
    6.5514    0.0221    1.0845 C   0  0  0  0  0  0  0  0  0  0  0  0
    7.1786    0.8197    1.7910 O   0  0  0  0  0  0  0  0  0  0  0  0
    6.5562    2.0996   -1.9786 C   0  0  0  0  0  0  0  0  0  0  0  0
    7.3541    3.2102   -2.5128 C   0  0  0  0  0  0  0  0  0  0  0  0
    6.8994    4.4270   -2.9413 C   0  0  0  0  0  0  0  0  0  0  0  0
    7.7826    5.4017   -3.4358 C   0  0  0  0  0  0  0  0  0  0  0  0
    9.1406    5.1252   -3.4913 C   0  0  0  0  0  0  0  0  0  0  0  0
    9.6218    3.9068   -3.0662 C   0  0  0  0  0  0  0  0  0  0  0  0
    8.7360    2.9819   -2.5910 C   0  0  0  0  0  0  0  0  0  0  0  0
    5.8866    6.2054    1.6874 C   0  0  0  0  0  0  0  0  0  0  0  0
    5.4960    6.9812    2.8802 C   0  0  0  0  0  0  0  0  0  0  0  0
    5.9772    6.7637    4.1477 C   0  0  0  0  0  0  0  0  0  0  0  0
    5.5461    7.5580    5.2004 C   0  0  0  0  0  0  0  0  0  0  0  0
    4.6330    8.5846    5.0327 C   0  0  0  0  0  0  0  0  0  0  0  0
    4.1615    8.7920    3.7623 C   0  0  0  0  0  0  0  0  0  0  0  0
    4.5673    8.0231    2.6937 C   0  0  0  0  0  0  0  0  0  0  0  0
    1.1668    7.0633   -0.0939 C   0  0  0  0  0  0  0  0  0  0  0  0
    1.4620    7.1903   -1.5386 C   0  0  0  0  0  0  0  0  0  0  0  0
    1.7977    6.2786   -2.3028 O   0  0  0  0  0  0  0  0  0  0  0  0
    1.3453    8.5033   -2.0924 N   0  0  0  0  0  0  0  0  0  0  0  0
   -1.5739    2.4856   -0.7042 C   0  0  0  0  0  0  0  0  0  0  0  0
   -6.5772    3.5409   -1.9606 C   0  0  0  0  0  0  0  0  0  0  0  0
   -6.2511    4.6319   -2.9076 C   0  0  0  0  0  0  0  0  0  0  0  0
   -5.3126    4.5337   -3.9064 C   0  0  0  0  0  0  0  0  0  0  0  0
   -5.1034    5.6468   -4.7369 C   0  0  0  0  0  0  0  0  0  0  0  0
   -5.8421    6.8105   -4.5325 C   0  0  0  0  0  0  0  0  0  0  0  0
   -6.7896    6.9213   -3.5291 C   0  0  0  0  0  0  0  0  0  0  0  0
   -6.9785    5.8164   -2.7244 C   0  0  0  0  0  0  0  0  0  0  0  0
   -9.0484    1.3320    2.1148 C   0  0  2  0  0  0  0  0  0  0  0  0
   -9.1060    2.6825    2.6004 O   0  0  0  0  0  0  0  0  0  0  0  0
   -9.2683    0.5253    3.4073 C   0  0  0  0  0  0  0  0  0  0  0  0
    3.9988   -2.9202   -2.2084 C   0  0  2  0  0  0  0  0  0  0  0  0
    3.4885   -3.8726   -3.1441 O   0  0  0  0  0  0  0  0  0  0  0  0
    5.3931   -2.6087   -2.7104 C   0  0  0  0  0  0  0  0  0  0  0  0
   10.6268    1.0834    4.0864 H   0  0  0  0  0  0  0  0  0  0  0  0
   12.1846    1.2720    3.2092 H   0  0  0  0  0  0  0  0  0  0  0  0
   10.9115    1.4843    0.8503 H   0  0  0  0  0  0  0  0  0  0  0  0
   10.5858   -1.8072    3.4282 H   0  0  0  0  0  0  0  0  0  0  0  0
   10.7370   -2.1075    0.5075 H   0  0  0  0  0  0  0  0  0  0  0  0
   10.0977   -3.3511    1.6098 H   0  0  0  0  0  0  0  0  0  0  0  0
    8.7752   -0.8125    0.5050 H   0  0  0  0  0  0  0  0  0  0  0  0
    8.4333   -2.5700    0.0352 H   0  0  0  0  0  0  0  0  0  0  0  0
    7.9854   -1.3897    2.8884 H   0  0  0  0  0  0  0  0  0  0  0  0
    7.4894   -3.0277    2.2056 H   0  0  0  0  0  0  0  0  0  0  0  0
    5.5785   -1.3701    2.3276 H   0  0  0  0  0  0  0  0  0  0  0  0
    6.5050   -2.3982   -0.3748 H   0  0  0  0  0  0  0  0  0  0  0  0
    4.6637   -4.4922   -0.9815 H   0  0  0  0  0  0  0  0  0  0  0  0
    1.9249   -3.4696   -0.2434 H   0  0  0  0  0  0  0  0  0  0  0  0
    1.0506   -6.8839    0.3985 H   0  0  0  0  0  0  0  0  0  0  0  0
    0.4169   -6.0617   -2.4067 H   0  0  0  0  0  0  0  0  0  0  0  0
   -0.5150   -7.2076   -1.2985 H   0  0  0  0  0  0  0  0  0  0  0  0
    2.5005   -6.8801   -3.4806 H   0  0  0  0  0  0  0  0  0  0  0  0
    3.9797   -8.8534   -3.9238 H   0  0  0  0  0  0  0  0  0  0  0  0
    1.8764  -11.0885   -0.9771 H   0  0  0  0  0  0  0  0  0  0  0  0
    0.4225   -9.2052   -0.4993 H   0  0  0  0  0  0  0  0  0  0  0  0
    3.7373  -11.7532   -3.5542 H   0  0  0  0  0  0  0  0  0  0  0  0
    0.0316   -4.0905   -0.2582 H   0  0  0  0  0  0  0  0  0  0  0  0
   -1.8093   -3.4750    1.4629 H   0  0  0  0  0  0  0  0  0  0  0  0
   -1.8133   -5.4442    3.3492 H   0  0  0  0  0  0  0  0  0  0  0  0
   -3.1326   -4.1409    3.2617 H   0  0  0  0  0  0  0  0  0  0  0  0
   -3.2413   -6.9267    2.0083 H   0  0  0  0  0  0  0  0  0  0  0  0
   -4.3436   -6.2085    3.2082 H   0  0  0  0  0  0  0  0  0  0  0  0
   -4.9322   -4.3889    2.0301 H   0  0  0  0  0  0  0  0  0  0  0  0
   -5.1619   -5.7759    0.8719 H   0  0  0  0  0  0  0  0  0  0  0  0
   -4.6061   -2.8458   -2.1104 H   0  0  0  0  0  0  0  0  0  0  0  0
   -3.6655   -5.2381   -2.9432 H   0  0  0  0  0  0  0  0  0  0  0  0
   -5.1707   -4.4488   -3.5841 H   0  0  0  0  0  0  0  0  0  0  0  0
   -6.0140   -6.5465   -2.9250 H   0  0  0  0  0  0  0  0  0  0  0  0
   -5.0441   -6.5470   -1.3629 H   0  0  0  0  0  0  0  0  0  0  0  0
   -7.4130   -4.8774   -2.1036 H   0  0  0  0  0  0  0  0  0  0  0  0
   -7.0166   -5.8129   -0.5821 H   0  0  0  0  0  0  0  0  0  0  0  0
   -6.9837   -3.2569    1.8141 H   0  0  0  0  0  0  0  0  0  0  0  0
   -8.8900   -3.6637   -0.4989 H   0  0  0  0  0  0  0  0  0  0  0  0
   -8.3713   -4.7345    0.8387 H   0  0  0  0  0  0  0  0  0  0  0  0
   -9.0376   -4.6069    3.0157 H   0  0  0  0  0  0  0  0  0  0  0  0
  -10.8959   -4.1048    4.5445 H   0  0  0  0  0  0  0  0  0  0  0  0
  -12.5440   -1.4713    1.6220 H   0  0  0  0  0  0  0  0  0  0  0  0
  -10.6911   -1.9666    0.0820 H   0  0  0  0  0  0  0  0  0  0  0  0
  -12.8849   -1.6285    4.5795 H   0  0  0  0  0  0  0  0  0  0  0  0
   -8.3829   -1.5061    2.2044 H   0  0  0  0  0  0  0  0  0  0  0  0
   -6.9316    1.1578    2.4081 H   0  0  0  0  0  0  0  0  0  0  0  0
   -8.1440    2.6803    0.0766 H   0  0  0  0  0  0  0  0  0  0  0  0
   -5.9015    4.5601   -0.1434 H   0  0  0  0  0  0  0  0  0  0  0  0
   -4.0471    2.8589   -1.8294 H   0  0  0  0  0  0  0  0  0  0  0  0
   -1.6990    4.2024   -1.8758 H   0  0  0  0  0  0  0  0  0  0  0  0
   -1.1774    5.2594    0.8195 H   0  0  0  0  0  0  0  0  0  0  0  0
    1.1062    5.6149    1.4648 H   0  0  0  0  0  0  0  0  0  0  0  0
    3.2007    5.0057   -0.7038 H   0  0  0  0  0  0  0  0  0  0  0  0
    5.0676    4.2815    2.3632 H   0  0  0  0  0  0  0  0  0  0  0  0
    5.9914    4.8405   -0.4338 H   0  0  0  0  0  0  0  0  0  0  0  0
    7.4909    1.9740   -0.1154 H   0  0  0  0  0  0  0  0  0  0  0  0
    5.4704   -0.0620   -0.6906 H   0  0  0  0  0  0  0  0  0  0  0  0
    5.5553    2.1185   -2.5407 H   0  0  0  0  0  0  0  0  0  0  0  0
    7.0331    1.1490   -2.3934 H   0  0  0  0  0  0  0  0  0  0  0  0
    5.8363    4.5981   -2.8847 H   0  0  0  0  0  0  0  0  0  0  0  0
    7.3746    6.3682   -3.7735 H   0  0  0  0  0  0  0  0  0  0  0  0
    9.8356    5.8638   -3.8744 H   0  0  0  0  0  0  0  0  0  0  0  0
   10.6999    3.6707   -3.0959 H   0  0  0  0  0  0  0  0  0  0  0  0
    9.1534    2.0218   -2.2695 H   0  0  0  0  0  0  0  0  0  0  0  0
    6.9305    5.7839    1.7585 H   0  0  0  0  0  0  0  0  0  0  0  0
    5.9017    6.8227    0.7501 H   0  0  0  0  0  0  0  0  0  0  0  0
    6.6954    5.9607    4.2963 H   0  0  0  0  0  0  0  0  0  0  0  0
    5.9465    7.3727    6.2100 H   0  0  0  0  0  0  0  0  0  0  0  0
    4.3216    9.1940    5.8684 H   0  0  0  0  0  0  0  0  0  0  0  0
    3.4382    9.5848    3.5673 H   0  0  0  0  0  0  0  0  0  0  0  0
    4.1873    8.1993    1.6956 H   0  0  0  0  0  0  0  0  0  0  0  0
    1.8243    7.7243    0.5372 H   0  0  0  0  0  0  0  0  0  0  0  0
    0.1513    7.4257    0.0691 H   0  0  0  0  0  0  0  0  0  0  0  0
    2.2182    9.0777   -2.1382 H   0  0  0  0  0  0  0  0  0  0  0  0
    0.4484    8.8836   -2.4277 H   0  0  0  0  0  0  0  0  0  0  0  0
   -1.1789    2.2041    0.2835 H   0  0  0  0  0  0  0  0  0  0  0  0
   -2.5006    1.9387   -0.8929 H   0  0  0  0  0  0  0  0  0  0  0  0
   -0.8678    2.2680   -1.5282 H   0  0  0  0  0  0  0  0  0  0  0  0
   -7.6768    3.6031   -1.7039 H   0  0  0  0  0  0  0  0  0  0  0  0
   -6.4897    2.5431   -2.4574 H   0  0  0  0  0  0  0  0  0  0  0  0
   -4.7620    3.6166   -4.0351 H   0  0  0  0  0  0  0  0  0  0  0  0
   -4.3669    5.5949   -5.5390 H   0  0  0  0  0  0  0  0  0  0  0  0
   -5.7047    7.6891   -5.1518 H   0  0  0  0  0  0  0  0  0  0  0  0
   -7.3706    7.8102   -3.3492 H   0  0  0  0  0  0  0  0  0  0  0  0
   -7.7226    5.9156   -1.9430 H   0  0  0  0  0  0  0  0  0  0  0  0
   -9.8739    1.1987    1.4258 H   0  0  0  0  0  0  0  0  0  0  0  0
   -8.7816    2.7534    3.5196 H   0  0  0  0  0  0  0  0  0  0  0  0
   -8.2984    0.1588    3.8048 H   0  0  0  0  0  0  0  0  0  0  0  0
   -9.7130    1.2150    4.1951 H   0  0  0  0  0  0  0  0  0  0  0  0
  -10.0307   -0.2167    3.2223 H   0  0  0  0  0  0  0  0  0  0  0  0
    3.3491   -2.0631   -2.1836 H   0  0  0  0  0  0  0  0  0  0  0  0
    4.2336   -4.5496   -3.1951 H   0  0  0  0  0  0  0  0  0  0  0  0
    6.1317   -3.3829   -2.4360 H   0  0  0  0  0  0  0  0  0  0  0  0
    5.3881   -2.6935   -3.8615 H   0  0  0  0  0  0  0  0  0  0  0  0
    5.7509   -1.6193   -2.4324 H   0  0  0  0  0  0  0  0  0  0  0  0
  1  2  1  0
  2  3  2  3
  2  4  1  0
  4  5  1  0
  5  6  1  0
  6  7  1  0
  7  8  1  0
  8  9  1  0
  9 10  1  0
 10 11  2  0
 10 12  1  0
 12 13  1  0
 13 14  1  0
 14 15  2  0
 14 16  1  0
 16 17  1  0
 17 18  1  0
 18 19  2  0
 19 20  1  0
 20 21  2  0
 21 22  1  0
 22 23  2  0
 21 24  1  0
 16 25  1  0
 25 26  1  0
 26 27  2  0
 26 28  1  0
 28 29  1  0
 29 30  1  0
 30 31  1  0
 31 32  1  0
 32 33  1  0
 33 34  2  0
 33 35  1  0
 35 36  1  0
 36 37  1  0
 37 38  1  0
 38 39  1  0
 39 40  1  0
 40 41  2  0
 40 42  1  0
 42 43  1  0
 43 44  1  0
 44 45  2  0
 45 46  1  0
 46 47  2  0
 47 48  1  0
 48 49  2  0
 47 50  1  0
 42 51  1  0
 51 52  1  0
 52 53  2  0
 52 54  1  0
 54 55  1  0
 55 56  1  0
 56 57  2  0
 56 58  1  0
 58 59  1  0
 59 60  1  0
 60 61  2  0
 60 62  1  0
 62 63  1  0
 63 64  1  0
 64 65  2  0
 64 66  1  0
 66 67  1  0
 67 68  1  0
 68 69  2  0
 68 70  1  0
 70 71  1  0
 71 72  1  0
 72 73  2  0
 72 74  1  0
 74 75  1  0
 75 76  1  0
 76 77  2  0
 74 78  1  0
 78 79  1  0
 79 80  2  0
 80 81  1  0
 81 82  2  0
 82 83  1  0
 83 84  2  0
 70 85  1  0
 85 86  1  0
 86 87  2  0
 87 88  1  0
 88 89  2  0
 89 90  1  0
 90 91  2  0
 66 92  1  0
 92 93  1  0
 93 94  2  0
 93 95  1  0
 62 96  1  0
 58 97  1  0
 97 98  1  0
 98 99  2  0
 99100  1  0
100101  2  0
101102  1  0
102103  2  0
 54104  1  0
104105  1  0
104106  1  0
 12107  1  0
107108  1  0
107109  1  0
 76  8  1  0
 84 79  1  0
 91 86  1  0
103 98  1  0
 23 18  1  0
 32 28  1  0
 39 35  1  0
 49 44  1  0
  1110  1  0
  1111  1  0
  3112  1  0
  4113  1  0
  5114  1  0
  5115  1  0
  6116  1  0
  6117  1  0
  7118  1  0
  7119  1  0
  8120  1  1
  9121  1  0
 12122  1  6
 13123  1  0
 16124  1  1
 17125  1  0
 17126  1  0
 19127  1  0
 20128  1  0
 22129  1  0
 23130  1  0
 24131  1  0
 25132  1  0
 28133  1  1
 29134  1  0
 29135  1  0
 30136  1  0
 30137  1  0
 31138  1  0
 31139  1  0
 35140  1  6
 36141  1  0
 36142  1  0
 37143  1  0
 37144  1  0
 38145  1  0
 38146  1  0
 42147  1  1
 43148  1  0
 43149  1  0
 45150  1  0
 46151  1  0
 48152  1  0
 49153  1  0
 50154  1  0
 51155  1  0
 54156  1  1
 55157  1  0
 58158  1  1
 59159  1  0
 62160  1  6
 63161  1  0
 66162  1  1
 67163  1  0
 70164  1  1
 71165  1  0
 74166  1  1
 75167  1  0
 78168  1  0
 78169  1  0
 80170  1  0
 81171  1  0
 82172  1  0
 83173  1  0
 84174  1  0
 85175  1  0
 85176  1  0
 87177  1  0
 88178  1  0
 89179  1  0
 90180  1  0
 91181  1  0
 92182  1  0
 92183  1  0
 95184  1  0
 95185  1  0
 96186  1  0
 96187  1  0
 96188  1  0
 97189  1  0
 97190  1  0
 99191  1  0
100192  1  0
101193  1  0
102194  1  0
103195  1  0
104196  1  6
105197  1  0
106198  1  0
106199  1  0
106200  1  0
107201  1  1
108202  1  0
109203  1  0
109204  1  0
109205  1  0
M  END
>  <Ligand ID>  (1) 
LIG0005496

>  <Ligand>  (1) 
CHEMBL3577980

>  <SMILES>  (1) 
NC(=N)NCCC[C@@H]1NC(=O)[C@@H](NC(=O)[C@H](Cc2ccc(cc2)O)NC(=O)[C@@H]2CCCN2C(=O)[C@H]2CCCN2C(=O)[C@H](Cc2ccc(cc2)O)NC(=O)[C@@H](NC(=O)[C@@H](NC(=O)[C@@H](NC(=O)[C@@H](NC(=O)[C@@H](NC(=O)[C@@H](NC1=O)Cc1ccccc1)Cc1ccccc1)CC(=O)N)C)Cc1ccccc1)[C@H](O)C)[C@H](O)C

>  <CID>  (1) 
122178150.0

>  <ChEMBL ID>  (1) 
nan

>  <InChiKey>  (1) 
CMUIIIJAMAXXJO-IMSVJTHKSA-N

>  <InChi>  (1) 
InChI=1S/C76H96N16O17/c1-42-64(98)83-55(38-47-20-11-6-12-21-47)69(103)90-63(44(3)94)73(107)88-58(40-49-27-31-51(96)32-28-49)74(108)92-35-15-24-60(92)75(109)91-34-14-23-59(91)71(105)87-56(39-48-25-29-50(95)30-26-48)70(104)89-62(43(2)93)72(106)82-52(22-13-33-80-76(78)79)65(99)84-53(36-45-16-7-4-8-17-45)67(101)85-54(37-46-18-9-5-10-19-46)68(102)86-57(41-61(77)97)66(100)81-42/h4-12,16-21,25-32,42-44,52-60,62-63,93-96H,13-15,22-24,33-41H2,1-3H3,(H2,77,97)(H,81,100)(H,82,106)(H,83,98)(H,84,99)(H,85,101)(H,86,102)(H,87,105)(H,88,107)(H,89,104)(H,90,103)(H4,78,79,80)/t42-,43+,44+,52-,53-,54-,55-,56-,57-,58-,59-,60+,62-,63-/m0/s1

>  <IUPAC Name>  (1) 
2-[(3R,9S,12S,15S,18S,21S,24S,27S,30S,33S,36S,39S)-15,24,27-tribenzyl-30-(3-carbamimidamidopropyl)-12,33-bis[(1R)-1-hydroxyethyl]-9,36-bis[(4-hydroxyphenyl)methyl]-18-methyl-2,8,11,14,17,20,23,26,29,32,35,38-dodecaoxo-1,7,10,13,16,19,22,25,28,31,34,37-dodecazatricyclo[37.3.0.03,7]dotetracontan-21-yl]acetamide

$$$$
