
     RDKit          3D

 20 20  0  0  0  0  0  0  0  0999 V2000
    4.1446   -0.8142    0.2690 O   0  0  0  0  0  0  0  0  0  0  0  0
    3.6102    0.4571    0.1995 C   0  0  0  0  0  0  0  0  0  0  0  0
    4.4145    1.4197    0.1689 O   0  0  0  0  0  0  0  0  0  0  0  0
    2.1718    0.6832    0.1626 C   0  0  0  0  0  0  0  0  0  0  0  0
    1.3366   -0.3354    0.1952 C   0  0  0  0  0  0  0  0  0  0  0  0
   -0.1086   -0.2060    0.1628 C   0  0  0  0  0  0  0  0  0  0  0  0
   -0.7642    1.0053    0.0942 C   0  0  0  0  0  0  0  0  0  0  0  0
   -2.1556    1.0932    0.0646 C   0  0  0  0  0  0  0  0  0  0  0  0
   -2.9359   -0.0353    0.1031 C   0  0  0  0  0  0  0  0  0  0  0  0
   -2.2935   -1.2533    0.1718 C   0  0  0  0  0  0  0  0  0  0  0  0
   -0.9033   -1.3358    0.2011 C   0  0  0  0  0  0  0  0  0  0  0  0
   -4.3131    0.0999    0.0716 O   0  0  0  0  0  0  0  0  0  0  0  0
    5.1283   -0.9522    0.0579 H   0  0  0  0  0  0  0  0  0  0  0  0
    1.7974    1.6930    0.1084 H   0  0  0  0  0  0  0  0  0  0  0  0
    1.7790   -1.3215    0.2496 H   0  0  0  0  0  0  0  0  0  0  0  0
   -0.2099    1.9313    0.0610 H   0  0  0  0  0  0  0  0  0  0  0  0
   -2.6177    2.0891    0.0096 H   0  0  0  0  0  0  0  0  0  0  0  0
   -2.9130   -2.1471    0.2022 H   0  0  0  0  0  0  0  0  0  0  0  0
   -0.4204   -2.3013    0.2551 H   0  0  0  0  0  0  0  0  0  0  0  0
   -4.7474    0.2302   -0.8448 H   0  0  0  0  0  0  0  0  0  0  0  0
  1  2  1  0
  2  3  2  0
  2  4  1  0
  4  5  2  0
  5  6  1  0
  6  7  2  0
  7  8  1  0
  8  9  2  0
  9 10  1  0
 10 11  2  0
  9 12  1  0
 11  6  1  0
  1 13  1  0
  4 14  1  0
  5 15  1  0
  7 16  1  0
  8 17  1  0
 10 18  1  0
 11 19  1  0
 12 20  1  0
M  END
>  <Ligand ID>  (1) 
LIG0002035

>  <Ligand>  (1) 
para-coumaric acid

>  <SMILES>  (1) 
OC(=O)/C=C/c1ccc(cc1)O

>  <CID>  (1) 
637542.0

>  <ChEMBL ID>  (1) 
nan

>  <InChiKey>  (1) 
NGSWKAQJJWESNS-ZZXKWVIFSA-N

>  <InChi>  (1) 
InChI=1S/C9H8O3/c10-8-4-1-7(2-5-8)3-6-9(11)12/h1-6,10H,(H,11,12)/b6-3+

>  <IUPAC Name>  (1) 
(E)-3-(4-hydroxyphenyl)prop-2-enoic acid

$$$$
