
     RDKit          3D

160163  0  0  0  0  0  0  0  0999 V2000
  -10.6972    5.4406   -0.8877 C   0  0  0  0  0  0  0  0  0  0  0  0
  -10.9564    4.2446   -0.0804 N   0  0  0  0  0  0  0  0  0  0  0  0
  -10.7073    4.3412    1.1824 C   0  0  0  0  0  0  0  0  0  0  0  0
  -10.9480    3.2108    1.9789 N   0  0  0  0  0  0  0  0  0  0  0  0
  -11.0478    1.8585    1.5823 C   0  0  0  0  0  0  0  0  0  0  0  0
   -9.7734    1.1751    1.1539 C   0  0  0  0  0  0  0  0  0  0  0  0
   -8.7452    1.1976    2.2401 C   0  0  0  0  0  0  0  0  0  0  0  0
   -7.5149    0.3767    1.8100 C   0  0  1  0  0  0  0  0  0  0  0  0
   -7.9963   -0.9736    1.5896 C   0  0  0  0  0  0  0  0  0  0  0  0
   -8.4857   -1.6001    2.5912 O   0  0  0  0  0  0  0  0  0  0  0  0
   -7.9902   -1.6845    0.3617 N   0  0  0  0  0  0  0  0  0  0  0  0
   -8.5311   -3.0741    0.2793 C   0  0  2  0  0  0  0  0  0  0  0  0
   -7.7912   -3.8842   -0.6521 C   0  0  0  0  0  0  0  0  0  0  0  0
   -7.8770   -5.1245   -0.8387 O   0  0  0  0  0  0  0  0  0  0  0  0
   -6.8133   -3.2248   -1.5007 N   0  0  0  0  0  0  0  0  0  0  0  0
   -9.9883   -2.9292   -0.1217 C   0  0  0  0  0  0  0  0  0  0  0  0
  -10.6582   -4.1998   -0.2809 C   0  0  0  0  0  0  0  0  0  0  0  0
  -11.3279   -4.8748    0.7413 C   0  0  0  0  0  0  0  0  0  0  0  0
  -11.8113   -6.0391    0.2996 N   0  0  0  0  0  0  0  0  0  0  0  0
  -11.4865   -6.1735   -1.0055 C   0  0  0  0  0  0  0  0  0  0  0  0
  -10.7792   -5.0508   -1.3724 C   0  0  0  0  0  0  0  0  0  0  0  0
  -10.3560   -4.9448   -2.6751 C   0  0  0  0  0  0  0  0  0  0  0  0
  -10.6368   -5.9424   -3.5729 C   0  0  0  0  0  0  0  0  0  0  0  0
  -11.3428   -7.0915   -3.2463 C   0  0  0  0  0  0  0  0  0  0  0  0
  -11.7613   -7.1735   -1.9243 C   0  0  0  0  0  0  0  0  0  0  0  0
   -6.7881    0.9487    0.7342 N   0  0  0  0  0  0  0  0  0  0  0  0
   -6.6198    2.2930    0.3943 C   0  0  0  0  0  0  0  0  0  0  0  0
   -7.1688    3.2416    1.0022 O   0  0  0  0  0  0  0  0  0  0  0  0
   -5.7259    2.6206   -0.7586 C   0  0  1  0  0  0  0  0  0  0  0  0
   -4.7822    1.5272   -1.0220 N   0  0  0  0  0  0  0  0  0  0  0  0
   -3.6168    1.5189   -0.2520 C   0  0  0  0  0  0  0  0  0  0  0  0
   -3.5372    2.4539    0.6311 O   0  0  0  0  0  0  0  0  0  0  0  0
   -2.5228    0.6386   -0.3063 N   0  0  0  0  0  0  0  0  0  0  0  0
   -1.4976    0.8172    0.5944 N   0  0  0  0  0  0  0  0  0  0  0  0
   -0.1837    0.2775    0.5758 C   0  0  0  0  0  0  0  0  0  0  0  0
    0.1083   -0.4754   -0.3771 O   0  0  0  0  0  0  0  0  0  0  0  0
    0.6841    0.6698    1.6784 C   0  0  1  0  0  0  0  0  0  0  0  0
    2.0490    0.2587    1.5834 N   0  0  0  0  0  0  0  0  0  0  0  0
    2.6241   -0.4593    2.6444 C   0  0  0  0  0  0  0  0  0  0  0  0
    1.8905   -0.7680    3.6574 O   0  0  0  0  0  0  0  0  0  0  0  0
    4.0253   -0.9066    2.7426 C   0  0  2  0  0  0  0  0  0  0  0  0
    4.6595   -0.1291    3.9476 C   0  0  2  0  0  0  0  0  0  0  0  0
    4.5892    1.2166    3.7157 O   0  0  0  0  0  0  0  0  0  0  0  0
    5.9917   -0.6684    4.3309 C   0  0  0  0  0  0  0  0  0  0  0  0
    4.7879   -0.5444    1.5824 N   0  0  0  0  0  0  0  0  0  0  0  0
    5.9183   -1.3137    1.1970 C   0  0  0  0  0  0  0  0  0  0  0  0
    6.2853   -2.3474    1.8840 O   0  0  0  0  0  0  0  0  0  0  0  0
    6.7764   -1.0368    0.0247 C   0  0  1  0  0  0  0  0  0  0  0  0
    7.9920   -1.8545    0.1491 N   0  0  0  0  0  0  0  0  0  0  0  0
    9.2114   -1.1671   -0.1782 C   0  0  0  0  0  0  0  0  0  0  0  0
    9.2350    0.0046   -0.5680 O   0  0  0  0  0  0  0  0  0  0  0  0
   10.5213   -1.8696   -0.0457 C   0  0  0  0  0  0  0  0  0  0  0  0
   11.6184   -0.9854   -0.4840 N   0  0  0  0  0  0  0  0  0  0  0  0
   12.9653   -1.5025   -0.3339 C   0  0  0  0  0  0  0  0  0  0  0  0
   13.1048   -2.6274    0.1547 O   0  0  0  0  0  0  0  0  0  0  0  0
   14.0449   -0.5959   -0.7918 C   0  0  1  0  0  0  0  0  0  0  0  0
   15.1458   -1.2822   -1.5564 C   0  0  0  0  0  0  0  0  0  0  0  0
   15.8575   -2.3181   -0.7677 C   0  0  0  0  0  0  0  0  0  0  0  0
   16.9141   -1.8424    0.0237 C   0  0  0  0  0  0  0  0  0  0  0  0
   17.6605   -2.7336    0.7968 C   0  0  0  0  0  0  0  0  0  0  0  0
   17.3528   -4.0896    0.7785 C   0  0  0  0  0  0  0  0  0  0  0  0
   16.3025   -4.5283   -0.0154 C   0  0  0  0  0  0  0  0  0  0  0  0
   15.5494   -3.6583   -0.7907 C   0  0  0  0  0  0  0  0  0  0  0  0
   18.1082   -4.9818    1.5610 O   0  0  0  0  0  0  0  0  0  0  0  0
   13.4897    0.5587   -1.4635 N   0  0  0  0  0  0  0  0  0  0  0  0
   13.5173    1.8765   -0.9314 C   0  0  0  0  0  0  0  0  0  0  0  0
   14.0896    1.9810    0.2126 O   0  0  0  0  0  0  0  0  0  0  0  0
   12.9463    3.0557   -1.6124 C   0  0  0  0  0  0  0  0  0  0  0  0
    6.0683   -1.2828   -1.2875 C   0  0  0  0  0  0  0  0  0  0  0  0
    5.5915   -2.6653   -1.4872 C   0  0  0  0  0  0  0  0  0  0  0  0
    5.1000   -2.9306   -2.6242 O   0  0  0  0  0  0  0  0  0  0  0  0
    5.6291   -3.7005   -0.5516 N   0  0  0  0  0  0  0  0  0  0  0  0
    0.5984    2.1523    2.0386 C   0  0  0  0  0  0  0  0  0  0  0  0
    0.9561    3.0680    0.9601 C   0  0  0  0  0  0  0  0  0  0  0  0
    2.3317    3.3770    0.8307 C   0  0  0  0  0  0  0  0  0  0  0  0
    2.7499    4.2535   -0.1696 C   0  0  0  0  0  0  0  0  0  0  0  0
    1.8413    4.8411   -1.0587 C   0  0  0  0  0  0  0  0  0  0  0  0
    0.5319    4.4923   -0.8703 C   0  0  0  0  0  0  0  0  0  0  0  0
    0.0557    3.6467    0.0825 C   0  0  0  0  0  0  0  0  0  0  0  0
   -0.3777    5.0423   -1.7294 F   0  0  0  0  0  0  0  0  0  0  0  0
   -6.3739    3.0499   -2.0014 C   0  0  0  0  0  0  0  0  0  0  0  0
   -7.1905    4.2969   -1.9073 C   0  0  0  0  0  0  0  0  0  0  0  0
   -6.3798    5.4982   -1.4807 C   0  0  0  0  0  0  0  0  0  0  0  0
   -7.8548    4.6434   -3.2244 C   0  0  0  0  0  0  0  0  0  0  0  0
  -10.2040    5.5591    1.7691 N   0  0  0  0  0  0  0  0  0  0  0  0
  -11.3321    6.2901   -0.4737 H   0  0  0  0  0  0  0  0  0  0  0  0
  -10.9359    5.2789   -1.9439 H   0  0  0  0  0  0  0  0  0  0  0  0
   -9.6690    5.8129   -0.7673 H   0  0  0  0  0  0  0  0  0  0  0  0
  -11.0682    3.4182    3.0291 H   0  0  0  0  0  0  0  0  0  0  0  0
  -11.4535    1.2299    2.4392 H   0  0  0  0  0  0  0  0  0  0  0  0
  -11.8287    1.7833    0.7781 H   0  0  0  0  0  0  0  0  0  0  0  0
  -10.0756    0.1250    0.9206 H   0  0  0  0  0  0  0  0  0  0  0  0
   -9.3814    1.6847    0.2745 H   0  0  0  0  0  0  0  0  0  0  0  0
   -9.1658    0.6635    3.1472 H   0  0  0  0  0  0  0  0  0  0  0  0
   -8.4837    2.2008    2.5960 H   0  0  0  0  0  0  0  0  0  0  0  0
   -6.8499    0.4840    2.7382 H   0  0  0  0  0  0  0  0  0  0  0  0
   -7.6003   -1.2123   -0.4683 H   0  0  0  0  0  0  0  0  0  0  0  0
   -8.4872   -3.4104    1.3647 H   0  0  0  0  0  0  0  0  0  0  0  0
   -5.7880   -3.3573   -1.3477 H   0  0  0  0  0  0  0  0  0  0  0  0
   -7.1464   -2.6089   -2.2786 H   0  0  0  0  0  0  0  0  0  0  0  0
  -10.4694   -2.3131    0.7036 H   0  0  0  0  0  0  0  0  0  0  0  0
  -10.0910   -2.2888   -1.0279 H   0  0  0  0  0  0  0  0  0  0  0  0
  -11.4535   -4.5307    1.7707 H   0  0  0  0  0  0  0  0  0  0  0  0
  -12.3547   -6.7878    0.7981 H   0  0  0  0  0  0  0  0  0  0  0  0
   -9.8007   -4.0493   -2.9499 H   0  0  0  0  0  0  0  0  0  0  0  0
  -10.3046   -5.8688   -4.6111 H   0  0  0  0  0  0  0  0  0  0  0  0
  -11.5530   -7.8674   -3.9604 H   0  0  0  0  0  0  0  0  0  0  0  0
  -12.3140   -8.0734   -1.6683 H   0  0  0  0  0  0  0  0  0  0  0  0
   -6.3007    0.2469    0.0915 H   0  0  0  0  0  0  0  0  0  0  0  0
   -5.1152    3.4953   -0.3459 H   0  0  0  0  0  0  0  0  0  0  0  0
   -4.9045    0.7845   -1.7242 H   0  0  0  0  0  0  0  0  0  0  0  0
   -2.5639   -0.1082   -1.0557 H   0  0  0  0  0  0  0  0  0  0  0  0
   -1.7080    1.4299    1.4435 H   0  0  0  0  0  0  0  0  0  0  0  0
    0.2621    0.1749    2.6226 H   0  0  0  0  0  0  0  0  0  0  0  0
    2.6156    0.4919    0.7401 H   0  0  0  0  0  0  0  0  0  0  0  0
    4.1744   -1.9524    2.9762 H   0  0  0  0  0  0  0  0  0  0  0  0
    3.9536   -0.3595    4.7961 H   0  0  0  0  0  0  0  0  0  0  0  0
    5.3812    1.5534    3.2313 H   0  0  0  0  0  0  0  0  0  0  0  0
    6.3288   -0.2363    5.3247 H   0  0  0  0  0  0  0  0  0  0  0  0
    6.7420   -0.3048    3.6140 H   0  0  0  0  0  0  0  0  0  0  0  0
    5.9712   -1.7524    4.5050 H   0  0  0  0  0  0  0  0  0  0  0  0
    4.5762    0.2789    0.9658 H   0  0  0  0  0  0  0  0  0  0  0  0
    7.1142    0.0142   -0.0047 H   0  0  0  0  0  0  0  0  0  0  0  0
    7.9687   -2.8498    0.4576 H   0  0  0  0  0  0  0  0  0  0  0  0
   10.7097   -2.2340    0.9769 H   0  0  0  0  0  0  0  0  0  0  0  0
   10.5175   -2.7271   -0.7291 H   0  0  0  0  0  0  0  0  0  0  0  0
   11.4501   -0.0450   -0.8830 H   0  0  0  0  0  0  0  0  0  0  0  0
   14.5195   -0.2288    0.1830 H   0  0  0  0  0  0  0  0  0  0  0  0
   15.8900   -0.5217   -1.8897 H   0  0  0  0  0  0  0  0  0  0  0  0
   14.7573   -1.7263   -2.5034 H   0  0  0  0  0  0  0  0  0  0  0  0
   17.1778   -0.8004    0.0556 H   0  0  0  0  0  0  0  0  0  0  0  0
   18.4755   -2.4452    1.4197 H   0  0  0  0  0  0  0  0  0  0  0  0
   16.1150   -5.6008    0.0189 H   0  0  0  0  0  0  0  0  0  0  0  0
   14.7546   -4.0490   -1.3978 H   0  0  0  0  0  0  0  0  0  0  0  0
   18.1162   -4.8532    2.5852 H   0  0  0  0  0  0  0  0  0  0  0  0
   13.0360    0.4504   -2.3981 H   0  0  0  0  0  0  0  0  0  0  0  0
   13.7341    3.6662   -2.1198 H   0  0  0  0  0  0  0  0  0  0  0  0
   12.1613    2.7573   -2.3237 H   0  0  0  0  0  0  0  0  0  0  0  0
   12.4661    3.6958   -0.8231 H   0  0  0  0  0  0  0  0  0  0  0  0
    5.1227   -0.6583   -1.2348 H   0  0  0  0  0  0  0  0  0  0  0  0
    6.6263   -0.8511   -2.1275 H   0  0  0  0  0  0  0  0  0  0  0  0
    6.3847   -4.4042   -0.4299 H   0  0  0  0  0  0  0  0  0  0  0  0
    4.7977   -3.7773    0.1070 H   0  0  0  0  0  0  0  0  0  0  0  0
   -0.3489    2.3286    2.5399 H   0  0  0  0  0  0  0  0  0  0  0  0
    1.3716    2.2637    2.8608 H   0  0  0  0  0  0  0  0  0  0  0  0
    3.0592    2.9385    1.5093 H   0  0  0  0  0  0  0  0  0  0  0  0
    3.8272    4.4838   -0.2588 H   0  0  0  0  0  0  0  0  0  0  0  0
    2.1569    5.5232   -1.8420 H   0  0  0  0  0  0  0  0  0  0  0  0
   -0.9823    3.4543    0.1424 H   0  0  0  0  0  0  0  0  0  0  0  0
   -6.9891    2.2607   -2.4991 H   0  0  0  0  0  0  0  0  0  0  0  0
   -5.5512    3.2389   -2.7589 H   0  0  0  0  0  0  0  0  0  0  0  0
   -7.9987    4.1556   -1.1462 H   0  0  0  0  0  0  0  0  0  0  0  0
   -6.0268    5.4214   -0.4354 H   0  0  0  0  0  0  0  0  0  0  0  0
   -7.0322    6.3918   -1.5473 H   0  0  0  0  0  0  0  0  0  0  0  0
   -5.5428    5.6625   -2.2105 H   0  0  0  0  0  0  0  0  0  0  0  0
   -8.7854    5.1993   -2.9967 H   0  0  0  0  0  0  0  0  0  0  0  0
   -8.1405    3.7334   -3.7953 H   0  0  0  0  0  0  0  0  0  0  0  0
   -7.2174    5.3235   -3.8106 H   0  0  0  0  0  0  0  0  0  0  0  0
   -9.2545    5.6202    2.1984 H   0  0  0  0  0  0  0  0  0  0  0  0
  -10.8699    6.3691    1.7261 H   0  0  0  0  0  0  0  0  0  0  0  0
  1  2  1  0
  2  3  2  3
  3  4  1  0
  4  5  1  0
  5  6  1  0
  6  7  1  0
  7  8  1  0
  8  9  1  0
  9 10  2  0
  9 11  1  0
 11 12  1  0
 12 13  1  0
 13 14  2  0
 13 15  1  0
 12 16  1  0
 16 17  1  0
 17 18  2  0
 18 19  1  0
 19 20  1  0
 20 21  2  0
 21 22  1  0
 22 23  2  0
 23 24  1  0
 24 25  2  0
  8 26  1  0
 26 27  1  0
 27 28  2  0
 27 29  1  0
 29 30  1  0
 30 31  1  0
 31 32  2  0
 31 33  1  0
 33 34  1  0
 34 35  1  0
 35 36  2  0
 35 37  1  0
 37 38  1  0
 38 39  1  0
 39 40  2  0
 39 41  1  0
 41 42  1  0
 42 43  1  0
 42 44  1  0
 41 45  1  0
 45 46  1  0
 46 47  2  0
 46 48  1  0
 48 49  1  0
 49 50  1  0
 50 51  2  0
 50 52  1  0
 52 53  1  0
 53 54  1  0
 54 55  2  0
 54 56  1  0
 56 57  1  0
 57 58  1  0
 58 59  2  0
 59 60  1  0
 60 61  2  0
 61 62  1  0
 62 63  2  0
 61 64  1  0
 56 65  1  0
 65 66  1  0
 66 67  2  0
 66 68  1  0
 48 69  1  0
 69 70  1  0
 70 71  2  0
 70 72  1  0
 37 73  1  0
 73 74  1  0
 74 75  2  0
 75 76  1  0
 76 77  2  0
 77 78  1  0
 78 79  2  0
 78 80  1  0
 29 81  1  0
 81 82  1  0
 82 83  1  0
 82 84  1  0
  3 85  1  0
 21 17  1  0
 63 58  1  0
 79 74  1  0
 25 20  1  0
  1 86  1  0
  1 87  1  0
  1 88  1  0
  4 89  1  0
  5 90  1  0
  5 91  1  0
  6 92  1  0
  6 93  1  0
  7 94  1  0
  7 95  1  0
  8 96  1  1
 11 97  1  0
 12 98  1  1
 15 99  1  0
 15100  1  0
 16101  1  0
 16102  1  0
 18103  1  0
 19104  1  0
 22105  1  0
 23106  1  0
 24107  1  0
 25108  1  0
 26109  1  0
 29110  1  1
 30111  1  0
 33112  1  0
 34113  1  0
 37114  1  1
 38115  1  0
 41116  1  1
 42117  1  1
 43118  1  0
 44119  1  0
 44120  1  0
 44121  1  0
 45122  1  0
 48123  1  6
 49124  1  0
 52125  1  0
 52126  1  0
 53127  1  0
 56128  1  1
 57129  1  0
 57130  1  0
 59131  1  0
 60132  1  0
 62133  1  0
 63134  1  0
 64135  1  0
 65136  1  0
 68137  1  0
 68138  1  0
 68139  1  0
 69140  1  0
 69141  1  0
 72142  1  0
 72143  1  0
 73144  1  0
 73145  1  0
 75146  1  0
 76147  1  0
 77148  1  0
 79149  1  0
 81150  1  0
 81151  1  0
 82152  1  0
 83153  1  0
 83154  1  0
 83155  1  0
 84156  1  0
 84157  1  0
 84158  1  0
 85159  1  0
 85160  1  0
M  END
>  <Ligand ID>  (1) 
LIG0005336

>  <Ligand>  (1) 
CHEMBL3939287

>  <SMILES>  (1) 
CN=C(NCCC[C@@H](C(=O)N[C@H](C(=O)N)Cc1c[nH]c2c1cccc2)NC(=O)[C@@H](NC(=O)NNC(=O)[C@@H](NC(=O)[C@H]([C@H](O)C)NC(=O)[C@@H](NC(=O)CNC(=O)[C@@H](Cc1ccc(cc1)O)NC(=O)C)CC(=O)N)Cc1cccc(c1)F)CC(C)C)N

>  <CID>  (1) 
24996809.0

>  <ChEMBL ID>  (1) 
nan

>  <InChiKey>  (1) 
CBKRDOZYQFTTHR-QIDZUKDQSA-N

>  <InChi>  (1) 
InChI=1S/C55H75FN16O13/c1-28(2)20-40(50(81)66-38(14-9-19-61-54(59)60-5)49(80)67-39(47(58)78)24-33-26-62-37-13-7-6-12-36(33)37)69-55(85)72-71-52(83)42(23-32-10-8-11-34(56)21-32)68-53(84)46(29(3)73)70-51(82)43(25-44(57)76)65-45(77)27-63-48(79)41(64-30(4)74)22-31-15-17-35(75)18-16-31/h6-8,10-13,15-18,21,26,28-29,38-43,46,62,73,75H,9,14,19-20,22-25,27H2,1-5H3,(H2,57,76)(H2,58,78)(H,63,79)(H,64,74)(H,65,77)(H,66,81)(H,67,80)(H,68,84)(H,70,82)(H,71,83)(H3,59,60,61)(H2,69,72,85)/t29-,38+,39+,40+,41-,42+,43+,46+/m1/s1

>  <IUPAC Name>  (1) 
(2S)-2-[[2-[[(2R)-2-acetamido-3-(4-hydroxyphenyl)propanoyl]amino]acetyl]amino]-N-[(2S,3R)-1-[[(2S)-1-[2-[[(2S)-1-[[(2S)-1-[[(2S)-1-amino-3-(1H-indol-3-yl)-1-oxopropan-2-yl]amino]-5-[(N'-methylcarbamimidoyl)amino]-1-oxopentan-2-yl]amino]-4-methyl-1-oxopentan-2-yl]carbamoyl]hydrazinyl]-3-(3-fluorophenyl)-1-oxopropan-2-yl]amino]-3-hydroxy-1-oxobutan-2-yl]butanediamide

$$$$
