
     RDKit          3D

 61 64  0  0  0  0  0  0  0  0999 V2000
   -7.6809    1.8654    0.0379 C   0  0  0  0  0  0  0  0  0  0  0  0
   -6.5614    1.2602    0.6419 O   0  0  0  0  0  0  0  0  0  0  0  0
   -5.3924    1.9950    0.7392 C   0  0  0  0  0  0  0  0  0  0  0  0
   -5.3504    3.2947    0.2458 C   0  0  0  0  0  0  0  0  0  0  0  0
   -4.1583    3.9818    0.3693 C   0  0  0  0  0  0  0  0  0  0  0  0
   -3.0348    3.4049    0.9637 C   0  0  0  0  0  0  0  0  0  0  0  0
   -3.0981    2.1159    1.4458 C   0  0  0  0  0  0  0  0  0  0  0  0
   -4.2913    1.4158    1.3271 C   0  0  0  0  0  0  0  0  0  0  0  0
   -1.9607    1.4178    2.0885 C   0  0  0  0  0  0  0  0  0  0  0  0
   -1.1370    0.6245    1.1665 C   0  0  0  0  0  0  0  0  0  0  0  0
   -1.2712   -0.7647    1.1432 C   0  0  0  0  0  0  0  0  0  0  0  0
   -0.5262   -1.5603    0.2973 C   0  0  0  0  0  0  0  0  0  0  0  0
    0.3662   -0.9711   -0.5392 N   0  0  0  0  0  0  0  0  0  0  0  0
    0.5192    0.3584   -0.5417 N   0  0  0  0  0  0  0  0  0  0  0  0
   -0.2126    1.1497    0.2903 C   0  0  0  0  0  0  0  0  0  0  0  0
   -0.0355    2.3736    0.2516 O   0  0  0  0  0  0  0  0  0  0  0  0
    1.4694    0.9994   -1.4302 C   0  0  0  0  0  0  0  0  0  0  0  0
    2.8142    1.1182   -0.7634 C   0  0  0  0  0  0  0  0  0  0  0  0
    2.9266    0.6614    0.4232 O   0  0  0  0  0  0  0  0  0  0  0  0
    3.8821    1.7161   -1.4546 N   0  0  0  0  0  0  0  0  0  0  0  0
    5.1405    1.7954   -0.7531 C   0  0  0  0  0  0  0  0  0  0  0  0
    5.4640    2.8792    0.0307 C   0  0  0  0  0  0  0  0  0  0  0  0
    6.6788    2.9591    0.7100 C   0  0  0  0  0  0  0  0  0  0  0  0
    7.5703    1.8922    0.5700 C   0  0  0  0  0  0  0  0  0  0  0  0
    7.2344    0.7935   -0.2286 C   0  0  0  0  0  0  0  0  0  0  0  0
    6.0257    0.7272   -0.8972 C   0  0  0  0  0  0  0  0  0  0  0  0
    9.2610    1.8855    1.4488 Br  0  0  0  0  0  0  0  0  0  0  0  0
   -0.7169   -3.0316    0.3213 C   0  0  0  0  0  0  0  0  0  0  0  0
    0.5981   -3.7162    0.6287 C   0  0  0  0  0  0  0  0  0  0  0  0
    0.6488   -5.1237    0.0830 C   0  0  0  0  0  0  0  0  0  0  0  0
    0.5284   -5.1826   -1.4095 C   0  0  0  0  0  0  0  0  0  0  0  0
   -0.1049   -3.9103   -1.9616 C   0  0  0  0  0  0  0  0  0  0  0  0
   -1.2252   -3.5632   -0.9904 C   0  0  0  0  0  0  0  0  0  0  0  0
   -7.4364    2.0219   -1.0358 H   0  0  0  0  0  0  0  0  0  0  0  0
   -8.5321    1.1728    0.1800 H   0  0  0  0  0  0  0  0  0  0  0  0
   -7.8416    2.8334    0.5703 H   0  0  0  0  0  0  0  0  0  0  0  0
   -6.1990    3.7723   -0.2195 H   0  0  0  0  0  0  0  0  0  0  0  0
   -4.0211    4.9966    0.0184 H   0  0  0  0  0  0  0  0  0  0  0  0
   -2.1142    3.9648    1.0496 H   0  0  0  0  0  0  0  0  0  0  0  0
   -4.3617    0.4001    1.7003 H   0  0  0  0  0  0  0  0  0  0  0  0
   -2.3828    0.7289    2.8711 H   0  0  0  0  0  0  0  0  0  0  0  0
   -1.3372    2.1380    2.6852 H   0  0  0  0  0  0  0  0  0  0  0  0
   -1.9917   -1.2038    1.8228 H   0  0  0  0  0  0  0  0  0  0  0  0
    1.1673    1.9932   -1.7580 H   0  0  0  0  0  0  0  0  0  0  0  0
    1.6158    0.3740   -2.3358 H   0  0  0  0  0  0  0  0  0  0  0  0
    3.7959    2.0905   -2.4238 H   0  0  0  0  0  0  0  0  0  0  0  0
    4.7849    3.7065    0.1460 H   0  0  0  0  0  0  0  0  0  0  0  0
    6.9360    3.7991    1.3209 H   0  0  0  0  0  0  0  0  0  0  0  0
    7.8988   -0.0452   -0.3575 H   0  0  0  0  0  0  0  0  0  0  0  0
    5.7335   -0.0989   -1.5184 H   0  0  0  0  0  0  0  0  0  0  0  0
   -1.4874   -3.2544    1.0880 H   0  0  0  0  0  0  0  0  0  0  0  0
    1.4448   -3.1738    0.1624 H   0  0  0  0  0  0  0  0  0  0  0  0
    0.7897   -3.7635    1.7122 H   0  0  0  0  0  0  0  0  0  0  0  0
    1.6709   -5.5068    0.3390 H   0  0  0  0  0  0  0  0  0  0  0  0
   -0.0953   -5.7646    0.6107 H   0  0  0  0  0  0  0  0  0  0  0  0
    1.5102   -5.3417   -1.9071 H   0  0  0  0  0  0  0  0  0  0  0  0
   -0.1891   -6.0001   -1.7049 H   0  0  0  0  0  0  0  0  0  0  0  0
    0.6199   -3.1044   -2.1068 H   0  0  0  0  0  0  0  0  0  0  0  0
   -0.5947   -4.0991   -2.9477 H   0  0  0  0  0  0  0  0  0  0  0  0
   -1.7299   -4.5453   -0.7638 H   0  0  0  0  0  0  0  0  0  0  0  0
   -2.0230   -2.9518   -1.4519 H   0  0  0  0  0  0  0  0  0  0  0  0
  1  2  1  0
  2  3  1  0
  3  4  2  0
  4  5  1  0
  5  6  2  0
  6  7  1  0
  7  8  2  0
  7  9  1  0
  9 10  1  0
 10 11  2  0
 11 12  1  0
 12 13  2  0
 13 14  1  0
 14 15  1  0
 15 16  2  0
 14 17  1  0
 17 18  1  0
 18 19  2  0
 18 20  1  0
 20 21  1  0
 21 22  2  0
 22 23  1  0
 23 24  2  0
 24 25  1  0
 25 26  2  0
 24 27  1  0
 12 28  1  0
 28 29  1  0
 29 30  1  0
 30 31  1  0
 31 32  1  0
 32 33  1  0
  8  3  1  0
 15 10  1  0
 26 21  1  0
 33 28  1  0
  1 34  1  0
  1 35  1  0
  1 36  1  0
  4 37  1  0
  5 38  1  0
  6 39  1  0
  8 40  1  0
  9 41  1  0
  9 42  1  0
 11 43  1  0
 17 44  1  0
 17 45  1  0
 20 46  1  0
 22 47  1  0
 23 48  1  0
 25 49  1  0
 26 50  1  0
 28 51  1  0
 29 52  1  0
 29 53  1  0
 30 54  1  0
 30 55  1  0
 31 56  1  0
 31 57  1  0
 32 58  1  0
 32 59  1  0
 33 60  1  0
 33 61  1  0
M  END
>  <Ligand ID>  (1) 
LIG0004841

>  <Ligand>  (1) 
CHEMBL2391257

>  <SMILES>  (1) 
COc1cccc(c1)Cc1cc(nn(c1=O)CC(=O)Nc1ccc(cc1)Br)C1CCCCC1

>  <CID>  (1) 
71698530.0

>  <ChEMBL ID>  (1) 
nan

>  <InChiKey>  (1) 
SYXGSLHNPIOSGT-UHFFFAOYSA-N

>  <InChi>  (1) 
InChI=1S/C26H28BrN3O3/c1-33-23-9-5-6-18(15-23)14-20-16-24(19-7-3-2-4-8-19)29-30(26(20)32)17-25(31)28-22-12-10-21(27)11-13-22/h5-6,9-13,15-16,19H,2-4,7-8,14,17H2,1H3,(H,28,31)

>  <IUPAC Name>  (1) 
N-(4-bromophenyl)-2-[3-cyclohexyl-5-[(3-methoxyphenyl)methyl]-6-oxopyridazin-1-yl]acetamide

$$$$
