
     RDKit          3D

 21 21  0  0  0  0  0  0  0  0999 V2000
    4.0920    0.3721    0.1711 O   0  0  0  0  0  0  0  0  0  0  0  0
    3.1784   -0.6441    0.2288 N   0  0  0  0  0  0  0  0  0  0  0  0
    3.5517   -1.8394    0.3724 O   0  0  0  0  0  0  0  0  0  0  0  0
    1.7892   -0.3931    0.1307 C   0  0  0  0  0  0  0  0  0  0  0  0
    0.8561   -1.3985    0.1894 C   0  0  0  0  0  0  0  0  0  0  0  0
   -0.5202   -1.1584    0.0961 C   0  0  0  0  0  0  0  0  0  0  0  0
   -1.3574   -2.2844    0.1662 N   0  0  0  0  0  0  0  0  0  0  0  0
   -0.8996   -3.3872   -0.2475 O   0  0  0  0  0  0  0  0  0  0  0  0
   -2.6408   -2.3189    0.6364 O   0  0  0  0  0  0  0  0  0  0  0  0
   -0.9506    0.1400   -0.0609 C   0  0  0  0  0  0  0  0  0  0  0  0
    0.0057    1.1690   -0.1208 C   0  0  0  0  0  0  0  0  0  0  0  0
    1.3568    0.9046   -0.0262 C   0  0  0  0  0  0  0  0  0  0  0  0
   -0.3703    2.5281   -0.2799 N   0  0  0  0  0  0  0  0  0  0  0  0
   -1.3452    2.9366   -0.8949 O   0  0  0  0  0  0  0  0  0  0  0  0
    0.4563    3.4751    0.3234 O   0  0  0  0  0  0  0  0  0  0  0  0
   -2.3477    0.5413   -0.1851 C   0  0  0  0  0  0  0  0  0  0  0  0
    1.2236   -2.4036    0.3130 H   0  0  0  0  0  0  0  0  0  0  0  0
    2.0771    1.7045   -0.0741 H   0  0  0  0  0  0  0  0  0  0  0  0
   -2.4780    0.9386   -1.2405 H   0  0  0  0  0  0  0  0  0  0  0  0
   -2.6010    1.3706    0.5401 H   0  0  0  0  0  0  0  0  0  0  0  0
   -3.0762   -0.2527   -0.0378 H   0  0  0  0  0  0  0  0  0  0  0  0
  1  2  1  0
  2  3  2  0
  2  4  1  0
  4  5  2  0
  5  6  1  0
  6  7  1  0
  7  8  2  0
  7  9  1  0
  6 10  2  0
 10 11  1  0
 11 12  2  0
 11 13  1  0
 13 14  2  0
 13 15  1  0
 10 16  1  0
 12  4  1  0
  5 17  1  0
 12 18  1  0
 16 19  1  0
 16 20  1  0
 16 21  1  0
M  CHG  6   1  -1   2   1   7   1   9  -1  13   1  15  -1
M  END
>  <Ligand ID>  (1) 
LIG0000599

>  <Ligand>  (1) 
Trinitrotoluene

>  <SMILES>  (1) 
[O-][N+](=O)c1cc([N+](=O)[O-])c(c(c1)[N+](=O)[O-])C

>  <CID>  (1) 
8376.0

>  <ChEMBL ID>  (1) 
nan

>  <InChiKey>  (1) 
SPSSULHKWOKEEL-UHFFFAOYSA-N

>  <InChi>  (1) 
InChI=1S/C7H5N3O6/c1-4-6(9(13)14)2-5(8(11)12)3-7(4)10(15)16/h2-3H,1H3

>  <IUPAC Name>  (1) 
2-methyl-1,3,5-trinitrobenzene

$$$$
