
     RDKit          3D

 24 25  0  0  0  0  0  0  0  0999 V2000
    3.1274   -1.3735    1.0316 N   0  0  0  0  0  0  0  0  0  0  0  0
    2.9231   -0.1804    0.2376 C   0  0  0  0  0  0  0  0  0  0  0  0
    1.5102    0.3321    0.3675 C   0  0  1  0  0  0  0  0  0  0  0  0
    1.2357    1.5870   -0.4464 C   0  0  0  0  0  0  0  0  0  0  0  0
    0.5865    0.3209   -0.7935 C   0  0  2  0  0  0  0  0  0  0  0  0
   -0.8367    0.0748   -0.4861 C   0  0  0  0  0  0  0  0  0  0  0  0
   -1.4184    0.6702    0.6111 C   0  0  0  0  0  0  0  0  0  0  0  0
   -2.7461    0.4791    0.9517 C   0  0  0  0  0  0  0  0  0  0  0  0
   -3.5013   -0.3535    0.1348 C   0  0  0  0  0  0  0  0  0  0  0  0
   -2.9622   -0.9747   -0.9788 C   0  0  0  0  0  0  0  0  0  0  0  0
   -1.6425   -0.7458   -1.2630 C   0  0  0  0  0  0  0  0  0  0  0  0
    2.6817   -1.2209    1.9620 H   0  0  0  0  0  0  0  0  0  0  0  0
    2.7394   -2.1940    0.5222 H   0  0  0  0  0  0  0  0  0  0  0  0
    3.2048   -0.3283   -0.8206 H   0  0  0  0  0  0  0  0  0  0  0  0
    3.5944    0.6009    0.6688 H   0  0  0  0  0  0  0  0  0  0  0  0
    1.0757    0.2622    1.3746 H   0  0  0  0  0  0  0  0  0  0  0  0
    0.7383    2.3988    0.0969 H   0  0  0  0  0  0  0  0  0  0  0  0
    2.0261    1.9462   -1.1576 H   0  0  0  0  0  0  0  0  0  0  0  0
    0.9371   -0.2202   -1.7093 H   0  0  0  0  0  0  0  0  0  0  0  0
   -0.8196    1.3279    1.2552 H   0  0  0  0  0  0  0  0  0  0  0  0
   -3.1891    0.9578    1.8224 H   0  0  0  0  0  0  0  0  0  0  0  0
   -4.5456   -0.5166    0.3848 H   0  0  0  0  0  0  0  0  0  0  0  0
   -3.5283   -1.6251   -1.6278 H   0  0  0  0  0  0  0  0  0  0  0  0
   -1.1905   -1.2246   -2.1381 H   0  0  0  0  0  0  0  0  0  0  0  0
  1  2  1  0
  2  3  1  0
  3  4  1  0
  4  5  1  0
  5  6  1  0
  6  7  2  0
  7  8  1  0
  8  9  2  0
  9 10  1  0
 10 11  2  0
  5  3  1  0
 11  6  1  0
  1 12  1  0
  1 13  1  0
  2 14  1  0
  2 15  1  0
  3 16  1  1
  4 17  1  0
  4 18  1  0
  5 19  1  6
  7 20  1  0
  8 21  1  0
  9 22  1  0
 10 23  1  0
 11 24  1  0
M  END
>  <Ligand ID>  (1) 
LIG0002386

>  <Ligand>  (1) 
CHEMBL452719

>  <SMILES>  (1) 
NC[C@H]1C[C@@H]1c1ccccc1

>  <CID>  (1) 
44572657.0

>  <ChEMBL ID>  (1) 
nan

>  <InChiKey>  (1) 
ATTLDOZXPZCOGK-NXEZZACHSA-N

>  <InChi>  (1) 
InChI=1S/C10H13N/c11-7-9-6-10(9)8-4-2-1-3-5-8/h1-5,9-10H,6-7,11H2/t9-,10-/m1/s1

>  <IUPAC Name>  (1) 
[(1S,2S)-2-phenylcyclopropyl]methanamine

$$$$
