
     RDKit          3D

 69 72  0  0  0  0  0  0  0  0999 V2000
    4.6920   -1.7021    3.7711 C   0  0  0  0  0  0  0  0  0  0  0  0
    3.6976   -0.5839    3.8652 C   0  0  0  0  0  0  0  0  0  0  0  0
    2.6448   -0.6848    2.9053 O   0  0  0  0  0  0  0  0  0  0  0  0
    2.9443   -0.6826    1.5319 C   0  0  0  0  0  0  0  0  0  0  0  0
    4.1280   -0.5934    1.1202 O   0  0  0  0  0  0  0  0  0  0  0  0
    1.7691   -0.7921    0.6185 C   0  0  0  0  0  0  0  0  0  0  0  0
    0.8396    0.3452    0.8315 C   0  0  0  0  0  0  0  0  0  0  0  0
   -0.5474    0.0692    0.2282 C   0  0  0  0  0  0  0  0  0  0  0  0
   -1.1398   -1.0850    0.9217 N   0  0  0  0  0  0  0  0  0  0  0  0
   -0.3165   -2.2242    0.5689 C   0  0  0  0  0  0  0  0  0  0  0  0
    1.0371   -2.0472    1.1632 C   0  0  0  0  0  0  0  0  0  0  0  0
   -2.4584   -1.2841    0.3698 C   0  0  0  0  0  0  0  0  0  0  0  0
   -3.3400   -0.1135    0.5660 C   0  0  0  0  0  0  0  0  0  0  0  0
   -3.8585    0.0749    1.8370 C   0  0  0  0  0  0  0  0  0  0  0  0
   -3.5171   -0.8904    2.9399 C   0  0  0  0  0  0  0  0  0  0  0  0
   -4.6901    1.1602    2.0670 C   0  0  0  0  0  0  0  0  0  0  0  0
   -5.0229    2.0658    1.0705 C   0  0  0  0  0  0  0  0  0  0  0  0
   -4.4838    1.8360   -0.1730 C   0  0  0  0  0  0  0  0  0  0  0  0
   -3.6540    0.7711   -0.4438 C   0  0  0  0  0  0  0  0  0  0  0  0
   -3.1311    0.5884   -1.7532 N   0  0  0  0  0  0  0  0  0  0  0  0
   -3.5398   -0.4316   -2.5599 C   0  0  0  0  0  0  0  0  0  0  0  0
   -2.8498   -0.3217   -3.7398 C   0  0  0  0  0  0  0  0  0  0  0  0
   -2.0250    0.7750   -3.6281 C   0  0  0  0  0  0  0  0  0  0  0  0
   -2.2327    1.2942   -2.4021 N   0  0  0  0  0  0  0  0  0  0  0  0
   -5.9191    3.2064    1.3837 C   0  0  0  0  0  0  0  0  0  0  0  0
    2.1092   -1.0304   -0.7817 C   0  0  0  0  0  0  0  0  0  0  0  0
    2.9434   -0.0986   -1.5502 C   0  0  0  0  0  0  0  0  0  0  0  0
    2.5035    1.2931   -1.7582 C   0  0  0  0  0  0  0  0  0  0  0  0
    3.0888    1.8802   -3.0620 C   0  0  0  0  0  0  0  0  0  0  0  0
    4.4596    1.2549   -3.2042 C   0  0  0  0  0  0  0  0  0  0  0  0
    4.2358   -0.2210   -3.4593 C   0  0  0  0  0  0  0  0  0  0  0  0
    3.0734   -0.6764   -2.8433 O   0  0  0  0  0  0  0  0  0  0  0  0
    4.3435   -2.5696    3.2016 H   0  0  0  0  0  0  0  0  0  0  0  0
    4.9288   -2.0993    4.8029 H   0  0  0  0  0  0  0  0  0  0  0  0
    5.6491   -1.2688    3.3934 H   0  0  0  0  0  0  0  0  0  0  0  0
    4.2044    0.4186    3.7680 H   0  0  0  0  0  0  0  0  0  0  0  0
    3.2291   -0.5816    4.8618 H   0  0  0  0  0  0  0  0  0  0  0  0
    1.1471    1.3292    0.4591 H   0  0  0  0  0  0  0  0  0  0  0  0
    0.6852    0.4978    1.9355 H   0  0  0  0  0  0  0  0  0  0  0  0
   -1.1378    0.9745    0.4144 H   0  0  0  0  0  0  0  0  0  0  0  0
   -0.4688   -0.1931   -0.8227 H   0  0  0  0  0  0  0  0  0  0  0  0
   -0.7287   -3.1722    0.9833 H   0  0  0  0  0  0  0  0  0  0  0  0
   -0.3094   -2.2677   -0.5367 H   0  0  0  0  0  0  0  0  0  0  0  0
    0.9302   -1.9247    2.2517 H   0  0  0  0  0  0  0  0  0  0  0  0
    1.6294   -2.9484    0.8983 H   0  0  0  0  0  0  0  0  0  0  0  0
   -2.8443   -2.2185    0.8277 H   0  0  0  0  0  0  0  0  0  0  0  0
   -2.3097   -1.4964   -0.7147 H   0  0  0  0  0  0  0  0  0  0  0  0
   -2.4800   -0.7238    3.2692 H   0  0  0  0  0  0  0  0  0  0  0  0
   -4.2020   -0.6671    3.7749 H   0  0  0  0  0  0  0  0  0  0  0  0
   -3.7393   -1.9377    2.6342 H   0  0  0  0  0  0  0  0  0  0  0  0
   -5.0815    1.2799    3.0778 H   0  0  0  0  0  0  0  0  0  0  0  0
   -4.7358    2.5359   -0.9594 H   0  0  0  0  0  0  0  0  0  0  0  0
   -4.2826   -1.1910   -2.3008 H   0  0  0  0  0  0  0  0  0  0  0  0
   -2.9427   -0.9858   -4.6053 H   0  0  0  0  0  0  0  0  0  0  0  0
   -1.3534    1.1108   -4.4146 H   0  0  0  0  0  0  0  0  0  0  0  0
   -6.6303    3.3658    0.5439 H   0  0  0  0  0  0  0  0  0  0  0  0
   -6.4791    2.9755    2.3094 H   0  0  0  0  0  0  0  0  0  0  0  0
   -5.3146    4.1287    1.5570 H   0  0  0  0  0  0  0  0  0  0  0  0
    2.6306   -2.0437   -0.8610 H   0  0  0  0  0  0  0  0  0  0  0  0
    1.1733   -1.2286   -1.3975 H   0  0  0  0  0  0  0  0  0  0  0  0
    4.0127   -0.1554   -1.1682 H   0  0  0  0  0  0  0  0  0  0  0  0
    2.9163    1.9351   -0.9587 H   0  0  0  0  0  0  0  0  0  0  0  0
    1.4372    1.4633   -1.8456 H   0  0  0  0  0  0  0  0  0  0  0  0
    2.4059    1.5593   -3.8816 H   0  0  0  0  0  0  0  0  0  0  0  0
    3.1059    2.9651   -2.9264 H   0  0  0  0  0  0  0  0  0  0  0  0
    4.9819    1.7725   -4.0070 H   0  0  0  0  0  0  0  0  0  0  0  0
    4.9782    1.3499   -2.2201 H   0  0  0  0  0  0  0  0  0  0  0  0
    5.1302   -0.8062   -3.1965 H   0  0  0  0  0  0  0  0  0  0  0  0
    4.0807   -0.3338   -4.5477 H   0  0  0  0  0  0  0  0  0  0  0  0
  1  2  1  0
  2  3  1  0
  3  4  1  0
  4  5  2  0
  4  6  1  0
  6  7  1  0
  7  8  1  0
  8  9  1  0
  9 10  1  0
 10 11  1  0
  9 12  1  0
 12 13  1  0
 13 14  2  0
 14 15  1  0
 14 16  1  0
 16 17  2  0
 17 18  1  0
 18 19  2  0
 19 20  1  0
 20 21  1  0
 21 22  2  0
 22 23  1  0
 23 24  2  0
 17 25  1  0
  6 26  1  0
 26 27  1  0
 27 28  1  0
 28 29  1  0
 29 30  1  0
 30 31  1  0
 31 32  1  0
 11  6  1  0
 19 13  1  0
 24 20  1  0
 32 27  1  0
  1 33  1  0
  1 34  1  0
  1 35  1  0
  2 36  1  0
  2 37  1  0
  7 38  1  0
  7 39  1  0
  8 40  1  0
  8 41  1  0
 10 42  1  0
 10 43  1  0
 11 44  1  0
 11 45  1  0
 12 46  1  0
 12 47  1  0
 15 48  1  0
 15 49  1  0
 15 50  1  0
 16 51  1  0
 18 52  1  0
 21 53  1  0
 22 54  1  0
 23 55  1  0
 25 56  1  0
 25 57  1  0
 25 58  1  0
 26 59  1  0
 26 60  1  0
 27 61  1  0
 28 62  1  0
 28 63  1  0
 29 64  1  0
 29 65  1  0
 30 66  1  0
 30 67  1  0
 31 68  1  0
 31 69  1  0
M  END
>  <Ligand ID>  (1) 
LIG0004428

>  <Ligand>  (1) 
MLS000732853

>  <SMILES>  (1) 
CCOC(=O)C1(CCN(CC1)Cc1c(C)cc(cc1n1cccn1)C)CC1CCCCO1

>  <CID>  (1) 
16190489.0

>  <ChEMBL ID>  (1) 
nan

>  <InChiKey>  (1) 
YTGGZTZJNBIMGR-UHFFFAOYSA-N

>  <InChi>  (1) 
InChI=1S/C26H37N3O3/c1-4-31-25(30)26(18-22-8-5-6-15-32-22)9-13-28(14-10-26)19-23-21(3)16-20(2)17-24(23)29-12-7-11-27-29/h7,11-12,16-17,22H,4-6,8-10,13-15,18-19H2,1-3H3

>  <IUPAC Name>  (1) 
ethyl 1-[(2,4-dimethyl-6-pyrazol-1-ylphenyl)methyl]-4-(oxan-2-ylmethyl)piperidine-4-carboxylate

$$$$
