
     RDKit          3D

 32 34  0  0  0  0  0  0  0  0999 V2000
    2.6069   -1.8620   -0.2961 C   0  0  0  0  0  0  0  0  0  0  0  0
    2.3131   -0.9618    0.8728 C   0  0  0  0  0  0  0  0  0  0  0  0
    1.7595    0.3601    0.5056 C   0  0  0  0  0  0  0  0  0  0  0  0
    2.7087    1.3996    0.4619 C   0  0  0  0  0  0  0  0  0  0  0  0
    2.3569    2.6867    0.1295 C   0  0  0  0  0  0  0  0  0  0  0  0
    1.0324    2.9149   -0.1585 C   0  0  0  0  0  0  0  0  0  0  0  0
    0.1029    1.9019   -0.1162 C   0  0  0  0  0  0  0  0  0  0  0  0
    0.4324    0.5818    0.2174 C   0  0  0  0  0  0  0  0  0  0  0  0
   -0.7763   -0.2325    0.1652 C   0  0  2  0  0  0  0  0  0  0  0  0
   -0.8911   -1.2491   -0.9132 C   0  0  0  0  0  0  0  0  0  0  0  0
   -2.0947   -2.0335   -0.6197 N   0  0  0  0  0  0  0  0  0  0  0  0
   -3.0854   -1.3392    0.1306 C   0  0  0  0  0  0  0  0  0  0  0  0
   -3.2005    0.1261   -0.1257 C   0  0  0  0  0  0  0  0  0  0  0  0
   -1.8625    0.7302   -0.1269 N   0  0  0  0  0  0  0  0  0  0  0  0
   -1.3418    2.0041   -0.3375 C   0  0  0  0  0  0  0  0  0  0  0  0
   -1.9965    3.0307   -0.6555 O   0  0  0  0  0  0  0  0  0  0  0  0
    0.5782    4.5606   -0.5830 Cl  0  0  0  0  0  0  0  0  0  0  0  0
    3.6723   -2.2448   -0.1982 H   0  0  0  0  0  0  0  0  0  0  0  0
    2.5252   -1.3437   -1.2861 H   0  0  0  0  0  0  0  0  0  0  0  0
    1.9911   -2.7909   -0.2545 H   0  0  0  0  0  0  0  0  0  0  0  0
    1.5941   -1.4945    1.5644 H   0  0  0  0  0  0  0  0  0  0  0  0
    3.2324   -0.8487    1.5267 H   0  0  0  0  0  0  0  0  0  0  0  0
    3.7495    1.2221    0.6910 H   0  0  0  0  0  0  0  0  0  0  0  0
    3.1039    3.4556    0.1056 H   0  0  0  0  0  0  0  0  0  0  0  0
   -1.0491   -0.6625    1.1514 H   0  0  0  0  0  0  0  0  0  0  0  0
   -1.1123   -0.7768   -1.9080 H   0  0  0  0  0  0  0  0  0  0  0  0
   -0.0733   -1.9320   -1.0710 H   0  0  0  0  0  0  0  0  0  0  0  0
   -1.7480   -2.8451   -0.0245 H   0  0  0  0  0  0  0  0  0  0  0  0
   -4.0782   -1.7878   -0.1307 H   0  0  0  0  0  0  0  0  0  0  0  0
   -2.9494   -1.4875    1.2318 H   0  0  0  0  0  0  0  0  0  0  0  0
   -3.7246    0.5694    0.7484 H   0  0  0  0  0  0  0  0  0  0  0  0
   -3.7757    0.3488   -1.0276 H   0  0  0  0  0  0  0  0  0  0  0  0
  1  2  1  0
  2  3  1  0
  3  4  2  0
  4  5  1  0
  5  6  2  0
  6  7  1  0
  7  8  2  0
  8  9  1  0
  9 10  1  0
 10 11  1  0
 11 12  1  0
 12 13  1  0
 13 14  1  0
 14 15  1  0
 15 16  2  0
  6 17  1  0
  8  3  1  0
 14  9  1  0
 15  7  1  0
  1 18  1  0
  1 19  1  0
  1 20  1  0
  2 21  1  0
  2 22  1  0
  4 23  1  0
  5 24  1  0
  9 25  1  1
 10 26  1  0
 10 27  1  0
 11 28  1  0
 12 29  1  0
 12 30  1  0
 13 31  1  0
 13 32  1  0
M  END
>  <Ligand ID>  (1) 
LIG0004095

>  <Ligand>  (1) 
CHEMBL223466

>  <SMILES>  (1) 
CCc1ccc(c2c1[C@@H]1CNCCN1C2=O)Cl

>  <CID>  (1) 
16115511.0

>  <ChEMBL ID>  (1) 
nan

>  <InChiKey>  (1) 
JGSLSPNOXHERQP-JTQLQIEISA-N

>  <InChi>  (1) 
InChI=1S/C13H15ClN2O/c1-2-8-3-4-9(14)12-11(8)10-7-15-5-6-16(10)13(12)17/h3-4,10,15H,2,5-7H2,1H3/t10-/m0/s1

>  <IUPAC Name>  (1) 
(10bR)-7-chloro-10-ethyl-2,3,4,10b-tetrahydro-1H-pyrazino[1,2-b]isoindol-6-one

$$$$
