
     RDKit          3D

 40 41  0  0  0  0  0  0  0  0999 V2000
    4.1081   -2.1069   -0.7044 C   0  0  0  0  0  0  0  0  0  0  0  0
    3.5902   -1.2931    0.4294 C   0  0  0  0  0  0  0  0  0  0  0  0
    2.3594   -0.5229    0.1346 C   0  0  0  0  0  0  0  0  0  0  0  0
    1.1190   -1.0868    0.3564 C   0  0  0  0  0  0  0  0  0  0  0  0
    0.0019   -0.3163    0.0616 C   0  0  0  0  0  0  0  0  0  0  0  0
   -1.3171   -0.9442    0.2794 C   0  0  1  0  0  0  0  0  0  0  0  0
   -1.4561   -1.7754    1.5098 C   0  0  0  0  0  0  0  0  0  0  0  0
   -2.8492   -1.6028    1.9584 N   0  0  0  0  0  0  0  0  0  0  0  0
   -3.4430   -0.5973    1.0571 C   0  0  0  0  0  0  0  0  0  0  0  0
   -2.2631    0.1933    0.7041 C   0  0  2  0  0  0  0  0  0  0  0  0
   -2.3049    1.0998   -0.3865 N   0  0  0  0  0  0  0  0  0  0  0  0
   -1.0649    1.7875   -0.7007 C   0  0  0  0  0  0  0  0  0  0  0  0
   -1.0295    2.9398   -1.1443 O   0  0  0  0  0  0  0  0  0  0  0  0
    0.1468    0.9765   -0.4381 C   0  0  0  0  0  0  0  0  0  0  0  0
    1.3793    1.5513   -0.6657 C   0  0  0  0  0  0  0  0  0  0  0  0
    2.4803    0.7374   -0.3539 C   0  0  0  0  0  0  0  0  0  0  0  0
    1.5716    2.9021   -1.2158 C   0  0  0  0  0  0  0  0  0  0  0  0
    1.0794    3.1020   -2.4796 F   0  0  0  0  0  0  0  0  0  0  0  0
    2.9325    3.1007   -1.3828 F   0  0  0  0  0  0  0  0  0  0  0  0
    1.2276    3.9036   -0.3317 F   0  0  0  0  0  0  0  0  0  0  0  0
   -3.4592    1.4019   -1.2012 C   0  0  0  0  0  0  0  0  0  0  0  0
    0.6842    0.0000    0.0000 Cl  0  0  0  0  0  0  0  0  0  0  0  0
    5.1939   -2.3028   -0.4762 H   0  0  0  0  0  0  0  0  0  0  0  0
    3.6434   -3.1047   -0.7222 H   0  0  0  0  0  0  0  0  0  0  0  0
    4.1039   -1.5897   -1.6789 H   0  0  0  0  0  0  0  0  0  0  0  0
    4.3694   -0.5838    0.7715 H   0  0  0  0  0  0  0  0  0  0  0  0
    3.3206   -2.0167    1.2472 H   0  0  0  0  0  0  0  0  0  0  0  0
    1.0137   -2.0811    0.7415 H   0  0  0  0  0  0  0  0  0  0  0  0
   -1.7055   -1.4431   -0.6322 H   0  0  0  0  0  0  0  0  0  0  0  0
   -0.7609   -1.4430    2.3036 H   0  0  0  0  0  0  0  0  0  0  0  0
   -1.3360   -2.8489    1.2656 H   0  0  0  0  0  0  0  0  0  0  0  0
   -2.8365   -1.1748    2.9311 H   0  0  0  0  0  0  0  0  0  0  0  0
   -3.9227   -1.1194    0.2121 H   0  0  0  0  0  0  0  0  0  0  0  0
   -4.1760   -0.0168    1.6336 H   0  0  0  0  0  0  0  0  0  0  0  0
   -1.8245    0.6307    1.6241 H   0  0  0  0  0  0  0  0  0  0  0  0
    3.4647    1.1684   -0.5240 H   0  0  0  0  0  0  0  0  0  0  0  0
   -4.3887    1.0504   -0.7086 H   0  0  0  0  0  0  0  0  0  0  0  0
   -3.5446    2.5063   -1.2823 H   0  0  0  0  0  0  0  0  0  0  0  0
   -3.4229    0.9186   -2.1921 H   0  0  0  0  0  0  0  0  0  0  0  0
   -0.6842    0.0000    0.0000 H   0  0  0  0  0  0  0  0  0  0  0  0
  1  2  1  0
  2  3  1  0
  3  4  2  0
  4  5  1  0
  5  6  1  0
  6  7  1  0
  7  8  1  0
  8  9  1  0
  9 10  1  0
 10 11  1  0
 11 12  1  0
 12 13  2  0
 12 14  1  0
 14 15  1  0
 15 16  2  0
 15 17  1  0
 17 18  1  0
 17 19  1  0
 17 20  1  0
 11 21  1  0
 16  3  1  0
 14  5  2  0
 10  6  1  0
  1 23  1  0
  1 24  1  0
  1 25  1  0
  2 26  1  0
  2 27  1  0
  4 28  1  0
  6 29  1  6
  7 30  1  0
  7 31  1  0
  8 32  1  0
  9 33  1  0
  9 34  1  0
 10 35  1  1
 16 36  1  0
 21 37  1  0
 21 38  1  0
 21 39  1  0
 22 40  1  0
M  END
>  <Ligand ID>  (1) 
LIG0004101

>  <Ligand>  (1) 
CHEMBL2337488

>  <SMILES>  (1) 
CCc1cc2[C@H]3CNC[C@@H]3N(C(=O)c2c(c1)C(F)(F)F)C.Cl

>  <CID>  (1) 
11595190.0

>  <ChEMBL ID>  (1) 
nan

>  <InChiKey>  (1) 
HIOJJTOXZJLZKX-IYJPBCIQSA-N

>  <InChi>  (1) 
InChI=1S/C15H17F3N2O.ClH/c1-3-8-4-9-10-6-19-7-12(10)20(2)14(21)13(9)11(5-8)15(16,17)18;/h4-5,10,12,19H,3,6-7H2,1-2H3;1H/t10-,12+;/m1./s1

>  <IUPAC Name>  (1) 
(3aR,9bS)-8-ethyl-4-methyl-6-(trifluoromethyl)-2,3,3a,9b-tetrahydro-1H-pyrrolo[3,4-c]isoquinolin-5-one;hydrochloride

$$$$
