
     RDKit          3D

 34 36  0  0  0  0  0  0  0  0999 V2000
   -4.1257    2.2508    1.4374 C   0  0  0  0  0  0  0  0  0  0  0  0
   -4.4015    0.9003    1.5354 C   0  0  0  0  0  0  0  0  0  0  0  0
   -3.5555    0.0082    1.0138 N   0  0  0  0  0  0  0  0  0  0  0  0
   -2.4152    0.3686    0.3793 C   0  0  0  0  0  0  0  0  0  0  0  0
   -2.1712    1.6710    0.2974 N   0  0  0  0  0  0  0  0  0  0  0  0
   -2.9766    2.6064    0.7977 C   0  0  0  0  0  0  0  0  0  0  0  0
   -1.5931   -0.7033   -0.1336 C   0  0  0  0  0  0  0  0  0  0  0  0
   -2.0037   -2.0223    0.0530 C   0  0  0  0  0  0  0  0  0  0  0  0
   -1.2973   -3.1105   -0.3884 C   0  0  0  0  0  0  0  0  0  0  0  0
   -0.1116   -2.9350   -1.0578 C   0  0  0  0  0  0  0  0  0  0  0  0
    0.3063   -1.6272   -1.2493 C   0  0  0  0  0  0  0  0  0  0  0  0
   -0.4043   -0.5333   -0.8049 C   0  0  0  0  0  0  0  0  0  0  0  0
    0.1352    0.7474   -1.0953 N   0  0  0  0  0  0  0  0  0  0  0  0
    1.3952    0.9328   -1.7789 C   0  0  0  0  0  0  0  0  0  0  0  0
    2.5479    0.5265   -0.9381 C   0  0  0  0  0  0  0  0  0  0  0  0
    3.5345   -0.2477   -1.1456 N   0  0  0  0  0  0  0  0  0  0  0  0
    4.4406   -0.3673   -0.0505 C   0  0  0  0  0  0  0  0  0  0  0  0
    3.5945    0.1301    1.1270 C   0  0  0  0  0  0  0  0  0  0  0  0
    2.7157    1.0560    0.3967 N   0  0  0  0  0  0  0  0  0  0  0  0
   -4.8233    2.9734    1.8670 H   0  0  0  0  0  0  0  0  0  0  0  0
   -5.2852    0.5264    2.0229 H   0  0  0  0  0  0  0  0  0  0  0  0
   -2.7120    3.6458    0.6925 H   0  0  0  0  0  0  0  0  0  0  0  0
   -2.9444   -2.2531    0.5805 H   0  0  0  0  0  0  0  0  0  0  0  0
   -1.6654   -4.1250   -0.2148 H   0  0  0  0  0  0  0  0  0  0  0  0
    0.4477   -3.7829   -1.4067 H   0  0  0  0  0  0  0  0  0  0  0  0
    1.2301   -1.5077   -1.7862 H   0  0  0  0  0  0  0  0  0  0  0  0
   -0.3529    1.6521   -0.8306 H   0  0  0  0  0  0  0  0  0  0  0  0
    1.5357    2.0104   -1.9779 H   0  0  0  0  0  0  0  0  0  0  0  0
    1.4048    0.3857   -2.7476 H   0  0  0  0  0  0  0  0  0  0  0  0
    5.2907    0.3676   -0.1316 H   0  0  0  0  0  0  0  0  0  0  0  0
    4.8058   -1.3872    0.0904 H   0  0  0  0  0  0  0  0  0  0  0  0
    2.9592   -0.7082    1.5368 H   0  0  0  0  0  0  0  0  0  0  0  0
    4.1977    0.6321    1.8812 H   0  0  0  0  0  0  0  0  0  0  0  0
    2.2974    1.9190    0.7637 H   0  0  0  0  0  0  0  0  0  0  0  0
  1  2  2  0
  2  3  1  0
  3  4  2  0
  4  5  1  0
  5  6  2  0
  4  7  1  0
  7  8  2  0
  8  9  1  0
  9 10  2  0
 10 11  1  0
 11 12  2  0
 12 13  1  0
 13 14  1  0
 14 15  1  0
 15 16  2  0
 16 17  1  0
 17 18  1  0
 18 19  1  0
  6  1  1  0
 12  7  1  0
 19 15  1  0
  1 20  1  0
  2 21  1  0
  6 22  1  0
  8 23  1  0
  9 24  1  0
 10 25  1  0
 11 26  1  0
 13 27  1  0
 14 28  1  0
 14 29  1  0
 17 30  1  0
 17 31  1  0
 18 32  1  0
 18 33  1  0
 19 34  1  0
M  END
>  <Ligand ID>  (1) 
LIG0003182

>  <Ligand>  (1) 
CHEMBL156661

>  <SMILES>  (1) 
c1cnc(nc1)c1ccccc1NCC1=NCCN1

>  <CID>  (1) 
22493289.0

>  <ChEMBL ID>  (1) 
nan

>  <InChiKey>  (1) 
CMDSTJSCXRZEFV-UHFFFAOYSA-N

>  <InChi>  (1) 
InChI=1S/C14H15N5/c1-2-5-12(19-10-13-15-8-9-16-13)11(4-1)14-17-6-3-7-18-14/h1-7,19H,8-10H2,(H,15,16)

>  <IUPAC Name>  (1) 
N-(4,5-dihydro-1H-imidazol-2-ylmethyl)-2-pyrimidin-2-ylaniline

$$$$
