
     RDKit          3D

 40 41  0  0  0  0  0  0  0  0999 V2000
   -2.6600   -3.0065   -0.2209 C   0  0  0  0  0  0  0  0  0  0  0  0
   -3.0205   -1.8065   -1.0336 C   0  0  0  0  0  0  0  0  0  0  0  0
   -2.5508   -0.6039   -0.2635 N   0  0  0  0  0  0  0  0  0  0  0  0
   -1.2348   -0.2301   -0.5769 C   0  0  0  0  0  0  0  0  0  0  0  0
   -0.7260   -1.0366   -1.4693 O   0  0  0  0  0  0  0  0  0  0  0  0
   -0.4236    0.8322   -0.0903 C   0  0  0  0  0  0  0  0  0  0  0  0
   -0.9441    1.9003    0.6121 C   0  0  0  0  0  0  0  0  0  0  0  0
   -0.1894    2.9817    1.0552 C   0  0  0  0  0  0  0  0  0  0  0  0
    1.1525    3.0382    0.8046 C   0  0  0  0  0  0  0  0  0  0  0  0
    1.7048    1.9881    0.1053 C   0  0  0  0  0  0  0  0  0  0  0  0
    0.9580    0.8993   -0.3412 C   0  0  0  0  0  0  0  0  0  0  0  0
    1.6782   -0.0980   -1.0341 N   0  0  0  0  0  0  0  0  0  0  0  0
    3.1248   -0.0494   -1.2773 C   0  0  0  0  0  0  0  0  0  0  0  0
    3.9248   -0.4497   -0.1031 C   0  0  0  0  0  0  0  0  0  0  0  0
    4.2003   -1.8094    0.1437 C   0  0  0  0  0  0  0  0  0  0  0  0
    4.9636   -1.8852    1.2690 N   0  0  0  0  0  0  0  0  0  0  0  0
    5.1721   -0.6368    1.7277 C   0  0  0  0  0  0  0  0  0  0  0  0
    4.5307    0.2079    0.8753 N   0  0  0  0  0  0  0  0  0  0  0  0
   -3.4960   -0.0662    0.6359 C   0  0  0  0  0  0  0  0  0  0  0  0
   -4.4231    0.9902    0.0454 C   0  0  0  0  0  0  0  0  0  0  0  0
   -3.1656   -3.9148   -0.5653 H   0  0  0  0  0  0  0  0  0  0  0  0
   -1.5589   -3.1415   -0.2425 H   0  0  0  0  0  0  0  0  0  0  0  0
   -2.9910   -2.7950    0.8358 H   0  0  0  0  0  0  0  0  0  0  0  0
   -4.1174   -1.7613   -1.1379 H   0  0  0  0  0  0  0  0  0  0  0  0
   -2.5698   -1.7354   -2.0203 H   0  0  0  0  0  0  0  0  0  0  0  0
   -1.9905    1.9777    0.8610 H   0  0  0  0  0  0  0  0  0  0  0  0
   -0.6356    3.8084    1.6088 H   0  0  0  0  0  0  0  0  0  0  0  0
    1.7551    3.8583    1.1336 H   0  0  0  0  0  0  0  0  0  0  0  0
    2.7519    2.0574   -0.1015 H   0  0  0  0  0  0  0  0  0  0  0  0
    1.2450   -0.9819   -1.4286 H   0  0  0  0  0  0  0  0  0  0  0  0
    3.4010    0.9723   -1.6171 H   0  0  0  0  0  0  0  0  0  0  0  0
    3.3410   -0.7502   -2.1307 H   0  0  0  0  0  0  0  0  0  0  0  0
    3.8765   -2.6610   -0.4391 H   0  0  0  0  0  0  0  0  0  0  0  0
    5.7424   -0.3622    2.6081 H   0  0  0  0  0  0  0  0  0  0  0  0
    4.5606    1.2342    1.0306 H   0  0  0  0  0  0  0  0  0  0  0  0
   -3.1294    0.2040    1.6495 H   0  0  0  0  0  0  0  0  0  0  0  0
   -4.2405   -0.9050    0.9110 H   0  0  0  0  0  0  0  0  0  0  0  0
   -5.3294    0.5511   -0.4222 H   0  0  0  0  0  0  0  0  0  0  0  0
   -4.7913    1.6759    0.8376 H   0  0  0  0  0  0  0  0  0  0  0  0
   -3.8957    1.5094   -0.7797 H   0  0  0  0  0  0  0  0  0  0  0  0
  1  2  1  0
  2  3  1  0
  3  4  1  0
  4  5  2  0
  4  6  1  0
  6  7  2  0
  7  8  1  0
  8  9  2  0
  9 10  1  0
 10 11  2  0
 11 12  1  0
 12 13  1  0
 13 14  1  0
 14 15  2  0
 15 16  1  0
 16 17  2  0
 17 18  1  0
  3 19  1  0
 19 20  1  0
 11  6  1  0
 18 14  1  0
  1 21  1  0
  1 22  1  0
  1 23  1  0
  2 24  1  0
  2 25  1  0
  7 26  1  0
  8 27  1  0
  9 28  1  0
 10 29  1  0
 12 30  1  0
 13 31  1  0
 13 32  1  0
 15 33  1  0
 17 34  1  0
 18 35  1  0
 19 36  1  0
 19 37  1  0
 20 38  1  0
 20 39  1  0
 20 40  1  0
M  END
>  <Ligand ID>  (1) 
LIG0004367

>  <Ligand>  (1) 
CHEMBL117482

>  <SMILES>  (1) 
CCN(C(=O)c1ccccc1NCc1cnc[nH]1)CC

>  <CID>  (1) 
44343173.0

>  <ChEMBL ID>  (1) 
nan

>  <InChiKey>  (1) 
DJYTZDSAQZPKOG-UHFFFAOYSA-N

>  <InChi>  (1) 
InChI=1S/C15H20N4O/c1-3-19(4-2)15(20)13-7-5-6-8-14(13)17-10-12-9-16-11-18-12/h5-9,11,17H,3-4,10H2,1-2H3,(H,16,18)

>  <IUPAC Name>  (1) 
N,N-diethyl-2-(1H-imidazol-5-ylmethylamino)benzamide

$$$$
