
     RDKit          3D

 24 25  0  0  0  0  0  0  0  0999 V2000
   -3.8604    0.1479    0.4377 N   0  0  0  0  0  0  0  0  0  0  0  0
   -2.8839   -0.3452   -0.5285 C   0  0  0  0  0  0  0  0  0  0  0  0
   -1.5443    0.2770   -0.1888 C   0  0  1  0  0  0  0  0  0  0  0  0
   -1.0767   -0.0948    1.2389 C   0  0  0  0  0  0  0  0  0  0  0  0
   -0.3933   -0.6155   -0.0619 C   0  0  2  0  0  0  0  0  0  0  0  0
    1.0070   -0.2089   -0.1655 C   0  0  0  0  0  0  0  0  0  0  0  0
    1.9671   -1.0605    0.3932 C   0  0  0  0  0  0  0  0  0  0  0  0
    3.3133   -0.7510    0.3395 C   0  0  0  0  0  0  0  0  0  0  0  0
    3.7557    0.4191   -0.2729 C   0  0  0  0  0  0  0  0  0  0  0  0
    2.8174    1.2658   -0.8269 C   0  0  0  0  0  0  0  0  0  0  0  0
    1.4728    0.9278   -0.7572 C   0  0  0  0  0  0  0  0  0  0  0  0
    0.5941    1.7760   -1.3074 F   0  0  0  0  0  0  0  0  0  0  0  0
    5.0551    0.7599   -0.3482 F   0  0  0  0  0  0  0  0  0  0  0  0
   -4.0803    1.1431    0.2949 H   0  0  0  0  0  0  0  0  0  0  0  0
   -4.7217   -0.4388    0.4471 H   0  0  0  0  0  0  0  0  0  0  0  0
   -2.8007   -1.4353   -0.4094 H   0  0  0  0  0  0  0  0  0  0  0  0
   -3.2117   -0.1268   -1.5436 H   0  0  0  0  0  0  0  0  0  0  0  0
   -1.4894    1.3351   -0.4661 H   0  0  0  0  0  0  0  0  0  0  0  0
   -0.5749    0.7404    1.7679 H   0  0  0  0  0  0  0  0  0  0  0  0
   -1.6672   -0.7963    1.8257 H   0  0  0  0  0  0  0  0  0  0  0  0
   -0.5744   -1.7097   -0.2143 H   0  0  0  0  0  0  0  0  0  0  0  0
    1.6851   -1.9892    0.8854 H   0  0  0  0  0  0  0  0  0  0  0  0
    4.0693   -1.3862    0.7598 H   0  0  0  0  0  0  0  0  0  0  0  0
    3.1423    2.1658   -1.2993 H   0  0  0  0  0  0  0  0  0  0  0  0
  1  2  1  0
  2  3  1  0
  3  4  1  0
  4  5  1  0
  5  6  1  0
  6  7  2  0
  7  8  1  0
  8  9  2  0
  9 10  1  0
 10 11  2  0
 11 12  1  0
  9 13  1  0
  5  3  1  0
 11  6  1  0
  1 14  1  0
  1 15  1  0
  2 16  1  0
  2 17  1  0
  3 18  1  1
  4 19  1  0
  4 20  1  0
  5 21  1  6
  7 22  1  0
  8 23  1  0
 10 24  1  0
M  END
>  <Ligand ID>  (1) 
LIG0002362

>  <Ligand>  (1) 
CHEMBL471802

>  <SMILES>  (1) 
NC[C@H]1C[C@@H]1c1ccc(cc1F)F

>  <CID>  (1) 
44573014.0

>  <ChEMBL ID>  (1) 
nan

>  <InChiKey>  (1) 
BMWZKXDXLODUFV-MUWHJKNJSA-N

>  <InChi>  (1) 
InChI=1S/C10H11F2N/c11-7-1-2-8(10(12)4-7)9-3-6(9)5-13/h1-2,4,6,9H,3,5,13H2/t6-,9+/m1/s1

>  <IUPAC Name>  (1) 
[(1S,2S)-2-(2,4-difluorophenyl)cyclopropyl]methanamine

$$$$
