
     RDKit          3D

 74 78  0  0  0  0  0  0  0  0999 V2000
    8.9310   -3.2377    0.5499 C   0  0  0  0  0  0  0  0  0  0  0  0
    7.6871   -3.6324    0.0413 O   0  0  0  0  0  0  0  0  0  0  0  0
    6.4716   -3.0559    0.3084 C   0  0  0  0  0  0  0  0  0  0  0  0
    5.3581   -3.6206   -0.3150 C   0  0  0  0  0  0  0  0  0  0  0  0
    4.1140   -3.0815   -0.0818 C   0  0  0  0  0  0  0  0  0  0  0  0
    3.9691   -2.0010    0.7539 C   0  0  0  0  0  0  0  0  0  0  0  0
    5.0422   -1.4196    1.3841 C   0  0  0  0  0  0  0  0  0  0  0  0
    6.2855   -1.9711    1.1411 C   0  0  0  0  0  0  0  0  0  0  0  0
    2.6199   -1.5169    0.9263 N   0  0  0  0  0  0  0  0  0  0  0  0
    2.1861   -0.5022   -0.0111 C   0  0  0  0  0  0  0  0  0  0  0  0
    3.0570   -0.1789   -0.8516 O   0  0  0  0  0  0  0  0  0  0  0  0
    0.8898    0.0147    0.0877 N   0  0  0  0  0  0  0  0  0  0  0  0
    0.2114    1.0072   -0.6424 C   0  0  2  0  0  0  0  0  0  0  0  0
   -1.0711    0.5570   -1.2915 C   0  0  0  0  0  0  0  0  0  0  0  0
   -1.6688    1.4518   -1.9297 O   0  0  0  0  0  0  0  0  0  0  0  0
   -1.4685   -0.7677   -1.1325 N   0  0  0  0  0  0  0  0  0  0  0  0
   -2.6014   -1.4921   -1.5806 C   0  0  0  0  0  0  0  0  0  0  0  0
   -3.9095   -1.1143   -1.0018 C   0  0  0  0  0  0  0  0  0  0  0  0
   -5.0017   -2.0393   -1.5729 C   0  0  0  0  0  0  0  0  0  0  0  0
   -5.8023   -1.3551   -2.6370 C   0  0  0  0  0  0  0  0  0  0  0  0
   -6.6000   -0.2449   -1.9847 C   0  0  0  0  0  0  0  0  0  0  0  0
   -5.7795    0.5361   -1.0003 C   0  0  0  0  0  0  0  0  0  0  0  0
   -4.2752    0.3000   -1.2292 C   0  0  0  0  0  0  0  0  0  0  0  0
   -3.8395   -1.4163    0.4729 C   0  0  0  0  0  0  0  0  0  0  0  0
   -4.1527   -2.6246    1.0061 C   0  0  0  0  0  0  0  0  0  0  0  0
   -4.0694   -2.8261    2.3695 C   0  0  0  0  0  0  0  0  0  0  0  0
   -3.6586   -1.7690    3.1878 C   0  0  0  0  0  0  0  0  0  0  0  0
   -3.3442   -0.5418    2.6100 C   0  0  0  0  0  0  0  0  0  0  0  0
   -3.4388   -0.3824    1.2614 N   0  0  0  0  0  0  0  0  0  0  0  0
    0.9502    1.9549   -1.5202 C   0  0  0  0  0  0  0  0  0  0  0  0
    1.8862    2.8482   -0.8563 C   0  0  0  0  0  0  0  0  0  0  0  0
    3.2547    2.9369   -0.7869 C   0  0  0  0  0  0  0  0  0  0  0  0
    3.6397    3.9900   -0.0416 N   0  0  0  0  0  0  0  0  0  0  0  0
    2.5525    4.6229    0.3980 C   0  0  0  0  0  0  0  0  0  0  0  0
    1.4534    3.9471   -0.0851 C   0  0  0  0  0  0  0  0  0  0  0  0
    0.2163    4.4478    0.2516 C   0  0  0  0  0  0  0  0  0  0  0  0
    0.0952    5.5879    1.0478 C   0  0  0  0  0  0  0  0  0  0  0  0
    1.2073    6.2498    1.5227 C   0  0  0  0  0  0  0  0  0  0  0  0
    2.4338    5.7606    1.1930 C   0  0  0  0  0  0  0  0  0  0  0  0
    9.0328   -2.1390    0.6710 H   0  0  0  0  0  0  0  0  0  0  0  0
    9.7262   -3.6235   -0.1234 H   0  0  0  0  0  0  0  0  0  0  0  0
    9.0549   -3.6890    1.5532 H   0  0  0  0  0  0  0  0  0  0  0  0
    5.4765   -4.4629   -0.9658 H   0  0  0  0  0  0  0  0  0  0  0  0
    3.2788   -3.5301   -0.5698 H   0  0  0  0  0  0  0  0  0  0  0  0
    4.8685   -0.5768    2.0263 H   0  0  0  0  0  0  0  0  0  0  0  0
    7.1373   -1.5357    1.6206 H   0  0  0  0  0  0  0  0  0  0  0  0
    1.9979   -1.8761    1.6791 H   0  0  0  0  0  0  0  0  0  0  0  0
    0.2967   -0.4342    0.8856 H   0  0  0  0  0  0  0  0  0  0  0  0
   -0.1712    1.7560    0.1888 H   0  0  0  0  0  0  0  0  0  0  0  0
   -0.7695   -1.3710   -0.5465 H   0  0  0  0  0  0  0  0  0  0  0  0
   -2.6974   -1.2734   -2.7117 H   0  0  0  0  0  0  0  0  0  0  0  0
   -2.4331   -2.6015   -1.5341 H   0  0  0  0  0  0  0  0  0  0  0  0
   -4.5299   -2.9459   -1.9851 H   0  0  0  0  0  0  0  0  0  0  0  0
   -5.7080   -2.3501   -0.7805 H   0  0  0  0  0  0  0  0  0  0  0  0
   -6.5338   -2.1006   -3.0107 H   0  0  0  0  0  0  0  0  0  0  0  0
   -5.2260   -1.0205   -3.5124 H   0  0  0  0  0  0  0  0  0  0  0  0
   -6.9947    0.3840   -2.8276 H   0  0  0  0  0  0  0  0  0  0  0  0
   -7.4552   -0.6787   -1.4575 H   0  0  0  0  0  0  0  0  0  0  0  0
   -5.9438    1.6139   -1.1902 H   0  0  0  0  0  0  0  0  0  0  0  0
   -6.0240    0.3480    0.0618 H   0  0  0  0  0  0  0  0  0  0  0  0
   -4.0488    0.5721   -2.2591 H   0  0  0  0  0  0  0  0  0  0  0  0
   -3.7680    0.9500   -0.5065 H   0  0  0  0  0  0  0  0  0  0  0  0
   -4.4678   -3.4445    0.3772 H   0  0  0  0  0  0  0  0  0  0  0  0
   -4.3199   -3.7922    2.7967 H   0  0  0  0  0  0  0  0  0  0  0  0
   -3.5784   -1.8834    4.2677 H   0  0  0  0  0  0  0  0  0  0  0  0
   -3.0211    0.3117    3.1881 H   0  0  0  0  0  0  0  0  0  0  0  0
    0.1818    2.5930   -2.0217 H   0  0  0  0  0  0  0  0  0  0  0  0
    1.4512    1.4221   -2.3744 H   0  0  0  0  0  0  0  0  0  0  0  0
    3.9565    2.2805   -1.2599 H   0  0  0  0  0  0  0  0  0  0  0  0
    4.6255    4.2891    0.1758 H   0  0  0  0  0  0  0  0  0  0  0  0
   -0.7108    4.0122   -0.0733 H   0  0  0  0  0  0  0  0  0  0  0  0
   -0.8992    5.9674    1.3023 H   0  0  0  0  0  0  0  0  0  0  0  0
    1.0653    7.1230    2.1321 H   0  0  0  0  0  0  0  0  0  0  0  0
    3.3199    6.2845    1.5688 H   0  0  0  0  0  0  0  0  0  0  0  0
  1  2  1  0
  2  3  1  0
  3  4  2  0
  4  5  1  0
  5  6  2  0
  6  7  1  0
  7  8  2  0
  6  9  1  0
  9 10  1  0
 10 11  2  0
 10 12  1  0
 12 13  1  0
 13 14  1  0
 14 15  2  0
 14 16  1  0
 16 17  1  0
 17 18  1  0
 18 19  1  0
 19 20  1  0
 20 21  1  0
 21 22  1  0
 22 23  1  0
 18 24  1  0
 24 25  2  0
 25 26  1  0
 26 27  2  0
 27 28  1  0
 28 29  2  0
 13 30  1  0
 30 31  1  0
 31 32  2  0
 32 33  1  0
 33 34  1  0
 34 35  2  0
 35 36  1  0
 36 37  2  0
 37 38  1  0
 38 39  2  0
  8  3  1  0
 23 18  1  0
 29 24  1  0
 35 31  1  0
 39 34  1  0
  1 40  1  0
  1 41  1  0
  1 42  1  0
  4 43  1  0
  5 44  1  0
  7 45  1  0
  8 46  1  0
  9 47  1  0
 12 48  1  0
 13 49  1  1
 16 50  1  0
 17 51  1  0
 17 52  1  0
 19 53  1  0
 19 54  1  0
 20 55  1  0
 20 56  1  0
 21 57  1  0
 21 58  1  0
 22 59  1  0
 22 60  1  0
 23 61  1  0
 23 62  1  0
 25 63  1  0
 26 64  1  0
 27 65  1  0
 28 66  1  0
 30 67  1  0
 30 68  1  0
 32 69  1  0
 33 70  1  0
 36 71  1  0
 37 72  1  0
 38 73  1  0
 39 74  1  0
M  END
>  <Ligand ID>  (1) 
LIG0004821

>  <Ligand>  (1) 
CHEMBL3590073

>  <SMILES>  (1) 
COc1ccc(cc1)NC(=O)N[C@H](C(=O)NCC1(CCCCC1)c1ccccn1)Cc1c[nH]c2c1cccc2

>  <CID>  (1) 
122181322.0

>  <ChEMBL ID>  (1) 
nan

>  <InChiKey>  (1) 
NTFUQLNNSFGESC-MHZLTWQESA-N

>  <InChi>  (1) 
InChI=1S/C31H35N5O3/c1-39-24-14-12-23(13-15-24)35-30(38)36-27(19-22-20-33-26-10-4-3-9-25(22)26)29(37)34-21-31(16-6-2-7-17-31)28-11-5-8-18-32-28/h3-5,8-15,18,20,27,33H,2,6-7,16-17,19,21H2,1H3,(H,34,37)(H2,35,36,38)/t27-/m0/s1

>  <IUPAC Name>  (1) 
(2S)-3-(1H-indol-3-yl)-2-[(4-methoxyphenyl)carbamoylamino]-N-[(1-pyridin-2-ylcyclohexyl)methyl]propanamide

$$$$
