
     RDKit          3D

 18 17  0  0  0  0  0  0  0  0999 V2000
    3.1161    0.3529   -0.3238 C   0  0  0  0  0  0  0  0  0  0  0  0
    2.1714   -0.6616    0.3273 C   0  0  0  0  0  0  0  0  0  0  0  0
    0.8471   -0.0165    0.4457 C   0  0  0  0  0  0  0  0  0  0  0  0
   -0.2540   -0.4918   -0.1318 C   0  0  0  0  0  0  0  0  0  0  0  0
   -1.5281    0.2063    0.0337 C   0  0  0  0  0  0  0  0  0  0  0  0
   -2.6350   -0.2243   -0.5152 C   0  0  0  0  0  0  0  0  0  0  0  0
   -3.9052    0.4799   -0.3447 C   0  0  0  0  0  0  0  0  0  0  0  0
   -4.9826    0.0830   -0.8642 O   0  0  0  0  0  0  0  0  0  0  0  0
    3.0778    1.2762    0.3035 H   0  0  0  0  0  0  0  0  0  0  0  0
    4.1458   -0.0505   -0.4012 H   0  0  0  0  0  0  0  0  0  0  0  0
    2.7437    0.6450   -1.3226 H   0  0  0  0  0  0  0  0  0  0  0  0
    2.1524   -1.6104   -0.2124 H   0  0  0  0  0  0  0  0  0  0  0  0
    2.6436   -0.8761    1.3299 H   0  0  0  0  0  0  0  0  0  0  0  0
    0.7833    0.8888    1.0354 H   0  0  0  0  0  0  0  0  0  0  0  0
   -0.1835   -1.3842   -0.7114 H   0  0  0  0  0  0  0  0  0  0  0  0
   -1.5649    1.1104    0.6290 H   0  0  0  0  0  0  0  0  0  0  0  0
   -2.6554   -1.1214   -1.1194 H   0  0  0  0  0  0  0  0  0  0  0  0
   -3.9725    1.3946    0.2505 H   0  0  0  0  0  0  0  0  0  0  0  0
  1  2  1  0
  2  3  1  0
  3  4  2  0
  4  5  1  0
  5  6  2  0
  6  7  1  0
  7  8  2  0
  1  9  1  0
  1 10  1  0
  1 11  1  0
  2 12  1  0
  2 13  1  0
  3 14  1  0
  4 15  1  0
  5 16  1  0
  6 17  1  0
  7 18  1  0
M  END
>  <Ligand ID>  (1) 
LIG0000299

>  <Ligand>  (1) 
2,4-Heptadienal

>  <SMILES>  (1) 
CC/C=C/C=C/C=O

>  <CID>  (1) 
5283321.0

>  <ChEMBL ID>  (1) 
nan

>  <InChiKey>  (1) 
SATICYYAWWYRAM-VNKDHWASSA-N

>  <InChi>  (1) 
InChI=1S/C7H10O/c1-2-3-4-5-6-7-8/h3-7H,2H2,1H3/b4-3+,6-5+

>  <IUPAC Name>  (1) 
(2E,4E)-hepta-2,4-dienal

$$$$
