
     RDKit          3D

 46 47  0  0  0  0  0  0  0  0999 V2000
    7.1753    0.2883    1.5649 C   0  0  0  0  0  0  0  0  0  0  0  0
    6.2371   -0.7444    1.3719 O   0  0  0  0  0  0  0  0  0  0  0  0
    5.1133   -0.6161    0.5666 C   0  0  0  0  0  0  0  0  0  0  0  0
    4.2858   -1.7185    0.4752 C   0  0  0  0  0  0  0  0  0  0  0  0
    3.1649   -1.6118   -0.3180 C   0  0  0  0  0  0  0  0  0  0  0  0
    2.8509   -0.4442   -1.0167 C   0  0  0  0  0  0  0  0  0  0  0  0
    3.6849    0.6460   -0.9168 C   0  0  0  0  0  0  0  0  0  0  0  0
    4.8072    0.5413   -0.1232 C   0  0  0  0  0  0  0  0  0  0  0  0
    1.6305   -0.4652   -1.8292 C   0  0  0  0  0  0  0  0  0  0  0  0
    0.3974   -0.0376   -1.0522 C   0  0  2  0  0  0  0  0  0  0  0  0
   -0.7380   -0.0891   -1.9188 N   0  0  0  0  0  0  0  0  0  0  0  0
   -1.9156    0.3359   -1.2285 C   0  0  0  0  0  0  0  0  0  0  0  0
   -2.2877   -0.6604   -0.1770 C   0  0  1  0  0  0  0  0  0  0  0  0
   -3.5776   -0.2236    0.4754 C   0  0  0  0  0  0  0  0  0  0  0  0
   -4.7211   -0.4234   -0.2646 C   0  0  0  0  0  0  0  0  0  0  0  0
   -5.9527   -0.0626    0.2333 C   0  0  0  0  0  0  0  0  0  0  0  0
   -7.1192   -0.2571   -0.5010 O   0  0  0  0  0  0  0  0  0  0  0  0
   -5.9949    0.5076    1.5060 C   0  0  0  0  0  0  0  0  0  0  0  0
   -4.8406    0.6990    2.2306 C   0  0  0  0  0  0  0  0  0  0  0  0
   -3.5929    0.3379    1.7352 C   0  0  0  0  0  0  0  0  0  0  0  0
   -4.9506    1.2698    3.4875 O   0  0  0  0  0  0  0  0  0  0  0  0
   -2.5275   -1.9125   -0.7383 O   0  0  0  0  0  0  0  0  0  0  0  0
    0.5236    1.3023   -0.4072 C   0  0  0  0  0  0  0  0  0  0  0  0
    7.7907   -0.0186    2.4516 H   0  0  0  0  0  0  0  0  0  0  0  0
    7.8465    0.4388    0.6913 H   0  0  0  0  0  0  0  0  0  0  0  0
    6.6637    1.2283    1.8155 H   0  0  0  0  0  0  0  0  0  0  0  0
    4.4973   -2.6329    1.0000 H   0  0  0  0  0  0  0  0  0  0  0  0
    2.5091   -2.4806   -0.3915 H   0  0  0  0  0  0  0  0  0  0  0  0
    3.4568    1.5596   -1.4565 H   0  0  0  0  0  0  0  0  0  0  0  0
    5.4792    1.3763   -0.0238 H   0  0  0  0  0  0  0  0  0  0  0  0
    1.7574    0.2178   -2.7123 H   0  0  0  0  0  0  0  0  0  0  0  0
    1.4906   -1.4653   -2.2431 H   0  0  0  0  0  0  0  0  0  0  0  0
    0.2921   -0.7816   -0.2257 H   0  0  0  0  0  0  0  0  0  0  0  0
   -0.5858    0.3728   -2.8259 H   0  0  0  0  0  0  0  0  0  0  0  0
   -2.7589    0.5205   -1.9364 H   0  0  0  0  0  0  0  0  0  0  0  0
   -1.7142    1.3327   -0.7626 H   0  0  0  0  0  0  0  0  0  0  0  0
   -1.5285   -0.7759    0.6107 H   0  0  0  0  0  0  0  0  0  0  0  0
   -4.6963   -0.8712   -1.2642 H   0  0  0  0  0  0  0  0  0  0  0  0
   -7.0430   -0.6574   -1.4121 H   0  0  0  0  0  0  0  0  0  0  0  0
   -6.9867    0.7842    1.8795 H   0  0  0  0  0  0  0  0  0  0  0  0
   -2.6767    0.4805    2.2905 H   0  0  0  0  0  0  0  0  0  0  0  0
   -4.4129    2.1038    3.6831 H   0  0  0  0  0  0  0  0  0  0  0  0
   -2.6037   -1.8441   -1.7167 H   0  0  0  0  0  0  0  0  0  0  0  0
   -0.1353    1.3031    0.5110 H   0  0  0  0  0  0  0  0  0  0  0  0
    1.5463    1.5285   -0.0272 H   0  0  0  0  0  0  0  0  0  0  0  0
    0.1600    2.0794   -1.0902 H   0  0  0  0  0  0  0  0  0  0  0  0
  1  2  1  0
  2  3  1  0
  3  4  2  0
  4  5  1  0
  5  6  2  0
  6  7  1  0
  7  8  2  0
  6  9  1  0
  9 10  1  0
 10 11  1  0
 11 12  1  0
 12 13  1  0
 13 14  1  0
 14 15  2  0
 15 16  1  0
 16 17  1  0
 16 18  2  0
 18 19  1  0
 19 20  2  0
 19 21  1  0
 13 22  1  0
 10 23  1  0
  8  3  1  0
 20 14  1  0
  1 24  1  0
  1 25  1  0
  1 26  1  0
  4 27  1  0
  5 28  1  0
  7 29  1  0
  8 30  1  0
  9 31  1  0
  9 32  1  0
 10 33  1  1
 11 34  1  0
 12 35  1  0
 12 36  1  0
 13 37  1  1
 15 38  1  0
 17 39  1  0
 18 40  1  0
 20 41  1  0
 21 42  1  0
 22 43  1  0
 23 44  1  0
 23 45  1  0
 23 46  1  0
M  END
>  <Ligand ID>  (1) 
LIG0005459

>  <Ligand>  (1) 
CHEMBL228992

>  <SMILES>  (1) 
COc1ccc(cc1)C[C@H](NC[C@@H](c1cc(O)cc(c1)O)O)C

>  <CID>  (1) 
16735257.0

>  <ChEMBL ID>  (1) 
nan

>  <InChiKey>  (1) 
WHAUNCTVVNUUIP-XIKOKIGWSA-N

>  <InChi>  (1) 
InChI=1S/C18H23NO4/c1-12(7-13-3-5-17(23-2)6-4-13)19-11-18(22)14-8-15(20)10-16(21)9-14/h3-6,8-10,12,18-22H,7,11H2,1-2H3/t12-,18+/m1/s1

>  <IUPAC Name>  (1) 
5-[(1R)-1-hydroxy-2-[[(2R)-1-(4-methoxyphenyl)propan-2-yl]amino]ethyl]benzene-1,3-diol

$$$$
