
     RDKit          3D

 52 54  0  0  0  0  0  0  0  0999 V2000
   -7.1243   -1.0493    0.3781 C   0  0  0  0  0  0  0  0  0  0  0  0
   -5.8524   -1.2629   -0.1692 O   0  0  0  0  0  0  0  0  0  0  0  0
   -4.8613   -0.3203   -0.2889 C   0  0  0  0  0  0  0  0  0  0  0  0
   -3.6664   -0.6869   -0.8490 C   0  0  0  0  0  0  0  0  0  0  0  0
   -2.6024    0.2050   -1.0106 C   0  0  0  0  0  0  0  0  0  0  0  0
   -2.8123    1.4927   -0.5738 C   0  0  0  0  0  0  0  0  0  0  0  0
   -3.9969    1.9160   -0.0020 C   0  0  0  0  0  0  0  0  0  0  0  0
   -5.0063    0.9865    0.1284 C   0  0  0  0  0  0  0  0  0  0  0  0
   -4.1274    3.2347    0.4130 O   0  0  0  0  0  0  0  0  0  0  0  0
   -5.3154    3.6940    0.9964 C   0  0  0  0  0  0  0  0  0  0  0  0
   -1.3433   -0.2678   -1.6282 C   0  0  0  0  0  0  0  0  0  0  0  0
   -0.3923   -0.8597   -0.6616 C   0  0  0  0  0  0  0  0  0  0  0  0
   -0.2634   -2.2458   -0.6049 C   0  0  0  0  0  0  0  0  0  0  0  0
    0.6013   -2.8667    0.2734 C   0  0  0  0  0  0  0  0  0  0  0  0
    0.7055   -4.3558    0.2980 C   0  0  0  0  0  0  0  0  0  0  0  0
    1.3251   -2.0767    1.0835 N   0  0  0  0  0  0  0  0  0  0  0  0
    1.2287   -0.7431    1.0579 N   0  0  0  0  0  0  0  0  0  0  0  0
    0.3869   -0.1321    0.2034 C   0  0  0  0  0  0  0  0  0  0  0  0
    0.3150    1.1235    0.1988 O   0  0  0  0  0  0  0  0  0  0  0  0
    2.0480    0.0035    1.9655 C   0  0  0  0  0  0  0  0  0  0  0  0
    3.3692    0.3806    1.4555 C   0  0  0  0  0  0  0  0  0  0  0  0
    4.1258    1.0457    2.2297 O   0  0  0  0  0  0  0  0  0  0  0  0
    3.8696    0.0636    0.1717 N   0  0  0  0  0  0  0  0  0  0  0  0
    5.1796    0.5138   -0.1520 C   0  0  0  0  0  0  0  0  0  0  0  0
    6.2173   -0.3660    0.1629 C   0  0  0  0  0  0  0  0  0  0  0  0
    7.5221   -0.0168   -0.1134 C   0  0  0  0  0  0  0  0  0  0  0  0
    7.7814    1.2098   -0.7026 C   0  0  0  0  0  0  0  0  0  0  0  0
    6.7456    2.0575   -1.0028 C   0  0  0  0  0  0  0  0  0  0  0  0
    5.4252    1.7383   -0.7391 C   0  0  0  0  0  0  0  0  0  0  0  0
    9.7744    1.6994   -1.1047 I   0  0  0  0  0  0  0  0  0  0  0  0
   -7.8431   -1.6880   -0.1762 H   0  0  0  0  0  0  0  0  0  0  0  0
   -7.2030   -1.3736    1.4354 H   0  0  0  0  0  0  0  0  0  0  0  0
   -7.4824   -0.0191    0.3290 H   0  0  0  0  0  0  0  0  0  0  0  0
   -3.5021   -1.6981   -1.1919 H   0  0  0  0  0  0  0  0  0  0  0  0
   -2.0300    2.2259   -0.6738 H   0  0  0  0  0  0  0  0  0  0  0  0
   -5.9397    1.3156    0.5779 H   0  0  0  0  0  0  0  0  0  0  0  0
   -5.4049    3.1698    1.9856 H   0  0  0  0  0  0  0  0  0  0  0  0
   -6.2055    3.3576    0.4129 H   0  0  0  0  0  0  0  0  0  0  0  0
   -5.2786    4.7990    1.1117 H   0  0  0  0  0  0  0  0  0  0  0  0
   -0.8602    0.5495   -2.2018 H   0  0  0  0  0  0  0  0  0  0  0  0
   -1.6465   -1.0401   -2.3738 H   0  0  0  0  0  0  0  0  0  0  0  0
   -0.8428   -2.8581   -1.2524 H   0  0  0  0  0  0  0  0  0  0  0  0
    0.7425   -4.7873   -0.7152 H   0  0  0  0  0  0  0  0  0  0  0  0
    1.5690   -4.6069    0.9416 H   0  0  0  0  0  0  0  0  0  0  0  0
   -0.2110   -4.7708    0.7761 H   0  0  0  0  0  0  0  0  0  0  0  0
    2.2309   -0.5470    2.9292 H   0  0  0  0  0  0  0  0  0  0  0  0
    1.5561    0.9604    2.3073 H   0  0  0  0  0  0  0  0  0  0  0  0
    3.2643   -0.4822   -0.4805 H   0  0  0  0  0  0  0  0  0  0  0  0
    6.0043   -1.3282    0.6259 H   0  0  0  0  0  0  0  0  0  0  0  0
    8.3015   -0.7162    0.1410 H   0  0  0  0  0  0  0  0  0  0  0  0
    6.9268    3.0182   -1.4624 H   0  0  0  0  0  0  0  0  0  0  0  0
    4.5979    2.4049   -0.9743 H   0  0  0  0  0  0  0  0  0  0  0  0
  1  2  1  0
  2  3  1  0
  3  4  2  0
  4  5  1  0
  5  6  2  0
  6  7  1  0
  7  8  2  0
  7  9  1  0
  9 10  1  0
  5 11  1  0
 11 12  1  0
 12 13  2  0
 13 14  1  0
 14 15  1  0
 14 16  2  0
 16 17  1  0
 17 18  1  0
 18 19  2  0
 17 20  1  0
 20 21  1  0
 21 22  2  0
 21 23  1  0
 23 24  1  0
 24 25  2  0
 25 26  1  0
 26 27  2  0
 27 28  1  0
 28 29  2  0
 27 30  1  0
  8  3  1  0
 18 12  1  0
 29 24  1  0
  1 31  1  0
  1 32  1  0
  1 33  1  0
  4 34  1  0
  6 35  1  0
  8 36  1  0
 10 37  1  0
 10 38  1  0
 10 39  1  0
 11 40  1  0
 11 41  1  0
 13 42  1  0
 15 43  1  0
 15 44  1  0
 15 45  1  0
 20 46  1  0
 20 47  1  0
 23 48  1  0
 25 49  1  0
 26 50  1  0
 28 51  1  0
 29 52  1  0
M  END
>  <Ligand ID>  (1) 
LIG0003938

>  <Ligand>  (1) 
CHEMBL2391442

>  <SMILES>  (1) 
COc1cc(cc(c1)OC)Cc1cc(C)nn(c1=O)CC(=O)Nc1ccc(cc1)I

>  <CID>  (1) 
71699065.0

>  <ChEMBL ID>  (1) 
nan

>  <InChiKey>  (1) 
COJKOCXBOKKCES-UHFFFAOYSA-N

>  <InChi>  (1) 
InChI=1S/C22H22IN3O4/c1-14-8-16(9-15-10-19(29-2)12-20(11-15)30-3)22(28)26(25-14)13-21(27)24-18-6-4-17(23)5-7-18/h4-8,10-12H,9,13H2,1-3H3,(H,24,27)

>  <IUPAC Name>  (1) 
2-[5-[(3,5-dimethoxyphenyl)methyl]-3-methyl-6-oxopyridazin-1-yl]-N-(4-iodophenyl)acetamide

$$$$
