
     RDKit          3D

124125  0  0  0  0  0  0  0  0999 V2000
    7.5547   -1.2215    2.9136 N   0  0  0  0  0  0  0  0  0  0  0  0
    6.3921   -2.0807    3.0579 C   0  0  0  0  0  0  0  0  0  0  0  0
    5.1126   -1.3282    2.7581 C   0  0  0  0  0  0  0  0  0  0  0  0
    5.1156   -0.7882    1.3366 C   0  0  0  0  0  0  0  0  0  0  0  0
    5.2250   -1.8472    0.2939 C   0  0  0  0  0  0  0  0  0  0  0  0
    5.2157   -1.2885   -1.1070 C   0  0  1  0  0  0  0  0  0  0  0  0
    3.9501   -0.5344   -1.3516 C   0  0  0  0  0  0  0  0  0  0  0  0
    4.1200    0.7207   -1.5607 O   0  0  0  0  0  0  0  0  0  0  0  0
    2.6692   -1.1289   -1.3575 N   0  0  0  0  0  0  0  0  0  0  0  0
    2.2609   -2.5047   -1.1584 C   0  0  0  0  0  0  0  0  0  0  0  0
    0.9097   -2.6061   -1.8837 C   0  0  0  0  0  0  0  0  0  0  0  0
    0.7487   -1.2642   -2.5713 C   0  0  0  0  0  0  0  0  0  0  0  0
    1.4571   -0.3288   -1.6018 C   0  0  1  0  0  0  0  0  0  0  0  0
    0.7372   -0.2231   -0.3229 C   0  0  0  0  0  0  0  0  0  0  0  0
    0.9770   -0.8982    0.7000 O   0  0  0  0  0  0  0  0  0  0  0  0
   -0.3185    0.7259   -0.2386 N   0  0  0  0  0  0  0  0  0  0  0  0
   -1.1245    0.9528    0.9239 C   0  0  2  0  0  0  0  0  0  0  0  0
   -2.5691    0.8997    0.6223 C   0  0  0  0  0  0  0  0  0  0  0  0
   -2.8545    0.7696   -0.6191 O   0  0  0  0  0  0  0  0  0  0  0  0
   -3.5589    0.9812    1.6287 N   0  0  0  0  0  0  0  0  0  0  0  0
   -5.0193    0.9054    1.3061 C   0  0  2  0  0  0  0  0  0  0  0  0
   -5.1671   -0.3852    0.6233 C   0  0  0  0  0  0  0  0  0  0  0  0
   -4.1035   -1.0874    0.5167 O   0  0  0  0  0  0  0  0  0  0  0  0
   -6.3310   -0.9596    0.0697 N   0  0  0  0  0  0  0  0  0  0  0  0
   -6.3293   -2.2556   -0.5723 C   0  0  2  0  0  0  0  0  0  0  0  0
   -6.7488   -2.2883   -1.9657 C   0  0  0  0  0  0  0  0  0  0  0  0
   -6.7414   -3.4446   -2.5368 O   0  0  0  0  0  0  0  0  0  0  0  0
   -7.1514   -1.2447   -2.7478 O   0  0  0  0  0  0  0  0  0  0  0  0
   -6.9294   -3.3125    0.2984 C   0  0  0  0  0  0  0  0  0  0  0  0
   -8.6488   -3.1715    0.8421 Si  0  0  0  0  0  4  0  0  0  0  0  0
   -9.5417   -1.6204    0.2948 C   0  0  0  0  0  0  0  0  0  0  0  0
   -8.6686   -3.1215    2.7368 C   0  0  0  0  0  0  0  0  0  0  0  0
   -9.6714   -4.6937    0.4248 C   0  0  0  0  0  0  0  0  0  0  0  0
   -5.3202    2.1325    0.5758 C   0  0  0  0  0  0  0  0  0  0  0  0
   -7.0390    2.4691    0.0158 Si  0  0  0  0  0  4  0  0  0  0  0  0
   -7.2455    4.3472   -0.1359 C   0  0  0  0  0  0  0  0  0  0  0  0
   -7.3072    1.7884   -1.6982 C   0  0  0  0  0  0  0  0  0  0  0  0
   -8.3541    1.9106    1.2088 C   0  0  0  0  0  0  0  0  0  0  0  0
   -0.7869    2.1429    1.7180 C   0  0  0  0  0  0  0  0  0  0  0  0
   -0.8429    3.4450    1.0229 C   0  0  0  0  0  0  0  0  0  0  0  0
   -1.9227    4.2827    0.9713 C   0  0  0  0  0  0  0  0  0  0  0  0
   -1.8837    5.4955    0.2811 C   0  0  0  0  0  0  0  0  0  0  0  0
   -0.7248    5.8855   -0.3803 C   0  0  0  0  0  0  0  0  0  0  0  0
    0.3522    5.0290   -0.3170 C   0  0  0  0  0  0  0  0  0  0  0  0
    0.3305    3.8294    0.3588 C   0  0  0  0  0  0  0  0  0  0  0  0
   -0.5851    7.0519   -1.0812 O   0  0  0  0  0  0  0  0  0  0  0  0
    6.3191   -0.3562   -1.2332 N   0  0  0  0  0  0  0  0  0  0  0  0
    7.3285   -0.6308   -2.1554 C   0  0  0  0  0  0  0  0  0  0  0  0
    7.2092   -1.7052   -2.8385 O   0  0  0  0  0  0  0  0  0  0  0  0
    8.5289    0.1760   -2.4432 C   0  0  2  0  0  0  0  0  0  0  0  0
    9.7409   -0.7040   -2.5615 C   0  0  0  0  0  0  0  0  0  0  0  0
   10.0691   -1.4985   -1.3635 C   0  0  0  0  0  0  0  0  0  0  0  0
   10.3833   -0.7644   -0.1088 C   0  0  0  0  0  0  0  0  0  0  0  0
   11.5642    0.1684   -0.2348 C   0  0  0  0  0  0  0  0  0  0  0  0
   11.7520    0.8102    1.0548 N   0  0  0  0  0  0  0  0  0  0  0  0
    8.6581    1.2581   -1.5201 N   0  0  0  0  0  0  0  0  0  0  0  0
    8.0004   -1.2960    1.9807 H   0  0  0  0  0  0  0  0  0  0  0  0
    7.3187   -0.2270    3.1552 H   0  0  0  0  0  0  0  0  0  0  0  0
    6.5100   -2.9260    2.3513 H   0  0  0  0  0  0  0  0  0  0  0  0
    6.3774   -2.3957    4.1205 H   0  0  0  0  0  0  0  0  0  0  0  0
    4.9904   -0.4967    3.4620 H   0  0  0  0  0  0  0  0  0  0  0  0
    4.2486   -2.0017    2.8545 H   0  0  0  0  0  0  0  0  0  0  0  0
    4.2237   -0.1510    1.1906 H   0  0  0  0  0  0  0  0  0  0  0  0
    5.9918   -0.0936    1.2155 H   0  0  0  0  0  0  0  0  0  0  0  0
    4.5201   -2.6925    0.4454 H   0  0  0  0  0  0  0  0  0  0  0  0
    6.2450   -2.3063    0.4306 H   0  0  0  0  0  0  0  0  0  0  0  0
    5.2924   -2.1201   -1.8499 H   0  0  0  0  0  0  0  0  0  0  0  0
    3.0070   -3.2116   -1.5933 H   0  0  0  0  0  0  0  0  0  0  0  0
    2.1561   -2.7328   -0.0802 H   0  0  0  0  0  0  0  0  0  0  0  0
    1.0326   -3.4090   -2.6399 H   0  0  0  0  0  0  0  0  0  0  0  0
    0.1033   -2.8011   -1.1657 H   0  0  0  0  0  0  0  0  0  0  0  0
   -0.2780   -0.9846   -2.7954 H   0  0  0  0  0  0  0  0  0  0  0  0
    1.3425   -1.2711   -3.5062 H   0  0  0  0  0  0  0  0  0  0  0  0
    1.6572    0.6254   -2.0832 H   0  0  0  0  0  0  0  0  0  0  0  0
   -0.5467    1.3263   -1.0894 H   0  0  0  0  0  0  0  0  0  0  0  0
   -0.9066    0.0663    1.5987 H   0  0  0  0  0  0  0  0  0  0  0  0
   -3.2666    1.0979    2.6249 H   0  0  0  0  0  0  0  0  0  0  0  0
   -5.5612    0.7847    2.2824 H   0  0  0  0  0  0  0  0  0  0  0  0
   -7.2090   -0.4167    0.1364 H   0  0  0  0  0  0  0  0  0  0  0  0
   -5.2248   -2.5377   -0.5973 H   0  0  0  0  0  0  0  0  0  0  0  0
   -7.2239   -1.3078   -3.7606 H   0  0  0  0  0  0  0  0  0  0  0  0
   -6.8178   -4.3336   -0.1911 H   0  0  0  0  0  0  0  0  0  0  0  0
   -6.2583   -3.4246    1.1977 H   0  0  0  0  0  0  0  0  0  0  0  0
   -9.2230   -1.3077   -0.7213 H   0  0  0  0  0  0  0  0  0  0  0  0
  -10.6524   -1.8056    0.3064 H   0  0  0  0  0  0  0  0  0  0  0  0
   -9.3526   -0.8398    1.0512 H   0  0  0  0  0  0  0  0  0  0  0  0
   -8.2643   -2.1530    3.0835 H   0  0  0  0  0  0  0  0  0  0  0  0
   -9.7411   -3.1234    3.0707 H   0  0  0  0  0  0  0  0  0  0  0  0
   -8.1329   -4.0023    3.1605 H   0  0  0  0  0  0  0  0  0  0  0  0
  -10.5448   -4.7196    1.0849 H   0  0  0  0  0  0  0  0  0  0  0  0
   -9.9973   -4.5558   -0.6262 H   0  0  0  0  0  0  0  0  0  0  0  0
   -9.0363   -5.5830    0.5208 H   0  0  0  0  0  0  0  0  0  0  0  0
   -4.6193    2.2006   -0.3023 H   0  0  0  0  0  0  0  0  0  0  0  0
   -4.9419    2.9952    1.2288 H   0  0  0  0  0  0  0  0  0  0  0  0
   -6.2893    4.8184   -0.4229 H   0  0  0  0  0  0  0  0  0  0  0  0
   -7.5628    4.7570    0.8458 H   0  0  0  0  0  0  0  0  0  0  0  0
   -7.9998    4.5490   -0.9006 H   0  0  0  0  0  0  0  0  0  0  0  0
   -6.3653    1.2645   -2.0259 H   0  0  0  0  0  0  0  0  0  0  0  0
   -8.1894    1.0990   -1.7195 H   0  0  0  0  0  0  0  0  0  0  0  0
   -7.4403    2.5968   -2.4446 H   0  0  0  0  0  0  0  0  0  0  0  0
   -9.2017    1.4766    0.6048 H   0  0  0  0  0  0  0  0  0  0  0  0
   -8.8328    2.7766    1.7584 H   0  0  0  0  0  0  0  0  0  0  0  0
   -7.9873    1.2214    1.9745 H   0  0  0  0  0  0  0  0  0  0  0  0
    0.1369    2.0398    2.3419 H   0  0  0  0  0  0  0  0  0  0  0  0
   -1.5830    2.2284    2.5207 H   0  0  0  0  0  0  0  0  0  0  0  0
   -2.8159    3.9746    1.4907 H   0  0  0  0  0  0  0  0  0  0  0  0
   -2.7388    6.1591    0.2384 H   0  0  0  0  0  0  0  0  0  0  0  0
    1.2866    5.3072   -0.8308 H   0  0  0  0  0  0  0  0  0  0  0  0
    1.2199    3.1798    0.3791 H   0  0  0  0  0  0  0  0  0  0  0  0
   -0.9401    7.9253   -0.7697 H   0  0  0  0  0  0  0  0  0  0  0  0
    6.3206    0.4923   -0.6457 H   0  0  0  0  0  0  0  0  0  0  0  0
    8.2990    0.6324   -3.4711 H   0  0  0  0  0  0  0  0  0  0  0  0
   10.6179   -0.1511   -2.9867 H   0  0  0  0  0  0  0  0  0  0  0  0
    9.4899   -1.4420   -3.3817 H   0  0  0  0  0  0  0  0  0  0  0  0
   10.8769   -2.2368   -1.6214 H   0  0  0  0  0  0  0  0  0  0  0  0
    9.1796   -2.1574   -1.1492 H   0  0  0  0  0  0  0  0  0  0  0  0
    9.5261   -0.3129    0.4168 H   0  0  0  0  0  0  0  0  0  0  0  0
   10.7440   -1.5619    0.6216 H   0  0  0  0  0  0  0  0  0  0  0  0
   11.4309    0.9498   -0.9841 H   0  0  0  0  0  0  0  0  0  0  0  0
   12.4424   -0.4873   -0.4794 H   0  0  0  0  0  0  0  0  0  0  0  0
   12.4783    1.5377    1.0704 H   0  0  0  0  0  0  0  0  0  0  0  0
   10.8509    1.2370    1.3554 H   0  0  0  0  0  0  0  0  0  0  0  0
    8.5291    2.1880   -1.9431 H   0  0  0  0  0  0  0  0  0  0  0  0
    8.1070    1.1786   -0.6804 H   0  0  0  0  0  0  0  0  0  0  0  0
  1  2  1  0
  2  3  1  0
  3  4  1  0
  4  5  1  0
  5  6  1  0
  6  7  1  0
  7  8  2  0
  7  9  1  0
  9 10  1  0
 10 11  1  0
 11 12  1  0
 12 13  1  0
 13 14  1  0
 14 15  2  0
 14 16  1  0
 16 17  1  0
 17 18  1  0
 18 19  2  0
 18 20  1  0
 20 21  1  0
 21 22  1  0
 22 23  2  0
 22 24  1  0
 24 25  1  0
 25 26  1  0
 26 27  2  0
 26 28  1  0
 25 29  1  0
 29 30  1  0
 30 31  1  0
 30 32  1  0
 30 33  1  0
 21 34  1  0
 34 35  1  0
 35 36  1  0
 35 37  1  0
 35 38  1  0
 17 39  1  0
 39 40  1  0
 40 41  2  0
 41 42  1  0
 42 43  2  0
 43 44  1  0
 44 45  2  0
 43 46  1  0
  6 47  1  0
 47 48  1  0
 48 49  2  0
 48 50  1  0
 50 51  1  0
 51 52  1  0
 52 53  1  0
 53 54  1  0
 54 55  1  0
 50 56  1  0
 13  9  1  0
 45 40  1  0
  1 57  1  0
  1 58  1  0
  2 59  1  0
  2 60  1  0
  3 61  1  0
  3 62  1  0
  4 63  1  0
  4 64  1  0
  5 65  1  0
  5 66  1  0
  6 67  1  6
 10 68  1  0
 10 69  1  0
 11 70  1  0
 11 71  1  0
 12 72  1  0
 12 73  1  0
 13 74  1  6
 16 75  1  0
 17 76  1  1
 20 77  1  0
 21 78  1  1
 24 79  1  0
 25 80  1  6
 28 81  1  0
 29 82  1  0
 29 83  1  0
 31 84  1  0
 31 85  1  0
 31 86  1  0
 32 87  1  0
 32 88  1  0
 32 89  1  0
 33 90  1  0
 33 91  1  0
 33 92  1  0
 34 93  1  0
 34 94  1  0
 36 95  1  0
 36 96  1  0
 36 97  1  0
 37 98  1  0
 37 99  1  0
 37100  1  0
 38101  1  0
 38102  1  0
 38103  1  0
 39104  1  0
 39105  1  0
 41106  1  0
 42107  1  0
 44108  1  0
 45109  1  0
 46110  1  0
 47111  1  0
 50112  1  6
 51113  1  0
 51114  1  0
 52115  1  0
 52116  1  0
 53117  1  0
 53118  1  0
 54119  1  0
 54120  1  0
 55121  1  0
 55122  1  0
 56123  1  0
 56124  1  0
M  END
>  <Ligand ID>  (1) 
LIG0005559

>  <Ligand>  (1) 
CHEMBL3622803

>  <SMILES>  (1) 
NCCCC[C@@H](C(=O)N1CCC[C@H]1C(=O)N[C@H](C(=O)N[C@H](C(=O)N[C@H](C(=O)O)C[Si](C)(C)C)C[Si](C)(C)C)Cc1ccc(cc1)O)NC(=O)[C@H](CCCCN)N

>  <CID>  (1) 
122192057.0

>  <ChEMBL ID>  (1) 
nan

>  <InChiKey>  (1) 
GHSASOSXURNENS-JNRWAQIZSA-N

>  <InChi>  (1) 
InChI=1S/C38H68N8O8Si2/c1-55(2,3)23-30(35(50)45-31(38(53)54)24-56(4,5)6)44-34(49)29(22-25-15-17-26(47)18-16-25)43-36(51)32-14-11-21-46(32)37(52)28(13-8-10-20-40)42-33(48)27(41)12-7-9-19-39/h15-18,27-32,47H,7-14,19-24,39-41H2,1-6H3,(H,42,48)(H,43,51)(H,44,49)(H,45,50)(H,53,54)/t27-,28-,29-,30-,31-,32-/m0/s1

>  <IUPAC Name>  (1) 
(2R)-2-[[(2R)-2-[[(2S)-2-[[(2S)-1-[(2S)-6-amino-2-[[(2S)-2,6-diaminohexanoyl]amino]hexanoyl]pyrrolidine-2-carbonyl]amino]-3-(4-hydroxyphenyl)propanoyl]amino]-3-trimethylsilylpropanoyl]amino]-3-trimethylsilylpropanoic acid

$$$$
