
     RDKit          3D

 43 45  0  0  0  0  0  0  0  0999 V2000
   -3.2408   -1.0879   -0.6247 C   0  0  0  0  0  0  0  0  0  0  0  0
   -1.8954   -0.4237   -0.6336 C   0  0  1  0  0  0  0  0  0  0  0  0
   -2.0313    0.9088    0.0700 C   0  0  0  0  0  0  0  0  0  0  0  0
   -0.7910    1.7419   -0.0985 C   0  0  0  0  0  0  0  0  0  0  0  0
   -0.9359    2.9163    0.8724 C   0  0  0  0  0  0  0  0  0  0  0  0
   -0.6555    2.3083   -1.4860 C   0  0  0  0  0  0  0  0  0  0  0  0
    0.4164    0.9274    0.2539 C   0  0  0  0  0  0  0  0  0  0  0  0
    0.3608   -0.3992    0.3261 C   0  0  0  0  0  0  0  0  0  0  0  0
   -0.8424   -1.2042    0.0796 C   0  0  0  0  0  0  0  0  0  0  0  0
   -0.4295   -2.4337   -0.7268 C   0  0  0  0  0  0  0  0  0  0  0  0
   -1.3714   -1.7554    1.4089 C   0  0  0  0  0  0  0  0  0  0  0  0
    1.6219   -1.1405    0.6872 C   0  0  0  0  0  0  0  0  0  0  0  0
    2.8370   -0.5233    0.0785 C   0  0  2  0  0  0  0  0  0  0  0  0
    2.8843    0.8401   -0.0220 C   0  0  2  0  0  0  0  0  0  0  0  0
    1.7118    1.6184    0.5307 C   0  0  0  0  0  0  0  0  0  0  0  0
    2.5516    0.1519   -1.2053 O   0  0  0  0  0  0  0  0  0  0  0  0
    4.0420   -1.3890   -0.0853 C   0  0  0  0  0  0  0  0  0  0  0  0
   -3.1775   -2.0932   -1.0524 H   0  0  0  0  0  0  0  0  0  0  0  0
   -3.9358   -0.4467   -1.2134 H   0  0  0  0  0  0  0  0  0  0  0  0
   -3.6765   -1.1297    0.4071 H   0  0  0  0  0  0  0  0  0  0  0  0
   -1.6014   -0.2568   -1.6765 H   0  0  0  0  0  0  0  0  0  0  0  0
   -2.2096    0.7871    1.1414 H   0  0  0  0  0  0  0  0  0  0  0  0
   -2.8725    1.5064   -0.3333 H   0  0  0  0  0  0  0  0  0  0  0  0
   -1.0731    2.5427    1.9068 H   0  0  0  0  0  0  0  0  0  0  0  0
   -1.8755    3.4406    0.5603 H   0  0  0  0  0  0  0  0  0  0  0  0
   -0.0805    3.6160    0.7760 H   0  0  0  0  0  0  0  0  0  0  0  0
   -0.4131    1.5447   -2.2313 H   0  0  0  0  0  0  0  0  0  0  0  0
    0.0999    3.1131   -1.4851 H   0  0  0  0  0  0  0  0  0  0  0  0
   -1.6280    2.7752   -1.7613 H   0  0  0  0  0  0  0  0  0  0  0  0
    0.4357   -2.2095   -1.3894 H   0  0  0  0  0  0  0  0  0  0  0  0
   -1.2830   -2.8001   -1.3605 H   0  0  0  0  0  0  0  0  0  0  0  0
   -0.1451   -3.2512   -0.0462 H   0  0  0  0  0  0  0  0  0  0  0  0
   -0.5075   -1.8433    2.0868 H   0  0  0  0  0  0  0  0  0  0  0  0
   -2.1705   -1.1319    1.8367 H   0  0  0  0  0  0  0  0  0  0  0  0
   -1.8038   -2.7672    1.2435 H   0  0  0  0  0  0  0  0  0  0  0  0
    1.5704   -2.2003    0.3107 H   0  0  0  0  0  0  0  0  0  0  0  0
    1.7318   -1.2077    1.7865 H   0  0  0  0  0  0  0  0  0  0  0  0
    3.8167    1.4389   -0.0655 H   0  0  0  0  0  0  0  0  0  0  0  0
    1.8380    1.8349    1.6100 H   0  0  0  0  0  0  0  0  0  0  0  0
    1.6881    2.5701   -0.0392 H   0  0  0  0  0  0  0  0  0  0  0  0
    4.8210   -0.8930   -0.6833 H   0  0  0  0  0  0  0  0  0  0  0  0
    4.4877   -1.6882    0.8833 H   0  0  0  0  0  0  0  0  0  0  0  0
    3.7313   -2.3073   -0.6368 H   0  0  0  0  0  0  0  0  0  0  0  0
  1  2  1  0
  2  3  1  0
  3  4  1  0
  4  5  1  0
  4  6  1  0
  4  7  1  0
  7  8  2  0
  8  9  1  0
  9 10  1  0
  9 11  1  0
  8 12  1  0
 12 13  1  0
 13 14  1  0
 14 15  1  0
 14 16  1  0
 13 17  1  6
  9  2  1  0
 16 13  1  0
 15  7  1  0
  1 18  1  0
  1 19  1  0
  1 20  1  0
  2 21  1  6
  3 22  1  0
  3 23  1  0
  5 24  1  0
  5 25  1  0
  5 26  1  0
  6 27  1  0
  6 28  1  0
  6 29  1  0
 10 30  1  0
 10 31  1  0
 10 32  1  0
 11 33  1  0
 11 34  1  0
 11 35  1  0
 12 36  1  0
 12 37  1  0
 14 38  1  6
 15 39  1  0
 15 40  1  0
 17 41  1  0
 17 42  1  0
 17 43  1  0
M  END
>  <Ligand ID>  (1) 
LIG0002040

>  <Ligand>  (1) 
Moxalone

>  <SMILES>  (1) 
C[C@H]1CC(C)(C)C2=C(C1(C)C)C[C@@]1([C@H](C2)O1)C

>  <CID>  (1) 
44152188.0

>  <ChEMBL ID>  (1) 
nan

>  <InChiKey>  (1) 
OHHWFLWQMHUVFQ-YNZJMPHRSA-N

>  <InChi>  (1) 
InChI=1S/C16H26O/c1-10-8-14(2,3)11-7-13-16(6,17-13)9-12(11)15(10,4)5/h10,13H,7-9H2,1-6H3/t10-,13-,16+/m0/s1

>  <IUPAC Name>  (1) 
(1aR,4S,7aS)-1a,3,3,4,6,6-hexamethyl-4,5,7,7a-tetrahydro-2H-naphtho[2,3-b]oxirene

$$$$
