
     RDKit          3D

 43 45  0  0  0  0  0  0  0  0999 V2000
   -3.0149    2.4891    0.6966 O   0  0  0  0  0  0  0  0  0  0  0  0
   -2.1725    1.5495    0.6716 C   0  0  0  0  0  0  0  0  0  0  0  0
   -0.8470    1.7767    1.2596 C   0  0  0  0  0  0  0  0  0  0  0  0
    0.0206    0.6146    1.1611 N   0  0  0  0  0  0  0  0  0  0  0  0
    0.0715   -0.3196    2.0996 N   0  0  0  0  0  0  0  0  0  0  0  0
    0.8922   -1.3903    1.9760 C   0  0  0  0  0  0  0  0  0  0  0  0
    0.9553   -2.4488    3.0308 C   0  0  0  0  0  0  0  0  0  0  0  0
    1.6973   -1.5167    0.8478 C   0  0  0  0  0  0  0  0  0  0  0  0
    1.6291   -0.5202   -0.1315 C   0  0  0  0  0  0  0  0  0  0  0  0
    0.7850    0.5457    0.0338 C   0  0  0  0  0  0  0  0  0  0  0  0
    0.7254    1.4393   -0.8473 O   0  0  0  0  0  0  0  0  0  0  0  0
    2.5137   -0.7114   -1.3080 C   0  0  0  0  0  0  0  0  0  0  0  0
    3.7187    0.1543   -1.2832 C   0  0  0  0  0  0  0  0  0  0  0  0
    4.8398   -0.3046   -0.6159 C   0  0  0  0  0  0  0  0  0  0  0  0
    5.9905    0.4899   -0.5793 C   0  0  0  0  0  0  0  0  0  0  0  0
    5.9693    1.7101   -1.2126 C   0  0  0  0  0  0  0  0  0  0  0  0
    4.8883    2.1584   -1.8591 N   0  0  0  0  0  0  0  0  0  0  0  0
    3.7853    1.3894   -1.8904 C   0  0  0  0  0  0  0  0  0  0  0  0
   -2.4761    0.2769    0.0879 N   0  0  0  0  0  0  0  0  0  0  0  0
   -3.7734    0.0792   -0.4784 C   0  0  0  0  0  0  0  0  0  0  0  0
   -4.7724   -0.4099    0.3439 C   0  0  0  0  0  0  0  0  0  0  0  0
   -6.0367   -0.6075   -0.1873 C   0  0  0  0  0  0  0  0  0  0  0  0
   -6.2740   -0.3164   -1.5116 C   0  0  0  0  0  0  0  0  0  0  0  0
   -5.2925    0.1708   -2.3444 C   0  0  0  0  0  0  0  0  0  0  0  0
   -4.0127    0.3754   -1.8235 C   0  0  0  0  0  0  0  0  0  0  0  0
   -8.0077   -0.5813   -2.2628 Br  0  0  0  0  0  0  0  0  0  0  0  0
   -1.0151    1.9895    2.3537 H   0  0  0  0  0  0  0  0  0  0  0  0
   -0.2943    2.6417    0.8859 H   0  0  0  0  0  0  0  0  0  0  0  0
    1.9278   -2.9705    2.9824 H   0  0  0  0  0  0  0  0  0  0  0  0
    0.9012   -2.0036    4.0528 H   0  0  0  0  0  0  0  0  0  0  0  0
    0.1902   -3.2333    2.8519 H   0  0  0  0  0  0  0  0  0  0  0  0
    2.3606   -2.3716    0.7367 H   0  0  0  0  0  0  0  0  0  0  0  0
    1.8681   -0.4303   -2.1920 H   0  0  0  0  0  0  0  0  0  0  0  0
    2.7413   -1.7832   -1.4838 H   0  0  0  0  0  0  0  0  0  0  0  0
    4.8391   -1.2666   -0.1234 H   0  0  0  0  0  0  0  0  0  0  0  0
    6.8920    0.1714   -0.0685 H   0  0  0  0  0  0  0  0  0  0  0  0
    6.8410    2.3742   -1.2166 H   0  0  0  0  0  0  0  0  0  0  0  0
    2.9358    1.7762   -2.4189 H   0  0  0  0  0  0  0  0  0  0  0  0
   -1.7931   -0.5093    0.0587 H   0  0  0  0  0  0  0  0  0  0  0  0
   -4.6169   -0.6481    1.3886 H   0  0  0  0  0  0  0  0  0  0  0  0
   -6.8479   -0.9820    0.3945 H   0  0  0  0  0  0  0  0  0  0  0  0
   -5.5113    0.3934   -3.3928 H   0  0  0  0  0  0  0  0  0  0  0  0
   -3.2209    0.7599   -2.4635 H   0  0  0  0  0  0  0  0  0  0  0  0
  1  2  2  0
  2  3  1  0
  3  4  1  0
  4  5  1  0
  5  6  2  0
  6  7  1  0
  6  8  1  0
  8  9  2  0
  9 10  1  0
 10 11  2  0
  9 12  1  0
 12 13  1  0
 13 14  2  0
 14 15  1  0
 15 16  2  0
 16 17  1  0
 17 18  2  0
  2 19  1  0
 19 20  1  0
 20 21  2  0
 21 22  1  0
 22 23  2  0
 23 24  1  0
 24 25  2  0
 23 26  1  0
 10  4  1  0
 18 13  1  0
 25 20  1  0
  3 27  1  0
  3 28  1  0
  7 29  1  0
  7 30  1  0
  7 31  1  0
  8 32  1  0
 12 33  1  0
 12 34  1  0
 14 35  1  0
 15 36  1  0
 16 37  1  0
 18 38  1  0
 19 39  1  0
 21 40  1  0
 22 41  1  0
 24 42  1  0
 25 43  1  0
M  END
>  <Ligand ID>  (1) 
LIG0003952

>  <Ligand>  (1) 
CHEMBL2391439

>  <SMILES>  (1) 
O=C(Cn1nc(C)cc(c1=O)Cc1cccnc1)Nc1ccc(cc1)Br

>  <CID>  (1) 
71699062.0

>  <ChEMBL ID>  (1) 
nan

>  <InChiKey>  (1) 
HYBNRKVKHVLZGU-UHFFFAOYSA-N

>  <InChi>  (1) 
InChI=1S/C19H17BrN4O2/c1-13-9-15(10-14-3-2-8-21-11-14)19(26)24(23-13)12-18(25)22-17-6-4-16(20)5-7-17/h2-9,11H,10,12H2,1H3,(H,22,25)

>  <IUPAC Name>  (1) 
N-(4-bromophenyl)-2-[3-methyl-6-oxo-5-(pyridin-3-ylmethyl)pyridazin-1-yl]acetamide

$$$$
