
     RDKit          3D

 45 46  0  0  0  0  0  0  0  0999 V2000
   -0.7561   -0.0816   -2.2422 O   0  0  0  0  0  0  0  0  0  0  0  0
   -1.5515   -0.1823   -1.1405 C   0  0  2  0  0  0  0  0  0  0  0  0
   -1.3051   -1.4057   -0.2798 C   0  0  1  0  0  0  0  0  0  0  0  0
    0.0401   -1.2973    0.3537 C   0  0  0  0  0  0  0  0  0  0  0  0
    1.0079   -1.4632   -0.6458 O   0  0  0  0  0  0  0  0  0  0  0  0
    2.5704   -1.3603   -0.0482 P   0  0  0  0  0  0  0  0  0  0  0  0
    3.4167   -2.3301   -0.8756 O   0  0  0  0  0  0  0  0  0  0  0  0
    3.1383    0.2039   -0.2617 O   0  0  0  0  0  0  0  0  0  0  0  0
    4.8170    0.3077   -0.1454 P   0  0  0  0  0  0  0  0  0  0  0  0
    5.5258   -0.2310   -1.3597 O   0  0  0  0  0  0  0  0  0  0  0  0
    5.2262    1.9420   -0.0024 O   0  0  0  0  0  0  0  0  0  0  0  0
    6.8510    2.1681    0.3931 P   0  0  0  0  0  0  0  0  0  0  0  0
    6.9559    3.4765    1.1464 O   0  0  0  0  0  0  0  0  0  0  0  0
    7.4555    0.9381    1.3788 O   0  0  0  0  0  0  0  0  0  0  0  0
    7.7394    2.2728   -1.0512 O   0  0  0  0  0  0  0  0  0  0  0  0
    5.2905   -0.5590    1.2376 O   0  0  0  0  0  0  0  0  0  0  0  0
    2.6656   -1.8945    1.5511 O   0  0  0  0  0  0  0  0  0  0  0  0
   -2.3557   -1.2550    0.6297 O   0  0  0  0  0  0  0  0  0  0  0  0
   -3.4822   -0.9426   -0.0842 C   0  0  2  0  0  0  0  0  0  0  0  0
   -3.0231   -0.4660   -1.4690 C   0  0  2  0  0  0  0  0  0  0  0  0
   -3.0362   -1.5846   -2.4038 N   0  0  0  0  0  0  0  0  0  0  0  0
   -4.2237    0.1726    0.4751 N   0  0  0  0  0  0  0  0  0  0  0  0
   -3.6822    0.8440    1.5035 C   0  0  0  0  0  0  0  0  0  0  0  0
   -4.3683    1.8994    2.0438 C   0  0  0  0  0  0  0  0  0  0  0  0
   -5.6063    2.2287    1.4955 C   0  0  0  0  0  0  0  0  0  0  0  0
   -6.2370    3.1993    1.9926 O   0  0  0  0  0  0  0  0  0  0  0  0
   -6.0988    1.5096    0.4553 N   0  0  0  0  0  0  0  0  0  0  0  0
   -5.4108    0.4656   -0.0726 C   0  0  0  0  0  0  0  0  0  0  0  0
   -5.8987   -0.1903   -1.0484 O   0  0  0  0  0  0  0  0  0  0  0  0
   -0.2869    0.8077   -2.2102 H   0  0  0  0  0  0  0  0  0  0  0  0
   -1.5302    0.6973   -0.4702 H   0  0  0  0  0  0  0  0  0  0  0  0
   -1.4600   -2.3368   -0.8505 H   0  0  0  0  0  0  0  0  0  0  0  0
    0.1238   -2.0782    1.1463 H   0  0  0  0  0  0  0  0  0  0  0  0
    0.1560   -0.2903    0.7800 H   0  0  0  0  0  0  0  0  0  0  0  0
    7.6427    0.1343    0.8550 H   0  0  0  0  0  0  0  0  0  0  0  0
    8.6505    1.9541   -0.8674 H   0  0  0  0  0  0  0  0  0  0  0  0
    5.3313   -1.5146    0.9648 H   0  0  0  0  0  0  0  0  0  0  0  0
    2.5508   -2.8964    1.5039 H   0  0  0  0  0  0  0  0  0  0  0  0
   -4.1598   -1.8244   -0.1655 H   0  0  0  0  0  0  0  0  0  0  0  0
   -3.5615    0.4178   -1.8174 H   0  0  0  0  0  0  0  0  0  0  0  0
   -2.0841   -1.7830   -2.7827 H   0  0  0  0  0  0  0  0  0  0  0  0
   -3.2942   -2.4775   -1.8896 H   0  0  0  0  0  0  0  0  0  0  0  0
   -2.7267    0.5448    1.8831 H   0  0  0  0  0  0  0  0  0  0  0  0
   -3.9731    2.4650    2.8674 H   0  0  0  0  0  0  0  0  0  0  0  0
   -7.0431    1.7953    0.0705 H   0  0  0  0  0  0  0  0  0  0  0  0
  1  2  1  0
  2  3  1  0
  3  4  1  0
  4  5  1  0
  5  6  1  0
  6  7  2  0
  6  8  1  0
  8  9  1  0
  9 10  2  0
  9 11  1  0
 11 12  1  0
 12 13  2  0
 12 14  1  0
 12 15  1  0
  9 16  1  0
  6 17  1  0
  3 18  1  0
 18 19  1  0
 19 20  1  0
 20 21  1  0
 19 22  1  0
 22 23  1  0
 23 24  2  0
 24 25  1  0
 25 26  2  0
 25 27  1  0
 27 28  1  0
 28 29  2  0
 20  2  1  0
 28 22  1  0
  1 30  1  0
  2 31  1  1
  3 32  1  6
  4 33  1  0
  4 34  1  0
 14 35  1  0
 15 36  1  0
 16 37  1  0
 17 38  1  0
 19 39  1  6
 20 40  1  6
 21 41  1  0
 21 42  1  0
 23 43  1  0
 24 44  1  0
 27 45  1  0
M  END
>  <Ligand ID>  (1) 
LIG0002815

>  <Ligand>  (1) 
CHEMBL385098

>  <SMILES>  (1) 
O[C@@H]1[C@@H](COP(=O)(OP(=O)(OP(=O)(O)O)O)O)O[C@H]([C@@H]1N)n1ccc(=O)[nH]c1=O

>  <CID>  (1) 
11525909.0

>  <ChEMBL ID>  (1) 
nan

>  <InChiKey>  (1) 
RJZLOYMABJJGTA-XVFCMESISA-N

>  <InChi>  (1) 
InChI=1S/C9H16N3O14P3/c10-6-7(14)4(24-8(6)12-2-1-5(13)11-9(12)15)3-23-28(19,20)26-29(21,22)25-27(16,17)18/h1-2,4,6-8,14H,3,10H2,(H,19,20)(H,21,22)(H,11,13,15)(H2,16,17,18)/t4-,6-,7-,8-/m1/s1

>  <IUPAC Name>  (1) 
[[(2R,3S,4R,5R)-4-amino-5-(2,4-dioxopyrimidin-1-yl)-3-hydroxyoxolan-2-yl]methoxy-hydroxyphosphoryl] phosphono hydrogen phosphate

$$$$
