
     RDKit          3D

 55 58  0  0  0  0  0  0  0  0999 V2000
    3.7416    1.4326    0.9904 C   0  0  0  0  0  0  0  0  0  0  0  0
    3.4190   -0.0479    0.9741 C   0  0  2  0  0  0  0  0  0  0  0  0
    4.7019   -0.8468    1.0712 C   0  0  0  0  0  0  0  0  0  0  0  0
    5.4324   -0.8106   -0.1906 N   0  0  0  0  0  0  0  0  0  0  0  0
    4.8124   -0.7479   -1.4768 C   0  0  0  0  0  0  0  0  0  0  0  0
    3.3279   -0.6853   -1.4853 C   0  0  0  0  0  0  0  0  0  0  0  0
    2.7034   -0.3323   -0.2506 N   0  0  0  0  0  0  0  0  0  0  0  0
    1.2761   -0.2519   -0.2242 C   0  0  0  0  0  0  0  0  0  0  0  0
    0.6114    0.0273    0.9066 N   0  0  0  0  0  0  0  0  0  0  0  0
   -0.7260    0.1207    0.9968 C   0  0  0  0  0  0  0  0  0  0  0  0
   -1.4840   -0.0798   -0.1341 C   0  0  0  0  0  0  0  0  0  0  0  0
   -0.8300   -0.3668   -1.3039 C   0  0  0  0  0  0  0  0  0  0  0  0
    0.5250   -0.4485   -1.3354 N   0  0  0  0  0  0  0  0  0  0  0  0
   -2.8611    0.0229   -0.0123 O   0  0  0  0  0  0  0  0  0  0  0  0
   -3.6661   -0.1716   -1.1358 C   0  0  0  0  0  0  0  0  0  0  0  0
   -5.1149   -0.0123   -0.7551 C   0  0  0  0  0  0  0  0  0  0  0  0
   -5.7501    1.2076   -0.7965 C   0  0  0  0  0  0  0  0  0  0  0  0
   -7.0891    1.3641   -0.4508 C   0  0  0  0  0  0  0  0  0  0  0  0
   -7.7783    0.2200   -0.0532 C   0  0  0  0  0  0  0  0  0  0  0  0
   -7.1505   -1.0072   -0.0083 C   0  0  0  0  0  0  0  0  0  0  0  0
   -5.8047   -1.1433   -0.3596 C   0  0  0  0  0  0  0  0  0  0  0  0
   -9.4621    0.4042    0.3810 S   0  0  0  0  0  0  0  0  0  0  0  0
  -10.1436   -0.9120    0.1032 O   0  0  0  0  0  0  0  0  0  0  0  0
  -10.1359    1.4454   -0.4680 O   0  0  0  0  0  0  0  0  0  0  0  0
   -9.6473    0.7330    2.1171 C   0  0  0  0  0  0  0  0  0  0  0  0
    6.8495   -0.8418   -0.1025 C   0  0  0  0  0  0  0  0  0  0  0  0
    7.6978   -1.8825   -0.1194 N   0  0  0  0  0  0  0  0  0  0  0  0
    8.9524   -1.4787   -0.0117 N   0  0  0  0  0  0  0  0  0  0  0  0
    8.8889   -0.1232    0.0769 C   0  0  0  0  0  0  0  0  0  0  0  0
    7.6078    0.2206    0.0184 O   0  0  0  0  0  0  0  0  0  0  0  0
   10.0084    0.8472    0.2153 C   0  0  0  0  0  0  0  0  0  0  0  0
   11.0143    0.3210    0.9969 F   0  0  0  0  0  0  0  0  0  0  0  0
    9.5106    1.9457    0.9287 F   0  0  0  0  0  0  0  0  0  0  0  0
   10.4710    1.2981   -1.0058 F   0  0  0  0  0  0  0  0  0  0  0  0
    3.5987    1.8711   -0.0385 H   0  0  0  0  0  0  0  0  0  0  0  0
    3.0172    1.9888    1.6246 H   0  0  0  0  0  0  0  0  0  0  0  0
    4.7960    1.6367    1.2639 H   0  0  0  0  0  0  0  0  0  0  0  0
    2.7842   -0.3182    1.8343 H   0  0  0  0  0  0  0  0  0  0  0  0
    5.2954   -0.3328    1.8834 H   0  0  0  0  0  0  0  0  0  0  0  0
    4.5601   -1.8857    1.4076 H   0  0  0  0  0  0  0  0  0  0  0  0
    5.2983    0.0743   -2.0532 H   0  0  0  0  0  0  0  0  0  0  0  0
    5.1193   -1.6877   -2.0262 H   0  0  0  0  0  0  0  0  0  0  0  0
    3.0504    0.1275   -2.2200 H   0  0  0  0  0  0  0  0  0  0  0  0
    2.8722   -1.6087   -1.9451 H   0  0  0  0  0  0  0  0  0  0  0  0
   -1.2096    0.3519    1.9527 H   0  0  0  0  0  0  0  0  0  0  0  0
   -1.4330   -0.5226   -2.1853 H   0  0  0  0  0  0  0  0  0  0  0  0
   -3.4546   -1.1797   -1.5478 H   0  0  0  0  0  0  0  0  0  0  0  0
   -3.4711    0.5595   -1.9535 H   0  0  0  0  0  0  0  0  0  0  0  0
   -5.2141    2.1026   -1.1069 H   0  0  0  0  0  0  0  0  0  0  0  0
   -7.5416    2.3370   -0.4983 H   0  0  0  0  0  0  0  0  0  0  0  0
   -7.7161   -1.8894    0.3082 H   0  0  0  0  0  0  0  0  0  0  0  0
   -5.3184   -2.1116   -0.3213 H   0  0  0  0  0  0  0  0  0  0  0  0
  -10.5436    0.2015    2.5329 H   0  0  0  0  0  0  0  0  0  0  0  0
   -9.6324    1.8082    2.3545 H   0  0  0  0  0  0  0  0  0  0  0  0
   -8.7658    0.2712    2.6371 H   0  0  0  0  0  0  0  0  0  0  0  0
  1  2  1  0
  2  3  1  0
  3  4  1  0
  4  5  1  0
  5  6  1  0
  6  7  1  0
  7  8  1  0
  8  9  2  0
  9 10  1  0
 10 11  2  0
 11 12  1  0
 12 13  2  0
 11 14  1  0
 14 15  1  0
 15 16  1  0
 16 17  2  0
 17 18  1  0
 18 19  2  0
 19 20  1  0
 20 21  2  0
 19 22  1  0
 22 23  2  0
 22 24  2  0
 22 25  1  0
  4 26  1  0
 26 27  2  0
 27 28  1  0
 28 29  2  0
 29 30  1  0
 29 31  1  0
 31 32  1  0
 31 33  1  0
 31 34  1  0
  7  2  1  0
 13  8  1  0
 21 16  1  0
 30 26  1  0
  1 35  1  0
  1 36  1  0
  1 37  1  0
  2 38  1  1
  3 39  1  0
  3 40  1  0
  5 41  1  0
  5 42  1  0
  6 43  1  0
  6 44  1  0
 10 45  1  0
 12 46  1  0
 15 47  1  0
 15 48  1  0
 17 49  1  0
 18 50  1  0
 20 51  1  0
 21 52  1  0
 25 53  1  0
 25 54  1  0
 25 55  1  0
M  END
>  <Ligand ID>  (1) 
LIG0005323

>  <Ligand>  (1) 
CHEMBL3357997

>  <SMILES>  (1) 
C[C@@H]1CN(CCN1c1ncc(cn1)OCc1ccc(cc1)S(=O)(=O)C)c1nnc(o1)C(F)(F)F

>  <CID>  (1) 
118722573.0

>  <ChEMBL ID>  (1) 
nan

>  <InChiKey>  (1) 
OKBIYBZBOXQZAS-CYBMUJFWSA-N

>  <InChi>  (1) 
InChI=1S/C20H21F3N6O4S/c1-13-11-28(19-27-26-17(33-19)20(21,22)23)7-8-29(13)18-24-9-15(10-25-18)32-12-14-3-5-16(6-4-14)34(2,30)31/h3-6,9-10,13H,7-8,11-12H2,1-2H3/t13-/m1/s1

>  <IUPAC Name>  (1) 
2-[(3R)-3-methyl-4-[5-[(4-methylsulfonylphenyl)methoxy]pyrimidin-2-yl]piperazin-1-yl]-5-(trifluoromethyl)-1,3,4-oxadiazole

$$$$
