
     RDKit          3D

 50 52  0  0  0  0  0  0  0  0999 V2000
    7.0839    1.3757    0.8093 N   0  0  0  0  0  0  0  0  0  0  0  0
    6.2968    0.7808   -0.2485 C   0  0  0  0  0  0  0  0  0  0  0  0
    6.8629    0.0285   -1.0838 O   0  0  0  0  0  0  0  0  0  0  0  0
    4.8686    1.0562   -0.3354 C   0  0  0  0  0  0  0  0  0  0  0  0
    3.9452   -0.0785   -0.0026 C   0  0  0  0  0  0  0  0  0  0  0  0
    2.5617    0.4004   -0.1520 N   0  0  0  0  0  0  0  0  0  0  0  0
    1.4431   -0.4457    0.1558 C   0  0  0  0  0  0  0  0  0  0  0  0
    1.5725   -1.6209    0.5710 O   0  0  0  0  0  0  0  0  0  0  0  0
    0.0981    0.0983   -0.0280 C   0  0  0  0  0  0  0  0  0  0  0  0
   -0.0730    1.3463   -0.4800 N   0  0  0  0  0  0  0  0  0  0  0  0
   -1.3004    1.8649   -0.6606 C   0  0  0  0  0  0  0  0  0  0  0  0
   -2.4674    1.1749   -0.4026 C   0  0  0  0  0  0  0  0  0  0  0  0
   -2.3315   -0.1419    0.0722 C   0  0  0  0  0  0  0  0  0  0  0  0
   -1.0099   -0.6404    0.2461 C   0  0  0  0  0  0  0  0  0  0  0  0
   -3.3016   -0.9845    0.3770 O   0  0  0  0  0  0  0  0  0  0  0  0
   -4.5802   -1.3040    0.4612 C   0  0  2  0  0  0  0  0  0  0  0  0
   -5.1050   -1.5255    1.8822 C   0  0  0  0  0  0  0  0  0  0  0  0
   -4.9490   -0.3957    2.6188 F   0  0  0  0  0  0  0  0  0  0  0  0
   -4.5125   -2.6407    2.4320 F   0  0  0  0  0  0  0  0  0  0  0  0
   -6.4818   -1.7401    1.7235 F   0  0  0  0  0  0  0  0  0  0  0  0
   -4.7911   -2.6529   -0.2828 C   0  0  0  0  0  0  0  0  0  0  0  0
   -3.8021    1.7264   -0.5436 C   0  0  0  0  0  0  0  0  0  0  0  0
   -4.5587    1.7764    0.6236 F   0  0  0  0  0  0  0  0  0  0  0  0
   -3.7970    3.1520   -1.0935 C   0  0  0  0  0  0  0  0  0  0  0  0
   -3.7030    2.5631   -2.3621 O   0  0  0  0  0  0  0  0  0  0  0  0
   -4.5146    1.5389   -1.8301 C   0  0  0  0  0  0  0  0  0  0  0  0
    4.1616   -1.3613   -0.6906 C   0  0  0  0  0  0  0  0  0  0  0  0
    4.8059   -2.2088    0.6886 S   0  0  0  0  0  0  0  0  0  0  0  0
    4.0189   -3.4303    1.0816 O   0  0  0  0  0  0  0  0  0  0  0  0
    6.2924   -2.4215    0.6964 O   0  0  0  0  0  0  0  0  0  0  0  0
    4.2327   -0.6923    1.3215 C   0  0  0  0  0  0  0  0  0  0  0  0
    7.3991    0.8184    1.6364 H   0  0  0  0  0  0  0  0  0  0  0  0
    7.3335    2.4054    0.7179 H   0  0  0  0  0  0  0  0  0  0  0  0
    4.5806    1.9013    0.3437 H   0  0  0  0  0  0  0  0  0  0  0  0
    4.6558    1.4546   -1.3557 H   0  0  0  0  0  0  0  0  0  0  0  0
    2.3469    1.3694   -0.4854 H   0  0  0  0  0  0  0  0  0  0  0  0
   -1.2962    2.8953   -1.0443 H   0  0  0  0  0  0  0  0  0  0  0  0
   -0.8574   -1.6524    0.6150 H   0  0  0  0  0  0  0  0  0  0  0  0
   -5.2968   -0.5852    0.0078 H   0  0  0  0  0  0  0  0  0  0  0  0
   -3.8349   -3.1934   -0.1967 H   0  0  0  0  0  0  0  0  0  0  0  0
   -5.5943   -3.2369    0.2179 H   0  0  0  0  0  0  0  0  0  0  0  0
   -5.0116   -2.4245   -1.3389 H   0  0  0  0  0  0  0  0  0  0  0  0
   -2.9387    3.7777   -0.8652 H   0  0  0  0  0  0  0  0  0  0  0  0
   -4.7934    3.6549   -0.9593 H   0  0  0  0  0  0  0  0  0  0  0  0
   -5.5911    1.8050   -1.7339 H   0  0  0  0  0  0  0  0  0  0  0  0
   -4.4224    0.5776   -2.3494 H   0  0  0  0  0  0  0  0  0  0  0  0
    4.8122   -1.3436   -1.6020 H   0  0  0  0  0  0  0  0  0  0  0  0
    3.1998   -1.8245   -1.0270 H   0  0  0  0  0  0  0  0  0  0  0  0
    5.0314   -0.1582    1.9051 H   0  0  0  0  0  0  0  0  0  0  0  0
    3.3121   -0.8390    1.9495 H   0  0  0  0  0  0  0  0  0  0  0  0
  1  2  1  0
  2  3  2  0
  2  4  1  0
  4  5  1  0
  5  6  1  0
  6  7  1  0
  7  8  2  0
  7  9  1  0
  9 10  2  0
 10 11  1  0
 11 12  2  0
 12 13  1  0
 13 14  2  0
 13 15  1  0
 15 16  1  0
 16 17  1  0
 17 18  1  0
 17 19  1  0
 17 20  1  0
 16 21  1  0
 12 22  1  0
 22 23  1  0
 22 24  1  0
 24 25  1  0
 25 26  1  0
  5 27  1  0
 27 28  1  0
 28 29  2  0
 28 30  2  0
 28 31  1  0
 31  5  1  0
 14  9  1  0
 26 22  1  0
  1 32  1  0
  1 33  1  0
  4 34  1  0
  4 35  1  0
  6 36  1  0
 11 37  1  0
 14 38  1  0
 16 39  1  6
 21 40  1  0
 21 41  1  0
 21 42  1  0
 24 43  1  0
 24 44  1  0
 26 45  1  0
 26 46  1  0
 27 47  1  0
 27 48  1  0
 31 49  1  0
 31 50  1  0
M  END
>  <Ligand ID>  (1) 
LIG0005178

>  <Ligand>  (1) 
CHEMBL3904541

>  <SMILES>  (1) 
NC(=O)CC1(NC(=O)c2ncc(c(c2)O[C@H](C(F)(F)F)C)C2(F)COC2)CS(=O)(=O)C1

>  <CID>  (1) 
90214987.0

>  <ChEMBL ID>  (1) 
nan

>  <InChiKey>  (1) 
HFEPWKMWODBFMR-VIFPVBQESA-N

>  <InChi>  (1) 
InChI=1S/C17H19F4N3O6S/c1-9(17(19,20)21)30-12-2-11(23-4-10(12)16(18)5-29-6-16)14(26)24-15(3-13(22)25)7-31(27,28)8-15/h2,4,9H,3,5-8H2,1H3,(H2,22,25)(H,24,26)/t9-/m0/s1

>  <IUPAC Name>  (1) 
N-[3-(2-amino-2-oxoethyl)-1,1-dioxothietan-3-yl]-5-(3-fluorooxetan-3-yl)-4-[(2S)-1,1,1-trifluoropropan-2-yl]oxypyridine-2-carboxamide

$$$$
