
     RDKit          3D

 53 55  0  0  0  0  0  0  0  0999 V2000
   -6.4757    0.1640   -1.8017 N   0  0  0  0  0  0  0  0  0  0  0  0
   -5.6854   -0.8459   -1.1538 C   0  0  0  0  0  0  0  0  0  0  0  0
   -6.2996   -1.8329   -0.6833 O   0  0  0  0  0  0  0  0  0  0  0  0
   -4.2241   -0.6479   -1.0912 C   0  0  0  0  0  0  0  0  0  0  0  0
   -3.8161    0.0872    0.1340 C   0  0  1  0  0  0  0  0  0  0  0  0
   -4.2103   -0.6569    1.3562 C   0  0  0  0  0  0  0  0  0  0  0  0
   -3.9540   -0.1328    2.7185 C   0  0  0  0  0  0  0  0  0  0  0  0
   -3.2710   -1.3850    2.2165 C   0  0  0  0  0  0  0  0  0  0  0  0
   -2.4251    0.4875    0.1116 N   0  0  0  0  0  0  0  0  0  0  0  0
   -1.3461   -0.3749   -0.1462 C   0  0  0  0  0  0  0  0  0  0  0  0
   -1.5111   -1.6133   -0.4030 O   0  0  0  0  0  0  0  0  0  0  0  0
    0.0301    0.1222   -0.1297 C   0  0  0  0  0  0  0  0  0  0  0  0
    0.2518    1.4197    0.1362 N   0  0  0  0  0  0  0  0  0  0  0  0
    1.5037    1.9401    0.1648 C   0  0  0  0  0  0  0  0  0  0  0  0
    2.5975    1.1385   -0.0821 C   0  0  0  0  0  0  0  0  0  0  0  0
    2.4329   -0.2236   -0.3633 C   0  0  0  0  0  0  0  0  0  0  0  0
    1.0914   -0.6779   -0.3728 C   0  0  0  0  0  0  0  0  0  0  0  0
    3.3680   -1.1177   -0.6136 O   0  0  0  0  0  0  0  0  0  0  0  0
    4.6722   -1.3883   -0.7205 C   0  0  2  0  0  0  0  0  0  0  0  0
    5.0973   -1.8237   -2.1415 C   0  0  0  0  0  0  0  0  0  0  0  0
    4.8231   -0.8426   -3.0465 F   0  0  0  0  0  0  0  0  0  0  0  0
    6.4686   -2.0286   -2.0552 F   0  0  0  0  0  0  0  0  0  0  0  0
    4.4687   -3.0063   -2.3922 F   0  0  0  0  0  0  0  0  0  0  0  0
    5.0324   -2.6287    0.1478 C   0  0  0  0  0  0  0  0  0  0  0  0
    3.9391    1.7224   -0.1057 C   0  0  0  0  0  0  0  0  0  0  0  0
    4.6095    1.5874   -1.3182 F   0  0  0  0  0  0  0  0  0  0  0  0
    4.0120    3.2030    0.2422 C   0  0  0  0  0  0  0  0  0  0  0  0
    4.0148    2.8219    1.5717 O   0  0  0  0  0  0  0  0  0  0  0  0
    4.7309    1.6698    1.1438 C   0  0  0  0  0  0  0  0  0  0  0  0
   -4.6864    1.3821    0.1733 C   0  0  0  0  0  0  0  0  0  0  0  0
   -6.0486    0.7701   -2.5362 H   0  0  0  0  0  0  0  0  0  0  0  0
   -7.4964    0.3067   -1.5446 H   0  0  0  0  0  0  0  0  0  0  0  0
   -3.7486   -1.6684   -1.0532 H   0  0  0  0  0  0  0  0  0  0  0  0
   -3.9055   -0.1758   -2.0376 H   0  0  0  0  0  0  0  0  0  0  0  0
   -5.2177   -1.1728    1.2237 H   0  0  0  0  0  0  0  0  0  0  0  0
   -3.3669    0.7746    2.9056 H   0  0  0  0  0  0  0  0  0  0  0  0
   -4.7374   -0.3238    3.4759 H   0  0  0  0  0  0  0  0  0  0  0  0
   -3.6030   -2.3700    2.6612 H   0  0  0  0  0  0  0  0  0  0  0  0
   -2.1908   -1.3389    2.0992 H   0  0  0  0  0  0  0  0  0  0  0  0
   -2.1730    1.5053    0.3016 H   0  0  0  0  0  0  0  0  0  0  0  0
    1.5545    2.9937    0.3938 H   0  0  0  0  0  0  0  0  0  0  0  0
    0.8886   -1.7323   -0.5873 H   0  0  0  0  0  0  0  0  0  0  0  0
    5.4380   -0.6570   -0.4329 H   0  0  0  0  0  0  0  0  0  0  0  0
    5.9519   -3.0872   -0.2609 H   0  0  0  0  0  0  0  0  0  0  0  0
    4.1695   -3.3174    0.1151 H   0  0  0  0  0  0  0  0  0  0  0  0
    5.2663   -2.2972    1.1731 H   0  0  0  0  0  0  0  0  0  0  0  0
    3.2421    3.8546   -0.1364 H   0  0  0  0  0  0  0  0  0  0  0  0
    5.0299    3.6146   -0.0395 H   0  0  0  0  0  0  0  0  0  0  0  0
    5.7880    1.9173    1.0299 H   0  0  0  0  0  0  0  0  0  0  0  0
    4.4924    0.8643    1.8736 H   0  0  0  0  0  0  0  0  0  0  0  0
   -4.4839    1.9931   -0.7063 H   0  0  0  0  0  0  0  0  0  0  0  0
   -4.3725    1.9848    1.0613 H   0  0  0  0  0  0  0  0  0  0  0  0
   -5.7161    1.0426    0.3103 H   0  0  0  0  0  0  0  0  0  0  0  0
  1  2  1  0
  2  3  2  0
  2  4  1  0
  4  5  1  0
  5  6  1  0
  6  7  1  0
  7  8  1  0
  5  9  1  6
  9 10  1  0
 10 11  2  0
 10 12  1  0
 12 13  2  0
 13 14  1  0
 14 15  2  0
 15 16  1  0
 16 17  2  0
 16 18  1  0
 18 19  1  0
 19 20  1  0
 20 21  1  0
 20 22  1  0
 20 23  1  0
 19 24  1  0
 15 25  1  0
 25 26  1  0
 25 27  1  0
 27 28  1  0
 28 29  1  0
  5 30  1  0
  8  6  1  0
 17 12  1  0
 29 25  1  0
  1 31  1  0
  1 32  1  0
  4 33  1  0
  4 34  1  0
  6 35  1  0
  7 36  1  0
  7 37  1  0
  8 38  1  0
  8 39  1  0
  9 40  1  0
 14 41  1  0
 17 42  1  0
 19 43  1  1
 24 44  1  0
 24 45  1  0
 24 46  1  0
 27 47  1  0
 27 48  1  0
 29 49  1  0
 29 50  1  0
 30 51  1  0
 30 52  1  0
 30 53  1  0
M  END
>  <Ligand ID>  (1) 
LIG0005174

>  <Ligand>  (1) 
CHEMBL3898300

>  <SMILES>  (1) 
NC(=O)C[C@@](C1CC1)(NC(=O)c1ncc(c(c1)O[C@H](C(F)(F)F)C)C1(F)COC1)C

>  <CID>  (1) 
90214952.0

>  <ChEMBL ID>  (1) 
nan

>  <InChiKey>  (1) 
SLMBKCIBIYWVPD-BTDLBPIBSA-N

>  <InChi>  (1) 
InChI=1S/C19H23F4N3O4/c1-10(19(21,22)23)30-14-5-13(25-7-12(14)18(20)8-29-9-18)16(28)26-17(2,6-15(24)27)11-3-4-11/h5,7,10-11H,3-4,6,8-9H2,1-2H3,(H2,24,27)(H,26,28)/t10-,17-/m0/s1

>  <IUPAC Name>  (1) 
N-[(2S)-4-amino-2-cyclopropyl-4-oxobutan-2-yl]-5-(3-fluorooxetan-3-yl)-4-[(2S)-1,1,1-trifluoropropan-2-yl]oxypyridine-2-carboxamide

$$$$
