
     RDKit          3D

 26 26  0  0  0  0  0  0  0  0999 V2000
    2.3469   -1.0741    1.2164 N   0  0  0  0  0  0  0  0  0  0  0  0
    1.6081   -0.5136    0.0734 C   0  0  2  0  0  0  0  0  0  0  0  0
    2.2651    0.7445   -0.3551 C   0  0  0  0  0  0  0  0  0  0  0  0
    1.8786    1.4453   -1.3204 O   0  0  0  0  0  0  0  0  0  0  0  0
    3.3913    1.2176    0.3327 O   0  0  0  0  0  0  0  0  0  0  0  0
    0.2065   -0.2958    0.5780 C   0  0  0  0  0  0  0  0  0  0  0  0
   -0.7344    0.2683   -0.3979 C   0  0  1  0  0  0  0  0  0  0  0  0
   -1.1361   -0.2813   -1.6907 C   0  0  0  0  0  0  0  0  0  0  0  0
   -2.0969   -0.4389   -0.6047 C   0  0  1  0  0  0  0  0  0  0  0  0
   -2.3320   -1.7139    0.0732 C   0  0  0  0  0  0  0  0  0  0  0  0
   -1.5302   -2.6870    0.0957 O   0  0  0  0  0  0  0  0  0  0  0  0
   -3.5357   -1.9495    0.7835 O   0  0  0  0  0  0  0  0  0  0  0  0
   -0.8853    1.7728   -0.2538 C   0  0  0  0  0  0  0  0  0  0  0  0
   -1.6638    2.3835   -1.0415 O   0  0  0  0  0  0  0  0  0  0  0  0
   -0.2189    2.4984    0.6884 O   0  0  0  0  0  0  0  0  0  0  0  0
    2.0215   -0.6232    2.1021 H   0  0  0  0  0  0  0  0  0  0  0  0
    3.3493   -0.8292    1.0801 H   0  0  0  0  0  0  0  0  0  0  0  0
    1.7146   -1.2309   -0.7347 H   0  0  0  0  0  0  0  0  0  0  0  0
    4.1111    1.7526   -0.1472 H   0  0  0  0  0  0  0  0  0  0  0  0
    0.3475    0.4248    1.4504 H   0  0  0  0  0  0  0  0  0  0  0  0
   -0.2117   -1.1872    1.0643 H   0  0  0  0  0  0  0  0  0  0  0  0
   -0.7180   -1.2152   -2.1141 H   0  0  0  0  0  0  0  0  0  0  0  0
   -1.3561    0.4430   -2.5018 H   0  0  0  0  0  0  0  0  0  0  0  0
   -2.9851    0.2364   -0.5633 H   0  0  0  0  0  0  0  0  0  0  0  0
   -3.6020   -2.6580    1.5125 H   0  0  0  0  0  0  0  0  0  0  0  0
   -0.2344    3.5104    0.6743 H   0  0  0  0  0  0  0  0  0  0  0  0
  1  2  1  0
  2  3  1  0
  3  4  2  0
  3  5  1  0
  2  6  1  0
  7  6  1  1
  7  8  1  0
  8  9  1  0
  9 10  1  0
 10 11  2  0
 10 12  1  0
  7 13  1  0
 13 14  2  0
 13 15  1  0
  9  7  1  0
  1 16  1  0
  1 17  1  0
  2 18  1  6
  5 19  1  0
  6 20  1  0
  6 21  1  0
  8 22  1  0
  8 23  1  0
  9 24  1  6
 12 25  1  0
 15 26  1  0
M  END
>  <Ligand ID>  (1) 
LIG0000430

>  <Ligand>  (1) 
CHEMBL3786938

>  <SMILES>  (1) 
N[C@H](C(=O)O)C[C@]1(C[C@H]1C(=O)O)C(=O)O

>  <CID>  (1) 
127031290.0

>  <ChEMBL ID>  (1) 
nan

>  <InChiKey>  (1) 
BHSHZTNHTMTQFY-ZYYOCXGQSA-N

>  <InChi>  (1) 
InChI=1S/C8H11NO6/c9-4(6(12)13)2-8(7(14)15)1-3(8)5(10)11/h3-4H,1-2,9H2,(H,10,11)(H,12,13)(H,14,15)/t3-,4-,8-/m0/s1

>  <IUPAC Name>  (1) 
(1S,2R)-1-[(2S)-2-amino-2-carboxyethyl]cyclopropane-1,2-dicarboxylic acid

$$$$
