
     RDKit          3D

 71 70  0  0  0  0  0  0  0  0999 V2000
  -10.9164    0.0075    0.6143 C   0  0  0  0  0  0  0  0  0  0  0  0
   -9.9780   -1.1663    0.6640 C   0  0  0  0  0  0  0  0  0  0  0  0
   -8.5540   -0.7564    0.3064 C   0  0  0  0  0  0  0  0  0  0  0  0
   -7.6508   -1.9413    0.3638 C   0  0  0  0  0  0  0  0  0  0  0  0
   -6.2245   -1.5029   -0.0135 C   0  0  0  0  0  0  0  0  0  0  0  0
   -5.7568   -0.4812    0.9449 C   0  0  0  0  0  0  0  0  0  0  0  0
   -4.3003   -0.0819    0.6091 C   0  0  0  0  0  0  0  0  0  0  0  0
   -4.2415    0.4805   -0.7444 C   0  0  0  0  0  0  0  0  0  0  0  0
   -2.9690    0.9081   -1.3574 C   0  0  0  0  0  0  0  0  0  0  0  0
   -2.1121    1.9584   -0.7981 C   0  0  0  0  0  0  0  0  0  0  0  0
   -1.5096    1.6526    0.5200 C   0  0  0  0  0  0  0  0  0  0  0  0
   -0.6264    2.8420    0.9428 C   0  0  0  0  0  0  0  0  0  0  0  0
    0.4698    3.0349   -0.0538 C   0  0  0  0  0  0  0  0  0  0  0  0
    1.2872    1.7681   -0.0910 C   0  0  0  0  0  0  0  0  0  0  0  0
    1.0351    0.8562   -0.9375 O   0  0  0  0  0  0  0  0  0  0  0  0
    2.3054    1.6711    0.8384 O   0  0  0  0  0  0  0  0  0  0  0  0
    3.1205    0.5298    0.8735 C   0  0  0  0  0  0  0  0  0  0  0  0
    3.8890    0.3345   -0.4033 C   0  0  2  0  0  0  0  0  0  0  0  0
    4.7323   -0.9242   -0.3068 C   0  0  0  0  0  0  0  0  0  0  0  0
    5.6226   -0.8967    0.7228 O   0  0  0  0  0  0  0  0  0  0  0  0
    6.6704   -2.1810    0.8718 P   0  0  0  0  0  0  0  0  0  0  0  0
    6.7208   -2.4805    2.3818 O   0  0  0  0  0  0  0  0  0  0  0  0
    8.2187   -1.9164    0.4241 O   0  0  0  0  0  0  0  0  0  0  0  0
    8.5547   -0.7989   -0.2625 C   0  0  0  0  0  0  0  0  0  0  0  0
    9.9788   -0.5728   -0.6188 C   0  0  1  0  0  0  0  0  0  0  0  0
   10.8143   -0.1764    0.5453 C   0  0  0  0  0  0  0  0  0  0  0  0
   10.3578    0.6964    1.3211 O   0  0  0  0  0  0  0  0  0  0  0  0
   12.0597   -0.7184    0.8123 O   0  0  0  0  0  0  0  0  0  0  0  0
   10.5790   -1.5842   -1.4476 N   0  0  0  0  0  0  0  0  0  0  0  0
    5.9166   -3.5425    0.2106 O   0  0  0  0  0  0  0  0  0  0  0  0
    4.6855    1.4620   -0.5980 O   0  0  0  0  0  0  0  0  0  0  0  0
  -10.3533    0.9328    0.8179 H   0  0  0  0  0  0  0  0  0  0  0  0
  -11.7369   -0.1742    1.3321 H   0  0  0  0  0  0  0  0  0  0  0  0
  -11.3209    0.1277   -0.4289 H   0  0  0  0  0  0  0  0  0  0  0  0
   -9.9410   -1.4949    1.7359 H   0  0  0  0  0  0  0  0  0  0  0  0
  -10.2967   -1.9447   -0.0347 H   0  0  0  0  0  0  0  0  0  0  0  0
   -8.2775    0.0469    1.0085 H   0  0  0  0  0  0  0  0  0  0  0  0
   -8.4954   -0.3204   -0.7113 H   0  0  0  0  0  0  0  0  0  0  0  0
   -7.9024   -2.7271   -0.3550 H   0  0  0  0  0  0  0  0  0  0  0  0
   -7.5683   -2.3581    1.3985 H   0  0  0  0  0  0  0  0  0  0  0  0
   -6.3446   -1.0394   -1.0359 H   0  0  0  0  0  0  0  0  0  0  0  0
   -5.5491   -2.3574   -0.0532 H   0  0  0  0  0  0  0  0  0  0  0  0
   -5.7717   -0.8470    1.9907 H   0  0  0  0  0  0  0  0  0  0  0  0
   -6.3350    0.4768    0.8864 H   0  0  0  0  0  0  0  0  0  0  0  0
   -4.1005    0.6703    1.4221 H   0  0  0  0  0  0  0  0  0  0  0  0
   -3.6364   -0.9380    0.7649 H   0  0  0  0  0  0  0  0  0  0  0  0
   -4.9913    1.3238   -0.8432 H   0  0  0  0  0  0  0  0  0  0  0  0
   -4.6527   -0.3043   -1.4802 H   0  0  0  0  0  0  0  0  0  0  0  0
   -3.2537    1.1706   -2.4502 H   0  0  0  0  0  0  0  0  0  0  0  0
   -2.3621   -0.0464   -1.5431 H   0  0  0  0  0  0  0  0  0  0  0  0
   -2.6266    2.9745   -0.7897 H   0  0  0  0  0  0  0  0  0  0  0  0
   -1.2839    2.1311   -1.5666 H   0  0  0  0  0  0  0  0  0  0  0  0
   -0.8205    0.7736    0.4365 H   0  0  0  0  0  0  0  0  0  0  0  0
   -2.1765    1.5135    1.3626 H   0  0  0  0  0  0  0  0  0  0  0  0
   -0.2820    2.7115    1.9679 H   0  0  0  0  0  0  0  0  0  0  0  0
   -1.3051    3.7303    0.8984 H   0  0  0  0  0  0  0  0  0  0  0  0
    0.1553    3.3581   -1.0545 H   0  0  0  0  0  0  0  0  0  0  0  0
    1.1704    3.8448    0.3126 H   0  0  0  0  0  0  0  0  0  0  0  0
    3.8054    0.6288    1.7560 H   0  0  0  0  0  0  0  0  0  0  0  0
    2.4668   -0.3388    1.1038 H   0  0  0  0  0  0  0  0  0  0  0  0
    3.2143    0.2359   -1.2669 H   0  0  0  0  0  0  0  0  0  0  0  0
    5.2404   -1.1585   -1.2522 H   0  0  0  0  0  0  0  0  0  0  0  0
    4.0187   -1.7573   -0.1284 H   0  0  0  0  0  0  0  0  0  0  0  0
    7.9730   -0.6602   -1.2213 H   0  0  0  0  0  0  0  0  0  0  0  0
    8.2383    0.0728    0.3531 H   0  0  0  0  0  0  0  0  0  0  0  0
    9.9819    0.3578   -1.2638 H   0  0  0  0  0  0  0  0  0  0  0  0
   12.7503   -0.0620    1.2005 H   0  0  0  0  0  0  0  0  0  0  0  0
   11.0098   -1.2427   -2.3253 H   0  0  0  0  0  0  0  0  0  0  0  0
    9.9230   -2.3558   -1.6816 H   0  0  0  0  0  0  0  0  0  0  0  0
    5.0794   -3.6850    0.7053 H   0  0  0  0  0  0  0  0  0  0  0  0
    4.1784    2.2504   -0.2547 H   0  0  0  0  0  0  0  0  0  0  0  0
  1  2  1  0
  2  3  1  0
  3  4  1  0
  4  5  1  0
  5  6  1  0
  6  7  1  0
  7  8  1  0
  8  9  1  0
  9 10  1  0
 10 11  1  0
 11 12  1  0
 12 13  1  0
 13 14  1  0
 14 15  2  0
 14 16  1  0
 16 17  1  0
 17 18  1  0
 18 19  1  0
 19 20  1  0
 20 21  1  0
 21 22  2  0
 21 23  1  0
 23 24  1  0
 24 25  1  0
 25 26  1  0
 26 27  2  0
 26 28  1  0
 25 29  1  0
 21 30  1  0
 18 31  1  0
  1 32  1  0
  1 33  1  0
  1 34  1  0
  2 35  1  0
  2 36  1  0
  3 37  1  0
  3 38  1  0
  4 39  1  0
  4 40  1  0
  5 41  1  0
  5 42  1  0
  6 43  1  0
  6 44  1  0
  7 45  1  0
  7 46  1  0
  8 47  1  0
  8 48  1  0
  9 49  1  0
  9 50  1  0
 10 51  1  0
 10 52  1  0
 11 53  1  0
 11 54  1  0
 12 55  1  0
 12 56  1  0
 13 57  1  0
 13 58  1  0
 17 59  1  0
 17 60  1  0
 18 61  1  6
 19 62  1  0
 19 63  1  0
 24 64  1  0
 24 65  1  0
 25 66  1  6
 28 67  1  0
 29 68  1  0
 29 69  1  0
 30 70  1  0
 31 71  1  0
M  END
>  <Ligand ID>  (1) 
LIG0004261

>  <Ligand>  (1) 
CHEMBL3577146

>  <SMILES>  (1) 
CCCCCCCCCCCCCC(=O)OC[C@H](COP(=O)(OC[C@@H](C(=O)O)N)O)O

>  <CID>  (1) 
52926277.0

>  <ChEMBL ID>  (1) 
nan

>  <InChiKey>  (1) 
ZJMQYSXCPARLHG-MSOLQXFVSA-N

>  <InChi>  (1) 
InChI=1S/C20H40NO9P/c1-2-3-4-5-6-7-8-9-10-11-12-13-19(23)28-14-17(22)15-29-31(26,27)30-16-18(21)20(24)25/h17-18,22H,2-16,21H2,1H3,(H,24,25)(H,26,27)/t17-,18+/m1/s1

>  <IUPAC Name>  (1) 
(2S)-2-amino-3-[hydroxy-[(2R)-2-hydroxy-3-tetradecanoyloxypropoxy]phosphoryl]oxypropanoic acid

$$$$
