
     RDKit          3D

 55 56  0  0  0  0  0  0  0  0999 V2000
   -8.6897   -1.3183    0.7963 C   0  0  0  0  0  0  0  0  0  0  0  0
   -8.1943   -0.3101   -0.2052 C   0  0  0  0  0  0  0  0  0  0  0  0
   -6.9143   -0.7273   -0.8213 C   0  0  0  0  0  0  0  0  0  0  0  0
   -7.0231   -1.5920   -1.7448 O   0  0  0  0  0  0  0  0  0  0  0  0
   -5.5944   -0.2534   -0.4795 C   0  0  0  0  0  0  0  0  0  0  0  0
   -4.5123   -0.7650   -1.1939 C   0  0  0  0  0  0  0  0  0  0  0  0
   -3.2271   -0.3579   -0.9350 C   0  0  0  0  0  0  0  0  0  0  0  0
   -2.9120    0.5651    0.0290 C   0  0  0  0  0  0  0  0  0  0  0  0
   -4.0109    1.0775    0.7475 C   0  0  0  0  0  0  0  0  0  0  0  0
   -5.2984    0.6708    0.4885 C   0  0  0  0  0  0  0  0  0  0  0  0
   -6.3022    1.2304    1.2470 O   0  0  0  0  0  0  0  0  0  0  0  0
   -3.7454    2.1018    1.8207 C   0  0  0  0  0  0  0  0  0  0  0  0
   -1.7061    1.0235    0.3525 O   0  0  0  0  0  0  0  0  0  0  0  0
   -0.4036    0.8617    0.0003 C   0  0  0  0  0  0  0  0  0  0  0  0
    0.0712   -0.5432    0.2636 C   0  0  0  0  0  0  0  0  0  0  0  0
    1.5007   -0.8045   -0.1067 C   0  0  0  0  0  0  0  0  0  0  0  0
    2.4415    0.1326    0.6710 C   0  0  0  0  0  0  0  0  0  0  0  0
    3.7232   -0.0255    0.4602 O   0  0  0  0  0  0  0  0  0  0  0  0
    4.9775   -0.2068    0.2635 C   0  0  0  0  0  0  0  0  0  0  0  0
    5.5962   -1.4359    0.5822 C   0  0  0  0  0  0  0  0  0  0  0  0
    6.9416   -1.5966    0.3621 C   0  0  0  0  0  0  0  0  0  0  0  0
    7.6746   -0.5671   -0.1655 C   0  0  0  0  0  0  0  0  0  0  0  0
    7.1250    0.6551   -0.4965 C   0  0  0  0  0  0  0  0  0  0  0  0
    5.7799    0.8111   -0.2743 C   0  0  0  0  0  0  0  0  0  0  0  0
    5.1911    2.0254   -0.5937 O   0  0  0  0  0  0  0  0  0  0  0  0
    5.9375    3.0887   -1.1355 C   0  0  0  0  0  0  0  0  0  0  0  0
    7.6065   -2.8487    0.6847 C   0  0  0  0  0  0  0  0  0  0  0  0
    6.9737   -3.8327    1.1740 O   0  0  0  0  0  0  0  0  0  0  0  0
    8.9639   -3.0443    0.4790 O   0  0  0  0  0  0  0  0  0  0  0  0
   -8.0262   -2.2154    0.8107 H   0  0  0  0  0  0  0  0  0  0  0  0
   -9.6710   -1.6986    0.4527 H   0  0  0  0  0  0  0  0  0  0  0  0
   -8.8824   -0.8884    1.8037 H   0  0  0  0  0  0  0  0  0  0  0  0
   -8.1928    0.6692    0.2664 H   0  0  0  0  0  0  0  0  0  0  0  0
   -8.9694   -0.2443   -1.0257 H   0  0  0  0  0  0  0  0  0  0  0  0
   -4.6687   -1.5029   -1.9784 H   0  0  0  0  0  0  0  0  0  0  0  0
   -2.4446   -0.7911   -1.5307 H   0  0  0  0  0  0  0  0  0  0  0  0
   -6.5106    0.9916    2.1935 H   0  0  0  0  0  0  0  0  0  0  0  0
   -3.1617    2.9749    1.4004 H   0  0  0  0  0  0  0  0  0  0  0  0
   -3.2019    1.7016    2.6734 H   0  0  0  0  0  0  0  0  0  0  0  0
   -4.6961    2.5547    2.1562 H   0  0  0  0  0  0  0  0  0  0  0  0
    0.2473    1.5167    0.6635 H   0  0  0  0  0  0  0  0  0  0  0  0
   -0.1345    1.1958   -1.0273 H   0  0  0  0  0  0  0  0  0  0  0  0
   -0.0879   -0.7909    1.3629 H   0  0  0  0  0  0  0  0  0  0  0  0
   -0.5556   -1.3113   -0.2520 H   0  0  0  0  0  0  0  0  0  0  0  0
    1.8071   -1.8247    0.1396 H   0  0  0  0  0  0  0  0  0  0  0  0
    1.5802   -0.6227   -1.2043 H   0  0  0  0  0  0  0  0  0  0  0  0
    2.1113    1.1597    0.3241 H   0  0  0  0  0  0  0  0  0  0  0  0
    2.0744    0.0253    1.7319 H   0  0  0  0  0  0  0  0  0  0  0  0
    4.9739   -2.2411    1.0063 H   0  0  0  0  0  0  0  0  0  0  0  0
    8.7172   -0.6981   -0.3347 H   0  0  0  0  0  0  0  0  0  0  0  0
    7.7143    1.4763   -0.9172 H   0  0  0  0  0  0  0  0  0  0  0  0
    5.2984    3.9708   -1.2490 H   0  0  0  0  0  0  0  0  0  0  0  0
    6.3309    2.8347   -2.1459 H   0  0  0  0  0  0  0  0  0  0  0  0
    6.8235    3.3082   -0.4999 H   0  0  0  0  0  0  0  0  0  0  0  0
    9.5545   -3.5648    1.1057 H   0  0  0  0  0  0  0  0  0  0  0  0
  1  2  1  0
  2  3  1  0
  3  4  2  0
  3  5  1  0
  5  6  2  0
  6  7  1  0
  7  8  2  0
  8  9  1  0
  9 10  2  0
 10 11  1  0
  9 12  1  0
  8 13  1  0
 13 14  1  0
 14 15  1  0
 15 16  1  0
 16 17  1  0
 17 18  1  0
 18 19  1  0
 19 20  2  0
 20 21  1  0
 21 22  2  0
 22 23  1  0
 23 24  2  0
 24 25  1  0
 25 26  1  0
 21 27  1  0
 27 28  2  0
 27 29  1  0
 10  5  1  0
 24 19  1  0
  1 30  1  0
  1 31  1  0
  1 32  1  0
  2 33  1  0
  2 34  1  0
  6 35  1  0
  7 36  1  0
 11 37  1  0
 12 38  1  0
 12 39  1  0
 12 40  1  0
 14 41  1  0
 14 42  1  0
 15 43  1  0
 15 44  1  0
 16 45  1  0
 16 46  1  0
 17 47  1  0
 17 48  1  0
 20 49  1  0
 22 50  1  0
 23 51  1  0
 26 52  1  0
 26 53  1  0
 26 54  1  0
 29 55  1  0
M  END
>  <Ligand ID>  (1) 
LIG0004036

>  <Ligand>  (1) 
CHEMBL3287709

>  <SMILES>  (1) 
CCC(=O)c1ccc(c(c1O)C)OCCCCOc1cc(ccc1OC)C(=O)O

>  <CID>  (1) 
90643880.0

>  <ChEMBL ID>  (1) 
nan

>  <InChiKey>  (1) 
CJVXZWPOBFMNMR-UHFFFAOYSA-N

>  <InChi>  (1) 
InChI=1S/C22H26O7/c1-4-17(23)16-8-10-18(14(2)21(16)24)28-11-5-6-12-29-20-13-15(22(25)26)7-9-19(20)27-3/h7-10,13,24H,4-6,11-12H2,1-3H3,(H,25,26)

>  <IUPAC Name>  (1) 
3-[4-(3-hydroxy-2-methyl-4-propanoylphenoxy)butoxy]-4-methoxybenzoic acid

$$$$
