
     RDKit          3D

 49 51  0  0  0  0  0  0  0  0999 V2000
    4.9363    4.1469    0.0815 N   0  0  0  0  0  0  0  0  0  0  0  0
    4.3520    3.1508    0.1563 C   0  0  0  0  0  0  0  0  0  0  0  0
    3.6373    1.8928    0.2341 C   0  0  0  0  0  0  0  0  0  0  0  0
    2.2663    1.9129    0.0836 C   0  0  0  0  0  0  0  0  0  0  0  0
    1.5170    0.7436    0.1468 C   0  0  0  0  0  0  0  0  0  0  0  0
    2.2057   -0.4320    0.3661 C   0  0  0  0  0  0  0  0  0  0  0  0
    3.5781   -0.4392    0.5153 C   0  0  0  0  0  0  0  0  0  0  0  0
    4.3345    0.7091    0.4554 C   0  0  0  0  0  0  0  0  0  0  0  0
    5.6861    0.7858    0.5919 O   0  0  0  0  0  0  0  0  0  0  0  0
    6.6080   -0.2271    0.8162 C   0  0  0  0  0  0  0  0  0  0  0  0
    7.5499   -0.3032   -0.3755 C   0  0  0  0  0  0  0  0  0  0  0  0
    7.4036   -0.0374    2.0904 C   0  0  0  0  0  0  0  0  0  0  0  0
    0.0795    0.7716   -0.0120 C   0  0  0  0  0  0  0  0  0  0  0  0
   -0.6347    1.8482   -0.2217 O   0  0  0  0  0  0  0  0  0  0  0  0
   -1.8820    1.4527   -0.3078 N   0  0  0  0  0  0  0  0  0  0  0  0
   -1.9606    0.1155   -0.1516 C   0  0  0  0  0  0  0  0  0  0  0  0
   -0.7139   -0.3037    0.0347 N   0  0  0  0  0  0  0  0  0  0  0  0
   -3.1409   -0.7440   -0.1732 C   0  0  0  0  0  0  0  0  0  0  0  0
   -3.0318   -2.1215    0.0079 C   0  0  0  0  0  0  0  0  0  0  0  0
   -4.1253   -2.9548   -0.0076 C   0  0  0  0  0  0  0  0  0  0  0  0
   -5.3607   -2.3769   -0.2119 C   0  0  0  0  0  0  0  0  0  0  0  0
   -5.5072   -1.0119   -0.3955 C   0  0  0  0  0  0  0  0  0  0  0  0
   -4.3936   -0.1990   -0.3754 C   0  0  0  0  0  0  0  0  0  0  0  0
   -4.8003    1.2297   -0.5951 C   0  0  0  0  0  0  0  0  0  0  0  0
   -6.1917    1.0748   -1.2154 C   0  0  0  0  0  0  0  0  0  0  0  0
   -6.7392   -0.2131   -0.6266 C   0  0  1  0  0  0  0  0  0  0  0  0
   -7.6904   -0.8764   -1.4621 N   0  0  0  0  0  0  0  0  0  0  0  0
    0.6911    0.0000    0.0000 Cl  0  0  0  0  0  0  0  0  0  0  0  0
    1.7285    2.8560   -0.0908 H   0  0  0  0  0  0  0  0  0  0  0  0
    1.6600   -1.3476    0.4202 H   0  0  0  0  0  0  0  0  0  0  0  0
    4.0725   -1.3834    0.6850 H   0  0  0  0  0  0  0  0  0  0  0  0
    6.0768   -1.1969    0.8789 H   0  0  0  0  0  0  0  0  0  0  0  0
    8.2117   -1.1864   -0.3046 H   0  0  0  0  0  0  0  0  0  0  0  0
    6.8718   -0.3472   -1.2776 H   0  0  0  0  0  0  0  0  0  0  0  0
    8.0869    0.6495   -0.4489 H   0  0  0  0  0  0  0  0  0  0  0  0
    7.1794   -0.8460    2.8219 H   0  0  0  0  0  0  0  0  0  0  0  0
    7.2803    0.9693    2.5348 H   0  0  0  0  0  0  0  0  0  0  0  0
    8.4787   -0.1579    1.8471 H   0  0  0  0  0  0  0  0  0  0  0  0
   -2.0525   -2.5779    0.1699 H   0  0  0  0  0  0  0  0  0  0  0  0
   -3.9869   -4.0049    0.1364 H   0  0  0  0  0  0  0  0  0  0  0  0
   -6.2118   -3.0364   -0.2226 H   0  0  0  0  0  0  0  0  0  0  0  0
   -4.8297    1.7561    0.3572 H   0  0  0  0  0  0  0  0  0  0  0  0
   -4.1730    1.6833   -1.3815 H   0  0  0  0  0  0  0  0  0  0  0  0
   -6.1339    1.0319   -2.3194 H   0  0  0  0  0  0  0  0  0  0  0  0
   -6.8087    1.9316   -0.8694 H   0  0  0  0  0  0  0  0  0  0  0  0
   -7.1375    0.0275    0.3979 H   0  0  0  0  0  0  0  0  0  0  0  0
   -8.6450   -0.4973   -1.3169 H   0  0  0  0  0  0  0  0  0  0  0  0
   -7.6498   -1.9175   -1.4136 H   0  0  0  0  0  0  0  0  0  0  0  0
   -0.6911    0.0000    0.0000 H   0  0  0  0  0  0  0  0  0  0  0  0
  1  2  3  0
  2  3  1  0
  3  4  2  0
  4  5  1  0
  5  6  2  0
  6  7  1  0
  7  8  2  0
  8  9  1  0
  9 10  1  0
 10 11  1  0
 10 12  1  0
  5 13  1  0
 13 14  1  0
 14 15  1  0
 15 16  2  0
 16 17  1  0
 16 18  1  0
 18 19  2  0
 19 20  1  0
 20 21  2  0
 21 22  1  0
 22 23  2  0
 23 24  1  0
 24 25  1  0
 25 26  1  0
 26 27  1  0
  8  3  1  0
 17 13  2  0
 23 18  1  0
 26 22  1  0
  4 29  1  0
  6 30  1  0
  7 31  1  0
 10 32  1  0
 11 33  1  0
 11 34  1  0
 11 35  1  0
 12 36  1  0
 12 37  1  0
 12 38  1  0
 19 39  1  0
 20 40  1  0
 21 41  1  0
 24 42  1  0
 24 43  1  0
 25 44  1  0
 25 45  1  0
 26 46  1  1
 27 47  1  0
 27 48  1  0
 28 49  1  0
M  END
>  <Ligand ID>  (1) 
LIG0001529

>  <Ligand>  (1) 
SCHEMBL2195606

>  <SMILES>  (1) 
N#Cc1cc(ccc1OC(C)C)c1onc(n1)c1cccc2c1CC[C@H]2N.Cl

>  <CID>  (1) 
67313141.0

>  <ChEMBL ID>  (1) 
nan

>  <InChiKey>  (1) 
VDVDVNSSLBNICM-GMUIIQOCSA-N

>  <InChi>  (1) 
InChI=1S/C21H20N4O2.ClH/c1-12(2)26-19-9-6-13(10-14(19)11-22)21-24-20(25-27-21)17-5-3-4-16-15(17)7-8-18(16)23;/h3-6,9-10,12,18H,7-8,23H2,1-2H3;1H/t18-;/m1./s1

>  <IUPAC Name>  (1) 
5-[3-[(1R)-1-amino-2,3-dihydro-1H-inden-4-yl]-1,2,4-oxadiazol-5-yl]-2-propan-2-yloxybenzonitrile;hydrochloride

$$$$
