
     RDKit          3D

 29 29  0  0  0  0  0  0  0  0999 V2000
    2.8499    1.3968    1.6834 O   0  0  0  0  0  0  0  0  0  0  0  0
    2.8290    1.7110    0.5034 C   0  0  0  0  0  0  0  0  0  0  0  0
    2.1115    0.8719   -0.5272 C   0  0  0  0  0  0  0  0  0  0  0  0
    1.5002   -0.3043    0.1602 C   0  0  0  0  0  0  0  0  0  0  0  0
    0.7450   -1.2480   -0.6997 C   0  0  0  0  0  0  0  0  0  0  0  0
   -0.4276   -0.7192   -1.4305 C   0  0  0  0  0  0  0  0  0  0  0  0
   -1.5242   -0.1781   -0.5981 C   0  0  0  0  0  0  0  0  0  0  0  0
   -1.6347    1.1347   -0.2073 C   0  0  0  0  0  0  0  0  0  0  0  0
   -2.6843    1.5937    0.5792 C   0  0  0  0  0  0  0  0  0  0  0  0
   -3.6677    0.7265    1.0000 C   0  0  0  0  0  0  0  0  0  0  0  0
   -3.5819   -0.6019    0.6211 C   0  0  0  0  0  0  0  0  0  0  0  0
   -2.5351   -1.0340   -0.1570 C   0  0  0  0  0  0  0  0  0  0  0  0
    2.6772   -1.0988    0.7450 C   0  0  0  0  0  0  0  0  0  0  0  0
    3.3472    2.6305    0.1842 H   0  0  0  0  0  0  0  0  0  0  0  0
    2.8973    0.5854   -1.2609 H   0  0  0  0  0  0  0  0  0  0  0  0
    1.3776    1.5102   -1.0424 H   0  0  0  0  0  0  0  0  0  0  0  0
    0.8531    0.0645    0.9886 H   0  0  0  0  0  0  0  0  0  0  0  0
    1.4563   -1.6585   -1.4702 H   0  0  0  0  0  0  0  0  0  0  0  0
    0.4459   -2.1211   -0.0925 H   0  0  0  0  0  0  0  0  0  0  0  0
   -0.8630   -1.5945   -1.9968 H   0  0  0  0  0  0  0  0  0  0  0  0
   -0.1690    0.0307   -2.2101 H   0  0  0  0  0  0  0  0  0  0  0  0
   -0.8989    1.8539   -0.5083 H   0  0  0  0  0  0  0  0  0  0  0  0
   -2.7162    2.6536    0.8580 H   0  0  0  0  0  0  0  0  0  0  0  0
   -4.4798    1.1004    1.6131 H   0  0  0  0  0  0  0  0  0  0  0  0
   -4.3492   -1.2893    0.9467 H   0  0  0  0  0  0  0  0  0  0  0  0
   -2.5182   -2.0875   -0.4247 H   0  0  0  0  0  0  0  0  0  0  0  0
    2.5564   -2.1769    0.6067 H   0  0  0  0  0  0  0  0  0  0  0  0
    3.6422   -0.8185    0.2865 H   0  0  0  0  0  0  0  0  0  0  0  0
    2.7609   -0.9330    1.8496 H   0  0  0  0  0  0  0  0  0  0  0  0
  1  2  2  0
  2  3  1  0
  3  4  1  0
  4  5  1  0
  5  6  1  0
  6  7  1  0
  7  8  2  0
  8  9  1  0
  9 10  2  0
 10 11  1  0
 11 12  2  0
  4 13  1  0
 12  7  1  0
  2 14  1  0
  3 15  1  0
  3 16  1  0
  4 17  1  0
  5 18  1  0
  5 19  1  0
  6 20  1  0
  6 21  1  0
  8 22  1  0
  9 23  1  0
 10 24  1  0
 11 25  1  0
 12 26  1  0
 13 27  1  0
 13 28  1  0
 13 29  1  0
M  END
>  <Ligand ID>  (1) 
LIG0000387

>  <Ligand>  (1) 
Phenylmethylpentanal

>  <SMILES>  (1) 
O=CCC(CCc1ccccc1)C

>  <CID>  (1) 
108313.0

>  <ChEMBL ID>  (1) 
nan

>  <InChiKey>  (1) 
DFJMIMVMOIFPQG-UHFFFAOYSA-N

>  <InChi>  (1) 
InChI=1S/C12H16O/c1-11(9-10-13)7-8-12-5-3-2-4-6-12/h2-6,10-11H,7-9H2,1H3

>  <IUPAC Name>  (1) 
3-methyl-5-phenylpentanal

$$$$
