
     RDKit          3D

 96 99  0  0  0  0  0  0  0  0999 V2000
   -6.5219   -2.9084   -1.4471 O   0  0  0  0  0  0  0  0  0  0  0  0
   -6.9273   -1.8035   -1.0147 C   0  0  0  0  0  0  0  0  0  0  0  0
   -8.3691   -1.7604   -0.5855 C   0  0  0  0  0  0  0  0  0  0  0  0
   -8.9702   -3.1305   -0.7969 C   0  0  0  0  0  0  0  0  0  0  0  0
   -8.8674   -3.4375   -2.1390 F   0  0  0  0  0  0  0  0  0  0  0  0
  -10.3110   -3.0519   -0.4525 F   0  0  0  0  0  0  0  0  0  0  0  0
   -8.3258   -4.0476   -0.0172 F   0  0  0  0  0  0  0  0  0  0  0  0
   -6.0912   -0.6420   -0.9251 N   0  0  0  0  0  0  0  0  0  0  0  0
   -4.7245   -0.7955   -1.3635 C   0  0  2  0  0  0  0  0  0  0  0  0
   -3.7994   -0.6341   -0.2082 C   0  0  0  0  0  0  0  0  0  0  0  0
   -4.1729   -0.3088    0.9413 O   0  0  0  0  0  0  0  0  0  0  0  0
   -2.3960   -0.8730   -0.4444 N   0  0  0  0  0  0  0  0  0  0  0  0
   -1.4194   -0.7427    0.6118 C   0  0  2  0  0  0  0  0  0  0  0  0
   -0.2922    0.0774    0.1202 C   0  0  0  0  0  0  0  0  0  0  0  0
   -0.2933    0.4913   -1.0517 O   0  0  0  0  0  0  0  0  0  0  0  0
    0.7595    0.3447    1.0582 N   0  0  0  0  0  0  0  0  0  0  0  0
    1.9372    1.1254    0.6914 C   0  0  2  0  0  0  0  0  0  0  0  0
    3.1010    0.3215    1.0983 C   0  0  0  0  0  0  0  0  0  0  0  0
    2.8573   -0.7631    1.7174 O   0  0  0  0  0  0  0  0  0  0  0  0
    4.4477    0.6418    0.8667 N   0  0  0  0  0  0  0  0  0  0  0  0
    5.5431   -0.1905    1.3046 C   0  0  2  0  0  0  0  0  0  0  0  0
    6.3088    0.5512    2.3739 C   0  0  0  0  0  0  0  0  0  0  0  0
    5.9451    1.7199    2.7346 O   0  0  0  0  0  0  0  0  0  0  0  0
    7.4453   -0.0821    2.9711 N   0  0  0  0  0  0  0  0  0  0  0  0
    6.5324   -0.5509    0.2605 C   0  0  0  0  0  0  0  0  0  0  0  0
    6.0215   -1.3163   -0.8863 C   0  0  0  0  0  0  0  0  0  0  0  0
    4.8264   -1.8975   -1.1589 C   0  0  0  0  0  0  0  0  0  0  0  0
    4.8127   -2.5171   -2.3491 N   0  0  0  0  0  0  0  0  0  0  0  0
    6.0387   -2.3339   -2.8696 C   0  0  0  0  0  0  0  0  0  0  0  0
    6.8231   -1.5961   -2.0009 C   0  0  0  0  0  0  0  0  0  0  0  0
    8.1223   -1.2941   -2.3410 C   0  0  0  0  0  0  0  0  0  0  0  0
    8.6303   -1.7416   -3.5674 C   0  0  0  0  0  0  0  0  0  0  0  0
    7.8561   -2.4755   -4.4356 C   0  0  0  0  0  0  0  0  0  0  0  0
    6.5425   -2.7780   -4.0867 C   0  0  0  0  0  0  0  0  0  0  0  0
    1.8829    2.4275    1.4730 C   0  0  0  0  0  0  0  0  0  0  0  0
    0.6365    3.1951    1.1315 C   0  0  0  0  0  0  0  0  0  0  0  0
    0.6914    4.4737    1.9752 C   0  0  0  0  0  0  0  0  0  0  0  0
   -0.4610    5.2777    1.7067 N   0  0  0  0  0  0  0  0  0  0  0  0
   -0.3804    6.5394    2.0061 C   0  0  0  0  0  0  0  0  0  0  0  0
   -1.5131    7.3872    1.7539 N   0  0  0  0  0  0  0  0  0  0  0  0
    0.7945    7.1168    2.5788 N   0  0  0  0  0  0  0  0  0  0  0  0
   -0.8229   -2.0803    0.9978 C   0  0  0  0  0  0  0  0  0  0  0  0
   -1.7969   -3.0659    1.4831 C   0  0  0  0  0  0  0  0  0  0  0  0
   -2.4228   -3.9316    0.5878 C   0  0  0  0  0  0  0  0  0  0  0  0
   -3.3293   -4.8551    1.0486 C   0  0  0  0  0  0  0  0  0  0  0  0
   -3.6061   -4.9102    2.3929 C   0  0  0  0  0  0  0  0  0  0  0  0
   -3.0092   -4.0740    3.3017 C   0  0  0  0  0  0  0  0  0  0  0  0
   -2.0811   -3.1242    2.8546 C   0  0  0  0  0  0  0  0  0  0  0  0
   -4.3690    0.0608   -2.5214 C   0  0  0  0  0  0  0  0  0  0  0  0
   -4.4733    1.5067   -2.3327 C   0  0  0  0  0  0  0  0  0  0  0  0
   -4.8012    2.2868   -1.2640 C   0  0  0  0  0  0  0  0  0  0  0  0
   -4.7261    3.5883   -1.6231 N   0  0  0  0  0  0  0  0  0  0  0  0
   -4.3525    3.6420   -2.9118 C   0  0  0  0  0  0  0  0  0  0  0  0
   -4.1971    2.3865   -3.3491 N   0  0  0  0  0  0  0  0  0  0  0  0
   -8.4745   -1.4197    0.4472 H   0  0  0  0  0  0  0  0  0  0  0  0
   -8.9214   -1.0632   -1.2632 H   0  0  0  0  0  0  0  0  0  0  0  0
   -6.5351    0.2096   -0.5550 H   0  0  0  0  0  0  0  0  0  0  0  0
   -4.6036   -1.8614   -1.6999 H   0  0  0  0  0  0  0  0  0  0  0  0
   -2.0454   -1.1498   -1.3977 H   0  0  0  0  0  0  0  0  0  0  0  0
   -1.8817   -0.2725    1.4762 H   0  0  0  0  0  0  0  0  0  0  0  0
    0.7038   -0.0227    2.0460 H   0  0  0  0  0  0  0  0  0  0  0  0
    1.9150    1.3214   -0.3784 H   0  0  0  0  0  0  0  0  0  0  0  0
    4.6507    1.5419    0.3441 H   0  0  0  0  0  0  0  0  0  0  0  0
    5.1265   -1.0789    1.8352 H   0  0  0  0  0  0  0  0  0  0  0  0
    7.2463   -0.5900    3.8777 H   0  0  0  0  0  0  0  0  0  0  0  0
    8.3977   -0.0549    2.5594 H   0  0  0  0  0  0  0  0  0  0  0  0
    7.4679   -1.0013    0.6797 H   0  0  0  0  0  0  0  0  0  0  0  0
    6.9014    0.4282   -0.1760 H   0  0  0  0  0  0  0  0  0  0  0  0
    3.9682   -1.8829   -0.5087 H   0  0  0  0  0  0  0  0  0  0  0  0
    4.0067   -3.0393   -2.7839 H   0  0  0  0  0  0  0  0  0  0  0  0
    8.7521   -0.7207   -1.6810 H   0  0  0  0  0  0  0  0  0  0  0  0
    9.6439   -1.4895   -3.7986 H   0  0  0  0  0  0  0  0  0  0  0  0
    8.2807   -2.7954   -5.3549 H   0  0  0  0  0  0  0  0  0  0  0  0
    5.8964   -3.3606   -4.7521 H   0  0  0  0  0  0  0  0  0  0  0  0
    2.7369    3.0868    1.2021 H   0  0  0  0  0  0  0  0  0  0  0  0
    1.8638    2.1487    2.5474 H   0  0  0  0  0  0  0  0  0  0  0  0
    0.6480    3.5292    0.0689 H   0  0  0  0  0  0  0  0  0  0  0  0
   -0.2857    2.6435    1.2965 H   0  0  0  0  0  0  0  0  0  0  0  0
    1.6598    4.9762    1.8537 H   0  0  0  0  0  0  0  0  0  0  0  0
    0.6224    4.1569    3.0584 H   0  0  0  0  0  0  0  0  0  0  0  0
   -2.4050    6.9753    1.4192 H   0  0  0  0  0  0  0  0  0  0  0  0
   -1.4351    8.4174    1.9077 H   0  0  0  0  0  0  0  0  0  0  0  0
    1.4482    7.7345    2.0196 H   0  0  0  0  0  0  0  0  0  0  0  0
    0.9912    6.9014    3.6010 H   0  0  0  0  0  0  0  0  0  0  0  0
   -0.1162   -1.8794    1.8362 H   0  0  0  0  0  0  0  0  0  0  0  0
   -0.1870   -2.4883    0.1811 H   0  0  0  0  0  0  0  0  0  0  0  0
   -2.1688   -3.8484   -0.4777 H   0  0  0  0  0  0  0  0  0  0  0  0
   -3.8064   -5.5194    0.3413 H   0  0  0  0  0  0  0  0  0  0  0  0
   -4.3229   -5.6488    2.7157 H   0  0  0  0  0  0  0  0  0  0  0  0
   -3.2227   -4.1092    4.3777 H   0  0  0  0  0  0  0  0  0  0  0  0
   -1.5962   -2.4520    3.5522 H   0  0  0  0  0  0  0  0  0  0  0  0
   -3.3668   -0.2409   -2.8936 H   0  0  0  0  0  0  0  0  0  0  0  0
   -5.0963   -0.1953   -3.3479 H   0  0  0  0  0  0  0  0  0  0  0  0
   -5.0719    1.9806   -0.2791 H   0  0  0  0  0  0  0  0  0  0  0  0
   -4.2133    4.5493   -3.4614 H   0  0  0  0  0  0  0  0  0  0  0  0
   -3.9046    2.1355   -4.3332 H   0  0  0  0  0  0  0  0  0  0  0  0
  1  2  2  0
  2  3  1  0
  3  4  1  0
  4  5  1  0
  4  6  1  0
  4  7  1  0
  2  8  1  0
  8  9  1  0
  9 10  1  0
 10 11  2  0
 10 12  1  0
 12 13  1  0
 13 14  1  0
 14 15  2  0
 14 16  1  0
 16 17  1  0
 17 18  1  0
 18 19  2  0
 18 20  1  0
 20 21  1  0
 21 22  1  0
 22 23  2  0
 22 24  1  0
 21 25  1  0
 25 26  1  0
 26 27  2  0
 27 28  1  0
 28 29  1  0
 29 30  2  0
 30 31  1  0
 31 32  2  0
 32 33  1  0
 33 34  2  0
 17 35  1  0
 35 36  1  0
 36 37  1  0
 37 38  1  0
 38 39  2  3
 39 40  1  0
 39 41  1  0
 13 42  1  0
 42 43  1  0
 43 44  2  0
 44 45  1  0
 45 46  2  0
 46 47  1  0
 47 48  2  0
  9 49  1  0
 49 50  1  0
 50 51  2  0
 51 52  1  0
 52 53  2  0
 53 54  1  0
 30 26  1  0
 48 43  1  0
 54 50  1  0
 34 29  1  0
  3 55  1  0
  3 56  1  0
  8 57  1  0
  9 58  1  6
 12 59  1  0
 13 60  1  1
 16 61  1  0
 17 62  1  6
 20 63  1  0
 21 64  1  1
 24 65  1  0
 24 66  1  0
 25 67  1  0
 25 68  1  0
 27 69  1  0
 28 70  1  0
 31 71  1  0
 32 72  1  0
 33 73  1  0
 34 74  1  0
 35 75  1  0
 35 76  1  0
 36 77  1  0
 36 78  1  0
 37 79  1  0
 37 80  1  0
 40 81  1  0
 40 82  1  0
 41 83  1  0
 41 84  1  0
 42 85  1  0
 42 86  1  0
 44 87  1  0
 45 88  1  0
 46 89  1  0
 47 90  1  0
 48 91  1  0
 49 92  1  0
 49 93  1  0
 51 94  1  0
 53 95  1  0
 54 96  1  0
M  END
>  <Ligand ID>  (1) 
LIG0002641

>  <Ligand>  (1) 
CHEMBL86573

>  <SMILES>  (1) 
O=C(CC(F)(F)F)N[C@H](C(=O)N[C@H](C(=O)N[C@H](C(=O)N[C@H](C(=O)N)Cc1c[nH]c2c1cccc2)CCCN=C(N)N)Cc1ccccc1)Cc1cnc[nH]1

>  <CID>  (1) 
44322957.0

>  <ChEMBL ID>  (1) 
nan

>  <InChiKey>  (1) 
PRCMOLNMVBSDRO-LJWNLINESA-N

>  <InChi>  (1) 
InChI=1S/C35H42F3N11O5/c36-35(37,38)16-29(50)46-28(15-22-18-42-19-45-22)33(54)49-27(13-20-7-2-1-3-8-20)32(53)47-25(11-6-12-43-34(40)41)31(52)48-26(30(39)51)14-21-17-44-24-10-5-4-9-23(21)24/h1-5,7-10,17-19,25-28,44H,6,11-16H2,(H2,39,51)(H,42,45)(H,46,50)(H,47,53)(H,48,52)(H,49,54)(H4,40,41,43)/t25-,26-,27-,28-/m0/s1

>  <IUPAC Name>  (1) 
(2S)-N-[(2S)-1-amino-3-(1H-indol-3-yl)-1-oxopropan-2-yl]-5-(diaminomethylideneamino)-2-[[(2S)-2-[[(2S)-3-(1H-imidazol-5-yl)-2-(3,3,3-trifluoropropanoylamino)propanoyl]amino]-3-phenylpropanoyl]amino]pentanamide

$$$$
