
     RDKit          3D

 64 67  0  0  0  0  0  0  0  0999 V2000
   -0.6145   -3.1206   -2.1791 O   0  0  0  0  0  0  0  0  0  0  0  0
   -0.4261   -2.1948   -1.3361 C   0  0  0  0  0  0  0  0  0  0  0  0
    0.6504   -2.3548   -0.4420 N   0  0  0  0  0  0  0  0  0  0  0  0
    1.4056   -3.6128   -0.5558 C   0  0  0  0  0  0  0  0  0  0  0  0
    1.4365   -4.1859    0.8362 C   0  0  0  0  0  0  0  0  0  0  0  0
    1.9942   -3.2416    1.8666 C   0  0  0  0  0  0  0  0  0  0  0  0
    1.1375   -2.0028    1.9265 C   0  0  0  0  0  0  0  0  0  0  0  0
    1.0717   -1.3951    0.5434 C   0  0  1  0  0  0  0  0  0  0  0  0
    2.4656   -0.9131    0.2313 C   0  0  0  0  0  0  0  0  0  0  0  0
    3.5485   -1.6112   -0.0964 N   0  0  0  0  0  0  0  0  0  0  0  0
    4.6156   -0.8321   -0.3059 C   0  0  0  0  0  0  0  0  0  0  0  0
    4.1785    0.4587   -0.0958 C   0  0  0  0  0  0  0  0  0  0  0  0
    2.8770    0.3900    0.2280 N   0  0  0  0  0  0  0  0  0  0  0  0
    4.9850    1.6758   -0.2090 C   0  0  0  0  0  0  0  0  0  0  0  0
    4.3837    2.8951    0.0271 C   0  0  0  0  0  0  0  0  0  0  0  0
    5.1570    4.0464   -0.0835 C   0  0  0  0  0  0  0  0  0  0  0  0
    6.4913    3.9601   -0.4215 C   0  0  0  0  0  0  0  0  0  0  0  0
    7.0979    2.7266   -0.6598 C   0  0  0  0  0  0  0  0  0  0  0  0
    6.3188    1.5759   -0.5478 C   0  0  0  0  0  0  0  0  0  0  0  0
   -1.3566   -1.0507   -1.3860 C   0  0  2  0  0  0  0  0  0  0  0  0
   -2.3672   -1.1960   -0.2324 C   0  0  0  0  0  0  0  0  0  0  0  0
   -3.3489   -0.1039   -0.1979 C   0  0  0  0  0  0  0  0  0  0  0  0
   -3.0427    1.1593    0.2996 C   0  0  0  0  0  0  0  0  0  0  0  0
   -1.7073    1.4654    0.8535 C   0  0  0  0  0  0  0  0  0  0  0  0
   -4.0000    2.1747    0.3030 C   0  0  0  0  0  0  0  0  0  0  0  0
   -5.2777    1.9837   -0.1773 C   0  0  0  0  0  0  0  0  0  0  0  0
   -5.5761    0.7323   -0.6678 C   0  0  0  0  0  0  0  0  0  0  0  0
   -4.6379   -0.3065   -0.6849 C   0  0  0  0  0  0  0  0  0  0  0  0
   -5.0908   -1.6074   -1.2328 C   0  0  0  0  0  0  0  0  0  0  0  0
   -6.2535    3.0466   -0.1638 C   0  0  0  0  0  0  0  0  0  0  0  0
   -7.4148    2.8718   -0.6074 O   0  0  0  0  0  0  0  0  0  0  0  0
   -5.9210    4.3245    0.3551 N   0  0  0  0  0  0  0  0  0  0  0  0
   -2.0891   -1.0262   -2.6506 N   0  0  0  0  0  0  0  0  0  0  0  0
    2.4164   -3.4824   -0.9352 H   0  0  0  0  0  0  0  0  0  0  0  0
    0.8782   -4.3501   -1.1987 H   0  0  0  0  0  0  0  0  0  0  0  0
    0.3614   -4.3411    1.1248 H   0  0  0  0  0  0  0  0  0  0  0  0
    1.9599   -5.1660    0.8598 H   0  0  0  0  0  0  0  0  0  0  0  0
    3.0798   -3.0315    1.7397 H   0  0  0  0  0  0  0  0  0  0  0  0
    1.8170   -3.7588    2.8584 H   0  0  0  0  0  0  0  0  0  0  0  0
    0.1424   -2.3358    2.2835 H   0  0  0  0  0  0  0  0  0  0  0  0
    1.4816   -1.2407    2.6231 H   0  0  0  0  0  0  0  0  0  0  0  0
    0.4268   -0.5206    0.4549 H   0  0  0  0  0  0  0  0  0  0  0  0
    5.6183   -1.1735   -0.5852 H   0  0  0  0  0  0  0  0  0  0  0  0
    2.2897    1.2253    0.4411 H   0  0  0  0  0  0  0  0  0  0  0  0
    3.3462    3.0070    0.2928 H   0  0  0  0  0  0  0  0  0  0  0  0
    4.7272    5.0253    0.0927 H   0  0  0  0  0  0  0  0  0  0  0  0
    7.1261    4.8407   -0.5172 H   0  0  0  0  0  0  0  0  0  0  0  0
    8.1339    2.6391   -0.9236 H   0  0  0  0  0  0  0  0  0  0  0  0
    6.7388    0.5903   -0.7223 H   0  0  0  0  0  0  0  0  0  0  0  0
   -0.8562   -0.0906   -1.2722 H   0  0  0  0  0  0  0  0  0  0  0  0
   -2.8682   -2.1908   -0.3570 H   0  0  0  0  0  0  0  0  0  0  0  0
   -1.7848   -1.2882    0.6934 H   0  0  0  0  0  0  0  0  0  0  0  0
   -1.3327    0.6531    1.5131 H   0  0  0  0  0  0  0  0  0  0  0  0
   -0.9667    1.8161    0.1397 H   0  0  0  0  0  0  0  0  0  0  0  0
   -1.8467    2.3298    1.5734 H   0  0  0  0  0  0  0  0  0  0  0  0
   -3.7310    3.1652    0.7022 H   0  0  0  0  0  0  0  0  0  0  0  0
   -6.5840    0.5797   -1.0471 H   0  0  0  0  0  0  0  0  0  0  0  0
   -6.2136   -1.6073   -1.2663 H   0  0  0  0  0  0  0  0  0  0  0  0
   -4.8696   -2.4016   -0.4584 H   0  0  0  0  0  0  0  0  0  0  0  0
   -4.7041   -1.8552   -2.2219 H   0  0  0  0  0  0  0  0  0  0  0  0
   -6.1170    4.5171    1.3821 H   0  0  0  0  0  0  0  0  0  0  0  0
   -5.4957    5.0946   -0.1992 H   0  0  0  0  0  0  0  0  0  0  0  0
   -2.3685   -0.0329   -2.8875 H   0  0  0  0  0  0  0  0  0  0  0  0
   -1.4956   -1.3473   -3.4474 H   0  0  0  0  0  0  0  0  0  0  0  0
  1  2  2  0
  2  3  1  0
  3  4  1  0
  4  5  1  0
  5  6  1  0
  6  7  1  0
  7  8  1  0
  8  9  1  0
  9 10  2  0
 10 11  1  0
 11 12  2  0
 12 13  1  0
 12 14  1  0
 14 15  2  0
 15 16  1  0
 16 17  2  0
 17 18  1  0
 18 19  2  0
  2 20  1  0
 20 21  1  0
 21 22  1  0
 22 23  2  0
 23 24  1  0
 23 25  1  0
 25 26  2  0
 26 27  1  0
 27 28  2  0
 28 29  1  0
 26 30  1  0
 30 31  2  0
 30 32  1  0
 20 33  1  0
  8  3  1  0
 13  9  1  0
 19 14  1  0
 28 22  1  0
  4 34  1  0
  4 35  1  0
  5 36  1  0
  5 37  1  0
  6 38  1  0
  6 39  1  0
  7 40  1  0
  7 41  1  0
  8 42  1  1
 11 43  1  0
 13 44  1  0
 15 45  1  0
 16 46  1  0
 17 47  1  0
 18 48  1  0
 19 49  1  0
 20 50  1  1
 21 51  1  0
 21 52  1  0
 24 53  1  0
 24 54  1  0
 24 55  1  0
 25 56  1  0
 27 57  1  0
 29 58  1  0
 29 59  1  0
 29 60  1  0
 32 61  1  0
 32 62  1  0
 33 63  1  0
 33 64  1  0
M  END
>  <Ligand ID>  (1) 
LIG0003768

>  <Ligand>  (1) 
CHEMBL205049

>  <SMILES>  (1) 
O=C(N1CCCC[C@H]1c1ncc([nH]1)c1ccccc1)[C@H](Cc1c(C)cc(cc1C)C(=O)N)N

>  <CID>  (1) 
10343492.0

>  <ChEMBL ID>  (1) 
nan

>  <InChiKey>  (1) 
ORFHSHFAWAJFLG-GMAHTHKFSA-N

>  <InChi>  (1) 
InChI=1S/C26H31N5O2/c1-16-12-19(24(28)32)13-17(2)20(16)14-21(27)26(33)31-11-7-6-10-23(31)25-29-15-22(30-25)18-8-4-3-5-9-18/h3-5,8-9,12-13,15,21,23H,6-7,10-11,14,27H2,1-2H3,(H2,28,32)(H,29,30)/t21-,23-/m0/s1

>  <IUPAC Name>  (1) 
4-[(2S)-2-amino-3-oxo-3-[(2S)-2-(5-phenyl-1H-imidazol-2-yl)piperidin-1-yl]propyl]-3,5-dimethylbenzamide

$$$$
