
     RDKit          3D

 22 22  0  0  0  0  0  0  0  0999 V2000
    3.5060    0.2816    0.6154 C   0  0  0  0  0  0  0  0  0  0  0  0
    2.8113   -0.6459   -0.3605 C   0  0  0  0  0  0  0  0  0  0  0  0
    1.4108   -0.6365   -0.2190 O   0  0  0  0  0  0  0  0  0  0  0  0
    0.6308    0.4998   -0.3783 C   0  0  0  0  0  0  0  0  0  0  0  0
    1.1662    1.5861   -0.6617 O   0  0  0  0  0  0  0  0  0  0  0  0
   -0.8184    0.3514   -0.1986 C   0  0  0  0  0  0  0  0  0  0  0  0
   -1.6608    1.4535   -0.3445 C   0  0  0  0  0  0  0  0  0  0  0  0
   -3.0386    1.2959   -0.1703 C   0  0  0  0  0  0  0  0  0  0  0  0
   -3.6008    0.0761    0.1440 C   0  0  0  0  0  0  0  0  0  0  0  0
   -2.7637   -1.0179    0.2886 C   0  0  0  0  0  0  0  0  0  0  0  0
   -1.4017   -0.8644    0.1170 C   0  0  0  0  0  0  0  0  0  0  0  0
   -0.5499   -1.9715    0.2629 O   0  0  0  0  0  0  0  0  0  0  0  0
    4.5731    0.3246    0.3221 H   0  0  0  0  0  0  0  0  0  0  0  0
    3.0311    1.2697    0.7115 H   0  0  0  0  0  0  0  0  0  0  0  0
    3.3842   -0.2173    1.6198 H   0  0  0  0  0  0  0  0  0  0  0  0
    3.1579   -1.6761   -0.1156 H   0  0  0  0  0  0  0  0  0  0  0  0
    3.1175   -0.4491   -1.4083 H   0  0  0  0  0  0  0  0  0  0  0  0
   -1.2707    2.4421   -0.5925 H   0  0  0  0  0  0  0  0  0  0  0  0
   -3.7281    2.1268   -0.2746 H   0  0  0  0  0  0  0  0  0  0  0  0
   -4.6630   -0.0508    0.2794 H   0  0  0  0  0  0  0  0  0  0  0  0
   -3.1641   -1.9880    0.5338 H   0  0  0  0  0  0  0  0  0  0  0  0
   -0.1289   -2.1902    1.1636 H   0  0  0  0  0  0  0  0  0  0  0  0
  1  2  1  0
  2  3  1  0
  3  4  1  0
  4  5  2  0
  4  6  1  0
  6  7  2  0
  7  8  1  0
  8  9  2  0
  9 10  1  0
 10 11  2  0
 11 12  1  0
 11  6  1  0
  1 13  1  0
  1 14  1  0
  1 15  1  0
  2 16  1  0
  2 17  1  0
  7 18  1  0
  8 19  1  0
  9 20  1  0
 10 21  1  0
 12 22  1  0
M  END
>  <Ligand ID>  (1) 
LIG0000631

>  <Ligand>  (1) 
Ethyl Salicylate

>  <SMILES>  (1) 
CCOC(=O)c1ccccc1O

>  <CID>  (1) 
8365.0

>  <ChEMBL ID>  (1) 
nan

>  <InChiKey>  (1) 
GYCKQBWUSACYIF-UHFFFAOYSA-N

>  <InChi>  (1) 
InChI=1S/C9H10O3/c1-2-12-9(11)7-5-3-4-6-8(7)10/h3-6,10H,2H2,1H3

>  <IUPAC Name>  (1) 
ethyl 2-hydroxybenzoate

$$$$
