
     RDKit          3D

 58 63  0  0  0  0  0  0  0  0999 V2000
   -3.0444   -1.2438    1.5283 O   0  0  0  0  0  0  0  0  0  0  0  0
   -2.7558   -0.9037    0.3051 C   0  0  0  0  0  0  0  0  0  0  0  0
   -1.3817   -1.1387   -0.0374 C   0  0  0  0  0  0  0  0  0  0  0  0
   -0.3311   -0.6132    0.7472 C   0  0  0  0  0  0  0  0  0  0  0  0
   -0.4364    0.2644    1.9355 C   0  0  0  0  0  0  0  0  0  0  0  0
    0.8483   -1.0249    0.2583 N   0  0  0  0  0  0  0  0  0  0  0  0
    0.6173   -1.7947   -0.8021 C   0  0  0  0  0  0  0  0  0  0  0  0
   -0.7432   -1.8724   -0.9923 C   0  0  0  0  0  0  0  0  0  0  0  0
   -1.1774   -2.6518   -2.0296 C   0  0  0  0  0  0  0  0  0  0  0  0
   -0.2667   -3.3082   -2.8259 C   0  0  0  0  0  0  0  0  0  0  0  0
    1.1123   -3.2070   -2.6078 C   0  0  0  0  0  0  0  0  0  0  0  0
    1.5545   -2.4287   -1.5666 C   0  0  0  0  0  0  0  0  0  0  0  0
    2.8865   -2.2428   -1.2361 O   0  0  0  0  0  0  0  0  0  0  0  0
    3.1393   -1.9512    0.1523 C   0  0  0  0  0  0  0  0  0  0  0  0
    2.2550   -0.8034    0.6069 C   0  0  1  0  0  0  0  0  0  0  0  0
    2.7356    0.4989   -0.0599 C   0  0  0  0  0  0  0  0  0  0  0  0
    4.0905    0.6636    0.2862 N   0  0  0  0  0  0  0  0  0  0  0  0
    4.4324    0.9588    1.6234 C   0  0  0  0  0  0  0  0  0  0  0  0
    5.2561    2.2337    1.6976 C   0  0  0  0  0  0  0  0  0  0  0  0
    6.3684    2.1856    0.8967 O   0  0  0  0  0  0  0  0  0  0  0  0
    6.3732    1.1668   -0.0371 C   0  0  0  0  0  0  0  0  0  0  0  0
    5.0219    0.9929   -0.7285 C   0  0  0  0  0  0  0  0  0  0  0  0
   -3.8454   -0.3569   -0.4418 C   0  0  0  0  0  0  0  0  0  0  0  0
   -4.2599   -0.6772   -1.7008 C   0  0  0  0  0  0  0  0  0  0  0  0
   -5.3638   -0.0764   -2.3278 C   0  0  0  0  0  0  0  0  0  0  0  0
   -6.1016    0.8876   -1.6911 C   0  0  0  0  0  0  0  0  0  0  0  0
   -5.7003    1.2300   -0.4121 C   0  0  0  0  0  0  0  0  0  0  0  0
   -4.6076    0.6319    0.1996 C   0  0  0  0  0  0  0  0  0  0  0  0
   -4.3184    1.0814    1.4693 C   0  0  0  0  0  0  0  0  0  0  0  0
   -5.0778    2.0739    2.1009 C   0  0  0  0  0  0  0  0  0  0  0  0
   -6.1545    2.6417    1.4611 C   0  0  0  0  0  0  0  0  0  0  0  0
   -6.4558    2.2134    0.2086 C   0  0  0  0  0  0  0  0  0  0  0  0
   -0.5828   -0.2618    2.8844 H   0  0  0  0  0  0  0  0  0  0  0  0
   -1.1946    1.0572    1.8160 H   0  0  0  0  0  0  0  0  0  0  0  0
    0.5312    0.8424    2.0791 H   0  0  0  0  0  0  0  0  0  0  0  0
   -2.2178   -2.7622   -2.1796 H   0  0  0  0  0  0  0  0  0  0  0  0
   -0.6384   -3.9253   -3.6494 H   0  0  0  0  0  0  0  0  0  0  0  0
    1.8339   -3.7163   -3.2263 H   0  0  0  0  0  0  0  0  0  0  0  0
    4.1789   -1.6472    0.3240 H   0  0  0  0  0  0  0  0  0  0  0  0
    2.8379   -2.8478    0.7313 H   0  0  0  0  0  0  0  0  0  0  0  0
    2.3418   -0.7448    1.7035 H   0  0  0  0  0  0  0  0  0  0  0  0
    2.0777    1.3413    0.2484 H   0  0  0  0  0  0  0  0  0  0  0  0
    2.5841    0.3745   -1.1481 H   0  0  0  0  0  0  0  0  0  0  0  0
    3.5705    1.1160    2.2941 H   0  0  0  0  0  0  0  0  0  0  0  0
    5.0695    0.1398    2.0573 H   0  0  0  0  0  0  0  0  0  0  0  0
    5.5249    2.3940    2.7483 H   0  0  0  0  0  0  0  0  0  0  0  0
    4.5656    3.0528    1.3428 H   0  0  0  0  0  0  0  0  0  0  0  0
    7.2084    1.2472   -0.7297 H   0  0  0  0  0  0  0  0  0  0  0  0
    6.4884    0.2173    0.5661 H   0  0  0  0  0  0  0  0  0  0  0  0
    5.1668    0.1010   -1.4019 H   0  0  0  0  0  0  0  0  0  0  0  0
    4.7633    1.8197   -1.3989 H   0  0  0  0  0  0  0  0  0  0  0  0
   -3.7678   -1.4001   -2.2771 H   0  0  0  0  0  0  0  0  0  0  0  0
   -5.6539   -0.3571   -3.3175 H   0  0  0  0  0  0  0  0  0  0  0  0
   -6.9448    1.3333   -2.1941 H   0  0  0  0  0  0  0  0  0  0  0  0
   -3.4956    0.7150    2.0398 H   0  0  0  0  0  0  0  0  0  0  0  0
   -4.8326    2.4096    3.1036 H   0  0  0  0  0  0  0  0  0  0  0  0
   -6.7688    3.4081    1.9068 H   0  0  0  0  0  0  0  0  0  0  0  0
   -7.3153    2.6637   -0.3030 H   0  0  0  0  0  0  0  0  0  0  0  0
  1  2  2  0
  2  3  1  0
  3  4  2  0
  4  5  1  0
  4  6  1  0
  6  7  1  0
  7  8  2  0
  8  9  1  0
  9 10  2  0
 10 11  1  0
 11 12  2  0
 12 13  1  0
 13 14  1  0
 14 15  1  0
 15 16  1  0
 16 17  1  0
 17 18  1  0
 18 19  1  0
 19 20  1  0
 20 21  1  0
 21 22  1  0
  2 23  1  0
 23 24  2  0
 24 25  1  0
 25 26  2  0
 26 27  1  0
 27 28  2  0
 28 29  1  0
 29 30  2  0
 30 31  1  0
 31 32  2  0
  8  3  1  0
 22 17  1  0
 28 23  1  0
 15  6  1  0
 32 27  1  0
 12  7  1  0
  5 33  1  0
  5 34  1  0
  5 35  1  0
  9 36  1  0
 10 37  1  0
 11 38  1  0
 14 39  1  0
 14 40  1  0
 15 41  1  1
 16 42  1  0
 16 43  1  0
 18 44  1  0
 18 45  1  0
 19 46  1  0
 19 47  1  0
 21 48  1  0
 21 49  1  0
 22 50  1  0
 22 51  1  0
 24 52  1  0
 25 53  1  0
 26 54  1  0
 29 55  1  0
 30 56  1  0
 31 57  1  0
 32 58  1  0
M  END
>  <Ligand ID>  (1) 
LIG0000943

>  <Ligand>  (1) 
WIN55212-2

>  <SMILES>  (1) 
O=C(c1c(C)n2c3c1cccc3OC[C@H]2CN1CCOCC1)c1cccc2c1cccc2

>  <CID>  (1) 
5311501.0

>  <ChEMBL ID>  (1) 
nan

>  <InChiKey>  (1) 
HQVHOQAKMCMIIM-HXUWFJFHSA-N

>  <InChi>  (1) 
InChI=1S/C27H26N2O3/c1-18-25(27(30)22-9-4-7-19-6-2-3-8-21(19)22)23-10-5-11-24-26(23)29(18)20(17-32-24)16-28-12-14-31-15-13-28/h2-11,20H,12-17H2,1H3/t20-/m1/s1

>  <IUPAC Name>  (1) 
[(11R)-2-methyl-11-(morpholin-4-ylmethyl)-9-oxa-1-azatricyclo[6.3.1.04,12]dodeca-2,4(12),5,7-tetraen-3-yl]-naphthalen-1-ylmethanone

$$$$
