
     RDKit          3D

 18 17  0  0  0  0  0  0  0  0999 V2000
    2.2953   -0.9913    0.5048 O   0  0  0  0  0  0  0  0  0  0  0  0
    1.7742   -0.3303   -0.6070 C   0  0  0  0  0  0  0  0  0  0  0  0
    0.6485    0.5739   -0.2432 C   0  0  0  0  0  0  0  0  0  0  0  0
   -0.5305   -0.0422    0.3884 C   0  0  0  0  0  0  0  0  0  0  0  0
   -1.2374   -1.0868   -0.4117 C   0  0  0  0  0  0  0  0  0  0  0  0
   -1.5435    1.0823    0.5938 C   0  0  0  0  0  0  0  0  0  0  0  0
    3.0108   -0.4257    0.9056 H   0  0  0  0  0  0  0  0  0  0  0  0
    2.5988    0.2809   -1.0298 H   0  0  0  0  0  0  0  0  0  0  0  0
    1.5434   -1.1128   -1.3361 H   0  0  0  0  0  0  0  0  0  0  0  0
    1.0525    1.3217    0.4732 H   0  0  0  0  0  0  0  0  0  0  0  0
    0.3474    1.1683   -1.1314 H   0  0  0  0  0  0  0  0  0  0  0  0
   -0.3218   -0.3965    1.4293 H   0  0  0  0  0  0  0  0  0  0  0  0
   -1.8852   -1.6659    0.2904 H   0  0  0  0  0  0  0  0  0  0  0  0
   -0.5951   -1.8276   -0.8810 H   0  0  0  0  0  0  0  0  0  0  0  0
   -1.9442   -0.6344   -1.1445 H   0  0  0  0  0  0  0  0  0  0  0  0
   -2.5126    0.7116    0.9626 H   0  0  0  0  0  0  0  0  0  0  0  0
   -1.6426    1.5696   -0.4075 H   0  0  0  0  0  0  0  0  0  0  0  0
   -1.0581    1.8051    1.2893 H   0  0  0  0  0  0  0  0  0  0  0  0
  1  2  1  0
  2  3  1  0
  3  4  1  0
  4  5  1  0
  4  6  1  0
  1  7  1  0
  2  8  1  0
  2  9  1  0
  3 10  1  0
  3 11  1  0
  4 12  1  0
  5 13  1  0
  5 14  1  0
  5 15  1  0
  6 16  1  0
  6 17  1  0
  6 18  1  0
M  END
>  <Ligand ID>  (1) 
LIG0000357

>  <Ligand>  (1) 
Isoamyl alcohol

>  <SMILES>  (1) 
OCCC(C)C

>  <CID>  (1) 
31260.0

>  <ChEMBL ID>  (1) 
nan

>  <InChiKey>  (1) 
PHTQWCKDNZKARW-UHFFFAOYSA-N

>  <InChi>  (1) 
InChI=1S/C5H12O/c1-5(2)3-4-6/h5-6H,3-4H2,1-2H3

>  <IUPAC Name>  (1) 
3-methylbutan-1-ol

$$$$
