
     RDKit          3D

 39 38  0  0  0  0  0  0  0  0999 V2000
   -6.1498    0.9642    1.6424 C   0  0  0  0  0  0  0  0  0  0  0  0
   -4.8792    0.6117    1.6994 C   0  0  0  0  0  0  0  0  0  0  0  0
   -4.1500   -0.0042    0.6026 C   0  0  0  0  0  0  0  0  0  0  0  0
   -2.8689   -0.3212    0.7643 C   0  0  0  0  0  0  0  0  0  0  0  0
   -2.0703   -0.9610   -0.3423 C   0  0  0  0  0  0  0  0  0  0  0  0
   -0.9568   -0.0496   -0.6338 C   0  0  0  0  0  0  0  0  0  0  0  0
    0.3379   -0.3625   -0.5402 C   0  0  0  0  0  0  0  0  0  0  0  0
    1.3098    0.7009   -0.8779 C   0  0  0  0  0  0  0  0  0  0  0  0
    2.2220    1.1341    0.2050 C   0  0  0  0  0  0  0  0  0  0  0  0
    3.0697    0.0398    0.7117 C   0  0  0  0  0  0  0  0  0  0  0  0
    4.3880    0.1603    0.5534 C   0  0  0  0  0  0  0  0  0  0  0  0
    4.9195    1.3719   -0.1145 C   0  0  0  0  0  0  0  0  0  0  0  0
    5.3492   -0.8908    1.0296 C   0  0  0  0  0  0  0  0  0  0  0  0
    0.6774   -1.7339   -0.1461 C   0  0  0  0  0  0  0  0  0  0  0  0
   -4.7481   -0.3132   -0.7180 C   0  0  0  0  0  0  0  0  0  0  0  0
   -6.6526    1.4216    2.4881 H   0  0  0  0  0  0  0  0  0  0  0  0
   -6.7764    0.8260    0.7619 H   0  0  0  0  0  0  0  0  0  0  0  0
   -4.3599    0.8001    2.6303 H   0  0  0  0  0  0  0  0  0  0  0  0
   -2.3240   -0.1451    1.6820 H   0  0  0  0  0  0  0  0  0  0  0  0
   -1.8220   -1.9920   -0.1161 H   0  0  0  0  0  0  0  0  0  0  0  0
   -2.6805   -1.0064   -1.2855 H   0  0  0  0  0  0  0  0  0  0  0  0
   -1.2385    0.9711   -0.9545 H   0  0  0  0  0  0  0  0  0  0  0  0
    0.7800    1.6230   -1.2393 H   0  0  0  0  0  0  0  0  0  0  0  0
    1.9188    0.4028   -1.7936 H   0  0  0  0  0  0  0  0  0  0  0  0
    2.8350    2.0356   -0.0810 H   0  0  0  0  0  0  0  0  0  0  0  0
    1.5761    1.5287    1.0347 H   0  0  0  0  0  0  0  0  0  0  0  0
    2.7279   -0.8459    1.2131 H   0  0  0  0  0  0  0  0  0  0  0  0
    4.4853    1.5000   -1.1490 H   0  0  0  0  0  0  0  0  0  0  0  0
    6.0267    1.2549   -0.2939 H   0  0  0  0  0  0  0  0  0  0  0  0
    4.7801    2.2879    0.4718 H   0  0  0  0  0  0  0  0  0  0  0  0
    5.4636   -0.7421    2.1211 H   0  0  0  0  0  0  0  0  0  0  0  0
    4.8188   -1.8674    0.8628 H   0  0  0  0  0  0  0  0  0  0  0  0
    6.2839   -0.8574    0.4693 H   0  0  0  0  0  0  0  0  0  0  0  0
    0.6675   -1.9688    0.9091 H   0  0  0  0  0  0  0  0  0  0  0  0
    0.0185   -2.4279   -0.7516 H   0  0  0  0  0  0  0  0  0  0  0  0
    1.7056   -1.9867   -0.5423 H   0  0  0  0  0  0  0  0  0  0  0  0
   -5.8272   -0.0792   -0.7692 H   0  0  0  0  0  0  0  0  0  0  0  0
   -4.6437   -1.3985   -0.9369 H   0  0  0  0  0  0  0  0  0  0  0  0
   -4.2135    0.3190   -1.4627 H   0  0  0  0  0  0  0  0  0  0  0  0
  1  2  2  0
  2  3  1  0
  3  4  2  0
  4  5  1  0
  5  6  1  0
  6  7  2  0
  7  8  1  0
  8  9  1  0
  9 10  1  0
 10 11  2  3
 11 12  1  0
 11 13  1  0
  7 14  1  0
  3 15  1  0
  1 16  1  0
  1 17  1  0
  2 18  1  0
  4 19  1  0
  5 20  1  0
  5 21  1  0
  6 22  1  0
  8 23  1  0
  8 24  1  0
  9 25  1  0
  9 26  1  0
 10 27  1  0
 12 28  1  0
 12 29  1  0
 12 30  1  0
 13 31  1  0
 13 32  1  0
 13 33  1  0
 14 34  1  0
 14 35  1  0
 14 36  1  0
 15 37  1  0
 15 38  1  0
 15 39  1  0
M  END
>  <Ligand ID>  (1) 
LIG0000198

>  <Ligand>  (1) 
Farnesene

>  <SMILES>  (1) 
C=C/C(=C/C/C=C(/CCC=C(C)C)\C)/C

>  <CID>  (1) 
5281516.0

>  <ChEMBL ID>  (1) 
nan

>  <InChiKey>  (1) 
CXENHBSYCFFKJS-VDQVFBMKSA-N

>  <InChi>  (1) 
InChI=1S/C15H24/c1-6-14(4)10-8-12-15(5)11-7-9-13(2)3/h6,9-10,12H,1,7-8,11H2,2-5H3/b14-10+,15-12+

>  <IUPAC Name>  (1) 
(3E,6E)-3,7,11-trimethyldodeca-1,3,6,10-tetraene

$$$$
