
     RDKit          3D

 64 66  0  0  0  0  0  0  0  0999 V2000
   -1.6574   -3.0185    0.6461 C   0  0  0  0  0  0  0  0  0  0  0  0
   -1.8968   -1.8390   -0.2611 C   0  0  0  0  0  0  0  0  0  0  0  0
   -0.8276   -1.3218   -1.0118 C   0  0  0  0  0  0  0  0  0  0  0  0
    0.3691   -1.9359   -0.8646 O   0  0  0  0  0  0  0  0  0  0  0  0
    1.6255   -1.7305   -1.3916 C   0  0  0  0  0  0  0  0  0  0  0  0
    2.1852   -0.4106   -0.9810 C   0  0  0  0  0  0  0  0  0  0  0  0
    2.3029   -0.2841    0.5283 C   0  0  0  0  0  0  0  0  0  0  0  0
    3.2064   -1.3502    1.0542 C   0  0  0  0  0  0  0  0  0  0  0  0
    4.4756   -1.2889    0.5305 O   0  0  0  0  0  0  0  0  0  0  0  0
    5.4481   -0.3562    0.6117 C   0  0  0  0  0  0  0  0  0  0  0  0
    5.4269    0.8305    1.2980 C   0  0  0  0  0  0  0  0  0  0  0  0
    6.4852    1.7252    1.3131 C   0  0  0  0  0  0  0  0  0  0  0  0
    7.6185    1.4119    0.6056 C   0  0  0  0  0  0  0  0  0  0  0  0
    7.6987    0.2454   -0.0958 C   0  0  0  0  0  0  0  0  0  0  0  0
    6.6351   -0.6226   -0.0936 C   0  0  0  0  0  0  0  0  0  0  0  0
    8.9513   -0.0407   -0.8430 C   0  0  0  0  0  0  0  0  0  0  0  0
    8.7252    2.3598    0.6282 C   0  0  0  0  0  0  0  0  0  0  0  0
    9.8120    2.1638    0.0092 O   0  0  0  0  0  0  0  0  0  0  0  0
    8.6472    3.5535    1.3440 O   0  0  0  0  0  0  0  0  0  0  0  0
   -1.1281   -0.2512   -1.8112 C   0  0  0  0  0  0  0  0  0  0  0  0
   -2.3971    0.2863   -1.8758 C   0  0  0  0  0  0  0  0  0  0  0  0
   -3.4523   -0.2288   -1.1307 C   0  0  0  0  0  0  0  0  0  0  0  0
   -3.1617   -1.3022   -0.3267 C   0  0  0  0  0  0  0  0  0  0  0  0
   -4.1446   -1.8649    0.4371 O   0  0  0  0  0  0  0  0  0  0  0  0
   -4.7642    0.3828   -1.2530 C   0  0  0  0  0  0  0  0  0  0  0  0
   -4.8803    1.3956   -2.0357 O   0  0  0  0  0  0  0  0  0  0  0  0
   -5.9824   -0.0446   -0.5651 C   0  0  0  0  0  0  0  0  0  0  0  0
   -6.1767    0.6233    0.7773 C   0  0  0  0  0  0  0  0  0  0  0  0
   -7.4643    0.0957    1.3774 C   0  0  0  0  0  0  0  0  0  0  0  0
   -8.5226    0.9350    0.7286 C   0  0  0  0  0  0  0  0  0  0  0  0
   -7.8554    2.1281    0.1285 C   0  0  0  0  0  0  0  0  0  0  0  0
   -6.4560    2.0970    0.6861 C   0  0  0  0  0  0  0  0  0  0  0  0
   -0.9835   -3.6827    0.0313 H   0  0  0  0  0  0  0  0  0  0  0  0
   -2.5686   -3.5903    0.8108 H   0  0  0  0  0  0  0  0  0  0  0  0
   -1.1108   -2.7471    1.5546 H   0  0  0  0  0  0  0  0  0  0  0  0
    2.2776   -2.5890   -1.0909 H   0  0  0  0  0  0  0  0  0  0  0  0
    1.5137   -1.8005   -2.5149 H   0  0  0  0  0  0  0  0  0  0  0  0
    1.5885    0.4180   -1.3287 H   0  0  0  0  0  0  0  0  0  0  0  0
    3.1992   -0.3392   -1.4422 H   0  0  0  0  0  0  0  0  0  0  0  0
    2.6600    0.7229    0.7236 H   0  0  0  0  0  0  0  0  0  0  0  0
    1.2604   -0.4009    0.9287 H   0  0  0  0  0  0  0  0  0  0  0  0
    2.6945   -2.3269    0.8671 H   0  0  0  0  0  0  0  0  0  0  0  0
    3.2696   -1.2261    2.1695 H   0  0  0  0  0  0  0  0  0  0  0  0
    4.5693    1.1091    1.8804 H   0  0  0  0  0  0  0  0  0  0  0  0
    6.4246    2.6661    1.8769 H   0  0  0  0  0  0  0  0  0  0  0  0
    6.7370   -1.5387   -0.6625 H   0  0  0  0  0  0  0  0  0  0  0  0
    9.1446    0.6802   -1.6643 H   0  0  0  0  0  0  0  0  0  0  0  0
    8.8037   -1.0364   -1.3482 H   0  0  0  0  0  0  0  0  0  0  0  0
    9.7816   -0.1656   -0.1321 H   0  0  0  0  0  0  0  0  0  0  0  0
    9.2814    4.3172    1.1980 H   0  0  0  0  0  0  0  0  0  0  0  0
   -0.3816    0.2038   -2.4362 H   0  0  0  0  0  0  0  0  0  0  0  0
   -2.5722    1.1482   -2.5387 H   0  0  0  0  0  0  0  0  0  0  0  0
   -4.4326   -2.8160    0.4732 H   0  0  0  0  0  0  0  0  0  0  0  0
   -6.1091   -1.1308   -0.4196 H   0  0  0  0  0  0  0  0  0  0  0  0
   -6.8674    0.2482   -1.1912 H   0  0  0  0  0  0  0  0  0  0  0  0
   -5.3282    0.4134    1.4664 H   0  0  0  0  0  0  0  0  0  0  0  0
   -7.4686    0.1608    2.4838 H   0  0  0  0  0  0  0  0  0  0  0  0
   -7.5507   -0.9705    1.0439 H   0  0  0  0  0  0  0  0  0  0  0  0
   -9.2369    1.2807    1.5023 H   0  0  0  0  0  0  0  0  0  0  0  0
   -9.0995    0.3832   -0.0449 H   0  0  0  0  0  0  0  0  0  0  0  0
   -7.7682    2.0671   -0.9886 H   0  0  0  0  0  0  0  0  0  0  0  0
   -8.3796    3.0836    0.3612 H   0  0  0  0  0  0  0  0  0  0  0  0
   -6.4596    2.4798    1.7206 H   0  0  0  0  0  0  0  0  0  0  0  0
   -5.7345    2.6353    0.0413 H   0  0  0  0  0  0  0  0  0  0  0  0
  1  2  1  0
  2  3  2  0
  3  4  1  0
  4  5  1  0
  5  6  1  0
  6  7  1  0
  7  8  1  0
  8  9  1  0
  9 10  1  0
 10 11  2  0
 11 12  1  0
 12 13  2  0
 13 14  1  0
 14 15  2  0
 14 16  1  0
 13 17  1  0
 17 18  2  0
 17 19  1  0
  3 20  1  0
 20 21  2  0
 21 22  1  0
 22 23  2  0
 23 24  1  0
 22 25  1  0
 25 26  2  0
 25 27  1  0
 27 28  1  0
 28 29  1  0
 29 30  1  0
 30 31  1  0
 31 32  1  0
 23  2  1  0
 32 28  1  0
 15 10  1  0
  1 33  1  0
  1 34  1  0
  1 35  1  0
  5 36  1  0
  5 37  1  0
  6 38  1  0
  6 39  1  0
  7 40  1  0
  7 41  1  0
  8 42  1  0
  8 43  1  0
 11 44  1  0
 12 45  1  0
 15 46  1  0
 16 47  1  0
 16 48  1  0
 16 49  1  0
 19 50  1  0
 20 51  1  0
 21 52  1  0
 24 53  1  0
 27 54  1  0
 27 55  1  0
 28 56  1  0
 29 57  1  0
 29 58  1  0
 30 59  1  0
 30 60  1  0
 31 61  1  0
 31 62  1  0
 32 63  1  0
 32 64  1  0
M  END
>  <Ligand ID>  (1) 
LIG0003631

>  <Ligand>  (1) 
CHEMBL3287700

>  <SMILES>  (1) 
Cc1c(OCCCCOc2ccc(c(c2)C)C(=O)O)ccc(c1O)C(=O)CC1CCCC1

>  <CID>  (1) 
90643877.0

>  <ChEMBL ID>  (1) 
nan

>  <InChiKey>  (1) 
MFELYFVXYIXMNP-UHFFFAOYSA-N

>  <InChi>  (1) 
InChI=1S/C26H32O6/c1-17-15-20(9-10-21(17)26(29)30)31-13-5-6-14-32-24-12-11-22(25(28)18(24)2)23(27)16-19-7-3-4-8-19/h9-12,15,19,28H,3-8,13-14,16H2,1-2H3,(H,29,30)

>  <IUPAC Name>  (1) 
4-[4-[4-(2-cyclopentylacetyl)-3-hydroxy-2-methylphenoxy]butoxy]-2-methylbenzoic acid

$$$$
