
     RDKit          3D

 20 20  0  0  0  0  0  0  0  0999 V2000
    1.9446    1.9780   -0.5123 O   0  0  0  0  0  0  0  0  0  0  0  0
    1.9055    0.8646    0.3350 C   0  0  0  0  0  0  0  0  0  0  0  0
    2.0593    1.0121    1.5940 O   0  0  0  0  0  0  0  0  0  0  0  0
    1.6820   -0.4798   -0.2702 C   0  0  2  0  0  0  0  0  0  0  0  0
    0.4454   -0.5211   -1.1081 C   0  0  0  0  0  0  0  0  0  0  0  0
   -0.7730   -0.2002   -0.3295 C   0  0  0  0  0  0  0  0  0  0  0  0
   -0.9181    0.1009    0.9291 O   0  0  0  0  0  0  0  0  0  0  0  0
   -2.1870    0.3172    1.2167 N   0  0  0  0  0  0  0  0  0  0  0  0
   -2.9253    0.1551    0.1070 C   0  0  0  0  0  0  0  0  0  0  0  0
   -4.1669    0.2643   -0.0659 O   0  0  0  0  0  0  0  0  0  0  0  0
   -2.0361   -0.1787   -0.9029 C   0  0  0  0  0  0  0  0  0  0  0  0
    1.6848   -1.4347    0.7927 N   0  0  0  0  0  0  0  0  0  0  0  0
    1.6188    2.8673   -0.1252 H   0  0  0  0  0  0  0  0  0  0  0  0
    2.5419   -0.6645   -0.9777 H   0  0  0  0  0  0  0  0  0  0  0  0
    0.5722    0.2512   -1.9114 H   0  0  0  0  0  0  0  0  0  0  0  0
    0.3601   -1.4977   -1.5844 H   0  0  0  0  0  0  0  0  0  0  0  0
   -2.6064    0.5746    2.1362 H   0  0  0  0  0  0  0  0  0  0  0  0
   -2.2878   -0.3846   -1.9492 H   0  0  0  0  0  0  0  0  0  0  0  0
    0.7770   -1.8502    1.0460 H   0  0  0  0  0  0  0  0  0  0  0  0
    2.3090   -1.1738    1.5803 H   0  0  0  0  0  0  0  0  0  0  0  0
  1  2  1  0
  2  3  2  0
  2  4  1  0
  4  5  1  0
  5  6  1  0
  6  7  1  0
  7  8  1  0
  8  9  1  0
  9 10  2  0
  9 11  1  0
  4 12  1  0
 11  6  2  0
  1 13  1  0
  4 14  1  6
  5 15  1  0
  5 16  1  0
  8 17  1  0
 11 18  1  0
 12 19  1  0
 12 20  1  0
M  END
>  <Ligand ID>  (1) 
LIG0000822

>  <Ligand>  (1) 
(S)-HIBO

>  <SMILES>  (1) 
OC(=O)[C@H](Cc1o[nH]c(=O)c1)N

>  <CID>  (1) 
10012356.0

>  <ChEMBL ID>  (1) 
nan

>  <InChiKey>  (1) 
PEHXWVXZPICGAV-BYPYZUCNSA-N

>  <InChi>  (1) 
InChI=1S/C6H8N2O4/c7-4(6(10)11)1-3-2-5(9)8-12-3/h2,4H,1,7H2,(H,8,9)(H,10,11)/t4-/m0/s1

>  <IUPAC Name>  (1) 
(2S)-2-amino-3-(3-oxo-1,2-oxazol-5-yl)propanoic acid

$$$$
