
     RDKit          3D

 84 87  0  0  0  0  0  0  0  0999 V2000
  -11.4848   -1.1277    1.1972 C   0  0  0  0  0  0  0  0  0  0  0  0
  -10.6344    0.0133    1.6601 C   0  0  0  0  0  0  0  0  0  0  0  0
   -9.2020   -0.1273    1.1271 C   0  0  0  0  0  0  0  0  0  0  0  0
   -8.4491    1.0524    1.6450 C   0  0  0  0  0  0  0  0  0  0  0  0
   -6.9849    1.0652    1.1998 C   0  0  0  0  0  0  0  0  0  0  0  0
   -6.2412   -0.1161    1.6520 C   0  0  0  0  0  0  0  0  0  0  0  0
   -4.8359   -0.1863    1.2450 C   0  0  0  0  0  0  0  0  0  0  0  0
   -4.3787   -0.4375   -0.1160 C   0  0  0  0  0  0  0  0  0  0  0  0
   -4.8772    0.5808   -1.4096 S   0  0  0  0  0  0  0  0  0  0  0  0
   -6.3302    0.2773   -1.8236 O   0  0  0  0  0  0  0  0  0  0  0  0
   -4.7453    2.0342   -1.2494 O   0  0  0  0  0  0  0  0  0  0  0  0
   -4.0296    0.1132   -2.8646 O   0  0  0  0  0  0  0  0  0  0  0  0
   -2.8691   -0.6459   -2.7967 C   0  0  0  0  0  0  0  0  0  0  0  0
   -2.8631   -2.0258   -2.8170 C   0  0  0  0  0  0  0  0  0  0  0  0
   -1.6463   -2.7026   -2.7442 C   0  0  0  0  0  0  0  0  0  0  0  0
   -0.4400   -2.0400   -2.6519 C   0  0  0  0  0  0  0  0  0  0  0  0
   -0.4527   -0.6635   -2.6316 C   0  0  0  0  0  0  0  0  0  0  0  0
   -1.6576    0.0385   -2.7037 C   0  0  0  0  0  0  0  0  0  0  0  0
   -1.3989    1.3592   -2.6726 N   0  0  0  0  0  0  0  0  0  0  0  0
   -0.0661    1.5158   -2.5826 C   0  0  0  0  0  0  0  0  0  0  0  0
    0.5557    0.2627   -2.5542 C   0  0  0  0  0  0  0  0  0  0  0  0
    2.0208    0.1063   -2.4355 C   0  0  0  0  0  0  0  0  0  0  0  0
    2.5239   -0.1931   -1.0690 C   0  0  2  0  0  0  0  0  0  0  0  0
    3.9489   -0.3299   -1.0638 N   0  0  0  0  0  0  0  0  0  0  0  0
    4.6986    0.8143   -1.4636 C   0  0  0  0  0  0  0  0  0  0  0  0
    4.6438    1.9870   -0.5457 C   0  0  1  0  0  0  0  0  0  0  0  0
    5.2284    1.7614    0.7814 C   0  0  0  0  0  0  0  0  0  0  0  0
    5.5138    2.8956    1.5406 C   0  0  0  0  0  0  0  0  0  0  0  0
    6.0664    2.8264    2.7989 C   0  0  0  0  0  0  0  0  0  0  0  0
    6.3603    1.6009    3.3568 C   0  0  0  0  0  0  0  0  0  0  0  0
    6.0777    0.4582    2.6028 C   0  0  0  0  0  0  0  0  0  0  0  0
    5.5228    0.5592    1.3422 C   0  0  0  0  0  0  0  0  0  0  0  0
    6.4005   -0.7805    3.2183 N   0  0  0  0  0  0  0  0  0  0  0  0
    7.2241   -2.0342    2.3551 S   0  0  0  0  0  0  0  0  0  0  0  0
    6.4236   -2.3689    1.1434 O   0  0  0  0  0  0  0  0  0  0  0  0
    7.3356   -3.2561    3.2287 O   0  0  0  0  0  0  0  0  0  0  0  0
    8.7872   -1.5231    1.8280 C   0  0  0  0  0  0  0  0  0  0  0  0
    9.3154   -1.4292    0.5408 C   0  0  0  0  0  0  0  0  0  0  0  0
   10.5624   -1.0007    0.3969 C   0  0  0  0  0  0  0  0  0  0  0  0
   11.3051   -0.6613    1.4873 C   0  0  0  0  0  0  0  0  0  0  0  0
   10.1156   -0.9793    2.8932 S   0  0  0  0  0  0  0  0  0  0  0  0
    5.4337    2.9977   -1.1495 O   0  0  0  0  0  0  0  0  0  0  0  0
    1.9499   -1.4334   -0.4295 C   0  0  0  0  0  0  0  0  0  0  0  0
  -12.2857   -0.7778    0.5165 H   0  0  0  0  0  0  0  0  0  0  0  0
  -10.8657   -1.8358    0.6370 H   0  0  0  0  0  0  0  0  0  0  0  0
  -12.0003   -1.5816    2.0840 H   0  0  0  0  0  0  0  0  0  0  0  0
  -10.6514    0.1723    2.7571 H   0  0  0  0  0  0  0  0  0  0  0  0
  -11.0363    0.9681    1.2109 H   0  0  0  0  0  0  0  0  0  0  0  0
   -8.8316   -1.0918    1.5458 H   0  0  0  0  0  0  0  0  0  0  0  0
   -9.2994   -0.1297    0.0216 H   0  0  0  0  0  0  0  0  0  0  0  0
   -8.5134    1.0557    2.7489 H   0  0  0  0  0  0  0  0  0  0  0  0
   -8.9551    1.9700    1.2839 H   0  0  0  0  0  0  0  0  0  0  0  0
   -6.9476    1.4043    0.1934 H   0  0  0  0  0  0  0  0  0  0  0  0
   -6.5452    1.9569    1.8020 H   0  0  0  0  0  0  0  0  0  0  0  0
   -6.2558   -0.1940    2.7973 H   0  0  0  0  0  0  0  0  0  0  0  0
   -6.7391   -1.0890    1.3595 H   0  0  0  0  0  0  0  0  0  0  0  0
   -4.2602   -0.9197    1.9470 H   0  0  0  0  0  0  0  0  0  0  0  0
   -4.2837    0.7922    1.5821 H   0  0  0  0  0  0  0  0  0  0  0  0
   -3.2273   -0.5216   -0.0890 H   0  0  0  0  0  0  0  0  0  0  0  0
   -4.6377   -1.5206   -0.4452 H   0  0  0  0  0  0  0  0  0  0  0  0
   -3.8099   -2.5429   -2.8896 H   0  0  0  0  0  0  0  0  0  0  0  0
   -1.6936   -3.7982   -2.7638 H   0  0  0  0  0  0  0  0  0  0  0  0
    0.4829   -2.5574   -2.6040 H   0  0  0  0  0  0  0  0  0  0  0  0
   -2.0932    2.1529   -2.7101 H   0  0  0  0  0  0  0  0  0  0  0  0
    0.4327    2.4665   -2.5398 H   0  0  0  0  0  0  0  0  0  0  0  0
    2.3669   -0.6823   -3.1539 H   0  0  0  0  0  0  0  0  0  0  0  0
    2.5480    1.0384   -2.7755 H   0  0  0  0  0  0  0  0  0  0  0  0
    2.2245    0.6456   -0.3621 H   0  0  0  0  0  0  0  0  0  0  0  0
    4.2024   -1.1130   -1.6915 H   0  0  0  0  0  0  0  0  0  0  0  0
    5.7780    0.4785   -1.4821 H   0  0  0  0  0  0  0  0  0  0  0  0
    4.5238    1.1681   -2.5005 H   0  0  0  0  0  0  0  0  0  0  0  0
    3.6230    2.4277   -0.4599 H   0  0  0  0  0  0  0  0  0  0  0  0
    5.3088    3.9006    1.1652 H   0  0  0  0  0  0  0  0  0  0  0  0
    6.2772    3.7233    3.3647 H   0  0  0  0  0  0  0  0  0  0  0  0
    6.7986    1.5213    4.3534 H   0  0  0  0  0  0  0  0  0  0  0  0
    5.3307   -0.3374    0.8141 H   0  0  0  0  0  0  0  0  0  0  0  0
    6.1245   -0.9267    4.2305 H   0  0  0  0  0  0  0  0  0  0  0  0
    8.6589   -1.7209   -0.3063 H   0  0  0  0  0  0  0  0  0  0  0  0
   11.0393   -0.9054   -0.6191 H   0  0  0  0  0  0  0  0  0  0  0  0
   12.2753   -0.3073    1.6572 H   0  0  0  0  0  0  0  0  0  0  0  0
    4.8920    3.7528   -1.4763 H   0  0  0  0  0  0  0  0  0  0  0  0
    2.4759   -1.5849    0.5610 H   0  0  0  0  0  0  0  0  0  0  0  0
    2.2495   -2.3404   -1.0108 H   0  0  0  0  0  0  0  0  0  0  0  0
    0.8922   -1.3740   -0.1766 H   0  0  0  0  0  0  0  0  0  0  0  0
  1  2  1  0
  2  3  1  0
  3  4  1  0
  4  5  1  0
  5  6  1  0
  6  7  1  0
  7  8  1  0
  8  9  1  0
  9 10  2  0
  9 11  2  0
  9 12  1  0
 12 13  1  0
 13 14  2  0
 14 15  1  0
 15 16  2  0
 16 17  1  0
 17 18  2  0
 18 19  1  0
 19 20  1  0
 20 21  2  0
 21 22  1  0
 22 23  1  0
 23 24  1  0
 24 25  1  0
 25 26  1  0
 26 27  1  0
 27 28  2  0
 28 29  1  0
 29 30  2  0
 30 31  1  0
 31 32  2  0
 31 33  1  0
 33 34  1  0
 34 35  2  0
 34 36  2  0
 34 37  1  0
 37 38  2  0
 38 39  1  0
 39 40  2  0
 40 41  1  0
 26 42  1  0
 23 43  1  0
 18 13  1  0
 32 27  1  0
 41 37  1  0
 21 17  1  0
  1 44  1  0
  1 45  1  0
  1 46  1  0
  2 47  1  0
  2 48  1  0
  3 49  1  0
  3 50  1  0
  4 51  1  0
  4 52  1  0
  5 53  1  0
  5 54  1  0
  6 55  1  0
  6 56  1  0
  7 57  1  0
  7 58  1  0
  8 59  1  0
  8 60  1  0
 14 61  1  0
 15 62  1  0
 16 63  1  0
 19 64  1  0
 20 65  1  0
 22 66  1  0
 22 67  1  0
 23 68  1  1
 24 69  1  0
 25 70  1  0
 25 71  1  0
 26 72  1  1
 28 73  1  0
 29 74  1  0
 30 75  1  0
 32 76  1  0
 33 77  1  0
 38 78  1  0
 39 79  1  0
 40 80  1  0
 42 81  1  0
 43 82  1  0
 43 83  1  0
 43 84  1  0
M  END
>  <Ligand ID>  (1) 
LIG0004294

>  <Ligand>  (1) 
CHEMBL186135

>  <SMILES>  (1) 
CCCCCCCCS(=O)(=O)Oc1cccc2c1[nH]cc2C[C@H](NC[C@@H](c1cccc(c1)NS(=O)(=O)c1cccs1)O)C

>  <CID>  (1) 
44396531.0

>  <ChEMBL ID>  (1) 
nan

>  <InChiKey>  (1) 
OWMAPOPMZOIPKZ-LXFBAYGMSA-N

>  <InChi>  (1) 
InChI=1S/C31H41N3O6S3/c1-3-4-5-6-7-8-18-42(36,37)40-29-15-10-14-27-25(21-33-31(27)29)19-23(2)32-22-28(35)24-12-9-13-26(20-24)34-43(38,39)30-16-11-17-41-30/h9-17,20-21,23,28,32-35H,3-8,18-19,22H2,1-2H3/t23-,28+/m1/s1

>  <IUPAC Name>  (1) 
[3-[(2R)-2-[[(2R)-2-hydroxy-2-[3-(thiophen-2-ylsulfonylamino)phenyl]ethyl]amino]propyl]-1H-indol-7-yl] octane-1-sulfonate

$$$$
