
     RDKit          3D

134136  0  0  0  0  0  0  0  0999 V2000
   10.5172    0.3008    2.1416 N   0  0  0  0  0  0  0  0  0  0  0  0
    9.0836    0.5345    2.2073 C   0  0  0  0  0  0  0  0  0  0  0  0
    8.4096   -0.6993    1.6498 C   0  0  0  0  0  0  0  0  0  0  0  0
    6.9205   -0.5516    1.6724 C   0  0  0  0  0  0  0  0  0  0  0  0
    6.3798    0.5858    0.8564 C   0  0  1  0  0  0  0  0  0  0  0  0
    6.7036    0.4552   -0.5663 C   0  0  0  0  0  0  0  0  0  0  0  0
    5.7456    0.1235   -1.3461 O   0  0  0  0  0  0  0  0  0  0  0  0
    7.9559    0.6587   -1.1753 N   0  0  0  0  0  0  0  0  0  0  0  0
    8.1223    0.4863   -2.6122 C   0  0  0  0  0  0  0  0  0  0  0  0
    9.5197    0.7655   -3.0053 C   0  0  0  0  0  0  0  0  0  0  0  0
    9.8495    0.6648   -4.2116 O   0  0  0  0  0  0  0  0  0  0  0  0
   10.4845    1.1493   -2.0104 N   0  0  0  0  0  0  0  0  0  0  0  0
    4.9074    0.5388    0.9991 N   0  0  0  0  0  0  0  0  0  0  0  0
    4.2318    1.7029    1.3697 C   0  0  0  0  0  0  0  0  0  0  0  0
    4.9215    2.7721    1.5639 O   0  0  0  0  0  0  0  0  0  0  0  0
    2.7804    1.8491    1.5700 C   0  0  2  0  0  0  0  0  0  0  0  0
    2.4502    2.3534    2.9625 C   0  0  0  0  0  0  0  0  0  0  0  0
    2.5166    1.1054    3.7776 C   0  0  0  0  0  0  0  0  0  0  0  0
    1.9432    0.0635    2.8800 C   0  0  0  0  0  0  0  0  0  0  0  0
    2.1021    0.5888    1.4838 N   0  0  0  0  0  0  0  0  0  0  0  0
    1.5937   -0.1869    0.4302 C   0  0  0  0  0  0  0  0  0  0  0  0
    1.0049   -1.2789    0.7893 O   0  0  0  0  0  0  0  0  0  0  0  0
    1.6299    0.0553   -1.0208 C   0  0  2  0  0  0  0  0  0  0  0  0
    1.1209    1.3830   -1.4582 C   0  0  0  0  0  0  0  0  0  0  0  0
   -0.5987    1.6708   -0.9148 S   0  0  0  0  0  0  0  0  0  0  0  0
   -0.8442    3.8163   -1.0062 S   0  0  0  0  0  0  0  0  0  0  0  0
   -0.4356    4.5420    0.5825 C   0  0  0  0  0  0  0  0  0  0  0  0
   -1.4853    4.5228    1.5977 C   0  0  2  0  0  0  0  0  0  0  0  0
   -0.8923    4.9878    2.8754 N   0  0  0  0  0  0  0  0  0  0  0  0
   -2.3319    3.3724    1.8307 C   0  0  0  0  0  0  0  0  0  0  0  0
   -2.3938    2.8967    3.0054 O   0  0  0  0  0  0  0  0  0  0  0  0
   -3.1343    2.6721    0.9008 N   0  0  0  0  0  0  0  0  0  0  0  0
   -4.0771    1.6238    1.2053 C   0  0  1  0  0  0  0  0  0  0  0  0
   -5.2872    1.7317    0.3621 C   0  0  0  0  0  0  0  0  0  0  0  0
   -6.0065    3.0286    0.5542 C   0  0  0  0  0  0  0  0  0  0  0  0
   -6.9969    3.1439    1.5235 C   0  0  0  0  0  0  0  0  0  0  0  0
   -7.6433    4.3444    1.6925 C   0  0  0  0  0  0  0  0  0  0  0  0
   -7.3181    5.4312    0.9106 C   0  0  0  0  0  0  0  0  0  0  0  0
   -6.3431    5.3555   -0.0590 C   0  0  0  0  0  0  0  0  0  0  0  0
   -5.6996    4.1492   -0.2221 C   0  0  0  0  0  0  0  0  0  0  0  0
   -3.5227    0.2673    1.3573 C   0  0  0  0  0  0  0  0  0  0  0  0
   -2.3144   -0.0096    1.4165 O   0  0  0  0  0  0  0  0  0  0  0  0
   -4.3846   -0.8840    1.4426 N   0  0  0  0  0  0  0  0  0  0  0  0
   -3.9616   -2.2234    1.6970 C   0  0  2  0  0  0  0  0  0  0  0  0
   -3.5379   -2.9450    0.4664 C   0  0  0  0  0  0  0  0  0  0  0  0
   -3.3069   -4.1525    0.3755 O   0  0  0  0  0  0  0  0  0  0  0  0
   -3.3707   -2.1938   -0.7248 N   0  0  0  0  0  0  0  0  0  0  0  0
   -2.9107   -2.7418   -1.9891 C   0  0  2  0  0  0  0  0  0  0  0  0
   -1.4428   -3.0168   -1.8898 C   0  0  0  0  0  0  0  0  0  0  0  0
   -0.9732   -3.1804   -0.7575 O   0  0  0  0  0  0  0  0  0  0  0  0
   -0.5441   -3.0943   -2.9766 N   0  0  0  0  0  0  0  0  0  0  0  0
    0.8382   -3.4202   -2.6897 C   0  0  2  0  0  0  0  0  0  0  0  0
    1.5784   -2.2488   -2.0736 C   0  0  0  0  0  0  0  0  0  0  0  0
    2.7969   -2.2593   -1.8591 O   0  0  0  0  0  0  0  0  0  0  0  0
    0.9091   -1.0493   -1.6945 N   0  0  0  0  0  0  0  0  0  0  0  0
    1.5717   -3.8419   -3.9057 C   0  0  0  0  0  0  0  0  0  0  0  0
    1.0014   -5.0495   -4.5562 C   0  0  0  0  0  0  0  0  0  0  0  0
   -0.0341   -5.5361   -4.0199 O   0  0  0  0  0  0  0  0  0  0  0  0
    1.6330   -5.5592   -5.6952 N   0  0  0  0  0  0  0  0  0  0  0  0
   -3.3612   -2.0566   -3.2020 C   0  0  0  0  0  0  0  0  0  0  0  0
   -4.8898   -2.0561   -3.3204 C   0  0  0  0  0  0  0  0  0  0  0  0
   -5.3012   -1.3583   -4.5659 C   0  0  0  0  0  0  0  0  0  0  0  0
   -4.5006   -0.8553   -5.3845 O   0  0  0  0  0  0  0  0  0  0  0  0
   -6.7025   -1.2713   -4.8191 N   0  0  0  0  0  0  0  0  0  0  0  0
   -7.1126   -0.6380   -5.9538 O   0  0  0  0  0  0  0  0  0  0  0  0
   -4.9764   -3.0231    2.4235 C   0  0  2  0  0  0  0  0  0  0  0  0
   -5.3536   -2.5583    3.7868 C   0  0  0  0  0  0  0  0  0  0  0  0
   -5.9490   -1.1870    3.7755 C   0  0  0  0  0  0  0  0  0  0  0  0
   -4.5203   -4.4852    2.5766 C   0  0  0  0  0  0  0  0  0  0  0  0
   10.7591   -0.5387    2.7268 H   0  0  0  0  0  0  0  0  0  0  0  0
   10.7500    0.0925    1.1488 H   0  0  0  0  0  0  0  0  0  0  0  0
    8.8007    1.4468    1.6912 H   0  0  0  0  0  0  0  0  0  0  0  0
    8.8170    0.6031    3.3050 H   0  0  0  0  0  0  0  0  0  0  0  0
    8.6431   -1.5575    2.3469 H   0  0  0  0  0  0  0  0  0  0  0  0
    8.7297   -0.9792    0.6371 H   0  0  0  0  0  0  0  0  0  0  0  0
    6.5325   -0.4320    2.7128 H   0  0  0  0  0  0  0  0  0  0  0  0
    6.4560   -1.5160    1.3075 H   0  0  0  0  0  0  0  0  0  0  0  0
    6.7245    1.5542    1.2686 H   0  0  0  0  0  0  0  0  0  0  0  0
    8.7780    0.9488   -0.6174 H   0  0  0  0  0  0  0  0  0  0  0  0
    7.4938    1.2586   -3.1217 H   0  0  0  0  0  0  0  0  0  0  0  0
    7.8274   -0.5228   -2.9236 H   0  0  0  0  0  0  0  0  0  0  0  0
   10.5120    2.1451   -1.7076 H   0  0  0  0  0  0  0  0  0  0  0  0
   11.0995    0.3922   -1.6543 H   0  0  0  0  0  0  0  0  0  0  0  0
    4.3663   -0.3257    0.8342 H   0  0  0  0  0  0  0  0  0  0  0  0
    2.4429    2.6219    0.8560 H   0  0  0  0  0  0  0  0  0  0  0  0
    3.0648    3.1808    3.3062 H   0  0  0  0  0  0  0  0  0  0  0  0
    1.3621    2.6613    2.9262 H   0  0  0  0  0  0  0  0  0  0  0  0
    3.5269    0.8043    4.0902 H   0  0  0  0  0  0  0  0  0  0  0  0
    1.9194    1.2686    4.7093 H   0  0  0  0  0  0  0  0  0  0  0  0
    0.8704   -0.1559    3.0427 H   0  0  0  0  0  0  0  0  0  0  0  0
    2.5086   -0.8930    2.9078 H   0  0  0  0  0  0  0  0  0  0  0  0
    2.7227   -0.0108   -1.2866 H   0  0  0  0  0  0  0  0  0  0  0  0
    1.8027    2.1900   -1.2612 H   0  0  0  0  0  0  0  0  0  0  0  0
    1.0536    1.3364   -2.5929 H   0  0  0  0  0  0  0  0  0  0  0  0
   -0.1595    5.6333    0.4022 H   0  0  0  0  0  0  0  0  0  0  0  0
    0.5071    4.0955    1.0089 H   0  0  0  0  0  0  0  0  0  0  0  0
   -2.1951    5.4471    1.3821 H   0  0  0  0  0  0  0  0  0  0  0  0
   -1.1726    4.3851    3.6678 H   0  0  0  0  0  0  0  0  0  0  0  0
   -1.0174    5.9882    3.0364 H   0  0  0  0  0  0  0  0  0  0  0  0
   -3.0356    2.9605   -0.0774 H   0  0  0  0  0  0  0  0  0  0  0  0
   -4.4530    1.8139    2.2972 H   0  0  0  0  0  0  0  0  0  0  0  0
   -4.9545    1.7712   -0.7190 H   0  0  0  0  0  0  0  0  0  0  0  0
   -6.0003    0.9012    0.4024 H   0  0  0  0  0  0  0  0  0  0  0  0
   -7.2281    2.2805    2.1179 H   0  0  0  0  0  0  0  0  0  0  0  0
   -8.4233    4.4055    2.4676 H   0  0  0  0  0  0  0  0  0  0  0  0
   -7.8308    6.3715    1.0480 H   0  0  0  0  0  0  0  0  0  0  0  0
   -6.0586    6.1893   -0.6945 H   0  0  0  0  0  0  0  0  0  0  0  0
   -4.9361    4.0943   -0.9848 H   0  0  0  0  0  0  0  0  0  0  0  0
   -5.3690   -0.6909    1.2796 H   0  0  0  0  0  0  0  0  0  0  0  0
   -3.0099   -2.2244    2.3333 H   0  0  0  0  0  0  0  0  0  0  0  0
   -3.5955   -1.2042   -0.6850 H   0  0  0  0  0  0  0  0  0  0  0  0
   -3.3232   -3.8141   -1.9877 H   0  0  0  0  0  0  0  0  0  0  0  0
   -0.9418   -2.9098   -3.8974 H   0  0  0  0  0  0  0  0  0  0  0  0
    0.8770   -4.1811   -1.8462 H   0  0  0  0  0  0  0  0  0  0  0  0
   -0.0735   -0.9851   -1.9229 H   0  0  0  0  0  0  0  0  0  0  0  0
    2.6144   -4.0883   -3.6001 H   0  0  0  0  0  0  0  0  0  0  0  0
    1.6547   -2.9978   -4.6104 H   0  0  0  0  0  0  0  0  0  0  0  0
    1.3097   -5.4847   -6.6725 H   0  0  0  0  0  0  0  0  0  0  0  0
    2.5415   -6.0772   -5.5573 H   0  0  0  0  0  0  0  0  0  0  0  0
   -3.0969   -0.9602   -3.1079 H   0  0  0  0  0  0  0  0  0  0  0  0
   -2.9126   -2.4747   -4.1084 H   0  0  0  0  0  0  0  0  0  0  0  0
   -5.2154   -3.1143   -3.4074 H   0  0  0  0  0  0  0  0  0  0  0  0
   -5.3600   -1.6500   -2.4128 H   0  0  0  0  0  0  0  0  0  0  0  0
   -7.4316   -1.6611   -4.1903 H   0  0  0  0  0  0  0  0  0  0  0  0
   -7.7923   -1.1773   -6.4059 H   0  0  0  0  0  0  0  0  0  0  0  0
   -5.9208   -3.1426    1.7811 H   0  0  0  0  0  0  0  0  0  0  0  0
   -4.4635   -2.6211    4.4642 H   0  0  0  0  0  0  0  0  0  0  0  0
   -6.1119   -3.2797    4.1874 H   0  0  0  0  0  0  0  0  0  0  0  0
   -6.7849   -1.1807    3.0454 H   0  0  0  0  0  0  0  0  0  0  0  0
   -6.4200   -1.0479    4.7972 H   0  0  0  0  0  0  0  0  0  0  0  0
   -5.1946   -0.4203    3.5927 H   0  0  0  0  0  0  0  0  0  0  0  0
   -5.0056   -4.8986    3.4885 H   0  0  0  0  0  0  0  0  0  0  0  0
   -3.4463   -4.5932    2.6772 H   0  0  0  0  0  0  0  0  0  0  0  0
   -4.8984   -5.1125    1.7326 H   0  0  0  0  0  0  0  0  0  0  0  0
  1  2  1  0
  2  3  1  0
  3  4  1  0
  4  5  1  0
  5  6  1  0
  6  7  2  0
  6  8  1  0
  8  9  1  0
  9 10  1  0
 10 11  2  0
 10 12  1  0
  5 13  1  0
 13 14  1  0
 14 15  2  0
 14 16  1  0
 16 17  1  0
 17 18  1  0
 18 19  1  0
 19 20  1  0
 20 21  1  0
 21 22  2  0
 21 23  1  0
 23 24  1  0
 24 25  1  0
 25 26  1  0
 26 27  1  0
 27 28  1  0
 28 29  1  0
 28 30  1  0
 30 31  2  0
 30 32  1  0
 32 33  1  0
 33 34  1  0
 34 35  1  0
 35 36  2  0
 36 37  1  0
 37 38  2  0
 38 39  1  0
 39 40  2  0
 33 41  1  0
 41 42  2  0
 41 43  1  0
 43 44  1  0
 44 45  1  0
 45 46  2  0
 45 47  1  0
 47 48  1  0
 48 49  1  0
 49 50  2  0
 49 51  1  0
 51 52  1  0
 52 53  1  0
 53 54  2  0
 53 55  1  0
 52 56  1  0
 56 57  1  0
 57 58  2  0
 57 59  1  0
 48 60  1  0
 60 61  1  0
 61 62  1  0
 62 63  2  0
 62 64  1  0
 64 65  1  0
 44 66  1  0
 66 67  1  0
 67 68  1  0
 66 69  1  0
 20 16  1  0
 55 23  1  0
 40 35  1  0
  1 70  1  0
  1 71  1  0
  2 72  1  0
  2 73  1  0
  3 74  1  0
  3 75  1  0
  4 76  1  0
  4 77  1  0
  5 78  1  1
  8 79  1  0
  9 80  1  0
  9 81  1  0
 12 82  1  0
 12 83  1  0
 13 84  1  0
 16 85  1  6
 17 86  1  0
 17 87  1  0
 18 88  1  0
 18 89  1  0
 19 90  1  0
 19 91  1  0
 23 92  1  6
 24 93  1  0
 24 94  1  0
 27 95  1  0
 27 96  1  0
 28 97  1  6
 29 98  1  0
 29 99  1  0
 32100  1  0
 33101  1  1
 34102  1  0
 34103  1  0
 36104  1  0
 37105  1  0
 38106  1  0
 39107  1  0
 40108  1  0
 43109  1  0
 44110  1  1
 47111  1  0
 48112  1  6
 51113  1  0
 52114  1  1
 55115  1  0
 56116  1  0
 56117  1  0
 59118  1  0
 59119  1  0
 60120  1  0
 60121  1  0
 61122  1  0
 61123  1  0
 64124  1  0
 65125  1  0
 66126  1  6
 67127  1  0
 67128  1  0
 68129  1  0
 68130  1  0
 68131  1  0
 69132  1  0
 69133  1  0
 69134  1  0
M  END
>  <Ligand ID>  (1) 
LIG0001597

>  <Ligand>  (1) 
CHEMBL1817691

>  <SMILES>  (1) 
NCCC[C@@H](C(=O)NCC(=O)N)NC(=O)[C@@H]1CCCN1C(=O)[C@@H]1CSSC[C@H](N)C(=O)N[C@@H](Cc2ccccc2)C(=O)N[C@H](C(=O)N[C@H](C(=O)N[C@H](C(=O)N1)CC(=O)N)CCC(=O)NO)[C@H](CC)C

>  <CID>  (1) 
53362202.0

>  <ChEMBL ID>  (1) 
nan

>  <InChiKey>  (1) 
YFMNEBHLLIAEJL-OVCMMVBBSA-N

>  <InChi>  (1) 
InChI=1S/C42H65N13O12S2/c1-3-22(2)34-41(65)49-26(13-14-33(58)54-67)37(61)51-28(18-31(45)56)38(62)52-29(21-69-68-20-24(44)35(59)50-27(39(63)53-34)17-23-9-5-4-6-10-23)42(66)55-16-8-12-30(55)40(64)48-25(11-7-15-43)36(60)47-19-32(46)57/h4-6,9-10,22,24-30,34,67H,3,7-8,11-21,43-44H2,1-2H3,(H2,45,56)(H2,46,57)(H,47,60)(H,48,64)(H,49,65)(H,50,59)(H,51,61)(H,52,62)(H,53,63)(H,54,58)/t22-,24-,25-,26-,27-,28-,29-,30-,34-/m0/s1

>  <IUPAC Name>  (1) 
(2S)-N-[(2S)-5-amino-1-[(2-amino-2-oxoethyl)amino]-1-oxopentan-2-yl]-1-[(4R,7S,10S,13S,16S,19R)-19-amino-7-(2-amino-2-oxoethyl)-16-benzyl-13-[(2S)-butan-2-yl]-10-[3-(hydroxyamino)-3-oxopropyl]-6,9,12,15,18-pentaoxo-1,2-dithia-5,8,11,14,17-pentazacycloicosane-4-carbonyl]pyrrolidine-2-carboxamide

$$$$
