
     RDKit          3D

196204  0  0  0  0  0  0  0  0999 V2000
   -4.2412    9.2006    0.6346 N   0  0  0  0  0  0  0  0  0  0  0  0
   -4.4003    8.6440    1.9529 C   0  0  0  0  0  0  0  0  0  0  0  0
   -4.6610    9.4666    2.8597 O   0  0  0  0  0  0  0  0  0  0  0  0
   -4.2810    7.2484    2.2922 C   0  0  0  0  0  0  0  0  0  0  0  0
   -4.1579    6.3702    0.9864 C   0  0  2  0  0  0  0  0  0  0  0  0
   -4.0451    5.0738    1.5496 N   0  0  0  0  0  0  0  0  0  0  0  0
   -4.6340    3.8508    1.3424 C   0  0  0  0  0  0  0  0  0  0  0  0
   -4.1522    3.0341    2.2500 O   0  0  0  0  0  0  0  0  0  0  0  0
   -5.6012    3.2148    0.4506 C   0  0  1  0  0  0  0  0  0  0  0  0
   -5.5788    1.7498    0.9187 N   0  0  0  0  0  0  0  0  0  0  0  0
   -5.4234    0.6172    0.1611 C   0  0  0  0  0  0  0  0  0  0  0  0
   -5.2871    0.8331   -1.0853 O   0  0  0  0  0  0  0  0  0  0  0  0
   -5.3786   -0.8015    0.5849 C   0  0  2  0  0  0  0  0  0  0  0  0
   -5.6457   -1.2439    1.9442 C   0  0  0  0  0  0  0  0  0  0  0  0
   -7.0238   -1.0847    2.4668 C   0  0  0  0  0  0  0  0  0  0  0  0
   -7.7313    0.1600    2.6559 C   0  0  0  0  0  0  0  0  0  0  0  0
   -9.1241   -0.0417    3.1430 N   0  0  0  0  0  0  0  0  0  0  0  0
  -10.0929   -0.3969    2.3708 C   0  0  0  0  0  0  0  0  0  0  0  0
  -11.3747   -0.5297    3.0130 N   0  0  0  0  0  0  0  0  0  0  0  0
   -9.9766   -0.6796    0.9883 N   0  0  0  0  0  0  0  0  0  0  0  0
   -4.4089   -1.5211   -0.2242 N   0  0  0  0  0  0  0  0  0  0  0  0
   -3.8472   -2.7897   -0.0140 C   0  0  0  0  0  0  0  0  0  0  0  0
   -4.1115   -3.4462    0.9627 O   0  0  0  0  0  0  0  0  0  0  0  0
   -2.8631   -3.3903   -1.0168 C   0  0  2  0  0  0  0  0  0  0  0  0
   -3.6895   -4.0221   -2.1280 C   0  0  0  0  0  0  0  0  0  0  0  0
   -4.5980   -5.0701   -1.6427 C   0  0  0  0  0  0  0  0  0  0  0  0
   -5.8638   -4.6345   -1.2244 C   0  0  0  0  0  0  0  0  0  0  0  0
   -6.7955   -5.5536   -0.7311 C   0  0  0  0  0  0  0  0  0  0  0  0
   -6.4636   -6.8909   -0.6600 C   0  0  0  0  0  0  0  0  0  0  0  0
   -5.2026   -7.3537   -1.0745 C   0  0  0  0  0  0  0  0  0  0  0  0
   -4.3092   -6.4016   -1.5564 C   0  0  0  0  0  0  0  0  0  0  0  0
   -2.0974   -4.4972   -0.4194 N   0  0  0  0  0  0  0  0  0  0  0  0
   -0.7265   -4.3703   -0.2298 C   0  0  0  0  0  0  0  0  0  0  0  0
   -0.3038   -3.1786   -0.6178 O   0  0  0  0  0  0  0  0  0  0  0  0
    0.3399   -5.1958    0.2845 C   0  0  2  0  0  0  0  0  0  0  0  0
    0.1305   -6.1940    1.3373 C   0  0  0  0  0  0  0  0  0  0  0  0
   -0.7401   -7.3381    0.9873 C   0  0  0  0  0  0  0  0  0  0  0  0
   -1.3829   -7.6902   -0.1351 N   0  0  0  0  0  0  0  0  0  0  0  0
   -2.0354   -8.8553    0.0407 C   0  0  0  0  0  0  0  0  0  0  0  0
   -1.8120   -9.2599    1.2838 N   0  0  0  0  0  0  0  0  0  0  0  0
   -1.0271   -8.3596    1.8965 C   0  0  0  0  0  0  0  0  0  0  0  0
    1.6153   -4.4526    0.4133 N   0  0  0  0  0  0  0  0  0  0  0  0
    2.6656   -4.5702   -0.5336 C   0  0  0  0  0  0  0  0  0  0  0  0
    2.4909   -5.3563   -1.4651 O   0  0  0  0  0  0  0  0  0  0  0  0
    3.9617   -3.7396   -0.3979 C   0  0  2  0  0  0  0  0  0  0  0  0
    3.5866   -2.3539   -0.2364 C   0  0  0  0  0  0  0  0  0  0  0  0
    4.5210   -1.2278   -0.3923 C   0  0  0  0  0  0  0  0  0  0  0  0
    5.6442   -1.2155   -0.8587 O   0  0  0  0  0  0  0  0  0  0  0  0
    4.0309    0.0331    0.0703 N   0  0  0  0  0  0  0  0  0  0  0  0
    4.5008    1.3555   -0.1132 C   0  0  1  0  0  0  0  0  0  0  0  0
    3.3857    2.2423   -0.1170 N   0  0  0  0  0  0  0  0  0  0  0  0
    3.2290    3.5722   -0.6133 C   0  0  0  0  0  0  0  0  0  0  0  0
    4.2588    4.1371   -0.9346 O   0  0  0  0  0  0  0  0  0  0  0  0
    1.8344    4.0395   -0.6349 C   0  0  1  0  0  0  0  0  0  0  0  0
    1.5187    5.4254   -0.6572 N   0  0  0  0  0  0  0  0  0  0  0  0
    0.3082    5.7797    0.0096 C   0  0  0  0  0  0  0  0  0  0  0  0
   -0.2891    4.7998    0.5570 O   0  0  0  0  0  0  0  0  0  0  0  0
   -0.3569    7.0685    0.1610 C   0  0  1  0  0  0  0  0  0  0  0  0
   -1.5881    6.7446    0.9543 N   0  0  0  0  0  0  0  0  0  0  0  0
   -2.8637    6.8147    0.3813 C   0  0  0  0  0  0  0  0  0  0  0  0
   -2.9352    7.3213   -0.7566 O   0  0  0  0  0  0  0  0  0  0  0  0
    0.3824    8.1648    0.8032 C   0  0  0  0  0  0  0  0  0  0  0  0
    1.3462    3.5522   -2.0555 C   0  0  0  0  0  0  0  0  0  0  0  0
    2.2319    4.2372   -3.0308 C   0  0  0  0  0  0  0  0  0  0  0  0
    3.4124    3.7184   -3.5048 C   0  0  0  0  0  0  0  0  0  0  0  0
    4.1961    4.4240   -4.3846 C   0  0  0  0  0  0  0  0  0  0  0  0
    3.8575    5.6798   -4.8480 C   0  0  0  0  0  0  0  0  0  0  0  0
    2.6720    6.2163   -4.3824 C   0  0  0  0  0  0  0  0  0  0  0  0
    1.8879    5.5123   -3.5040 C   0  0  0  0  0  0  0  0  0  0  0  0
    5.6785    1.7684    0.7131 C   0  0  0  0  0  0  0  0  0  0  0  0
    6.0709    2.9528    0.4925 O   0  0  0  0  0  0  0  0  0  0  0  0
    6.3395    0.9758    1.6448 N   0  0  0  0  0  0  0  0  0  0  0  0
    7.5228    1.3511    2.3746 N   0  0  0  0  0  0  0  0  0  0  0  0
    8.6412    0.6942    1.6663 C   0  0  2  0  0  0  0  0  0  0  0  0
    9.7482    0.4222    2.6890 C   0  0  0  0  0  0  0  0  0  0  0  0
   10.7209   -0.2802    2.3122 O   0  0  0  0  0  0  0  0  0  0  0  0
    9.6666    0.9658    4.0372 C   0  0  0  0  0  0  0  0  0  0  0  0
    8.6999    1.6696    4.3323 O   0  0  0  0  0  0  0  0  0  0  0  0
   10.6911    0.6549    4.9198 O   0  0  0  0  0  0  0  0  0  0  0  0
    9.2070    1.4627    0.5320 C   0  0  0  0  0  0  0  0  0  0  0  0
    9.8689    2.7339    0.7747 C   0  0  0  0  0  0  0  0  0  0  0  0
   11.2765    2.6522    0.9414 C   0  0  0  0  0  0  0  0  0  0  0  0
   12.0429    3.7847    1.1528 C   0  0  0  0  0  0  0  0  0  0  0  0
   11.4734    5.0304    1.2134 C   0  0  0  0  0  0  0  0  0  0  0  0
   10.1149    5.1215    1.0575 C   0  0  0  0  0  0  0  0  0  0  0  0
    9.3321    3.9810    0.8398 C   0  0  0  0  0  0  0  0  0  0  0  0
   12.3149    6.1217    1.4286 O   0  0  0  0  0  0  0  0  0  0  0  0
    4.6959   -4.0538   -1.5801 N   0  0  0  0  0  0  0  0  0  0  0  0
    4.7975   -5.4280   -1.7230 N   0  0  0  0  0  0  0  0  0  0  0  0
    6.0365   -6.0178   -2.0571 C   0  0  1  0  0  0  0  0  0  0  0  0
    6.9333   -6.2871   -0.8728 C   0  0  0  0  0  0  0  0  0  0  0  0
    6.4741   -7.4877   -0.1166 C   0  0  0  0  0  0  0  0  0  0  0  0
    6.8440   -7.6883    1.2208 C   0  0  0  0  0  0  0  0  0  0  0  0
    6.3965   -8.7864    1.9306 C   0  0  0  0  0  0  0  0  0  0  0  0
    5.5645   -9.7325    1.3507 C   0  0  0  0  0  0  0  0  0  0  0  0
    5.1940   -9.5472    0.0470 C   0  0  0  0  0  0  0  0  0  0  0  0
    5.6402   -8.4526   -0.6653 C   0  0  0  0  0  0  0  0  0  0  0  0
    5.2367   -8.3754   -2.0407 N   0  0  0  0  0  0  0  0  0  0  0  0
    5.7328   -7.2800   -2.8104 C   0  0  0  0  0  0  0  0  0  0  0  0
    5.8957   -7.3908   -4.0404 O   0  0  0  0  0  0  0  0  0  0  0  0
    5.1367  -10.8248    2.1002 O   0  0  0  0  0  0  0  0  0  0  0  0
   -7.0372    3.6522    0.7879 C   0  0  0  0  0  0  0  0  0  0  0  0
   -8.0079    3.2626   -0.2147 C   0  0  0  0  0  0  0  0  0  0  0  0
   -8.5611    2.1185   -0.6737 C   0  0  0  0  0  0  0  0  0  0  0  0
   -9.3908    2.3389   -1.7444 N   0  0  0  0  0  0  0  0  0  0  0  0
   -9.3795    3.6437   -1.9878 C   0  0  0  0  0  0  0  0  0  0  0  0
   -8.5504    4.2571   -1.0809 C   0  0  0  0  0  0  0  0  0  0  0  0
   -8.4285    5.6130   -1.1652 C   0  0  0  0  0  0  0  0  0  0  0  0
   -9.0787    6.3651   -2.0933 C   0  0  0  0  0  0  0  0  0  0  0  0
   -9.9245    5.7553   -3.0277 C   0  0  0  0  0  0  0  0  0  0  0  0
  -10.0594    4.3546   -2.9482 C   0  0  0  0  0  0  0  0  0  0  0  0
   -3.3187    9.6364    0.4200 H   0  0  0  0  0  0  0  0  0  0  0  0
   -5.0340    9.1663   -0.0633 H   0  0  0  0  0  0  0  0  0  0  0  0
   -3.3465    7.0419    2.8573 H   0  0  0  0  0  0  0  0  0  0  0  0
   -5.1027    6.8235    2.9210 H   0  0  0  0  0  0  0  0  0  0  0  0
   -4.9503    6.6312    0.3230 H   0  0  0  0  0  0  0  0  0  0  0  0
   -3.2643    5.0793    2.3546 H   0  0  0  0  0  0  0  0  0  0  0  0
   -5.3993    3.1808   -0.5749 H   0  0  0  0  0  0  0  0  0  0  0  0
   -5.6608    1.6875    1.9278 H   0  0  0  0  0  0  0  0  0  0  0  0
   -6.3748   -1.2970    0.0683 H   0  0  0  0  0  0  0  0  0  0  0  0
   -5.5302   -2.3825    1.9240 H   0  0  0  0  0  0  0  0  0  0  0  0
   -4.8926   -0.8558    2.6938 H   0  0  0  0  0  0  0  0  0  0  0  0
   -7.0729   -1.6136    3.5286 H   0  0  0  0  0  0  0  0  0  0  0  0
   -7.7178   -1.8376    1.9219 H   0  0  0  0  0  0  0  0  0  0  0  0
   -7.8731    0.7227    1.7459 H   0  0  0  0  0  0  0  0  0  0  0  0
   -7.2818    0.7832    3.4823 H   0  0  0  0  0  0  0  0  0  0  0  0
  -11.5836   -0.0648    3.9480 H   0  0  0  0  0  0  0  0  0  0  0  0
  -12.1613   -1.0766    2.6161 H   0  0  0  0  0  0  0  0  0  0  0  0
   -9.0987   -0.8331    0.4649 H   0  0  0  0  0  0  0  0  0  0  0  0
  -10.8562   -0.7520    0.4066 H   0  0  0  0  0  0  0  0  0  0  0  0
   -4.0834   -1.0288   -1.0702 H   0  0  0  0  0  0  0  0  0  0  0  0
   -2.2687   -2.5668   -1.3996 H   0  0  0  0  0  0  0  0  0  0  0  0
   -3.0084   -4.4738   -2.8900 H   0  0  0  0  0  0  0  0  0  0  0  0
   -4.2485   -3.2337   -2.6848 H   0  0  0  0  0  0  0  0  0  0  0  0
   -6.1501   -3.5898   -1.2792 H   0  0  0  0  0  0  0  0  0  0  0  0
   -7.7799   -5.1896   -0.4040 H   0  0  0  0  0  0  0  0  0  0  0  0
   -7.1513   -7.6307   -0.2771 H   0  0  0  0  0  0  0  0  0  0  0  0
   -4.9558   -8.4127   -1.0123 H   0  0  0  0  0  0  0  0  0  0  0  0
   -3.3526   -6.7578   -1.8602 H   0  0  0  0  0  0  0  0  0  0  0  0
   -2.5879   -5.3228   -0.1501 H   0  0  0  0  0  0  0  0  0  0  0  0
    0.6190   -5.8618   -0.6533 H   0  0  0  0  0  0  0  0  0  0  0  0
    1.1274   -6.6343    1.6724 H   0  0  0  0  0  0  0  0  0  0  0  0
   -0.3338   -5.6937    2.2611 H   0  0  0  0  0  0  0  0  0  0  0  0
   -2.6434   -9.3624   -0.7441 H   0  0  0  0  0  0  0  0  0  0  0  0
   -2.2078  -10.1481    1.6752 H   0  0  0  0  0  0  0  0  0  0  0  0
   -0.6553   -8.3893    2.9191 H   0  0  0  0  0  0  0  0  0  0  0  0
    1.7915   -3.8262    1.1964 H   0  0  0  0  0  0  0  0  0  0  0  0
    4.5148   -4.2092    0.4611 H   0  0  0  0  0  0  0  0  0  0  0  0
    2.6233   -2.0976   -0.8230 H   0  0  0  0  0  0  0  0  0  0  0  0
    3.2103   -2.2441    0.8520 H   0  0  0  0  0  0  0  0  0  0  0  0
    3.1608   -0.0659    0.6650 H   0  0  0  0  0  0  0  0  0  0  0  0
    4.9841    1.4793   -1.1662 H   0  0  0  0  0  0  0  0  0  0  0  0
    2.5083    1.8747    0.3476 H   0  0  0  0  0  0  0  0  0  0  0  0
    1.2035    3.4512    0.0910 H   0  0  0  0  0  0  0  0  0  0  0  0
    2.0252    6.1927   -1.0765 H   0  0  0  0  0  0  0  0  0  0  0  0
   -0.7091    7.4137   -0.8626 H   0  0  0  0  0  0  0  0  0  0  0  0
   -1.5408    6.4722    1.9345 H   0  0  0  0  0  0  0  0  0  0  0  0
    0.2642    8.2401    1.9111 H   0  0  0  0  0  0  0  0  0  0  0  0
    0.0325    9.1482    0.3599 H   0  0  0  0  0  0  0  0  0  0  0  0
    1.4819    8.1603    0.5531 H   0  0  0  0  0  0  0  0  0  0  0  0
    1.4772    2.4727   -2.0323 H   0  0  0  0  0  0  0  0  0  0  0  0
    0.3063    3.9183   -2.1678 H   0  0  0  0  0  0  0  0  0  0  0  0
    3.7241    2.7336   -3.1752 H   0  0  0  0  0  0  0  0  0  0  0  0
    5.1140    3.9347   -4.7100 H   0  0  0  0  0  0  0  0  0  0  0  0
    4.4977    6.2113   -5.5446 H   0  0  0  0  0  0  0  0  0  0  0  0
    2.4206    7.2057   -4.7504 H   0  0  0  0  0  0  0  0  0  0  0  0
    0.9515    6.0062   -3.1823 H   0  0  0  0  0  0  0  0  0  0  0  0
    5.9647    0.0268    1.8502 H   0  0  0  0  0  0  0  0  0  0  0  0
    7.6310    2.3934    2.3740 H   0  0  0  0  0  0  0  0  0  0  0  0
    8.2914   -0.2904    1.3525 H   0  0  0  0  0  0  0  0  0  0  0  0
   10.9764    1.3912    5.5975 H   0  0  0  0  0  0  0  0  0  0  0  0
    8.4054    1.5558   -0.2565 H   0  0  0  0  0  0  0  0  0  0  0  0
    9.9307    0.7581    0.0202 H   0  0  0  0  0  0  0  0  0  0  0  0
   11.8096    1.7234    0.9120 H   0  0  0  0  0  0  0  0  0  0  0  0
   13.1266    3.7428    1.2696 H   0  0  0  0  0  0  0  0  0  0  0  0
    9.6328    6.0824    1.1072 H   0  0  0  0  0  0  0  0  0  0  0  0
    8.3089    4.1353    0.6989 H   0  0  0  0  0  0  0  0  0  0  0  0
   12.7385    6.2037    2.3474 H   0  0  0  0  0  0  0  0  0  0  0  0
    5.6547   -3.6681   -1.6138 H   0  0  0  0  0  0  0  0  0  0  0  0
    4.5074   -5.9154   -0.7980 H   0  0  0  0  0  0  0  0  0  0  0  0
    6.6416   -5.4204   -2.7779 H   0  0  0  0  0  0  0  0  0  0  0  0
    7.9887   -6.5187   -1.1728 H   0  0  0  0  0  0  0  0  0  0  0  0
    6.9857   -5.3910   -0.2310 H   0  0  0  0  0  0  0  0  0  0  0  0
    7.4722   -6.9991    1.7403 H   0  0  0  0  0  0  0  0  0  0  0  0
    6.6818   -8.9333    2.9627 H   0  0  0  0  0  0  0  0  0  0  0  0
    4.5477  -10.2989   -0.3879 H   0  0  0  0  0  0  0  0  0  0  0  0
    4.6064   -9.0865   -2.4701 H   0  0  0  0  0  0  0  0  0  0  0  0
    4.2407  -10.7338    2.5297 H   0  0  0  0  0  0  0  0  0  0  0  0
   -6.9852    4.7278    1.0215 H   0  0  0  0  0  0  0  0  0  0  0  0
   -7.2457    3.1451    1.7765 H   0  0  0  0  0  0  0  0  0  0  0  0
   -8.3870    1.1387   -0.3200 H   0  0  0  0  0  0  0  0  0  0  0  0
   -9.9370    1.5770   -2.2547 H   0  0  0  0  0  0  0  0  0  0  0  0
   -7.7878    6.1392   -0.4712 H   0  0  0  0  0  0  0  0  0  0  0  0
   -8.9690    7.4546   -2.1558 H   0  0  0  0  0  0  0  0  0  0  0  0
  -10.4355    6.3416   -3.7659 H   0  0  0  0  0  0  0  0  0  0  0  0
  -10.6944    3.8365   -3.6432 H   0  0  0  0  0  0  0  0  0  0  0  0
  1  2  1  0
  2  3  2  0
  2  4  1  0
  4  5  1  0
  5  6  1  0
  6  7  1  0
  7  8  2  0
  7  9  1  0
  9 10  1  0
 10 11  1  0
 11 12  2  0
 11 13  1  0
 13 14  1  0
 14 15  1  0
 15 16  1  0
 16 17  1  0
 17 18  2  3
 18 19  1  0
 18 20  1  0
 13 21  1  0
 21 22  1  0
 22 23  2  0
 22 24  1  0
 24 25  1  0
 25 26  1  0
 26 27  2  0
 27 28  1  0
 28 29  2  0
 29 30  1  0
 30 31  2  0
 24 32  1  0
 32 33  1  0
 33 34  2  0
 33 35  1  0
 35 36  1  0
 36 37  1  0
 37 38  1  0
 38 39  2  0
 39 40  1  0
 40 41  1  0
 35 42  1  0
 42 43  1  0
 43 44  2  0
 43 45  1  0
 45 46  1  0
 46 47  1  0
 47 48  2  0
 47 49  1  0
 49 50  1  0
 50 51  1  0
 51 52  1  0
 52 53  2  0
 52 54  1  0
 54 55  1  0
 55 56  1  0
 56 57  2  0
 56 58  1  0
 58 59  1  0
 59 60  1  0
 60 61  2  0
 58 62  1  0
 54 63  1  0
 63 64  1  0
 64 65  2  0
 65 66  1  0
 66 67  2  0
 67 68  1  0
 68 69  2  0
 50 70  1  0
 70 71  2  0
 70 72  1  0
 72 73  1  0
 73 74  1  0
 74 75  1  0
 75 76  2  0
 75 77  1  0
 77 78  2  0
 77 79  1  0
 74 80  1  0
 80 81  1  0
 81 82  2  0
 82 83  1  0
 83 84  2  0
 84 85  1  0
 85 86  2  0
 84 87  1  0
 45 88  1  0
 88 89  1  0
 89 90  1  0
 90 91  1  0
 91 92  1  0
 92 93  2  0
 93 94  1  0
 94 95  2  0
 95 96  1  0
 96 97  2  0
 97 98  1  0
 98 99  1  0
 99100  2  0
 95101  1  0
  9102  1  0
102103  1  0
103104  2  0
104105  1  0
105106  1  0
106107  2  0
107108  1  0
108109  2  0
109110  1  0
110111  2  0
 60  5  1  0
 69 64  1  0
 86 81  1  0
 99 90  1  0
107103  1  0
 31 26  1  0
 41 37  2  0
 97 92  1  0
111106  1  0
  1112  1  0
  1113  1  0
  4114  1  0
  4115  1  0
  5116  1  6
  6117  1  0
  9118  1  6
 10119  1  0
 13120  1  6
 14121  1  0
 14122  1  0
 15123  1  0
 15124  1  0
 16125  1  0
 16126  1  0
 19127  1  0
 19128  1  0
 20129  1  0
 20130  1  0
 21131  1  0
 24132  1  6
 25133  1  0
 25134  1  0
 27135  1  0
 28136  1  0
 29137  1  0
 30138  1  0
 31139  1  0
 32140  1  0
 35141  1  6
 36142  1  0
 36143  1  0
 39144  1  0
 40145  1  0
 41146  1  0
 42147  1  0
 45148  1  1
 46149  1  0
 46150  1  0
 49151  1  0
 50152  1  6
 51153  1  0
 54154  1  1
 55155  1  0
 58156  1  6
 59157  1  0
 62158  1  0
 62159  1  0
 62160  1  0
 63161  1  0
 63162  1  0
 65163  1  0
 66164  1  0
 67165  1  0
 68166  1  0
 69167  1  0
 72168  1  0
 73169  1  0
 74170  1  6
 79171  1  0
 80172  1  0
 80173  1  0
 82174  1  0
 83175  1  0
 85176  1  0
 86177  1  0
 87178  1  0
 88179  1  0
 89180  1  0
 90181  1  6
 91182  1  0
 91183  1  0
 93184  1  0
 94185  1  0
 96186  1  0
 98187  1  0
101188  1  0
102189  1  0
102190  1  0
104191  1  0
105192  1  0
108193  1  0
109194  1  0
110195  1  0
111196  1  0
M  END
>  <Ligand ID>  (1) 
LIG0001159

>  <Ligand>  (1) 
CHEMBL2369485

>  <SMILES>  (1) 
NC(=O)C[C@@H]1NC(=O)[C@@H](NC(=O)[C@H](CCCN=C(N)N)NC(=O)[C@H](Cc2ccccc2)NC(=O)[C@H](Cc2nc[nH]c2)NC(=O)[C@H](CC(=O)N[C@@H](NC(=O)[C@@H](NC(=O)[C@@H](NC1=O)C)Cc1ccccc1)C(=O)NN[C@H](C(=O)C(=O)O)Cc1ccc(cc1)O)NN[C@H]1Cc2ccc(cc2NC1=O)O)Cc1c[nH]c2c1cccc2

>  <CID>  (1) 
73349983.0

>  <ChEMBL ID>  (1) 
nan

>  <InChiKey>  (1) 
IURJLDFCJBKSNA-HHKYUDBSSA-N

>  <InChi>  (1) 
InChI=1S/C73H85N21O17/c1-37-62(100)84-52(27-39-13-6-3-7-14-39)68(106)90-61(71(109)94-91-50(60(99)72(110)111)25-40-18-21-44(95)22-19-40)89-59(98)33-57(93-92-56-28-41-20-23-45(96)31-49(41)83-69(56)107)70(108)87-54(30-43-35-77-36-80-43)67(105)85-51(26-38-11-4-2-5-12-38)65(103)82-48(17-10-24-78-73(75)76)63(101)86-53(29-42-34-79-47-16-9-8-15-46(42)47)66(104)88-55(32-58(74)97)64(102)81-37/h2-9,11-16,18-23,31,34-37,48,50-57,61,79,91-93,95-96H,10,17,24-30,32-33H2,1H3,(H2,74,97)(H,77,80)(H,81,102)(H,82,103)(H,83,107)(H,84,100)(H,85,105)(H,86,101)(H,87,108)(H,88,104)(H,89,98)(H,90,106)(H,94,109)(H,110,111)(H4,75,76,78)/t37-,48-,50-,51-,52-,53-,54-,55-,56-,57-,61-/m0/s1

>  <IUPAC Name>  (1) 
(3S)-3-[2-[(2S,5S,8S,11S,14S,17S,20S,23S,26S)-11-(2-amino-2-oxoethyl)-5,20-dibenzyl-17-[3-(diaminomethylideneamino)propyl]-26-[2-[(3S)-7-hydroxy-2-oxo-3,4-dihydro-1H-quinolin-3-yl]hydrazinyl]-23-(1H-imidazol-4-ylmethyl)-14-(1H-indol-3-ylmethyl)-8-methyl-4,7,10,13,16,19,22,25,28-nonaoxo-1,3,6,9,12,15,18,21,24-nonazacyclooctacosane-2-carbonyl]hydrazinyl]-4-(4-hydroxyphenyl)-2-oxobutanoic acid

$$$$
