
     RDKit          3D

 85 89  0  0  0  0  0  0  0  0999 V2000
   12.7298    0.5318    1.5206 C   0  0  0  0  0  0  0  0  0  0  0  0
   11.8995    1.7326    1.9227 C   0  0  0  0  0  0  0  0  0  0  0  0
   10.6485    1.7338    1.0521 C   0  0  0  0  0  0  0  0  0  0  0  0
    9.7285    2.8680    1.3386 C   0  0  0  0  0  0  0  0  0  0  0  0
    8.5189    2.7544    0.4283 C   0  0  0  0  0  0  0  0  0  0  0  0
    7.7494    1.4694    0.6453 C   0  0  0  0  0  0  0  0  0  0  0  0
    6.6352    1.4639   -0.2875 N   0  0  0  0  0  0  0  0  0  0  0  0
    5.7696    0.2956   -0.1716 C   0  0  0  0  0  0  0  0  0  0  0  0
    6.0952   -0.5194    0.6977 O   0  0  0  0  0  0  0  0  0  0  0  0
    4.6445    0.1776   -1.0390 N   0  0  0  0  0  0  0  0  0  0  0  0
    3.7543   -0.9604   -0.9708 C   0  0  0  0  0  0  0  0  0  0  0  0
    2.6599   -0.9711   -0.1162 C   0  0  0  0  0  0  0  0  0  0  0  0
    1.8061   -2.0825   -0.0804 C   0  0  0  0  0  0  0  0  0  0  0  0
    2.0251   -3.1697   -0.8756 C   0  0  0  0  0  0  0  0  0  0  0  0
    3.1429   -3.1290   -1.7316 C   0  0  0  0  0  0  0  0  0  0  0  0
    3.9936   -2.0543   -1.7856 C   0  0  0  0  0  0  0  0  0  0  0  0
    1.0866   -4.6265   -0.9395 S   0  0  0  0  0  0  0  0  0  0  0  0
    0.5640   -4.9806    0.4487 O   0  0  0  0  0  0  0  0  0  0  0  0
    2.0468   -5.7749   -1.2584 O   0  0  0  0  0  0  0  0  0  0  0  0
   -0.1867   -4.5822   -2.0740 N   0  0  0  0  0  0  0  0  0  0  0  0
   -1.3238   -3.7574   -2.0867 C   0  0  0  0  0  0  0  0  0  0  0  0
   -2.4966   -4.3663   -2.5845 C   0  0  0  0  0  0  0  0  0  0  0  0
   -3.7075   -3.7579   -2.6748 C   0  0  0  0  0  0  0  0  0  0  0  0
   -3.7890   -2.4242   -2.2377 C   0  0  0  0  0  0  0  0  0  0  0  0
   -2.6525   -1.8312   -1.7514 C   0  0  0  0  0  0  0  0  0  0  0  0
   -1.4319   -2.4807   -1.6774 C   0  0  0  0  0  0  0  0  0  0  0  0
   -2.7974   -0.5015   -1.1464 C   0  0  0  0  0  0  0  0  0  0  0  0
   -1.8813    0.5010   -1.1860 C   0  0  0  0  0  0  0  0  0  0  0  0
   -2.1484    1.6674   -0.4574 C   0  0  0  0  0  0  0  0  0  0  0  0
   -3.3232    1.7962    0.2895 C   0  0  0  0  0  0  0  0  0  0  0  0
   -4.2456    0.7879    0.3306 C   0  0  0  0  0  0  0  0  0  0  0  0
   -3.9714   -0.3496   -0.3908 C   0  0  0  0  0  0  0  0  0  0  0  0
   -5.5039    0.8112    1.1132 C   0  0  0  0  0  0  0  0  0  0  0  0
   -6.5903    1.3742    0.2198 C   0  0  0  0  0  0  0  0  0  0  0  0
   -6.1986    2.6951   -0.1444 N   0  0  0  0  0  0  0  0  0  0  0  0
   -7.2101    3.6994   -0.1013 C   0  0  0  0  0  0  0  0  0  0  0  0
   -7.9967    3.6449    1.1671 C   0  0  0  0  0  0  0  0  0  0  0  0
   -8.6307    2.3030    1.2579 C   0  0  0  0  0  0  0  0  0  0  0  0
   -7.9233    1.2219    0.7922 C   0  0  0  0  0  0  0  0  0  0  0  0
   -8.5197   -0.0209    0.8816 C   0  0  0  0  0  0  0  0  0  0  0  0
   -9.7786   -0.2210    1.4116 C   0  0  0  0  0  0  0  0  0  0  0  0
  -10.3622   -1.4735    1.4946 O   0  0  0  0  0  0  0  0  0  0  0  0
  -10.4896    0.8938    1.8828 C   0  0  0  0  0  0  0  0  0  0  0  0
   -9.9160    2.1479    1.8056 C   0  0  0  0  0  0  0  0  0  0  0  0
  -11.7568    0.7140    2.4180 O   0  0  0  0  0  0  0  0  0  0  0  0
   12.4322    0.1902    0.4974 H   0  0  0  0  0  0  0  0  0  0  0  0
   13.8136    0.7322    1.5488 H   0  0  0  0  0  0  0  0  0  0  0  0
   12.5474   -0.3503    2.1984 H   0  0  0  0  0  0  0  0  0  0  0  0
   11.5990    1.5582    2.9883 H   0  0  0  0  0  0  0  0  0  0  0  0
   12.4492    2.6660    1.9029 H   0  0  0  0  0  0  0  0  0  0  0  0
   10.1632    0.7577    1.2229 H   0  0  0  0  0  0  0  0  0  0  0  0
   10.9954    1.8385   -0.0115 H   0  0  0  0  0  0  0  0  0  0  0  0
    9.3509    2.8817    2.3876 H   0  0  0  0  0  0  0  0  0  0  0  0
   10.2302    3.8188    1.1307 H   0  0  0  0  0  0  0  0  0  0  0  0
    8.7584    2.8283   -0.6387 H   0  0  0  0  0  0  0  0  0  0  0  0
    7.8060    3.5816    0.6911 H   0  0  0  0  0  0  0  0  0  0  0  0
    8.3092    0.5540    0.4632 H   0  0  0  0  0  0  0  0  0  0  0  0
    7.2878    1.4365    1.6664 H   0  0  0  0  0  0  0  0  0  0  0  0
    6.4401    2.1977   -0.9872 H   0  0  0  0  0  0  0  0  0  0  0  0
    4.4128    0.9110   -1.7691 H   0  0  0  0  0  0  0  0  0  0  0  0
    2.4844   -0.0999    0.5160 H   0  0  0  0  0  0  0  0  0  0  0  0
    0.9445   -2.1150    0.5738 H   0  0  0  0  0  0  0  0  0  0  0  0
    3.3698   -3.9732   -2.3906 H   0  0  0  0  0  0  0  0  0  0  0  0
    4.8414   -2.0996   -2.4741 H   0  0  0  0  0  0  0  0  0  0  0  0
   -0.1020   -5.2864   -2.8823 H   0  0  0  0  0  0  0  0  0  0  0  0
   -2.4545   -5.4111   -2.9321 H   0  0  0  0  0  0  0  0  0  0  0  0
   -4.6058   -4.2452   -3.0729 H   0  0  0  0  0  0  0  0  0  0  0  0
   -4.6968   -1.8686   -2.2741 H   0  0  0  0  0  0  0  0  0  0  0  0
   -0.6129   -1.9505   -1.3034 H   0  0  0  0  0  0  0  0  0  0  0  0
   -0.9917    0.3708   -1.7686 H   0  0  0  0  0  0  0  0  0  0  0  0
   -1.4317    2.5006   -0.4604 H   0  0  0  0  0  0  0  0  0  0  0  0
   -3.5422    2.6975    0.8629 H   0  0  0  0  0  0  0  0  0  0  0  0
   -4.7151   -1.1698   -0.3644 H   0  0  0  0  0  0  0  0  0  0  0  0
   -5.7975   -0.2530    1.3388 H   0  0  0  0  0  0  0  0  0  0  0  0
   -5.4298    1.3865    2.0640 H   0  0  0  0  0  0  0  0  0  0  0  0
   -6.5216    0.7525   -0.7249 H   0  0  0  0  0  0  0  0  0  0  0  0
   -5.5867    2.7379   -0.9614 H   0  0  0  0  0  0  0  0  0  0  0  0
   -6.7041    4.6944   -0.1330 H   0  0  0  0  0  0  0  0  0  0  0  0
   -7.8457    3.5907   -1.0098 H   0  0  0  0  0  0  0  0  0  0  0  0
   -8.7478    4.4602    1.2105 H   0  0  0  0  0  0  0  0  0  0  0  0
   -7.3107    3.8463    2.0137 H   0  0  0  0  0  0  0  0  0  0  0  0
   -7.9707   -0.8732    0.5168 H   0  0  0  0  0  0  0  0  0  0  0  0
  -10.8623   -1.8283    0.6932 H   0  0  0  0  0  0  0  0  0  0  0  0
  -10.4781    2.9921    2.1746 H   0  0  0  0  0  0  0  0  0  0  0  0
  -12.4943    1.3561    2.1466 H   0  0  0  0  0  0  0  0  0  0  0  0
  1  2  1  0
  2  3  1  0
  3  4  1  0
  4  5  1  0
  5  6  1  0
  6  7  1  0
  7  8  1  0
  8  9  2  0
  8 10  1  0
 10 11  1  0
 11 12  2  0
 12 13  1  0
 13 14  2  0
 14 15  1  0
 15 16  2  0
 14 17  1  0
 17 18  2  0
 17 19  2  0
 17 20  1  0
 20 21  1  0
 21 22  2  0
 22 23  1  0
 23 24  2  0
 24 25  1  0
 25 26  2  0
 25 27  1  0
 27 28  2  0
 28 29  1  0
 29 30  2  0
 30 31  1  0
 31 32  2  0
 31 33  1  0
 33 34  1  0
 34 35  1  0
 35 36  1  0
 36 37  1  0
 37 38  1  0
 38 39  2  0
 39 40  1  0
 40 41  2  0
 41 42  1  0
 41 43  1  0
 43 44  2  0
 43 45  1  0
 16 11  1  0
 26 21  1  0
 32 27  1  0
 39 34  1  0
 44 38  1  0
  1 46  1  0
  1 47  1  0
  1 48  1  0
  2 49  1  0
  2 50  1  0
  3 51  1  0
  3 52  1  0
  4 53  1  0
  4 54  1  0
  5 55  1  0
  5 56  1  0
  6 57  1  0
  6 58  1  0
  7 59  1  0
 10 60  1  0
 12 61  1  0
 13 62  1  0
 15 63  1  0
 16 64  1  0
 20 65  1  0
 22 66  1  0
 23 67  1  0
 24 68  1  0
 26 69  1  0
 28 70  1  0
 29 71  1  0
 30 72  1  0
 32 73  1  0
 33 74  1  0
 33 75  1  0
 34 76  1  0
 35 77  1  0
 36 78  1  0
 36 79  1  0
 37 80  1  0
 37 81  1  0
 40 82  1  0
 42 83  1  0
 44 84  1  0
 45 85  1  0
M  END
>  <Ligand ID>  (1) 
LIG0004313

>  <Ligand>  (1) 
CHEMBL308868

>  <SMILES>  (1) 
CCCCCCNC(=O)Nc1ccc(cc1)S(=O)(=O)Nc1cccc(c1)c1cccc(c1)CC1NCCc2c1cc(O)c(c2)O

>  <CID>  (1) 
44313150.0

>  <ChEMBL ID>  (1) 
nan

>  <InChiKey>  (1) 
DHZKKUFSEKSPHA-UHFFFAOYSA-N

>  <InChi>  (1) 
InChI=1S/C35H40N4O5S/c1-2-3-4-5-17-37-35(42)38-28-12-14-30(15-13-28)45(43,44)39-29-11-7-10-26(21-29)25-9-6-8-24(19-25)20-32-31-23-34(41)33(40)22-27(31)16-18-36-32/h6-15,19,21-23,32,36,39-41H,2-5,16-18,20H2,1H3,(H2,37,38,42)

>  <IUPAC Name>  (1) 
1-[4-[[3-[3-[(6,7-dihydroxy-1,2,3,4-tetrahydroisoquinolin-1-yl)methyl]phenyl]phenyl]sulfamoyl]phenyl]-3-hexylurea

$$$$
