
     RDKit          3D

 81 89  0  0  0  0  0  0  0  0999 V2000
    2.4906   -2.1130   -1.4313 C   0  0  0  0  0  0  0  0  0  0  0  0
    1.9524   -1.9865   -0.1842 O   0  0  0  0  0  0  0  0  0  0  0  0
    1.0063   -0.9843   -0.0341 C   0  0  1  0  0  0  0  0  0  0  0  0
    0.4699   -1.0376    1.3670 C   0  0  0  0  0  0  0  0  0  0  0  0
   -0.4196    0.1694    1.6763 C   0  0  0  0  0  0  0  0  0  0  0  0
   -0.5130    0.9874    0.4136 C   0  0  1  0  0  0  0  0  0  0  0  0
    0.8712    1.4685    0.1478 C   0  0  0  0  0  0  0  0  0  0  0  0
    1.7463    0.3276   -0.2727 C   0  0  1  0  0  0  0  0  0  0  0  0
    3.0561    0.3179    0.5023 C   0  0  0  0  0  0  0  0  0  0  0  0
    3.8038    1.4536    0.3533 O   0  0  0  0  0  0  0  0  0  0  0  0
    4.9708    1.3594    1.0674 C   0  0  0  0  0  0  0  0  0  0  0  0
    5.8452    0.2512    0.6791 C   0  0  0  0  0  0  0  0  0  0  0  0
    5.8414   -1.0041    1.2414 C   0  0  0  0  0  0  0  0  0  0  0  0
    6.7031   -1.9985    0.7974 C   0  0  0  0  0  0  0  0  0  0  0  0
    7.6057   -1.7710   -0.2323 C   0  0  0  0  0  0  0  0  0  0  0  0
    7.6029   -0.5116   -0.7893 C   0  0  0  0  0  0  0  0  0  0  0  0
    6.7509    0.4964   -0.3614 C   0  0  0  0  0  0  0  0  0  0  0  0
   -1.0246    0.0786   -0.6890 C   0  0  1  0  0  0  0  0  0  0  0  0
   -0.1098   -1.0674   -1.0148 C   0  0  2  0  0  0  0  0  0  0  0  0
   -0.9221   -2.2426   -0.8945 O   0  0  0  0  0  0  0  0  0  0  0  0
   -2.0912   -1.9612   -0.2055 C   0  0  0  0  0  0  0  0  0  0  0  0
   -2.1494   -0.6239   -0.0639 C   0  0  0  0  0  0  0  0  0  0  0  0
   -3.1193    0.1089    0.5558 C   0  0  0  0  0  0  0  0  0  0  0  0
   -2.9468    1.5760    0.6255 C   0  0  0  0  0  0  0  0  0  0  0  0
   -1.5532    2.0838    0.4853 C   0  0  2  0  0  0  0  0  0  0  0  0
   -1.3681    2.9424   -0.6534 N   0  0  0  0  0  0  0  0  0  0  0  0
   -1.3000    2.2751   -1.9134 C   0  0  0  0  0  0  0  0  0  0  0  0
   -1.5263    0.8132   -1.8915 C   0  0  0  0  0  0  0  0  0  0  0  0
   -2.1808    4.1226   -0.6657 C   0  0  0  0  0  0  0  0  0  0  0  0
   -1.8451    5.1269    0.4000 C   0  0  0  0  0  0  0  0  0  0  0  0
   -2.7388    6.3646    0.3468 C   0  0  0  0  0  0  0  0  0  0  0  0
   -1.3144    6.4926    0.0335 C   0  0  0  0  0  0  0  0  0  0  0  0
   -4.1679   -0.5991    1.0997 C   0  0  0  0  0  0  0  0  0  0  0  0
   -4.1727   -1.9737    0.9885 C   0  0  0  0  0  0  0  0  0  0  0  0
   -3.1509   -2.6947    0.3426 C   0  0  0  0  0  0  0  0  0  0  0  0
   -3.1968   -3.9829    0.2623 O   0  0  0  0  0  0  0  0  0  0  0  0
   -3.2745   -5.2805    0.1996 C   0  0  0  0  0  0  0  0  0  0  0  0
   -4.4939   -5.8310   -0.5198 C   0  0  0  0  0  0  0  0  0  0  0  0
   -4.5449   -6.0987   -1.8160 N   0  0  0  0  0  0  0  0  0  0  0  0
   -5.7547   -6.5553   -2.0851 N   0  0  0  0  0  0  0  0  0  0  0  0
   -6.4679   -6.5794   -0.9749 N   0  0  0  0  0  0  0  0  0  0  0  0
   -5.6902   -6.1263    0.0222 N   0  0  0  0  0  0  0  0  0  0  0  0
    3.0112   -1.2685   -1.8641 H   0  0  0  0  0  0  0  0  0  0  0  0
    1.7347   -2.5696   -2.1257 H   0  0  0  0  0  0  0  0  0  0  0  0
    3.2692   -2.9288   -1.3477 H   0  0  0  0  0  0  0  0  0  0  0  0
   -0.1309   -1.9677    1.4399 H   0  0  0  0  0  0  0  0  0  0  0  0
    1.2682   -1.1205    2.1330 H   0  0  0  0  0  0  0  0  0  0  0  0
   -1.3455   -0.1889    2.1003 H   0  0  0  0  0  0  0  0  0  0  0  0
    0.1043    0.7766    2.4692 H   0  0  0  0  0  0  0  0  0  0  0  0
    0.9524    2.3500   -0.5185 H   0  0  0  0  0  0  0  0  0  0  0  0
    1.3073    1.8524    1.1215 H   0  0  0  0  0  0  0  0  0  0  0  0
    1.9721    0.4442   -1.3314 H   0  0  0  0  0  0  0  0  0  0  0  0
    2.7679    0.1741    1.5876 H   0  0  0  0  0  0  0  0  0  0  0  0
    3.6623   -0.5664    0.2590 H   0  0  0  0  0  0  0  0  0  0  0  0
    5.5150    2.3453    1.0839 H   0  0  0  0  0  0  0  0  0  0  0  0
    4.6841    1.1975    2.1367 H   0  0  0  0  0  0  0  0  0  0  0  0
    5.1410   -1.1983    2.0485 H   0  0  0  0  0  0  0  0  0  0  0  0
    6.6801   -2.9781    1.2564 H   0  0  0  0  0  0  0  0  0  0  0  0
    8.2598   -2.5599   -0.5545 H   0  0  0  0  0  0  0  0  0  0  0  0
    8.3014   -0.3312   -1.5895 H   0  0  0  0  0  0  0  0  0  0  0  0
    6.7817    1.4784   -0.8292 H   0  0  0  0  0  0  0  0  0  0  0  0
    0.2157   -0.9269   -2.0648 H   0  0  0  0  0  0  0  0  0  0  0  0
   -3.3244    1.8844    1.6496 H   0  0  0  0  0  0  0  0  0  0  0  0
   -3.6464    2.1043   -0.0625 H   0  0  0  0  0  0  0  0  0  0  0  0
   -1.3022    2.6916    1.3761 H   0  0  0  0  0  0  0  0  0  0  0  0
   -2.1087    2.7464   -2.5427 H   0  0  0  0  0  0  0  0  0  0  0  0
   -0.3807    2.4992   -2.4916 H   0  0  0  0  0  0  0  0  0  0  0  0
   -1.0396    0.3258   -2.7769 H   0  0  0  0  0  0  0  0  0  0  0  0
   -2.6213    0.6042   -2.0755 H   0  0  0  0  0  0  0  0  0  0  0  0
   -3.2718    3.9463   -0.7612 H   0  0  0  0  0  0  0  0  0  0  0  0
   -1.9244    4.6411   -1.6428 H   0  0  0  0  0  0  0  0  0  0  0  0
   -1.6642    4.7828    1.4395 H   0  0  0  0  0  0  0  0  0  0  0  0
   -3.4537    6.4784   -0.4916 H   0  0  0  0  0  0  0  0  0  0  0  0
   -3.1560    6.7673    1.2930 H   0  0  0  0  0  0  0  0  0  0  0  0
   -1.0333    6.7047   -1.0220 H   0  0  0  0  0  0  0  0  0  0  0  0
   -0.6962    7.0348    0.7596 H   0  0  0  0  0  0  0  0  0  0  0  0
   -4.9488   -0.0423    1.5944 H   0  0  0  0  0  0  0  0  0  0  0  0
   -5.0195   -2.5144    1.4294 H   0  0  0  0  0  0  0  0  0  0  0  0
   -3.3962   -5.7360    1.2411 H   0  0  0  0  0  0  0  0  0  0  0  0
   -2.3675   -5.8322   -0.1776 H   0  0  0  0  0  0  0  0  0  0  0  0
   -7.4771   -6.8927   -0.8539 H   0  0  0  0  0  0  0  0  0  0  0  0
  1  2  1  0
  3  2  1  6
  3  4  1  0
  4  5  1  0
  6  5  1  1
  6  7  1  0
  7  8  1  0
  8  9  1  0
  9 10  1  0
 10 11  1  0
 11 12  1  0
 12 13  2  0
 13 14  1  0
 14 15  2  0
 15 16  1  0
 16 17  2  0
  6 18  1  0
 18 19  1  0
 19 20  1  0
 20 21  1  0
 21 22  2  0
 22 23  1  0
 23 24  1  0
 24 25  1  0
 25 26  1  0
 26 27  1  0
 27 28  1  0
 26 29  1  0
 29 30  1  0
 30 31  1  0
 31 32  1  0
 23 33  2  0
 33 34  1  0
 34 35  2  0
 35 36  1  0
 36 37  1  0
 37 38  1  0
 38 39  1  0
 39 40  2  0
 40 41  1  0
 41 42  1  0
  8  3  1  0
 17 12  1  0
 18 28  1  6
 32 30  1  0
 42 38  2  0
 19  3  1  0
 35 21  1  0
 25  6  1  0
 22 18  1  0
  1 43  1  0
  1 44  1  0
  1 45  1  0
  4 46  1  0
  4 47  1  0
  5 48  1  0
  5 49  1  0
  7 50  1  0
  7 51  1  0
  8 52  1  6
  9 53  1  0
  9 54  1  0
 11 55  1  0
 11 56  1  0
 13 57  1  0
 14 58  1  0
 15 59  1  0
 16 60  1  0
 17 61  1  0
 19 62  1  6
 24 63  1  0
 24 64  1  0
 25 65  1  1
 27 66  1  0
 27 67  1  0
 28 68  1  0
 28 69  1  0
 29 70  1  0
 29 71  1  0
 30 72  1  0
 31 73  1  0
 31 74  1  0
 32 75  1  0
 32 76  1  0
 33 77  1  0
 34 78  1  0
 37 79  1  0
 37 80  1  0
 41 81  1  0
M  END
>  <Ligand ID>  (1) 
LIG0004703

>  <Ligand>  (1) 
CHEMBL3909419

>  <SMILES>  (1) 
CO[C@@]12CC[C@@]3(C[C@H]1COCc1ccccc1)[C@]14[C@@H]2Oc2c4c(C[C@@H]3N(CC1)CC1CC1)ccc2OCc1nn[nH]n1

>  <CID>  (1) 
134132054.0

>  <ChEMBL ID>  (1) 
nan

>  <InChiKey>  (1) 
RSYFMDJMLZHEDG-OQNFWSEQSA-N

>  <InChi>  (1) 
InChI=1S/C33H39N5O4/c1-39-33-12-11-31(16-24(33)19-40-18-22-5-3-2-4-6-22)26-15-23-9-10-25(41-20-27-34-36-37-35-27)29-28(23)32(31,30(33)42-29)13-14-38(26)17-21-7-8-21/h2-6,9-10,21,24,26,30H,7-8,11-20H2,1H3,(H,34,35,36,37)/t24-,26-,30-,31-,32+,33-/m0/s1

>  <IUPAC Name>  (1) 
(1R,2R,6S,14S,15S,16S)-5-(cyclopropylmethyl)-15-methoxy-16-(phenylmethoxymethyl)-11-(2H-tetrazol-5-ylmethoxy)-13-oxa-5-azahexacyclo[13.2.2.12,8.01,6.02,14.012,20]icosa-8(20),9,11-triene

$$$$
