
     RDKit          3D

 47 50  0  0  0  0  0  0  0  0999 V2000
   -4.9739    2.8121   -1.4209 O   0  0  0  0  0  0  0  0  0  0  0  0
   -5.3887    1.9537   -0.4245 C   0  0  0  0  0  0  0  0  0  0  0  0
   -5.1519    0.5233   -0.9204 C   0  0  1  0  0  0  0  0  0  0  0  0
   -3.8148    0.4113   -1.1605 O   0  0  0  0  0  0  0  0  0  0  0  0
   -3.2677   -0.5395   -0.3494 C   0  0  2  0  0  0  0  0  0  0  0  0
   -4.3515   -1.3030    0.3211 C   0  0  1  0  0  0  0  0  0  0  0  0
   -5.5916   -0.4929    0.0754 C   0  0  2  0  0  0  0  0  0  0  0  0
   -6.5606   -1.3726   -0.4599 O   0  0  0  0  0  0  0  0  0  0  0  0
   -4.4716   -2.6094   -0.1476 O   0  0  0  0  0  0  0  0  0  0  0  0
   -2.3524    0.0722    0.6089 N   0  0  0  0  0  0  0  0  0  0  0  0
   -2.6356    0.6856    1.7731 C   0  0  0  0  0  0  0  0  0  0  0  0
   -1.4984    1.1175    2.3667 N   0  0  0  0  0  0  0  0  0  0  0  0
   -0.4698    0.7896    1.5959 C   0  0  0  0  0  0  0  0  0  0  0  0
   -0.9938    0.1380    0.4987 C   0  0  0  0  0  0  0  0  0  0  0  0
   -0.2328   -0.3313   -0.4839 N   0  0  0  0  0  0  0  0  0  0  0  0
    1.1041   -0.1885   -0.4502 C   0  0  0  0  0  0  0  0  0  0  0  0
    1.9122   -0.6934   -1.5057 N   0  0  0  0  0  0  0  0  0  0  0  0
    3.3058   -0.5768   -1.5292 N   0  0  0  0  0  0  0  0  0  0  0  0
    3.9697   -0.7727   -0.4442 C   0  0  0  0  0  0  0  0  0  0  0  0
    5.4130   -0.6483   -0.4842 C   0  0  0  0  0  0  0  0  0  0  0  0
    6.0150   -0.3240   -1.6885 C   0  0  0  0  0  0  0  0  0  0  0  0
    7.3806   -0.2111   -1.7060 C   0  0  0  0  0  0  0  0  0  0  0  0
    8.1805   -0.4001   -0.6038 C   0  0  0  0  0  0  0  0  0  0  0  0
    7.5733   -0.7271    0.6102 C   0  0  0  0  0  0  0  0  0  0  0  0
    6.2091   -0.8396    0.6264 C   0  0  0  0  0  0  0  0  0  0  0  0
    9.9189   -0.2285   -0.7473 Cl  0  0  0  0  0  0  0  0  0  0  0  0
    1.6488    0.4435    0.6077 N   0  0  0  0  0  0  0  0  0  0  0  0
    0.9102    0.9332    1.6237 C   0  0  0  0  0  0  0  0  0  0  0  0
    1.4782    1.6019    2.7447 N   0  0  0  0  0  0  0  0  0  0  0  0
   -4.5926    3.6504   -1.0561 H   0  0  0  0  0  0  0  0  0  0  0  0
   -4.8574    2.0895    0.5276 H   0  0  0  0  0  0  0  0  0  0  0  0
   -6.4777    2.1151   -0.2158 H   0  0  0  0  0  0  0  0  0  0  0  0
   -5.7881    0.3979   -1.8367 H   0  0  0  0  0  0  0  0  0  0  0  0
   -2.6853   -1.2664   -0.9758 H   0  0  0  0  0  0  0  0  0  0  0  0
   -4.1755   -1.3392    1.4164 H   0  0  0  0  0  0  0  0  0  0  0  0
   -5.9792   -0.0320    1.0157 H   0  0  0  0  0  0  0  0  0  0  0  0
   -6.4400   -2.2853   -0.0968 H   0  0  0  0  0  0  0  0  0  0  0  0
   -4.1221   -2.6996   -1.0890 H   0  0  0  0  0  0  0  0  0  0  0  0
   -3.6199    0.8184    2.1812 H   0  0  0  0  0  0  0  0  0  0  0  0
    1.4680   -1.1733   -2.3040 H   0  0  0  0  0  0  0  0  0  0  0  0
    3.5176   -1.0269    0.5069 H   0  0  0  0  0  0  0  0  0  0  0  0
    5.4269   -0.1698   -2.5655 H   0  0  0  0  0  0  0  0  0  0  0  0
    7.8401    0.0430   -2.6538 H   0  0  0  0  0  0  0  0  0  0  0  0
    8.1984   -0.8713    1.4563 H   0  0  0  0  0  0  0  0  0  0  0  0
    5.6939   -1.0961    1.5654 H   0  0  0  0  0  0  0  0  0  0  0  0
    1.2714    1.1550    3.6856 H   0  0  0  0  0  0  0  0  0  0  0  0
    2.0571    2.4674    2.6672 H   0  0  0  0  0  0  0  0  0  0  0  0
  1  2  1  0
  2  3  1  0
  3  4  1  0
  4  5  1  0
  5  6  1  0
  6  7  1  0
  7  8  1  0
  6  9  1  0
  5 10  1  0
 10 11  1  0
 11 12  2  0
 12 13  1  0
 13 14  2  0
 14 15  1  0
 15 16  2  0
 16 17  1  0
 17 18  1  0
 18 19  2  0
 19 20  1  0
 20 21  2  0
 21 22  1  0
 22 23  2  0
 23 24  1  0
 24 25  2  0
 23 26  1  0
 16 27  1  0
 27 28  2  0
 28 29  1  0
  7  3  1  0
 14 10  1  0
 25 20  1  0
 28 13  1  0
  1 30  1  0
  2 31  1  0
  2 32  1  0
  3 33  1  6
  5 34  1  6
  6 35  1  1
  7 36  1  1
  8 37  1  0
  9 38  1  0
 11 39  1  0
 17 40  1  0
 19 41  1  0
 21 42  1  0
 22 43  1  0
 24 44  1  0
 25 45  1  0
 29 46  1  0
 29 47  1  0
M  END
>  <Ligand ID>  (1) 
LIG0005879

>  <Ligand>  (1) 
SCHEMBL939637

>  <SMILES>  (1) 
OC[C@H]1O[C@H]([C@@H]([C@@H]1O)O)n1cnc2c1nc(N/N=C/c1ccc(cc1)Cl)nc2N

>  <CID>  (1) 
10251529.0

>  <ChEMBL ID>  (1) 
nan

>  <InChiKey>  (1) 
CFRIPBAEDXQEHL-KFFALWPESA-N

>  <InChi>  (1) 
InChI=1S/C17H18ClN7O4/c18-9-3-1-8(2-4-9)5-21-24-17-22-14(19)11-15(23-17)25(7-20-11)16-13(28)12(27)10(6-26)29-16/h1-5,7,10,12-13,16,26-28H,6H2,(H3,19,22,23,24)/b21-5+/t10-,12-,13-,16-/m1/s1

>  <IUPAC Name>  (1) 
(2R,3R,4S,5R)-2-[6-amino-2-[(2E)-2-[(4-chlorophenyl)methylidene]hydrazinyl]purin-9-yl]-5-(hydroxymethyl)oxolane-3,4-diol

$$$$
