
     RDKit          3D

 66 69  0  0  0  0  0  0  0  0999 V2000
   -6.4626    4.5299   -0.8233 O   0  0  0  0  0  0  0  0  0  0  0  0
   -5.9871    3.2546   -0.5400 C   0  0  0  0  0  0  0  0  0  0  0  0
   -6.8483    2.3701   -0.2713 O   0  0  0  0  0  0  0  0  0  0  0  0
   -4.5797    2.9564   -0.5522 C   0  0  0  0  0  0  0  0  0  0  0  0
   -3.6747    3.9589   -0.8530 C   0  0  0  0  0  0  0  0  0  0  0  0
   -2.3264    3.7504   -0.8833 C   0  0  0  0  0  0  0  0  0  0  0  0
   -1.8876    2.4563   -0.5925 C   0  0  0  0  0  0  0  0  0  0  0  0
   -2.7802    1.4480   -0.2911 C   0  0  0  0  0  0  0  0  0  0  0  0
   -4.1365    1.6700   -0.2634 C   0  0  0  0  0  0  0  0  0  0  0  0
   -5.0906    0.7304    0.0242 O   0  0  0  0  0  0  0  0  0  0  0  0
   -4.9155   -0.6117    0.3396 C   0  0  0  0  0  0  0  0  0  0  0  0
   -5.4835   -1.4352   -0.7986 C   0  0  0  0  0  0  0  0  0  0  0  0
   -6.0535   -2.7012   -0.2478 C   0  0  0  0  0  0  0  0  0  0  0  0
   -7.2980   -2.2885    0.5511 C   0  0  0  0  0  0  0  0  0  0  0  0
   -6.9173   -1.3659    1.6827 C   0  0  0  0  0  0  0  0  0  0  0  0
   -5.4657   -1.0146    1.6868 C   0  0  0  0  0  0  0  0  0  0  0  0
   -0.4633    2.1359   -0.6026 C   0  0  0  0  0  0  0  0  0  0  0  0
    0.4044    3.1465   -0.2342 C   0  0  0  0  0  0  0  0  0  0  0  0
    1.7584    2.8834   -0.2325 C   0  0  0  0  0  0  0  0  0  0  0  0
    2.2673    1.6372   -0.5890 C   0  0  0  0  0  0  0  0  0  0  0  0
    1.3931    0.6360   -0.9547 C   0  0  0  0  0  0  0  0  0  0  0  0
    0.0179    0.8923   -0.9600 C   0  0  0  0  0  0  0  0  0  0  0  0
    3.7343    1.4869   -0.5542 C   0  0  0  0  0  0  0  0  0  0  0  0
    4.2999    1.0493    0.7545 C   0  0  0  0  0  0  0  0  0  0  0  0
    5.7146    0.9499    0.6887 N   0  0  0  0  0  0  0  0  0  0  0  0
    6.2672   -0.0874   -0.1093 C   0  0  0  0  0  0  0  0  0  0  0  0
    6.0344   -1.4732    0.4473 C   0  0  1  0  0  0  0  0  0  0  0  0
    6.7052   -2.4475   -0.4435 C   0  0  0  0  0  0  0  0  0  0  0  0
    6.9080   -3.7340    0.0708 C   0  0  0  0  0  0  0  0  0  0  0  0
    7.5336   -4.6895   -0.7145 C   0  0  0  0  0  0  0  0  0  0  0  0
    7.9650   -4.3893   -2.0110 C   0  0  0  0  0  0  0  0  0  0  0  0
    7.7515   -3.1511   -2.4611 N   0  0  0  0  0  0  0  0  0  0  0  0
    7.1414   -2.1990   -1.7109 C   0  0  0  0  0  0  0  0  0  0  0  0
    6.6096   -1.5562    1.7384 O   0  0  0  0  0  0  0  0  0  0  0  0
   -7.2951    4.9137   -0.3702 H   0  0  0  0  0  0  0  0  0  0  0  0
   -4.0238    4.9632   -1.0781 H   0  0  0  0  0  0  0  0  0  0  0  0
   -1.6268    4.5496   -1.1213 H   0  0  0  0  0  0  0  0  0  0  0  0
   -2.3875    0.4726   -0.0753 H   0  0  0  0  0  0  0  0  0  0  0  0
   -3.8331   -0.8514    0.3659 H   0  0  0  0  0  0  0  0  0  0  0  0
   -6.3174   -0.8487   -1.2522 H   0  0  0  0  0  0  0  0  0  0  0  0
   -4.7110   -1.6722   -1.5449 H   0  0  0  0  0  0  0  0  0  0  0  0
   -6.4208   -3.3689   -1.0575 H   0  0  0  0  0  0  0  0  0  0  0  0
   -5.3218   -3.2478    0.3817 H   0  0  0  0  0  0  0  0  0  0  0  0
   -7.8951   -1.6607   -0.1616 H   0  0  0  0  0  0  0  0  0  0  0  0
   -7.9056   -3.1468    0.8455 H   0  0  0  0  0  0  0  0  0  0  0  0
   -7.5594   -0.4681    1.7267 H   0  0  0  0  0  0  0  0  0  0  0  0
   -7.1051   -1.9527    2.6314 H   0  0  0  0  0  0  0  0  0  0  0  0
   -5.3434   -0.1285    2.3722 H   0  0  0  0  0  0  0  0  0  0  0  0
   -4.8733   -1.8414    2.1657 H   0  0  0  0  0  0  0  0  0  0  0  0
    0.0353    4.1203    0.0458 H   0  0  0  0  0  0  0  0  0  0  0  0
    2.4121    3.6743    0.0535 H   0  0  0  0  0  0  0  0  0  0  0  0
    1.7926   -0.3377   -1.2332 H   0  0  0  0  0  0  0  0  0  0  0  0
   -0.6763    0.1018   -1.2485 H   0  0  0  0  0  0  0  0  0  0  0  0
    4.2008    2.4635   -0.7950 H   0  0  0  0  0  0  0  0  0  0  0  0
    4.0095    0.8163   -1.4111 H   0  0  0  0  0  0  0  0  0  0  0  0
    4.0423    1.8041    1.5167 H   0  0  0  0  0  0  0  0  0  0  0  0
    3.9085    0.0875    1.1364 H   0  0  0  0  0  0  0  0  0  0  0  0
    6.2586    1.2811    1.4875 H   0  0  0  0  0  0  0  0  0  0  0  0
    7.3577    0.0602   -0.2066 H   0  0  0  0  0  0  0  0  0  0  0  0
    5.8296   -0.0312   -1.1291 H   0  0  0  0  0  0  0  0  0  0  0  0
    4.9893   -1.7607    0.5474 H   0  0  0  0  0  0  0  0  0  0  0  0
    6.5834   -3.9988    1.0785 H   0  0  0  0  0  0  0  0  0  0  0  0
    7.6875   -5.6957   -0.2972 H   0  0  0  0  0  0  0  0  0  0  0  0
    8.4435   -5.1796   -2.5661 H   0  0  0  0  0  0  0  0  0  0  0  0
    7.0178   -1.2453   -2.1588 H   0  0  0  0  0  0  0  0  0  0  0  0
    6.5914   -0.6700    2.1671 H   0  0  0  0  0  0  0  0  0  0  0  0
  1  2  1  0
  2  3  2  0
  2  4  1  0
  4  5  2  0
  5  6  1  0
  6  7  2  0
  7  8  1  0
  8  9  2  0
  9 10  1  0
 10 11  1  0
 11 12  1  0
 12 13  1  0
 13 14  1  0
 14 15  1  0
 15 16  1  0
  7 17  1  0
 17 18  2  0
 18 19  1  0
 19 20  2  0
 20 21  1  0
 21 22  2  0
 20 23  1  0
 23 24  1  0
 24 25  1  0
 25 26  1  0
 26 27  1  0
 27 28  1  0
 28 29  2  0
 29 30  1  0
 30 31  2  0
 31 32  1  0
 32 33  2  0
 27 34  1  0
  9  4  1  0
 16 11  1  0
 22 17  1  0
 33 28  1  0
  1 35  1  0
  5 36  1  0
  6 37  1  0
  8 38  1  0
 11 39  1  0
 12 40  1  0
 12 41  1  0
 13 42  1  0
 13 43  1  0
 14 44  1  0
 14 45  1  0
 15 46  1  0
 15 47  1  0
 16 48  1  0
 16 49  1  0
 18 50  1  0
 19 51  1  0
 21 52  1  0
 22 53  1  0
 23 54  1  0
 23 55  1  0
 24 56  1  0
 24 57  1  0
 25 58  1  0
 26 59  1  0
 26 60  1  0
 27 61  1  1
 29 62  1  0
 30 63  1  0
 31 64  1  0
 33 65  1  0
 34 66  1  0
M  END
>  <Ligand ID>  (1) 
LIG0001368

>  <Ligand>  (1) 
CHEMBL488224

>  <SMILES>  (1) 
OC(=O)c1ccc(cc1OC1CCCCC1)c1ccc(cc1)CCNC[C@@H](c1cccnc1)O

>  <CID>  (1) 
24893964.0

>  <ChEMBL ID>  (1) 
nan

>  <InChiKey>  (1) 
WHYGWEJJAHPBQA-SANMLTNESA-N

>  <InChi>  (1) 
InChI=1S/C28H32N2O4/c31-26(23-5-4-15-29-18-23)19-30-16-14-20-8-10-21(11-9-20)22-12-13-25(28(32)33)27(17-22)34-24-6-2-1-3-7-24/h4-5,8-13,15,17-18,24,26,30-31H,1-3,6-7,14,16,19H2,(H,32,33)/t26-/m0/s1

>  <IUPAC Name>  (1) 
2-cyclohexyloxy-4-[4-[2-[[(2R)-2-hydroxy-2-pyridin-3-ylethyl]amino]ethyl]phenyl]benzoic acid

$$$$
