
     RDKit          3D

 39 41  0  0  0  0  0  0  0  0999 V2000
    3.4429   -1.0445   -0.1990 C   0  0  0  0  0  0  0  0  0  0  0  0
    1.9876   -0.9332    0.0772 C   0  0  0  0  0  0  0  0  0  0  0  0
    1.2124   -1.9170   -0.3770 C   0  0  0  0  0  0  0  0  0  0  0  0
   -0.2602   -1.8512   -0.4355 C   0  0  0  0  0  0  0  0  0  0  0  0
   -0.7466   -0.5664    0.1652 C   0  0  1  0  0  0  0  0  0  0  0  0
    0.0595   -0.3113    1.4273 C   0  0  0  0  0  0  0  0  0  0  0  0
    1.3740    0.1978    0.8185 C   0  0  2  0  0  0  0  0  0  0  0  0
    0.8275    1.2495   -0.1233 C   0  0  0  0  0  0  0  0  0  0  0  0
    1.7470    1.5661   -1.2696 C   0  0  0  0  0  0  0  0  0  0  0  0
    0.6426    2.5098    0.6685 C   0  0  0  0  0  0  0  0  0  0  0  0
   -0.4054    0.6400   -0.6552 C   0  0  2  0  0  0  0  0  0  0  0  0
   -1.6504    1.4712   -0.6149 C   0  0  0  0  0  0  0  0  0  0  0  0
   -2.6964    0.3633   -0.7533 C   0  0  0  0  0  0  0  0  0  0  0  0
   -2.2171   -0.5259    0.3921 C   0  0  1  0  0  0  0  0  0  0  0  0
   -2.9192   -1.8488    0.2663 C   0  0  0  0  0  0  0  0  0  0  0  0
    3.5815   -1.1572   -1.3036 H   0  0  0  0  0  0  0  0  0  0  0  0
    4.0464   -0.2533    0.2512 H   0  0  0  0  0  0  0  0  0  0  0  0
    3.7568   -2.0308    0.2328 H   0  0  0  0  0  0  0  0  0  0  0  0
    1.6794   -2.8481   -0.7370 H   0  0  0  0  0  0  0  0  0  0  0  0
   -0.6274   -1.9820   -1.4754 H   0  0  0  0  0  0  0  0  0  0  0  0
   -0.6418   -2.6664    0.2137 H   0  0  0  0  0  0  0  0  0  0  0  0
    0.2983   -1.2848    1.9272 H   0  0  0  0  0  0  0  0  0  0  0  0
   -0.3727    0.4377    2.0906 H   0  0  0  0  0  0  0  0  0  0  0  0
    2.0484    0.6172    1.5789 H   0  0  0  0  0  0  0  0  0  0  0  0
    1.2794    1.3009   -2.2620 H   0  0  0  0  0  0  0  0  0  0  0  0
    2.7230    1.0830   -1.2410 H   0  0  0  0  0  0  0  0  0  0  0  0
    1.9399    2.6694   -1.3681 H   0  0  0  0  0  0  0  0  0  0  0  0
    1.5554    2.5836    1.3322 H   0  0  0  0  0  0  0  0  0  0  0  0
    0.7197    3.4151    0.0306 H   0  0  0  0  0  0  0  0  0  0  0  0
   -0.1985    2.5114    1.3694 H   0  0  0  0  0  0  0  0  0  0  0  0
   -0.2796    0.3177   -1.7110 H   0  0  0  0  0  0  0  0  0  0  0  0
   -1.7412    2.2137   -1.4268 H   0  0  0  0  0  0  0  0  0  0  0  0
   -1.8716    1.9629    0.3311 H   0  0  0  0  0  0  0  0  0  0  0  0
   -3.7174    0.7339   -0.5993 H   0  0  0  0  0  0  0  0  0  0  0  0
   -2.5388   -0.1288   -1.7337 H   0  0  0  0  0  0  0  0  0  0  0  0
   -2.5215   -0.0463    1.3247 H   0  0  0  0  0  0  0  0  0  0  0  0
   -3.9867   -1.6205   -0.0157 H   0  0  0  0  0  0  0  0  0  0  0  0
   -2.5482   -2.4924   -0.5360 H   0  0  0  0  0  0  0  0  0  0  0  0
   -2.9811   -2.3353    1.2644 H   0  0  0  0  0  0  0  0  0  0  0  0
  1  2  1  0
  2  3  2  0
  3  4  1  0
  5  4  1  6
  5  6  1  0
  6  7  1  0
  7  8  1  0
  8  9  1  0
  8 10  1  0
  8 11  1  0
 11 12  1  0
 12 13  1  0
 13 14  1  0
 14 15  1  0
  7  2  1  0
 11  5  1  0
 14  5  1  0
  1 16  1  0
  1 17  1  0
  1 18  1  0
  3 19  1  0
  4 20  1  0
  4 21  1  0
  6 22  1  0
  6 23  1  0
  7 24  1  1
  9 25  1  0
  9 26  1  0
  9 27  1  0
 10 28  1  0
 10 29  1  0
 10 30  1  0
 11 31  1  6
 12 32  1  0
 12 33  1  0
 13 34  1  0
 13 35  1  0
 14 36  1  1
 15 37  1  0
 15 38  1  0
 15 39  1  0
M  END
>  <Ligand ID>  (1) 
LIG0005002

>  <Ligand>  (1) 
alpha-Cedrene

>  <SMILES>  (1) 
CC1=CC[C@@]23C[C@@H]1C(C)(C)[C@@H]2CC[C@H]3C

>  <CID>  (1) 
6431015.0

>  <ChEMBL ID>  (1) 
nan

>  <InChiKey>  (1) 
IRAQOCYXUMOFCW-OSFYFWSMSA-N

>  <InChi>  (1) 
InChI=1S/C15H24/c1-10-7-8-15-9-12(10)14(3,4)13(15)6-5-11(15)2/h7,11-13H,5-6,8-9H2,1-4H3/t11-,12+,13+,15+/m1/s1

>  <IUPAC Name>  (1) 
(1S,2R,5S,7S)-2,6,6,8-tetramethyltricyclo[5.3.1.01,5]undec-8-ene

$$$$
