
     RDKit          3D

 27 28  0  0  0  0  0  0  0  0999 V2000
    0.2248   -2.3760   -0.2121 O   0  0  0  0  0  0  0  0  0  0  0  0
    0.1043   -1.1809   -0.0497 C   0  0  0  0  0  0  0  0  0  0  0  0
   -1.1213   -0.4695    0.3284 C   0  0  2  0  0  0  0  0  0  0  0  0
   -2.1549   -1.2708    1.0394 C   0  0  0  0  0  0  0  0  0  0  0  0
   -1.6491    0.3638   -0.8065 C   0  0  0  0  0  0  0  0  0  0  0  0
   -0.6155    1.4893   -0.9306 C   0  0  0  0  0  0  0  0  0  0  0  0
    0.4038    1.1605    0.1112 C   0  0  2  0  0  0  0  0  0  0  0  0
    1.1635   -0.1124   -0.1892 C   0  0  0  0  0  0  0  0  0  0  0  0
    2.2586   -0.2925    0.8261 C   0  0  0  0  0  0  0  0  0  0  0  0
    1.7037   -0.1469   -1.5919 C   0  0  0  0  0  0  0  0  0  0  0  0
   -0.5187    0.6253    1.2147 C   0  0  0  0  0  0  0  0  0  0  0  0
   -2.6775   -1.8800    0.2930 H   0  0  0  0  0  0  0  0  0  0  0  0
   -2.8854   -0.5669    1.4848 H   0  0  0  0  0  0  0  0  0  0  0  0
   -1.6520   -1.8965    1.7848 H   0  0  0  0  0  0  0  0  0  0  0  0
   -2.6434    0.7538   -0.5010 H   0  0  0  0  0  0  0  0  0  0  0  0
   -1.7361   -0.2071   -1.7612 H   0  0  0  0  0  0  0  0  0  0  0  0
   -0.2327    1.5949   -1.9498 H   0  0  0  0  0  0  0  0  0  0  0  0
   -1.1278    2.4209   -0.5850 H   0  0  0  0  0  0  0  0  0  0  0  0
    1.0220    1.9825    0.4417 H   0  0  0  0  0  0  0  0  0  0  0  0
    2.2766   -1.3147    1.2638 H   0  0  0  0  0  0  0  0  0  0  0  0
    2.1180    0.3926    1.6908 H   0  0  0  0  0  0  0  0  0  0  0  0
    3.2717   -0.0473    0.3926 H   0  0  0  0  0  0  0  0  0  0  0  0
    0.9905   -0.6660   -2.2749 H   0  0  0  0  0  0  0  0  0  0  0  0
    2.6177   -0.7727   -1.5768 H   0  0  0  0  0  0  0  0  0  0  0  0
    2.0155    0.8348   -1.9860 H   0  0  0  0  0  0  0  0  0  0  0  0
    0.1101    0.2180    2.0077 H   0  0  0  0  0  0  0  0  0  0  0  0
   -1.2663    1.3639    1.5357 H   0  0  0  0  0  0  0  0  0  0  0  0
  1  2  2  0
  2  3  1  0
  3  4  1  1
  3  5  1  0
  5  6  1  0
  6  7  1  0
  7  8  1  0
  8  9  1  0
  8 10  1  0
  7 11  1  0
  8  2  1  0
 11  3  1  0
  4 12  1  0
  4 13  1  0
  4 14  1  0
  5 15  1  0
  5 16  1  0
  6 17  1  0
  6 18  1  0
  7 19  1  1
  9 20  1  0
  9 21  1  0
  9 22  1  0
 10 23  1  0
 10 24  1  0
 10 25  1  0
 11 26  1  0
 11 27  1  0
M  END
>  <Ligand ID>  (1) 
LIG0000024

>  <Ligand>  (1) 
(-)-Fenchone

>  <SMILES>  (1) 
O=C1[C@]2(C)CC[C@H](C1(C)C)C2

>  <CID>  (1) 
82229.0

>  <ChEMBL ID>  (1) 
nan

>  <InChiKey>  (1) 
LHXDLQBQYFFVNW-OIBJUYFYSA-N

>  <InChi>  (1) 
InChI=1S/C10H16O/c1-9(2)7-4-5-10(3,6-7)8(9)11/h7H,4-6H2,1-3H3/t7-,10+/m0/s1

>  <IUPAC Name>  (1) 
(1R,4S)-1,3,3-trimethylbicyclo[2.2.1]heptan-2-one

$$$$
