
     RDKit          3D

117121  0  0  0  0  0  0  0  0999 V2000
    4.2680   -3.6459   -3.6921 N   0  0  0  0  0  0  0  0  0  0  0  0
    3.6617   -3.3550   -2.4515 C   0  0  0  0  0  0  0  0  0  0  0  0
    4.0946   -3.9141   -1.4157 O   0  0  0  0  0  0  0  0  0  0  0  0
    2.5366   -2.3893   -2.4664 C   0  0  0  0  0  0  0  0  0  0  0  0
    2.0216   -2.0978   -1.1875 N   0  0  0  0  0  0  0  0  0  0  0  0
    0.9849   -2.8562   -0.5170 C   0  0  0  0  0  0  0  0  0  0  0  0
    1.4174   -4.0491    0.2536 C   0  0  0  0  0  0  0  0  0  0  0  0
    0.3535   -4.5723    1.0844 N   0  0  0  0  0  0  0  0  0  0  0  0
   -0.9458   -4.9710    0.5824 C   0  0  0  0  0  0  0  0  0  0  0  0
   -1.0619   -4.8373   -0.6393 O   0  0  0  0  0  0  0  0  0  0  0  0
   -1.9996   -5.4655    1.4767 C   0  0  0  0  0  0  0  0  0  0  0  0
   -3.2228   -4.7590    1.7366 C   0  0  0  0  0  0  0  0  0  0  0  0
   -4.1546   -4.1738    0.7766 C   0  0  0  0  0  0  0  0  0  0  0  0
   -3.7816   -2.9427    0.0685 C   0  0  0  0  0  0  0  0  0  0  0  0
   -2.8586   -2.7653   -0.7257 O   0  0  0  0  0  0  0  0  0  0  0  0
   -4.5061   -1.6766    0.2216 N   0  0  0  0  0  0  0  0  0  0  0  0
   -4.0766   -0.5041   -0.5311 C   0  0  0  0  0  0  0  0  0  0  0  0
   -3.0256    0.2559    0.1236 C   0  0  0  0  0  0  0  0  0  0  0  0
   -2.5410   -0.0946    1.2087 O   0  0  0  0  0  0  0  0  0  0  0  0
   -2.4469    1.4737   -0.4037 N   0  0  0  0  0  0  0  0  0  0  0  0
   -1.3338    2.1403    0.2692 C   0  0  1  0  0  0  0  0  0  0  0  0
   -0.3414    2.5225   -0.7530 C   0  0  0  0  0  0  0  0  0  0  0  0
   -0.5761    2.3113   -1.9453 O   0  0  0  0  0  0  0  0  0  0  0  0
    0.9235    3.1406   -0.4732 N   0  0  0  0  0  0  0  0  0  0  0  0
    1.8152    3.4699   -1.5930 C   0  0  2  0  0  0  0  0  0  0  0  0
    2.7412    2.3059   -1.7780 C   0  0  0  0  0  0  0  0  0  0  0  0
    3.4894    2.1443   -2.7295 O   0  0  0  0  0  0  0  0  0  0  0  0
    2.7702    1.3062   -0.7722 N   0  0  0  0  0  0  0  0  0  0  0  0
    3.5432    0.0109   -0.9886 C   0  0  2  0  0  0  0  0  0  0  0  0
    2.5407   -0.9549   -0.5217 C   0  0  0  0  0  0  0  0  0  0  0  0
    2.0370   -0.7816    0.5915 O   0  0  0  0  0  0  0  0  0  0  0  0
    4.7847    0.1322   -0.1683 C   0  0  0  0  0  0  0  0  0  0  0  0
    5.7295   -0.9758   -0.1637 C   0  0  0  0  0  0  0  0  0  0  0  0
    6.8646   -1.0150   -0.9817 C   0  0  0  0  0  0  0  0  0  0  0  0
    7.5528   -2.1342   -0.7932 N   0  0  0  0  0  0  0  0  0  0  0  0
    6.9147   -2.8474    0.1251 C   0  0  0  0  0  0  0  0  0  0  0  0
    5.7823   -2.1606    0.5362 C   0  0  0  0  0  0  0  0  0  0  0  0
    4.9279   -2.6564    1.4862 C   0  0  0  0  0  0  0  0  0  0  0  0
    5.2249   -3.8932    2.0433 C   0  0  0  0  0  0  0  0  0  0  0  0
    6.3378   -4.6272    1.6756 C   0  0  0  0  0  0  0  0  0  0  0  0
    7.1489   -4.0619    0.7158 C   0  0  0  0  0  0  0  0  0  0  0  0
    2.4434    4.7930   -1.4823 C   0  0  0  0  0  0  0  0  0  0  0  0
    3.3026    5.0185   -0.2833 C   0  0  0  0  0  0  0  0  0  0  0  0
    3.8484    6.4555   -0.3324 C   0  0  0  0  0  0  0  0  0  0  0  0
    2.6592    7.2914   -0.3077 N   0  0  0  0  0  0  0  0  0  0  0  0
    2.3811    8.0659   -1.2830 C   0  0  0  0  0  0  0  0  0  0  0  0
    1.2419    8.8950   -1.3082 N   0  0  0  0  0  0  0  0  0  0  0  0
    3.2421    8.1330   -2.4381 N   0  0  0  0  0  0  0  0  0  0  0  0
   -1.7747    3.3173    1.1109 C   0  0  0  0  0  0  0  0  0  0  0  0
   -2.7386    2.8335    2.1637 C   0  0  0  0  0  0  0  0  0  0  0  0
   -2.2995    2.3520    3.3719 C   0  0  0  0  0  0  0  0  0  0  0  0
   -3.1201    1.9033    4.3758 C   0  0  0  0  0  0  0  0  0  0  0  0
   -4.4943    1.9601    4.1036 C   0  0  0  0  0  0  0  0  0  0  0  0
   -4.9379    2.4414    2.8943 C   0  0  0  0  0  0  0  0  0  0  0  0
   -4.1137    2.8902    1.8918 C   0  0  0  0  0  0  0  0  0  0  0  0
   -5.6170   -1.5603    1.0792 C   0  0  0  0  0  0  0  0  0  0  0  0
   -6.8761   -1.5861    0.3017 C   0  0  0  0  0  0  0  0  0  0  0  0
   -7.4373   -0.3640   -0.0789 C   0  0  0  0  0  0  0  0  0  0  0  0
   -8.6158   -0.3052   -0.8184 C   0  0  0  0  0  0  0  0  0  0  0  0
   -9.2767   -1.4420   -1.2054 C   0  0  0  0  0  0  0  0  0  0  0  0
   -8.7275   -2.6484   -0.8325 C   0  0  0  0  0  0  0  0  0  0  0  0
   -7.5473   -2.7089   -0.0915 C   0  0  0  0  0  0  0  0  0  0  0  0
    5.1171   -4.2455   -3.7347 H   0  0  0  0  0  0  0  0  0  0  0  0
    3.9156   -3.2889   -4.6121 H   0  0  0  0  0  0  0  0  0  0  0  0
    2.8351   -1.4602   -3.0080 H   0  0  0  0  0  0  0  0  0  0  0  0
    1.6522   -2.7714   -3.0605 H   0  0  0  0  0  0  0  0  0  0  0  0
    0.1980   -3.1619   -1.2616 H   0  0  0  0  0  0  0  0  0  0  0  0
    0.4079   -2.2100    0.1944 H   0  0  0  0  0  0  0  0  0  0  0  0
    2.3021   -3.8381    0.8714 H   0  0  0  0  0  0  0  0  0  0  0  0
    1.6713   -4.8694   -0.4791 H   0  0  0  0  0  0  0  0  0  0  0  0
    0.4586   -4.6930    2.0918 H   0  0  0  0  0  0  0  0  0  0  0  0
   -2.2461   -6.5551    1.2104 H   0  0  0  0  0  0  0  0  0  0  0  0
   -1.4662   -5.5889    2.4950 H   0  0  0  0  0  0  0  0  0  0  0  0
   -3.8855   -5.5114    2.3481 H   0  0  0  0  0  0  0  0  0  0  0  0
   -3.0884   -3.9505    2.5602 H   0  0  0  0  0  0  0  0  0  0  0  0
   -4.3808   -4.9172   -0.0844 H   0  0  0  0  0  0  0  0  0  0  0  0
   -5.1973   -4.0585    1.2015 H   0  0  0  0  0  0  0  0  0  0  0  0
   -4.9088    0.1698   -0.7942 H   0  0  0  0  0  0  0  0  0  0  0  0
   -3.6953   -0.8858   -1.5053 H   0  0  0  0  0  0  0  0  0  0  0  0
   -2.8914    1.7946   -1.2627 H   0  0  0  0  0  0  0  0  0  0  0  0
   -0.9496    1.3955    1.0181 H   0  0  0  0  0  0  0  0  0  0  0  0
    1.1137    3.3086    0.5050 H   0  0  0  0  0  0  0  0  0  0  0  0
    1.1762    3.4252   -2.5043 H   0  0  0  0  0  0  0  0  0  0  0  0
    2.2754    1.4798    0.0858 H   0  0  0  0  0  0  0  0  0  0  0  0
    3.7503    0.0129   -2.0440 H   0  0  0  0  0  0  0  0  0  0  0  0
    5.3323    1.0756   -0.4403 H   0  0  0  0  0  0  0  0  0  0  0  0
    4.5019    0.3100    0.9156 H   0  0  0  0  0  0  0  0  0  0  0  0
    7.1540   -0.2358   -1.6813 H   0  0  0  0  0  0  0  0  0  0  0  0
    8.4280   -2.4148   -1.2667 H   0  0  0  0  0  0  0  0  0  0  0  0
    4.0532   -2.1117    1.8023 H   0  0  0  0  0  0  0  0  0  0  0  0
    4.5832   -4.3438    2.8071 H   0  0  0  0  0  0  0  0  0  0  0  0
    6.5295   -5.5752    2.1316 H   0  0  0  0  0  0  0  0  0  0  0  0
    8.0256   -4.6199    0.4152 H   0  0  0  0  0  0  0  0  0  0  0  0
    1.6001    5.5476   -1.4662 H   0  0  0  0  0  0  0  0  0  0  0  0
    3.0087    5.0678   -2.3974 H   0  0  0  0  0  0  0  0  0  0  0  0
    2.6745    4.9964    0.6317 H   0  0  0  0  0  0  0  0  0  0  0  0
    4.0843    4.2778   -0.1351 H   0  0  0  0  0  0  0  0  0  0  0  0
    4.3557    6.6011   -1.2810 H   0  0  0  0  0  0  0  0  0  0  0  0
    4.4910    6.6646    0.5265 H   0  0  0  0  0  0  0  0  0  0  0  0
    1.1769    9.8513   -0.9018 H   0  0  0  0  0  0  0  0  0  0  0  0
    0.3453    8.5558   -1.7710 H   0  0  0  0  0  0  0  0  0  0  0  0
    3.7252    9.0642   -2.5559 H   0  0  0  0  0  0  0  0  0  0  0  0
    3.3704    7.3369   -3.0889 H   0  0  0  0  0  0  0  0  0  0  0  0
   -2.2867    4.1024    0.5483 H   0  0  0  0  0  0  0  0  0  0  0  0
   -0.8808    3.6544    1.6588 H   0  0  0  0  0  0  0  0  0  0  0  0
   -1.2074    2.3425    3.5080 H   0  0  0  0  0  0  0  0  0  0  0  0
   -2.7374    1.5309    5.3095 H   0  0  0  0  0  0  0  0  0  0  0  0
   -5.1429    1.6066    4.8929 H   0  0  0  0  0  0  0  0  0  0  0  0
   -6.0120    2.4576    2.7477 H   0  0  0  0  0  0  0  0  0  0  0  0
   -4.4927    3.2624    0.9567 H   0  0  0  0  0  0  0  0  0  0  0  0
   -5.7374   -2.3395    1.8638 H   0  0  0  0  0  0  0  0  0  0  0  0
   -5.5726   -0.5457    1.6095 H   0  0  0  0  0  0  0  0  0  0  0  0
   -7.0027    0.5856    0.1786 H   0  0  0  0  0  0  0  0  0  0  0  0
   -9.0256    0.6583   -1.0982 H   0  0  0  0  0  0  0  0  0  0  0  0
  -10.1904   -1.4442   -1.7808 H   0  0  0  0  0  0  0  0  0  0  0  0
   -9.2459   -3.5727   -1.1347 H   0  0  0  0  0  0  0  0  0  0  0  0
   -7.2059   -3.6979    0.1491 H   0  0  0  0  0  0  0  0  0  0  0  0
  1  2  1  0
  2  3  2  0
  2  4  1  0
  4  5  1  0
  5  6  1  0
  6  7  1  0
  7  8  1  0
  8  9  1  0
  9 10  2  0
  9 11  1  0
 11 12  1  0
 12 13  1  0
 13 14  1  0
 14 15  2  0
 14 16  1  0
 16 17  1  0
 17 18  1  0
 18 19  2  0
 18 20  1  0
 20 21  1  0
 21 22  1  0
 22 23  2  0
 22 24  1  0
 24 25  1  0
 25 26  1  0
 26 27  2  0
 26 28  1  0
 28 29  1  0
 29 30  1  0
 30 31  2  0
 29 32  1  0
 32 33  1  0
 33 34  2  0
 34 35  1  0
 35 36  1  0
 36 37  2  0
 37 38  1  0
 38 39  2  0
 39 40  1  0
 40 41  2  0
 25 42  1  0
 42 43  1  0
 43 44  1  0
 44 45  1  0
 45 46  2  3
 46 47  1  0
 46 48  1  0
 21 49  1  0
 49 50  1  0
 50 51  2  0
 51 52  1  0
 52 53  2  0
 53 54  1  0
 54 55  2  0
 16 56  1  0
 56 57  1  0
 57 58  2  0
 58 59  1  0
 59 60  2  0
 60 61  1  0
 61 62  2  0
 30  5  1  0
 37 33  1  0
 55 50  1  0
 62 57  1  0
 41 36  1  0
  1 63  1  0
  1 64  1  0
  4 65  1  0
  4 66  1  0
  6 67  1  0
  6 68  1  0
  7 69  1  0
  7 70  1  0
  8 71  1  0
 11 72  1  0
 11 73  1  0
 12 74  1  0
 12 75  1  0
 13 76  1  0
 13 77  1  0
 17 78  1  0
 17 79  1  0
 20 80  1  0
 21 81  1  1
 24 82  1  0
 25 83  1  6
 28 84  1  0
 29 85  1  6
 32 86  1  0
 32 87  1  0
 34 88  1  0
 35 89  1  0
 38 90  1  0
 39 91  1  0
 40 92  1  0
 41 93  1  0
 42 94  1  0
 42 95  1  0
 43 96  1  0
 43 97  1  0
 44 98  1  0
 44 99  1  0
 47100  1  0
 47101  1  0
 48102  1  0
 48103  1  0
 49104  1  0
 49105  1  0
 51106  1  0
 52107  1  0
 53108  1  0
 54109  1  0
 55110  1  0
 56111  1  0
 56112  1  0
 58113  1  0
 59114  1  0
 60115  1  0
 61116  1  0
 62117  1  0
M  END
>  <Ligand ID>  (1) 
LIG0001325

>  <Ligand>  (1) 
CHEMBL589468

>  <SMILES>  (1) 
NC(=O)CN1CCNC(=O)CCCC(=O)N(CC(=O)N[C@@H](C(=O)N[C@H](C(=O)N[C@H](C1=O)Cc1c[nH]c2c1cccc2)CCCN=C(N)N)Cc1ccccc1)Cc1ccccc1

>  <CID>  (1) 
46232223.0

>  <ChEMBL ID>  (1) 
nan

>  <InChiKey>  (1) 
DVNWJYATAPNBQI-PDHQKIGBSA-N

>  <InChi>  (1) 
InChI=1S/C44H55N11O7/c45-37(56)27-54-22-21-48-38(57)18-9-19-40(59)55(26-30-13-5-2-6-14-30)28-39(58)51-35(23-29-11-3-1-4-12-29)42(61)52-34(17-10-20-49-44(46)47)41(60)53-36(43(54)62)24-31-25-50-33-16-8-7-15-32(31)33/h1-8,11-16,25,34-36,50H,9-10,17-24,26-28H2,(H2,45,56)(H,48,57)(H,51,58)(H,52,61)(H,53,60)(H4,46,47,49)/t34-,35+,36-/m0/s1

>  <IUPAC Name>  (1) 
2-[(6S,9S,12R)-12,16-dibenzyl-9-[3-(diaminomethylideneamino)propyl]-6-(1H-indol-3-ylmethyl)-5,8,11,14,17,21-hexaoxo-1,4,7,10,13,16-hexazacyclohenicos-4-yl]acetamide

$$$$
