
     RDKit          3D

 26 28  0  0  0  0  0  0  0  0999 V2000
    4.8096   -1.4149    0.4653 O   0  0  0  0  0  0  0  0  0  0  0  0
    3.5365   -1.4899    0.4839 C   0  0  0  0  0  0  0  0  0  0  0  0
    2.7434   -0.3298    0.1149 C   0  0  0  0  0  0  0  0  0  0  0  0
    3.3839    0.8376   -0.2506 C   0  0  0  0  0  0  0  0  0  0  0  0
    2.7016    1.9742   -0.6117 C   0  0  0  0  0  0  0  0  0  0  0  0
    1.3562    1.9802   -0.6190 N   0  0  0  0  0  0  0  0  0  0  0  0
    0.7200    0.8532   -0.2661 C   0  0  0  0  0  0  0  0  0  0  0  0
    1.3658   -0.3090    0.1029 C   0  0  0  0  0  0  0  0  0  0  0  0
    0.6726   -1.4381    0.4562 C   0  0  0  0  0  0  0  0  0  0  0  0
   -0.7065   -1.4250    0.4465 C   0  0  0  0  0  0  0  0  0  0  0  0
   -1.3708   -0.2746    0.0811 C   0  0  0  0  0  0  0  0  0  0  0  0
   -0.6608    0.8540   -0.2719 C   0  0  0  0  0  0  0  0  0  0  0  0
   -1.3127    1.9803   -0.6297 N   0  0  0  0  0  0  0  0  0  0  0  0
   -2.6582    2.0476   -0.6562 C   0  0  0  0  0  0  0  0  0  0  0  0
   -3.3590    0.9141   -0.3016 C   0  0  0  0  0  0  0  0  0  0  0  0
   -2.7420   -0.2686    0.0737 C   0  0  0  0  0  0  0  0  0  0  0  0
   -3.5697   -1.4096    0.4302 C   0  0  0  0  0  0  0  0  0  0  0  0
   -4.8412   -1.3034    0.3917 O   0  0  0  0  0  0  0  0  0  0  0  0
    3.1430   -2.4446    0.7834 H   0  0  0  0  0  0  0  0  0  0  0  0
    4.4682    0.8811   -0.2600 H   0  0  0  0  0  0  0  0  0  0  0  0
    3.2111    2.8946   -0.8999 H   0  0  0  0  0  0  0  0  0  0  0  0
    1.1666   -2.3517    0.7462 H   0  0  0  0  0  0  0  0  0  0  0  0
   -1.2216   -2.3090    0.7232 H   0  0  0  0  0  0  0  0  0  0  0  0
   -3.1872    2.9548   -0.9444 H   0  0  0  0  0  0  0  0  0  0  0  0
   -4.4441    0.9673   -0.3227 H   0  0  0  0  0  0  0  0  0  0  0  0
   -3.2046   -2.3710    0.7349 H   0  0  0  0  0  0  0  0  0  0  0  0
  1  2  2  0
  2  3  1  0
  3  4  2  0
  4  5  1  0
  5  6  2  0
  6  7  1  0
  7  8  2  0
  8  9  1  0
  9 10  2  0
 10 11  1  0
 11 12  2  0
 12 13  1  0
 13 14  2  0
 14 15  1  0
 15 16  2  0
 16 17  1  0
 17 18  2  0
  8  3  1  0
 16 11  1  0
 12  7  1  0
  2 19  1  0
  4 20  1  0
  5 21  1  0
  9 22  1  0
 10 23  1  0
 14 24  1  0
 15 25  1  0
 17 26  1  0
M  END
>  <Ligand ID>  (1) 
LIG0002799

>  <Ligand>  (1) 
1,10-phenanthroline-4,7-dicarbaldehyde

>  <SMILES>  (1) 
O=Cc1ccnc2c1ccc1c2nccc1C=O

>  <CID>  (1) 
14434082.0

>  <ChEMBL ID>  (1) 
nan

>  <InChiKey>  (1) 
HCJOBZLFARGFLG-UHFFFAOYSA-N

>  <InChi>  (1) 
InChI=1S/C14H8N2O2/c17-7-9-3-5-15-13-11(9)1-2-12-10(8-18)4-6-16-14(12)13/h1-8H

>  <IUPAC Name>  (1) 
1,10-phenanthroline-4,7-dicarbaldehyde

$$$$
