
     RDKit          3D

 80 83  0  0  0  0  0  0  0  0999 V2000
    4.2959    0.8809   -2.9753 C   0  0  0  0  0  0  0  0  0  0  0  0
    3.9155    0.9204   -1.5686 N   0  0  0  0  0  0  0  0  0  0  0  0
    2.5846    0.5464   -1.2339 C   0  0  0  0  0  0  0  0  0  0  0  0
    1.8478    0.2138   -2.2258 O   0  0  0  0  0  0  0  0  0  0  0  0
    2.1207    0.5544    0.1535 C   0  0  1  0  0  0  0  0  0  0  0  0
    0.6476    0.4405    0.2170 N   0  0  0  0  0  0  0  0  0  0  0  0
   -0.0565   -0.6693   -0.3811 C   0  0  0  0  0  0  0  0  0  0  0  0
   -1.1987   -0.0502   -1.1531 C   0  0  0  0  0  0  0  0  0  0  0  0
   -2.0963    0.5183   -0.1245 N   0  0  0  0  0  0  0  0  0  0  0  0
   -1.5684    1.6650    0.5745 C   0  0  2  0  0  0  0  0  0  0  0  0
   -0.1394    1.4275    0.8776 C   0  0  0  0  0  0  0  0  0  0  0  0
    0.4862    2.1063    1.7663 O   0  0  0  0  0  0  0  0  0  0  0  0
   -2.4107    2.0714    1.7030 C   0  0  0  0  0  0  0  0  0  0  0  0
   -1.9189    3.2644    2.4960 C   0  0  0  0  0  0  0  0  0  0  0  0
   -1.8211    4.4413    1.5850 C   0  0  0  0  0  0  0  0  0  0  0  0
   -3.1486    4.6863    1.0524 N   0  0  0  0  0  0  0  0  0  0  0  0
   -4.0783    5.3254    1.6426 C   0  0  0  0  0  0  0  0  0  0  0  0
   -5.3249    5.4506    0.9264 N   0  0  0  0  0  0  0  0  0  0  0  0
   -3.9706    5.9108    2.9333 N   0  0  0  0  0  0  0  0  0  0  0  0
   -3.3661   -0.0603    0.0869 C   0  0  0  0  0  0  0  0  0  0  0  0
   -4.1945    0.3721    0.9643 O   0  0  0  0  0  0  0  0  0  0  0  0
   -3.8845   -1.2347   -0.6888 C   0  0  1  0  0  0  0  0  0  0  0  0
   -3.2585   -2.5406   -0.2911 C   0  0  0  0  0  0  0  0  0  0  0  0
   -3.9157   -3.5804   -1.1721 C   0  0  0  0  0  0  0  0  0  0  0  0
   -3.3797   -3.9133   -2.4035 C   0  0  0  0  0  0  0  0  0  0  0  0
   -4.0483   -4.8814   -3.1504 C   0  0  0  0  0  0  0  0  0  0  0  0
   -5.1924   -5.4902   -2.6994 C   0  0  0  0  0  0  0  0  0  0  0  0
   -5.7085   -5.1431   -1.4700 C   0  0  0  0  0  0  0  0  0  0  0  0
   -5.0726   -4.1976   -0.7187 C   0  0  0  0  0  0  0  0  0  0  0  0
   -5.3026   -1.3379   -0.3336 N   0  0  0  0  0  0  0  0  0  0  0  0
    2.5966   -0.6166    0.9879 C   0  0  0  0  0  0  0  0  0  0  0  0
    4.0512   -0.6494    1.0388 C   0  0  0  0  0  0  0  0  0  0  0  0
    4.7832    0.0456    1.9790 C   0  0  0  0  0  0  0  0  0  0  0  0
    6.1450   -0.0314    1.9972 C   0  0  0  0  0  0  0  0  0  0  0  0
    6.7822   -0.8145    1.0618 C   0  0  0  0  0  0  0  0  0  0  0  0
    6.0683   -1.5201    0.1097 C   0  0  0  0  0  0  0  0  0  0  0  0
    4.7110   -1.4440    0.0908 C   0  0  0  0  0  0  0  0  0  0  0  0
    6.7071   -2.2973   -0.8184 C   0  0  0  0  0  0  0  0  0  0  0  0
    8.0813   -2.3798   -0.8064 C   0  0  0  0  0  0  0  0  0  0  0  0
    8.8065   -1.6753    0.1454 C   0  0  0  0  0  0  0  0  0  0  0  0
    8.1587   -0.8916    1.0809 C   0  0  0  0  0  0  0  0  0  0  0  0
    5.3776    0.6883   -3.0494 H   0  0  0  0  0  0  0  0  0  0  0  0
    4.0913    1.8462   -3.4814 H   0  0  0  0  0  0  0  0  0  0  0  0
    3.7043    0.1250   -3.5246 H   0  0  0  0  0  0  0  0  0  0  0  0
    4.6273    1.2282   -0.8716 H   0  0  0  0  0  0  0  0  0  0  0  0
    2.4324    1.4734    0.6738 H   0  0  0  0  0  0  0  0  0  0  0  0
    0.5825   -1.3286   -0.9829 H   0  0  0  0  0  0  0  0  0  0  0  0
   -0.4855   -1.3113    0.4388 H   0  0  0  0  0  0  0  0  0  0  0  0
   -0.7780    0.8366   -1.7216 H   0  0  0  0  0  0  0  0  0  0  0  0
   -1.6997   -0.7185   -1.8433 H   0  0  0  0  0  0  0  0  0  0  0  0
   -1.5875    2.5057   -0.1964 H   0  0  0  0  0  0  0  0  0  0  0  0
   -3.3805    2.4572    1.2557 H   0  0  0  0  0  0  0  0  0  0  0  0
   -2.7002    1.3150    2.4374 H   0  0  0  0  0  0  0  0  0  0  0  0
   -2.7866    3.4981    3.1875 H   0  0  0  0  0  0  0  0  0  0  0  0
   -1.0857    3.0771    3.1612 H   0  0  0  0  0  0  0  0  0  0  0  0
   -1.1594    4.2853    0.6976 H   0  0  0  0  0  0  0  0  0  0  0  0
   -1.4106    5.3435    2.0920 H   0  0  0  0  0  0  0  0  0  0  0  0
   -6.0596    4.7080    0.9691 H   0  0  0  0  0  0  0  0  0  0  0  0
   -5.4364    6.3348    0.3650 H   0  0  0  0  0  0  0  0  0  0  0  0
   -3.0831    6.3395    3.2612 H   0  0  0  0  0  0  0  0  0  0  0  0
   -4.8472    5.8768    3.5229 H   0  0  0  0  0  0  0  0  0  0  0  0
   -3.7203   -1.0897   -1.7696 H   0  0  0  0  0  0  0  0  0  0  0  0
   -3.3781   -2.7856    0.7698 H   0  0  0  0  0  0  0  0  0  0  0  0
   -2.1833   -2.6173   -0.5258 H   0  0  0  0  0  0  0  0  0  0  0  0
   -2.4779   -3.4331   -2.7586 H   0  0  0  0  0  0  0  0  0  0  0  0
   -3.6582   -5.1642   -4.1135 H   0  0  0  0  0  0  0  0  0  0  0  0
   -5.7233   -6.2430   -3.2664 H   0  0  0  0  0  0  0  0  0  0  0  0
   -6.6156   -5.6244   -1.1105 H   0  0  0  0  0  0  0  0  0  0  0  0
   -5.4565   -3.9017    0.2580 H   0  0  0  0  0  0  0  0  0  0  0  0
   -5.8461   -1.8497   -1.0437 H   0  0  0  0  0  0  0  0  0  0  0  0
   -5.6947   -0.3806   -0.2593 H   0  0  0  0  0  0  0  0  0  0  0  0
    2.1856   -1.5732    0.5505 H   0  0  0  0  0  0  0  0  0  0  0  0
    2.1415   -0.5672    1.9964 H   0  0  0  0  0  0  0  0  0  0  0  0
    4.2080    0.6417    2.6836 H   0  0  0  0  0  0  0  0  0  0  0  0
    6.6793    0.5191    2.7379 H   0  0  0  0  0  0  0  0  0  0  0  0
    4.1309   -1.9973   -0.6575 H   0  0  0  0  0  0  0  0  0  0  0  0
    6.1385   -2.8456   -1.5594 H   0  0  0  0  0  0  0  0  0  0  0  0
    8.6016   -2.9932   -1.5375 H   0  0  0  0  0  0  0  0  0  0  0  0
    9.8762   -1.7497    0.1418 H   0  0  0  0  0  0  0  0  0  0  0  0
    8.7433   -0.3481    1.8170 H   0  0  0  0  0  0  0  0  0  0  0  0
  1  2  1  0
  2  3  1  0
  3  4  2  0
  3  5  1  0
  5  6  1  0
  6  7  1  0
  7  8  1  0
  8  9  1  0
  9 10  1  0
 10 11  1  0
 11 12  2  0
 10 13  1  0
 13 14  1  0
 14 15  1  0
 15 16  1  0
 16 17  2  3
 17 18  1  0
 17 19  1  0
  9 20  1  0
 20 21  2  0
 20 22  1  0
 22 23  1  0
 23 24  1  0
 24 25  2  0
 25 26  1  0
 26 27  2  0
 27 28  1  0
 28 29  2  0
 22 30  1  0
  5 31  1  0
 31 32  1  0
 32 33  2  0
 33 34  1  0
 34 35  2  0
 35 36  1  0
 36 37  2  0
 36 38  1  0
 38 39  2  0
 39 40  1  0
 40 41  2  0
 11  6  1  0
 29 24  1  0
 37 32  1  0
 41 35  1  0
  1 42  1  0
  1 43  1  0
  1 44  1  0
  2 45  1  0
  5 46  1  1
  7 47  1  0
  7 48  1  0
  8 49  1  0
  8 50  1  0
 10 51  1  6
 13 52  1  0
 13 53  1  0
 14 54  1  0
 14 55  1  0
 15 56  1  0
 15 57  1  0
 18 58  1  0
 18 59  1  0
 19 60  1  0
 19 61  1  0
 22 62  1  6
 23 63  1  0
 23 64  1  0
 25 65  1  0
 26 66  1  0
 27 67  1  0
 28 68  1  0
 29 69  1  0
 30 70  1  0
 30 71  1  0
 31 72  1  0
 31 73  1  0
 33 74  1  0
 34 75  1  0
 37 76  1  0
 38 77  1  0
 39 78  1  0
 40 79  1  0
 41 80  1  0
M  END
>  <Ligand ID>  (1) 
LIG0004645

>  <Ligand>  (1) 
CHEMBL211975

>  <SMILES>  (1) 
CNC(=O)[C@@H](N1CCN([C@H](C1=O)CCCN=C(N)N)C(=O)[C@@H](Cc1ccccc1)N)Cc1ccc2c(c1)cccc2

>  <CID>  (1) 
16007263.0

>  <ChEMBL ID>  (1) 
nan

>  <InChiKey>  (1) 
KFZNXVCUWNNJMQ-PVHODMMVSA-N

>  <InChi>  (1) 
InChI=1S/C31H39N7O3/c1-35-28(39)27(20-22-13-14-23-10-5-6-11-24(23)18-22)38-17-16-37(26(30(38)41)12-7-15-36-31(33)34)29(40)25(32)19-21-8-3-2-4-9-21/h2-6,8-11,13-14,18,25-27H,7,12,15-17,19-20,32H2,1H3,(H,35,39)(H4,33,34,36)/t25-,26+,27+/m1/s1

>  <IUPAC Name>  (1) 
(2S)-2-[(3S)-4-[(2R)-2-amino-3-phenylpropanoyl]-3-[3-(diaminomethylideneamino)propyl]-2-oxopiperazin-1-yl]-N-methyl-3-naphthalen-2-ylpropanamide

$$$$
