
     RDKit          3D

 37 37  0  0  0  0  0  0  0  0999 V2000
    5.8282   -0.7082    0.9331 O   0  0  0  0  0  0  0  0  0  0  0  0
    4.7693   -1.2935    0.7507 C   0  0  0  0  0  0  0  0  0  0  0  0
    3.5396   -0.5285    0.4040 C   0  0  0  0  0  0  0  0  0  0  0  0
    3.0488   -1.0067   -0.9315 C   0  0  0  0  0  0  0  0  0  0  0  0
    1.5585   -1.0619   -1.0337 C   0  0  0  0  0  0  0  0  0  0  0  0
    0.8774    0.0406   -0.2371 C   0  0  0  0  0  0  0  0  0  0  0  0
    1.3302    0.1985    0.9823 C   0  0  0  0  0  0  0  0  0  0  0  0
    2.4440   -0.7270    1.4118 C   0  0  0  0  0  0  0  0  0  0  0  0
   -0.1966    0.7598   -0.8985 C   0  0  0  0  0  0  0  0  0  0  0  0
   -0.9813    1.7763   -0.2040 C   0  0  0  0  0  0  0  0  0  0  0  0
   -1.8124    1.3711    0.9431 C   0  0  0  0  0  0  0  0  0  0  0  0
   -2.9097    0.3935    0.7297 C   0  0  0  0  0  0  0  0  0  0  0  0
   -3.5239    0.2364    2.0138 O   0  0  0  0  0  0  0  0  0  0  0  0
   -4.0167    0.8973   -0.1563 C   0  0  0  0  0  0  0  0  0  0  0  0
   -2.5467   -0.9805    0.3070 C   0  0  0  0  0  0  0  0  0  0  0  0
    4.6895   -2.3764    0.8339 H   0  0  0  0  0  0  0  0  0  0  0  0
    3.8036    0.5610    0.2968 H   0  0  0  0  0  0  0  0  0  0  0  0
    3.4082   -2.0645   -1.0757 H   0  0  0  0  0  0  0  0  0  0  0  0
    3.5018   -0.4111   -1.7642 H   0  0  0  0  0  0  0  0  0  0  0  0
    1.1460   -2.0484   -0.7362 H   0  0  0  0  0  0  0  0  0  0  0  0
    1.3114   -0.9036   -2.1005 H   0  0  0  0  0  0  0  0  0  0  0  0
    0.9706    0.9347    1.6449 H   0  0  0  0  0  0  0  0  0  0  0  0
    2.7301   -0.5838    2.4549 H   0  0  0  0  0  0  0  0  0  0  0  0
    2.0694   -1.7717    1.2295 H   0  0  0  0  0  0  0  0  0  0  0  0
   -0.9142    0.0148   -1.3566 H   0  0  0  0  0  0  0  0  0  0  0  0
    0.3179    1.2764   -1.7975 H   0  0  0  0  0  0  0  0  0  0  0  0
   -1.7136    2.1938   -0.9813 H   0  0  0  0  0  0  0  0  0  0  0  0
   -0.3814    2.7199    0.0288 H   0  0  0  0  0  0  0  0  0  0  0  0
   -2.2927    2.3464    1.3203 H   0  0  0  0  0  0  0  0  0  0  0  0
   -1.2619    1.0242    1.8507 H   0  0  0  0  0  0  0  0  0  0  0  0
   -4.1784    0.9824    2.1560 H   0  0  0  0  0  0  0  0  0  0  0  0
   -4.4220    1.8723    0.1361 H   0  0  0  0  0  0  0  0  0  0  0  0
   -4.8416    0.1531   -0.0760 H   0  0  0  0  0  0  0  0  0  0  0  0
   -3.7018    0.8505   -1.2215 H   0  0  0  0  0  0  0  0  0  0  0  0
   -3.2698   -1.6942    0.8307 H   0  0  0  0  0  0  0  0  0  0  0  0
   -1.5269   -1.3131    0.5106 H   0  0  0  0  0  0  0  0  0  0  0  0
   -2.8529   -1.1302   -0.7748 H   0  0  0  0  0  0  0  0  0  0  0  0
  1  2  2  0
  2  3  1  0
  3  4  1  0
  4  5  1  0
  5  6  1  0
  6  7  2  0
  7  8  1  0
  6  9  1  0
  9 10  1  0
 10 11  1  0
 11 12  1  0
 12 13  1  0
 12 14  1  0
 12 15  1  0
  8  3  1  0
  2 16  1  0
  3 17  1  0
  4 18  1  0
  4 19  1  0
  5 20  1  0
  5 21  1  0
  7 22  1  0
  8 23  1  0
  8 24  1  0
  9 25  1  0
  9 26  1  0
 10 27  1  0
 10 28  1  0
 11 29  1  0
 11 30  1  0
 13 31  1  0
 14 32  1  0
 14 33  1  0
 14 34  1  0
 15 35  1  0
 15 36  1  0
 15 37  1  0
M  END
>  <Ligand ID>  (1) 
LIG0000073

>  <Ligand>  (1) 
Hydroxyisohexyl 3-cyclohexene carboxaldehyde

>  <SMILES>  (1) 
O=CC1CCC(=CC1)CCCC(O)(C)C

>  <CID>  (1) 
91604.0

>  <ChEMBL ID>  (1) 
nan

>  <InChiKey>  (1) 
ORMHZBNNECIKOH-UHFFFAOYSA-N

>  <InChi>  (1) 
InChI=1S/C13H22O2/c1-13(2,15)9-3-4-11-5-7-12(10-14)8-6-11/h5,10,12,15H,3-4,6-9H2,1-2H3

>  <IUPAC Name>  (1) 
4-(4-hydroxy-4-methylpentyl)cyclohex-3-ene-1-carbaldehyde

$$$$
