
     RDKit          3D

 61 63  0  0  0  0  0  0  0  0999 V2000
    5.3692   -3.4106    0.0497 O   0  0  0  0  0  0  0  0  0  0  0  0
    4.8631   -2.3726   -0.7045 C   0  0  2  0  0  0  0  0  0  0  0  0
    5.8553   -1.2446   -0.7262 C   0  0  0  0  0  0  0  0  0  0  0  0
    6.1693   -0.7065    0.5234 O   0  0  0  0  0  0  0  0  0  0  0  0
    7.0825    0.3587    0.6564 C   0  0  0  0  0  0  0  0  0  0  0  0
    7.6264    0.8081   -0.5397 C   0  0  0  0  0  0  0  0  0  0  0  0
    8.5274    1.8443   -0.5097 C   0  0  0  0  0  0  0  0  0  0  0  0
    8.8684    2.4104    0.7021 C   0  0  0  0  0  0  0  0  0  0  0  0
    8.3057    1.9389    1.8944 C   0  0  0  0  0  0  0  0  0  0  0  0
    7.3900    0.8881    1.8775 C   0  0  0  0  0  0  0  0  0  0  0  0
    9.7817    3.4549    0.6968 O   0  0  0  0  0  0  0  0  0  0  0  0
    3.5271   -1.9183   -0.1120 C   0  0  0  0  0  0  0  0  0  0  0  0
    3.0633   -0.8311   -0.9143 N   0  0  0  0  0  0  0  0  0  0  0  0
    1.7927   -0.3184   -0.5090 C   0  0  0  0  0  0  0  0  0  0  0  0
    0.7085   -1.3111   -0.7965 C   0  0  0  0  0  0  0  0  0  0  0  0
   -0.5851   -0.7399   -0.3589 C   0  0  0  0  0  0  0  0  0  0  0  0
   -1.3888    0.0429   -1.1598 C   0  0  0  0  0  0  0  0  0  0  0  0
   -2.5922    0.5341   -0.6828 C   0  0  0  0  0  0  0  0  0  0  0  0
   -3.0039    0.2452    0.6043 C   0  0  0  0  0  0  0  0  0  0  0  0
   -2.1956   -0.5486    1.4259 C   0  0  0  0  0  0  0  0  0  0  0  0
   -1.0054   -1.0294    0.9428 C   0  0  0  0  0  0  0  0  0  0  0  0
   -4.2373    0.7345    1.1235 N   0  0  0  0  0  0  0  0  0  0  0  0
   -5.3837   -0.1027    0.8968 C   0  0  0  0  0  0  0  0  0  0  0  0
   -5.1253   -1.1787    0.2511 O   0  0  0  0  0  0  0  0  0  0  0  0
   -6.7329    0.2173    1.3484 C   0  0  0  0  0  0  0  0  0  0  0  0
   -7.7415    0.3135    0.2530 C   0  0  0  0  0  0  0  0  0  0  0  0
   -9.0209    0.6939    0.6244 C   0  0  0  0  0  0  0  0  0  0  0  0
   -9.9720    0.7974   -0.3638 C   0  0  0  0  0  0  0  0  0  0  0  0
   -9.7176    0.5428   -1.6986 C   0  0  0  0  0  0  0  0  0  0  0  0
   -8.4378    0.1659   -2.0459 C   0  0  0  0  0  0  0  0  0  0  0  0
   -7.4849    0.0622   -1.0562 C   0  0  0  0  0  0  0  0  0  0  0  0
   -6.8612    1.4109    2.1420 N   0  0  0  0  0  0  0  0  0  0  0  0
    5.2543   -3.1693    1.0249 H   0  0  0  0  0  0  0  0  0  0  0  0
    4.6403   -2.7134   -1.7418 H   0  0  0  0  0  0  0  0  0  0  0  0
    6.7862   -1.6186   -1.2264 H   0  0  0  0  0  0  0  0  0  0  0  0
    5.4365   -0.4718   -1.4294 H   0  0  0  0  0  0  0  0  0  0  0  0
    7.3822    0.3881   -1.4997 H   0  0  0  0  0  0  0  0  0  0  0  0
    8.9857    2.2366   -1.4238 H   0  0  0  0  0  0  0  0  0  0  0  0
    8.6115    2.4226    2.8195 H   0  0  0  0  0  0  0  0  0  0  0  0
    6.9612    0.5273    2.7811 H   0  0  0  0  0  0  0  0  0  0  0  0
   10.5885    3.3309    0.0661 H   0  0  0  0  0  0  0  0  0  0  0  0
    3.7857   -1.5191    0.9103 H   0  0  0  0  0  0  0  0  0  0  0  0
    2.8268   -2.7548   -0.0513 H   0  0  0  0  0  0  0  0  0  0  0  0
    3.1158   -0.9557   -1.9327 H   0  0  0  0  0  0  0  0  0  0  0  0
    1.7535   -0.0603    0.5677 H   0  0  0  0  0  0  0  0  0  0  0  0
    1.6281    0.6503   -1.0445 H   0  0  0  0  0  0  0  0  0  0  0  0
    0.8852   -2.2625   -0.3005 H   0  0  0  0  0  0  0  0  0  0  0  0
    0.6324   -1.5105   -1.9071 H   0  0  0  0  0  0  0  0  0  0  0  0
   -1.0440    0.2610   -2.1755 H   0  0  0  0  0  0  0  0  0  0  0  0
   -3.2080    1.1480   -1.3319 H   0  0  0  0  0  0  0  0  0  0  0  0
   -2.5287   -0.7749    2.4484 H   0  0  0  0  0  0  0  0  0  0  0  0
   -0.4147   -1.6378    1.6144 H   0  0  0  0  0  0  0  0  0  0  0  0
   -4.3449    1.6278    1.6370 H   0  0  0  0  0  0  0  0  0  0  0  0
   -7.0856   -0.6340    1.9931 H   0  0  0  0  0  0  0  0  0  0  0  0
   -9.2449    0.8998    1.6727 H   0  0  0  0  0  0  0  0  0  0  0  0
  -10.9672    1.0959   -0.0563 H   0  0  0  0  0  0  0  0  0  0  0  0
  -10.4956    0.6327   -2.4663 H   0  0  0  0  0  0  0  0  0  0  0  0
   -8.1861   -0.0472   -3.0927 H   0  0  0  0  0  0  0  0  0  0  0  0
   -6.4965   -0.2332   -1.3660 H   0  0  0  0  0  0  0  0  0  0  0  0
   -6.3062    2.1675    1.6866 H   0  0  0  0  0  0  0  0  0  0  0  0
   -6.3959    1.2229    3.0684 H   0  0  0  0  0  0  0  0  0  0  0  0
  1  2  1  0
  2  3  1  0
  3  4  1  0
  4  5  1  0
  5  6  2  0
  6  7  1  0
  7  8  2  0
  8  9  1  0
  9 10  2  0
  8 11  1  0
  2 12  1  0
 12 13  1  0
 13 14  1  0
 14 15  1  0
 15 16  1  0
 16 17  2  0
 17 18  1  0
 18 19  2  0
 19 20  1  0
 20 21  2  0
 19 22  1  0
 22 23  1  0
 23 24  2  0
 23 25  1  0
 25 26  1  0
 26 27  2  0
 27 28  1  0
 28 29  2  0
 29 30  1  0
 30 31  2  0
 25 32  1  0
 10  5  1  0
 21 16  1  0
 31 26  1  0
  1 33  1  0
  2 34  1  6
  3 35  1  0
  3 36  1  0
  6 37  1  0
  7 38  1  0
  9 39  1  0
 10 40  1  0
 11 41  1  0
 12 42  1  0
 12 43  1  0
 13 44  1  0
 14 45  1  0
 14 46  1  0
 15 47  1  0
 15 48  1  0
 17 49  1  0
 18 50  1  0
 20 51  1  0
 21 52  1  0
 22 53  1  0
 25 54  1  0
 27 55  1  0
 28 56  1  0
 29 57  1  0
 30 58  1  0
 31 59  1  0
 32 60  1  0
 32 61  1  0
M  END
>  <Ligand ID>  (1) 
LIG0002605

>  <Ligand>  (1) 
CHEMBL550743

>  <SMILES>  (1) 
O[C@H](COc1ccc(cc1)O)CNCCc1ccc(cc1)NC(=O)C(c1ccccc1)N

>  <CID>  (1) 
44127478.0

>  <ChEMBL ID>  (1) 
nan

>  <InChiKey>  (1) 
VQTDLKUNWPJQBR-OWJIYDKWSA-N

>  <InChi>  (1) 
InChI=1S/C25H29N3O4/c26-24(19-4-2-1-3-5-19)25(31)28-20-8-6-18(7-9-20)14-15-27-16-22(30)17-32-23-12-10-21(29)11-13-23/h1-13,22,24,27,29-30H,14-17,26H2,(H,28,31)/t22-,24?/m0/s1

>  <IUPAC Name>  (1) 
2-amino-N-[4-[2-[[(2S)-2-hydroxy-3-(4-hydroxyphenoxy)propyl]amino]ethyl]phenyl]-2-phenylacetamide

$$$$
