
     RDKit          3D

 92 97  0  0  0  0  0  0  0  0999 V2000
    5.0348   -0.6632    0.5440 O   0  0  0  0  0  0  0  0  0  0  0  0
    4.4375   -0.2967   -0.4982 C   0  0  0  0  0  0  0  0  0  0  0  0
    5.0500    0.8224   -1.2605 C   0  0  2  0  0  0  0  0  0  0  0  0
    6.3459    1.0398   -0.6072 N   0  0  0  0  0  0  0  0  0  0  0  0
    7.0931    2.0774   -1.2575 C   0  0  0  0  0  0  0  0  0  0  0  0
    6.3051    3.3367   -1.3746 C   0  0  0  0  0  0  0  0  0  0  0  0
    4.9384    3.2668   -1.2848 C   0  0  0  0  0  0  0  0  0  0  0  0
    4.1538    2.0329   -1.0689 C   0  0  0  0  0  0  0  0  0  0  0  0
    4.2495    4.4783   -1.4019 C   0  0  0  0  0  0  0  0  0  0  0  0
    4.8990    5.6738   -1.5954 C   0  0  0  0  0  0  0  0  0  0  0  0
    6.2785    5.7057   -1.6809 C   0  0  0  0  0  0  0  0  0  0  0  0
    7.0004    4.5136   -1.5687 C   0  0  0  0  0  0  0  0  0  0  0  0
    3.2069   -0.9448   -0.9357 N   0  0  0  0  0  0  0  0  0  0  0  0
    2.7473   -2.0014   -0.1054 C   0  0  1  0  0  0  0  0  0  0  0  0
    1.3687   -2.0751    0.2466 C   0  0  0  0  0  0  0  0  0  0  0  0
    1.1253   -3.0145    1.1709 O   0  0  0  0  0  0  0  0  0  0  0  0
    0.1750   -1.4339   -0.1058 N   0  0  0  0  0  0  0  0  0  0  0  0
   -1.0203   -1.9500    0.6345 C   0  0  0  0  0  0  0  0  0  0  0  0
   -1.6866   -0.8013    1.2860 C   0  0  0  0  0  0  0  0  0  0  0  0
   -2.1398    0.3090    0.3350 C   0  0  0  0  0  0  0  0  0  0  0  0
   -0.8352    0.7164   -0.4096 C   0  0  0  0  0  0  0  0  0  0  0  0
   -0.1131   -0.4123   -1.0424 C   0  0  0  0  0  0  0  0  0  0  0  0
   -2.4515    1.5577    1.0734 C   0  0  0  0  0  0  0  0  0  0  0  0
   -3.4357    1.6382    2.0685 N   0  0  0  0  0  0  0  0  0  0  0  0
   -3.1572    1.2600    3.4627 C   0  0  0  0  0  0  0  0  0  0  0  0
   -2.0345    1.3359    4.0354 O   0  0  0  0  0  0  0  0  0  0  0  0
   -4.3805    0.8104    3.9966 O   0  0  0  0  0  0  0  0  0  0  0  0
   -5.4263    1.1483    3.1068 C   0  0  0  0  0  0  0  0  0  0  0  0
   -4.8011    2.1162    2.1583 C   0  0  0  0  0  0  0  0  0  0  0  0
   -4.7600    3.5110    2.8672 C   0  0  0  0  0  0  0  0  0  0  0  0
   -5.5130    2.3611    0.8916 C   0  0  0  0  0  0  0  0  0  0  0  0
   -3.1131   -0.2568   -0.6204 C   0  0  0  0  0  0  0  0  0  0  0  0
   -3.6495    0.6544   -1.6776 C   0  0  0  0  0  0  0  0  0  0  0  0
   -4.8528    0.2152   -2.4029 C   0  0  0  0  0  0  0  0  0  0  0  0
   -5.7623   -0.7633   -1.7597 C   0  0  0  0  0  0  0  0  0  0  0  0
   -4.9808   -1.8421   -1.0833 C   0  0  0  0  0  0  0  0  0  0  0  0
   -4.1408   -1.1375    0.0011 C   0  0  0  0  0  0  0  0  0  0  0  0
    3.2065   -3.3499   -0.6942 C   0  0  0  0  0  0  0  0  0  0  0  0
    2.7835   -4.5243    0.0732 C   0  0  0  0  0  0  0  0  0  0  0  0
    1.6260   -5.2139   -0.2655 C   0  0  0  0  0  0  0  0  0  0  0  0
    1.2039   -6.3340    0.4321 C   0  0  0  0  0  0  0  0  0  0  0  0
    1.9709   -6.7705    1.5022 C   0  0  0  0  0  0  0  0  0  0  0  0
    3.1257   -6.1091    1.8667 C   0  0  0  0  0  0  0  0  0  0  0  0
    3.5327   -4.9941    1.1606 C   0  0  0  0  0  0  0  0  0  0  0  0
    1.4850   -8.1926    2.4197 Cl  0  0  0  0  0  0  0  0  0  0  0  0
    5.2151    0.5596   -2.3115 H   0  0  0  0  0  0  0  0  0  0  0  0
    6.9068    0.1406   -0.6570 H   0  0  0  0  0  0  0  0  0  0  0  0
    7.4712    1.7658   -2.2503 H   0  0  0  0  0  0  0  0  0  0  0  0
    7.9726    2.3090   -0.6094 H   0  0  0  0  0  0  0  0  0  0  0  0
    3.7669    1.9812   -0.0188 H   0  0  0  0  0  0  0  0  0  0  0  0
    3.3027    1.9174   -1.7844 H   0  0  0  0  0  0  0  0  0  0  0  0
    3.1578    4.5192   -1.3430 H   0  0  0  0  0  0  0  0  0  0  0  0
    4.3988    6.6320   -1.6874 H   0  0  0  0  0  0  0  0  0  0  0  0
    6.8466    6.6224   -1.8302 H   0  0  0  0  0  0  0  0  0  0  0  0
    8.0743    4.4719   -1.6258 H   0  0  0  0  0  0  0  0  0  0  0  0
    2.8272   -0.5724   -1.8122 H   0  0  0  0  0  0  0  0  0  0  0  0
    3.3527   -1.9999    0.8854 H   0  0  0  0  0  0  0  0  0  0  0  0
   -1.6493   -2.4104   -0.1236 H   0  0  0  0  0  0  0  0  0  0  0  0
   -0.7391   -2.7563    1.3414 H   0  0  0  0  0  0  0  0  0  0  0  0
   -2.5052   -1.1818    1.9284 H   0  0  0  0  0  0  0  0  0  0  0  0
   -0.9586   -0.3800    2.0347 H   0  0  0  0  0  0  0  0  0  0  0  0
   -1.0275    1.5679   -1.0666 H   0  0  0  0  0  0  0  0  0  0  0  0
   -0.1668    1.1203    0.4048 H   0  0  0  0  0  0  0  0  0  0  0  0
    0.8184    0.0198   -1.4406 H   0  0  0  0  0  0  0  0  0  0  0  0
   -0.6399   -0.7946   -1.9612 H   0  0  0  0  0  0  0  0  0  0  0  0
   -1.4632    1.8376    1.5792 H   0  0  0  0  0  0  0  0  0  0  0  0
   -2.5239    2.3664    0.2954 H   0  0  0  0  0  0  0  0  0  0  0  0
   -6.2582    1.6836    3.6301 H   0  0  0  0  0  0  0  0  0  0  0  0
   -5.8608    0.2774    2.5854 H   0  0  0  0  0  0  0  0  0  0  0  0
   -4.0489    3.4002    3.6936 H   0  0  0  0  0  0  0  0  0  0  0  0
   -4.4505    4.2179    2.0685 H   0  0  0  0  0  0  0  0  0  0  0  0
   -5.7859    3.7319    3.1688 H   0  0  0  0  0  0  0  0  0  0  0  0
   -4.9392    3.1704    0.3448 H   0  0  0  0  0  0  0  0  0  0  0  0
   -5.6239    1.4990    0.2376 H   0  0  0  0  0  0  0  0  0  0  0  0
   -6.5360    2.7368    1.1149 H   0  0  0  0  0  0  0  0  0  0  0  0
   -2.4808   -1.0004   -1.2269 H   0  0  0  0  0  0  0  0  0  0  0  0
   -3.8008    1.6732   -1.2775 H   0  0  0  0  0  0  0  0  0  0  0  0
   -2.8349    0.8107   -2.4575 H   0  0  0  0  0  0  0  0  0  0  0  0
   -5.5107    1.0793   -2.7333 H   0  0  0  0  0  0  0  0  0  0  0  0
   -4.5773   -0.2430   -3.4016 H   0  0  0  0  0  0  0  0  0  0  0  0
   -6.4586   -0.3021   -1.0035 H   0  0  0  0  0  0  0  0  0  0  0  0
   -6.4665   -1.1768   -2.5297 H   0  0  0  0  0  0  0  0  0  0  0  0
   -4.3265   -2.3545   -1.7954 H   0  0  0  0  0  0  0  0  0  0  0  0
   -5.6392   -2.5399   -0.5247 H   0  0  0  0  0  0  0  0  0  0  0  0
   -4.8844   -0.6398    0.6449 H   0  0  0  0  0  0  0  0  0  0  0  0
   -3.7641   -1.9794    0.6132 H   0  0  0  0  0  0  0  0  0  0  0  0
    2.8247   -3.4324   -1.7300 H   0  0  0  0  0  0  0  0  0  0  0  0
    4.3350   -3.3220   -0.8054 H   0  0  0  0  0  0  0  0  0  0  0  0
    1.0706   -4.8318   -1.1037 H   0  0  0  0  0  0  0  0  0  0  0  0
    0.3097   -6.8249    0.1312 H   0  0  0  0  0  0  0  0  0  0  0  0
    3.7503   -6.4076    2.6883 H   0  0  0  0  0  0  0  0  0  0  0  0
    4.4297   -4.4613    1.4265 H   0  0  0  0  0  0  0  0  0  0  0  0
  1  2  2  0
  2  3  1  0
  3  4  1  0
  4  5  1  0
  5  6  1  0
  6  7  2  0
  7  8  1  0
  7  9  1  0
  9 10  2  0
 10 11  1  0
 11 12  2  0
  2 13  1  0
 13 14  1  0
 14 15  1  0
 15 16  2  0
 15 17  1  0
 17 18  1  0
 18 19  1  0
 19 20  1  0
 20 21  1  0
 21 22  1  0
 20 23  1  0
 23 24  1  0
 24 25  1  0
 25 26  2  0
 25 27  1  0
 27 28  1  0
 28 29  1  0
 29 30  1  0
 29 31  1  0
 20 32  1  0
 32 33  1  0
 33 34  1  0
 34 35  1  0
 35 36  1  0
 36 37  1  0
 14 38  1  0
 38 39  1  0
 39 40  2  0
 40 41  1  0
 41 42  2  0
 42 43  1  0
 43 44  2  0
 42 45  1  0
  8  3  1  0
 22 17  1  0
 29 24  1  0
 37 32  1  0
 44 39  1  0
 12  6  1  0
  3 46  1  6
  4 47  1  0
  5 48  1  0
  5 49  1  0
  8 50  1  0
  8 51  1  0
  9 52  1  0
 10 53  1  0
 11 54  1  0
 12 55  1  0
 13 56  1  0
 14 57  1  1
 18 58  1  0
 18 59  1  0
 19 60  1  0
 19 61  1  0
 21 62  1  0
 21 63  1  0
 22 64  1  0
 22 65  1  0
 23 66  1  0
 23 67  1  0
 28 68  1  0
 28 69  1  0
 30 70  1  0
 30 71  1  0
 30 72  1  0
 31 73  1  0
 31 74  1  0
 31 75  1  0
 32 76  1  0
 33 77  1  0
 33 78  1  0
 34 79  1  0
 34 80  1  0
 35 81  1  0
 35 82  1  0
 36 83  1  0
 36 84  1  0
 37 85  1  0
 37 86  1  0
 38 87  1  0
 38 88  1  0
 40 89  1  0
 41 90  1  0
 43 91  1  0
 44 92  1  0
M  END
>  <Ligand ID>  (1) 
LIG0003576

>  <Ligand>  (1) 
CHEMBL381501

>  <SMILES>  (1) 
O=C([C@@H]1NCc2c(C1)cccc2)N[C@@H](C(=O)N1CCC(CC1)(CN1C(=O)OCC1(C)C)C1CCCCC1)Cc1ccc(cc1)Cl

>  <CID>  (1) 
44408286.0

>  <ChEMBL ID>  (1) 
nan

>  <InChiKey>  (1) 
YHYBBOPOIUAVHY-FIRIVFDPSA-N

>  <InChi>  (1) 
InChI=1S/C36H47ClN4O4/c1-35(2)24-45-34(44)41(35)23-36(28-10-4-3-5-11-28)16-18-40(19-17-36)33(43)31(20-25-12-14-29(37)15-13-25)39-32(42)30-21-26-8-6-7-9-27(26)22-38-30/h6-9,12-15,28,30-31,38H,3-5,10-11,16-24H2,1-2H3,(H,39,42)/t30-,31-/m1/s1

>  <IUPAC Name>  (1) 
(3R)-N-[(2R)-3-(4-chlorophenyl)-1-[4-cyclohexyl-4-[(4,4-dimethyl-2-oxo-1,3-oxazolidin-3-yl)methyl]piperidin-1-yl]-1-oxopropan-2-yl]-1,2,3,4-tetrahydroisoquinoline-3-carboxamide

$$$$
