
     RDKit          3D

142144  0  0  0  0  0  0  0  0999 V2000
   -9.6953   -0.0066    1.9198 C   0  0  0  0  0  0  0  0  0  0  0  0
   -8.1899    0.0045    2.0554 C   0  0  0  0  0  0  0  0  0  0  0  0
   -7.6150   -0.9451    1.0324 C   0  0  1  0  0  0  0  0  0  0  0  0
   -6.1301   -0.9198    1.0797 C   0  0  2  0  0  0  0  0  0  0  0  0
   -5.4748    0.2964    0.6881 N   0  0  0  0  0  0  0  0  0  0  0  0
   -6.0394    1.4292    0.0391 C   0  0  0  0  0  0  0  0  0  0  0  0
   -7.2506    1.4396   -0.1409 O   0  0  0  0  0  0  0  0  0  0  0  0
   -5.2102    2.5639   -0.4048 C   0  0  1  0  0  0  0  0  0  0  0  0
   -3.8071    2.1912   -0.4002 N   0  0  0  0  0  0  0  0  0  0  0  0
   -2.7316    3.0545   -0.0589 C   0  0  0  0  0  0  0  0  0  0  0  0
   -3.0332    4.2077    0.2356 O   0  0  0  0  0  0  0  0  0  0  0  0
   -1.3298    2.5115   -0.0907 C   0  0  0  0  0  0  0  0  0  0  0  0
   -0.2742    3.5582   -0.1633 C   0  0  0  0  0  0  0  0  0  0  0  0
    1.3134    2.6915   -0.1440 S   0  0  0  0  0  0  0  0  0  0  0  0
    1.6033    1.4310   -1.8354 S   0  0  0  0  0  0  0  0  0  0  0  0
    1.0243   -0.2212   -1.5571 C   0  0  0  0  0  0  0  0  0  0  0  0
    1.7766   -1.0632   -0.5597 C   0  0  2  0  0  0  0  0  0  0  0  0
    0.7924   -2.1334   -0.2297 N   0  0  0  0  0  0  0  0  0  0  0  0
    1.1736   -3.3900    0.3129 C   0  0  0  0  0  0  0  0  0  0  0  0
    2.3731   -3.5520    0.5273 O   0  0  0  0  0  0  0  0  0  0  0  0
    0.1127   -4.4411    0.6092 C   0  0  1  0  0  0  0  0  0  0  0  0
   -1.0826   -4.1229   -0.1369 N   0  0  0  0  0  0  0  0  0  0  0  0
   -2.1652   -3.3142    0.2934 C   0  0  0  0  0  0  0  0  0  0  0  0
   -2.0732   -2.8575    1.4383 O   0  0  0  0  0  0  0  0  0  0  0  0
   -3.3511   -3.0341   -0.6157 C   0  0  1  0  0  0  0  0  0  0  0  0
   -4.1565   -1.9960   -0.0279 N   0  0  0  0  0  0  0  0  0  0  0  0
   -5.4235   -2.1344    0.6030 C   0  0  0  0  0  0  0  0  0  0  0  0
   -5.8363   -3.2971    0.7065 O   0  0  0  0  0  0  0  0  0  0  0  0
   -2.7928   -2.5981   -1.9557 C   0  0  0  0  0  0  0  0  0  0  0  0
   -3.8487   -2.2583   -2.9722 C   0  0  0  0  0  0  0  0  0  0  0  0
   -4.7323   -3.3868   -3.3289 C   0  0  0  0  0  0  0  0  0  0  0  0
   -4.5922   -4.5428   -2.8950 O   0  0  0  0  0  0  0  0  0  0  0  0
   -5.8018   -3.1090   -4.2278 N   0  0  0  0  0  0  0  0  0  0  0  0
    0.6196   -5.8206    0.5190 C   0  0  0  0  0  0  0  0  0  0  0  0
    1.1510   -6.2318   -0.7966 C   0  0  0  0  0  0  0  0  0  0  0  0
    1.1716   -5.4700   -1.7798 O   0  0  0  0  0  0  0  0  0  0  0  0
    1.6503   -7.5596   -0.9146 N   0  0  0  0  0  0  0  0  0  0  0  0
    2.0471   -0.3960    0.7224 C   0  0  0  0  0  0  0  0  0  0  0  0
    1.0300   -0.2496    1.4885 O   0  0  0  0  0  0  0  0  0  0  0  0
    3.2709    0.0879    1.2181 N   0  0  0  0  0  0  0  0  0  0  0  0
    3.1554    0.7530    2.5652 C   0  0  0  0  0  0  0  0  0  0  0  0
    3.4816   -0.2196    3.6317 C   0  0  0  0  0  0  0  0  0  0  0  0
    4.7985   -0.2516    4.0838 C   0  0  0  0  0  0  0  0  0  0  0  0
    5.1908   -1.1809    5.0677 C   0  0  0  0  0  0  0  0  0  0  0  0
    4.2967   -2.0765    5.6074 C   0  0  0  0  0  0  0  0  0  0  0  0
    3.0002   -2.0413    5.1613 C   0  0  0  0  0  0  0  0  0  0  0  0
    2.6166   -1.1145    4.1827 C   0  0  0  0  0  0  0  0  0  0  0  0
    4.7844   -3.0278    6.6361 C   0  0  0  0  0  0  0  0  0  0  0  0
    4.5838   -0.0245    0.7364 C   0  0  0  0  0  0  0  0  0  0  0  0
    5.0612    1.0353   -0.1362 C   0  0  0  0  0  0  0  0  0  0  0  0
    4.4698    2.0082   -0.6098 O   0  0  0  0  0  0  0  0  0  0  0  0
    6.4742    0.9410   -0.5043 N   0  0  0  0  0  0  0  0  0  0  0  0
    7.0815    1.9401   -1.3958 C   0  0  2  0  0  0  0  0  0  0  0  0
    8.3181    1.4107   -1.9241 C   0  0  0  0  0  0  0  0  0  0  0  0
    8.8935    1.8476   -2.9999 O   0  0  0  0  0  0  0  0  0  0  0  0
    9.0837    0.3351   -1.3263 N   0  0  0  0  0  0  0  0  0  0  0  0
   10.3238   -0.1324   -1.8925 C   0  0  0  0  0  0  0  0  0  0  0  0
   10.1788   -0.6355   -3.2706 C   0  0  0  0  0  0  0  0  0  0  0  0
    9.0810   -0.6454   -3.8685 O   0  0  0  0  0  0  0  0  0  0  0  0
   11.3936   -1.1215   -3.8880 N   0  0  0  0  0  0  0  0  0  0  0  0
    7.1755    3.2436   -0.6208 C   0  0  0  0  0  0  0  0  0  0  0  0
    7.7781    4.3732   -1.3531 C   0  0  0  0  0  0  0  0  0  0  0  0
    9.2052    4.2925   -1.7586 C   0  0  0  0  0  0  0  0  0  0  0  0
    7.5811    5.6407   -0.4992 C   0  0  0  0  0  0  0  0  0  0  0  0
   -5.5923    3.1768   -1.7272 C   0  0  0  0  0  0  0  0  0  0  0  0
   -6.9128    3.7612   -1.8375 C   0  0  0  0  0  0  0  0  0  0  0  0
   -8.0412    3.0931   -2.3437 C   0  0  0  0  0  0  0  0  0  0  0  0
   -9.2726    3.7616   -2.4124 C   0  0  0  0  0  0  0  0  0  0  0  0
   -9.4150    5.0580   -1.9990 C   0  0  0  0  0  0  0  0  0  0  0  0
   -8.3012    5.6938   -1.5069 C   0  0  0  0  0  0  0  0  0  0  0  0
   -7.0749    5.0857   -1.4193 C   0  0  0  0  0  0  0  0  0  0  0  0
  -10.6018    5.7726   -2.0432 O   0  0  0  0  0  0  0  0  0  0  0  0
   -8.0824   -2.3328    1.4308 C   0  0  0  0  0  0  0  0  0  0  0  0
  -10.0318    1.0320    2.1133 H   0  0  0  0  0  0  0  0  0  0  0  0
  -10.1533   -0.7233    2.6050 H   0  0  0  0  0  0  0  0  0  0  0  0
   -9.9624   -0.3374    0.8874 H   0  0  0  0  0  0  0  0  0  0  0  0
   -7.7136    0.9509    2.2145 H   0  0  0  0  0  0  0  0  0  0  0  0
   -8.0228   -0.5061    3.1076 H   0  0  0  0  0  0  0  0  0  0  0  0
   -8.0385   -0.7796    0.0220 H   0  0  0  0  0  0  0  0  0  0  0  0
   -5.9621   -0.9089    2.2442 H   0  0  0  0  0  0  0  0  0  0  0  0
   -4.4760    0.4003    0.9230 H   0  0  0  0  0  0  0  0  0  0  0  0
   -5.2617    3.4294    0.3368 H   0  0  0  0  0  0  0  0  0  0  0  0
   -3.5570    1.2415   -0.6737 H   0  0  0  0  0  0  0  0  0  0  0  0
   -1.1288    1.9331    0.8579 H   0  0  0  0  0  0  0  0  0  0  0  0
   -1.1787    1.7992   -0.9001 H   0  0  0  0  0  0  0  0  0  0  0  0
   -0.3354    4.1794   -1.0799 H   0  0  0  0  0  0  0  0  0  0  0  0
   -0.2920    4.1849    0.7612 H   0  0  0  0  0  0  0  0  0  0  0  0
    1.0899   -0.7731   -2.5452 H   0  0  0  0  0  0  0  0  0  0  0  0
   -0.0681   -0.2655   -1.3202 H   0  0  0  0  0  0  0  0  0  0  0  0
    2.6360   -1.5623   -0.9774 H   0  0  0  0  0  0  0  0  0  0  0  0
   -0.2075   -1.9980   -0.3640 H   0  0  0  0  0  0  0  0  0  0  0  0
   -0.0632   -4.2375    1.7221 H   0  0  0  0  0  0  0  0  0  0  0  0
   -1.1793   -4.5189   -1.0767 H   0  0  0  0  0  0  0  0  0  0  0  0
   -3.9017   -3.9817   -0.7278 H   0  0  0  0  0  0  0  0  0  0  0  0
   -3.7773   -1.0458   -0.0659 H   0  0  0  0  0  0  0  0  0  0  0  0
   -2.2317   -3.4492   -2.3777 H   0  0  0  0  0  0  0  0  0  0  0  0
   -2.0430   -1.7890   -1.8424 H   0  0  0  0  0  0  0  0  0  0  0  0
   -3.3806   -1.9214   -3.9251 H   0  0  0  0  0  0  0  0  0  0  0  0
   -4.5503   -1.4627   -2.5741 H   0  0  0  0  0  0  0  0  0  0  0  0
   -5.8824   -3.7565   -5.0521 H   0  0  0  0  0  0  0  0  0  0  0  0
   -6.4751   -2.3003   -4.0809 H   0  0  0  0  0  0  0  0  0  0  0  0
    1.4022   -5.9370    1.3235 H   0  0  0  0  0  0  0  0  0  0  0  0
   -0.1890   -6.5131    0.8520 H   0  0  0  0  0  0  0  0  0  0  0  0
    2.5730   -7.7985   -1.3223 H   0  0  0  0  0  0  0  0  0  0  0  0
    1.0240   -8.3191   -0.5586 H   0  0  0  0  0  0  0  0  0  0  0  0
    3.8081    1.6270    2.5793 H   0  0  0  0  0  0  0  0  0  0  0  0
    2.1150    1.0782    2.6937 H   0  0  0  0  0  0  0  0  0  0  0  0
    5.5716    0.4007    3.7566 H   0  0  0  0  0  0  0  0  0  0  0  0
    6.2380   -1.1897    5.4058 H   0  0  0  0  0  0  0  0  0  0  0  0
    2.2790   -2.7171    5.5554 H   0  0  0  0  0  0  0  0  0  0  0  0
    1.5949   -1.1436    3.8995 H   0  0  0  0  0  0  0  0  0  0  0  0
    5.8220   -3.3675    6.3973 H   0  0  0  0  0  0  0  0  0  0  0  0
    4.1505   -3.9489    6.7015 H   0  0  0  0  0  0  0  0  0  0  0  0
    4.8043   -2.5206    7.6049 H   0  0  0  0  0  0  0  0  0  0  0  0
    5.3223   -0.2211    1.5794 H   0  0  0  0  0  0  0  0  0  0  0  0
    4.7252   -0.9845    0.1235 H   0  0  0  0  0  0  0  0  0  0  0  0
    6.9715    0.1500   -0.0935 H   0  0  0  0  0  0  0  0  0  0  0  0
    6.3122    2.1736   -2.1868 H   0  0  0  0  0  0  0  0  0  0  0  0
    8.7696   -0.1395   -0.4530 H   0  0  0  0  0  0  0  0  0  0  0  0
   10.7109   -0.9828   -1.2763 H   0  0  0  0  0  0  0  0  0  0  0  0
   11.1308    0.6361   -1.8202 H   0  0  0  0  0  0  0  0  0  0  0  0
   11.4089   -2.1154   -4.1759 H   0  0  0  0  0  0  0  0  0  0  0  0
   12.2191   -0.5335   -4.0479 H   0  0  0  0  0  0  0  0  0  0  0  0
    6.1404    3.5329   -0.3490 H   0  0  0  0  0  0  0  0  0  0  0  0
    7.7973    3.0969    0.3073 H   0  0  0  0  0  0  0  0  0  0  0  0
    7.2024    4.5622   -2.3293 H   0  0  0  0  0  0  0  0  0  0  0  0
    9.7935    3.5424   -1.1878 H   0  0  0  0  0  0  0  0  0  0  0  0
    9.3888    4.3562   -2.8298 H   0  0  0  0  0  0  0  0  0  0  0  0
    9.6958    5.2769   -1.3821 H   0  0  0  0  0  0  0  0  0  0  0  0
    7.7027    5.3258    0.5560 H   0  0  0  0  0  0  0  0  0  0  0  0
    6.5501    6.0394   -0.6099 H   0  0  0  0  0  0  0  0  0  0  0  0
    8.3614    6.3870   -0.7264 H   0  0  0  0  0  0  0  0  0  0  0  0
   -4.8446    3.9589   -2.0012 H   0  0  0  0  0  0  0  0  0  0  0  0
   -5.4492    2.3680   -2.4953 H   0  0  0  0  0  0  0  0  0  0  0  0
   -7.9509    2.0576   -2.6937 H   0  0  0  0  0  0  0  0  0  0  0  0
  -10.1594    3.2407   -2.8077 H   0  0  0  0  0  0  0  0  0  0  0  0
   -8.3569    6.7226   -1.1628 H   0  0  0  0  0  0  0  0  0  0  0  0
   -6.2237    5.6450   -1.0225 H   0  0  0  0  0  0  0  0  0  0  0  0
  -10.5750    6.6174   -2.6189 H   0  0  0  0  0  0  0  0  0  0  0  0
   -8.1252   -3.0055    0.5233 H   0  0  0  0  0  0  0  0  0  0  0  0
   -7.5677   -2.7681    2.2791 H   0  0  0  0  0  0  0  0  0  0  0  0
   -9.1799   -2.2585    1.7111 H   0  0  0  0  0  0  0  0  0  0  0  0
  1  2  1  0
  2  3  1  0
  3  4  1  0
  4  5  1  0
  5  6  1  0
  6  7  2  0
  6  8  1  0
  8  9  1  0
  9 10  1  0
 10 11  2  0
 10 12  1  0
 12 13  1  0
 13 14  1  0
 14 15  1  0
 15 16  1  0
 16 17  1  0
 17 18  1  0
 18 19  1  0
 19 20  2  0
 19 21  1  0
 21 22  1  0
 22 23  1  0
 23 24  2  0
 23 25  1  0
 25 26  1  0
 26 27  1  0
 27 28  2  0
 25 29  1  0
 29 30  1  0
 30 31  1  0
 31 32  2  0
 31 33  1  0
 21 34  1  0
 34 35  1  0
 35 36  2  0
 35 37  1  0
 17 38  1  0
 38 39  2  0
 38 40  1  0
 40 41  1  0
 41 42  1  0
 42 43  2  0
 43 44  1  0
 44 45  2  0
 45 46  1  0
 46 47  2  0
 45 48  1  0
 40 49  1  0
 49 50  1  0
 50 51  2  0
 50 52  1  0
 52 53  1  0
 53 54  1  0
 54 55  2  0
 54 56  1  0
 56 57  1  0
 57 58  1  0
 58 59  2  0
 58 60  1  0
 53 61  1  0
 61 62  1  0
 62 63  1  0
 62 64  1  0
  8 65  1  0
 65 66  1  0
 66 67  2  0
 67 68  1  0
 68 69  2  0
 69 70  1  0
 70 71  2  0
 69 72  1  0
  3 73  1  0
 27  4  1  0
 47 42  1  0
 71 66  1  0
  1 74  1  0
  1 75  1  0
  1 76  1  0
  2 77  1  0
  2 78  1  0
  3 79  1  6
  4 80  1  1
  5 81  1  0
  8 82  1  1
  9 83  1  0
 12 84  1  0
 12 85  1  0
 13 86  1  0
 13 87  1  0
 16 88  1  0
 16 89  1  0
 17 90  1  6
 18 91  1  0
 21 92  1  1
 22 93  1  0
 25 94  1  6
 26 95  1  0
 29 96  1  0
 29 97  1  0
 30 98  1  0
 30 99  1  0
 33100  1  0
 33101  1  0
 34102  1  0
 34103  1  0
 37104  1  0
 37105  1  0
 41106  1  0
 41107  1  0
 43108  1  0
 44109  1  0
 46110  1  0
 47111  1  0
 48112  1  0
 48113  1  0
 48114  1  0
 49115  1  0
 49116  1  0
 52117  1  0
 53118  1  6
 56119  1  0
 57120  1  0
 57121  1  0
 60122  1  0
 60123  1  0
 61124  1  0
 61125  1  0
 62126  1  0
 63127  1  0
 63128  1  0
 63129  1  0
 64130  1  0
 64131  1  0
 64132  1  0
 65133  1  0
 65134  1  0
 67135  1  0
 68136  1  0
 70137  1  0
 71138  1  0
 72139  1  0
 73140  1  0
 73141  1  0
 73142  1  0
M  END
>  <Ligand ID>  (1) 
LIG0001631

>  <Ligand>  (1) 
CHEMBL3353947

>  <SMILES>  (1) 
CC[C@@H]([C@@H]1NC(=O)[C@@H](NC(=O)CCSSC[C@H](NC(=O)[C@@H](NC(=O)[C@@H](NC1=O)CCC(=O)N)CC(=O)N)C(=O)N(Cc1ccc(cc1)C)CC(=O)N[C@H](C(=O)NCC(=O)N)CC(C)C)Cc1ccc(cc1)O)C

>  <CID>  (1) 
118719836.0

>  <ChEMBL ID>  (1) 
nan

>  <InChiKey>  (1) 
LNICPCYYCCDASE-OTQBRQNKSA-N

>  <InChi>  (1) 
InChI=1S/C48H69N11O12S2/c1-6-28(5)42-47(70)55-32(15-16-37(49)61)44(67)56-35(21-38(50)62)45(68)57-36(25-73-72-18-17-40(64)53-34(46(69)58-42)20-29-11-13-31(60)14-12-29)48(71)59(23-30-9-7-27(4)8-10-30)24-41(65)54-33(19-26(2)3)43(66)52-22-39(51)63/h7-14,26,28,32-36,42,60H,6,15-25H2,1-5H3,(H2,49,61)(H2,50,62)(H2,51,63)(H,52,66)(H,53,64)(H,54,65)(H,55,70)(H,56,67)(H,57,68)(H,58,69)/t28-,32-,33-,34-,35-,36-,42-/m0/s1

>  <IUPAC Name>  (1) 
(4R,7S,10S,13S,16S)-7-(2-amino-2-oxoethyl)-N-[2-[[(2S)-1-[(2-amino-2-oxoethyl)amino]-4-methyl-1-oxopentan-2-yl]amino]-2-oxoethyl]-10-(3-amino-3-oxopropyl)-13-[(2S)-butan-2-yl]-16-[(4-hydroxyphenyl)methyl]-N-[(4-methylphenyl)methyl]-6,9,12,15,18-pentaoxo-1,2-dithia-5,8,11,14,17-pentazacycloicosane-4-carboxamide

$$$$
