
     RDKit          3D

 39 42  0  0  0  0  0  0  0  0999 V2000
    6.7135   -1.1220   -1.3755 C   0  0  0  0  0  0  0  0  0  0  0  0
    5.5672   -0.2842   -1.0343 N   0  0  0  0  0  0  0  0  0  0  0  0
    5.4972    1.0241   -1.2031 N   0  0  0  0  0  0  0  0  0  0  0  0
    4.2835    1.3993   -0.7646 C   0  0  0  0  0  0  0  0  0  0  0  0
    3.5841    0.2986   -0.3130 C   0  0  0  0  0  0  0  0  0  0  0  0
    4.4348   -0.7696   -0.4989 C   0  0  0  0  0  0  0  0  0  0  0  0
    2.2414    0.2199    0.2494 C   0  0  0  0  0  0  0  0  0  0  0  0
    1.4691   -0.9225    0.0566 C   0  0  0  0  0  0  0  0  0  0  0  0
    0.1966   -1.0245    0.5783 C   0  0  0  0  0  0  0  0  0  0  0  0
   -0.3805    0.0116    1.3250 C   0  0  0  0  0  0  0  0  0  0  0  0
    0.3991    1.1244    1.5008 C   0  0  0  0  0  0  0  0  0  0  0  0
    1.6725    1.2388    0.9846 C   0  0  0  0  0  0  0  0  0  0  0  0
   -0.0768    2.1628    2.2121 F   0  0  0  0  0  0  0  0  0  0  0  0
   -1.7335   -0.1875    1.8333 C   0  0  0  0  0  0  0  0  0  0  0  0
   -2.7842    0.4763    1.1351 N   0  0  0  0  0  0  0  0  0  0  0  0
   -3.4828   -0.0991    0.0232 C   0  0  0  0  0  0  0  0  0  0  0  0
   -3.3666   -1.3128   -0.6178 C   0  0  0  0  0  0  0  0  0  0  0  0
   -4.1825   -1.6399   -1.6982 C   0  0  0  0  0  0  0  0  0  0  0  0
   -5.1250   -0.7492   -2.1466 C   0  0  0  0  0  0  0  0  0  0  0  0
   -5.2657    0.4790   -1.5226 C   0  0  0  0  0  0  0  0  0  0  0  0
   -4.4357    0.7706   -0.4492 C   0  0  0  0  0  0  0  0  0  0  0  0
   -4.3938    1.9801    0.3595 C   0  0  0  0  0  0  0  0  0  0  0  0
   -5.1181    3.0138    0.2354 O   0  0  0  0  0  0  0  0  0  0  0  0
   -3.3400    1.7717    1.3579 C   0  0  0  0  0  0  0  0  0  0  0  0
   -3.0449    2.6223    2.2127 O   0  0  0  0  0  0  0  0  0  0  0  0
    6.6266   -1.3341   -2.4580 H   0  0  0  0  0  0  0  0  0  0  0  0
    6.7555   -2.0358   -0.7619 H   0  0  0  0  0  0  0  0  0  0  0  0
    7.6614   -0.5697   -1.2246 H   0  0  0  0  0  0  0  0  0  0  0  0
    3.9001    2.4237   -0.7622 H   0  0  0  0  0  0  0  0  0  0  0  0
    4.1912   -1.8059   -0.2431 H   0  0  0  0  0  0  0  0  0  0  0  0
    1.8723   -1.7649   -0.5205 H   0  0  0  0  0  0  0  0  0  0  0  0
   -0.3423   -1.9489    0.3845 H   0  0  0  0  0  0  0  0  0  0  0  0
    2.2936    2.1257    1.1248 H   0  0  0  0  0  0  0  0  0  0  0  0
   -1.9779   -1.2858    1.8569 H   0  0  0  0  0  0  0  0  0  0  0  0
   -1.7868    0.1105    2.9203 H   0  0  0  0  0  0  0  0  0  0  0  0
   -2.6361   -2.0400   -0.2931 H   0  0  0  0  0  0  0  0  0  0  0  0
   -4.1059   -2.5840   -2.2108 H   0  0  0  0  0  0  0  0  0  0  0  0
   -5.7791   -0.9823   -2.9945 H   0  0  0  0  0  0  0  0  0  0  0  0
   -6.0014    1.2091   -1.8507 H   0  0  0  0  0  0  0  0  0  0  0  0
  1  2  1  0
  2  3  1  0
  3  4  2  0
  4  5  1  0
  5  6  2  0
  5  7  1  0
  7  8  2  0
  8  9  1  0
  9 10  2  0
 10 11  1  0
 11 12  2  0
 11 13  1  0
 10 14  1  0
 14 15  1  0
 15 16  1  0
 16 17  2  0
 17 18  1  0
 18 19  2  0
 19 20  1  0
 20 21  2  0
 21 22  1  0
 22 23  2  0
 22 24  1  0
 24 25  2  0
  6  2  1  0
 12  7  1  0
 24 15  1  0
 21 16  1  0
  1 26  1  0
  1 27  1  0
  1 28  1  0
  4 29  1  0
  6 30  1  0
  8 31  1  0
  9 32  1  0
 12 33  1  0
 14 34  1  0
 14 35  1  0
 17 36  1  0
 18 37  1  0
 19 38  1  0
 20 39  1  0
M  END
>  <Ligand ID>  (1) 
LIG0000990

>  <Ligand>  (1) 
CHEMBL1083203

>  <SMILES>  (1) 
Cn1ncc(c1)c1ccc(c(c1)F)CN1c2ccccc2C(=O)C1=O

>  <CID>  (1) 
44251556.0

>  <ChEMBL ID>  (1) 
nan

>  <InChiKey>  (1) 
JCOKRGWZMBZKFO-UHFFFAOYSA-N

>  <InChi>  (1) 
InChI=1S/C19H14FN3O2/c1-22-10-14(9-21-22)12-6-7-13(16(20)8-12)11-23-17-5-3-2-4-15(17)18(24)19(23)25/h2-10H,11H2,1H3

>  <IUPAC Name>  (1) 
1-[[2-fluoro-4-(1-methylpyrazol-4-yl)phenyl]methyl]indole-2,3-dione

$$$$
