
     RDKit          3D

 27 27  0  0  0  0  0  0  0  0999 V2000
    4.3801   -0.7465    1.0424 C   0  0  0  0  0  0  0  0  0  0  0  0
    3.0061   -0.9774    1.0484 O   0  0  0  0  0  0  0  0  0  0  0  0
    2.1248   -0.4450    0.1476 C   0  0  0  0  0  0  0  0  0  0  0  0
    2.4616    0.3923   -0.8917 C   0  0  0  0  0  0  0  0  0  0  0  0
    1.5235    0.8994   -1.7714 C   0  0  0  0  0  0  0  0  0  0  0  0
    0.1944    0.5658   -1.6189 C   0  0  0  0  0  0  0  0  0  0  0  0
   -0.1703   -0.2809   -0.5733 C   0  0  0  0  0  0  0  0  0  0  0  0
    0.7796   -0.7781    0.2958 C   0  0  0  0  0  0  0  0  0  0  0  0
   -1.5930   -0.6604   -0.3803 C   0  0  0  0  0  0  0  0  0  0  0  0
   -2.3392    0.2820    0.5191 C   0  0  1  0  0  0  0  0  0  0  0  0
   -2.3618    1.6446    0.0175 N   0  0  0  0  0  0  0  0  0  0  0  0
   -3.7588   -0.2400    0.6295 C   0  0  0  0  0  0  0  0  0  0  0  0
    4.6575    0.2328    0.6024 H   0  0  0  0  0  0  0  0  0  0  0  0
    4.8324   -0.7541    2.0607 H   0  0  0  0  0  0  0  0  0  0  0  0
    4.8734   -1.5297    0.4291 H   0  0  0  0  0  0  0  0  0  0  0  0
    3.5010    0.6620   -1.0226 H   0  0  0  0  0  0  0  0  0  0  0  0
    1.7745    1.5596   -2.5940 H   0  0  0  0  0  0  0  0  0  0  0  0
   -0.5949    0.9216   -2.2648 H   0  0  0  0  0  0  0  0  0  0  0  0
    0.4795   -1.4310    1.0981 H   0  0  0  0  0  0  0  0  0  0  0  0
   -1.6898   -1.6685    0.0737 H   0  0  0  0  0  0  0  0  0  0  0  0
   -2.1088   -0.6848   -1.3609 H   0  0  0  0  0  0  0  0  0  0  0  0
   -1.9071    0.3239    1.5372 H   0  0  0  0  0  0  0  0  0  0  0  0
   -2.8332    1.7346   -0.8918 H   0  0  0  0  0  0  0  0  0  0  0  0
   -2.9687    2.1788    0.6983 H   0  0  0  0  0  0  0  0  0  0  0  0
   -4.3153    0.0447   -0.2914 H   0  0  0  0  0  0  0  0  0  0  0  0
   -3.6914   -1.3525    0.6063 H   0  0  0  0  0  0  0  0  0  0  0  0
   -4.2561    0.1069    1.5541 H   0  0  0  0  0  0  0  0  0  0  0  0
  1  2  1  0
  2  3  1  0
  3  4  2  0
  4  5  1  0
  5  6  2  0
  6  7  1  0
  7  8  2  0
  7  9  1  0
  9 10  1  0
 10 11  1  0
 10 12  1  0
  8  3  1  0
  1 13  1  0
  1 14  1  0
  1 15  1  0
  4 16  1  0
  5 17  1  0
  6 18  1  0
  8 19  1  0
  9 20  1  0
  9 21  1  0
 10 22  1  1
 11 23  1  0
 11 24  1  0
 12 25  1  0
 12 26  1  0
 12 27  1  0
M  END
>  <Ligand ID>  (1) 
LIG0005205

>  <Ligand>  (1) 
CHEMBL1927026

>  <SMILES>  (1) 
COc1cccc(c1)C[C@@H](N)C

>  <CID>  (1) 
40578307.0

>  <ChEMBL ID>  (1) 
nan

>  <InChiKey>  (1) 
VEJWNIYARKAHFI-QMMMGPOBSA-N

>  <InChi>  (1) 
InChI=1S/C10H15NO/c1-8(11)6-9-4-3-5-10(7-9)12-2/h3-5,7-8H,6,11H2,1-2H3/t8-/m0/s1

>  <IUPAC Name>  (1) 
(2S)-1-(3-methoxyphenyl)propan-2-amine

$$$$
