
     RDKit          3D

 38 40  0  0  0  0  0  0  0  0999 V2000
    4.4916    1.6700    0.7580 C   0  0  0  0  0  0  0  0  0  0  0  0
    4.1950    0.8367   -0.4835 C   0  0  0  0  0  0  0  0  0  0  0  0
    2.8343    0.2488   -0.2512 C   0  0  0  0  0  0  0  0  0  0  0  0
    1.6938    0.9418   -0.6705 C   0  0  0  0  0  0  0  0  0  0  0  0
    0.4366    0.3759   -0.4442 C   0  0  0  0  0  0  0  0  0  0  0  0
   -0.7303    1.1574   -0.9104 C   0  0  0  0  0  0  0  0  0  0  0  0
   -1.8867    0.2505   -1.1843 C   0  0  2  0  0  0  0  0  0  0  0  0
   -3.1385    0.9736   -1.5405 C   0  0  0  0  0  0  0  0  0  0  0  0
   -3.7840    1.4509   -0.3460 N   0  0  0  0  0  0  0  0  0  0  0  0
   -4.3349    0.3325    0.3700 C   0  0  0  0  0  0  0  0  0  0  0  0
   -3.3701   -0.7869    0.6141 C   0  0  0  0  0  0  0  0  0  0  0  0
   -2.1214   -0.6264   -0.0614 N   0  0  0  0  0  0  0  0  0  0  0  0
   -0.9864   -1.3907    0.3948 C   0  0  0  0  0  0  0  0  0  0  0  0
   -1.1331   -2.5040    0.9636 O   0  0  0  0  0  0  0  0  0  0  0  0
    0.3672   -0.8348    0.1791 C   0  0  0  0  0  0  0  0  0  0  0  0
    1.4792   -1.5486    0.6076 C   0  0  0  0  0  0  0  0  0  0  0  0
    2.7117   -0.9682    0.3725 C   0  0  0  0  0  0  0  0  0  0  0  0
    1.3352   -2.8705    1.2845 C   0  0  0  0  0  0  0  0  0  0  0  0
    3.6089    2.3209    0.9051 H   0  0  0  0  0  0  0  0  0  0  0  0
    4.5414    0.9750    1.6168 H   0  0  0  0  0  0  0  0  0  0  0  0
    5.4202    2.2508    0.6656 H   0  0  0  0  0  0  0  0  0  0  0  0
    4.9265    0.0363   -0.6286 H   0  0  0  0  0  0  0  0  0  0  0  0
    4.0857    1.5078   -1.3548 H   0  0  0  0  0  0  0  0  0  0  0  0
    1.7822    1.9135   -1.1690 H   0  0  0  0  0  0  0  0  0  0  0  0
   -0.5074    1.6885   -1.8669 H   0  0  0  0  0  0  0  0  0  0  0  0
   -0.9724    1.9331   -0.1509 H   0  0  0  0  0  0  0  0  0  0  0  0
   -1.5999   -0.3512   -2.0928 H   0  0  0  0  0  0  0  0  0  0  0  0
   -3.8266    0.2126   -1.9994 H   0  0  0  0  0  0  0  0  0  0  0  0
   -2.9766    1.7670   -2.2910 H   0  0  0  0  0  0  0  0  0  0  0  0
   -3.1703    2.0573    0.2335 H   0  0  0  0  0  0  0  0  0  0  0  0
   -4.7743    0.7336    1.3225 H   0  0  0  0  0  0  0  0  0  0  0  0
   -5.2203   -0.0101   -0.2343 H   0  0  0  0  0  0  0  0  0  0  0  0
   -3.2332   -0.8728    1.7108 H   0  0  0  0  0  0  0  0  0  0  0  0
   -3.8666   -1.7339    0.2943 H   0  0  0  0  0  0  0  0  0  0  0  0
    3.6181   -1.4695    0.6801 H   0  0  0  0  0  0  0  0  0  0  0  0
    0.8442   -2.8086    2.2626 H   0  0  0  0  0  0  0  0  0  0  0  0
    2.3721   -3.2416    1.4772 H   0  0  0  0  0  0  0  0  0  0  0  0
    0.8890   -3.6168    0.5945 H   0  0  0  0  0  0  0  0  0  0  0  0
  1  2  1  0
  2  3  1  0
  3  4  2  0
  4  5  1  0
  5  6  1  0
  6  7  1  0
  7  8  1  0
  8  9  1  0
  9 10  1  0
 10 11  1  0
 11 12  1  0
 12 13  1  0
 13 14  2  0
 13 15  1  0
 15 16  1  0
 16 17  2  0
 16 18  1  0
 17  3  1  0
 15  5  2  0
 12  7  1  0
  1 19  1  0
  1 20  1  0
  1 21  1  0
  2 22  1  0
  2 23  1  0
  4 24  1  0
  6 25  1  0
  6 26  1  0
  7 27  1  6
  8 28  1  0
  8 29  1  0
  9 30  1  0
 10 31  1  0
 10 32  1  0
 11 33  1  0
 11 34  1  0
 17 35  1  0
 18 36  1  0
 18 37  1  0
 18 38  1  0
M  END
>  <Ligand ID>  (1) 
LIG0004110

>  <Ligand>  (1) 
CHEMBL2397911

>  <SMILES>  (1) 
CCc1cc2C[C@@H]3CNCCN3C(=O)c2c(c1)C

>  <CID>  (1) 
58911653.0

>  <ChEMBL ID>  (1) 
nan

>  <InChiKey>  (1) 
JIMJRRKWNUZDBN-CYBMUJFWSA-N

>  <InChi>  (1) 
InChI=1S/C15H20N2O/c1-3-11-6-10(2)14-12(7-11)8-13-9-16-4-5-17(13)15(14)18/h6-7,13,16H,3-5,8-9H2,1-2H3/t13-/m1/s1

>  <IUPAC Name>  (1) 
(11aR)-9-ethyl-7-methyl-1,2,3,4,11,11a-hexahydropyrazino[1,2-b]isoquinolin-6-one

$$$$
