
     RDKit          3D

 50 52  0  0  0  0  0  0  0  0999 V2000
   -6.0497   -1.2163    1.8068 O   0  0  0  0  0  0  0  0  0  0  0  0
   -5.1049   -0.2942    1.3611 C   0  0  2  0  0  0  0  0  0  0  0  0
   -5.4871    0.3049    0.0641 C   0  0  0  0  0  0  0  0  0  0  0  0
   -5.3680    1.6744   -0.1316 C   0  0  0  0  0  0  0  0  0  0  0  0
   -5.7121    2.2819   -1.3224 C   0  0  0  0  0  0  0  0  0  0  0  0
   -6.1864    1.4996   -2.3409 C   0  0  0  0  0  0  0  0  0  0  0  0
   -6.2946    0.1808   -2.1349 N   0  0  0  0  0  0  0  0  0  0  0  0
   -5.9729   -0.4533   -0.9958 C   0  0  0  0  0  0  0  0  0  0  0  0
   -3.7138   -0.9003    1.3497 C   0  0  0  0  0  0  0  0  0  0  0  0
   -2.8136    0.1140    0.8813 N   0  0  0  0  0  0  0  0  0  0  0  0
   -1.4446   -0.2796    0.8008 C   0  0  0  0  0  0  0  0  0  0  0  0
   -1.1178   -1.2904   -0.2323 C   0  0  0  0  0  0  0  0  0  0  0  0
    0.3350   -1.6047   -0.2030 C   0  0  0  0  0  0  0  0  0  0  0  0
    0.7196   -2.6445    0.6376 C   0  0  0  0  0  0  0  0  0  0  0  0
    2.0423   -2.9808    0.7039 C   0  0  0  0  0  0  0  0  0  0  0  0
    2.9288   -2.2697   -0.0680 C   0  0  0  0  0  0  0  0  0  0  0  0
    2.5842   -1.2430   -0.9041 C   0  0  0  0  0  0  0  0  0  0  0  0
    1.2443   -0.9038   -0.9698 C   0  0  0  0  0  0  0  0  0  0  0  0
    3.5730   -0.6116   -1.6249 O   0  0  0  0  0  0  0  0  0  0  0  0
    4.3127    0.4692   -1.2352 C   0  0  0  0  0  0  0  0  0  0  0  0
    3.9604    1.7893   -1.4528 C   0  0  0  0  0  0  0  0  0  0  0  0
    4.7930    2.7962   -1.0105 C   0  0  0  0  0  0  0  0  0  0  0  0
    5.9710    2.5279   -0.3553 C   0  0  0  0  0  0  0  0  0  0  0  0
    6.3388    1.2243   -0.1294 C   0  0  0  0  0  0  0  0  0  0  0  0
    5.5116    0.2127   -0.5686 C   0  0  0  0  0  0  0  0  0  0  0  0
    7.5777    0.8512    0.5606 C   0  0  0  0  0  0  0  0  0  0  0  0
    7.8856   -0.3574    0.7529 O   0  0  0  0  0  0  0  0  0  0  0  0
    8.4533    1.8330    1.0253 O   0  0  0  0  0  0  0  0  0  0  0  0
    6.7807    3.5096    0.0749 F   0  0  0  0  0  0  0  0  0  0  0  0
   -5.8632   -2.1366    1.5008 H   0  0  0  0  0  0  0  0  0  0  0  0
   -5.0902    0.5129    2.1231 H   0  0  0  0  0  0  0  0  0  0  0  0
   -4.9842    2.2713    0.7081 H   0  0  0  0  0  0  0  0  0  0  0  0
   -5.6209    3.3534   -1.4779 H   0  0  0  0  0  0  0  0  0  0  0  0
   -6.4634    1.9682   -3.2913 H   0  0  0  0  0  0  0  0  0  0  0  0
   -6.0832   -1.5210   -0.8901 H   0  0  0  0  0  0  0  0  0  0  0  0
   -3.5241   -1.2264    2.3874 H   0  0  0  0  0  0  0  0  0  0  0  0
   -3.7584   -1.7249    0.6120 H   0  0  0  0  0  0  0  0  0  0  0  0
   -3.2156    0.4896   -0.0105 H   0  0  0  0  0  0  0  0  0  0  0  0
   -0.8413    0.6298    0.6000 H   0  0  0  0  0  0  0  0  0  0  0  0
   -1.1493   -0.6281    1.8117 H   0  0  0  0  0  0  0  0  0  0  0  0
   -1.3119   -0.9060   -1.2599 H   0  0  0  0  0  0  0  0  0  0  0  0
   -1.6742   -2.2316   -0.1669 H   0  0  0  0  0  0  0  0  0  0  0  0
   -0.0209   -3.1825    1.2337 H   0  0  0  0  0  0  0  0  0  0  0  0
    2.3218   -3.7909    1.3618 H   0  0  0  0  0  0  0  0  0  0  0  0
    3.9856   -2.5621    0.0047 H   0  0  0  0  0  0  0  0  0  0  0  0
    0.9337   -0.0978   -1.6195 H   0  0  0  0  0  0  0  0  0  0  0  0
    3.0327    1.9922   -1.9688 H   0  0  0  0  0  0  0  0  0  0  0  0
    4.4727    3.8147   -1.2052 H   0  0  0  0  0  0  0  0  0  0  0  0
    5.8155   -0.8242   -0.3831 H   0  0  0  0  0  0  0  0  0  0  0  0
    9.2924    1.5806    1.5541 H   0  0  0  0  0  0  0  0  0  0  0  0
  1  2  1  0
  2  3  1  0
  3  4  2  0
  4  5  1  0
  5  6  2  0
  6  7  1  0
  7  8  2  0
  2  9  1  0
  9 10  1  0
 10 11  1  0
 11 12  1  0
 12 13  1  0
 13 14  2  0
 14 15  1  0
 15 16  2  0
 16 17  1  0
 17 18  2  0
 17 19  1  0
 19 20  1  0
 20 21  2  0
 21 22  1  0
 22 23  2  0
 23 24  1  0
 24 25  2  0
 24 26  1  0
 26 27  2  0
 26 28  1  0
 23 29  1  0
  8  3  1  0
 18 13  1  0
 25 20  1  0
  1 30  1  0
  2 31  1  1
  4 32  1  0
  5 33  1  0
  6 34  1  0
  8 35  1  0
  9 36  1  0
  9 37  1  0
 10 38  1  0
 11 39  1  0
 11 40  1  0
 12 41  1  0
 12 42  1  0
 14 43  1  0
 15 44  1  0
 16 45  1  0
 18 46  1  0
 21 47  1  0
 22 48  1  0
 25 49  1  0
 28 50  1  0
M  END
>  <Ligand ID>  (1) 
LIG0005868

>  <Ligand>  (1) 
CHEMBL522641

>  <SMILES>  (1) 
O[C@H](c1cccnc1)CNCCc1cccc(c1)Oc1ccc(c(c1)C(=O)O)F

>  <CID>  (1) 
44580042.0

>  <ChEMBL ID>  (1) 
nan

>  <InChiKey>  (1) 
YCOKEYJAJQFCRF-NRFANRHFSA-N

>  <InChi>  (1) 
InChI=1S/C22H21FN2O4/c23-20-7-6-18(12-19(20)22(27)28)29-17-5-1-3-15(11-17)8-10-25-14-21(26)16-4-2-9-24-13-16/h1-7,9,11-13,21,25-26H,8,10,14H2,(H,27,28)/t21-/m0/s1

>  <IUPAC Name>  (1) 
2-fluoro-5-[3-[2-[[(2R)-2-hydroxy-2-pyridin-3-ylethyl]amino]ethyl]phenoxy]benzoic acid

$$$$
