
     RDKit          3D

 31 32  0  0  0  0  0  0  0  0999 V2000
    3.8478    0.8406   -0.5314 C   0  0  0  0  0  0  0  0  0  0  0  0
    2.6451    0.0544   -0.1641 C   0  0  0  0  0  0  0  0  0  0  0  0
    1.4096    0.6771   -0.1241 C   0  0  0  0  0  0  0  0  0  0  0  0
    0.2686   -0.0127    0.2113 C   0  0  0  0  0  0  0  0  0  0  0  0
   -1.0025    0.6807    0.2564 C   0  0  1  0  0  0  0  0  0  0  0  0
   -1.2998    1.6462   -0.8553 C   0  0  0  0  0  0  0  0  0  0  0  0
   -2.7362    1.8226   -0.6800 N   0  0  0  0  0  0  0  0  0  0  0  0
   -3.2417    0.5965   -0.0332 C   0  0  0  0  0  0  0  0  0  0  0  0
   -2.0984   -0.3381   -0.1134 C   0  0  2  0  0  0  0  0  0  0  0  0
   -2.0235   -1.3953    0.8471 N   0  0  0  0  0  0  0  0  0  0  0  0
   -0.7830   -2.1478    0.8552 C   0  0  0  0  0  0  0  0  0  0  0  0
   -0.7571   -3.3697    1.1397 O   0  0  0  0  0  0  0  0  0  0  0  0
    0.4170   -1.3759    0.5098 C   0  0  0  0  0  0  0  0  0  0  0  0
    1.6158   -2.0159    0.4798 C   0  0  0  0  0  0  0  0  0  0  0  0
    2.7369   -1.2844    0.1379 C   0  0  0  0  0  0  0  0  0  0  0  0
    1.7405   -3.7128    0.8612 Cl  0  0  0  0  0  0  0  0  0  0  0  0
    0.6895    0.0000    0.0000 Cl  0  0  0  0  0  0  0  0  0  0  0  0
    4.4840    0.2065   -1.1842 H   0  0  0  0  0  0  0  0  0  0  0  0
    3.5216    1.6822   -1.1939 H   0  0  0  0  0  0  0  0  0  0  0  0
    4.3571    1.2452    0.3436 H   0  0  0  0  0  0  0  0  0  0  0  0
    1.3875    1.7447   -0.3726 H   0  0  0  0  0  0  0  0  0  0  0  0
   -1.2218    1.1189    1.2529 H   0  0  0  0  0  0  0  0  0  0  0  0
   -0.7513    2.6045   -0.7183 H   0  0  0  0  0  0  0  0  0  0  0  0
   -1.0407    1.1526   -1.8153 H   0  0  0  0  0  0  0  0  0  0  0  0
   -2.8301    2.6168    0.0194 H   0  0  0  0  0  0  0  0  0  0  0  0
   -4.1029    0.2426   -0.6292 H   0  0  0  0  0  0  0  0  0  0  0  0
   -3.5545    0.8105    1.0099 H   0  0  0  0  0  0  0  0  0  0  0  0
   -1.9143   -0.6484   -1.1429 H   0  0  0  0  0  0  0  0  0  0  0  0
   -2.7698   -1.6641    1.5242 H   0  0  0  0  0  0  0  0  0  0  0  0
    3.6962   -1.7778    0.1094 H   0  0  0  0  0  0  0  0  0  0  0  0
   -0.6895    0.0000    0.0000 H   0  0  0  0  0  0  0  0  0  0  0  0
  1  2  1  0
  2  3  2  0
  3  4  1  0
  4  5  1  0
  5  6  1  0
  6  7  1  0
  7  8  1  0
  8  9  1  0
  9 10  1  0
 10 11  1  0
 11 12  2  0
 11 13  1  0
 13 14  1  0
 14 15  2  0
 14 16  1  0
 15  2  1  0
 13  4  2  0
  9  5  1  0
  1 18  1  0
  1 19  1  0
  1 20  1  0
  3 21  1  0
  5 22  1  1
  6 23  1  0
  6 24  1  0
  7 25  1  0
  8 26  1  0
  8 27  1  0
  9 28  1  6
 10 29  1  0
 15 30  1  0
 17 31  1  0
M  END
>  <Ligand ID>  (1) 
LIG0003738

>  <Ligand>  (1) 
CHEMBL2337496

>  <SMILES>  (1) 
Cc1cc2[C@H]3CNC[C@@H]3NC(=O)c2c(c1)Cl.Cl

>  <CID>  (1) 
11666236.0

>  <ChEMBL ID>  (1) 
nan

>  <InChiKey>  (1) 
BUUCCZQTOWADCK-SCYNACPDSA-N

>  <InChi>  (1) 
InChI=1S/C12H13ClN2O.ClH/c1-6-2-7-8-4-14-5-10(8)15-12(16)11(7)9(13)3-6;/h2-3,8,10,14H,4-5H2,1H3,(H,15,16);1H/t8-,10+;/m1./s1

>  <IUPAC Name>  (1) 
(3aR,9bS)-6-chloro-8-methyl-1,2,3,3a,4,9b-hexahydropyrrolo[3,4-c]isoquinolin-5-one;hydrochloride

$$$$
