
     RDKit          3D

 49 53  0  0  0  0  0  0  0  0999 V2000
   -1.0717   -1.9555   -0.6137 O   0  0  0  0  0  0  0  0  0  0  0  0
   -1.3777   -0.7230   -0.4576 C   0  0  0  0  0  0  0  0  0  0  0  0
   -2.7371   -0.3679   -0.8259 C   0  0  0  0  0  0  0  0  0  0  0  0
   -3.5726    0.0182    0.2122 C   0  0  0  0  0  0  0  0  0  0  0  0
   -4.8944    0.3783   -0.0776 C   0  0  0  0  0  0  0  0  0  0  0  0
   -5.3571    0.3570   -1.3119 N   0  0  0  0  0  0  0  0  0  0  0  0
   -4.5606   -0.0165   -2.3406 C   0  0  0  0  0  0  0  0  0  0  0  0
   -3.2264   -0.3884   -2.1098 C   0  0  0  0  0  0  0  0  0  0  0  0
   -2.3901   -0.7762   -3.1301 C   0  0  0  0  0  0  0  0  0  0  0  0
   -2.8510   -0.8110   -4.4383 C   0  0  0  0  0  0  0  0  0  0  0  0
   -4.1616   -0.4453   -4.6640 C   0  0  0  0  0  0  0  0  0  0  0  0
   -5.0183   -0.0518   -3.6422 C   0  0  0  0  0  0  0  0  0  0  0  0
   -5.7018    0.7568    1.0694 C   0  0  0  0  0  0  0  0  0  0  0  0
   -5.4898    0.7862    2.4063 C   0  0  0  0  0  0  0  0  0  0  0  0
   -6.4335    1.1773    3.2424 C   0  0  0  0  0  0  0  0  0  0  0  0
   -7.6801    1.5708    2.7393 C   0  0  0  0  0  0  0  0  0  0  0  0
   -7.4619    1.3537    0.8902 S   0  0  0  0  0  0  0  0  0  0  0  0
   -0.4141    0.1653    0.0428 N   0  0  0  0  0  0  0  0  0  0  0  0
    0.9040   -0.0957    0.4276 C   0  0  0  0  0  0  0  0  0  0  0  0
    1.5243   -1.3233    0.4094 C   0  0  0  0  0  0  0  0  0  0  0  0
    2.8432   -1.5052    0.8345 C   0  0  0  0  0  0  0  0  0  0  0  0
    3.5892   -0.4410    1.2987 C   0  0  0  0  0  0  0  0  0  0  0  0
    2.9837    0.7862    1.3204 C   0  0  0  0  0  0  0  0  0  0  0  0
    1.6858    0.9589    0.9005 C   0  0  0  0  0  0  0  0  0  0  0  0
    5.2040   -0.7609    1.8450 S   0  0  0  0  0  0  0  0  0  0  0  0
    5.5835    0.2691    2.9024 O   0  0  0  0  0  0  0  0  0  0  0  0
    5.1572   -2.1160    2.5393 O   0  0  0  0  0  0  0  0  0  0  0  0
    6.3676   -0.7577    0.6065 N   0  0  0  0  0  0  0  0  0  0  0  0
    7.3856    0.2110    0.4490 C   0  0  0  0  0  0  0  0  0  0  0  0
    8.3053    0.4426   -0.2935 N   0  0  0  0  0  0  0  0  0  0  0  0
    9.1457    1.4438   -0.2381 C   0  0  0  0  0  0  0  0  0  0  0  0
    8.9317    2.3450    0.8246 C   0  0  0  0  0  0  0  0  0  0  0  0
    7.4604    1.6513    1.7140 S   0  0  0  0  0  0  0  0  0  0  0  0
   -3.2072    0.0378    1.2297 H   0  0  0  0  0  0  0  0  0  0  0  0
   -1.3781   -1.0550   -2.9383 H   0  0  0  0  0  0  0  0  0  0  0  0
   -2.2516   -1.1039   -5.2773 H   0  0  0  0  0  0  0  0  0  0  0  0
   -4.5913   -0.4531   -5.6782 H   0  0  0  0  0  0  0  0  0  0  0  0
   -6.0399    0.2241   -3.8847 H   0  0  0  0  0  0  0  0  0  0  0  0
   -4.4731    0.4595    2.7825 H   0  0  0  0  0  0  0  0  0  0  0  0
   -6.3109    1.2142    4.3475 H   0  0  0  0  0  0  0  0  0  0  0  0
   -8.5563    1.9073    3.1678 H   0  0  0  0  0  0  0  0  0  0  0  0
   -0.7450    1.1796    0.1335 H   0  0  0  0  0  0  0  0  0  0  0  0
    1.0189   -2.2048    0.0596 H   0  0  0  0  0  0  0  0  0  0  0  0
    3.2719   -2.5129    0.7896 H   0  0  0  0  0  0  0  0  0  0  0  0
    3.5439    1.6448    1.6767 H   0  0  0  0  0  0  0  0  0  0  0  0
    1.2881    1.9710    0.9545 H   0  0  0  0  0  0  0  0  0  0  0  0
    6.3418   -1.5193   -0.1027 H   0  0  0  0  0  0  0  0  0  0  0  0
    9.9696    1.6301   -0.9259 H   0  0  0  0  0  0  0  0  0  0  0  0
    9.4476    3.2602    1.1346 H   0  0  0  0  0  0  0  0  0  0  0  0
  1  2  2  0
  2  3  1  0
  3  4  2  0
  4  5  1  0
  5  6  2  0
  6  7  1  0
  7  8  2  0
  8  9  1  0
  9 10  2  0
 10 11  1  0
 11 12  2  0
  5 13  1  0
 13 14  2  0
 14 15  1  0
 15 16  2  0
 16 17  1  0
  2 18  1  0
 18 19  1  0
 19 20  2  0
 20 21  1  0
 21 22  2  0
 22 23  1  0
 23 24  2  0
 22 25  1  0
 25 26  2  0
 25 27  2  0
 25 28  1  0
 28 29  1  0
 29 30  2  0
 30 31  1  0
 31 32  2  0
 32 33  1  0
  8  3  1  0
 17 13  1  0
 24 19  1  0
 33 29  1  0
 12  7  1  0
  4 34  1  0
  9 35  1  0
 10 36  1  0
 11 37  1  0
 12 38  1  0
 14 39  1  0
 15 40  1  0
 16 41  1  0
 18 42  1  0
 20 43  1  0
 21 44  1  0
 23 45  1  0
 24 46  1  0
 28 47  1  0
 31 48  1  0
 32 49  1  0
M  END
>  <Ligand ID>  (1) 
LIG0002735

>  <Ligand>  (1) 
ST50920082

>  <SMILES>  (1) 
O=C(c1cc(nc2c1cccc2)c1cccs1)Nc1ccc(cc1)S(=O)(=O)Nc1nccs1

>  <CID>  (1) 
2164452.0

>  <ChEMBL ID>  (1) 
nan

>  <InChiKey>  (1) 
BNKRAYDPUDOBAS-UHFFFAOYSA-N

>  <InChi>  (1) 
InChI=1S/C23H16N4O3S3/c28-22(18-14-20(21-6-3-12-31-21)26-19-5-2-1-4-17(18)19)25-15-7-9-16(10-8-15)33(29,30)27-23-24-11-13-32-23/h1-14H,(H,24,27)(H,25,28)

>  <IUPAC Name>  (1) 
N-[4-(1,3-thiazol-2-ylsulfamoyl)phenyl]-2-thiophen-2-ylquinoline-4-carboxamide

$$$$
