
     RDKit          3D

 58 60  0  0  0  0  0  0  0  0999 V2000
   -2.1170    4.8514   -0.8104 C   0  0  0  0  0  0  0  0  0  0  0  0
   -0.7927    4.2793   -0.3213 C   0  0  0  0  0  0  0  0  0  0  0  0
   -1.0205    2.8793   -0.1057 O   0  0  0  0  0  0  0  0  0  0  0  0
   -0.0049    2.0503    0.3473 C   0  0  0  0  0  0  0  0  0  0  0  0
    1.1142    2.5719    0.5596 O   0  0  0  0  0  0  0  0  0  0  0  0
   -0.2960    0.5942    0.5562 C   0  0  0  0  0  0  0  0  0  0  0  0
   -1.3646    0.3554    1.5382 C   0  0  0  0  0  0  0  0  0  0  0  0
   -2.7117    0.8859    1.3884 C   0  0  0  0  0  0  0  0  0  0  0  0
   -3.6331    0.5097    0.3103 C   0  0  0  0  0  0  0  0  0  0  0  0
   -4.0432   -0.8865    0.2117 C   0  0  0  0  0  0  0  0  0  0  0  0
   -5.1216   -1.2906    1.0186 C   0  0  0  0  0  0  0  0  0  0  0  0
   -5.6007   -2.5825    0.9893 C   0  0  0  0  0  0  0  0  0  0  0  0
   -5.0490   -3.5413    0.1701 C   0  0  0  0  0  0  0  0  0  0  0  0
   -3.9941   -3.1661   -0.6267 C   0  0  0  0  0  0  0  0  0  0  0  0
   -3.5151   -1.8573   -0.5918 C   0  0  0  0  0  0  0  0  0  0  0  0
   -0.3865   -0.1021   -0.7415 C   0  0  0  0  0  0  0  0  0  0  0  0
    0.8346    0.1877   -1.6102 C   0  0  0  0  0  0  0  0  0  0  0  0
    2.0688    0.0831   -0.8977 N   0  0  0  0  0  0  0  0  0  0  0  0
    1.8894   -0.6627    0.3360 C   0  0  0  0  0  0  0  0  0  0  0  0
    1.0022    0.0867    1.2675 C   0  0  0  0  0  0  0  0  0  0  0  0
    3.0081   -0.6553   -1.7351 C   0  0  0  0  0  0  0  0  0  0  0  0
    4.3325   -0.8201   -1.0901 C   0  0  0  0  0  0  0  0  0  0  0  0
    5.3574    0.0912   -1.2406 C   0  0  0  0  0  0  0  0  0  0  0  0
    6.3948   -0.3663   -0.5300 N   0  0  0  0  0  0  0  0  0  0  0  0
    6.0872   -1.5135    0.0615 N   0  0  0  0  0  0  0  0  0  0  0  0
    4.8032   -1.8220   -0.2711 C   0  0  0  0  0  0  0  0  0  0  0  0
    6.9892   -2.2694    0.9031 C   0  0  0  0  0  0  0  0  0  0  0  0
   -2.6458    4.0825   -1.3795 H   0  0  0  0  0  0  0  0  0  0  0  0
   -1.9452    5.7372   -1.4688 H   0  0  0  0  0  0  0  0  0  0  0  0
   -2.6974    5.0823    0.1031 H   0  0  0  0  0  0  0  0  0  0  0  0
   -0.0276    4.4049   -1.1105 H   0  0  0  0  0  0  0  0  0  0  0  0
   -0.4760    4.7940    0.6064 H   0  0  0  0  0  0  0  0  0  0  0  0
   -1.3560   -0.7743    1.7262 H   0  0  0  0  0  0  0  0  0  0  0  0
   -0.9399    0.7174    2.5450 H   0  0  0  0  0  0  0  0  0  0  0  0
   -3.2959    0.6859    2.3639 H   0  0  0  0  0  0  0  0  0  0  0  0
   -2.7268    2.0399    1.4176 H   0  0  0  0  0  0  0  0  0  0  0  0
   -4.6106    1.1020    0.4606 H   0  0  0  0  0  0  0  0  0  0  0  0
   -3.2912    0.8774   -0.6723 H   0  0  0  0  0  0  0  0  0  0  0  0
   -5.6026   -0.5663    1.6939 H   0  0  0  0  0  0  0  0  0  0  0  0
   -6.4464   -2.8181    1.6505 H   0  0  0  0  0  0  0  0  0  0  0  0
   -5.4729   -4.5340    0.1970 H   0  0  0  0  0  0  0  0  0  0  0  0
   -3.5518   -3.9025   -1.2721 H   0  0  0  0  0  0  0  0  0  0  0  0
   -2.6997   -1.6419   -1.2521 H   0  0  0  0  0  0  0  0  0  0  0  0
   -0.4587   -1.2011   -0.5973 H   0  0  0  0  0  0  0  0  0  0  0  0
   -1.2379    0.2236   -1.3525 H   0  0  0  0  0  0  0  0  0  0  0  0
    0.7560    1.1985   -2.0640 H   0  0  0  0  0  0  0  0  0  0  0  0
    0.7600   -0.5374   -2.4544 H   0  0  0  0  0  0  0  0  0  0  0  0
    2.8844   -0.7279    0.8226 H   0  0  0  0  0  0  0  0  0  0  0  0
    1.4972   -1.6741    0.1338 H   0  0  0  0  0  0  0  0  0  0  0  0
    0.7363   -0.6021    2.1025 H   0  0  0  0  0  0  0  0  0  0  0  0
    1.5424    0.9209    1.7427 H   0  0  0  0  0  0  0  0  0  0  0  0
    3.1501   -0.1634   -2.7179 H   0  0  0  0  0  0  0  0  0  0  0  0
    2.5840   -1.6691   -1.9774 H   0  0  0  0  0  0  0  0  0  0  0  0
    5.3862    1.0118   -1.8044 H   0  0  0  0  0  0  0  0  0  0  0  0
    4.2408   -2.6896    0.0413 H   0  0  0  0  0  0  0  0  0  0  0  0
    6.4605   -2.8560    1.6788 H   0  0  0  0  0  0  0  0  0  0  0  0
    7.6083   -1.5256    1.4662 H   0  0  0  0  0  0  0  0  0  0  0  0
    7.6454   -2.8854    0.2855 H   0  0  0  0  0  0  0  0  0  0  0  0
  1  2  1  0
  2  3  1  0
  3  4  1  0
  4  5  2  0
  4  6  1  0
  6  7  1  0
  7  8  1  0
  8  9  1  0
  9 10  1  0
 10 11  2  0
 11 12  1  0
 12 13  2  0
 13 14  1  0
 14 15  2  0
  6 16  1  0
 16 17  1  0
 17 18  1  0
 18 19  1  0
 19 20  1  0
 18 21  1  0
 21 22  1  0
 22 23  1  0
 23 24  2  0
 24 25  1  0
 25 26  1  0
 25 27  1  0
 20  6  1  0
 26 22  2  0
 15 10  1  0
  1 28  1  0
  1 29  1  0
  1 30  1  0
  2 31  1  0
  2 32  1  0
  7 33  1  0
  7 34  1  0
  8 35  1  0
  8 36  1  0
  9 37  1  0
  9 38  1  0
 11 39  1  0
 12 40  1  0
 13 41  1  0
 14 42  1  0
 15 43  1  0
 16 44  1  0
 16 45  1  0
 17 46  1  0
 17 47  1  0
 19 48  1  0
 19 49  1  0
 20 50  1  0
 20 51  1  0
 21 52  1  0
 21 53  1  0
 23 54  1  0
 26 55  1  0
 27 56  1  0
 27 57  1  0
 27 58  1  0
M  END
>  <Ligand ID>  (1) 
LIG0004439

>  <Ligand>  (1) 
MLS000734595

>  <SMILES>  (1) 
CCOC(=O)C1(CCCc2ccccc2)CCN(CC1)Cc1cnn(c1)C

>  <CID>  (1) 
16187284.0

>  <ChEMBL ID>  (1) 
nan

>  <InChiKey>  (1) 
XXKHXAVSFKYRHI-UHFFFAOYSA-N

>  <InChi>  (1) 
InChI=1S/C22H31N3O2/c1-3-27-21(26)22(11-7-10-19-8-5-4-6-9-19)12-14-25(15-13-22)18-20-16-23-24(2)17-20/h4-6,8-9,16-17H,3,7,10-15,18H2,1-2H3

>  <IUPAC Name>  (1) 
ethyl 1-[(1-methylpyrazol-4-yl)methyl]-4-(3-phenylpropyl)piperidine-4-carboxylate

$$$$
