
     RDKit          3D

 40 41  0  0  0  0  0  0  0  0999 V2000
    2.2557    0.0062    0.5828 O   0  0  0  0  0  0  0  0  0  0  0  0
    2.4262    0.0754   -0.6489 C   0  0  0  0  0  0  0  0  0  0  0  0
    3.7355    0.1112   -1.1541 N   0  0  0  0  0  0  0  0  0  0  0  0
    4.9100    0.0738   -0.3510 C   0  0  0  0  0  0  0  0  0  0  0  0
    5.5244    1.2115    0.1379 C   0  0  0  0  0  0  0  0  0  0  0  0
    6.6764    1.0679    0.9193 C   0  0  0  0  0  0  0  0  0  0  0  0
    7.1620   -0.2020    1.1767 C   0  0  0  0  0  0  0  0  0  0  0  0
    6.5287   -1.3307    0.6753 C   0  0  0  0  0  0  0  0  0  0  0  0
    5.4065   -1.1685   -0.0844 N   0  0  0  0  0  0  0  0  0  0  0  0
    8.6070   -0.4616    2.1521 Cl  0  0  0  0  0  0  0  0  0  0  0  0
    1.2906    0.1212   -1.6001 C   0  0  0  0  0  0  0  0  0  0  0  0
    0.0405    0.0763   -0.9239 O   0  0  0  0  0  0  0  0  0  0  0  0
   -0.3140   -1.0013   -0.1110 C   0  0  0  0  0  0  0  0  0  0  0  0
    0.4702   -1.9777    0.0509 O   0  0  0  0  0  0  0  0  0  0  0  0
   -1.6218   -1.0513    0.5982 C   0  0  0  0  0  0  0  0  0  0  0  0
   -2.3972    0.1986    0.2723 C   0  0  0  0  0  0  0  0  0  0  0  0
   -3.7483    0.2483    0.9458 C   0  0  0  0  0  0  0  0  0  0  0  0
   -4.5604   -0.9403    0.4888 C   0  0  0  0  0  0  0  0  0  0  0  0
   -5.8135   -0.3457   -0.1407 C   0  0  0  0  0  0  0  0  0  0  0  0
   -5.2474    0.9019   -0.7933 C   0  0  0  0  0  0  0  0  0  0  0  0
   -4.4538    1.4847    0.3810 C   0  0  0  0  0  0  0  0  0  0  0  0
    3.8757    0.1703   -2.2056 H   0  0  0  0  0  0  0  0  0  0  0  0
    5.1114    2.1833   -0.0874 H   0  0  0  0  0  0  0  0  0  0  0  0
    7.1845    1.9383    1.3195 H   0  0  0  0  0  0  0  0  0  0  0  0
    6.9126   -2.3408    0.8785 H   0  0  0  0  0  0  0  0  0  0  0  0
    1.2674    1.0547   -2.1972 H   0  0  0  0  0  0  0  0  0  0  0  0
    1.3311   -0.7213   -2.3153 H   0  0  0  0  0  0  0  0  0  0  0  0
   -2.1804   -1.9814    0.3868 H   0  0  0  0  0  0  0  0  0  0  0  0
   -1.3481   -1.0415    1.6920 H   0  0  0  0  0  0  0  0  0  0  0  0
   -2.5207    0.2232   -0.8292 H   0  0  0  0  0  0  0  0  0  0  0  0
   -1.7632    1.0588    0.5650 H   0  0  0  0  0  0  0  0  0  0  0  0
   -3.6925    0.2420    2.0313 H   0  0  0  0  0  0  0  0  0  0  0  0
   -4.0289   -1.4863   -0.3232 H   0  0  0  0  0  0  0  0  0  0  0  0
   -4.8043   -1.6277    1.3257 H   0  0  0  0  0  0  0  0  0  0  0  0
   -6.2777   -1.0367   -0.8664 H   0  0  0  0  0  0  0  0  0  0  0  0
   -6.4710   -0.0354    0.6828 H   0  0  0  0  0  0  0  0  0  0  0  0
   -6.0215    1.6019   -1.1479 H   0  0  0  0  0  0  0  0  0  0  0  0
   -4.5246    0.5879   -1.5548 H   0  0  0  0  0  0  0  0  0  0  0  0
   -5.1782    1.8668    1.1491 H   0  0  0  0  0  0  0  0  0  0  0  0
   -3.7490    2.2460    0.0313 H   0  0  0  0  0  0  0  0  0  0  0  0
  1  2  2  0
  2  3  1  0
  3  4  1  0
  4  5  2  0
  5  6  1  0
  6  7  2  0
  7  8  1  0
  8  9  2  0
  7 10  1  0
  2 11  1  0
 11 12  1  0
 12 13  1  0
 13 14  2  0
 13 15  1  0
 15 16  1  0
 16 17  1  0
 17 18  1  0
 18 19  1  0
 19 20  1  0
 20 21  1  0
  9  4  1  0
 21 17  1  0
  3 22  1  0
  5 23  1  0
  6 24  1  0
  8 25  1  0
 11 26  1  0
 11 27  1  0
 15 28  1  0
 15 29  1  0
 16 30  1  0
 16 31  1  0
 17 32  1  0
 18 33  1  0
 18 34  1  0
 19 35  1  0
 19 36  1  0
 20 37  1  0
 20 38  1  0
 21 39  1  0
 21 40  1  0
M  END
>  <Ligand ID>  (1) 
LIG0003027

>  <Ligand>  (1) 
MLS000058422

>  <SMILES>  (1) 
O=C(Nc1ccc(cn1)Cl)COC(=O)CCC1CCCC1

>  <CID>  (1) 
2085057.0

>  <ChEMBL ID>  (1) 
nan

>  <InChiKey>  (1) 
CFPAPTHPFYHAJT-UHFFFAOYSA-N

>  <InChi>  (1) 
InChI=1S/C15H19ClN2O3/c16-12-6-7-13(17-9-12)18-14(19)10-21-15(20)8-5-11-3-1-2-4-11/h6-7,9,11H,1-5,8,10H2,(H,17,18,19)

>  <IUPAC Name>  (1) 
[2-[(5-chloropyridin-2-yl)amino]-2-oxoethyl] 3-cyclopentylpropanoate

$$$$
