
     RDKit          3D

 72 73  0  0  0  0  0  0  0  0999 V2000
  -10.0022   -1.9811   -2.5997 O   0  0  0  0  0  0  0  0  0  0  0  0
   -9.5515   -1.0585   -3.3171 C   0  0  0  0  0  0  0  0  0  0  0  0
   -8.8867    0.0900   -2.8068 N   0  0  0  0  0  0  0  0  0  0  0  0
   -8.6705    0.2965   -1.4054 C   0  0  0  0  0  0  0  0  0  0  0  0
   -7.5300   -0.1624   -0.7720 C   0  0  0  0  0  0  0  0  0  0  0  0
   -7.3357    0.0464    0.5838 C   0  0  0  0  0  0  0  0  0  0  0  0
   -8.3126    0.7239    1.2808 C   0  0  0  0  0  0  0  0  0  0  0  0
   -9.4705    1.2002    0.6829 C   0  0  0  0  0  0  0  0  0  0  0  0
   -9.6355    0.9770   -0.6691 C   0  0  0  0  0  0  0  0  0  0  0  0
  -10.8055    1.4615   -1.2581 O   0  0  0  0  0  0  0  0  0  0  0  0
   -6.0900   -0.4584    1.2589 C   0  0  2  0  0  0  0  0  0  0  0  0
   -5.0062    0.5277    0.9773 C   0  0  0  0  0  0  0  0  0  0  0  0
   -3.7521    0.2898    1.5890 N   0  0  0  0  0  0  0  0  0  0  0  0
   -3.0063   -0.8375    1.1497 C   0  0  0  0  0  0  0  0  0  0  0  0
   -2.5140   -0.6561   -0.2605 C   0  0  0  0  0  0  0  0  0  0  0  0
   -1.6273    0.5316   -0.4271 C   0  0  0  0  0  0  0  0  0  0  0  0
   -0.3869    0.5298    0.3949 C   0  0  0  0  0  0  0  0  0  0  0  0
    0.5422   -0.6263    0.1446 C   0  0  0  0  0  0  0  0  0  0  0  0
    0.9848   -0.6233   -1.2862 C   0  0  0  0  0  0  0  0  0  0  0  0
    1.6387    0.5183   -1.6442 O   0  0  0  0  0  0  0  0  0  0  0  0
    2.7856    0.8137   -0.9430 C   0  0  0  0  0  0  0  0  0  0  0  0
    3.8352   -0.2762   -1.0559 C   0  0  0  0  0  0  0  0  0  0  0  0
    5.0676    0.1497   -0.2502 C   0  0  0  0  0  0  0  0  0  0  0  0
    6.1093   -0.9152   -0.3487 C   0  0  0  0  0  0  0  0  0  0  0  0
    7.3417   -0.5827    0.4031 C   0  0  0  0  0  0  0  0  0  0  0  0
    7.5434   -0.9159    1.7253 C   0  0  0  0  0  0  0  0  0  0  0  0
    8.7263   -0.5752    2.3750 C   0  0  0  0  0  0  0  0  0  0  0  0
    9.6920    0.1112    1.6417 C   0  0  0  0  0  0  0  0  0  0  0  0
    9.5075    0.4501    0.3267 C   0  0  0  0  0  0  0  0  0  0  0  0
    8.3294    0.1042   -0.2998 C   0  0  0  0  0  0  0  0  0  0  0  0
   10.7187    1.3158   -0.6127 S   0  0  0  0  0  0  0  0  0  0  0  0
   11.4880    2.2666    0.2593 O   0  0  0  0  0  0  0  0  0  0  0  0
   10.0133    2.0956   -1.6739 O   0  0  0  0  0  0  0  0  0  0  0  0
   11.7676    0.1720   -1.3812 N   0  0  0  0  0  0  0  0  0  0  0  0
   -5.8068   -1.7490    0.8635 O   0  0  0  0  0  0  0  0  0  0  0  0
   -9.6559   -1.1027   -4.4006 H   0  0  0  0  0  0  0  0  0  0  0  0
   -8.5161    0.8532   -3.4332 H   0  0  0  0  0  0  0  0  0  0  0  0
   -6.7664   -0.6919   -1.3148 H   0  0  0  0  0  0  0  0  0  0  0  0
   -8.1269    0.8700    2.3426 H   0  0  0  0  0  0  0  0  0  0  0  0
  -10.1985    1.7258    1.2905 H   0  0  0  0  0  0  0  0  0  0  0  0
  -10.7682    2.3707   -1.7259 H   0  0  0  0  0  0  0  0  0  0  0  0
   -6.3367   -0.4686    2.3528 H   0  0  0  0  0  0  0  0  0  0  0  0
   -5.3781    1.5140    1.3825 H   0  0  0  0  0  0  0  0  0  0  0  0
   -4.8833    0.5834   -0.1283 H   0  0  0  0  0  0  0  0  0  0  0  0
   -3.6524    0.5590    2.5728 H   0  0  0  0  0  0  0  0  0  0  0  0
   -3.5209   -1.8182    1.2645 H   0  0  0  0  0  0  0  0  0  0  0  0
   -2.0676   -0.9413    1.7744 H   0  0  0  0  0  0  0  0  0  0  0  0
   -1.9899   -1.5624   -0.6374 H   0  0  0  0  0  0  0  0  0  0  0  0
   -3.3901   -0.5239   -0.9244 H   0  0  0  0  0  0  0  0  0  0  0  0
   -2.1774    1.4693   -0.1926 H   0  0  0  0  0  0  0  0  0  0  0  0
   -1.3920    0.6090   -1.5152 H   0  0  0  0  0  0  0  0  0  0  0  0
   -0.6392    0.6217    1.4682 H   0  0  0  0  0  0  0  0  0  0  0  0
    0.1786    1.4489    0.1361 H   0  0  0  0  0  0  0  0  0  0  0  0
    0.0846   -1.5975    0.4443 H   0  0  0  0  0  0  0  0  0  0  0  0
    1.4200   -0.5046    0.8095 H   0  0  0  0  0  0  0  0  0  0  0  0
    1.6447   -1.5038   -1.4643 H   0  0  0  0  0  0  0  0  0  0  0  0
    0.0652   -0.7610   -1.9043 H   0  0  0  0  0  0  0  0  0  0  0  0
    2.5728    0.9956    0.1257 H   0  0  0  0  0  0  0  0  0  0  0  0
    3.1886    1.7715   -1.3561 H   0  0  0  0  0  0  0  0  0  0  0  0
    3.4637   -1.2167   -0.6292 H   0  0  0  0  0  0  0  0  0  0  0  0
    4.1419   -0.4283   -2.1036 H   0  0  0  0  0  0  0  0  0  0  0  0
    4.7372    0.2982    0.7880 H   0  0  0  0  0  0  0  0  0  0  0  0
    5.4590    1.0817   -0.6972 H   0  0  0  0  0  0  0  0  0  0  0  0
    6.3538   -1.1457   -1.3961 H   0  0  0  0  0  0  0  0  0  0  0  0
    5.6882   -1.8468    0.1095 H   0  0  0  0  0  0  0  0  0  0  0  0
    6.7625   -1.4530    2.2645 H   0  0  0  0  0  0  0  0  0  0  0  0
    8.8858   -0.8389    3.4227 H   0  0  0  0  0  0  0  0  0  0  0  0
   10.6260    0.3826    2.1458 H   0  0  0  0  0  0  0  0  0  0  0  0
    8.1856    0.3737   -1.3402 H   0  0  0  0  0  0  0  0  0  0  0  0
   12.0068   -0.6178   -0.7585 H   0  0  0  0  0  0  0  0  0  0  0  0
   12.6287    0.6566   -1.7010 H   0  0  0  0  0  0  0  0  0  0  0  0
   -6.3350   -2.4157    1.3581 H   0  0  0  0  0  0  0  0  0  0  0  0
  1  2  2  0
  2  3  1  0
  3  4  1  0
  4  5  2  0
  5  6  1  0
  6  7  2  0
  7  8  1  0
  8  9  2  0
  9 10  1  0
  6 11  1  0
 11 12  1  0
 12 13  1  0
 13 14  1  0
 14 15  1  0
 15 16  1  0
 16 17  1  0
 17 18  1  0
 18 19  1  0
 19 20  1  0
 20 21  1  0
 21 22  1  0
 22 23  1  0
 23 24  1  0
 24 25  1  0
 25 26  2  0
 26 27  1  0
 27 28  2  0
 28 29  1  0
 29 30  2  0
 29 31  1  0
 31 32  2  0
 31 33  2  0
 31 34  1  0
 11 35  1  0
  9  4  1  0
 30 25  1  0
  2 36  1  0
  3 37  1  0
  5 38  1  0
  7 39  1  0
  8 40  1  0
 10 41  1  0
 11 42  1  1
 12 43  1  0
 12 44  1  0
 13 45  1  0
 14 46  1  0
 14 47  1  0
 15 48  1  0
 15 49  1  0
 16 50  1  0
 16 51  1  0
 17 52  1  0
 17 53  1  0
 18 54  1  0
 18 55  1  0
 19 56  1  0
 19 57  1  0
 21 58  1  0
 21 59  1  0
 22 60  1  0
 22 61  1  0
 23 62  1  0
 23 63  1  0
 24 64  1  0
 24 65  1  0
 26 66  1  0
 27 67  1  0
 28 68  1  0
 30 69  1  0
 34 70  1  0
 34 71  1  0
 35 72  1  0
M  END
>  <Ligand ID>  (1) 
LIG0002526

>  <Ligand>  (1) 
CHEMBL443435

>  <SMILES>  (1) 
O=CNc1cc(ccc1O)[C@H](CNCCCCCCOCCCCc1cccc(c1)S(=O)(=O)N)O

>  <CID>  (1) 
9849126.0

>  <ChEMBL ID>  (1) 
nan

>  <InChiKey>  (1) 
MTLUJYLGPUXELO-VWLOTQADSA-N

>  <InChi>  (1) 
InChI=1S/C25H37N3O6S/c26-35(32,33)22-10-7-9-20(16-22)8-3-6-15-34-14-5-2-1-4-13-27-18-25(31)21-11-12-24(30)23(17-21)28-19-29/h7,9-12,16-17,19,25,27,30-31H,1-6,8,13-15,18H2,(H,28,29)(H2,26,32,33)/t25-/m0/s1

>  <IUPAC Name>  (1) 
N-[2-hydroxy-5-[(1R)-1-hydroxy-2-[6-[4-(3-sulfamoylphenyl)butoxy]hexylamino]ethyl]phenyl]formamide

$$$$
