
     RDKit          3D

 96102  0  0  0  0  0  0  0  0999 V2000
    2.1416    0.8450   -0.9236 O   0  0  0  0  0  0  0  0  0  0  0  0
    1.5317   -0.2756   -0.3607 C   0  0  0  0  0  0  0  0  0  0  0  0
    1.7959   -1.3816   -0.9338 O   0  0  0  0  0  0  0  0  0  0  0  0
    0.6430   -0.2312    0.8068 C   0  0  0  0  0  0  0  0  0  0  0  0
   -0.7567   -0.7114    0.4833 C   0  0  0  0  0  0  0  0  0  0  0  0
   -1.4344    0.2279   -0.4434 C   0  0  0  0  0  0  0  0  0  0  0  0
   -1.9628   -0.1196   -1.5175 O   0  0  0  0  0  0  0  0  0  0  0  0
   -1.4747    1.5609   -0.0825 O   0  0  0  0  0  0  0  0  0  0  0  0
   -0.7542   -2.0172    0.0625 O   0  0  0  0  0  0  0  0  0  0  0  0
    0.5344    1.1088    1.2253 O   0  0  0  0  0  0  0  0  0  0  0  0
    4.2464    3.2664   -0.5353 C   0  0  0  0  0  0  0  0  0  0  0  0
    4.0148    1.9383   -1.0752 N   0  0  0  0  0  0  0  0  0  0  0  0
    2.6339    1.6199   -0.8845 C   0  0  0  0  0  0  0  0  0  0  0  0
    2.2741    0.1803   -0.8626 C   0  0  1  0  0  0  0  0  0  0  0  0
    3.3657   -0.7944   -0.6430 C   0  0  0  0  0  0  0  0  0  0  0  0
    4.7409   -0.3321   -1.0462 C   0  0  0  0  0  0  0  0  0  0  0  0
    4.9232    1.0373   -0.4368 C   0  0  1  0  0  0  0  0  0  0  0  0
    6.3375    1.5570   -0.6546 C   0  0  0  0  0  0  0  0  0  0  0  0
    7.3028    0.6076   -0.0542 C   0  0  0  0  0  0  0  0  0  0  0  0
    8.5689    0.6906    0.5023 C   0  0  0  0  0  0  0  0  0  0  0  0
    8.9274   -0.5705    0.8838 N   0  0  0  0  0  0  0  0  0  0  0  0
    7.9481   -1.4357    0.5929 C   0  0  0  0  0  0  0  0  0  0  0  0
    6.9502   -0.7125    0.0168 C   0  0  0  0  0  0  0  0  0  0  0  0
    5.7548   -1.2283   -0.4324 C   0  0  0  0  0  0  0  0  0  0  0  0
    5.5516   -2.5876   -0.2870 C   0  0  0  0  0  0  0  0  0  0  0  0
    6.5456   -3.3654    0.2969 C   0  0  0  0  0  0  0  0  0  0  0  0
    7.7436   -2.8012    0.7388 C   0  0  0  0  0  0  0  0  0  0  0  0
    1.2663    0.0016    0.2447 C   0  0  0  0  0  0  0  0  0  0  0  0
    1.4932   -0.7658    1.2207 O   0  0  0  0  0  0  0  0  0  0  0  0
    0.0647    0.7497    0.1065 N   0  0  0  0  0  0  0  0  0  0  0  0
   -0.9382    0.6149    1.1433 C   0  0  2  0  0  0  0  0  0  0  0  0
   -0.4576    1.0202    2.4987 C   0  0  0  0  0  0  0  0  0  0  0  0
   -1.3443   -0.7257    1.1414 O   0  0  0  0  0  0  0  0  0  0  0  0
   -2.3859   -0.8257    0.2560 C   0  0  2  0  0  0  0  0  0  0  0  0
   -3.1554    0.3701    0.5331 N   0  0  0  0  0  0  0  0  0  0  0  0
   -2.1750    1.3789    0.8122 C   0  0  0  0  0  0  0  0  0  0  0  0
   -2.3215    2.6117    0.7848 O   0  0  0  0  0  0  0  0  0  0  0  0
   -4.6128    0.4024    0.5022 C   0  0  1  0  0  0  0  0  0  0  0  0
   -5.1472    1.7629    0.2505 C   0  0  0  0  0  0  0  0  0  0  0  0
   -6.6162    1.8835    0.2031 C   0  0  0  0  0  0  0  0  0  0  0  0
   -7.3311    2.0216    1.3975 C   0  0  0  0  0  0  0  0  0  0  0  0
   -8.7034    2.1603    1.3970 C   0  0  0  0  0  0  0  0  0  0  0  0
   -9.4313    2.1696    0.2284 C   0  0  0  0  0  0  0  0  0  0  0  0
   -8.7489    2.0361   -0.9487 C   0  0  0  0  0  0  0  0  0  0  0  0
   -7.3669    1.8967   -0.9480 C   0  0  0  0  0  0  0  0  0  0  0  0
   -5.0531   -0.6668   -0.3998 C   0  0  0  0  0  0  0  0  0  0  0  0
   -5.8559   -0.5687   -1.3475 O   0  0  0  0  0  0  0  0  0  0  0  0
   -4.5019   -1.9776   -0.1720 N   0  0  0  0  0  0  0  0  0  0  0  0
   -3.1952   -2.0808    0.4733 C   0  0  1  0  0  0  0  0  0  0  0  0
   -2.5254   -3.1947   -0.3127 C   0  0  0  0  0  0  0  0  0  0  0  0
   -3.6613   -3.9790   -0.9364 C   0  0  0  0  0  0  0  0  0  0  0  0
   -4.9402   -3.3310   -0.4396 C   0  0  0  0  0  0  0  0  0  0  0  0
   -2.0103   -0.7924   -1.0818 O   0  0  0  0  0  0  0  0  0  0  0  0
    3.0639    0.8304   -1.3208 H   0  0  0  0  0  0  0  0  0  0  0  0
    1.0923   -0.8193    1.6196 H   0  0  0  0  0  0  0  0  0  0  0  0
   -1.3403   -0.6592    1.4444 H   0  0  0  0  0  0  0  0  0  0  0  0
   -2.1883    2.2062   -0.3991 H   0  0  0  0  0  0  0  0  0  0  0  0
   -1.6811   -2.2751   -0.1770 H   0  0  0  0  0  0  0  0  0  0  0  0
    0.7899    1.7109    0.4825 H   0  0  0  0  0  0  0  0  0  0  0  0
    5.1114    3.7780   -0.9903 H   0  0  0  0  0  0  0  0  0  0  0  0
    3.3464    3.9141   -0.6311 H   0  0  0  0  0  0  0  0  0  0  0  0
    4.4151    3.1729    0.5742 H   0  0  0  0  0  0  0  0  0  0  0  0
    2.0834    2.1085   -1.7271 H   0  0  0  0  0  0  0  0  0  0  0  0
    2.2655    2.1781    0.0224 H   0  0  0  0  0  0  0  0  0  0  0  0
    1.7076   -0.1123   -1.7942 H   0  0  0  0  0  0  0  0  0  0  0  0
    3.4289   -1.0595    0.4468 H   0  0  0  0  0  0  0  0  0  0  0  0
    3.1492   -1.7353   -1.1916 H   0  0  0  0  0  0  0  0  0  0  0  0
    4.8746   -0.3235   -2.1476 H   0  0  0  0  0  0  0  0  0  0  0  0
    4.7703    0.9199    0.6552 H   0  0  0  0  0  0  0  0  0  0  0  0
    6.3999    2.4888   -0.0560 H   0  0  0  0  0  0  0  0  0  0  0  0
    6.5813    1.6748   -1.7114 H   0  0  0  0  0  0  0  0  0  0  0  0
    9.1383    1.6052    0.6000 H   0  0  0  0  0  0  0  0  0  0  0  0
    9.8327   -0.8364    1.3384 H   0  0  0  0  0  0  0  0  0  0  0  0
    4.6363   -3.0122   -0.6258 H   0  0  0  0  0  0  0  0  0  0  0  0
    6.3527   -4.4187    0.3936 H   0  0  0  0  0  0  0  0  0  0  0  0
    8.5105   -3.3995    1.1888 H   0  0  0  0  0  0  0  0  0  0  0  0
   -0.1366    1.3808   -0.6840 H   0  0  0  0  0  0  0  0  0  0  0  0
    0.6618    1.1261    2.5258 H   0  0  0  0  0  0  0  0  0  0  0  0
   -0.7901    0.2454    3.2255 H   0  0  0  0  0  0  0  0  0  0  0  0
   -0.9348    1.9665    2.7847 H   0  0  0  0  0  0  0  0  0  0  0  0
   -5.0074    0.0975    1.5266 H   0  0  0  0  0  0  0  0  0  0  0  0
   -4.8207    2.4439    1.0940 H   0  0  0  0  0  0  0  0  0  0  0  0
   -4.6828    2.2381   -0.6669 H   0  0  0  0  0  0  0  0  0  0  0  0
   -6.7926    2.0194    2.3444 H   0  0  0  0  0  0  0  0  0  0  0  0
   -9.2124    2.2639    2.3415 H   0  0  0  0  0  0  0  0  0  0  0  0
  -10.5059    2.2755    0.1831 H   0  0  0  0  0  0  0  0  0  0  0  0
   -9.2997    2.0398   -1.9005 H   0  0  0  0  0  0  0  0  0  0  0  0
   -6.9047    1.8127   -1.9193 H   0  0  0  0  0  0  0  0  0  0  0  0
   -3.2828   -2.3774    1.5170 H   0  0  0  0  0  0  0  0  0  0  0  0
   -1.8816   -3.8070    0.3429 H   0  0  0  0  0  0  0  0  0  0  0  0
   -1.8926   -2.8255   -1.1378 H   0  0  0  0  0  0  0  0  0  0  0  0
   -3.5569   -5.0250   -0.6282 H   0  0  0  0  0  0  0  0  0  0  0  0
   -3.6611   -3.9263   -2.0454 H   0  0  0  0  0  0  0  0  0  0  0  0
   -5.7612   -3.3754   -1.1789 H   0  0  0  0  0  0  0  0  0  0  0  0
   -5.2603   -3.7898    0.5414 H   0  0  0  0  0  0  0  0  0  0  0  0
   -1.0567   -0.9677   -1.2283 H   0  0  0  0  0  0  0  0  0  0  0  0
  1  2  1  0
  2  3  2  0
  2  4  1  0
  4  5  1  0
  5  6  1  0
  6  7  2  0
  6  8  1  0
  5  9  1  0
  4 10  1  0
 11 12  1  0
 12 13  1  0
 13 14  1  0
 14 15  1  0
 15 16  1  0
 16 17  1  0
 17 18  1  0
 18 19  1  0
 19 20  2  0
 20 21  1  0
 21 22  1  0
 22 23  2  0
 23 24  1  0
 24 25  2  0
 25 26  1  0
 26 27  2  0
 14 28  1  0
 28 29  2  0
 28 30  1  0
 31 30  1  6
 31 32  1  0
 31 33  1  0
 33 34  1  0
 34 35  1  0
 35 36  1  0
 36 37  2  0
 35 38  1  0
 38 39  1  0
 39 40  1  0
 40 41  2  0
 41 42  1  0
 42 43  2  0
 43 44  1  0
 44 45  2  0
 38 46  1  0
 46 47  2  0
 46 48  1  0
 48 49  1  0
 49 50  1  0
 50 51  1  0
 51 52  1  0
 34 53  1  6
 17 12  1  0
 23 19  1  0
 36 31  1  0
 45 40  1  0
 52 48  1  0
 24 16  1  0
 49 34  1  0
 27 22  1  0
  1 54  1  0
  4 55  1  0
  5 56  1  0
  8 57  1  0
  9 58  1  0
 10 59  1  0
 11 60  1  0
 11 61  1  0
 11 62  1  0
 13 63  1  0
 13 64  1  0
 14 65  1  6
 15 66  1  0
 15 67  1  0
 16 68  1  0
 17 69  1  1
 18 70  1  0
 18 71  1  0
 20 72  1  0
 21 73  1  0
 25 74  1  0
 26 75  1  0
 27 76  1  0
 30 77  1  0
 32 78  1  0
 32 79  1  0
 32 80  1  0
 38 81  1  1
 39 82  1  0
 39 83  1  0
 41 84  1  0
 42 85  1  0
 43 86  1  0
 44 87  1  0
 45 88  1  0
 49 89  1  1
 50 90  1  0
 50 91  1  0
 51 92  1  0
 51 93  1  0
 52 94  1  0
 52 95  1  0
 53 96  1  0
M  END
>  <Ligand ID>  (1) 
LIG0005137

>  <Ligand>  (1) 
Prestwick3_000150

>  <SMILES>  (1) 
OC(=O)C(C(C(=O)O)O)O.CN1C[C@@H](CC2[C@H]1Cc1c[nH]c3c1c2ccc3)C(=O)N[C@]1(C)O[C@@]2(N(C1=O)[C@@H](Cc1ccccc1)C(=O)N1[C@H]2CCC1)O

>  <CID>  (1) 
23930391.0

>  <ChEMBL ID>  (1) 
nan

>  <InChiKey>  (1) 
QCBGTQHGJQLHSY-WVVAGBSPSA-N

>  <InChi>  (1) 
InChI=1S/C33H37N5O5.C4H6O6/c1-32(35-29(39)21-15-23-22-10-6-11-24-28(22)20(17-34-24)16-25(23)36(2)18-21)31(41)38-26(14-19-8-4-3-5-9-19)30(40)37-13-7-12-27(37)33(38,42)43-32;5-1(3(7)8)2(6)4(9)10/h3-6,8-11,17,21,23,25-27,34,42H,7,12-16,18H2,1-2H3,(H,35,39);1-2,5-6H,(H,7,8)(H,9,10)/t21-,23?,25-,26+,27+,32-,33+;/m1./s1

>  <IUPAC Name>  (1) 
(6aR,9R)-N-[(1S,2S,4R,7S)-7-benzyl-2-hydroxy-4-methyl-5,8-dioxo-3-oxa-6,9-diazatricyclo[7.3.0.02,6]dodecan-4-yl]-7-methyl-6,6a,8,9,10,10a-hexahydro-4H-indolo[4,3-fg]quinoline-9-carboxamide;2,3-dihydroxybutanedioic acid

$$$$
