
     RDKit          3D

 49 51  0  0  0  0  0  0  0  0999 V2000
    1.9078   -0.0952    2.1851 O   0  0  0  0  0  0  0  0  0  0  0  0
    1.1143    0.2669    1.2222 C   0  0  0  0  0  0  0  0  0  0  0  0
   -0.2850    0.0766    1.4018 C   0  0  0  0  0  0  0  0  0  0  0  0
   -1.1988    0.4293    0.3571 N   0  0  0  0  0  0  0  0  0  0  0  0
   -1.9966    1.5801    0.2606 C   0  0  0  0  0  0  0  0  0  0  0  0
   -1.5804    2.7409   -0.4004 C   0  0  0  0  0  0  0  0  0  0  0  0
   -2.4212    3.8276   -0.4906 C   0  0  0  0  0  0  0  0  0  0  0  0
   -3.6855    3.7618    0.0749 C   0  0  0  0  0  0  0  0  0  0  0  0
   -4.1278    2.6298    0.7312 C   0  0  0  0  0  0  0  0  0  0  0  0
   -3.2657    1.5372    0.8193 C   0  0  0  0  0  0  0  0  0  0  0  0
   -3.7622    0.3400    1.5457 C   0  0  0  0  0  0  0  0  0  0  0  0
   -1.3781   -0.6131   -0.6325 C   0  0  0  0  0  0  0  0  0  0  0  0
   -0.4317   -0.8129   -1.4666 O   0  0  0  0  0  0  0  0  0  0  0  0
   -2.5404   -1.4546   -0.7610 C   0  0  0  0  0  0  0  0  0  0  0  0
   -3.5316   -1.3332   -1.6946 C   0  0  0  0  0  0  0  0  0  0  0  0
   -4.5847   -2.1950   -1.8003 C   0  0  0  0  0  0  0  0  0  0  0  0
   -4.6632   -3.2565   -0.9184 C   0  0  0  0  0  0  0  0  0  0  0  0
   -3.6786   -3.4229    0.0491 C   0  0  0  0  0  0  0  0  0  0  0  0
   -2.6139   -2.5198    0.1277 C   0  0  0  0  0  0  0  0  0  0  0  0
    1.8206    0.8015    0.0964 N   0  0  0  0  0  0  0  0  0  0  0  0
    3.1289    0.7954    0.1233 N   0  0  0  0  0  0  0  0  0  0  0  0
    4.2430    1.1865    0.2713 C   0  0  0  0  0  0  0  0  0  0  0  0
    5.3896    0.2671    0.0101 C   0  0  0  0  0  0  0  0  0  0  0  0
    6.6926    0.6720    0.1909 C   0  0  0  0  0  0  0  0  0  0  0  0
    7.7100   -0.2278   -0.0610 C   0  0  0  0  0  0  0  0  0  0  0  0
    7.4755   -1.5280   -0.4875 C   0  0  0  0  0  0  0  0  0  0  0  0
    6.1624   -1.9303   -0.6666 C   0  0  0  0  0  0  0  0  0  0  0  0
    5.1843   -1.0350   -0.4157 C   0  0  0  0  0  0  0  0  0  0  0  0
    8.4675   -2.4126   -0.7371 F   0  0  0  0  0  0  0  0  0  0  0  0
   -0.6195    0.6224    2.3535 H   0  0  0  0  0  0  0  0  0  0  0  0
   -0.4964   -0.9936    1.7157 H   0  0  0  0  0  0  0  0  0  0  0  0
   -0.6055    2.7583   -0.8130 H   0  0  0  0  0  0  0  0  0  0  0  0
   -2.1318    4.7617   -0.9953 H   0  0  0  0  0  0  0  0  0  0  0  0
   -4.3225    4.6519   -0.0242 H   0  0  0  0  0  0  0  0  0  0  0  0
   -5.1082    2.5768    1.1720 H   0  0  0  0  0  0  0  0  0  0  0  0
   -4.4800   -0.2392    0.9626 H   0  0  0  0  0  0  0  0  0  0  0  0
   -4.3254    0.7598    2.4307 H   0  0  0  0  0  0  0  0  0  0  0  0
   -2.9681   -0.2878    1.9339 H   0  0  0  0  0  0  0  0  0  0  0  0
   -3.4686   -0.5048   -2.3776 H   0  0  0  0  0  0  0  0  0  0  0  0
   -5.3325   -2.0571   -2.5558 H   0  0  0  0  0  0  0  0  0  0  0  0
   -5.4629   -3.9657   -0.9589 H   0  0  0  0  0  0  0  0  0  0  0  0
   -3.7023   -4.2529    0.7623 H   0  0  0  0  0  0  0  0  0  0  0  0
   -1.8978   -2.7169    0.8970 H   0  0  0  0  0  0  0  0  0  0  0  0
    1.2472    1.1673   -0.6865 H   0  0  0  0  0  0  0  0  0  0  0  0
    4.4155    2.2153    0.5856 H   0  0  0  0  0  0  0  0  0  0  0  0
    6.8704    1.6741    0.5117 H   0  0  0  0  0  0  0  0  0  0  0  0
    8.7597    0.0522    0.0641 H   0  0  0  0  0  0  0  0  0  0  0  0
    5.9426   -2.9546   -1.0056 H   0  0  0  0  0  0  0  0  0  0  0  0
    4.1351   -1.3429   -0.5509 H   0  0  0  0  0  0  0  0  0  0  0  0
  1  2  2  0
  2  3  1  0
  3  4  1  0
  4  5  1  0
  5  6  2  0
  6  7  1  0
  7  8  2  0
  8  9  1  0
  9 10  2  0
 10 11  1  0
  4 12  1  0
 12 13  2  0
 12 14  1  0
 14 15  2  0
 15 16  1  0
 16 17  2  0
 17 18  1  0
 18 19  2  0
  2 20  1  0
 20 21  1  0
 21 22  2  0
 22 23  1  0
 23 24  2  0
 24 25  1  0
 25 26  2  0
 26 27  1  0
 27 28  2  0
 26 29  1  0
 10  5  1  0
 19 14  1  0
 28 23  1  0
  3 30  1  0
  3 31  1  0
  6 32  1  0
  7 33  1  0
  8 34  1  0
  9 35  1  0
 11 36  1  0
 11 37  1  0
 11 38  1  0
 15 39  1  0
 16 40  1  0
 17 41  1  0
 18 42  1  0
 19 43  1  0
 20 44  1  0
 22 45  1  0
 24 46  1  0
 25 47  1  0
 27 48  1  0
 28 49  1  0
M  END
>  <Ligand ID>  (1) 
LIG0003869

>  <Ligand>  (1) 
MLS000324900

>  <SMILES>  (1) 
O=C(CN(c1ccccc1C)C(=O)c1ccccc1)N/N=C/c1ccc(cc1)F

>  <CID>  (1) 
9725796.0

>  <ChEMBL ID>  (1) 
nan

>  <InChiKey>  (1) 
UMASIUIWFJENCU-MFKUBSTISA-N

>  <InChi>  (1) 
InChI=1S/C23H20FN3O2/c1-17-7-5-6-10-21(17)27(23(29)19-8-3-2-4-9-19)16-22(28)26-25-15-18-11-13-20(24)14-12-18/h2-15H,16H2,1H3,(H,26,28)/b25-15+

>  <IUPAC Name>  (1) 
N-[2-[(2E)-2-[(4-fluorophenyl)methylidene]hydrazinyl]-2-oxoethyl]-N-(2-methylphenyl)benzamide

$$$$
