
     RDKit          3D

 67 71  0  0  0  0  0  0  0  0999 V2000
   -4.5945    5.9020    0.5551 N   0  0  0  0  0  0  0  0  0  0  0  0
   -3.3312    5.2644    0.7813 C   0  0  0  0  0  0  0  0  0  0  0  0
   -2.3763    6.0007    1.1074 O   0  0  0  0  0  0  0  0  0  0  0  0
   -3.2365    3.7924    0.6164 C   0  0  0  0  0  0  0  0  0  0  0  0
   -1.8467    3.3429    0.8867 C   0  0  0  0  0  0  0  0  0  0  0  0
   -1.0170    4.2195    1.2168 O   0  0  0  0  0  0  0  0  0  0  0  0
   -1.4556    1.9780    0.7792 N   0  0  0  0  0  0  0  0  0  0  0  0
   -2.4796    1.0218    0.3920 C   0  0  0  0  0  0  0  0  0  0  0  0
   -1.9431   -0.3521    0.3051 C   0  0  0  0  0  0  0  0  0  0  0  0
   -2.5602   -1.4622    0.5985 C   0  0  0  0  0  0  0  0  0  0  0  0
   -3.9242   -1.5870    1.0850 C   0  0  0  0  0  0  0  0  0  0  0  0
   -4.7621   -2.4793    0.4145 C   0  0  0  0  0  0  0  0  0  0  0  0
   -6.0669   -2.6992    0.8135 C   0  0  0  0  0  0  0  0  0  0  0  0
   -6.5483   -2.0156    1.9044 C   0  0  0  0  0  0  0  0  0  0  0  0
   -5.7387   -1.1179    2.5969 C   0  0  0  0  0  0  0  0  0  0  0  0
   -4.4338   -0.9216    2.1696 C   0  0  0  0  0  0  0  0  0  0  0  0
   -7.8295   -2.1886    2.3491 F   0  0  0  0  0  0  0  0  0  0  0  0
   -0.5386   -0.4649   -0.1633 C   0  0  0  0  0  0  0  0  0  0  0  0
    0.3995    0.5167    0.1958 C   0  0  0  0  0  0  0  0  0  0  0  0
   -0.0949    1.6095    1.0439 C   0  0  0  0  0  0  0  0  0  0  0  0
    1.5876    0.1312   -0.3900 C   0  0  0  0  0  0  0  0  0  0  0  0
    1.3495   -1.0087   -1.0498 N   0  0  0  0  0  0  0  0  0  0  0  0
    0.0903   -1.3970   -0.9376 N   0  0  0  0  0  0  0  0  0  0  0  0
   -0.5403   -2.5504   -1.4910 C   0  0  0  0  0  0  0  0  0  0  0  0
   -1.5969   -2.2958   -2.3723 C   0  0  0  0  0  0  0  0  0  0  0  0
   -2.2895   -3.3192   -2.9796 C   0  0  0  0  0  0  0  0  0  0  0  0
   -1.8995   -4.6137   -2.6844 C   0  0  0  0  0  0  0  0  0  0  0  0
   -0.8510   -4.8757   -1.8100 C   0  0  0  0  0  0  0  0  0  0  0  0
   -0.1480   -3.8392   -1.1934 C   0  0  0  0  0  0  0  0  0  0  0  0
    1.1697   -4.1156   -0.0943 Cl  0  0  0  0  0  0  0  0  0  0  0  0
   -2.7780   -5.9128   -3.4551 Cl  0  0  0  0  0  0  0  0  0  0  0  0
    2.8162    0.8999   -0.2502 C   0  0  0  0  0  0  0  0  0  0  0  0
    2.7750    1.9543    0.4550 O   0  0  0  0  0  0  0  0  0  0  0  0
    4.0471    0.5617   -0.8391 N   0  0  0  0  0  0  0  0  0  0  0  0
    5.2133    1.4044   -0.6332 C   0  0  1  0  0  0  0  0  0  0  0  0
    6.2699    0.5857   -0.0083 C   0  0  0  0  0  0  0  0  0  0  0  0
    6.5733   -0.6948   -0.4419 C   0  0  0  0  0  0  0  0  0  0  0  0
    7.5743   -1.4499    0.1551 C   0  0  0  0  0  0  0  0  0  0  0  0
    8.2771   -0.8938    1.2089 C   0  0  0  0  0  0  0  0  0  0  0  0
    7.9341    0.3720    1.5928 C   0  0  0  0  0  0  0  0  0  0  0  0
    6.9722    1.1121    1.0273 N   0  0  0  0  0  0  0  0  0  0  0  0
    5.7139    1.9924   -1.9382 C   0  0  0  0  0  0  0  0  0  0  0  0
   -4.8625    6.8049    1.0056 H   0  0  0  0  0  0  0  0  0  0  0  0
   -5.2736    5.4364   -0.0913 H   0  0  0  0  0  0  0  0  0  0  0  0
   -3.4938    3.5355   -0.4172 H   0  0  0  0  0  0  0  0  0  0  0  0
   -3.9595    3.2915    1.3201 H   0  0  0  0  0  0  0  0  0  0  0  0
   -2.7268    1.2821   -0.6959 H   0  0  0  0  0  0  0  0  0  0  0  0
   -3.3607    1.1529    1.0039 H   0  0  0  0  0  0  0  0  0  0  0  0
   -2.0340   -2.4191    0.4799 H   0  0  0  0  0  0  0  0  0  0  0  0
   -4.4141   -3.0402   -0.4568 H   0  0  0  0  0  0  0  0  0  0  0  0
   -6.7209   -3.3902    0.2980 H   0  0  0  0  0  0  0  0  0  0  0  0
   -6.1600   -0.6056    3.4457 H   0  0  0  0  0  0  0  0  0  0  0  0
   -3.8246   -0.2388    2.7382 H   0  0  0  0  0  0  0  0  0  0  0  0
    0.5553    2.4952    0.9308 H   0  0  0  0  0  0  0  0  0  0  0  0
   -0.0287    1.3097    2.1317 H   0  0  0  0  0  0  0  0  0  0  0  0
   -1.8934   -1.2668   -2.5953 H   0  0  0  0  0  0  0  0  0  0  0  0
   -3.0904   -3.0656   -3.6456 H   0  0  0  0  0  0  0  0  0  0  0  0
   -0.5695   -5.9104   -1.6002 H   0  0  0  0  0  0  0  0  0  0  0  0
    4.1082   -0.2887   -1.4154 H   0  0  0  0  0  0  0  0  0  0  0  0
    4.9573    2.2634    0.0346 H   0  0  0  0  0  0  0  0  0  0  0  0
    6.0106   -1.1224   -1.2755 H   0  0  0  0  0  0  0  0  0  0  0  0
    7.8392   -2.4418   -0.1495 H   0  0  0  0  0  0  0  0  0  0  0  0
    9.0654   -1.4020    1.7300 H   0  0  0  0  0  0  0  0  0  0  0  0
    8.4730    0.8301    2.4180 H   0  0  0  0  0  0  0  0  0  0  0  0
    5.1783    2.9465   -2.1134 H   0  0  0  0  0  0  0  0  0  0  0  0
    5.5468    1.2699   -2.7524 H   0  0  0  0  0  0  0  0  0  0  0  0
    6.7964    2.1669   -1.8468 H   0  0  0  0  0  0  0  0  0  0  0  0
  1  2  1  0
  2  3  2  0
  2  4  1  0
  4  5  1  0
  5  6  2  0
  5  7  1  0
  7  8  1  0
  8  9  1  0
  9 10  2  0
 10 11  1  0
 11 12  2  0
 12 13  1  0
 13 14  2  0
 14 15  1  0
 15 16  2  0
 14 17  1  0
  9 18  1  0
 18 19  2  0
 19 20  1  0
 19 21  1  0
 21 22  2  0
 22 23  1  0
 23 24  1  0
 24 25  2  0
 25 26  1  0
 26 27  2  0
 27 28  1  0
 28 29  2  0
 29 30  1  0
 27 31  1  0
 21 32  1  0
 32 33  2  0
 32 34  1  0
 34 35  1  0
 35 36  1  0
 36 37  2  0
 37 38  1  0
 38 39  2  0
 39 40  1  0
 40 41  2  0
 35 42  1  0
 20  7  1  0
 29 24  1  0
 41 36  1  0
 16 11  1  0
 23 18  1  0
  1 43  1  0
  1 44  1  0
  4 45  1  0
  4 46  1  0
  8 47  1  0
  8 48  1  0
 10 49  1  0
 12 50  1  0
 13 51  1  0
 15 52  1  0
 16 53  1  0
 20 54  1  0
 20 55  1  0
 25 56  1  0
 26 57  1  0
 28 58  1  0
 34 59  1  0
 35 60  1  1
 37 61  1  0
 38 62  1  0
 39 63  1  0
 40 64  1  0
 42 65  1  0
 42 66  1  0
 42 67  1  0
M  END
>  <Ligand ID>  (1) 
LIG0005435

>  <Ligand>  (1) 
CHEMBL3905508

>  <SMILES>  (1) 
NC(=O)CC(=O)N1C/C(=C\c2ccc(cc2)F)/c2c(C1)c(nn2c1ccc(cc1Cl)Cl)C(=O)N[C@@H](c1ccccn1)C

>  <CID>  (1) 
134136117.0

>  <ChEMBL ID>  (1) 
nan

>  <InChiKey>  (1) 
UVZIHKAXDURETI-MIQLPHMESA-N

>  <InChi>  (1) 
InChI=1S/C30H25Cl2FN6O3/c1-17(24-4-2-3-11-35-24)36-30(42)28-22-16-38(27(41)14-26(34)40)15-19(12-18-5-8-21(33)9-6-18)29(22)39(37-28)25-10-7-20(31)13-23(25)32/h2-13,17H,14-16H2,1H3,(H2,34,40)(H,36,42)/b19-12+/t17-/m1/s1

>  <IUPAC Name>  (1) 
(7E)-5-(3-amino-3-oxopropanoyl)-1-(2,4-dichlorophenyl)-7-[(4-fluorophenyl)methylidene]-N-[(1R)-1-pyridin-2-ylethyl]-4,6-dihydropyrazolo[4,3-c]pyridine-3-carboxamide

$$$$
