
     RDKit          3D

 84 87  0  0  0  0  0  0  0  0999 V2000
   -6.7401   -5.2660    0.2293 N   0  0  0  0  0  0  0  0  0  0  0  0
   -5.3223   -5.3423    0.1488 C   0  0  0  0  0  0  0  0  0  0  0  0
   -4.7933   -6.3956   -0.3031 O   0  0  0  0  0  0  0  0  0  0  0  0
   -4.5313   -4.1709    0.6047 C   0  0  0  0  0  0  0  0  0  0  0  0
   -3.0461   -4.4032    0.4648 C   0  0  1  0  0  0  0  0  0  0  0  0
   -2.3657   -3.1728    0.9478 C   0  0  0  0  0  0  0  0  0  0  0  0
   -1.5606   -3.3368    1.9249 O   0  0  0  0  0  0  0  0  0  0  0  0
   -2.5748   -1.8945    0.3832 N   0  0  0  0  0  0  0  0  0  0  0  0
   -1.8343   -0.7878    0.9672 C   0  0  1  0  0  0  0  0  0  0  0  0
   -0.8792   -0.1512    0.0760 C   0  0  0  0  0  0  0  0  0  0  0  0
   -0.9220   -0.4644   -1.1623 O   0  0  0  0  0  0  0  0  0  0  0  0
    0.1142    0.7871    0.4403 N   0  0  0  0  0  0  0  0  0  0  0  0
    1.0833    1.3974   -0.4918 C   0  0  0  0  0  0  0  0  0  0  0  0
    2.3800    1.2400    0.3081 C   0  0  1  0  0  0  0  0  0  0  0  0
    1.9716    0.8879    1.7298 C   0  0  0  0  0  0  0  0  0  0  0  0
    0.4898    1.3466    1.7179 C   0  0  1  0  0  0  0  0  0  0  0  0
    0.5456    2.8222    1.8155 C   0  0  0  0  0  0  0  0  0  0  0  0
   -0.7009    3.5844    1.5445 C   0  0  0  0  0  0  0  0  0  0  0  0
   -0.3684    5.0736    1.7386 C   0  0  0  0  0  0  0  0  0  0  0  0
   -1.5131    5.8949    1.5016 N   0  0  0  0  0  0  0  0  0  0  0  0
   -1.6410    6.5586    0.3880 C   0  0  0  0  0  0  0  0  0  0  0  0
   -0.5693    6.3978   -0.5456 N   0  0  0  0  0  0  0  0  0  0  0  0
   -2.7700    7.3822    0.1314 N   0  0  0  0  0  0  0  0  0  0  0  0
    3.1720    0.2457   -0.2492 O   0  0  0  0  0  0  0  0  0  0  0  0
    4.3759    0.7343   -0.7266 C   0  0  0  0  0  0  0  0  0  0  0  0
    5.2140   -0.3706   -1.3061 C   0  0  0  0  0  0  0  0  0  0  0  0
    5.1305   -0.7476   -2.6269 C   0  0  0  0  0  0  0  0  0  0  0  0
    5.9553   -1.7782   -3.0324 C   0  0  0  0  0  0  0  0  0  0  0  0
    6.8325   -2.4287   -2.2022 C   0  0  0  0  0  0  0  0  0  0  0  0
    6.8867   -2.0217   -0.8873 C   0  0  0  0  0  0  0  0  0  0  0  0
    6.0831   -0.9871   -0.4062 C   0  0  0  0  0  0  0  0  0  0  0  0
    7.7416   -2.6257    0.0057 C   0  0  0  0  0  0  0  0  0  0  0  0
    8.5604   -3.6622   -0.4333 C   0  0  0  0  0  0  0  0  0  0  0  0
    8.5217   -4.0841   -1.7425 C   0  0  0  0  0  0  0  0  0  0  0  0
    7.6517   -3.4606   -2.6273 C   0  0  0  0  0  0  0  0  0  0  0  0
   -2.8793    0.1453    1.5415 C   0  0  0  0  0  0  0  0  0  0  0  0
   -3.8407    0.6237    0.5240 C   0  0  0  0  0  0  0  0  0  0  0  0
   -3.7135    1.7383   -0.2424 C   0  0  0  0  0  0  0  0  0  0  0  0
   -4.6709    2.1182   -1.1793 C   0  0  0  0  0  0  0  0  0  0  0  0
   -5.8050    1.3592   -1.3644 C   0  0  0  0  0  0  0  0  0  0  0  0
   -5.9501    0.2263   -0.5956 C   0  0  0  0  0  0  0  0  0  0  0  0
   -4.9963   -0.1429    0.3305 C   0  0  0  0  0  0  0  0  0  0  0  0
   -2.6021   -5.5612    1.2090 N   0  0  0  0  0  0  0  0  0  0  0  0
   -7.2304   -4.4431    0.6396 H   0  0  0  0  0  0  0  0  0  0  0  0
   -7.3570   -6.0425   -0.1238 H   0  0  0  0  0  0  0  0  0  0  0  0
   -4.8191   -3.9977    1.6606 H   0  0  0  0  0  0  0  0  0  0  0  0
   -4.7831   -3.2503    0.0445 H   0  0  0  0  0  0  0  0  0  0  0  0
   -2.7898   -4.5626   -0.5981 H   0  0  0  0  0  0  0  0  0  0  0  0
   -3.2309   -1.7630   -0.4122 H   0  0  0  0  0  0  0  0  0  0  0  0
   -1.2363   -1.1489    1.8579 H   0  0  0  0  0  0  0  0  0  0  0  0
    0.8495    2.4218   -0.7546 H   0  0  0  0  0  0  0  0  0  0  0  0
    1.2010    0.8219   -1.4088 H   0  0  0  0  0  0  0  0  0  0  0  0
    2.9225    2.1935    0.2357 H   0  0  0  0  0  0  0  0  0  0  0  0
    2.5064    1.5304    2.4261 H   0  0  0  0  0  0  0  0  0  0  0  0
    1.9819   -0.1812    1.9478 H   0  0  0  0  0  0  0  0  0  0  0  0
   -0.0419    0.8998    2.5808 H   0  0  0  0  0  0  0  0  0  0  0  0
    1.4067    3.2245    1.2332 H   0  0  0  0  0  0  0  0  0  0  0  0
    0.8334    3.0520    2.8864 H   0  0  0  0  0  0  0  0  0  0  0  0
   -1.5847    3.2720    2.0876 H   0  0  0  0  0  0  0  0  0  0  0  0
   -0.8972    3.4979    0.4356 H   0  0  0  0  0  0  0  0  0  0  0  0
    0.4209    5.3411    1.0059 H   0  0  0  0  0  0  0  0  0  0  0  0
    0.0994    5.2483    2.7421 H   0  0  0  0  0  0  0  0  0  0  0  0
    0.2348    7.0571   -0.6046 H   0  0  0  0  0  0  0  0  0  0  0  0
   -0.6592    5.5510   -1.1753 H   0  0  0  0  0  0  0  0  0  0  0  0
   -2.6734    8.3899    0.4385 H   0  0  0  0  0  0  0  0  0  0  0  0
   -3.6484    7.0245   -0.3323 H   0  0  0  0  0  0  0  0  0  0  0  0
    4.9033    1.2112    0.1209 H   0  0  0  0  0  0  0  0  0  0  0  0
    4.2074    1.4613   -1.5678 H   0  0  0  0  0  0  0  0  0  0  0  0
    4.4449   -0.2444   -3.2896 H   0  0  0  0  0  0  0  0  0  0  0  0
    5.9229   -2.1073   -4.0647 H   0  0  0  0  0  0  0  0  0  0  0  0
    6.1381   -0.6765    0.6397 H   0  0  0  0  0  0  0  0  0  0  0  0
    7.7681   -2.2900    1.0361 H   0  0  0  0  0  0  0  0  0  0  0  0
    9.2379   -4.1569    0.2251 H   0  0  0  0  0  0  0  0  0  0  0  0
    9.1606   -4.8849   -2.0616 H   0  0  0  0  0  0  0  0  0  0  0  0
    7.5933   -3.7566   -3.6461 H   0  0  0  0  0  0  0  0  0  0  0  0
   -3.4631   -0.3343    2.3493 H   0  0  0  0  0  0  0  0  0  0  0  0
   -2.3735    1.0153    2.0476 H   0  0  0  0  0  0  0  0  0  0  0  0
   -2.8442    2.3492   -0.1226 H   0  0  0  0  0  0  0  0  0  0  0  0
   -4.4970    3.0199   -1.7504 H   0  0  0  0  0  0  0  0  0  0  0  0
   -6.5272    1.6841   -2.1001 H   0  0  0  0  0  0  0  0  0  0  0  0
   -6.8325   -0.3986   -0.7135 H   0  0  0  0  0  0  0  0  0  0  0  0
   -5.1399   -1.0399    0.9205 H   0  0  0  0  0  0  0  0  0  0  0  0
   -3.3659   -6.1568    1.5384 H   0  0  0  0  0  0  0  0  0  0  0  0
   -1.9578   -6.1386    0.6273 H   0  0  0  0  0  0  0  0  0  0  0  0
  1  2  1  0
  2  3  2  0
  2  4  1  0
  4  5  1  0
  5  6  1  0
  6  7  2  0
  6  8  1  0
  8  9  1  0
  9 10  1  0
 10 11  2  0
 10 12  1  0
 12 13  1  0
 13 14  1  0
 14 15  1  0
 15 16  1  0
 16 17  1  0
 17 18  1  0
 18 19  1  0
 19 20  1  0
 20 21  2  3
 21 22  1  0
 21 23  1  0
 14 24  1  0
 24 25  1  0
 25 26  1  0
 26 27  2  0
 27 28  1  0
 28 29  2  0
 29 30  1  0
 30 31  2  0
 30 32  1  0
 32 33  2  0
 33 34  1  0
 34 35  2  0
  9 36  1  0
 36 37  1  0
 37 38  2  0
 38 39  1  0
 39 40  2  0
 40 41  1  0
 41 42  2  0
  5 43  1  0
 16 12  1  0
 31 26  1  0
 42 37  1  0
 35 29  1  0
  1 44  1  0
  1 45  1  0
  4 46  1  0
  4 47  1  0
  5 48  1  6
  8 49  1  0
  9 50  1  1
 13 51  1  0
 13 52  1  0
 14 53  1  1
 15 54  1  0
 15 55  1  0
 16 56  1  1
 17 57  1  0
 17 58  1  0
 18 59  1  0
 18 60  1  0
 19 61  1  0
 19 62  1  0
 22 63  1  0
 22 64  1  0
 23 65  1  0
 23 66  1  0
 25 67  1  0
 25 68  1  0
 27 69  1  0
 28 70  1  0
 31 71  1  0
 32 72  1  0
 33 73  1  0
 34 74  1  0
 35 75  1  0
 36 76  1  0
 36 77  1  0
 38 78  1  0
 39 79  1  0
 40 80  1  0
 41 81  1  0
 42 82  1  0
 43 83  1  0
 43 84  1  0
M  END
>  <Ligand ID>  (1) 
LIG0002420

>  <Ligand>  (1) 
CHEMBL378571

>  <SMILES>  (1) 
NC(=O)C[C@@H](C(=O)N[C@@H](C(=O)N1C[C@@H](C[C@H]1CCCN=C(N)N)OCc1ccc2c(c1)cccc2)Cc1ccccc1)N

>  <CID>  (1) 
44413970.0

>  <ChEMBL ID>  (1) 
nan

>  <InChiKey>  (1) 
MNJTTYMJKZNPFK-ZZXHUEHTSA-N

>  <InChi>  (1) 
InChI=1S/C32H41N7O4/c33-27(18-29(34)40)30(41)38-28(16-21-7-2-1-3-8-21)31(42)39-19-26(17-25(39)11-6-14-37-32(35)36)43-20-22-12-13-23-9-4-5-10-24(23)15-22/h1-5,7-10,12-13,15,25-28H,6,11,14,16-20,33H2,(H2,34,40)(H,38,41)(H4,35,36,37)/t25-,26-,27+,28-/m1/s1

>  <IUPAC Name>  (1) 
(2S)-2-amino-N-[(2R)-1-[(2R,4R)-2-[3-(diaminomethylideneamino)propyl]-4-(naphthalen-2-ylmethoxy)pyrrolidin-1-yl]-1-oxo-3-phenylpropan-2-yl]butanediamide

$$$$
