
     RDKit          3D

 50 53  0  0  0  0  0  0  0  0999 V2000
    2.0576    1.3195   -0.9905 O   0  0  0  0  0  0  0  0  0  0  0  0
    2.0016    0.5113   -0.0223 C   0  0  0  0  0  0  0  0  0  0  0  0
    3.0077   -0.5197    0.0586 C   0  0  0  0  0  0  0  0  0  0  0  0
    2.9463   -1.7577   -0.4870 N   0  0  0  0  0  0  0  0  0  0  0  0
    4.0766   -2.4275   -0.1949 C   0  0  0  0  0  0  0  0  0  0  0  0
    4.8891   -1.6108    0.5547 C   0  0  0  0  0  0  0  0  0  0  0  0
    4.2204   -0.4211    0.7117 C   0  0  0  0  0  0  0  0  0  0  0  0
    6.4743   -1.9213    1.2254 S   0  0  0  0  0  0  0  0  0  0  0  0
    6.6456   -1.1463    2.4896 O   0  0  0  0  0  0  0  0  0  0  0  0
    6.5672   -3.4085    1.4363 O   0  0  0  0  0  0  0  0  0  0  0  0
    7.6456   -1.3963   -0.0314 C   0  0  0  0  0  0  0  0  0  0  0  0
    0.9469    0.6822    0.9152 N   0  0  0  0  0  0  0  0  0  0  0  0
    0.0453    1.7696    0.6582 C   0  0  0  0  0  0  0  0  0  0  0  0
    0.1810    3.0324    1.1069 N   0  0  0  0  0  0  0  0  0  0  0  0
   -0.8689    3.7822    0.6589 C   0  0  0  0  0  0  0  0  0  0  0  0
   -1.6563    2.9264   -0.0848 C   0  0  0  0  0  0  0  0  0  0  0  0
   -1.0795    1.7055   -0.0713 N   0  0  0  0  0  0  0  0  0  0  0  0
   -1.5588    0.4925   -0.7244 C   0  0  0  0  0  0  0  0  0  0  0  0
   -2.4477   -0.2138    0.2448 C   0  0  0  0  0  0  0  0  0  0  0  0
   -2.9957   -1.4447   -0.2821 N   0  0  0  0  0  0  0  0  0  0  0  0
   -3.9377   -1.2152   -1.3529 C   0  0  0  0  0  0  0  0  0  0  0  0
   -4.4934   -2.6162   -1.5794 C   0  0  0  0  0  0  0  0  0  0  0  0
   -4.5015   -3.1836   -0.1749 C   0  0  0  0  0  0  0  0  0  0  0  0
   -3.7641   -2.1730    0.6783 C   0  0  0  0  0  0  0  0  0  0  0  0
   -2.7792    3.4033   -0.6567 N   0  0  0  0  0  0  0  0  0  0  0  0
   -3.1438    4.6902   -0.5163 C   0  0  0  0  0  0  0  0  0  0  0  0
   -2.3631    5.5711    0.2307 C   0  0  0  0  0  0  0  0  0  0  0  0
   -1.2067    5.1244    0.8324 C   0  0  0  0  0  0  0  0  0  0  0  0
    2.1405   -2.1280   -1.0478 H   0  0  0  0  0  0  0  0  0  0  0  0
    4.3120   -3.4230   -0.4896 H   0  0  0  0  0  0  0  0  0  0  0  0
    4.5784    0.4462    1.2530 H   0  0  0  0  0  0  0  0  0  0  0  0
    8.6593   -1.6761    0.2710 H   0  0  0  0  0  0  0  0  0  0  0  0
    7.5321   -0.2825   -0.0617 H   0  0  0  0  0  0  0  0  0  0  0  0
    7.2896   -1.8589   -0.9722 H   0  0  0  0  0  0  0  0  0  0  0  0
    0.8726    0.0447    1.7116 H   0  0  0  0  0  0  0  0  0  0  0  0
   -2.1583    0.8222   -1.5972 H   0  0  0  0  0  0  0  0  0  0  0  0
   -0.6998   -0.1058   -1.0637 H   0  0  0  0  0  0  0  0  0  0  0  0
   -3.3181    0.4382    0.4633 H   0  0  0  0  0  0  0  0  0  0  0  0
   -1.9752   -0.4414    1.2062 H   0  0  0  0  0  0  0  0  0  0  0  0
   -3.4352   -0.9179   -2.2967 H   0  0  0  0  0  0  0  0  0  0  0  0
   -4.6976   -0.4802   -1.0884 H   0  0  0  0  0  0  0  0  0  0  0  0
   -5.5018   -2.5086   -2.0177 H   0  0  0  0  0  0  0  0  0  0  0  0
   -3.8801   -3.1938   -2.2857 H   0  0  0  0  0  0  0  0  0  0  0  0
   -4.0629   -4.2040   -0.1268 H   0  0  0  0  0  0  0  0  0  0  0  0
   -5.5843   -3.2242    0.1267 H   0  0  0  0  0  0  0  0  0  0  0  0
   -4.5182   -1.5620    1.2101 H   0  0  0  0  0  0  0  0  0  0  0  0
   -3.1504   -2.7314    1.4137 H   0  0  0  0  0  0  0  0  0  0  0  0
   -4.0489    5.0284   -0.9907 H   0  0  0  0  0  0  0  0  0  0  0  0
   -2.6858    6.6158    0.3280 H   0  0  0  0  0  0  0  0  0  0  0  0
   -0.5766    5.7871    1.4217 H   0  0  0  0  0  0  0  0  0  0  0  0
  1  2  2  0
  2  3  1  0
  3  4  1  0
  4  5  1  0
  5  6  2  0
  6  7  1  0
  6  8  1  0
  8  9  2  0
  8 10  2  0
  8 11  1  0
  2 12  1  0
 12 13  1  0
 13 14  2  0
 14 15  1  0
 15 16  2  0
 16 17  1  0
 17 18  1  0
 18 19  1  0
 19 20  1  0
 20 21  1  0
 21 22  1  0
 22 23  1  0
 23 24  1  0
 16 25  1  0
 25 26  2  0
 26 27  1  0
 27 28  2  0
  7  3  2  0
 17 13  1  0
 24 20  1  0
 28 15  1  0
  4 29  1  0
  5 30  1  0
  7 31  1  0
 11 32  1  0
 11 33  1  0
 11 34  1  0
 12 35  1  0
 18 36  1  0
 18 37  1  0
 19 38  1  0
 19 39  1  0
 21 40  1  0
 21 41  1  0
 22 42  1  0
 22 43  1  0
 23 44  1  0
 23 45  1  0
 24 46  1  0
 24 47  1  0
 26 48  1  0
 27 49  1  0
 28 50  1  0
M  END
>  <Ligand ID>  (1) 
LIG0004916

>  <Ligand>  (1) 
CHEMBL3394008

>  <SMILES>  (1) 
O=C(c1[nH]cc(c1)S(=O)(=O)C)Nc1nc2c(n1CCN1CCCC1)nccc2

>  <CID>  (1) 
118725858.0

>  <ChEMBL ID>  (1) 
nan

>  <InChiKey>  (1) 
AIQIQRHMEFDXQH-UHFFFAOYSA-N

>  <InChi>  (1) 
InChI=1S/C18H22N6O3S/c1-28(26,27)13-11-15(20-12-13)17(25)22-18-21-14-5-4-6-19-16(14)24(18)10-9-23-7-2-3-8-23/h4-6,11-12,20H,2-3,7-10H2,1H3,(H,21,22,25)

>  <IUPAC Name>  (1) 
4-methylsulfonyl-N-[3-(2-pyrrolidin-1-ylethyl)imidazo[4,5-b]pyridin-2-yl]-1H-pyrrole-2-carboxamide

$$$$
