
     RDKit          3D

 87 92  0  0  0  0  0  0  0  0999 V2000
    3.3835   -2.4951    1.1936 O   0  0  0  0  0  0  0  0  0  0  0  0
    3.9252   -1.4941    0.6150 C   0  0  0  0  0  0  0  0  0  0  0  0
    5.3488   -1.2577    0.9201 C   0  0  2  0  0  0  0  0  0  0  0  0
    5.7939   -2.2981    1.8513 N   0  0  0  0  0  0  0  0  0  0  0  0
    7.2491   -2.3559    1.7261 C   0  0  0  0  0  0  0  0  0  0  0  0
    7.7932   -1.0124    2.0972 C   0  0  0  0  0  0  0  0  0  0  0  0
    6.9793    0.0998    2.0678 C   0  0  0  0  0  0  0  0  0  0  0  0
    5.5465    0.0562    1.6775 C   0  0  0  0  0  0  0  0  0  0  0  0
    7.5237    1.3310    2.4216 C   0  0  0  0  0  0  0  0  0  0  0  0
    8.8453    1.4571    2.7961 C   0  0  0  0  0  0  0  0  0  0  0  0
    9.6342    0.3138    2.8135 C   0  0  0  0  0  0  0  0  0  0  0  0
    9.1210   -0.9336    2.4653 C   0  0  0  0  0  0  0  0  0  0  0  0
    3.2021   -0.6541   -0.2719 N   0  0  0  0  0  0  0  0  0  0  0  0
    1.7902   -1.0135   -0.4770 C   0  0  1  0  0  0  0  0  0  0  0  0
    0.9104    0.1184   -0.1020 C   0  0  0  0  0  0  0  0  0  0  0  0
    1.5002    1.1794    0.2738 O   0  0  0  0  0  0  0  0  0  0  0  0
   -0.4965    0.0714   -0.1421 N   0  0  0  0  0  0  0  0  0  0  0  0
   -1.2619   -1.0984   -0.5435 C   0  0  0  0  0  0  0  0  0  0  0  0
   -2.4195   -1.2135    0.4087 C   0  0  0  0  0  0  0  0  0  0  0  0
   -3.4058   -0.0537    0.2860 C   0  0  0  0  0  0  0  0  0  0  0  0
   -2.6897    1.1680   -0.2256 C   0  0  0  0  0  0  0  0  0  0  0  0
   -1.2590    1.2481    0.2302 C   0  0  0  0  0  0  0  0  0  0  0  0
   -3.8613    0.2443    1.6888 C   0  0  0  0  0  0  0  0  0  0  0  0
   -4.8119    1.3180    1.8284 N   0  0  0  0  0  0  0  0  0  0  0  0
   -6.2443    1.3586    1.8251 C   0  0  0  0  0  0  0  0  0  0  0  0
   -6.6246    2.7115    1.2052 C   0  0  0  0  0  0  0  0  0  0  0  0
   -5.4627    3.5041    1.4866 N   0  0  0  0  0  0  0  0  0  0  0  0
   -4.4168    2.6979    2.0420 C   0  0  0  0  0  0  0  0  0  0  0  0
   -3.3491    3.0940    2.6119 O   0  0  0  0  0  0  0  0  0  0  0  0
   -4.5779   -0.4491   -0.5388 C   0  0  0  0  0  0  0  0  0  0  0  0
   -5.3424   -1.6096    0.0210 C   0  0  0  0  0  0  0  0  0  0  0  0
   -6.6556   -1.6922   -0.7351 C   0  0  0  0  0  0  0  0  0  0  0  0
   -6.7440   -0.7540   -1.8966 C   0  0  0  0  0  0  0  0  0  0  0  0
   -5.5290   -0.7528   -2.7634 C   0  0  0  0  0  0  0  0  0  0  0  0
   -4.2383   -0.8174   -1.9645 C   0  0  0  0  0  0  0  0  0  0  0  0
    1.7043   -1.3459   -1.9622 C   0  0  0  0  0  0  0  0  0  0  0  0
    2.0837   -0.1990   -2.8052 C   0  0  0  0  0  0  0  0  0  0  0  0
    3.3675    0.0609   -3.2354 C   0  0  0  0  0  0  0  0  0  0  0  0
    3.5774    1.1765   -4.0255 C   0  0  0  0  0  0  0  0  0  0  0  0
    2.5532    2.0332   -4.3958 C   0  0  0  0  0  0  0  0  0  0  0  0
    1.2716    1.7742   -3.9667 C   0  0  0  0  0  0  0  0  0  0  0  0
    1.0485    0.6659   -3.1789 C   0  0  0  0  0  0  0  0  0  0  0  0
    2.8042    3.4433   -5.3918 Cl  0  0  0  0  0  0  0  0  0  0  0  0
    6.0227   -1.2460    0.0656 H   0  0  0  0  0  0  0  0  0  0  0  0
    5.3484   -3.2029    1.6604 H   0  0  0  0  0  0  0  0  0  0  0  0
    7.5536   -2.5533    0.6793 H   0  0  0  0  0  0  0  0  0  0  0  0
    7.6827   -3.1441    2.3756 H   0  0  0  0  0  0  0  0  0  0  0  0
    4.9836   -0.0362    2.6469 H   0  0  0  0  0  0  0  0  0  0  0  0
    5.2216    0.9352    1.1094 H   0  0  0  0  0  0  0  0  0  0  0  0
    6.8999    2.2289    2.4071 H   0  0  0  0  0  0  0  0  0  0  0  0
    9.2693    2.4340    3.0748 H   0  0  0  0  0  0  0  0  0  0  0  0
   10.6859    0.3940    3.1083 H   0  0  0  0  0  0  0  0  0  0  0  0
    9.7365   -1.8188    2.4804 H   0  0  0  0  0  0  0  0  0  0  0  0
    3.6342    0.1617   -0.7460 H   0  0  0  0  0  0  0  0  0  0  0  0
    1.5394   -1.8819    0.1426 H   0  0  0  0  0  0  0  0  0  0  0  0
   -0.6149   -1.9909   -0.3064 H   0  0  0  0  0  0  0  0  0  0  0  0
   -1.5018   -1.1521   -1.5988 H   0  0  0  0  0  0  0  0  0  0  0  0
   -1.9839   -1.1459    1.4258 H   0  0  0  0  0  0  0  0  0  0  0  0
   -2.9149   -2.1707    0.3149 H   0  0  0  0  0  0  0  0  0  0  0  0
   -2.6600    1.1937   -1.3339 H   0  0  0  0  0  0  0  0  0  0  0  0
   -3.1945    2.1001    0.0669 H   0  0  0  0  0  0  0  0  0  0  0  0
   -0.7243    2.1229   -0.1648 H   0  0  0  0  0  0  0  0  0  0  0  0
   -1.2220    1.3158    1.3362 H   0  0  0  0  0  0  0  0  0  0  0  0
   -4.2813   -0.6373    2.2331 H   0  0  0  0  0  0  0  0  0  0  0  0
   -2.9479    0.4823    2.3464 H   0  0  0  0  0  0  0  0  0  0  0  0
   -6.7501    0.6097    1.1978 H   0  0  0  0  0  0  0  0  0  0  0  0
   -6.6781    1.4005    2.8486 H   0  0  0  0  0  0  0  0  0  0  0  0
   -7.5529    3.1176    1.6618 H   0  0  0  0  0  0  0  0  0  0  0  0
   -6.7699    2.6301    0.1018 H   0  0  0  0  0  0  0  0  0  0  0  0
   -5.4015    4.5502    1.3022 H   0  0  0  0  0  0  0  0  0  0  0  0
   -5.2725    0.4137   -0.6286 H   0  0  0  0  0  0  0  0  0  0  0  0
   -5.6136   -1.4697    1.0752 H   0  0  0  0  0  0  0  0  0  0  0  0
   -4.8401   -2.5864   -0.1696 H   0  0  0  0  0  0  0  0  0  0  0  0
   -6.8768   -2.7171   -1.0973 H   0  0  0  0  0  0  0  0  0  0  0  0
   -7.5381   -1.4443   -0.0758 H   0  0  0  0  0  0  0  0  0  0  0  0
   -7.0609    0.2847   -1.6021 H   0  0  0  0  0  0  0  0  0  0  0  0
   -7.5979   -1.1294   -2.5319 H   0  0  0  0  0  0  0  0  0  0  0  0
   -5.5897    0.1537   -3.4118 H   0  0  0  0  0  0  0  0  0  0  0  0
   -5.6074   -1.6087   -3.4748 H   0  0  0  0  0  0  0  0  0  0  0  0
   -3.8737   -1.8780   -2.0584 H   0  0  0  0  0  0  0  0  0  0  0  0
   -3.5414   -0.1677   -2.4746 H   0  0  0  0  0  0  0  0  0  0  0  0
    2.5158   -2.1198   -2.1088 H   0  0  0  0  0  0  0  0  0  0  0  0
    0.7454   -1.7708   -2.2518 H   0  0  0  0  0  0  0  0  0  0  0  0
    4.1632   -0.6042   -2.9496 H   0  0  0  0  0  0  0  0  0  0  0  0
    4.5594    1.4265   -4.3884 H   0  0  0  0  0  0  0  0  0  0  0  0
    0.4522    2.4087   -4.2285 H   0  0  0  0  0  0  0  0  0  0  0  0
    0.0297    0.4867   -2.8561 H   0  0  0  0  0  0  0  0  0  0  0  0
  1  2  2  0
  2  3  1  0
  3  4  1  0
  4  5  1  0
  5  6  1  0
  6  7  2  0
  7  8  1  0
  7  9  1  0
  9 10  2  0
 10 11  1  0
 11 12  2  0
  2 13  1  0
 13 14  1  0
 14 15  1  0
 15 16  2  0
 15 17  1  0
 17 18  1  0
 18 19  1  0
 19 20  1  0
 20 21  1  0
 21 22  1  0
 20 23  1  0
 23 24  1  0
 24 25  1  0
 25 26  1  0
 26 27  1  0
 27 28  1  0
 28 29  2  0
 20 30  1  0
 30 31  1  0
 31 32  1  0
 32 33  1  0
 33 34  1  0
 34 35  1  0
 14 36  1  0
 36 37  1  0
 37 38  2  0
 38 39  1  0
 39 40  2  0
 40 41  1  0
 41 42  2  0
 40 43  1  0
  8  3  1  0
 22 17  1  0
 28 24  1  0
 35 30  1  0
 42 37  1  0
 12  6  1  0
  3 44  1  6
  4 45  1  0
  5 46  1  0
  5 47  1  0
  8 48  1  0
  8 49  1  0
  9 50  1  0
 10 51  1  0
 11 52  1  0
 12 53  1  0
 13 54  1  0
 14 55  1  1
 18 56  1  0
 18 57  1  0
 19 58  1  0
 19 59  1  0
 21 60  1  0
 21 61  1  0
 22 62  1  0
 22 63  1  0
 23 64  1  0
 23 65  1  0
 25 66  1  0
 25 67  1  0
 26 68  1  0
 26 69  1  0
 27 70  1  0
 30 71  1  0
 31 72  1  0
 31 73  1  0
 32 74  1  0
 32 75  1  0
 33 76  1  0
 33 77  1  0
 34 78  1  0
 34 79  1  0
 35 80  1  0
 35 81  1  0
 36 82  1  0
 36 83  1  0
 38 84  1  0
 39 85  1  0
 41 86  1  0
 42 87  1  0
M  END
>  <Ligand ID>  (1) 
LIG0001357

>  <Ligand>  (1) 
CHEMBL381503

>  <SMILES>  (1) 
O=C([C@@H]1NCc2c(C1)cccc2)N[C@@H](C(=O)N1CCC(CC1)(CN1CCNC1=O)C1CCCCC1)Cc1ccc(cc1)Cl

>  <CID>  (1) 
44408252.0

>  <ChEMBL ID>  (1) 
nan

>  <InChiKey>  (1) 
BBYTXRAQNPWSMC-LOYHVIPDSA-N

>  <InChi>  (1) 
InChI=1S/C34H44ClN5O3/c35-28-12-10-24(11-13-28)20-30(38-31(41)29-21-25-6-4-5-7-26(25)22-37-29)32(42)39-17-14-34(15-18-39,27-8-2-1-3-9-27)23-40-19-16-36-33(40)43/h4-7,10-13,27,29-30,37H,1-3,8-9,14-23H2,(H,36,43)(H,38,41)/t29-,30-/m1/s1

>  <IUPAC Name>  (1) 
(3R)-N-[(2R)-3-(4-chlorophenyl)-1-[4-cyclohexyl-4-[(2-oxoimidazolidin-1-yl)methyl]piperidin-1-yl]-1-oxopropan-2-yl]-1,2,3,4-tetrahydroisoquinoline-3-carboxamide

$$$$
