
     RDKit          3D

 62 66  0  0  0  0  0  0  0  0999 V2000
   -2.4867    7.8554   -0.5886 C   0  0  0  0  0  0  0  0  0  0  0  0
   -1.1405    7.4695   -0.8003 O   0  0  0  0  0  0  0  0  0  0  0  0
   -0.6283    6.2584   -0.3720 C   0  0  0  0  0  0  0  0  0  0  0  0
    0.6988    5.8878   -0.5852 C   0  0  0  0  0  0  0  0  0  0  0  0
    1.1566    4.6480   -0.1272 C   0  0  0  0  0  0  0  0  0  0  0  0
    0.3325    3.7654    0.5371 C   0  0  0  0  0  0  0  0  0  0  0  0
   -0.9741    4.1622    0.7317 C   0  0  0  0  0  0  0  0  0  0  0  0
   -1.4510    5.3796    0.2901 C   0  0  0  0  0  0  0  0  0  0  0  0
    0.7736    2.4659    1.0282 C   0  0  0  0  0  0  0  0  0  0  0  0
    2.0514    2.0016    0.8740 C   0  0  0  0  0  0  0  0  0  0  0  0
    2.4655    0.7523    1.3488 C   0  0  0  0  0  0  0  0  0  0  0  0
    3.8692    0.3173    1.1420 C   0  0  0  0  0  0  0  0  0  0  0  0
    4.0468   -0.6702    0.0762 C   0  0  0  0  0  0  0  0  0  0  0  0
    4.2414   -0.1926   -1.2192 C   0  0  0  0  0  0  0  0  0  0  0  0
    4.4215   -1.0354   -2.2959 C   0  0  0  0  0  0  0  0  0  0  0  0
    4.4075   -2.3992   -2.0779 C   0  0  0  0  0  0  0  0  0  0  0  0
    4.2202   -2.9101   -0.8259 C   0  0  0  0  0  0  0  0  0  0  0  0
    4.0406   -2.0356    0.2456 C   0  0  0  0  0  0  0  0  0  0  0  0
    4.1966   -4.2515   -0.5479 O   0  0  0  0  0  0  0  0  0  0  0  0
    4.3518   -5.3007   -1.4455 C   0  0  0  0  0  0  0  0  0  0  0  0
    1.5163   -0.0111    1.9927 C   0  0  0  0  0  0  0  0  0  0  0  0
    1.8106   -1.1259    2.4388 O   0  0  0  0  0  0  0  0  0  0  0  0
    0.2703    0.4770    2.1262 N   0  0  0  0  0  0  0  0  0  0  0  0
   -0.0994    1.6615    1.6692 N   0  0  0  0  0  0  0  0  0  0  0  0
   -0.7654   -0.3070    2.8041 C   0  0  0  0  0  0  0  0  0  0  0  0
   -1.4806   -1.1628    1.7918 C   0  0  0  0  0  0  0  0  0  0  0  0
   -1.1511   -1.1251    0.5793 O   0  0  0  0  0  0  0  0  0  0  0  0
   -2.5311   -2.0119    2.2246 N   0  0  0  0  0  0  0  0  0  0  0  0
   -3.1649   -2.7984    1.1943 C   0  0  0  0  0  0  0  0  0  0  0  0
   -2.7015   -4.0565    0.8672 C   0  0  0  0  0  0  0  0  0  0  0  0
   -3.3789   -4.7238   -0.1337 C   0  0  0  0  0  0  0  0  0  0  0  0
   -4.4719   -4.1464   -0.7726 C   0  0  0  0  0  0  0  0  0  0  0  0
   -4.9190   -2.8852   -0.4289 C   0  0  0  0  0  0  0  0  0  0  0  0
   -4.2469   -2.2191    0.5667 C   0  0  0  0  0  0  0  0  0  0  0  0
   -6.0144   -2.5867   -1.2345 O   0  0  0  0  0  0  0  0  0  0  0  0
   -6.5190   -3.8453   -1.7034 C   0  0  0  0  0  0  0  0  0  0  0  0
   -5.3157   -4.5843   -1.7873 O   0  0  0  0  0  0  0  0  0  0  0  0
   -2.7346    7.6461    0.4569 H   0  0  0  0  0  0  0  0  0  0  0  0
   -3.1317    7.3135   -1.3211 H   0  0  0  0  0  0  0  0  0  0  0  0
   -2.5707    8.9339   -0.8267 H   0  0  0  0  0  0  0  0  0  0  0  0
    1.3642    6.5555   -1.1003 H   0  0  0  0  0  0  0  0  0  0  0  0
    2.1906    4.3946   -0.3104 H   0  0  0  0  0  0  0  0  0  0  0  0
   -1.6258    3.4637    1.2574 H   0  0  0  0  0  0  0  0  0  0  0  0
   -2.4988    5.5975    0.4943 H   0  0  0  0  0  0  0  0  0  0  0  0
    2.8025    2.5880    0.3728 H   0  0  0  0  0  0  0  0  0  0  0  0
    4.4815    1.2435    0.9807 H   0  0  0  0  0  0  0  0  0  0  0  0
    4.2207   -0.0576    2.1440 H   0  0  0  0  0  0  0  0  0  0  0  0
    4.2563    0.8847   -1.4167 H   0  0  0  0  0  0  0  0  0  0  0  0
    4.5734   -0.6623   -3.3068 H   0  0  0  0  0  0  0  0  0  0  0  0
    4.5461   -3.0821   -2.9035 H   0  0  0  0  0  0  0  0  0  0  0  0
    3.8938   -2.4335    1.2372 H   0  0  0  0  0  0  0  0  0  0  0  0
    3.3842   -5.8494   -1.6307 H   0  0  0  0  0  0  0  0  0  0  0  0
    4.7773   -5.0516   -2.4192 H   0  0  0  0  0  0  0  0  0  0  0  0
    5.0381   -6.0627   -0.9848 H   0  0  0  0  0  0  0  0  0  0  0  0
   -0.2864   -0.9888    3.5088 H   0  0  0  0  0  0  0  0  0  0  0  0
   -1.5462    0.3265    3.2621 H   0  0  0  0  0  0  0  0  0  0  0  0
   -2.8501   -2.0863    3.2204 H   0  0  0  0  0  0  0  0  0  0  0  0
   -1.8480   -4.4797    1.3825 H   0  0  0  0  0  0  0  0  0  0  0  0
   -3.0782   -5.7029   -0.4420 H   0  0  0  0  0  0  0  0  0  0  0  0
   -4.5907   -1.2364    0.8384 H   0  0  0  0  0  0  0  0  0  0  0  0
   -7.1549   -4.2280   -0.8889 H   0  0  0  0  0  0  0  0  0  0  0  0
   -7.0433   -3.7432   -2.6675 H   0  0  0  0  0  0  0  0  0  0  0  0
  1  2  1  0
  2  3  1  0
  3  4  2  0
  4  5  1  0
  5  6  2  0
  6  7  1  0
  7  8  2  0
  6  9  1  0
  9 10  1  0
 10 11  2  0
 11 12  1  0
 12 13  1  0
 13 14  2  0
 14 15  1  0
 15 16  2  0
 16 17  1  0
 17 18  2  0
 17 19  1  0
 19 20  1  0
 11 21  1  0
 21 22  2  0
 21 23  1  0
 23 24  1  0
 23 25  1  0
 25 26  1  0
 26 27  2  0
 26 28  1  0
 28 29  1  0
 29 30  2  0
 30 31  1  0
 31 32  2  0
 32 33  1  0
 33 34  2  0
 33 35  1  0
 35 36  1  0
 36 37  1  0
  8  3  1  0
 24  9  2  0
 34 29  1  0
 18 13  1  0
 37 32  1  0
  1 38  1  0
  1 39  1  0
  1 40  1  0
  4 41  1  0
  5 42  1  0
  7 43  1  0
  8 44  1  0
 10 45  1  0
 12 46  1  0
 12 47  1  0
 14 48  1  0
 15 49  1  0
 16 50  1  0
 18 51  1  0
 20 52  1  0
 20 53  1  0
 20 54  1  0
 25 55  1  0
 25 56  1  0
 28 57  1  0
 30 58  1  0
 31 59  1  0
 34 60  1  0
 36 61  1  0
 36 62  1  0
M  END
>  <Ligand ID>  (1) 
LIG0004803

>  <Ligand>  (1) 
CHEMBL2391265

>  <SMILES>  (1) 
COc1ccc(cc1)c1cc(Cc2cccc(c2)OC)c(=O)n(n1)CC(=O)Nc1ccc2c(c1)OCO2

>  <CID>  (1) 
71698709.0

>  <ChEMBL ID>  (1) 
nan

>  <InChiKey>  (1) 
NELZWWAIOGCPRE-UHFFFAOYSA-N

>  <InChi>  (1) 
InChI=1S/C28H25N3O6/c1-34-22-9-6-19(7-10-22)24-14-20(12-18-4-3-5-23(13-18)35-2)28(33)31(30-24)16-27(32)29-21-8-11-25-26(15-21)37-17-36-25/h3-11,13-15H,12,16-17H2,1-2H3,(H,29,32)

>  <IUPAC Name>  (1) 
N-(1,3-benzodioxol-5-yl)-2-[3-(4-methoxyphenyl)-5-[(3-methoxyphenyl)methyl]-6-oxopyridazin-1-yl]acetamide

$$$$
