
     RDKit          3D

 43 45  0  0  0  0  0  0  0  0999 V2000
    6.1671    1.8980    1.2887 C   0  0  0  0  0  0  0  0  0  0  0  0
    5.4099    1.0956    0.2796 C   0  0  0  0  0  0  0  0  0  0  0  0
    3.9791    1.0215    0.6086 N   0  0  0  0  0  0  0  0  0  0  0  0
    3.0607    0.3082   -0.2124 C   0  0  0  0  0  0  0  0  0  0  0  0
    3.5481   -0.3120   -1.3254 N   0  0  0  0  0  0  0  0  0  0  0  0
    2.7326   -1.0033   -2.1443 C   0  0  0  0  0  0  0  0  0  0  0  0
    3.1878   -1.6687   -3.3173 N   0  0  0  0  0  0  0  0  0  0  0  0
    1.4191   -1.0798   -1.8552 N   0  0  0  0  0  0  0  0  0  0  0  0
    0.8892   -0.4818   -0.7634 C   0  0  0  0  0  0  0  0  0  0  0  0
    1.7096    0.2294    0.0847 C   0  0  0  0  0  0  0  0  0  0  0  0
    0.9925    0.7331    1.0883 N   0  0  0  0  0  0  0  0  0  0  0  0
   -0.3011    0.3458    0.8893 C   0  0  0  0  0  0  0  0  0  0  0  0
   -0.3451   -0.3882   -0.2353 N   0  0  0  0  0  0  0  0  0  0  0  0
   -1.5546   -0.9849   -0.7852 C   0  0  2  0  0  0  0  0  0  0  0  0
   -2.5530   -0.0288   -0.8253 O   0  0  0  0  0  0  0  0  0  0  0  0
   -3.7180   -0.5691   -0.3591 C   0  0  1  0  0  0  0  0  0  0  0  0
   -3.3508   -1.6987    0.5764 C   0  0  2  0  0  0  0  0  0  0  0  0
   -2.0466   -2.1668   -0.0262 C   0  0  1  0  0  0  0  0  0  0  0  0
   -2.2573   -3.2829   -0.8649 O   0  0  0  0  0  0  0  0  0  0  0  0
   -4.2556   -2.7556    0.4890 O   0  0  0  0  0  0  0  0  0  0  0  0
   -4.4453    0.5147    0.3628 C   0  0  0  0  0  0  0  0  0  0  0  0
   -5.5626    0.2628    0.8907 O   0  0  0  0  0  0  0  0  0  0  0  0
   -3.9308    1.8364    0.4854 N   0  0  0  0  0  0  0  0  0  0  0  0
   -4.6374    2.8937    1.1881 C   0  0  0  0  0  0  0  0  0  0  0  0
    5.4692    2.5444    1.8655 H   0  0  0  0  0  0  0  0  0  0  0  0
    6.8972    2.5387    0.7595 H   0  0  0  0  0  0  0  0  0  0  0  0
    6.7326    1.2962    2.0291 H   0  0  0  0  0  0  0  0  0  0  0  0
    5.4863    1.5771   -0.7129 H   0  0  0  0  0  0  0  0  0  0  0  0
    5.8090    0.0640    0.1764 H   0  0  0  0  0  0  0  0  0  0  0  0
    3.6405    1.5078    1.4678 H   0  0  0  0  0  0  0  0  0  0  0  0
    3.2167   -1.0939   -4.2090 H   0  0  0  0  0  0  0  0  0  0  0  0
    3.4853   -2.6700   -3.3337 H   0  0  0  0  0  0  0  0  0  0  0  0
   -1.1074    0.6174    1.5607 H   0  0  0  0  0  0  0  0  0  0  0  0
   -1.3918   -1.2995   -1.8447 H   0  0  0  0  0  0  0  0  0  0  0  0
   -4.3507   -1.0057   -1.1686 H   0  0  0  0  0  0  0  0  0  0  0  0
   -3.2269   -1.3573    1.6181 H   0  0  0  0  0  0  0  0  0  0  0  0
   -1.3174   -2.5227    0.7502 H   0  0  0  0  0  0  0  0  0  0  0  0
   -2.3680   -2.8874   -1.7771 H   0  0  0  0  0  0  0  0  0  0  0  0
   -3.7413   -3.6063    0.5127 H   0  0  0  0  0  0  0  0  0  0  0  0
   -2.9994    2.0591    0.0493 H   0  0  0  0  0  0  0  0  0  0  0  0
   -4.3068    2.8604    2.2586 H   0  0  0  0  0  0  0  0  0  0  0  0
   -5.7395    2.7868    1.0841 H   0  0  0  0  0  0  0  0  0  0  0  0
   -4.3253    3.8722    0.7917 H   0  0  0  0  0  0  0  0  0  0  0  0
  1  2  1  0
  2  3  1  0
  3  4  1  0
  4  5  2  0
  5  6  1  0
  6  7  1  0
  6  8  2  0
  8  9  1  0
  9 10  2  0
 10 11  1  0
 11 12  2  0
 12 13  1  0
 13 14  1  0
 14 15  1  0
 15 16  1  0
 16 17  1  0
 17 18  1  0
 18 19  1  0
 17 20  1  0
 16 21  1  0
 21 22  2  0
 21 23  1  0
 23 24  1  0
 10  4  1  0
 18 14  1  0
 13  9  1  0
  1 25  1  0
  1 26  1  0
  1 27  1  0
  2 28  1  0
  2 29  1  0
  3 30  1  0
  7 31  1  0
  7 32  1  0
 12 33  1  0
 14 34  1  6
 16 35  1  6
 17 36  1  1
 18 37  1  1
 19 38  1  0
 20 39  1  0
 23 40  1  0
 24 41  1  0
 24 42  1  0
 24 43  1  0
M  END
>  <Ligand ID>  (1) 
LIG0001934

>  <Ligand>  (1) 
CHEMBL3133154

>  <SMILES>  (1) 
CCNc1nc(N)nc2c1ncn2[C@@H]1O[C@@H]([C@H]([C@H]1O)O)C(=O)NC

>  <CID>  (1) 
76336525.0

>  <ChEMBL ID>  (1) 
nan

>  <InChiKey>  (1) 
BJSAZVHNGHCHQZ-FLNNQWSLSA-N

>  <InChi>  (1) 
InChI=1S/C13H19N7O4/c1-3-16-9-5-10(19-13(14)18-9)20(4-17-5)12-7(22)6(21)8(24-12)11(23)15-2/h4,6-8,12,21-22H,3H2,1-2H3,(H,15,23)(H3,14,16,18,19)/t6-,7+,8-,12+/m0/s1

>  <IUPAC Name>  (1) 
(2S,3S,4R,5R)-5-[2-amino-6-(ethylamino)purin-9-yl]-3,4-dihydroxy-N-methyloxolane-2-carboxamide

$$$$
