
     RDKit          3D

 50 52  0  0  0  0  0  0  0  0999 V2000
    8.3538    0.3567   -0.1880 C   0  0  0  0  0  0  0  0  0  0  0  0
    7.0028    0.8631    0.0128 N   0  0  0  0  0  0  0  0  0  0  0  0
    5.9369   -0.0779   -0.1429 C   0  0  0  0  0  0  0  0  0  0  0  0
    6.2653   -1.2431   -0.4360 O   0  0  0  0  0  0  0  0  0  0  0  0
    4.5717    0.4290    0.0588 C   0  0  0  0  0  0  0  0  0  0  0  0
    3.4805   -0.5442   -0.2023 C   0  0  0  0  0  0  0  0  0  0  0  0
    3.6029   -1.7658    0.6778 C   0  0  0  0  0  0  0  0  0  0  0  0
    4.0220   -2.5664   -0.3840 O   0  0  0  0  0  0  0  0  0  0  0  0
    3.6795   -1.5454   -1.2637 C   0  0  0  0  0  0  0  0  0  0  0  0
    2.1428   -0.0060   -0.0451 N   0  0  0  0  0  0  0  0  0  0  0  0
    0.9576   -0.7622   -0.2046 C   0  0  0  0  0  0  0  0  0  0  0  0
    0.9793   -1.9764   -0.4953 O   0  0  0  0  0  0  0  0  0  0  0  0
   -0.3357   -0.0713   -0.0161 C   0  0  0  0  0  0  0  0  0  0  0  0
   -0.3897    1.2322    0.2965 N   0  0  0  0  0  0  0  0  0  0  0  0
   -1.5791    1.8659    0.4691 C   0  0  0  0  0  0  0  0  0  0  0  0
   -2.7648    1.1725    0.3241 C   0  0  0  0  0  0  0  0  0  0  0  0
   -2.7751   -0.1816    0.0016 C   0  0  0  0  0  0  0  0  0  0  0  0
   -1.4990   -0.7707   -0.1622 C   0  0  0  0  0  0  0  0  0  0  0  0
   -3.8200   -0.9748   -0.1680 O   0  0  0  0  0  0  0  0  0  0  0  0
   -5.1787   -0.9704   -0.1220 C   0  0  2  0  0  0  0  0  0  0  0  0
   -5.7346   -2.0848    0.7809 C   0  0  0  0  0  0  0  0  0  0  0  0
   -5.2920   -1.9573    2.0721 F   0  0  0  0  0  0  0  0  0  0  0  0
   -7.1081   -1.9624    0.7947 F   0  0  0  0  0  0  0  0  0  0  0  0
   -5.4236   -3.3060    0.2350 F   0  0  0  0  0  0  0  0  0  0  0  0
   -5.7901   -1.2964   -1.4971 C   0  0  0  0  0  0  0  0  0  0  0  0
   -4.0187    1.8785    0.5038 C   0  0  0  0  0  0  0  0  0  0  0  0
   -4.8397    2.5320   -0.4955 C   0  0  0  0  0  0  0  0  0  0  0  0
   -3.9537    3.4272    0.3686 C   0  0  0  0  0  0  0  0  0  0  0  0
    8.3108   -0.3821   -1.0161 H   0  0  0  0  0  0  0  0  0  0  0  0
    8.7447   -0.1233    0.7467 H   0  0  0  0  0  0  0  0  0  0  0  0
    9.0203    1.1761   -0.4942 H   0  0  0  0  0  0  0  0  0  0  0  0
    6.8294    1.8670    0.2586 H   0  0  0  0  0  0  0  0  0  0  0  0
    4.4868    0.6968    1.1570 H   0  0  0  0  0  0  0  0  0  0  0  0
    4.4185    1.4064   -0.4520 H   0  0  0  0  0  0  0  0  0  0  0  0
    4.4522   -1.7085    1.4117 H   0  0  0  0  0  0  0  0  0  0  0  0
    2.6942   -2.0923    1.1873 H   0  0  0  0  0  0  0  0  0  0  0  0
    4.5661   -1.2989   -1.9118 H   0  0  0  0  0  0  0  0  0  0  0  0
    2.8053   -1.8902   -1.8575 H   0  0  0  0  0  0  0  0  0  0  0  0
    2.0546    1.0230    0.2059 H   0  0  0  0  0  0  0  0  0  0  0  0
   -1.5082    2.9104    0.7247 H   0  0  0  0  0  0  0  0  0  0  0  0
   -1.4169   -1.8210   -0.4146 H   0  0  0  0  0  0  0  0  0  0  0  0
   -5.6658   -0.0390    0.2179 H   0  0  0  0  0  0  0  0  0  0  0  0
   -5.0163   -1.0315   -2.2445 H   0  0  0  0  0  0  0  0  0  0  0  0
   -6.0060   -2.3730   -1.6069 H   0  0  0  0  0  0  0  0  0  0  0  0
   -6.6804   -0.6991   -1.7045 H   0  0  0  0  0  0  0  0  0  0  0  0
   -4.5407    1.5995    1.4678 H   0  0  0  0  0  0  0  0  0  0  0  0
   -4.6158    2.6023   -1.5675 H   0  0  0  0  0  0  0  0  0  0  0  0
   -5.9314    2.6203   -0.3138 H   0  0  0  0  0  0  0  0  0  0  0  0
   -4.4493    4.0221    1.1532 H   0  0  0  0  0  0  0  0  0  0  0  0
   -3.0442    3.8409   -0.0962 H   0  0  0  0  0  0  0  0  0  0  0  0
  1  2  1  0
  2  3  1  0
  3  4  2  0
  3  5  1  0
  5  6  1  0
  6  7  1  0
  7  8  1  0
  8  9  1  0
  6 10  1  0
 10 11  1  0
 11 12  2  0
 11 13  1  0
 13 14  2  0
 14 15  1  0
 15 16  2  0
 16 17  1  0
 17 18  2  0
 17 19  1  0
 19 20  1  0
 20 21  1  0
 21 22  1  0
 21 23  1  0
 21 24  1  0
 20 25  1  0
 16 26  1  0
 26 27  1  0
 27 28  1  0
  9  6  1  0
 18 13  1  0
 28 26  1  0
  1 29  1  0
  1 30  1  0
  1 31  1  0
  2 32  1  0
  5 33  1  0
  5 34  1  0
  7 35  1  0
  7 36  1  0
  9 37  1  0
  9 38  1  0
 10 39  1  0
 15 40  1  0
 18 41  1  0
 20 42  1  1
 25 43  1  0
 25 44  1  0
 25 45  1  0
 26 46  1  0
 27 47  1  0
 27 48  1  0
 28 49  1  0
 28 50  1  0
M  END
>  <Ligand ID>  (1) 
LIG0005192

>  <Ligand>  (1) 
CHEMBL3977194

>  <SMILES>  (1) 
CNC(=O)CC1(COC1)NC(=O)c1ncc(c(c1)O[C@H](C(F)(F)F)C)C1CC1

>  <CID>  (1) 
90214969.0

>  <ChEMBL ID>  (1) 
nan

>  <InChiKey>  (1) 
ASMGXYRKSILTNL-JTQLQIEISA-N

>  <InChi>  (1) 
InChI=1S/C18H22F3N3O4/c1-10(18(19,20)21)28-14-5-13(23-7-12(14)11-3-4-11)16(26)24-17(8-27-9-17)6-15(25)22-2/h5,7,10-11H,3-4,6,8-9H2,1-2H3,(H,22,25)(H,24,26)/t10-/m0/s1

>  <IUPAC Name>  (1) 
5-cyclopropyl-N-[3-[2-(methylamino)-2-oxoethyl]oxetan-3-yl]-4-[(2S)-1,1,1-trifluoropropan-2-yl]oxypyridine-2-carboxamide

$$$$
