
     RDKit          3D

 73 73  0  0  0  0  0  0  0  0999 V2000
   -0.9716   -0.1811   -0.0108 C   0  0  0  0  0  0  0  0  0  0  0  0
    0.4367    0.2613    0.0763 C   0  0  0  0  0  0  0  0  0  0  0  0
    0.6691    1.5174    0.0149 O   0  0  0  0  0  0  0  0  0  0  0  0
    1.5115   -0.5854    0.2187 O   0  0  0  0  0  0  0  0  0  0  0  0
   -9.6964   -1.9476   -2.1754 O   0  0  0  0  0  0  0  0  0  0  0  0
   -9.4586   -1.3477   -0.9540 C   0  0  0  0  0  0  0  0  0  0  0  0
   -8.0218   -1.1807   -0.6237 C   0  0  0  0  0  0  0  0  0  0  0  0
   -7.4191    0.0626   -0.6927 C   0  0  0  0  0  0  0  0  0  0  0  0
   -6.0640    0.2173   -0.3559 C   0  0  0  0  0  0  0  0  0  0  0  0
   -5.3248   -0.8740    0.0445 C   0  0  0  0  0  0  0  0  0  0  0  0
   -5.9206   -2.1115    0.1131 C   0  0  0  0  0  0  0  0  0  0  0  0
   -7.2645   -2.2609   -0.2208 C   0  0  0  0  0  0  0  0  0  0  0  0
   -7.8636   -3.5234   -0.1497 O   0  0  0  0  0  0  0  0  0  0  0  0
   -5.4504    1.6067   -0.4100 C   0  0  2  0  0  0  0  0  0  0  0  0
   -4.4251    1.7777    0.6404 C   0  0  0  0  0  0  0  0  0  0  0  0
   -3.1121    1.2030    0.4152 N   0  0  0  0  0  0  0  0  0  0  0  0
   -2.3633    1.1774    1.6321 C   0  0  0  0  0  0  0  0  0  0  0  0
   -0.8950    0.9254    1.3887 C   0  0  0  0  0  0  0  0  0  0  0  0
   -0.6654   -0.3330    0.6548 C   0  0  0  0  0  0  0  0  0  0  0  0
    0.7104   -0.8224    0.5787 C   0  0  0  0  0  0  0  0  0  0  0  0
    1.7864    0.0446    0.0492 C   0  0  0  0  0  0  0  0  0  0  0  0
    2.1235    1.2609    0.8316 C   0  0  0  0  0  0  0  0  0  0  0  0
    3.1992    1.9573    0.3092 O   0  0  0  0  0  0  0  0  0  0  0  0
    4.3764    1.2457    0.3952 C   0  0  0  0  0  0  0  0  0  0  0  0
    5.5727    2.1086    0.0089 C   0  0  0  0  0  0  0  0  0  0  0  0
    6.7315    1.3862    0.1366 O   0  0  0  0  0  0  0  0  0  0  0  0
    6.8623    0.2601   -0.6432 C   0  0  0  0  0  0  0  0  0  0  0  0
    8.1719   -0.3955   -0.3117 C   0  0  0  0  0  0  0  0  0  0  0  0
    8.3403   -1.6799   -0.8298 C   0  0  0  0  0  0  0  0  0  0  0  0
    7.0672   -2.4223   -1.8056 Cl  0  0  0  0  0  0  0  0  0  0  0  0
    9.5089   -2.3849   -0.5809 C   0  0  0  0  0  0  0  0  0  0  0  0
   10.4716   -1.7654    0.1857 C   0  0  0  0  0  0  0  0  0  0  0  0
   10.3055   -0.4910    0.6978 C   0  0  0  0  0  0  0  0  0  0  0  0
    9.1395    0.1933    0.4418 C   0  0  0  0  0  0  0  0  0  0  0  0
    8.9046    1.8045    1.0771 Cl  0  0  0  0  0  0  0  0  0  0  0  0
   -6.5683    2.3810    0.0752 O   0  0  0  0  0  0  0  0  0  0  0  0
   -1.5181    0.0788    0.9280 H   0  0  0  0  0  0  0  0  0  0  0  0
   -1.0574   -1.2333   -0.2752 H   0  0  0  0  0  0  0  0  0  0  0  0
   -1.4914    0.4236   -0.8035 H   0  0  0  0  0  0  0  0  0  0  0  0
    2.4212   -0.2813   -0.1485 H   0  0  0  0  0  0  0  0  0  0  0  0
   -9.4458   -2.9178   -2.0575 H   0  0  0  0  0  0  0  0  0  0  0  0
   -9.9825   -0.3565   -0.9898 H   0  0  0  0  0  0  0  0  0  0  0  0
   -9.9988   -1.9109   -0.1600 H   0  0  0  0  0  0  0  0  0  0  0  0
   -8.0175    0.9057   -1.0106 H   0  0  0  0  0  0  0  0  0  0  0  0
   -4.2799   -0.8126    0.3124 H   0  0  0  0  0  0  0  0  0  0  0  0
   -5.3150   -2.9629    0.4329 H   0  0  0  0  0  0  0  0  0  0  0  0
   -8.5109   -3.7470    0.6061 H   0  0  0  0  0  0  0  0  0  0  0  0
   -5.2113    1.9629   -1.3784 H   0  0  0  0  0  0  0  0  0  0  0  0
   -4.2281    2.8888    0.7045 H   0  0  0  0  0  0  0  0  0  0  0  0
   -4.7996    1.5366    1.6694 H   0  0  0  0  0  0  0  0  0  0  0  0
   -2.6239    1.6179   -0.3878 H   0  0  0  0  0  0  0  0  0  0  0  0
   -2.6884    0.3102    2.2915 H   0  0  0  0  0  0  0  0  0  0  0  0
   -2.5324    2.0712    2.2804 H   0  0  0  0  0  0  0  0  0  0  0  0
   -0.6565    1.8290    0.7148 H   0  0  0  0  0  0  0  0  0  0  0  0
   -0.3594    0.9392    2.3331 H   0  0  0  0  0  0  0  0  0  0  0  0
   -1.0151   -0.2268   -0.4420 H   0  0  0  0  0  0  0  0  0  0  0  0
   -1.3818   -1.1272    1.0410 H   0  0  0  0  0  0  0  0  0  0  0  0
    0.7476   -1.8398    0.0238 H   0  0  0  0  0  0  0  0  0  0  0  0
    0.9895   -1.1571    1.6504 H   0  0  0  0  0  0  0  0  0  0  0  0
    2.7319   -0.5784   -0.1210 H   0  0  0  0  0  0  0  0  0  0  0  0
    1.5692    0.3646   -1.0297 H   0  0  0  0  0  0  0  0  0  0  0  0
    1.2926    1.9747    1.0041 H   0  0  0  0  0  0  0  0  0  0  0  0
    2.4082    0.8718    1.8745 H   0  0  0  0  0  0  0  0  0  0  0  0
    4.3348    0.4594   -0.4266 H   0  0  0  0  0  0  0  0  0  0  0  0
    4.4726    0.7805    1.3794 H   0  0  0  0  0  0  0  0  0  0  0  0
    5.6518    2.9880    0.6869 H   0  0  0  0  0  0  0  0  0  0  0  0
    5.4908    2.4608   -1.0375 H   0  0  0  0  0  0  0  0  0  0  0  0
    6.9702    0.5402   -1.7292 H   0  0  0  0  0  0  0  0  0  0  0  0
    6.0946   -0.4981   -0.4672 H   0  0  0  0  0  0  0  0  0  0  0  0
    9.6095   -3.3734   -0.9912 H   0  0  0  0  0  0  0  0  0  0  0  0
   11.3785   -2.3441    0.3643 H   0  0  0  0  0  0  0  0  0  0  0  0
   11.0731   -0.0199    1.2983 H   0  0  0  0  0  0  0  0  0  0  0  0
   -6.5270    3.2988   -0.3018 H   0  0  0  0  0  0  0  0  0  0  0  0
  1  2  1  0
  2  3  2  0
  2  4  1  0
  5  6  1  0
  6  7  1  0
  7  8  2  0
  8  9  1  0
  9 10  2  0
 10 11  1  0
 11 12  2  0
 12 13  1  0
  9 14  1  0
 14 15  1  0
 15 16  1  0
 16 17  1  0
 17 18  1  0
 18 19  1  0
 19 20  1  0
 20 21  1  0
 21 22  1  0
 22 23  1  0
 23 24  1  0
 24 25  1  0
 25 26  1  0
 26 27  1  0
 27 28  1  0
 28 29  2  0
 29 30  1  0
 29 31  1  0
 31 32  2  0
 32 33  1  0
 33 34  2  0
 34 35  1  0
 14 36  1  0
 12  7  1  0
 34 28  1  0
  1 37  1  0
  1 38  1  0
  1 39  1  0
  4 40  1  0
  5 41  1  0
  6 42  1  0
  6 43  1  0
  8 44  1  0
 10 45  1  0
 11 46  1  0
 13 47  1  0
 14 48  1  6
 15 49  1  0
 15 50  1  0
 16 51  1  0
 17 52  1  0
 17 53  1  0
 18 54  1  0
 18 55  1  0
 19 56  1  0
 19 57  1  0
 20 58  1  0
 20 59  1  0
 21 60  1  0
 21 61  1  0
 22 62  1  0
 22 63  1  0
 24 64  1  0
 24 65  1  0
 25 66  1  0
 25 67  1  0
 27 68  1  0
 27 69  1  0
 31 70  1  0
 32 71  1  0
 33 72  1  0
 36 73  1  0
M  END
>  <Ligand ID>  (1) 
LIG0003333

>  <Ligand>  (1) 
SCHEMBL925229

>  <SMILES>  (1) 
CC(=O)O.OCc1cc(ccc1O)[C@H](CNCCCCCCOCCOCc1c(Cl)cccc1Cl)O

>  <CID>  (1) 
46832510.0

>  <ChEMBL ID>  (1) 
nan

>  <InChiKey>  (1) 
TVWAEQRFKRTYIG-JIDHJSLPSA-N

>  <InChi>  (1) 
InChI=1S/C24H33Cl2NO5.C2H4O2/c25-21-6-5-7-22(26)20(21)17-32-13-12-31-11-4-2-1-3-10-27-15-24(30)18-8-9-23(29)19(14-18)16-28;1-2(3)4/h5-9,14,24,27-30H,1-4,10-13,15-17H2;1H3,(H,3,4)/t24-;/m0./s1

>  <IUPAC Name>  (1) 
acetic acid;4-[(1R)-2-[6-[2-[(2,6-dichlorophenyl)methoxy]ethoxy]hexylamino]-1-hydroxyethyl]-2-(hydroxymethyl)phenol

$$$$
