
     RDKit          3D

 89 93  0  0  0  0  0  0  0  0999 V2000
   -6.5523   -6.2751    1.3681 Cl  0  0  0  0  0  0  0  0  0  0  0  0
   -5.3487   -5.0047    1.3489 C   0  0  0  0  0  0  0  0  0  0  0  0
   -3.9874   -5.2689    1.3335 C   0  0  0  0  0  0  0  0  0  0  0  0
   -3.0754   -4.2123    1.3188 C   0  0  0  0  0  0  0  0  0  0  0  0
   -3.4875   -2.8933    1.3197 C   0  0  0  0  0  0  0  0  0  0  0  0
   -4.8398   -2.6283    1.3354 C   0  0  0  0  0  0  0  0  0  0  0  0
   -5.7189   -3.6857    1.3494 C   0  0  0  0  0  0  0  0  0  0  0  0
   -2.4310   -1.8608    1.3234 C   0  0  0  0  0  0  0  0  0  0  0  0
   -1.9082   -1.4482   -0.0205 C   0  0  2  0  0  0  0  0  0  0  0  0
   -0.8649   -0.4296    0.1525 C   0  0  0  0  0  0  0  0  0  0  0  0
   -1.1115    0.7121   -0.3811 O   0  0  0  0  0  0  0  0  0  0  0  0
    0.3695   -0.6251    0.8492 N   0  0  0  0  0  0  0  0  0  0  0  0
    0.7418   -1.8586    1.4964 C   0  0  0  0  0  0  0  0  0  0  0  0
    2.2473   -1.9649    1.4381 C   0  0  0  0  0  0  0  0  0  0  0  0
    2.8839   -3.1363    1.1037 C   0  0  0  0  0  0  0  0  0  0  0  0
    4.2686   -3.1485    1.1002 C   0  0  0  0  0  0  0  0  0  0  0  0
    5.0087   -2.0326    1.4182 C   0  0  0  0  0  0  0  0  0  0  0  0
    4.3803   -0.8474    1.7560 C   0  0  0  0  0  0  0  0  0  0  0  0
    3.0084   -0.8471    1.7559 C   0  0  0  0  0  0  0  0  0  0  0  0
    2.1955    0.3843    2.0776 C   0  0  0  0  0  0  0  0  0  0  0  0
    1.2723    0.5187    0.8599 C   0  0  0  0  0  0  0  0  0  0  0  0
    2.1921    0.4473   -0.3183 C   0  0  0  0  0  0  0  0  0  0  0  0
    2.2482   -0.6126   -0.9499 O   0  0  0  0  0  0  0  0  0  0  0  0
    2.9919    1.5852   -0.7121 N   0  0  0  0  0  0  0  0  0  0  0  0
    3.8403    1.3660   -1.8666 C   0  0  1  0  0  0  0  0  0  0  0  0
    3.0839    1.7763   -3.1198 C   0  0  0  0  0  0  0  0  0  0  0  0
    3.7078    1.6574   -4.2091 O   0  0  0  0  0  0  0  0  0  0  0  0
    1.7503    2.2617   -3.0401 N   0  0  0  0  0  0  0  0  0  0  0  0
    5.1655    2.0354   -1.8229 C   0  0  0  0  0  0  0  0  0  0  0  0
    6.0314    1.6583   -0.6876 C   0  0  0  0  0  0  0  0  0  0  0  0
    5.9805    2.4392    0.4713 C   0  0  0  0  0  0  0  0  0  0  0  0
    6.7786    2.1447    1.5708 C   0  0  0  0  0  0  0  0  0  0  0  0
    7.6357    1.0580    1.5101 C   0  0  0  0  0  0  0  0  0  0  0  0
    7.7092    0.2718    0.3895 C   0  0  0  0  0  0  0  0  0  0  0  0
    6.8903    0.5974   -0.7033 C   0  0  0  0  0  0  0  0  0  0  0  0
    8.4526    0.7721    2.6484 N   0  0  0  0  0  0  0  0  0  0  0  0
    8.3796    1.4873    3.6713 O   0  0  0  0  0  0  0  0  0  0  0  0
    9.3438   -0.2825    2.6801 O   0  0  0  0  0  0  0  0  0  0  0  0
   -2.9708   -0.9875   -0.8823 N   0  0  0  0  0  0  0  0  0  0  0  0
   -3.9306    0.0062   -0.5503 C   0  0  0  0  0  0  0  0  0  0  0  0
   -3.8944    0.6107    0.5839 O   0  0  0  0  0  0  0  0  0  0  0  0
   -5.0302    0.4135   -1.4361 C   0  0  2  0  0  0  0  0  0  0  0  0
   -4.7003    1.1967   -2.6464 C   0  0  0  0  0  0  0  0  0  0  0  0
   -4.0560    2.4907   -2.3513 C   0  0  0  0  0  0  0  0  0  0  0  0
   -4.7973    3.6459   -2.0898 C   0  0  0  0  0  0  0  0  0  0  0  0
   -3.9571    4.6731   -1.8307 N   0  0  0  0  0  0  0  0  0  0  0  0
   -2.6879    4.1838   -1.9251 C   0  0  0  0  0  0  0  0  0  0  0  0
   -2.7890    2.8634   -2.2413 N   0  0  0  0  0  0  0  0  0  0  0  0
   -5.9765    1.2569   -0.6706 N   0  0  0  0  0  0  0  0  0  0  0  0
   -7.3012    0.7801   -0.4423 C   0  0  0  0  0  0  0  0  0  0  0  0
   -7.6549   -0.3483   -0.8944 O   0  0  0  0  0  0  0  0  0  0  0  0
   -8.2863    1.6033    0.3301 C   0  0  0  0  0  0  0  0  0  0  0  0
   -3.6234   -6.2848    1.3347 H   0  0  0  0  0  0  0  0  0  0  0  0
   -2.0387   -4.4896    1.3073 H   0  0  0  0  0  0  0  0  0  0  0  0
   -5.2378   -1.6317    1.3473 H   0  0  0  0  0  0  0  0  0  0  0  0
   -6.7866   -3.4538    1.3610 H   0  0  0  0  0  0  0  0  0  0  0  0
   -2.8674   -0.9615    1.8058 H   0  0  0  0  0  0  0  0  0  0  0  0
   -1.6465   -2.1864    2.0296 H   0  0  0  0  0  0  0  0  0  0  0  0
   -1.4329   -2.2960   -0.5664 H   0  0  0  0  0  0  0  0  0  0  0  0
    0.3728   -2.7693    1.0220 H   0  0  0  0  0  0  0  0  0  0  0  0
    0.5480   -1.8298    2.5949 H   0  0  0  0  0  0  0  0  0  0  0  0
    2.3025   -4.0227    0.8522 H   0  0  0  0  0  0  0  0  0  0  0  0
    4.8027   -4.0712    0.8368 H   0  0  0  0  0  0  0  0  0  0  0  0
    6.0949   -2.0220    1.4210 H   0  0  0  0  0  0  0  0  0  0  0  0
    4.8935    0.0595    2.0183 H   0  0  0  0  0  0  0  0  0  0  0  0
    2.8657    1.2382    2.1529 H   0  0  0  0  0  0  0  0  0  0  0  0
    1.5888    0.2397    3.0012 H   0  0  0  0  0  0  0  0  0  0  0  0
    0.7522    1.4807    0.9133 H   0  0  0  0  0  0  0  0  0  0  0  0
    2.9411    2.4795   -0.1899 H   0  0  0  0  0  0  0  0  0  0  0  0
    3.9465    0.2723   -2.0019 H   0  0  0  0  0  0  0  0  0  0  0  0
    0.9262    1.5932   -3.1171 H   0  0  0  0  0  0  0  0  0  0  0  0
    1.4966    3.2629   -2.9065 H   0  0  0  0  0  0  0  0  0  0  0  0
    5.7705    1.8316   -2.7509 H   0  0  0  0  0  0  0  0  0  0  0  0
    5.0478    3.1606   -1.7724 H   0  0  0  0  0  0  0  0  0  0  0  0
    5.3057    3.2703    0.4738 H   0  0  0  0  0  0  0  0  0  0  0  0
    6.7440    2.7523    2.4792 H   0  0  0  0  0  0  0  0  0  0  0  0
    8.3786   -0.5963    0.3081 H   0  0  0  0  0  0  0  0  0  0  0  0
    6.9609   -0.0300   -1.5768 H   0  0  0  0  0  0  0  0  0  0  0  0
   -3.0931   -1.3944   -1.8659 H   0  0  0  0  0  0  0  0  0  0  0  0
   -5.6281   -0.4810   -1.7351 H   0  0  0  0  0  0  0  0  0  0  0  0
   -5.6359    1.4312   -3.2388 H   0  0  0  0  0  0  0  0  0  0  0  0
   -4.0887    0.5860   -3.3561 H   0  0  0  0  0  0  0  0  0  0  0  0
   -5.8872    3.7449   -2.0880 H   0  0  0  0  0  0  0  0  0  0  0  0
   -1.7874    4.7709   -1.7675 H   0  0  0  0  0  0  0  0  0  0  0  0
   -1.9618    2.2534   -2.3867 H   0  0  0  0  0  0  0  0  0  0  0  0
   -5.6949    2.1865   -0.2942 H   0  0  0  0  0  0  0  0  0  0  0  0
   -9.1000    0.9443    0.6767 H   0  0  0  0  0  0  0  0  0  0  0  0
   -8.6850    2.4180   -0.3015 H   0  0  0  0  0  0  0  0  0  0  0  0
   -7.7437    2.0456    1.2112 H   0  0  0  0  0  0  0  0  0  0  0  0
  1  2  1  0
  2  3  2  0
  3  4  1  0
  4  5  2  0
  5  6  1  0
  6  7  2  0
  5  8  1  0
  8  9  1  0
  9 10  1  0
 10 11  2  0
 10 12  1  0
 12 13  1  0
 13 14  1  0
 14 15  2  0
 15 16  1  0
 16 17  2  0
 17 18  1  0
 18 19  2  0
 19 20  1  0
 20 21  1  0
 21 22  1  0
 22 23  2  0
 22 24  1  0
 24 25  1  0
 25 26  1  0
 26 27  2  0
 26 28  1  0
 25 29  1  0
 29 30  1  0
 30 31  2  0
 31 32  1  0
 32 33  2  0
 33 34  1  0
 34 35  2  0
 33 36  1  0
 36 37  2  0
 36 38  1  0
  9 39  1  0
 39 40  1  0
 40 41  2  0
 40 42  1  0
 42 43  1  0
 43 44  1  0
 44 45  2  0
 45 46  1  0
 46 47  2  0
 47 48  1  0
 42 49  1  0
 49 50  1  0
 50 51  2  0
 50 52  1  0
  7  2  1  0
 21 12  1  0
 35 30  1  0
 48 44  1  0
 19 14  1  0
  3 53  1  0
  4 54  1  0
  6 55  1  0
  7 56  1  0
  8 57  1  0
  8 58  1  0
  9 59  1  6
 13 60  1  0
 13 61  1  0
 15 62  1  0
 16 63  1  0
 17 64  1  0
 18 65  1  0
 20 66  1  0
 20 67  1  0
 21 68  1  0
 24 69  1  0
 25 70  1  6
 28 71  1  0
 28 72  1  0
 29 73  1  0
 29 74  1  0
 31 75  1  0
 32 76  1  0
 34 77  1  0
 35 78  1  0
 39 79  1  0
 42 80  1  6
 43 81  1  0
 43 82  1  0
 45 83  1  0
 47 84  1  0
 48 85  1  0
 49 86  1  0
 52 87  1  0
 52 88  1  0
 52 89  1  0
M  CHG  2  36   1  38  -1
M  END
>  <Ligand ID>  (1) 
LIG0000885

>  <Ligand>  (1) 
CHEMBL3287326

>  <SMILES>  (1) 
Clc1ccc(cc1)C[C@H](C(=O)N1Cc2ccccc2CC1C(=O)N[C@@H](C(=O)N)Cc1ccc(cc1)[N+](=O)[O-])NC(=O)[C@H](Cc1cnc[nH]1)NC(=O)C

>  <CID>  (1) 
90643806.0

>  <ChEMBL ID>  (1) 
nan

>  <InChiKey>  (1) 
YWGVRYQGDWGUEQ-NUMJAJDCSA-N

>  <InChi>  (1) 
InChI=1S/C36H37ClN8O7/c1-21(46)41-30(17-27-18-39-20-40-27)34(48)43-31(15-22-6-10-26(37)11-7-22)36(50)44-19-25-5-3-2-4-24(25)16-32(44)35(49)42-29(33(38)47)14-23-8-12-28(13-9-23)45(51)52/h2-13,18,20,29-32H,14-17,19H2,1H3,(H2,38,47)(H,39,40)(H,41,46)(H,42,49)(H,43,48)/t29-,30+,31-,32?/m1/s1

>  <IUPAC Name>  (1) 
2-[(2R)-2-[[(2S)-2-acetamido-3-(1H-imidazol-5-yl)propanoyl]amino]-3-(4-chlorophenyl)propanoyl]-N-[(2R)-1-amino-3-(4-nitrophenyl)-1-oxopropan-2-yl]-3,4-dihydro-1H-isoquinoline-3-carboxamide

$$$$
