
     RDKit          3D

 23 23  0  0  0  0  0  0  0  0999 V2000
   -2.7150   -0.5569    0.7247 N   0  0  0  0  0  0  0  0  0  0  0  0
   -2.4336    0.4020   -0.3011 C   0  0  0  0  0  0  0  0  0  0  0  0
   -1.3050   -0.0584   -1.2216 C   0  0  1  0  0  0  0  0  0  0  0  0
   -0.0037   -0.1258   -0.5235 C   0  0  0  0  0  0  0  0  0  0  0  0
    0.3518   -1.1979    0.2789 C   0  0  0  0  0  0  0  0  0  0  0  0
    1.5786   -1.2442    0.9269 C   0  0  0  0  0  0  0  0  0  0  0  0
    2.4478   -0.2087    0.7659 C   0  0  0  0  0  0  0  0  0  0  0  0
    2.1348    0.8656   -0.0162 C   0  0  0  0  0  0  0  0  0  0  0  0
    0.9241    0.8989   -0.6486 C   0  0  0  0  0  0  0  0  0  0  0  0
    3.0055    1.9337   -0.1953 O   0  0  0  0  0  0  0  0  0  0  0  0
    3.6852   -0.2332    1.4068 O   0  0  0  0  0  0  0  0  0  0  0  0
   -1.6409   -1.2424   -1.8369 O   0  0  0  0  0  0  0  0  0  0  0  0
   -3.6631   -0.9750    0.5921 H   0  0  0  0  0  0  0  0  0  0  0  0
   -2.7567   -0.0438    1.6550 H   0  0  0  0  0  0  0  0  0  0  0  0
   -3.3092    0.5917   -0.9467 H   0  0  0  0  0  0  0  0  0  0  0  0
   -2.1457    1.3989    0.1102 H   0  0  0  0  0  0  0  0  0  0  0  0
   -1.2207    0.7120   -2.0308 H   0  0  0  0  0  0  0  0  0  0  0  0
   -0.3770   -2.0137    0.3834 H   0  0  0  0  0  0  0  0  0  0  0  0
    1.7773   -2.1113    1.5309 H   0  0  0  0  0  0  0  0  0  0  0  0
    0.6193    1.7376   -1.2897 H   0  0  0  0  0  0  0  0  0  0  0  0
    2.8453    2.7663    0.3812 H   0  0  0  0  0  0  0  0  0  0  0  0
    4.2753    0.5888    1.4852 H   0  0  0  0  0  0  0  0  0  0  0  0
   -2.0744   -1.8840   -1.2308 H   0  0  0  0  0  0  0  0  0  0  0  0
  1  2  1  0
  2  3  1  0
  3  4  1  0
  4  5  2  0
  5  6  1  0
  6  7  2  0
  7  8  1  0
  8  9  2  0
  8 10  1  0
  7 11  1  0
  3 12  1  0
  9  4  1  0
  1 13  1  0
  1 14  1  0
  2 15  1  0
  2 16  1  0
  3 17  1  6
  5 18  1  0
  6 19  1  0
  9 20  1  0
 10 21  1  0
 11 22  1  0
 12 23  1  0
M  END
>  <Ligand ID>  (1) 
LIG0000495

>  <Ligand>  (1) 
(-)-noradrenaline

>  <SMILES>  (1) 
NC[C@@H](c1ccc(c(c1)O)O)O

>  <CID>  (1) 
439260.0

>  <ChEMBL ID>  (1) 
nan

>  <InChiKey>  (1) 
SFLSHLFXELFNJZ-QMMMGPOBSA-N

>  <InChi>  (1) 
InChI=1S/C8H11NO3/c9-4-8(12)5-1-2-6(10)7(11)3-5/h1-3,8,10-12H,4,9H2/t8-/m0/s1

>  <IUPAC Name>  (1) 
4-[(1R)-2-amino-1-hydroxyethyl]benzene-1,2-diol

$$$$
