
     RDKit          3D

 65 69  0  0  0  0  0  0  0  0999 V2000
   -7.3092    1.7611   -3.7899 C   0  0  0  0  0  0  0  0  0  0  0  0
   -5.9801    1.2986   -3.6386 O   0  0  0  0  0  0  0  0  0  0  0  0
   -5.4621    1.2958   -2.3390 C   0  0  0  0  0  0  0  0  0  0  0  0
   -6.2060    1.7236   -1.2533 C   0  0  0  0  0  0  0  0  0  0  0  0
   -5.6237    1.6894   -0.0074 C   0  0  0  0  0  0  0  0  0  0  0  0
   -4.3167    1.2357    0.1643 C   0  0  0  0  0  0  0  0  0  0  0  0
   -3.5753    0.8065   -0.9389 C   0  0  0  0  0  0  0  0  0  0  0  0
   -4.1491    0.8389   -2.1785 C   0  0  0  0  0  0  0  0  0  0  0  0
   -3.4203    0.4212   -3.2382 F   0  0  0  0  0  0  0  0  0  0  0  0
   -2.2263    0.3446   -0.6618 C   0  0  0  0  0  0  0  0  0  0  0  0
   -1.0854    0.9384   -1.1217 C   0  0  0  0  0  0  0  0  0  0  0  0
    0.1448    0.3731   -0.7658 C   0  0  0  0  0  0  0  0  0  0  0  0
    1.1811    0.9311   -1.2007 O   0  0  0  0  0  0  0  0  0  0  0  0
    0.2291   -0.7187    0.0034 N   0  0  0  0  0  0  0  0  0  0  0  0
   -0.9068   -1.2831    0.4415 N   0  0  0  0  0  0  0  0  0  0  0  0
   -2.1192   -0.7927    0.1377 C   0  0  0  0  0  0  0  0  0  0  0  0
   -3.3368   -1.4558    0.6530 C   0  0  0  0  0  0  0  0  0  0  0  0
   -4.2865   -1.9907   -0.1903 C   0  0  0  0  0  0  0  0  0  0  0  0
   -5.3853   -2.5899    0.3798 C   0  0  0  0  0  0  0  0  0  0  0  0
   -5.5722   -2.6757    1.7508 C   0  0  0  0  0  0  0  0  0  0  0  0
   -4.5945   -2.1259    2.5647 C   0  0  0  0  0  0  0  0  0  0  0  0
   -3.4633   -1.5082    2.0442 C   0  0  0  0  0  0  0  0  0  0  0  0
    1.4515   -1.3393    0.4387 C   0  0  0  0  0  0  0  0  0  0  0  0
    1.8360   -0.8375    1.7888 C   0  0  0  0  0  0  0  0  0  0  0  0
    2.0759    0.6213    1.8943 C   0  0  0  0  0  0  0  0  0  0  0  0
    3.3576    1.1200    1.3264 C   0  0  0  0  0  0  0  0  0  0  0  0
    4.3421    0.0412    1.0591 C   0  0  0  0  0  0  0  0  0  0  0  0
    4.2230   -1.2372    1.5217 C   0  0  0  0  0  0  0  0  0  0  0  0
    3.0495   -1.5834    2.3401 C   0  0  0  0  0  0  0  0  0  0  0  0
    5.1454   -2.2331    1.2680 C   0  0  0  0  0  0  0  0  0  0  0  0
    6.2420   -1.8991    0.5033 C   0  0  0  0  0  0  0  0  0  0  0  0
    6.3817   -0.6003    0.0222 C   0  0  0  0  0  0  0  0  0  0  0  0
    5.4547    0.3863    0.2816 C   0  0  0  0  0  0  0  0  0  0  0  0
    5.5887    1.6682   -0.1916 O   0  0  0  0  0  0  0  0  0  0  0  0
    6.6495    2.1447   -0.9692 C   0  0  0  0  0  0  0  0  0  0  0  0
    7.9710    2.0682   -0.3106 C   0  0  0  0  0  0  0  0  0  0  0  0
    8.9777    2.4487   -0.9657 O   0  0  0  0  0  0  0  0  0  0  0  0
    8.1778    1.6086    0.9763 O   0  0  0  0  0  0  0  0  0  0  0  0
   -8.0216    1.1129   -3.1988 H   0  0  0  0  0  0  0  0  0  0  0  0
   -7.4501    2.7877   -3.3603 H   0  0  0  0  0  0  0  0  0  0  0  0
   -7.6680    1.6918   -4.8260 H   0  0  0  0  0  0  0  0  0  0  0  0
   -7.2150    2.0742   -1.3771 H   0  0  0  0  0  0  0  0  0  0  0  0
   -6.1723    2.0148    0.8637 H   0  0  0  0  0  0  0  0  0  0  0  0
   -3.8844    1.2225    1.1736 H   0  0  0  0  0  0  0  0  0  0  0  0
   -1.1670    1.8119   -1.7358 H   0  0  0  0  0  0  0  0  0  0  0  0
   -4.1479   -1.9286   -1.2562 H   0  0  0  0  0  0  0  0  0  0  0  0
   -6.1456   -3.0166   -0.2433 H   0  0  0  0  0  0  0  0  0  0  0  0
   -6.4507   -3.1543    2.1907 H   0  0  0  0  0  0  0  0  0  0  0  0
   -4.7090   -2.1753    3.6587 H   0  0  0  0  0  0  0  0  0  0  0  0
   -2.7118   -1.0853    2.6848 H   0  0  0  0  0  0  0  0  0  0  0  0
    1.2863   -2.4521    0.5308 H   0  0  0  0  0  0  0  0  0  0  0  0
    2.2442   -1.1329   -0.3171 H   0  0  0  0  0  0  0  0  0  0  0  0
    1.0019   -1.0626    2.5355 H   0  0  0  0  0  0  0  0  0  0  0  0
    2.0649    0.8649    2.9926 H   0  0  0  0  0  0  0  0  0  0  0  0
    1.2333    1.2137    1.4741 H   0  0  0  0  0  0  0  0  0  0  0  0
    3.8082    1.8434    2.0591 H   0  0  0  0  0  0  0  0  0  0  0  0
    3.2303    1.7223    0.3881 H   0  0  0  0  0  0  0  0  0  0  0  0
    2.8662   -2.6768    2.3424 H   0  0  0  0  0  0  0  0  0  0  0  0
    3.2102   -1.1642    3.3527 H   0  0  0  0  0  0  0  0  0  0  0  0
    5.0552   -3.2470    1.6337 H   0  0  0  0  0  0  0  0  0  0  0  0
    6.9928   -2.6732    0.2852 H   0  0  0  0  0  0  0  0  0  0  0  0
    7.2653   -0.4205   -0.5732 H   0  0  0  0  0  0  0  0  0  0  0  0
    6.6607    1.6386   -1.9726 H   0  0  0  0  0  0  0  0  0  0  0  0
    6.4365    3.2279   -1.1984 H   0  0  0  0  0  0  0  0  0  0  0  0
    8.9272    2.0680    1.5025 H   0  0  0  0  0  0  0  0  0  0  0  0
  1  2  1  0
  2  3  1  0
  3  4  2  0
  4  5  1  0
  5  6  2  0
  6  7  1  0
  7  8  2  0
  8  9  1  0
  7 10  1  0
 10 11  2  0
 11 12  1  0
 12 13  2  0
 12 14  1  0
 14 15  1  0
 15 16  2  0
 16 17  1  0
 17 18  2  0
 18 19  1  0
 19 20  2  0
 20 21  1  0
 21 22  2  0
 14 23  1  0
 23 24  1  0
 24 25  1  0
 25 26  1  0
 26 27  1  0
 27 28  2  0
 28 29  1  0
 28 30  1  0
 30 31  2  0
 31 32  1  0
 32 33  2  0
 33 34  1  0
 34 35  1  0
 35 36  1  0
 36 37  2  0
 36 38  1  0
  8  3  1  0
 16 10  1  0
 22 17  1  0
 29 24  1  0
 33 27  1  0
  1 39  1  0
  1 40  1  0
  1 41  1  0
  4 42  1  0
  5 43  1  0
  6 44  1  0
 11 45  1  0
 18 46  1  0
 19 47  1  0
 20 48  1  0
 21 49  1  0
 22 50  1  0
 23 51  1  0
 23 52  1  0
 24 53  1  0
 25 54  1  0
 25 55  1  0
 26 56  1  0
 26 57  1  0
 29 58  1  0
 29 59  1  0
 30 60  1  0
 31 61  1  0
 32 62  1  0
 35 63  1  0
 35 64  1  0
 38 65  1  0
M  END
>  <Ligand ID>  (1) 
LIG0004855

>  <Ligand>  (1) 
CHEMBL3398212

>  <SMILES>  (1) 
COc1cccc(c1F)c1cc(=O)n(nc1c1ccccc1)CC1CCc2c(C1)cccc2OCC(=O)O

>  <CID>  (1) 
118727291.0

>  <ChEMBL ID>  (1) 
nan

>  <InChiKey>  (1) 
MSMYVKJYMACFCG-UHFFFAOYSA-N

>  <InChi>  (1) 
InChI=1S/C30H27FN2O5/c1-37-26-12-6-10-23(29(26)31)24-16-27(34)33(32-30(24)20-7-3-2-4-8-20)17-19-13-14-22-21(15-19)9-5-11-25(22)38-18-28(35)36/h2-12,16,19H,13-15,17-18H2,1H3,(H,35,36)

>  <IUPAC Name>  (1) 
2-[[6-[[4-(2-fluoro-3-methoxyphenyl)-6-oxo-3-phenylpyridazin-1-yl]methyl]-5,6,7,8-tetrahydronaphthalen-1-yl]oxy]acetic acid

$$$$
