
     RDKit          3D

 40 43  0  0  0  0  0  0  0  0999 V2000
   -4.4112    3.7192   -1.6015 Cl  0  0  0  0  0  0  0  0  0  0  0  0
   -2.8029    3.0095   -1.4118 C   0  0  0  0  0  0  0  0  0  0  0  0
   -1.7185    3.7405   -1.9007 C   0  0  0  0  0  0  0  0  0  0  0  0
   -0.4531    3.1909   -1.7556 C   0  0  0  0  0  0  0  0  0  0  0  0
   -0.3218    1.9635   -1.1439 C   0  0  0  0  0  0  0  0  0  0  0  0
   -1.3917    1.2411   -0.6620 C   0  0  0  0  0  0  0  0  0  0  0  0
   -2.6389    1.7835   -0.8042 C   0  0  0  0  0  0  0  0  0  0  0  0
   -1.2591    0.0397   -0.0513 C   0  0  0  0  0  0  0  0  0  0  0  0
    0.0070   -0.4532    0.0810 N   0  0  0  0  0  0  0  0  0  0  0  0
    1.0893    0.2292   -0.3803 C   0  0  0  0  0  0  0  0  0  0  0  0
    0.8999    1.4299   -0.9869 N   0  0  0  0  0  0  0  0  0  0  0  0
    2.4035   -0.3241   -0.2212 N   0  0  0  0  0  0  0  0  0  0  0  0
    2.5077   -1.6040    0.4349 C   0  0  0  0  0  0  0  0  0  0  0  0
    3.9556   -1.9752    0.6158 C   0  0  0  0  0  0  0  0  0  0  0  0
    4.6512   -0.7919    1.0926 N   0  0  0  0  0  0  0  0  0  0  0  0
    4.8284    0.0558   -0.0687 C   0  0  0  0  0  0  0  0  0  0  0  0
    3.5282    0.4242   -0.7211 C   0  0  0  0  0  0  0  0  0  0  0  0
   -2.3265   -0.7771    0.4845 C   0  0  0  0  0  0  0  0  0  0  0  0
   -3.4568   -1.1470   -0.2043 C   0  0  0  0  0  0  0  0  0  0  0  0
   -4.4510   -1.9121    0.3757 C   0  0  0  0  0  0  0  0  0  0  0  0
   -4.3276   -2.3310    1.6869 C   0  0  0  0  0  0  0  0  0  0  0  0
   -3.1821   -1.9593    2.3914 C   0  0  0  0  0  0  0  0  0  0  0  0
   -2.1867   -1.1926    1.8100 C   0  0  0  0  0  0  0  0  0  0  0  0
   -1.8616    4.7135   -2.3817 H   0  0  0  0  0  0  0  0  0  0  0  0
    0.4016    3.7434   -2.1286 H   0  0  0  0  0  0  0  0  0  0  0  0
   -3.5190    1.2939   -0.4434 H   0  0  0  0  0  0  0  0  0  0  0  0
    1.9895   -2.4136   -0.1157 H   0  0  0  0  0  0  0  0  0  0  0  0
    2.0946   -1.4733    1.4644 H   0  0  0  0  0  0  0  0  0  0  0  0
    4.4225   -2.2565   -0.3601 H   0  0  0  0  0  0  0  0  0  0  0  0
    4.1019   -2.7584    1.3871 H   0  0  0  0  0  0  0  0  0  0  0  0
    4.1095   -0.2988    1.8364 H   0  0  0  0  0  0  0  0  0  0  0  0
    5.3846    0.9610    0.2372 H   0  0  0  0  0  0  0  0  0  0  0  0
    5.4715   -0.5037   -0.7934 H   0  0  0  0  0  0  0  0  0  0  0  0
    3.6591    0.3819   -1.8165 H   0  0  0  0  0  0  0  0  0  0  0  0
    3.3160    1.4966   -0.4884 H   0  0  0  0  0  0  0  0  0  0  0  0
   -3.6062   -0.8681   -1.2336 H   0  0  0  0  0  0  0  0  0  0  0  0
   -5.3316   -2.1869   -0.1952 H   0  0  0  0  0  0  0  0  0  0  0  0
   -5.1116   -2.9314    2.1365 H   0  0  0  0  0  0  0  0  0  0  0  0
   -3.1247   -2.3105    3.4212 H   0  0  0  0  0  0  0  0  0  0  0  0
   -1.3390   -0.9485    2.4143 H   0  0  0  0  0  0  0  0  0  0  0  0
  1  2  1  0
  2  3  2  0
  3  4  1  0
  4  5  2  0
  5  6  1  0
  6  7  2  0
  6  8  1  0
  8  9  2  0
  9 10  1  0
 10 11  2  0
 10 12  1  0
 12 13  1  0
 13 14  1  0
 14 15  1  0
 15 16  1  0
 16 17  1  0
  8 18  1  0
 18 19  2  0
 19 20  1  0
 20 21  2  0
 21 22  1  0
 22 23  2  0
  7  2  1  0
 17 12  1  0
 23 18  1  0
 11  5  1  0
  3 24  1  0
  4 25  1  0
  7 26  1  0
 13 27  1  0
 13 28  1  0
 14 29  1  0
 14 30  1  0
 15 31  1  0
 16 32  1  0
 16 33  1  0
 17 34  1  0
 17 35  1  0
 19 36  1  0
 20 37  1  0
 21 38  1  0
 22 39  1  0
 23 40  1  0
M  END
>  <Ligand ID>  (1) 
LIG0000877

>  <Ligand>  (1) 
MLS000027613

>  <SMILES>  (1) 
Clc1ccc2c(c1)c(nc(n2)N1CCNCC1)c1ccccc1

>  <CID>  (1) 
658787.0

>  <ChEMBL ID>  (1) 
nan

>  <InChiKey>  (1) 
UQUXFXRMNTUFQA-UHFFFAOYSA-N

>  <InChi>  (1) 
InChI=1S/C18H17ClN4/c19-14-6-7-16-15(12-14)17(13-4-2-1-3-5-13)22-18(21-16)23-10-8-20-9-11-23/h1-7,12,20H,8-11H2

>  <IUPAC Name>  (1) 
6-chloro-4-phenyl-2-piperazin-1-ylquinazoline

$$$$
