
     RDKit          3D

 38 38  0  0  0  0  0  0  0  0999 V2000
   -4.7832    0.5725    0.3905 C   0  0  0  0  0  0  0  0  0  0  0  0
   -3.9504    0.9185   -0.8415 C   0  0  0  0  0  0  0  0  0  0  0  0
   -2.2711    1.3315   -0.4008 S   0  0  0  0  0  0  0  0  0  0  0  0
   -1.3516   -0.0254    0.2610 C   0  0  0  0  0  0  0  0  0  0  0  0
   -1.8608   -1.2982    0.4182 C   0  0  0  0  0  0  0  0  0  0  0  0
   -1.1359   -2.3477    0.9374 C   0  0  0  0  0  0  0  0  0  0  0  0
    0.1684   -2.0954    1.3159 C   0  0  0  0  0  0  0  0  0  0  0  0
    0.6931   -0.8213    1.1638 C   0  0  0  0  0  0  0  0  0  0  0  0
   -0.0293    0.2308    0.6445 C   0  0  0  0  0  0  0  0  0  0  0  0
    0.5240    1.5318    0.5026 N   0  0  0  0  0  0  0  0  0  0  0  0
    1.8840    1.8468    0.8771 C   0  0  0  0  0  0  0  0  0  0  0  0
    2.8851    1.0815    0.0501 C   0  0  0  0  0  0  0  0  0  0  0  0
    2.6575    0.2855   -0.9308 N   0  0  0  0  0  0  0  0  0  0  0  0
    3.9258   -0.2292   -1.4293 C   0  0  0  0  0  0  0  0  0  0  0  0
    4.7419   -0.1175   -0.1314 C   0  0  0  0  0  0  0  0  0  0  0  0
    4.2858    1.1918    0.2995 N   0  0  0  0  0  0  0  0  0  0  0  0
   -4.0795   -0.1605   -1.8883 C   0  0  0  0  0  0  0  0  0  0  0  0
    0.0000    0.0000    0.0000 Cl  0  0  0  0  0  0  0  0  0  0  0  0
   -5.5420   -0.1595    0.0746 H   0  0  0  0  0  0  0  0  0  0  0  0
   -4.1451    0.2188    1.2106 H   0  0  0  0  0  0  0  0  0  0  0  0
   -5.3710    1.4588    0.7409 H   0  0  0  0  0  0  0  0  0  0  0  0
   -4.4209    1.8393   -1.2661 H   0  0  0  0  0  0  0  0  0  0  0  0
   -2.8805   -1.4981    0.1223 H   0  0  0  0  0  0  0  0  0  0  0  0
   -1.5372   -3.3447    1.0590 H   0  0  0  0  0  0  0  0  0  0  0  0
    0.7646   -2.9164    1.7319 H   0  0  0  0  0  0  0  0  0  0  0  0
    1.7243   -0.7018    1.4886 H   0  0  0  0  0  0  0  0  0  0  0  0
   -0.0766    2.2892    0.1122 H   0  0  0  0  0  0  0  0  0  0  0  0
    2.0084    1.6239    1.9767 H   0  0  0  0  0  0  0  0  0  0  0  0
    2.0961    2.9307    0.8023 H   0  0  0  0  0  0  0  0  0  0  0  0
    3.8340   -1.2551   -1.7834 H   0  0  0  0  0  0  0  0  0  0  0  0
    4.3459    0.4720   -2.1808 H   0  0  0  0  0  0  0  0  0  0  0  0
    4.3462   -0.8890    0.5423 H   0  0  0  0  0  0  0  0  0  0  0  0
    5.8222   -0.1638   -0.3182 H   0  0  0  0  0  0  0  0  0  0  0  0
    4.7009    1.9320   -0.3047 H   0  0  0  0  0  0  0  0  0  0  0  0
    4.4971    1.3729    1.3031 H   0  0  0  0  0  0  0  0  0  0  0  0
   -4.6653   -1.0244   -1.4768 H   0  0  0  0  0  0  0  0  0  0  0  0
   -3.1108   -0.4707   -2.3000 H   0  0  0  0  0  0  0  0  0  0  0  0
   -4.6940    0.1728   -2.7731 H   0  0  0  0  0  0  0  0  0  0  0  0
  1  2  1  0
  2  3  1  0
  3  4  1  0
  4  5  2  0
  5  6  1  0
  6  7  2  0
  7  8  1  0
  8  9  2  0
  9 10  1  0
 10 11  1  0
 11 12  1  0
 12 13  2  0
 13 14  1  0
 14 15  1  0
 15 16  1  0
  2 17  1  0
  9  4  1  0
 16 12  1  0
  1 19  1  0
  1 20  1  0
  1 21  1  0
  2 22  1  0
  5 23  1  0
  6 24  1  0
  7 25  1  0
  8 26  1  0
 10 27  1  0
 11 28  1  0
 11 29  1  0
 14 30  1  0
 14 31  1  0
 15 32  1  0
 15 33  1  0
 16 34  1  0
 16 35  1  0
 17 36  1  0
 17 37  1  0
 17 38  1  0
M  CHG  2  16   1  18  -1
M  END
>  <Ligand ID>  (1) 
LIG0000915

>  <Ligand>  (1) 
CID 10859075

>  <SMILES>  (1) 
CC(Sc1ccccc1NCC1=NCC[NH2+]1)C.[Cl-]

>  <CID>  (1) 
10859075.0

>  <ChEMBL ID>  (1) 
nan

>  <InChiKey>  (1) 
QBOMVICVWJRPCM-UHFFFAOYSA-N

>  <InChi>  (1) 
InChI=1S/C13H19N3S.ClH/c1-10(2)17-12-6-4-3-5-11(12)16-9-13-14-7-8-15-13;/h3-6,10,16H,7-9H2,1-2H3,(H,14,15);1H

>  <IUPAC Name>  (1) 
N-(4,5-dihydro-1H-imidazol-1-ium-2-ylmethyl)-2-propan-2-ylsulfanylaniline;chloride

$$$$
