
     RDKit          3D

120121  0  0  0  0  0  0  0  0999 V2000
    8.1643   -3.4470   -0.9813 N   0  0  0  0  0  0  0  0  0  0  0  0
    8.3736   -2.2913   -1.8378 C   0  0  0  0  0  0  0  0  0  0  0  0
    7.4046   -1.1764   -1.5632 C   0  0  0  0  0  0  0  0  0  0  0  0
    7.5041   -0.7249   -0.1541 C   0  0  1  0  0  0  0  0  0  0  0  0
    8.8478   -0.2253    0.1989 C   0  0  0  0  0  0  0  0  0  0  0  0
    9.9007   -0.9152    0.1477 O   0  0  0  0  0  0  0  0  0  0  0  0
    9.0560    1.1386    0.6431 N   0  0  0  0  0  0  0  0  0  0  0  0
   10.4212    1.5296    0.9643 C   0  0  0  0  0  0  0  0  0  0  0  0
   11.3370    1.3814   -0.1776 C   0  0  0  0  0  0  0  0  0  0  0  0
   12.5402    1.7014   -0.0089 O   0  0  0  0  0  0  0  0  0  0  0  0
   10.9649    0.9013   -1.4614 N   0  0  0  0  0  0  0  0  0  0  0  0
    6.5528    0.3451    0.1440 N   0  0  0  0  0  0  0  0  0  0  0  0
    5.5056    0.0799    1.0361 C   0  0  0  0  0  0  0  0  0  0  0  0
    5.3643   -1.0411    1.5704 O   0  0  0  0  0  0  0  0  0  0  0  0
    4.5391    1.1963    1.3412 C   0  0  2  0  0  0  0  0  0  0  0  0
    5.1999    2.1284    2.3655 C   0  0  0  0  0  0  0  0  0  0  0  0
    4.8767    1.5723    3.7123 C   0  0  0  0  0  0  0  0  0  0  0  0
    3.9267    0.4269    3.4765 C   0  0  0  0  0  0  0  0  0  0  0  0
    3.4240    0.7165    2.1327 N   0  0  0  0  0  0  0  0  0  0  0  0
    2.0754    0.4805    1.7792 C   0  0  0  0  0  0  0  0  0  0  0  0
    1.3281   -0.0555    2.6422 O   0  0  0  0  0  0  0  0  0  0  0  0
    1.5120    0.8419    0.4129 C   0  0  2  0  0  0  0  0  0  0  0  0
    1.3262    2.3481    0.3568 C   0  0  0  0  0  0  0  0  0  0  0  0
    0.2401    2.9945    1.5972 S   0  0  0  0  0  0  0  0  0  0  0  0
   -1.8127    2.7283    1.2416 S   0  0  0  0  0  0  0  0  0  0  0  0
   -2.4926    4.1762    0.3875 C   0  0  0  0  0  0  0  0  0  0  0  0
   -2.0665    4.2405   -1.0264 C   0  0  2  0  0  0  0  0  0  0  0  0
   -2.2564    5.6045   -1.5765 N   0  0  0  0  0  0  0  0  0  0  0  0
   -3.0456    3.4273   -1.8502 C   0  0  0  0  0  0  0  0  0  0  0  0
   -3.6369    4.0491   -2.7439 O   0  0  0  0  0  0  0  0  0  0  0  0
   -3.3355    2.0678   -1.6967 N   0  0  0  0  0  0  0  0  0  0  0  0
   -4.3711    1.4704   -2.5548 C   0  0  1  0  0  0  0  0  0  0  0  0
   -3.8248    0.4237   -3.4603 C   0  0  0  0  0  0  0  0  0  0  0  0
   -5.5110    0.9801   -1.7246 C   0  0  0  0  0  0  0  0  0  0  0  0
   -6.4852    0.5078   -2.2805 O   0  0  0  0  0  0  0  0  0  0  0  0
   -5.4899    1.0395   -0.3241 N   0  0  0  0  0  0  0  0  0  0  0  0
   -6.3902    0.7418    0.7086 C   0  0  2  0  0  0  0  0  0  0  0  0
   -5.6980   -0.3059    1.5167 C   0  0  0  0  0  0  0  0  0  0  0  0
   -5.9542   -0.5743    2.6998 O   0  0  0  0  0  0  0  0  0  0  0  0
   -4.6599   -1.1051    0.9358 N   0  0  0  0  0  0  0  0  0  0  0  0
   -3.8489   -2.0722    1.6097 C   0  0  2  0  0  0  0  0  0  0  0  0
   -2.5382   -2.3063    0.9624 C   0  0  0  0  0  0  0  0  0  0  0  0
   -1.7302   -3.1696    1.3623 O   0  0  0  0  0  0  0  0  0  0  0  0
   -2.0723   -1.5630   -0.1778 N   0  0  0  0  0  0  0  0  0  0  0  0
   -0.8211   -1.9338   -0.8639 C   0  0  2  0  0  0  0  0  0  0  0  0
    0.2960   -1.0281   -0.5772 C   0  0  0  0  0  0  0  0  0  0  0  0
    1.4014   -1.2917   -1.0914 O   0  0  0  0  0  0  0  0  0  0  0  0
    0.2596    0.1409    0.2353 N   0  0  0  0  0  0  0  0  0  0  0  0
   -1.0443   -2.0162   -2.3510 C   0  0  0  0  0  0  0  0  0  0  0  0
    0.2251   -2.3939   -3.0158 C   0  0  0  0  0  0  0  0  0  0  0  0
    0.9670   -1.5514   -3.6031 O   0  0  0  0  0  0  0  0  0  0  0  0
    0.6829   -3.7373   -3.0294 N   0  0  0  0  0  0  0  0  0  0  0  0
   -4.5670   -3.3739    1.8844 C   0  0  0  0  0  0  0  0  0  0  0  0
   -5.0810   -4.1330    0.7363 C   0  0  0  0  0  0  0  0  0  0  0  0
   -5.7165   -5.3889    1.2926 C   0  0  0  0  0  0  0  0  0  0  0  0
   -5.7362   -5.6089    2.5464 O   0  0  0  0  0  0  0  0  0  0  0  0
   -6.3091   -6.3582    0.4411 N   0  0  0  0  0  0  0  0  0  0  0  0
   -7.7781    0.3081    0.4738 C   0  0  2  0  0  0  0  0  0  0  0  0
   -8.7066    1.2721   -0.2008 C   0  0  0  0  0  0  0  0  0  0  0  0
   -8.8322    2.5669    0.6339 C   0  0  0  0  0  0  0  0  0  0  0  0
   -8.3767    0.0315    1.8692 C   0  0  0  0  0  0  0  0  0  0  0  0
    7.2164   -3.8419   -1.0644 H   0  0  0  0  0  0  0  0  0  0  0  0
    8.9386   -4.1211   -1.0513 H   0  0  0  0  0  0  0  0  0  0  0  0
    9.4145   -1.9830   -1.7737 H   0  0  0  0  0  0  0  0  0  0  0  0
    8.2196   -2.6844   -2.9017 H   0  0  0  0  0  0  0  0  0  0  0  0
    6.3835   -1.6218   -1.7335 H   0  0  0  0  0  0  0  0  0  0  0  0
    7.6156   -0.3852   -2.3195 H   0  0  0  0  0  0  0  0  0  0  0  0
    7.2787   -1.6242    0.4859 H   0  0  0  0  0  0  0  0  0  0  0  0
    8.2784    1.8054    0.7331 H   0  0  0  0  0  0  0  0  0  0  0  0
   10.3959    2.6054    1.3035 H   0  0  0  0  0  0  0  0  0  0  0  0
   10.7951    0.9541    1.8417 H   0  0  0  0  0  0  0  0  0  0  0  0
   11.5965    0.2268   -1.9640 H   0  0  0  0  0  0  0  0  0  0  0  0
   10.0789    1.1832   -1.9435 H   0  0  0  0  0  0  0  0  0  0  0  0
    6.6496    1.2785   -0.3035 H   0  0  0  0  0  0  0  0  0  0  0  0
    4.2674    1.7086    0.4163 H   0  0  0  0  0  0  0  0  0  0  0  0
    4.7150    3.1158    2.1897 H   0  0  0  0  0  0  0  0  0  0  0  0
    6.2773    2.2458    2.1611 H   0  0  0  0  0  0  0  0  0  0  0  0
    4.3147    2.3646    4.2858 H   0  0  0  0  0  0  0  0  0  0  0  0
    5.7560    1.2731    4.3155 H   0  0  0  0  0  0  0  0  0  0  0  0
    4.3643   -0.5691    3.5812 H   0  0  0  0  0  0  0  0  0  0  0  0
    3.0963    0.4812    4.2207 H   0  0  0  0  0  0  0  0  0  0  0  0
    2.2453    0.5224   -0.3412 H   0  0  0  0  0  0  0  0  0  0  0  0
    0.9170    2.6089   -0.6763 H   0  0  0  0  0  0  0  0  0  0  0  0
    2.2878    2.9013    0.3823 H   0  0  0  0  0  0  0  0  0  0  0  0
   -3.6198    4.0761    0.4224 H   0  0  0  0  0  0  0  0  0  0  0  0
   -2.2512    5.1195    0.9164 H   0  0  0  0  0  0  0  0  0  0  0  0
   -1.0748    3.8486   -1.1764 H   0  0  0  0  0  0  0  0  0  0  0  0
   -1.6090    6.2780   -1.1009 H   0  0  0  0  0  0  0  0  0  0  0  0
   -2.0152    5.5151   -2.6000 H   0  0  0  0  0  0  0  0  0  0  0  0
   -2.8004    1.5602   -0.9940 H   0  0  0  0  0  0  0  0  0  0  0  0
   -4.7744    2.2910   -3.1709 H   0  0  0  0  0  0  0  0  0  0  0  0
   -4.0236   -0.5790   -3.0701 H   0  0  0  0  0  0  0  0  0  0  0  0
   -2.7621    0.6296   -3.6765 H   0  0  0  0  0  0  0  0  0  0  0  0
   -4.3355    0.5054   -4.4663 H   0  0  0  0  0  0  0  0  0  0  0  0
   -4.5302    1.4063    0.0318 H   0  0  0  0  0  0  0  0  0  0  0  0
   -6.5280    1.6671    1.3713 H   0  0  0  0  0  0  0  0  0  0  0  0
   -4.5269   -0.9486   -0.0698 H   0  0  0  0  0  0  0  0  0  0  0  0
   -3.6485   -1.7033    2.6584 H   0  0  0  0  0  0  0  0  0  0  0  0
   -2.6485   -0.7769   -0.4483 H   0  0  0  0  0  0  0  0  0  0  0  0
   -0.5229   -2.9410   -0.4708 H   0  0  0  0  0  0  0  0  0  0  0  0
   -0.6469    0.3839    0.6214 H   0  0  0  0  0  0  0  0  0  0  0  0
   -1.8857   -2.7044   -2.6222 H   0  0  0  0  0  0  0  0  0  0  0  0
   -1.2747   -0.9833   -2.7651 H   0  0  0  0  0  0  0  0  0  0  0  0
    1.0293   -4.2474   -2.1757 H   0  0  0  0  0  0  0  0  0  0  0  0
    0.6580   -4.2076   -3.9852 H   0  0  0  0  0  0  0  0  0  0  0  0
   -5.4053   -3.1146    2.5524 H   0  0  0  0  0  0  0  0  0  0  0  0
   -3.8641   -3.9778    2.4682 H   0  0  0  0  0  0  0  0  0  0  0  0
   -4.2939   -4.5225    0.0405 H   0  0  0  0  0  0  0  0  0  0  0  0
   -5.9074   -3.6399    0.1753 H   0  0  0  0  0  0  0  0  0  0  0  0
   -6.0498   -7.3669    0.4212 H   0  0  0  0  0  0  0  0  0  0  0  0
   -7.0683   -6.0329   -0.2220 H   0  0  0  0  0  0  0  0  0  0  0  0
   -7.8476   -0.7173    0.0031 H   0  0  0  0  0  0  0  0  0  0  0  0
   -8.5472    1.5329   -1.2268 H   0  0  0  0  0  0  0  0  0  0  0  0
   -9.7786    0.8758   -0.1692 H   0  0  0  0  0  0  0  0  0  0  0  0
   -9.5831    3.1690    0.0609 H   0  0  0  0  0  0  0  0  0  0  0  0
   -7.9073    3.1404    0.5981 H   0  0  0  0  0  0  0  0  0  0  0  0
   -9.2571    2.3562    1.6144 H   0  0  0  0  0  0  0  0  0  0  0  0
   -8.1844   -0.9933    2.2110 H   0  0  0  0  0  0  0  0  0  0  0  0
   -8.1509    0.8129    2.5918 H   0  0  0  0  0  0  0  0  0  0  0  0
   -9.4947    0.0734    1.7141 H   0  0  0  0  0  0  0  0  0  0  0  0
  1  2  1  0
  2  3  1  0
  3  4  1  0
  4  5  1  0
  5  6  2  0
  5  7  1  0
  7  8  1  0
  8  9  1  0
  9 10  2  0
  9 11  1  0
  4 12  1  0
 12 13  1  0
 13 14  2  0
 13 15  1  0
 15 16  1  0
 16 17  1  0
 17 18  1  0
 18 19  1  0
 19 20  1  0
 20 21  2  0
 20 22  1  0
 22 23  1  0
 23 24  1  0
 24 25  1  0
 25 26  1  0
 26 27  1  0
 27 28  1  0
 27 29  1  0
 29 30  2  0
 29 31  1  0
 31 32  1  0
 32 33  1  0
 32 34  1  0
 34 35  2  0
 34 36  1  0
 36 37  1  0
 37 38  1  0
 38 39  2  0
 38 40  1  0
 40 41  1  0
 41 42  1  0
 42 43  2  0
 42 44  1  0
 44 45  1  0
 45 46  1  0
 46 47  2  0
 46 48  1  0
 45 49  1  0
 49 50  1  0
 50 51  2  0
 50 52  1  0
 41 53  1  0
 53 54  1  0
 54 55  1  0
 55 56  2  0
 55 57  1  0
 37 58  1  0
 58 59  1  0
 59 60  1  0
 58 61  1  0
 19 15  1  0
 48 22  1  0
  1 62  1  0
  1 63  1  0
  2 64  1  0
  2 65  1  0
  3 66  1  0
  3 67  1  0
  4 68  1  1
  7 69  1  0
  8 70  1  0
  8 71  1  0
 11 72  1  0
 11 73  1  0
 12 74  1  0
 15 75  1  6
 16 76  1  0
 16 77  1  0
 17 78  1  0
 17 79  1  0
 18 80  1  0
 18 81  1  0
 22 82  1  6
 23 83  1  0
 23 84  1  0
 26 85  1  0
 26 86  1  0
 27 87  1  1
 28 88  1  0
 28 89  1  0
 31 90  1  0
 32 91  1  6
 33 92  1  0
 33 93  1  0
 33 94  1  0
 36 95  1  0
 37 96  1  1
 40 97  1  0
 41 98  1  1
 44 99  1  0
 45100  1  1
 48101  1  0
 49102  1  0
 49103  1  0
 52104  1  0
 52105  1  0
 53106  1  0
 53107  1  0
 54108  1  0
 54109  1  0
 57110  1  0
 57111  1  0
 58112  1  6
 59113  1  0
 59114  1  0
 60115  1  0
 60116  1  0
 60117  1  0
 61118  1  0
 61119  1  0
 61120  1  0
M  END
>  <Ligand ID>  (1) 
LIG0001582

>  <Ligand>  (1) 
CHEMBL1819551

>  <SMILES>  (1) 
NCC[C@@H](C(=O)NCC(=O)N)NC(=O)[C@@H]1CCCN1C(=O)[C@@H]1CSSC[C@H](N)C(=O)N[C@@H](C)C(=O)N[C@H](C(=O)N[C@H](C(=O)N[C@H](C(=O)N1)CC(=O)N)CCC(=O)N)[C@H](CC)C

>  <CID>  (1) 
53362910.0

>  <ChEMBL ID>  (1) 
nan

>  <InChiKey>  (1) 
XQQCKQFOFOLEJZ-YWANBQDGSA-N

>  <InChi>  (1) 
InChI=1S/C35H59N13O11S2/c1-4-16(2)27-34(58)44-19(7-8-24(38)49)31(55)45-21(12-25(39)50)32(56)46-22(15-61-60-14-18(37)29(53)42-17(3)28(52)47-27)35(59)48-11-5-6-23(48)33(57)43-20(9-10-36)30(54)41-13-26(40)51/h16-23,27H,4-15,36-37H2,1-3H3,(H2,38,49)(H2,39,50)(H2,40,51)(H,41,54)(H,42,53)(H,43,57)(H,44,58)(H,45,55)(H,46,56)(H,47,52)/t16-,17-,18-,19-,20-,21-,22-,23-,27-/m0/s1

>  <IUPAC Name>  (1) 
(2S)-N-[(2S)-4-amino-1-[(2-amino-2-oxoethyl)amino]-1-oxobutan-2-yl]-1-[(4R,7S,10S,13S,16S,19R)-19-amino-7-(2-amino-2-oxoethyl)-10-(3-amino-3-oxopropyl)-13-[(2S)-butan-2-yl]-16-methyl-6,9,12,15,18-pentaoxo-1,2-dithia-5,8,11,14,17-pentazacycloicosane-4-carbonyl]pyrrolidine-2-carboxamide

$$$$
