
     RDKit          3D

 70 73  0  0  0  0  0  0  0  0999 V2000
   -2.6502    4.8779    3.3182 N   0  0  0  0  0  0  0  0  0  0  0  0
   -1.7115    4.8560    2.2484 C   0  0  0  0  0  0  0  0  0  0  0  0
   -0.5471    4.3404    2.4558 N   0  0  0  0  0  0  0  0  0  0  0  0
    0.4345    4.2994    1.3939 C   0  0  0  0  0  0  0  0  0  0  0  0
    1.0010    2.9037    1.3682 C   0  0  0  0  0  0  0  0  0  0  0  0
   -0.0150    1.8507    1.1132 C   0  0  0  0  0  0  0  0  0  0  0  0
   -0.7628    1.9445   -0.1688 C   0  0  1  0  0  0  0  0  0  0  0  0
    0.1803    1.8669   -1.3322 C   0  0  0  0  0  0  0  0  0  0  0  0
    0.3085    0.4030   -1.6047 C   0  0  2  0  0  0  0  0  0  0  0  0
   -0.6781   -0.2953   -0.6993 C   0  0  0  0  0  0  0  0  0  0  0  0
   -1.5795    0.7190   -0.2631 N   0  0  0  0  0  0  0  0  0  0  0  0
   -2.9665    0.6619    0.0376 C   0  0  0  0  0  0  0  0  0  0  0  0
   -3.5907    1.7123    0.4188 O   0  0  0  0  0  0  0  0  0  0  0  0
   -3.7839   -0.5678   -0.0595 C   0  0  1  0  0  0  0  0  0  0  0  0
   -3.2204   -1.5732    0.9319 C   0  0  0  0  0  0  0  0  0  0  0  0
   -4.0964   -2.7940    0.7833 C   0  0  0  0  0  0  0  0  0  0  0  0
   -5.2397   -2.9174    1.5711 C   0  0  0  0  0  0  0  0  0  0  0  0
   -6.0544   -4.0050    1.4633 C   0  0  0  0  0  0  0  0  0  0  0  0
   -5.7431   -4.9911    0.5660 C   0  0  0  0  0  0  0  0  0  0  0  0
   -4.6196   -4.8996   -0.2279 C   0  0  0  0  0  0  0  0  0  0  0  0
   -3.7977   -3.7946   -0.1139 C   0  0  0  0  0  0  0  0  0  0  0  0
   -5.1792   -0.2923    0.2484 N   0  0  0  0  0  0  0  0  0  0  0  0
    1.5678   -0.0976   -1.2739 O   0  0  0  0  0  0  0  0  0  0  0  0
    2.1523   -0.7065   -2.3547 C   0  0  0  0  0  0  0  0  0  0  0  0
    3.4915   -1.1988   -1.8701 C   0  0  0  0  0  0  0  0  0  0  0  0
    3.5827   -2.4750   -1.3322 C   0  0  0  0  0  0  0  0  0  0  0  0
    4.7869   -2.9814   -0.8692 C   0  0  0  0  0  0  0  0  0  0  0  0
    5.8993   -2.1497   -0.9694 C   0  0  0  0  0  0  0  0  0  0  0  0
    5.8208   -0.8803   -1.5020 C   0  0  0  0  0  0  0  0  0  0  0  0
    4.6174   -0.3785   -1.9628 C   0  0  0  0  0  0  0  0  0  0  0  0
    6.9777   -0.1255   -1.5609 C   0  0  0  0  0  0  0  0  0  0  0  0
    8.1973   -0.6031   -1.1060 C   0  0  0  0  0  0  0  0  0  0  0  0
    8.2363   -1.8772   -0.5802 C   0  0  0  0  0  0  0  0  0  0  0  0
    7.1010   -2.6688   -0.5015 C   0  0  0  0  0  0  0  0  0  0  0  0
   -2.1168    5.4089    1.0030 N   0  0  0  0  0  0  0  0  0  0  0  0
   -3.5629    4.4006    3.1748 H   0  0  0  0  0  0  0  0  0  0  0  0
   -2.4371    5.3571    4.2244 H   0  0  0  0  0  0  0  0  0  0  0  0
   -0.0413    4.5956    0.4570 H   0  0  0  0  0  0  0  0  0  0  0  0
    1.2545    5.0252    1.5704 H   0  0  0  0  0  0  0  0  0  0  0  0
    1.8347    2.8578    0.6761 H   0  0  0  0  0  0  0  0  0  0  0  0
    1.4011    2.7053    2.4083 H   0  0  0  0  0  0  0  0  0  0  0  0
   -0.7546    1.7616    1.9474 H   0  0  0  0  0  0  0  0  0  0  0  0
    0.5448    0.8699    1.0797 H   0  0  0  0  0  0  0  0  0  0  0  0
   -1.4647    2.7842   -0.2272 H   0  0  0  0  0  0  0  0  0  0  0  0
    1.1637    2.3293   -1.1463 H   0  0  0  0  0  0  0  0  0  0  0  0
   -0.2599    2.4157   -2.2076 H   0  0  0  0  0  0  0  0  0  0  0  0
    0.0695    0.1902   -2.6743 H   0  0  0  0  0  0  0  0  0  0  0  0
   -0.1694   -0.7954    0.1548 H   0  0  0  0  0  0  0  0  0  0  0  0
   -1.1375   -1.1061   -1.2986 H   0  0  0  0  0  0  0  0  0  0  0  0
   -3.7548   -0.9575   -1.0964 H   0  0  0  0  0  0  0  0  0  0  0  0
   -2.2166   -1.9049    0.6796 H   0  0  0  0  0  0  0  0  0  0  0  0
   -3.3797   -1.2157    1.9543 H   0  0  0  0  0  0  0  0  0  0  0  0
   -5.4793   -2.1187    2.2883 H   0  0  0  0  0  0  0  0  0  0  0  0
   -6.9250   -4.0523    2.0950 H   0  0  0  0  0  0  0  0  0  0  0  0
   -6.4213   -5.8428    0.5117 H   0  0  0  0  0  0  0  0  0  0  0  0
   -4.3993   -5.7071   -0.9358 H   0  0  0  0  0  0  0  0  0  0  0  0
   -2.9166   -3.7177   -0.7323 H   0  0  0  0  0  0  0  0  0  0  0  0
   -5.3120    0.0375    1.2230 H   0  0  0  0  0  0  0  0  0  0  0  0
   -5.6176    0.3134   -0.4621 H   0  0  0  0  0  0  0  0  0  0  0  0
    1.6101   -1.5761   -2.7445 H   0  0  0  0  0  0  0  0  0  0  0  0
    2.3046    0.1027   -3.1208 H   0  0  0  0  0  0  0  0  0  0  0  0
    2.7038   -3.1146   -1.2601 H   0  0  0  0  0  0  0  0  0  0  0  0
    4.8750   -3.9722   -0.4474 H   0  0  0  0  0  0  0  0  0  0  0  0
    4.5648    0.6083   -2.3748 H   0  0  0  0  0  0  0  0  0  0  0  0
    6.9775    0.8911   -1.9743 H   0  0  0  0  0  0  0  0  0  0  0  0
    9.1112   -0.0292   -1.1435 H   0  0  0  0  0  0  0  0  0  0  0  0
    9.1540   -2.2973   -0.2127 H   0  0  0  0  0  0  0  0  0  0  0  0
    7.1850   -3.6619   -0.0803 H   0  0  0  0  0  0  0  0  0  0  0  0
   -2.6164    4.8304    0.2707 H   0  0  0  0  0  0  0  0  0  0  0  0
   -1.8912    6.4219    0.8552 H   0  0  0  0  0  0  0  0  0  0  0  0
  1  2  1  0
  2  3  2  3
  3  4  1  0
  4  5  1  0
  5  6  1  0
  6  7  1  0
  7  8  1  0
  8  9  1  0
  9 10  1  0
 10 11  1  0
 11 12  1  0
 12 13  2  0
 12 14  1  0
 14 15  1  0
 15 16  1  0
 16 17  2  0
 17 18  1  0
 18 19  2  0
 19 20  1  0
 20 21  2  0
 14 22  1  0
  9 23  1  0
 23 24  1  0
 24 25  1  0
 25 26  2  0
 26 27  1  0
 27 28  2  0
 28 29  1  0
 29 30  2  0
 29 31  1  0
 31 32  2  0
 32 33  1  0
 33 34  2  0
  2 35  1  0
 11  7  1  0
 21 16  1  0
 30 25  1  0
 34 28  1  0
  1 36  1  0
  1 37  1  0
  4 38  1  0
  4 39  1  0
  5 40  1  0
  5 41  1  0
  6 42  1  0
  6 43  1  0
  7 44  1  1
  8 45  1  0
  8 46  1  0
  9 47  1  6
 10 48  1  0
 10 49  1  0
 14 50  1  6
 15 51  1  0
 15 52  1  0
 17 53  1  0
 18 54  1  0
 19 55  1  0
 20 56  1  0
 21 57  1  0
 22 58  1  0
 22 59  1  0
 24 60  1  0
 24 61  1  0
 26 62  1  0
 27 63  1  0
 30 64  1  0
 31 65  1  0
 32 66  1  0
 33 67  1  0
 34 68  1  0
 35 69  1  0
 35 70  1  0
M  END
>  <Ligand ID>  (1) 
LIG0002424

>  <Ligand>  (1) 
CHEMBL379879

>  <SMILES>  (1) 
NC(=NCCC[C@H]1C[C@H](CN1C(=O)[C@@H](Cc1ccccc1)N)OCc1ccc2c(c1)cccc2)N

>  <CID>  (1) 
11845813.0

>  <ChEMBL ID>  (1) 
nan

>  <InChiKey>  (1) 
ZPOQUKYSTRZAFA-JIMJEQGWSA-N

>  <InChi>  (1) 
InChI=1S/C28H35N5O2/c29-26(16-20-7-2-1-3-8-20)27(34)33-18-25(17-24(33)11-6-14-32-28(30)31)35-19-21-12-13-22-9-4-5-10-23(22)15-21/h1-5,7-10,12-13,15,24-26H,6,11,14,16-19,29H2,(H4,30,31,32)/t24-,25+,26+/m0/s1

>  <IUPAC Name>  (1) 
2-[3-[(2S,4R)-1-[(2R)-2-amino-3-phenylpropanoyl]-4-(naphthalen-2-ylmethoxy)pyrrolidin-2-yl]propyl]guanidine

$$$$
