
     RDKit          3D

 31 31  0  0  0  0  0  0  0  0999 V2000
   -0.7254    3.6149   -0.0214 C   0  0  0  0  0  0  0  0  0  0  0  0
   -0.7318    2.2427   -0.3575 O   0  0  0  0  0  0  0  0  0  0  0  0
    0.3030    1.3832   -0.1087 C   0  0  0  0  0  0  0  0  0  0  0  0
    1.4471    1.8448    0.5039 C   0  0  0  0  0  0  0  0  0  0  0  0
    2.5016    0.9541    0.7521 C   0  0  0  0  0  0  0  0  0  0  0  0
    4.2791    1.5669    1.6794 I   0  0  0  0  0  0  0  0  0  0  0  0
    2.3486   -0.3707    0.3657 C   0  0  0  0  0  0  0  0  0  0  0  0
    1.2238   -0.8533   -0.2436 C   0  0  0  0  0  0  0  0  0  0  0  0
    0.1949    0.0423   -0.4784 C   0  0  0  0  0  0  0  0  0  0  0  0
   -1.0891   -0.3715   -1.1168 C   0  0  0  0  0  0  0  0  0  0  0  0
   -2.1145   -0.5480    0.0047 C   0  0  2  0  0  0  0  0  0  0  0  0
   -1.5836   -1.5795    0.8756 N   0  0  0  0  0  0  0  0  0  0  0  0
   -3.4669   -0.8535   -0.5437 C   0  0  0  0  0  0  0  0  0  0  0  0
    3.4212   -1.2468    0.6233 O   0  0  0  0  0  0  0  0  0  0  0  0
    3.2888   -2.6234    0.2353 C   0  0  0  0  0  0  0  0  0  0  0  0
   -0.5024    3.7584    1.0361 H   0  0  0  0  0  0  0  0  0  0  0  0
   -1.7385    4.0078   -0.2043 H   0  0  0  0  0  0  0  0  0  0  0  0
   -0.0355    4.1879   -0.6789 H   0  0  0  0  0  0  0  0  0  0  0  0
    1.5919    2.8534    0.8090 H   0  0  0  0  0  0  0  0  0  0  0  0
    1.0802   -1.8780   -0.5534 H   0  0  0  0  0  0  0  0  0  0  0  0
   -0.9145   -1.2988   -1.6605 H   0  0  0  0  0  0  0  0  0  0  0  0
   -1.4562    0.4428   -1.7973 H   0  0  0  0  0  0  0  0  0  0  0  0
   -2.1650    0.3807    0.6264 H   0  0  0  0  0  0  0  0  0  0  0  0
   -1.4241   -2.4342    0.2968 H   0  0  0  0  0  0  0  0  0  0  0  0
   -2.2085   -1.7013    1.6849 H   0  0  0  0  0  0  0  0  0  0  0  0
   -4.0299   -1.4818    0.1636 H   0  0  0  0  0  0  0  0  0  0  0  0
   -3.9950    0.1358   -0.6666 H   0  0  0  0  0  0  0  0  0  0  0  0
   -3.3577   -1.3471   -1.5436 H   0  0  0  0  0  0  0  0  0  0  0  0
    2.5892   -3.1550    0.8982 H   0  0  0  0  0  0  0  0  0  0  0  0
    4.3128   -3.0383    0.2635 H   0  0  0  0  0  0  0  0  0  0  0  0
    2.9567   -2.6345   -0.8436 H   0  0  0  0  0  0  0  0  0  0  0  0
  1  2  1  0
  2  3  1  0
  3  4  2  0
  4  5  1  0
  5  6  1  0
  5  7  2  0
  7  8  1  0
  8  9  2  0
  9 10  1  0
 10 11  1  0
 11 12  1  0
 11 13  1  0
  7 14  1  0
 14 15  1  0
  9  3  1  0
  1 16  1  0
  1 17  1  0
  1 18  1  0
  4 19  1  0
  8 20  1  0
 10 21  1  0
 10 22  1  0
 11 23  1  1
 12 24  1  0
 12 25  1  0
 13 26  1  0
 13 27  1  0
 13 28  1  0
 15 29  1  0
 15 30  1  0
 15 31  1  0
M  END
>  <Ligand ID>  (1) 
LIG0001104

>  <Ligand>  (1) 
(R)-DOI

>  <SMILES>  (1) 
COc1cc(I)c(cc1C[C@H](N)C)OC

>  <CID>  (1) 
9840090.0

>  <ChEMBL ID>  (1) 
nan

>  <InChiKey>  (1) 
BGMZUEKZENQUJY-SSDOTTSWSA-N

>  <InChi>  (1) 
InChI=1S/C11H16INO2/c1-7(13)4-8-5-11(15-3)9(12)6-10(8)14-2/h5-7H,4,13H2,1-3H3/t7-/m1/s1

>  <IUPAC Name>  (1) 
(2R)-1-(4-iodo-2,5-dimethoxyphenyl)propan-2-amine

$$$$
