
     RDKit          2D

130132  0  0  0  0  0  0  0  0999 V2000
    6.2133   -9.3517    0.0000 N   0  0  0  0  0  0  0  0  0  0  0  0
    6.6768   -7.9252    0.0000 C   0  0  0  0  0  0  0  0  0  0  0  0
    7.1403   -6.4986    0.0000 C   0  0  0  0  0  0  0  0  0  0  0  0
    7.6039   -5.0720    0.0000 C   0  0  0  0  0  0  0  0  0  0  0  0
    8.0674   -3.6454    0.0000 C   0  0  0  0  0  0  0  0  0  0  0  0
    8.5309   -2.2188    0.0000 C   0  0  0  0  0  0  0  0  0  0  0  0
    8.9944   -0.7922    0.0000 C   0  0  0  0  0  0  0  0  0  0  0  0
   10.0640   -0.5649    0.0000 O   0  0  0  0  0  0  0  0  0  0  0  0
    7.9907    0.3225    0.0000 N   0  0  0  0  0  0  0  0  0  0  0  0
    8.4543    1.7491    0.0000 C   0  0  0  0  0  0  0  0  0  0  0  0
    7.0277    2.2126    0.0000 C   0  0  0  0  0  0  0  0  0  0  0  0
    5.9130    1.2089    0.0000 O   0  0  0  0  0  0  0  0  0  0  0  0
    6.7158    3.6798    0.0000 N   0  0  0  0  0  0  0  0  0  0  0  0
    5.2892    4.1433    0.0000 C   0  0  0  0  0  0  0  0  0  0  0  0
    3.8627    4.6069    0.0000 C   0  0  0  0  0  0  0  0  0  0  0  0
    3.6785    5.4732    0.0000 O   0  0  0  0  0  0  0  0  0  0  0  0
    2.7479    3.6032    0.0000 N   0  0  0  0  0  0  0  0  0  0  0  0
    1.3213    4.0667    0.0000 C   0  0  0  0  0  0  0  0  0  0  0  0
    0.8578    2.6401    0.0000 C   0  0  0  0  0  0  0  0  0  0  0  0
    1.8615    1.5254    0.0000 O   0  0  0  0  0  0  0  0  0  0  0  0
   -0.6094    2.3282    0.0000 N   0  0  0  0  0  0  0  0  0  0  0  0
   -1.0729    0.9017    0.0000 C   0  0  0  0  0  0  0  0  0  0  0  0
   -1.5364   -0.5249    0.0000 C   0  0  0  0  0  0  0  0  0  0  0  0
   -3.0037   -0.8368    0.0000 O   0  0  0  0  0  0  0  0  0  0  0  0
   -0.5328   -1.6396    0.0000 N   0  0  0  0  0  0  0  0  0  0  0  0
    1.7849    5.4933    0.0000 C   0  0  0  0  0  0  0  0  0  0  0  0
    2.2484    6.9199    0.0000 C   0  0  0  0  0  0  0  0  0  0  0  0
    3.6750    7.3834    0.0000 C   0  0  0  0  0  0  0  0  0  0  0  0
    3.6750    8.8834    0.0000 N   0  0  0  0  0  0  0  0  0  0  0  0
    2.2484    9.3469    0.0000 C   0  0  0  0  0  0  0  0  0  0  0  0
    1.3667    8.1334    0.0000 C   0  0  0  0  0  0  0  0  0  0  0  0
   -0.1251    8.2902    0.0000 C   0  0  0  0  0  0  0  0  0  0  0  0
   -0.7352    9.6605    0.0000 C   0  0  0  0  0  0  0  0  0  0  0  0
    0.1465   10.8740    0.0000 C   0  0  0  0  0  0  0  0  0  0  0  0
    1.6383   10.7172    0.0000 C   0  0  0  0  0  0  0  0  0  0  0  0
    7.8305    4.6835    0.0000 C   0  0  0  0  0  0  0  0  0  0  0  0
    8.9453    5.6872    0.0000 C   0  0  0  0  0  0  0  0  0  0  0  0
   10.0600    6.6909    0.0000 C   0  0  0  0  0  0  0  0  0  0  0  0
   11.1747    7.6946    0.0000 N   0  0  0  0  0  0  0  0  0  0  0  0
   10.8628    9.1618    0.0000 C   0  0  0  0  0  0  0  0  0  0  0  0
   11.9775   10.1655    0.0000 N   0  0  0  0  0  0  0  0  0  0  0  0
    9.4362    9.6253    0.0000 N   0  0  0  0  0  0  0  0  0  0  0  0
    9.8809    1.2855    0.0000 C   0  0  0  0  0  0  0  0  0  0  0  0
   11.3074    0.8220    0.0000 C   0  0  0  0  0  0  0  0  0  0  0  0
   11.6193   -0.6452    0.0000 C   0  0  0  0  0  0  0  0  0  0  0  0
   13.0459   -1.1087    0.0000 C   0  0  0  0  0  0  0  0  0  0  0  0
   14.1606   -0.1050    0.0000 C   0  0  0  0  0  0  0  0  0  0  0  0
   13.8487    1.3622    0.0000 C   0  0  0  0  0  0  0  0  0  0  0  0
   12.4222    1.8257    0.0000 C   0  0  0  0  0  0  0  0  0  0  0  0
    9.9575   -2.6823    0.0000 N   0  0  0  0  0  0  0  0  0  0  0  0
   10.2694   -4.1496    0.0000 C   0  0  0  0  0  0  0  0  0  0  0  0
    9.6883   -4.8181    0.0000 O   0  0  0  0  0  0  0  0  0  0  0  0
   11.6960   -4.6131    0.0000 C   0  0  0  0  0  0  0  0  0  0  0  0
   13.1225   -5.0766    0.0000 N   0  0  0  0  0  0  0  0  0  0  0  0
   13.4344   -6.5438    0.0000 C   0  0  0  0  0  0  0  0  0  0  0  0
   12.3197   -7.5475    0.0000 O   0  0  0  0  0  0  0  0  0  0  0  0
   14.8610   -7.0074    0.0000 C   0  0  0  0  0  0  0  0  0  0  0  0
   16.2876   -7.4709    0.0000 N   0  0  0  0  0  0  0  0  0  0  0  0
   17.4023   -6.4672    0.0000 C   0  0  0  0  0  0  0  0  0  0  0  0
   17.0904   -5.0000    0.0000 O   0  0  0  0  0  0  0  0  0  0  0  0
   18.8289   -6.9307    0.0000 C   0  0  0  0  0  0  0  0  0  0  0  0
   16.5994   -8.9381    0.0000 C   0  0  0  0  0  0  0  0  0  0  0  0
   16.9113  -10.4053    0.0000 C   0  0  0  0  0  0  0  0  0  0  0  0
   17.2232  -11.8726    0.0000 C   0  0  0  0  0  0  0  0  0  0  0  0
   17.5350  -13.3398    0.0000 C   0  0  0  0  0  0  0  0  0  0  0  0
    7.2170  -10.4665    0.0000 H   0  0  0  0  0  0  0  0  0  0  0  0
    4.7461   -9.6636    0.0000 H   0  0  0  0  0  0  0  0  0  0  0  0
    5.2502   -7.4616    0.0000 H   0  0  0  0  0  0  0  0  0  0  0  0
    8.1034   -8.3887    0.0000 H   0  0  0  0  0  0  0  0  0  0  0  0
    5.7138   -6.0350    0.0000 H   0  0  0  0  0  0  0  0  0  0  0  0
    8.5669   -6.9621    0.0000 H   0  0  0  0  0  0  0  0  0  0  0  0
    6.1773   -4.6085    0.0000 H   0  0  0  0  0  0  0  0  0  0  0  0
    8.7050   -5.5855    0.0000 H   0  0  0  0  0  0  0  0  0  0  0  0
    6.6408   -3.1819    0.0000 H   0  0  0  0  0  0  0  0  0  0  0  0
    8.9947   -4.2249    0.0000 H   0  0  0  0  0  0  0  0  0  0  0  0
    7.1043   -1.7553    0.0000 H   0  0  0  0  0  0  0  0  0  0  0  0
    6.5235    0.0106    0.0000 H   0  0  0  0  0  0  0  0  0  0  0  0
    8.9678    2.8502    0.0000 H   0  0  0  0  0  0  0  0  0  0  0  0
    5.7528    5.5699    0.0000 H   0  0  0  0  0  0  0  0  0  0  0  0
    4.8257    2.7168    0.0000 H   0  0  0  0  0  0  0  0  0  0  0  0
    3.0598    2.1359    0.0000 H   0  0  0  0  0  0  0  0  0  0  0  0
   -0.1052    4.5302    0.0000 H   0  0  0  0  0  0  0  0  0  0  0  0
   -1.6131    3.4430    0.0000 H   0  0  0  0  0  0  0  0  0  0  0  0
    0.3537    0.4381    0.0000 H   0  0  0  0  0  0  0  0  0  0  0  0
   -2.4995    1.3652    0.0000 H   0  0  0  0  0  0  0  0  0  0  0  0
   -0.9963   -3.0662    0.0000 H   0  0  0  0  0  0  0  0  0  0  0  0
    0.9345   -1.3278    0.0000 H   0  0  0  0  0  0  0  0  0  0  0  0
    2.6685    5.4315    0.0000 H   0  0  0  0  0  0  0  0  0  0  0  0
    0.3583    5.9568    0.0000 H   0  0  0  0  0  0  0  0  0  0  0  0
    4.8885    6.5017    0.0000 H   0  0  0  0  0  0  0  0  0  0  0  0
    4.8885    9.7651    0.0000 H   0  0  0  0  0  0  0  0  0  0  0  0
   -1.0067    7.0767    0.0000 H   0  0  0  0  0  0  0  0  0  0  0  0
   -2.2269    9.8173    0.0000 H   0  0  0  0  0  0  0  0  0  0  0  0
   -0.4636   12.2443    0.0000 H   0  0  0  0  0  0  0  0  0  0  0  0
    2.5200   11.9308    0.0000 H   0  0  0  0  0  0  0  0  0  0  0  0
    6.8268    5.7982    0.0000 H   0  0  0  0  0  0  0  0  0  0  0  0
    8.7475    3.8864    0.0000 H   0  0  0  0  0  0  0  0  0  0  0  0
    7.9416    6.8019    0.0000 H   0  0  0  0  0  0  0  0  0  0  0  0
    9.9490    4.5725    0.0000 H   0  0  0  0  0  0  0  0  0  0  0  0
   11.0637    5.5762    0.0000 H   0  0  0  0  0  0  0  0  0  0  0  0
    9.0563    7.8056    0.0000 H   0  0  0  0  0  0  0  0  0  0  0  0
   11.6657   11.6327    0.0000 H   0  0  0  0  0  0  0  0  0  0  0  0
   13.4041    9.7020    0.0000 H   0  0  0  0  0  0  0  0  0  0  0  0
    9.1244   11.0926    0.0000 H   0  0  0  0  0  0  0  0  0  0  0  0
    8.3215    8.6216    0.0000 H   0  0  0  0  0  0  0  0  0  0  0  0
   10.3444    2.7121    0.0000 H   0  0  0  0  0  0  0  0  0  0  0  0
    9.8046    0.1947    0.0000 H   0  0  0  0  0  0  0  0  0  0  0  0
   10.6353   -1.7773    0.0000 H   0  0  0  0  0  0  0  0  0  0  0  0
   13.3578   -2.5760    0.0000 H   0  0  0  0  0  0  0  0  0  0  0  0
   15.5872   -0.5686    0.0000 H   0  0  0  0  0  0  0  0  0  0  0  0
   14.9635    2.3659    0.0000 H   0  0  0  0  0  0  0  0  0  0  0  0
   12.1103    3.2929    0.0000 H   0  0  0  0  0  0  0  0  0  0  0  0
   11.1863   -1.8220    0.0000 H   0  0  0  0  0  0  0  0  0  0  0  0
   11.2324   -6.0397    0.0000 H   0  0  0  0  0  0  0  0  0  0  0  0
   12.1595   -3.1865    0.0000 H   0  0  0  0  0  0  0  0  0  0  0  0
   14.2373   -4.0729    0.0000 H   0  0  0  0  0  0  0  0  0  0  0  0
   14.3975   -8.4339    0.0000 H   0  0  0  0  0  0  0  0  0  0  0  0
   15.3245   -5.5808    0.0000 H   0  0  0  0  0  0  0  0  0  0  0  0
   20.2555   -7.3942    0.0000 H   0  0  0  0  0  0  0  0  0  0  0  0
   19.2924   -5.5041    0.0000 H   0  0  0  0  0  0  0  0  0  0  0  0
   18.5427   -8.4032    0.0000 H   0  0  0  0  0  0  0  0  0  0  0  0
   15.1322   -9.2500    0.0000 H   0  0  0  0  0  0  0  0  0  0  0  0
   18.0937   -8.8074    0.0000 H   0  0  0  0  0  0  0  0  0  0  0  0
   15.4441  -10.7172    0.0000 H   0  0  0  0  0  0  0  0  0  0  0  0
   18.3785  -10.0935    0.0000 H   0  0  0  0  0  0  0  0  0  0  0  0
   18.6904  -11.5607    0.0000 H   0  0  0  0  0  0  0  0  0  0  0  0
   15.7560  -12.1844    0.0000 H   0  0  0  0  0  0  0  0  0  0  0  0
   17.8469  -14.8070    0.0000 H   0  0  0  0  0  0  0  0  0  0  0  0
   16.0678  -13.6516    0.0000 H   0  0  0  0  0  0  0  0  0  0  0  0
   19.0023  -13.0279    0.0000 H   0  0  0  0  0  0  0  0  0  0  0  0
  1  2  1  0
  2  3  1  0
  3  4  1  0
  4  5  1  0
  5  6  1  0
  6  7  1  0
  7  8  2  0
  7  9  1  0
  9 10  1  0
 10 11  1  0
 11 12  2  0
 11 13  1  0
 13 14  1  0
 14 15  1  0
 15 16  2  0
 15 17  1  0
 17 18  1  0
 18 19  1  0
 19 20  2  0
 19 21  1  0
 21 22  1  0
 22 23  1  0
 23 24  2  0
 23 25  1  0
 18 26  1  0
 26 27  1  0
 27 28  2  0
 28 29  1  0
 29 30  1  0
 30 31  2  0
 31 32  1  0
 32 33  2  0
 33 34  1  0
 34 35  2  0
 13 36  1  0
 36 37  1  0
 37 38  1  0
 38 39  1  0
 39 40  2  3
 40 41  1  0
 40 42  1  0
 10 43  1  0
 43 44  1  0
 44 45  2  0
 45 46  1  0
 46 47  2  0
 47 48  1  0
 48 49  2  0
  6 50  1  0
 50 51  1  0
 51 52  2  0
 51 53  1  0
 53 54  1  0
 54 55  1  0
 55 56  2  0
 55 57  1  0
 57 58  1  0
 58 59  1  0
 59 60  2  0
 59 61  1  0
 58 62  1  0
 62 63  1  0
 63 64  1  0
 64 65  1  0
 31 27  1  0
 49 44  1  0
 35 30  1  0
  1 66  1  0
  1 67  1  0
  2 68  1  0
  2 69  1  0
  3 70  1  0
  3 71  1  0
  4 72  1  0
  4 73  1  0
  5 74  1  0
  5 75  1  0
  6 76  1  6
  9 77  1  0
 10 78  1  6
 14 79  1  0
 14 80  1  0
 17 81  1  0
 18 82  1  1
 21 83  1  0
 22 84  1  0
 22 85  1  0
 25 86  1  0
 25 87  1  0
 26 88  1  0
 26 89  1  0
 28 90  1  0
 29 91  1  0
 32 92  1  0
 33 93  1  0
 34 94  1  0
 35 95  1  0
 36 96  1  0
 36 97  1  0
 37 98  1  0
 37 99  1  0
 38100  1  0
 38101  1  0
 41102  1  0
 41103  1  0
 42104  1  0
 42105  1  0
 43106  1  0
 43107  1  0
 45108  1  0
 46109  1  0
 47110  1  0
 48111  1  0
 49112  1  0
 50113  1  0
 53114  1  0
 53115  1  0
 54116  1  0
 57117  1  0
 57118  1  0
 61119  1  0
 61120  1  0
 61121  1  0
 62122  1  0
 62123  1  0
 63124  1  0
 63125  1  0
 64126  1  0
 64127  1  0
 65128  1  0
 65129  1  0
 65130  1  0
M  END
>  <Ligand ID>  (1) 
LIG0004322

>  <Ligand>  (1) 
CHEMBL2371829

>  <SMILES>  (1) 
NCCCC[C@@H](C(=O)N[C@@H](C(=O)N(CC(=O)N[C@H](C(=O)NCC(=O)N)Cc1c[nH]c2c1cccc2)CCCN=C(N)N)Cc1ccccc1)NC(=O)CNC(=O)CN(C(=O)C)CCCC

>  <CID>  (1) 
11309022.0

>  <ChEMBL ID>  (1) 
nan

>  <InChiKey>  (1) 
GXNHRQFWJSPUDE-QGBCWPEESA-N

>  <InChi>  (1) 
InChI=1S/C44H65N13O8/c1-3-4-20-56(29(2)58)27-39(61)51-26-38(60)53-34(17-10-11-18-45)42(64)55-36(22-30-13-6-5-7-14-30)43(65)57(21-12-19-49-44(47)48)28-40(62)54-35(41(63)52-25-37(46)59)23-31-24-50-33-16-9-8-15-32(31)33/h5-9,13-16,24,34-36,50H,3-4,10-12,17-23,25-28,45H2,1-2H3,(H2,46,59)(H,51,61)(H,52,63)(H,53,60)(H,54,62)(H,55,64)(H4,47,48,49)/t34-,35-,36+/m0/s1

>  <IUPAC Name>  (1) 
(2S)-2-[[2-[[2-[acetyl(butyl)amino]acetyl]amino]acetyl]amino]-6-amino-N-[(2R)-1-[[2-[[(2S)-1-[(2-amino-2-oxoethyl)amino]-3-(1H-indol-3-yl)-1-oxopropan-2-yl]amino]-2-oxoethyl]-[3-(diaminomethylideneamino)propyl]amino]-1-oxo-3-phenylpropan-2-yl]hexanamide

$$$$
