
     RDKit          3D

 33 34  0  0  0  0  0  0  0  0999 V2000
    4.5580    1.2411    0.8614 C   0  0  0  0  0  0  0  0  0  0  0  0
    3.2009    1.0154    0.2370 C   0  0  0  0  0  0  0  0  0  0  0  0
    3.3221   -0.2105   -1.0706 S   0  0  0  0  0  0  0  0  0  0  0  0
    3.8626   -1.4488   -0.3733 O   0  0  0  0  0  0  0  0  0  0  0  0
    4.2961    0.3073   -2.0585 O   0  0  0  0  0  0  0  0  0  0  0  0
    1.8081   -0.4967   -1.8049 N   0  0  0  0  0  0  0  0  0  0  0  0
    0.6804   -1.0013   -1.1305 C   0  0  0  0  0  0  0  0  0  0  0  0
    0.8571   -2.0818   -0.2725 C   0  0  0  0  0  0  0  0  0  0  0  0
   -0.2220   -2.6142    0.4139 C   0  0  0  0  0  0  0  0  0  0  0  0
   -1.4809   -2.0582    0.2366 C   0  0  0  0  0  0  0  0  0  0  0  0
   -1.6915   -0.9849   -0.6077 C   0  0  0  0  0  0  0  0  0  0  0  0
   -0.5940   -0.4716   -1.2825 C   0  0  0  0  0  0  0  0  0  0  0  0
   -3.0541   -0.4461   -0.7474 C   0  0  0  0  0  0  0  0  0  0  0  0
   -3.3849    0.6231    0.2144 C   0  0  0  0  0  0  0  0  0  0  0  0
   -3.2396    1.9539    0.1312 N   0  0  0  0  0  0  0  0  0  0  0  0
   -3.6729    2.5651    1.2424 C   0  0  0  0  0  0  0  0  0  0  0  0
   -4.1147    1.5856    2.0735 N   0  0  0  0  0  0  0  0  0  0  0  0
   -3.9504    0.3901    1.4704 C   0  0  0  0  0  0  0  0  0  0  0  0
    4.9026    2.2757    0.7221 H   0  0  0  0  0  0  0  0  0  0  0  0
    5.2812    0.5146    0.4150 H   0  0  0  0  0  0  0  0  0  0  0  0
    4.5534    1.0405    1.9604 H   0  0  0  0  0  0  0  0  0  0  0  0
    2.8556    1.9755   -0.1749 H   0  0  0  0  0  0  0  0  0  0  0  0
    2.5566    0.5821    1.0087 H   0  0  0  0  0  0  0  0  0  0  0  0
    1.6781   -0.2893   -2.8402 H   0  0  0  0  0  0  0  0  0  0  0  0
    1.8127   -2.5403   -0.1076 H   0  0  0  0  0  0  0  0  0  0  0  0
   -0.0697   -3.4508    1.0748 H   0  0  0  0  0  0  0  0  0  0  0  0
   -2.3189   -2.4752    0.7726 H   0  0  0  0  0  0  0  0  0  0  0  0
   -0.7336    0.3806   -1.9591 H   0  0  0  0  0  0  0  0  0  0  0  0
   -3.1792   -0.0961   -1.8115 H   0  0  0  0  0  0  0  0  0  0  0  0
   -3.7737   -1.2623   -0.6221 H   0  0  0  0  0  0  0  0  0  0  0  0
   -2.8350    2.4489   -0.7055 H   0  0  0  0  0  0  0  0  0  0  0  0
   -3.7012    3.6149    1.5053 H   0  0  0  0  0  0  0  0  0  0  0  0
   -4.2091   -0.5864    1.8812 H   0  0  0  0  0  0  0  0  0  0  0  0
  1  2  1  0
  2  3  1  0
  3  4  2  0
  3  5  2  0
  3  6  1  0
  6  7  1  0
  7  8  2  0
  8  9  1  0
  9 10  2  0
 10 11  1  0
 11 12  2  0
 11 13  1  0
 13 14  1  0
 14 15  1  0
 15 16  1  0
 16 17  2  0
 17 18  1  0
 12  7  1  0
 18 14  2  0
  1 19  1  0
  1 20  1  0
  1 21  1  0
  2 22  1  0
  2 23  1  0
  6 24  1  0
  8 25  1  0
  9 26  1  0
 10 27  1  0
 12 28  1  0
 13 29  1  0
 13 30  1  0
 15 31  1  0
 16 32  1  0
 18 33  1  0
M  END
>  <Ligand ID>  (1) 
LIG0000707

>  <Ligand>  (1) 
ABT-866

>  <SMILES>  (1) 
CCS(=O)(=O)Nc1cccc(c1)Cc1[nH]cnc1

>  <CID>  (1) 
9838192.0

>  <ChEMBL ID>  (1) 
nan

>  <InChiKey>  (1) 
ROUIPNDCVDWYEH-UHFFFAOYSA-N

>  <InChi>  (1) 
InChI=1S/C12H15N3O2S/c1-2-18(16,17)15-11-5-3-4-10(6-11)7-12-8-13-9-14-12/h3-6,8-9,15H,2,7H2,1H3,(H,13,14)

>  <IUPAC Name>  (1) 
N-[3-(1H-imidazol-5-ylmethyl)phenyl]ethanesulfonamide

$$$$
