
     RDKit          3D

192199  0  0  0  0  0  0  0  0999 V2000
   -5.6267    7.8145    5.6740 N   0  0  0  0  0  0  0  0  0  0  0  0
   -5.5315    7.4898    4.2981 C   0  0  0  0  0  0  0  0  0  0  0  0
   -6.5422    7.8539    3.5471 N   0  0  0  0  0  0  0  0  0  0  0  0
   -4.4290    6.8065    3.7404 N   0  0  0  0  0  0  0  0  0  0  0  0
   -4.6449    5.9223    2.5677 C   0  0  0  0  0  0  0  0  0  0  0  0
   -5.4526    4.7864    3.0707 C   0  0  0  0  0  0  0  0  0  0  0  0
   -5.8519    3.7121    2.1228 C   0  0  0  0  0  0  0  0  0  0  0  0
   -4.8207    2.8865    1.4807 C   0  0  2  0  0  0  0  0  0  0  0  0
   -3.8968    3.6074    0.6478 N   0  0  0  0  0  0  0  0  0  0  0  0
   -2.4870    3.5658    0.7665 C   0  0  0  0  0  0  0  0  0  0  0  0
   -2.0382    2.9319    1.7396 O   0  0  0  0  0  0  0  0  0  0  0  0
   -1.5442    4.2539   -0.2200 C   0  0  1  0  0  0  0  0  0  0  0  0
   -2.0574    5.5437   -0.7065 C   0  0  0  0  0  0  0  0  0  0  0  0
   -1.0991    6.1766   -1.6491 C   0  0  0  0  0  0  0  0  0  0  0  0
   -0.0792    7.0472   -1.2878 C   0  0  0  0  0  0  0  0  0  0  0  0
    0.5981    7.4457   -2.3959 N   0  0  0  0  0  0  0  0  0  0  0  0
    0.0087    6.8280   -3.4578 C   0  0  0  0  0  0  0  0  0  0  0  0
   -0.9987    6.0787   -2.9848 N   0  0  0  0  0  0  0  0  0  0  0  0
   -0.2060    4.2267    0.2995 N   0  0  0  0  0  0  0  0  0  0  0  0
    0.6031    3.0401    0.4328 C   0  0  0  0  0  0  0  0  0  0  0  0
    0.0430    1.9967    0.0877 O   0  0  0  0  0  0  0  0  0  0  0  0
    1.9874    3.1422    0.9678 C   0  0  2  0  0  0  0  0  0  0  0  0
    2.5035    4.4351    0.7340 N   0  0  0  0  0  0  0  0  0  0  0  0
    3.8325    4.6742    0.9733 N   0  0  0  0  0  0  0  0  0  0  0  0
    4.4322    5.5012   -0.0741 C   0  0  1  0  0  0  0  0  0  0  0  0
    4.2741    4.9079   -1.4223 C   0  0  0  0  0  0  0  0  0  0  0  0
    4.4403    5.8995   -2.4966 C   0  0  0  0  0  0  0  0  0  0  0  0
    4.6775    5.3804   -3.7771 C   0  0  0  0  0  0  0  0  0  0  0  0
    4.8496    6.2051   -4.8629 C   0  0  0  0  0  0  0  0  0  0  0  0
    4.7946    7.5780   -4.7377 C   0  0  0  0  0  0  0  0  0  0  0  0
    4.5621    8.0913   -3.4817 C   0  0  0  0  0  0  0  0  0  0  0  0
    4.3881    7.2576   -2.3887 C   0  0  0  0  0  0  0  0  0  0  0  0
    4.1373    7.7998   -1.0916 N   0  0  0  0  0  0  0  0  0  0  0  0
    3.9668    6.8815   -0.0326 C   0  0  0  0  0  0  0  0  0  0  0  0
    3.3688    7.2963    1.0193 O   0  0  0  0  0  0  0  0  0  0  0  0
    4.9730    8.3557   -5.8677 O   0  0  0  0  0  0  0  0  0  0  0  0
    2.7626    1.9486    0.9363 C   0  0  0  0  0  0  0  0  0  0  0  0
    3.3766    1.2906   -0.1901 C   0  0  0  0  0  0  0  0  0  0  0  0
    3.5704    1.6921   -1.3368 O   0  0  0  0  0  0  0  0  0  0  0  0
    3.8383   -0.0634    0.0431 N   0  0  0  0  0  0  0  0  0  0  0  0
    4.6476   -0.8922   -0.7527 C   0  0  0  0  0  0  0  0  0  0  0  0
    3.9054   -1.8233   -1.5911 N   0  0  0  0  0  0  0  0  0  0  0  0
    3.7223   -3.2007   -1.3849 C   0  0  0  0  0  0  0  0  0  0  0  0
    4.1764   -3.6831   -0.3450 O   0  0  0  0  0  0  0  0  0  0  0  0
    3.0053   -4.1160   -2.3152 C   0  0  1  0  0  0  0  0  0  0  0  0
    3.8157   -4.4210   -3.5115 C   0  0  0  0  0  0  0  0  0  0  0  0
    5.1199   -5.0773   -3.3138 C   0  0  0  0  0  0  0  0  0  0  0  0
    6.2976   -4.3662   -3.2244 C   0  0  0  0  0  0  0  0  0  0  0  0
    7.4543   -5.1041   -3.0659 C   0  0  0  0  0  0  0  0  0  0  0  0
    7.4842   -6.4686   -2.9945 C   0  0  0  0  0  0  0  0  0  0  0  0
    6.3148   -7.1781   -3.0808 C   0  0  0  0  0  0  0  0  0  0  0  0
    5.1405   -6.4620   -3.2420 C   0  0  0  0  0  0  0  0  0  0  0  0
    2.5876   -5.3176   -1.5548 N   0  0  0  0  0  0  0  0  0  0  0  0
    1.1932   -5.4691   -1.4135 C   0  0  0  0  0  0  0  0  0  0  0  0
    0.4745   -4.7184   -2.0730 O   0  0  0  0  0  0  0  0  0  0  0  0
    0.4770   -6.4669   -0.5313 C   0  0  1  0  0  0  0  0  0  0  0  0
   -0.9236   -5.9563   -0.6424 N   0  0  0  0  0  0  0  0  0  0  0  0
   -1.1302   -4.6444   -0.1651 C   0  0  0  0  0  0  0  0  0  0  0  0
   -0.0221   -4.1461    0.3242 O   0  0  0  0  0  0  0  0  0  0  0  0
   -2.2448   -3.7682   -0.1083 C   0  0  2  0  0  0  0  0  0  0  0  0
   -3.5934   -4.3197   -0.2895 N   0  0  0  0  0  0  0  0  0  0  0  0
   -4.6462   -3.4436   -0.0211 C   0  0  0  0  0  0  0  0  0  0  0  0
   -4.3605   -2.2824    0.3257 O   0  0  0  0  0  0  0  0  0  0  0  0
   -6.1352   -3.7145   -0.1073 C   0  0  1  0  0  0  0  0  0  0  0  0
   -6.6183   -2.3421   -0.3428 N   0  0  0  0  0  0  0  0  0  0  0  0
   -6.6731   -1.3226    0.6203 C   0  0  0  0  0  0  0  0  0  0  0  0
   -6.3765   -1.6118    1.7767 O   0  0  0  0  0  0  0  0  0  0  0  0
   -7.0805    0.0335    0.1401 C   0  0  2  0  0  0  0  0  0  0  0  0
   -6.5536    0.9938    1.0967 N   0  0  0  0  0  0  0  0  0  0  0  0
   -5.5292    1.8513    0.6314 C   0  0  0  0  0  0  0  0  0  0  0  0
   -5.1816    1.7645   -0.5387 O   0  0  0  0  0  0  0  0  0  0  0  0
   -8.5214    0.2232   -0.1147 C   0  0  0  0  0  0  0  0  0  0  0  0
   -9.4494    0.0429    0.9911 C   0  0  0  0  0  0  0  0  0  0  0  0
   -9.9871   -1.2320    1.1890 C   0  0  0  0  0  0  0  0  0  0  0  0
  -10.8823   -1.3946    2.2229 C   0  0  0  0  0  0  0  0  0  0  0  0
  -11.2480   -0.3461    3.0456 C   0  0  0  0  0  0  0  0  0  0  0  0
  -10.7122    0.9192    2.8474 C   0  0  0  0  0  0  0  0  0  0  0  0
   -9.8021    1.1055    1.8039 C   0  0  0  0  0  0  0  0  0  0  0  0
   -6.5245   -4.7101   -1.1032 C   0  0  0  0  0  0  0  0  0  0  0  0
   -8.0072   -4.9192   -1.1499 C   0  0  0  0  0  0  0  0  0  0  0  0
   -8.6383   -5.8556   -0.3584 C   0  0  0  0  0  0  0  0  0  0  0  0
  -10.0237   -6.0430   -0.3946 C   0  0  0  0  0  0  0  0  0  0  0  0
  -10.7866   -5.2537   -1.2614 C   0  0  0  0  0  0  0  0  0  0  0  0
  -10.1668   -4.3141   -2.0601 C   0  0  0  0  0  0  0  0  0  0  0  0
   -8.7782   -4.1592   -1.9924 C   0  0  0  0  0  0  0  0  0  0  0  0
   -2.1735   -2.7013   -1.2326 C   0  0  0  0  0  0  0  0  0  0  0  0
   -2.2537   -3.3313   -2.5381 C   0  0  0  0  0  0  0  0  0  0  0  0
   -1.9124   -2.5951   -3.5391 O   0  0  0  0  0  0  0  0  0  0  0  0
   -2.6551   -4.6358   -2.8620 N   0  0  0  0  0  0  0  0  0  0  0  0
    0.6666   -7.8546   -0.8978 C   0  0  0  0  0  0  0  0  0  0  0  0
    5.3680   -1.7659    0.2722 C   0  0  0  0  0  0  0  0  0  0  0  0
    4.8806   -1.6402    1.4507 O   0  0  0  0  0  0  0  0  0  0  0  0
    6.4400   -2.6132    0.0173 N   0  0  0  0  0  0  0  0  0  0  0  0
    6.9388   -3.3276    1.1443 N   0  0  0  0  0  0  0  0  0  0  0  0
    7.9478   -2.5584    1.8438 C   0  0  2  0  0  0  0  0  0  0  0  0
    9.2274   -2.6513    1.1230 C   0  0  0  0  0  0  0  0  0  0  0  0
   10.1824   -1.8493    1.3802 O   0  0  0  0  0  0  0  0  0  0  0  0
    9.4420   -3.6596    0.1001 C   0  0  0  0  0  0  0  0  0  0  0  0
    8.6220   -4.5443   -0.2032 O   0  0  0  0  0  0  0  0  0  0  0  0
   10.6544   -3.6747   -0.6254 O   0  0  0  0  0  0  0  0  0  0  0  0
    8.0662   -3.0224    3.2884 C   0  0  0  0  0  0  0  0  0  0  0  0
    9.1239   -2.2083    3.9397 C   0  0  0  0  0  0  0  0  0  0  0  0
    8.8629   -0.9935    4.5355 C   0  0  0  0  0  0  0  0  0  0  0  0
    9.8462   -0.2409    5.1383 C   0  0  0  0  0  0  0  0  0  0  0  0
   11.1497   -0.7231    5.1515 C   0  0  0  0  0  0  0  0  0  0  0  0
   11.4570   -1.9362    4.5674 C   0  0  0  0  0  0  0  0  0  0  0  0
   10.4419   -2.6544    3.9732 C   0  0  0  0  0  0  0  0  0  0  0  0
   12.1982   -0.0285    5.7384 O   0  0  0  0  0  0  0  0  0  0  0  0
   -6.5438    7.7669    6.2095 H   0  0  0  0  0  0  0  0  0  0  0  0
   -4.8143    8.1305    6.2594 H   0  0  0  0  0  0  0  0  0  0  0  0
   -7.3006    8.3495    4.0907 H   0  0  0  0  0  0  0  0  0  0  0  0
   -3.4931    6.9361    4.1628 H   0  0  0  0  0  0  0  0  0  0  0  0
   -3.6927    5.6269    2.1466 H   0  0  0  0  0  0  0  0  0  0  0  0
   -5.2193    6.5315    1.8200 H   0  0  0  0  0  0  0  0  0  0  0  0
   -4.9382    4.3702    3.9767 H   0  0  0  0  0  0  0  0  0  0  0  0
   -6.4299    5.2393    3.4403 H   0  0  0  0  0  0  0  0  0  0  0  0
   -6.5678    4.1760    1.3706 H   0  0  0  0  0  0  0  0  0  0  0  0
   -6.5657    3.0490    2.7249 H   0  0  0  0  0  0  0  0  0  0  0  0
   -4.2849    2.3314    2.3051 H   0  0  0  0  0  0  0  0  0  0  0  0
   -4.2481    4.2163   -0.1017 H   0  0  0  0  0  0  0  0  0  0  0  0
   -1.5374    3.5060   -1.0796 H   0  0  0  0  0  0  0  0  0  0  0  0
   -2.3242    6.2660    0.0978 H   0  0  0  0  0  0  0  0  0  0  0  0
   -3.0327    5.3547   -1.2323 H   0  0  0  0  0  0  0  0  0  0  0  0
    0.1270    7.3504   -0.2679 H   0  0  0  0  0  0  0  0  0  0  0  0
    0.3492    6.9650   -4.4871 H   0  0  0  0  0  0  0  0  0  0  0  0
   -1.6285    5.4928   -3.5713 H   0  0  0  0  0  0  0  0  0  0  0  0
    0.2324    5.0856    0.6063 H   0  0  0  0  0  0  0  0  0  0  0  0
    1.6925    3.2542    2.1397 H   0  0  0  0  0  0  0  0  0  0  0  0
    2.0932    4.9892   -0.0403 H   0  0  0  0  0  0  0  0  0  0  0  0
    4.4488    3.8268    1.0337 H   0  0  0  0  0  0  0  0  0  0  0  0
    5.5382    5.5243    0.1534 H   0  0  0  0  0  0  0  0  0  0  0  0
    5.0034    4.0552   -1.6068 H   0  0  0  0  0  0  0  0  0  0  0  0
    3.2385    4.4732   -1.5855 H   0  0  0  0  0  0  0  0  0  0  0  0
    4.7242    4.2949   -3.9140 H   0  0  0  0  0  0  0  0  0  0  0  0
    5.0313    5.7306   -5.8409 H   0  0  0  0  0  0  0  0  0  0  0  0
    4.5156    9.1705   -3.3599 H   0  0  0  0  0  0  0  0  0  0  0  0
    4.0993    8.8291   -1.0014 H   0  0  0  0  0  0  0  0  0  0  0  0
    4.3266    9.0992   -6.1229 H   0  0  0  0  0  0  0  0  0  0  0  0
    2.1694    1.1083    1.4870 H   0  0  0  0  0  0  0  0  0  0  0  0
    3.6244    2.0553    1.7252 H   0  0  0  0  0  0  0  0  0  0  0  0
    3.4756   -0.4398    0.9513 H   0  0  0  0  0  0  0  0  0  0  0  0
    5.4354   -0.4611   -1.3857 H   0  0  0  0  0  0  0  0  0  0  0  0
    3.4706   -1.4412   -2.4364 H   0  0  0  0  0  0  0  0  0  0  0  0
    2.0887   -3.5312   -2.6451 H   0  0  0  0  0  0  0  0  0  0  0  0
    4.0485   -3.4945   -4.1211 H   0  0  0  0  0  0  0  0  0  0  0  0
    3.1742   -5.0110   -4.2417 H   0  0  0  0  0  0  0  0  0  0  0  0
    6.3161   -3.2946   -3.2764 H   0  0  0  0  0  0  0  0  0  0  0  0
    8.4128   -4.5809   -2.9869 H   0  0  0  0  0  0  0  0  0  0  0  0
    8.4548   -6.9568   -2.8713 H   0  0  0  0  0  0  0  0  0  0  0  0
    6.3663   -8.2470   -3.0174 H   0  0  0  0  0  0  0  0  0  0  0  0
    4.2341   -7.0565   -3.3074 H   0  0  0  0  0  0  0  0  0  0  0  0
    3.1926   -6.0028   -1.1569 H   0  0  0  0  0  0  0  0  0  0  0  0
    0.8488   -6.2220    0.4958 H   0  0  0  0  0  0  0  0  0  0  0  0
   -1.6896   -6.4745   -1.0102 H   0  0  0  0  0  0  0  0  0  0  0  0
   -2.2427   -3.1293    0.8214 H   0  0  0  0  0  0  0  0  0  0  0  0
   -3.8081   -5.2700   -0.5681 H   0  0  0  0  0  0  0  0  0  0  0  0
   -6.4008   -4.0636    0.9296 H   0  0  0  0  0  0  0  0  0  0  0  0
   -6.9282   -2.1328   -1.2812 H   0  0  0  0  0  0  0  0  0  0  0  0
   -6.5668    0.1848   -0.8557 H   0  0  0  0  0  0  0  0  0  0  0  0
   -6.8434    1.1193    2.0579 H   0  0  0  0  0  0  0  0  0  0  0  0
   -8.8212   -0.3906   -1.0147 H   0  0  0  0  0  0  0  0  0  0  0  0
   -8.6477    1.2761   -0.4799 H   0  0  0  0  0  0  0  0  0  0  0  0
   -9.6919   -2.0635    0.5270 H   0  0  0  0  0  0  0  0  0  0  0  0
  -11.3106   -2.3794    2.3871 H   0  0  0  0  0  0  0  0  0  0  0  0
  -11.9523   -0.4560    3.8584 H   0  0  0  0  0  0  0  0  0  0  0  0
  -11.0233    1.7048    3.5038 H   0  0  0  0  0  0  0  0  0  0  0  0
   -9.3685    2.1028    1.6464 H   0  0  0  0  0  0  0  0  0  0  0  0
   -6.1174   -5.7108   -0.7815 H   0  0  0  0  0  0  0  0  0  0  0  0
   -6.1505   -4.5187   -2.1318 H   0  0  0  0  0  0  0  0  0  0  0  0
   -8.0552   -6.4825    0.3219 H   0  0  0  0  0  0  0  0  0  0  0  0
  -10.4961   -6.7887    0.2383 H   0  0  0  0  0  0  0  0  0  0  0  0
  -11.8633   -5.3735   -1.3092 H   0  0  0  0  0  0  0  0  0  0  0  0
  -10.7251   -3.6849   -2.7359 H   0  0  0  0  0  0  0  0  0  0  0  0
   -8.3538   -3.4031   -2.6519 H   0  0  0  0  0  0  0  0  0  0  0  0
   -1.0625   -2.3842   -1.1400 H   0  0  0  0  0  0  0  0  0  0  0  0
   -2.7995   -1.8486   -1.0290 H   0  0  0  0  0  0  0  0  0  0  0  0
   -3.7007   -4.8243   -2.8613 H   0  0  0  0  0  0  0  0  0  0  0  0
   -2.0585   -5.4300   -3.1067 H   0  0  0  0  0  0  0  0  0  0  0  0
    1.0091   -8.4537   -0.0244 H   0  0  0  0  0  0  0  0  0  0  0  0
    1.5284   -7.9171   -1.6309 H   0  0  0  0  0  0  0  0  0  0  0  0
   -0.1751   -8.3502   -1.4201 H   0  0  0  0  0  0  0  0  0  0  0  0
    6.8153   -2.6875   -0.9369 H   0  0  0  0  0  0  0  0  0  0  0  0
    6.1720   -3.4882    1.8405 H   0  0  0  0  0  0  0  0  0  0  0  0
    7.6209   -1.4774    1.8674 H   0  0  0  0  0  0  0  0  0  0  0  0
   10.8875   -4.4931   -1.1561 H   0  0  0  0  0  0  0  0  0  0  0  0
    7.0975   -2.9102    3.8209 H   0  0  0  0  0  0  0  0  0  0  0  0
    8.3184   -4.0896    3.3412 H   0  0  0  0  0  0  0  0  0  0  0  0
    7.8511   -0.6074    4.5366 H   0  0  0  0  0  0  0  0  0  0  0  0
    9.6338    0.7306    5.6118 H   0  0  0  0  0  0  0  0  0  0  0  0
   12.4860   -2.2865    4.5977 H   0  0  0  0  0  0  0  0  0  0  0  0
   10.7343   -3.6067    3.5269 H   0  0  0  0  0  0  0  0  0  0  0  0
   12.1633    0.1745    6.7281 H   0  0  0  0  0  0  0  0  0  0  0  0
  1  2  1  0
  2  3  2  3
  2  4  1  0
  4  5  1  0
  5  6  1  0
  6  7  1  0
  7  8  1  0
  8  9  1  0
  9 10  1  0
 10 11  2  0
 10 12  1  0
 12 13  1  0
 13 14  1  0
 14 15  2  0
 15 16  1  0
 16 17  2  0
 17 18  1  0
 12 19  1  0
 19 20  1  0
 20 21  2  0
 20 22  1  0
 22 23  1  0
 23 24  1  0
 24 25  1  0
 25 26  1  0
 26 27  1  0
 27 28  2  0
 28 29  1  0
 29 30  2  0
 30 31  1  0
 31 32  2  0
 32 33  1  0
 33 34  1  0
 34 35  2  0
 30 36  1  0
 22 37  1  0
 37 38  1  0
 38 39  2  0
 38 40  1  0
 40 41  1  0
 41 42  1  0
 42 43  1  0
 43 44  2  0
 43 45  1  0
 45 46  1  0
 46 47  1  0
 47 48  2  0
 48 49  1  0
 49 50  2  0
 50 51  1  0
 51 52  2  0
 45 53  1  0
 53 54  1  0
 54 55  2  0
 54 56  1  0
 56 57  1  0
 57 58  1  0
 58 59  2  0
 58 60  1  0
 60 61  1  0
 61 62  1  0
 62 63  2  0
 62 64  1  0
 64 65  1  0
 65 66  1  0
 66 67  2  0
 66 68  1  0
 68 69  1  0
 69 70  1  0
 70 71  2  0
 68 72  1  0
 72 73  1  0
 73 74  2  0
 74 75  1  0
 75 76  2  0
 76 77  1  0
 77 78  2  0
 64 79  1  0
 79 80  1  0
 80 81  2  0
 81 82  1  0
 82 83  2  0
 83 84  1  0
 84 85  2  0
 60 86  1  0
 86 87  1  0
 87 88  2  0
 87 89  1  0
 56 90  1  0
 41 91  1  0
 91 92  2  0
 91 93  1  0
 93 94  1  0
 94 95  1  0
 95 96  1  0
 96 97  2  0
 96 98  1  0
 98 99  2  0
 98100  1  0
 95101  1  0
101102  1  0
102103  2  0
103104  1  0
104105  2  0
105106  1  0
106107  2  0
105108  1  0
 70  8  1  0
 78 73  1  0
 85 80  1  0
107102  1  0
 18 14  1  0
 34 25  1  0
 52 47  1  0
 32 27  1  0
  1109  1  0
  1110  1  0
  3111  1  0
  4112  1  0
  5113  1  0
  5114  1  0
  6115  1  0
  6116  1  0
  7117  1  0
  7118  1  0
  8119  1  1
  9120  1  0
 12121  1  6
 13122  1  0
 13123  1  0
 15124  1  0
 17125  1  0
 18126  1  0
 19127  1  0
 22128  1  1
 23129  1  0
 24130  1  0
 25131  1  1
 26132  1  0
 26133  1  0
 28134  1  0
 29135  1  0
 31136  1  0
 33137  1  0
 36138  1  0
 37139  1  0
 37140  1  0
 40141  1  0
 41142  1  0
 42143  1  0
 45144  1  6
 46145  1  0
 46146  1  0
 48147  1  0
 49148  1  0
 50149  1  0
 51150  1  0
 52151  1  0
 53152  1  0
 56153  1  1
 57154  1  0
 60155  1  1
 61156  1  0
 64157  1  1
 65158  1  0
 68159  1  6
 69160  1  0
 72161  1  0
 72162  1  0
 74163  1  0
 75164  1  0
 76165  1  0
 77166  1  0
 78167  1  0
 79168  1  0
 79169  1  0
 81170  1  0
 82171  1  0
 83172  1  0
 84173  1  0
 85174  1  0
 86175  1  0
 86176  1  0
 89177  1  0
 89178  1  0
 90179  1  0
 90180  1  0
 90181  1  0
 93182  1  0
 94183  1  0
 95184  1  1
100185  1  0
101186  1  0
101187  1  0
103188  1  0
104189  1  0
106190  1  0
107191  1  0
108192  1  0
M  END
>  <Ligand ID>  (1) 
LIG0002279

>  <Ligand>  (1) 
CHEMBL414900

>  <SMILES>  (1) 
NC(=N)NCCC[C@@H]1NC(=O)[C@@H](Cc2cnc[nH]2)NC(=O)[C@H](NN[C@H]2Cc3ccc(cc3NC2=O)O)CC(=O)NC(NC(=O)[C@@H](Cc2ccccc2)NC(=O)[C@@H](NC(=O)[C@H](NC(=O)[C@@H](NC(=O)[C@H](NC1=O)Cc1ccccc1)Cc1ccccc1)CC(=O)N)C)C(=O)NN[C@H](C(=O)C(=O)O)Cc1ccc(cc1)O

>  <CID>  (1) 
91932910.0

>  <ChEMBL ID>  (1) 
nan

>  <InChiKey>  (1) 
BXRPCYASTSTGKR-FHJBMNMKSA-N

>  <InChi>  (1) 
InChI=1S/C71H84N20O17/c1-37-60(97)81-51(29-40-16-9-4-10-17-40)66(103)87-59(69(106)91-88-48(58(96)70(107)108)26-41-19-22-44(92)23-20-41)86-57(95)34-55(90-89-54-30-42-21-24-45(93)32-47(42)80-67(54)104)68(105)84-52(31-43-35-75-36-77-43)65(102)79-46(18-11-25-76-71(73)74)61(98)82-49(27-38-12-5-2-6-13-38)63(100)83-50(28-39-14-7-3-8-15-39)64(101)85-53(33-56(72)94)62(99)78-37/h2-10,12-17,19-24,32,35-37,46,48-55,59,88-90,92-93H,11,18,25-31,33-34H2,1H3,(H2,72,94)(H,75,77)(H,78,99)(H,79,102)(H,80,104)(H,81,97)(H,82,98)(H,83,100)(H,84,105)(H,85,101)(H,86,95)(H,87,103)(H,91,106)(H,107,108)(H4,73,74,76)/t37-,46-,48-,49+,50-,51+,52+,53+,54-,55+,59?/m0/s1

>  <IUPAC Name>  (1) 
(3S)-3-[2-[(5R,8S,11R,14S,17R,20S,23R,26R)-11-(2-amino-2-oxoethyl)-5,14,17-tribenzyl-20-(3-carbamimidamidopropyl)-26-[2-[(3S)-7-hydroxy-2-oxo-3,4-dihydro-1H-quinolin-3-yl]hydrazinyl]-23-(1H-imidazol-5-ylmethyl)-8-methyl-4,7,10,13,16,19,22,25,28-nonaoxo-1,3,6,9,12,15,18,21,24-nonazacyclooctacosane-2-carbonyl]hydrazinyl]-4-(4-hydroxyphenyl)-2-oxobutanoic acid

$$$$
