
     RDKit          3D

154159  0  0  0  0  0  0  0  0999 V2000
    1.7618   -3.5384   -3.0731 C   0  0  0  0  0  0  0  0  0  0  0  0
    0.0700   -3.1675   -2.4830 S   0  0  0  0  0  0  0  0  0  0  0  0
    0.2099   -1.9371   -1.1234 C   0  0  0  0  0  0  0  0  0  0  0  0
    0.7158   -0.6440   -1.6608 C   0  0  0  0  0  0  0  0  0  0  0  0
    0.8836    0.4414   -0.5855 C   0  0  1  0  0  0  0  0  0  0  0  0
   -0.3651    0.7468    0.0893 C   0  0  0  0  0  0  0  0  0  0  0  0
   -0.4025    0.5397    1.3618 O   0  0  0  0  0  0  0  0  0  0  0  0
   -1.5587    1.2494   -0.4908 N   0  0  0  0  0  0  0  0  0  0  0  0
   -1.6420    1.5354   -1.9300 C   0  0  0  0  0  0  0  0  0  0  0  0
   -2.6757    2.6411   -1.9625 C   0  0  0  0  0  0  0  0  0  0  0  0
   -3.4924    2.5352   -0.7098 C   0  0  0  0  0  0  0  0  0  0  0  0
   -2.7986    1.5596    0.1587 C   0  0  1  0  0  0  0  0  0  0  0  0
   -3.6326    0.3620    0.5058 C   0  0  0  0  0  0  0  0  0  0  0  0
   -3.2746   -0.8081    0.2543 O   0  0  0  0  0  0  0  0  0  0  0  0
   -4.8614    0.6215    1.1422 N   0  0  0  0  0  0  0  0  0  0  0  0
   -5.8451   -0.2895    1.5883 C   0  0  2  0  0  0  0  0  0  0  0  0
   -7.1808   -0.1555    0.9340 C   0  0  0  0  0  0  0  0  0  0  0  0
   -8.2066   -0.6357    1.4974 O   0  0  0  0  0  0  0  0  0  0  0  0
   -7.3400    0.4886   -0.2940 N   0  0  0  0  0  0  0  0  0  0  0  0
   -8.6488    0.6333   -0.8793 C   0  0  2  0  0  0  0  0  0  0  0  0
   -9.0930   -0.6737   -1.4975 C   0  0  0  0  0  0  0  0  0  0  0  0
  -10.1716   -0.6299   -2.1252 O   0  0  0  0  0  0  0  0  0  0  0  0
   -8.3718   -1.8295   -1.3782 O   0  0  0  0  0  0  0  0  0  0  0  0
   -8.6862   -3.0941   -1.8994 C   0  0  0  0  0  0  0  0  0  0  0  0
   -9.9988   -3.5444   -1.3537 C   0  0  0  0  0  0  0  0  0  0  0  0
  -10.1144   -4.1511   -0.1137 C   0  0  0  0  0  0  0  0  0  0  0  0
  -11.3166   -4.6057    0.3959 C   0  0  0  0  0  0  0  0  0  0  0  0
  -12.4450   -4.4386   -0.3798 C   0  0  0  0  0  0  0  0  0  0  0  0
  -12.3964   -3.8440   -1.6177 C   0  0  0  0  0  0  0  0  0  0  0  0
  -11.1752   -3.3945   -2.1100 C   0  0  0  0  0  0  0  0  0  0  0  0
  -13.5805   -3.6547   -2.4674 C   0  0  0  0  0  0  0  0  0  0  0  0
  -13.1620   -3.6001   -3.8006 F   0  0  0  0  0  0  0  0  0  0  0  0
  -14.1537   -2.3956   -2.2389 F   0  0  0  0  0  0  0  0  0  0  0  0
  -14.5726   -4.5786   -2.2962 F   0  0  0  0  0  0  0  0  0  0  0  0
  -11.4260   -5.2505    1.7400 C   0  0  0  0  0  0  0  0  0  0  0  0
  -12.4467   -4.5537    2.4129 F   0  0  0  0  0  0  0  0  0  0  0  0
  -10.2528   -4.9452    2.4417 F   0  0  0  0  0  0  0  0  0  0  0  0
  -11.6594   -6.5863    1.6870 F   0  0  0  0  0  0  0  0  0  0  0  0
   -8.7203    1.6722   -1.9474 C   0  0  0  0  0  0  0  0  0  0  0  0
   -8.3388    3.0322   -1.5200 C   0  0  0  0  0  0  0  0  0  0  0  0
   -7.1017    3.5840   -1.8825 C   0  0  0  0  0  0  0  0  0  0  0  0
   -6.9857    4.8193   -1.3874 N   0  0  0  0  0  0  0  0  0  0  0  0
   -8.1214    5.0765   -0.7159 C   0  0  0  0  0  0  0  0  0  0  0  0
   -8.9636    3.9894   -0.7855 C   0  0  0  0  0  0  0  0  0  0  0  0
  -10.1961    3.9789   -0.1840 C   0  0  0  0  0  0  0  0  0  0  0  0
  -10.6584    5.0823    0.5322 C   0  0  0  0  0  0  0  0  0  0  0  0
   -9.8150    6.2032    0.6133 C   0  0  0  0  0  0  0  0  0  0  0  0
   -8.5693    6.1700   -0.0127 C   0  0  0  0  0  0  0  0  0  0  0  0
   -5.9420   -0.4491    3.0536 C   0  0  0  0  0  0  0  0  0  0  0  0
   -6.2544    0.7464    3.8804 C   0  0  0  0  0  0  0  0  0  0  0  0
   -6.3223    0.2319    5.3348 C   0  0  0  0  0  0  0  0  0  0  0  0
   -5.1400    1.7749    3.8552 C   0  0  0  0  0  0  0  0  0  0  0  0
    1.9181   -0.0193    0.3540 N   0  0  0  0  0  0  0  0  0  0  0  0
    3.2865   -0.1005    0.0158 C   0  0  0  0  0  0  0  0  0  0  0  0
    3.6725    0.2210   -1.1562 O   0  0  0  0  0  0  0  0  0  0  0  0
    4.3130   -0.5753    1.0219 C   0  0  2  0  0  0  0  0  0  0  0  0
    4.7797    0.5179    1.9256 C   0  0  0  0  0  0  0  0  0  0  0  0
    5.4246    1.6555    1.2485 C   0  0  0  0  0  0  0  0  0  0  0  0
    6.7908    1.6848    1.0711 C   0  0  0  0  0  0  0  0  0  0  0  0
    7.4502    2.7336    0.4322 C   0  0  0  0  0  0  0  0  0  0  0  0
    6.6859    3.7952   -0.0451 C   0  0  0  0  0  0  0  0  0  0  0  0
    5.3309    3.7280    0.1500 C   0  0  0  0  0  0  0  0  0  0  0  0
    4.6758    2.7136    0.7699 C   0  0  0  0  0  0  0  0  0  0  0  0
    5.4775   -1.0736    0.2929 N   0  0  0  0  0  0  0  0  0  0  0  0
    5.6555   -2.4690    0.2985 C   0  0  0  0  0  0  0  0  0  0  0  0
    4.7794   -3.1385    0.9595 O   0  0  0  0  0  0  0  0  0  0  0  0
    6.6986   -3.2635   -0.3503 C   0  0  0  0  0  0  0  0  0  0  0  0
    7.7058   -2.5674   -1.0831 N   0  0  0  0  0  0  0  0  0  0  0  0
    8.6590   -1.6706   -0.5568 C   0  0  0  0  0  0  0  0  0  0  0  0
    8.6705   -1.4211    0.6699 O   0  0  0  0  0  0  0  0  0  0  0  0
    9.6211   -1.0679   -1.5284 C   0  0  2  0  0  0  0  0  0  0  0  0
   10.7147   -0.3652   -0.8787 N   0  0  0  0  0  0  0  0  0  0  0  0
   12.0251   -0.8918   -1.1939 C   0  0  0  0  0  0  0  0  0  0  0  0
   12.1635   -1.8718   -1.9783 O   0  0  0  0  0  0  0  0  0  0  0  0
   13.2773   -0.3270   -0.6239 C   0  0  2  0  0  0  0  0  0  0  0  0
   13.8904   -1.4133    0.2268 C   0  0  0  0  0  0  0  0  0  0  0  0
   15.1465   -0.9059    0.8169 C   0  0  0  0  0  0  0  0  0  0  0  0
   15.2223   -0.2304    2.0142 C   0  0  0  0  0  0  0  0  0  0  0  0
   16.4160    0.2024    2.5412 C   0  0  0  0  0  0  0  0  0  0  0  0
   17.5583   -0.0638    1.8229 C   0  0  0  0  0  0  0  0  0  0  0  0
   17.5571   -0.7366    0.6138 C   0  0  0  0  0  0  0  0  0  0  0  0
   16.3169   -1.1622    0.1108 C   0  0  0  0  0  0  0  0  0  0  0  0
   18.7873    0.3479    2.3044 O   0  0  0  0  0  0  0  0  0  0  0  0
   12.9877    0.7896    0.2336 N   0  0  0  0  0  0  0  0  0  0  0  0
    8.9006   -0.0176   -2.3686 C   0  0  0  0  0  0  0  0  0  0  0  0
    2.5051   -2.9695   -2.5073 H   0  0  0  0  0  0  0  0  0  0  0  0
    1.8803   -3.3197   -4.1569 H   0  0  0  0  0  0  0  0  0  0  0  0
    1.9354   -4.6156   -2.8786 H   0  0  0  0  0  0  0  0  0  0  0  0
   -0.8288   -1.7915   -0.7450 H   0  0  0  0  0  0  0  0  0  0  0  0
    0.8401   -2.3558   -0.3373 H   0  0  0  0  0  0  0  0  0  0  0  0
    1.7787   -0.8497   -1.9967 H   0  0  0  0  0  0  0  0  0  0  0  0
    0.2245   -0.2676   -2.5676 H   0  0  0  0  0  0  0  0  0  0  0  0
    1.3326    1.2779   -1.1523 H   0  0  0  0  0  0  0  0  0  0  0  0
   -1.9239    0.6773   -2.5367 H   0  0  0  0  0  0  0  0  0  0  0  0
   -0.6445    1.9453   -2.2516 H   0  0  0  0  0  0  0  0  0  0  0  0
   -3.3206    2.5101   -2.8379 H   0  0  0  0  0  0  0  0  0  0  0  0
   -2.1283    3.6151   -1.9999 H   0  0  0  0  0  0  0  0  0  0  0  0
   -4.5294    2.1981   -0.9662 H   0  0  0  0  0  0  0  0  0  0  0  0
   -3.5508    3.5364   -0.2105 H   0  0  0  0  0  0  0  0  0  0  0  0
   -2.5137    2.0550    1.1294 H   0  0  0  0  0  0  0  0  0  0  0  0
   -5.0823    1.6638    1.2945 H   0  0  0  0  0  0  0  0  0  0  0  0
   -5.4871   -1.3170    1.2148 H   0  0  0  0  0  0  0  0  0  0  0  0
   -6.5257    0.8772   -0.8153 H   0  0  0  0  0  0  0  0  0  0  0  0
   -9.3534    0.8721   -0.0461 H   0  0  0  0  0  0  0  0  0  0  0  0
   -7.8910   -3.8412   -1.6878 H   0  0  0  0  0  0  0  0  0  0  0  0
   -8.8272   -2.9813   -3.0045 H   0  0  0  0  0  0  0  0  0  0  0  0
   -9.2514   -4.2851    0.4906 H   0  0  0  0  0  0  0  0  0  0  0  0
  -13.4191   -4.7898    0.0024 H   0  0  0  0  0  0  0  0  0  0  0  0
  -11.1520   -2.9340   -3.0984 H   0  0  0  0  0  0  0  0  0  0  0  0
   -8.1344    1.3895   -2.8574 H   0  0  0  0  0  0  0  0  0  0  0  0
   -9.7783    1.7707   -2.3455 H   0  0  0  0  0  0  0  0  0  0  0  0
   -6.3398    3.0991   -2.4784 H   0  0  0  0  0  0  0  0  0  0  0  0
   -6.1842    5.4922   -1.4820 H   0  0  0  0  0  0  0  0  0  0  0  0
  -10.8215    3.1070   -0.2652 H   0  0  0  0  0  0  0  0  0  0  0  0
  -11.6276    5.0949    1.0149 H   0  0  0  0  0  0  0  0  0  0  0  0
  -10.1372    7.0976    1.1715 H   0  0  0  0  0  0  0  0  0  0  0  0
   -7.9810    7.0886    0.1054 H   0  0  0  0  0  0  0  0  0  0  0  0
   -4.9924   -0.8874    3.4442 H   0  0  0  0  0  0  0  0  0  0  0  0
   -6.7584   -1.1962    3.2499 H   0  0  0  0  0  0  0  0  0  0  0  0
   -7.1975    1.2453    3.7063 H   0  0  0  0  0  0  0  0  0  0  0  0
   -6.7110   -0.8157    5.3052 H   0  0  0  0  0  0  0  0  0  0  0  0
   -5.3267    0.3198    5.8073 H   0  0  0  0  0  0  0  0  0  0  0  0
   -7.0332    0.8487    5.9165 H   0  0  0  0  0  0  0  0  0  0  0  0
   -4.2383    1.2889    3.4634 H   0  0  0  0  0  0  0  0  0  0  0  0
   -4.9210    2.0501    4.9112 H   0  0  0  0  0  0  0  0  0  0  0  0
   -5.4278    2.7178    3.3708 H   0  0  0  0  0  0  0  0  0  0  0  0
    1.6401   -0.3046    1.3291 H   0  0  0  0  0  0  0  0  0  0  0  0
    3.8059   -1.3608    1.5888 H   0  0  0  0  0  0  0  0  0  0  0  0
    3.9935    0.9024    2.5986 H   0  0  0  0  0  0  0  0  0  0  0  0
    5.5611    0.0545    2.5951 H   0  0  0  0  0  0  0  0  0  0  0  0
    7.3951    0.8578    1.4428 H   0  0  0  0  0  0  0  0  0  0  0  0
    8.5238    2.6951    0.3310 H   0  0  0  0  0  0  0  0  0  0  0  0
    7.1932    4.6131   -0.5399 H   0  0  0  0  0  0  0  0  0  0  0  0
    4.7525    4.5763   -0.2351 H   0  0  0  0  0  0  0  0  0  0  0  0
    3.6177    2.7002    0.8988 H   0  0  0  0  0  0  0  0  0  0  0  0
    6.1580   -0.4864   -0.2076 H   0  0  0  0  0  0  0  0  0  0  0  0
    7.2258   -3.9342    0.3974 H   0  0  0  0  0  0  0  0  0  0  0  0
    6.1546   -3.9713   -1.0383 H   0  0  0  0  0  0  0  0  0  0  0  0
    7.7402   -2.7444   -2.1343 H   0  0  0  0  0  0  0  0  0  0  0  0
    9.9876   -1.8493   -2.1916 H   0  0  0  0  0  0  0  0  0  0  0  0
   10.6030    0.4454   -0.2427 H   0  0  0  0  0  0  0  0  0  0  0  0
   13.9880   -0.0073   -1.4141 H   0  0  0  0  0  0  0  0  0  0  0  0
   14.0574   -2.3083   -0.4085 H   0  0  0  0  0  0  0  0  0  0  0  0
   13.1523   -1.6473    1.0313 H   0  0  0  0  0  0  0  0  0  0  0  0
   14.3101   -0.0347    2.5421 H   0  0  0  0  0  0  0  0  0  0  0  0
   16.3948    0.7244    3.4785 H   0  0  0  0  0  0  0  0  0  0  0  0
   18.4781   -0.9074    0.1042 H   0  0  0  0  0  0  0  0  0  0  0  0
   16.2875   -1.6973   -0.8416 H   0  0  0  0  0  0  0  0  0  0  0  0
   19.3602    0.9567    1.7443 H   0  0  0  0  0  0  0  0  0  0  0  0
   12.3546    0.4779    1.0136 H   0  0  0  0  0  0  0  0  0  0  0  0
   12.6183    1.6283   -0.2469 H   0  0  0  0  0  0  0  0  0  0  0  0
    8.3579    0.6326   -1.6134 H   0  0  0  0  0  0  0  0  0  0  0  0
    9.5951    0.5429   -2.9956 H   0  0  0  0  0  0  0  0  0  0  0  0
    8.1125   -0.5324   -2.9401 H   0  0  0  0  0  0  0  0  0  0  0  0
  1  2  1  0
  2  3  1  0
  3  4  1  0
  4  5  1  0
  5  6  1  0
  6  7  2  0
  6  8  1  0
  8  9  1  0
  9 10  1  0
 10 11  1  0
 11 12  1  0
 12 13  1  0
 13 14  2  0
 13 15  1  0
 15 16  1  0
 16 17  1  0
 17 18  2  0
 17 19  1  0
 19 20  1  0
 20 21  1  0
 21 22  2  0
 21 23  1  0
 23 24  1  0
 24 25  1  0
 25 26  2  0
 26 27  1  0
 27 28  2  0
 28 29  1  0
 29 30  2  0
 29 31  1  0
 31 32  1  0
 31 33  1  0
 31 34  1  0
 27 35  1  0
 35 36  1  0
 35 37  1  0
 35 38  1  0
 20 39  1  0
 39 40  1  0
 40 41  2  0
 41 42  1  0
 42 43  1  0
 43 44  2  0
 44 45  1  0
 45 46  2  0
 46 47  1  0
 47 48  2  0
 16 49  1  0
 49 50  1  0
 50 51  1  0
 50 52  1  0
  5 53  1  0
 53 54  1  0
 54 55  2  0
 54 56  1  0
 56 57  1  0
 57 58  1  0
 58 59  2  0
 59 60  1  0
 60 61  2  0
 61 62  1  0
 62 63  2  0
 56 64  1  0
 64 65  1  0
 65 66  2  0
 65 67  1  0
 67 68  1  0
 68 69  1  0
 69 70  2  0
 69 71  1  0
 71 72  1  0
 72 73  1  0
 73 74  2  0
 73 75  1  0
 75 76  1  0
 76 77  1  0
 77 78  2  0
 78 79  1  0
 79 80  2  0
 80 81  1  0
 81 82  2  0
 80 83  1  0
 75 84  1  0
 71 85  1  0
 12  8  1  0
 30 25  1  0
 44 40  1  0
 63 58  1  0
 82 77  1  0
 48 43  1  0
  1 86  1  0
  1 87  1  0
  1 88  1  0
  3 89  1  0
  3 90  1  0
  4 91  1  0
  4 92  1  0
  5 93  1  6
  9 94  1  0
  9 95  1  0
 10 96  1  0
 10 97  1  0
 11 98  1  0
 11 99  1  0
 12100  1  1
 15101  1  0
 16102  1  6
 19103  1  0
 20104  1  1
 24105  1  0
 24106  1  0
 26107  1  0
 28108  1  0
 30109  1  0
 39110  1  0
 39111  1  0
 41112  1  0
 42113  1  0
 45114  1  0
 46115  1  0
 47116  1  0
 48117  1  0
 49118  1  0
 49119  1  0
 50120  1  0
 51121  1  0
 51122  1  0
 51123  1  0
 52124  1  0
 52125  1  0
 52126  1  0
 53127  1  0
 56128  1  1
 57129  1  0
 57130  1  0
 59131  1  0
 60132  1  0
 61133  1  0
 62134  1  0
 63135  1  0
 64136  1  0
 67137  1  0
 67138  1  0
 68139  1  0
 71140  1  6
 72141  1  0
 75142  1  6
 76143  1  0
 76144  1  0
 78145  1  0
 79146  1  0
 81147  1  0
 82148  1  0
 83149  1  0
 84150  1  0
 84151  1  0
 85152  1  0
 85153  1  0
 85154  1  0
M  END
>  <Ligand ID>  (1) 
LIG0005381

>  <Ligand>  (1) 
CHEMBL389652

>  <SMILES>  (1) 
CSCC[C@@H](C(=O)N1CCC[C@H]1C(=O)N[C@H](C(=O)N[C@H](C(=O)OCc1cc(cc(c1)C(F)(F)F)C(F)(F)F)Cc1c[nH]c2c1cccc2)CC(C)C)NC(=O)[C@H](Cc1ccccc1)NC(=O)CNC(=O)[C@H](NC(=O)[C@H](Cc1ccc(cc1)O)N)C

>  <CID>  (1) 
16737673.0

>  <ChEMBL ID>  (1) 
nan

>  <InChiKey>  (1) 
TWBCIHKYFTWYCV-WXYSSXJFSA-N

>  <InChi>  (1) 
InChI=1S/C59H69F6N9O10S/c1-33(2)23-46(53(79)73-48(28-38-30-67-44-14-9-8-13-42(38)44)57(83)84-32-37-24-39(58(60,61)62)29-40(25-37)59(63,64)65)72-55(81)49-15-10-21-74(49)56(82)45(20-22-85-4)71-54(80)47(27-35-11-6-5-7-12-35)70-50(76)31-68-51(77)34(3)69-52(78)43(66)26-36-16-18-41(75)19-17-36/h5-9,11-14,16-19,24-25,29-30,33-34,43,45-49,67,75H,10,15,20-23,26-28,31-32,66H2,1-4H3,(H,68,77)(H,69,78)(H,70,76)(H,71,80)(H,72,81)(H,73,79)/t34-,43+,45+,46+,47+,48+,49+/m1/s1

>  <IUPAC Name>  (1) 
[3,5-bis(trifluoromethyl)phenyl]methyl (2S)-2-[[(2S)-2-[[(2S)-1-[(2S)-2-[[(2S)-2-[[2-[[(2R)-2-[[(2S)-2-amino-3-(4-hydroxyphenyl)propanoyl]amino]propanoyl]amino]acetyl]amino]-3-phenylpropanoyl]amino]-4-methylsulfanylbutanoyl]pyrrolidine-2-carbonyl]amino]-4-methylpentanoyl]amino]-3-(1H-indol-3-yl)propanoate

$$$$
