
     RDKit          3D

 82 89  0  0  0  0  0  0  0  0999 V2000
   -3.7028    6.2809   -0.0529 C   0  0  0  0  0  0  0  0  0  0  0  0
   -2.9365    5.2114   -0.5494 O   0  0  0  0  0  0  0  0  0  0  0  0
   -3.0939    3.9110   -0.1123 C   0  0  0  0  0  0  0  0  0  0  0  0
   -4.0236    3.5473    0.8611 C   0  0  0  0  0  0  0  0  0  0  0  0
   -4.1684    2.2240    1.2923 C   0  0  0  0  0  0  0  0  0  0  0  0
   -3.3559    1.2395    0.7275 C   0  0  0  0  0  0  0  0  0  0  0  0
   -2.4773    1.6670   -0.2148 C   0  0  0  0  0  0  0  0  0  0  0  0
   -2.2862    2.9192   -0.6709 C   0  0  0  0  0  0  0  0  0  0  0  0
   -1.2783    2.8525   -1.6161 O   0  0  0  0  0  0  0  0  0  0  0  0
   -0.6546    1.5659   -1.6226 C   0  0  2  0  0  0  0  0  0  0  0  0
   -1.6215    0.6710   -0.8915 C   0  0  2  0  0  0  0  0  0  0  0  0
   -2.4887   -0.1263   -1.8200 C   0  0  0  0  0  0  0  0  0  0  0  0
   -2.5447   -1.6041   -1.5285 C   0  0  0  0  0  0  0  0  0  0  0  0
   -2.5370   -1.9383   -0.1706 N   0  0  0  0  0  0  0  0  0  0  0  0
   -2.1434   -0.9648    0.7645 C   0  0  2  0  0  0  0  0  0  0  0  0
   -3.3785   -0.1774    1.1440 C   0  0  0  0  0  0  0  0  0  0  0  0
   -1.0161   -0.0920    0.2460 C   0  0  2  0  0  0  0  0  0  0  0  0
   -0.5597    0.9064    1.2838 C   0  0  0  0  0  0  0  0  0  0  0  0
    0.3344    1.9163    0.5917 C   0  0  0  0  0  0  0  0  0  0  0  0
    0.6454    1.5017   -0.8464 C   0  0  2  0  0  0  0  0  0  0  0  0
    1.4927    2.3991   -1.4077 O   0  0  0  0  0  0  0  0  0  0  0  0
    1.2255    3.7137   -1.4673 C   0  0  0  0  0  0  0  0  0  0  0  0
    1.1427    0.0934   -0.9076 C   0  0  2  0  0  0  0  0  0  0  0  0
    0.2184   -0.8271   -0.1405 C   0  0  0  0  0  0  0  0  0  0  0  0
    2.5742   -0.2039   -0.7945 C   0  0  0  0  0  0  0  0  0  0  0  0
    3.3892    0.1167    0.3061 N   0  0  0  0  0  0  0  0  0  0  0  0
    4.2130    1.2942    0.4597 C   0  0  0  0  0  0  0  0  0  0  0  0
    4.8248    1.5213    1.5547 O   0  0  0  0  0  0  0  0  0  0  0  0
    4.4326    2.3098   -0.5922 C   0  0  0  0  0  0  0  0  0  0  0  0
    3.5549   -0.8211    1.4496 C   0  0  0  0  0  0  0  0  0  0  0  0
    4.6312   -1.8226    1.1382 C   0  0  0  0  0  0  0  0  0  0  0  0
    5.9534   -1.6191    1.4451 C   0  0  0  0  0  0  0  0  0  0  0  0
    6.9294   -2.5716    1.1461 C   0  0  0  0  0  0  0  0  0  0  0  0
    6.5648   -3.7439    0.5298 C   0  0  0  0  0  0  0  0  0  0  0  0
    5.2548   -3.9469    0.2252 C   0  0  0  0  0  0  0  0  0  0  0  0
    4.2766   -3.0183    0.5124 C   0  0  0  0  0  0  0  0  0  0  0  0
   -2.2456   -3.2825    0.1038 C   0  0  0  0  0  0  0  0  0  0  0  0
   -3.4075   -4.1577   -0.3803 C   0  0  0  0  0  0  0  0  0  0  0  0
   -3.3568   -5.6294   -0.2158 C   0  0  0  0  0  0  0  0  0  0  0  0
   -4.1817   -4.8379    0.7375 C   0  0  0  0  0  0  0  0  0  0  0  0
   -4.7515    6.0416    0.1567 H   0  0  0  0  0  0  0  0  0  0  0  0
   -3.2619    6.6301    0.9114 H   0  0  0  0  0  0  0  0  0  0  0  0
   -3.6671    7.1567   -0.7361 H   0  0  0  0  0  0  0  0  0  0  0  0
   -4.6609    4.3157    1.3038 H   0  0  0  0  0  0  0  0  0  0  0  0
   -4.8875    1.9392    2.0470 H   0  0  0  0  0  0  0  0  0  0  0  0
   -0.5165    1.2979   -2.6839 H   0  0  0  0  0  0  0  0  0  0  0  0
   -2.1531    0.0335   -2.8658 H   0  0  0  0  0  0  0  0  0  0  0  0
   -3.5460    0.2668   -1.8317 H   0  0  0  0  0  0  0  0  0  0  0  0
   -3.5307   -1.9620   -1.9588 H   0  0  0  0  0  0  0  0  0  0  0  0
   -1.8048   -2.1033   -2.1884 H   0  0  0  0  0  0  0  0  0  0  0  0
   -1.7727   -1.4527    1.6851 H   0  0  0  0  0  0  0  0  0  0  0  0
   -4.2842   -0.7017    0.7563 H   0  0  0  0  0  0  0  0  0  0  0  0
   -3.5341   -0.2073    2.2672 H   0  0  0  0  0  0  0  0  0  0  0  0
    0.1295    0.3210    1.9816 H   0  0  0  0  0  0  0  0  0  0  0  0
   -1.3275    1.3779    1.8815 H   0  0  0  0  0  0  0  0  0  0  0  0
    1.3401    1.9808    1.0805 H   0  0  0  0  0  0  0  0  0  0  0  0
   -0.1854    2.8744    0.5822 H   0  0  0  0  0  0  0  0  0  0  0  0
    2.1642    4.1877   -1.9424 H   0  0  0  0  0  0  0  0  0  0  0  0
    1.1585    4.2543   -0.4916 H   0  0  0  0  0  0  0  0  0  0  0  0
    0.4537    4.0516   -2.2016 H   0  0  0  0  0  0  0  0  0  0  0  0
    0.8995   -0.2433   -2.0130 H   0  0  0  0  0  0  0  0  0  0  0  0
    0.7462   -1.1545    0.7689 H   0  0  0  0  0  0  0  0  0  0  0  0
    0.0201   -1.7697   -0.6964 H   0  0  0  0  0  0  0  0  0  0  0  0
    3.0527    0.2032   -1.7670 H   0  0  0  0  0  0  0  0  0  0  0  0
    2.6646   -1.3271   -1.0242 H   0  0  0  0  0  0  0  0  0  0  0  0
    3.8288    3.1897   -0.3098 H   0  0  0  0  0  0  0  0  0  0  0  0
    4.1483    1.9809   -1.6005 H   0  0  0  0  0  0  0  0  0  0  0  0
    5.5187    2.5759   -0.6762 H   0  0  0  0  0  0  0  0  0  0  0  0
    2.6760   -1.3733    1.7192 H   0  0  0  0  0  0  0  0  0  0  0  0
    3.9194   -0.2821    2.3532 H   0  0  0  0  0  0  0  0  0  0  0  0
    6.2875   -0.7339    1.9230 H   0  0  0  0  0  0  0  0  0  0  0  0
    7.9667   -2.4356    1.3757 H   0  0  0  0  0  0  0  0  0  0  0  0
    7.3258   -4.4927    0.2946 H   0  0  0  0  0  0  0  0  0  0  0  0
    4.9640   -4.8875   -0.2680 H   0  0  0  0  0  0  0  0  0  0  0  0
    3.2726   -3.2640    0.2378 H   0  0  0  0  0  0  0  0  0  0  0  0
   -1.2832   -3.6859   -0.2816 H   0  0  0  0  0  0  0  0  0  0  0  0
   -2.1482   -3.4023    1.2247 H   0  0  0  0  0  0  0  0  0  0  0  0
   -4.0878   -3.7302   -1.1427 H   0  0  0  0  0  0  0  0  0  0  0  0
   -3.8452   -6.2203   -1.0181 H   0  0  0  0  0  0  0  0  0  0  0  0
   -2.4312   -6.0665    0.1743 H   0  0  0  0  0  0  0  0  0  0  0  0
   -3.7825   -4.7157    1.7824 H   0  0  0  0  0  0  0  0  0  0  0  0
   -5.2746   -4.9447    0.6731 H   0  0  0  0  0  0  0  0  0  0  0  0
  1  2  1  0
  2  3  1  0
  3  4  2  0
  4  5  1  0
  5  6  2  0
  6  7  1  0
  7  8  2  0
  8  9  1  0
  9 10  1  0
 10 11  1  0
 11 12  1  6
 12 13  1  0
 13 14  1  0
 14 15  1  0
 15 16  1  0
 15 17  1  0
 17 18  1  1
 18 19  1  0
 19 20  1  0
 20 21  1  6
 21 22  1  0
 20 23  1  0
 23 24  1  0
 23 25  1  0
 25 26  1  0
 26 27  1  0
 27 28  2  0
 27 29  1  0
 26 30  1  0
 30 31  1  0
 31 32  2  0
 32 33  1  0
 33 34  2  0
 34 35  1  0
 35 36  2  0
 14 37  1  0
 37 38  1  0
 38 39  1  0
 39 40  1  0
  8  3  1  0
 20 10  1  0
 36 31  1  0
 40 38  1  0
 16  6  1  0
 24 17  1  0
 11  7  1  0
 17 11  1  0
  1 41  1  0
  1 42  1  0
  1 43  1  0
  4 44  1  0
  5 45  1  0
 10 46  1  6
 12 47  1  0
 12 48  1  0
 13 49  1  0
 13 50  1  0
 15 51  1  1
 16 52  1  0
 16 53  1  0
 18 54  1  0
 18 55  1  0
 19 56  1  0
 19 57  1  0
 22 58  1  0
 22 59  1  0
 22 60  1  0
 23 61  1  6
 24 62  1  0
 24 63  1  0
 25 64  1  0
 25 65  1  0
 29 66  1  0
 29 67  1  0
 29 68  1  0
 30 69  1  0
 30 70  1  0
 32 71  1  0
 33 72  1  0
 34 73  1  0
 35 74  1  0
 36 75  1  0
 37 76  1  0
 37 77  1  0
 38 78  1  0
 39 79  1  0
 39 80  1  0
 40 81  1  0
 40 82  1  0
M  END
>  <Ligand ID>  (1) 
LIG0003278

>  <Ligand>  (1) 
SCHEMBL15485955

>  <SMILES>  (1) 
COc1ccc2c3c1O[C@@H]1[C@@]43CCN([C@H](C2)[C@@]24CC[C@@]1(OC)[C@H](C2)CN(C(=O)C)Cc1ccccc1)CC1CC1

>  <CID>  (1) 
86711653.0

>  <ChEMBL ID>  (1) 
nan

>  <InChiKey>  (1) 
QERDWLFJAPHTPD-DPODCYPTSA-N

>  <InChi>  (1) 
InChI=1S/C34H42N2O4/c1-22(37)36(20-23-7-5-4-6-8-23)21-26-18-32-13-14-34(26,39-3)31-33(32)15-16-35(19-24-9-10-24)28(32)17-25-11-12-27(38-2)30(40-31)29(25)33/h4-8,11-12,24,26,28,31H,9-10,13-21H2,1-3H3/t26-,28-,31-,32-,33+,34-/m1/s1

>  <IUPAC Name>  (1) 
N-benzyl-N-[[(1S,2S,6R,14R,15R,16R)-5-(cyclopropylmethyl)-11,15-dimethoxy-13-oxa-5-azahexacyclo[13.2.2.12,8.01,6.02,14.012,20]icosa-8(20),9,11-trien-16-yl]methyl]acetamide

$$$$
