
     RDKit          3D

 78 82  0  0  0  0  0  0  0  0999 V2000
   -2.3594    1.2020   -1.8007 O   0  0  0  0  0  0  0  0  0  0  0  0
   -2.4936    0.0287   -1.1281 C   0  0  2  0  0  0  0  0  0  0  0  0
   -2.9006    0.1901    0.2965 C   0  0  0  0  0  0  0  0  0  0  0  0
   -4.0896    0.7742    0.5093 O   0  0  0  0  0  0  0  0  0  0  0  0
   -4.7818    1.9052    0.3586 C   0  0  0  0  0  0  0  0  0  0  0  0
   -4.3717    3.1022   -0.1744 C   0  0  0  0  0  0  0  0  0  0  0  0
   -5.1816    4.2191   -0.2793 C   0  0  0  0  0  0  0  0  0  0  0  0
   -6.4749    4.1448    0.1718 C   0  0  0  0  0  0  0  0  0  0  0  0
   -6.9394    2.9786    0.7134 C   0  0  0  0  0  0  0  0  0  0  0  0
   -6.1223    1.8855    0.8076 C   0  0  0  0  0  0  0  0  0  0  0  0
   -6.8684    0.9041    1.3811 N   0  0  0  0  0  0  0  0  0  0  0  0
   -6.4100   -0.4121    1.6692 C   0  0  0  0  0  0  0  0  0  0  0  0
   -6.5899   -1.4268    0.5980 C   0  0  0  0  0  0  0  0  0  0  0  0
   -7.9798   -1.6982    0.1505 C   0  0  0  0  0  0  0  0  0  0  0  0
   -9.0520   -2.1898    0.9978 C   0  0  0  0  0  0  0  0  0  0  0  0
   -8.4087   -3.1360    0.0045 C   0  0  0  0  0  0  0  0  0  0  0  0
   -8.1060    1.4159    1.6195 C   0  0  0  0  0  0  0  0  0  0  0  0
   -9.0997    0.8441    2.1385 O   0  0  0  0  0  0  0  0  0  0  0  0
   -8.1575    2.6994    1.2088 N   0  0  0  0  0  0  0  0  0  0  0  0
   -1.1987   -0.7449   -1.2942 C   0  0  0  0  0  0  0  0  0  0  0  0
   -0.1153    0.0165   -0.7750 N   0  0  0  0  0  0  0  0  0  0  0  0
    1.1895   -0.6172   -0.9117 C   0  0  0  0  0  0  0  0  0  0  0  0
    2.1778    0.3475   -0.2917 C   0  0  0  0  0  0  0  0  0  0  0  0
    3.5454   -0.1855   -0.3701 C   0  0  0  0  0  0  0  0  0  0  0  0
    4.0695   -0.9800    0.6349 C   0  0  0  0  0  0  0  0  0  0  0  0
    5.3469   -1.4951    0.6001 C   0  0  0  0  0  0  0  0  0  0  0  0
    6.1671   -1.2247   -0.4733 C   0  0  0  0  0  0  0  0  0  0  0  0
    5.6830   -0.4367   -1.4962 C   0  0  0  0  0  0  0  0  0  0  0  0
    4.4006    0.0685   -1.4403 C   0  0  0  0  0  0  0  0  0  0  0  0
    7.4380   -1.7275   -0.5250 O   0  0  0  0  0  0  0  0  0  0  0  0
    8.4796   -0.9973    0.0114 C   0  0  0  0  0  0  0  0  0  0  0  0
    9.7483   -1.5488   -0.0654 C   0  0  0  0  0  0  0  0  0  0  0  0
   10.8572   -0.8964    0.4422 C   0  0  0  0  0  0  0  0  0  0  0  0
   10.6471    0.3289    1.0293 C   0  0  0  0  0  0  0  0  0  0  0  0
    9.3742    0.8444    1.0871 C   0  0  0  0  0  0  0  0  0  0  0  0
    8.2914    0.2047    0.5901 N   0  0  0  0  0  0  0  0  0  0  0  0
   11.8008    1.0341    1.5709 C   0  0  0  0  0  0  0  0  0  0  0  0
   12.9305    0.4839    1.4734 O   0  0  0  0  0  0  0  0  0  0  0  0
   11.6895    2.3064    2.1968 N   0  0  0  0  0  0  0  0  0  0  0  0
    1.2037   -1.9228   -0.1590 C   0  0  0  0  0  0  0  0  0  0  0  0
    1.5298   -0.7981   -2.3569 C   0  0  0  0  0  0  0  0  0  0  0  0
   -1.5055    1.3613   -2.2498 H   0  0  0  0  0  0  0  0  0  0  0  0
   -3.2843   -0.6099   -1.6394 H   0  0  0  0  0  0  0  0  0  0  0  0
   -2.0353    0.6780    0.8351 H   0  0  0  0  0  0  0  0  0  0  0  0
   -2.9044   -0.8459    0.7894 H   0  0  0  0  0  0  0  0  0  0  0  0
   -3.3617    3.2249   -0.5266 H   0  0  0  0  0  0  0  0  0  0  0  0
   -4.8275    5.1542   -0.7074 H   0  0  0  0  0  0  0  0  0  0  0  0
   -7.0906    5.0113    0.0863 H   0  0  0  0  0  0  0  0  0  0  0  0
   -6.9971   -0.7565    2.5711 H   0  0  0  0  0  0  0  0  0  0  0  0
   -5.3563   -0.4878    2.0167 H   0  0  0  0  0  0  0  0  0  0  0  0
   -5.9070   -1.1468   -0.2347 H   0  0  0  0  0  0  0  0  0  0  0  0
   -6.1569   -2.3981    0.9800 H   0  0  0  0  0  0  0  0  0  0  0  0
   -8.2687   -1.0889   -0.7507 H   0  0  0  0  0  0  0  0  0  0  0  0
   -8.9643   -2.3892    2.0746 H   0  0  0  0  0  0  0  0  0  0  0  0
  -10.1029   -1.8766    0.7325 H   0  0  0  0  0  0  0  0  0  0  0  0
   -7.7557   -3.9355    0.3998 H   0  0  0  0  0  0  0  0  0  0  0  0
   -9.0093   -3.4664   -0.8544 H   0  0  0  0  0  0  0  0  0  0  0  0
   -8.9846    3.3414    1.2681 H   0  0  0  0  0  0  0  0  0  0  0  0
   -1.1117   -0.9965   -2.3593 H   0  0  0  0  0  0  0  0  0  0  0  0
   -1.2664   -1.7048   -0.7000 H   0  0  0  0  0  0  0  0  0  0  0  0
   -0.2083    0.2164    0.2441 H   0  0  0  0  0  0  0  0  0  0  0  0
    2.1347    1.3441   -0.7495 H   0  0  0  0  0  0  0  0  0  0  0  0
    1.9439    0.5093    0.8015 H   0  0  0  0  0  0  0  0  0  0  0  0
    3.4482   -1.2193    1.5081 H   0  0  0  0  0  0  0  0  0  0  0  0
    5.6756   -2.1139    1.4414 H   0  0  0  0  0  0  0  0  0  0  0  0
    6.3164   -0.2094   -2.3578 H   0  0  0  0  0  0  0  0  0  0  0  0
    4.0733    0.6738   -2.2562 H   0  0  0  0  0  0  0  0  0  0  0  0
    9.9208   -2.5198   -0.5297 H   0  0  0  0  0  0  0  0  0  0  0  0
   11.8390   -1.3537    0.3671 H   0  0  0  0  0  0  0  0  0  0  0  0
    9.1949    1.8030    1.5440 H   0  0  0  0  0  0  0  0  0  0  0  0
   10.8354    2.9007    2.0778 H   0  0  0  0  0  0  0  0  0  0  0  0
   12.4628    2.6595    2.7831 H   0  0  0  0  0  0  0  0  0  0  0  0
    0.5219   -2.6658   -0.5873 H   0  0  0  0  0  0  0  0  0  0  0  0
    0.8735   -1.7316    0.8670 H   0  0  0  0  0  0  0  0  0  0  0  0
    2.2342   -2.3602   -0.2366 H   0  0  0  0  0  0  0  0  0  0  0  0
    2.5644   -1.1660   -2.5122 H   0  0  0  0  0  0  0  0  0  0  0  0
    1.4004    0.1734   -2.8756 H   0  0  0  0  0  0  0  0  0  0  0  0
    0.7901   -1.4997   -2.8443 H   0  0  0  0  0  0  0  0  0  0  0  0
  1  2  1  0
  2  3  1  0
  3  4  1  0
  4  5  1  0
  5  6  2  0
  6  7  1  0
  7  8  2  0
  8  9  1  0
  9 10  2  0
 10 11  1  0
 11 12  1  0
 12 13  1  0
 13 14  1  0
 14 15  1  0
 15 16  1  0
 11 17  1  0
 17 18  2  0
 17 19  1  0
  2 20  1  0
 20 21  1  0
 21 22  1  0
 22 23  1  0
 23 24  1  0
 24 25  2  0
 25 26  1  0
 26 27  2  0
 27 28  1  0
 28 29  2  0
 27 30  1  0
 30 31  1  0
 31 32  2  0
 32 33  1  0
 33 34  2  0
 34 35  1  0
 35 36  2  0
 34 37  1  0
 37 38  2  0
 37 39  1  0
 22 40  1  0
 22 41  1  0
 10  5  1  0
 16 14  1  0
 29 24  1  0
 36 31  1  0
 19  9  1  0
  1 42  1  0
  2 43  1  6
  3 44  1  0
  3 45  1  0
  6 46  1  0
  7 47  1  0
  8 48  1  0
 12 49  1  0
 12 50  1  0
 13 51  1  0
 13 52  1  0
 14 53  1  0
 15 54  1  0
 15 55  1  0
 16 56  1  0
 16 57  1  0
 19 58  1  0
 20 59  1  0
 20 60  1  0
 21 61  1  0
 23 62  1  0
 23 63  1  0
 25 64  1  0
 26 65  1  0
 28 66  1  0
 29 67  1  0
 32 68  1  0
 33 69  1  0
 35 70  1  0
 39 71  1  0
 39 72  1  0
 40 73  1  0
 40 74  1  0
 40 75  1  0
 41 76  1  0
 41 77  1  0
 41 78  1  0
M  END
>  <Ligand ID>  (1) 
LIG0001486

>  <Ligand>  (1) 
CHEMBL221188

>  <SMILES>  (1) 
O[C@H](COc1cccc2c1n(CCC1CC1)c(=O)[nH]2)CNC(Cc1ccc(cc1)Oc1ccc(cn1)C(=O)N)(C)C

>  <CID>  (1) 
44419316.0

>  <ChEMBL ID>  (1) 
nan

>  <InChiKey>  (1) 
FYTAWHRFZVJYPT-QHCPKHFHSA-N

>  <InChi>  (1) 
InChI=1S/C31H37N5O5/c1-31(2,16-21-8-11-24(12-9-21)41-27-13-10-22(17-33-27)29(32)38)34-18-23(37)19-40-26-5-3-4-25-28(26)36(30(39)35-25)15-14-20-6-7-20/h3-5,8-13,17,20,23,34,37H,6-7,14-16,18-19H2,1-2H3,(H2,32,38)(H,35,39)/t23-/m0/s1

>  <IUPAC Name>  (1) 
6-[4-[2-[[(2S)-3-[[3-(2-cyclopropylethyl)-2-oxo-1H-benzimidazol-4-yl]oxy]-2-hydroxypropyl]amino]-2-methylpropyl]phenoxy]pyridine-3-carboxamide

$$$$
