
     RDKit          3D

 24 23  0  0  0  0  0  0  0  0999 V2000
    3.3574   -0.3644    0.6572 C   0  0  0  0  0  0  0  0  0  0  0  0
    2.5202    0.0993   -0.5206 C   0  0  0  0  0  0  0  0  0  0  0  0
    1.0880   -0.3183   -0.2410 C   0  0  0  0  0  0  0  0  0  0  0  0
    0.1577    0.0861   -1.3399 C   0  0  0  0  0  0  0  0  0  0  0  0
   -1.2145   -0.3879   -0.9848 C   0  0  0  0  0  0  0  0  0  0  0  0
   -1.6807    0.2287    0.3091 C   0  0  0  0  0  0  0  0  0  0  0  0
   -3.0800   -0.3410    0.4926 C   0  0  0  0  0  0  0  0  0  0  0  0
   -3.3696   -1.0690    1.5709 C   0  0  0  0  0  0  0  0  0  0  0  0
    3.1502    0.2732    1.5392 H   0  0  0  0  0  0  0  0  0  0  0  0
    3.2105   -1.4074    0.9275 H   0  0  0  0  0  0  0  0  0  0  0  0
    4.4320   -0.1820    0.3934 H   0  0  0  0  0  0  0  0  0  0  0  0
    2.5939    1.2044   -0.5617 H   0  0  0  0  0  0  0  0  0  0  0  0
    2.8720   -0.3057   -1.4696 H   0  0  0  0  0  0  0  0  0  0  0  0
    1.0543   -1.3972   -0.1020 H   0  0  0  0  0  0  0  0  0  0  0  0
    0.8035    0.2459    0.6883 H   0  0  0  0  0  0  0  0  0  0  0  0
    0.1634    1.1862   -1.4970 H   0  0  0  0  0  0  0  0  0  0  0  0
    0.5051   -0.3560   -2.3007 H   0  0  0  0  0  0  0  0  0  0  0  0
   -1.8798   -0.1377   -1.8314 H   0  0  0  0  0  0  0  0  0  0  0  0
   -1.1485   -1.4859   -0.8146 H   0  0  0  0  0  0  0  0  0  0  0  0
   -1.7089    1.3280    0.2738 H   0  0  0  0  0  0  0  0  0  0  0  0
   -1.0674   -0.1105    1.1805 H   0  0  0  0  0  0  0  0  0  0  0  0
   -3.7983   -0.1188   -0.2906 H   0  0  0  0  0  0  0  0  0  0  0  0
   -2.5847   -1.2251    2.2790 H   0  0  0  0  0  0  0  0  0  0  0  0
   -4.3757   -1.4432    1.6425 H   0  0  0  0  0  0  0  0  0  0  0  0
  1  2  1  0
  2  3  1  0
  3  4  1  0
  4  5  1  0
  5  6  1  0
  6  7  1  0
  7  8  2  0
  1  9  1  0
  1 10  1  0
  1 11  1  0
  2 12  1  0
  2 13  1  0
  3 14  1  0
  3 15  1  0
  4 16  1  0
  4 17  1  0
  5 18  1  0
  5 19  1  0
  6 20  1  0
  6 21  1  0
  7 22  1  0
  8 23  1  0
  8 24  1  0
M  END
>  <Ligand ID>  (1) 
LIG0002074

>  <Ligand>  (1) 
oct-1-ene

>  <SMILES>  (1) 
CCCCCCC=C

>  <CID>  (1) 
8125.0

>  <ChEMBL ID>  (1) 
nan

>  <InChiKey>  (1) 
KWKAKUADMBZCLK-UHFFFAOYSA-N

>  <InChi>  (1) 
InChI=1S/C8H16/c1-3-5-7-8-6-4-2/h3H,1,4-8H2,2H3

>  <IUPAC Name>  (1) 
oct-1-ene

$$$$
