
     RDKit          3D

144149  0  0  0  0  0  0  0  0999 V2000
   10.3118    0.5756   -0.5151 C   0  0  0  0  0  0  0  0  0  0  0  0
    9.2678    1.1685   -1.3947 C   0  0  0  0  0  0  0  0  0  0  0  0
    8.1054    1.7951   -0.7172 C   0  0  0  0  0  0  0  0  0  0  0  0
    7.2702    0.9692    0.1680 C   0  0  0  0  0  0  0  0  0  0  0  0
    6.5876   -0.2352   -0.4014 C   0  0  2  0  0  0  0  0  0  0  0  0
    5.7766   -0.8877    0.7285 C   0  0  0  0  0  0  0  0  0  0  0  0
    6.4479   -1.8009    1.3158 O   0  0  0  0  0  0  0  0  0  0  0  0
    4.4777   -0.4961    1.0286 N   0  0  0  0  0  0  0  0  0  0  0  0
    3.5478   -0.9193    2.0004 C   0  0  2  0  0  0  0  0  0  0  0  0
    2.5368   -1.9229    1.4863 C   0  0  0  0  0  0  0  0  0  0  0  0
    3.1009   -3.2577    1.3050 C   0  0  0  0  0  0  0  0  0  0  0  0
    4.2453   -3.6823    1.4429 O   0  0  0  0  0  0  0  0  0  0  0  0
    2.1890   -4.3726    0.8771 N   0  0  0  0  0  0  0  0  0  0  0  0
    2.7722   -5.6507    0.7122 C   0  0  0  0  0  0  0  0  0  0  0  0
    1.8732   -6.7566    0.3426 C   0  0  0  0  0  0  0  0  0  0  0  0
    0.9431   -6.5099   -0.8135 C   0  0  0  0  0  0  0  0  0  0  0  0
   -0.3230   -5.9031   -0.3179 C   0  0  0  0  0  0  0  0  0  0  0  0
   -1.2566   -5.4149   -1.4457 C   0  0  2  0  0  0  0  0  0  0  0  0
   -2.3025   -4.6977   -0.6881 N   0  0  0  0  0  0  0  0  0  0  0  0
   -2.4130   -3.2900   -0.8473 C   0  0  0  0  0  0  0  0  0  0  0  0
   -1.6482   -2.7817   -1.6893 O   0  0  0  0  0  0  0  0  0  0  0  0
   -3.3798   -2.4516   -0.0635 C   0  0  1  0  0  0  0  0  0  0  0  0
   -3.3627   -1.0782   -0.4841 N   0  0  0  0  0  0  0  0  0  0  0  0
   -2.5071   -0.0780    0.1439 C   0  0  0  0  0  0  0  0  0  0  0  0
   -1.7809   -0.5523    1.0267 O   0  0  0  0  0  0  0  0  0  0  0  0
   -2.5125    1.3277   -0.2466 C   0  0  2  0  0  0  0  0  0  0  0  0
   -1.4020    2.0059    0.3950 N   0  0  0  0  0  0  0  0  0  0  0  0
   -0.8941    3.2492   -0.1681 C   0  0  0  0  0  0  0  0  0  0  0  0
   -1.5945    3.6506   -1.1203 O   0  0  0  0  0  0  0  0  0  0  0  0
    0.2933    3.9521    0.3360 C   0  0  1  0  0  0  0  0  0  0  0  0
    1.1649    3.1991    1.1999 N   0  0  0  0  0  0  0  0  0  0  0  0
    1.2480    3.2451    2.6091 C   0  0  0  0  0  0  0  0  0  0  0  0
    0.4301    3.9779    3.1744 O   0  0  0  0  0  0  0  0  0  0  0  0
    2.2532    2.4550    3.3659 C   0  0  0  0  0  0  0  0  0  0  0  0
    3.0177    1.5460    2.5552 N   0  0  0  0  0  0  0  0  0  0  0  0
    2.8548    0.1479    2.7559 C   0  0  0  0  0  0  0  0  0  0  0  0
    2.0573   -0.1872    3.6391 O   0  0  0  0  0  0  0  0  0  0  0  0
    3.0028    3.2494    4.4128 C   0  0  0  0  0  0  0  0  0  0  0  0
    2.0222    2.2153    4.8275 C   0  0  0  0  0  0  0  0  0  0  0  0
    1.0452    4.7367   -0.6912 C   0  0  0  0  0  0  0  0  0  0  0  0
    0.3336    5.8195   -1.3717 C   0  0  0  0  0  0  0  0  0  0  0  0
    0.2824    7.0674   -0.7670 C   0  0  0  0  0  0  0  0  0  0  0  0
   -0.3201    8.1397   -1.3549 C   0  0  0  0  0  0  0  0  0  0  0  0
   -0.8970    7.9848   -2.5829 C   0  0  0  0  0  0  0  0  0  0  0  0
   -0.8892    6.7765   -3.2471 C   0  0  0  0  0  0  0  0  0  0  0  0
   -0.2613    5.7104   -2.6078 C   0  0  0  0  0  0  0  0  0  0  0  0
   -1.4685    6.6153   -4.4950 C   0  0  0  0  0  0  0  0  0  0  0  0
   -2.0846    7.7158   -5.1105 C   0  0  0  0  0  0  0  0  0  0  0  0
   -2.1031    8.9355   -4.4667 C   0  0  0  0  0  0  0  0  0  0  0  0
   -1.5062    9.0492   -3.2058 C   0  0  0  0  0  0  0  0  0  0  0  0
   -3.8369    1.9819    0.1490 C   0  0  0  0  0  0  0  0  0  0  0  0
   -4.1311    1.9571    1.6113 C   0  0  0  0  0  0  0  0  0  0  0  0
   -5.4845    2.6109    1.8981 C   0  0  0  0  0  0  0  0  0  0  0  0
   -5.6877    2.5955    3.3294 N   0  0  0  0  0  0  0  0  0  0  0  0
   -6.7237    3.2455    3.7705 C   0  0  0  0  0  0  0  0  0  0  0  0
   -7.0641    3.3299    5.1468 N   0  0  0  0  0  0  0  0  0  0  0  0
   -7.6157    3.9403    2.8705 N   0  0  0  0  0  0  0  0  0  0  0  0
   -4.6931   -3.0831    0.1653 C   0  0  0  0  0  0  0  0  0  0  0  0
   -5.4489   -3.4433   -1.0500 C   0  0  0  0  0  0  0  0  0  0  0  0
   -5.1213   -3.3129   -2.3838 C   0  0  0  0  0  0  0  0  0  0  0  0
   -6.1422   -3.7891   -3.1104 N   0  0  0  0  0  0  0  0  0  0  0  0
   -7.1294   -4.2266   -2.3203 C   0  0  0  0  0  0  0  0  0  0  0  0
   -6.7167   -4.0196   -1.0233 C   0  0  0  0  0  0  0  0  0  0  0  0
   -7.5161   -4.3636    0.0438 C   0  0  0  0  0  0  0  0  0  0  0  0
   -8.7670   -4.9332   -0.1501 C   0  0  0  0  0  0  0  0  0  0  0  0
   -9.1722   -5.1394   -1.4534 C   0  0  0  0  0  0  0  0  0  0  0  0
   -8.3844   -4.7996   -2.5444 C   0  0  0  0  0  0  0  0  0  0  0  0
   -1.8999   -6.5762   -2.0760 C   0  0  0  0  0  0  0  0  0  0  0  0
   -3.1381   -6.7357   -1.9100 O   0  0  0  0  0  0  0  0  0  0  0  0
   -1.1259   -7.4891   -2.8499 N   0  0  0  0  0  0  0  0  0  0  0  0
    7.5793   -1.2377   -0.7836 N   0  0  0  0  0  0  0  0  0  0  0  0
    7.3257   -1.9000   -2.0259 C   0  0  0  0  0  0  0  0  0  0  0  0
    6.3034   -1.5806   -2.6707 O   0  0  0  0  0  0  0  0  0  0  0  0
    8.1991   -2.9381   -2.5949 C   0  0  0  0  0  0  0  0  0  0  0  0
   10.6651   -0.3947   -0.9481 H   0  0  0  0  0  0  0  0  0  0  0  0
    9.9580    0.4503    0.5285 H   0  0  0  0  0  0  0  0  0  0  0  0
   11.2031    1.2314   -0.4809 H   0  0  0  0  0  0  0  0  0  0  0  0
    8.9731    0.4525   -2.2105 H   0  0  0  0  0  0  0  0  0  0  0  0
    9.8032    1.9949   -1.9887 H   0  0  0  0  0  0  0  0  0  0  0  0
    8.4827    2.7267   -0.2043 H   0  0  0  0  0  0  0  0  0  0  0  0
    7.4207    2.1909   -1.5359 H   0  0  0  0  0  0  0  0  0  0  0  0
    7.8755    0.6483    1.0819 H   0  0  0  0  0  0  0  0  0  0  0  0
    6.5080    1.6714    0.6430 H   0  0  0  0  0  0  0  0  0  0  0  0
    5.9300    0.0080   -1.2180 H   0  0  0  0  0  0  0  0  0  0  0  0
    4.1029    0.3005    0.3752 H   0  0  0  0  0  0  0  0  0  0  0  0
    4.1330   -1.5264    2.7777 H   0  0  0  0  0  0  0  0  0  0  0  0
    2.1307   -1.5907    0.4835 H   0  0  0  0  0  0  0  0  0  0  0  0
    1.6405   -1.8845    2.1760 H   0  0  0  0  0  0  0  0  0  0  0  0
    1.2588   -4.0133    0.7585 H   0  0  0  0  0  0  0  0  0  0  0  0
    3.6223   -5.5929   -0.0436 H   0  0  0  0  0  0  0  0  0  0  0  0
    3.2593   -5.8914    1.7281 H   0  0  0  0  0  0  0  0  0  0  0  0
    2.5184   -7.6295    0.0375 H   0  0  0  0  0  0  0  0  0  0  0  0
    1.2977   -7.1738    1.2132 H   0  0  0  0  0  0  0  0  0  0  0  0
    1.4369   -5.8479   -1.5627 H   0  0  0  0  0  0  0  0  0  0  0  0
    0.6982   -7.5063   -1.2704 H   0  0  0  0  0  0  0  0  0  0  0  0
   -0.2962   -5.1980    0.4802 H   0  0  0  0  0  0  0  0  0  0  0  0
   -0.8857   -6.8537    0.1218 H   0  0  0  0  0  0  0  0  0  0  0  0
   -0.7252   -4.7380   -2.1140 H   0  0  0  0  0  0  0  0  0  0  0  0
   -2.9648   -5.1295   -0.0542 H   0  0  0  0  0  0  0  0  0  0  0  0
   -2.9029   -2.3920    0.9943 H   0  0  0  0  0  0  0  0  0  0  0  0
   -3.9337   -0.6848   -1.2398 H   0  0  0  0  0  0  0  0  0  0  0  0
   -2.4417    1.5155   -1.3528 H   0  0  0  0  0  0  0  0  0  0  0  0
   -0.9141    1.7152    1.2341 H   0  0  0  0  0  0  0  0  0  0  0  0
   -0.1553    4.7438    1.0397 H   0  0  0  0  0  0  0  0  0  0  0  0
    1.8223    2.5509    0.7422 H   0  0  0  0  0  0  0  0  0  0  0  0
    3.6832    1.8001    1.8239 H   0  0  0  0  0  0  0  0  0  0  0  0
    4.0926    3.0180    4.5362 H   0  0  0  0  0  0  0  0  0  0  0  0
    2.7316    4.3053    4.6256 H   0  0  0  0  0  0  0  0  0  0  0  0
    2.3556    1.3217    5.3529 H   0  0  0  0  0  0  0  0  0  0  0  0
    1.0531    2.5979    5.2105 H   0  0  0  0  0  0  0  0  0  0  0  0
    1.4133    3.9929   -1.4430 H   0  0  0  0  0  0  0  0  0  0  0  0
    1.9334    5.1987   -0.1661 H   0  0  0  0  0  0  0  0  0  0  0  0
    0.7537    7.1608    0.2174 H   0  0  0  0  0  0  0  0  0  0  0  0
   -0.3680    9.1292   -0.9030 H   0  0  0  0  0  0  0  0  0  0  0  0
   -0.2515    4.7628   -3.1411 H   0  0  0  0  0  0  0  0  0  0  0  0
   -1.4644    5.6797   -5.0198 H   0  0  0  0  0  0  0  0  0  0  0  0
   -2.5256    7.5500   -6.0769 H   0  0  0  0  0  0  0  0  0  0  0  0
   -2.5756    9.7751   -4.9571 H   0  0  0  0  0  0  0  0  0  0  0  0
   -1.5555   10.0283   -2.7652 H   0  0  0  0  0  0  0  0  0  0  0  0
   -3.7133    3.0710   -0.1398 H   0  0  0  0  0  0  0  0  0  0  0  0
   -4.6268    1.5917   -0.4873 H   0  0  0  0  0  0  0  0  0  0  0  0
   -4.1875    0.9524    2.0601 H   0  0  0  0  0  0  0  0  0  0  0  0
   -3.3792    2.5542    2.1747 H   0  0  0  0  0  0  0  0  0  0  0  0
   -6.2406    1.9049    1.4579 H   0  0  0  0  0  0  0  0  0  0  0  0
   -5.5665    3.6161    1.4703 H   0  0  0  0  0  0  0  0  0  0  0  0
   -5.0770    2.1068    4.0020 H   0  0  0  0  0  0  0  0  0  0  0  0
   -6.3912    3.3040    5.9323 H   0  0  0  0  0  0  0  0  0  0  0  0
   -8.0802    3.4306    5.4395 H   0  0  0  0  0  0  0  0  0  0  0  0
   -7.3890    4.9413    2.5778 H   0  0  0  0  0  0  0  0  0  0  0  0
   -8.4664    3.4452    2.5279 H   0  0  0  0  0  0  0  0  0  0  0  0
   -5.3303   -2.3505    0.7302 H   0  0  0  0  0  0  0  0  0  0  0  0
   -4.5484   -3.9315    0.8790 H   0  0  0  0  0  0  0  0  0  0  0  0
   -4.1787   -2.8893   -2.6998 H   0  0  0  0  0  0  0  0  0  0  0  0
   -6.1479   -3.8167   -4.1343 H   0  0  0  0  0  0  0  0  0  0  0  0
   -7.2096   -4.2159    1.0806 H   0  0  0  0  0  0  0  0  0  0  0  0
   -9.4115   -5.2078    0.6915 H   0  0  0  0  0  0  0  0  0  0  0  0
  -10.1464   -5.5883   -1.6307 H   0  0  0  0  0  0  0  0  0  0  0  0
   -8.6822   -4.9534   -3.5696 H   0  0  0  0  0  0  0  0  0  0  0  0
   -0.4454   -7.1700   -3.5506 H   0  0  0  0  0  0  0  0  0  0  0  0
   -1.2237   -8.5197   -2.7242 H   0  0  0  0  0  0  0  0  0  0  0  0
    8.4047   -1.4783   -0.2105 H   0  0  0  0  0  0  0  0  0  0  0  0
    8.6130   -2.6020   -3.5913 H   0  0  0  0  0  0  0  0  0  0  0  0
    7.5239   -3.8153   -2.8422 H   0  0  0  0  0  0  0  0  0  0  0  0
    8.9430   -3.3007   -1.8942 H   0  0  0  0  0  0  0  0  0  0  0  0
  1  2  1  0
  2  3  1  0
  3  4  1  0
  4  5  1  0
  5  6  1  0
  6  7  2  0
  6  8  1  0
  8  9  1  0
  9 10  1  0
 10 11  1  0
 11 12  2  0
 11 13  1  0
 13 14  1  0
 14 15  1  0
 15 16  1  0
 16 17  1  0
 17 18  1  0
 18 19  1  0
 19 20  1  0
 20 21  2  0
 20 22  1  0
 22 23  1  0
 23 24  1  0
 24 25  2  0
 24 26  1  0
 26 27  1  0
 27 28  1  0
 28 29  2  0
 28 30  1  0
 30 31  1  0
 31 32  1  0
 32 33  2  0
 32 34  1  0
 34 35  1  0
 35 36  1  0
 36 37  2  0
 34 38  1  0
 38 39  1  0
 30 40  1  0
 40 41  1  0
 41 42  2  0
 42 43  1  0
 43 44  2  0
 44 45  1  0
 45 46  2  0
 45 47  1  0
 47 48  2  0
 48 49  1  0
 49 50  2  0
 26 51  1  0
 51 52  1  0
 52 53  1  0
 53 54  1  0
 54 55  2  3
 55 56  1  0
 55 57  1  0
 22 58  1  0
 58 59  1  0
 59 60  2  0
 60 61  1  0
 61 62  1  0
 62 63  2  0
 63 64  1  0
 64 65  2  0
 65 66  1  0
 66 67  2  0
 18 68  1  0
 68 69  2  0
 68 70  1  0
  5 71  1  0
 71 72  1  0
 72 73  2  0
 72 74  1  0
 36  9  1  0
 46 41  1  0
 63 59  1  0
 39 34  1  0
 50 44  1  0
 67 62  1  0
  1 75  1  0
  1 76  1  0
  1 77  1  0
  2 78  1  0
  2 79  1  0
  3 80  1  0
  3 81  1  0
  4 82  1  0
  4 83  1  0
  5 84  1  6
  8 85  1  0
  9 86  1  1
 10 87  1  0
 10 88  1  0
 13 89  1  0
 14 90  1  0
 14 91  1  0
 15 92  1  0
 15 93  1  0
 16 94  1  0
 16 95  1  0
 17 96  1  0
 17 97  1  0
 18 98  1  6
 19 99  1  0
 22100  1  1
 23101  1  0
 26102  1  6
 27103  1  0
 30104  1  1
 31105  1  0
 35106  1  0
 38107  1  0
 38108  1  0
 39109  1  0
 39110  1  0
 40111  1  0
 40112  1  0
 42113  1  0
 43114  1  0
 46115  1  0
 47116  1  0
 48117  1  0
 49118  1  0
 50119  1  0
 51120  1  0
 51121  1  0
 52122  1  0
 52123  1  0
 53124  1  0
 53125  1  0
 54126  1  0
 56127  1  0
 56128  1  0
 57129  1  0
 57130  1  0
 58131  1  0
 58132  1  0
 60133  1  0
 61134  1  0
 64135  1  0
 65136  1  0
 66137  1  0
 67138  1  0
 70139  1  0
 70140  1  0
 71141  1  0
 74142  1  0
 74143  1  0
 74144  1  0
M  CHG  1  54   1
M  END
>  <Ligand ID>  (1) 
LIG0004167

>  <Ligand>  (1) 
BDBM50121257

>  <SMILES>  (1) 
CCCC[C@H](C(=O)N[C@@H]1CC(=O)NCCCC[C@H](NC(=O)[C@@H](NC(=O)[C@H](NC(=O)[C@@H](NC(=O)C2(NC1=O)CC2)Cc1ccc2c(c1)cccc2)CCC[NH+]=C(N)N)Cc1c[nH]c2c1cccc2)C(=O)N)NC(=O)C

>  <CID>  (1) 
44366186.0

>  <ChEMBL ID>  (1) 
nan

>  <InChiKey>  (1) 
NEVVXMYOTHZJES-BYMRNIKTSA-O

>  <InChi>  (1) 
InChI=1S/C52H69N13O9/c1-3-4-15-38(59-30(2)66)45(69)63-42-28-43(67)56-23-10-9-17-37(44(53)68)60-48(72)41(27-34-29-58-36-16-8-7-14-35(34)36)62-46(70)39(18-11-24-57-51(54)55)61-47(71)40(64-50(74)52(21-22-52)65-49(42)73)26-31-19-20-32-12-5-6-13-33(32)25-31/h5-8,12-14,16,19-20,25,29,37-42,58H,3-4,9-11,15,17-18,21-24,26-28H2,1-2H3,(H2,53,68)(H,56,67)(H,59,66)(H,60,72)(H,61,71)(H,62,70)(H,63,69)(H,64,74)(H,65,73)(H4,54,55,57)/p+1/t37-,38+,39+,40-,41-,42+/m0/s1

>  <IUPAC Name>  (1) 
3-[(6R,14S,17S,20R,23S)-6-[[(2R)-2-acetamidohexanoyl]amino]-14-carbamoyl-17-(1H-indol-3-ylmethyl)-23-(naphthalen-2-ylmethyl)-5,8,16,19,22,25-hexaoxo-4,9,15,18,21,24-hexazaspiro[2.22]pentacosan-20-yl]propyl-(diaminomethylidene)azanium

$$$$
