
     RDKit          3D

 15 14  0  0  0  0  0  0  0  0999 V2000
    1.6049    0.2530   -0.2004 C   0  0  0  0  0  0  0  0  0  0  0  0
    0.8017   -0.9519    0.2247 C   0  0  0  0  0  0  0  0  0  0  0  0
   -0.5205   -0.4331    0.7595 C   0  0  0  0  0  0  0  0  0  0  0  0
   -1.1605    0.3218   -0.4147 C   0  0  0  0  0  0  0  0  0  0  0  0
   -2.3903    0.8511   -0.0503 O   0  0  0  0  0  0  0  0  0  0  0  0
    1.3328    1.1847    0.3240 H   0  0  0  0  0  0  0  0  0  0  0  0
    2.6953    0.0918    0.0209 H   0  0  0  0  0  0  0  0  0  0  0  0
    1.5395    0.3841   -1.3120 H   0  0  0  0  0  0  0  0  0  0  0  0
    0.5384   -1.5901   -0.6666 H   0  0  0  0  0  0  0  0  0  0  0  0
    1.2905   -1.5371    1.0242 H   0  0  0  0  0  0  0  0  0  0  0  0
   -1.1508   -1.2943    1.0399 H   0  0  0  0  0  0  0  0  0  0  0  0
   -0.3654    0.2675    1.6079 H   0  0  0  0  0  0  0  0  0  0  0  0
   -0.4402    1.0807   -0.7465 H   0  0  0  0  0  0  0  0  0  0  0  0
   -1.2891   -0.3915   -1.2512 H   0  0  0  0  0  0  0  0  0  0  0  0
   -2.4864    1.7633   -0.3595 H   0  0  0  0  0  0  0  0  0  0  0  0
  1  2  1  0
  2  3  1  0
  3  4  1  0
  4  5  1  0
  1  6  1  0
  1  7  1  0
  1  8  1  0
  2  9  1  0
  2 10  1  0
  3 11  1  0
  3 12  1  0
  4 13  1  0
  4 14  1  0
  5 15  1  0
M  END
>  <Ligand ID>  (1) 
LIG0000029

>  <Ligand>  (1) 
1-butanol

>  <SMILES>  (1) 
CCCCO

>  <CID>  (1) 
263.0

>  <ChEMBL ID>  (1) 
nan

>  <InChiKey>  (1) 
LRHPLDYGYMQRHN-UHFFFAOYSA-N

>  <InChi>  (1) 
InChI=1S/C4H10O/c1-2-3-4-5/h5H,2-4H2,1H3

>  <IUPAC Name>  (1) 
butan-1-ol

$$$$
