
     RDKit          3D

 23 23  0  0  0  0  0  0  0  0999 V2000
   -4.1096   -1.3172   -0.0046 C   0  0  0  0  0  0  0  0  0  0  0  0
   -3.0048   -0.4228   -0.0161 O   0  0  0  0  0  0  0  0  0  0  0  0
   -1.7018   -0.8403    0.1889 C   0  0  0  0  0  0  0  0  0  0  0  0
   -1.5150   -2.0806    0.3935 O   0  0  0  0  0  0  0  0  0  0  0  0
   -0.5822    0.1086    0.1709 C   0  0  0  0  0  0  0  0  0  0  0  0
   -0.8449    1.4432   -0.0560 C   0  0  0  0  0  0  0  0  0  0  0  0
    0.2135    2.3212   -0.0701 C   0  0  0  0  0  0  0  0  0  0  0  0
    1.4926    1.8277    0.1435 C   0  0  0  0  0  0  0  0  0  0  0  0
    1.7465    0.4894    0.3699 C   0  0  0  0  0  0  0  0  0  0  0  0
    0.6888   -0.3874    0.3840 C   0  0  0  0  0  0  0  0  0  0  0  0
    3.0661    0.1044    0.5719 O   0  0  0  0  0  0  0  0  0  0  0  0
    3.2888   -1.2757    0.8011 C   0  0  0  0  0  0  0  0  0  0  0  0
    2.5491    2.7246    0.1263 O   0  0  0  0  0  0  0  0  0  0  0  0
   -5.0208   -0.6929   -0.1614 H   0  0  0  0  0  0  0  0  0  0  0  0
   -4.1916   -1.8249    0.9984 H   0  0  0  0  0  0  0  0  0  0  0  0
   -4.0364   -2.1180   -0.7528 H   0  0  0  0  0  0  0  0  0  0  0  0
   -1.8734    1.7454   -0.2136 H   0  0  0  0  0  0  0  0  0  0  0  0
    0.0275    3.3862   -0.2486 H   0  0  0  0  0  0  0  0  0  0  0  0
    0.8659   -1.4387    0.5594 H   0  0  0  0  0  0  0  0  0  0  0  0
    2.5954   -1.6049    1.6284 H   0  0  0  0  0  0  0  0  0  0  0  0
    4.2999   -1.3688    1.2517 H   0  0  0  0  0  0  0  0  0  0  0  0
    3.1901   -1.8683   -0.1170 H   0  0  0  0  0  0  0  0  0  0  0  0
    2.8564    3.0898   -0.7771 H   0  0  0  0  0  0  0  0  0  0  0  0
  1  2  1  0
  2  3  1  0
  3  4  2  0
  3  5  1  0
  5  6  2  0
  6  7  1  0
  7  8  2  0
  8  9  1  0
  9 10  2  0
  9 11  1  0
 11 12  1  0
  8 13  1  0
 10  5  1  0
  1 14  1  0
  1 15  1  0
  1 16  1  0
  6 17  1  0
  7 18  1  0
 10 19  1  0
 12 20  1  0
 12 21  1  0
 12 22  1  0
 13 23  1  0
M  END
>  <Ligand ID>  (1) 
LIG0000560

>  <Ligand>  (1) 
methyl vanillate

>  <SMILES>  (1) 
COC(=O)c1ccc(c(c1)OC)O

>  <CID>  (1) 
19844.0

>  <ChEMBL ID>  (1) 
nan

>  <InChiKey>  (1) 
BVWTXUYLKBHMOX-UHFFFAOYSA-N

>  <InChi>  (1) 
InChI=1S/C9H10O4/c1-12-8-5-6(9(11)13-2)3-4-7(8)10/h3-5,10H,1-2H3

>  <IUPAC Name>  (1) 
methyl 4-hydroxy-3-methoxybenzoate

$$$$
