
     RDKit          3D

 67 73  0  0  0  0  0  0  0  0999 V2000
    3.3771   -1.7317   -0.6194 C   0  0  0  0  0  0  0  0  0  0  0  0
    2.7356   -0.4243   -0.5122 N   0  0  0  0  0  0  0  0  0  0  0  0
    1.2866   -0.4168   -0.6155 C   0  0  2  0  0  0  0  0  0  0  0  0
    0.7516    0.3884   -1.7546 C   0  0  0  0  0  0  0  0  0  0  0  0
   -0.7386    0.0231   -1.8704 C   0  0  0  0  0  0  0  0  0  0  0  0
   -1.3607    0.6029   -0.6417 C   0  0  2  0  0  0  0  0  0  0  0  0
   -0.8218    0.0376    0.6363 C   0  0  2  0  0  0  0  0  0  0  0  0
    0.6830   -0.0486    0.7122 C   0  0  1  0  0  0  0  0  0  0  0  0
    0.8200   -1.1945    1.5579 O   0  0  0  0  0  0  0  0  0  0  0  0
   -0.1507   -2.1049    1.2122 C   0  0  0  0  0  0  0  0  0  0  0  0
   -1.1705   -1.3944    0.6400 C   0  0  0  0  0  0  0  0  0  0  0  0
   -2.3318   -1.9017    0.1511 C   0  0  0  0  0  0  0  0  0  0  0  0
   -3.3274   -0.9890   -0.4506 C   0  0  0  0  0  0  0  0  0  0  0  0
   -2.8694    0.4153   -0.5908 C   0  0  1  0  0  0  0  0  0  0  0  0
   -3.3456    1.3556    0.3511 N   0  0  0  0  0  0  0  0  0  0  0  0
   -2.5643    1.6257    1.4996 C   0  0  0  0  0  0  0  0  0  0  0  0
   -1.4510    0.7011    1.7935 C   0  0  0  0  0  0  0  0  0  0  0  0
   -4.7334    1.5004    0.5442 C   0  0  0  0  0  0  0  0  0  0  0  0
   -5.5076    2.0886   -0.6023 C   0  0  0  0  0  0  0  0  0  0  0  0
   -7.0150    2.2204   -0.3327 C   0  0  0  0  0  0  0  0  0  0  0  0
   -6.5023    1.1523   -1.2403 C   0  0  0  0  0  0  0  0  0  0  0  0
   -2.5118   -3.2734    0.2359 C   0  0  0  0  0  0  0  0  0  0  0  0
   -1.5073   -4.0460    0.8092 C   0  0  0  0  0  0  0  0  0  0  0  0
   -0.3315   -3.4774    1.2970 C   0  0  0  0  0  0  0  0  0  0  0  0
    0.6622   -4.2490    1.8659 O   0  0  0  0  0  0  0  0  0  0  0  0
   -1.1262    1.9741   -0.6397 O   0  0  0  0  0  0  0  0  0  0  0  0
    3.4090    0.7907   -0.3118 C   0  0  0  0  0  0  0  0  0  0  0  0
    2.6499    1.8338   -0.2671 O   0  0  0  0  0  0  0  0  0  0  0  0
    4.8061    1.0499   -0.1498 C   0  0  0  0  0  0  0  0  0  0  0  0
    5.8041    0.2186   -0.1429 C   0  0  0  0  0  0  0  0  0  0  0  0
    7.1942    0.6895    0.0410 C   0  0  0  0  0  0  0  0  0  0  0  0
    8.3404   -0.0953    0.0680 C   0  0  0  0  0  0  0  0  0  0  0  0
    9.3983    0.7832    0.2648 C   0  0  0  0  0  0  0  0  0  0  0  0
    8.9086    1.9866    0.3463 O   0  0  0  0  0  0  0  0  0  0  0  0
    7.6045    1.9951    0.2209 C   0  0  0  0  0  0  0  0  0  0  0  0
    3.8152   -2.0529    0.3269 H   0  0  0  0  0  0  0  0  0  0  0  0
    4.0224   -1.8343   -1.5059 H   0  0  0  0  0  0  0  0  0  0  0  0
    2.5621   -2.5110   -0.8233 H   0  0  0  0  0  0  0  0  0  0  0  0
    0.9514   -1.4819   -0.7927 H   0  0  0  0  0  0  0  0  0  0  0  0
    1.3167    0.1408   -2.6520 H   0  0  0  0  0  0  0  0  0  0  0  0
    0.7431    1.4920   -1.5361 H   0  0  0  0  0  0  0  0  0  0  0  0
   -1.1245    0.5848   -2.7447 H   0  0  0  0  0  0  0  0  0  0  0  0
   -0.7848   -1.0650   -1.9611 H   0  0  0  0  0  0  0  0  0  0  0  0
    1.1393    0.8348    1.1442 H   0  0  0  0  0  0  0  0  0  0  0  0
   -3.6861   -1.4337   -1.4143 H   0  0  0  0  0  0  0  0  0  0  0  0
   -4.2245   -1.0395    0.2199 H   0  0  0  0  0  0  0  0  0  0  0  0
   -3.1960    0.7390   -1.6287 H   0  0  0  0  0  0  0  0  0  0  0  0
   -3.2539    1.6490    2.3808 H   0  0  0  0  0  0  0  0  0  0  0  0
   -2.2026    2.6772    1.4236 H   0  0  0  0  0  0  0  0  0  0  0  0
   -0.6495    1.3037    2.3136 H   0  0  0  0  0  0  0  0  0  0  0  0
   -1.7658   -0.0290    2.5939 H   0  0  0  0  0  0  0  0  0  0  0  0
   -4.8629    2.2438    1.3880 H   0  0  0  0  0  0  0  0  0  0  0  0
   -5.1989    0.5780    0.9367 H   0  0  0  0  0  0  0  0  0  0  0  0
   -5.1192    2.9309   -1.1683 H   0  0  0  0  0  0  0  0  0  0  0  0
   -7.3761    1.9511    0.6678 H   0  0  0  0  0  0  0  0  0  0  0  0
   -7.5848    3.0162   -0.8525 H   0  0  0  0  0  0  0  0  0  0  0  0
   -6.5720    0.1239   -0.8841 H   0  0  0  0  0  0  0  0  0  0  0  0
   -6.6378    1.2718   -2.3467 H   0  0  0  0  0  0  0  0  0  0  0  0
   -3.4307   -3.6996   -0.1483 H   0  0  0  0  0  0  0  0  0  0  0  0
   -1.6747   -5.1305    0.8654 H   0  0  0  0  0  0  0  0  0  0  0  0
    0.7109   -5.2358    1.5724 H   0  0  0  0  0  0  0  0  0  0  0  0
   -1.5605    2.4012   -1.4194 H   0  0  0  0  0  0  0  0  0  0  0  0
    5.0973    2.1126   -0.0087 H   0  0  0  0  0  0  0  0  0  0  0  0
    5.6542   -0.8140   -0.2651 H   0  0  0  0  0  0  0  0  0  0  0  0
    8.4036   -1.1681   -0.0406 H   0  0  0  0  0  0  0  0  0  0  0  0
   10.4478    0.4675    0.3328 H   0  0  0  0  0  0  0  0  0  0  0  0
    6.9773    2.8909    0.2563 H   0  0  0  0  0  0  0  0  0  0  0  0
  1  2  1  0
  2  3  1  0
  3  4  1  0
  4  5  1  0
  5  6  1  0
  6  7  1  0
  7  8  1  0
  8  9  1  0
  9 10  1  0
 10 11  2  0
 11 12  1  0
 12 13  1  0
 13 14  1  0
 14 15  1  0
 15 16  1  0
 16 17  1  0
 15 18  1  0
 18 19  1  0
 19 20  1  0
 20 21  1  0
 12 22  2  0
 22 23  1  0
 23 24  2  0
 24 25  1  0
  6 26  1  1
  2 27  1  0
 27 28  2  0
 27 29  1  0
 29 30  2  0
 30 31  1  0
 31 32  1  0
 32 33  2  0
 33 34  1  0
 34 35  1  0
  8  3  1  0
 24 10  1  0
 35 31  2  0
 14  6  1  0
 21 19  1  0
  7 17  1  1
 11  7  1  0
  1 36  1  0
  1 37  1  0
  1 38  1  0
  3 39  1  6
  4 40  1  0
  4 41  1  0
  5 42  1  0
  5 43  1  0
  8 44  1  1
 13 45  1  0
 13 46  1  0
 14 47  1  6
 16 48  1  0
 16 49  1  0
 17 50  1  0
 17 51  1  0
 18 52  1  0
 18 53  1  0
 19 54  1  0
 20 55  1  0
 20 56  1  0
 21 57  1  0
 21 58  1  0
 22 59  1  0
 23 60  1  0
 25 61  1  0
 26 62  1  0
 29 63  1  0
 30 64  1  0
 32 65  1  0
 33 66  1  0
 35 67  1  0
M  END
>  <Ligand ID>  (1) 
LIG0004500

>  <Ligand>  (1) 
nalfurafine

>  <SMILES>  (1) 
CN([C@@H]1CC[C@@]2([C@@]34[C@H]1Oc1c4c(C[C@H]2N(CC3)CC2CC2)ccc1O)O)C(=O)/C=C/c1ccoc1

>  <CID>  (1) 
6445230.0

>  <ChEMBL ID>  (1) 
nan

>  <InChiKey>  (1) 
XGZZHZMWIXFATA-UEZBDDGYSA-N

>  <InChi>  (1) 
InChI=1S/C28H32N2O5/c1-29(23(32)7-4-18-9-13-34-16-18)20-8-10-28(33)22-14-19-5-6-21(31)25-24(19)27(28,26(20)35-25)11-12-30(22)15-17-2-3-17/h4-7,9,13,16-17,20,22,26,31,33H,2-3,8,10-12,14-15H2,1H3/b7-4+/t20-,22-,26+,27+,28-/m1/s1

>  <IUPAC Name>  (1) 
(E)-N-[(4R,4aS,7R,7aR,12bS)-3-(cyclopropylmethyl)-4a,9-dihydroxy-1,2,4,5,6,7,7a,13-octahydro-4,12-methanobenzofuro[3,2-e]isoquinolin-7-yl]-3-(furan-3-yl)-N-methylprop-2-enamide

$$$$
