
     RDKit          3D

 54 53  0  0  0  0  0  0  0  0999 V2000
    7.5143    0.0877   -1.8707 C   0  0  0  0  0  0  0  0  0  0  0  0
    7.7162   -1.0087   -0.8599 C   0  0  0  0  0  0  0  0  0  0  0  0
    6.7537   -0.8941    0.2991 C   0  0  0  0  0  0  0  0  0  0  0  0
    5.3158   -0.9737   -0.0979 C   0  0  0  0  0  0  0  0  0  0  0  0
    4.4277   -0.8541    1.1483 C   0  0  0  0  0  0  0  0  0  0  0  0
    2.9754   -0.9355    0.7748 C   0  0  0  0  0  0  0  0  0  0  0  0
    2.5067    0.1262   -0.1646 C   0  0  0  0  0  0  0  0  0  0  0  0
    1.0158   -0.0364   -0.4849 C   0  0  0  0  0  0  0  0  0  0  0  0
    0.1591    0.0441    0.7013 C   0  0  0  0  0  0  0  0  0  0  0  0
   -0.7945    0.9091    0.9265 C   0  0  0  0  0  0  0  0  0  0  0  0
   -1.2016    2.0002    0.0033 C   0  0  0  0  0  0  0  0  0  0  0  0
   -2.6813    1.8237   -0.3929 C   0  0  0  0  0  0  0  0  0  0  0  0
   -2.9058    0.5230   -1.0768 C   0  0  0  0  0  0  0  0  0  0  0  0
   -4.3210    0.3426   -1.4773 C   0  0  0  0  0  0  0  0  0  0  0  0
   -5.2178    0.3725   -0.2791 C   0  0  0  0  0  0  0  0  0  0  0  0
   -6.6610    0.1777   -0.6153 C   0  0  0  0  0  0  0  0  0  0  0  0
   -7.5172    0.2148    0.6047 C   0  0  0  0  0  0  0  0  0  0  0  0
   -7.1743   -0.8708    1.5307 C   0  0  0  0  0  0  0  0  0  0  0  0
   -6.3316   -1.7738    1.3400 O   0  0  0  0  0  0  0  0  0  0  0  0
   -7.8540   -0.9073    2.7525 O   0  0  0  0  0  0  0  0  0  0  0  0
    7.9985   -0.2274   -2.8343 H   0  0  0  0  0  0  0  0  0  0  0  0
    8.0895    1.0069   -1.5630 H   0  0  0  0  0  0  0  0  0  0  0  0
    6.4638    0.3112   -2.0865 H   0  0  0  0  0  0  0  0  0  0  0  0
    7.5925   -1.9828   -1.3905 H   0  0  0  0  0  0  0  0  0  0  0  0
    8.7530   -0.9933   -0.4842 H   0  0  0  0  0  0  0  0  0  0  0  0
    6.9887   -1.7341    1.0070 H   0  0  0  0  0  0  0  0  0  0  0  0
    6.9608    0.0308    0.8559 H   0  0  0  0  0  0  0  0  0  0  0  0
    5.1519   -1.9548   -0.5825 H   0  0  0  0  0  0  0  0  0  0  0  0
    5.0127   -0.1669   -0.7642 H   0  0  0  0  0  0  0  0  0  0  0  0
    4.6904    0.0537    1.7013 H   0  0  0  0  0  0  0  0  0  0  0  0
    4.6889   -1.7393    1.7622 H   0  0  0  0  0  0  0  0  0  0  0  0
    2.3542   -0.8308    1.7025 H   0  0  0  0  0  0  0  0  0  0  0  0
    2.7744   -1.9503    0.4092 H   0  0  0  0  0  0  0  0  0  0  0  0
    3.0331    0.0250   -1.1573 H   0  0  0  0  0  0  0  0  0  0  0  0
    2.6989    1.1425    0.1949 H   0  0  0  0  0  0  0  0  0  0  0  0
    0.9368   -1.0789   -0.9142 H   0  0  0  0  0  0  0  0  0  0  0  0
    0.7540    0.6236   -1.3062 H   0  0  0  0  0  0  0  0  0  0  0  0
    0.3362   -0.7082    1.4921 H   0  0  0  0  0  0  0  0  0  0  0  0
   -1.3674    0.8563    1.8704 H   0  0  0  0  0  0  0  0  0  0  0  0
   -0.6463    2.0495   -0.9287 H   0  0  0  0  0  0  0  0  0  0  0  0
   -1.1197    2.9564    0.5612 H   0  0  0  0  0  0  0  0  0  0  0  0
   -2.9455    2.6371   -1.0982 H   0  0  0  0  0  0  0  0  0  0  0  0
   -3.2756    1.9883    0.5314 H   0  0  0  0  0  0  0  0  0  0  0  0
   -2.2431    0.4978   -1.9671 H   0  0  0  0  0  0  0  0  0  0  0  0
   -2.6275   -0.3577   -0.4459 H   0  0  0  0  0  0  0  0  0  0  0  0
   -4.4091   -0.6835   -1.9416 H   0  0  0  0  0  0  0  0  0  0  0  0
   -4.6566    1.0280   -2.2822 H   0  0  0  0  0  0  0  0  0  0  0  0
   -5.1266    1.3895    0.1761 H   0  0  0  0  0  0  0  0  0  0  0  0
   -4.8383   -0.3200    0.4854 H   0  0  0  0  0  0  0  0  0  0  0  0
   -7.0008    0.9933   -1.3028 H   0  0  0  0  0  0  0  0  0  0  0  0
   -6.8522   -0.7924   -1.1403 H   0  0  0  0  0  0  0  0  0  0  0  0
   -8.6037    0.1316    0.3658 H   0  0  0  0  0  0  0  0  0  0  0  0
   -7.4092    1.2246    1.0846 H   0  0  0  0  0  0  0  0  0  0  0  0
   -7.8815   -1.7929    3.2738 H   0  0  0  0  0  0  0  0  0  0  0  0
  1  2  1  0
  2  3  1  0
  3  4  1  0
  4  5  1  0
  5  6  1  0
  6  7  1  0
  7  8  1  0
  8  9  1  0
  9 10  2  0
 10 11  1  0
 11 12  1  0
 12 13  1  0
 13 14  1  0
 14 15  1  0
 15 16  1  0
 16 17  1  0
 17 18  1  0
 18 19  2  0
 18 20  1  0
  1 21  1  0
  1 22  1  0
  1 23  1  0
  2 24  1  0
  2 25  1  0
  3 26  1  0
  3 27  1  0
  4 28  1  0
  4 29  1  0
  5 30  1  0
  5 31  1  0
  6 32  1  0
  6 33  1  0
  7 34  1  0
  7 35  1  0
  8 36  1  0
  8 37  1  0
  9 38  1  0
 10 39  1  0
 11 40  1  0
 11 41  1  0
 12 42  1  0
 12 43  1  0
 13 44  1  0
 13 45  1  0
 14 46  1  0
 14 47  1  0
 15 48  1  0
 15 49  1  0
 16 50  1  0
 16 51  1  0
 17 52  1  0
 17 53  1  0
 20 54  1  0
M  END
>  <Ligand ID>  (1) 
LIG0004973

>  <Ligand>  (1) 
oleic acid

>  <SMILES>  (1) 
CCCCCCCC/C=C\CCCCCCCC(=O)O

>  <CID>  (1) 
445639.0

>  <ChEMBL ID>  (1) 
nan

>  <InChiKey>  (1) 
ZQPPMHVWECSIRJ-KTKRTIGZSA-N

>  <InChi>  (1) 
InChI=1S/C18H34O2/c1-2-3-4-5-6-7-8-9-10-11-12-13-14-15-16-17-18(19)20/h9-10H,2-8,11-17H2,1H3,(H,19,20)/b10-9-

>  <IUPAC Name>  (1) 
(Z)-octadec-9-enoic acid

$$$$
