
     RDKit          3D

 57 63  0  0  0  0  0  0  0  0999 V2000
    2.6858   -2.6265    1.3201 C   0  0  0  0  0  0  0  0  0  0  0  0
    2.3825   -1.3220    0.7114 N   0  0  0  0  0  0  0  0  0  0  0  0
    3.2861   -0.5019    0.1363 C   0  0  0  0  0  0  0  0  0  0  0  0
    4.7485   -0.6948   -0.0231 C   0  0  0  0  0  0  0  0  0  0  0  0
    5.3662    0.4028   -0.8241 C   0  0  0  0  0  0  0  0  0  0  0  0
    4.7379    1.7116   -0.3468 C   0  0  0  0  0  0  0  0  0  0  0  0
    3.3543    1.7288   -1.0078 C   0  0  0  0  0  0  0  0  0  0  0  0
    2.6130    0.6154   -0.3124 C   0  0  0  0  0  0  0  0  0  0  0  0
    1.2587    0.4639    0.0027 C   0  0  0  0  0  0  0  0  0  0  0  0
    1.1479   -0.7518    0.6392 C   0  0  0  0  0  0  0  0  0  0  0  0
   -0.1287   -1.2728    1.1288 C   0  0  2  0  0  0  0  0  0  0  0  0
   -0.5193   -2.5012    0.4826 O   0  0  0  0  0  0  0  0  0  0  0  0
   -1.2004   -2.1938   -0.6837 C   0  0  0  0  0  0  0  0  0  0  0  0
   -1.6650   -0.9129   -0.5134 C   0  0  0  0  0  0  0  0  0  0  0  0
   -1.2714   -0.3756    0.8177 C   0  0  2  0  0  0  0  0  0  0  0  0
   -0.9908    1.0716    0.6305 C   0  0  2  0  0  0  0  0  0  0  0  0
    0.1525    1.3819   -0.2692 C   0  0  0  0  0  0  0  0  0  0  0  0
   -0.7159    1.6267    1.8827 O   0  0  0  0  0  0  0  0  0  0  0  0
   -2.2931    1.7084    0.1561 C   0  0  0  0  0  0  0  0  0  0  0  0
   -2.8227    1.1560   -1.1199 C   0  0  0  0  0  0  0  0  0  0  0  0
   -2.3881   -0.2231   -1.4271 C   0  0  0  0  0  0  0  0  0  0  0  0
   -2.6912   -0.8323   -2.6205 C   0  0  0  0  0  0  0  0  0  0  0  0
   -2.2408   -2.1390   -2.8433 C   0  0  0  0  0  0  0  0  0  0  0  0
   -1.4975   -2.8160   -1.8761 C   0  0  0  0  0  0  0  0  0  0  0  0
   -1.0384   -4.1125   -2.0715 O   0  0  0  0  0  0  0  0  0  0  0  0
   -3.2185    1.6093    1.2607 N   0  0  0  0  0  0  0  0  0  0  0  0
   -3.5970    0.2425    1.5412 C   0  0  0  0  0  0  0  0  0  0  0  0
   -2.3714   -0.5594    1.8248 C   0  0  0  0  0  0  0  0  0  0  0  0
   -4.2906    2.5449    1.2474 C   0  0  0  0  0  0  0  0  0  0  0  0
    2.9480   -3.3368    0.5091 H   0  0  0  0  0  0  0  0  0  0  0  0
    1.7923   -2.9839    1.8597 H   0  0  0  0  0  0  0  0  0  0  0  0
    3.5580   -2.5186    1.9942 H   0  0  0  0  0  0  0  0  0  0  0  0
    4.9880   -1.6725   -0.5036 H   0  0  0  0  0  0  0  0  0  0  0  0
    5.1836   -0.7059    1.0033 H   0  0  0  0  0  0  0  0  0  0  0  0
    6.4564    0.4388   -0.5571 H   0  0  0  0  0  0  0  0  0  0  0  0
    5.2187    0.2823   -1.9089 H   0  0  0  0  0  0  0  0  0  0  0  0
    5.3310    2.5946   -0.6340 H   0  0  0  0  0  0  0  0  0  0  0  0
    4.5536    1.6272    0.7423 H   0  0  0  0  0  0  0  0  0  0  0  0
    2.9080    2.7226   -0.7423 H   0  0  0  0  0  0  0  0  0  0  0  0
    3.4017    1.6009   -2.0900 H   0  0  0  0  0  0  0  0  0  0  0  0
   -0.1521   -1.5104    2.2150 H   0  0  0  0  0  0  0  0  0  0  0  0
   -0.1333    1.3995   -1.3532 H   0  0  0  0  0  0  0  0  0  0  0  0
    0.4870    2.4370   -0.0457 H   0  0  0  0  0  0  0  0  0  0  0  0
   -0.8162    2.6029    1.8883 H   0  0  0  0  0  0  0  0  0  0  0  0
   -2.1211    2.8073    0.0156 H   0  0  0  0  0  0  0  0  0  0  0  0
   -2.4137    1.7793   -1.9619 H   0  0  0  0  0  0  0  0  0  0  0  0
   -3.9280    1.2424   -1.0763 H   0  0  0  0  0  0  0  0  0  0  0  0
   -3.2562   -0.3433   -3.3791 H   0  0  0  0  0  0  0  0  0  0  0  0
   -2.4769   -2.6366   -3.7935 H   0  0  0  0  0  0  0  0  0  0  0  0
   -1.6732   -4.8589   -1.7562 H   0  0  0  0  0  0  0  0  0  0  0  0
   -4.2009   -0.2073    0.7504 H   0  0  0  0  0  0  0  0  0  0  0  0
   -4.2195    0.2796    2.4625 H   0  0  0  0  0  0  0  0  0  0  0  0
   -1.9312   -0.3525    2.8193 H   0  0  0  0  0  0  0  0  0  0  0  0
   -2.6473   -1.6509    1.7863 H   0  0  0  0  0  0  0  0  0  0  0  0
   -5.2952    2.1235    1.0966 H   0  0  0  0  0  0  0  0  0  0  0  0
   -4.0221    3.3691    0.5559 H   0  0  0  0  0  0  0  0  0  0  0  0
   -4.3322    3.0426    2.2601 H   0  0  0  0  0  0  0  0  0  0  0  0
  1  2  1  0
  2  3  1  0
  3  4  1  0
  4  5  1  0
  5  6  1  0
  6  7  1  0
  7  8  1  0
  8  9  1  0
  9 10  2  0
 10 11  1  0
 11 12  1  0
 12 13  1  0
 13 14  2  0
 14 15  1  0
 15 16  1  0
 16 17  1  0
 16 18  1  1
 16 19  1  0
 19 20  1  0
 20 21  1  0
 21 22  2  0
 22 23  1  0
 23 24  2  0
 24 25  1  0
 19 26  1  0
 26 27  1  0
 27 28  1  0
 26 29  1  0
 10  2  1  0
 15 11  1  0
  8  3  2  0
 17  9  1  0
 24 13  1  0
 21 14  1  0
 15 28  1  1
  1 30  1  0
  1 31  1  0
  1 32  1  0
  4 33  1  0
  4 34  1  0
  5 35  1  0
  5 36  1  0
  6 37  1  0
  6 38  1  0
  7 39  1  0
  7 40  1  0
 11 41  1  1
 17 42  1  0
 17 43  1  0
 18 44  1  0
 19 45  1  0
 20 46  1  0
 20 47  1  0
 22 48  1  0
 23 49  1  0
 25 50  1  0
 27 51  1  0
 27 52  1  0
 28 53  1  0
 28 54  1  0
 29 55  1  0
 29 56  1  0
 29 57  1  0
M  END
>  <Ligand ID>  (1) 
LIG0004611

>  <Ligand>  (1) 
CHEMBL374228

>  <SMILES>  (1) 
Cn1c2CCCCc2c2c1[C@@H]1Oc3c4[C@@]51[C@](C2)(O)C(Cc4ccc3O)N(CC5)C

>  <CID>  (1) 
44421407.0

>  <ChEMBL ID>  (1) 
nan

>  <InChiKey>  (1) 
FITWJUAGQFUQPT-OSHIAZECSA-N

>  <InChi>  (1) 
InChI=1S/C24H28N2O3/c1-25-10-9-23-19-13-7-8-17(27)21(19)29-22(23)20-15(12-24(23,28)18(25)11-13)14-5-3-4-6-16(14)26(20)2/h7-8,18,22,27-28H,3-6,9-12H2,1-2H3/t18?,22-,23-,24+/m0/s1

>  <IUPAC Name>  (1) 
(1S,2S,13R)-11,22-dimethyl-14-oxa-11,22-diazaheptacyclo[13.9.1.01,13.02,21.04,12.05,10.019,25]pentacosa-4(12),5(10),15,17,19(25)-pentaene-2,16-diol

$$$$
