
     RDKit          3D

 74 77  0  0  0  0  0  0  0  0999 V2000
    9.9012    2.3669    0.6454 O   0  0  0  0  0  0  0  0  0  0  0  0
    8.7120    1.7558    0.2741 C   0  0  0  0  0  0  0  0  0  0  0  0
    8.7528    0.7966   -0.6934 C   0  0  0  0  0  0  0  0  0  0  0  0
    7.5834    0.1771   -1.0769 C   0  0  0  0  0  0  0  0  0  0  0  0
    6.4082    0.5672   -0.4493 C   0  0  0  0  0  0  0  0  0  0  0  0
    6.3337    1.5232    0.5220 C   0  0  0  0  0  0  0  0  0  0  0  0
    7.5346    2.1425    0.8988 C   0  0  0  0  0  0  0  0  0  0  0  0
    5.1240    1.9690    1.2131 C   0  0  0  0  0  0  0  0  0  0  0  0
    3.9316    1.2321    0.7303 C   0  0  0  0  0  0  0  0  0  0  0  0
    4.1930   -0.1751    0.2457 C   0  0  2  0  0  0  0  0  0  0  0  0
    5.1713   -0.1285   -0.8943 C   0  0  0  0  0  0  0  0  0  0  0  0
    2.8470   -0.6459   -0.2495 C   0  0  0  0  0  0  0  0  0  0  0  0
    2.6624   -0.9552   -1.4597 O   0  0  0  0  0  0  0  0  0  0  0  0
    1.7965   -0.7224    0.7262 N   0  0  0  0  0  0  0  0  0  0  0  0
    0.4601   -1.1603    0.3666 C   0  0  1  0  0  0  0  0  0  0  0  0
    0.1253   -2.5031    0.9877 C   0  0  0  0  0  0  0  0  0  0  0  0
    1.1119   -3.5717    0.5154 C   0  0  0  0  0  0  0  0  0  0  0  0
    0.0479   -2.4558    2.4830 C   0  0  0  0  0  0  0  0  0  0  0  0
   -0.4902   -0.1247    0.8778 C   0  0  0  0  0  0  0  0  0  0  0  0
   -1.8472   -0.4949    0.5543 N   0  0  0  0  0  0  0  0  0  0  0  0
   -2.7804    0.4244    1.2324 C   0  0  0  0  0  0  0  0  0  0  0  0
   -4.1342   -0.2345    1.1501 C   0  0  0  0  0  0  0  0  0  0  0  0
   -4.5961   -0.4002   -0.2789 C   0  0  1  0  0  0  0  0  0  0  0  0
   -3.5145   -0.7309   -1.2324 C   0  0  2  0  0  0  0  0  0  0  0  0
   -2.1332   -0.2659   -0.8589 C   0  0  0  0  0  0  0  0  0  0  0  0
   -3.8350   -0.1860   -2.6045 C   0  0  0  0  0  0  0  0  0  0  0  0
   -5.5192   -1.6327   -0.2322 C   0  0  0  0  0  0  0  0  0  0  0  0
   -5.4502    0.7484   -0.6131 C   0  0  0  0  0  0  0  0  0  0  0  0
   -6.8389    0.6976   -0.4796 C   0  0  0  0  0  0  0  0  0  0  0  0
   -7.6580    1.7545   -0.7746 C   0  0  0  0  0  0  0  0  0  0  0  0
   -7.1309    2.9428   -1.2271 C   0  0  0  0  0  0  0  0  0  0  0  0
   -5.7812    3.0326   -1.3706 C   0  0  0  0  0  0  0  0  0  0  0  0
   -4.9554    1.9705   -1.0743 C   0  0  0  0  0  0  0  0  0  0  0  0
   -5.2587    4.2562   -1.8350 O   0  0  0  0  0  0  0  0  0  0  0  0
   10.7559    2.3317    0.1097 H   0  0  0  0  0  0  0  0  0  0  0  0
    9.6918    0.5180   -1.1618 H   0  0  0  0  0  0  0  0  0  0  0  0
    7.6065   -0.5884   -1.8456 H   0  0  0  0  0  0  0  0  0  0  0  0
    7.5250    2.9188    1.6761 H   0  0  0  0  0  0  0  0  0  0  0  0
    4.9552    3.0474    0.9767 H   0  0  0  0  0  0  0  0  0  0  0  0
    5.1922    1.9069    2.3209 H   0  0  0  0  0  0  0  0  0  0  0  0
    3.1396    1.1896    1.5124 H   0  0  0  0  0  0  0  0  0  0  0  0
    3.4569    1.7511   -0.1503 H   0  0  0  0  0  0  0  0  0  0  0  0
    4.5188   -0.8671    1.0660 H   0  0  0  0  0  0  0  0  0  0  0  0
    4.6724    0.3613   -1.7543 H   0  0  0  0  0  0  0  0  0  0  0  0
    5.4194   -1.1830   -1.1896 H   0  0  0  0  0  0  0  0  0  0  0  0
    1.9531   -0.4645    1.7348 H   0  0  0  0  0  0  0  0  0  0  0  0
    0.3311   -1.2888   -0.7128 H   0  0  0  0  0  0  0  0  0  0  0  0
   -0.8710   -2.7955    0.6002 H   0  0  0  0  0  0  0  0  0  0  0  0
    0.7327   -4.5898    0.7338 H   0  0  0  0  0  0  0  0  0  0  0  0
    2.0776   -3.4843    1.0812 H   0  0  0  0  0  0  0  0  0  0  0  0
    1.2632   -3.5140   -0.5794 H   0  0  0  0  0  0  0  0  0  0  0  0
    0.3747   -3.4357    2.9425 H   0  0  0  0  0  0  0  0  0  0  0  0
    0.6748   -1.6191    2.9009 H   0  0  0  0  0  0  0  0  0  0  0  0
   -0.9736   -2.2927    2.8901 H   0  0  0  0  0  0  0  0  0  0  0  0
   -0.2388    0.8999    0.5474 H   0  0  0  0  0  0  0  0  0  0  0  0
   -0.4286   -0.1656    2.0015 H   0  0  0  0  0  0  0  0  0  0  0  0
   -2.7296    1.4438    0.8602 H   0  0  0  0  0  0  0  0  0  0  0  0
   -2.4721    0.4240    2.2977 H   0  0  0  0  0  0  0  0  0  0  0  0
   -4.8473    0.3910    1.7063 H   0  0  0  0  0  0  0  0  0  0  0  0
   -4.0556   -1.2196    1.6506 H   0  0  0  0  0  0  0  0  0  0  0  0
   -3.4275   -1.8544   -1.3896 H   0  0  0  0  0  0  0  0  0  0  0  0
   -1.4245   -0.8684   -1.4480 H   0  0  0  0  0  0  0  0  0  0  0  0
   -1.9270    0.7982   -1.1141 H   0  0  0  0  0  0  0  0  0  0  0  0
   -3.6693   -0.9502   -3.4239 H   0  0  0  0  0  0  0  0  0  0  0  0
   -3.1363    0.6446   -2.9137 H   0  0  0  0  0  0  0  0  0  0  0  0
   -4.8923    0.1246   -2.6818 H   0  0  0  0  0  0  0  0  0  0  0  0
   -6.0734   -1.7702   -1.1598 H   0  0  0  0  0  0  0  0  0  0  0  0
   -4.8058   -2.4903   -0.1490 H   0  0  0  0  0  0  0  0  0  0  0  0
   -6.0877   -1.5964    0.6946 H   0  0  0  0  0  0  0  0  0  0  0  0
   -7.3296   -0.2105   -0.1258 H   0  0  0  0  0  0  0  0  0  0  0  0
   -8.7339    1.6945   -0.6642 H   0  0  0  0  0  0  0  0  0  0  0  0
   -7.7575    3.7931   -1.4673 H   0  0  0  0  0  0  0  0  0  0  0  0
   -3.9139    2.1013   -1.2023 H   0  0  0  0  0  0  0  0  0  0  0  0
   -5.3195    5.0331   -1.1895 H   0  0  0  0  0  0  0  0  0  0  0  0
  1  2  1  0
  2  3  2  0
  3  4  1  0
  4  5  2  0
  5  6  1  0
  6  7  2  0
  6  8  1  0
  8  9  1  0
  9 10  1  0
 10 11  1  0
 10 12  1  0
 12 13  2  0
 12 14  1  0
 14 15  1  0
 15 16  1  0
 16 17  1  0
 16 18  1  0
 15 19  1  0
 19 20  1  0
 20 21  1  0
 21 22  1  0
 22 23  1  0
 23 24  1  0
 24 25  1  0
 24 26  1  0
 23 27  1  1
 23 28  1  0
 28 29  2  0
 29 30  1  0
 30 31  2  0
 31 32  1  0
 32 33  2  0
 32 34  1  0
  7  2  1  0
 25 20  1  0
 33 28  1  0
 11  5  1  0
  1 35  1  0
  3 36  1  0
  4 37  1  0
  7 38  1  0
  8 39  1  0
  8 40  1  0
  9 41  1  0
  9 42  1  0
 10 43  1  1
 11 44  1  0
 11 45  1  0
 14 46  1  0
 15 47  1  6
 16 48  1  0
 17 49  1  0
 17 50  1  0
 17 51  1  0
 18 52  1  0
 18 53  1  0
 18 54  1  0
 19 55  1  0
 19 56  1  0
 21 57  1  0
 21 58  1  0
 22 59  1  0
 22 60  1  0
 24 61  1  6
 25 62  1  0
 25 63  1  0
 26 64  1  0
 26 65  1  0
 26 66  1  0
 27 67  1  0
 27 68  1  0
 27 69  1  0
 29 70  1  0
 30 71  1  0
 31 72  1  0
 33 73  1  0
 34 74  1  0
M  END
>  <Ligand ID>  (1) 
LIG0002301

>  <Ligand>  (1) 
CHEMBL1085023

>  <SMILES>  (1) 
Oc1ccc2c(c1)CC[C@H](C2)C(=O)N[C@@H](C(C)C)CN1CC[C@@]([C@H](C1)C)(C)c1cccc(c1)O

>  <CID>  (1) 
11698381.0

>  <ChEMBL ID>  (1) 
nan

>  <InChiKey>  (1) 
WXGDFQBKLWJZDU-ZDGQEMPXSA-N

>  <InChi>  (1) 
InChI=1S/C29H40N2O3/c1-19(2)27(30-28(34)23-9-8-22-15-26(33)11-10-21(22)14-23)18-31-13-12-29(4,20(3)17-31)24-6-5-7-25(32)16-24/h5-7,10-11,15-16,19-20,23,27,32-33H,8-9,12-14,17-18H2,1-4H3,(H,30,34)/t20-,23+,27+,29+/m0/s1

>  <IUPAC Name>  (1) 
(2R)-6-hydroxy-N-[(2S)-1-[(3R,4R)-4-(3-hydroxyphenyl)-3,4-dimethylpiperidin-1-yl]-3-methylbutan-2-yl]-1,2,3,4-tetrahydronaphthalene-2-carboxamide

$$$$
