
     RDKit          3D

197204  0  0  0  0  0  0  0  0999 V2000
    7.9029   -8.8065   -2.3768 N   0  0  0  0  0  0  0  0  0  0  0  0
    7.2192   -7.5765   -2.0828 C   0  0  0  0  0  0  0  0  0  0  0  0
    6.9077   -7.2738   -0.8769 N   0  0  0  0  0  0  0  0  0  0  0  0
    6.8921   -6.6800   -3.1646 N   0  0  0  0  0  0  0  0  0  0  0  0
    6.9692   -5.2784   -3.0075 C   0  0  0  0  0  0  0  0  0  0  0  0
    5.9497   -4.6247   -2.0832 C   0  0  0  0  0  0  0  0  0  0  0  0
    6.2394   -3.1579   -2.0197 C   0  0  0  0  0  0  0  0  0  0  0  0
    5.3675   -2.3562   -1.0673 C   0  0  2  0  0  0  0  0  0  0  0  0
    3.9723   -2.3285   -1.3173 N   0  0  0  0  0  0  0  0  0  0  0  0
    3.2969   -2.6019   -2.5306 C   0  0  0  0  0  0  0  0  0  0  0  0
    4.0597   -2.6844   -3.5356 O   0  0  0  0  0  0  0  0  0  0  0  0
    1.8666   -2.7866   -2.7833 C   0  0  1  0  0  0  0  0  0  0  0  0
    1.6095   -3.7618   -3.9391 C   0  0  0  0  0  0  0  0  0  0  0  0
    2.2014   -5.0807   -3.8119 C   0  0  0  0  0  0  0  0  0  0  0  0
    3.2773   -5.3620   -4.6816 C   0  0  0  0  0  0  0  0  0  0  0  0
    3.9005   -6.5777   -4.6435 C   0  0  0  0  0  0  0  0  0  0  0  0
    3.5345   -7.5816   -3.7803 C   0  0  0  0  0  0  0  0  0  0  0  0
    2.4908   -7.3304   -2.9217 C   0  0  0  0  0  0  0  0  0  0  0  0
    1.8674   -6.0957   -2.9706 C   0  0  0  0  0  0  0  0  0  0  0  0
    0.9729   -3.1414   -1.7231 N   0  0  0  0  0  0  0  0  0  0  0  0
   -0.2805   -2.4547   -1.4448 C   0  0  0  0  0  0  0  0  0  0  0  0
   -0.4168   -1.4292   -2.1582 O   0  0  0  0  0  0  0  0  0  0  0  0
   -1.2624   -2.8289   -0.4934 C   0  0  2  0  0  0  0  0  0  0  0  0
   -2.2751   -3.8175   -1.0939 C   0  0  0  0  0  0  0  0  0  0  0  0
   -1.8643   -5.0801   -1.6316 C   0  0  0  0  0  0  0  0  0  0  0  0
   -1.7059   -6.2294   -0.9346 N   0  0  0  0  0  0  0  0  0  0  0  0
   -1.4147   -7.2415   -1.8134 C   0  0  0  0  0  0  0  0  0  0  0  0
   -1.3877   -6.7328   -3.0717 N   0  0  0  0  0  0  0  0  0  0  0  0
   -1.6593   -5.4165   -2.9369 C   0  0  0  0  0  0  0  0  0  0  0  0
   -2.1594   -1.6903   -0.0535 N   0  0  0  0  0  0  0  0  0  0  0  0
   -2.8534   -1.8871    1.1456 C   0  0  0  0  0  0  0  0  0  0  0  0
   -2.4957   -3.0086    1.7311 O   0  0  0  0  0  0  0  0  0  0  0  0
   -3.8470   -1.1596    1.8707 C   0  0  1  0  0  0  0  0  0  0  0  0
   -4.2769   -1.8781    3.0828 N   0  0  0  0  0  0  0  0  0  0  0  0
   -5.6227   -2.2945    3.1249 C   0  0  0  0  0  0  0  0  0  0  0  0
   -6.4697   -2.0639    2.1996 O   0  0  0  0  0  0  0  0  0  0  0  0
   -6.2347   -3.0620    4.2766 C   0  0  2  0  0  0  0  0  0  0  0  0
   -5.9771   -4.5129    3.9044 C   0  0  0  0  0  0  0  0  0  0  0  0
   -6.5650   -5.3950    4.9205 C   0  0  0  0  0  0  0  0  0  0  0  0
   -5.9373   -5.8855    6.0356 C   0  0  0  0  0  0  0  0  0  0  0  0
   -6.5451   -6.7435    6.9387 C   0  0  0  0  0  0  0  0  0  0  0  0
   -7.8653   -7.1220    6.6921 C   0  0  0  0  0  0  0  0  0  0  0  0
   -8.5081   -6.6490    5.5892 C   0  0  0  0  0  0  0  0  0  0  0  0
   -7.8795   -5.7999    4.7131 C   0  0  0  0  0  0  0  0  0  0  0  0
   -8.5449   -7.9840    7.5606 O   0  0  0  0  0  0  0  0  0  0  0  0
   -7.6752   -2.8203    4.1715 N   0  0  0  0  0  0  0  0  0  0  0  0
   -3.9464    0.3338    1.9705 C   0  0  0  0  0  0  0  0  0  0  0  0
   -4.6270    0.9446    0.8446 C   0  0  0  0  0  0  0  0  0  0  0  0
   -4.7505    0.1040   -0.1458 O   0  0  0  0  0  0  0  0  0  0  0  0
   -5.2280    2.1176    0.3909 N   0  0  0  0  0  0  0  0  0  0  0  0
   -5.9992    1.8943   -0.9097 C   0  0  2  0  0  0  0  0  0  0  0  0
   -7.0755    0.9186   -0.7049 C   0  0  0  0  0  0  0  0  0  0  0  0
   -7.1982    0.3580    0.4464 O   0  0  0  0  0  0  0  0  0  0  0  0
   -8.0189    0.5260   -1.6717 N   0  0  0  0  0  0  0  0  0  0  0  0
   -5.1076    1.6757   -2.0713 C   0  0  0  0  0  0  0  0  0  0  0  0
   -5.9323    1.4847   -3.3115 C   0  0  0  0  0  0  0  0  0  0  0  0
   -6.4130    2.6226   -3.9366 C   0  0  0  0  0  0  0  0  0  0  0  0
   -7.1578    2.4432   -5.0825 C   0  0  0  0  0  0  0  0  0  0  0  0
   -7.4288    1.1843   -5.6052 C   0  0  0  0  0  0  0  0  0  0  0  0
   -6.9460    0.0301   -4.9820 C   0  0  0  0  0  0  0  0  0  0  0  0
   -6.1952    0.2415   -3.8251 C   0  0  0  0  0  0  0  0  0  0  0  0
   -8.1831    1.0270   -6.7538 O   0  0  0  0  0  0  0  0  0  0  0  0
   -5.2021    3.4681    0.7759 C   0  0  0  0  0  0  0  0  0  0  0  0
   -6.1366    4.3162   -0.0906 C   0  0  0  0  0  0  0  0  0  0  0  0
   -3.8220    4.0011    0.6567 N   0  0  0  0  0  0  0  0  0  0  0  0
   -3.5133    5.3717    0.8840 C   0  0  0  0  0  0  0  0  0  0  0  0
   -4.4879    6.0639    1.1937 O   0  0  0  0  0  0  0  0  0  0  0  0
   -2.1955    5.9711    0.7652 C   0  0  1  0  0  0  0  0  0  0  0  0
   -1.0902    5.0973    1.0319 N   0  0  0  0  0  0  0  0  0  0  0  0
    0.2714    5.5099    1.0565 C   0  0  0  0  0  0  0  0  0  0  0  0
    0.4957    6.6596    0.6407 O   0  0  0  0  0  0  0  0  0  0  0  0
    1.4008    4.6937    1.5049 C   0  0  1  0  0  0  0  0  0  0  0  0
    2.5329    4.9550    0.5750 N   0  0  0  0  0  0  0  0  0  0  0  0
    3.7546    4.2358    0.7918 C   0  0  0  0  0  0  0  0  0  0  0  0
    3.7569    3.5203    1.7938 O   0  0  0  0  0  0  0  0  0  0  0  0
    4.9495    4.3188   -0.1237 C   0  0  1  0  0  0  0  0  0  0  0  0
    5.3388    2.9500   -0.2448 N   0  0  0  0  0  0  0  0  0  0  0  0
    6.5934    2.3939    0.1461 C   0  0  0  0  0  0  0  0  0  0  0  0
    7.4503    3.2526    0.4425 O   0  0  0  0  0  0  0  0  0  0  0  0
    6.8696    0.9671    0.1976 C   0  0  2  0  0  0  0  0  0  0  0  0
    5.7677    0.0852   -0.2327 N   0  0  0  0  0  0  0  0  0  0  0  0
    6.1258   -1.2280   -0.6063 C   0  0  0  0  0  0  0  0  0  0  0  0
    7.3980   -1.4265   -0.4955 O   0  0  0  0  0  0  0  0  0  0  0  0
    7.0726    0.5597    1.6781 C   0  0  0  0  0  0  0  0  0  0  0  0
    8.2045    1.3068    2.2316 C   0  0  0  0  0  0  0  0  0  0  0  0
    9.4815    0.7360    2.0315 C   0  0  0  0  0  0  0  0  0  0  0  0
   10.5915    1.3865    2.5528 C   0  0  0  0  0  0  0  0  0  0  0  0
   10.5118    2.5755    3.2605 C   0  0  0  0  0  0  0  0  0  0  0  0
    9.2472    3.0924    3.4305 C   0  0  0  0  0  0  0  0  0  0  0  0
    8.1422    2.4735    2.9340 C   0  0  0  0  0  0  0  0  0  0  0  0
    9.1569    4.2857    4.1276 C   0  0  0  0  0  0  0  0  0  0  0  0
   10.2962    4.8898    4.5977 C   0  0  0  0  0  0  0  0  0  0  0  0
   11.5597    4.3707    4.4186 C   0  0  0  0  0  0  0  0  0  0  0  0
   11.6645    3.1546    3.7179 C   0  0  0  0  0  0  0  0  0  0  0  0
    4.6657    5.0557   -1.3358 C   0  0  0  0  0  0  0  0  0  0  0  0
    4.3475    6.4925   -1.0282 C   0  0  0  0  0  0  0  0  0  0  0  0
    4.5090    7.0226    0.0835 O   0  0  0  0  0  0  0  0  0  0  0  0
    3.8145    7.3615   -2.0586 N   0  0  0  0  0  0  0  0  0  0  0  0
    1.8817    5.3985    2.8278 C   0  0  0  0  0  0  0  0  0  0  0  0
   -2.0478    6.5592   -0.6800 C   0  0  0  0  0  0  0  0  0  0  0  0
   -3.1328    7.5964   -0.8222 C   0  0  0  0  0  0  0  0  0  0  0  0
   -4.3641    7.2975   -1.3244 C   0  0  0  0  0  0  0  0  0  0  0  0
   -5.3656    8.2229   -1.4064 C   0  0  0  0  0  0  0  0  0  0  0  0
   -5.1583    9.5064   -0.9778 C   0  0  0  0  0  0  0  0  0  0  0  0
   -3.9024    9.8040   -0.4672 C   0  0  0  0  0  0  0  0  0  0  0  0
   -2.8840    8.8958   -0.3748 C   0  0  0  0  0  0  0  0  0  0  0  0
   -5.6482    3.6823    2.1502 C   0  0  0  0  0  0  0  0  0  0  0  0
   -6.7961    3.3506    2.4987 O   0  0  0  0  0  0  0  0  0  0  0  0
   -4.7932    4.2573    3.0997 O   0  0  0  0  0  0  0  0  0  0  0  0
    8.9802   -8.8294   -2.3665 H   0  0  0  0  0  0  0  0  0  0  0  0
    7.3505   -9.6876   -2.6057 H   0  0  0  0  0  0  0  0  0  0  0  0
    7.0967   -7.8327   -0.0420 H   0  0  0  0  0  0  0  0  0  0  0  0
    6.6279   -7.1635   -4.0549 H   0  0  0  0  0  0  0  0  0  0  0  0
    7.9820   -4.9570   -2.6001 H   0  0  0  0  0  0  0  0  0  0  0  0
    6.8735   -4.7603   -3.9840 H   0  0  0  0  0  0  0  0  0  0  0  0
    6.1788   -5.0298   -1.0462 H   0  0  0  0  0  0  0  0  0  0  0  0
    4.9234   -4.8984   -2.2939 H   0  0  0  0  0  0  0  0  0  0  0  0
    7.3001   -2.9863   -1.6438 H   0  0  0  0  0  0  0  0  0  0  0  0
    6.2356   -2.6915   -3.0088 H   0  0  0  0  0  0  0  0  0  0  0  0
    5.3842   -3.1190   -0.1307 H   0  0  0  0  0  0  0  0  0  0  0  0
    3.3354   -2.0599   -0.5409 H   0  0  0  0  0  0  0  0  0  0  0  0
    1.4638   -1.7902   -3.2593 H   0  0  0  0  0  0  0  0  0  0  0  0
    1.9139   -3.2783   -4.9070 H   0  0  0  0  0  0  0  0  0  0  0  0
    0.4913   -3.8636   -4.0092 H   0  0  0  0  0  0  0  0  0  0  0  0
    3.6216   -4.6033   -5.3934 H   0  0  0  0  0  0  0  0  0  0  0  0
    4.7220   -6.6999   -5.3725 H   0  0  0  0  0  0  0  0  0  0  0  0
    4.0245   -8.5456   -3.7514 H   0  0  0  0  0  0  0  0  0  0  0  0
    2.1712   -8.0978   -2.2108 H   0  0  0  0  0  0  0  0  0  0  0  0
    1.0694   -5.9302   -2.2694 H   0  0  0  0  0  0  0  0  0  0  0  0
    1.1582   -3.8971   -1.0704 H   0  0  0  0  0  0  0  0  0  0  0  0
   -0.8741   -3.3769    0.3815 H   0  0  0  0  0  0  0  0  0  0  0  0
   -2.8476   -3.2837   -1.9268 H   0  0  0  0  0  0  0  0  0  0  0  0
   -3.1237   -3.9404   -0.3256 H   0  0  0  0  0  0  0  0  0  0  0  0
   -1.7660   -6.3999    0.0967 H   0  0  0  0  0  0  0  0  0  0  0  0
   -1.2346   -8.2699   -1.5652 H   0  0  0  0  0  0  0  0  0  0  0  0
   -1.7267   -4.6800   -3.7514 H   0  0  0  0  0  0  0  0  0  0  0  0
   -2.2522   -0.8421   -0.5717 H   0  0  0  0  0  0  0  0  0  0  0  0
   -4.8022   -1.4079    1.1570 H   0  0  0  0  0  0  0  0  0  0  0  0
   -3.6285   -2.0704    3.8712 H   0  0  0  0  0  0  0  0  0  0  0  0
   -5.7761   -2.7861    5.1951 H   0  0  0  0  0  0  0  0  0  0  0  0
   -4.8627   -4.6409    3.8227 H   0  0  0  0  0  0  0  0  0  0  0  0
   -6.4201   -4.7319    2.8973 H   0  0  0  0  0  0  0  0  0  0  0  0
   -4.9119   -5.5832    6.2298 H   0  0  0  0  0  0  0  0  0  0  0  0
   -6.0804   -7.1513    7.8007 H   0  0  0  0  0  0  0  0  0  0  0  0
   -9.5380   -6.9473    5.3997 H   0  0  0  0  0  0  0  0  0  0  0  0
   -8.4006   -5.4192    3.8517 H   0  0  0  0  0  0  0  0  0  0  0  0
   -9.2423   -8.6368    7.2052 H   0  0  0  0  0  0  0  0  0  0  0  0
   -7.8113   -1.7973    3.9425 H   0  0  0  0  0  0  0  0  0  0  0  0
   -8.1902   -3.0839    5.0412 H   0  0  0  0  0  0  0  0  0  0  0  0
   -2.8889    0.6894    1.9837 H   0  0  0  0  0  0  0  0  0  0  0  0
   -4.3389    0.5415    2.9717 H   0  0  0  0  0  0  0  0  0  0  0  0
   -6.5440    2.8341   -1.1923 H   0  0  0  0  0  0  0  0  0  0  0  0
   -8.5009    1.1649   -2.3278 H   0  0  0  0  0  0  0  0  0  0  0  0
   -8.2632   -0.5051   -1.7280 H   0  0  0  0  0  0  0  0  0  0  0  0
   -4.3751    0.8836   -2.0703 H   0  0  0  0  0  0  0  0  0  0  0  0
   -4.5710    2.6531   -2.2516 H   0  0  0  0  0  0  0  0  0  0  0  0
   -6.2381    3.6280   -3.5688 H   0  0  0  0  0  0  0  0  0  0  0  0
   -7.5715    3.3158   -5.6217 H   0  0  0  0  0  0  0  0  0  0  0  0
   -7.1374   -0.9477   -5.3746 H   0  0  0  0  0  0  0  0  0  0  0  0
   -5.8266   -0.6818   -3.3682 H   0  0  0  0  0  0  0  0  0  0  0  0
   -9.1575    1.2857   -6.7389 H   0  0  0  0  0  0  0  0  0  0  0  0
   -6.1547    5.2861    0.4072 H   0  0  0  0  0  0  0  0  0  0  0  0
   -7.2039    3.9729    0.0608 H   0  0  0  0  0  0  0  0  0  0  0  0
   -5.8166    4.4782   -1.0994 H   0  0  0  0  0  0  0  0  0  0  0  0
   -3.0208    3.4148    0.4174 H   0  0  0  0  0  0  0  0  0  0  0  0
   -2.0920    6.8701    1.3705 H   0  0  0  0  0  0  0  0  0  0  0  0
   -1.2385    4.1020    1.2207 H   0  0  0  0  0  0  0  0  0  0  0  0
    1.2609    3.6587    1.7376 H   0  0  0  0  0  0  0  0  0  0  0  0
    2.3829    5.5685   -0.1888 H   0  0  0  0  0  0  0  0  0  0  0  0
    5.7827    4.8623    0.4922 H   0  0  0  0  0  0  0  0  0  0  0  0
    4.6831    2.2908   -0.6745 H   0  0  0  0  0  0  0  0  0  0  0  0
    7.8096    0.7176   -0.3231 H   0  0  0  0  0  0  0  0  0  0  0  0
    4.7986    0.3422   -0.2748 H   0  0  0  0  0  0  0  0  0  0  0  0
    7.2619   -0.5159    1.6867 H   0  0  0  0  0  0  0  0  0  0  0  0
    6.1200    0.7489    2.1629 H   0  0  0  0  0  0  0  0  0  0  0  0
    9.6130   -0.1746    1.4958 H   0  0  0  0  0  0  0  0  0  0  0  0
   11.5782    0.9346    2.4025 H   0  0  0  0  0  0  0  0  0  0  0  0
    7.1775    2.9206    3.1074 H   0  0  0  0  0  0  0  0  0  0  0  0
    8.1992    4.7748    4.3365 H   0  0  0  0  0  0  0  0  0  0  0  0
   10.2050    5.8442    5.1365 H   0  0  0  0  0  0  0  0  0  0  0  0
   12.4528    4.8436    4.7825 H   0  0  0  0  0  0  0  0  0  0  0  0
   12.6587    2.7560    3.6024 H   0  0  0  0  0  0  0  0  0  0  0  0
    5.5027    5.0232   -2.0893 H   0  0  0  0  0  0  0  0  0  0  0  0
    3.7658    4.6743   -1.8859 H   0  0  0  0  0  0  0  0  0  0  0  0
    2.8549    7.6959   -1.9010 H   0  0  0  0  0  0  0  0  0  0  0  0
    4.4298    7.5736   -2.8481 H   0  0  0  0  0  0  0  0  0  0  0  0
    2.4706    4.7174    3.4256 H   0  0  0  0  0  0  0  0  0  0  0  0
    0.9813    5.7915    3.3372 H   0  0  0  0  0  0  0  0  0  0  0  0
    2.4628    6.2710    2.4834 H   0  0  0  0  0  0  0  0  0  0  0  0
   -2.3181    5.7627   -1.3685 H   0  0  0  0  0  0  0  0  0  0  0  0
   -1.1218    7.0887   -0.8322 H   0  0  0  0  0  0  0  0  0  0  0  0
   -4.5257    6.2827   -1.6843 H   0  0  0  0  0  0  0  0  0  0  0  0
   -6.3439    7.9234   -1.8263 H   0  0  0  0  0  0  0  0  0  0  0  0
   -5.9599   10.2047   -1.0533 H   0  0  0  0  0  0  0  0  0  0  0  0
   -3.7273   10.8116   -0.1304 H   0  0  0  0  0  0  0  0  0  0  0  0
   -1.9041    9.1173    0.0141 H   0  0  0  0  0  0  0  0  0  0  0  0
   -4.9057    4.1309    4.1078 H   0  0  0  0  0  0  0  0  0  0  0  0
  1  2  1  0
  2  3  2  3
  2  4  1  0
  4  5  1  0
  5  6  1  0
  6  7  1  0
  7  8  1  0
  8  9  1  0
  9 10  1  0
 10 11  2  0
 10 12  1  0
 12 13  1  0
 13 14  1  0
 14 15  2  0
 15 16  1  0
 16 17  2  0
 17 18  1  0
 18 19  2  0
 12 20  1  0
 20 21  1  0
 21 22  2  0
 21 23  1  0
 23 24  1  0
 24 25  1  0
 25 26  1  0
 26 27  1  0
 27 28  2  0
 28 29  1  0
 23 30  1  0
 30 31  1  0
 31 32  2  0
 31 33  1  0
 33 34  1  0
 34 35  1  0
 35 36  2  0
 35 37  1  0
 37 38  1  0
 38 39  1  0
 39 40  2  0
 40 41  1  0
 41 42  2  0
 42 43  1  0
 43 44  2  0
 42 45  1  0
 37 46  1  0
 33 47  1  0
 47 48  1  0
 48 49  2  0
 48 50  1  0
 50 51  1  0
 51 52  1  0
 52 53  2  0
 52 54  1  0
 51 55  1  0
 55 56  1  0
 56 57  2  0
 57 58  1  0
 58 59  2  0
 59 60  1  0
 60 61  2  0
 59 62  1  0
 50 63  1  0
 63 64  1  0
 63 65  1  0
 65 66  1  0
 66 67  2  0
 66 68  1  0
 68 69  1  0
 69 70  1  0
 70 71  2  0
 70 72  1  0
 72 73  1  0
 73 74  1  0
 74 75  2  0
 74 76  1  0
 76 77  1  0
 77 78  1  0
 78 79  2  0
 78 80  1  0
 80 81  1  0
 81 82  1  0
 82 83  2  0
 80 84  1  0
 84 85  1  0
 85 86  2  0
 86 87  1  0
 87 88  2  0
 88 89  1  0
 89 90  2  0
 89 91  1  0
 91 92  2  0
 92 93  1  0
 93 94  2  0
 76 95  1  0
 95 96  1  0
 96 97  2  0
 96 98  1  0
 72 99  1  0
 68100  1  0
100101  1  0
101102  2  0
102103  1  0
103104  2  0
104105  1  0
105106  2  0
 63107  1  0
107108  2  0
107109  1  0
 82  8  1  0
 90 85  1  0
106101  1  0
 19 14  1  0
 29 25  2  0
 44 39  1  0
 61 56  1  0
 94 88  1  0
  1110  1  0
  1111  1  0
  3112  1  0
  4113  1  0
  5114  1  0
  5115  1  0
  6116  1  0
  6117  1  0
  7118  1  0
  7119  1  0
  8120  1  1
  9121  1  0
 12122  1  6
 13123  1  0
 13124  1  0
 15125  1  0
 16126  1  0
 17127  1  0
 18128  1  0
 19129  1  0
 20130  1  0
 23131  1  1
 24132  1  0
 24133  1  0
 26134  1  0
 27135  1  0
 29136  1  0
 30137  1  0
 33138  1  6
 34139  1  0
 37140  1  1
 38141  1  0
 38142  1  0
 40143  1  0
 41144  1  0
 43145  1  0
 44146  1  0
 45147  1  0
 46148  1  0
 46149  1  0
 47150  1  0
 47151  1  0
 51152  1  6
 54153  1  0
 54154  1  0
 55155  1  0
 55156  1  0
 57157  1  0
 58158  1  0
 60159  1  0
 61160  1  0
 62161  1  0
 64162  1  0
 64163  1  0
 64164  1  0
 65165  1  0
 68166  1  1
 69167  1  0
 72168  1  1
 73169  1  0
 76170  1  1
 77171  1  0
 80172  1  6
 81173  1  0
 84174  1  0
 84175  1  0
 86176  1  0
 87177  1  0
 90178  1  0
 91179  1  0
 92180  1  0
 93181  1  0
 94182  1  0
 95183  1  0
 95184  1  0
 98185  1  0
 98186  1  0
 99187  1  0
 99188  1  0
 99189  1  0
100190  1  0
100191  1  0
102192  1  0
103193  1  0
104194  1  0
105195  1  0
106196  1  0
109197  1  0
M  END
>  <Ligand ID>  (1) 
LIG0001160

>  <Ligand>  (1) 
CHEMBL2096718

>  <SMILES>  (1) 
NC(=N)NCCC[C@@H]1NC(=O)[C@@H](Cc2ccccc2)NC(=O)[C@H](Cc2[nH]cnc2)NC(=O)[C@@H](NC(=O)[C@H](Cc2ccc(cc2)O)N)CC(=O)N([C@H](C(=O)N)Cc2ccc(cc2)O)C(C)(NC(=O)[C@@H](NC(=O)[C@@H](NC(=O)[C@@H](NC(=O)[C@H](NC1=O)Cc1ccc2c(c1)cccc2)CC(=O)N)C)Cc1ccccc1)C(=O)O

>  <CID>  (1) 
91900699.0

>  <ChEMBL ID>  (1) 
nan

>  <InChiKey>  (1) 
VKIVIEKNSBJNLA-PIFUUTIXSA-N

>  <InChi>  (1) 
InChI=1S/C75H88N18O16/c1-41-64(99)86-56(33-43-14-7-4-8-15-43)72(107)92-75(2,73(108)109)93(60(63(78)98)35-45-22-27-51(95)28-23-45)62(97)38-59(87-65(100)52(76)31-44-20-25-50(94)26-21-44)71(106)90-57(36-49-39-81-40-83-49)70(105)89-54(32-42-12-5-3-6-13-42)68(103)85-53(18-11-29-82-74(79)80)66(101)88-55(69(104)91-58(37-61(77)96)67(102)84-41)34-46-19-24-47-16-9-10-17-48(47)30-46/h3-10,12-17,19-28,30,39-41,52-60,94-95H,11,18,29,31-38,76H2,1-2H3,(H2,77,96)(H2,78,98)(H,81,83)(H,84,102)(H,85,103)(H,86,99)(H,87,100)(H,88,101)(H,89,105)(H,90,106)(H,91,104)(H,92,107)(H,108,109)(H4,79,80,82)/t41-,52-,53-,54+,55+,56-,57-,58-,59-,60-,75?/m0/s1

>  <IUPAC Name>  (1) 
(5S,8S,11S,14R,17S,20R,23S,26S)-1-[(2S)-1-amino-3-(4-hydroxyphenyl)-1-oxopropan-2-yl]-26-[[(2S)-2-amino-3-(4-hydroxyphenyl)propanoyl]amino]-11-(2-amino-2-oxoethyl)-5,20-dibenzyl-17-(3-carbamimidamidopropyl)-23-(1H-imidazol-5-ylmethyl)-2,8-dimethyl-14-(naphthalen-2-ylmethyl)-4,7,10,13,16,19,22,25,28-nonaoxo-1,3,6,9,12,15,18,21,24-nonazacyclooctacosane-2-carboxylic acid

$$$$
