
     RDKit          3D

 51 53  0  0  0  0  0  0  0  0999 V2000
    7.7021   -0.8623   -0.8946 C   0  0  0  0  0  0  0  0  0  0  0  0
    7.0180    0.3954   -0.4096 C   0  0  0  0  0  0  0  0  0  0  0  0
    5.6125    0.2815   -0.3588 O   0  0  0  0  0  0  0  0  0  0  0  0
    4.9489   -0.6640    0.4256 C   0  0  0  0  0  0  0  0  0  0  0  0
    5.6309   -1.4666    1.1324 O   0  0  0  0  0  0  0  0  0  0  0  0
    3.4747   -0.6976    0.4068 C   0  0  0  0  0  0  0  0  0  0  0  0
    2.8878   -0.9579   -0.9611 C   0  0  0  0  0  0  0  0  0  0  0  0
    1.7776    0.0198   -1.2923 C   0  0  0  0  0  0  0  0  0  0  0  0
    0.8224    0.1578   -0.2007 N   0  0  0  0  0  0  0  0  0  0  0  0
    1.3884    0.3970    1.1211 C   0  0  0  0  0  0  0  0  0  0  0  0
    2.8696    0.5363    1.0485 C   0  0  0  0  0  0  0  0  0  0  0  0
   -0.5782    0.0640   -0.4155 C   0  0  0  0  0  0  0  0  0  0  0  0
   -0.9831   -0.1396   -1.5674 O   0  0  0  0  0  0  0  0  0  0  0  0
   -1.4621    0.2177    0.7623 C   0  0  0  0  0  0  0  0  0  0  0  0
   -2.8908    0.1135    0.4541 C   0  0  0  0  0  0  0  0  0  0  0  0
   -3.6548   -0.9962    0.1860 C   0  0  0  0  0  0  0  0  0  0  0  0
   -3.1467   -2.3671    0.1535 C   0  0  0  0  0  0  0  0  0  0  0  0
   -1.9291   -2.5534    0.3851 O   0  0  0  0  0  0  0  0  0  0  0  0
   -3.9940   -3.4338   -0.1267 O   0  0  0  0  0  0  0  0  0  0  0  0
   -4.9304   -0.5910   -0.0372 N   0  0  0  0  0  0  0  0  0  0  0  0
   -5.0071    0.7532    0.0803 C   0  0  0  0  0  0  0  0  0  0  0  0
   -3.7417    1.2089    0.3871 C   0  0  0  0  0  0  0  0  0  0  0  0
   -3.4998    2.5745    0.5720 C   0  0  0  0  0  0  0  0  0  0  0  0
   -4.5398    3.4969    0.4482 C   0  0  0  0  0  0  0  0  0  0  0  0
   -5.8020    3.0373    0.1417 C   0  0  0  0  0  0  0  0  0  0  0  0
   -6.0336    1.6835   -0.0400 C   0  0  0  0  0  0  0  0  0  0  0  0
   -6.0482   -1.4776   -0.3554 C   0  0  0  0  0  0  0  0  0  0  0  0
    7.5743   -1.6987   -0.1659 H   0  0  0  0  0  0  0  0  0  0  0  0
    7.4509   -1.1366   -1.9210 H   0  0  0  0  0  0  0  0  0  0  0  0
    8.7909   -0.6408   -0.8824 H   0  0  0  0  0  0  0  0  0  0  0  0
    7.4755    0.6836    0.5394 H   0  0  0  0  0  0  0  0  0  0  0  0
    7.2451    1.1967   -1.1478 H   0  0  0  0  0  0  0  0  0  0  0  0
    3.1502   -1.5504    1.0521 H   0  0  0  0  0  0  0  0  0  0  0  0
    2.4445   -1.9788   -1.0519 H   0  0  0  0  0  0  0  0  0  0  0  0
    3.6367   -0.8659   -1.7625 H   0  0  0  0  0  0  0  0  0  0  0  0
    1.2236   -0.4176   -2.1485 H   0  0  0  0  0  0  0  0  0  0  0  0
    2.1594    1.0039   -1.6489 H   0  0  0  0  0  0  0  0  0  0  0  0
    1.0426   -0.3619    1.8496 H   0  0  0  0  0  0  0  0  0  0  0  0
    0.9603    1.3783    1.4630 H   0  0  0  0  0  0  0  0  0  0  0  0
    3.1074    1.4440    0.4774 H   0  0  0  0  0  0  0  0  0  0  0  0
    3.2852    0.5593    2.0845 H   0  0  0  0  0  0  0  0  0  0  0  0
   -1.1773   -0.6189    1.4631 H   0  0  0  0  0  0  0  0  0  0  0  0
   -1.2077    1.1374    1.3337 H   0  0  0  0  0  0  0  0  0  0  0  0
   -3.5868   -4.2904   -0.5175 H   0  0  0  0  0  0  0  0  0  0  0  0
   -2.5046    2.9271    0.8124 H   0  0  0  0  0  0  0  0  0  0  0  0
   -4.3437    4.5410    0.5933 H   0  0  0  0  0  0  0  0  0  0  0  0
   -6.6533    3.6969    0.0332 H   0  0  0  0  0  0  0  0  0  0  0  0
   -7.0448    1.3383   -0.2829 H   0  0  0  0  0  0  0  0  0  0  0  0
   -7.0002   -0.9023   -0.2262 H   0  0  0  0  0  0  0  0  0  0  0  0
   -6.0240   -2.3643    0.3198 H   0  0  0  0  0  0  0  0  0  0  0  0
   -5.8958   -1.8100   -1.4006 H   0  0  0  0  0  0  0  0  0  0  0  0
  1  2  1  0
  2  3  1  0
  3  4  1  0
  4  5  2  0
  4  6  1  0
  6  7  1  0
  7  8  1  0
  8  9  1  0
  9 10  1  0
 10 11  1  0
  9 12  1  0
 12 13  2  0
 12 14  1  0
 14 15  1  0
 15 16  2  0
 16 17  1  0
 17 18  2  0
 17 19  1  0
 16 20  1  0
 20 21  1  0
 21 22  2  0
 22 23  1  0
 23 24  2  0
 24 25  1  0
 25 26  2  0
 20 27  1  0
 11  6  1  0
 22 15  1  0
 26 21  1  0
  1 28  1  0
  1 29  1  0
  1 30  1  0
  2 31  1  0
  2 32  1  0
  6 33  1  0
  7 34  1  0
  7 35  1  0
  8 36  1  0
  8 37  1  0
 10 38  1  0
 10 39  1  0
 11 40  1  0
 11 41  1  0
 14 42  1  0
 14 43  1  0
 19 44  1  0
 23 45  1  0
 24 46  1  0
 25 47  1  0
 26 48  1  0
 27 49  1  0
 27 50  1  0
 27 51  1  0
M  END
>  <Ligand ID>  (1) 
LIG0004452

>  <Ligand>  (1) 
SMR000021788

>  <SMILES>  (1) 
CCOC(=O)C1CCN(CC1)C(=O)Cc1c(C(=O)O)n(c2c1cccc2)C

>  <CID>  (1) 
3241730.0

>  <ChEMBL ID>  (1) 
nan

>  <InChiKey>  (1) 
VFRMGHBYSYWSGN-UHFFFAOYSA-N

>  <InChi>  (1) 
InChI=1S/C20H24N2O5/c1-3-27-20(26)13-8-10-22(11-9-13)17(23)12-15-14-6-4-5-7-16(14)21(2)18(15)19(24)25/h4-7,13H,3,8-12H2,1-2H3,(H,24,25)

>  <IUPAC Name>  (1) 
3-[2-(4-ethoxycarbonylpiperidin-1-yl)-2-oxoethyl]-1-methylindole-2-carboxylic acid

$$$$
