
     RDKit          3D

 42 42  0  0  0  0  0  0  0  0999 V2000
    7.2223    0.1235    2.3141 O   0  0  0  0  0  0  0  0  0  0  0  0
    6.8008    1.2179    1.5945 C   0  0  0  0  0  0  0  0  0  0  0  0
    5.6404    0.8375    0.6987 C   0  0  0  0  0  0  0  0  0  0  0  0
    4.5406    0.3571    1.4216 O   0  0  0  0  0  0  0  0  0  0  0  0
    3.3578   -0.0544    0.8208 C   0  0  0  0  0  0  0  0  0  0  0  0
    3.1552   -0.0288   -0.5430 C   0  0  0  0  0  0  0  0  0  0  0  0
    1.9335   -0.4626   -1.0493 C   0  0  0  0  0  0  0  0  0  0  0  0
    0.9207   -0.9181   -0.2112 C   0  0  0  0  0  0  0  0  0  0  0  0
    1.1706   -0.9256    1.1554 C   0  0  0  0  0  0  0  0  0  0  0  0
    2.3644   -0.5052    1.6947 C   0  0  0  0  0  0  0  0  0  0  0  0
   -0.3909   -1.3845   -0.7450 C   0  0  0  0  0  0  0  0  0  0  0  0
   -1.3768    0.0971   -1.0719 P   0  0  0  0  0  0  0  0  0  0  0  0
   -1.2100    0.9981    0.1423 O   0  0  0  0  0  0  0  0  0  0  0  0
   -3.1193   -0.3001   -1.3545 C   0  0  0  0  0  0  0  0  0  0  0  0
   -3.8931    0.1605   -0.1311 C   0  0  0  0  0  0  0  0  0  0  0  0
   -5.3572   -0.1409   -0.3001 C   0  0  1  0  0  0  0  0  0  0  0  0
   -6.0646    0.3264    0.9163 C   0  0  0  0  0  0  0  0  0  0  0  0
   -6.9771    1.2098    0.8750 O   0  0  0  0  0  0  0  0  0  0  0  0
   -5.6984   -0.2368    2.1307 O   0  0  0  0  0  0  0  0  0  0  0  0
   -5.8213    0.5127   -1.4925 N   0  0  0  0  0  0  0  0  0  0  0  0
   -0.7245    0.9256   -2.3977 O   0  0  0  0  0  0  0  0  0  0  0  0
   -0.2643   -2.2178   -1.8388 O   0  0  0  0  0  0  0  0  0  0  0  0
    7.1442   -0.6977    1.7882 H   0  0  0  0  0  0  0  0  0  0  0  0
    6.4785    2.0440    2.2547 H   0  0  0  0  0  0  0  0  0  0  0  0
    7.6297    1.5235    0.9174 H   0  0  0  0  0  0  0  0  0  0  0  0
    5.3121    1.6701    0.0674 H   0  0  0  0  0  0  0  0  0  0  0  0
    5.9720    0.0012    0.0220 H   0  0  0  0  0  0  0  0  0  0  0  0
    3.9563    0.3283   -1.1655 H   0  0  0  0  0  0  0  0  0  0  0  0
    1.7728   -0.4427   -2.1259 H   0  0  0  0  0  0  0  0  0  0  0  0
    0.4068   -1.2748    1.8619 H   0  0  0  0  0  0  0  0  0  0  0  0
    2.5309   -0.5232    2.7757 H   0  0  0  0  0  0  0  0  0  0  0  0
   -0.8755   -1.9807    0.0544 H   0  0  0  0  0  0  0  0  0  0  0  0
   -3.2937   -1.3492   -1.5894 H   0  0  0  0  0  0  0  0  0  0  0  0
   -3.4659    0.3277   -2.2141 H   0  0  0  0  0  0  0  0  0  0  0  0
   -3.6917    1.2287    0.0364 H   0  0  0  0  0  0  0  0  0  0  0  0
   -3.5125   -0.3861    0.7539 H   0  0  0  0  0  0  0  0  0  0  0  0
   -5.4480   -1.2503   -0.3723 H   0  0  0  0  0  0  0  0  0  0  0  0
   -6.0125    0.1281    3.0240 H   0  0  0  0  0  0  0  0  0  0  0  0
   -5.6278   -0.1563   -2.2878 H   0  0  0  0  0  0  0  0  0  0  0  0
   -5.2269    1.3574   -1.6483 H   0  0  0  0  0  0  0  0  0  0  0  0
   -0.3982    1.8414   -2.1531 H   0  0  0  0  0  0  0  0  0  0  0  0
    0.1406   -1.7882   -2.6288 H   0  0  0  0  0  0  0  0  0  0  0  0
  1  2  1  0
  2  3  1  0
  3  4  1  0
  4  5  1  0
  5  6  2  0
  6  7  1  0
  7  8  2  0
  8  9  1  0
  9 10  2  0
  8 11  1  0
 11 12  1  0
 12 13  2  0
 12 14  1  0
 14 15  1  0
 15 16  1  0
 16 17  1  0
 17 18  2  0
 17 19  1  0
 16 20  1  0
 12 21  1  0
 11 22  1  0
 10  5  1  0
  1 23  1  0
  2 24  1  0
  2 25  1  0
  3 26  1  0
  3 27  1  0
  6 28  1  0
  7 29  1  0
  9 30  1  0
 10 31  1  0
 11 32  1  0
 14 33  1  0
 14 34  1  0
 15 35  1  0
 15 36  1  0
 16 37  1  6
 19 38  1  0
 20 39  1  0
 20 40  1  0
 21 41  1  0
 22 42  1  0
M  END
>  <Ligand ID>  (1) 
LIG0002535

>  <Ligand>  (1) 
CHEMBL3896964

>  <SMILES>  (1) 
OCCOc1ccc(cc1)C(P(=O)(CC[C@@H](C(=O)O)N)O)O

>  <CID>  (1) 
71014559.0

>  <ChEMBL ID>  (1) 
nan

>  <InChiKey>  (1) 
SZLONTKCSWELSJ-AMGKYWFPSA-N

>  <InChi>  (1) 
InChI=1S/C13H20NO7P/c14-11(12(16)17)5-8-22(19,20)13(18)9-1-3-10(4-2-9)21-7-6-15/h1-4,11,13,15,18H,5-8,14H2,(H,16,17)(H,19,20)/t11-,13?/m0/s1

>  <IUPAC Name>  (1) 
(2S)-2-amino-4-[hydroxy-[hydroxy-[4-(2-hydroxyethoxy)phenyl]methyl]phosphoryl]butanoic acid

$$$$
