
     RDKit          3D

 22 21  0  0  0  0  0  0  0  0999 V2000
    0.7281    2.4511   -0.1944 C   0  0  0  0  0  0  0  0  0  0  0  0
   -0.3463    1.3779   -0.2538 C   0  0  0  0  0  0  0  0  0  0  0  0
    0.1975    0.0661   -0.4542 N   0  0  0  0  0  0  0  0  0  0  0  0
    0.9027   -0.3854    0.6830 C   0  0  0  0  0  0  0  0  0  0  0  0
    1.6376   -1.7274    0.4437 C   0  0  0  0  0  0  0  0  0  0  0  0
   -0.8514   -0.7735   -0.9414 C   0  0  0  0  0  0  0  0  0  0  0  0
   -1.9472   -1.0028    0.1109 C   0  0  0  0  0  0  0  0  0  0  0  0
    0.1757    3.4103   -0.0363 H   0  0  0  0  0  0  0  0  0  0  0  0
    1.4126    2.3636    0.6461 H   0  0  0  0  0  0  0  0  0  0  0  0
    1.2046    2.4747   -1.1808 H   0  0  0  0  0  0  0  0  0  0  0  0
   -1.0544    1.4246    0.5995 H   0  0  0  0  0  0  0  0  0  0  0  0
   -0.9577    1.6114   -1.1773 H   0  0  0  0  0  0  0  0  0  0  0  0
    1.6982    0.3372    0.9288 H   0  0  0  0  0  0  0  0  0  0  0  0
    0.2954   -0.5106    1.6169 H   0  0  0  0  0  0  0  0  0  0  0  0
    2.3289   -1.8153    1.3087 H   0  0  0  0  0  0  0  0  0  0  0  0
    0.9501   -2.5651    0.4391 H   0  0  0  0  0  0  0  0  0  0  0  0
    2.2757   -1.6065   -0.4552 H   0  0  0  0  0  0  0  0  0  0  0  0
   -0.5196   -1.7596   -1.3077 H   0  0  0  0  0  0  0  0  0  0  0  0
   -1.3537   -0.2400   -1.7872 H   0  0  0  0  0  0  0  0  0  0  0  0
   -2.5886   -1.8210   -0.2403 H   0  0  0  0  0  0  0  0  0  0  0  0
   -2.6390   -0.1024    0.1393 H   0  0  0  0  0  0  0  0  0  0  0  0
   -1.5491   -1.2072    1.1127 H   0  0  0  0  0  0  0  0  0  0  0  0
  1  2  1  0
  2  3  1  0
  3  4  1  0
  4  5  1  0
  3  6  1  0
  6  7  1  0
  1  8  1  0
  1  9  1  0
  1 10  1  0
  2 11  1  0
  2 12  1  0
  4 13  1  0
  4 14  1  0
  5 15  1  0
  5 16  1  0
  5 17  1  0
  6 18  1  0
  6 19  1  0
  7 20  1  0
  7 21  1  0
  7 22  1  0
M  END
>  <Ligand ID>  (1) 
LIG0000175

>  <Ligand>  (1) 
Triethylamine

>  <SMILES>  (1) 
CCN(CC)CC

>  <CID>  (1) 
8471.0

>  <ChEMBL ID>  (1) 
nan

>  <InChiKey>  (1) 
ZMANZCXQSJIPKH-UHFFFAOYSA-N

>  <InChi>  (1) 
InChI=1S/C6H15N/c1-4-7(5-2)6-3/h4-6H2,1-3H3

>  <IUPAC Name>  (1) 
N,N-diethylethanamine

$$$$
