
     RDKit          3D

 57 60  0  0  0  0  0  0  0  0999 V2000
   -2.5323    5.4863    0.3746 C   0  0  0  0  0  0  0  0  0  0  0  0
   -3.0616    4.5936   -0.5824 O   0  0  0  0  0  0  0  0  0  0  0  0
   -2.6499    3.2491   -0.4953 C   0  0  0  0  0  0  0  0  0  0  0  0
   -1.7721    2.8918    0.5001 C   0  0  0  0  0  0  0  0  0  0  0  0
   -1.3883    1.5728    0.5597 C   0  0  0  0  0  0  0  0  0  0  0  0
   -1.8601    0.6160   -0.3465 C   0  0  0  0  0  0  0  0  0  0  0  0
   -2.7390    1.0519   -1.3180 C   0  0  0  0  0  0  0  0  0  0  0  0
   -3.1577    2.3645   -1.4238 C   0  0  0  0  0  0  0  0  0  0  0  0
   -1.4138   -0.7603   -0.2307 C   0  0  0  0  0  0  0  0  0  0  0  0
   -0.2603   -1.1045   -0.9426 C   0  0  0  0  0  0  0  0  0  0  0  0
    0.4122   -0.0926   -1.7444 C   0  0  0  0  0  0  0  0  0  0  0  0
    0.9435    0.7204   -2.4083 N   0  0  0  0  0  0  0  0  0  0  0  0
    0.2357   -2.3930   -0.8888 C   0  0  0  0  0  0  0  0  0  0  0  0
    1.7066   -2.7459   -1.8183 S   0  0  0  0  0  0  0  0  0  0  0  0
    3.1617   -2.4475   -0.7873 C   0  0  0  0  0  0  0  0  0  0  0  0
    3.2829   -1.0110   -0.4434 C   0  0  0  0  0  0  0  0  0  0  0  0
    2.6542   -0.6140    0.7412 C   0  0  0  0  0  0  0  0  0  0  0  0
    2.7233    0.7081    1.1252 C   0  0  0  0  0  0  0  0  0  0  0  0
    3.3906    1.5482    0.3425 N   0  0  0  0  0  0  0  0  0  0  0  0
    4.0099    1.2138   -0.8029 C   0  0  0  0  0  0  0  0  0  0  0  0
    3.9701   -0.0992   -1.2316 C   0  0  0  0  0  0  0  0  0  0  0  0
    4.7098    2.2325   -1.5696 C   0  0  0  0  0  0  0  0  0  0  0  0
    5.3144    2.0097   -2.6493 O   0  0  0  0  0  0  0  0  0  0  0  0
    4.7324    3.5845   -1.0948 N   0  0  0  0  0  0  0  0  0  0  0  0
    5.4140    4.6484   -1.8145 C   0  0  0  0  0  0  0  0  0  0  0  0
   -0.4136   -3.3054   -0.1393 N   0  0  0  0  0  0  0  0  0  0  0  0
   -1.5328   -2.9951    0.5587 C   0  0  0  0  0  0  0  0  0  0  0  0
   -2.0537   -1.7175    0.5261 C   0  0  0  0  0  0  0  0  0  0  0  0
   -3.2268   -1.3357    1.2391 C   0  0  0  0  0  0  0  0  0  0  0  0
   -4.1813   -1.0234    1.8394 N   0  0  0  0  0  0  0  0  0  0  0  0
   -2.2278   -3.9481    1.3517 N   0  0  0  0  0  0  0  0  0  0  0  0
   -2.6038   -4.0881    2.7674 C   0  0  0  0  0  0  0  0  0  0  0  0
   -3.8760   -4.7642    2.2367 C   0  0  0  0  0  0  0  0  0  0  0  0
   -2.9014   -5.2405    1.1494 C   0  0  0  0  0  0  0  0  0  0  0  0
   -4.3663   -5.7536    3.0522 O   0  0  0  0  0  0  0  0  0  0  0  0
   -2.8526    6.5253    0.1832 H   0  0  0  0  0  0  0  0  0  0  0  0
   -2.8646    5.1121    1.3662 H   0  0  0  0  0  0  0  0  0  0  0  0
   -1.4132    5.4751    0.4040 H   0  0  0  0  0  0  0  0  0  0  0  0
   -1.3747    3.5852    1.2265 H   0  0  0  0  0  0  0  0  0  0  0  0
   -0.7006    1.2391    1.3221 H   0  0  0  0  0  0  0  0  0  0  0  0
   -3.1008    0.3038   -2.0176 H   0  0  0  0  0  0  0  0  0  0  0  0
   -3.8513    2.6527   -2.2088 H   0  0  0  0  0  0  0  0  0  0  0  0
    3.1219   -3.0482    0.1443 H   0  0  0  0  0  0  0  0  0  0  0  0
    4.0632   -2.7524   -1.3578 H   0  0  0  0  0  0  0  0  0  0  0  0
    2.1198   -1.3069    1.3604 H   0  0  0  0  0  0  0  0  0  0  0  0
    2.2442    1.0419    2.0395 H   0  0  0  0  0  0  0  0  0  0  0  0
    4.4437   -0.4260   -2.1342 H   0  0  0  0  0  0  0  0  0  0  0  0
    4.2370    3.8295   -0.1861 H   0  0  0  0  0  0  0  0  0  0  0  0
    4.8825    5.6133   -1.5678 H   0  0  0  0  0  0  0  0  0  0  0  0
    6.4659    4.7572   -1.5570 H   0  0  0  0  0  0  0  0  0  0  0  0
    5.2749    4.4026   -2.8932 H   0  0  0  0  0  0  0  0  0  0  0  0
   -2.7686   -3.1410    3.3049 H   0  0  0  0  0  0  0  0  0  0  0  0
   -1.9143   -4.8249    3.2151 H   0  0  0  0  0  0  0  0  0  0  0  0
   -4.6039   -4.0312    1.8591 H   0  0  0  0  0  0  0  0  0  0  0  0
   -3.3355   -5.3959    0.1644 H   0  0  0  0  0  0  0  0  0  0  0  0
   -2.2636   -6.0178    1.5869 H   0  0  0  0  0  0  0  0  0  0  0  0
   -4.2522   -6.6453    2.6828 H   0  0  0  0  0  0  0  0  0  0  0  0
  1  2  1  0
  2  3  1  0
  3  4  2  0
  4  5  1  0
  5  6  2  0
  6  7  1  0
  7  8  2  0
  6  9  1  0
  9 10  2  0
 10 11  1  0
 11 12  3  0
 10 13  1  0
 13 14  1  0
 14 15  1  0
 15 16  1  0
 16 17  2  0
 17 18  1  0
 18 19  2  0
 19 20  1  0
 20 21  2  0
 20 22  1  0
 22 23  2  0
 22 24  1  0
 24 25  1  0
 13 26  2  0
 26 27  1  0
 27 28  2  0
 28 29  1  0
 29 30  3  0
 27 31  1  0
 31 32  1  0
 32 33  1  0
 33 34  1  0
 33 35  1  0
  8  3  1  0
 28  9  1  0
 34 31  1  0
 21 16  1  0
  1 36  1  0
  1 37  1  0
  1 38  1  0
  4 39  1  0
  5 40  1  0
  7 41  1  0
  8 42  1  0
 15 43  1  0
 15 44  1  0
 17 45  1  0
 18 46  1  0
 21 47  1  0
 24 48  1  0
 25 49  1  0
 25 50  1  0
 25 51  1  0
 32 52  1  0
 32 53  1  0
 33 54  1  0
 34 55  1  0
 34 56  1  0
 35 57  1  0
M  END
>  <Ligand ID>  (1) 
LIG0004669

>  <Ligand>  (1) 
SCHEMBL3365998

>  <SMILES>  (1) 
COc1ccc(cc1)c1c(C#N)c(SCc2ccnc(c2)C(=O)NC)nc(c1C#N)N1CC(C1)O

>  <CID>  (1) 
68614769.0

>  <ChEMBL ID>  (1) 
nan

>  <InChiKey>  (1) 
KOXCLHXGKIISLS-UHFFFAOYSA-N

>  <InChi>  (1) 
InChI=1S/C25H22N6O3S/c1-28-24(33)21-9-15(7-8-29-21)14-35-25-20(11-27)22(16-3-5-18(34-2)6-4-16)19(10-26)23(30-25)31-12-17(32)13-31/h3-9,17,32H,12-14H2,1-2H3,(H,28,33)

>  <IUPAC Name>  (1) 
4-[[3,5-dicyano-6-(3-hydroxyazetidin-1-yl)-4-(4-methoxyphenyl)pyridin-2-yl]sulfanylmethyl]-N-methylpyridine-2-carboxamide

$$$$
