
     RDKit          3D

 75 80  0  0  0  0  0  0  0  0999 V2000
   -8.3752   -3.3766    1.1529 C   0  0  0  0  0  0  0  0  0  0  0  0
   -7.8577   -2.1249    0.7859 O   0  0  0  0  0  0  0  0  0  0  0  0
   -6.5075   -1.8777    0.5798 C   0  0  0  0  0  0  0  0  0  0  0  0
   -6.0617   -0.6054    0.2211 C   0  0  0  0  0  0  0  0  0  0  0  0
   -4.6934   -0.3773    0.0170 C   0  0  0  0  0  0  0  0  0  0  0  0
   -3.8014   -1.4052    0.1715 C   0  0  0  0  0  0  0  0  0  0  0  0
   -4.2690   -2.6775    0.5323 C   0  0  0  0  0  0  0  0  0  0  0  0
   -5.6103   -2.9259    0.7382 C   0  0  0  0  0  0  0  0  0  0  0  0
   -2.3615   -1.2871    0.0188 C   0  0  0  0  0  0  0  0  0  0  0  0
   -1.5850   -0.3972    0.5680 C   0  0  0  0  0  0  0  0  0  0  0  0
   -2.0001    0.6993    1.4769 C   0  0  0  0  0  0  0  0  0  0  0  0
   -1.3833    1.8988    0.9206 N   0  0  0  0  0  0  0  0  0  0  0  0
    0.0635    1.9820    0.8828 C   0  0  0  0  0  0  0  0  0  0  0  0
    0.6046    0.6971    0.4493 C   0  0  0  0  0  0  0  0  0  0  0  0
   -0.1323   -0.4621    0.2848 C   0  0  0  0  0  0  0  0  0  0  0  0
    0.6612   -1.4675   -0.1196 N   0  0  0  0  0  0  0  0  0  0  0  0
    1.8879   -0.9803   -0.2188 N   0  0  0  0  0  0  0  0  0  0  0  0
    1.8988    0.3429    0.1212 C   0  0  0  0  0  0  0  0  0  0  0  0
    3.1024    1.1782    0.1322 C   0  0  0  0  0  0  0  0  0  0  0  0
    2.9632    2.3757    0.5545 O   0  0  0  0  0  0  0  0  0  0  0  0
    4.3399    0.6601   -0.3070 N   0  0  0  0  0  0  0  0  0  0  0  0
    5.5754    1.4191   -0.3200 C   0  0  1  0  0  0  0  0  0  0  0  0
    6.6476    0.5651    0.2453 C   0  0  0  0  0  0  0  0  0  0  0  0
    6.7883   -0.7292   -0.2326 C   0  0  0  0  0  0  0  0  0  0  0  0
    7.7707   -1.5898    0.2530 C   0  0  0  0  0  0  0  0  0  0  0  0
    8.6315   -1.1572    1.2329 C   0  0  0  0  0  0  0  0  0  0  0  0
    8.5024    0.1300    1.7178 C   0  0  0  0  0  0  0  0  0  0  0  0
    7.5170    0.9895    1.2294 C   0  0  0  0  0  0  0  0  0  0  0  0
    6.0109    1.6975   -1.7696 C   0  0  0  0  0  0  0  0  0  0  0  0
    0.3499   -2.8234   -0.4009 C   0  0  0  0  0  0  0  0  0  0  0  0
   -0.0159   -3.7098    0.6216 C   0  0  0  0  0  0  0  0  0  0  0  0
   -0.3086   -5.0157    0.3704 C   0  0  0  0  0  0  0  0  0  0  0  0
   -0.2438   -5.4824   -0.9293 C   0  0  0  0  0  0  0  0  0  0  0  0
    0.1156   -4.6338   -1.9684 C   0  0  0  0  0  0  0  0  0  0  0  0
    0.4143   -3.3038   -1.7160 C   0  0  0  0  0  0  0  0  0  0  0  0
    0.8681   -2.2376   -3.0224 Cl  0  0  0  0  0  0  0  0  0  0  0  0
   -0.6296   -7.1635   -1.1995 Cl  0  0  0  0  0  0  0  0  0  0  0  0
   -2.1335    2.9950    0.4203 C   0  0  0  0  0  0  0  0  0  0  0  0
   -3.3940    3.0368    0.4250 O   0  0  0  0  0  0  0  0  0  0  0  0
   -1.4453    4.1875   -0.1535 C   0  0  0  0  0  0  0  0  0  0  0  0
   -2.4536    5.1255   -0.6058 N   0  0  0  0  0  0  0  0  0  0  0  0
   -2.9974    6.1124    0.1390 C   0  0  0  0  0  0  0  0  0  0  0  0
   -3.9265    6.8004   -0.6401 C   0  0  0  0  0  0  0  0  0  0  0  0
   -3.9081    6.1915   -1.8474 N   0  0  0  0  0  0  0  0  0  0  0  0
   -3.0341    5.1900   -1.8422 C   0  0  0  0  0  0  0  0  0  0  0  0
   -8.1110   -3.6650    2.1879 H   0  0  0  0  0  0  0  0  0  0  0  0
   -7.8856   -4.1366    0.5106 H   0  0  0  0  0  0  0  0  0  0  0  0
   -9.4627   -3.4150    0.9606 H   0  0  0  0  0  0  0  0  0  0  0  0
   -6.7517    0.2030    0.0986 H   0  0  0  0  0  0  0  0  0  0  0  0
   -4.3473    0.5989   -0.2761 H   0  0  0  0  0  0  0  0  0  0  0  0
   -3.5773   -3.4998    0.6578 H   0  0  0  0  0  0  0  0  0  0  0  0
   -5.9141   -3.9269    1.0158 H   0  0  0  0  0  0  0  0  0  0  0  0
   -1.9217   -2.0451   -0.6571 H   0  0  0  0  0  0  0  0  0  0  0  0
   -1.4525    0.4637    2.4512 H   0  0  0  0  0  0  0  0  0  0  0  0
   -3.0650    0.7817    1.6647 H   0  0  0  0  0  0  0  0  0  0  0  0
    0.4077    2.1291    1.9428 H   0  0  0  0  0  0  0  0  0  0  0  0
    0.4250    2.8498    0.3137 H   0  0  0  0  0  0  0  0  0  0  0  0
    4.3463   -0.3300   -0.6367 H   0  0  0  0  0  0  0  0  0  0  0  0
    5.5057    2.3958    0.1507 H   0  0  0  0  0  0  0  0  0  0  0  0
    6.1545   -1.1480   -1.0040 H   0  0  0  0  0  0  0  0  0  0  0  0
    7.8620   -2.5929   -0.1333 H   0  0  0  0  0  0  0  0  0  0  0  0
    9.3951   -1.8526    1.5974 H   0  0  0  0  0  0  0  0  0  0  0  0
    9.1890    0.4444    2.4854 H   0  0  0  0  0  0  0  0  0  0  0  0
    7.4077    1.9824    1.5956 H   0  0  0  0  0  0  0  0  0  0  0  0
    7.0644    1.4268   -1.9439 H   0  0  0  0  0  0  0  0  0  0  0  0
    5.3897    1.0960   -2.4634 H   0  0  0  0  0  0  0  0  0  0  0  0
    5.8996    2.7686   -2.0297 H   0  0  0  0  0  0  0  0  0  0  0  0
   -0.0476   -3.2777    1.6246 H   0  0  0  0  0  0  0  0  0  0  0  0
   -0.5828   -5.6539    1.1833 H   0  0  0  0  0  0  0  0  0  0  0  0
    0.1544   -5.0404   -2.9710 H   0  0  0  0  0  0  0  0  0  0  0  0
   -0.7417    4.6431    0.5587 H   0  0  0  0  0  0  0  0  0  0  0  0
   -0.8377    3.8142   -1.0163 H   0  0  0  0  0  0  0  0  0  0  0  0
   -2.7646    6.3527    1.1829 H   0  0  0  0  0  0  0  0  0  0  0  0
   -4.5188    7.6424   -0.3064 H   0  0  0  0  0  0  0  0  0  0  0  0
   -2.8039    4.5275   -2.6595 H   0  0  0  0  0  0  0  0  0  0  0  0
  1  2  1  0
  2  3  1  0
  3  4  2  0
  4  5  1  0
  5  6  2  0
  6  7  1  0
  7  8  2  0
  6  9  1  0
  9 10  2  0
 10 11  1  0
 11 12  1  0
 12 13  1  0
 13 14  1  0
 14 15  2  0
 15 16  1  0
 16 17  1  0
 17 18  2  0
 18 19  1  0
 19 20  2  0
 19 21  1  0
 21 22  1  0
 22 23  1  0
 23 24  2  0
 24 25  1  0
 25 26  2  0
 26 27  1  0
 27 28  2  0
 22 29  1  0
 16 30  1  0
 30 31  2  0
 31 32  1  0
 32 33  2  0
 33 34  1  0
 34 35  2  0
 35 36  1  0
 33 37  1  0
 12 38  1  0
 38 39  2  0
 38 40  1  0
 40 41  1  0
 41 42  1  0
 42 43  2  0
 43 44  1  0
 44 45  2  0
  8  3  1  0
 15 10  1  0
 28 23  1  0
 35 30  1  0
 45 41  1  0
 18 14  1  0
  1 46  1  0
  1 47  1  0
  1 48  1  0
  4 49  1  0
  5 50  1  0
  7 51  1  0
  8 52  1  0
  9 53  1  0
 11 54  1  0
 11 55  1  0
 13 56  1  0
 13 57  1  0
 21 58  1  0
 22 59  1  1
 24 60  1  0
 25 61  1  0
 26 62  1  0
 27 63  1  0
 28 64  1  0
 29 65  1  0
 29 66  1  0
 29 67  1  0
 31 68  1  0
 32 69  1  0
 34 70  1  0
 40 71  1  0
 40 72  1  0
 42 73  1  0
 43 74  1  0
 45 75  1  0
M  END
>  <Ligand ID>  (1) 
LIG0005413

>  <Ligand>  (1) 
CHEMBL3893586

>  <SMILES>  (1) 
COc1ccc(cc1)/C=C/1\CN(Cc2c1n(nc2C(=O)N[C@@H](c1ccccc1)C)c1ccc(cc1Cl)Cl)C(=O)Cn1ccnc1

>  <CID>  (1) 
134136193.0

>  <ChEMBL ID>  (1) 
nan

>  <InChiKey>  (1) 
YTPBKNZXOGXDKV-NJRDNMGOSA-N

>  <InChi>  (1) 
InChI=1S/C34H30Cl2N6O3/c1-22(24-6-4-3-5-7-24)38-34(44)32-28-19-41(31(43)20-40-15-14-37-21-40)18-25(16-23-8-11-27(45-2)12-9-23)33(28)42(39-32)30-13-10-26(35)17-29(30)36/h3-17,21-22H,18-20H2,1-2H3,(H,38,44)/b25-16+/t22-/m1/s1

>  <IUPAC Name>  (1) 
(7E)-1-(2,4-dichlorophenyl)-5-(2-imidazol-1-ylacetyl)-7-[(4-methoxyphenyl)methylidene]-N-[(1R)-1-phenylethyl]-4,6-dihydropyrazolo[4,3-c]pyridine-3-carboxamide

$$$$
