
     RDKit          3D

 52 55  0  0  0  0  0  0  0  0999 V2000
    4.0936    1.9007   -2.4306 F   0  0  0  0  0  0  0  0  0  0  0  0
    3.4579    1.9643   -1.2185 C   0  0  0  0  0  0  0  0  0  0  0  0
    2.6566    3.0308   -0.8891 C   0  0  0  0  0  0  0  0  0  0  0  0
    2.0572    3.0020    0.3609 C   0  0  0  0  0  0  0  0  0  0  0  0
    2.2488    1.9509    1.2485 C   0  0  0  0  0  0  0  0  0  0  0  0
    3.0478    0.8896    0.9180 C   0  0  0  0  0  0  0  0  0  0  0  0
    3.6434    0.9359   -0.3460 C   0  0  0  0  0  0  0  0  0  0  0  0
    3.2879   -0.2459    1.8294 C   0  0  0  0  0  0  0  0  0  0  0  0
    2.2817   -1.1519    1.9043 O   0  0  0  0  0  0  0  0  0  0  0  0
    1.9153   -1.8214    0.7776 C   0  0  1  0  0  0  0  0  0  0  0  0
    2.2371   -3.3215    0.9002 C   0  0  0  0  0  0  0  0  0  0  0  0
    0.9712   -3.8955    1.4955 C   0  0  0  0  0  0  0  0  0  0  0  0
   -0.0845   -3.0413    0.8609 C   0  0  0  0  0  0  0  0  0  0  0  0
    0.4755   -1.8315    0.4437 C   0  0  0  0  0  0  0  0  0  0  0  0
   -0.3719   -0.9761   -0.1513 N   0  0  0  0  0  0  0  0  0  0  0  0
   -1.6805   -1.1800   -0.3743 C   0  0  0  0  0  0  0  0  0  0  0  0
   -2.2036   -2.3833    0.0494 C   0  0  0  0  0  0  0  0  0  0  0  0
   -1.4107   -3.3506    0.6824 C   0  0  0  0  0  0  0  0  0  0  0  0
   -2.4957   -0.2046   -1.0154 N   0  0  0  0  0  0  0  0  0  0  0  0
   -3.8585   -0.4706   -1.4653 C   0  0  0  0  0  0  0  0  0  0  0  0
   -4.8174    0.5553   -0.9006 C   0  0  0  0  0  0  0  0  0  0  0  0
   -4.2739    1.8910   -0.9582 N   0  0  0  0  0  0  0  0  0  0  0  0
   -2.9450    2.0322   -0.4543 C   0  0  0  0  0  0  0  0  0  0  0  0
   -2.0232    1.1448   -1.2620 C   0  0  1  0  0  0  0  0  0  0  0  0
   -0.5874    1.3812   -1.0051 C   0  0  0  0  0  0  0  0  0  0  0  0
    1.5722    1.9818    2.5821 C   0  0  0  0  0  0  0  0  0  0  0  0
    2.5233    3.8293   -1.5885 H   0  0  0  0  0  0  0  0  0  0  0  0
    1.4185    3.8525    0.6230 H   0  0  0  0  0  0  0  0  0  0  0  0
    4.2764    0.0986   -0.6120 H   0  0  0  0  0  0  0  0  0  0  0  0
    4.2705   -0.6693    1.5270 H   0  0  0  0  0  0  0  0  0  0  0  0
    3.4945    0.1853    2.8536 H   0  0  0  0  0  0  0  0  0  0  0  0
    2.4974   -1.4353   -0.0827 H   0  0  0  0  0  0  0  0  0  0  0  0
    3.1472   -3.5175    1.4681 H   0  0  0  0  0  0  0  0  0  0  0  0
    2.3846   -3.6992   -0.1273 H   0  0  0  0  0  0  0  0  0  0  0  0
    0.9463   -3.8725    2.5917 H   0  0  0  0  0  0  0  0  0  0  0  0
    0.8819   -4.9582    1.1879 H   0  0  0  0  0  0  0  0  0  0  0  0
   -3.2383   -2.6688   -0.0651 H   0  0  0  0  0  0  0  0  0  0  0  0
   -1.8306   -4.2920    1.0111 H   0  0  0  0  0  0  0  0  0  0  0  0
   -3.7849   -0.3548   -2.5886 H   0  0  0  0  0  0  0  0  0  0  0  0
   -4.1937   -1.4817   -1.2639 H   0  0  0  0  0  0  0  0  0  0  0  0
   -5.1327    0.2472    0.1006 H   0  0  0  0  0  0  0  0  0  0  0  0
   -5.7171    0.5470   -1.5525 H   0  0  0  0  0  0  0  0  0  0  0  0
   -4.9103    2.6152   -0.6227 H   0  0  0  0  0  0  0  0  0  0  0  0
   -2.9159    1.6970    0.6209 H   0  0  0  0  0  0  0  0  0  0  0  0
   -2.6819    3.1017   -0.5219 H   0  0  0  0  0  0  0  0  0  0  0  0
   -2.2271    1.3632   -2.3321 H   0  0  0  0  0  0  0  0  0  0  0  0
   -0.3799    2.4493   -1.3195 H   0  0  0  0  0  0  0  0  0  0  0  0
   -0.2999    1.3663    0.0599 H   0  0  0  0  0  0  0  0  0  0  0  0
    0.0184    0.7754   -1.6803 H   0  0  0  0  0  0  0  0  0  0  0  0
    0.9523    1.0820    2.7720 H   0  0  0  0  0  0  0  0  0  0  0  0
    2.3293    2.0299    3.3829 H   0  0  0  0  0  0  0  0  0  0  0  0
    0.9777    2.9231    2.6691 H   0  0  0  0  0  0  0  0  0  0  0  0
  1  2  1  0
  2  3  2  0
  3  4  1  0
  4  5  2  0
  5  6  1  0
  6  7  2  0
  6  8  1  0
  8  9  1  0
  9 10  1  0
 10 11  1  0
 11 12  1  0
 12 13  1  0
 13 14  2  0
 14 15  1  0
 15 16  2  0
 16 17  1  0
 17 18  2  0
 16 19  1  0
 19 20  1  0
 20 21  1  0
 21 22  1  0
 22 23  1  0
 23 24  1  0
 24 25  1  0
  5 26  1  0
  7  2  1  0
 14 10  1  0
 24 19  1  0
 18 13  1  0
  3 27  1  0
  4 28  1  0
  7 29  1  0
  8 30  1  0
  8 31  1  0
 10 32  1  6
 11 33  1  0
 11 34  1  0
 12 35  1  0
 12 36  1  0
 17 37  1  0
 18 38  1  0
 20 39  1  0
 20 40  1  0
 21 41  1  0
 21 42  1  0
 22 43  1  0
 23 44  1  0
 23 45  1  0
 24 46  1  6
 25 47  1  0
 25 48  1  0
 25 49  1  0
 26 50  1  0
 26 51  1  0
 26 52  1  0
M  END
>  <Ligand ID>  (1) 
LIG0005330

>  <Ligand>  (1) 
CHEMBL594717

>  <SMILES>  (1) 
Fc1ccc(c(c1)CO[C@H]1CCc2c1nc(cc2)N1CCNC[C@H]1C)C

>  <CID>  (1) 
11949710.0

>  <ChEMBL ID>  (1) 
nan

>  <InChiKey>  (1) 
ZAZVLBZIEZHJFV-BEFAXECRSA-N

>  <InChi>  (1) 
InChI=1S/C21H26FN3O/c1-14-3-6-18(22)11-17(14)13-26-19-7-4-16-5-8-20(24-21(16)19)25-10-9-23-12-15(25)2/h3,5-6,8,11,15,19,23H,4,7,9-10,12-13H2,1-2H3/t15-,19+/m1/s1

>  <IUPAC Name>  (1) 
(7S)-7-[(5-fluoro-2-methylphenyl)methoxy]-2-[(2R)-2-methylpiperazin-1-yl]-6,7-dihydro-5H-cyclopenta[b]pyridine

$$$$
