
     RDKit          3D

 63 67  0  0  0  0  0  0  0  0999 V2000
    5.5663    1.3867    2.4082 C   0  0  0  0  0  0  0  0  0  0  0  0
    5.3240    0.3508    1.4481 N   0  0  0  0  0  0  0  0  0  0  0  0
    6.0775    0.3474    0.2261 C   0  0  0  0  0  0  0  0  0  0  0  0
    6.9420    1.2482    0.0048 O   0  0  0  0  0  0  0  0  0  0  0  0
    5.8837   -0.6939   -0.8195 C   0  0  1  0  0  0  0  0  0  0  0  0
    4.9174   -1.5495   -0.3744 O   0  0  0  0  0  0  0  0  0  0  0  0
    4.1163   -1.9439   -1.4007 C   0  0  2  0  0  0  0  0  0  0  0  0
    4.3938   -1.0641   -2.5902 C   0  0  1  0  0  0  0  0  0  0  0  0
    5.4782   -0.1340   -2.1406 C   0  0  2  0  0  0  0  0  0  0  0  0
    6.5650   -0.1446   -3.0387 O   0  0  0  0  0  0  0  0  0  0  0  0
    4.8612   -1.7972   -3.6833 O   0  0  0  0  0  0  0  0  0  0  0  0
    2.7292   -1.8805   -0.9670 N   0  0  0  0  0  0  0  0  0  0  0  0
    1.8884   -2.9121   -0.8841 C   0  0  0  0  0  0  0  0  0  0  0  0
    0.7036   -2.4114   -0.4386 N   0  0  0  0  0  0  0  0  0  0  0  0
    0.8363   -1.1028   -0.2591 C   0  0  0  0  0  0  0  0  0  0  0  0
    2.1256   -0.7359   -0.5906 C   0  0  0  0  0  0  0  0  0  0  0  0
    2.4836    0.5565   -0.4824 N   0  0  0  0  0  0  0  0  0  0  0  0
    1.6201    1.5028   -0.0600 C   0  0  0  0  0  0  0  0  0  0  0  0
    2.0548    2.8598    0.0356 N   0  0  0  0  0  0  0  0  0  0  0  0
    0.3549    1.1314    0.2634 N   0  0  0  0  0  0  0  0  0  0  0  0
   -0.0671   -0.1404    0.1782 C   0  0  0  0  0  0  0  0  0  0  0  0
   -1.4060   -0.4955    0.5268 N   0  0  0  0  0  0  0  0  0  0  0  0
   -2.3757    0.4857    0.9874 C   0  0  0  0  0  0  0  0  0  0  0  0
   -3.7033   -0.1099    1.2921 C   0  0  0  0  0  0  0  0  0  0  0  0
   -4.2909   -0.7568    0.0938 C   0  0  0  0  0  0  0  0  0  0  0  0
   -4.0818   -0.3328   -1.1952 C   0  0  0  0  0  0  0  0  0  0  0  0
   -4.6606   -0.9837   -2.2675 C   0  0  0  0  0  0  0  0  0  0  0  0
   -5.4601   -2.0704   -2.0842 C   0  0  0  0  0  0  0  0  0  0  0  0
   -5.6960   -2.5309   -0.7883 C   0  0  0  0  0  0  0  0  0  0  0  0
   -5.1069   -1.8638    0.2624 C   0  0  0  0  0  0  0  0  0  0  0  0
   -4.6303    0.9625    1.7277 C   0  0  0  0  0  0  0  0  0  0  0  0
   -4.6282    2.2420    1.2318 C   0  0  0  0  0  0  0  0  0  0  0  0
   -5.5233    3.1906    1.6893 C   0  0  0  0  0  0  0  0  0  0  0  0
   -6.4603    2.8962    2.6650 C   0  0  0  0  0  0  0  0  0  0  0  0
   -6.4676    1.6068    3.1694 C   0  0  0  0  0  0  0  0  0  0  0  0
   -5.5675    0.6669    2.7040 C   0  0  0  0  0  0  0  0  0  0  0  0
    4.6351    1.6651    2.9391 H   0  0  0  0  0  0  0  0  0  0  0  0
    6.2465    0.9752    3.1943 H   0  0  0  0  0  0  0  0  0  0  0  0
    6.0837    2.2677    1.9878 H   0  0  0  0  0  0  0  0  0  0  0  0
    4.6227   -0.3792    1.6287 H   0  0  0  0  0  0  0  0  0  0  0  0
    6.8987   -1.1735   -0.9347 H   0  0  0  0  0  0  0  0  0  0  0  0
    4.3776   -2.9828   -1.6860 H   0  0  0  0  0  0  0  0  0  0  0  0
    3.4936   -0.4762   -2.8732 H   0  0  0  0  0  0  0  0  0  0  0  0
    5.1664    0.9411   -2.1022 H   0  0  0  0  0  0  0  0  0  0  0  0
    7.0144   -1.0264   -3.0626 H   0  0  0  0  0  0  0  0  0  0  0  0
    4.7989   -1.1686   -4.4536 H   0  0  0  0  0  0  0  0  0  0  0  0
    2.0462   -3.9649   -1.1092 H   0  0  0  0  0  0  0  0  0  0  0  0
    1.7404    3.5899   -0.6706 H   0  0  0  0  0  0  0  0  0  0  0  0
    2.6805    3.1799    0.7810 H   0  0  0  0  0  0  0  0  0  0  0  0
   -1.6886   -1.4983    0.4444 H   0  0  0  0  0  0  0  0  0  0  0  0
   -2.4621    1.2242    0.1887 H   0  0  0  0  0  0  0  0  0  0  0  0
   -1.9262    0.9151    1.9182 H   0  0  0  0  0  0  0  0  0  0  0  0
   -3.6376   -0.8894    2.1051 H   0  0  0  0  0  0  0  0  0  0  0  0
   -3.4697    0.5075   -1.4002 H   0  0  0  0  0  0  0  0  0  0  0  0
   -4.4871   -0.6383   -3.2813 H   0  0  0  0  0  0  0  0  0  0  0  0
   -5.9180   -2.5870   -2.9194 H   0  0  0  0  0  0  0  0  0  0  0  0
   -6.3402   -3.4064   -0.6406 H   0  0  0  0  0  0  0  0  0  0  0  0
   -5.2941   -2.2263    1.2647 H   0  0  0  0  0  0  0  0  0  0  0  0
   -3.9298    2.5466    0.4692 H   0  0  0  0  0  0  0  0  0  0  0  0
   -5.5095    4.1980    1.2877 H   0  0  0  0  0  0  0  0  0  0  0  0
   -7.1649    3.6305    3.0299 H   0  0  0  0  0  0  0  0  0  0  0  0
   -7.1865    1.3322    3.9367 H   0  0  0  0  0  0  0  0  0  0  0  0
   -5.5865   -0.3360    3.1085 H   0  0  0  0  0  0  0  0  0  0  0  0
  1  2  1  0
  2  3  1  0
  3  4  2  0
  3  5  1  0
  5  6  1  0
  6  7  1  0
  7  8  1  0
  8  9  1  0
  9 10  1  0
  8 11  1  0
  7 12  1  0
 12 13  1  0
 13 14  2  0
 14 15  1  0
 15 16  2  0
 16 17  1  0
 17 18  2  0
 18 19  1  0
 18 20  1  0
 20 21  2  0
 21 22  1  0
 22 23  1  0
 23 24  1  0
 24 25  1  0
 25 26  2  0
 26 27  1  0
 27 28  2  0
 28 29  1  0
 29 30  2  0
 24 31  1  0
 31 32  2  0
 32 33  1  0
 33 34  2  0
 34 35  1  0
 35 36  2  0
  9  5  1  0
 16 12  1  0
 30 25  1  0
 36 31  1  0
 21 15  1  0
  1 37  1  0
  1 38  1  0
  1 39  1  0
  2 40  1  0
  5 41  1  6
  7 42  1  6
  8 43  1  6
  9 44  1  1
 10 45  1  0
 11 46  1  0
 13 47  1  0
 19 48  1  0
 19 49  1  0
 22 50  1  0
 23 51  1  0
 23 52  1  0
 24 53  1  0
 26 54  1  0
 27 55  1  0
 28 56  1  0
 29 57  1  0
 30 58  1  0
 32 59  1  0
 33 60  1  0
 34 61  1  0
 35 62  1  0
 36 63  1  0
M  END
>  <Ligand ID>  (1) 
LIG0001980

>  <Ligand>  (1) 
CHEMBL3133080

>  <SMILES>  (1) 
CNC(=O)[C@H]1O[C@H]([C@@H]([C@@H]1O)O)n1cnc2c1nc(N)nc2NCC(c1ccccc1)c1ccccc1

>  <CID>  (1) 
76322076.0

>  <ChEMBL ID>  (1) 
nan

>  <InChiKey>  (1) 
REYVJXXPFHKIOC-CMCWBKRRSA-N

>  <InChi>  (1) 
InChI=1S/C25H27N7O4/c1-27-23(35)20-18(33)19(34)24(36-20)32-13-29-17-21(30-25(26)31-22(17)32)28-12-16(14-8-4-2-5-9-14)15-10-6-3-7-11-15/h2-11,13,16,18-20,24,33-34H,12H2,1H3,(H,27,35)(H3,26,28,30,31)/t18-,19+,20-,24+/m0/s1

>  <IUPAC Name>  (1) 
(2S,3S,4R,5R)-5-[2-amino-6-(2,2-diphenylethylamino)purin-9-yl]-3,4-dihydroxy-N-methyloxolane-2-carboxamide

$$$$
