
     RDKit          3D

 63 65  0  0  0  0  0  0  0  0999 V2000
    6.5162    3.2888    0.8345 C   0  0  0  0  0  0  0  0  0  0  0  0
    6.1487    2.2059   -0.1540 C   0  0  0  0  0  0  0  0  0  0  0  0
    6.5203    0.9328    0.2880 O   0  0  0  0  0  0  0  0  0  0  0  0
    5.6767   -0.1264    0.4363 C   0  0  0  0  0  0  0  0  0  0  0  0
    4.3370   -0.1538    0.1863 C   0  0  0  0  0  0  0  0  0  0  0  0
    3.5354   -1.2713    0.3594 C   0  0  0  0  0  0  0  0  0  0  0  0
    4.1119   -2.4413    0.8135 C   0  0  0  0  0  0  0  0  0  0  0  0
    5.4646   -2.4487    1.0764 C   0  0  0  0  0  0  0  0  0  0  0  0
    6.2431   -1.3246    0.8968 C   0  0  0  0  0  0  0  0  0  0  0  0
    7.6916   -1.3744    1.1910 C   0  0  0  0  0  0  0  0  0  0  0  0
    8.3874   -0.3423    1.0243 O   0  0  0  0  0  0  0  0  0  0  0  0
    8.2377   -2.5544    1.6403 O   0  0  0  0  0  0  0  0  0  0  0  0
    2.1004   -1.2595    0.0769 C   0  0  0  0  0  0  0  0  0  0  0  0
    1.5383   -2.4623   -0.3664 C   0  0  0  0  0  0  0  0  0  0  0  0
    0.1967   -2.4891   -0.6424 C   0  0  0  0  0  0  0  0  0  0  0  0
   -0.6237   -1.3770   -0.5009 C   0  0  0  0  0  0  0  0  0  0  0  0
   -0.0639   -0.1968   -0.0642 C   0  0  0  0  0  0  0  0  0  0  0  0
    1.3045   -0.1539    0.2214 C   0  0  0  0  0  0  0  0  0  0  0  0
   -2.0632   -1.5312   -0.8334 C   0  0  0  0  0  0  0  0  0  0  0  0
   -2.8735   -1.9722    0.3647 C   0  0  0  0  0  0  0  0  0  0  0  0
   -4.2393   -2.1209    0.0482 N   0  0  0  0  0  0  0  0  0  0  0  0
   -5.0207   -0.9838   -0.2590 C   0  0  2  0  0  0  0  0  0  0  0  0
   -5.1114    0.0290    0.8385 C   0  0  1  0  0  0  0  0  0  0  0  0
   -5.8786    1.2242    0.5391 C   0  0  0  0  0  0  0  0  0  0  0  0
   -6.2868    2.0196    1.6200 C   0  0  0  0  0  0  0  0  0  0  0  0
   -7.0086    3.1692    1.4513 C   0  0  0  0  0  0  0  0  0  0  0  0
   -7.3625    3.5872    0.1882 C   0  0  0  0  0  0  0  0  0  0  0  0
   -6.9824    2.8365   -0.9046 C   0  0  0  0  0  0  0  0  0  0  0  0
   -6.2482    1.6709   -0.7018 C   0  0  0  0  0  0  0  0  0  0  0  0
   -5.7018   -0.6043    1.9578 O   0  0  0  0  0  0  0  0  0  0  0  0
   -6.4232   -1.5385   -0.5581 C   0  0  0  0  0  0  0  0  0  0  0  0
    6.8570    2.5570   -1.4675 C   0  0  0  0  0  0  0  0  0  0  0  0
    7.2427    4.0137    0.4206 H   0  0  0  0  0  0  0  0  0  0  0  0
    6.9630    2.7943    1.7433 H   0  0  0  0  0  0  0  0  0  0  0  0
    5.6463    3.8594    1.1686 H   0  0  0  0  0  0  0  0  0  0  0  0
    5.0711    2.3014   -0.3521 H   0  0  0  0  0  0  0  0  0  0  0  0
    3.8422    0.7335   -0.1689 H   0  0  0  0  0  0  0  0  0  0  0  0
    3.5679   -3.3484    0.9750 H   0  0  0  0  0  0  0  0  0  0  0  0
    5.9240   -3.3797    1.4389 H   0  0  0  0  0  0  0  0  0  0  0  0
    9.2134   -2.6339    1.8676 H   0  0  0  0  0  0  0  0  0  0  0  0
    2.1445   -3.3368   -0.4856 H   0  0  0  0  0  0  0  0  0  0  0  0
   -0.2182   -3.4273   -0.9823 H   0  0  0  0  0  0  0  0  0  0  0  0
   -0.7060    0.6480    0.0389 H   0  0  0  0  0  0  0  0  0  0  0  0
    1.7448    0.7754    0.5649 H   0  0  0  0  0  0  0  0  0  0  0  0
   -2.1342   -2.2732   -1.6501 H   0  0  0  0  0  0  0  0  0  0  0  0
   -2.3879   -0.5546   -1.2311 H   0  0  0  0  0  0  0  0  0  0  0  0
   -2.6340   -1.4219    1.2755 H   0  0  0  0  0  0  0  0  0  0  0  0
   -2.5027   -3.0184    0.5822 H   0  0  0  0  0  0  0  0  0  0  0  0
   -4.7240   -2.9226    0.4610 H   0  0  0  0  0  0  0  0  0  0  0  0
   -4.6199   -0.5319   -1.1863 H   0  0  0  0  0  0  0  0  0  0  0  0
   -4.0866    0.3569    1.1148 H   0  0  0  0  0  0  0  0  0  0  0  0
   -6.0167    1.7063    2.6404 H   0  0  0  0  0  0  0  0  0  0  0  0
   -7.2826    3.7261    2.3491 H   0  0  0  0  0  0  0  0  0  0  0  0
   -7.9311    4.5042    0.1213 H   0  0  0  0  0  0  0  0  0  0  0  0
   -7.2724    3.1912   -1.8693 H   0  0  0  0  0  0  0  0  0  0  0  0
   -5.9618    1.1065   -1.5522 H   0  0  0  0  0  0  0  0  0  0  0  0
   -6.6645   -0.3677    2.0244 H   0  0  0  0  0  0  0  0  0  0  0  0
   -6.3755   -2.1611   -1.4829 H   0  0  0  0  0  0  0  0  0  0  0  0
   -6.7270   -2.2453    0.2547 H   0  0  0  0  0  0  0  0  0  0  0  0
   -7.1745   -0.7703   -0.7153 H   0  0  0  0  0  0  0  0  0  0  0  0
    6.5969    1.7937   -2.2286 H   0  0  0  0  0  0  0  0  0  0  0  0
    6.5275    3.5574   -1.7542 H   0  0  0  0  0  0  0  0  0  0  0  0
    7.9557    2.5312   -1.3217 H   0  0  0  0  0  0  0  0  0  0  0  0
  1  2  1  0
  2  3  1  0
  3  4  1  0
  4  5  2  0
  5  6  1  0
  6  7  2  0
  7  8  1  0
  8  9  2  0
  9 10  1  0
 10 11  2  0
 10 12  1  0
  6 13  1  0
 13 14  2  0
 14 15  1  0
 15 16  2  0
 16 17  1  0
 17 18  2  0
 16 19  1  0
 19 20  1  0
 20 21  1  0
 21 22  1  0
 22 23  1  0
 23 24  1  0
 24 25  2  0
 25 26  1  0
 26 27  2  0
 27 28  1  0
 28 29  2  0
 23 30  1  0
 22 31  1  0
  2 32  1  0
  9  4  1  0
 18 13  1  0
 29 24  1  0
  1 33  1  0
  1 34  1  0
  1 35  1  0
  2 36  1  0
  5 37  1  0
  7 38  1  0
  8 39  1  0
 12 40  1  0
 14 41  1  0
 15 42  1  0
 17 43  1  0
 18 44  1  0
 19 45  1  0
 19 46  1  0
 20 47  1  0
 20 48  1  0
 21 49  1  0
 22 50  1  6
 23 51  1  1
 25 52  1  0
 26 53  1  0
 27 54  1  0
 28 55  1  0
 29 56  1  0
 30 57  1  0
 31 58  1  0
 31 59  1  0
 31 60  1  0
 32 61  1  0
 32 62  1  0
 32 63  1  0
M  END
>  <Ligand ID>  (1) 
LIG0001089

>  <Ligand>  (1) 
CHEMBL453047

>  <SMILES>  (1) 
CC(Oc1cc(ccc1C(=O)O)c1ccc(cc1)CCN[C@H]([C@@H](c1ccccc1)O)C)C

>  <CID>  (1) 
11476004.0

>  <ChEMBL ID>  (1) 
nan

>  <InChiKey>  (1) 
WVYCDLWTGGHFDH-SIBVEZHUSA-N

>  <InChi>  (1) 
InChI=1S/C27H31NO4/c1-18(2)32-25-17-23(13-14-24(25)27(30)31)21-11-9-20(10-12-21)15-16-28-19(3)26(29)22-7-5-4-6-8-22/h4-14,17-19,26,28-29H,15-16H2,1-3H3,(H,30,31)/t19-,26-/m0/s1

>  <IUPAC Name>  (1) 
4-[4-[2-[[(1R,2S)-1-hydroxy-1-phenylpropan-2-yl]amino]ethyl]phenyl]-2-propan-2-yloxybenzoic acid

$$$$
