
     RDKit          3D

 58 62  0  0  0  0  0  0  0  0999 V2000
   -6.3690    2.0098    1.3669 C   0  0  0  0  0  0  0  0  0  0  0  0
   -5.9347    0.6297    0.9952 C   0  0  0  0  0  0  0  0  0  0  0  0
   -5.1384    0.6198   -0.2888 C   0  0  0  0  0  0  0  0  0  0  0  0
   -3.9091    1.4486   -0.1877 C   0  0  0  0  0  0  0  0  0  0  0  0
   -3.9571    2.6909    0.0395 O   0  0  0  0  0  0  0  0  0  0  0  0
   -2.7470    0.6273   -0.3831 N   0  0  0  0  0  0  0  0  0  0  0  0
   -3.2138   -0.6880   -0.6034 C   0  0  0  0  0  0  0  0  0  0  0  0
   -4.5840   -0.7181   -0.5543 C   0  0  0  0  0  0  0  0  0  0  0  0
   -5.2878   -1.9131   -0.7436 C   0  0  0  0  0  0  0  0  0  0  0  0
   -4.6317   -3.1039   -0.9864 C   0  0  0  0  0  0  0  0  0  0  0  0
   -3.2450   -3.0703   -1.0357 C   0  0  0  0  0  0  0  0  0  0  0  0
   -2.5633   -1.8795   -0.8462 C   0  0  0  0  0  0  0  0  0  0  0  0
   -1.4128    1.1306   -0.3455 C   0  0  0  0  0  0  0  0  0  0  0  0
   -0.6138    0.9642   -1.5869 C   0  0  0  0  0  0  0  0  0  0  0  0
    0.7362    0.3132   -1.3758 C   0  0  0  0  0  0  0  0  0  0  0  0
    1.5076    0.9592   -0.3429 N   0  0  0  0  0  0  0  0  0  0  0  0
    0.7717    1.0510    0.8608 C   0  0  0  0  0  0  0  0  0  0  0  0
   -0.6527    0.5553    0.8018 C   0  0  0  0  0  0  0  0  0  0  0  0
    2.7892    0.3729   -0.2534 C   0  0  0  0  0  0  0  0  0  0  0  0
    3.6480    0.5386   -1.4740 C   0  0  0  0  0  0  0  0  0  0  0  0
    4.5324   -0.7166   -1.5116 C   0  0  0  0  0  0  0  0  0  0  0  0
    5.3048   -0.6572   -0.2426 C   0  0  0  0  0  0  0  0  0  0  0  0
    4.8982    0.0655    0.8590 C   0  0  0  0  0  0  0  0  0  0  0  0
    3.6404    0.8629    0.8927 C   0  0  0  0  0  0  0  0  0  0  0  0
    5.7029    0.0464    1.9901 C   0  0  0  0  0  0  0  0  0  0  0  0
    6.8840   -0.6678    2.0400 C   0  0  0  0  0  0  0  0  0  0  0  0
    7.2805   -1.3872    0.9314 C   0  0  0  0  0  0  0  0  0  0  0  0
    6.4839   -1.3713   -0.1954 C   0  0  0  0  0  0  0  0  0  0  0  0
   -6.2829    2.7245    0.5161 H   0  0  0  0  0  0  0  0  0  0  0  0
   -7.4045    1.9872    1.7663 H   0  0  0  0  0  0  0  0  0  0  0  0
   -5.7051    2.3621    2.1921 H   0  0  0  0  0  0  0  0  0  0  0  0
   -5.3759    0.1220    1.7821 H   0  0  0  0  0  0  0  0  0  0  0  0
   -6.8505    0.0332    0.7873 H   0  0  0  0  0  0  0  0  0  0  0  0
   -5.7283    1.0408   -1.1233 H   0  0  0  0  0  0  0  0  0  0  0  0
   -6.3620   -1.9304   -0.7039 H   0  0  0  0  0  0  0  0  0  0  0  0
   -5.1789   -4.0263   -1.1325 H   0  0  0  0  0  0  0  0  0  0  0  0
   -2.6903   -3.9938   -1.2258 H   0  0  0  0  0  0  0  0  0  0  0  0
   -1.4826   -1.8885   -0.8913 H   0  0  0  0  0  0  0  0  0  0  0  0
   -1.4717    2.2411   -0.1435 H   0  0  0  0  0  0  0  0  0  0  0  0
   -1.1806    0.2753   -2.2502 H   0  0  0  0  0  0  0  0  0  0  0  0
   -0.4620    1.9038   -2.1483 H   0  0  0  0  0  0  0  0  0  0  0  0
    1.2116    0.2895   -2.3649 H   0  0  0  0  0  0  0  0  0  0  0  0
    0.6419   -0.7474   -1.0651 H   0  0  0  0  0  0  0  0  0  0  0  0
    1.2023    0.5517    1.7490 H   0  0  0  0  0  0  0  0  0  0  0  0
    0.7001    2.1398    1.1462 H   0  0  0  0  0  0  0  0  0  0  0  0
   -1.1439    0.9530    1.7316 H   0  0  0  0  0  0  0  0  0  0  0  0
   -0.6547   -0.5274    0.9003 H   0  0  0  0  0  0  0  0  0  0  0  0
    2.6251   -0.7268   -0.0381 H   0  0  0  0  0  0  0  0  0  0  0  0
    4.3990    1.3758   -1.3350 H   0  0  0  0  0  0  0  0  0  0  0  0
    3.1502    0.7237   -2.4119 H   0  0  0  0  0  0  0  0  0  0  0  0
    3.8282   -1.5756   -1.5299 H   0  0  0  0  0  0  0  0  0  0  0  0
    5.1994   -0.6958   -2.3930 H   0  0  0  0  0  0  0  0  0  0  0  0
    3.2242    0.7140    1.8856 H   0  0  0  0  0  0  0  0  0  0  0  0
    3.9012    1.9245    0.6709 H   0  0  0  0  0  0  0  0  0  0  0  0
    5.4225    0.5959    2.8696 H   0  0  0  0  0  0  0  0  0  0  0  0
    7.5056   -0.6718    2.9388 H   0  0  0  0  0  0  0  0  0  0  0  0
    8.2135   -1.9405    0.9963 H   0  0  0  0  0  0  0  0  0  0  0  0
    6.8296   -1.9464   -1.0395 H   0  0  0  0  0  0  0  0  0  0  0  0
  1  2  1  0
  2  3  1  0
  3  4  1  0
  4  5  2  0
  4  6  1  0
  6  7  1  0
  7  8  2  0
  8  9  1  0
  9 10  2  0
 10 11  1  0
 11 12  2  0
  6 13  1  0
 13 14  1  0
 14 15  1  0
 15 16  1  0
 16 17  1  0
 17 18  1  0
 16 19  1  0
 19 20  1  0
 20 21  1  0
 21 22  1  0
 22 23  2  0
 23 24  1  0
 23 25  1  0
 25 26  2  0
 26 27  1  0
 27 28  2  0
  8  3  1  0
 18 13  1  0
 24 19  1  0
 12  7  1  0
 28 22  1  0
  1 29  1  0
  1 30  1  0
  1 31  1  0
  2 32  1  0
  2 33  1  0
  3 34  1  0
  9 35  1  0
 10 36  1  0
 11 37  1  0
 12 38  1  0
 13 39  1  0
 14 40  1  0
 14 41  1  0
 15 42  1  0
 15 43  1  0
 17 44  1  0
 17 45  1  0
 18 46  1  0
 18 47  1  0
 19 48  1  0
 20 49  1  0
 20 50  1  0
 21 51  1  0
 21 52  1  0
 24 53  1  0
 24 54  1  0
 25 55  1  0
 26 56  1  0
 27 57  1  0
 28 58  1  0
M  END
>  <Ligand ID>  (1) 
LIG0004128

>  <Ligand>  (1) 
CHEMBL3262547

>  <SMILES>  (1) 
CCC1C(=O)N(c2c1cccc2)C1CCN(CC1)C1CCc2c(C1)cccc2

>  <CID>  (1) 
22558157.0

>  <ChEMBL ID>  (1) 
nan

>  <InChiKey>  (1) 
PEUSKIKGDTWFQX-UHFFFAOYSA-N

>  <InChi>  (1) 
InChI=1S/C25H30N2O/c1-2-22-23-9-5-6-10-24(23)27(25(22)28)20-13-15-26(16-14-20)21-12-11-18-7-3-4-8-19(18)17-21/h3-10,20-22H,2,11-17H2,1H3

>  <IUPAC Name>  (1) 
3-ethyl-1-[1-(1,2,3,4-tetrahydronaphthalen-2-yl)piperidin-4-yl]-3H-indol-2-one

$$$$
