
     RDKit          3D

 31 31  0  0  0  0  0  0  0  0999 V2000
   -1.4102    3.3038   -0.0249 C   0  0  0  0  0  0  0  0  0  0  0  0
   -1.1729    1.9538    0.2172 O   0  0  0  0  0  0  0  0  0  0  0  0
    0.0413    1.3000    0.1516 C   0  0  0  0  0  0  0  0  0  0  0  0
    1.2127    1.9852   -0.1801 C   0  0  0  0  0  0  0  0  0  0  0  0
    2.4374    1.3362   -0.2445 C   0  0  0  0  0  0  0  0  0  0  0  0
    4.0160    2.3164   -0.7042 Br  0  0  0  0  0  0  0  0  0  0  0  0
    2.5283   -0.0220    0.0219 C   0  0  0  0  0  0  0  0  0  0  0  0
    1.3666   -0.6862    0.3474 C   0  0  0  0  0  0  0  0  0  0  0  0
    0.1282   -0.0475    0.4153 C   0  0  0  0  0  0  0  0  0  0  0  0
   -1.0276   -0.9134    0.7461 C   0  0  0  0  0  0  0  0  0  0  0  0
   -1.8315   -1.3951   -0.3994 C   0  0  1  0  0  0  0  0  0  0  0  0
   -2.9198   -2.2334    0.1311 N   0  0  0  0  0  0  0  0  0  0  0  0
   -2.5125   -0.3090   -1.1875 C   0  0  0  0  0  0  0  0  0  0  0  0
    3.7318   -0.6995   -0.0330 O   0  0  0  0  0  0  0  0  0  0  0  0
    3.8066   -2.0678    0.2368 C   0  0  0  0  0  0  0  0  0  0  0  0
   -0.7329    3.7273   -0.7909 H   0  0  0  0  0  0  0  0  0  0  0  0
   -2.4626    3.4208   -0.3967 H   0  0  0  0  0  0  0  0  0  0  0  0
   -1.3474    3.9062    0.9045 H   0  0  0  0  0  0  0  0  0  0  0  0
    1.1345    3.0333   -0.3829 H   0  0  0  0  0  0  0  0  0  0  0  0
    1.4467   -1.7432    0.5534 H   0  0  0  0  0  0  0  0  0  0  0  0
   -0.7084   -1.7514    1.4259 H   0  0  0  0  0  0  0  0  0  0  0  0
   -1.7085   -0.2864    1.3966 H   0  0  0  0  0  0  0  0  0  0  0  0
   -1.2606   -1.9989   -1.1349 H   0  0  0  0  0  0  0  0  0  0  0  0
   -2.5323   -2.8925    0.8168 H   0  0  0  0  0  0  0  0  0  0  0  0
   -3.5749   -1.6117    0.6332 H   0  0  0  0  0  0  0  0  0  0  0  0
   -1.8133    0.2868   -1.8107 H   0  0  0  0  0  0  0  0  0  0  0  0
   -3.1509    0.2658   -0.5153 H   0  0  0  0  0  0  0  0  0  0  0  0
   -3.2411   -0.8673   -1.8614 H   0  0  0  0  0  0  0  0  0  0  0  0
    4.8259   -2.4542   -0.0591 H   0  0  0  0  0  0  0  0  0  0  0  0
    3.0473   -2.6330   -0.3346 H   0  0  0  0  0  0  0  0  0  0  0  0
    3.6839   -2.2233    1.3385 H   0  0  0  0  0  0  0  0  0  0  0  0
  1  2  1  0
  2  3  1  0
  3  4  2  0
  4  5  1  0
  5  6  1  0
  5  7  2  0
  7  8  1  0
  8  9  2  0
  9 10  1  0
 10 11  1  0
 11 12  1  0
 11 13  1  0
  7 14  1  0
 14 15  1  0
  9  3  1  0
  1 16  1  0
  1 17  1  0
  1 18  1  0
  4 19  1  0
  8 20  1  0
 10 21  1  0
 10 22  1  0
 11 23  1  6
 12 24  1  0
 12 25  1  0
 13 26  1  0
 13 27  1  0
 13 28  1  0
 15 29  1  0
 15 30  1  0
 15 31  1  0
M  END
>  <Ligand ID>  (1) 
LIG0005204

>  <Ligand>  (1) 
UNII-NXQ58PZ30E

>  <SMILES>  (1) 
COc1cc(Br)c(cc1C[C@@H](N)C)OC

>  <CID>  (1) 
23983765.0

>  <ChEMBL ID>  (1) 
nan

>  <InChiKey>  (1) 
FXMWUTGUCAKGQL-ZETCQYMHSA-N

>  <InChi>  (1) 
InChI=1S/C11H16BrNO2/c1-7(13)4-8-5-11(15-3)9(12)6-10(8)14-2/h5-7H,4,13H2,1-3H3/t7-/m0/s1

>  <IUPAC Name>  (1) 
(2S)-1-(4-bromo-2,5-dimethoxyphenyl)propan-2-amine

$$$$
