
     RDKit          3D

 84 87  0  0  0  0  0  0  0  0999 V2000
    7.2713   -0.3570    1.2223 O   0  0  0  0  0  0  0  0  0  0  0  0
    7.5937    0.6617    0.5976 C   0  0  0  0  0  0  0  0  0  0  0  0
    6.8193    1.8045    0.3153 N   0  0  0  0  0  0  0  0  0  0  0  0
    5.4345    2.1206    0.6501 C   0  0  0  0  0  0  0  0  0  0  0  0
    4.4448    1.7428   -0.3775 C   0  0  0  0  0  0  0  0  0  0  0  0
    4.2469    0.3616   -0.8075 C   0  0  0  0  0  0  0  0  0  0  0  0
    3.7477   -0.6489    0.0354 N   0  0  0  0  0  0  0  0  0  0  0  0
    2.4806   -1.2021   -0.4687 C   0  0  0  0  0  0  0  0  0  0  0  0
    1.5873   -1.7784    0.5574 C   0  0  0  0  0  0  0  0  0  0  0  0
    0.2788   -2.3366   -0.0256 C   0  0  0  0  0  0  0  0  0  0  0  0
   -0.5258   -1.2726   -0.7225 C   0  0  0  0  0  0  0  0  0  0  0  0
   -0.9301   -0.1260    0.1264 C   0  0  0  0  0  0  0  0  0  0  0  0
   -1.7829   -0.4004    1.3041 C   0  0  0  0  0  0  0  0  0  0  0  0
   -3.0689   -0.9707    1.1011 N   0  0  0  0  0  0  0  0  0  0  0  0
   -3.7533   -0.6108   -0.0982 C   0  0  0  0  0  0  0  0  0  0  0  0
   -5.2486   -0.4119    0.1684 C   0  0  0  0  0  0  0  0  0  0  0  0
   -5.8763   -0.0320   -1.1515 C   0  0  0  0  0  0  0  0  0  0  0  0
   -7.2824    0.1962   -1.0430 N   0  0  0  0  0  0  0  0  0  0  0  0
   -7.8543    1.4739   -0.7465 C   0  0  0  0  0  0  0  0  0  0  0  0
   -7.1888    2.5337   -0.5357 O   0  0  0  0  0  0  0  0  0  0  0  0
   -9.3086    1.3875   -0.7203 C   0  0  0  0  0  0  0  0  0  0  0  0
   -9.6399    0.0710   -0.9970 C   0  0  0  0  0  0  0  0  0  0  0  0
   -8.3922   -0.6814   -1.1996 C   0  0  0  0  0  0  0  0  0  0  0  0
   -8.3191   -1.8957   -1.4652 O   0  0  0  0  0  0  0  0  0  0  0  0
  -10.9803   -0.2336   -1.0293 C   0  0  0  0  0  0  0  0  0  0  0  0
  -11.9631    0.7064   -0.8002 C   0  0  0  0  0  0  0  0  0  0  0  0
  -11.5682    2.0142   -0.5263 C   0  0  0  0  0  0  0  0  0  0  0  0
  -10.2417    2.3655   -0.4843 C   0  0  0  0  0  0  0  0  0  0  0  0
   -3.8735   -0.5512    2.2818 C   0  0  0  0  0  0  0  0  0  0  0  0
   -3.0755   -2.4380    1.2060 C   0  0  0  0  0  0  0  0  0  0  0  0
    3.6377   -0.2997    1.4251 C   0  0  0  0  0  0  0  0  0  0  0  0
    4.6706   -1.7897    0.0004 C   0  0  0  0  0  0  0  0  0  0  0  0
    7.6976    2.6702   -0.4336 C   0  0  0  0  0  0  0  0  0  0  0  0
    7.3798    3.8133   -0.8822 O   0  0  0  0  0  0  0  0  0  0  0  0
    8.9984    2.0456   -0.6010 C   0  0  0  0  0  0  0  0  0  0  0  0
    8.9506    0.8218    0.0224 C   0  0  0  0  0  0  0  0  0  0  0  0
   10.0728    0.0098    0.0135 C   0  0  0  0  0  0  0  0  0  0  0  0
   11.2153    0.4510   -0.6231 C   0  0  0  0  0  0  0  0  0  0  0  0
   11.2682    1.6827   -1.2519 C   0  0  0  0  0  0  0  0  0  0  0  0
   10.1385    2.5104   -1.2469 C   0  0  0  0  0  0  0  0  0  0  0  0
    5.4630    3.2731    0.7405 H   0  0  0  0  0  0  0  0  0  0  0  0
    5.2419    1.8273    1.6935 H   0  0  0  0  0  0  0  0  0  0  0  0
    4.7549    2.3220   -1.3199 H   0  0  0  0  0  0  0  0  0  0  0  0
    3.4813    2.2730   -0.1164 H   0  0  0  0  0  0  0  0  0  0  0  0
    5.2102   -0.0456   -1.2659 H   0  0  0  0  0  0  0  0  0  0  0  0
    3.5720    0.3470   -1.7422 H   0  0  0  0  0  0  0  0  0  0  0  0
    1.9523   -0.3707   -0.9804 H   0  0  0  0  0  0  0  0  0  0  0  0
    2.6773   -1.9822   -1.2326 H   0  0  0  0  0  0  0  0  0  0  0  0
    1.2100   -1.0254    1.3139 H   0  0  0  0  0  0  0  0  0  0  0  0
    2.0083   -2.6061    1.1391 H   0  0  0  0  0  0  0  0  0  0  0  0
    0.4698   -3.1324   -0.7710 H   0  0  0  0  0  0  0  0  0  0  0  0
   -0.2458   -2.7796    0.8155 H   0  0  0  0  0  0  0  0  0  0  0  0
    0.0734   -0.8589   -1.5656 H   0  0  0  0  0  0  0  0  0  0  0  0
   -1.3779   -1.7744   -1.2068 H   0  0  0  0  0  0  0  0  0  0  0  0
    0.0049    0.3871    0.5040 H   0  0  0  0  0  0  0  0  0  0  0  0
   -1.3601    0.6494   -0.5614 H   0  0  0  0  0  0  0  0  0  0  0  0
   -1.9267    0.5699    1.8819 H   0  0  0  0  0  0  0  0  0  0  0  0
   -1.2571   -1.0568    2.0418 H   0  0  0  0  0  0  0  0  0  0  0  0
   -3.3363    0.3190   -0.5243 H   0  0  0  0  0  0  0  0  0  0  0  0
   -3.7070   -1.4620   -0.8076 H   0  0  0  0  0  0  0  0  0  0  0  0
   -5.7173   -1.3599    0.5025 H   0  0  0  0  0  0  0  0  0  0  0  0
   -5.4478    0.3506    0.9250 H   0  0  0  0  0  0  0  0  0  0  0  0
   -5.3940    0.9008   -1.5560 H   0  0  0  0  0  0  0  0  0  0  0  0
   -5.6625   -0.8318   -1.9034 H   0  0  0  0  0  0  0  0  0  0  0  0
  -11.2241   -1.2838   -1.2522 H   0  0  0  0  0  0  0  0  0  0  0  0
  -12.9921    0.3958   -0.8428 H   0  0  0  0  0  0  0  0  0  0  0  0
  -12.3532    2.7502   -0.3456 H   0  0  0  0  0  0  0  0  0  0  0  0
   -9.9876    3.4043   -0.2639 H   0  0  0  0  0  0  0  0  0  0  0  0
   -4.8459   -1.0442    2.3108 H   0  0  0  0  0  0  0  0  0  0  0  0
   -3.3354   -0.8718    3.2065 H   0  0  0  0  0  0  0  0  0  0  0  0
   -3.8685    0.5413    2.2999 H   0  0  0  0  0  0  0  0  0  0  0  0
   -2.3309   -2.7741    1.9600 H   0  0  0  0  0  0  0  0  0  0  0  0
   -4.1030   -2.7691    1.5415 H   0  0  0  0  0  0  0  0  0  0  0  0
   -2.9077   -2.9085    0.2236 H   0  0  0  0  0  0  0  0  0  0  0  0
    3.2261    0.6840    1.6284 H   0  0  0  0  0  0  0  0  0  0  0  0
    4.6507   -0.3693    1.8736 H   0  0  0  0  0  0  0  0  0  0  0  0
    3.0779   -1.1139    1.9673 H   0  0  0  0  0  0  0  0  0  0  0  0
    5.5960   -1.5313   -0.5790 H   0  0  0  0  0  0  0  0  0  0  0  0
    4.9895   -2.1199    1.0036 H   0  0  0  0  0  0  0  0  0  0  0  0
    4.2154   -2.6829   -0.4973 H   0  0  0  0  0  0  0  0  0  0  0  0
   10.0073   -0.9560    0.5161 H   0  0  0  0  0  0  0  0  0  0  0  0
   12.0823   -0.2047   -0.6174 H   0  0  0  0  0  0  0  0  0  0  0  0
   12.1716    2.0416   -1.7579 H   0  0  0  0  0  0  0  0  0  0  0  0
   10.1837    3.4715   -1.7408 H   0  0  0  0  0  0  0  0  0  0  0  0
  1  2  2  0
  2  3  1  0
  3  4  1  0
  4  5  1  0
  5  6  1  0
  6  7  1  0
  7  8  1  0
  8  9  1  0
  9 10  1  0
 10 11  1  0
 11 12  1  0
 12 13  1  0
 13 14  1  0
 14 15  1  0
 15 16  1  0
 16 17  1  0
 17 18  1  0
 18 19  1  0
 19 20  2  0
 19 21  1  0
 21 22  2  0
 22 23  1  0
 23 24  2  0
 22 25  1  0
 25 26  2  0
 26 27  1  0
 27 28  2  0
 14 29  1  0
 14 30  1  0
  7 31  1  0
  7 32  1  0
  3 33  1  0
 33 34  2  0
 33 35  1  0
 35 36  2  0
 36 37  1  0
 37 38  2  0
 38 39  1  0
 39 40  2  0
 36  2  1  0
 23 18  1  0
 40 35  1  0
 28 21  1  0
  4 41  1  0
  4 42  1  0
  5 43  1  0
  5 44  1  0
  6 45  1  0
  6 46  1  0
  8 47  1  0
  8 48  1  0
  9 49  1  0
  9 50  1  0
 10 51  1  0
 10 52  1  0
 11 53  1  0
 11 54  1  0
 12 55  1  0
 12 56  1  0
 13 57  1  0
 13 58  1  0
 15 59  1  0
 15 60  1  0
 16 61  1  0
 16 62  1  0
 17 63  1  0
 17 64  1  0
 25 65  1  0
 26 66  1  0
 27 67  1  0
 28 68  1  0
 29 69  1  0
 29 70  1  0
 29 71  1  0
 30 72  1  0
 30 73  1  0
 30 74  1  0
 31 75  1  0
 31 76  1  0
 31 77  1  0
 32 78  1  0
 32 79  1  0
 32 80  1  0
 37 81  1  0
 38 82  1  0
 39 83  1  0
 40 84  1  0
M  CHG  2   7   1  14   1
M  END
>  <Ligand ID>  (1) 
LIG0005549

>  <Ligand>  (1) 
Hdmppa

>  <SMILES>  (1) 
O=C1N(CCC[N+](CCCCCC[N+](CCCN2C(=O)c3c(C2=O)cccc3)(C)C)(C)C)C(=O)c2c1cccc2

>  <CID>  (1) 
167962.0

>  <ChEMBL ID>  (1) 
nan

>  <InChiKey>  (1) 
WDAXQFXYXWPELC-UHFFFAOYSA-N

>  <InChi>  (1) 
InChI=1S/C32H44N4O4/c1-35(2,23-13-19-33-29(37)25-15-7-8-16-26(25)30(33)38)21-11-5-6-12-22-36(3,4)24-14-20-34-31(39)27-17-9-10-18-28(27)32(34)40/h7-10,15-18H,5-6,11-14,19-24H2,1-4H3/q+2

>  <IUPAC Name>  (1) 
3-(1,3-dioxoisoindol-2-yl)propyl-[6-[3-(1,3-dioxoisoindol-2-yl)propyl-dimethylazaniumyl]hexyl]-dimethylazanium

$$$$
