
     RDKit          3D

 35 34  0  0  0  0  0  0  0  0999 V2000
   -5.4499    0.1150    0.0112 C   0  0  0  0  0  0  0  0  0  0  0  0
   -4.5557   -0.7806   -0.8451 C   0  0  0  0  0  0  0  0  0  0  0  0
   -3.1574   -0.8557   -0.2634 C   0  0  0  0  0  0  0  0  0  0  0  0
   -2.5653    0.5160   -0.2161 C   0  0  0  0  0  0  0  0  0  0  0  0
   -1.1628    0.5191    0.3563 C   0  0  0  0  0  0  0  0  0  0  0  0
   -0.2158   -0.3171   -0.4365 C   0  0  0  0  0  0  0  0  0  0  0  0
    1.1495   -0.2657    0.2032 C   0  0  0  0  0  0  0  0  0  0  0  0
    1.7451    1.1027    0.2867 C   0  0  0  0  0  0  0  0  0  0  0  0
    3.1229    0.9627    0.9523 C   0  0  0  0  0  0  0  0  0  0  0  0
    3.8808    0.1051    0.1207 O   0  0  0  0  0  0  0  0  0  0  0  0
    5.1827   -0.2566    0.3976 C   0  0  0  0  0  0  0  0  0  0  0  0
    5.6965    0.2236    1.4627 O   0  0  0  0  0  0  0  0  0  0  0  0
    5.9750   -1.1640   -0.4886 C   0  0  0  0  0  0  0  0  0  0  0  0
   -5.1910    1.1813   -0.0814 H   0  0  0  0  0  0  0  0  0  0  0  0
   -6.4951   -0.0391   -0.3286 H   0  0  0  0  0  0  0  0  0  0  0  0
   -5.4228   -0.2427    1.0739 H   0  0  0  0  0  0  0  0  0  0  0  0
   -4.5514   -0.3607   -1.8665 H   0  0  0  0  0  0  0  0  0  0  0  0
   -5.0557   -1.7712   -0.8432 H   0  0  0  0  0  0  0  0  0  0  0  0
   -2.5590   -1.4570   -0.9849 H   0  0  0  0  0  0  0  0  0  0  0  0
   -3.1917   -1.3755    0.6935 H   0  0  0  0  0  0  0  0  0  0  0  0
   -3.1562    1.2316    0.3834 H   0  0  0  0  0  0  0  0  0  0  0  0
   -2.5031    0.9181   -1.2360 H   0  0  0  0  0  0  0  0  0  0  0  0
   -0.7830    1.5819    0.3103 H   0  0  0  0  0  0  0  0  0  0  0  0
   -1.1362    0.1816    1.4126 H   0  0  0  0  0  0  0  0  0  0  0  0
   -0.1295    0.0743   -1.4791 H   0  0  0  0  0  0  0  0  0  0  0  0
   -0.5124   -1.3956   -0.4382 H   0  0  0  0  0  0  0  0  0  0  0  0
    1.8470   -0.9588   -0.3372 H   0  0  0  0  0  0  0  0  0  0  0  0
    1.0458   -0.7161    1.2280 H   0  0  0  0  0  0  0  0  0  0  0  0
    1.9238    1.4563   -0.7390 H   0  0  0  0  0  0  0  0  0  0  0  0
    1.1446    1.8242    0.8391 H   0  0  0  0  0  0  0  0  0  0  0  0
    3.0191    0.5379    1.9741 H   0  0  0  0  0  0  0  0  0  0  0  0
    3.5879    1.9586    1.0734 H   0  0  0  0  0  0  0  0  0  0  0  0
    6.2552   -0.5699   -1.3953 H   0  0  0  0  0  0  0  0  0  0  0  0
    6.8366   -1.5732    0.0570 H   0  0  0  0  0  0  0  0  0  0  0  0
    5.3815   -2.0252   -0.8569 H   0  0  0  0  0  0  0  0  0  0  0  0
  1  2  1  0
  2  3  1  0
  3  4  1  0
  4  5  1  0
  5  6  1  0
  6  7  1  0
  7  8  1  0
  8  9  1  0
  9 10  1  0
 10 11  1  0
 11 12  2  0
 11 13  1  0
  1 14  1  0
  1 15  1  0
  1 16  1  0
  2 17  1  0
  2 18  1  0
  3 19  1  0
  3 20  1  0
  4 21  1  0
  4 22  1  0
  5 23  1  0
  5 24  1  0
  6 25  1  0
  6 26  1  0
  7 27  1  0
  7 28  1  0
  8 29  1  0
  8 30  1  0
  9 31  1  0
  9 32  1  0
 13 33  1  0
 13 34  1  0
 13 35  1  0
M  END
>  <Ligand ID>  (1) 
LIG0000752

>  <Ligand>  (1) 
nonyl acetate

>  <SMILES>  (1) 
CCCCCCCCCOC(=O)C

>  <CID>  (1) 
8918.0

>  <ChEMBL ID>  (1) 
nan

>  <InChiKey>  (1) 
GJQIMXVRFNLMTB-UHFFFAOYSA-N

>  <InChi>  (1) 
InChI=1S/C11H22O2/c1-3-4-5-6-7-8-9-10-13-11(2)12/h3-10H2,1-2H3

>  <IUPAC Name>  (1) 
nonyl acetate

$$$$
