
     RDKit          3D

 25 24  0  0  0  0  0  0  0  0999 V2000
    2.4621   -0.4074    1.1518 C   0  0  0  0  0  0  0  0  0  0  0  0
    2.4035    0.0493   -0.2915 C   0  0  0  0  0  0  0  0  0  0  0  0
    0.9646   -0.0568   -0.7944 C   0  0  0  0  0  0  0  0  0  0  0  0
    0.1098    0.8230    0.0662 C   0  0  0  0  0  0  0  0  0  0  0  0
   -1.3567    0.8172   -0.3208 C   0  0  0  0  0  0  0  0  0  0  0  0
   -1.5500    1.2883   -1.7184 C   0  0  0  0  0  0  0  0  0  0  0  0
   -1.8435    0.4766   -2.6547 O   0  0  0  0  0  0  0  0  0  0  0  0
   -1.4062    2.6551   -2.0121 O   0  0  0  0  0  0  0  0  0  0  0  0
   -1.9162   -0.5779   -0.1862 C   0  0  0  0  0  0  0  0  0  0  0  0
   -1.8236   -1.1258    1.1945 C   0  0  0  0  0  0  0  0  0  0  0  0
    3.5280   -0.6695    1.4150 H   0  0  0  0  0  0  0  0  0  0  0  0
    1.8318   -1.3278    1.2159 H   0  0  0  0  0  0  0  0  0  0  0  0
    2.1068    0.4113    1.7878 H   0  0  0  0  0  0  0  0  0  0  0  0
    3.0860   -0.5644   -0.9032 H   0  0  0  0  0  0  0  0  0  0  0  0
    2.7850    1.0968   -0.3309 H   0  0  0  0  0  0  0  0  0  0  0  0
    0.9455    0.2124   -1.8545 H   0  0  0  0  0  0  0  0  0  0  0  0
    0.7088   -1.1286   -0.6845 H   0  0  0  0  0  0  0  0  0  0  0  0
    0.1815    0.4678    1.1137 H   0  0  0  0  0  0  0  0  0  0  0  0
    0.5101    1.8560    0.0454 H   0  0  0  0  0  0  0  0  0  0  0  0
   -1.8705    1.4686    0.4166 H   0  0  0  0  0  0  0  0  0  0  0  0
   -1.3225   -1.2487   -0.8450 H   0  0  0  0  0  0  0  0  0  0  0  0
   -2.9876   -0.5668   -0.4786 H   0  0  0  0  0  0  0  0  0  0  0  0
   -2.3808   -0.5267    1.9483 H   0  0  0  0  0  0  0  0  0  0  0  0
   -0.7981   -1.3122    1.5450 H   0  0  0  0  0  0  0  0  0  0  0  0
   -2.3677   -2.1099    1.1745 H   0  0  0  0  0  0  0  0  0  0  0  0
  1  2  1  0
  2  3  1  0
  3  4  1  0
  4  5  1  0
  5  6  1  0
  6  7  2  0
  6  8  1  0
  5  9  1  0
  9 10  1  0
  1 11  1  0
  1 12  1  0
  1 13  1  0
  2 14  1  0
  2 15  1  0
  3 16  1  0
  3 17  1  0
  4 18  1  0
  4 19  1  0
  5 20  1  0
  9 21  1  0
  9 22  1  0
 10 23  1  0
 10 24  1  0
 10 25  1  0
M  CHG  1   8  -1
M  END
>  <Ligand ID>  (1) 
LIG0000746

>  <Ligand>  (1) 
2-ethylhexanoate

>  <SMILES>  (1) 
CCCCC(C(=O)[O-])CC

>  <CID>  (1) 
4072356.0

>  <ChEMBL ID>  (1) 
nan

>  <InChiKey>  (1) 
OBETXYAYXDNJHR-UHFFFAOYSA-M

>  <InChi>  (1) 
InChI=1S/C8H16O2/c1-3-5-6-7(4-2)8(9)10/h7H,3-6H2,1-2H3,(H,9,10)/p-1

>  <IUPAC Name>  (1) 
2-ethylhexanoate

$$$$
