
     RDKit          3D

 70 71  0  0  0  0  0  0  0  0999 V2000
    9.9190   -0.2089   -2.1527 O   0  0  0  0  0  0  0  0  0  0  0  0
    8.7779   -0.9845   -1.8907 C   0  0  0  0  0  0  0  0  0  0  0  0
    7.5671   -0.0929   -1.8563 C   0  0  0  0  0  0  0  0  0  0  0  0
    7.0251    0.2253   -0.6393 C   0  0  0  0  0  0  0  0  0  0  0  0
    5.9003    1.0472   -0.5173 C   0  0  0  0  0  0  0  0  0  0  0  0
    5.3616    1.5233   -1.6786 C   0  0  0  0  0  0  0  0  0  0  0  0
    5.9053    1.2055   -2.9255 C   0  0  0  0  0  0  0  0  0  0  0  0
    7.0140    0.3931   -3.0146 C   0  0  0  0  0  0  0  0  0  0  0  0
    7.5610    0.0730   -4.2669 O   0  0  0  0  0  0  0  0  0  0  0  0
    5.4283    1.3168    0.8444 C   0  0  2  0  0  0  0  0  0  0  0  0
    4.3216    2.3057    0.9780 C   0  0  0  0  0  0  0  0  0  0  0  0
    3.1838    1.9518    0.1912 N   0  0  0  0  0  0  0  0  0  0  0  0
    2.4946    0.7652    0.6576 C   0  0  0  0  0  0  0  0  0  0  0  0
    1.8106    0.9561    1.9722 C   0  0  0  0  0  0  0  0  0  0  0  0
    1.1342   -0.3170    2.3883 C   0  0  0  0  0  0  0  0  0  0  0  0
    0.0938   -0.7285    1.3789 C   0  0  0  0  0  0  0  0  0  0  0  0
   -0.5829   -2.0258    1.8408 C   0  0  0  0  0  0  0  0  0  0  0  0
   -1.2517   -1.8612    3.1647 C   0  0  0  0  0  0  0  0  0  0  0  0
   -2.2148   -0.8795    3.1720 O   0  0  0  0  0  0  0  0  0  0  0  0
   -3.2123   -1.1536    2.2736 C   0  0  0  0  0  0  0  0  0  0  0  0
   -4.3066   -0.0950    2.3034 C   0  0  0  0  0  0  0  0  0  0  0  0
   -5.2735   -0.4023    1.4055 O   0  0  0  0  0  0  0  0  0  0  0  0
   -4.9484   -0.4782    0.0854 C   0  0  0  0  0  0  0  0  0  0  0  0
   -6.2304   -0.8142   -0.6448 C   0  0  0  0  0  0  0  0  0  0  0  0
   -6.5804   -2.1189   -0.8686 C   0  0  0  0  0  0  0  0  0  0  0  0
   -7.7700   -2.3905   -1.5451 C   0  0  0  0  0  0  0  0  0  0  0  0
   -8.5689   -1.3464   -1.9747 C   0  0  0  0  0  0  0  0  0  0  0  0
   -8.1851   -0.0382   -1.7318 C   0  0  0  0  0  0  0  0  0  0  0  0
   -7.0204    0.2536   -1.0688 C   0  0  0  0  0  0  0  0  0  0  0  0
   -9.1947    1.3103   -2.2731 S   0  0  0  0  0  0  0  0  0  0  0  0
  -10.6394    0.8838   -2.2824 O   0  0  0  0  0  0  0  0  0  0  0  0
   -9.0594    2.4683   -1.3041 O   0  0  0  0  0  0  0  0  0  0  0  0
   -8.7510    1.8067   -3.8511 N   0  0  0  0  0  0  0  0  0  0  0  0
    6.5012    1.7149    1.6632 O   0  0  0  0  0  0  0  0  0  0  0  0
   10.2482    0.1382   -1.2706 H   0  0  0  0  0  0  0  0  0  0  0  0
    8.6627   -1.7461   -2.7064 H   0  0  0  0  0  0  0  0  0  0  0  0
    8.8762   -1.5082   -0.9233 H   0  0  0  0  0  0  0  0  0  0  0  0
    7.5031   -0.1871    0.2640 H   0  0  0  0  0  0  0  0  0  0  0  0
    4.5017    2.1657   -1.6810 H   0  0  0  0  0  0  0  0  0  0  0  0
    5.4855    1.5775   -3.8388 H   0  0  0  0  0  0  0  0  0  0  0  0
    8.4075   -0.4701   -4.2912 H   0  0  0  0  0  0  0  0  0  0  0  0
    5.0963    0.3432    1.2833 H   0  0  0  0  0  0  0  0  0  0  0  0
    4.6567    3.3534    0.7635 H   0  0  0  0  0  0  0  0  0  0  0  0
    4.0547    2.3221    2.0758 H   0  0  0  0  0  0  0  0  0  0  0  0
    2.4639    2.7028    0.1339 H   0  0  0  0  0  0  0  0  0  0  0  0
    3.2253   -0.0651    0.6645 H   0  0  0  0  0  0  0  0  0  0  0  0
    1.7059    0.5439   -0.1181 H   0  0  0  0  0  0  0  0  0  0  0  0
    2.4726    1.3024    2.7909 H   0  0  0  0  0  0  0  0  0  0  0  0
    1.0028    1.7391    1.8834 H   0  0  0  0  0  0  0  0  0  0  0  0
    1.8709   -1.1295    2.5679 H   0  0  0  0  0  0  0  0  0  0  0  0
    0.6248   -0.1597    3.3673 H   0  0  0  0  0  0  0  0  0  0  0  0
    0.5144   -0.9522    0.3699 H   0  0  0  0  0  0  0  0  0  0  0  0
   -0.6580    0.0577    1.2460 H   0  0  0  0  0  0  0  0  0  0  0  0
   -1.2144   -2.3870    1.0208 H   0  0  0  0  0  0  0  0  0  0  0  0
    0.2718   -2.7387    1.9926 H   0  0  0  0  0  0  0  0  0  0  0  0
   -0.5193   -1.7174    3.9962 H   0  0  0  0  0  0  0  0  0  0  0  0
   -1.7001   -2.8786    3.4018 H   0  0  0  0  0  0  0  0  0  0  0  0
   -2.8190   -1.2733    1.2317 H   0  0  0  0  0  0  0  0  0  0  0  0
   -3.6829   -2.1194    2.5406 H   0  0  0  0  0  0  0  0  0  0  0  0
   -3.8980    0.9223    2.2005 H   0  0  0  0  0  0  0  0  0  0  0  0
   -4.7627   -0.1968    3.3299 H   0  0  0  0  0  0  0  0  0  0  0  0
   -4.5996    0.5284   -0.2668 H   0  0  0  0  0  0  0  0  0  0  0  0
   -4.1733   -1.1854   -0.2111 H   0  0  0  0  0  0  0  0  0  0  0  0
   -5.9330   -2.9301   -0.5211 H   0  0  0  0  0  0  0  0  0  0  0  0
   -8.0776   -3.4302   -1.7390 H   0  0  0  0  0  0  0  0  0  0  0  0
   -9.4988   -1.4905   -2.5010 H   0  0  0  0  0  0  0  0  0  0  0  0
   -6.7106    1.2784   -0.8723 H   0  0  0  0  0  0  0  0  0  0  0  0
   -7.7568    1.5535   -4.0391 H   0  0  0  0  0  0  0  0  0  0  0  0
   -8.8582    2.8513   -3.9486 H   0  0  0  0  0  0  0  0  0  0  0  0
    7.0078    0.9201    1.9059 H   0  0  0  0  0  0  0  0  0  0  0  0
  1  2  1  0
  2  3  1  0
  3  4  2  0
  4  5  1  0
  5  6  2  0
  6  7  1  0
  7  8  2  0
  8  9  1  0
  5 10  1  0
 10 11  1  0
 11 12  1  0
 12 13  1  0
 13 14  1  0
 14 15  1  0
 15 16  1  0
 16 17  1  0
 17 18  1  0
 18 19  1  0
 19 20  1  0
 20 21  1  0
 21 22  1  0
 22 23  1  0
 23 24  1  0
 24 25  2  0
 25 26  1  0
 26 27  2  0
 27 28  1  0
 28 29  2  0
 28 30  1  0
 30 31  2  0
 30 32  2  0
 30 33  1  0
 10 34  1  0
  8  3  1  0
 29 24  1  0
  1 35  1  0
  2 36  1  0
  2 37  1  0
  4 38  1  0
  6 39  1  0
  7 40  1  0
  9 41  1  0
 10 42  1  1
 11 43  1  0
 11 44  1  0
 12 45  1  0
 13 46  1  0
 13 47  1  0
 14 48  1  0
 14 49  1  0
 15 50  1  0
 15 51  1  0
 16 52  1  0
 16 53  1  0
 17 54  1  0
 17 55  1  0
 18 56  1  0
 18 57  1  0
 20 58  1  0
 20 59  1  0
 21 60  1  0
 21 61  1  0
 23 62  1  0
 23 63  1  0
 25 64  1  0
 26 65  1  0
 27 66  1  0
 29 67  1  0
 33 68  1  0
 33 69  1  0
 34 70  1  0
M  END
>  <Ligand ID>  (1) 
LIG0002531

>  <Ligand>  (1) 
CHEMBL1084656

>  <SMILES>  (1) 
OCc1cc(ccc1O)[C@H](CNCCCCCCOCCOCc1cccc(c1)S(=O)(=O)N)O

>  <CID>  (1) 
46833102.0

>  <ChEMBL ID>  (1) 
nan

>  <InChiKey>  (1) 
DAXMEJMNFJTTSO-DEOSSOPVSA-N

>  <InChi>  (1) 
InChI=1S/C24H36N2O7S/c25-34(30,31)22-7-5-6-19(14-22)18-33-13-12-32-11-4-2-1-3-10-26-16-24(29)20-8-9-23(28)21(15-20)17-27/h5-9,14-15,24,26-29H,1-4,10-13,16-18H2,(H2,25,30,31)/t24-/m0/s1

>  <IUPAC Name>  (1) 
3-[2-[6-[[(2R)-2-hydroxy-2-[4-hydroxy-3-(hydroxymethyl)phenyl]ethyl]amino]hexoxy]ethoxymethyl]benzenesulfonamide

$$$$
