
     RDKit          3D

 32 33  0  0  0  0  0  0  0  0999 V2000
   -6.6999    1.1591   -0.9285 Cl  0  0  0  0  0  0  0  0  0  0  0  0
   -5.1362    0.6397   -0.3604 C   0  0  0  0  0  0  0  0  0  0  0  0
   -4.6794   -0.5975   -0.7477 C   0  0  0  0  0  0  0  0  0  0  0  0
   -3.4396   -1.0520   -0.3190 C   0  0  0  0  0  0  0  0  0  0  0  0
   -2.6097   -0.3163    0.4972 C   0  0  0  0  0  0  0  0  0  0  0  0
   -3.1122    0.9415    0.8712 C   0  0  0  0  0  0  0  0  0  0  0  0
   -4.3346    1.3994    0.4540 C   0  0  0  0  0  0  0  0  0  0  0  0
   -2.1638    1.9883    1.9102 Cl  0  0  0  0  0  0  0  0  0  0  0  0
   -1.4053   -0.6537    0.9690 O   0  0  0  0  0  0  0  0  0  0  0  0
   -0.5410   -1.7134    0.8709 C   0  0  0  0  0  0  0  0  0  0  0  0
   -0.0726   -1.8800   -0.5555 C   0  0  0  0  0  0  0  0  0  0  0  0
    0.5771   -0.7565   -1.0054 O   0  0  0  0  0  0  0  0  0  0  0  0
    1.7361   -0.2143   -0.5943 C   0  0  0  0  0  0  0  0  0  0  0  0
    2.6021   -0.6558    0.3682 C   0  0  0  0  0  0  0  0  0  0  0  0
    3.7868    0.0228    0.6871 C   0  0  0  0  0  0  0  0  0  0  0  0
    4.1100    1.1693    0.0245 C   0  0  0  0  0  0  0  0  0  0  0  0
    3.2688    1.6097   -0.9210 N   0  0  0  0  0  0  0  0  0  0  0  0
    2.1319    0.9787   -1.2420 C   0  0  0  0  0  0  0  0  0  0  0  0
    1.0325    1.7340   -2.6180 Br  0  0  0  0  0  0  0  0  0  0  0  0
    5.3543    1.9290    0.3229 C   0  0  0  0  0  0  0  0  0  0  0  0
   -5.3053   -1.2219   -1.3994 H   0  0  0  0  0  0  0  0  0  0  0  0
   -3.1643   -2.0356   -0.6530 H   0  0  0  0  0  0  0  0  0  0  0  0
   -4.7062    2.3712    0.7518 H   0  0  0  0  0  0  0  0  0  0  0  0
   -1.0263   -2.6857    1.2179 H   0  0  0  0  0  0  0  0  0  0  0  0
    0.3161   -1.5725    1.5464 H   0  0  0  0  0  0  0  0  0  0  0  0
    0.5760   -2.8104   -0.6315 H   0  0  0  0  0  0  0  0  0  0  0  0
   -0.9622   -2.1359   -1.1785 H   0  0  0  0  0  0  0  0  0  0  0  0
    2.4419   -1.5617    0.9222 H   0  0  0  0  0  0  0  0  0  0  0  0
    4.4493   -0.3511    1.4527 H   0  0  0  0  0  0  0  0  0  0  0  0
    5.8168    1.4785    1.2144 H   0  0  0  0  0  0  0  0  0  0  0  0
    6.0540    1.8020   -0.5438 H   0  0  0  0  0  0  0  0  0  0  0  0
    5.1050    2.9911    0.4974 H   0  0  0  0  0  0  0  0  0  0  0  0
  1  2  1  0
  2  3  2  0
  3  4  1  0
  4  5  2  0
  5  6  1  0
  6  7  2  0
  6  8  1  0
  5  9  1  0
  9 10  1  0
 10 11  1  0
 11 12  1  0
 12 13  1  0
 13 14  2  0
 14 15  1  0
 15 16  2  0
 16 17  1  0
 17 18  2  0
 18 19  1  0
 16 20  1  0
  7  2  1  0
 18 13  1  0
  3 21  1  0
  4 22  1  0
  7 23  1  0
 10 24  1  0
 10 25  1  0
 11 26  1  0
 11 27  1  0
 14 28  1  0
 15 29  1  0
 20 30  1  0
 20 31  1  0
 20 32  1  0
M  END
>  <Ligand ID>  (1) 
LIG0001740

>  <Ligand>  (1) 
CYM50199

>  <SMILES>  (1) 
Clc1ccc(c(c1)Cl)OCCOc1ccc(nc1Br)C

>  <CID>  (1) 
44620895.0

>  <ChEMBL ID>  (1) 
nan

>  <InChiKey>  (1) 
AGOUWTBVEAKQIJ-UHFFFAOYSA-N

>  <InChi>  (1) 
InChI=1S/C14H12BrCl2NO2/c1-9-2-4-13(14(15)18-9)20-7-6-19-12-5-3-10(16)8-11(12)17/h2-5,8H,6-7H2,1H3

>  <IUPAC Name>  (1) 
2-bromo-3-[2-(2,4-dichlorophenoxy)ethoxy]-6-methylpyridine

$$$$
