
     RDKit          3D

 52 56  0  0  0  0  0  0  0  0999 V2000
    2.3584   -3.2622    0.3749 O   0  0  0  0  0  0  0  0  0  0  0  0
    3.0120   -2.1757    0.2823 C   0  0  0  0  0  0  0  0  0  0  0  0
    4.3078   -2.0772    0.3428 O   0  0  0  0  0  0  0  0  0  0  0  0
    4.6620   -0.8064    0.2114 C   0  0  0  0  0  0  0  0  0  0  0  0
    3.5229   -0.0900    0.0630 N   0  0  0  0  0  0  0  0  0  0  0  0
    2.5081   -0.9348    0.1067 N   0  0  0  0  0  0  0  0  0  0  0  0
    1.0845   -0.6894   -0.0018 C   0  0  0  0  0  0  0  0  0  0  0  0
    0.8963    0.7167   -0.5249 C   0  0  0  0  0  0  0  0  0  0  0  0
   -0.5847    1.0381   -0.7095 C   0  0  0  0  0  0  0  0  0  0  0  0
   -1.3139    0.5595    0.4457 N   0  0  0  0  0  0  0  0  0  0  0  0
   -0.4493    0.3001    1.6284 C   0  0  0  0  0  0  0  0  0  0  0  0
    0.3377   -0.9426    1.2680 C   0  0  0  0  0  0  0  0  0  0  0  0
   -2.6693    0.3239    0.5807 C   0  0  0  0  0  0  0  0  0  0  0  0
   -3.0644   -0.1125    1.7391 O   0  0  0  0  0  0  0  0  0  0  0  0
   -3.7600    0.4883   -0.3886 C   0  0  0  0  0  0  0  0  0  0  0  0
   -3.6047    1.2781   -1.6453 C   0  0  0  0  0  0  0  0  0  0  0  0
   -3.5697   -0.1761   -1.7666 C   0  0  0  0  0  0  0  0  0  0  0  0
   -5.1673    0.2854    0.1314 C   0  0  0  0  0  0  0  0  0  0  0  0
   -6.1786    1.1759   -0.1476 C   0  0  0  0  0  0  0  0  0  0  0  0
   -7.4703    0.9780    0.3251 C   0  0  0  0  0  0  0  0  0  0  0  0
   -7.7731   -0.1158    1.0866 C   0  0  0  0  0  0  0  0  0  0  0  0
   -6.7903   -1.0091    1.3756 C   0  0  0  0  0  0  0  0  0  0  0  0
   -5.4965   -0.8103    0.9015 C   0  0  0  0  0  0  0  0  0  0  0  0
    6.0263   -0.3343    0.2310 C   0  0  0  0  0  0  0  0  0  0  0  0
    7.0321   -1.2794    0.3986 C   0  0  0  0  0  0  0  0  0  0  0  0
    8.3259   -0.8121    0.4150 C   0  0  0  0  0  0  0  0  0  0  0  0
    8.6033    0.5249    0.2720 C   0  0  0  0  0  0  0  0  0  0  0  0
    7.5885    1.4504    0.1063 C   0  0  0  0  0  0  0  0  0  0  0  0
    6.2786    1.0091    0.0862 C   0  0  0  0  0  0  0  0  0  0  0  0
    0.7296   -1.4158   -0.7886 H   0  0  0  0  0  0  0  0  0  0  0  0
    1.4260    1.4687    0.0886 H   0  0  0  0  0  0  0  0  0  0  0  0
    1.3538    0.7602   -1.5319 H   0  0  0  0  0  0  0  0  0  0  0  0
   -0.8595    0.6098   -1.6625 H   0  0  0  0  0  0  0  0  0  0  0  0
   -0.6334    2.1585   -0.6689 H   0  0  0  0  0  0  0  0  0  0  0  0
    0.2590    1.1460    1.7198 H   0  0  0  0  0  0  0  0  0  0  0  0
   -1.0610    0.1914    2.5402 H   0  0  0  0  0  0  0  0  0  0  0  0
    0.9990   -1.2079    2.1178 H   0  0  0  0  0  0  0  0  0  0  0  0
   -0.4362   -1.7321    1.1048 H   0  0  0  0  0  0  0  0  0  0  0  0
   -2.7592    1.9592   -1.6587 H   0  0  0  0  0  0  0  0  0  0  0  0
   -4.5281    1.7898   -2.0516 H   0  0  0  0  0  0  0  0  0  0  0  0
   -4.4691   -0.6599   -2.2373 H   0  0  0  0  0  0  0  0  0  0  0  0
   -2.6975   -0.8196   -1.8342 H   0  0  0  0  0  0  0  0  0  0  0  0
   -6.0203    2.0575   -0.7360 H   0  0  0  0  0  0  0  0  0  0  0  0
   -8.2673    1.6709    0.1101 H   0  0  0  0  0  0  0  0  0  0  0  0
   -8.7906   -0.2593    1.4508 H   0  0  0  0  0  0  0  0  0  0  0  0
   -7.0087   -1.8950    1.9854 H   0  0  0  0  0  0  0  0  0  0  0  0
   -4.7774   -1.5530    1.1636 H   0  0  0  0  0  0  0  0  0  0  0  0
    6.8305   -2.3258    0.5116 H   0  0  0  0  0  0  0  0  0  0  0  0
    9.1721   -1.4904    0.5426 H   0  0  0  0  0  0  0  0  0  0  0  0
    9.6427    0.8621    0.2892 H   0  0  0  0  0  0  0  0  0  0  0  0
    7.8114    2.4961   -0.0053 H   0  0  0  0  0  0  0  0  0  0  0  0
    5.4316    1.6881   -0.0408 H   0  0  0  0  0  0  0  0  0  0  0  0
  1  2  2  0
  2  3  1  0
  3  4  1  0
  4  5  2  0
  5  6  1  0
  6  7  1  0
  7  8  1  0
  8  9  1  0
  9 10  1  0
 10 11  1  0
 11 12  1  0
 10 13  1  0
 13 14  2  0
 13 15  1  0
 15 16  1  0
 16 17  1  0
 15 18  1  0
 18 19  2  0
 19 20  1  0
 20 21  2  0
 21 22  1  0
 22 23  2  0
  4 24  1  0
 24 25  2  0
 25 26  1  0
 26 27  2  0
 27 28  1  0
 28 29  2  0
  6  2  1  0
 12  7  1  0
 17 15  1  0
 23 18  1  0
 29 24  1  0
  7 30  1  0
  8 31  1  0
  8 32  1  0
  9 33  1  0
  9 34  1  0
 11 35  1  0
 11 36  1  0
 12 37  1  0
 12 38  1  0
 16 39  1  0
 16 40  1  0
 17 41  1  0
 17 42  1  0
 19 43  1  0
 20 44  1  0
 21 45  1  0
 22 46  1  0
 23 47  1  0
 25 48  1  0
 26 49  1  0
 27 50  1  0
 28 51  1  0
 29 52  1  0
M  END
>  <Ligand ID>  (1) 
LIG0003142

>  <Ligand>  (1) 
MLS-0359128.0001

>  <SMILES>  (1) 
O=c1oc(nn1C1CCN(CC1)C(=O)C1(CC1)c1ccccc1)c1ccccc1

>  <CID>  (1) 
23612554.0

>  <ChEMBL ID>  (1) 
nan

>  <InChiKey>  (1) 
NAGHLZPRCQGGKY-UHFFFAOYSA-N

>  <InChi>  (1) 
InChI=1S/C23H23N3O3/c27-21(23(13-14-23)18-9-5-2-6-10-18)25-15-11-19(12-16-25)26-22(28)29-20(24-26)17-7-3-1-4-8-17/h1-10,19H,11-16H2

>  <IUPAC Name>  (1) 
5-phenyl-3-[1-(1-phenylcyclopropanecarbonyl)piperidin-4-yl]-1,3,4-oxadiazol-2-one

$$$$
