
     RDKit          3D

 69 74  0  0  0  0  0  0  0  0999 V2000
   -8.4776   -1.6404    1.1074 Cl  0  0  0  0  0  0  0  0  0  0  0  0
   -6.7255   -1.5702    0.9501 C   0  0  0  0  0  0  0  0  0  0  0  0
   -5.9447   -1.6396    2.0665 C   0  0  0  0  0  0  0  0  0  0  0  0
   -4.5642   -1.5809    1.9017 C   0  0  0  0  0  0  0  0  0  0  0  0
   -3.9815   -1.4563    0.6553 C   0  0  0  0  0  0  0  0  0  0  0  0
   -4.8260   -1.3920   -0.4326 C   0  0  0  0  0  0  0  0  0  0  0  0
   -6.2128   -1.4472   -0.3076 C   0  0  0  0  0  0  0  0  0  0  0  0
   -2.5122   -1.4187    0.4931 C   0  0  0  0  0  0  0  0  0  0  0  0
   -1.8840   -0.5759   -0.2733 C   0  0  0  0  0  0  0  0  0  0  0  0
   -2.4919    0.4790   -1.1029 C   0  0  0  0  0  0  0  0  0  0  0  0
   -1.6800    1.6924   -0.9159 N   0  0  0  0  0  0  0  0  0  0  0  0
   -0.2412    1.6889   -0.9242 C   0  0  0  0  0  0  0  0  0  0  0  0
    0.3789    0.3967   -0.6503 C   0  0  0  0  0  0  0  0  0  0  0  0
   -0.4096   -0.6909   -0.3380 C   0  0  0  0  0  0  0  0  0  0  0  0
    0.4122   -1.7352   -0.1407 N   0  0  0  0  0  0  0  0  0  0  0  0
    1.6662   -1.3148   -0.3229 N   0  0  0  0  0  0  0  0  0  0  0  0
    1.6844   -0.0000   -0.6398 C   0  0  0  0  0  0  0  0  0  0  0  0
    2.8814    0.8144   -0.9125 C   0  0  0  0  0  0  0  0  0  0  0  0
    2.7070    2.0106   -1.1780 O   0  0  0  0  0  0  0  0  0  0  0  0
    4.1646    0.1829   -0.8560 N   0  0  0  0  0  0  0  0  0  0  0  0
    5.3970    0.9033   -1.1093 C   0  0  1  0  0  0  0  0  0  0  0  0
    6.4021    0.6754   -0.0570 C   0  0  0  0  0  0  0  0  0  0  0  0
    7.1414    1.6964    0.4927 C   0  0  0  0  0  0  0  0  0  0  0  0
    8.0782    1.4692    1.4741 C   0  0  0  0  0  0  0  0  0  0  0  0
    8.2681    0.1650    1.9086 C   0  0  0  0  0  0  0  0  0  0  0  0
    7.4965   -0.8323    1.3222 C   0  0  0  0  0  0  0  0  0  0  0  0
    6.5899   -0.5847    0.3672 N   0  0  0  0  0  0  0  0  0  0  0  0
    5.9432    0.3214   -2.4205 C   0  0  0  0  0  0  0  0  0  0  0  0
    0.1140   -3.0779    0.1957 C   0  0  0  0  0  0  0  0  0  0  0  0
   -0.5580   -3.9402   -0.6733 C   0  0  0  0  0  0  0  0  0  0  0  0
   -0.7879   -5.2318   -0.2358 C   0  0  0  0  0  0  0  0  0  0  0  0
   -0.3682   -5.6504    1.0134 C   0  0  0  0  0  0  0  0  0  0  0  0
    0.2987   -4.7892    1.8718 C   0  0  0  0  0  0  0  0  0  0  0  0
    0.5331   -3.5125    1.4549 C   0  0  0  0  0  0  0  0  0  0  0  0
    0.8286   -5.3035    3.4409 Cl  0  0  0  0  0  0  0  0  0  0  0  0
   -0.6433   -7.2838    1.6001 Cl  0  0  0  0  0  0  0  0  0  0  0  0
   -2.3368    2.9608   -0.7110 C   0  0  0  0  0  0  0  0  0  0  0  0
   -1.6867    4.0266   -0.5472 O   0  0  0  0  0  0  0  0  0  0  0  0
   -3.8345    3.0207   -0.6912 C   0  0  0  0  0  0  0  0  0  0  0  0
   -4.1940    4.4076   -0.4719 N   0  0  0  0  0  0  0  0  0  0  0  0
   -4.3765    4.9724    0.7572 C   0  0  0  0  0  0  0  0  0  0  0  0
   -4.6982    6.2544    0.5957 N   0  0  0  0  0  0  0  0  0  0  0  0
   -4.7250    6.5210   -0.7210 C   0  0  0  0  0  0  0  0  0  0  0  0
   -4.4145    5.3782   -1.3326 N   0  0  0  0  0  0  0  0  0  0  0  0
   -6.3943   -1.7349    3.0236 H   0  0  0  0  0  0  0  0  0  0  0  0
   -3.8974   -1.6311    2.7541 H   0  0  0  0  0  0  0  0  0  0  0  0
   -4.4663   -1.3069   -1.4579 H   0  0  0  0  0  0  0  0  0  0  0  0
   -6.8547   -1.3941   -1.1778 H   0  0  0  0  0  0  0  0  0  0  0  0
   -1.9840   -2.1609    1.0791 H   0  0  0  0  0  0  0  0  0  0  0  0
   -3.5356    0.7342   -0.8131 H   0  0  0  0  0  0  0  0  0  0  0  0
   -2.3794    0.1982   -2.1677 H   0  0  0  0  0  0  0  0  0  0  0  0
    0.0783    2.1030   -1.9044 H   0  0  0  0  0  0  0  0  0  0  0  0
    0.0762    2.4201   -0.1252 H   0  0  0  0  0  0  0  0  0  0  0  0
    4.2263   -0.8271   -0.6261 H   0  0  0  0  0  0  0  0  0  0  0  0
    5.1845    1.9716   -1.3169 H   0  0  0  0  0  0  0  0  0  0  0  0
    6.9707    2.6942    0.1354 H   0  0  0  0  0  0  0  0  0  0  0  0
    8.6787    2.2314    1.9320 H   0  0  0  0  0  0  0  0  0  0  0  0
    8.9980   -0.0829    2.6867 H   0  0  0  0  0  0  0  0  0  0  0  0
    7.6670   -1.8553    1.6839 H   0  0  0  0  0  0  0  0  0  0  0  0
    5.9039   -0.7847   -2.3199 H   0  0  0  0  0  0  0  0  0  0  0  0
    6.9513    0.6880   -2.6573 H   0  0  0  0  0  0  0  0  0  0  0  0
    5.2114    0.6891   -3.1987 H   0  0  0  0  0  0  0  0  0  0  0  0
   -0.8725   -3.5859   -1.6378 H   0  0  0  0  0  0  0  0  0  0  0  0
   -1.2972   -5.9390   -0.8552 H   0  0  0  0  0  0  0  0  0  0  0  0
    1.0599   -2.8409    2.1385 H   0  0  0  0  0  0  0  0  0  0  0  0
   -4.2643    2.6665   -1.6516 H   0  0  0  0  0  0  0  0  0  0  0  0
   -4.2386    2.4375    0.1667 H   0  0  0  0  0  0  0  0  0  0  0  0
   -4.2714    4.4443    1.7170 H   0  0  0  0  0  0  0  0  0  0  0  0
   -4.9613    7.4966   -1.1104 H   0  0  0  0  0  0  0  0  0  0  0  0
  1  2  1  0
  2  3  2  0
  3  4  1  0
  4  5  2  0
  5  6  1  0
  6  7  2  0
  5  8  1  0
  8  9  2  0
  9 10  1  0
 10 11  1  0
 11 12  1  0
 12 13  1  0
 13 14  2  0
 14 15  1  0
 15 16  1  0
 16 17  2  0
 17 18  1  0
 18 19  2  0
 18 20  1  0
 20 21  1  0
 21 22  1  0
 22 23  2  0
 23 24  1  0
 24 25  2  0
 25 26  1  0
 26 27  2  0
 21 28  1  0
 15 29  1  0
 29 30  2  0
 30 31  1  0
 31 32  2  0
 32 33  1  0
 33 34  2  0
 33 35  1  0
 32 36  1  0
 11 37  1  0
 37 38  2  0
 37 39  1  0
 39 40  1  0
 40 41  1  0
 41 42  2  0
 42 43  1  0
 43 44  2  0
  7  2  1  0
 14  9  1  0
 27 22  1  0
 34 29  1  0
 44 40  1  0
 17 13  1  0
  3 45  1  0
  4 46  1  0
  6 47  1  0
  7 48  1  0
  8 49  1  0
 10 50  1  0
 10 51  1  0
 12 52  1  0
 12 53  1  0
 20 54  1  0
 21 55  1  6
 23 56  1  0
 24 57  1  0
 25 58  1  0
 26 59  1  0
 28 60  1  0
 28 61  1  0
 28 62  1  0
 30 63  1  0
 31 64  1  0
 34 65  1  0
 39 66  1  0
 39 67  1  0
 41 68  1  0
 43 69  1  0
M  END
>  <Ligand ID>  (1) 
LIG0005433

>  <Ligand>  (1) 
CHEMBL3915613

>  <SMILES>  (1) 
Clc1ccc(cc1)/C=C/1\CN(Cc2c1n(nc2C(=O)N[C@@H](c1ccccn1)C)c1ccc(c(c1)Cl)Cl)C(=O)Cn1cncn1

>  <CID>  (1) 
134143149.0

>  <ChEMBL ID>  (1) 
nan

>  <InChiKey>  (1) 
MANFWCLBSHQVMU-MRUVXERFSA-N

>  <InChi>  (1) 
InChI=1S/C31H25Cl3N8O2/c1-19(27-4-2-3-11-36-27)38-31(44)29-24-15-40(28(43)16-41-18-35-17-37-41)14-21(12-20-5-7-22(32)8-6-20)30(24)42(39-29)23-9-10-25(33)26(34)13-23/h2-13,17-19H,14-16H2,1H3,(H,38,44)/b21-12+/t19-/m1/s1

>  <IUPAC Name>  (1) 
(7E)-7-[(4-chlorophenyl)methylidene]-1-(3,4-dichlorophenyl)-N-[(1R)-1-pyridin-2-ylethyl]-5-[2-(1,2,4-triazol-1-yl)acetyl]-4,6-dihydropyrazolo[4,3-c]pyridine-3-carboxamide

$$$$
