
     RDKit          3D

 28 30  0  0  0  0  0  0  0  0999 V2000
   -3.9617    3.2179   -0.2317 Br  0  0  0  0  0  0  0  0  0  0  0  0
   -3.5030    1.8684    1.0805 C   0  0  0  0  0  0  0  0  0  0  0  0
   -2.7316    0.7417    0.4918 C   0  0  0  0  0  0  0  0  0  0  0  0
   -3.4453   -0.3471   -0.0097 C   0  0  0  0  0  0  0  0  0  0  0  0
   -2.6975   -1.3855   -0.5540 C   0  0  0  0  0  0  0  0  0  0  0  0
   -1.3189   -1.3567   -0.6036 C   0  0  0  0  0  0  0  0  0  0  0  0
   -0.6807   -0.2316   -0.0808 C   0  0  0  0  0  0  0  0  0  0  0  0
   -1.3858    0.7836    0.4502 N   0  0  0  0  0  0  0  0  0  0  0  0
    0.7178   -0.1981   -0.1289 C   0  0  0  0  0  0  0  0  0  0  0  0
    1.3115    0.9013    0.3833 N   0  0  0  0  0  0  0  0  0  0  0  0
    2.6550    0.9740    0.3568 C   0  0  0  0  0  0  0  0  0  0  0  0
    3.3399    2.1671    0.9109 C   0  0  0  0  0  0  0  0  0  0  0  0
    3.7390    1.9344    2.7973 Br  0  0  0  0  0  0  0  0  0  0  0  0
    3.4074   -0.0666   -0.1887 C   0  0  0  0  0  0  0  0  0  0  0  0
    2.8087   -1.1946   -0.7148 C   0  0  0  0  0  0  0  0  0  0  0  0
    1.4305   -1.2456   -0.6761 C   0  0  0  0  0  0  0  0  0  0  0  0
    0.7840   -2.3488   -1.1878 C   0  0  0  0  0  0  0  0  0  0  0  0
   -0.6056   -2.4094   -1.1533 C   0  0  0  0  0  0  0  0  0  0  0  0
   -2.9575    2.3613    1.9025 H   0  0  0  0  0  0  0  0  0  0  0  0
   -4.4718    1.4973    1.4779 H   0  0  0  0  0  0  0  0  0  0  0  0
   -4.5330   -0.3847    0.0221 H   0  0  0  0  0  0  0  0  0  0  0  0
   -3.1786   -2.2631   -0.9625 H   0  0  0  0  0  0  0  0  0  0  0  0
    4.3450    2.3202    0.4209 H   0  0  0  0  0  0  0  0  0  0  0  0
    2.7740    3.0991    0.7092 H   0  0  0  0  0  0  0  0  0  0  0  0
    4.4870   -0.0351   -0.2231 H   0  0  0  0  0  0  0  0  0  0  0  0
    3.3830   -1.9866   -1.1301 H   0  0  0  0  0  0  0  0  0  0  0  0
    1.3791   -3.1439   -1.6056 H   0  0  0  0  0  0  0  0  0  0  0  0
   -1.0908   -3.2689   -1.5528 H   0  0  0  0  0  0  0  0  0  0  0  0
  1  2  1  0
  2  3  1  0
  3  4  2  0
  4  5  1  0
  5  6  2  0
  6  7  1  0
  7  8  2  0
  7  9  1  0
  9 10  2  0
 10 11  1  0
 11 12  1  0
 12 13  1  0
 11 14  2  0
 14 15  1  0
 15 16  2  0
 16 17  1  0
 17 18  2  0
  8  3  1  0
 16  9  1  0
 18  6  1  0
  2 19  1  0
  2 20  1  0
  4 21  1  0
  5 22  1  0
 12 23  1  0
 12 24  1  0
 14 25  1  0
 15 26  1  0
 17 27  1  0
 18 28  1  0
M  END
>  <Ligand ID>  (1) 
LIG0002802

>  <Ligand>  (1) 
NSC602850

>  <SMILES>  (1) 
BrCc1ccc2c(n1)c1nc(CBr)ccc1cc2

>  <CID>  (1) 
353741.0

>  <ChEMBL ID>  (1) 
nan

>  <InChiKey>  (1) 
DGDBWGQSYCEWHT-UHFFFAOYSA-N

>  <InChi>  (1) 
InChI=1S/C14H10Br2N2/c15-7-11-5-3-9-1-2-10-4-6-12(8-16)18-14(10)13(9)17-11/h1-6H,7-8H2

>  <IUPAC Name>  (1) 
2,9-bis(bromomethyl)-1,10-phenanthroline

$$$$
