
     RDKit          3D

 30 30  0  0  0  0  0  0  0  0999 V2000
    4.2814    1.1262   -0.3770 C   0  0  0  0  0  0  0  0  0  0  0  0
    2.8073    0.7488   -0.5594 C   0  0  0  0  0  0  0  0  0  0  0  0
    2.4731   -0.5056    0.1765 C   0  0  0  0  0  0  0  0  0  0  0  0
    1.0315   -0.9437    0.0383 C   0  0  0  0  0  0  0  0  0  0  0  0
    0.1128    0.1227    0.5699 C   0  0  0  0  0  0  0  0  0  0  0  0
   -1.3216   -0.2743    0.4552 C   0  0  0  0  0  0  0  0  0  0  0  0
   -2.2928    0.3302   -0.2098 C   0  0  0  0  0  0  0  0  0  0  0  0
   -2.1779    1.5762   -1.0172 C   0  0  0  0  0  0  0  0  0  0  0  0
   -3.5754   -0.4052   -0.0565 C   0  0  0  0  0  0  0  0  0  0  0  0
   -3.2324   -1.6714    0.6884 C   0  0  0  0  0  0  0  0  0  0  0  0
   -1.8387   -1.4758    1.1256 C   0  0  0  0  0  0  0  0  0  0  0  0
   -1.2167   -2.2300    1.9412 O   0  0  0  0  0  0  0  0  0  0  0  0
    4.5322    1.2134    0.6995 H   0  0  0  0  0  0  0  0  0  0  0  0
    4.9166    0.3768   -0.8871 H   0  0  0  0  0  0  0  0  0  0  0  0
    4.4067    2.1151   -0.8585 H   0  0  0  0  0  0  0  0  0  0  0  0
    2.6154    0.6984   -1.6298 H   0  0  0  0  0  0  0  0  0  0  0  0
    2.2436    1.6280   -0.1496 H   0  0  0  0  0  0  0  0  0  0  0  0
    2.6632   -0.3803    1.2625 H   0  0  0  0  0  0  0  0  0  0  0  0
    3.1139   -1.3281   -0.2073 H   0  0  0  0  0  0  0  0  0  0  0  0
    0.8754   -1.1194   -1.0463 H   0  0  0  0  0  0  0  0  0  0  0  0
    0.8836   -1.9169    0.5154 H   0  0  0  0  0  0  0  0  0  0  0  0
    0.3083    1.0485   -0.0095 H   0  0  0  0  0  0  0  0  0  0  0  0
    0.3068    0.3590    1.6328 H   0  0  0  0  0  0  0  0  0  0  0  0
   -3.0439    2.2363   -0.8082 H   0  0  0  0  0  0  0  0  0  0  0  0
   -2.0704    1.3658   -2.0918 H   0  0  0  0  0  0  0  0  0  0  0  0
   -1.2837    2.1595   -0.7122 H   0  0  0  0  0  0  0  0  0  0  0  0
   -4.3486    0.1728    0.4700 H   0  0  0  0  0  0  0  0  0  0  0  0
   -3.8945   -0.6451   -1.1119 H   0  0  0  0  0  0  0  0  0  0  0  0
   -3.3470   -2.5486    0.0046 H   0  0  0  0  0  0  0  0  0  0  0  0
   -3.9284   -1.8331    1.5498 H   0  0  0  0  0  0  0  0  0  0  0  0
  1  2  1  0
  2  3  1  0
  3  4  1  0
  4  5  1  0
  5  6  1  0
  6  7  2  0
  7  8  1  0
  7  9  1  0
  9 10  1  0
 10 11  1  0
 11 12  2  0
 11  6  1  0
  1 13  1  0
  1 14  1  0
  1 15  1  0
  2 16  1  0
  2 17  1  0
  3 18  1  0
  3 19  1  0
  4 20  1  0
  4 21  1  0
  5 22  1  0
  5 23  1  0
  8 24  1  0
  8 25  1  0
  8 26  1  0
  9 27  1  0
  9 28  1  0
 10 29  1  0
 10 30  1  0
M  END
>  <Ligand ID>  (1) 
LIG0000114

>  <Ligand>  (1) 
Dihydrojasmone

>  <SMILES>  (1) 
CCCCCC1=C(C)CCC1=O

>  <CID>  (1) 
62378.0

>  <ChEMBL ID>  (1) 
nan

>  <InChiKey>  (1) 
YCIXWYOBMVNGTB-UHFFFAOYSA-N

>  <InChi>  (1) 
InChI=1S/C11H18O/c1-3-4-5-6-10-9(2)7-8-11(10)12/h3-8H2,1-2H3

>  <IUPAC Name>  (1) 
3-methyl-2-pentylcyclopent-2-en-1-one

$$$$
