
     RDKit          3D

 35 37  0  0  0  0  0  0  0  0999 V2000
   -1.6390    1.7758    0.9471 C   0  0  0  0  0  0  0  0  0  0  0  0
   -2.1986    1.3938   -0.4060 C   0  0  0  0  0  0  0  0  0  0  0  0
   -1.8557   -0.0175   -0.7219 C   0  0  2  0  0  0  0  0  0  0  0  0
   -2.4216   -0.9427    0.2859 N   0  0  0  0  0  0  0  0  0  0  0  0
   -2.4219   -2.2506   -0.3932 C   0  0  0  0  0  0  0  0  0  0  0  0
   -1.0036   -2.7488   -0.5254 C   0  0  0  0  0  0  0  0  0  0  0  0
   -0.0957   -1.6465   -0.2951 N   0  0  0  0  0  0  0  0  0  0  0  0
   -0.4603   -0.3754   -0.9402 C   0  0  2  0  0  0  0  0  0  0  0  0
    0.6408    0.4697   -0.5589 C   0  0  0  0  0  0  0  0  0  0  0  0
    0.9325    1.8052   -0.8655 C   0  0  0  0  0  0  0  0  0  0  0  0
    2.0748    2.4219   -0.3624 C   0  0  0  0  0  0  0  0  0  0  0  0
    2.9713    1.7663    0.4530 C   0  0  0  0  0  0  0  0  0  0  0  0
    2.6897    0.4521    0.7574 C   0  0  0  0  0  0  0  0  0  0  0  0
    1.5620   -0.1544    0.2595 C   0  0  0  0  0  0  0  0  0  0  0  0
    1.1014   -1.5213    0.4409 C   0  0  0  0  0  0  0  0  0  0  0  0
    1.6365   -2.4412    1.1137 O   0  0  0  0  0  0  0  0  0  0  0  0
    3.6339   -0.3047    1.6403 C   0  0  0  0  0  0  0  0  0  0  0  0
    4.0745   -1.3846    0.8650 F   0  0  0  0  0  0  0  0  0  0  0  0
    3.0170   -0.8121    2.7476 F   0  0  0  0  0  0  0  0  0  0  0  0
    4.7349    0.4571    1.9159 F   0  0  0  0  0  0  0  0  0  0  0  0
   -2.3898    1.8250    1.7515 H   0  0  0  0  0  0  0  0  0  0  0  0
   -1.1265    2.7773    0.9258 H   0  0  0  0  0  0  0  0  0  0  0  0
   -0.8587    1.0461    1.3038 H   0  0  0  0  0  0  0  0  0  0  0  0
   -1.9939    2.1082   -1.2106 H   0  0  0  0  0  0  0  0  0  0  0  0
   -3.3233    1.5143   -0.2534 H   0  0  0  0  0  0  0  0  0  0  0  0
   -2.4513   -0.2808   -1.6235 H   0  0  0  0  0  0  0  0  0  0  0  0
   -3.4394   -0.6731    0.3165 H   0  0  0  0  0  0  0  0  0  0  0  0
   -2.8424   -2.1382   -1.4135 H   0  0  0  0  0  0  0  0  0  0  0  0
   -3.0600   -2.9660    0.1458 H   0  0  0  0  0  0  0  0  0  0  0  0
   -0.8236   -3.1139   -1.5559 H   0  0  0  0  0  0  0  0  0  0  0  0
   -0.8055   -3.6019    0.1690 H   0  0  0  0  0  0  0  0  0  0  0  0
   -0.2959   -0.6153   -2.0384 H   0  0  0  0  0  0  0  0  0  0  0  0
    0.3147    2.4106   -1.4919 H   0  0  0  0  0  0  0  0  0  0  0  0
    2.2845    3.4656   -0.6134 H   0  0  0  0  0  0  0  0  0  0  0  0
    3.8380    2.3001    0.8109 H   0  0  0  0  0  0  0  0  0  0  0  0
  1  2  1  0
  2  3  1  0
  3  4  1  0
  4  5  1  0
  5  6  1  0
  6  7  1  0
  7  8  1  0
  8  9  1  0
  9 10  2  0
 10 11  1  0
 11 12  2  0
 12 13  1  0
 13 14  2  0
 14 15  1  0
 15 16  2  0
 13 17  1  0
 17 18  1  0
 17 19  1  0
 17 20  1  0
  8  3  1  0
 14  9  1  0
 15  7  1  0
  1 21  1  0
  1 22  1  0
  1 23  1  0
  2 24  1  0
  2 25  1  0
  3 26  1  6
  4 27  1  0
  5 28  1  0
  5 29  1  0
  6 30  1  0
  6 31  1  0
  8 32  1  6
 10 33  1  0
 11 34  1  0
 12 35  1  0
M  END
>  <Ligand ID>  (1) 
LIG0003542

>  <Ligand>  (1) 
CHEMBL375302

>  <SMILES>  (1) 
CC[C@@H]1NCCN2[C@@H]1c1cccc(c1C2=O)C(F)(F)F

>  <CID>  (1) 
16115388.0

>  <ChEMBL ID>  (1) 
nan

>  <InChiKey>  (1) 
IAQXADIYISFYCJ-CMPLNLGQSA-N

>  <InChi>  (1) 
InChI=1S/C14H15F3N2O/c1-2-10-12-8-4-3-5-9(14(15,16)17)11(8)13(20)19(12)7-6-18-10/h3-5,10,12,18H,2,6-7H2,1H3/t10-,12+/m0/s1

>  <IUPAC Name>  (1) 
(1S,10bR)-1-ethyl-7-(trifluoromethyl)-2,3,4,10b-tetrahydro-1H-pyrazino[1,2-b]isoindol-6-one

$$$$
