
     RDKit          3D

 29 29  0  0  0  0  0  0  0  0999 V2000
   -2.8326   -1.0892    0.7245 C   0  0  0  0  0  0  0  0  0  0  0  0
   -2.0130    0.1777    0.5440 C   0  0  0  0  0  0  0  0  0  0  0  0
   -2.5468    0.8786   -0.6731 C   0  0  0  0  0  0  0  0  0  0  0  0
   -1.5044    1.7088   -1.3771 C   0  0  0  0  0  0  0  0  0  0  0  0
   -0.3597    1.8701   -0.5884 O   0  0  0  0  0  0  0  0  0  0  0  0
    0.2380    0.5970   -0.5236 C   0  0  0  0  0  0  0  0  0  0  0  0
   -0.5766   -0.2163    0.4326 C   0  0  0  0  0  0  0  0  0  0  0  0
    1.6222    0.7954   -0.0089 C   0  0  0  0  0  0  0  0  0  0  0  0
    2.4859   -0.2122   -0.0774 C   0  0  0  0  0  0  0  0  0  0  0  0
    2.1022   -1.5267   -0.6538 C   0  0  0  0  0  0  0  0  0  0  0  0
    3.8811   -0.0630    0.4239 C   0  0  0  0  0  0  0  0  0  0  0  0
   -2.8338   -1.7005   -0.1792 H   0  0  0  0  0  0  0  0  0  0  0  0
   -2.5117   -1.6070    1.6514 H   0  0  0  0  0  0  0  0  0  0  0  0
   -3.8793   -0.7408    0.8827 H   0  0  0  0  0  0  0  0  0  0  0  0
   -2.2255    0.7935    1.4477 H   0  0  0  0  0  0  0  0  0  0  0  0
   -3.0298    0.1755   -1.3824 H   0  0  0  0  0  0  0  0  0  0  0  0
   -3.3371    1.5917   -0.3496 H   0  0  0  0  0  0  0  0  0  0  0  0
   -1.8889    2.7018   -1.6832 H   0  0  0  0  0  0  0  0  0  0  0  0
   -1.1737    1.1801   -2.2960 H   0  0  0  0  0  0  0  0  0  0  0  0
    0.2339    0.2215   -1.5699 H   0  0  0  0  0  0  0  0  0  0  0  0
   -0.4569   -1.2924    0.1101 H   0  0  0  0  0  0  0  0  0  0  0  0
   -0.1158   -0.0657    1.4539 H   0  0  0  0  0  0  0  0  0  0  0  0
    1.9506    1.7353    0.4207 H   0  0  0  0  0  0  0  0  0  0  0  0
    1.3965   -1.4533   -1.5068 H   0  0  0  0  0  0  0  0  0  0  0  0
    1.7476   -2.2419    0.1379 H   0  0  0  0  0  0  0  0  0  0  0  0
    2.9962   -2.0574   -1.0901 H   0  0  0  0  0  0  0  0  0  0  0  0
    4.2629    0.9749    0.3587 H   0  0  0  0  0  0  0  0  0  0  0  0
    3.8284   -0.3141    1.5168 H   0  0  0  0  0  0  0  0  0  0  0  0
    4.5402   -0.8214   -0.0136 H   0  0  0  0  0  0  0  0  0  0  0  0
  1  2  1  0
  2  3  1  0
  3  4  1  0
  4  5  1  0
  5  6  1  0
  6  7  1  0
  6  8  1  0
  8  9  2  3
  9 10  1  0
  9 11  1  0
  7  2  1  0
  1 12  1  0
  1 13  1  0
  1 14  1  0
  2 15  1  0
  3 16  1  0
  3 17  1  0
  4 18  1  0
  4 19  1  0
  6 20  1  0
  7 21  1  0
  7 22  1  0
  8 23  1  0
 10 24  1  0
 10 25  1  0
 10 26  1  0
 11 27  1  0
 11 28  1  0
 11 29  1  0
M  END
>  <Ligand ID>  (1) 
LIG0000250

>  <Ligand>  (1) 
4-methyl-2-(2-methylprop-1-enyl)oxane

>  <SMILES>  (1) 
CC1CCOC(C1)C=C(C)C

>  <CID>  (1) 
27866.0

>  <ChEMBL ID>  (1) 
nan

>  <InChiKey>  (1) 
CZCBTSFUTPZVKJ-UHFFFAOYSA-N

>  <InChi>  (1) 
InChI=1S/C10H18O/c1-8(2)6-10-7-9(3)4-5-11-10/h6,9-10H,4-5,7H2,1-3H3

>  <IUPAC Name>  (1) 
4-methyl-2-(2-methylprop-1-enyl)oxane

$$$$
