
     RDKit          3D

 23 23  0  0  0  0  0  0  0  0999 V2000
    2.5627   -0.4557   -1.1587 O   0  0  0  0  0  0  0  0  0  0  0  0
    2.4090   -0.5565    0.2004 C   0  0  0  0  0  0  0  0  0  0  0  0
    3.4395   -0.8881    0.8691 O   0  0  0  0  0  0  0  0  0  0  0  0
    1.1338   -0.3047    0.9095 C   0  0  1  0  0  0  0  0  0  0  0  0
    0.7098    1.1203    0.6450 C   0  0  0  0  0  0  0  0  0  0  0  0
   -0.0699    0.9941   -0.6341 C   0  0  0  0  0  0  0  0  0  0  0  0
   -0.8969   -0.2412   -0.4059 C   0  0  2  0  0  0  0  0  0  0  0  0
   -0.0180   -1.1140    0.4243 C   0  0  0  0  0  0  0  0  0  0  0  0
   -1.2286   -0.8938   -1.6709 N   0  0  0  0  0  0  0  0  0  0  0  0
   -2.1533    0.1846    0.2882 C   0  0  0  0  0  0  0  0  0  0  0  0
   -3.2735   -0.0243   -0.2555 O   0  0  0  0  0  0  0  0  0  0  0  0
   -2.1655    0.8086    1.5200 O   0  0  0  0  0  0  0  0  0  0  0  0
    3.4242   -0.2495   -1.6430 H   0  0  0  0  0  0  0  0  0  0  0  0
    1.2729   -0.4882    2.0037 H   0  0  0  0  0  0  0  0  0  0  0  0
    1.5890    1.7961    0.5362 H   0  0  0  0  0  0  0  0  0  0  0  0
    0.0488    1.4509    1.4723 H   0  0  0  0  0  0  0  0  0  0  0  0
    0.6699    0.8646   -1.4536 H   0  0  0  0  0  0  0  0  0  0  0  0
   -0.6948    1.8888   -0.8380 H   0  0  0  0  0  0  0  0  0  0  0  0
   -0.5880   -1.5396    1.2902 H   0  0  0  0  0  0  0  0  0  0  0  0
    0.3082   -1.9797   -0.2073 H   0  0  0  0  0  0  0  0  0  0  0  0
   -1.7689   -0.2247   -2.2438 H   0  0  0  0  0  0  0  0  0  0  0  0
   -1.8684   -1.6811   -1.4190 H   0  0  0  0  0  0  0  0  0  0  0  0
   -2.8421    1.5333    1.7707 H   0  0  0  0  0  0  0  0  0  0  0  0
  1  2  1  0
  2  3  2  0
  2  4  1  0
  4  5  1  0
  5  6  1  0
  6  7  1  0
  7  8  1  0
  7  9  1  6
  7 10  1  0
 10 11  2  0
 10 12  1  0
  8  4  1  0
  1 13  1  0
  4 14  1  1
  5 15  1  0
  5 16  1  0
  6 17  1  0
  6 18  1  0
  8 19  1  0
  8 20  1  0
  9 21  1  0
  9 22  1  0
 12 23  1  0
M  END
>  <Ligand ID>  (1) 
LIG0002889

>  <Ligand>  (1) 
trans-ACPD

>  <SMILES>  (1) 
OC(=O)[C@H]1CC[C@](C1)(N)C(=O)O

>  <CID>  (1) 
73537.0

>  <ChEMBL ID>  (1) 
nan

>  <InChiKey>  (1) 
YFYNOWXBIBKGHB-MHTLYPKNSA-N

>  <InChi>  (1) 
InChI=1S/C7H11NO4/c8-7(6(11)12)2-1-4(3-7)5(9)10/h4H,1-3,8H2,(H,9,10)(H,11,12)/t4-,7+/m0/s1

>  <IUPAC Name>  (1) 
(1R,3S)-1-aminocyclopentane-1,3-dicarboxylic acid

$$$$
