
     RDKit          3D

 54 59  0  0  0  0  0  0  0  0999 V2000
    3.6247    4.5588    0.0123 O   0  0  0  0  0  0  0  0  0  0  0  0
    2.6714    3.6652    0.5123 C   0  0  0  0  0  0  0  0  0  0  0  0
    1.9933    3.9906    1.6563 C   0  0  0  0  0  0  0  0  0  0  0  0
    1.0574    3.1096    2.1473 C   0  0  0  0  0  0  0  0  0  0  0  0
    0.7990    1.9037    1.4945 C   0  0  0  0  0  0  0  0  0  0  0  0
    1.4677    1.5592    0.3483 C   0  0  0  0  0  0  0  0  0  0  0  0
    2.4046    2.4618   -0.1271 C   0  0  0  0  0  0  0  0  0  0  0  0
    1.2243    0.2488   -0.3648 C   0  0  2  0  0  0  0  0  0  0  0  0
    0.1914    0.5864   -1.4170 C   0  0  0  0  0  0  0  0  0  0  0  0
   -1.2076    0.1897   -1.0677 C   0  0  0  0  0  0  0  0  0  0  0  0
   -1.5920    0.2038    0.2857 N   0  0  0  0  0  0  0  0  0  0  0  0
   -0.5860   -0.1371    1.2516 C   0  0  2  0  0  0  0  0  0  0  0  0
   -0.2481    1.0510    2.1226 C   0  0  0  0  0  0  0  0  0  0  0  0
    0.5936   -0.7157    0.5690 C   0  0  2  0  0  0  0  0  0  0  0  0
    1.6638   -1.2692    1.4941 C   0  0  0  0  0  0  0  0  0  0  0  0
    2.5055   -2.1117    0.5709 C   0  0  0  0  0  0  0  0  0  0  0  0
    2.9153   -1.5620   -0.6304 C   0  0  0  0  0  0  0  0  0  0  0  0
    2.5322   -0.1430   -0.9441 C   0  0  0  0  0  0  0  0  0  0  0  0
    3.6328   -2.3864   -1.3619 N   0  0  0  0  0  0  0  0  0  0  0  0
    3.9590   -3.4891   -1.1340 C   0  0  0  0  0  0  0  0  0  0  0  0
    3.1450   -3.7154    0.5900 S   0  0  0  0  0  0  0  0  0  0  0  0
    4.6870   -4.6052   -1.6602 N   0  0  0  0  0  0  0  0  0  0  0  0
   -2.7567   -0.6311    0.4789 C   0  0  0  0  0  0  0  0  0  0  0  0
   -4.0039   -0.1022   -0.1331 C   0  0  0  0  0  0  0  0  0  0  0  0
   -5.2119   -1.0006    0.0892 C   0  0  0  0  0  0  0  0  0  0  0  0
   -5.6939   -0.5524   -1.2834 C   0  0  0  0  0  0  0  0  0  0  0  0
   -4.2154   -0.2958   -1.6064 C   0  0  0  0  0  0  0  0  0  0  0  0
    4.5571    4.4968    0.4447 H   0  0  0  0  0  0  0  0  0  0  0  0
    2.1621    4.9116    2.1886 H   0  0  0  0  0  0  0  0  0  0  0  0
    0.5191    3.3769    3.0639 H   0  0  0  0  0  0  0  0  0  0  0  0
    2.9821    2.2913   -1.0362 H   0  0  0  0  0  0  0  0  0  0  0  0
    0.4809    0.0419   -2.3382 H   0  0  0  0  0  0  0  0  0  0  0  0
    0.2394    1.6664   -1.7118 H   0  0  0  0  0  0  0  0  0  0  0  0
   -1.4326   -0.8231   -1.5127 H   0  0  0  0  0  0  0  0  0  0  0  0
   -1.8679    0.8957   -1.6212 H   0  0  0  0  0  0  0  0  0  0  0  0
   -0.9861   -0.9056    1.9576 H   0  0  0  0  0  0  0  0  0  0  0  0
    0.0367    0.7794    3.1559 H   0  0  0  0  0  0  0  0  0  0  0  0
   -1.1930    1.6614    2.1975 H   0  0  0  0  0  0  0  0  0  0  0  0
    0.2332   -1.5906   -0.0281 H   0  0  0  0  0  0  0  0  0  0  0  0
    1.2475   -1.8665    2.3079 H   0  0  0  0  0  0  0  0  0  0  0  0
    2.3187   -0.4493    1.8888 H   0  0  0  0  0  0  0  0  0  0  0  0
    3.4125    0.4421   -0.5417 H   0  0  0  0  0  0  0  0  0  0  0  0
    2.5018    0.0662   -2.0237 H   0  0  0  0  0  0  0  0  0  0  0  0
    4.3063   -5.5526   -1.7464 H   0  0  0  0  0  0  0  0  0  0  0  0
    5.6619   -4.4109   -1.9640 H   0  0  0  0  0  0  0  0  0  0  0  0
   -2.9499   -0.8416    1.5530 H   0  0  0  0  0  0  0  0  0  0  0  0
   -2.5642   -1.6380    0.0038 H   0  0  0  0  0  0  0  0  0  0  0  0
   -4.2023    0.9249    0.2543 H   0  0  0  0  0  0  0  0  0  0  0  0
   -5.8549   -0.7562    0.9352 H   0  0  0  0  0  0  0  0  0  0  0  0
   -4.9361   -2.0716    0.0495 H   0  0  0  0  0  0  0  0  0  0  0  0
   -6.1139   -1.3334   -1.9263 H   0  0  0  0  0  0  0  0  0  0  0  0
   -6.2565    0.4054   -1.2509 H   0  0  0  0  0  0  0  0  0  0  0  0
   -3.7280   -1.1857   -1.9995 H   0  0  0  0  0  0  0  0  0  0  0  0
   -4.1267    0.6533   -2.1928 H   0  0  0  0  0  0  0  0  0  0  0  0
  1  2  1  0
  2  3  2  0
  3  4  1  0
  4  5  2  0
  5  6  1  0
  6  7  2  0
  6  8  1  0
  8  9  1  6
  9 10  1  0
 10 11  1  0
 11 12  1  0
 12 13  1  0
 12 14  1  0
 14 15  1  0
 15 16  1  0
 16 17  2  0
 17 18  1  0
 17 19  1  0
 19 20  2  0
 20 21  1  0
 20 22  1  0
 11 23  1  0
 23 24  1  0
 24 25  1  0
 25 26  1  0
 26 27  1  0
  7  2  1  0
 18  8  1  0
 27 24  1  0
 13  5  1  0
 21 16  1  0
 14  8  1  0
  1 28  1  0
  3 29  1  0
  4 30  1  0
  7 31  1  0
  9 32  1  0
  9 33  1  0
 10 34  1  0
 10 35  1  0
 12 36  1  1
 13 37  1  0
 13 38  1  0
 14 39  1  6
 15 40  1  0
 15 41  1  0
 18 42  1  0
 18 43  1  0
 22 44  1  0
 22 45  1  0
 23 46  1  0
 23 47  1  0
 24 48  1  0
 25 49  1  0
 25 50  1  0
 26 51  1  0
 26 52  1  0
 27 53  1  0
 27 54  1  0
M  END
>  <Ligand ID>  (1) 
LIG0002931

>  <Ligand>  (1) 
CHEMBL376355

>  <SMILES>  (1) 
Oc1ccc2c(c1)[C@@]13CCN([C@H](C2)[C@@H]3Cc2c(C1)nc(s2)N)CC1CCC1

>  <CID>  (1) 
16720650.0

>  <ChEMBL ID>  (1) 
nan

>  <InChiKey>  (1) 
LLZGBQVJBUASJT-LRXVAGHRSA-N

>  <InChi>  (1) 
InChI=1S/C22H27N3OS/c23-21-24-18-11-22-6-7-25(12-13-2-1-3-13)19(17(22)10-20(18)27-21)8-14-4-5-15(26)9-16(14)22/h4-5,9,13,17,19,26H,1-3,6-8,10-12H2,(H2,23,24)/t17-,19+,22+/m0/s1

>  <IUPAC Name>  (1) 
(1S,9R,10R)-5-amino-20-(cyclobutylmethyl)-6-thia-4,20-diazapentacyclo[8.7.3.01,9.03,7.012,17]icosa-3(7),4,12(17),13,15-pentaen-15-ol

$$$$
