
     RDKit          3D

 79 80  0  0  0  0  0  0  0  0999 V2000
   -5.2535   -2.2232    3.2428 O   0  0  0  0  0  0  0  0  0  0  0  0
   -5.1714   -1.6313    2.0961 C   0  0  0  0  0  0  0  0  0  0  0  0
   -3.8854   -1.1443    1.6834 C   0  0  0  0  0  0  0  0  0  0  0  0
   -2.8790   -1.1772    2.6681 C   0  0  0  0  0  0  0  0  0  0  0  0
   -1.6277   -0.6652    2.4712 C   0  0  0  0  0  0  0  0  0  0  0  0
   -1.2877   -0.0835    1.2818 C   0  0  0  0  0  0  0  0  0  0  0  0
   -2.2303   -0.0343    0.3047 C   0  0  0  0  0  0  0  0  0  0  0  0
   -3.5577   -0.5656    0.4801 C   0  0  0  0  0  0  0  0  0  0  0  0
   -4.3210   -0.4377   -0.5505 O   0  0  0  0  0  0  0  0  0  0  0  0
   -5.1012   -0.3073   -1.6031 C   0  0  0  0  0  0  0  0  0  0  0  0
   -4.4315   -0.4267   -2.9645 C   0  0  0  0  0  0  0  0  0  0  0  0
   -4.8904    0.5865   -3.9483 C   0  0  0  0  0  0  0  0  0  0  0  0
   -6.3581    0.8613   -3.9848 C   0  0  0  0  0  0  0  0  0  0  0  0
   -7.0086    0.7928   -2.6345 C   0  0  0  0  0  0  0  0  0  0  0  0
   -5.9423    0.9980   -1.5850 C   0  0  0  0  0  0  0  0  0  0  0  0
    0.0414    0.4884    1.1317 C   0  0  0  0  0  0  0  0  0  0  0  0
    0.2255    1.5385    0.2854 C   0  0  0  0  0  0  0  0  0  0  0  0
    1.4628    2.1116    0.1677 C   0  0  0  0  0  0  0  0  0  0  0  0
    2.5823    1.6935    0.8665 C   0  0  0  0  0  0  0  0  0  0  0  0
    2.3602    0.6099    1.7294 C   0  0  0  0  0  0  0  0  0  0  0  0
    1.1343    0.0169    1.8664 C   0  0  0  0  0  0  0  0  0  0  0  0
    3.9112    2.3266    0.7193 C   0  0  0  0  0  0  0  0  0  0  0  0
    4.8187    1.6597   -0.2730 C   0  0  0  0  0  0  0  0  0  0  0  0
    5.1404    0.3170    0.0483 N   0  0  0  0  0  0  0  0  0  0  0  0
    5.9425    0.0600    1.1731 C   0  0  0  0  0  0  0  0  0  0  0  0
    7.3818    0.4595    1.0758 C   0  0  1  0  0  0  0  0  0  0  0  0
    8.2093   -0.4130    0.2272 C   0  0  0  0  0  0  0  0  0  0  0  0
    8.8511   -1.5261    0.7972 C   0  0  0  0  0  0  0  0  0  0  0  0
    9.6106   -2.3579    0.0757 N   0  0  0  0  0  0  0  0  0  0  0  0
    9.8293   -2.2147   -1.2325 C   0  0  0  0  0  0  0  0  0  0  0  0
    9.2184   -1.1283   -1.8525 C   0  0  0  0  0  0  0  0  0  0  0  0
    8.4208   -0.2458   -1.1198 C   0  0  0  0  0  0  0  0  0  0  0  0
    7.8077    0.8419   -1.7658 N   0  0  0  0  0  0  0  0  0  0  0  0
    7.6273    1.7867    0.8310 O   0  0  0  0  0  0  0  0  0  0  0  0
   -6.3937   -1.5680    1.4228 N   0  0  0  0  0  0  0  0  0  0  0  0
   -7.7828   -2.2874    2.1909 S   0  0  0  0  0  0  0  0  0  0  0  0
   -7.4304   -3.5082    2.9716 O   0  0  0  0  0  0  0  0  0  0  0  0
   -8.7391   -2.6563    1.0675 O   0  0  0  0  0  0  0  0  0  0  0  0
   -8.5724   -1.1217    3.2524 C   0  0  0  0  0  0  0  0  0  0  0  0
    0.6908    0.0000    0.0000 Cl  0  0  0  0  0  0  0  0  0  0  0  0
    0.6845    0.0000    0.0000 Cl  0  0  0  0  0  0  0  0  0  0  0  0
   -3.0636   -1.6213    3.6437 H   0  0  0  0  0  0  0  0  0  0  0  0
   -0.8935   -0.7170    3.2515 H   0  0  0  0  0  0  0  0  0  0  0  0
   -1.9633    0.4206   -0.6363 H   0  0  0  0  0  0  0  0  0  0  0  0
   -5.9192   -1.0934   -1.6433 H   0  0  0  0  0  0  0  0  0  0  0  0
   -3.3462   -0.1917   -2.7526 H   0  0  0  0  0  0  0  0  0  0  0  0
   -4.4226   -1.4371   -3.3759 H   0  0  0  0  0  0  0  0  0  0  0  0
   -4.6292    0.2001   -4.9801 H   0  0  0  0  0  0  0  0  0  0  0  0
   -4.3067    1.5559   -3.9042 H   0  0  0  0  0  0  0  0  0  0  0  0
   -6.8995    0.2283   -4.7264 H   0  0  0  0  0  0  0  0  0  0  0  0
   -6.4957    1.9102   -4.3619 H   0  0  0  0  0  0  0  0  0  0  0  0
   -7.4445   -0.2394   -2.5580 H   0  0  0  0  0  0  0  0  0  0  0  0
   -7.8191    1.5428   -2.5613 H   0  0  0  0  0  0  0  0  0  0  0  0
   -5.3299    1.8616   -1.8688 H   0  0  0  0  0  0  0  0  0  0  0  0
   -6.4537    1.0757   -0.6103 H   0  0  0  0  0  0  0  0  0  0  0  0
   -0.5882    1.9597   -0.3243 H   0  0  0  0  0  0  0  0  0  0  0  0
    1.5810    2.9466   -0.5104 H   0  0  0  0  0  0  0  0  0  0  0  0
    3.1668    0.2054    2.3283 H   0  0  0  0  0  0  0  0  0  0  0  0
    1.0153   -0.8153    2.5435 H   0  0  0  0  0  0  0  0  0  0  0  0
    4.4124    2.5512    1.6746 H   0  0  0  0  0  0  0  0  0  0  0  0
    3.6949    3.3471    0.2801 H   0  0  0  0  0  0  0  0  0  0  0  0
    4.3353    1.7777   -1.2709 H   0  0  0  0  0  0  0  0  0  0  0  0
    5.7344    2.2672   -0.3282 H   0  0  0  0  0  0  0  0  0  0  0  0
    5.2466   -0.3466   -0.7484 H   0  0  0  0  0  0  0  0  0  0  0  0
    5.9635   -1.0678    1.3026 H   0  0  0  0  0  0  0  0  0  0  0  0
    5.4877    0.4015    2.1446 H   0  0  0  0  0  0  0  0  0  0  0  0
    7.7883    0.3059    2.1433 H   0  0  0  0  0  0  0  0  0  0  0  0
    8.6978   -1.6809    1.8764 H   0  0  0  0  0  0  0  0  0  0  0  0
   10.4355   -2.8758   -1.8362 H   0  0  0  0  0  0  0  0  0  0  0  0
    9.3925   -1.0083   -2.9053 H   0  0  0  0  0  0  0  0  0  0  0  0
    7.8820    1.8425   -1.4857 H   0  0  0  0  0  0  0  0  0  0  0  0
    7.2157    0.6434   -2.6074 H   0  0  0  0  0  0  0  0  0  0  0  0
    8.5140    2.0344    1.2334 H   0  0  0  0  0  0  0  0  0  0  0  0
   -6.4788   -1.1021    0.5346 H   0  0  0  0  0  0  0  0  0  0  0  0
   -9.0325   -0.3156    2.6479 H   0  0  0  0  0  0  0  0  0  0  0  0
   -7.8108   -0.7463    3.9746 H   0  0  0  0  0  0  0  0  0  0  0  0
   -9.3785   -1.6187    3.8035 H   0  0  0  0  0  0  0  0  0  0  0  0
   -0.6908    0.0000    0.0000 H   0  0  0  0  0  0  0  0  0  0  0  0
   -0.6845    0.0000    0.0000 H   0  0  0  0  0  0  0  0  0  0  0  0
  1  2  2  0
  2  3  1  0
  3  4  2  0
  4  5  1  0
  5  6  2  0
  6  7  1  0
  7  8  2  0
  8  9  1  0
  9 10  1  0
 10 11  1  0
 11 12  1  0
 12 13  1  0
 13 14  1  0
 14 15  1  0
  6 16  1  0
 16 17  2  0
 17 18  1  0
 18 19  2  0
 19 20  1  0
 20 21  2  0
 19 22  1  0
 22 23  1  0
 23 24  1  0
 24 25  1  0
 25 26  1  0
 26 27  1  0
 27 28  2  0
 28 29  1  0
 29 30  2  0
 30 31  1  0
 31 32  2  0
 32 33  1  0
 26 34  1  0
  2 35  1  0
 35 36  1  0
 36 37  2  0
 36 38  2  0
 36 39  1  0
  8  3  1  0
 15 10  1  0
 21 16  1  0
 32 27  1  0
  4 42  1  0
  5 43  1  0
  7 44  1  0
 10 45  1  0
 11 46  1  0
 11 47  1  0
 12 48  1  0
 12 49  1  0
 13 50  1  0
 13 51  1  0
 14 52  1  0
 14 53  1  0
 15 54  1  0
 15 55  1  0
 17 56  1  0
 18 57  1  0
 20 58  1  0
 21 59  1  0
 22 60  1  0
 22 61  1  0
 23 62  1  0
 23 63  1  0
 24 64  1  0
 25 65  1  0
 25 66  1  0
 26 67  1  1
 28 68  1  0
 30 69  1  0
 31 70  1  0
 33 71  1  0
 33 72  1  0
 34 73  1  0
 35 74  1  0
 39 75  1  0
 39 76  1  0
 39 77  1  0
 40 78  1  0
 41 79  1  0
M  END
>  <Ligand ID>  (1) 
LIG0002023

>  <Ligand>  (1) 
CHEMBL446806

>  <SMILES>  (1) 
O=C(c1ccc(cc1OC1CCCCC1)c1ccc(cc1)CCNC[C@@H](c1cnccc1N)O)NS(=O)(=O)C.Cl.Cl

>  <CID>  (1) 
44565930.0

>  <ChEMBL ID>  (1) 
nan

>  <InChiKey>  (1) 
BOOVWZSHSWNDCQ-LPCSYZHESA-N

>  <InChi>  (1) 
InChI=1S/C29H36N4O5S.2ClH/c1-39(36,37)33-29(35)24-12-11-22(17-28(24)38-23-5-3-2-4-6-23)21-9-7-20(8-10-21)13-15-32-19-27(34)25-18-31-16-14-26(25)30;;/h7-12,14,16-18,23,27,32,34H,2-6,13,15,19H2,1H3,(H2,30,31)(H,33,35);2*1H/t27-;;/m0../s1

>  <IUPAC Name>  (1) 
4-[4-[2-[[(2R)-2-(4-aminopyridin-3-yl)-2-hydroxyethyl]amino]ethyl]phenyl]-2-cyclohexyloxy-N-methylsulfonylbenzamide;dihydrochloride

$$$$
