
     RDKit          3D

 56 59  0  0  0  0  0  0  0  0999 V2000
   -8.5635   -2.5826    1.1330 C   0  0  0  0  0  0  0  0  0  0  0  0
   -7.8003   -1.4172    1.1704 O   0  0  0  0  0  0  0  0  0  0  0  0
   -7.7822   -0.7685   -0.0620 C   0  0  2  0  0  0  0  0  0  0  0  0
   -6.3966   -0.6432   -0.6003 C   0  0  0  0  0  0  0  0  0  0  0  0
   -6.0327   -0.8976   -1.8558 O   0  0  0  0  0  0  0  0  0  0  0  0
   -4.7524   -0.6886   -1.9923 N   0  0  0  0  0  0  0  0  0  0  0  0
   -4.2187   -0.2843   -0.8200 C   0  0  0  0  0  0  0  0  0  0  0  0
   -5.2711   -0.2641    0.0369 N   0  0  0  0  0  0  0  0  0  0  0  0
   -2.8589    0.0509   -0.5267 N   0  0  0  0  0  0  0  0  0  0  0  0
   -2.4473    0.4771    0.7964 C   0  0  0  0  0  0  0  0  0  0  0  0
   -1.0544    0.0824    1.1558 C   0  0  0  0  0  0  0  0  0  0  0  0
   -0.1668    0.3422    0.0491 N   0  0  0  0  0  0  0  0  0  0  0  0
   -0.6111    0.6624   -1.2893 C   0  0  1  0  0  0  0  0  0  0  0  0
   -1.9020   -0.0537   -1.6151 C   0  0  0  0  0  0  0  0  0  0  0  0
   -0.7613    2.1589   -1.4930 C   0  0  0  0  0  0  0  0  0  0  0  0
    1.2488    0.2814    0.2838 C   0  0  0  0  0  0  0  0  0  0  0  0
    2.1401    0.5014   -0.7218 N   0  0  0  0  0  0  0  0  0  0  0  0
    3.4694    0.4485   -0.5176 C   0  0  0  0  0  0  0  0  0  0  0  0
    3.9768    0.1662    0.7333 C   0  0  0  0  0  0  0  0  0  0  0  0
    3.0577   -0.0574    1.7554 C   0  0  0  0  0  0  0  0  0  0  0  0
    1.7346    0.0017    1.5233 N   0  0  0  0  0  0  0  0  0  0  0  0
    5.3441    0.1018    0.9879 O   0  0  0  0  0  0  0  0  0  0  0  0
    6.2050    0.3444   -0.1202 C   0  0  0  0  0  0  0  0  0  0  0  0
    7.6255    0.2513    0.2615 C   0  0  0  0  0  0  0  0  0  0  0  0
    8.3936    1.4096    0.4251 C   0  0  0  0  0  0  0  0  0  0  0  0
    9.7179    1.3641    0.7795 C   0  0  0  0  0  0  0  0  0  0  0  0
   10.2908    0.1465    0.9751 N   0  0  0  0  0  0  0  0  0  0  0  0
    9.5928   -1.0127    0.8303 C   0  0  0  0  0  0  0  0  0  0  0  0
    8.2477   -0.9624    0.4702 C   0  0  0  0  0  0  0  0  0  0  0  0
    7.4845   -2.1818    0.3104 C   0  0  0  0  0  0  0  0  0  0  0  0
    6.8656   -3.1641    0.1787 N   0  0  0  0  0  0  0  0  0  0  0  0
   -8.4251    0.6129    0.0406 C   0  0  0  0  0  0  0  0  0  0  0  0
   -8.5351   -3.0484    2.1444 H   0  0  0  0  0  0  0  0  0  0  0  0
   -9.6386   -2.2951    0.9673 H   0  0  0  0  0  0  0  0  0  0  0  0
   -8.2452   -3.3130    0.3817 H   0  0  0  0  0  0  0  0  0  0  0  0
   -8.3863   -1.3527   -0.7631 H   0  0  0  0  0  0  0  0  0  0  0  0
   -3.1684    0.0945    1.5520 H   0  0  0  0  0  0  0  0  0  0  0  0
   -2.5162    1.5977    0.8751 H   0  0  0  0  0  0  0  0  0  0  0  0
   -0.6859    0.6687    2.0169 H   0  0  0  0  0  0  0  0  0  0  0  0
   -1.0136   -1.0074    1.3660 H   0  0  0  0  0  0  0  0  0  0  0  0
    0.1456    0.2704   -2.0027 H   0  0  0  0  0  0  0  0  0  0  0  0
   -1.7383   -1.1194   -1.8586 H   0  0  0  0  0  0  0  0  0  0  0  0
   -2.3839    0.4032   -2.5038 H   0  0  0  0  0  0  0  0  0  0  0  0
    0.1182    2.5494   -2.0657 H   0  0  0  0  0  0  0  0  0  0  0  0
   -0.8161    2.7061   -0.5142 H   0  0  0  0  0  0  0  0  0  0  0  0
   -1.6678    2.4079   -2.1057 H   0  0  0  0  0  0  0  0  0  0  0  0
    4.1298    0.6298   -1.3452 H   0  0  0  0  0  0  0  0  0  0  0  0
    3.4237   -0.2831    2.7571 H   0  0  0  0  0  0  0  0  0  0  0  0
    5.9935    1.3795   -0.4645 H   0  0  0  0  0  0  0  0  0  0  0  0
    5.9498   -0.3191   -0.9842 H   0  0  0  0  0  0  0  0  0  0  0  0
    7.9229    2.3723    0.2660 H   0  0  0  0  0  0  0  0  0  0  0  0
   10.2792    2.2755    0.8967 H   0  0  0  0  0  0  0  0  0  0  0  0
   10.1010   -1.9681    0.9994 H   0  0  0  0  0  0  0  0  0  0  0  0
   -7.8215    1.2932   -0.5936 H   0  0  0  0  0  0  0  0  0  0  0  0
   -9.4371    0.6289   -0.3653 H   0  0  0  0  0  0  0  0  0  0  0  0
   -8.3603    1.0038    1.0815 H   0  0  0  0  0  0  0  0  0  0  0  0
  1  2  1  0
  2  3  1  0
  3  4  1  0
  4  5  1  0
  5  6  1  0
  6  7  2  0
  7  8  1  0
  7  9  1  0
  9 10  1  0
 10 11  1  0
 11 12  1  0
 12 13  1  0
 13 14  1  0
 13 15  1  0
 12 16  1  0
 16 17  2  0
 17 18  1  0
 18 19  2  0
 19 20  1  0
 20 21  2  0
 19 22  1  0
 22 23  1  0
 23 24  1  0
 24 25  2  0
 25 26  1  0
 26 27  2  0
 27 28  1  0
 28 29  2  0
 29 30  1  0
 30 31  3  0
  3 32  1  0
  8  4  2  0
 14  9  1  0
 21 16  1  0
 29 24  1  0
  1 33  1  0
  1 34  1  0
  1 35  1  0
  3 36  1  6
 10 37  1  0
 10 38  1  0
 11 39  1  0
 11 40  1  0
 13 41  1  6
 14 42  1  0
 14 43  1  0
 15 44  1  0
 15 45  1  0
 15 46  1  0
 18 47  1  0
 20 48  1  0
 23 49  1  0
 23 50  1  0
 25 51  1  0
 26 52  1  0
 28 53  1  0
 32 54  1  0
 32 55  1  0
 32 56  1  0
M  END
>  <Ligand ID>  (1) 
LIG0005310

>  <Ligand>  (1) 
SCHEMBL1448086

>  <SMILES>  (1) 
CO[C@H](c1onc(n1)N1CCN([C@@H](C1)C)c1ncc(cn1)OCc1ccncc1C#N)C

>  <CID>  (1) 
51030899.0

>  <ChEMBL ID>  (1) 
nan

>  <InChiKey>  (1) 
ZEAUVGIZONYILM-CABCVRRESA-N

>  <InChi>  (1) 
InChI=1S/C21H24N8O3/c1-14-12-28(21-26-19(32-27-21)15(2)30-3)6-7-29(14)20-24-10-18(11-25-20)31-13-16-4-5-23-9-17(16)8-22/h4-5,9-11,14-15H,6-7,12-13H2,1-3H3/t14-,15+/m1/s1

>  <IUPAC Name>  (1) 
4-[[2-[(2R)-4-[5-[(1S)-1-methoxyethyl]-1,2,4-oxadiazol-3-yl]-2-methylpiperazin-1-yl]pyrimidin-5-yl]oxymethyl]pyridine-3-carbonitrile

$$$$
