
     RDKit          3D

 96 99  0  0  0  0  0  0  0  0999 V2000
    2.1575   -0.0285    6.4515 N   0  0  0  0  0  0  0  0  0  0  0  0
    2.4584    1.3492    6.1642 C   0  0  0  0  0  0  0  0  0  0  0  0
    2.0030    1.7796    5.0272 N   0  0  0  0  0  0  0  0  0  0  0  0
    1.2547    0.8247    4.1962 C   0  0  0  0  0  0  0  0  0  0  0  0
    1.5254    1.2385    2.7472 C   0  0  0  0  0  0  0  0  0  0  0  0
    0.8193    0.3106    1.7976 C   0  0  0  0  0  0  0  0  0  0  0  0
    1.0406    0.7741    0.3416 C   0  0  1  0  0  0  0  0  0  0  0  0
    2.4301    0.8070   -0.0568 C   0  0  0  0  0  0  0  0  0  0  0  0
    3.2811    1.5722    0.5233 O   0  0  0  0  0  0  0  0  0  0  0  0
    3.0214    0.0154   -1.1083 N   0  0  0  0  0  0  0  0  0  0  0  0
    4.4738    0.1600   -1.3816 C   0  0  2  0  0  0  0  0  0  0  0  0
    4.5942    0.3799   -2.8466 C   0  0  0  0  0  0  0  0  0  0  0  0
    3.5044    0.3679   -3.4956 O   0  0  0  0  0  0  0  0  0  0  0  0
    5.8599    0.5886   -3.4455 N   0  0  0  0  0  0  0  0  0  0  0  0
    5.1091   -1.2066   -1.0833 C   0  0  0  0  0  0  0  0  0  0  0  0
    6.5662   -1.1538   -1.3253 C   0  0  0  0  0  0  0  0  0  0  0  0
    7.2763   -1.7011   -2.3968 C   0  0  0  0  0  0  0  0  0  0  0  0
    8.5677   -1.4376   -2.2131 N   0  0  0  0  0  0  0  0  0  0  0  0
    8.7764   -0.7427   -1.0787 C   0  0  0  0  0  0  0  0  0  0  0  0
    7.5193   -0.5494   -0.4957 C   0  0  0  0  0  0  0  0  0  0  0  0
    7.3911    0.1373    0.6856 C   0  0  0  0  0  0  0  0  0  0  0  0
    8.5269    0.6472    1.3112 C   0  0  0  0  0  0  0  0  0  0  0  0
    9.7797    0.4508    0.7239 C   0  0  0  0  0  0  0  0  0  0  0  0
    9.9284   -0.2397   -0.4685 C   0  0  0  0  0  0  0  0  0  0  0  0
    0.2172   -0.0313   -0.5341 N   0  0  0  0  0  0  0  0  0  0  0  0
   -1.2100    0.2013   -0.5174 C   0  0  0  0  0  0  0  0  0  0  0  0
   -1.5871    1.0913    0.2947 O   0  0  0  0  0  0  0  0  0  0  0  0
   -2.1385   -0.5579   -1.3872 C   0  0  2  0  0  0  0  0  0  0  0  0
   -3.5057   -0.5502   -0.9920 N   0  0  0  0  0  0  0  0  0  0  0  0
   -4.5393    0.2793   -1.4838 C   0  0  0  0  0  0  0  0  0  0  0  0
   -4.3239    1.1739   -2.3519 O   0  0  0  0  0  0  0  0  0  0  0  0
   -5.9042    0.0851   -0.9735 C   0  0  1  0  0  0  0  0  0  0  0  0
   -6.0783   -0.1178    0.4858 C   0  0  0  0  0  0  0  0  0  0  0  0
   -5.6344    0.9641    1.3741 C   0  0  0  0  0  0  0  0  0  0  0  0
   -4.3909    1.0492    1.9608 C   0  0  0  0  0  0  0  0  0  0  0  0
   -4.0783    2.1022    2.7750 C   0  0  0  0  0  0  0  0  0  0  0  0
   -4.9786    3.1387    3.0597 C   0  0  0  0  0  0  0  0  0  0  0  0
   -6.2324    3.0501    2.4672 C   0  0  0  0  0  0  0  0  0  0  0  0
   -6.5542    1.9819    1.6390 C   0  0  0  0  0  0  0  0  0  0  0  0
   -6.7887    1.0885   -1.5355 N   0  0  0  0  0  0  0  0  0  0  0  0
   -7.9372    0.6821   -2.3261 C   0  0  0  0  0  0  0  0  0  0  0  0
   -8.1816   -0.5301   -2.5413 O   0  0  0  0  0  0  0  0  0  0  0  0
   -8.8407    1.7481   -2.8906 C   0  0  0  0  0  0  0  0  0  0  0  0
   -1.6852   -1.9672   -1.6547 C   0  0  0  0  0  0  0  0  0  0  0  0
   -2.6517   -2.7029   -2.5303 C   0  0  0  0  0  0  0  0  0  0  0  0
   -2.5392   -2.6603   -3.8912 C   0  0  0  0  0  0  0  0  0  0  0  0
   -3.3993   -3.3145   -4.7638 C   0  0  0  0  0  0  0  0  0  0  0  0
   -4.4211   -4.0411   -4.1587 C   0  0  0  0  0  0  0  0  0  0  0  0
   -4.5611   -4.1021   -2.7751 C   0  0  0  0  0  0  0  0  0  0  0  0
   -3.6792   -3.4360   -1.9735 C   0  0  0  0  0  0  0  0  0  0  0  0
    3.1891    2.1354    7.0812 N   0  0  0  0  0  0  0  0  0  0  0  0
    1.1709   -0.3663    6.5002 H   0  0  0  0  0  0  0  0  0  0  0  0
    2.8942   -0.7426    6.6188 H   0  0  0  0  0  0  0  0  0  0  0  0
    0.1818    0.7972    4.4339 H   0  0  0  0  0  0  0  0  0  0  0  0
    1.6791   -0.1731    4.3819 H   0  0  0  0  0  0  0  0  0  0  0  0
    1.2569    2.2925    2.5792 H   0  0  0  0  0  0  0  0  0  0  0  0
    2.6396    1.1295    2.5917 H   0  0  0  0  0  0  0  0  0  0  0  0
   -0.2616    0.3692    2.0507 H   0  0  0  0  0  0  0  0  0  0  0  0
    1.2496   -0.7000    1.8787 H   0  0  0  0  0  0  0  0  0  0  0  0
    0.5986    1.8087    0.3253 H   0  0  0  0  0  0  0  0  0  0  0  0
    2.4534   -0.6293   -1.6556 H   0  0  0  0  0  0  0  0  0  0  0  0
    4.9191    0.9444   -0.7800 H   0  0  0  0  0  0  0  0  0  0  0  0
    6.5708    1.1571   -2.9296 H   0  0  0  0  0  0  0  0  0  0  0  0
    6.1117    0.1922   -4.3992 H   0  0  0  0  0  0  0  0  0  0  0  0
    4.6372   -1.9220   -1.7721 H   0  0  0  0  0  0  0  0  0  0  0  0
    4.8747   -1.4058   -0.0116 H   0  0  0  0  0  0  0  0  0  0  0  0
    6.7718   -2.2386   -3.2064 H   0  0  0  0  0  0  0  0  0  0  0  0
    9.3156   -1.7457   -2.8848 H   0  0  0  0  0  0  0  0  0  0  0  0
    6.4143    0.3064    1.1671 H   0  0  0  0  0  0  0  0  0  0  0  0
    8.4656    1.2000    2.2512 H   0  0  0  0  0  0  0  0  0  0  0  0
   10.6308    0.8729    1.2571 H   0  0  0  0  0  0  0  0  0  0  0  0
   10.9088   -0.3832   -0.9089 H   0  0  0  0  0  0  0  0  0  0  0  0
    0.5560   -0.7658   -1.1754 H   0  0  0  0  0  0  0  0  0  0  0  0
   -2.0183   -0.0081   -2.3912 H   0  0  0  0  0  0  0  0  0  0  0  0
   -3.7872   -1.2418   -0.2430 H   0  0  0  0  0  0  0  0  0  0  0  0
   -6.3288   -0.8941   -1.4311 H   0  0  0  0  0  0  0  0  0  0  0  0
   -5.6215   -1.0934    0.7976 H   0  0  0  0  0  0  0  0  0  0  0  0
   -7.1767   -0.2849    0.6983 H   0  0  0  0  0  0  0  0  0  0  0  0
   -3.7064    0.2275    1.7343 H   0  0  0  0  0  0  0  0  0  0  0  0
   -3.0719    2.1400    3.2288 H   0  0  0  0  0  0  0  0  0  0  0  0
   -4.7461    3.9610    3.6967 H   0  0  0  0  0  0  0  0  0  0  0  0
   -7.0046    3.8086    2.6270 H   0  0  0  0  0  0  0  0  0  0  0  0
   -7.5452    1.9617    1.2038 H   0  0  0  0  0  0  0  0  0  0  0  0
   -6.6576    2.1158   -1.4116 H   0  0  0  0  0  0  0  0  0  0  0  0
   -8.4389    2.2317   -3.7839 H   0  0  0  0  0  0  0  0  0  0  0  0
   -9.0158    2.5465   -2.1166 H   0  0  0  0  0  0  0  0  0  0  0  0
   -9.7844    1.2578   -3.1594 H   0  0  0  0  0  0  0  0  0  0  0  0
   -0.7022   -1.9999   -2.1892 H   0  0  0  0  0  0  0  0  0  0  0  0
   -1.5470   -2.5509   -0.7154 H   0  0  0  0  0  0  0  0  0  0  0  0
   -1.7156   -2.0724   -4.2948 H   0  0  0  0  0  0  0  0  0  0  0  0
   -3.2920   -3.2661   -5.8410 H   0  0  0  0  0  0  0  0  0  0  0  0
   -5.1369   -4.5789   -4.7968 H   0  0  0  0  0  0  0  0  0  0  0  0
   -5.3574   -4.6680   -2.3056 H   0  0  0  0  0  0  0  0  0  0  0  0
   -3.8077   -3.5060   -0.9125 H   0  0  0  0  0  0  0  0  0  0  0  0
    2.8668    3.0532    7.4529 H   0  0  0  0  0  0  0  0  0  0  0  0
    4.1267    1.7593    7.4099 H   0  0  0  0  0  0  0  0  0  0  0  0
  1  2  1  0
  2  3  2  3
  3  4  1  0
  4  5  1  0
  5  6  1  0
  6  7  1  0
  7  8  1  0
  8  9  2  0
  8 10  1  0
 10 11  1  0
 11 12  1  0
 12 13  2  0
 12 14  1  0
 11 15  1  0
 15 16  1  0
 16 17  2  0
 17 18  1  0
 18 19  1  0
 19 20  2  0
 20 21  1  0
 21 22  2  0
 22 23  1  0
 23 24  2  0
  7 25  1  0
 25 26  1  0
 26 27  2  0
 26 28  1  0
 28 29  1  0
 29 30  1  0
 30 31  2  0
 30 32  1  0
 32 33  1  0
 33 34  1  0
 34 35  2  0
 35 36  1  0
 36 37  2  0
 37 38  1  0
 38 39  2  0
 32 40  1  0
 40 41  1  0
 41 42  2  0
 41 43  1  0
 28 44  1  0
 44 45  1  0
 45 46  2  0
 46 47  1  0
 47 48  2  0
 48 49  1  0
 49 50  2  0
  2 51  1  0
 20 16  1  0
 39 34  1  0
 50 45  1  0
 24 19  1  0
  1 52  1  0
  1 53  1  0
  4 54  1  0
  4 55  1  0
  5 56  1  0
  5 57  1  0
  6 58  1  0
  6 59  1  0
  7 60  1  1
 10 61  1  0
 11 62  1  1
 14 63  1  0
 14 64  1  0
 15 65  1  0
 15 66  1  0
 17 67  1  0
 18 68  1  0
 21 69  1  0
 22 70  1  0
 23 71  1  0
 24 72  1  0
 25 73  1  0
 28 74  1  6
 29 75  1  0
 32 76  1  6
 33 77  1  0
 33 78  1  0
 35 79  1  0
 36 80  1  0
 37 81  1  0
 38 82  1  0
 39 83  1  0
 40 84  1  0
 43 85  1  0
 43 86  1  0
 43 87  1  0
 44 88  1  0
 44 89  1  0
 46 90  1  0
 47 91  1  0
 48 92  1  0
 49 93  1  0
 50 94  1  0
 51 95  1  0
 51 96  1  0
M  END
>  <Ligand ID>  (1) 
LIG0001454

>  <Ligand>  (1) 
CHEMBL329847

>  <SMILES>  (1) 
NC(=NCCC[C@@H](C(=O)N[C@H](C(=O)N)Cc1c[nH]c2c1cccc2)NC(=O)[C@H](NC(=O)[C@@H](Cc1ccccc1)NC(=O)C)Cc1ccccc1)N

>  <CID>  (1) 
11083009.0

>  <ChEMBL ID>  (1) 
nan

>  <InChiKey>  (1) 
MFTYXDJIYBBSIZ-GASGPIRDSA-N

>  <InChi>  (1) 
InChI=1S/C37H45N9O5/c1-23(47)43-31(19-24-11-4-2-5-12-24)35(50)46-32(20-25-13-6-3-7-14-25)36(51)44-29(17-10-18-41-37(39)40)34(49)45-30(33(38)48)21-26-22-42-28-16-9-8-15-27(26)28/h2-9,11-16,22,29-32,42H,10,17-21H2,1H3,(H2,38,48)(H,43,47)(H,44,51)(H,45,49)(H,46,50)(H4,39,40,41)/t29-,30-,31+,32+/m0/s1

>  <IUPAC Name>  (1) 
(2S)-2-[[(2R)-2-[[(2R)-2-acetamido-3-phenylpropanoyl]amino]-3-phenylpropanoyl]amino]-N-[(2S)-1-amino-3-(1H-indol-3-yl)-1-oxopropan-2-yl]-5-(diaminomethylideneamino)pentanamide

$$$$
