
     RDKit          3D

 91 92  0  0  0  0  0  0  0  0999 V2000
   -0.9937   -0.0519   -0.0423 C   0  0  0  0  0  0  0  0  0  0  0  0
    0.4667    0.2648   -0.0292 C   0  0  0  0  0  0  0  0  0  0  0  0
    0.8295    1.4281    0.2912 O   0  0  0  0  0  0  0  0  0  0  0  0
    1.4404   -0.6652   -0.3540 O   0  0  0  0  0  0  0  0  0  0  0  0
   -7.5378   -3.0159   -4.2672 O   0  0  0  0  0  0  0  0  0  0  0  0
   -7.4698   -2.7911   -2.8990 C   0  0  0  0  0  0  0  0  0  0  0  0
   -6.1139   -2.3849   -2.4934 C   0  0  0  0  0  0  0  0  0  0  0  0
   -5.8988   -1.0288   -2.2176 C   0  0  0  0  0  0  0  0  0  0  0  0
   -4.6455   -0.6277   -1.8350 C   0  0  0  0  0  0  0  0  0  0  0  0
   -3.5699   -1.4894   -1.7033 C   0  0  0  0  0  0  0  0  0  0  0  0
   -3.8080   -2.8337   -1.9829 C   0  0  0  0  0  0  0  0  0  0  0  0
   -5.0619   -3.2783   -2.3738 C   0  0  0  0  0  0  0  0  0  0  0  0
   -5.2469   -4.6081   -2.6384 O   0  0  0  0  0  0  0  0  0  0  0  0
   -4.4303    0.8134   -1.5529 C   0  0  2  0  0  0  0  0  0  0  0  0
   -5.2392    1.1532   -0.2907 C   0  0  0  0  0  0  0  0  0  0  0  0
   -4.7808    0.3777    0.7692 N   0  0  0  0  0  0  0  0  0  0  0  0
   -3.5356    0.4833    1.3553 C   0  0  0  0  0  0  0  0  0  0  0  0
   -3.1461    1.6454    2.2083 C   0  0  0  0  0  0  0  0  0  0  0  0
   -3.1485    2.9898    1.5606 C   0  0  0  0  0  0  0  0  0  0  0  0
   -2.6739    4.0568    2.5368 C   0  0  0  0  0  0  0  0  0  0  0  0
   -1.2800    3.8452    3.0473 C   0  0  0  0  0  0  0  0  0  0  0  0
   -0.2264    3.8169    1.9605 C   0  0  0  0  0  0  0  0  0  0  0  0
    1.0457    3.6424    2.4418 O   0  0  0  0  0  0  0  0  0  0  0  0
    1.2973    2.4919    3.1334 C   0  0  0  0  0  0  0  0  0  0  0  0
    1.1084    1.2208    2.3329 C   0  0  0  0  0  0  0  0  0  0  0  0
    1.3936   -0.0053    3.1317 C   0  0  0  0  0  0  0  0  0  0  0  0
    2.7767   -0.1473    3.6543 C   0  0  0  0  0  0  0  0  0  0  0  0
    3.8375   -0.2298    2.6304 C   0  0  0  0  0  0  0  0  0  0  0  0
    4.1996   -1.4923    2.1426 C   0  0  0  0  0  0  0  0  0  0  0  0
    5.1945   -1.6350    1.1848 C   0  0  0  0  0  0  0  0  0  0  0  0
    5.8678   -0.5466    0.6723 C   0  0  0  0  0  0  0  0  0  0  0  0
    5.5181    0.6903    1.1446 C   0  0  0  0  0  0  0  0  0  0  0  0
    4.5181    0.8325    2.1078 C   0  0  0  0  0  0  0  0  0  0  0  0
    7.1342   -0.6676   -0.5214 S   0  0  0  0  0  0  0  0  0  0  0  0
    8.0005   -1.8623   -0.3160 O   0  0  0  0  0  0  0  0  0  0  0  0
    8.0040    0.5494   -0.4121 O   0  0  0  0  0  0  0  0  0  0  0  0
    6.3795   -0.6794   -2.1263 C   0  0  0  0  0  0  0  0  0  0  0  0
    7.4574   -0.7892   -3.2132 C   0  0  0  0  0  0  0  0  0  0  0  0
    6.7051   -1.3214   -4.3825 C   0  0  0  0  0  0  0  0  0  0  0  0
    5.4269   -1.9274   -3.8720 C   0  0  0  0  0  0  0  0  0  0  0  0
    5.5921   -1.9426   -2.3711 C   0  0  0  0  0  0  0  0  0  0  0  0
   -4.9484    1.6186   -2.5737 O   0  0  0  0  0  0  0  0  0  0  0  0
   -1.3344   -0.2588    0.9925 H   0  0  0  0  0  0  0  0  0  0  0  0
   -1.1982   -0.9652   -0.6347 H   0  0  0  0  0  0  0  0  0  0  0  0
   -1.5116    0.8541   -0.4379 H   0  0  0  0  0  0  0  0  0  0  0  0
    2.3014   -0.6058    0.2143 H   0  0  0  0  0  0  0  0  0  0  0  0
   -8.5080   -3.0919   -4.5286 H   0  0  0  0  0  0  0  0  0  0  0  0
   -8.2043   -2.0267   -2.5730 H   0  0  0  0  0  0  0  0  0  0  0  0
   -7.7737   -3.7297   -2.3752 H   0  0  0  0  0  0  0  0  0  0  0  0
   -6.7389   -0.3436   -2.3184 H   0  0  0  0  0  0  0  0  0  0  0  0
   -2.5778   -1.1459   -1.3963 H   0  0  0  0  0  0  0  0  0  0  0  0
   -2.9772   -3.5256   -1.8837 H   0  0  0  0  0  0  0  0  0  0  0  0
   -6.1522   -4.9467   -2.9270 H   0  0  0  0  0  0  0  0  0  0  0  0
   -3.3737    1.0886   -1.3936 H   0  0  0  0  0  0  0  0  0  0  0  0
   -5.3840    2.2224   -0.1885 H   0  0  0  0  0  0  0  0  0  0  0  0
   -6.2873    0.7355   -0.5542 H   0  0  0  0  0  0  0  0  0  0  0  0
   -5.4050   -0.3558    1.1253 H   0  0  0  0  0  0  0  0  0  0  0  0
   -3.3213   -0.4759    1.9543 H   0  0  0  0  0  0  0  0  0  0  0  0
   -2.7422    0.3532    0.5213 H   0  0  0  0  0  0  0  0  0  0  0  0
   -3.7945    1.6761    3.1483 H   0  0  0  0  0  0  0  0  0  0  0  0
   -2.1300    1.4291    2.6341 H   0  0  0  0  0  0  0  0  0  0  0  0
   -2.5780    3.0218    0.6262 H   0  0  0  0  0  0  0  0  0  0  0  0
   -4.2288    3.2724    1.3423 H   0  0  0  0  0  0  0  0  0  0  0  0
   -3.3505    4.0038    3.4135 H   0  0  0  0  0  0  0  0  0  0  0  0
   -2.7973    5.0721    2.1050 H   0  0  0  0  0  0  0  0  0  0  0  0
   -1.0826    4.7321    3.7273 H   0  0  0  0  0  0  0  0  0  0  0  0
   -1.2273    2.9067    3.6145 H   0  0  0  0  0  0  0  0  0  0  0  0
   -0.2470    4.8395    1.4966 H   0  0  0  0  0  0  0  0  0  0  0  0
   -0.5265    3.1221    1.1524 H   0  0  0  0  0  0  0  0  0  0  0  0
    0.6903    2.4316    4.0857 H   0  0  0  0  0  0  0  0  0  0  0  0
    2.3408    2.5163    3.4910 H   0  0  0  0  0  0  0  0  0  0  0  0
    0.1060    1.1440    1.8914 H   0  0  0  0  0  0  0  0  0  0  0  0
    1.8119    1.2063    1.4530 H   0  0  0  0  0  0  0  0  0  0  0  0
    0.6851   -0.1497    3.9730 H   0  0  0  0  0  0  0  0  0  0  0  0
    1.2030   -0.8796    2.4566 H   0  0  0  0  0  0  0  0  0  0  0  0
    2.8008   -1.1170    4.2283 H   0  0  0  0  0  0  0  0  0  0  0  0
    3.0545    0.6306    4.3975 H   0  0  0  0  0  0  0  0  0  0  0  0
    3.6842   -2.3766    2.5297 H   0  0  0  0  0  0  0  0  0  0  0  0
    5.4623   -2.6164    0.8177 H   0  0  0  0  0  0  0  0  0  0  0  0
    6.0267    1.5737    0.7657 H   0  0  0  0  0  0  0  0  0  0  0  0
    4.3114    1.8391    2.4228 H   0  0  0  0  0  0  0  0  0  0  0  0
    5.7841    0.2282   -2.2981 H   0  0  0  0  0  0  0  0  0  0  0  0
    7.9212    0.2042   -3.4024 H   0  0  0  0  0  0  0  0  0  0  0  0
    8.1847   -1.5365   -2.8492 H   0  0  0  0  0  0  0  0  0  0  0  0
    6.5223   -0.5005   -5.1152 H   0  0  0  0  0  0  0  0  0  0  0  0
    7.2956   -2.1678   -4.8423 H   0  0  0  0  0  0  0  0  0  0  0  0
    5.2467   -2.9442   -4.2809 H   0  0  0  0  0  0  0  0  0  0  0  0
    4.6041   -1.2160   -4.1315 H   0  0  0  0  0  0  0  0  0  0  0  0
    6.2375   -2.8048   -2.1037 H   0  0  0  0  0  0  0  0  0  0  0  0
    4.6210   -1.9576   -1.8398 H   0  0  0  0  0  0  0  0  0  0  0  0
   -5.8814    1.8901   -2.3444 H   0  0  0  0  0  0  0  0  0  0  0  0
  1  2  1  0
  2  3  2  0
  2  4  1  0
  5  6  1  0
  6  7  1  0
  7  8  2  0
  8  9  1  0
  9 10  2  0
 10 11  1  0
 11 12  2  0
 12 13  1  0
  9 14  1  0
 14 15  1  0
 15 16  1  0
 16 17  1  0
 17 18  1  0
 18 19  1  0
 19 20  1  0
 20 21  1  0
 21 22  1  0
 22 23  1  0
 23 24  1  0
 24 25  1  0
 25 26  1  0
 26 27  1  0
 27 28  1  0
 28 29  2  0
 29 30  1  0
 30 31  2  0
 31 32  1  0
 32 33  2  0
 31 34  1  0
 34 35  2  0
 34 36  2  0
 34 37  1  0
 37 38  1  0
 38 39  1  0
 39 40  1  0
 40 41  1  0
 14 42  1  0
 12  7  1  0
 33 28  1  0
 41 37  1  0
  1 43  1  0
  1 44  1  0
  1 45  1  0
  4 46  1  0
  5 47  1  0
  6 48  1  0
  6 49  1  0
  8 50  1  0
 10 51  1  0
 11 52  1  0
 13 53  1  0
 14 54  1  1
 15 55  1  0
 15 56  1  0
 16 57  1  0
 17 58  1  0
 17 59  1  0
 18 60  1  0
 18 61  1  0
 19 62  1  0
 19 63  1  0
 20 64  1  0
 20 65  1  0
 21 66  1  0
 21 67  1  0
 22 68  1  0
 22 69  1  0
 24 70  1  0
 24 71  1  0
 25 72  1  0
 25 73  1  0
 26 74  1  0
 26 75  1  0
 27 76  1  0
 27 77  1  0
 29 78  1  0
 30 79  1  0
 32 80  1  0
 33 81  1  0
 37 82  1  0
 38 83  1  0
 38 84  1  0
 39 85  1  0
 39 86  1  0
 40 87  1  0
 40 88  1  0
 41 89  1  0
 41 90  1  0
 42 91  1  0
M  END
>  <Ligand ID>  (1) 
LIG0003354

>  <Ligand>  (1) 
SCHEMBL4629329

>  <SMILES>  (1) 
CC(=O)O.OCc1cc(ccc1O)[C@H](CNCCCCCCOCCCCc1ccc(cc1)S(=O)(=O)C1CCCC1)O

>  <CID>  (1) 
69120058.0

>  <ChEMBL ID>  (1) 
nan

>  <InChiKey>  (1) 
DQXJQKYCHCEZCV-CZCBIWLKSA-N

>  <InChi>  (1) 
InChI=1S/C30H45NO6S.C2H4O2/c32-23-26-21-25(14-17-29(26)33)30(34)22-31-18-6-1-2-7-19-37-20-8-5-9-24-12-15-28(16-13-24)38(35,36)27-10-3-4-11-27;1-2(3)4/h12-17,21,27,30-34H,1-11,18-20,22-23H2;1H3,(H,3,4)/t30-;/m0./s1

>  <IUPAC Name>  (1) 
acetic acid;4-[(1R)-2-[6-[4-(4-cyclopentylsulfonylphenyl)butoxy]hexylamino]-1-hydroxyethyl]-2-(hydroxymethyl)phenol

$$$$
