
     RDKit          3D

 76 81  0  0  0  0  0  0  0  0999 V2000
    1.9470    1.5192    2.2443 O   0  0  0  0  0  0  0  0  0  0  0  0
    2.5408    1.0588    1.2557 C   0  0  0  0  0  0  0  0  0  0  0  0
    3.8507    1.6600    0.8926 C   0  0  2  0  0  0  0  0  0  0  0  0
    4.3839    1.0021   -0.2643 N   0  0  0  0  0  0  0  0  0  0  0  0
    5.5299    1.6750   -0.8313 C   0  0  0  0  0  0  0  0  0  0  0  0
    6.5178    1.9956    0.2378 C   0  0  0  0  0  0  0  0  0  0  0  0
    6.1668    1.9339    1.5564 C   0  0  0  0  0  0  0  0  0  0  0  0
    4.8215    1.5568    2.0520 C   0  0  0  0  0  0  0  0  0  0  0  0
    7.1339    2.2443    2.4915 C   0  0  0  0  0  0  0  0  0  0  0  0
    8.4075    2.6021    2.0697 C   0  0  0  0  0  0  0  0  0  0  0  0
    8.7522    2.6616    0.7386 C   0  0  0  0  0  0  0  0  0  0  0  0
    7.7935    2.3537   -0.1980 C   0  0  0  0  0  0  0  0  0  0  0  0
    2.0141   -0.0064    0.4759 N   0  0  0  0  0  0  0  0  0  0  0  0
    0.7259   -0.6386    0.7879 C   0  0  1  0  0  0  0  0  0  0  0  0
   -0.1590   -0.6177   -0.3849 C   0  0  0  0  0  0  0  0  0  0  0  0
    0.3593   -0.1864   -1.4748 O   0  0  0  0  0  0  0  0  0  0  0  0
   -1.5027   -1.0121   -0.4513 N   0  0  0  0  0  0  0  0  0  0  0  0
   -2.1474   -0.9140   -1.7615 C   0  0  0  0  0  0  0  0  0  0  0  0
   -3.2650    0.1382   -1.5645 C   0  0  0  0  0  0  0  0  0  0  0  0
   -4.2099   -0.4602   -0.6068 N   0  0  0  0  0  0  0  0  0  0  0  0
   -3.7574   -1.1869    0.5580 C   0  0  0  0  0  0  0  0  0  0  0  0
   -2.3038   -1.4823    0.6395 C   0  0  0  0  0  0  0  0  0  0  0  0
   -5.6188   -0.3700   -0.7941 C   0  0  0  0  0  0  0  0  0  0  0  0
   -6.2850   -1.5938   -0.9193 C   0  0  0  0  0  0  0  0  0  0  0  0
   -7.6485   -1.6666   -1.1138 C   0  0  0  0  0  0  0  0  0  0  0  0
   -8.3391   -0.4787   -1.1812 C   0  0  0  0  0  0  0  0  0  0  0  0
   -7.6864    0.7290   -1.0581 C   0  0  0  0  0  0  0  0  0  0  0  0
   -6.3074    0.8152   -0.8608 C   0  0  0  0  0  0  0  0  0  0  0  0
   -5.6541    2.1396   -0.7238 C   0  0  0  0  0  0  0  0  0  0  0  0
   -5.3592    2.4501    0.6583 N   0  0  0  0  0  0  0  0  0  0  0  0
   -4.2680    2.2044    1.3977 C   0  0  0  0  0  0  0  0  0  0  0  0
   -4.4431    2.6783    2.6474 N   0  0  0  0  0  0  0  0  0  0  0  0
   -5.6436    3.2286    2.7156 N   0  0  0  0  0  0  0  0  0  0  0  0
   -6.2049    3.0951    1.5167 C   0  0  0  0  0  0  0  0  0  0  0  0
    0.9911   -2.1044    1.1649 C   0  0  0  0  0  0  0  0  0  0  0  0
    1.6393   -2.8412    0.0470 C   0  0  0  0  0  0  0  0  0  0  0  0
    0.9375   -3.5081   -0.9250 C   0  0  0  0  0  0  0  0  0  0  0  0
    1.6852   -4.1516   -1.9080 C   0  0  0  0  0  0  0  0  0  0  0  0
    3.0590   -4.1357   -1.9279 C   0  0  0  0  0  0  0  0  0  0  0  0
    3.7596   -3.4670   -0.9531 C   0  0  0  0  0  0  0  0  0  0  0  0
    3.0338   -2.8277    0.0230 C   0  0  0  0  0  0  0  0  0  0  0  0
    3.9994   -4.9485   -3.1695 Cl  0  0  0  0  0  0  0  0  0  0  0  0
    3.6985    2.7234    0.6334 H   0  0  0  0  0  0  0  0  0  0  0  0
    4.6583    0.0097   -0.0513 H   0  0  0  0  0  0  0  0  0  0  0  0
    5.2395    2.5831   -1.3941 H   0  0  0  0  0  0  0  0  0  0  0  0
    6.0378    0.9329   -1.4923 H   0  0  0  0  0  0  0  0  0  0  0  0
    4.5445    2.2616    2.8733 H   0  0  0  0  0  0  0  0  0  0  0  0
    4.8524    0.5030    2.3988 H   0  0  0  0  0  0  0  0  0  0  0  0
    6.9525    2.2239    3.5504 H   0  0  0  0  0  0  0  0  0  0  0  0
    9.1824    2.8501    2.7941 H   0  0  0  0  0  0  0  0  0  0  0  0
    9.7522    2.9427    0.4076 H   0  0  0  0  0  0  0  0  0  0  0  0
    8.0320    2.3907   -1.2577 H   0  0  0  0  0  0  0  0  0  0  0  0
    2.5294   -0.3781   -0.3512 H   0  0  0  0  0  0  0  0  0  0  0  0
    0.3020   -0.1601    1.6854 H   0  0  0  0  0  0  0  0  0  0  0  0
   -1.4658   -0.5321   -2.5270 H   0  0  0  0  0  0  0  0  0  0  0  0
   -2.5790   -1.8682   -2.0753 H   0  0  0  0  0  0  0  0  0  0  0  0
   -3.6949    0.3117   -2.5455 H   0  0  0  0  0  0  0  0  0  0  0  0
   -2.7358    0.9984   -1.1060 H   0  0  0  0  0  0  0  0  0  0  0  0
   -4.3078   -2.1828    0.5192 H   0  0  0  0  0  0  0  0  0  0  0  0
   -4.0340   -0.6579    1.5029 H   0  0  0  0  0  0  0  0  0  0  0  0
   -1.8670   -1.1841    1.6334 H   0  0  0  0  0  0  0  0  0  0  0  0
   -2.1745   -2.6067    0.6391 H   0  0  0  0  0  0  0  0  0  0  0  0
   -5.7584   -2.5389   -0.8689 H   0  0  0  0  0  0  0  0  0  0  0  0
   -8.1379   -2.6260   -1.2072 H   0  0  0  0  0  0  0  0  0  0  0  0
   -9.4146   -0.5502   -1.3349 H   0  0  0  0  0  0  0  0  0  0  0  0
   -8.3052    1.6261   -1.1230 H   0  0  0  0  0  0  0  0  0  0  0  0
   -6.4046    2.9186   -1.0604 H   0  0  0  0  0  0  0  0  0  0  0  0
   -4.7513    2.1862   -1.3751 H   0  0  0  0  0  0  0  0  0  0  0  0
   -3.3810    1.7094    1.0705 H   0  0  0  0  0  0  0  0  0  0  0  0
   -7.2117    3.4634    1.2800 H   0  0  0  0  0  0  0  0  0  0  0  0
    1.6987   -2.0277    2.0410 H   0  0  0  0  0  0  0  0  0  0  0  0
    0.0392   -2.5402    1.4857 H   0  0  0  0  0  0  0  0  0  0  0  0
   -0.1307   -3.5125   -0.8979 H   0  0  0  0  0  0  0  0  0  0  0  0
    1.1437   -4.6806   -2.6795 H   0  0  0  0  0  0  0  0  0  0  0  0
    4.8459   -3.4295   -0.9317 H   0  0  0  0  0  0  0  0  0  0  0  0
    3.5991   -2.3030    0.7874 H   0  0  0  0  0  0  0  0  0  0  0  0
  1  2  2  0
  2  3  1  0
  3  4  1  0
  4  5  1  0
  5  6  1  0
  6  7  2  0
  7  8  1  0
  7  9  1  0
  9 10  2  0
 10 11  1  0
 11 12  2  0
  2 13  1  0
 13 14  1  0
 14 15  1  0
 15 16  2  0
 15 17  1  0
 17 18  1  0
 18 19  1  0
 19 20  1  0
 20 21  1  0
 21 22  1  0
 20 23  1  0
 23 24  2  0
 24 25  1  0
 25 26  2  0
 26 27  1  0
 27 28  2  0
 28 29  1  0
 29 30  1  0
 30 31  1  0
 31 32  2  0
 32 33  1  0
 33 34  2  0
 14 35  1  0
 35 36  1  0
 36 37  2  0
 37 38  1  0
 38 39  2  0
 39 40  1  0
 40 41  2  0
 39 42  1  0
  8  3  1  0
 22 17  1  0
 28 23  1  0
 34 30  1  0
 41 36  1  0
 12  6  1  0
  3 43  1  6
  4 44  1  0
  5 45  1  0
  5 46  1  0
  8 47  1  0
  8 48  1  0
  9 49  1  0
 10 50  1  0
 11 51  1  0
 12 52  1  0
 13 53  1  0
 14 54  1  1
 18 55  1  0
 18 56  1  0
 19 57  1  0
 19 58  1  0
 21 59  1  0
 21 60  1  0
 22 61  1  0
 22 62  1  0
 24 63  1  0
 25 64  1  0
 26 65  1  0
 27 66  1  0
 29 67  1  0
 29 68  1  0
 31 69  1  0
 34 70  1  0
 35 71  1  0
 35 72  1  0
 37 73  1  0
 38 74  1  0
 40 75  1  0
 41 76  1  0
M  END
>  <Ligand ID>  (1) 
LIG0000679

>  <Ligand>  (1) 
CHEMBL333283

>  <SMILES>  (1) 
O=C([C@@H]1NCc2c(C1)cccc2)N[C@@H](C(=O)N1CCN(CC1)c1ccccc1Cn1cnnc1)Cc1ccc(cc1)Cl

>  <CID>  (1) 
44349019.0

>  <ChEMBL ID>  (1) 
nan

>  <InChiKey>  (1) 
SQUPSEKHAYZJTP-FQLXRVMXSA-N

>  <InChi>  (1) 
InChI=1S/C32H34ClN7O2/c33-27-11-9-23(10-12-27)17-29(37-31(41)28-18-24-5-1-2-6-25(24)19-34-28)32(42)40-15-13-39(14-16-40)30-8-4-3-7-26(30)20-38-21-35-36-22-38/h1-12,21-22,28-29,34H,13-20H2,(H,37,41)/t28-,29-/m1/s1

>  <IUPAC Name>  (1) 
(3R)-N-[(2R)-3-(4-chlorophenyl)-1-oxo-1-[4-[2-(1,2,4-triazol-4-ylmethyl)phenyl]piperazin-1-yl]propan-2-yl]-1,2,3,4-tetrahydroisoquinoline-3-carboxamide

$$$$
