
     RDKit          3D

 63 63  0  0  0  0  0  0  0  0999 V2000
    6.4282    3.1931    0.7546 C   0  0  0  0  0  0  0  0  0  0  0  0
    5.5821    2.8987   -0.4673 C   0  0  0  0  0  0  0  0  0  0  0  0
    5.0095    1.5020   -0.2757 C   0  0  0  0  0  0  0  0  0  0  0  0
    6.1039    0.4752   -0.1472 C   0  0  0  0  0  0  0  0  0  0  0  0
    5.5934   -0.9274    0.0513 C   0  0  0  0  0  0  0  0  0  0  0  0
    4.7399   -1.4016   -1.0740 C   0  0  0  0  0  0  0  0  0  0  0  0
    4.2023   -2.7937   -0.9293 C   0  0  0  0  0  0  0  0  0  0  0  0
    3.3190   -3.0381    0.2344 C   0  0  0  0  0  0  0  0  0  0  0  0
    2.0827   -2.2729    0.3154 C   0  0  0  0  0  0  0  0  0  0  0  0
    1.9101   -1.0631    0.9447 C   0  0  0  0  0  0  0  0  0  0  0  0
    0.6976   -0.3902    0.9763 C   0  0  0  0  0  0  0  0  0  0  0  0
   -0.4069   -0.9374    0.3546 C   0  0  0  0  0  0  0  0  0  0  0  0
   -0.2674   -2.1523   -0.2867 C   0  0  0  0  0  0  0  0  0  0  0  0
    0.9497   -2.8034   -0.3049 C   0  0  0  0  0  0  0  0  0  0  0  0
   -1.7102   -0.2761    0.3539 C   0  0  0  0  0  0  0  0  0  0  0  0
   -2.0358    0.9198    0.9316 C   0  0  0  0  0  0  0  0  0  0  0  0
   -3.3580    1.1567    0.6875 N   0  0  0  0  0  0  0  0  0  0  0  0
   -3.8524    0.1301   -0.0289 C   0  0  0  0  0  0  0  0  0  0  0  0
   -2.8479   -0.7425   -0.2318 N   0  0  0  0  0  0  0  0  0  0  0  0
   -5.2285   -0.0897   -0.5443 C   0  0  0  0  0  0  0  0  0  0  0  0
   -6.1025    1.0618   -0.1477 C   0  0  0  0  0  0  0  0  0  0  0  0
   -6.0971    1.1775    1.2266 O   0  0  0  0  0  0  0  0  0  0  0  0
   -7.0702    2.4696    1.7742 P   0  0  0  0  0  0  0  0  0  0  0  0
   -6.6366    2.6926    3.2255 O   0  0  0  0  0  0  0  0  0  0  0  0
   -8.7072    2.0572    1.7441 O   0  0  0  0  0  0  0  0  0  0  0  0
   -6.8315    3.8650    0.8777 O   0  0  0  0  0  0  0  0  0  0  0  0
   -5.7195   -1.4078    0.0081 C   0  0  0  0  0  0  0  0  0  0  0  0
   -6.9883   -1.6456   -0.5029 O   0  0  0  0  0  0  0  0  0  0  0  0
   -5.2075   -0.2469   -2.0052 N   0  0  0  0  0  0  0  0  0  0  0  0
    0.6863    0.0000    0.0000 Cl  0  0  0  0  0  0  0  0  0  0  0  0
    6.4641    4.2969    0.8969 H   0  0  0  0  0  0  0  0  0  0  0  0
    5.9993    2.7185    1.6549 H   0  0  0  0  0  0  0  0  0  0  0  0
    7.4652    2.8425    0.6425 H   0  0  0  0  0  0  0  0  0  0  0  0
    6.1618    2.9172   -1.4007 H   0  0  0  0  0  0  0  0  0  0  0  0
    4.7153    3.5904   -0.5121 H   0  0  0  0  0  0  0  0  0  0  0  0
    4.4358    1.2558   -1.2171 H   0  0  0  0  0  0  0  0  0  0  0  0
    4.3266    1.4631    0.5809 H   0  0  0  0  0  0  0  0  0  0  0  0
    6.8066    0.5464   -0.9955 H   0  0  0  0  0  0  0  0  0  0  0  0
    6.6605    0.7477    0.7923 H   0  0  0  0  0  0  0  0  0  0  0  0
    5.0258   -0.9337    1.0015 H   0  0  0  0  0  0  0  0  0  0  0  0
    6.4648   -1.6505    0.1065 H   0  0  0  0  0  0  0  0  0  0  0  0
    5.3188   -1.3966   -2.0358 H   0  0  0  0  0  0  0  0  0  0  0  0
    3.8922   -0.6863   -1.2849 H   0  0  0  0  0  0  0  0  0  0  0  0
    5.1136   -3.4478   -0.7893 H   0  0  0  0  0  0  0  0  0  0  0  0
    3.7999   -3.0853   -1.8974 H   0  0  0  0  0  0  0  0  0  0  0  0
    3.0512   -4.1143    0.2920 H   0  0  0  0  0  0  0  0  0  0  0  0
    3.8783   -2.8317    1.1945 H   0  0  0  0  0  0  0  0  0  0  0  0
    2.7308   -0.6046    1.4389 H   0  0  0  0  0  0  0  0  0  0  0  0
    0.6128    0.5674    1.4890 H   0  0  0  0  0  0  0  0  0  0  0  0
   -1.0979   -2.6243   -0.7881 H   0  0  0  0  0  0  0  0  0  0  0  0
    1.0208   -3.7565   -0.8190 H   0  0  0  0  0  0  0  0  0  0  0  0
   -1.3582    1.5802    1.4949 H   0  0  0  0  0  0  0  0  0  0  0  0
   -2.8987   -1.6578   -0.7594 H   0  0  0  0  0  0  0  0  0  0  0  0
   -7.1329    0.8339   -0.5370 H   0  0  0  0  0  0  0  0  0  0  0  0
   -5.6949    1.9631   -0.6575 H   0  0  0  0  0  0  0  0  0  0  0  0
   -9.1983    2.6579    1.1363 H   0  0  0  0  0  0  0  0  0  0  0  0
   -6.6145    3.6875   -0.0724 H   0  0  0  0  0  0  0  0  0  0  0  0
   -5.0418   -2.2028   -0.3566 H   0  0  0  0  0  0  0  0  0  0  0  0
   -5.7091   -1.3143    1.1109 H   0  0  0  0  0  0  0  0  0  0  0  0
   -7.2845   -2.5378   -0.1900 H   0  0  0  0  0  0  0  0  0  0  0  0
   -4.4224   -0.9138   -2.2027 H   0  0  0  0  0  0  0  0  0  0  0  0
   -5.0421    0.6794   -2.4667 H   0  0  0  0  0  0  0  0  0  0  0  0
   -0.6863    0.0000    0.0000 H   0  0  0  0  0  0  0  0  0  0  0  0
  1  2  1  0
  2  3  1  0
  3  4  1  0
  4  5  1  0
  5  6  1  0
  6  7  1  0
  7  8  1  0
  8  9  1  0
  9 10  2  0
 10 11  1  0
 11 12  2  0
 12 13  1  0
 13 14  2  0
 12 15  1  0
 15 16  2  0
 16 17  1  0
 17 18  2  0
 18 19  1  0
 18 20  1  0
 20 21  1  0
 21 22  1  0
 22 23  1  0
 23 24  2  0
 23 25  1  0
 23 26  1  0
 20 27  1  0
 27 28  1  0
 20 29  1  0
 14  9  1  0
 19 15  1  0
  1 31  1  0
  1 32  1  0
  1 33  1  0
  2 34  1  0
  2 35  1  0
  3 36  1  0
  3 37  1  0
  4 38  1  0
  4 39  1  0
  5 40  1  0
  5 41  1  0
  6 42  1  0
  6 43  1  0
  7 44  1  0
  7 45  1  0
  8 46  1  0
  8 47  1  0
 10 48  1  0
 11 49  1  0
 13 50  1  0
 14 51  1  0
 16 52  1  0
 19 53  1  0
 21 54  1  0
 21 55  1  0
 25 56  1  0
 26 57  1  0
 27 58  1  0
 27 59  1  0
 28 60  1  0
 29 61  1  0
 29 62  1  0
 30 63  1  0
M  END
>  <Ligand ID>  (1) 
LIG0001882

>  <Ligand>  (1) 
CHEMBL537849

>  <SMILES>  (1) 
CCCCCCCCc1ccc(cc1)c1cnc([nH]1)C(COP(=O)(O)O)(CO)N.Cl

>  <CID>  (1) 
45263215.0

>  <ChEMBL ID>  (1) 
nan

>  <InChiKey>  (1) 
YNSCJMDJHNNOKF-UHFFFAOYSA-N

>  <InChi>  (1) 
InChI=1S/C20H32N3O5P.ClH/c1-2-3-4-5-6-7-8-16-9-11-17(12-10-16)18-13-22-19(23-18)20(21,14-24)15-28-29(25,26)27;/h9-13,24H,2-8,14-15,21H2,1H3,(H,22,23)(H2,25,26,27);1H

>  <IUPAC Name>  (1) 
[2-amino-3-hydroxy-2-[5-(4-octylphenyl)-1H-imidazol-2-yl]propyl] dihydrogen phosphate;hydrochloride

$$$$
