
     RDKit          3D

 24 25  0  0  0  0  0  0  0  0999 V2000
    3.9225    0.1846    0.3472 N   0  0  0  0  0  0  0  0  0  0  0  0
    2.9050   -0.6325   -0.3059 C   0  0  0  0  0  0  0  0  0  0  0  0
    1.5454   -0.2367    0.2387 C   0  0  1  0  0  0  0  0  0  0  0  0
    1.2076    1.2236   -0.0060 C   0  0  0  0  0  0  0  0  0  0  0  0
    0.4837    0.0450   -0.7342 C   0  0  2  0  0  0  0  0  0  0  0  0
   -0.9654   -0.1034   -0.3979 C   0  0  0  0  0  0  0  0  0  0  0  0
   -1.4313   -0.0354    0.9001 C   0  0  0  0  0  0  0  0  0  0  0  0
   -2.7671   -0.1706    1.2262 C   0  0  0  0  0  0  0  0  0  0  0  0
   -3.6493   -0.3823    0.1835 C   0  0  0  0  0  0  0  0  0  0  0  0
   -3.2481   -0.4606   -1.1369 C   0  0  0  0  0  0  0  0  0  0  0  0
   -1.8944   -0.3168   -1.3980 C   0  0  0  0  0  0  0  0  0  0  0  0
   -4.4163   -0.7310   -2.4161 Cl  0  0  0  0  0  0  0  0  0  0  0  0
    3.5052    0.6557    1.1725 H   0  0  0  0  0  0  0  0  0  0  0  0
    4.2806    0.9407   -0.3009 H   0  0  0  0  0  0  0  0  0  0  0  0
    2.9728   -0.4088   -1.3911 H   0  0  0  0  0  0  0  0  0  0  0  0
    3.0984   -1.7173   -0.1930 H   0  0  0  0  0  0  0  0  0  0  0  0
    1.3375   -0.5948    1.2645 H   0  0  0  0  0  0  0  0  0  0  0  0
    0.5943    1.7714    0.7425 H   0  0  0  0  0  0  0  0  0  0  0  0
    1.8634    1.8522   -0.6170 H   0  0  0  0  0  0  0  0  0  0  0  0
    0.7354   -0.0286   -1.8138 H   0  0  0  0  0  0  0  0  0  0  0  0
   -0.6849    0.1326    1.6678 H   0  0  0  0  0  0  0  0  0  0  0  0
   -3.1228   -0.1156    2.2492 H   0  0  0  0  0  0  0  0  0  0  0  0
   -4.7116   -0.4964    0.3755 H   0  0  0  0  0  0  0  0  0  0  0  0
   -1.5605   -0.3751   -2.4264 H   0  0  0  0  0  0  0  0  0  0  0  0
  1  2  1  0
  2  3  1  0
  3  4  1  0
  4  5  1  0
  5  6  1  0
  6  7  2  0
  7  8  1  0
  8  9  2  0
  9 10  1  0
 10 11  2  0
 10 12  1  0
  5  3  1  0
 11  6  1  0
  1 13  1  0
  1 14  1  0
  2 15  1  0
  2 16  1  0
  3 17  1  1
  4 18  1  0
  4 19  1  0
  5 20  1  6
  7 21  1  0
  8 22  1  0
  9 23  1  0
 11 24  1  0
M  END
>  <Ligand ID>  (1) 
LIG0002374

>  <Ligand>  (1) 
CHEMBL493128

>  <SMILES>  (1) 
NC[C@H]1C[C@@H]1c1cccc(c1)Cl

>  <CID>  (1) 
44572800.0

>  <ChEMBL ID>  (1) 
nan

>  <InChiKey>  (1) 
KCIZHIBGICXAIM-PSASIEDQSA-N

>  <InChi>  (1) 
InChI=1S/C10H12ClN/c11-9-3-1-2-7(4-9)10-5-8(10)6-12/h1-4,8,10H,5-6,12H2/t8-,10-/m1/s1

>  <IUPAC Name>  (1) 
[(1S,2S)-2-(3-chlorophenyl)cyclopropyl]methanamine

$$$$
