
     RDKit          3D

 60 63  0  0  0  0  0  0  0  0999 V2000
    8.2074   -1.1974    0.1309 N   0  0  0  0  0  0  0  0  0  0  0  0
    7.2878   -1.9762    0.9327 C   0  0  0  0  0  0  0  0  0  0  0  0
    5.9054   -1.4929    0.6417 C   0  0  0  0  0  0  0  0  0  0  0  0
    5.3523   -0.4587    1.3974 C   0  0  0  0  0  0  0  0  0  0  0  0
    4.0903    0.0281    1.1795 C   0  0  0  0  0  0  0  0  0  0  0  0
    3.3185   -0.5310    0.1578 C   0  0  0  0  0  0  0  0  0  0  0  0
    3.8673   -1.5627   -0.5978 C   0  0  0  0  0  0  0  0  0  0  0  0
    5.1343   -2.0506   -0.3782 C   0  0  0  0  0  0  0  0  0  0  0  0
    2.0075   -0.0354   -0.0787 N   0  0  0  0  0  0  0  0  0  0  0  0
    0.8663   -0.5643    0.5582 C   0  0  0  0  0  0  0  0  0  0  0  0
    1.0634   -1.5346    1.3677 O   0  0  0  0  0  0  0  0  0  0  0  0
   -0.5211   -0.0972    0.3658 C   0  0  2  0  0  0  0  0  0  0  0  0
   -0.6996    1.2001    1.1074 C   0  0  0  0  0  0  0  0  0  0  0  0
    0.2246    2.2193    0.5955 C   0  0  0  0  0  0  0  0  0  0  0  0
    1.3697    2.6630    1.2420 C   0  0  0  0  0  0  0  0  0  0  0  0
    1.9230    3.6031    0.4636 N   0  0  0  0  0  0  0  0  0  0  0  0
    1.1703    3.7776   -0.6620 C   0  0  0  0  0  0  0  0  0  0  0  0
    0.0806    2.9130   -0.6125 C   0  0  0  0  0  0  0  0  0  0  0  0
   -0.8590    2.8731   -1.6303 C   0  0  0  0  0  0  0  0  0  0  0  0
   -0.6752    3.7163   -2.6869 C   0  0  0  0  0  0  0  0  0  0  0  0
    0.4049    4.5733   -2.7360 C   0  0  0  0  0  0  0  0  0  0  0  0
    1.3503    4.6359   -1.7457 C   0  0  0  0  0  0  0  0  0  0  0  0
   -1.4627   -1.0177    1.0205 N   0  0  0  0  0  0  0  0  0  0  0  0
   -2.5104   -1.6510    0.2859 C   0  0  0  0  0  0  0  0  0  0  0  0
   -2.5866   -1.3873   -0.9286 O   0  0  0  0  0  0  0  0  0  0  0  0
   -3.4003   -2.5323    0.9487 N   0  0  0  0  0  0  0  0  0  0  0  0
   -4.4956   -3.2224    0.3002 C   0  0  0  0  0  0  0  0  0  0  0  0
   -5.6050   -2.2944    0.0856 C   0  0  0  0  0  0  0  0  0  0  0  0
   -6.5397   -2.1525    1.1132 C   0  0  0  0  0  0  0  0  0  0  0  0
   -7.6239   -1.3000    0.9922 C   0  0  0  0  0  0  0  0  0  0  0  0
   -7.8161   -0.5500   -0.1724 C   0  0  0  0  0  0  0  0  0  0  0  0
   -6.8916   -0.6845   -1.2005 C   0  0  0  0  0  0  0  0  0  0  0  0
   -5.8240   -1.5451   -1.0411 C   0  0  0  0  0  0  0  0  0  0  0  0
    8.9704   -1.8417   -0.1754 H   0  0  0  0  0  0  0  0  0  0  0  0
    7.7634   -0.6532   -0.6161 H   0  0  0  0  0  0  0  0  0  0  0  0
    7.3472   -3.0504    0.6268 H   0  0  0  0  0  0  0  0  0  0  0  0
    7.4801   -1.8874    2.0138 H   0  0  0  0  0  0  0  0  0  0  0  0
    5.9193    0.0069    2.2047 H   0  0  0  0  0  0  0  0  0  0  0  0
    3.6886    0.8231    1.7740 H   0  0  0  0  0  0  0  0  0  0  0  0
    3.2702   -2.0087   -1.4024 H   0  0  0  0  0  0  0  0  0  0  0  0
    5.5721   -2.8527   -0.9594 H   0  0  0  0  0  0  0  0  0  0  0  0
    1.9184    0.7383   -0.7657 H   0  0  0  0  0  0  0  0  0  0  0  0
   -0.8149   -0.0420   -0.6860 H   0  0  0  0  0  0  0  0  0  0  0  0
   -1.7678    1.5663    1.0183 H   0  0  0  0  0  0  0  0  0  0  0  0
   -0.5455    1.0840    2.2008 H   0  0  0  0  0  0  0  0  0  0  0  0
    1.7250    2.2899    2.2103 H   0  0  0  0  0  0  0  0  0  0  0  0
    2.8015    4.1395    0.6651 H   0  0  0  0  0  0  0  0  0  0  0  0
   -1.6928    2.1882   -1.5572 H   0  0  0  0  0  0  0  0  0  0  0  0
   -1.3930    3.7203   -3.5162 H   0  0  0  0  0  0  0  0  0  0  0  0
    0.5432    5.2421   -3.5828 H   0  0  0  0  0  0  0  0  0  0  0  0
    2.2052    5.2903   -1.7487 H   0  0  0  0  0  0  0  0  0  0  0  0
   -1.3464   -1.1988    2.0437 H   0  0  0  0  0  0  0  0  0  0  0  0
   -3.2204   -2.6701    1.9891 H   0  0  0  0  0  0  0  0  0  0  0  0
   -4.7966   -4.0603    0.9842 H   0  0  0  0  0  0  0  0  0  0  0  0
   -4.1379   -3.6971   -0.6472 H   0  0  0  0  0  0  0  0  0  0  0  0
   -6.4507   -2.7069    2.0480 H   0  0  0  0  0  0  0  0  0  0  0  0
   -8.3656   -1.1623    1.7599 H   0  0  0  0  0  0  0  0  0  0  0  0
   -8.6464    0.1195   -0.2965 H   0  0  0  0  0  0  0  0  0  0  0  0
   -7.0083   -0.1172   -2.1219 H   0  0  0  0  0  0  0  0  0  0  0  0
   -5.1312   -1.6239   -1.8648 H   0  0  0  0  0  0  0  0  0  0  0  0
  1  2  1  0
  2  3  1  0
  3  4  2  0
  4  5  1  0
  5  6  2  0
  6  7  1  0
  7  8  2  0
  6  9  1  0
  9 10  1  0
 10 11  2  0
 10 12  1  0
 12 13  1  0
 13 14  1  0
 14 15  2  0
 15 16  1  0
 16 17  1  0
 17 18  2  0
 18 19  1  0
 19 20  2  0
 20 21  1  0
 21 22  2  0
 12 23  1  0
 23 24  1  0
 24 25  2  0
 24 26  1  0
 26 27  1  0
 27 28  1  0
 28 29  2  0
 29 30  1  0
 30 31  2  0
 31 32  1  0
 32 33  2  0
  8  3  1  0
 18 14  1  0
 33 28  1  0
 22 17  1  0
  1 34  1  0
  1 35  1  0
  2 36  1  0
  2 37  1  0
  4 38  1  0
  5 39  1  0
  7 40  1  0
  8 41  1  0
  9 42  1  0
 12 43  1  6
 13 44  1  0
 13 45  1  0
 15 46  1  0
 16 47  1  0
 19 48  1  0
 20 49  1  0
 21 50  1  0
 22 51  1  0
 23 52  1  0
 26 53  1  0
 27 54  1  0
 27 55  1  0
 29 56  1  0
 30 57  1  0
 31 58  1  0
 32 59  1  0
 33 60  1  0
M  END
>  <Ligand ID>  (1) 
LIG0001266

>  <Ligand>  (1) 
CHEMBL2112213

>  <SMILES>  (1) 
NCc1ccc(cc1)NC(=O)[C@H](Cc1c[nH]c2c1cccc2)NC(=O)NCc1ccccc1

>  <CID>  (1) 
71457994.0

>  <ChEMBL ID>  (1) 
nan

>  <InChiKey>  (1) 
FJVDDQFNULKYMY-DEOSSOPVSA-N

>  <InChi>  (1) 
InChI=1S/C26H27N5O2/c27-15-18-10-12-21(13-11-18)30-25(32)24(14-20-17-28-23-9-5-4-8-22(20)23)31-26(33)29-16-19-6-2-1-3-7-19/h1-13,17,24,28H,14-16,27H2,(H,30,32)(H2,29,31,33)/t24-/m0/s1

>  <IUPAC Name>  (1) 
(2S)-N-[4-(aminomethyl)phenyl]-2-(benzylcarbamoylamino)-3-(1H-indol-3-yl)propanamide

$$$$
