
     RDKit          3D

 51 54  0  0  0  0  0  0  0  0999 V2000
    8.8116   -1.2629   -2.3720 O   0  0  0  0  0  0  0  0  0  0  0  0
    8.0307   -0.7591   -1.5157 C   0  0  0  0  0  0  0  0  0  0  0  0
    8.5697   -0.0363   -0.4499 C   0  0  0  0  0  0  0  0  0  0  0  0
    7.7503    0.5306    0.5077 C   0  0  0  0  0  0  0  0  0  0  0  0
    8.2556    1.3065    1.6591 C   0  0  0  0  0  0  0  0  0  0  0  0
    6.3888    0.3497    0.3615 C   0  0  0  0  0  0  0  0  0  0  0  0
    5.9044   -0.3795   -0.7195 C   0  0  0  0  0  0  0  0  0  0  0  0
    6.7267   -0.9079   -1.6180 O   0  0  0  0  0  0  0  0  0  0  0  0
    4.5319   -0.5763   -0.8893 C   0  0  0  0  0  0  0  0  0  0  0  0
    3.6789   -0.0153    0.0626 C   0  0  0  0  0  0  0  0  0  0  0  0
    4.1700    0.7091    1.1355 C   0  0  0  0  0  0  0  0  0  0  0  0
    5.5296    0.8998    1.2972 C   0  0  0  0  0  0  0  0  0  0  0  0
    2.3042   -0.1548   -0.0184 O   0  0  0  0  0  0  0  0  0  0  0  0
    1.6067   -0.8437   -1.0162 C   0  0  0  0  0  0  0  0  0  0  0  0
    0.1493   -0.7186   -0.6793 C   0  0  0  0  0  0  0  0  0  0  0  0
   -0.5831    0.3482   -1.1771 C   0  0  0  0  0  0  0  0  0  0  0  0
   -1.9203    0.4314   -0.8471 C   0  0  0  0  0  0  0  0  0  0  0  0
   -2.5535   -0.4974   -0.0474 C   0  0  0  0  0  0  0  0  0  0  0  0
   -1.7822   -1.5398    0.4231 C   0  0  0  0  0  0  0  0  0  0  0  0
   -0.4410   -1.6816    0.1308 C   0  0  0  0  0  0  0  0  0  0  0  0
   -3.9449   -0.4483    0.3210 C   0  0  0  0  0  0  0  0  0  0  0  0
   -4.4788   -1.3321    1.0621 O   0  0  0  0  0  0  0  0  0  0  0  0
   -4.8187    0.5917   -0.1183 N   0  0  0  0  0  0  0  0  0  0  0  0
   -6.2009    0.5828    0.2859 C   0  0  0  0  0  0  0  0  0  0  0  0
   -6.5202    1.2470    1.4695 C   0  0  0  0  0  0  0  0  0  0  0  0
   -7.8497    1.2436    1.8667 C   0  0  0  0  0  0  0  0  0  0  0  0
   -8.8231    0.5964    1.1026 C   0  0  0  0  0  0  0  0  0  0  0  0
   -8.5000   -0.0620   -0.0726 C   0  0  0  0  0  0  0  0  0  0  0  0
   -7.1707   -0.0552   -0.4641 C   0  0  0  0  0  0  0  0  0  0  0  0
   -6.7324   -0.7395   -1.7167 C   0  0  0  0  0  0  0  0  0  0  0  0
    9.6421    0.0999   -0.3444 H   0  0  0  0  0  0  0  0  0  0  0  0
    8.0459    0.7561    2.6168 H   0  0  0  0  0  0  0  0  0  0  0  0
    9.3588    1.4152    1.6008 H   0  0  0  0  0  0  0  0  0  0  0  0
    7.8084    2.3219    1.7129 H   0  0  0  0  0  0  0  0  0  0  0  0
    4.1332   -1.1293   -1.7062 H   0  0  0  0  0  0  0  0  0  0  0  0
    3.5170    1.1516    1.8845 H   0  0  0  0  0  0  0  0  0  0  0  0
    5.8914    1.4615    2.1309 H   0  0  0  0  0  0  0  0  0  0  0  0
    1.8146   -1.9097   -1.1034 H   0  0  0  0  0  0  0  0  0  0  0  0
    1.7333   -0.3970   -2.0233 H   0  0  0  0  0  0  0  0  0  0  0  0
   -0.1175    1.1077   -1.8160 H   0  0  0  0  0  0  0  0  0  0  0  0
   -2.4940    1.2622   -1.2338 H   0  0  0  0  0  0  0  0  0  0  0  0
   -2.2126   -2.3134    1.0612 H   0  0  0  0  0  0  0  0  0  0  0  0
    0.1551   -2.5174    0.5144 H   0  0  0  0  0  0  0  0  0  0  0  0
   -4.4686    1.3639   -0.7324 H   0  0  0  0  0  0  0  0  0  0  0  0
   -5.7967    1.7519    2.0763 H   0  0  0  0  0  0  0  0  0  0  0  0
   -8.1083    1.7561    2.7837 H   0  0  0  0  0  0  0  0  0  0  0  0
   -9.8661    0.5943    1.4152 H   0  0  0  0  0  0  0  0  0  0  0  0
   -9.2183   -0.5719   -0.6891 H   0  0  0  0  0  0  0  0  0  0  0  0
   -6.1638   -0.0742   -2.3784 H   0  0  0  0  0  0  0  0  0  0  0  0
   -6.0969   -1.6242   -1.4627 H   0  0  0  0  0  0  0  0  0  0  0  0
   -7.6458   -1.0376   -2.2704 H   0  0  0  0  0  0  0  0  0  0  0  0
  1  2  2  0
  2  3  1  0
  3  4  2  0
  4  5  1  0
  4  6  1  0
  6  7  2  0
  7  8  1  0
  7  9  1  0
  9 10  2  0
 10 11  1  0
 11 12  2  0
 10 13  1  0
 13 14  1  0
 14 15  1  0
 15 16  2  0
 16 17  1  0
 17 18  2  0
 18 19  1  0
 19 20  2  0
 18 21  1  0
 21 22  2  0
 21 23  1  0
 23 24  1  0
 24 25  2  0
 25 26  1  0
 26 27  2  0
 27 28  1  0
 28 29  2  0
 29 30  1  0
  8  2  1  0
 20 15  1  0
 29 24  1  0
 12  6  1  0
  3 31  1  0
  5 32  1  0
  5 33  1  0
  5 34  1  0
  9 35  1  0
 11 36  1  0
 12 37  1  0
 14 38  1  0
 14 39  1  0
 16 40  1  0
 17 41  1  0
 19 42  1  0
 20 43  1  0
 23 44  1  0
 25 45  1  0
 26 46  1  0
 27 47  1  0
 28 48  1  0
 30 49  1  0
 30 50  1  0
 30 51  1  0
M  END
>  <Ligand ID>  (1) 
LIG0001729

>  <Ligand>  (1) 
MLS000335103

>  <SMILES>  (1) 
O=c1cc(C)c2c(o1)cc(cc2)OCc1ccc(cc1)C(=O)Nc1ccccc1C

>  <CID>  (1) 
2102682.0

>  <ChEMBL ID>  (1) 
nan

>  <InChiKey>  (1) 
KPZNLGMSMWFCFG-UHFFFAOYSA-N

>  <InChi>  (1) 
InChI=1S/C25H21NO4/c1-16-5-3-4-6-22(16)26-25(28)19-9-7-18(8-10-19)15-29-20-11-12-21-17(2)13-24(27)30-23(21)14-20/h3-14H,15H2,1-2H3,(H,26,28)

>  <IUPAC Name>  (1) 
4-[(4-methyl-2-oxochromen-7-yl)oxymethyl]-N-(2-methylphenyl)benzamide

$$$$
