
     RDKit          3D

 72 75  0  0  0  0  0  0  0  0999 V2000
   10.5563    2.1772    1.6526 N   0  0  0  0  0  0  0  0  0  0  0  0
   10.2846    2.7670    0.3647 C   0  0  0  0  0  0  0  0  0  0  0  0
    9.2886    1.8913   -0.4207 C   0  0  0  0  0  0  0  0  0  0  0  0
    9.0144    2.4376   -1.6291 O   0  0  0  0  0  0  0  0  0  0  0  0
    8.1921    1.8069   -2.5054 C   0  0  0  0  0  0  0  0  0  0  0  0
    6.7979    1.5170   -2.0165 C   0  0  0  0  0  0  0  0  0  0  0  0
    6.7905    0.6776   -0.8979 O   0  0  0  0  0  0  0  0  0  0  0  0
    5.6895    0.2244   -0.2042 C   0  0  0  0  0  0  0  0  0  0  0  0
    5.9100   -0.5996    0.8609 C   0  0  0  0  0  0  0  0  0  0  0  0
    4.8615   -1.0910    1.5999 C   0  0  0  0  0  0  0  0  0  0  0  0
    3.5259   -0.7673    1.2918 C   0  0  0  0  0  0  0  0  0  0  0  0
    3.3273    0.0631    0.2182 C   0  0  0  0  0  0  0  0  0  0  0  0
    4.3800    0.5754   -0.5495 C   0  0  0  0  0  0  0  0  0  0  0  0
    2.5505   -1.3105    2.1259 N   0  0  0  0  0  0  0  0  0  0  0  0
    1.2440   -1.7244    1.8112 C   0  0  0  0  0  0  0  0  0  0  0  0
    0.3564   -2.0306    2.8643 C   0  0  0  0  0  0  0  0  0  0  0  0
   -0.9292   -2.4543    2.6106 C   0  0  0  0  0  0  0  0  0  0  0  0
   -1.4351   -2.6079    1.3463 C   0  0  0  0  0  0  0  0  0  0  0  0
   -0.5692   -2.3088    0.2946 C   0  0  0  0  0  0  0  0  0  0  0  0
    0.7247   -1.8836    0.5547 C   0  0  0  0  0  0  0  0  0  0  0  0
   -2.8073   -3.0782    1.1818 C   0  0  0  0  0  0  0  0  0  0  0  0
   -3.8479   -2.0085    1.2441 C   0  0  0  0  0  0  0  0  0  0  0  0
   -3.8313   -0.9669    0.3363 N   0  0  0  0  0  0  0  0  0  0  0  0
   -4.1253   -1.1122   -1.0233 C   0  0  0  0  0  0  0  0  0  0  0  0
   -5.5599   -1.4069   -1.4021 C   0  0  1  0  0  0  0  0  0  0  0  0
   -6.5605   -0.5751   -0.7172 C   0  0  0  0  0  0  0  0  0  0  0  0
   -7.2381   -1.0497    0.4162 C   0  0  0  0  0  0  0  0  0  0  0  0
   -8.1769   -0.2948    1.0817 C   0  0  0  0  0  0  0  0  0  0  0  0
   -8.4925    0.9681    0.6583 C   0  0  0  0  0  0  0  0  0  0  0  0
   -7.8558    1.4638   -0.4399 C   0  0  0  0  0  0  0  0  0  0  0  0
   -6.9059    0.7006   -1.1141 C   0  0  0  0  0  0  0  0  0  0  0  0
   -6.3244    1.2781   -2.2063 C   0  0  0  0  0  0  0  0  0  0  0  0
   -6.6539    2.5476   -2.6241 C   0  0  0  0  0  0  0  0  0  0  0  0
   -7.6073    3.2873   -1.9286 C   0  0  0  0  0  0  0  0  0  0  0  0
   -7.9272    4.4560   -2.2916 O   0  0  0  0  0  0  0  0  0  0  0  0
   -8.1758    2.7220   -0.8615 N   0  0  0  0  0  0  0  0  0  0  0  0
   -9.4539    1.6984    1.3687 O   0  0  0  0  0  0  0  0  0  0  0  0
   -5.7573   -1.5318   -2.7769 O   0  0  0  0  0  0  0  0  0  0  0  0
   10.1941    1.2046    1.7633 H   0  0  0  0  0  0  0  0  0  0  0  0
   10.1379    2.7273    2.4606 H   0  0  0  0  0  0  0  0  0  0  0  0
   11.2056    2.7988   -0.2654 H   0  0  0  0  0  0  0  0  0  0  0  0
    9.9320    3.7903    0.4804 H   0  0  0  0  0  0  0  0  0  0  0  0
    8.3840    1.7452    0.2128 H   0  0  0  0  0  0  0  0  0  0  0  0
    9.7752    0.9066   -0.5366 H   0  0  0  0  0  0  0  0  0  0  0  0
    8.6465    0.8279   -2.8052 H   0  0  0  0  0  0  0  0  0  0  0  0
    8.0813    2.4756   -3.3970 H   0  0  0  0  0  0  0  0  0  0  0  0
    6.2187    1.0777   -2.8806 H   0  0  0  0  0  0  0  0  0  0  0  0
    6.2438    2.4734   -1.8080 H   0  0  0  0  0  0  0  0  0  0  0  0
    6.9249   -0.8816    1.1437 H   0  0  0  0  0  0  0  0  0  0  0  0
    5.0965   -1.7435    2.4389 H   0  0  0  0  0  0  0  0  0  0  0  0
    2.3309    0.3635   -0.0589 H   0  0  0  0  0  0  0  0  0  0  0  0
    4.2052    1.2261   -1.3894 H   0  0  0  0  0  0  0  0  0  0  0  0
    2.8290   -1.4262    3.1577 H   0  0  0  0  0  0  0  0  0  0  0  0
    0.6646   -1.9396    3.8838 H   0  0  0  0  0  0  0  0  0  0  0  0
   -1.5677   -2.6750    3.4498 H   0  0  0  0  0  0  0  0  0  0  0  0
   -0.9510   -2.4233   -0.7111 H   0  0  0  0  0  0  0  0  0  0  0  0
    1.3383   -1.6897   -0.3052 H   0  0  0  0  0  0  0  0  0  0  0  0
   -3.0216   -3.7828    2.0385 H   0  0  0  0  0  0  0  0  0  0  0  0
   -2.9341   -3.6942    0.2681 H   0  0  0  0  0  0  0  0  0  0  0  0
   -4.8360   -2.5563    1.2025 H   0  0  0  0  0  0  0  0  0  0  0  0
   -3.8634   -1.6061    2.3021 H   0  0  0  0  0  0  0  0  0  0  0  0
   -3.5970   -0.0159    0.6443 H   0  0  0  0  0  0  0  0  0  0  0  0
   -3.4356   -1.8608   -1.5310 H   0  0  0  0  0  0  0  0  0  0  0  0
   -3.8481   -0.1609   -1.5307 H   0  0  0  0  0  0  0  0  0  0  0  0
   -5.7111   -2.4767   -1.0359 H   0  0  0  0  0  0  0  0  0  0  0  0
   -7.0589   -2.0436    0.8116 H   0  0  0  0  0  0  0  0  0  0  0  0
   -8.6732   -0.7059    1.9535 H   0  0  0  0  0  0  0  0  0  0  0  0
   -5.6005    0.7430   -2.7645 H   0  0  0  0  0  0  0  0  0  0  0  0
   -6.2088    3.0294   -3.4847 H   0  0  0  0  0  0  0  0  0  0  0  0
   -8.9004    3.2726   -0.3259 H   0  0  0  0  0  0  0  0  0  0  0  0
  -10.3245    1.2125    1.6168 H   0  0  0  0  0  0  0  0  0  0  0  0
   -4.9359   -1.6853   -3.2719 H   0  0  0  0  0  0  0  0  0  0  0  0
  1  2  1  0
  2  3  1  0
  3  4  1  0
  4  5  1  0
  5  6  1  0
  6  7  1  0
  7  8  1  0
  8  9  2  0
  9 10  1  0
 10 11  2  0
 11 12  1  0
 12 13  2  0
 11 14  1  0
 14 15  1  0
 15 16  2  0
 16 17  1  0
 17 18  2  0
 18 19  1  0
 19 20  2  0
 18 21  1  0
 21 22  1  0
 22 23  1  0
 23 24  1  0
 24 25  1  0
 25 26  1  0
 26 27  2  0
 27 28  1  0
 28 29  2  0
 29 30  1  0
 30 31  2  0
 31 32  1  0
 32 33  2  0
 33 34  1  0
 34 35  2  0
 34 36  1  0
 29 37  1  0
 25 38  1  0
 13  8  1  0
 20 15  1  0
 31 26  1  0
 36 30  1  0
  1 39  1  0
  1 40  1  0
  2 41  1  0
  2 42  1  0
  3 43  1  0
  3 44  1  0
  5 45  1  0
  5 46  1  0
  6 47  1  0
  6 48  1  0
  9 49  1  0
 10 50  1  0
 12 51  1  0
 13 52  1  0
 14 53  1  0
 16 54  1  0
 17 55  1  0
 19 56  1  0
 20 57  1  0
 21 58  1  0
 21 59  1  0
 22 60  1  0
 22 61  1  0
 23 62  1  0
 24 63  1  0
 24 64  1  0
 25 65  1  1
 27 66  1  0
 28 67  1  0
 32 68  1  0
 33 69  1  0
 36 70  1  0
 37 71  1  0
 38 72  1  0
M  END
>  <Ligand ID>  (1) 
LIG0002555

>  <Ligand>  (1) 
CHEMBL3298691

>  <SMILES>  (1) 
NCCOCCOc1ccc(cc1)Nc1ccc(cc1)CCNC[C@@H](c1ccc(c2c1ccc(=O)[nH]2)O)O

>  <CID>  (1) 
56943546.0

>  <ChEMBL ID>  (1) 
nan

>  <InChiKey>  (1) 
ZVWLZBKDMMRTNF-MHZLTWQESA-N

>  <InChi>  (1) 
InChI=1S/C29H34N4O5/c30-14-16-37-17-18-38-23-7-5-22(6-8-23)32-21-3-1-20(2-4-21)13-15-31-19-27(35)24-9-11-26(34)29-25(24)10-12-28(36)33-29/h1-12,27,31-32,34-35H,13-19,30H2,(H,33,36)/t27-/m0/s1

>  <IUPAC Name>  (1) 
5-[(1R)-2-[2-[4-[4-[2-(2-aminoethoxy)ethoxy]anilino]phenyl]ethylamino]-1-hydroxyethyl]-8-hydroxy-1H-quinolin-2-one

$$$$
