
     RDKit          3D

 42 42  0  0  0  0  0  0  0  0999 V2000
   -2.9867   -0.7820   -1.5361 O   0  0  0  0  0  0  0  0  0  0  0  0
   -2.4595   -1.0131   -0.4368 C   0  0  0  0  0  0  0  0  0  0  0  0
   -2.1424    0.2317    0.3581 C   0  0  0  0  0  0  0  0  0  0  0  0
   -2.7016    1.4370   -0.2730 C   0  0  0  0  0  0  0  0  0  0  0  0
   -2.1271    2.7238    0.2301 C   0  0  0  0  0  0  0  0  0  0  0  0
   -0.8118    3.0681   -0.4158 C   0  0  0  0  0  0  0  0  0  0  0  0
    0.2859    2.1039   -0.3171 C   0  0  0  0  0  0  0  0  0  0  0  0
    0.9346    1.9262    1.0370 C   0  0  0  0  0  0  0  0  0  0  0  0
    1.7666    0.6271    1.0304 C   0  0  0  0  0  0  0  0  0  0  0  0
    2.5526    0.4484   -0.2117 C   0  0  0  0  0  0  0  0  0  0  0  0
    3.3370   -0.8106   -0.2833 C   0  0  0  0  0  0  0  0  0  0  0  0
    2.6718   -2.0783    0.0196 C   0  0  0  0  0  0  0  0  0  0  0  0
    1.4145   -2.4349   -0.6565 C   0  0  0  0  0  0  0  0  0  0  0  0
    0.3118   -2.7323    0.0820 C   0  0  0  0  0  0  0  0  0  0  0  0
   -1.0021   -3.1099   -0.4179 C   0  0  0  0  0  0  0  0  0  0  0  0
   -2.2144   -2.3682   -0.0388 C   0  0  0  0  0  0  0  0  0  0  0  0
   -1.1532    0.1409    0.7042 H   0  0  0  0  0  0  0  0  0  0  0  0
   -2.7647    0.1312    1.3512 H   0  0  0  0  0  0  0  0  0  0  0  0
   -3.8260    1.4290   -0.1203 H   0  0  0  0  0  0  0  0  0  0  0  0
   -2.6200    1.4522   -1.3873 H   0  0  0  0  0  0  0  0  0  0  0  0
   -2.0544    2.7918    1.3306 H   0  0  0  0  0  0  0  0  0  0  0  0
   -2.8302    3.5337   -0.0886 H   0  0  0  0  0  0  0  0  0  0  0  0
   -0.4718    4.0118    0.1111 H   0  0  0  0  0  0  0  0  0  0  0  0
   -0.9942    3.4371   -1.4649 H   0  0  0  0  0  0  0  0  0  0  0  0
    1.1269    2.4886   -1.0341 H   0  0  0  0  0  0  0  0  0  0  0  0
    0.1027    1.1137   -0.7529 H   0  0  0  0  0  0  0  0  0  0  0  0
    1.5823    2.8075    1.2033 H   0  0  0  0  0  0  0  0  0  0  0  0
    0.1289    1.8484    1.7925 H   0  0  0  0  0  0  0  0  0  0  0  0
    1.0821   -0.1863    1.2555 H   0  0  0  0  0  0  0  0  0  0  0  0
    2.4499    0.7047    1.9372 H   0  0  0  0  0  0  0  0  0  0  0  0
    3.2248    1.3616   -0.3020 H   0  0  0  0  0  0  0  0  0  0  0  0
    1.9015    0.4798   -1.1057 H   0  0  0  0  0  0  0  0  0  0  0  0
    3.8961   -0.8853   -1.2693 H   0  0  0  0  0  0  0  0  0  0  0  0
    4.1970   -0.6708    0.4476 H   0  0  0  0  0  0  0  0  0  0  0  0
    3.3865   -2.9256   -0.2781 H   0  0  0  0  0  0  0  0  0  0  0  0
    2.5945   -2.2710    1.1364 H   0  0  0  0  0  0  0  0  0  0  0  0
    1.2382   -2.4959   -1.7017 H   0  0  0  0  0  0  0  0  0  0  0  0
    0.4805   -2.6668    1.1339 H   0  0  0  0  0  0  0  0  0  0  0  0
   -1.1026   -4.2231   -0.1396 H   0  0  0  0  0  0  0  0  0  0  0  0
   -0.8843   -3.1934   -1.5393 H   0  0  0  0  0  0  0  0  0  0  0  0
   -2.4348   -2.4566    1.0730 H   0  0  0  0  0  0  0  0  0  0  0  0
   -3.0848   -2.9940   -0.4631 H   0  0  0  0  0  0  0  0  0  0  0  0
  1  2  2  0
  2  3  1  0
  3  4  1  0
  4  5  1  0
  5  6  1  0
  6  7  1  0
  7  8  1  0
  8  9  1  0
  9 10  1  0
 10 11  1  0
 11 12  1  0
 12 13  1  0
 13 14  2  3
 14 15  1  0
 15 16  1  0
 16  2  1  0
  3 17  1  0
  3 18  1  0
  4 19  1  0
  4 20  1  0
  5 21  1  0
  5 22  1  0
  6 23  1  0
  6 24  1  0
  7 25  1  0
  7 26  1  0
  8 27  1  0
  8 28  1  0
  9 29  1  0
  9 30  1  0
 10 31  1  0
 10 32  1  0
 11 33  1  0
 11 34  1  0
 12 35  1  0
 12 36  1  0
 13 37  1  0
 14 38  1  0
 15 39  1  0
 15 40  1  0
 16 41  1  0
 16 42  1  0
M  END
>  <Ligand ID>  (1) 
LIG0001065

>  <Ligand>  (1) 
Exaltenone

>  <SMILES>  (1) 
O=C1CCCCCCCCCCC=CCC1

>  <CID>  (1) 
84545.0

>  <ChEMBL ID>  (1) 
nan

>  <InChiKey>  (1) 
JIYIHILAGIZIMD-UHFFFAOYSA-N

>  <InChi>  (1) 
InChI=1S/C15H26O/c16-15-13-11-9-7-5-3-1-2-4-6-8-10-12-14-15/h7,9H,1-6,8,10-14H2

>  <IUPAC Name>  (1) 
cyclopentadec-4-en-1-one

$$$$
