
     RDKit          3D

 38 40  0  0  0  0  0  0  0  0999 V2000
   -2.9560    2.3613    0.2782 C   0  0  0  0  0  0  0  0  0  0  0  0
   -2.2100    1.6991   -0.8836 C   0  0  0  0  0  0  0  0  0  0  0  0
   -2.2015    0.2069   -0.6471 C   0  0  0  0  0  0  0  0  0  0  0  0
   -1.5406   -0.2365    0.5937 C   0  0  1  0  0  0  0  0  0  0  0  0
   -1.6105   -1.7550    0.7659 C   0  0  0  0  0  0  0  0  0  0  0  0
   -0.8006   -2.4850   -0.2295 C   0  0  0  0  0  0  0  0  0  0  0  0
    0.6434   -2.2272    0.1953 C   0  0  0  0  0  0  0  0  0  0  0  0
    0.4970   -1.2179    1.3284 C   0  0  0  0  0  0  0  0  0  0  0  0
   -0.1016    0.0819    0.7730 C   0  0  1  0  0  0  0  0  0  0  0  0
    0.6033    0.4334   -0.4513 N   0  0  0  0  0  0  0  0  0  0  0  0
    1.9830    0.8530   -0.4137 C   0  0  0  0  0  0  0  0  0  0  0  0
    2.5780    1.3434    0.6193 N   0  0  0  0  0  0  0  0  0  0  0  0
    3.9582    1.6525    0.2931 C   0  0  0  0  0  0  0  0  0  0  0  0
    4.1886    0.7304   -0.8881 C   0  0  0  0  0  0  0  0  0  0  0  0
    2.8834    0.7984   -1.4691 O   0  0  0  0  0  0  0  0  0  0  0  0
   -0.7022   -1.8205    2.0101 C   0  0  0  0  0  0  0  0  0  0  0  0
   -3.8852    1.7830    0.4263 H   0  0  0  0  0  0  0  0  0  0  0  0
   -3.2364    3.3855    0.0034 H   0  0  0  0  0  0  0  0  0  0  0  0
   -2.3719    2.3298    1.2147 H   0  0  0  0  0  0  0  0  0  0  0  0
   -1.2457    2.1751   -0.9983 H   0  0  0  0  0  0  0  0  0  0  0  0
   -2.8814    1.8479   -1.7755 H   0  0  0  0  0  0  0  0  0  0  0  0
   -3.2951   -0.0608   -0.5425 H   0  0  0  0  0  0  0  0  0  0  0  0
   -1.8861   -0.3425   -1.5593 H   0  0  0  0  0  0  0  0  0  0  0  0
   -2.1587    0.1619    1.4545 H   0  0  0  0  0  0  0  0  0  0  0  0
   -2.6158   -2.1309    0.9621 H   0  0  0  0  0  0  0  0  0  0  0  0
   -1.0468   -3.5570   -0.1564 H   0  0  0  0  0  0  0  0  0  0  0  0
   -0.8701   -2.0969   -1.2632 H   0  0  0  0  0  0  0  0  0  0  0  0
    1.2883   -1.8979   -0.6157 H   0  0  0  0  0  0  0  0  0  0  0  0
    1.0571   -3.1332    0.6451 H   0  0  0  0  0  0  0  0  0  0  0  0
    1.3778   -1.0797    1.9314 H   0  0  0  0  0  0  0  0  0  0  0  0
    0.0022    0.8349    1.5760 H   0  0  0  0  0  0  0  0  0  0  0  0
    0.1829    0.3944   -1.4006 H   0  0  0  0  0  0  0  0  0  0  0  0
    4.6482    1.4748    1.1371 H   0  0  0  0  0  0  0  0  0  0  0  0
    3.9896    2.6868   -0.1042 H   0  0  0  0  0  0  0  0  0  0  0  0
    4.3634   -0.2900   -0.4617 H   0  0  0  0  0  0  0  0  0  0  0  0
    4.9711    1.0674   -1.5757 H   0  0  0  0  0  0  0  0  0  0  0  0
   -1.0470   -1.1234    2.7818 H   0  0  0  0  0  0  0  0  0  0  0  0
   -0.5520   -2.8474    2.3544 H   0  0  0  0  0  0  0  0  0  0  0  0
  1  2  1  0
  2  3  1  0
  3  4  1  0
  4  5  1  0
  5  6  1  0
  6  7  1  0
  7  8  1  0
  8  9  1  0
  9 10  1  0
 10 11  1  0
 11 12  2  0
 12 13  1  0
 13 14  1  0
 14 15  1  0
  8 16  1  0
  9  4  1  0
 15 11  1  0
 16  5  1  0
  1 17  1  0
  1 18  1  0
  1 19  1  0
  2 20  1  0
  2 21  1  0
  3 22  1  0
  3 23  1  0
  4 24  1  1
  5 25  1  0
  6 26  1  0
  6 27  1  0
  7 28  1  0
  7 29  1  0
  8 30  1  0
  9 31  1  1
 10 32  1  0
 13 33  1  0
 13 34  1  0
 14 35  1  0
 14 36  1  0
 16 37  1  0
 16 38  1  0
M  END
>  <Ligand ID>  (1) 
LIG0004067

>  <Ligand>  (1) 
CHEMBL296660

>  <SMILES>  (1) 
CCC[C@H]1C2CCC([C@H]1NC1=NCCO1)C2

>  <CID>  (1) 
44292232.0

>  <ChEMBL ID>  (1) 
nan

>  <InChiKey>  (1) 
IPQYPIRIGUBUAF-MMVSWEMESA-N

>  <InChi>  (1) 
InChI=1S/C13H22N2O/c1-2-3-11-9-4-5-10(8-9)12(11)15-13-14-6-7-16-13/h9-12H,2-8H2,1H3,(H,14,15)/t9?,10?,11-,12+/m0/s1

>  <IUPAC Name>  (1) 
N-[(2R,3S)-3-propyl-2-bicyclo[2.2.1]heptanyl]-4,5-dihydro-1,3-oxazol-2-amine

$$$$
