
     RDKit          3D

 73 73  0  0  0  0  0  0  0  0999 V2000
   -5.6784    2.6798    1.3529 C   0  0  0  0  0  0  0  0  0  0  0  0
   -4.9453    1.9665    0.2354 C   0  0  0  0  0  0  0  0  0  0  0  0
   -5.1721    0.6049    0.2801 O   0  0  0  0  0  0  0  0  0  0  0  0
   -4.3512   -0.4558    0.1211 C   0  0  0  0  0  0  0  0  0  0  0  0
   -3.0052   -0.1891   -0.1874 C   0  0  0  0  0  0  0  0  0  0  0  0
   -2.1070   -1.2509   -0.3665 C   0  0  0  0  0  0  0  0  0  0  0  0
   -2.5859   -2.5010   -0.2318 C   0  0  0  0  0  0  0  0  0  0  0  0
   -3.9231   -2.7814    0.0759 C   0  0  0  0  0  0  0  0  0  0  0  0
   -4.8311   -1.7330    0.2569 C   0  0  0  0  0  0  0  0  0  0  0  0
   -6.1939   -2.0996    0.5638 C   0  0  0  0  0  0  0  0  0  0  0  0
   -6.5056   -3.3407    0.6766 O   0  0  0  0  0  0  0  0  0  0  0  0
   -7.2696   -1.2040    0.7624 N   0  0  0  0  0  0  0  0  0  0  0  0
   -8.8174   -1.9084    1.1226 S   0  0  0  0  0  0  0  0  0  0  0  0
   -8.6022   -3.1763    1.8820 O   0  0  0  0  0  0  0  0  0  0  0  0
   -9.5630   -0.8813    1.9372 O   0  0  0  0  0  0  0  0  0  0  0  0
   -9.7327   -2.2302   -0.3667 C   0  0  0  0  0  0  0  0  0  0  0  0
   -0.7375   -0.8669   -0.6629 C   0  0  0  0  0  0  0  0  0  0  0  0
   -0.5301    0.3166   -1.3655 C   0  0  0  0  0  0  0  0  0  0  0  0
    0.7513    0.7414   -1.6655 C   0  0  0  0  0  0  0  0  0  0  0  0
    1.8466   -0.0122   -1.2697 C   0  0  0  0  0  0  0  0  0  0  0  0
    1.6634   -1.1857   -0.5776 C   0  0  0  0  0  0  0  0  0  0  0  0
    0.3647   -1.6114   -0.2745 C   0  0  0  0  0  0  0  0  0  0  0  0
    3.1751    0.5528   -1.6169 C   0  0  0  0  0  0  0  0  0  0  0  0
    3.6418    1.3145   -0.3857 C   0  0  0  0  0  0  0  0  0  0  0  0
    4.8953    1.9588   -0.5179 N   0  0  0  0  0  0  0  0  0  0  0  0
    5.3407    2.4428    0.7932 C   0  0  0  0  0  0  0  0  0  0  0  0
    5.7626    1.2966    1.6800 C   0  0  1  0  0  0  0  0  0  0  0  0
    6.8420    0.4888    0.9930 C   0  0  0  0  0  0  0  0  0  0  0  0
    8.1656    0.8372    1.1203 C   0  0  0  0  0  0  0  0  0  0  0  0
    9.1220    0.0721    0.4484 C   0  0  0  0  0  0  0  0  0  0  0  0
    8.7591   -1.0048   -0.3253 C   0  0  0  0  0  0  0  0  0  0  0  0
    7.4366   -1.3654   -0.4621 C   0  0  0  0  0  0  0  0  0  0  0  0
    6.4591   -0.6071    0.2082 C   0  0  0  0  0  0  0  0  0  0  0  0
    9.8087   -1.7346   -0.9870 N   0  0  0  0  0  0  0  0  0  0  0  0
    6.2078    1.6853    2.9305 O   0  0  0  0  0  0  0  0  0  0  0  0
   -5.4893    2.4426   -1.1267 C   0  0  0  0  0  0  0  0  0  0  0  0
    0.6871    0.0000    0.0000 Cl  0  0  0  0  0  0  0  0  0  0  0  0
    0.6894    0.0000    0.0000 Cl  0  0  0  0  0  0  0  0  0  0  0  0
   -5.0494    2.7045    2.2563 H   0  0  0  0  0  0  0  0  0  0  0  0
   -6.6039    2.1435    1.6275 H   0  0  0  0  0  0  0  0  0  0  0  0
   -5.9505    3.7094    1.0255 H   0  0  0  0  0  0  0  0  0  0  0  0
   -3.8864    2.2892    0.2513 H   0  0  0  0  0  0  0  0  0  0  0  0
   -2.6648    0.8428   -0.2860 H   0  0  0  0  0  0  0  0  0  0  0  0
   -1.9203   -3.3379   -0.3591 H   0  0  0  0  0  0  0  0  0  0  0  0
   -4.2485   -3.8205    0.1719 H   0  0  0  0  0  0  0  0  0  0  0  0
   -7.1566   -0.1863    0.6959 H   0  0  0  0  0  0  0  0  0  0  0  0
   -9.6601   -3.3137   -0.6030 H   0  0  0  0  0  0  0  0  0  0  0  0
  -10.7751   -1.9009   -0.2085 H   0  0  0  0  0  0  0  0  0  0  0  0
   -9.2373   -1.7142   -1.2252 H   0  0  0  0  0  0  0  0  0  0  0  0
   -1.3349    0.9459   -1.7145 H   0  0  0  0  0  0  0  0  0  0  0  0
    0.8737    1.6606   -2.2017 H   0  0  0  0  0  0  0  0  0  0  0  0
    2.5256   -1.7566   -0.2856 H   0  0  0  0  0  0  0  0  0  0  0  0
    0.2213   -2.5271    0.2677 H   0  0  0  0  0  0  0  0  0  0  0  0
    3.8891   -0.2456   -1.9194 H   0  0  0  0  0  0  0  0  0  0  0  0
    3.1150    1.2739   -2.4477 H   0  0  0  0  0  0  0  0  0  0  0  0
    2.8686    2.1343   -0.2652 H   0  0  0  0  0  0  0  0  0  0  0  0
    3.6182    0.6470    0.4731 H   0  0  0  0  0  0  0  0  0  0  0  0
    4.8201    2.8498   -1.1011 H   0  0  0  0  0  0  0  0  0  0  0  0
    4.5679    3.0575    1.2693 H   0  0  0  0  0  0  0  0  0  0  0  0
    6.2371    3.1059    0.6396 H   0  0  0  0  0  0  0  0  0  0  0  0
    4.9454    0.5732    1.8547 H   0  0  0  0  0  0  0  0  0  0  0  0
    8.4034    1.6822    1.7285 H   0  0  0  0  0  0  0  0  0  0  0  0
   10.1461    0.4038    0.5974 H   0  0  0  0  0  0  0  0  0  0  0  0
    7.1460   -2.2121   -1.0771 H   0  0  0  0  0  0  0  0  0  0  0  0
    5.4177   -0.8950    0.1051 H   0  0  0  0  0  0  0  0  0  0  0  0
   10.5340   -2.2658   -0.4269 H   0  0  0  0  0  0  0  0  0  0  0  0
    9.8771   -1.7556   -2.0488 H   0  0  0  0  0  0  0  0  0  0  0  0
    5.9754    1.0752    3.6616 H   0  0  0  0  0  0  0  0  0  0  0  0
   -5.1827    3.4922   -1.3093 H   0  0  0  0  0  0  0  0  0  0  0  0
   -5.1213    1.7295   -1.8892 H   0  0  0  0  0  0  0  0  0  0  0  0
   -6.5918    2.3500   -1.0787 H   0  0  0  0  0  0  0  0  0  0  0  0
   -0.6871    0.0000    0.0000 H   0  0  0  0  0  0  0  0  0  0  0  0
   -0.6894    0.0000    0.0000 H   0  0  0  0  0  0  0  0  0  0  0  0
  1  2  1  0
  2  3  1  0
  3  4  1  0
  4  5  2  0
  5  6  1  0
  6  7  2  0
  7  8  1  0
  8  9  2  0
  9 10  1  0
 10 11  2  0
 10 12  1  0
 12 13  1  0
 13 14  2  0
 13 15  2  0
 13 16  1  0
  6 17  1  0
 17 18  2  0
 18 19  1  0
 19 20  2  0
 20 21  1  0
 21 22  2  0
 20 23  1  0
 23 24  1  0
 24 25  1  0
 25 26  1  0
 26 27  1  0
 27 28  1  0
 28 29  2  0
 29 30  1  0
 30 31  2  0
 31 32  1  0
 32 33  2  0
 31 34  1  0
 27 35  1  0
  2 36  1  0
  9  4  1  0
 22 17  1  0
 33 28  1  0
  1 39  1  0
  1 40  1  0
  1 41  1  0
  2 42  1  0
  5 43  1  0
  7 44  1  0
  8 45  1  0
 12 46  1  0
 16 47  1  0
 16 48  1  0
 16 49  1  0
 18 50  1  0
 19 51  1  0
 21 52  1  0
 22 53  1  0
 23 54  1  0
 23 55  1  0
 24 56  1  0
 24 57  1  0
 25 58  1  0
 26 59  1  0
 26 60  1  0
 27 61  1  1
 29 62  1  0
 30 63  1  0
 32 64  1  0
 33 65  1  0
 34 66  1  0
 34 67  1  0
 35 68  1  0
 36 69  1  0
 36 70  1  0
 36 71  1  0
 37 72  1  0
 38 73  1  0
M  END
>  <Ligand ID>  (1) 
LIG0003497

>  <Ligand>  (1) 
CHEMBL492401

>  <SMILES>  (1) 
CC(Oc1cc(ccc1C(=O)NS(=O)(=O)C)c1ccc(cc1)CCNC[C@@H](c1ccc(cc1)N)O)C.Cl.Cl

>  <CID>  (1) 
42640121.0

>  <ChEMBL ID>  (1) 
nan

>  <InChiKey>  (1) 
PQIYAYICSPPBOY-WLOLSGMKSA-N

>  <InChi>  (1) 
InChI=1S/C27H33N3O5S.2ClH/c1-18(2)35-26-16-22(10-13-24(26)27(32)30-36(3,33)34)20-6-4-19(5-7-20)14-15-29-17-25(31)21-8-11-23(28)12-9-21;;/h4-13,16,18,25,29,31H,14-15,17,28H2,1-3H3,(H,30,32);2*1H/t25-;;/m0../s1

>  <IUPAC Name>  (1) 
4-[4-[2-[[(2R)-2-(4-aminophenyl)-2-hydroxyethyl]amino]ethyl]phenyl]-N-methylsulfonyl-2-propan-2-yloxybenzamide;dihydrochloride

$$$$
