
     RDKit          3D

 48 50  0  0  0  0  0  0  0  0999 V2000
   -9.3577    0.9877    1.6814 O   0  0  0  0  0  0  0  0  0  0  0  0
   -8.7183    0.5014    0.5447 C   0  0  0  0  0  0  0  0  0  0  0  0
   -9.3222    0.2210   -0.5184 O   0  0  0  0  0  0  0  0  0  0  0  0
   -7.2407    0.3208    0.6420 C   0  0  0  0  0  0  0  0  0  0  0  0
   -6.6709   -0.2114   -0.6563 C   0  0  0  0  0  0  0  0  0  0  0  0
   -5.1919   -0.3724   -0.5017 C   0  0  0  0  0  0  0  0  0  0  0  0
   -4.7645   -1.6069   -0.0343 C   0  0  0  0  0  0  0  0  0  0  0  0
   -3.4136   -1.8040    0.1247 C   0  0  0  0  0  0  0  0  0  0  0  0
   -2.5420   -0.7796   -0.1825 C   0  0  0  0  0  0  0  0  0  0  0  0
   -2.9564    0.4513   -0.6478 C   0  0  0  0  0  0  0  0  0  0  0  0
   -4.3139    0.6404   -0.8044 C   0  0  0  0  0  0  0  0  0  0  0  0
   -1.9524    1.5113   -0.9591 C   0  0  0  0  0  0  0  0  0  0  0  0
   -1.1203   -1.0426    0.0047 C   0  0  0  0  0  0  0  0  0  0  0  0
   -0.5604   -2.1820    0.4471 N   0  0  0  0  0  0  0  0  0  0  0  0
    0.7409   -2.0518    0.4864 O   0  0  0  0  0  0  0  0  0  0  0  0
    1.0775   -0.8511    0.0811 C   0  0  0  0  0  0  0  0  0  0  0  0
   -0.0677   -0.2137   -0.2211 N   0  0  0  0  0  0  0  0  0  0  0  0
    2.4545   -0.3804    0.0042 C   0  0  0  0  0  0  0  0  0  0  0  0
    3.4672   -1.2382    0.3763 C   0  0  0  0  0  0  0  0  0  0  0  0
    4.7883   -0.7931    0.3048 C   0  0  0  0  0  0  0  0  0  0  0  0
    5.1287    0.4627   -0.1199 C   0  0  0  0  0  0  0  0  0  0  0  0
    4.0883    1.2770   -0.4783 N   0  0  0  0  0  0  0  0  0  0  0  0
    2.8136    0.8710   -0.4177 C   0  0  0  0  0  0  0  0  0  0  0  0
    6.3759    0.9959   -0.2276 O   0  0  0  0  0  0  0  0  0  0  0  0
    7.5361    0.3031    0.0955 C   0  0  0  0  0  0  0  0  0  0  0  0
    8.3344    0.1536   -1.1999 C   0  0  0  0  0  0  0  0  0  0  0  0
    8.3720    1.0215    1.1423 C   0  0  0  0  0  0  0  0  0  0  0  0
  -10.3777    0.8565    1.7279 H   0  0  0  0  0  0  0  0  0  0  0  0
   -6.9999   -0.3574    1.4841 H   0  0  0  0  0  0  0  0  0  0  0  0
   -6.8060    1.3164    0.8485 H   0  0  0  0  0  0  0  0  0  0  0  0
   -6.9071    0.5140   -1.4425 H   0  0  0  0  0  0  0  0  0  0  0  0
   -7.1312   -1.1662   -0.9398 H   0  0  0  0  0  0  0  0  0  0  0  0
   -5.4643   -2.4059    0.2040 H   0  0  0  0  0  0  0  0  0  0  0  0
   -3.0885   -2.7649    0.4881 H   0  0  0  0  0  0  0  0  0  0  0  0
   -4.6768    1.5985   -1.1693 H   0  0  0  0  0  0  0  0  0  0  0  0
   -1.3350    1.7966   -0.0987 H   0  0  0  0  0  0  0  0  0  0  0  0
   -2.4484    2.3849   -1.4087 H   0  0  0  0  0  0  0  0  0  0  0  0
   -1.2963    1.1024   -1.7769 H   0  0  0  0  0  0  0  0  0  0  0  0
    3.2541   -2.2595    0.7259 H   0  0  0  0  0  0  0  0  0  0  0  0
    5.5296   -1.4896    0.6016 H   0  0  0  0  0  0  0  0  0  0  0  0
    2.0494    1.5698   -0.7168 H   0  0  0  0  0  0  0  0  0  0  0  0
    7.2942   -0.7078    0.4400 H   0  0  0  0  0  0  0  0  0  0  0  0
    9.2765   -0.3826   -1.0610 H   0  0  0  0  0  0  0  0  0  0  0  0
    8.5321    1.1519   -1.6487 H   0  0  0  0  0  0  0  0  0  0  0  0
    7.7221   -0.3941   -1.9237 H   0  0  0  0  0  0  0  0  0  0  0  0
    8.8750    0.2350    1.7419 H   0  0  0  0  0  0  0  0  0  0  0  0
    7.8015    1.6739    1.8027 H   0  0  0  0  0  0  0  0  0  0  0  0
    9.2120    1.5365    0.5997 H   0  0  0  0  0  0  0  0  0  0  0  0
  1  2  1  0
  2  3  2  0
  2  4  1  0
  4  5  1  0
  5  6  1  0
  6  7  2  0
  7  8  1  0
  8  9  2  0
  9 10  1  0
 10 11  2  0
 10 12  1  0
  9 13  1  0
 13 14  2  0
 14 15  1  0
 15 16  1  0
 16 17  2  0
 16 18  1  0
 18 19  2  0
 19 20  1  0
 20 21  2  0
 21 22  1  0
 22 23  2  0
 21 24  1  0
 24 25  1  0
 25 26  1  0
 25 27  1  0
 11  6  1  0
 17 13  1  0
 23 18  1  0
  1 28  1  0
  4 29  1  0
  4 30  1  0
  5 31  1  0
  5 32  1  0
  7 33  1  0
  8 34  1  0
 11 35  1  0
 12 36  1  0
 12 37  1  0
 12 38  1  0
 19 39  1  0
 20 40  1  0
 23 41  1  0
 25 42  1  0
 26 43  1  0
 26 44  1  0
 26 45  1  0
 27 46  1  0
 27 47  1  0
 27 48  1  0
M  END
>  <Ligand ID>  (1) 
LIG0001692

>  <Ligand>  (1) 
CHEMBL210301

>  <SMILES>  (1) 
OC(=O)CCc1ccc(c(c1)C)c1noc(n1)c1ccc(nc1)OC(C)C

>  <CID>  (1) 
44412659.0

>  <ChEMBL ID>  (1) 
nan

>  <InChiKey>  (1) 
AZBMSTQSHHAVDB-UHFFFAOYSA-N

>  <InChi>  (1) 
InChI=1S/C20H21N3O4/c1-12(2)26-17-8-6-15(11-21-17)20-22-19(23-27-20)16-7-4-14(10-13(16)3)5-9-18(24)25/h4,6-8,10-12H,5,9H2,1-3H3,(H,24,25)

>  <IUPAC Name>  (1) 
3-[3-methyl-4-[5-(6-propan-2-yloxypyridin-3-yl)-1,2,4-oxadiazol-3-yl]phenyl]propanoic acid

$$$$
