
     RDKit          3D

 34 35  0  0  0  0  0  0  0  0999 V2000
    6.2788    0.5817    0.8430 N   0  0  0  0  0  0  0  0  0  0  0  0
    4.8364    0.4903    0.9083 C   0  0  0  0  0  0  0  0  0  0  0  0
    4.3260   -0.4383   -0.1991 C   0  0  0  0  0  0  0  0  0  0  0  0
    2.8268   -0.4754   -0.0566 C   0  0  0  0  0  0  0  0  0  0  0  0
    2.1123    0.4744   -0.7589 C   0  0  0  0  0  0  0  0  0  0  0  0
    0.7399    0.4417   -0.6290 C   0  0  0  0  0  0  0  0  0  0  0  0
    0.1487   -0.5200    0.1813 C   0  0  0  0  0  0  0  0  0  0  0  0
    0.8750   -1.4608    0.8753 C   0  0  0  0  0  0  0  0  0  0  0  0
    2.2548   -1.4281    0.7451 C   0  0  0  0  0  0  0  0  0  0  0  0
   -1.2297   -0.4942    0.2645 O   0  0  0  0  0  0  0  0  0  0  0  0
   -2.0076    0.4722   -0.4471 C   0  0  0  0  0  0  0  0  0  0  0  0
   -3.4542    0.2615   -0.1697 C   0  0  0  0  0  0  0  0  0  0  0  0
   -3.9069    0.7011    1.0706 C   0  0  0  0  0  0  0  0  0  0  0  0
   -3.0452    1.2890    1.9565 F   0  0  0  0  0  0  0  0  0  0  0  0
   -5.2526    0.5392    1.4093 C   0  0  0  0  0  0  0  0  0  0  0  0
   -5.7149    0.9679    2.6288 F   0  0  0  0  0  0  0  0  0  0  0  0
   -6.1243   -0.0621    0.4969 C   0  0  0  0  0  0  0  0  0  0  0  0
   -5.6539   -0.4944   -0.7360 C   0  0  0  0  0  0  0  0  0  0  0  0
   -4.3141   -0.3332   -1.0731 C   0  0  0  0  0  0  0  0  0  0  0  0
   -3.8209   -0.7468   -2.2750 F   0  0  0  0  0  0  0  0  0  0  0  0
   -6.4959   -1.0785   -1.6240 F   0  0  0  0  0  0  0  0  0  0  0  0
   -7.4340   -0.2056    0.8587 F   0  0  0  0  0  0  0  0  0  0  0  0
    6.6043    0.0680   -0.0031 H   0  0  0  0  0  0  0  0  0  0  0  0
    6.5335    1.5838    0.7262 H   0  0  0  0  0  0  0  0  0  0  0  0
    4.4807    0.0314    1.8708 H   0  0  0  0  0  0  0  0  0  0  0  0
    4.4010    1.5000    0.7823 H   0  0  0  0  0  0  0  0  0  0  0  0
    4.6246   -0.0771   -1.2040 H   0  0  0  0  0  0  0  0  0  0  0  0
    4.7522   -1.4506   -0.0785 H   0  0  0  0  0  0  0  0  0  0  0  0
    2.6274    1.1973   -1.3730 H   0  0  0  0  0  0  0  0  0  0  0  0
    0.1206    1.1656   -1.1586 H   0  0  0  0  0  0  0  0  0  0  0  0
    0.4185   -2.2122    1.5079 H   0  0  0  0  0  0  0  0  0  0  0  0
    2.9145   -2.1216    1.2474 H   0  0  0  0  0  0  0  0  0  0  0  0
   -1.7411    0.3201   -1.5133 H   0  0  0  0  0  0  0  0  0  0  0  0
   -1.6809    1.5136   -0.1862 H   0  0  0  0  0  0  0  0  0  0  0  0
  1  2  1  0
  2  3  1  0
  3  4  1  0
  4  5  2  0
  5  6  1  0
  6  7  2  0
  7  8  1  0
  8  9  2  0
  7 10  1  0
 10 11  1  0
 11 12  1  0
 12 13  2  0
 13 14  1  0
 13 15  1  0
 15 16  1  0
 15 17  2  0
 17 18  1  0
 18 19  2  0
 19 20  1  0
 18 21  1  0
 17 22  1  0
  9  4  1  0
 19 12  1  0
  1 23  1  0
  1 24  1  0
  2 25  1  0
  2 26  1  0
  3 27  1  0
  3 28  1  0
  5 29  1  0
  6 30  1  0
  8 31  1  0
  9 32  1  0
 11 33  1  0
 11 34  1  0
M  END
>  <Ligand ID>  (1) 
LIG0005932

>  <Ligand>  (1) 
CHEMBL202172

>  <SMILES>  (1) 
NCCc1ccc(cc1)OCc1c(F)c(F)c(c(c1F)F)F

>  <CID>  (1) 
11652616.0

>  <ChEMBL ID>  (1) 
nan

>  <InChiKey>  (1) 
FTEBFGVQXRIGEG-UHFFFAOYSA-N

>  <InChi>  (1) 
InChI=1S/C15H12F5NO/c16-11-10(12(17)14(19)15(20)13(11)18)7-22-9-3-1-8(2-4-9)5-6-21/h1-4H,5-7,21H2

>  <IUPAC Name>  (1) 
2-[4-[(2,3,4,5,6-pentafluorophenyl)methoxy]phenyl]ethanamine

$$$$
