
     RDKit          3D

 60 63  0  0  0  0  0  0  0  0999 V2000
    5.0378   -3.8362    0.0187 C   0  0  0  0  0  0  0  0  0  0  0  0
    4.9583   -3.0502   -1.2556 C   0  0  0  0  0  0  0  0  0  0  0  0
    3.9204   -2.0849   -1.2230 O   0  0  0  0  0  0  0  0  0  0  0  0
    4.0249   -1.1247   -0.2172 C   0  0  0  0  0  0  0  0  0  0  0  0
    5.0015   -1.1739    0.5721 O   0  0  0  0  0  0  0  0  0  0  0  0
    2.9598   -0.0836   -0.1355 C   0  0  0  0  0  0  0  0  0  0  0  0
    1.6609   -0.8620    0.0967 C   0  0  0  0  0  0  0  0  0  0  0  0
    0.5522   -0.4143   -0.8154 C   0  0  0  0  0  0  0  0  0  0  0  0
    0.4492    0.9890   -0.8865 N   0  0  0  0  0  0  0  0  0  0  0  0
    1.6679    1.6981   -1.2100 C   0  0  0  0  0  0  0  0  0  0  0  0
    2.8228    0.7012   -1.3834 C   0  0  0  0  0  0  0  0  0  0  0  0
   -0.3279    1.5973    0.1215 C   0  0  0  0  0  0  0  0  0  0  0  0
   -1.7244    1.1434    0.0747 C   0  0  0  0  0  0  0  0  0  0  0  0
   -2.2511    0.1203    0.8298 C   0  0  0  0  0  0  0  0  0  0  0  0
   -3.5503   -0.2092    0.6871 N   0  0  0  0  0  0  0  0  0  0  0  0
   -4.3831    0.4118   -0.1647 C   0  0  0  0  0  0  0  0  0  0  0  0
   -3.8601    1.4113   -0.8990 N   0  0  0  0  0  0  0  0  0  0  0  0
   -2.5752    1.8016   -0.8169 C   0  0  0  0  0  0  0  0  0  0  0  0
   -5.7883    0.0610   -0.3243 C   0  0  0  0  0  0  0  0  0  0  0  0
   -6.5728    0.7700   -1.2414 C   0  0  0  0  0  0  0  0  0  0  0  0
   -7.9071    0.4841   -1.4361 C   0  0  0  0  0  0  0  0  0  0  0  0
   -8.5163   -0.5115   -0.7331 C   0  0  0  0  0  0  0  0  0  0  0  0
   -7.7515   -1.2180    0.1752 C   0  0  0  0  0  0  0  0  0  0  0  0
   -6.4102   -0.9303    0.3705 C   0  0  0  0  0  0  0  0  0  0  0  0
   -5.6553   -1.7343    1.3652 C   0  0  0  0  0  0  0  0  0  0  0  0
    3.2656    0.7607    1.0551 C   0  0  0  0  0  0  0  0  0  0  0  0
    4.5482    1.4846    1.1246 C   0  0  0  0  0  0  0  0  0  0  0  0
    5.0623    2.5228    0.2521 C   0  0  0  0  0  0  0  0  0  0  0  0
    4.5016    2.9377    1.5840 C   0  0  0  0  0  0  0  0  0  0  0  0
    5.3918   -4.8743   -0.2035 H   0  0  0  0  0  0  0  0  0  0  0  0
    4.0445   -3.9690    0.4939 H   0  0  0  0  0  0  0  0  0  0  0  0
    5.7894   -3.4068    0.7206 H   0  0  0  0  0  0  0  0  0  0  0  0
    5.9114   -2.4939   -1.4327 H   0  0  0  0  0  0  0  0  0  0  0  0
    4.8203   -3.6856   -2.1561 H   0  0  0  0  0  0  0  0  0  0  0  0
    1.8001   -1.9443   -0.0880 H   0  0  0  0  0  0  0  0  0  0  0  0
    1.3760   -0.7722    1.1680 H   0  0  0  0  0  0  0  0  0  0  0  0
    0.7561   -0.8401   -1.8338 H   0  0  0  0  0  0  0  0  0  0  0  0
   -0.3951   -0.8366   -0.4229 H   0  0  0  0  0  0  0  0  0  0  0  0
    1.9649    2.4631   -0.4877 H   0  0  0  0  0  0  0  0  0  0  0  0
    1.5049    2.1954   -2.1873 H   0  0  0  0  0  0  0  0  0  0  0  0
    3.6883    1.2623   -1.7353 H   0  0  0  0  0  0  0  0  0  0  0  0
    2.5181    0.0335   -2.2474 H   0  0  0  0  0  0  0  0  0  0  0  0
    0.0282    1.3468    1.1695 H   0  0  0  0  0  0  0  0  0  0  0  0
   -0.2524    2.7191    0.1044 H   0  0  0  0  0  0  0  0  0  0  0  0
   -1.6361   -0.4021    1.5281 H   0  0  0  0  0  0  0  0  0  0  0  0
   -2.2130    2.6110   -1.4324 H   0  0  0  0  0  0  0  0  0  0  0  0
   -6.0802    1.5696   -1.8050 H   0  0  0  0  0  0  0  0  0  0  0  0
   -8.4326    1.0936   -2.1735 H   0  0  0  0  0  0  0  0  0  0  0  0
   -9.5710   -0.7171   -0.9055 H   0  0  0  0  0  0  0  0  0  0  0  0
   -8.2422   -2.0070    0.7295 H   0  0  0  0  0  0  0  0  0  0  0  0
   -6.3208   -2.4813    1.8563 H   0  0  0  0  0  0  0  0  0  0  0  0
   -5.2449   -1.0307    2.1272 H   0  0  0  0  0  0  0  0  0  0  0  0
   -4.7750   -2.2283    0.8893 H   0  0  0  0  0  0  0  0  0  0  0  0
    3.1685    0.0775    1.9503 H   0  0  0  0  0  0  0  0  0  0  0  0
    2.3907    1.4783    1.2389 H   0  0  0  0  0  0  0  0  0  0  0  0
    5.3670    0.8571    1.6547 H   0  0  0  0  0  0  0  0  0  0  0  0
    4.6228    2.9637   -0.6482 H   0  0  0  0  0  0  0  0  0  0  0  0
    6.1907    2.6551    0.2291 H   0  0  0  0  0  0  0  0  0  0  0  0
    5.1620    3.2660    2.3986 H   0  0  0  0  0  0  0  0  0  0  0  0
    3.5080    3.4356    1.6285 H   0  0  0  0  0  0  0  0  0  0  0  0
  1  2  1  0
  2  3  1  0
  3  4  1  0
  4  5  2  0
  4  6  1  0
  6  7  1  0
  7  8  1  0
  8  9  1  0
  9 10  1  0
 10 11  1  0
  9 12  1  0
 12 13  1  0
 13 14  2  0
 14 15  1  0
 15 16  2  0
 16 17  1  0
 17 18  2  0
 16 19  1  0
 19 20  2  0
 20 21  1  0
 21 22  2  0
 22 23  1  0
 23 24  2  0
 24 25  1  0
  6 26  1  0
 26 27  1  0
 27 28  1  0
 28 29  1  0
 11  6  1  0
 18 13  1  0
 24 19  1  0
 29 27  1  0
  1 30  1  0
  1 31  1  0
  1 32  1  0
  2 33  1  0
  2 34  1  0
  7 35  1  0
  7 36  1  0
  8 37  1  0
  8 38  1  0
 10 39  1  0
 10 40  1  0
 11 41  1  0
 11 42  1  0
 12 43  1  0
 12 44  1  0
 14 45  1  0
 18 46  1  0
 20 47  1  0
 21 48  1  0
 22 49  1  0
 23 50  1  0
 25 51  1  0
 25 52  1  0
 25 53  1  0
 26 54  1  0
 26 55  1  0
 27 56  1  0
 28 57  1  0
 28 58  1  0
 29 59  1  0
 29 60  1  0
M  END
>  <Ligand ID>  (1) 
LIG0004440

>  <Ligand>  (1) 
MLS000731975

>  <SMILES>  (1) 
CCOC(=O)C1(CCN(CC1)Cc1cnc(nc1)c1ccccc1C)CC1CC1

>  <CID>  (1) 
16191646.0

>  <ChEMBL ID>  (1) 
nan

>  <InChiKey>  (1) 
AVQYMSDSZMZIHU-UHFFFAOYSA-N

>  <InChi>  (1) 
InChI=1S/C24H31N3O2/c1-3-29-23(28)24(14-19-8-9-19)10-12-27(13-11-24)17-20-15-25-22(26-16-20)21-7-5-4-6-18(21)2/h4-7,15-16,19H,3,8-14,17H2,1-2H3

>  <IUPAC Name>  (1) 
ethyl 4-(cyclopropylmethyl)-1-[[2-(2-methylphenyl)pyrimidin-5-yl]methyl]piperidine-4-carboxylate

$$$$
