
     RDKit          3D

 17 17  0  0  0  0  0  0  0  0999 V2000
   -1.7537    1.0507    0.0701 N   0  0  0  0  0  0  0  0  0  0  0  0
   -1.6935   -0.2468   -0.5716 C   0  0  0  0  0  0  0  0  0  0  0  0
   -0.6275   -1.0771    0.1422 C   0  0  0  0  0  0  0  0  0  0  0  0
    0.6972   -0.4308    0.0636 C   0  0  0  0  0  0  0  0  0  0  0  0
    1.6748   -0.5965   -0.9224 C   0  0  0  0  0  0  0  0  0  0  0  0
    2.7018    0.1966   -0.5617 N   0  0  0  0  0  0  0  0  0  0  0  0
    2.4096    0.8477    0.6017 C   0  0  0  0  0  0  0  0  0  0  0  0
    1.1624    0.4498    0.9797 N   0  0  0  0  0  0  0  0  0  0  0  0
   -1.8712    1.8296   -0.6125 H   0  0  0  0  0  0  0  0  0  0  0  0
   -2.3796    1.0700    0.8872 H   0  0  0  0  0  0  0  0  0  0  0  0
   -1.4727   -0.1714   -1.6561 H   0  0  0  0  0  0  0  0  0  0  0  0
   -2.6903   -0.7075   -0.4093 H   0  0  0  0  0  0  0  0  0  0  0  0
   -0.5695   -2.0544   -0.3728 H   0  0  0  0  0  0  0  0  0  0  0  0
   -0.9026   -1.2593    1.1794 H   0  0  0  0  0  0  0  0  0  0  0  0
    1.5935   -1.2398   -1.7892 H   0  0  0  0  0  0  0  0  0  0  0  0
    3.0635    1.5574    1.1271 H   0  0  0  0  0  0  0  0  0  0  0  0
    0.6578    0.7818    1.8445 H   0  0  0  0  0  0  0  0  0  0  0  0
  1  2  1  0
  2  3  1  0
  3  4  1  0
  4  5  2  0
  5  6  1  0
  6  7  2  0
  7  8  1  0
  8  4  1  0
  1  9  1  0
  1 10  1  0
  2 11  1  0
  2 12  1  0
  3 13  1  0
  3 14  1  0
  5 15  1  0
  7 16  1  0
  8 17  1  0
M  END
>  <Ligand ID>  (1) 
LIG0000450

>  <Ligand>  (1) 
histamine

>  <SMILES>  (1) 
NCCc1cnc[nH]1

>  <CID>  (1) 
774.0

>  <ChEMBL ID>  (1) 
nan

>  <InChiKey>  (1) 
NTYJJOPFIAHURM-UHFFFAOYSA-N

>  <InChi>  (1) 
InChI=1S/C5H9N3/c6-2-1-5-3-7-4-8-5/h3-4H,1-2,6H2,(H,7,8)

>  <IUPAC Name>  (1) 
2-(1H-imidazol-5-yl)ethanamine

$$$$
