
     RDKit          3D

 60 62  0  0  0  0  0  0  0  0999 V2000
   -5.6178   -1.1161   -1.7335 C   0  0  0  0  0  0  0  0  0  0  0  0
   -4.4775   -1.1384   -0.7433 C   0  0  0  0  0  0  0  0  0  0  0  0
   -4.6706   -0.9030    0.5911 C   0  0  0  0  0  0  0  0  0  0  0  0
   -3.5438   -0.9685    1.4143 C   0  0  0  0  0  0  0  0  0  0  0  0
   -3.8112   -0.6917    2.8665 C   0  0  0  0  0  0  0  0  0  0  0  0
   -2.2943   -1.2542    0.9294 C   0  0  0  0  0  0  0  0  0  0  0  0
   -2.0911   -1.4892   -0.3945 C   0  0  0  0  0  0  0  0  0  0  0  0
   -3.2371   -1.4202   -1.2195 C   0  0  0  0  0  0  0  0  0  0  0  0
   -0.8705   -1.8216   -1.0647 C   0  0  0  0  0  0  0  0  0  0  0  0
   -0.8882   -3.0034   -1.6210 O   0  0  0  0  0  0  0  0  0  0  0  0
    0.3178   -1.0797   -1.2162 N   0  0  0  0  0  0  0  0  0  0  0  0
    0.5647    0.2083   -0.6656 C   0  0  0  0  0  0  0  0  0  0  0  0
    0.5870    0.4857    0.6201 C   0  0  0  0  0  0  0  0  0  0  0  0
    0.6938    1.8866    1.1247 C   0  0  0  0  0  0  0  0  0  0  0  0
    1.7606    2.4602    0.2769 N   0  0  0  0  0  0  0  0  0  0  0  0
    1.0628    2.6446   -0.9519 C   0  0  0  0  0  0  0  0  0  0  0  0
    0.8105    1.3160   -1.6162 C   0  0  0  0  0  0  0  0  0  0  0  0
   -0.2730    3.2361   -0.5947 C   0  0  0  0  0  0  0  0  0  0  0  0
   -0.5241    2.7158    0.7920 C   0  0  0  0  0  0  0  0  0  0  0  0
    2.1817    3.6513    0.9416 C   0  0  0  0  0  0  0  0  0  0  0  0
    1.3569   -1.6526   -2.0417 C   0  0  0  0  0  0  0  0  0  0  0  0
    2.3409   -2.5439   -1.4141 C   0  0  0  0  0  0  0  0  0  0  0  0
    3.1312   -1.9106   -0.3509 C   0  0  0  0  0  0  0  0  0  0  0  0
    4.2783   -1.2093   -0.6399 C   0  0  0  0  0  0  0  0  0  0  0  0
    5.0231   -0.6391    0.3939 C   0  0  0  0  0  0  0  0  0  0  0  0
    4.6494   -0.7536    1.6978 C   0  0  0  0  0  0  0  0  0  0  0  0
    3.5025   -1.4539    2.0009 C   0  0  0  0  0  0  0  0  0  0  0  0
    2.7741   -2.0126    0.9773 C   0  0  0  0  0  0  0  0  0  0  0  0
    0.6918    0.0000    0.0000 Cl  0  0  0  0  0  0  0  0  0  0  0  0
   -5.6118   -2.1321   -2.2273 H   0  0  0  0  0  0  0  0  0  0  0  0
   -5.4025   -0.3225   -2.4609 H   0  0  0  0  0  0  0  0  0  0  0  0
   -6.5789   -0.9155   -1.2465 H   0  0  0  0  0  0  0  0  0  0  0  0
   -5.6480   -0.6790    0.9902 H   0  0  0  0  0  0  0  0  0  0  0  0
   -4.5049    0.1945    2.8628 H   0  0  0  0  0  0  0  0  0  0  0  0
   -4.2563   -1.5680    3.3800 H   0  0  0  0  0  0  0  0  0  0  0  0
   -2.8668   -0.3617    3.3393 H   0  0  0  0  0  0  0  0  0  0  0  0
   -1.4857   -1.3039    1.6042 H   0  0  0  0  0  0  0  0  0  0  0  0
   -3.1301   -1.6017   -2.3024 H   0  0  0  0  0  0  0  0  0  0  0  0
    0.5428   -0.2880    1.3625 H   0  0  0  0  0  0  0  0  0  0  0  0
    0.9477    1.9363    2.1802 H   0  0  0  0  0  0  0  0  0  0  0  0
    1.6250    3.3318   -1.6578 H   0  0  0  0  0  0  0  0  0  0  0  0
    1.6701    1.1545   -2.2985 H   0  0  0  0  0  0  0  0  0  0  0  0
   -0.1149    1.3480   -2.2589 H   0  0  0  0  0  0  0  0  0  0  0  0
   -1.0360    2.8579   -1.3207 H   0  0  0  0  0  0  0  0  0  0  0  0
   -0.2857    4.3443   -0.6758 H   0  0  0  0  0  0  0  0  0  0  0  0
   -0.6307    3.5831    1.4683 H   0  0  0  0  0  0  0  0  0  0  0  0
   -1.4135    2.0682    0.7601 H   0  0  0  0  0  0  0  0  0  0  0  0
    1.2999    4.2001    1.3649 H   0  0  0  0  0  0  0  0  0  0  0  0
    2.7740    3.3198    1.8449 H   0  0  0  0  0  0  0  0  0  0  0  0
    2.8523    4.3114    0.3866 H   0  0  0  0  0  0  0  0  0  0  0  0
    1.9169   -0.8042   -2.5017 H   0  0  0  0  0  0  0  0  0  0  0  0
    0.8053   -2.2125   -2.8647 H   0  0  0  0  0  0  0  0  0  0  0  0
    1.9356   -3.5356   -1.1044 H   0  0  0  0  0  0  0  0  0  0  0  0
    3.0879   -2.8163   -2.2290 H   0  0  0  0  0  0  0  0  0  0  0  0
    4.6333   -1.0821   -1.6360 H   0  0  0  0  0  0  0  0  0  0  0  0
    5.9449   -0.0735    0.1836 H   0  0  0  0  0  0  0  0  0  0  0  0
    5.2052   -0.3242    2.5157 H   0  0  0  0  0  0  0  0  0  0  0  0
    3.1302   -1.5977    3.0081 H   0  0  0  0  0  0  0  0  0  0  0  0
    1.8585   -2.5746    1.1743 H   0  0  0  0  0  0  0  0  0  0  0  0
   -0.6918    0.0000    0.0000 H   0  0  0  0  0  0  0  0  0  0  0  0
  1  2  1  0
  2  3  2  0
  3  4  1  0
  4  5  1  0
  4  6  2  0
  6  7  1  0
  7  8  2  0
  7  9  1  0
  9 10  2  0
  9 11  1  0
 11 12  1  0
 12 13  2  0
 13 14  1  0
 14 15  1  0
 15 16  1  0
 16 17  1  0
 16 18  1  0
 18 19  1  0
 15 20  1  0
 11 21  1  0
 21 22  1  0
 22 23  1  0
 23 24  2  0
 24 25  1  0
 25 26  2  0
 26 27  1  0
 27 28  2  0
  8  2  1  0
 17 12  1  0
 28 23  1  0
 19 14  1  0
  1 30  1  0
  1 31  1  0
  1 32  1  0
  3 33  1  0
  5 34  1  0
  5 35  1  0
  5 36  1  0
  6 37  1  0
  8 38  1  0
 13 39  1  0
 14 40  1  0
 16 41  1  0
 17 42  1  0
 17 43  1  0
 18 44  1  0
 18 45  1  0
 19 46  1  0
 19 47  1  0
 20 48  1  0
 20 49  1  0
 20 50  1  0
 21 51  1  0
 21 52  1  0
 22 53  1  0
 22 54  1  0
 24 55  1  0
 25 56  1  0
 26 57  1  0
 27 58  1  0
 28 59  1  0
 29 60  1  0
M  END
>  <Ligand ID>  (1) 
LIG0003743

>  <Ligand>  (1) 
MLS000688704

>  <SMILES>  (1) 
Cc1cc(C)cc(c1)C(=O)N(C1=CC2N(C(C1)CC2)C)CCc1ccccc1.Cl

>  <CID>  (1) 
2862069.0

>  <ChEMBL ID>  (1) 
nan

>  <InChiKey>  (1) 
DQVGYZNMUJSYLO-UHFFFAOYSA-N

>  <InChi>  (1) 
InChI=1S/C25H30N2O.ClH/c1-18-13-19(2)15-21(14-18)25(28)27(12-11-20-7-5-4-6-8-20)24-16-22-9-10-23(17-24)26(22)3;/h4-8,13-16,22-23H,9-12,17H2,1-3H3;1H

>  <IUPAC Name>  (1) 
3,5-dimethyl-N-(8-methyl-8-azabicyclo[3.2.1]oct-2-en-3-yl)-N-(2-phenylethyl)benzamide;hydrochloride

$$$$
