
     RDKit          3D

 49 53  0  0  0  0  0  0  0  0999 V2000
    2.0214   -1.6506    1.4577 O   0  0  0  0  0  0  0  0  0  0  0  0
    2.2943   -0.9222    0.4680 C   0  0  0  0  0  0  0  0  0  0  0  0
    3.6000   -0.3275    0.3559 C   0  0  0  0  0  0  0  0  0  0  0  0
    4.6578   -0.2808    0.9543 N   0  0  0  0  0  0  0  0  0  0  0  0
    5.7409    0.3687    0.6091 C   0  0  0  0  0  0  0  0  0  0  0  0
    5.6580    1.0778   -0.5727 C   0  0  0  0  0  0  0  0  0  0  0  0
    4.0173    0.7744   -1.1329 S   0  0  0  0  0  0  0  0  0  0  0  0
    6.6865    1.8185   -1.0979 C   0  0  0  0  0  0  0  0  0  0  0  0
    7.9168    1.8889   -0.4288 C   0  0  0  0  0  0  0  0  0  0  0  0
    7.9783    1.1740    0.7478 C   0  0  0  0  0  0  0  0  0  0  0  0
    6.9704    0.4378    1.2795 C   0  0  0  0  0  0  0  0  0  0  0  0
    1.2696   -0.7300   -0.4984 N   0  0  0  0  0  0  0  0  0  0  0  0
    0.0164   -1.3867   -0.2501 C   0  0  0  0  0  0  0  0  0  0  0  0
   -0.3379   -2.6310   -0.6269 N   0  0  0  0  0  0  0  0  0  0  0  0
   -1.5914   -2.8849   -0.2140 C   0  0  0  0  0  0  0  0  0  0  0  0
   -2.0077   -1.7464    0.4377 C   0  0  0  0  0  0  0  0  0  0  0  0
   -1.0203   -0.8088    0.4227 N   0  0  0  0  0  0  0  0  0  0  0  0
   -1.0025    0.5185    0.9617 C   0  0  0  0  0  0  0  0  0  0  0  0
   -1.3748    1.6142    0.0559 C   0  0  0  0  0  0  0  0  0  0  0  0
   -2.6029    1.6952   -0.5687 N   0  0  0  0  0  0  0  0  0  0  0  0
   -2.9995    0.8305   -1.5995 C   0  0  0  0  0  0  0  0  0  0  0  0
   -4.4945    0.6052   -1.4683 C   0  0  0  0  0  0  0  0  0  0  0  0
   -4.9551    1.7083   -0.5605 C   0  0  0  0  0  0  0  0  0  0  0  0
   -3.6991    2.3283    0.0420 C   0  0  0  0  0  0  0  0  0  0  0  0
   -3.2704   -1.7232    0.9762 C   0  0  0  0  0  0  0  0  0  0  0  0
   -4.0890   -2.8204    0.8587 C   0  0  0  0  0  0  0  0  0  0  0  0
   -3.6772   -3.9728    0.2028 C   0  0  0  0  0  0  0  0  0  0  0  0
   -2.3944   -3.9961   -0.3441 C   0  0  0  0  0  0  0  0  0  0  0  0
    6.5616    2.3552   -2.0298 H   0  0  0  0  0  0  0  0  0  0  0  0
    8.7432    2.4518   -0.7993 H   0  0  0  0  0  0  0  0  0  0  0  0
    8.9368    1.2146    1.2903 H   0  0  0  0  0  0  0  0  0  0  0  0
    7.1340   -0.0808    2.2085 H   0  0  0  0  0  0  0  0  0  0  0  0
    1.4378   -0.1381   -1.3396 H   0  0  0  0  0  0  0  0  0  0  0  0
    0.0666    0.6960    1.2990 H   0  0  0  0  0  0  0  0  0  0  0  0
   -1.6152    0.4663    1.8965 H   0  0  0  0  0  0  0  0  0  0  0  0
   -1.1706    2.6162    0.5690 H   0  0  0  0  0  0  0  0  0  0  0  0
   -0.5727    1.6407   -0.7614 H   0  0  0  0  0  0  0  0  0  0  0  0
   -2.4222   -0.0759   -1.7876 H   0  0  0  0  0  0  0  0  0  0  0  0
   -2.8931    1.4249   -2.5731 H   0  0  0  0  0  0  0  0  0  0  0  0
   -4.7226   -0.4099   -1.1360 H   0  0  0  0  0  0  0  0  0  0  0  0
   -5.0307    0.7794   -2.4480 H   0  0  0  0  0  0  0  0  0  0  0  0
   -5.6206    1.2588    0.2189 H   0  0  0  0  0  0  0  0  0  0  0  0
   -5.5471    2.4903   -1.0830 H   0  0  0  0  0  0  0  0  0  0  0  0
   -3.8037    2.2526    1.1218 H   0  0  0  0  0  0  0  0  0  0  0  0
   -3.6876    3.4137   -0.2077 H   0  0  0  0  0  0  0  0  0  0  0  0
   -3.6010   -0.8375    1.4870 H   0  0  0  0  0  0  0  0  0  0  0  0
   -5.0767   -2.7501    1.3023 H   0  0  0  0  0  0  0  0  0  0  0  0
   -4.3355   -4.8217    0.1224 H   0  0  0  0  0  0  0  0  0  0  0  0
   -2.0916   -4.9050   -0.8522 H   0  0  0  0  0  0  0  0  0  0  0  0
  1  2  2  0
  2  3  1  0
  3  4  2  0
  4  5  1  0
  5  6  2  0
  6  7  1  0
  6  8  1  0
  8  9  2  0
  9 10  1  0
 10 11  2  0
  2 12  1  0
 12 13  1  0
 13 14  2  0
 14 15  1  0
 15 16  2  0
 16 17  1  0
 17 18  1  0
 18 19  1  0
 19 20  1  0
 20 21  1  0
 21 22  1  0
 22 23  1  0
 23 24  1  0
 16 25  1  0
 25 26  2  0
 26 27  1  0
 27 28  2  0
  7  3  1  0
 17 13  1  0
 24 20  1  0
 11  5  1  0
 28 15  1  0
  8 29  1  0
  9 30  1  0
 10 31  1  0
 11 32  1  0
 12 33  1  0
 18 34  1  0
 18 35  1  0
 19 36  1  0
 19 37  1  0
 21 38  1  0
 21 39  1  0
 22 40  1  0
 22 41  1  0
 23 42  1  0
 23 43  1  0
 24 44  1  0
 24 45  1  0
 25 46  1  0
 26 47  1  0
 27 48  1  0
 28 49  1  0
M  END
>  <Ligand ID>  (1) 
LIG0003090

>  <Ligand>  (1) 
CHEMBL3393999

>  <SMILES>  (1) 
O=C(c1nc2c(s1)cccc2)Nc1nc2c(n1CCN1CCCC1)cccc2

>  <CID>  (1) 
118725849.0

>  <ChEMBL ID>  (1) 
nan

>  <InChiKey>  (1) 
UBNJLTYQDKLAMB-UHFFFAOYSA-N

>  <InChi>  (1) 
InChI=1S/C21H21N5OS/c27-19(20-22-16-8-2-4-10-18(16)28-20)24-21-23-15-7-1-3-9-17(15)26(21)14-13-25-11-5-6-12-25/h1-4,7-10H,5-6,11-14H2,(H,23,24,27)

>  <IUPAC Name>  (1) 
N-[1-(2-pyrrolidin-1-ylethyl)benzimidazol-2-yl]-1,3-benzothiazole-2-carboxamide

$$$$
