
     RDKit          3D

 52 56  0  0  0  0  0  0  0  0999 V2000
   -3.7922   -3.5630    1.3326 C   0  0  0  0  0  0  0  0  0  0  0  0
   -3.8072   -2.0834    1.6392 C   0  0  0  0  0  0  0  0  0  0  0  0
   -2.3913   -1.6246    1.7104 C   0  0  0  0  0  0  0  0  0  0  0  0
   -1.8421   -1.1937    0.3514 C   0  0  0  0  0  0  0  0  0  0  0  0
   -2.6122    0.0653   -0.0158 C   0  0  0  0  0  0  0  0  0  0  0  0
   -3.9971   -0.1080    0.1478 C   0  0  0  0  0  0  0  0  0  0  0  0
   -4.5995   -1.4123    0.5723 C   0  0  0  0  0  0  0  0  0  0  0  0
   -4.7538    1.4661   -0.2661 S   0  0  0  0  0  0  0  0  0  0  0  0
   -3.1868    2.2402   -0.6277 C   0  0  0  0  0  0  0  0  0  0  0  0
   -2.2155    1.2848   -0.4188 C   0  0  0  0  0  0  0  0  0  0  0  0
   -0.9167    1.7541   -0.6693 C   0  0  0  0  0  0  0  0  0  0  0  0
   -0.7276    3.0460   -1.0717 N   0  0  0  0  0  0  0  0  0  0  0  0
   -1.7037    3.9120   -1.2505 C   0  0  0  0  0  0  0  0  0  0  0  0
   -2.9572    3.5066   -1.0265 N   0  0  0  0  0  0  0  0  0  0  0  0
   -1.4689    5.2982   -1.6843 C   0  0  0  0  0  0  0  0  0  0  0  0
    0.2551    0.9757   -0.6080 N   0  0  0  0  0  0  0  0  0  0  0  0
    0.5349    0.0098   -1.6859 C   0  0  0  0  0  0  0  0  0  0  0  0
    1.5538   -1.0179   -1.2694 C   0  0  0  0  0  0  0  0  0  0  0  0
    2.6876   -0.4086   -0.5984 N   0  0  0  0  0  0  0  0  0  0  0  0
    2.5885    0.8154    0.1724 C   0  0  0  0  0  0  0  0  0  0  0  0
    1.1540    1.1629    0.5069 C   0  0  0  0  0  0  0  0  0  0  0  0
    3.9571   -1.0412   -0.7015 C   0  0  0  0  0  0  0  0  0  0  0  0
    3.9979   -2.1147   -1.3891 O   0  0  0  0  0  0  0  0  0  0  0  0
    5.1729   -0.4904   -0.0489 C   0  0  0  0  0  0  0  0  0  0  0  0
    6.2608   -1.4244    0.4093 C   0  0  0  0  0  0  0  0  0  0  0  0
    6.4561   -0.6661   -0.8532 C   0  0  0  0  0  0  0  0  0  0  0  0
   -4.8204   -3.9754    1.4932 H   0  0  0  0  0  0  0  0  0  0  0  0
   -3.5188   -3.7617    0.2853 H   0  0  0  0  0  0  0  0  0  0  0  0
   -3.1202   -4.1316    2.0041 H   0  0  0  0  0  0  0  0  0  0  0  0
   -4.3087   -1.9223    2.6184 H   0  0  0  0  0  0  0  0  0  0  0  0
   -2.2584   -0.7527    2.3830 H   0  0  0  0  0  0  0  0  0  0  0  0
   -1.7026   -2.4334    2.0857 H   0  0  0  0  0  0  0  0  0  0  0  0
   -0.8027   -0.9237    0.4975 H   0  0  0  0  0  0  0  0  0  0  0  0
   -2.0191   -1.9838   -0.3925 H   0  0  0  0  0  0  0  0  0  0  0  0
   -4.7697   -2.0497   -0.3210 H   0  0  0  0  0  0  0  0  0  0  0  0
   -5.6294   -1.1967    0.9826 H   0  0  0  0  0  0  0  0  0  0  0  0
   -2.3672    5.7476   -2.1296 H   0  0  0  0  0  0  0  0  0  0  0  0
   -1.1607    5.8861   -0.7924 H   0  0  0  0  0  0  0  0  0  0  0  0
   -0.6345    5.3441   -2.4416 H   0  0  0  0  0  0  0  0  0  0  0  0
    0.9435    0.6162   -2.5369 H   0  0  0  0  0  0  0  0  0  0  0  0
   -0.3620   -0.5071   -2.0344 H   0  0  0  0  0  0  0  0  0  0  0  0
    1.0899   -1.8105   -0.6764 H   0  0  0  0  0  0  0  0  0  0  0  0
    1.9594   -1.4934   -2.1937 H   0  0  0  0  0  0  0  0  0  0  0  0
    3.0792    1.6043   -0.4231 H   0  0  0  0  0  0  0  0  0  0  0  0
    3.1607    0.7154    1.1149 H   0  0  0  0  0  0  0  0  0  0  0  0
    0.8403    0.5757    1.3719 H   0  0  0  0  0  0  0  0  0  0  0  0
    1.1770    2.2554    0.7792 H   0  0  0  0  0  0  0  0  0  0  0  0
    5.1008    0.4523    0.5466 H   0  0  0  0  0  0  0  0  0  0  0  0
    6.0745   -2.5291    0.3161 H   0  0  0  0  0  0  0  0  0  0  0  0
    6.8978   -1.1127    1.2541 H   0  0  0  0  0  0  0  0  0  0  0  0
    6.3869   -1.2272   -1.8070 H   0  0  0  0  0  0  0  0  0  0  0  0
    7.1177    0.2252   -0.9013 H   0  0  0  0  0  0  0  0  0  0  0  0
  1  2  1  0
  2  3  1  0
  3  4  1  0
  4  5  1  0
  5  6  2  0
  6  7  1  0
  6  8  1  0
  8  9  1  0
  9 10  2  0
 10 11  1  0
 11 12  2  0
 12 13  1  0
 13 14  2  0
 13 15  1  0
 11 16  1  0
 16 17  1  0
 17 18  1  0
 18 19  1  0
 19 20  1  0
 20 21  1  0
 19 22  1  0
 22 23  2  0
 22 24  1  0
 24 25  1  0
 25 26  1  0
  7  2  1  0
 14  9  1  0
 21 16  1  0
 26 24  1  0
 10  5  1  0
  1 27  1  0
  1 28  1  0
  1 29  1  0
  2 30  1  0
  3 31  1  0
  3 32  1  0
  4 33  1  0
  4 34  1  0
  7 35  1  0
  7 36  1  0
 15 37  1  0
 15 38  1  0
 15 39  1  0
 17 40  1  0
 17 41  1  0
 18 42  1  0
 18 43  1  0
 20 44  1  0
 20 45  1  0
 21 46  1  0
 21 47  1  0
 24 48  1  0
 25 49  1  0
 25 50  1  0
 26 51  1  0
 26 52  1  0
M  END
>  <Ligand ID>  (1) 
LIG0004008

>  <Ligand>  (1) 
MLS-0437135.0001

>  <SMILES>  (1) 
CC1CCc2c(C1)sc1c2c(nc(n1)C)N1CCN(CC1)C(=O)C1CC1

>  <CID>  (1) 
3193022.0

>  <ChEMBL ID>  (1) 
nan

>  <InChiKey>  (1) 
KTYYVXHOAFGXSL-UHFFFAOYSA-N

>  <InChi>  (1) 
InChI=1S/C20H26N4OS/c1-12-3-6-15-16(11-12)26-19-17(15)18(21-13(2)22-19)23-7-9-24(10-8-23)20(25)14-4-5-14/h12,14H,3-11H2,1-2H3

>  <IUPAC Name>  (1) 
cyclopropyl-[4-(2,7-dimethyl-5,6,7,8-tetrahydro-[1]benzothiolo[2,3-d]pyrimidin-4-yl)piperazin-1-yl]methanone

$$$$
