
     RDKit          3D

 24 24  0  0  0  0  0  0  0  0999 V2000
    3.4395    0.7942    1.4653 C   0  0  0  0  0  0  0  0  0  0  0  0
    2.9290    0.2382    0.1914 C   0  0  0  0  0  0  0  0  0  0  0  0
    3.6493    0.3063   -0.8624 O   0  0  0  0  0  0  0  0  0  0  0  0
    1.7010   -0.3602    0.0681 O   0  0  0  0  0  0  0  0  0  0  0  0
    1.2023   -0.8951   -1.1435 C   0  0  0  0  0  0  0  0  0  0  0  0
   -0.1625   -1.4867   -0.9882 C   0  0  0  0  0  0  0  0  0  0  0  0
   -1.2100   -0.5750   -0.5386 C   0  0  0  0  0  0  0  0  0  0  0  0
   -1.9450    0.1237   -1.4748 C   0  0  0  0  0  0  0  0  0  0  0  0
   -2.9459    0.9956   -1.0604 C   0  0  0  0  0  0  0  0  0  0  0  0
   -3.2148    1.1715    0.2897 C   0  0  0  0  0  0  0  0  0  0  0  0
   -2.4643    0.4599    1.2046 C   0  0  0  0  0  0  0  0  0  0  0  0
   -1.4674   -0.4098    0.8189 C   0  0  0  0  0  0  0  0  0  0  0  0
    2.5846    1.0849    2.0927 H   0  0  0  0  0  0  0  0  0  0  0  0
    4.0705    1.7082    1.2845 H   0  0  0  0  0  0  0  0  0  0  0  0
    4.0813    0.0128    1.9612 H   0  0  0  0  0  0  0  0  0  0  0  0
    1.3018   -0.1950   -1.9711 H   0  0  0  0  0  0  0  0  0  0  0  0
    1.8810   -1.7509   -1.3815 H   0  0  0  0  0  0  0  0  0  0  0  0
   -0.4758   -1.9371   -1.9517 H   0  0  0  0  0  0  0  0  0  0  0  0
   -0.1178   -2.3261   -0.2645 H   0  0  0  0  0  0  0  0  0  0  0  0
   -1.7404   -0.0090   -2.5248 H   0  0  0  0  0  0  0  0  0  0  0  0
   -3.5248    1.5466   -1.8123 H   0  0  0  0  0  0  0  0  0  0  0  0
   -4.0017    1.8594    0.5640 H   0  0  0  0  0  0  0  0  0  0  0  0
   -2.6836    0.6054    2.2622 H   0  0  0  0  0  0  0  0  0  0  0  0
   -0.8862   -0.9617    1.5470 H   0  0  0  0  0  0  0  0  0  0  0  0
  1  2  1  0
  2  3  2  0
  2  4  1  0
  4  5  1  0
  5  6  1  0
  6  7  1  0
  7  8  2  0
  8  9  1  0
  9 10  2  0
 10 11  1  0
 11 12  2  0
 12  7  1  0
  1 13  1  0
  1 14  1  0
  1 15  1  0
  5 16  1  0
  5 17  1  0
  6 18  1  0
  6 19  1  0
  8 20  1  0
  9 21  1  0
 10 22  1  0
 11 23  1  0
 12 24  1  0
M  END
>  <Ligand ID>  (1) 
LIG0000141

>  <Ligand>  (1) 
Phenethyl acetate

>  <SMILES>  (1) 
CC(=O)OCCc1ccccc1

>  <CID>  (1) 
7654.0

>  <ChEMBL ID>  (1) 
nan

>  <InChiKey>  (1) 
MDHYEMXUFSJLGV-UHFFFAOYSA-N

>  <InChi>  (1) 
InChI=1S/C10H12O2/c1-9(11)12-8-7-10-5-3-2-4-6-10/h2-6H,7-8H2,1H3

>  <IUPAC Name>  (1) 
2-phenylethyl acetate

$$$$
