
     RDKit          3D

 50 52  0  0  0  0  0  0  0  0999 V2000
   -8.1788    1.9912   -1.2795 Cl  0  0  0  0  0  0  0  0  0  0  0  0
   -7.1963    0.5543   -1.1084 C   0  0  0  0  0  0  0  0  0  0  0  0
   -7.7108   -0.7010   -1.3513 C   0  0  0  0  0  0  0  0  0  0  0  0
   -6.8884   -1.8040   -1.2043 C   0  0  0  0  0  0  0  0  0  0  0  0
   -5.5645   -1.6546   -0.8179 C   0  0  0  0  0  0  0  0  0  0  0  0
   -5.0190   -0.3891   -0.5644 C   0  0  0  0  0  0  0  0  0  0  0  0
   -5.8640    0.7002   -0.7198 C   0  0  0  0  0  0  0  0  0  0  0  0
   -3.5934   -0.2332   -0.1530 C   0  0  2  0  0  0  0  0  0  0  0  0
   -3.2506    1.1931    0.0626 C   0  0  0  0  0  0  0  0  0  0  0  0
   -1.9327    1.4034    0.6372 N   0  0  0  0  0  0  0  0  0  0  0  0
   -1.8385    0.9141    1.9713 C   0  0  0  0  0  0  0  0  0  0  0  0
   -0.5580    1.3322    2.6119 C   0  0  0  0  0  0  0  0  0  0  0  0
    0.6088    0.8458    1.8730 C   0  0  0  0  0  0  0  0  0  0  0  0
    1.2064   -0.3792    2.0123 C   0  0  0  0  0  0  0  0  0  0  0  0
    2.3533   -0.7675    1.3562 C   0  0  0  0  0  0  0  0  0  0  0  0
    2.9618    0.1248    0.4917 C   0  0  0  0  0  0  0  0  0  0  0  0
    2.3793    1.3671    0.3284 C   0  0  0  0  0  0  0  0  0  0  0  0
    1.2237    1.7470    0.9948 C   0  0  0  0  0  0  0  0  0  0  0  0
    4.2134   -0.2572   -0.1746 C   0  0  0  0  0  0  0  0  0  0  0  0
    5.1486    0.7107   -0.4781 C   0  0  0  0  0  0  0  0  0  0  0  0
    6.3550    0.4193   -1.0825 C   0  0  0  0  0  0  0  0  0  0  0  0
    6.6644   -0.9043   -1.4105 C   0  0  0  0  0  0  0  0  0  0  0  0
    5.7472   -1.8872   -1.1181 C   0  0  0  0  0  0  0  0  0  0  0  0
    4.5329   -1.5539   -0.5043 C   0  0  0  0  0  0  0  0  0  0  0  0
    6.1541   -3.5377   -1.5316 Cl  0  0  0  0  0  0  0  0  0  0  0  0
    7.9515   -1.1555   -2.0385 C   0  0  0  0  0  0  0  0  0  0  0  0
    8.3010   -2.3191   -2.4048 O   0  0  0  0  0  0  0  0  0  0  0  0
    8.8657   -0.1478   -2.2710 O   0  0  0  0  0  0  0  0  0  0  0  0
   -2.7247   -0.8533   -1.0100 O   0  0  0  0  0  0  0  0  0  0  0  0
   -8.7498   -0.7807   -1.6494 H   0  0  0  0  0  0  0  0  0  0  0  0
   -7.3134   -2.7935   -1.3991 H   0  0  0  0  0  0  0  0  0  0  0  0
   -4.9065   -2.5222   -0.7001 H   0  0  0  0  0  0  0  0  0  0  0  0
   -5.4933    1.7093   -0.5375 H   0  0  0  0  0  0  0  0  0  0  0  0
   -3.5449   -0.7590    0.8426 H   0  0  0  0  0  0  0  0  0  0  0  0
   -3.9555    1.6975    0.7641 H   0  0  0  0  0  0  0  0  0  0  0  0
   -3.2615    1.7896   -0.8760 H   0  0  0  0  0  0  0  0  0  0  0  0
   -1.1753    1.0679    0.0160 H   0  0  0  0  0  0  0  0  0  0  0  0
   -1.9230   -0.2169    2.0024 H   0  0  0  0  0  0  0  0  0  0  0  0
   -2.7153    1.2487    2.6056 H   0  0  0  0  0  0  0  0  0  0  0  0
   -0.5235    1.0293    3.6928 H   0  0  0  0  0  0  0  0  0  0  0  0
   -0.5263    2.4661    2.6788 H   0  0  0  0  0  0  0  0  0  0  0  0
    0.7536   -1.0886    2.6713 H   0  0  0  0  0  0  0  0  0  0  0  0
    2.7991   -1.7635    1.4970 H   0  0  0  0  0  0  0  0  0  0  0  0
    2.8953    2.0384   -0.3654 H   0  0  0  0  0  0  0  0  0  0  0  0
    0.7940    2.7240    0.8495 H   0  0  0  0  0  0  0  0  0  0  0  0
    4.9117    1.7275   -0.2284 H   0  0  0  0  0  0  0  0  0  0  0  0
    7.0488    1.2194   -1.2906 H   0  0  0  0  0  0  0  0  0  0  0  0
    3.8374   -2.3482   -0.2877 H   0  0  0  0  0  0  0  0  0  0  0  0
    9.7707   -0.2717   -2.7228 H   0  0  0  0  0  0  0  0  0  0  0  0
   -3.0700   -0.9317   -1.9384 H   0  0  0  0  0  0  0  0  0  0  0  0
  1  2  1  0
  2  3  2  0
  3  4  1  0
  4  5  2  0
  5  6  1  0
  6  7  2  0
  6  8  1  0
  8  9  1  0
  9 10  1  0
 10 11  1  0
 11 12  1  0
 12 13  1  0
 13 14  2  0
 14 15  1  0
 15 16  2  0
 16 17  1  0
 17 18  2  0
 16 19  1  0
 19 20  2  0
 20 21  1  0
 21 22  2  0
 22 23  1  0
 23 24  2  0
 23 25  1  0
 22 26  1  0
 26 27  2  0
 26 28  1  0
  8 29  1  0
  7  2  1  0
 18 13  1  0
 24 19  1  0
  3 30  1  0
  4 31  1  0
  5 32  1  0
  7 33  1  0
  8 34  1  1
  9 35  1  0
  9 36  1  0
 10 37  1  0
 11 38  1  0
 11 39  1  0
 12 40  1  0
 12 41  1  0
 14 42  1  0
 15 43  1  0
 17 44  1  0
 18 45  1  0
 20 46  1  0
 21 47  1  0
 24 48  1  0
 28 49  1  0
 29 50  1  0
M  END
>  <Ligand ID>  (1) 
LIG0005821

>  <Ligand>  (1) 
CHEMBL269823

>  <SMILES>  (1) 
Clc1cccc(c1)[C@H](CNCCc1ccc(cc1)c1ccc(c(c1)Cl)C(=O)O)O

>  <CID>  (1) 
24823131.0

>  <ChEMBL ID>  (1) 
nan

>  <InChiKey>  (1) 
WEIFZOFGEUQELC-QFIPXVFZSA-N

>  <InChi>  (1) 
InChI=1S/C23H21Cl2NO3/c24-19-3-1-2-18(12-19)22(27)14-26-11-10-15-4-6-16(7-5-15)17-8-9-20(23(28)29)21(25)13-17/h1-9,12-13,22,26-27H,10-11,14H2,(H,28,29)/t22-/m0/s1

>  <IUPAC Name>  (1) 
2-chloro-4-[4-[2-[[(2R)-2-(3-chlorophenyl)-2-hydroxyethyl]amino]ethyl]phenyl]benzoic acid

$$$$
