
     RDKit          3D

 68 75  0  0  0  0  0  0  0  0999 V2000
   -5.2077   -3.4880   -1.8343 C   0  0  0  0  0  0  0  0  0  0  0  0
   -3.8970   -3.0831   -1.4578 O   0  0  0  0  0  0  0  0  0  0  0  0
   -3.7950   -1.9162   -0.7149 C   0  0  0  0  0  0  0  0  0  0  0  0
   -4.9051   -1.1631   -0.3452 C   0  0  0  0  0  0  0  0  0  0  0  0
   -4.7873    0.0145    0.4044 C   0  0  0  0  0  0  0  0  0  0  0  0
   -3.5159    0.4500    0.7972 C   0  0  0  0  0  0  0  0  0  0  0  0
   -2.4845   -0.3407    0.4013 C   0  0  0  0  0  0  0  0  0  0  0  0
   -2.5458   -1.4887   -0.3298 C   0  0  0  0  0  0  0  0  0  0  0  0
   -1.2184   -1.9242   -0.4935 O   0  0  0  0  0  0  0  0  0  0  0  0
   -0.3097   -0.8949   -0.1555 C   0  0  2  0  0  0  0  0  0  0  0  0
   -1.1016   -0.0075    0.8084 C   0  0  2  0  0  0  0  0  0  0  0  0
   -0.8535   -0.3774    2.2098 C   0  0  0  0  0  0  0  0  0  0  0  0
   -1.3118    0.5972    3.2175 C   0  0  0  0  0  0  0  0  0  0  0  0
   -1.2216    1.9715    2.8151 N   0  0  0  0  0  0  0  0  0  0  0  0
   -1.8647    2.1697    1.5102 C   0  0  2  0  0  0  0  0  0  0  0  0
   -3.2738    1.7032    1.5219 C   0  0  0  0  0  0  0  0  0  0  0  0
   -0.9943    1.4597    0.5066 C   0  0  2  0  0  0  0  0  0  0  0  0
   -1.5401    1.7582   -0.8766 C   0  0  0  0  0  0  0  0  0  0  0  0
   -1.0030    0.7344   -1.8478 C   0  0  0  0  0  0  0  0  0  0  0  0
    0.1529    0.0021   -1.2456 C   0  0  2  0  0  0  0  0  0  0  0  0
    0.9292   -0.6104   -2.2236 O   0  0  0  0  0  0  0  0  0  0  0  0
    0.2835   -1.6301   -2.8791 C   0  0  0  0  0  0  0  0  0  0  0  0
    1.1226    0.9982   -0.5672 C   0  0  2  0  0  0  0  0  0  0  0  0
    0.4365    1.8259    0.4953 C   0  0  0  0  0  0  0  0  0  0  0  0
    1.8303    1.8302   -1.5835 C   0  0  0  0  0  0  0  0  0  0  0  0
    2.8074    0.8115   -2.7233 S   0  0  0  0  0  0  0  0  0  0  0  0
    4.1525    0.0091   -1.9083 C   0  0  0  0  0  0  0  0  0  0  0  0
    5.2754    0.1939   -1.6372 N   0  0  0  0  0  0  0  0  0  0  0  0
    6.1576   -0.5461   -1.0013 C   0  0  0  0  0  0  0  0  0  0  0  0
    5.6159   -1.7826   -0.5838 C   0  0  0  0  0  0  0  0  0  0  0  0
    3.8916   -1.7455   -1.1533 S   0  0  0  0  0  0  0  0  0  0  0  0
    6.3359   -2.7354    0.1017 C   0  0  0  0  0  0  0  0  0  0  0  0
    7.6725   -2.4990    0.4167 C   0  0  0  0  0  0  0  0  0  0  0  0
    8.1758   -1.2838   -0.0028 C   0  0  0  0  0  0  0  0  0  0  0  0
    7.4777   -0.3369   -0.6786 C   0  0  0  0  0  0  0  0  0  0  0  0
   -1.8130    2.8246    3.8134 C   0  0  0  0  0  0  0  0  0  0  0  0
   -5.7042   -2.7124   -2.4753 H   0  0  0  0  0  0  0  0  0  0  0  0
   -5.8244   -3.5353   -0.9139 H   0  0  0  0  0  0  0  0  0  0  0  0
   -5.2205   -4.4789   -2.3055 H   0  0  0  0  0  0  0  0  0  0  0  0
   -5.9003   -1.5050   -0.6520 H   0  0  0  0  0  0  0  0  0  0  0  0
   -5.6447    0.5961    0.6885 H   0  0  0  0  0  0  0  0  0  0  0  0
    0.5264   -1.3516    0.4248 H   0  0  0  0  0  0  0  0  0  0  0  0
   -1.4437   -1.3365    2.3981 H   0  0  0  0  0  0  0  0  0  0  0  0
    0.2030   -0.7260    2.3951 H   0  0  0  0  0  0  0  0  0  0  0  0
   -0.6767    0.5066    4.1391 H   0  0  0  0  0  0  0  0  0  0  0  0
   -2.3702    0.3586    3.5221 H   0  0  0  0  0  0  0  0  0  0  0  0
   -1.8213    3.2523    1.3051 H   0  0  0  0  0  0  0  0  0  0  0  0
   -3.9498    2.5327    1.1362 H   0  0  0  0  0  0  0  0  0  0  0  0
   -3.6139    1.6210    2.5974 H   0  0  0  0  0  0  0  0  0  0  0  0
   -1.0635    2.7413   -1.1650 H   0  0  0  0  0  0  0  0  0  0  0  0
   -2.6089    1.9343   -0.9244 H   0  0  0  0  0  0  0  0  0  0  0  0
   -1.8151    0.0218   -2.0702 H   0  0  0  0  0  0  0  0  0  0  0  0
   -0.6977    1.2468   -2.8114 H   0  0  0  0  0  0  0  0  0  0  0  0
   -0.6392   -1.3249   -3.4071 H   0  0  0  0  0  0  0  0  0  0  0  0
    0.9794   -1.9452   -3.7118 H   0  0  0  0  0  0  0  0  0  0  0  0
    0.1643   -2.5434   -2.2694 H   0  0  0  0  0  0  0  0  0  0  0  0
    1.8696    0.3582   -0.0536 H   0  0  0  0  0  0  0  0  0  0  0  0
    0.9267    1.7313    1.4801 H   0  0  0  0  0  0  0  0  0  0  0  0
    0.5487    2.9007    0.1679 H   0  0  0  0  0  0  0  0  0  0  0  0
    1.1143    2.4707   -2.1347 H   0  0  0  0  0  0  0  0  0  0  0  0
    2.5090    2.5158   -1.0085 H   0  0  0  0  0  0  0  0  0  0  0  0
    5.8443   -3.6375    0.3752 H   0  0  0  0  0  0  0  0  0  0  0  0
    8.2135   -3.2431    0.9454 H   0  0  0  0  0  0  0  0  0  0  0  0
    9.2290   -1.0898    0.2419 H   0  0  0  0  0  0  0  0  0  0  0  0
    7.9869    0.5803   -0.9539 H   0  0  0  0  0  0  0  0  0  0  0  0
   -2.5968    2.2543    4.3511 H   0  0  0  0  0  0  0  0  0  0  0  0
   -1.0115    3.0410    4.5527 H   0  0  0  0  0  0  0  0  0  0  0  0
   -2.1858    3.7735    3.3597 H   0  0  0  0  0  0  0  0  0  0  0  0
  1  2  1  0
  2  3  1  0
  3  4  2  0
  4  5  1  0
  5  6  2  0
  6  7  1  0
  7  8  2  0
  8  9  1  0
  9 10  1  0
 10 11  1  0
 11 12  1  1
 12 13  1  0
 13 14  1  0
 14 15  1  0
 15 16  1  0
 15 17  1  0
 17 18  1  6
 18 19  1  0
 19 20  1  0
 20 21  1  6
 21 22  1  0
 20 23  1  0
 23 24  1  0
 23 25  1  0
 25 26  1  0
 26 27  1  0
 27 28  2  0
 28 29  1  0
 29 30  2  0
 30 31  1  0
 30 32  1  0
 32 33  2  0
 33 34  1  0
 34 35  2  0
 14 36  1  0
  8  3  1  0
 20 10  1  0
 31 27  1  0
 16  6  1  0
 24 17  1  0
 35 29  1  0
 11  7  1  0
 17 11  1  0
  1 37  1  0
  1 38  1  0
  1 39  1  0
  4 40  1  0
  5 41  1  0
 10 42  1  1
 12 43  1  0
 12 44  1  0
 13 45  1  0
 13 46  1  0
 15 47  1  6
 16 48  1  0
 16 49  1  0
 18 50  1  0
 18 51  1  0
 19 52  1  0
 19 53  1  0
 22 54  1  0
 22 55  1  0
 22 56  1  0
 23 57  1  1
 24 58  1  0
 24 59  1  0
 25 60  1  0
 25 61  1  0
 32 62  1  0
 33 63  1  0
 34 64  1  0
 35 65  1  0
 36 66  1  0
 36 67  1  0
 36 68  1  0
M  END
>  <Ligand ID>  (1) 
LIG0004592

>  <Ligand>  (1) 
SCHEMBL15485657

>  <SMILES>  (1) 
COc1ccc2c3c1O[C@@H]1[C@@]43CCN([C@H](C2)[C@@]24CC[C@@]1(OC)[C@H](C2)CSc1nc2c(s1)cccc2)C

>  <CID>  (1) 
89978553.0

>  <ChEMBL ID>  (1) 
nan

>  <InChiKey>  (1) 
YFKQYHWQDZXKGP-RIWDBKMTSA-N

>  <InChi>  (1) 
InChI=1S/C29H32N2O3S2/c1-31-13-12-28-23-17-8-9-20(32-2)24(23)34-25(28)29(33-3)11-10-27(28,22(31)14-17)15-18(29)16-35-26-30-19-6-4-5-7-21(19)36-26/h4-9,18,22,25H,10-16H2,1-3H3/t18-,22-,25-,27-,28+,29-/m1/s1

>  <IUPAC Name>  (1) 
(1S,2S,6R,14R,15R,16S)-16-(1,3-benzothiazol-2-ylsulfanylmethyl)-11,15-dimethoxy-5-methyl-13-oxa-5-azahexacyclo[13.2.2.12,8.01,6.02,14.012,20]icosa-8(20),9,11-triene

$$$$
