
     RDKit          3D

 32 34  0  0  0  0  0  0  0  0999 V2000
   -1.5549   -2.6507    0.4645 C   0  0  0  0  0  0  0  0  0  0  0  0
   -0.9147   -1.4790   -0.0609 N   0  0  0  0  0  0  0  0  0  0  0  0
   -1.5634   -0.2567   -0.4265 C   0  0  1  0  0  0  0  0  0  0  0  0
   -3.0041   -0.1230   -0.1166 C   0  0  0  0  0  0  0  0  0  0  0  0
   -3.1558    1.3398   -0.2043 N   0  0  0  0  0  0  0  0  0  0  0  0
   -1.9060    1.9039    0.3343 C   0  0  0  0  0  0  0  0  0  0  0  0
   -1.0101    0.7916    0.5513 C   0  0  2  0  0  0  0  0  0  0  0  0
    0.4120    0.8778    0.3410 C   0  0  0  0  0  0  0  0  0  0  0  0
    1.1922   -0.2045   -0.0280 C   0  0  0  0  0  0  0  0  0  0  0  0
    0.5235   -1.5069   -0.2568 C   0  0  0  0  0  0  0  0  0  0  0  0
    1.1245   -2.5346   -0.5853 O   0  0  0  0  0  0  0  0  0  0  0  0
    2.5560   -0.1281   -0.2114 C   0  0  0  0  0  0  0  0  0  0  0  0
    3.1255    1.1367    0.0004 C   0  0  0  0  0  0  0  0  0  0  0  0
    2.3933    2.2266    0.3634 C   0  0  0  0  0  0  0  0  0  0  0  0
    1.0500    2.0954    0.5313 C   0  0  0  0  0  0  0  0  0  0  0  0
    3.3782   -1.2982   -0.6071 C   0  0  0  0  0  0  0  0  0  0  0  0
    4.7060   -0.8261   -0.6911 F   0  0  0  0  0  0  0  0  0  0  0  0
    3.1654   -1.7244   -1.8981 F   0  0  0  0  0  0  0  0  0  0  0  0
    3.4994   -2.2709    0.3331 F   0  0  0  0  0  0  0  0  0  0  0  0
   -0.8773   -3.5060    0.4391 H   0  0  0  0  0  0  0  0  0  0  0  0
   -2.4692   -2.8597   -0.1383 H   0  0  0  0  0  0  0  0  0  0  0  0
   -1.9023   -2.4331    1.5110 H   0  0  0  0  0  0  0  0  0  0  0  0
   -1.3579    0.0879   -1.4610 H   0  0  0  0  0  0  0  0  0  0  0  0
   -3.6662   -0.5789   -0.8810 H   0  0  0  0  0  0  0  0  0  0  0  0
   -3.2552   -0.3984    0.9085 H   0  0  0  0  0  0  0  0  0  0  0  0
   -3.0975    1.5286   -1.2385 H   0  0  0  0  0  0  0  0  0  0  0  0
   -2.2251    2.3176    1.3335 H   0  0  0  0  0  0  0  0  0  0  0  0
   -1.6029    2.7670   -0.2520 H   0  0  0  0  0  0  0  0  0  0  0  0
   -1.1786    0.3303    1.5635 H   0  0  0  0  0  0  0  0  0  0  0  0
    4.2111    1.2390   -0.1359 H   0  0  0  0  0  0  0  0  0  0  0  0
    2.9262    3.1650    0.5040 H   0  0  0  0  0  0  0  0  0  0  0  0
    0.4781    2.9720    0.8207 H   0  0  0  0  0  0  0  0  0  0  0  0
  1  2  1  0
  2  3  1  0
  3  4  1  0
  4  5  1  0
  5  6  1  0
  6  7  1  0
  7  8  1  0
  8  9  2  0
  9 10  1  0
 10 11  2  0
  9 12  1  0
 12 13  2  0
 13 14  1  0
 14 15  2  0
 12 16  1  0
 16 17  1  0
 16 18  1  0
 16 19  1  0
 10  2  1  0
  7  3  1  0
 15  8  1  0
  1 20  1  0
  1 21  1  0
  1 22  1  0
  3 23  1  6
  4 24  1  0
  4 25  1  0
  5 26  1  0
  6 27  1  0
  6 28  1  0
  7 29  1  1
 13 30  1  0
 14 31  1  0
 15 32  1  0
M  END
>  <Ligand ID>  (1) 
LIG0004556

>  <Ligand>  (1) 
CHEMBL2337492

>  <SMILES>  (1) 
CN1[C@H]2CNC[C@@H]2c2c(C1=O)c(ccc2)C(F)(F)F

>  <CID>  (1) 
11652452.0

>  <ChEMBL ID>  (1) 
nan

>  <InChiKey>  (1) 
MVQAXNPRALNHQX-SCZZXKLOSA-N

>  <InChi>  (1) 
InChI=1S/C13H13F3N2O/c1-18-10-6-17-5-8(10)7-3-2-4-9(13(14,15)16)11(7)12(18)19/h2-4,8,10,17H,5-6H2,1H3/t8-,10+/m1/s1

>  <IUPAC Name>  (1) 
(3aR,9bS)-4-methyl-6-(trifluoromethyl)-2,3,3a,9b-tetrahydro-1H-pyrrolo[3,4-c]isoquinolin-5-one

$$$$
