
     RDKit          3D

117121  0  0  0  0  0  0  0  0999 V2000
    0.2213    7.3494    0.7817 N   0  0  0  0  0  0  0  0  0  0  0  0
   -0.4695    6.3972   -0.0050 C   0  0  0  0  0  0  0  0  0  0  0  0
   -0.2397    5.1223    0.0406 N   0  0  0  0  0  0  0  0  0  0  0  0
   -0.9701    4.1906   -0.7817 C   0  0  0  0  0  0  0  0  0  0  0  0
   -2.1194    3.5312   -0.0990 C   0  0  0  0  0  0  0  0  0  0  0  0
   -1.9031    2.7181    1.1095 C   0  0  0  0  0  0  0  0  0  0  0  0
   -1.0841    1.5096    1.0708 C   0  0  2  0  0  0  0  0  0  0  0  0
    0.2810    1.7326    0.7167 N   0  0  0  0  0  0  0  0  0  0  0  0
    1.2488    0.6366    0.8529 C   0  0  0  0  0  0  0  0  0  0  0  0
    0.7131   -0.4433    1.1445 O   0  0  0  0  0  0  0  0  0  0  0  0
    2.6795    0.8123    0.6518 C   0  0  1  0  0  0  0  0  0  0  0  0
    3.2138    1.3361    2.0194 C   0  0  0  0  0  0  0  0  0  0  0  0
    2.5650    2.6118    2.3681 C   0  0  0  0  0  0  0  0  0  0  0  0
    1.4345    2.7226    3.1492 C   0  0  0  0  0  0  0  0  0  0  0  0
    0.9459    3.9862    3.3963 C   0  0  0  0  0  0  0  0  0  0  0  0
    1.5130    5.1370    2.9151 C   0  0  0  0  0  0  0  0  0  0  0  0
    2.6435    5.0157    2.1342 C   0  0  0  0  0  0  0  0  0  0  0  0
    3.1810    3.7680    1.8518 C   0  0  0  0  0  0  0  0  0  0  0  0
    3.3248   -0.4869    0.4275 N   0  0  0  0  0  0  0  0  0  0  0  0
    4.7107   -0.5335   -0.0175 C   0  0  0  0  0  0  0  0  0  0  0  0
    5.2348    0.5919   -0.0589 O   0  0  0  0  0  0  0  0  0  0  0  0
    5.3868   -1.8053   -0.3610 C   0  0  1  0  0  0  0  0  0  0  0  0
    4.3346   -2.7947   -0.4653 N   0  0  0  0  0  0  0  0  0  0  0  0
    4.0958   -3.8701    0.4204 C   0  0  0  0  0  0  0  0  0  0  0  0
    4.8325   -3.9752    1.3918 O   0  0  0  0  0  0  0  0  0  0  0  0
    2.9498   -4.7739    0.0726 C   0  0  0  0  0  0  0  0  0  0  0  0
    2.7142   -5.7131    1.2137 C   0  0  0  0  0  0  0  0  0  0  0  0
    1.5571   -6.6243    0.8630 C   0  0  0  0  0  0  0  0  0  0  0  0
    0.3475   -5.7966    0.6879 C   0  0  0  0  0  0  0  0  0  0  0  0
    0.2535   -4.5763    0.8986 O   0  0  0  0  0  0  0  0  0  0  0  0
   -0.9163   -6.3607    0.2243 N   0  0  0  0  0  0  0  0  0  0  0  0
   -2.0463   -5.4701    0.0492 C   0  0  0  0  0  0  0  0  0  0  0  0
   -1.8324   -4.4478   -1.0293 C   0  0  0  0  0  0  0  0  0  0  0  0
   -2.9485   -3.4765   -1.1058 N   0  0  0  0  0  0  0  0  0  0  0  0
   -2.8467   -2.2855   -0.3927 C   0  0  0  0  0  0  0  0  0  0  0  0
   -1.7481   -2.2448    0.2409 O   0  0  0  0  0  0  0  0  0  0  0  0
   -3.7192   -1.1166   -0.2370 C   0  0  1  0  0  0  0  0  0  0  0  0
   -3.0594   -0.0033    0.4584 N   0  0  0  0  0  0  0  0  0  0  0  0
   -1.7350    0.4379    0.2058 C   0  0  0  0  0  0  0  0  0  0  0  0
   -1.1265   -0.0674   -0.7306 O   0  0  0  0  0  0  0  0  0  0  0  0
   -4.6697   -0.7247   -1.2733 C   0  0  0  0  0  0  0  0  0  0  0  0
   -5.3935    0.5370   -0.8508 C   0  0  0  0  0  0  0  0  0  0  0  0
   -5.1957    1.8019   -1.3903 C   0  0  0  0  0  0  0  0  0  0  0  0
   -6.0076    2.6936   -0.8087 N   0  0  0  0  0  0  0  0  0  0  0  0
   -6.7473    2.0427    0.1117 C   0  0  0  0  0  0  0  0  0  0  0  0
   -6.3736    0.6932    0.0964 C   0  0  0  0  0  0  0  0  0  0  0  0
   -7.0068   -0.1625    0.9679 C   0  0  0  0  0  0  0  0  0  0  0  0
   -7.9713    0.3460    1.8098 C   0  0  0  0  0  0  0  0  0  0  0  0
   -8.3483    1.6702    1.8371 C   0  0  0  0  0  0  0  0  0  0  0  0
   -7.7104    2.5376    0.9563 C   0  0  0  0  0  0  0  0  0  0  0  0
   -4.0784   -3.8001   -1.8606 C   0  0  0  0  0  0  0  0  0  0  0  0
   -3.9847   -3.2315   -3.2596 C   0  0  0  0  0  0  0  0  0  0  0  0
   -2.9736   -2.5758   -3.6028 O   0  0  0  0  0  0  0  0  0  0  0  0
   -5.0712   -3.4829   -4.1077 N   0  0  0  0  0  0  0  0  0  0  0  0
    6.0730   -1.6754   -1.6934 C   0  0  0  0  0  0  0  0  0  0  0  0
    7.0834   -0.6056   -1.7108 C   0  0  0  0  0  0  0  0  0  0  0  0
    8.3433   -0.8705   -1.2112 C   0  0  0  0  0  0  0  0  0  0  0  0
    9.3431    0.0725   -1.2175 C   0  0  0  0  0  0  0  0  0  0  0  0
    9.0884    1.3399   -1.7422 C   0  0  0  0  0  0  0  0  0  0  0  0
    7.8354    1.6414   -2.2532 C   0  0  0  0  0  0  0  0  0  0  0  0
    6.8736    0.6590   -2.2215 C   0  0  0  0  0  0  0  0  0  0  0  0
   -1.4926    6.8610   -0.9149 N   0  0  0  0  0  0  0  0  0  0  0  0
    1.1405    7.6988    0.4385 H   0  0  0  0  0  0  0  0  0  0  0  0
   -0.1973    7.6926    1.6976 H   0  0  0  0  0  0  0  0  0  0  0  0
   -1.4598    4.8470   -1.5917 H   0  0  0  0  0  0  0  0  0  0  0  0
   -0.3215    3.5197   -1.3354 H   0  0  0  0  0  0  0  0  0  0  0  0
   -2.8895    4.3329    0.1378 H   0  0  0  0  0  0  0  0  0  0  0  0
   -2.6408    2.9418   -0.9092 H   0  0  0  0  0  0  0  0  0  0  0  0
   -1.5163    3.3752    1.9692 H   0  0  0  0  0  0  0  0  0  0  0  0
   -2.9248    2.4106    1.5153 H   0  0  0  0  0  0  0  0  0  0  0  0
   -1.0329    1.0433    2.1123 H   0  0  0  0  0  0  0  0  0  0  0  0
    0.7285    2.5775    0.3760 H   0  0  0  0  0  0  0  0  0  0  0  0
    2.9417    1.5428   -0.1095 H   0  0  0  0  0  0  0  0  0  0  0  0
    4.3210    1.3754    2.0153 H   0  0  0  0  0  0  0  0  0  0  0  0
    2.9398    0.6169    2.8319 H   0  0  0  0  0  0  0  0  0  0  0  0
    0.9698    1.8125    3.5431 H   0  0  0  0  0  0  0  0  0  0  0  0
    0.0597    4.0886    4.0072 H   0  0  0  0  0  0  0  0  0  0  0  0
    1.1230    6.1230    3.1181 H   0  0  0  0  0  0  0  0  0  0  0  0
    3.1665    5.8708    1.7075 H   0  0  0  0  0  0  0  0  0  0  0  0
    4.0673    3.7006    1.2367 H   0  0  0  0  0  0  0  0  0  0  0  0
    2.9005   -1.3916    0.5566 H   0  0  0  0  0  0  0  0  0  0  0  0
    6.1128   -2.0869    0.4537 H   0  0  0  0  0  0  0  0  0  0  0  0
    3.6952   -2.7115   -1.2628 H   0  0  0  0  0  0  0  0  0  0  0  0
    3.1791   -5.3232   -0.8782 H   0  0  0  0  0  0  0  0  0  0  0  0
    2.0909   -4.1056   -0.0808 H   0  0  0  0  0  0  0  0  0  0  0  0
    3.6309   -6.2992    1.4634 H   0  0  0  0  0  0  0  0  0  0  0  0
    2.4166   -5.0992    2.1116 H   0  0  0  0  0  0  0  0  0  0  0  0
    1.4700   -7.3792    1.6747 H   0  0  0  0  0  0  0  0  0  0  0  0
    1.7994   -7.2010   -0.0682 H   0  0  0  0  0  0  0  0  0  0  0  0
   -0.8829   -7.3579    0.0612 H   0  0  0  0  0  0  0  0  0  0  0  0
   -2.9093   -6.1190   -0.2659 H   0  0  0  0  0  0  0  0  0  0  0  0
   -2.3011   -4.9273    0.9821 H   0  0  0  0  0  0  0  0  0  0  0  0
   -1.8294   -4.9522   -2.0410 H   0  0  0  0  0  0  0  0  0  0  0  0
   -0.8684   -3.9252   -0.9778 H   0  0  0  0  0  0  0  0  0  0  0  0
   -4.4170   -1.5025    0.6531 H   0  0  0  0  0  0  0  0  0  0  0  0
   -3.5553    0.5314    1.1865 H   0  0  0  0  0  0  0  0  0  0  0  0
   -4.1436   -0.4826   -2.2261 H   0  0  0  0  0  0  0  0  0  0  0  0
   -5.4394   -1.4824   -1.5383 H   0  0  0  0  0  0  0  0  0  0  0  0
   -4.4801    1.9875   -2.1649 H   0  0  0  0  0  0  0  0  0  0  0  0
   -6.0716    3.7338   -1.0180 H   0  0  0  0  0  0  0  0  0  0  0  0
   -6.7344   -1.1909    0.9626 H   0  0  0  0  0  0  0  0  0  0  0  0
   -8.4948   -0.3058    2.5182 H   0  0  0  0  0  0  0  0  0  0  0  0
   -9.1132    2.0137    2.5246 H   0  0  0  0  0  0  0  0  0  0  0  0
   -7.9840    3.5841    0.9526 H   0  0  0  0  0  0  0  0  0  0  0  0
   -4.0302   -4.9431   -2.0256 H   0  0  0  0  0  0  0  0  0  0  0  0
   -5.0701   -3.6562   -1.4142 H   0  0  0  0  0  0  0  0  0  0  0  0
   -5.1945   -4.4574   -4.4688 H   0  0  0  0  0  0  0  0  0  0  0  0
   -5.7662   -2.7661   -4.4049 H   0  0  0  0  0  0  0  0  0  0  0  0
    6.4701   -2.6450   -2.0623 H   0  0  0  0  0  0  0  0  0  0  0  0
    5.2877   -1.3677   -2.4491 H   0  0  0  0  0  0  0  0  0  0  0  0
    8.5678   -1.8312   -0.8006 H   0  0  0  0  0  0  0  0  0  0  0  0
   10.3412   -0.0851   -0.8395 H   0  0  0  0  0  0  0  0  0  0  0  0
    9.8601    2.0956   -1.7566 H   0  0  0  0  0  0  0  0  0  0  0  0
    7.5808    2.6038   -2.6725 H   0  0  0  0  0  0  0  0  0  0  0  0
    5.8963    0.9071   -2.6401 H   0  0  0  0  0  0  0  0  0  0  0  0
   -2.4503    7.0980   -0.5893 H   0  0  0  0  0  0  0  0  0  0  0  0
   -1.2717    6.9615   -1.9505 H   0  0  0  0  0  0  0  0  0  0  0  0
  1  2  1  0
  2  3  2  3
  3  4  1  0
  4  5  1  0
  5  6  1  0
  6  7  1  0
  7  8  1  0
  8  9  1  0
  9 10  2  0
  9 11  1  0
 11 12  1  0
 12 13  1  0
 13 14  2  0
 14 15  1  0
 15 16  2  0
 16 17  1  0
 17 18  2  0
 11 19  1  0
 19 20  1  0
 20 21  2  0
 20 22  1  0
 22 23  1  0
 23 24  1  0
 24 25  2  0
 24 26  1  0
 26 27  1  0
 27 28  1  0
 28 29  1  0
 29 30  2  0
 29 31  1  0
 31 32  1  0
 32 33  1  0
 33 34  1  0
 34 35  1  0
 35 36  2  0
 35 37  1  0
 37 38  1  0
 38 39  1  0
 39 40  2  0
 37 41  1  0
 41 42  1  0
 42 43  2  0
 43 44  1  0
 44 45  1  0
 45 46  2  0
 46 47  1  0
 47 48  2  0
 48 49  1  0
 49 50  2  0
 34 51  1  0
 51 52  1  0
 52 53  2  0
 52 54  1  0
 22 55  1  0
 55 56  1  0
 56 57  2  0
 57 58  1  0
 58 59  2  0
 59 60  1  0
 60 61  2  0
  2 62  1  0
 39  7  1  0
 46 42  1  0
 61 56  1  0
 18 13  1  0
 50 45  1  0
  1 63  1  0
  1 64  1  0
  4 65  1  0
  4 66  1  0
  5 67  1  0
  5 68  1  0
  6 69  1  0
  6 70  1  0
  7 71  1  1
  8 72  1  0
 11 73  1  6
 12 74  1  0
 12 75  1  0
 14 76  1  0
 15 77  1  0
 16 78  1  0
 17 79  1  0
 18 80  1  0
 19 81  1  0
 22 82  1  1
 23 83  1  0
 26 84  1  0
 26 85  1  0
 27 86  1  0
 27 87  1  0
 28 88  1  0
 28 89  1  0
 31 90  1  0
 32 91  1  0
 32 92  1  0
 33 93  1  0
 33 94  1  0
 37 95  1  1
 38 96  1  0
 41 97  1  0
 41 98  1  0
 43 99  1  0
 44100  1  0
 47101  1  0
 48102  1  0
 49103  1  0
 50104  1  0
 51105  1  0
 51106  1  0
 54107  1  0
 54108  1  0
 55109  1  0
 55110  1  0
 57111  1  0
 58112  1  0
 59113  1  0
 60114  1  0
 61115  1  0
 62116  1  0
 62117  1  0
M  END
>  <Ligand ID>  (1) 
LIG0001324

>  <Ligand>  (1) 
CHEMBL406985

>  <SMILES>  (1) 
NC(=NCCC[C@@H]1NC(=O)[C@@H](Cc2ccccc2)NC(=O)[C@@H](NC(=O)CCCC(=O)NCCN(C(=O)[C@@H](NC1=O)Cc1c[nH]c2c1cccc2)CC(=O)N)Cc1ccccc1)N

>  <CID>  (1) 
44456964.0

>  <ChEMBL ID>  (1) 
nan

>  <InChiKey>  (1) 
PEATXQQSUKEHHE-KFIZHRIMSA-N

>  <InChi>  (1) 
InChI=1S/C44H55N11O7/c45-37(56)27-55-22-21-48-38(57)18-9-19-39(58)51-34(23-28-11-3-1-4-12-28)41(60)53-35(24-29-13-5-2-6-14-29)42(61)52-33(17-10-20-49-44(46)47)40(59)54-36(43(55)62)25-30-26-50-32-16-8-7-15-31(30)32/h1-8,11-16,26,33-36,50H,9-10,17-25,27H2,(H2,45,56)(H,48,57)(H,51,58)(H,52,61)(H,53,60)(H,54,59)(H4,46,47,49)/t33-,34-,35+,36-/m0/s1

>  <IUPAC Name>  (1) 
2-[(6S,9S,12R,15S)-12,15-dibenzyl-9-[3-(diaminomethylideneamino)propyl]-6-(1H-indol-3-ylmethyl)-5,8,11,14,17,21-hexaoxo-1,4,7,10,13,16-hexazacyclohenicos-4-yl]acetamide

$$$$
