
     RDKit          3D

 57 58  0  0  0  0  0  0  0  0999 V2000
   -5.0150   -0.3506   -1.9100 O   0  0  0  0  0  0  0  0  0  0  0  0
   -3.9734   -0.7337   -1.2577 C   0  0  0  0  0  0  0  0  0  0  0  0
   -3.1118    0.3335   -0.7444 C   0  0  0  0  0  0  0  0  0  0  0  0
   -3.9449    1.3783   -0.0255 C   0  0  0  0  0  0  0  0  0  0  0  0
   -4.9587    1.9903   -0.9688 C   0  0  0  0  0  0  0  0  0  0  0  0
   -4.6720    0.8631    1.1709 C   0  0  0  0  0  0  0  0  0  0  0  0
   -3.0486    2.5274    0.4549 C   0  0  0  0  0  0  0  0  0  0  0  0
   -1.9490   -0.0465   -0.0251 N   0  0  0  0  0  0  0  0  0  0  0  0
   -0.6476    0.2994   -0.5501 C   0  0  0  0  0  0  0  0  0  0  0  0
   -0.5362    0.9309   -1.6325 O   0  0  0  0  0  0  0  0  0  0  0  0
    0.5575   -0.0885    0.1846 C   0  0  0  0  0  0  0  0  0  0  0  0
    0.5041   -0.7648    1.3469 N   0  0  0  0  0  0  0  0  0  0  0  0
    1.6148   -1.1156    2.0120 C   0  0  0  0  0  0  0  0  0  0  0  0
    2.8956   -0.8024    1.5422 C   0  0  0  0  0  0  0  0  0  0  0  0
    2.9814   -0.1120    0.3568 C   0  0  0  0  0  0  0  0  0  0  0  0
    1.7942    0.2329   -0.3019 C   0  0  0  0  0  0  0  0  0  0  0  0
    4.2186    0.2113   -0.1356 O   0  0  0  0  0  0  0  0  0  0  0  0
    4.5455    0.8937   -1.2958 C   0  0  2  0  0  0  0  0  0  0  0  0
    5.4013    0.0257   -2.2201 C   0  0  0  0  0  0  0  0  0  0  0  0
    4.7385   -1.1213   -2.5822 F   0  0  0  0  0  0  0  0  0  0  0  0
    5.6403    0.7585   -3.3609 F   0  0  0  0  0  0  0  0  0  0  0  0
    6.6347   -0.2454   -1.6359 F   0  0  0  0  0  0  0  0  0  0  0  0
    5.4544    2.0676   -0.9188 C   0  0  0  0  0  0  0  0  0  0  0  0
    4.0237   -1.2359    2.3707 C   0  0  0  0  0  0  0  0  0  0  0  0
    4.4756   -0.4694    3.5606 C   0  0  0  0  0  0  0  0  0  0  0  0
    5.3348   -0.4822    2.3016 C   0  0  0  0  0  0  0  0  0  0  0  0
   -3.8125   -2.1184   -1.1318 N   0  0  0  0  0  0  0  0  0  0  0  0
   -4.8468   -2.9623   -1.7552 C   0  0  0  0  0  0  0  0  0  0  0  0
   -2.7473   -2.8132   -0.4600 C   0  0  0  0  0  0  0  0  0  0  0  0
   -2.7405    0.8712   -1.6730 H   0  0  0  0  0  0  0  0  0  0  0  0
   -5.9231    1.4825   -0.7919 H   0  0  0  0  0  0  0  0  0  0  0  0
   -4.5984    1.9443   -2.0170 H   0  0  0  0  0  0  0  0  0  0  0  0
   -5.0548    3.0983   -0.7674 H   0  0  0  0  0  0  0  0  0  0  0  0
   -5.7706    1.1277    1.1604 H   0  0  0  0  0  0  0  0  0  0  0  0
   -4.3113    1.2855    2.1329 H   0  0  0  0  0  0  0  0  0  0  0  0
   -4.6708   -0.2395    1.2897 H   0  0  0  0  0  0  0  0  0  0  0  0
   -2.5415    2.2801    1.4102 H   0  0  0  0  0  0  0  0  0  0  0  0
   -2.3371    2.8219   -0.3587 H   0  0  0  0  0  0  0  0  0  0  0  0
   -3.6507    3.4403    0.6400 H   0  0  0  0  0  0  0  0  0  0  0  0
   -1.9291   -0.5646    0.8812 H   0  0  0  0  0  0  0  0  0  0  0  0
    1.4944   -1.6596    2.9426 H   0  0  0  0  0  0  0  0  0  0  0  0
    1.8277    0.7771   -1.2375 H   0  0  0  0  0  0  0  0  0  0  0  0
    3.6913    1.2113   -1.8854 H   0  0  0  0  0  0  0  0  0  0  0  0
    6.0071    2.3440   -1.8404 H   0  0  0  0  0  0  0  0  0  0  0  0
    6.2023    1.6677   -0.2106 H   0  0  0  0  0  0  0  0  0  0  0  0
    4.8594    2.9090   -0.5055 H   0  0  0  0  0  0  0  0  0  0  0  0
    4.1045   -2.3551    2.5127 H   0  0  0  0  0  0  0  0  0  0  0  0
    4.0099    0.4822    3.8479 H   0  0  0  0  0  0  0  0  0  0  0  0
    4.9222   -1.0004    4.4184 H   0  0  0  0  0  0  0  0  0  0  0  0
    6.2559   -1.1373    2.3295 H   0  0  0  0  0  0  0  0  0  0  0  0
    5.4010    0.4848    1.7953 H   0  0  0  0  0  0  0  0  0  0  0  0
   -4.7714   -2.9302   -2.8512 H   0  0  0  0  0  0  0  0  0  0  0  0
   -4.8743   -3.9510   -1.2990 H   0  0  0  0  0  0  0  0  0  0  0  0
   -5.8272   -2.4703   -1.5112 H   0  0  0  0  0  0  0  0  0  0  0  0
   -2.7114   -3.8942   -0.7368 H   0  0  0  0  0  0  0  0  0  0  0  0
   -1.7931   -2.3232   -0.7289 H   0  0  0  0  0  0  0  0  0  0  0  0
   -2.8216   -2.7527    0.6646 H   0  0  0  0  0  0  0  0  0  0  0  0
  1  2  2  0
  2  3  1  0
  3  4  1  0
  4  5  1  0
  4  6  1  0
  4  7  1  0
  3  8  1  0
  8  9  1  0
  9 10  2  0
  9 11  1  0
 11 12  2  0
 12 13  1  0
 13 14  2  0
 14 15  1  0
 15 16  2  0
 15 17  1  0
 17 18  1  0
 18 19  1  0
 19 20  1  0
 19 21  1  0
 19 22  1  0
 18 23  1  0
 14 24  1  0
 24 25  1  0
 25 26  1  0
  2 27  1  0
 27 28  1  0
 27 29  1  0
 16 11  1  0
 26 24  1  0
  3 30  1  0
  5 31  1  0
  5 32  1  0
  5 33  1  0
  6 34  1  0
  6 35  1  0
  6 36  1  0
  7 37  1  0
  7 38  1  0
  7 39  1  0
  8 40  1  0
 13 41  1  0
 16 42  1  0
 18 43  1  6
 23 44  1  0
 23 45  1  0
 23 46  1  0
 24 47  1  0
 25 48  1  0
 25 49  1  0
 26 50  1  0
 26 51  1  0
 28 52  1  0
 28 53  1  0
 28 54  1  0
 29 55  1  0
 29 56  1  0
 29 57  1  0
M  END
>  <Ligand ID>  (1) 
LIG0005179

>  <Ligand>  (1) 
CHEMBL3943441

>  <SMILES>  (1) 
O=C(C(C(C)(C)C)NC(=O)c1ncc(c(c1)O[C@H](C(F)(F)F)C)C1CC1)N(C)C

>  <CID>  (1) 
90204240.0

>  <ChEMBL ID>  (1) 
nan

>  <InChiKey>  (1) 
LCIYQPVAYMSKLA-CHPOKUKFSA-N

>  <InChi>  (1) 
InChI=1S/C20H28F3N3O3/c1-11(20(21,22)23)29-15-9-14(24-10-13(15)12-7-8-12)17(27)25-16(19(2,3)4)18(28)26(5)6/h9-12,16H,7-8H2,1-6H3,(H,25,27)/t11-,16?/m0/s1

>  <IUPAC Name>  (1) 
5-cyclopropyl-N-[1-(dimethylamino)-3,3-dimethyl-1-oxobutan-2-yl]-4-[(2S)-1,1,1-trifluoropropan-2-yl]oxypyridine-2-carboxamide

$$$$
