
     RDKit          3D

 69 68  0  0  0  0  0  0  0  0999 V2000
    9.7309    1.3774    1.8366 C   0  0  0  0  0  0  0  0  0  0  0  0
   10.1676    0.7888    0.5307 C   0  0  0  0  0  0  0  0  0  0  0  0
    9.7004    1.5661   -0.6601 C   0  0  0  0  0  0  0  0  0  0  0  0
    8.2015    1.6710   -0.7556 C   0  0  0  0  0  0  0  0  0  0  0  0
    7.5016    0.3412   -0.8601 C   0  0  0  0  0  0  0  0  0  0  0  0
    5.9943    0.6313   -0.9477 C   0  0  0  0  0  0  0  0  0  0  0  0
    5.3107   -0.7101   -1.0518 C   0  0  0  0  0  0  0  0  0  0  0  0
    3.8258   -0.4968   -1.1484 C   0  0  0  0  0  0  0  0  0  0  0  0
    3.3078    0.2007    0.0296 C   0  0  0  0  0  0  0  0  0  0  0  0
    2.3921   -0.2792    0.8672 C   0  0  0  0  0  0  0  0  0  0  0  0
    1.7480   -1.5941    0.7466 C   0  0  0  0  0  0  0  0  0  0  0  0
    0.2260   -1.4724    0.5974 C   0  0  0  0  0  0  0  0  0  0  0  0
   -0.1390   -0.6829   -0.6228 C   0  0  0  0  0  0  0  0  0  0  0  0
   -1.6427   -0.5580   -0.7780 C   0  0  0  0  0  0  0  0  0  0  0  0
   -2.3129   -1.8871   -0.9057 C   0  0  0  0  0  0  0  0  0  0  0  0
   -3.7811   -1.7101   -1.0601 C   0  0  0  0  0  0  0  0  0  0  0  0
   -4.4614   -1.0118    0.0837 C   0  0  0  0  0  0  0  0  0  0  0  0
   -5.9153   -0.9198   -0.2222 C   0  0  0  0  0  0  0  0  0  0  0  0
   -6.3784   -1.3914   -1.3047 O   0  0  0  0  0  0  0  0  0  0  0  0
   -6.7904   -0.2869    0.7293 N   0  0  0  0  0  0  0  0  0  0  0  0
   -8.2155   -0.1699    0.4825 C   0  0  0  0  0  0  0  0  0  0  0  0
   -8.8247    0.5422    1.6791 C   0  0  0  0  0  0  0  0  0  0  0  0
  -10.3166    0.6558    1.4033 C   0  0  0  0  0  0  0  0  0  0  0  0
  -10.6392    1.5946   -0.1028 P   0  0  0  0  0  0  0  0  0  0  0  0
  -11.9067    2.4379    0.0555 O   0  0  0  0  0  0  0  0  0  0  0  0
  -10.9264    0.5124   -1.3791 O   0  0  0  0  0  0  0  0  0  0  0  0
   -9.3600    2.6148   -0.4602 O   0  0  0  0  0  0  0  0  0  0  0  0
    9.0911    2.2634    1.7341 H   0  0  0  0  0  0  0  0  0  0  0  0
    9.2148    0.5490    2.3976 H   0  0  0  0  0  0  0  0  0  0  0  0
   10.5756    1.6689    2.4976 H   0  0  0  0  0  0  0  0  0  0  0  0
    9.9149   -0.3073    0.4334 H   0  0  0  0  0  0  0  0  0  0  0  0
   11.2774    0.8244    0.5284 H   0  0  0  0  0  0  0  0  0  0  0  0
   10.1620    1.1672   -1.5629 H   0  0  0  0  0  0  0  0  0  0  0  0
   10.0728    2.6045   -0.5407 H   0  0  0  0  0  0  0  0  0  0  0  0
    7.9716    2.2374   -1.6842 H   0  0  0  0  0  0  0  0  0  0  0  0
    7.7966    2.2578    0.0845 H   0  0  0  0  0  0  0  0  0  0  0  0
    7.7366   -0.1711   -1.8120 H   0  0  0  0  0  0  0  0  0  0  0  0
    7.6425   -0.3164   -0.0056 H   0  0  0  0  0  0  0  0  0  0  0  0
    5.6900    1.1163    0.0243 H   0  0  0  0  0  0  0  0  0  0  0  0
    5.7535    1.3249   -1.7615 H   0  0  0  0  0  0  0  0  0  0  0  0
    5.5167   -1.2332   -0.0929 H   0  0  0  0  0  0  0  0  0  0  0  0
    5.7034   -1.2892   -1.9126 H   0  0  0  0  0  0  0  0  0  0  0  0
    3.2802   -1.4085   -1.4353 H   0  0  0  0  0  0  0  0  0  0  0  0
    3.6861    0.2152   -2.0168 H   0  0  0  0  0  0  0  0  0  0  0  0
    3.6865    1.1906    0.2520 H   0  0  0  0  0  0  0  0  0  0  0  0
    2.0777    0.3422    1.7263 H   0  0  0  0  0  0  0  0  0  0  0  0
    1.8899   -2.0957    1.7503 H   0  0  0  0  0  0  0  0  0  0  0  0
    2.1833   -2.2854    0.0277 H   0  0  0  0  0  0  0  0  0  0  0  0
   -0.1430   -2.5240    0.5190 H   0  0  0  0  0  0  0  0  0  0  0  0
   -0.1785   -0.9516    1.4893 H   0  0  0  0  0  0  0  0  0  0  0  0
    0.2601   -1.0915   -1.5526 H   0  0  0  0  0  0  0  0  0  0  0  0
    0.2565    0.3466   -0.4874 H   0  0  0  0  0  0  0  0  0  0  0  0
   -2.0386    0.0233    0.0749 H   0  0  0  0  0  0  0  0  0  0  0  0
   -1.8752    0.0147   -1.6989 H   0  0  0  0  0  0  0  0  0  0  0  0
   -2.1159   -2.5618   -0.0475 H   0  0  0  0  0  0  0  0  0  0  0  0
   -1.9534   -2.4480   -1.7962 H   0  0  0  0  0  0  0  0  0  0  0  0
   -4.2378   -2.7395   -1.1109 H   0  0  0  0  0  0  0  0  0  0  0  0
   -3.9857   -1.2023   -2.0261 H   0  0  0  0  0  0  0  0  0  0  0  0
   -4.0321   -0.0485    0.3634 H   0  0  0  0  0  0  0  0  0  0  0  0
   -4.3720   -1.6817    0.9730 H   0  0  0  0  0  0  0  0  0  0  0  0
   -6.3349    0.0848    1.6127 H   0  0  0  0  0  0  0  0  0  0  0  0
   -8.3614    0.5026   -0.3906 H   0  0  0  0  0  0  0  0  0  0  0  0
   -8.6745   -1.1390    0.2926 H   0  0  0  0  0  0  0  0  0  0  0  0
   -8.3628    1.5261    1.8440 H   0  0  0  0  0  0  0  0  0  0  0  0
   -8.7161   -0.0438    2.6140 H   0  0  0  0  0  0  0  0  0  0  0  0
  -10.8304    1.1979    2.2468 H   0  0  0  0  0  0  0  0  0  0  0  0
  -10.7659   -0.3578    1.3716 H   0  0  0  0  0  0  0  0  0  0  0  0
  -11.5094   -0.2276   -1.0715 H   0  0  0  0  0  0  0  0  0  0  0  0
   -9.4488    2.9024   -1.4138 H   0  0  0  0  0  0  0  0  0  0  0  0
  1  2  1  0
  2  3  1  0
  3  4  1  0
  4  5  1  0
  5  6  1  0
  6  7  1  0
  7  8  1  0
  8  9  1  0
  9 10  2  0
 10 11  1  0
 11 12  1  0
 12 13  1  0
 13 14  1  0
 14 15  1  0
 15 16  1  0
 16 17  1  0
 17 18  1  0
 18 19  2  0
 18 20  1  0
 20 21  1  0
 21 22  1  0
 22 23  1  0
 23 24  1  0
 24 25  2  0
 24 26  1  0
 24 27  1  0
  1 28  1  0
  1 29  1  0
  1 30  1  0
  2 31  1  0
  2 32  1  0
  3 33  1  0
  3 34  1  0
  4 35  1  0
  4 36  1  0
  5 37  1  0
  5 38  1  0
  6 39  1  0
  6 40  1  0
  7 41  1  0
  7 42  1  0
  8 43  1  0
  8 44  1  0
  9 45  1  0
 10 46  1  0
 11 47  1  0
 11 48  1  0
 12 49  1  0
 12 50  1  0
 13 51  1  0
 13 52  1  0
 14 53  1  0
 14 54  1  0
 15 55  1  0
 15 56  1  0
 16 57  1  0
 16 58  1  0
 17 59  1  0
 17 60  1  0
 20 61  1  0
 21 62  1  0
 21 63  1  0
 22 64  1  0
 22 65  1  0
 23 66  1  0
 23 67  1  0
 26 68  1  0
 27 69  1  0
M  END
>  <Ligand ID>  (1) 
LIG0004222

>  <Ligand>  (1) 
CHEMBL331661

>  <SMILES>  (1) 
CCCCCCCC/C=C\CCCCCCCC(=O)NCCCP(=O)(O)O

>  <CID>  (1) 
44344023.0

>  <ChEMBL ID>  (1) 
nan

>  <InChiKey>  (1) 
OGYVFRIFTOYZBU-KTKRTIGZSA-N

>  <InChi>  (1) 
InChI=1S/C21H42NO4P/c1-2-3-4-5-6-7-8-9-10-11-12-13-14-15-16-18-21(23)22-19-17-20-27(24,25)26/h9-10H,2-8,11-20H2,1H3,(H,22,23)(H2,24,25,26)/b10-9-

>  <IUPAC Name>  (1) 
3-[[(Z)-octadec-9-enoyl]amino]propylphosphonic acid

$$$$
