
     RDKit          3D

 23 22  0  0  0  0  0  0  0  0999 V2000
   -3.5059   -0.2987    0.2947 C   0  0  0  0  0  0  0  0  0  0  0  0
   -2.1733   -0.6862   -0.2778 C   0  0  0  0  0  0  0  0  0  0  0  0
   -1.1551    0.3386    0.1852 C   0  0  0  0  0  0  0  0  0  0  0  0
    0.2194    0.0547   -0.3227 C   0  0  0  0  0  0  0  0  0  0  0  0
    1.1420    1.1586    0.2158 C   0  0  0  0  0  0  0  0  0  0  0  0
    2.5292    0.8867   -0.2814 C   0  0  0  0  0  0  0  0  0  0  0  0
    2.9565   -0.4600    0.2330 C   0  0  0  0  0  0  0  0  0  0  0  0
    3.3760   -0.6211    1.4106 O   0  0  0  0  0  0  0  0  0  0  0  0
    2.9000   -1.5797   -0.5827 O   0  0  0  0  0  0  0  0  0  0  0  0
   -3.5608    0.7843    0.5629 H   0  0  0  0  0  0  0  0  0  0  0  0
   -3.7509   -0.8466    1.2355 H   0  0  0  0  0  0  0  0  0  0  0  0
   -4.3124   -0.5634   -0.4256 H   0  0  0  0  0  0  0  0  0  0  0  0
   -2.2217   -0.7568   -1.3960 H   0  0  0  0  0  0  0  0  0  0  0  0
   -1.8877   -1.7066    0.0599 H   0  0  0  0  0  0  0  0  0  0  0  0
   -1.4400    1.3482   -0.1563 H   0  0  0  0  0  0  0  0  0  0  0  0
   -1.1700    0.2988    1.2976 H   0  0  0  0  0  0  0  0  0  0  0  0
    0.6048   -0.9363   -0.0878 H   0  0  0  0  0  0  0  0  0  0  0  0
    0.2323    0.1437   -1.4416 H   0  0  0  0  0  0  0  0  0  0  0  0
    0.7812    2.1499   -0.0513 H   0  0  0  0  0  0  0  0  0  0  0  0
    1.1153    1.0526    1.3308 H   0  0  0  0  0  0  0  0  0  0  0  0
    3.2096    1.6797    0.0947 H   0  0  0  0  0  0  0  0  0  0  0  0
    2.5153    0.9013   -1.3788 H   0  0  0  0  0  0  0  0  0  0  0  0
    3.5961   -2.3417   -0.5188 H   0  0  0  0  0  0  0  0  0  0  0  0
  1  2  1  0
  2  3  1  0
  3  4  1  0
  4  5  1  0
  5  6  1  0
  6  7  1  0
  7  8  2  0
  7  9  1  0
  1 10  1  0
  1 11  1  0
  1 12  1  0
  2 13  1  0
  2 14  1  0
  3 15  1  0
  3 16  1  0
  4 17  1  0
  4 18  1  0
  5 19  1  0
  5 20  1  0
  6 21  1  0
  6 22  1  0
  9 23  1  0
M  END
>  <Ligand ID>  (1) 
LIG0000095

>  <Ligand>  (1) 
heptanoic acid

>  <SMILES>  (1) 
CCCCCCC(=O)O

>  <CID>  (1) 
8094.0

>  <ChEMBL ID>  (1) 
nan

>  <InChiKey>  (1) 
MNWFXJYAOYHMED-UHFFFAOYSA-N

>  <InChi>  (1) 
InChI=1S/C7H14O2/c1-2-3-4-5-6-7(8)9/h2-6H2,1H3,(H,8,9)

>  <IUPAC Name>  (1) 
heptanoic acid

$$$$
