
     RDKit          3D

 56 60  0  0  0  0  0  0  0  0999 V2000
   -0.5283    7.2073   -0.6582 C   0  0  0  0  0  0  0  0  0  0  0  0
    0.0383    5.8923   -0.4446 N   0  0  0  0  0  0  0  0  0  0  0  0
   -0.6073    4.9480   -1.3021 C   0  0  0  0  0  0  0  0  0  0  0  0
   -0.0892    3.5318   -1.1632 C   0  0  0  0  0  0  0  0  0  0  0  0
   -0.2713    3.0187    0.2417 C   0  0  0  0  0  0  0  0  0  0  0  0
    0.2133    1.6747    0.3986 N   0  0  0  0  0  0  0  0  0  0  0  0
    1.5653    1.4657    0.7791 C   0  0  0  0  0  0  0  0  0  0  0  0
    2.3446    2.4512    0.9925 O   0  0  0  0  0  0  0  0  0  0  0  0
    2.0934    0.1523    0.9339 C   0  0  0  0  0  0  0  0  0  0  0  0
    3.3243   -0.3573    0.6894 C   0  0  0  0  0  0  0  0  0  0  0  0
    3.5688   -1.6551    0.9238 C   0  0  0  0  0  0  0  0  0  0  0  0
    2.5545   -2.4323    1.4084 C   0  0  0  0  0  0  0  0  0  0  0  0
    1.1227   -1.2875    1.5621 S   0  0  0  0  0  0  0  0  0  0  0  0
    2.6189   -3.7698    1.7060 C   0  0  0  0  0  0  0  0  0  0  0  0
    3.8068   -4.4388    1.5125 C   0  0  0  0  0  0  0  0  0  0  0  0
    4.8599   -3.6812    1.0218 C   0  0  0  0  0  0  0  0  0  0  0  0
    4.7839   -2.3557    0.7305 C   0  0  0  0  0  0  0  0  0  0  0  0
    6.1190   -4.3427    0.8077 N   0  0  0  0  0  0  0  0  0  0  0  0
    6.2333   -5.5507    1.0592 O   0  0  0  0  0  0  0  0  0  0  0  0
    7.2037   -3.6546    0.3249 O   0  0  0  0  0  0  0  0  0  0  0  0
   -0.6751    0.5288    0.1674 C   0  0  0  0  0  0  0  0  0  0  0  0
   -1.4155   -0.1680    0.7374 N   0  0  0  0  0  0  0  0  0  0  0  0
   -2.1357   -1.1758    0.2950 C   0  0  0  0  0  0  0  0  0  0  0  0
   -1.9946   -1.4443   -1.0252 C   0  0  0  0  0  0  0  0  0  0  0  0
   -0.7673   -0.1598   -1.5784 S   0  0  0  0  0  0  0  0  0  0  0  0
   -2.6118   -2.4235   -1.7638 C   0  0  0  0  0  0  0  0  0  0  0  0
   -3.4949   -3.2365   -1.0402 C   0  0  0  0  0  0  0  0  0  0  0  0
   -3.6680   -2.9984    0.3065 C   0  0  0  0  0  0  0  0  0  0  0  0
   -3.0242   -2.0005    1.0053 C   0  0  0  0  0  0  0  0  0  0  0  0
   -4.5350   -3.8062    0.9920 O   0  0  0  0  0  0  0  0  0  0  0  0
   -5.4214   -4.7509    0.4616 C   0  0  0  0  0  0  0  0  0  0  0  0
   -5.3611   -4.8206   -1.0186 C   0  0  0  0  0  0  0  0  0  0  0  0
   -4.2011   -4.2628   -1.6057 O   0  0  0  0  0  0  0  0  0  0  0  0
    1.4599    5.9196   -0.5693 C   0  0  0  0  0  0  0  0  0  0  0  0
   -0.4868    7.8546    0.2400 H   0  0  0  0  0  0  0  0  0  0  0  0
   -1.6050    7.1410   -0.9624 H   0  0  0  0  0  0  0  0  0  0  0  0
   -0.0049    7.7363   -1.4956 H   0  0  0  0  0  0  0  0  0  0  0  0
   -0.4445    5.3021   -2.3463 H   0  0  0  0  0  0  0  0  0  0  0  0
   -1.7090    4.9248   -1.1717 H   0  0  0  0  0  0  0  0  0  0  0  0
   -0.7374    2.8915   -1.8224 H   0  0  0  0  0  0  0  0  0  0  0  0
    0.9286    3.4047   -1.5499 H   0  0  0  0  0  0  0  0  0  0  0  0
   -1.3539    3.1419    0.4895 H   0  0  0  0  0  0  0  0  0  0  0  0
    0.2592    3.7066    0.9348 H   0  0  0  0  0  0  0  0  0  0  0  0
    4.1119    0.3443    0.2885 H   0  0  0  0  0  0  0  0  0  0  0  0
    1.7158   -4.2502    2.0860 H   0  0  0  0  0  0  0  0  0  0  0  0
    3.8807   -5.4896    1.7383 H   0  0  0  0  0  0  0  0  0  0  0  0
    5.6645   -1.8651    0.3549 H   0  0  0  0  0  0  0  0  0  0  0  0
   -2.4394   -2.5640   -2.8175 H   0  0  0  0  0  0  0  0  0  0  0  0
   -3.2140   -1.8824    2.0503 H   0  0  0  0  0  0  0  0  0  0  0  0
   -5.1846   -5.7498    0.9200 H   0  0  0  0  0  0  0  0  0  0  0  0
   -6.4659   -4.4636    0.7859 H   0  0  0  0  0  0  0  0  0  0  0  0
   -6.2383   -4.2970   -1.4522 H   0  0  0  0  0  0  0  0  0  0  0  0
   -5.3895   -5.9030   -1.3279 H   0  0  0  0  0  0  0  0  0  0  0  0
    1.8892    5.1722   -1.2416 H   0  0  0  0  0  0  0  0  0  0  0  0
    1.9672    5.9125    0.4275 H   0  0  0  0  0  0  0  0  0  0  0  0
    1.7471    6.9146   -1.0161 H   0  0  0  0  0  0  0  0  0  0  0  0
  1  2  1  0
  2  3  1  0
  3  4  1  0
  4  5  1  0
  5  6  1  0
  6  7  1  0
  7  8  2  0
  7  9  1  0
  9 10  2  0
 10 11  1  0
 11 12  2  0
 12 13  1  0
 12 14  1  0
 14 15  2  0
 15 16  1  0
 16 17  2  0
 16 18  1  0
 18 19  2  0
 18 20  1  0
  6 21  1  0
 21 22  2  0
 22 23  1  0
 23 24  2  0
 24 25  1  0
 24 26  1  0
 26 27  2  0
 27 28  1  0
 28 29  2  0
 28 30  1  0
 30 31  1  0
 31 32  1  0
 32 33  1  0
  2 34  1  0
 13  9  1  0
 25 21  1  0
 33 27  1  0
 17 11  1  0
 29 23  1  0
  1 35  1  0
  1 36  1  0
  1 37  1  0
  3 38  1  0
  3 39  1  0
  4 40  1  0
  4 41  1  0
  5 42  1  0
  5 43  1  0
 10 44  1  0
 14 45  1  0
 15 46  1  0
 17 47  1  0
 26 48  1  0
 29 49  1  0
 31 50  1  0
 31 51  1  0
 32 52  1  0
 32 53  1  0
 34 54  1  0
 34 55  1  0
 34 56  1  0
M  CHG  2  18   1  20  -1
M  END
>  <Ligand ID>  (1) 
LIG0001963

>  <Ligand>  (1) 
MLS001239376

>  <SMILES>  (1) 
CN(CCCN(C(=O)c1cc2c(s1)ccc(c2)[N+](=O)[O-])c1nc2c(s1)cc1c(c2)OCCO1)C

>  <CID>  (1) 
24892074.0

>  <ChEMBL ID>  (1) 
nan

>  <InChiKey>  (1) 
JGWORRHJGYVGBZ-UHFFFAOYSA-N

>  <InChi>  (1) 
InChI=1S/C23H22N4O5S2/c1-25(2)6-3-7-26(22(28)21-11-14-10-15(27(29)30)4-5-19(14)33-21)23-24-16-12-17-18(13-20(16)34-23)32-9-8-31-17/h4-5,10-13H,3,6-9H2,1-2H3

>  <IUPAC Name>  (1) 
N-(6,7-dihydro-[1,4]dioxino[2,3-f][1,3]benzothiazol-2-yl)-N-[3-(dimethylamino)propyl]-5-nitro-1-benzothiophene-2-carboxamide

$$$$
