
     RDKit          3D

 26 26  0  0  0  0  0  0  0  0999 V2000
   -3.8687    0.4194   -0.1848 N   0  0  0  0  0  0  0  0  0  0  0  0
   -2.8899   -0.0461    0.8002 C   0  0  0  0  0  0  0  0  0  0  0  0
   -1.5308    0.3319    0.2719 C   0  0  2  0  0  0  0  0  0  0  0  0
   -1.1928   -0.2701   -1.0522 C   0  0  0  0  0  0  0  0  0  0  0  0
   -0.4768   -0.6960    0.2003 C   0  0  1  0  0  0  0  0  0  0  0  0
    0.9603   -0.3327    0.1935 C   0  0  0  0  0  0  0  0  0  0  0  0
    1.3595    0.8960   -0.3090 C   0  0  0  0  0  0  0  0  0  0  0  0
    2.6991    1.2334   -0.3147 C   0  0  0  0  0  0  0  0  0  0  0  0
    3.6492    0.3551    0.1773 C   0  0  0  0  0  0  0  0  0  0  0  0
    3.2779   -0.8713    0.6818 C   0  0  0  0  0  0  0  0  0  0  0  0
    1.9438   -1.1945    0.6819 C   0  0  0  0  0  0  0  0  0  0  0  0
    0.6871    0.0000    0.0000 Cl  0  0  0  0  0  0  0  0  0  0  0  0
   -3.9388   -0.2736   -0.9444 H   0  0  0  0  0  0  0  0  0  0  0  0
   -3.5338    1.3230   -0.5681 H   0  0  0  0  0  0  0  0  0  0  0  0
   -2.9693   -1.1430    0.9521 H   0  0  0  0  0  0  0  0  0  0  0  0
   -3.0640    0.5012    1.7536 H   0  0  0  0  0  0  0  0  0  0  0  0
   -1.2935    1.4117    0.4097 H   0  0  0  0  0  0  0  0  0  0  0  0
   -1.8092   -1.0670   -1.5095 H   0  0  0  0  0  0  0  0  0  0  0  0
   -0.6810    0.3587   -1.8045 H   0  0  0  0  0  0  0  0  0  0  0  0
   -0.6799   -1.6959    0.6224 H   0  0  0  0  0  0  0  0  0  0  0  0
    0.6691    1.6229   -0.7059 H   0  0  0  0  0  0  0  0  0  0  0  0
    3.0072    2.2062   -0.7134 H   0  0  0  0  0  0  0  0  0  0  0  0
    4.6776    0.6679    0.1491 H   0  0  0  0  0  0  0  0  0  0  0  0
    4.0360   -1.5629    1.0703 H   0  0  0  0  0  0  0  0  0  0  0  0
    1.6488   -2.1743    1.0850 H   0  0  0  0  0  0  0  0  0  0  0  0
   -0.6871    0.0000    0.0000 H   0  0  0  0  0  0  0  0  0  0  0  0
  1  2  1  0
  2  3  1  0
  3  4  1  0
  4  5  1  0
  5  6  1  0
  6  7  2  0
  7  8  1  0
  8  9  2  0
  9 10  1  0
 10 11  2  0
  5  3  1  0
 11  6  1  0
  1 13  1  0
  1 14  1  0
  2 15  1  0
  2 16  1  0
  3 17  1  6
  4 18  1  0
  4 19  1  0
  5 20  1  1
  7 21  1  0
  8 22  1  0
  9 23  1  0
 10 24  1  0
 11 25  1  0
 12 26  1  0
M  END
>  <Ligand ID>  (1) 
LIG0005718

>  <Ligand>  (1) 
CHEMBL449134

>  <SMILES>  (1) 
NC[C@@H]1C[C@H]1c1ccccc1.Cl

>  <CID>  (1) 
44572692.0

>  <ChEMBL ID>  (1) 
nan

>  <InChiKey>  (1) 
IQFBVCYZPKNMIN-IYPAPVHQSA-N

>  <InChi>  (1) 
InChI=1S/C10H13N.ClH/c11-7-9-6-10(9)8-4-2-1-3-5-8;/h1-5,9-10H,6-7,11H2;1H/t9-,10-;/m0./s1

>  <IUPAC Name>  (1) 
[(1R,2R)-2-phenylcyclopropyl]methanamine;hydrochloride

$$$$
