
     RDKit          3D

 27 27  0  0  0  0  0  0  0  0999 V2000
   -3.1080    0.0209   -1.0167 C   0  0  0  0  0  0  0  0  0  0  0  0
   -2.2018    0.0211    0.1743 C   0  0  0  0  0  0  0  0  0  0  0  0
   -2.7706   -0.2167    1.3536 C   0  0  0  0  0  0  0  0  0  0  0  0
   -0.7660    0.2786   -0.0231 C   0  0  2  0  0  0  0  0  0  0  0  0
   -0.0829   -0.6392   -0.9958 C   0  0  0  0  0  0  0  0  0  0  0  0
    1.2853    0.0091   -1.2514 C   0  0  0  0  0  0  0  0  0  0  0  0
    2.1278   -0.3093   -0.0392 C   0  0  2  0  0  0  0  0  0  0  0  0
    1.4266    0.2343    1.1536 C   0  0  0  0  0  0  0  0  0  0  0  0
    2.1195    0.7132    2.0627 O   0  0  0  0  0  0  0  0  0  0  0  0
   -0.0520    0.2304    1.3057 C   0  0  0  0  0  0  0  0  0  0  0  0
    3.5117    0.2758   -0.1723 C   0  0  0  0  0  0  0  0  0  0  0  0
   -3.0497   -0.9641   -1.5655 H   0  0  0  0  0  0  0  0  0  0  0  0
   -4.1695    0.1249   -0.7255 H   0  0  0  0  0  0  0  0  0  0  0  0
   -2.9093    0.8842   -1.6940 H   0  0  0  0  0  0  0  0  0  0  0  0
   -3.8326   -0.3893    1.3547 H   0  0  0  0  0  0  0  0  0  0  0  0
   -2.2302   -0.2446    2.2911 H   0  0  0  0  0  0  0  0  0  0  0  0
   -0.6917    1.3036   -0.4579 H   0  0  0  0  0  0  0  0  0  0  0  0
    0.0653   -1.6467   -0.5593 H   0  0  0  0  0  0  0  0  0  0  0  0
   -0.6107   -0.6780   -1.9639 H   0  0  0  0  0  0  0  0  0  0  0  0
    1.7319   -0.3390   -2.1970 H   0  0  0  0  0  0  0  0  0  0  0  0
    1.1572    1.1083   -1.2836 H   0  0  0  0  0  0  0  0  0  0  0  0
    2.2144   -1.4185   -0.0055 H   0  0  0  0  0  0  0  0  0  0  0  0
   -0.3607    1.0985    1.9041 H   0  0  0  0  0  0  0  0  0  0  0  0
   -0.2999   -0.7154    1.8304 H   0  0  0  0  0  0  0  0  0  0  0  0
    3.8316    0.1353   -1.2158 H   0  0  0  0  0  0  0  0  0  0  0  0
    4.1646   -0.2308    0.5573 H   0  0  0  0  0  0  0  0  0  0  0  0
    3.4999    1.3535    0.0709 H   0  0  0  0  0  0  0  0  0  0  0  0
  1  2  1  0
  2  3  2  0
  2  4  1  0
  4  5  1  0
  5  6  1  0
  6  7  1  0
  7  8  1  0
  8  9  2  0
  8 10  1  0
  7 11  1  0
 10  4  1  0
  1 12  1  0
  1 13  1  0
  1 14  1  0
  3 15  1  0
  3 16  1  0
  4 17  1  6
  5 18  1  0
  5 19  1  0
  6 20  1  0
  6 21  1  0
  7 22  1  1
 10 23  1  0
 10 24  1  0
 11 25  1  0
 11 26  1  0
 11 27  1  0
M  END
>  <Ligand ID>  (1) 
LIG0000124

>  <Ligand>  (1) 
(+)-Dihydrocarvone

>  <SMILES>  (1) 
CC(=C)[C@@H]1CC[C@H](C(=O)C1)C

>  <CID>  (1) 
22227.0

>  <ChEMBL ID>  (1) 
nan

>  <InChiKey>  (1) 
AZOCECCLWFDTAP-RKDXNWHRSA-N

>  <InChi>  (1) 
InChI=1S/C10H16O/c1-7(2)9-5-4-8(3)10(11)6-9/h8-9H,1,4-6H2,2-3H3/t8-,9-/m1/s1

>  <IUPAC Name>  (1) 
(2R,5R)-2-methyl-5-prop-1-en-2-ylcyclohexan-1-one

$$$$
