
     RDKit          3D

 59 63  0  0  0  0  0  0  0  0999 V2000
   -4.0003    4.7363    3.0934 Cl  0  0  0  0  0  0  0  0  0  0  0  0
   -2.9496    3.5271    2.3803 C   0  0  0  0  0  0  0  0  0  0  0  0
   -3.0191    2.2259    2.7962 C   0  0  0  0  0  0  0  0  0  0  0  0
   -2.2318    1.2362    2.2842 C   0  0  0  0  0  0  0  0  0  0  0  0
   -1.3122    1.5808    1.2856 C   0  0  0  0  0  0  0  0  0  0  0  0
   -1.2331    2.8881    0.8584 C   0  0  0  0  0  0  0  0  0  0  0  0
   -2.0425    3.8918    1.3885 C   0  0  0  0  0  0  0  0  0  0  0  0
   -0.4892    0.5379    0.7647 N   0  0  0  0  0  0  0  0  0  0  0  0
    0.8297    0.4023    0.8379 N   0  0  0  0  0  0  0  0  0  0  0  0
    1.2271   -0.7406    0.2128 C   0  0  0  0  0  0  0  0  0  0  0  0
    0.1018   -1.3615   -0.2823 C   0  0  0  0  0  0  0  0  0  0  0  0
   -0.9531   -0.5200    0.0896 C   0  0  0  0  0  0  0  0  0  0  0  0
   -2.2953   -0.9759   -0.3366 C   0  0  0  0  0  0  0  0  0  0  0  0
   -3.1964   -0.0526   -0.5880 C   0  0  0  0  0  0  0  0  0  0  0  0
   -4.5512   -0.3497   -1.0184 C   0  0  0  0  0  0  0  0  0  0  0  0
   -4.8559   -1.2136   -2.0436 C   0  0  0  0  0  0  0  0  0  0  0  0
   -6.1693   -1.4742   -2.3915 C   0  0  0  0  0  0  0  0  0  0  0  0
   -7.2097   -0.8616   -1.7056 C   0  0  0  0  0  0  0  0  0  0  0  0
   -6.9094    0.0193   -0.6621 C   0  0  0  0  0  0  0  0  0  0  0  0
   -5.5953    0.2682   -0.3271 C   0  0  0  0  0  0  0  0  0  0  0  0
   -8.8605   -1.2121   -2.1701 Cl  0  0  0  0  0  0  0  0  0  0  0  0
   -2.4965   -2.4283   -0.4099 C   0  0  0  0  0  0  0  0  0  0  0  0
   -1.4312   -3.1250   -1.2088 C   0  0  0  0  0  0  0  0  0  0  0  0
   -0.0635   -2.5988   -1.0313 C   0  0  0  0  0  0  0  0  0  0  0  0
    2.6276   -1.2060    0.1026 C   0  0  0  0  0  0  0  0  0  0  0  0
    2.8335   -2.3047   -0.5167 O   0  0  0  0  0  0  0  0  0  0  0  0
    3.6588   -0.4432    0.6686 N   0  0  0  0  0  0  0  0  0  0  0  0
    5.0637   -0.7849    0.6318 C   0  0  1  0  0  0  0  0  0  0  0  0
    5.8010    0.3222   -0.0384 C   0  0  0  0  0  0  0  0  0  0  0  0
    6.7724    0.1087   -0.9941 C   0  0  0  0  0  0  0  0  0  0  0  0
    7.3920    1.1986   -1.5520 C   0  0  0  0  0  0  0  0  0  0  0  0
    7.0427    2.4725   -1.1580 C   0  0  0  0  0  0  0  0  0  0  0  0
    6.0666    2.6488   -0.1994 C   0  0  0  0  0  0  0  0  0  0  0  0
    5.4727    1.5804    0.3344 N   0  0  0  0  0  0  0  0  0  0  0  0
    5.6278   -0.9603    2.0242 C   0  0  0  0  0  0  0  0  0  0  0  0
   -3.7381    1.9682    3.5734 H   0  0  0  0  0  0  0  0  0  0  0  0
   -2.2776    0.2038    2.6046 H   0  0  0  0  0  0  0  0  0  0  0  0
   -0.5054    3.1109    0.0815 H   0  0  0  0  0  0  0  0  0  0  0  0
   -1.9671    4.9111    1.0418 H   0  0  0  0  0  0  0  0  0  0  0  0
   -2.9614    1.0195   -0.4859 H   0  0  0  0  0  0  0  0  0  0  0  0
   -4.0935   -1.7034   -2.6247 H   0  0  0  0  0  0  0  0  0  0  0  0
   -6.3727   -2.1733   -3.2183 H   0  0  0  0  0  0  0  0  0  0  0  0
   -7.7156    0.5078   -0.1152 H   0  0  0  0  0  0  0  0  0  0  0  0
   -5.4251    0.9554    0.4852 H   0  0  0  0  0  0  0  0  0  0  0  0
   -3.4725   -2.7804   -0.7006 H   0  0  0  0  0  0  0  0  0  0  0  0
   -2.3603   -2.8206    0.6543 H   0  0  0  0  0  0  0  0  0  0  0  0
   -1.4339   -4.2013   -0.8662 H   0  0  0  0  0  0  0  0  0  0  0  0
   -1.7690   -3.1762   -2.2639 H   0  0  0  0  0  0  0  0  0  0  0  0
    0.3547   -2.4321   -2.0676 H   0  0  0  0  0  0  0  0  0  0  0  0
    0.6497   -3.3510   -0.5885 H   0  0  0  0  0  0  0  0  0  0  0  0
    3.4092    0.4481    1.1612 H   0  0  0  0  0  0  0  0  0  0  0  0
    5.2095   -1.7420    0.0904 H   0  0  0  0  0  0  0  0  0  0  0  0
    7.0273   -0.9017   -1.2852 H   0  0  0  0  0  0  0  0  0  0  0  0
    8.1727    1.0926   -2.3171 H   0  0  0  0  0  0  0  0  0  0  0  0
    7.4951    3.3719   -1.5613 H   0  0  0  0  0  0  0  0  0  0  0  0
    5.7590    3.6338    0.1415 H   0  0  0  0  0  0  0  0  0  0  0  0
    5.9327   -2.0123    2.2072 H   0  0  0  0  0  0  0  0  0  0  0  0
    4.8964   -0.6160    2.7851 H   0  0  0  0  0  0  0  0  0  0  0  0
    6.5342   -0.3453    2.1489 H   0  0  0  0  0  0  0  0  0  0  0  0
  1  2  1  0
  2  3  2  0
  3  4  1  0
  4  5  2  0
  5  6  1  0
  6  7  2  0
  5  8  1  0
  8  9  1  0
  9 10  2  0
 10 11  1  0
 11 12  2  0
 12 13  1  0
 13 14  2  0
 14 15  1  0
 15 16  2  0
 16 17  1  0
 17 18  2  0
 18 19  1  0
 19 20  2  0
 18 21  1  0
 13 22  1  0
 22 23  1  0
 23 24  1  0
 10 25  1  0
 25 26  2  0
 25 27  1  0
 27 28  1  0
 28 29  1  0
 29 30  2  0
 30 31  1  0
 31 32  2  0
 32 33  1  0
 33 34  2  0
 28 35  1  0
  7  2  1  0
 12  8  1  0
 20 15  1  0
 34 29  1  0
 24 11  1  0
  3 36  1  0
  4 37  1  0
  6 38  1  0
  7 39  1  0
 14 40  1  0
 16 41  1  0
 17 42  1  0
 19 43  1  0
 20 44  1  0
 22 45  1  0
 22 46  1  0
 23 47  1  0
 23 48  1  0
 24 49  1  0
 24 50  1  0
 27 51  1  0
 28 52  1  6
 30 53  1  0
 31 54  1  0
 32 55  1  0
 33 56  1  0
 35 57  1  0
 35 58  1  0
 35 59  1  0
M  END
>  <Ligand ID>  (1) 
LIG0005417

>  <Ligand>  (1) 
CHEMBL3986006

>  <SMILES>  (1) 
Clc1ccc(cc1)n1nc(c2c1/C(=C/c1ccc(cc1)Cl)/CCC2)C(=O)N[C@@H](c1ccccn1)C

>  <CID>  (1) 
134157891.0

>  <ChEMBL ID>  (1) 
nan

>  <InChiKey>  (1) 
OYBWLARULOQKNZ-GMQRBVGNSA-N

>  <InChi>  (1) 
InChI=1S/C28H24Cl2N4O/c1-18(25-7-2-3-16-31-25)32-28(35)26-24-6-4-5-20(17-19-8-10-21(29)11-9-19)27(24)34(33-26)23-14-12-22(30)13-15-23/h2-3,7-18H,4-6H2,1H3,(H,32,35)/b20-17+/t18-/m1/s1

>  <IUPAC Name>  (1) 
(7E)-1-(4-chlorophenyl)-7-[(4-chlorophenyl)methylidene]-N-[(1R)-1-pyridin-2-ylethyl]-5,6-dihydro-4H-indazole-3-carboxamide

$$$$
