
     RDKit          3D

 16 16  0  0  0  0  0  0  0  0999 V2000
    2.4570    0.0785    0.7681 C   0  0  0  0  0  0  0  0  0  0  0  0
    2.0777    0.1271   -0.9900 S   0  0  0  0  0  0  0  0  0  0  0  0
    0.5059    0.9603   -1.2669 C   0  0  0  0  0  0  0  0  0  0  0  0
   -0.6008    0.1382   -0.6827 C   0  0  0  0  0  0  0  0  0  0  0  0
   -1.0659    0.2629    0.6210 C   0  0  0  0  0  0  0  0  0  0  0  0
   -2.0830   -0.6820    0.7330 C   0  0  0  0  0  0  0  0  0  0  0  0
   -2.1833   -1.3210   -0.4845 C   0  0  0  0  0  0  0  0  0  0  0  0
   -1.2792   -0.8045   -1.3107 O   0  0  0  0  0  0  0  0  0  0  0  0
    3.1898    0.8818    1.0004 H   0  0  0  0  0  0  0  0  0  0  0  0
    1.5830    0.2800    1.4231 H   0  0  0  0  0  0  0  0  0  0  0  0
    2.8380   -0.9325    1.0137 H   0  0  0  0  0  0  0  0  0  0  0  0
    0.3002    1.1030   -2.3531 H   0  0  0  0  0  0  0  0  0  0  0  0
    0.5242    1.9384   -0.7376 H   0  0  0  0  0  0  0  0  0  0  0  0
   -0.7207    0.9399    1.3814 H   0  0  0  0  0  0  0  0  0  0  0  0
   -2.6569   -0.8442    1.6352 H   0  0  0  0  0  0  0  0  0  0  0  0
   -2.8861   -2.1260   -0.7504 H   0  0  0  0  0  0  0  0  0  0  0  0
  1  2  1  0
  2  3  1  0
  3  4  1  0
  4  5  2  0
  5  6  1  0
  6  7  2  0
  7  8  1  0
  8  4  1  0
  1  9  1  0
  1 10  1  0
  1 11  1  0
  3 12  1  0
  3 13  1  0
  5 14  1  0
  6 15  1  0
  7 16  1  0
M  END
>  <Ligand ID>  (1) 
LIG0002088

>  <Ligand>  (1) 
Furfuryl methyl sulfide

>  <SMILES>  (1) 
CSCc1ccco1

>  <CID>  (1) 
518937.0

>  <ChEMBL ID>  (1) 
nan

>  <InChiKey>  (1) 
SKSFHXVDHVKIBN-UHFFFAOYSA-N

>  <InChi>  (1) 
InChI=1S/C6H8OS/c1-8-5-6-3-2-4-7-6/h2-4H,5H2,1H3

>  <IUPAC Name>  (1) 
2-(methylsulfanylmethyl)furan

$$$$
