
     RDKit          3D

 64 67  0  0  0  0  0  0  0  0999 V2000
    7.5115   -0.1519   -3.0287 Cl  0  0  0  0  0  0  0  0  0  0  0  0
    6.4067    0.4264   -1.8058 C   0  0  0  0  0  0  0  0  0  0  0  0
    6.8522    1.4649   -0.9993 C   0  0  0  0  0  0  0  0  0  0  0  0
    5.9962    1.9380   -0.0262 C   0  0  0  0  0  0  0  0  0  0  0  0
    4.7178    1.4030    0.1583 C   0  0  0  0  0  0  0  0  0  0  0  0
    4.2870    0.3709   -0.6501 C   0  0  0  0  0  0  0  0  0  0  0  0
    5.1489   -0.1080   -1.6325 C   0  0  0  0  0  0  0  0  0  0  0  0
    3.0196   -0.2396   -0.5492 N   0  0  0  0  0  0  0  0  0  0  0  0
    1.7981    0.5235   -0.7229 C   0  0  0  0  0  0  0  0  0  0  0  0
    0.6154   -0.4015   -0.9734 C   0  0  0  0  0  0  0  0  0  0  0  0
    0.5234   -1.2548    0.1950 N   0  0  0  0  0  0  0  0  0  0  0  0
    1.7092   -1.9738    0.5884 C   0  0  0  0  0  0  0  0  0  0  0  0
    2.8938   -1.6763   -0.2634 C   0  0  0  0  0  0  0  0  0  0  0  0
   -0.6666   -1.4113    0.9582 C   0  0  0  0  0  0  0  0  0  0  0  0
   -0.6846   -2.1716    1.9793 O   0  0  0  0  0  0  0  0  0  0  0  0
   -1.9118   -0.7369    0.6425 C   0  0  0  0  0  0  0  0  0  0  0  0
   -2.1124    0.5381    1.1728 C   0  0  0  0  0  0  0  0  0  0  0  0
   -3.2998    1.2197    0.8774 C   0  0  0  0  0  0  0  0  0  0  0  0
   -4.2546    0.6123    0.0622 C   0  0  0  0  0  0  0  0  0  0  0  0
   -4.0385   -0.6491   -0.4526 C   0  0  0  0  0  0  0  0  0  0  0  0
   -2.8537   -1.3359   -0.1612 C   0  0  0  0  0  0  0  0  0  0  0  0
   -2.7276   -2.6244   -0.7239 N   0  0  0  0  0  0  0  0  0  0  0  0
   -1.8063   -3.2159   -1.6271 C   0  0  0  0  0  0  0  0  0  0  0  0
   -1.6030   -4.6113   -1.0199 C   0  0  0  0  0  0  0  0  0  0  0  0
   -3.0664   -4.9857   -0.8058 C   0  0  0  0  0  0  0  0  0  0  0  0
   -3.6916   -3.6953   -0.3941 C   0  0  0  0  0  0  0  0  0  0  0  0
   -3.6417    2.8035    1.4863 S   0  0  0  0  0  0  0  0  0  0  0  0
   -2.8725    2.9364    2.7923 O   0  0  0  0  0  0  0  0  0  0  0  0
   -5.0959    2.9545    1.7793 O   0  0  0  0  0  0  0  0  0  0  0  0
   -3.1021    4.0637    0.4672 N   0  0  0  0  0  0  0  0  0  0  0  0
   -1.6784    4.0495    0.2856 C   0  0  0  0  0  0  0  0  0  0  0  0
   -3.5080    5.3226    1.0659 C   0  0  0  0  0  0  0  0  0  0  0  0
    3.8157    1.9211    1.2037 C   0  0  0  0  0  0  0  0  0  0  0  0
    7.8311    1.9090   -1.1053 H   0  0  0  0  0  0  0  0  0  0  0  0
    6.3245    2.7550    0.6210 H   0  0  0  0  0  0  0  0  0  0  0  0
    4.8148   -0.9302   -2.2818 H   0  0  0  0  0  0  0  0  0  0  0  0
    1.5251    1.0801    0.1976 H   0  0  0  0  0  0  0  0  0  0  0  0
    1.8434    1.1774   -1.6173 H   0  0  0  0  0  0  0  0  0  0  0  0
    0.7929   -0.9690   -1.9016 H   0  0  0  0  0  0  0  0  0  0  0  0
   -0.2528    0.2449   -1.1224 H   0  0  0  0  0  0  0  0  0  0  0  0
    1.5194   -3.0483    0.5474 H   0  0  0  0  0  0  0  0  0  0  0  0
    1.9349   -1.6343    1.6292 H   0  0  0  0  0  0  0  0  0  0  0  0
    2.6955   -2.1297   -1.2718 H   0  0  0  0  0  0  0  0  0  0  0  0
    3.7940   -2.1014    0.1909 H   0  0  0  0  0  0  0  0  0  0  0  0
   -1.3767    1.0209    1.8083 H   0  0  0  0  0  0  0  0  0  0  0  0
   -5.1944    1.1258   -0.1847 H   0  0  0  0  0  0  0  0  0  0  0  0
   -4.8083   -1.0875   -1.0843 H   0  0  0  0  0  0  0  0  0  0  0  0
   -0.8255   -2.7707   -1.7256 H   0  0  0  0  0  0  0  0  0  0  0  0
   -2.3330   -3.3743   -2.5910 H   0  0  0  0  0  0  0  0  0  0  0  0
   -1.1327   -4.5284   -0.0202 H   0  0  0  0  0  0  0  0  0  0  0  0
   -1.0936   -5.2789   -1.7206 H   0  0  0  0  0  0  0  0  0  0  0  0
   -3.4521   -5.3777   -1.7601 H   0  0  0  0  0  0  0  0  0  0  0  0
   -3.1218   -5.7753   -0.0345 H   0  0  0  0  0  0  0  0  0  0  0  0
   -4.5965   -3.4292   -1.0058 H   0  0  0  0  0  0  0  0  0  0  0  0
   -3.8757   -3.6381    0.6781 H   0  0  0  0  0  0  0  0  0  0  0  0
   -1.4638    4.2894   -0.7846 H   0  0  0  0  0  0  0  0  0  0  0  0
   -1.1972    3.0808    0.4921 H   0  0  0  0  0  0  0  0  0  0  0  0
   -1.2095    4.8364    0.9261 H   0  0  0  0  0  0  0  0  0  0  0  0
   -3.6043    5.1722    2.1784 H   0  0  0  0  0  0  0  0  0  0  0  0
   -2.6838    6.0637    0.9613 H   0  0  0  0  0  0  0  0  0  0  0  0
   -4.4625    5.7117    0.6543 H   0  0  0  0  0  0  0  0  0  0  0  0
    3.3147    1.1306    1.7962 H   0  0  0  0  0  0  0  0  0  0  0  0
    3.1373    2.7316    0.8596 H   0  0  0  0  0  0  0  0  0  0  0  0
    4.4768    2.4392    1.9599 H   0  0  0  0  0  0  0  0  0  0  0  0
  1  2  1  0
  2  3  2  0
  3  4  1  0
  4  5  2  0
  5  6  1  0
  6  7  2  0
  6  8  1  0
  8  9  1  0
  9 10  1  0
 10 11  1  0
 11 12  1  0
 12 13  1  0
 11 14  1  0
 14 15  2  0
 14 16  1  0
 16 17  2  0
 17 18  1  0
 18 19  2  0
 19 20  1  0
 20 21  2  0
 21 22  1  0
 22 23  1  0
 23 24  1  0
 24 25  1  0
 25 26  1  0
 18 27  1  0
 27 28  2  0
 27 29  2  0
 27 30  1  0
 30 31  1  0
 30 32  1  0
  5 33  1  0
  7  2  1  0
 13  8  1  0
 21 16  1  0
 26 22  1  0
  3 34  1  0
  4 35  1  0
  7 36  1  0
  9 37  1  0
  9 38  1  0
 10 39  1  0
 10 40  1  0
 12 41  1  0
 12 42  1  0
 13 43  1  0
 13 44  1  0
 17 45  1  0
 19 46  1  0
 20 47  1  0
 23 48  1  0
 23 49  1  0
 24 50  1  0
 24 51  1  0
 25 52  1  0
 25 53  1  0
 26 54  1  0
 26 55  1  0
 31 56  1  0
 31 57  1  0
 31 58  1  0
 32 59  1  0
 32 60  1  0
 32 61  1  0
 33 62  1  0
 33 63  1  0
 33 64  1  0
M  END
>  <Ligand ID>  (1) 
LIG0001675

>  <Ligand>  (1) 
MLS-0435532.0001

>  <SMILES>  (1) 
Clc1ccc(c(c1)N1CCN(CC1)C(=O)c1cc(ccc1N1CCCC1)S(=O)(=O)N(C)C)C

>  <CID>  (1) 
16262621.0

>  <ChEMBL ID>  (1) 
nan

>  <InChiKey>  (1) 
HHCJFOCCKUSTFY-UHFFFAOYSA-N

>  <InChi>  (1) 
InChI=1S/C24H31ClN4O3S/c1-18-6-7-19(25)16-23(18)28-12-14-29(15-13-28)24(30)21-17-20(33(31,32)26(2)3)8-9-22(21)27-10-4-5-11-27/h6-9,16-17H,4-5,10-15H2,1-3H3

>  <IUPAC Name>  (1) 
3-[4-(5-chloro-2-methylphenyl)piperazine-1-carbonyl]-N,N-dimethyl-4-pyrrolidin-1-ylbenzenesulfonamide

$$$$
