
     RDKit          3D

100103  0  0  0  0  0  0  0  0999 V2000
    8.2533    1.4056    1.0034 C   0  0  0  0  0  0  0  0  0  0  0  0
    8.5220    0.0757    1.0515 O   0  0  0  0  0  0  0  0  0  0  0  0
    8.0974   -0.7332    0.0561 C   0  0  0  0  0  0  0  0  0  0  0  0
    6.6667   -0.9770   -0.1187 C   0  0  0  0  0  0  0  0  0  0  0  0
    6.3433   -1.7478   -1.1000 O   0  0  0  0  0  0  0  0  0  0  0  0
    5.5922   -0.4882    0.6419 N   0  0  0  0  0  0  0  0  0  0  0  0
    4.2164   -0.7965    0.3727 C   0  0  2  0  0  0  0  0  0  0  0  0
    3.3736    0.3681    0.0220 C   0  0  0  0  0  0  0  0  0  0  0  0
    3.8886    1.5363    0.0063 O   0  0  0  0  0  0  0  0  0  0  0  0
    2.0152    0.1267   -0.2847 N   0  0  0  0  0  0  0  0  0  0  0  0
    1.0381    1.1062   -0.6463 C   0  0  2  0  0  0  0  0  0  0  0  0
    0.0722    1.2689    0.4791 C   0  0  0  0  0  0  0  0  0  0  0  0
    0.2941    0.7284    1.5932 O   0  0  0  0  0  0  0  0  0  0  0  0
   -1.1161    2.0185    0.3504 N   0  0  0  0  0  0  0  0  0  0  0  0
   -2.0094    2.1291    1.5202 C   0  0  2  0  0  0  0  0  0  0  0  0
   -3.0358    1.0153    1.4166 C   0  0  0  0  0  0  0  0  0  0  0  0
   -3.9463    0.8939    2.2871 O   0  0  0  0  0  0  0  0  0  0  0  0
   -2.9944    0.0867    0.3461 N   0  0  0  0  0  0  0  0  0  0  0  0
   -3.9587   -1.0100    0.2142 C   0  0  2  0  0  0  0  0  0  0  0  0
   -3.3898   -2.3228    0.4375 C   0  0  0  0  0  0  0  0  0  0  0  0
   -4.0021   -3.4117    0.5270 O   0  0  0  0  0  0  0  0  0  0  0  0
   -1.9530   -2.4147    0.5759 N   0  0  0  0  0  0  0  0  0  0  0  0
   -4.7930   -0.8637   -0.9968 C   0  0  0  0  0  0  0  0  0  0  0  0
   -5.7511   -1.9569   -1.2037 C   0  0  0  0  0  0  0  0  0  0  0  0
   -7.0748   -1.9812   -0.7507 C   0  0  0  0  0  0  0  0  0  0  0  0
   -7.6307   -3.1686   -1.0957 N   0  0  0  0  0  0  0  0  0  0  0  0
   -6.7155   -3.9019   -1.7511 C   0  0  0  0  0  0  0  0  0  0  0  0
   -5.5475   -3.1843   -1.8352 C   0  0  0  0  0  0  0  0  0  0  0  0
   -4.4836   -3.7689   -2.4961 C   0  0  0  0  0  0  0  0  0  0  0  0
   -4.5751   -5.0214   -3.0520 C   0  0  0  0  0  0  0  0  0  0  0  0
   -5.7568   -5.7013   -2.9433 C   0  0  0  0  0  0  0  0  0  0  0  0
   -6.8744   -5.1692   -2.2890 C   0  0  0  0  0  0  0  0  0  0  0  0
   -2.6713    3.4628    1.4507 C   0  0  0  0  0  0  0  0  0  0  0  0
   -3.6196    3.7815    2.5550 C   0  0  0  0  0  0  0  0  0  0  0  0
   -4.1903    5.1852    2.3052 C   0  0  0  0  0  0  0  0  0  0  0  0
   -3.1398    6.1867    2.2771 N   0  0  0  0  0  0  0  0  0  0  0  0
   -3.3538    7.4102    2.6571 C   0  0  0  0  0  0  0  0  0  0  0  0
   -2.3490    8.4133    2.6420 N   0  0  0  0  0  0  0  0  0  0  0  0
   -4.6589    7.7860    3.1185 N   0  0  0  0  0  0  0  0  0  0  0  0
    0.3742    0.8972   -1.9726 C   0  0  0  0  0  0  0  0  0  0  0  0
    1.3373    0.9013   -3.0967 C   0  0  0  0  0  0  0  0  0  0  0  0
    1.9245   -0.2761   -3.5157 C   0  0  0  0  0  0  0  0  0  0  0  0
    2.8277   -0.2354   -4.5752 C   0  0  0  0  0  0  0  0  0  0  0  0
    3.1542    0.9346   -5.2172 C   0  0  0  0  0  0  0  0  0  0  0  0
    2.5709    2.1136   -4.8031 C   0  0  0  0  0  0  0  0  0  0  0  0
    1.6711    2.0808   -3.7492 C   0  0  0  0  0  0  0  0  0  0  0  0
    3.6081   -1.6899    1.4265 C   0  0  0  0  0  0  0  0  0  0  0  0
    4.3564   -2.9735    1.4749 C   0  0  0  0  0  0  0  0  0  0  0  0
    3.9044   -3.9765    0.6308 C   0  0  0  0  0  0  0  0  0  0  0  0
    4.5171   -5.2075    0.5932 C   0  0  0  0  0  0  0  0  0  0  0  0
    5.6072   -5.4631    1.4088 C   0  0  0  0  0  0  0  0  0  0  0  0
    6.0292   -4.4389    2.2370 C   0  0  0  0  0  0  0  0  0  0  0  0
    5.4326   -3.2069    2.2888 C   0  0  0  0  0  0  0  0  0  0  0  0
    6.3650   -7.0251    1.3442 Cl  0  0  0  0  0  0  0  0  0  0  0  0
    7.2370    1.7546    0.9565 H   0  0  0  0  0  0  0  0  0  0  0  0
    8.6850    1.8658    1.9474 H   0  0  0  0  0  0  0  0  0  0  0  0
    8.8393    1.9409    0.1980 H   0  0  0  0  0  0  0  0  0  0  0  0
    8.5819   -0.3825   -0.8996 H   0  0  0  0  0  0  0  0  0  0  0  0
    8.5955   -1.7451    0.2493 H   0  0  0  0  0  0  0  0  0  0  0  0
    5.7882    0.1212    1.4634 H   0  0  0  0  0  0  0  0  0  0  0  0
    4.2310   -1.4368   -0.5600 H   0  0  0  0  0  0  0  0  0  0  0  0
    1.6574   -0.8823   -0.2563 H   0  0  0  0  0  0  0  0  0  0  0  0
    1.5552    2.1150   -0.6913 H   0  0  0  0  0  0  0  0  0  0  0  0
   -1.3769    2.4904   -0.5364 H   0  0  0  0  0  0  0  0  0  0  0  0
   -1.4320    1.9319    2.4229 H   0  0  0  0  0  0  0  0  0  0  0  0
   -2.2746    0.1453   -0.3936 H   0  0  0  0  0  0  0  0  0  0  0  0
   -4.6598   -0.8256    1.0981 H   0  0  0  0  0  0  0  0  0  0  0  0
   -1.4445   -2.0575    1.3992 H   0  0  0  0  0  0  0  0  0  0  0  0
   -1.4648   -2.8743   -0.2255 H   0  0  0  0  0  0  0  0  0  0  0  0
   -4.1735   -0.8232   -1.9484 H   0  0  0  0  0  0  0  0  0  0  0  0
   -5.4109    0.0892   -0.9432 H   0  0  0  0  0  0  0  0  0  0  0  0
   -7.6130   -1.2316   -0.2215 H   0  0  0  0  0  0  0  0  0  0  0  0
   -8.6310   -3.4541   -0.8738 H   0  0  0  0  0  0  0  0  0  0  0  0
   -3.5601   -3.1749   -2.5528 H   0  0  0  0  0  0  0  0  0  0  0  0
   -3.6917   -5.4283   -3.5633 H   0  0  0  0  0  0  0  0  0  0  0  0
   -5.8455   -6.7005   -3.3796 H   0  0  0  0  0  0  0  0  0  0  0  0
   -7.7634   -5.7465   -2.2392 H   0  0  0  0  0  0  0  0  0  0  0  0
   -3.2542    3.5502    0.4954 H   0  0  0  0  0  0  0  0  0  0  0  0
   -1.9249    4.3049    1.4248 H   0  0  0  0  0  0  0  0  0  0  0  0
   -4.4610    3.0951    2.6883 H   0  0  0  0  0  0  0  0  0  0  0  0
   -3.1091    3.8396    3.5585 H   0  0  0  0  0  0  0  0  0  0  0  0
   -4.9853    5.4172    3.0259 H   0  0  0  0  0  0  0  0  0  0  0  0
   -4.6583    5.2256    1.2885 H   0  0  0  0  0  0  0  0  0  0  0  0
   -2.1553    9.0045    1.7881 H   0  0  0  0  0  0  0  0  0  0  0  0
   -1.8045    8.5387    3.5267 H   0  0  0  0  0  0  0  0  0  0  0  0
   -5.2263    8.4712    2.5528 H   0  0  0  0  0  0  0  0  0  0  0  0
   -5.0037    7.3633    4.0063 H   0  0  0  0  0  0  0  0  0  0  0  0
   -0.2888    1.7819   -2.1258 H   0  0  0  0  0  0  0  0  0  0  0  0
   -0.3215    0.0323   -1.9772 H   0  0  0  0  0  0  0  0  0  0  0  0
    1.6852   -1.2097   -3.0267 H   0  0  0  0  0  0  0  0  0  0  0  0
    3.2977   -1.1681   -4.9124 H   0  0  0  0  0  0  0  0  0  0  0  0
    3.8540    0.9918   -6.0440 H   0  0  0  0  0  0  0  0  0  0  0  0
    2.8069    3.0666   -5.2909 H   0  0  0  0  0  0  0  0  0  0  0  0
    1.2396    3.0442   -3.4609 H   0  0  0  0  0  0  0  0  0  0  0  0
    2.5302   -1.8304    1.2508 H   0  0  0  0  0  0  0  0  0  0  0  0
    3.6912   -1.2536    2.4434 H   0  0  0  0  0  0  0  0  0  0  0  0
    3.0415   -3.8016   -0.0280 H   0  0  0  0  0  0  0  0  0  0  0  0
    4.1103   -5.9480   -0.0939 H   0  0  0  0  0  0  0  0  0  0  0  0
    6.8814   -4.6090    2.8890 H   0  0  0  0  0  0  0  0  0  0  0  0
    5.7640   -2.3985    2.9424 H   0  0  0  0  0  0  0  0  0  0  0  0
  1  2  1  0
  2  3  1  0
  3  4  1  0
  4  5  2  0
  4  6  1  0
  6  7  1  0
  7  8  1  0
  8  9  2  0
  8 10  1  0
 10 11  1  0
 11 12  1  0
 12 13  2  0
 12 14  1  0
 14 15  1  0
 15 16  1  0
 16 17  2  0
 16 18  1  0
 18 19  1  0
 19 20  1  0
 20 21  2  0
 20 22  1  0
 19 23  1  0
 23 24  1  0
 24 25  2  0
 25 26  1  0
 26 27  1  0
 27 28  2  0
 28 29  1  0
 29 30  2  0
 30 31  1  0
 31 32  2  0
 15 33  1  0
 33 34  1  0
 34 35  1  0
 35 36  1  0
 36 37  2  3
 37 38  1  0
 37 39  1  0
 11 40  1  0
 40 41  1  0
 41 42  2  0
 42 43  1  0
 43 44  2  0
 44 45  1  0
 45 46  2  0
  7 47  1  0
 47 48  1  0
 48 49  2  0
 49 50  1  0
 50 51  2  0
 51 52  1  0
 52 53  2  0
 51 54  1  0
 28 24  1  0
 46 41  1  0
 53 48  1  0
 32 27  1  0
  1 55  1  0
  1 56  1  0
  1 57  1  0
  3 58  1  0
  3 59  1  0
  6 60  1  0
  7 61  1  6
 10 62  1  0
 11 63  1  6
 14 64  1  0
 15 65  1  1
 18 66  1  0
 19 67  1  1
 22 68  1  0
 22 69  1  0
 23 70  1  0
 23 71  1  0
 25 72  1  0
 26 73  1  0
 29 74  1  0
 30 75  1  0
 31 76  1  0
 32 77  1  0
 33 78  1  0
 33 79  1  0
 34 80  1  0
 34 81  1  0
 35 82  1  0
 35 83  1  0
 38 84  1  0
 38 85  1  0
 39 86  1  0
 39 87  1  0
 40 88  1  0
 40 89  1  0
 42 90  1  0
 43 91  1  0
 44 92  1  0
 45 93  1  0
 46 94  1  0
 47 95  1  0
 47 96  1  0
 49 97  1  0
 50 98  1  0
 52 99  1  0
 53100  1  0
M  END
>  <Ligand ID>  (1) 
LIG0004894

>  <Ligand>  (1) 
CHEMBL365385

>  <SMILES>  (1) 
COCC(=O)N[C@H](C(=O)N[C@H](C(=O)N[C@H](C(=O)N[C@H](C(=O)N)Cc1c[nH]c2c1cccc2)CCCN=C(N)N)Cc1ccccc1)Cc1ccc(cc1)Cl

>  <CID>  (1) 
44394586.0

>  <ChEMBL ID>  (1) 
nan

>  <InChiKey>  (1) 
WFNIAGPXVCECQB-YDPTYEFTSA-N

>  <InChi>  (1) 
InChI=1S/C38H46ClN9O6/c1-54-22-33(49)45-31(19-24-13-15-26(39)16-14-24)36(52)48-32(18-23-8-3-2-4-9-23)37(53)46-29(12-7-17-43-38(41)42)35(51)47-30(34(40)50)20-25-21-44-28-11-6-5-10-27(25)28/h2-6,8-11,13-16,21,29-32,44H,7,12,17-20,22H2,1H3,(H2,40,50)(H,45,49)(H,46,53)(H,47,51)(H,48,52)(H4,41,42,43)/t29-,30-,31-,32-/m0/s1

>  <IUPAC Name>  (1) 
(2S)-N-[(2S)-1-amino-3-(1H-indol-3-yl)-1-oxopropan-2-yl]-2-[[(2S)-2-[[(2S)-3-(4-chlorophenyl)-2-[(2-methoxyacetyl)amino]propanoyl]amino]-3-phenylpropanoyl]amino]-5-(diaminomethylideneamino)pentanamide

$$$$
