
     RDKit          3D

 17 16  0  0  0  0  0  0  0  0999 V2000
   -2.0148    0.3593    0.7474 C   0  0  0  0  0  0  0  0  0  0  0  0
   -1.4499   -0.2688   -0.4840 C   0  0  0  0  0  0  0  0  0  0  0  0
    0.0410   -0.3449   -0.5194 C   0  0  0  0  0  0  0  0  0  0  0  0
    0.7462    0.9596   -0.4453 C   0  0  0  0  0  0  0  0  0  0  0  0
    2.1401    0.7299   -0.4905 O   0  0  0  0  0  0  0  0  0  0  0  0
    2.8686    0.0004    0.4200 C   0  0  0  0  0  0  0  0  0  0  0  0
    2.3396   -0.5480    1.4149 O   0  0  0  0  0  0  0  0  0  0  0  0
   -3.1210    0.3842    0.6184 H   0  0  0  0  0  0  0  0  0  0  0  0
   -1.7142    1.3909    0.9252 H   0  0  0  0  0  0  0  0  0  0  0  0
   -1.8322   -0.2961    1.6432 H   0  0  0  0  0  0  0  0  0  0  0  0
   -1.8296    0.2814   -1.3581 H   0  0  0  0  0  0  0  0  0  0  0  0
   -1.8387   -1.3066   -0.5431 H   0  0  0  0  0  0  0  0  0  0  0  0
    0.4393   -1.0725    0.2129 H   0  0  0  0  0  0  0  0  0  0  0  0
    0.2908   -0.7860   -1.5259 H   0  0  0  0  0  0  0  0  0  0  0  0
    0.4695    1.5500    0.4666 H   0  0  0  0  0  0  0  0  0  0  0  0
    0.5158    1.5251   -1.3746 H   0  0  0  0  0  0  0  0  0  0  0  0
    3.9495   -0.1193    0.2922 H   0  0  0  0  0  0  0  0  0  0  0  0
  1  2  1  0
  2  3  1  0
  3  4  1  0
  4  5  1  0
  5  6  1  0
  6  7  2  0
  1  8  1  0
  1  9  1  0
  1 10  1  0
  2 11  1  0
  2 12  1  0
  3 13  1  0
  3 14  1  0
  4 15  1  0
  4 16  1  0
  6 17  1  0
M  END
>  <Ligand ID>  (1) 
LIG0000074

>  <Ligand>  (1) 
butyl formate

>  <SMILES>  (1) 
CCCCOC=O

>  <CID>  (1) 
11614.0

>  <ChEMBL ID>  (1) 
nan

>  <InChiKey>  (1) 
NMJJFJNHVMGPGM-UHFFFAOYSA-N

>  <InChi>  (1) 
InChI=1S/C5H10O2/c1-2-3-4-7-5-6/h5H,2-4H2,1H3

>  <IUPAC Name>  (1) 
butyl formate

$$$$
