
     RDKit          3D

 25 26  0  0  0  0  0  0  0  0999 V2000
    3.0046    2.3351   -1.5434 O   0  0  0  0  0  0  0  0  0  0  0  0
    2.3255    1.7460   -0.4845 C   0  0  0  0  0  0  0  0  0  0  0  0
    2.6005    2.0956    0.6940 O   0  0  0  0  0  0  0  0  0  0  0  0
    1.2745    0.7080   -0.6729 C   0  0  1  0  0  0  0  0  0  0  0  0
    1.2709   -0.3387    0.3765 C   0  0  1  0  0  0  0  0  0  0  0  0
    0.1740    0.7596    0.3117 C   0  0  2  0  0  0  0  0  0  0  0  0
   -1.1224    0.0547    0.1889 C   0  0  2  0  0  0  0  0  0  0  0  0
   -0.8418   -1.2821    0.8865 C   0  0  0  0  0  0  0  0  0  0  0  0
    0.4695   -1.5956    0.2081 C   0  0  0  0  0  0  0  0  0  0  0  0
    0.8145   -2.7284   -0.3932 C   0  0  0  0  0  0  0  0  0  0  0  0
   -1.5423   -0.2153   -1.1584 N   0  0  0  0  0  0  0  0  0  0  0  0
   -2.2041    0.7964    0.8872 C   0  0  0  0  0  0  0  0  0  0  0  0
   -2.0311    1.1367    2.1075 O   0  0  0  0  0  0  0  0  0  0  0  0
   -3.4005    1.1272    0.2383 O   0  0  0  0  0  0  0  0  0  0  0  0
    3.4867    3.2360   -1.4309 H   0  0  0  0  0  0  0  0  0  0  0  0
    1.1014    0.4663   -1.7302 H   0  0  0  0  0  0  0  0  0  0  0  0
    1.9708   -0.3119    1.2132 H   0  0  0  0  0  0  0  0  0  0  0  0
    0.2325    1.4700    1.1564 H   0  0  0  0  0  0  0  0  0  0  0  0
   -0.6371   -1.0629    1.9497 H   0  0  0  0  0  0  0  0  0  0  0  0
   -1.6105   -2.0324    0.6984 H   0  0  0  0  0  0  0  0  0  0  0  0
    0.1128   -3.5730   -0.4377 H   0  0  0  0  0  0  0  0  0  0  0  0
    1.8054   -2.7643   -0.8250 H   0  0  0  0  0  0  0  0  0  0  0  0
   -2.2530   -0.9660   -1.1910 H   0  0  0  0  0  0  0  0  0  0  0  0
   -0.7656   -0.3628   -1.8308 H   0  0  0  0  0  0  0  0  0  0  0  0
   -4.2349    1.3018    0.7818 H   0  0  0  0  0  0  0  0  0  0  0  0
  1  2  1  0
  2  3  2  0
  2  4  1  0
  4  5  1  0
  5  6  1  0
  6  7  1  0
  7  8  1  0
  8  9  1  0
  9 10  2  0
  7 11  1  6
  7 12  1  0
 12 13  2  0
 12 14  1  0
  6  4  1  0
  9  5  1  0
  1 15  1  0
  4 16  1  6
  5 17  1  1
  6 18  1  1
  8 19  1  0
  8 20  1  0
 10 21  1  0
 10 22  1  0
 11 23  1  0
 11 24  1  0
 14 25  1  0
M  END
>  <Ligand ID>  (1) 
LIG0002333

>  <Ligand>  (1) 
CHEMBL2381641

>  <SMILES>  (1) 
OC(=O)[C@H]1[C@H]2[C@@H]1[C@](CC2=C)(N)C(=O)O

>  <CID>  (1) 
70051926.0

>  <ChEMBL ID>  (1) 
nan

>  <InChiKey>  (1) 
OOLBYBOPYDRLHD-JXBXBTJBSA-N

>  <InChi>  (1) 
InChI=1S/C9H11NO4/c1-3-2-9(10,8(13)14)6-4(3)5(6)7(11)12/h4-6H,1-2,10H2,(H,11,12)(H,13,14)/t4-,5-,6-,9-/m0/s1

>  <IUPAC Name>  (1) 
(1S,2S,5R,6S)-2-amino-4-methylidenebicyclo[3.1.0]hexane-2,6-dicarboxylic acid

$$$$
