
     RDKit          3D

 55 59  0  0  0  0  0  0  0  0999 V2000
    0.4795   -0.7171   -5.2092 Cl  0  0  0  0  0  0  0  0  0  0  0  0
   -0.5140   -0.5824   -3.7575 C   0  0  0  0  0  0  0  0  0  0  0  0
   -0.5598    0.6198   -3.0540 C   0  0  0  0  0  0  0  0  0  0  0  0
   -1.3560    0.6785   -1.9178 C   0  0  0  0  0  0  0  0  0  0  0  0
   -2.0908   -0.4307   -1.4858 C   0  0  0  0  0  0  0  0  0  0  0  0
   -2.0397   -1.6213   -2.1896 C   0  0  0  0  0  0  0  0  0  0  0  0
   -1.2543   -1.6702   -3.3072 C   0  0  0  0  0  0  0  0  0  0  0  0
   -2.9104   -0.2532   -0.2592 C   0  0  0  0  0  0  0  0  0  0  0  0
   -2.2259   -0.6017    0.9875 C   0  0  0  0  0  0  0  0  0  0  0  0
   -2.8359   -1.2424    2.0454 C   0  0  0  0  0  0  0  0  0  0  0  0
   -2.1461   -1.5713    3.2124 C   0  0  0  0  0  0  0  0  0  0  0  0
   -0.8021   -1.2422    3.3099 C   0  0  0  0  0  0  0  0  0  0  0  0
   -0.1584   -0.5990    2.2678 C   0  0  0  0  0  0  0  0  0  0  0  0
   -0.8663   -0.2871    1.1276 C   0  0  0  0  0  0  0  0  0  0  0  0
    1.1966   -0.2793    2.3843 C   0  0  0  0  0  0  0  0  0  0  0  0
    1.9188    0.4034    1.3155 C   0  0  0  0  0  0  0  0  0  0  0  0
    3.2070    0.7052    1.3848 C   0  0  0  0  0  0  0  0  0  0  0  0
    3.9467    1.3843    0.3320 C   0  0  0  0  0  0  0  0  0  0  0  0
    5.3079    1.6452    0.4944 C   0  0  0  0  0  0  0  0  0  0  0  0
    6.0620    2.2870   -0.4626 C   0  0  0  0  0  0  0  0  0  0  0  0
    5.4809    2.7068   -1.6499 C   0  0  0  0  0  0  0  0  0  0  0  0
    4.1382    2.4442   -1.7982 C   0  0  0  0  0  0  0  0  0  0  0  0
    3.3909    1.8095   -0.8528 C   0  0  0  0  0  0  0  0  0  0  0  0
    3.4849    2.8914   -3.0696 C   0  0  0  0  0  0  0  0  0  0  0  0
    2.3888    3.6915   -2.8080 F   0  0  0  0  0  0  0  0  0  0  0  0
    4.3964    3.4923   -3.9141 F   0  0  0  0  0  0  0  0  0  0  0  0
    3.0470    1.7482   -3.7177 F   0  0  0  0  0  0  0  0  0  0  0  0
    1.7931   -0.6471    3.5712 C   0  0  0  0  0  0  0  0  0  0  0  0
    1.1119   -1.2915    4.5927 C   0  0  0  0  0  0  0  0  0  0  0  0
    1.6715   -1.6140    5.6556 O   0  0  0  0  0  0  0  0  0  0  0  0
   -0.1903   -1.5869    4.4546 N   0  0  0  0  0  0  0  0  0  0  0  0
   -4.1706   -1.0278   -0.3607 C   0  0  0  0  0  0  0  0  0  0  0  0
   -5.4186   -0.5892   -0.6976 C   0  0  0  0  0  0  0  0  0  0  0  0
   -6.4308   -1.4512   -0.7416 C   0  0  0  0  0  0  0  0  0  0  0  0
   -6.1602   -2.7606   -0.4401 C   0  0  0  0  0  0  0  0  0  0  0  0
   -4.3403   -2.7664   -0.0681 S   0  0  0  0  0  0  0  0  0  0  0  0
    0.0089    1.4744   -3.3890 H   0  0  0  0  0  0  0  0  0  0  0  0
   -1.4087    1.6188   -1.3477 H   0  0  0  0  0  0  0  0  0  0  0  0
   -2.5956   -2.4743   -1.8701 H   0  0  0  0  0  0  0  0  0  0  0  0
   -1.2290   -2.6205   -3.8478 H   0  0  0  0  0  0  0  0  0  0  0  0
   -3.2038    0.8136   -0.2065 H   0  0  0  0  0  0  0  0  0  0  0  0
   -3.8653   -1.5044    2.0187 H   0  0  0  0  0  0  0  0  0  0  0  0
   -2.6632   -2.0748    4.0155 H   0  0  0  0  0  0  0  0  0  0  0  0
   -0.4183    0.2034    0.3058 H   0  0  0  0  0  0  0  0  0  0  0  0
    1.4215    0.6967    0.4053 H   0  0  0  0  0  0  0  0  0  0  0  0
    3.7610    0.4373    2.2709 H   0  0  0  0  0  0  0  0  0  0  0  0
    5.7789    1.3244    1.4154 H   0  0  0  0  0  0  0  0  0  0  0  0
    7.1048    2.4419   -0.2426 H   0  0  0  0  0  0  0  0  0  0  0  0
    6.0807    3.2095   -2.3959 H   0  0  0  0  0  0  0  0  0  0  0  0
    2.3452    1.6496   -1.0651 H   0  0  0  0  0  0  0  0  0  0  0  0
    2.8414   -0.4486    3.7715 H   0  0  0  0  0  0  0  0  0  0  0  0
   -0.7082   -2.0671    5.2074 H   0  0  0  0  0  0  0  0  0  0  0  0
   -5.5602    0.5002   -0.9322 H   0  0  0  0  0  0  0  0  0  0  0  0
   -7.4716   -1.1610   -1.0069 H   0  0  0  0  0  0  0  0  0  0  0  0
   -6.7698   -3.6938   -0.3869 H   0  0  0  0  0  0  0  0  0  0  0  0
  1  2  1  0
  2  3  2  0
  3  4  1  0
  4  5  2  0
  5  6  1  0
  6  7  2  0
  5  8  1  0
  8  9  1  0
  9 10  2  0
 10 11  1  0
 11 12  2  0
 12 13  1  0
 13 14  2  0
 13 15  1  0
 15 16  1  0
 16 17  2  0
 17 18  1  0
 18 19  2  0
 19 20  1  0
 20 21  2  0
 21 22  1  0
 22 23  2  0
 22 24  1  0
 24 25  1  0
 24 26  1  0
 24 27  1  0
 15 28  2  0
 28 29  1  0
 29 30  2  0
 29 31  1  0
  8 32  1  0
 32 33  2  0
 33 34  1  0
 34 35  2  0
 35 36  1  0
  7  2  1  0
 14  9  1  0
 23 18  1  0
 36 32  1  0
 31 12  1  0
  3 37  1  0
  4 38  1  0
  6 39  1  0
  7 40  1  0
  8 41  1  0
 10 42  1  0
 11 43  1  0
 14 44  1  0
 16 45  1  0
 17 46  1  0
 19 47  1  0
 20 48  1  0
 21 49  1  0
 23 50  1  0
 28 51  1  0
 31 52  1  0
 33 53  1  0
 34 54  1  0
 35 55  1  0
M  END
>  <Ligand ID>  (1) 
LIG0005801

>  <Ligand>  (1) 
CHEMBL3982394

>  <SMILES>  (1) 
Clc1ccc(cc1)C(c1ccc2c(c1)c(/C=C/c1cccc(c1)C(F)(F)F)cc(=O)[nH]2)c1cccs1

>  <CID>  (1) 
118329954.0

>  <ChEMBL ID>  (1) 
nan

>  <InChiKey>  (1) 
HSSVLTVLDQIALV-VOTSOKGWSA-N

>  <InChi>  (1) 
InChI=1S/C29H19ClF3NOS/c30-23-11-8-19(9-12-23)28(26-5-2-14-36-26)21-10-13-25-24(16-21)20(17-27(35)34-25)7-6-18-3-1-4-22(15-18)29(31,32)33/h1-17,28H,(H,34,35)/b7-6+

>  <IUPAC Name>  (1) 
6-[(4-chlorophenyl)-thiophen-2-ylmethyl]-4-[(E)-2-[3-(trifluoromethyl)phenyl]ethenyl]-1H-quinolin-2-one

$$$$
