
     RDKit          3D

 81 81  0  0  0  0  0  0  0  0999 V2000
   -0.9637   -0.0462    0.1061 C   0  0  0  0  0  0  0  0  0  0  0  0
    0.4809    0.2631    0.0292 C   0  0  0  0  0  0  0  0  0  0  0  0
    0.8387    1.4539   -0.1087 O   0  0  0  0  0  0  0  0  0  0  0  0
    1.4763   -0.7131    0.1030 O   0  0  0  0  0  0  0  0  0  0  0  0
  -10.9277    0.4345   -2.1987 O   0  0  0  0  0  0  0  0  0  0  0  0
  -10.2562   -0.7238   -1.7880 C   0  0  0  0  0  0  0  0  0  0  0  0
   -9.3271   -0.2870   -0.7034 C   0  0  0  0  0  0  0  0  0  0  0  0
   -7.9713   -0.1434   -0.8943 C   0  0  0  0  0  0  0  0  0  0  0  0
   -7.2174    0.2772    0.1816 C   0  0  0  0  0  0  0  0  0  0  0  0
   -7.7712    0.5484    1.4063 C   0  0  0  0  0  0  0  0  0  0  0  0
   -9.1373    0.4069    1.6106 C   0  0  0  0  0  0  0  0  0  0  0  0
   -9.8787   -0.0157    0.5192 C   0  0  0  0  0  0  0  0  0  0  0  0
  -11.2618   -0.1638    0.7181 O   0  0  0  0  0  0  0  0  0  0  0  0
   -5.7100    0.4549    0.0563 C   0  0  2  0  0  0  0  0  0  0  0  0
   -5.1142   -0.7483    0.6712 C   0  0  0  0  0  0  0  0  0  0  0  0
   -3.7860   -1.0359    0.7485 N   0  0  0  0  0  0  0  0  0  0  0  0
   -2.8411   -0.4185    1.5284 C   0  0  0  0  0  0  0  0  0  0  0  0
   -2.4434    0.9638    1.1285 C   0  0  0  0  0  0  0  0  0  0  0  0
   -1.9197    0.9514   -0.2749 C   0  0  0  0  0  0  0  0  0  0  0  0
   -0.7235    0.0630   -0.4017 C   0  0  0  0  0  0  0  0  0  0  0  0
    0.4036    0.5360    0.4686 C   0  0  0  0  0  0  0  0  0  0  0  0
    1.5881   -0.4091    0.2433 C   0  0  0  0  0  0  0  0  0  0  0  0
    2.0438   -0.4774   -1.0211 O   0  0  0  0  0  0  0  0  0  0  0  0
    2.5024    0.6002   -1.6686 C   0  0  0  0  0  0  0  0  0  0  0  0
    3.6601    1.3585   -1.1667 C   0  0  0  0  0  0  0  0  0  0  0  0
    4.8572    0.7381   -1.0259 O   0  0  0  0  0  0  0  0  0  0  0  0
    4.9679   -0.2976   -0.1503 C   0  0  0  0  0  0  0  0  0  0  0  0
    6.3674   -0.8008   -0.1932 C   0  0  0  0  0  0  0  0  0  0  0  0
    6.6974   -1.8494   -1.0345 C   0  0  0  0  0  0  0  0  0  0  0  0
    7.9877   -2.3394   -1.0882 C   0  0  0  0  0  0  0  0  0  0  0  0
    8.9763   -1.7982   -0.3074 C   0  0  0  0  0  0  0  0  0  0  0  0
    8.6833   -0.7343    0.5569 C   0  0  0  0  0  0  0  0  0  0  0  0
    7.3827   -0.2802    0.5759 C   0  0  0  0  0  0  0  0  0  0  0  0
    9.7209   -0.1656    1.3549 N   0  0  0  0  0  0  0  0  0  0  0  0
   11.2896    0.1657    0.7398 S   0  0  0  0  0  0  0  0  0  0  0  0
   11.9000   -1.1329    0.3338 O   0  0  0  0  0  0  0  0  0  0  0  0
   12.1127    0.7772    1.8600 O   0  0  0  0  0  0  0  0  0  0  0  0
   11.2140    1.3368   -0.5808 C   0  0  0  0  0  0  0  0  0  0  0  0
   -5.4440    1.6819    0.5525 O   0  0  0  0  0  0  0  0  0  0  0  0
   -1.1785   -1.1268   -0.0250 H   0  0  0  0  0  0  0  0  0  0  0  0
   -1.3896    0.2955    1.0930 H   0  0  0  0  0  0  0  0  0  0  0  0
   -1.5287    0.5388   -0.6481 H   0  0  0  0  0  0  0  0  0  0  0  0
    2.2646   -0.6652   -0.5494 H   0  0  0  0  0  0  0  0  0  0  0  0
  -11.4238    0.8312   -1.4442 H   0  0  0  0  0  0  0  0  0  0  0  0
  -10.9637   -1.4366   -1.3409 H   0  0  0  0  0  0  0  0  0  0  0  0
   -9.7278   -1.1764   -2.6310 H   0  0  0  0  0  0  0  0  0  0  0  0
   -7.5354   -0.3586   -1.8438 H   0  0  0  0  0  0  0  0  0  0  0  0
   -7.1258    0.8803    2.2218 H   0  0  0  0  0  0  0  0  0  0  0  0
   -9.6010    0.6116    2.5685 H   0  0  0  0  0  0  0  0  0  0  0  0
  -11.7085    0.6255    1.2060 H   0  0  0  0  0  0  0  0  0  0  0  0
   -5.4565    0.4723   -1.0424 H   0  0  0  0  0  0  0  0  0  0  0  0
   -5.6516   -0.9019    1.6958 H   0  0  0  0  0  0  0  0  0  0  0  0
   -5.6267   -1.6274    0.1021 H   0  0  0  0  0  0  0  0  0  0  0  0
   -3.5128   -2.0492    0.5438 H   0  0  0  0  0  0  0  0  0  0  0  0
   -3.1674   -0.3270    2.6166 H   0  0  0  0  0  0  0  0  0  0  0  0
   -1.8759   -1.0539    1.6357 H   0  0  0  0  0  0  0  0  0  0  0  0
   -3.1456    1.7587    1.3680 H   0  0  0  0  0  0  0  0  0  0  0  0
   -1.5337    1.1920    1.7950 H   0  0  0  0  0  0  0  0  0  0  0  0
   -1.6223    2.0086   -0.5111 H   0  0  0  0  0  0  0  0  0  0  0  0
   -2.7276    0.6778   -0.9997 H   0  0  0  0  0  0  0  0  0  0  0  0
   -0.9819   -1.0122   -0.1956 H   0  0  0  0  0  0  0  0  0  0  0  0
   -0.4242    0.0798   -1.4860 H   0  0  0  0  0  0  0  0  0  0  0  0
    0.6193    1.5730    0.2359 H   0  0  0  0  0  0  0  0  0  0  0  0
    0.1297    0.3609    1.5472 H   0  0  0  0  0  0  0  0  0  0  0  0
    1.1678   -1.4280    0.5040 H   0  0  0  0  0  0  0  0  0  0  0  0
    2.3580   -0.2555    1.0465 H   0  0  0  0  0  0  0  0  0  0  0  0
    2.7079    0.3324   -2.7371 H   0  0  0  0  0  0  0  0  0  0  0  0
    1.6483    1.3445   -1.7699 H   0  0  0  0  0  0  0  0  0  0  0  0
    3.8367    2.1906   -1.9151 H   0  0  0  0  0  0  0  0  0  0  0  0
    3.4629    1.9305   -0.2243 H   0  0  0  0  0  0  0  0  0  0  0  0
    4.3264   -1.1770   -0.3762 H   0  0  0  0  0  0  0  0  0  0  0  0
    4.7587   -0.0071    0.9107 H   0  0  0  0  0  0  0  0  0  0  0  0
    5.8834   -2.2464   -1.6313 H   0  0  0  0  0  0  0  0  0  0  0  0
    8.2342   -3.1567   -1.7428 H   0  0  0  0  0  0  0  0  0  0  0  0
    9.9705   -2.2192   -0.3806 H   0  0  0  0  0  0  0  0  0  0  0  0
    7.1591    0.5456    1.2526 H   0  0  0  0  0  0  0  0  0  0  0  0
    9.4723    0.0447    2.3504 H   0  0  0  0  0  0  0  0  0  0  0  0
   11.4134    0.8018   -1.5548 H   0  0  0  0  0  0  0  0  0  0  0  0
   12.0246    2.0901   -0.5062 H   0  0  0  0  0  0  0  0  0  0  0  0
   10.2175    1.8121   -0.6238 H   0  0  0  0  0  0  0  0  0  0  0  0
   -6.2025    2.3074    0.6003 H   0  0  0  0  0  0  0  0  0  0  0  0
  1  2  1  0
  2  3  2  0
  2  4  1  0
  5  6  1  0
  6  7  1  0
  7  8  2  0
  8  9  1  0
  9 10  2  0
 10 11  1  0
 11 12  2  0
 12 13  1  0
  9 14  1  0
 14 15  1  0
 15 16  1  0
 16 17  1  0
 17 18  1  0
 18 19  1  0
 19 20  1  0
 20 21  1  0
 21 22  1  0
 22 23  1  0
 23 24  1  0
 24 25  1  0
 25 26  1  0
 26 27  1  0
 27 28  1  0
 28 29  2  0
 29 30  1  0
 30 31  2  0
 31 32  1  0
 32 33  2  0
 32 34  1  0
 34 35  1  0
 35 36  2  0
 35 37  2  0
 35 38  1  0
 14 39  1  0
 12  7  1  0
 33 28  1  0
  1 40  1  0
  1 41  1  0
  1 42  1  0
  4 43  1  0
  5 44  1  0
  6 45  1  0
  6 46  1  0
  8 47  1  0
 10 48  1  0
 11 49  1  0
 13 50  1  0
 14 51  1  6
 15 52  1  0
 15 53  1  0
 16 54  1  0
 17 55  1  0
 17 56  1  0
 18 57  1  0
 18 58  1  0
 19 59  1  0
 19 60  1  0
 20 61  1  0
 20 62  1  0
 21 63  1  0
 21 64  1  0
 22 65  1  0
 22 66  1  0
 24 67  1  0
 24 68  1  0
 25 69  1  0
 25 70  1  0
 27 71  1  0
 27 72  1  0
 29 73  1  0
 30 74  1  0
 31 75  1  0
 33 76  1  0
 34 77  1  0
 38 78  1  0
 38 79  1  0
 38 80  1  0
 39 81  1  0
M  END
>  <Ligand ID>  (1) 
LIG0003363

>  <Ligand>  (1) 
CHEMBL1085399

>  <SMILES>  (1) 
CC(=O)O.OCc1cc(ccc1O)[C@H](CNCCCCCCOCCOCc1cccc(c1)NS(=O)(=O)C)O

>  <CID>  (1) 
46832508.0

>  <ChEMBL ID>  (1) 
nan

>  <InChiKey>  (1) 
KVEWFLGJDBNYAW-UQIIZPHYSA-N

>  <InChi>  (1) 
InChI=1S/C25H38N2O7S.C2H4O2/c1-35(31,32)27-23-8-6-7-20(15-23)19-34-14-13-33-12-5-3-2-4-11-26-17-25(30)21-9-10-24(29)22(16-21)18-28;1-2(3)4/h6-10,15-16,25-30H,2-5,11-14,17-19H2,1H3;1H3,(H,3,4)/t25-;/m0./s1

>  <IUPAC Name>  (1) 
acetic acid;N-[3-[2-[6-[[(2R)-2-hydroxy-2-[4-hydroxy-3-(hydroxymethyl)phenyl]ethyl]amino]hexoxy]ethoxymethyl]phenyl]methanesulfonamide

$$$$
