
     RDKit          3D

104108  0  0  0  0  0  0  0  0999 V2000
   -9.5307    3.8755   -1.9300 F   0  0  0  0  0  0  0  0  0  0  0  0
   -8.7184    3.6580   -0.8308 C   0  0  0  0  0  0  0  0  0  0  0  0
   -7.3283    3.4564   -1.3690 C   0  0  0  0  0  0  0  0  0  0  0  0
   -6.2799    3.2164   -0.5179 C   0  0  0  0  0  0  0  0  0  0  0  0
   -4.9690    3.0407   -0.9299 C   0  0  0  0  0  0  0  0  0  0  0  0
   -3.9633    2.7866    0.1124 C   0  0  0  0  0  0  0  0  0  0  0  0
   -3.6886    1.4301    0.2197 O   0  0  0  0  0  0  0  0  0  0  0  0
   -4.4359    0.3574    0.4459 C   0  0  0  0  0  0  0  0  0  0  0  0
   -5.7180    0.5517    0.5919 O   0  0  0  0  0  0  0  0  0  0  0  0
   -4.0619   -1.0782    0.5609 C   0  0  2  0  0  0  0  0  0  0  0  0
   -5.0008   -1.9189    1.3306 C   0  0  0  0  0  0  0  0  0  0  0  0
   -6.3659   -2.0092    0.8666 C   0  0  0  0  0  0  0  0  0  0  0  0
   -7.4507   -1.3681    1.4822 C   0  0  0  0  0  0  0  0  0  0  0  0
   -8.5701   -1.6864    0.8135 N   0  0  0  0  0  0  0  0  0  0  0  0
   -8.2896   -2.5114   -0.2238 C   0  0  0  0  0  0  0  0  0  0  0  0
   -6.9200   -2.7147   -0.1945 C   0  0  0  0  0  0  0  0  0  0  0  0
   -6.3554   -3.5403   -1.1603 C   0  0  0  0  0  0  0  0  0  0  0  0
   -7.1358   -4.1554   -2.1385 C   0  0  0  0  0  0  0  0  0  0  0  0
   -8.4806   -3.9068   -2.1010 C   0  0  0  0  0  0  0  0  0  0  0  0
   -9.1084   -3.1012   -1.1767 C   0  0  0  0  0  0  0  0  0  0  0  0
   -2.7134   -1.3778    0.9180 N   0  0  0  0  0  0  0  0  0  0  0  0
   -1.6319   -0.5538    1.2391 C   0  0  0  0  0  0  0  0  0  0  0  0
   -1.6828    0.7237    1.2528 O   0  0  0  0  0  0  0  0  0  0  0  0
   -0.3082   -1.1083    1.6040 C   0  0  2  0  0  0  0  0  0  0  0  0
   -0.4171   -1.7943    2.9675 C   0  0  0  0  0  0  0  0  0  0  0  0
   -1.3545   -2.8975    3.0777 C   0  0  0  0  0  0  0  0  0  0  0  0
   -0.9216   -4.1539    2.6309 C   0  0  0  0  0  0  0  0  0  0  0  0
   -1.7084   -5.2796    2.7377 C   0  0  0  0  0  0  0  0  0  0  0  0
   -2.9647   -5.1888    3.2988 C   0  0  0  0  0  0  0  0  0  0  0  0
   -3.4013   -3.9684    3.7395 C   0  0  0  0  0  0  0  0  0  0  0  0
   -2.6281   -2.8060    3.6458 C   0  0  0  0  0  0  0  0  0  0  0  0
    0.6037    0.0428    1.7921 N   0  0  0  0  0  0  0  0  0  0  0  0
    1.9774    0.0094    1.5232 C   0  0  0  0  0  0  0  0  0  0  0  0
    2.5522   -1.0237    1.0897 O   0  0  0  0  0  0  0  0  0  0  0  0
    2.7319    1.2862    1.7942 C   0  0  0  0  0  0  0  0  0  0  0  0
    4.1360    1.1852    1.5866 N   0  0  0  0  0  0  0  0  0  0  0  0
    4.8183    0.8459    0.4109 C   0  0  0  0  0  0  0  0  0  0  0  0
    4.1761    0.5756   -0.6250 O   0  0  0  0  0  0  0  0  0  0  0  0
    6.3204    0.8314    0.4755 C   0  0  2  0  0  0  0  0  0  0  0  0
    6.9020    0.4534   -0.7704 N   0  0  0  0  0  0  0  0  0  0  0  0
    7.5335    1.5052   -1.5300 C   0  0  0  0  0  0  0  0  0  0  0  0
    7.5689    2.6890   -1.1200 O   0  0  0  0  0  0  0  0  0  0  0  0
    8.1336    1.0748   -2.8317 C   0  0  2  0  0  0  0  0  0  0  0  0
    9.2672    0.0858   -2.6113 C   0  0  0  0  0  0  0  0  0  0  0  0
   10.3716    0.6521   -1.7990 C   0  0  0  0  0  0  0  0  0  0  0  0
   10.4276    0.5528   -0.4248 C   0  0  0  0  0  0  0  0  0  0  0  0
   11.4677    1.0870    0.3179 C   0  0  0  0  0  0  0  0  0  0  0  0
   12.4913    1.7462   -0.3300 C   0  0  0  0  0  0  0  0  0  0  0  0
   12.4734    1.8686   -1.7059 C   0  0  0  0  0  0  0  0  0  0  0  0
   11.4106    1.3185   -2.4290 C   0  0  0  0  0  0  0  0  0  0  0  0
   13.5064    2.2604    0.4620 O   0  0  0  0  0  0  0  0  0  0  0  0
    8.5821    2.2137   -3.5993 N   0  0  0  0  0  0  0  0  0  0  0  0
    6.7948   -0.0884    1.5779 C   0  0  0  0  0  0  0  0  0  0  0  0
   -4.7364    3.1168   -2.2846 C   0  0  0  0  0  0  0  0  0  0  0  0
   -5.7387    3.3516   -3.1761 C   0  0  0  0  0  0  0  0  0  0  0  0
   -7.0434    3.5222   -2.7109 C   0  0  0  0  0  0  0  0  0  0  0  0
   -5.5639    3.4450   -4.6476 C   0  0  0  0  0  0  0  0  0  0  0  0
   -4.5929    2.5463   -5.0172 F   0  0  0  0  0  0  0  0  0  0  0  0
   -6.7609    3.2144   -5.3080 F   0  0  0  0  0  0  0  0  0  0  0  0
   -5.0732    4.7074   -4.9295 F   0  0  0  0  0  0  0  0  0  0  0  0
   -8.7650    4.8236   -0.0814 F   0  0  0  0  0  0  0  0  0  0  0  0
   -9.1512    2.5591   -0.1470 F   0  0  0  0  0  0  0  0  0  0  0  0
   -6.5274    3.1696    0.5542 H   0  0  0  0  0  0  0  0  0  0  0  0
   -3.0222    3.3650   -0.0690 H   0  0  0  0  0  0  0  0  0  0  0  0
   -4.3268    3.1898    1.1079 H   0  0  0  0  0  0  0  0  0  0  0  0
   -4.1180   -1.4058   -0.5482 H   0  0  0  0  0  0  0  0  0  0  0  0
   -4.5597   -2.9703    1.3007 H   0  0  0  0  0  0  0  0  0  0  0  0
   -5.0033   -1.6955    2.4246 H   0  0  0  0  0  0  0  0  0  0  0  0
   -7.3765   -0.7240    2.3620 H   0  0  0  0  0  0  0  0  0  0  0  0
   -9.5075   -1.3077    1.1161 H   0  0  0  0  0  0  0  0  0  0  0  0
   -5.2873   -3.6973   -1.1356 H   0  0  0  0  0  0  0  0  0  0  0  0
   -6.6940   -4.8046   -2.8994 H   0  0  0  0  0  0  0  0  0  0  0  0
   -9.1578   -4.3671   -2.8454 H   0  0  0  0  0  0  0  0  0  0  0  0
  -10.1964   -2.9282   -1.1875 H   0  0  0  0  0  0  0  0  0  0  0  0
   -2.4875   -2.4363    0.9100 H   0  0  0  0  0  0  0  0  0  0  0  0
    0.1413   -1.7777    0.8681 H   0  0  0  0  0  0  0  0  0  0  0  0
   -0.7533   -1.0066    3.7110 H   0  0  0  0  0  0  0  0  0  0  0  0
    0.6282   -2.1230    3.2311 H   0  0  0  0  0  0  0  0  0  0  0  0
    0.0585   -4.2840    2.1803 H   0  0  0  0  0  0  0  0  0  0  0  0
   -1.3398   -6.2243    2.3810 H   0  0  0  0  0  0  0  0  0  0  0  0
   -3.5316   -6.1077    3.3567 H   0  0  0  0  0  0  0  0  0  0  0  0
   -4.3925   -3.9285    4.1750 H   0  0  0  0  0  0  0  0  0  0  0  0
   -2.9792   -1.8466    3.9948 H   0  0  0  0  0  0  0  0  0  0  0  0
    0.1548    0.9378    2.1565 H   0  0  0  0  0  0  0  0  0  0  0  0
    2.3135    2.1085    1.1651 H   0  0  0  0  0  0  0  0  0  0  0  0
    2.4760    1.5533    2.8342 H   0  0  0  0  0  0  0  0  0  0  0  0
    4.7508    1.3955    2.4380 H   0  0  0  0  0  0  0  0  0  0  0  0
    6.5641    1.9100    0.7358 H   0  0  0  0  0  0  0  0  0  0  0  0
    6.8673   -0.5311   -1.1018 H   0  0  0  0  0  0  0  0  0  0  0  0
    7.3451    0.5600   -3.4001 H   0  0  0  0  0  0  0  0  0  0  0  0
    8.8151   -0.8172   -2.1065 H   0  0  0  0  0  0  0  0  0  0  0  0
    9.6530   -0.2151   -3.5759 H   0  0  0  0  0  0  0  0  0  0  0  0
    9.6024    0.0276    0.0470 H   0  0  0  0  0  0  0  0  0  0  0  0
   11.4952    0.9913    1.4076 H   0  0  0  0  0  0  0  0  0  0  0  0
   13.2615    2.3836   -2.2322 H   0  0  0  0  0  0  0  0  0  0  0  0
   11.4431    1.4424   -3.5163 H   0  0  0  0  0  0  0  0  0  0  0  0
   13.8667    3.1921    0.2076 H   0  0  0  0  0  0  0  0  0  0  0  0
    8.8540    3.0213   -3.0346 H   0  0  0  0  0  0  0  0  0  0  0  0
    9.2482    1.9098   -4.3356 H   0  0  0  0  0  0  0  0  0  0  0  0
    7.6524   -0.6922    1.2302 H   0  0  0  0  0  0  0  0  0  0  0  0
    6.9748    0.4476    2.5376 H   0  0  0  0  0  0  0  0  0  0  0  0
    5.9789   -0.8458    1.7797 H   0  0  0  0  0  0  0  0  0  0  0  0
   -3.7238    2.9840   -2.6370 H   0  0  0  0  0  0  0  0  0  0  0  0
   -7.8780    3.7118   -3.3737 H   0  0  0  0  0  0  0  0  0  0  0  0
  1  2  1  0
  2  3  1  0
  3  4  2  0
  4  5  1  0
  5  6  1  0
  6  7  1  0
  7  8  1  0
  8  9  2  0
  8 10  1  0
 10 11  1  0
 11 12  1  0
 12 13  2  0
 13 14  1  0
 14 15  1  0
 15 16  2  0
 16 17  1  0
 17 18  2  0
 18 19  1  0
 19 20  2  0
 10 21  1  0
 21 22  1  0
 22 23  2  0
 22 24  1  0
 24 25  1  0
 25 26  1  0
 26 27  2  0
 27 28  1  0
 28 29  2  0
 29 30  1  0
 30 31  2  0
 24 32  1  0
 32 33  1  0
 33 34  2  0
 33 35  1  0
 35 36  1  0
 36 37  1  0
 37 38  2  0
 37 39  1  0
 39 40  1  0
 40 41  1  0
 41 42  2  0
 41 43  1  0
 43 44  1  0
 44 45  1  0
 45 46  2  0
 46 47  1  0
 47 48  2  0
 48 49  1  0
 49 50  2  0
 48 51  1  0
 43 52  1  0
 39 53  1  0
  5 54  2  0
 54 55  1  0
 55 56  2  0
 55 57  1  0
 57 58  1  0
 57 59  1  0
 57 60  1  0
  2 61  1  0
  2 62  1  0
 56  3  1  0
 16 12  1  0
 31 26  1  0
 50 45  1  0
 20 15  1  0
  4 63  1  0
  6 64  1  0
  6 65  1  0
 10 66  1  6
 11 67  1  0
 11 68  1  0
 13 69  1  0
 14 70  1  0
 17 71  1  0
 18 72  1  0
 19 73  1  0
 20 74  1  0
 21 75  1  0
 24 76  1  6
 25 77  1  0
 25 78  1  0
 27 79  1  0
 28 80  1  0
 29 81  1  0
 30 82  1  0
 31 83  1  0
 32 84  1  0
 35 85  1  0
 35 86  1  0
 36 87  1  0
 39 88  1  1
 40 89  1  0
 43 90  1  6
 44 91  1  0
 44 92  1  0
 46 93  1  0
 47 94  1  0
 49 95  1  0
 50 96  1  0
 51 97  1  0
 52 98  1  0
 52 99  1  0
 53100  1  0
 53101  1  0
 53102  1  0
 54103  1  0
 56104  1  0
M  END
>  <Ligand ID>  (1) 
LIG0005375

>  <Ligand>  (1) 
CHEMBL3609616

>  <SMILES>  (1) 
FC(c1cc(COC(=O)[C@H](Cc2c[nH]c3c2cccc3)NC(=O)[C@H](Cc2ccccc2)NC(=O)CNC(=O)[C@H](NC(=O)[C@H](Cc2ccc(cc2)O)N)C)cc(c1)C(F)(F)F)(F)F

>  <CID>  (1) 
44176456.0

>  <ChEMBL ID>  (1) 
nan

>  <InChiKey>  (1) 
IQGTUPXJLRMAOA-OHQNULFHSA-N

>  <InChi>  (1) 
InChI=1S/C43H42F6N6O7/c1-24(53-39(59)33(50)17-26-11-13-31(56)14-12-26)38(58)52-22-37(57)54-35(18-25-7-3-2-4-8-25)40(60)55-36(19-28-21-51-34-10-6-5-9-32(28)34)41(61)62-23-27-15-29(42(44,45)46)20-30(16-27)43(47,48)49/h2-16,20-21,24,33,35-36,51,56H,17-19,22-23,50H2,1H3,(H,52,58)(H,53,59)(H,54,57)(H,55,60)/t24-,33+,35+,36+/m1/s1

>  <IUPAC Name>  (1) 
[3,5-bis(trifluoromethyl)phenyl]methyl (2S)-2-[[(2S)-2-[[2-[[(2R)-2-[[(2S)-2-amino-3-(4-hydroxyphenyl)propanoyl]amino]propanoyl]amino]acetyl]amino]-3-phenylpropanoyl]amino]-3-(1H-indol-3-yl)propanoate

$$$$
