
     RDKit          3D

 64 65  0  0  0  0  0  0  0  0999 V2000
    4.9854   -2.9172    1.3812 C   0  0  0  0  0  0  0  0  0  0  0  0
    4.9263   -1.5323    1.2028 O   0  0  0  0  0  0  0  0  0  0  0  0
    5.6159   -0.7720    0.2961 C   0  0  0  0  0  0  0  0  0  0  0  0
    6.5060   -1.3192   -0.6040 C   0  0  0  0  0  0  0  0  0  0  0  0
    7.1789   -0.5344   -1.4962 C   0  0  0  0  0  0  0  0  0  0  0  0
    6.9655    0.8216   -1.4963 C   0  0  0  0  0  0  0  0  0  0  0  0
    6.0667    1.3607   -0.5850 C   0  0  0  0  0  0  0  0  0  0  0  0
    5.3708    0.6177    0.3246 C   0  0  0  0  0  0  0  0  0  0  0  0
    4.4773    1.0522    1.2430 O   0  0  0  0  0  0  0  0  0  0  0  0
    3.9869    2.3128    1.5264 C   0  0  0  0  0  0  0  0  0  0  0  0
    3.2148    2.9921    0.4457 C   0  0  0  0  0  0  0  0  0  0  0  0
    1.9988    2.2016    0.0096 C   0  0  0  0  0  0  0  0  0  0  0  0
    1.0553    2.0210    1.1990 C   0  0  0  0  0  0  0  0  0  0  0  0
   -0.0280    1.3494    0.9461 O   0  0  0  0  0  0  0  0  0  0  0  0
   -1.1266    0.7770    0.6045 C   0  0  0  0  0  0  0  0  0  0  0  0
   -1.9474    1.2972   -0.4071 C   0  0  0  0  0  0  0  0  0  0  0  0
   -3.1249    0.6855   -0.7773 C   0  0  0  0  0  0  0  0  0  0  0  0
   -3.5043   -0.4662   -0.1349 C   0  0  0  0  0  0  0  0  0  0  0  0
   -2.7277   -1.0135    0.8660 C   0  0  0  0  0  0  0  0  0  0  0  0
   -1.5554   -0.4049    1.2339 C   0  0  0  0  0  0  0  0  0  0  0  0
   -0.6735   -0.9373    2.3018 C   0  0  0  0  0  0  0  0  0  0  0  0
   -3.1020   -2.1955    1.5351 O   0  0  0  0  0  0  0  0  0  0  0  0
   -4.7313   -1.1230   -0.4738 C   0  0  0  0  0  0  0  0  0  0  0  0
   -5.0521   -2.1751    0.1917 O   0  0  0  0  0  0  0  0  0  0  0  0
   -5.6941   -0.7278   -1.5200 C   0  0  0  0  0  0  0  0  0  0  0  0
   -7.1010   -0.5928   -0.9763 C   0  0  0  0  0  0  0  0  0  0  0  0
   -7.0561    0.4936    0.1099 C   0  0  0  0  0  0  0  0  0  0  0  0
   -7.6202   -1.8372   -0.3280 C   0  0  0  0  0  0  0  0  0  0  0  0
   -8.0225   -0.1653   -2.0975 C   0  0  0  0  0  0  0  0  0  0  0  0
    8.1191   -1.0899   -2.4564 C   0  0  0  0  0  0  0  0  0  0  0  0
    8.2990   -2.3185   -2.4486 O   0  0  0  0  0  0  0  0  0  0  0  0
    8.8035   -0.3151   -3.3561 O   0  0  0  0  0  0  0  0  0  0  0  0
    5.6621   -3.4411    0.6915 H   0  0  0  0  0  0  0  0  0  0  0  0
    5.3672   -3.1811    2.4132 H   0  0  0  0  0  0  0  0  0  0  0  0
    3.9536   -3.3305    1.2965 H   0  0  0  0  0  0  0  0  0  0  0  0
    6.7153   -2.3910   -0.6480 H   0  0  0  0  0  0  0  0  0  0  0  0
    7.4816    1.4796   -2.1902 H   0  0  0  0  0  0  0  0  0  0  0  0
    5.9447    2.4168   -0.6118 H   0  0  0  0  0  0  0  0  0  0  0  0
    4.9000    2.9749    1.6975 H   0  0  0  0  0  0  0  0  0  0  0  0
    3.4621    2.3655    2.5122 H   0  0  0  0  0  0  0  0  0  0  0  0
    2.8562    3.9843    0.8740 H   0  0  0  0  0  0  0  0  0  0  0  0
    3.8600    3.2745   -0.3839 H   0  0  0  0  0  0  0  0  0  0  0  0
    1.5249    2.7212   -0.8270 H   0  0  0  0  0  0  0  0  0  0  0  0
    2.3266    1.2050   -0.2998 H   0  0  0  0  0  0  0  0  0  0  0  0
    0.8044    3.0605    1.6022 H   0  0  0  0  0  0  0  0  0  0  0  0
    1.7045    1.5140    1.9799 H   0  0  0  0  0  0  0  0  0  0  0  0
   -1.6508    2.2175   -0.9224 H   0  0  0  0  0  0  0  0  0  0  0  0
   -3.6868    1.1583   -1.5631 H   0  0  0  0  0  0  0  0  0  0  0  0
    0.1612   -1.5244    1.8823 H   0  0  0  0  0  0  0  0  0  0  0  0
   -0.3101   -0.1377    2.9845 H   0  0  0  0  0  0  0  0  0  0  0  0
   -1.2852   -1.6510    2.9168 H   0  0  0  0  0  0  0  0  0  0  0  0
   -3.7347   -2.0902    2.3071 H   0  0  0  0  0  0  0  0  0  0  0  0
   -5.3998    0.2384   -1.9474 H   0  0  0  0  0  0  0  0  0  0  0  0
   -5.6764   -1.4553   -2.3698 H   0  0  0  0  0  0  0  0  0  0  0  0
   -6.8876    1.4522   -0.4099 H   0  0  0  0  0  0  0  0  0  0  0  0
   -7.9958    0.4637    0.6623 H   0  0  0  0  0  0  0  0  0  0  0  0
   -6.1412    0.2924    0.7109 H   0  0  0  0  0  0  0  0  0  0  0  0
   -7.3288   -2.7603   -0.8458 H   0  0  0  0  0  0  0  0  0  0  0  0
   -8.7455   -1.7766   -0.2959 H   0  0  0  0  0  0  0  0  0  0  0  0
   -7.2879   -1.8680    0.7491 H   0  0  0  0  0  0  0  0  0  0  0  0
   -7.9186   -0.8565   -2.9511 H   0  0  0  0  0  0  0  0  0  0  0  0
   -9.0824   -0.1788   -1.7867 H   0  0  0  0  0  0  0  0  0  0  0  0
   -7.7560    0.8770   -2.4016 H   0  0  0  0  0  0  0  0  0  0  0  0
    9.6600   -0.5980   -3.8133 H   0  0  0  0  0  0  0  0  0  0  0  0
  1  2  1  0
  2  3  1  0
  3  4  2  0
  4  5  1  0
  5  6  2  0
  6  7  1  0
  7  8  2  0
  8  9  1  0
  9 10  1  0
 10 11  1  0
 11 12  1  0
 12 13  1  0
 13 14  1  0
 14 15  1  0
 15 16  2  0
 16 17  1  0
 17 18  2  0
 18 19  1  0
 19 20  2  0
 20 21  1  0
 19 22  1  0
 18 23  1  0
 23 24  2  0
 23 25  1  0
 25 26  1  0
 26 27  1  0
 26 28  1  0
 26 29  1  0
  5 30  1  0
 30 31  2  0
 30 32  1  0
  8  3  1  0
 20 15  1  0
  1 33  1  0
  1 34  1  0
  1 35  1  0
  4 36  1  0
  6 37  1  0
  7 38  1  0
 10 39  1  0
 10 40  1  0
 11 41  1  0
 11 42  1  0
 12 43  1  0
 12 44  1  0
 13 45  1  0
 13 46  1  0
 16 47  1  0
 17 48  1  0
 21 49  1  0
 21 50  1  0
 21 51  1  0
 22 52  1  0
 25 53  1  0
 25 54  1  0
 27 55  1  0
 27 56  1  0
 27 57  1  0
 28 58  1  0
 28 59  1  0
 28 60  1  0
 29 61  1  0
 29 62  1  0
 29 63  1  0
 32 64  1  0
M  END
>  <Ligand ID>  (1) 
LIG0001702

>  <Ligand>  (1) 
CHEMBL3287724

>  <SMILES>  (1) 
COc1cc(ccc1OCCCCOc1ccc(c(c1C)O)C(=O)CC(C)(C)C)C(=O)O

>  <CID>  (1) 
90643888.0

>  <ChEMBL ID>  (1) 
nan

>  <InChiKey>  (1) 
UJDHAHLKIGUYNG-UHFFFAOYSA-N

>  <InChi>  (1) 
InChI=1S/C25H32O7/c1-16-20(11-9-18(23(16)27)19(26)15-25(2,3)4)31-12-6-7-13-32-21-10-8-17(24(28)29)14-22(21)30-5/h8-11,14,27H,6-7,12-13,15H2,1-5H3,(H,28,29)

>  <IUPAC Name>  (1) 
4-[4-[4-(3,3-dimethylbutanoyl)-3-hydroxy-2-methylphenoxy]butoxy]-3-methoxybenzoic acid

$$$$
