
     RDKit          3D

 51 53  0  0  0  0  0  0  0  0999 V2000
    1.1496    1.1637    0.0793 O   0  0  0  0  0  0  0  0  0  0  0  0
    1.1633    0.6428   -1.0631 C   0  0  0  0  0  0  0  0  0  0  0  0
    0.0142   -0.1003   -1.4453 N   0  0  0  0  0  0  0  0  0  0  0  0
   -1.1441   -0.2733   -0.5795 C   0  0  0  0  0  0  0  0  0  0  0  0
   -0.6801   -0.9700    0.6617 C   0  0  0  0  0  0  0  0  0  0  0  0
    0.1820   -2.1465    0.1796 C   0  0  0  0  0  0  0  0  0  0  0  0
   -0.7469   -3.1282   -0.5019 C   0  0  0  0  0  0  0  0  0  0  0  0
   -2.1364   -2.5682   -0.6802 C   0  0  0  0  0  0  0  0  0  0  0  0
   -2.1131   -1.1929   -1.2756 C   0  0  0  0  0  0  0  0  0  0  0  0
   -1.7681    1.0322   -0.3777 C   0  0  0  0  0  0  0  0  0  0  0  0
   -1.2166    2.0340   -0.9522 O   0  0  0  0  0  0  0  0  0  0  0  0
   -2.9186    1.3123    0.3851 N   0  0  0  0  0  0  0  0  0  0  0  0
   -3.4527    2.6777    0.5153 C   0  0  0  0  0  0  0  0  0  0  0  0
   -4.9151    2.3781    0.2387 C   0  0  0  0  0  0  0  0  0  0  0  0
   -5.1663    0.9856    0.7360 C   0  0  0  0  0  0  0  0  0  0  0  0
   -3.8041    0.4836    1.1609 C   0  0  0  0  0  0  0  0  0  0  0  0
    2.2653    0.7821   -1.9379 N   0  0  0  0  0  0  0  0  0  0  0  0
    3.4690    1.5163   -1.6314 C   0  0  0  0  0  0  0  0  0  0  0  0
    4.3868    0.7980   -0.7161 C   0  0  0  0  0  0  0  0  0  0  0  0
    4.3593    0.9219    0.6539 C   0  0  0  0  0  0  0  0  0  0  0  0
    5.2284    0.2364    1.4921 C   0  0  0  0  0  0  0  0  0  0  0  0
    6.1468   -0.5967    0.8886 C   0  0  0  0  0  0  0  0  0  0  0  0
    6.2165   -0.7563   -0.4786 C   0  0  0  0  0  0  0  0  0  0  0  0
    5.3191   -0.0437   -1.2754 C   0  0  0  0  0  0  0  0  0  0  0  0
    0.0397   -0.5341   -2.4154 H   0  0  0  0  0  0  0  0  0  0  0  0
   -0.0793   -0.3495    1.3502 H   0  0  0  0  0  0  0  0  0  0  0  0
   -1.4828   -1.4519    1.2513 H   0  0  0  0  0  0  0  0  0  0  0  0
    0.6103   -2.6085    1.0957 H   0  0  0  0  0  0  0  0  0  0  0  0
    0.9344   -1.7517   -0.5203 H   0  0  0  0  0  0  0  0  0  0  0  0
   -0.8701   -4.0339    0.1621 H   0  0  0  0  0  0  0  0  0  0  0  0
   -0.3411   -3.4252   -1.4828 H   0  0  0  0  0  0  0  0  0  0  0  0
   -2.7613   -2.6716    0.2263 H   0  0  0  0  0  0  0  0  0  0  0  0
   -2.6462   -3.2200   -1.4484 H   0  0  0  0  0  0  0  0  0  0  0  0
   -3.1500   -0.8062   -1.3114 H   0  0  0  0  0  0  0  0  0  0  0  0
   -1.8356   -1.3148   -2.3651 H   0  0  0  0  0  0  0  0  0  0  0  0
   -3.2770    3.0009    1.5611 H   0  0  0  0  0  0  0  0  0  0  0  0
   -3.0235    3.3733   -0.2063 H   0  0  0  0  0  0  0  0  0  0  0  0
   -5.0164    2.3176   -0.8795 H   0  0  0  0  0  0  0  0  0  0  0  0
   -5.5986    3.1462    0.6306 H   0  0  0  0  0  0  0  0  0  0  0  0
   -5.8749    0.9531    1.5884 H   0  0  0  0  0  0  0  0  0  0  0  0
   -5.5201    0.2767   -0.0628 H   0  0  0  0  0  0  0  0  0  0  0  0
   -3.6033    0.7673    2.2333 H   0  0  0  0  0  0  0  0  0  0  0  0
   -3.6909   -0.6016    1.0049 H   0  0  0  0  0  0  0  0  0  0  0  0
    2.2062    0.3144   -2.8887 H   0  0  0  0  0  0  0  0  0  0  0  0
    4.0138    1.7609   -2.5768 H   0  0  0  0  0  0  0  0  0  0  0  0
    3.1547    2.4650   -1.1229 H   0  0  0  0  0  0  0  0  0  0  0  0
    3.6397    1.5780    1.1210 H   0  0  0  0  0  0  0  0  0  0  0  0
    5.1738    0.3621    2.5714 H   0  0  0  0  0  0  0  0  0  0  0  0
    6.8458   -1.1517    1.5228 H   0  0  0  0  0  0  0  0  0  0  0  0
    6.9305   -1.4048   -0.9670 H   0  0  0  0  0  0  0  0  0  0  0  0
    5.3837   -0.1786   -2.3551 H   0  0  0  0  0  0  0  0  0  0  0  0
  1  2  2  0
  2  3  1  0
  3  4  1  0
  4  5  1  0
  5  6  1  0
  6  7  1  0
  7  8  1  0
  8  9  1  0
  4 10  1  0
 10 11  2  0
 10 12  1  0
 12 13  1  0
 13 14  1  0
 14 15  1  0
 15 16  1  0
  2 17  1  0
 17 18  1  0
 18 19  1  0
 19 20  2  0
 20 21  1  0
 21 22  2  0
 22 23  1  0
 23 24  2  0
  9  4  1  0
 16 12  1  0
 24 19  1  0
  3 25  1  0
  5 26  1  0
  5 27  1  0
  6 28  1  0
  6 29  1  0
  7 30  1  0
  7 31  1  0
  8 32  1  0
  8 33  1  0
  9 34  1  0
  9 35  1  0
 13 36  1  0
 13 37  1  0
 14 38  1  0
 14 39  1  0
 15 40  1  0
 15 41  1  0
 16 42  1  0
 16 43  1  0
 17 44  1  0
 18 45  1  0
 18 46  1  0
 20 47  1  0
 21 48  1  0
 22 49  1  0
 23 50  1  0
 24 51  1  0
M  END
>  <Ligand ID>  (1) 
LIG0003043

>  <Ligand>  (1) 
SMR000000429

>  <SMILES>  (1) 
O=C(NC1(CCCCC1)C(=O)N1CCCC1)NCc1ccccc1

>  <CID>  (1) 
647179.0

>  <ChEMBL ID>  (1) 
nan

>  <InChiKey>  (1) 
MAOPJHOUQJUPDK-UHFFFAOYSA-N

>  <InChi>  (1) 
InChI=1S/C19H27N3O2/c23-17(22-13-7-8-14-22)19(11-5-2-6-12-19)21-18(24)20-15-16-9-3-1-4-10-16/h1,3-4,9-10H,2,5-8,11-15H2,(H2,20,21,24)

>  <IUPAC Name>  (1) 
1-benzyl-3-[1-(pyrrolidine-1-carbonyl)cyclohexyl]urea

$$$$
