
     RDKit          3D

 30 31  0  0  0  0  0  0  0  0999 V2000
   -2.6171   -0.5073   -2.4659 C   0  0  0  0  0  0  0  0  0  0  0  0
   -2.1410   -1.7117   -1.1905 S   0  0  0  0  0  0  0  0  0  0  0  0
   -2.3644   -0.9221    0.4046 C   0  0  0  0  0  0  0  0  0  0  0  0
   -3.5556   -0.9908    1.0981 C   0  0  0  0  0  0  0  0  0  0  0  0
   -3.7078   -0.3688    2.3384 C   0  0  0  0  0  0  0  0  0  0  0  0
   -4.8821   -0.4445    3.0075 F   0  0  0  0  0  0  0  0  0  0  0  0
   -2.6209    0.3178    2.8447 C   0  0  0  0  0  0  0  0  0  0  0  0
   -1.4164    0.3899    2.1483 C   0  0  0  0  0  0  0  0  0  0  0  0
   -1.2798   -0.2307    0.9214 C   0  0  0  0  0  0  0  0  0  0  0  0
   -0.0547   -0.1637    0.2013 N   0  0  0  0  0  0  0  0  0  0  0  0
    1.1053    0.5573    0.7203 C   0  0  0  0  0  0  0  0  0  0  0  0
    2.2527    0.4623   -0.2422 C   0  0  0  0  0  0  0  0  0  0  0  0
    2.2328   -0.1646   -1.3732 N   0  0  0  0  0  0  0  0  0  0  0  0
    3.5274   -0.0435   -2.0423 C   0  0  0  0  0  0  0  0  0  0  0  0
    4.4445    0.2850   -0.8769 C   0  0  0  0  0  0  0  0  0  0  0  0
    3.5274    1.0571   -0.0326 N   0  0  0  0  0  0  0  0  0  0  0  0
   -2.6938   -0.9853   -3.4638 H   0  0  0  0  0  0  0  0  0  0  0  0
   -3.5931   -0.0223   -2.2402 H   0  0  0  0  0  0  0  0  0  0  0  0
   -1.8210    0.2614   -2.5226 H   0  0  0  0  0  0  0  0  0  0  0  0
   -4.3801   -1.5519    0.6405 H   0  0  0  0  0  0  0  0  0  0  0  0
   -2.7294    0.8011    3.8017 H   0  0  0  0  0  0  0  0  0  0  0  0
   -0.5609    0.9209    2.5297 H   0  0  0  0  0  0  0  0  0  0  0  0
    0.0234   -0.6373   -0.7171 H   0  0  0  0  0  0  0  0  0  0  0  0
    1.3898    0.1201    1.7092 H   0  0  0  0  0  0  0  0  0  0  0  0
    0.8262    1.6062    0.9185 H   0  0  0  0  0  0  0  0  0  0  0  0
    3.5339    0.8194   -2.7264 H   0  0  0  0  0  0  0  0  0  0  0  0
    3.7883   -1.0037   -2.5238 H   0  0  0  0  0  0  0  0  0  0  0  0
    4.7007   -0.6219   -0.2905 H   0  0  0  0  0  0  0  0  0  0  0  0
    5.2996    0.9000   -1.1656 H   0  0  0  0  0  0  0  0  0  0  0  0
    3.7659    1.8713    0.5895 H   0  0  0  0  0  0  0  0  0  0  0  0
  1  2  1  0
  2  3  1  0
  3  4  2  0
  4  5  1  0
  5  6  1  0
  5  7  2  0
  7  8  1  0
  8  9  2  0
  9 10  1  0
 10 11  1  0
 11 12  1  0
 12 13  2  0
 13 14  1  0
 14 15  1  0
 15 16  1  0
  9  3  1  0
 16 12  1  0
  1 17  1  0
  1 18  1  0
  1 19  1  0
  4 20  1  0
  7 21  1  0
  8 22  1  0
 10 23  1  0
 11 24  1  0
 11 25  1  0
 14 26  1  0
 14 27  1  0
 15 28  1  0
 15 29  1  0
 16 30  1  0
M  END
>  <Ligand ID>  (1) 
LIG0001011

>  <Ligand>  (1) 
CHEMBL306792

>  <SMILES>  (1) 
CSc1cc(F)ccc1NCC1=NCCN1

>  <CID>  (1) 
11097789.0

>  <ChEMBL ID>  (1) 
nan

>  <InChiKey>  (1) 
XBBHVMXFPPVGMX-UHFFFAOYSA-N

>  <InChi>  (1) 
InChI=1S/C11H14FN3S/c1-16-10-6-8(12)2-3-9(10)15-7-11-13-4-5-14-11/h2-3,6,15H,4-5,7H2,1H3,(H,13,14)

>  <IUPAC Name>  (1) 
N-(4,5-dihydro-1H-imidazol-2-ylmethyl)-4-fluoro-2-methylsulfanylaniline

$$$$
