
     RDKit          3D

 31 32  0  0  0  0  0  0  0  0999 V2000
   -3.7435   -0.2302    0.5796 C   0  0  0  0  0  0  0  0  0  0  0  0
   -2.4469    0.3586    0.1068 C   0  0  0  0  0  0  0  0  0  0  0  0
   -2.3843    1.7092   -0.1589 C   0  0  0  0  0  0  0  0  0  0  0  0
   -1.1787    2.2063   -0.5887 C   0  0  0  0  0  0  0  0  0  0  0  0
   -0.0794    1.3934   -0.7474 C   0  0  0  0  0  0  0  0  0  0  0  0
   -0.1156    0.0185   -0.4840 C   0  0  0  0  0  0  0  0  0  0  0  0
   -1.3286   -0.4708   -0.0547 C   0  0  0  0  0  0  0  0  0  0  0  0
   -1.5118   -1.8937    0.2288 C   0  0  0  0  0  0  0  0  0  0  0  0
    1.1079   -0.7617   -0.6590 C   0  0  1  0  0  0  0  0  0  0  0  0
    2.2581    0.1989   -0.3980 C   0  0  0  0  0  0  0  0  0  0  0  0
    3.0210    0.8706   -1.2983 C   0  0  0  0  0  0  0  0  0  0  0  0
    3.9355    1.6197   -0.6355 N   0  0  0  0  0  0  0  0  0  0  0  0
    3.7463    1.4179    0.6800 C   0  0  0  0  0  0  0  0  0  0  0  0
    2.7211    0.5495    0.8272 N   0  0  0  0  0  0  0  0  0  0  0  0
    1.3402   -1.8512    0.3644 C   0  0  0  0  0  0  0  0  0  0  0  0
   -4.4220    0.5913    0.8633 H   0  0  0  0  0  0  0  0  0  0  0  0
   -4.1952   -0.9188   -0.1359 H   0  0  0  0  0  0  0  0  0  0  0  0
   -3.5754   -0.7959    1.5429 H   0  0  0  0  0  0  0  0  0  0  0  0
   -3.2766    2.3005   -0.0171 H   0  0  0  0  0  0  0  0  0  0  0  0
   -1.1315    3.2674   -0.7973 H   0  0  0  0  0  0  0  0  0  0  0  0
    0.8262    1.8849   -1.0927 H   0  0  0  0  0  0  0  0  0  0  0  0
   -2.6198   -2.1263    0.3311 H   0  0  0  0  0  0  0  0  0  0  0  0
   -1.2356   -2.5409   -0.6573 H   0  0  0  0  0  0  0  0  0  0  0  0
   -1.0927   -2.2572    1.1820 H   0  0  0  0  0  0  0  0  0  0  0  0
    1.2647   -1.1318   -1.6771 H   0  0  0  0  0  0  0  0  0  0  0  0
    2.8781    0.7852   -2.3790 H   0  0  0  0  0  0  0  0  0  0  0  0
    4.3486    1.9006    1.4470 H   0  0  0  0  0  0  0  0  0  0  0  0
    2.3487    0.2060    1.7469 H   0  0  0  0  0  0  0  0  0  0  0  0
    2.4719   -2.0005    0.3918 H   0  0  0  0  0  0  0  0  0  0  0  0
    1.1213   -1.4700    1.3785 H   0  0  0  0  0  0  0  0  0  0  0  0
    0.9481   -2.8296    0.1107 H   0  0  0  0  0  0  0  0  0  0  0  0
  1  2  1  0
  2  3  2  0
  3  4  1  0
  4  5  2  0
  5  6  1  0
  6  7  2  0
  7  8  1  0
  6  9  1  0
  9 10  1  0
 10 11  2  0
 11 12  1  0
 12 13  2  0
 13 14  1  0
  9 15  1  0
  7  2  1  0
 14 10  1  0
  1 16  1  0
  1 17  1  0
  1 18  1  0
  3 19  1  0
  4 20  1  0
  5 21  1  0
  8 22  1  0
  8 23  1  0
  8 24  1  0
  9 25  1  6
 11 26  1  0
 13 27  1  0
 14 28  1  0
 15 29  1  0
 15 30  1  0
 15 31  1  0
M  END
>  <Ligand ID>  (1) 
LIG0003583

>  <Ligand>  (1) 
DEXMEDETOMIDINE

>  <SMILES>  (1) 
Cc1cccc(c1C)[C@@H](c1cnc[nH]1)C

>  <CID>  (1) 
5311068.0

>  <ChEMBL ID>  (1) 
nan

>  <InChiKey>  (1) 
CUHVIMMYOGQXCV-NSHDSACASA-N

>  <InChi>  (1) 
InChI=1S/C13H16N2/c1-9-5-4-6-12(10(9)2)11(3)13-7-14-8-15-13/h4-8,11H,1-3H3,(H,14,15)/t11-/m0/s1

>  <IUPAC Name>  (1) 
5-[(1S)-1-(2,3-dimethylphenyl)ethyl]-1H-imidazole

$$$$
