
     RDKit          3D

 32 34  0  0  0  0  0  0  0  0999 V2000
   -2.7773    1.7424    0.5875 C   0  0  0  0  0  0  0  0  0  0  0  0
   -2.3409    0.3215    0.7464 C   0  0  1  0  0  0  0  0  0  0  0  0
   -3.0919   -0.6282   -0.1874 C   0  0  0  0  0  0  0  0  0  0  0  0
   -2.5480   -0.6165   -1.5081 N   0  0  0  0  0  0  0  0  0  0  0  0
   -1.1584   -0.9438   -1.6099 C   0  0  0  0  0  0  0  0  0  0  0  0
   -0.5263   -1.0572   -0.2599 C   0  0  2  0  0  0  0  0  0  0  0  0
   -0.9444    0.0921    0.5207 N   0  0  0  0  0  0  0  0  0  0  0  0
    0.1980    0.8186    0.9394 C   0  0  0  0  0  0  0  0  0  0  0  0
    0.2396    1.8538    1.6195 O   0  0  0  0  0  0  0  0  0  0  0  0
    1.3629    0.1066    0.4089 C   0  0  0  0  0  0  0  0  0  0  0  0
    0.9531   -1.0083   -0.3044 C   0  0  0  0  0  0  0  0  0  0  0  0
    1.8297   -1.8699   -0.9179 C   0  0  0  0  0  0  0  0  0  0  0  0
    3.1896   -1.5951   -0.8077 C   0  0  0  0  0  0  0  0  0  0  0  0
    3.6100   -0.4818   -0.0961 C   0  0  0  0  0  0  0  0  0  0  0  0
    2.7126    0.3746    0.5151 C   0  0  0  0  0  0  0  0  0  0  0  0
    3.1453    1.5728    1.2820 C   0  0  0  0  0  0  0  0  0  0  0  0
    2.5905    2.6764    0.6769 F   0  0  0  0  0  0  0  0  0  0  0  0
    4.5149    1.7176    1.1995 F   0  0  0  0  0  0  0  0  0  0  0  0
    2.8153    1.4860    2.6217 F   0  0  0  0  0  0  0  0  0  0  0  0
   -2.3225    2.2506   -0.2819 H   0  0  0  0  0  0  0  0  0  0  0  0
   -3.8659    1.7736    0.4782 H   0  0  0  0  0  0  0  0  0  0  0  0
   -2.4833    2.2872    1.5204 H   0  0  0  0  0  0  0  0  0  0  0  0
   -2.5292    0.0454    1.8108 H   0  0  0  0  0  0  0  0  0  0  0  0
   -4.1272   -0.2394   -0.2561 H   0  0  0  0  0  0  0  0  0  0  0  0
   -3.1131   -1.6606    0.2319 H   0  0  0  0  0  0  0  0  0  0  0  0
   -2.8506    0.2215   -2.0529 H   0  0  0  0  0  0  0  0  0  0  0  0
   -1.0593   -1.9286   -2.1418 H   0  0  0  0  0  0  0  0  0  0  0  0
   -0.6648   -0.1554   -2.2440 H   0  0  0  0  0  0  0  0  0  0  0  0
   -0.9115   -1.9585    0.2347 H   0  0  0  0  0  0  0  0  0  0  0  0
    1.5481   -2.7380   -1.4752 H   0  0  0  0  0  0  0  0  0  0  0  0
    3.9460   -2.2346   -1.2686 H   0  0  0  0  0  0  0  0  0  0  0  0
    4.6590   -0.2250    0.0185 H   0  0  0  0  0  0  0  0  0  0  0  0
  1  2  1  0
  2  3  1  0
  3  4  1  0
  4  5  1  0
  5  6  1  0
  6  7  1  0
  7  8  1  0
  8  9  2  0
  8 10  1  0
 10 11  2  0
 11 12  1  0
 12 13  2  0
 13 14  1  0
 14 15  2  0
 15 16  1  0
 16 17  1  0
 16 18  1  0
 16 19  1  0
  7  2  1  0
 15 10  1  0
 11  6  1  0
  1 20  1  0
  1 21  1  0
  1 22  1  0
  2 23  1  1
  3 24  1  0
  3 25  1  0
  4 26  1  0
  5 27  1  0
  5 28  1  0
  6 29  1  1
 12 30  1  0
 13 31  1  0
 14 32  1  0
M  END
>  <Ligand ID>  (1) 
LIG0002312

>  <Ligand>  (1) 
CHEMBL376676

>  <SMILES>  (1) 
C[C@H]1CNC[C@@H]2N1C(=O)c1c2cccc1C(F)(F)F

>  <CID>  (1) 
16115269.0

>  <ChEMBL ID>  (1) 
nan

>  <InChiKey>  (1) 
MNIPSARJNABKIZ-XVKPBYJWSA-N

>  <InChi>  (1) 
InChI=1S/C13H13F3N2O/c1-7-5-17-6-10-8-3-2-4-9(13(14,15)16)11(8)12(19)18(7)10/h2-4,7,10,17H,5-6H2,1H3/t7-,10-/m0/s1

>  <IUPAC Name>  (1) 
(4S,10bR)-4-methyl-7-(trifluoromethyl)-2,3,4,10b-tetrahydro-1H-pyrazino[1,2-b]isoindol-6-one

$$$$
