
     RDKit          3D

 60 63  0  0  0  0  0  0  0  0999 V2000
   10.1377    0.8014    1.7937 C   0  0  0  0  0  0  0  0  0  0  0  0
   10.0464    0.0280    0.4989 C   0  0  1  0  0  0  0  0  0  0  0  0
    8.6566    0.1259   -0.1065 C   0  0  0  0  0  0  0  0  0  0  0  0
    7.6547   -0.4335    0.6928 O   0  0  0  0  0  0  0  0  0  0  0  0
    6.3436   -0.4046    0.2449 C   0  0  0  0  0  0  0  0  0  0  0  0
    5.9495    0.1434   -0.9490 C   0  0  0  0  0  0  0  0  0  0  0  0
    4.6312    0.1628   -1.3808 C   0  0  0  0  0  0  0  0  0  0  0  0
    4.2022    0.8853   -2.9282 Cl  0  0  0  0  0  0  0  0  0  0  0  0
    3.6728   -0.4021   -0.5576 C   0  0  0  0  0  0  0  0  0  0  0  0
    4.0527   -0.9505    0.6329 C   0  0  0  0  0  0  0  0  0  0  0  0
    5.3696   -0.9707    1.0659 C   0  0  0  0  0  0  0  0  0  0  0  0
    5.7178   -1.5315    2.2714 F   0  0  0  0  0  0  0  0  0  0  0  0
    2.2767   -0.3896   -0.9989 C   0  0  0  0  0  0  0  0  0  0  0  0
    1.8263    0.1100   -2.1125 O   0  0  0  0  0  0  0  0  0  0  0  0
    0.5375   -0.0403   -2.2028 N   0  0  0  0  0  0  0  0  0  0  0  0
    0.1281   -0.6808   -1.0700 C   0  0  0  0  0  0  0  0  0  0  0  0
    1.2286   -0.8937   -0.3241 N   0  0  0  0  0  0  0  0  0  0  0  0
   -1.2073   -1.0413   -0.7623 N   0  0  0  0  0  0  0  0  0  0  0  0
   -2.2842   -0.7504   -1.6585 C   0  0  0  0  0  0  0  0  0  0  0  0
   -3.3669   -0.0563   -0.8379 C   0  0  0  0  0  0  0  0  0  0  0  0
   -3.8431   -1.0600    0.1156 N   0  0  0  0  0  0  0  0  0  0  0  0
   -2.9180   -2.0035    0.7108 C   0  0  0  0  0  0  0  0  0  0  0  0
   -1.4828   -1.7119    0.4737 C   0  0  0  0  0  0  0  0  0  0  0  0
   -5.2106   -1.1543    0.4962 C   0  0  0  0  0  0  0  0  0  0  0  0
   -5.6251   -2.0294    1.3265 O   0  0  0  0  0  0  0  0  0  0  0  0
   -6.2443   -0.2411   -0.0476 C   0  0  0  0  0  0  0  0  0  0  0  0
   -6.0336    1.2325    0.2317 C   0  0  0  0  0  0  0  0  0  0  0  0
   -7.5495    1.3185    0.4486 C   0  0  0  0  0  0  0  0  0  0  0  0
   -7.5003   -0.1551    0.7953 C   0  0  0  0  0  0  0  0  0  0  0  0
   -8.2654    1.5106   -0.8540 C   0  0  0  0  0  0  0  0  0  0  0  0
   -7.9497    2.2386    1.5761 C   0  0  0  0  0  0  0  0  0  0  0  0
   10.9086    0.6267   -0.4203 O   0  0  0  0  0  0  0  0  0  0  0  0
    9.8951    0.1790    2.6888 H   0  0  0  0  0  0  0  0  0  0  0  0
   11.1922    1.1642    1.9727 H   0  0  0  0  0  0  0  0  0  0  0  0
    9.5323    1.7289    1.7479 H   0  0  0  0  0  0  0  0  0  0  0  0
   10.3038   -1.0457    0.6671 H   0  0  0  0  0  0  0  0  0  0  0  0
    8.4779    1.2123   -0.3009 H   0  0  0  0  0  0  0  0  0  0  0  0
    8.6365   -0.3615   -1.0976 H   0  0  0  0  0  0  0  0  0  0  0  0
    6.7350    0.5780   -1.5678 H   0  0  0  0  0  0  0  0  0  0  0  0
    3.2660   -1.3900    1.2610 H   0  0  0  0  0  0  0  0  0  0  0  0
   -2.7485   -1.7226   -1.9862 H   0  0  0  0  0  0  0  0  0  0  0  0
   -1.9836   -0.1362   -2.5231 H   0  0  0  0  0  0  0  0  0  0  0  0
   -4.1673    0.2364   -1.5455 H   0  0  0  0  0  0  0  0  0  0  0  0
   -2.8722    0.8005   -0.3356 H   0  0  0  0  0  0  0  0  0  0  0  0
   -3.0832   -1.9513    1.8229 H   0  0  0  0  0  0  0  0  0  0  0  0
   -3.2114   -3.0383    0.4113 H   0  0  0  0  0  0  0  0  0  0  0  0
   -0.9627   -2.7114    0.3896 H   0  0  0  0  0  0  0  0  0  0  0  0
   -0.9809   -1.2180    1.3235 H   0  0  0  0  0  0  0  0  0  0  0  0
   -6.4175   -0.3905   -1.1335 H   0  0  0  0  0  0  0  0  0  0  0  0
   -5.6692    1.8476   -0.5995 H   0  0  0  0  0  0  0  0  0  0  0  0
   -5.5578    1.4633    1.2236 H   0  0  0  0  0  0  0  0  0  0  0  0
   -7.2322   -0.3688    1.8593 H   0  0  0  0  0  0  0  0  0  0  0  0
   -8.3534   -0.7511    0.4140 H   0  0  0  0  0  0  0  0  0  0  0  0
   -9.0109    2.3335   -0.8311 H   0  0  0  0  0  0  0  0  0  0  0  0
   -7.5857    1.6882   -1.7125 H   0  0  0  0  0  0  0  0  0  0  0  0
   -8.8577    0.5936   -1.1365 H   0  0  0  0  0  0  0  0  0  0  0  0
   -9.0169    2.5126    1.4448 H   0  0  0  0  0  0  0  0  0  0  0  0
   -7.3659    3.1748    1.6184 H   0  0  0  0  0  0  0  0  0  0  0  0
   -7.8354    1.7053    2.5511 H   0  0  0  0  0  0  0  0  0  0  0  0
   11.0137    1.5838   -0.1722 H   0  0  0  0  0  0  0  0  0  0  0  0
  1  2  1  0
  2  3  1  0
  3  4  1  0
  4  5  1  0
  5  6  2  0
  6  7  1  0
  7  8  1  0
  7  9  2  0
  9 10  1  0
 10 11  2  0
 11 12  1  0
  9 13  1  0
 13 14  1  0
 14 15  1  0
 15 16  2  0
 16 17  1  0
 16 18  1  0
 18 19  1  0
 19 20  1  0
 20 21  1  0
 21 22  1  0
 22 23  1  0
 21 24  1  0
 24 25  2  0
 24 26  1  0
 26 27  1  0
 27 28  1  0
 28 29  1  0
 28 30  1  0
 28 31  1  0
  2 32  1  0
 11  5  1  0
 17 13  2  0
 23 18  1  0
 29 26  1  0
  1 33  1  0
  1 34  1  0
  1 35  1  0
  2 36  1  1
  3 37  1  0
  3 38  1  0
  6 39  1  0
 10 40  1  0
 19 41  1  0
 19 42  1  0
 20 43  1  0
 20 44  1  0
 22 45  1  0
 22 46  1  0
 23 47  1  0
 23 48  1  0
 26 49  1  0
 27 50  1  0
 27 51  1  0
 29 52  1  0
 29 53  1  0
 30 54  1  0
 30 55  1  0
 30 56  1  0
 31 57  1  0
 31 58  1  0
 31 59  1  0
 32 60  1  0
M  END
>  <Ligand ID>  (1) 
LIG0005228

>  <Ligand>  (1) 
CHEMBL3344429

>  <SMILES>  (1) 
C[C@@H](COc1cc(Cl)c(cc1F)c1onc(n1)N1CCN(CC1)C(=O)C1CC(C1)(C)C)O

>  <CID>  (1) 
118717787.0

>  <ChEMBL ID>  (1) 
nan

>  <InChiKey>  (1) 
HGBHQAZHQPKOLS-ZDUSSCGKSA-N

>  <InChi>  (1) 
InChI=1S/C22H28ClFN4O4/c1-13(29)12-31-18-9-16(23)15(8-17(18)24)19-25-21(26-32-19)28-6-4-27(5-7-28)20(30)14-10-22(2,3)11-14/h8-9,13-14,29H,4-7,10-12H2,1-3H3/t13-/m0/s1

>  <IUPAC Name>  (1) 
[4-[5-[2-chloro-5-fluoro-4-[(2S)-2-hydroxypropoxy]phenyl]-1,2,4-oxadiazol-3-yl]piperazin-1-yl]-(3,3-dimethylcyclobutyl)methanone

$$$$
