
     RDKit          3D

 47 49  0  0  0  0  0  0  0  0999 V2000
    5.7770   -0.9200    4.0309 C   0  0  0  0  0  0  0  0  0  0  0  0
    4.4787   -1.0129    3.5209 O   0  0  0  0  0  0  0  0  0  0  0  0
    4.1224   -0.6547    2.2315 C   0  0  0  0  0  0  0  0  0  0  0  0
    5.0132   -0.1637    1.3006 C   0  0  0  0  0  0  0  0  0  0  0  0
    4.6055    0.1782    0.0286 C   0  0  0  0  0  0  0  0  0  0  0  0
    3.2740    0.0459   -0.3829 C   0  0  0  0  0  0  0  0  0  0  0  0
    2.4002   -0.4471    0.5637 C   0  0  0  0  0  0  0  0  0  0  0  0
    2.8051   -0.7936    1.8479 C   0  0  0  0  0  0  0  0  0  0  0  0
    2.8747    0.3939   -1.6790 N   0  0  0  0  0  0  0  0  0  0  0  0
    1.5484    0.3644   -2.1704 C   0  0  0  0  0  0  0  0  0  0  0  0
    1.3139   -0.4859   -3.2561 C   0  0  0  0  0  0  0  0  0  0  0  0
    0.0428   -0.5607   -3.7870 C   0  0  0  0  0  0  0  0  0  0  0  0
   -0.2977   -1.4341   -4.9370 C   0  0  0  0  0  0  0  0  0  0  0  0
   -0.9301    0.1838   -3.2469 N   0  0  0  0  0  0  0  0  0  0  0  0
   -0.6984    0.9858   -2.2192 N   0  0  0  0  0  0  0  0  0  0  0  0
    0.5161    1.1141   -1.6449 C   0  0  0  0  0  0  0  0  0  0  0  0
    0.7254    1.8680   -0.6827 O   0  0  0  0  0  0  0  0  0  0  0  0
   -1.8293    1.7437   -1.7182 C   0  0  0  0  0  0  0  0  0  0  0  0
   -2.5591    1.0007   -0.6579 C   0  0  0  0  0  0  0  0  0  0  0  0
   -2.1992   -0.1493   -0.2737 O   0  0  0  0  0  0  0  0  0  0  0  0
   -3.6923    1.6435   -0.0862 N   0  0  0  0  0  0  0  0  0  0  0  0
   -4.3787    0.8969    0.9395 C   0  0  0  0  0  0  0  0  0  0  0  0
   -4.0282    1.0168    2.2645 C   0  0  0  0  0  0  0  0  0  0  0  0
   -4.7200    0.2780    3.2018 C   0  0  0  0  0  0  0  0  0  0  0  0
   -5.7479   -0.5710    2.8348 C   0  0  0  0  0  0  0  0  0  0  0  0
   -6.0732   -0.6649    1.4815 C   0  0  0  0  0  0  0  0  0  0  0  0
   -5.3916    0.0668    0.5319 C   0  0  0  0  0  0  0  0  0  0  0  0
   -6.7087   -1.5957    4.1261 Br  0  0  0  0  0  0  0  0  0  0  0  0
    6.3939   -1.8184    3.8158 H   0  0  0  0  0  0  0  0  0  0  0  0
    5.7082   -0.8479    5.1366 H   0  0  0  0  0  0  0  0  0  0  0  0
    6.3367   -0.0173    3.6976 H   0  0  0  0  0  0  0  0  0  0  0  0
    6.0590   -0.0459    1.5822 H   0  0  0  0  0  0  0  0  0  0  0  0
    5.3682    0.5638   -0.6639 H   0  0  0  0  0  0  0  0  0  0  0  0
    1.3582   -0.5877    0.3459 H   0  0  0  0  0  0  0  0  0  0  0  0
    2.0820   -1.1828    2.5755 H   0  0  0  0  0  0  0  0  0  0  0  0
    3.6140    0.7076   -2.3612 H   0  0  0  0  0  0  0  0  0  0  0  0
    2.1053   -1.0721   -3.6726 H   0  0  0  0  0  0  0  0  0  0  0  0
    0.6144   -1.6104   -5.5481 H   0  0  0  0  0  0  0  0  0  0  0  0
   -0.6327   -2.3947   -4.5172 H   0  0  0  0  0  0  0  0  0  0  0  0
   -1.0525   -0.9534   -5.5972 H   0  0  0  0  0  0  0  0  0  0  0  0
   -1.4420    2.7244   -1.3828 H   0  0  0  0  0  0  0  0  0  0  0  0
   -2.5086    1.9865   -2.5799 H   0  0  0  0  0  0  0  0  0  0  0  0
   -4.0265    2.5885   -0.3695 H   0  0  0  0  0  0  0  0  0  0  0  0
   -3.2300    1.6805    2.5185 H   0  0  0  0  0  0  0  0  0  0  0  0
   -4.4671    0.3512    4.2518 H   0  0  0  0  0  0  0  0  0  0  0  0
   -6.8724   -1.3155    1.1293 H   0  0  0  0  0  0  0  0  0  0  0  0
   -5.6508   -0.0113   -0.5228 H   0  0  0  0  0  0  0  0  0  0  0  0
  1  2  1  0
  2  3  1  0
  3  4  2  0
  4  5  1  0
  5  6  2  0
  6  7  1  0
  7  8  2  0
  6  9  1  0
  9 10  1  0
 10 11  2  0
 11 12  1  0
 12 13  1  0
 12 14  2  0
 14 15  1  0
 15 16  1  0
 16 17  2  0
 15 18  1  0
 18 19  1  0
 19 20  2  0
 19 21  1  0
 21 22  1  0
 22 23  2  0
 23 24  1  0
 24 25  2  0
 25 26  1  0
 26 27  2  0
 25 28  1  0
  8  3  1  0
 16 10  1  0
 27 22  1  0
  1 29  1  0
  1 30  1  0
  1 31  1  0
  4 32  1  0
  5 33  1  0
  7 34  1  0
  8 35  1  0
  9 36  1  0
 11 37  1  0
 13 38  1  0
 13 39  1  0
 13 40  1  0
 18 41  1  0
 18 42  1  0
 21 43  1  0
 23 44  1  0
 24 45  1  0
 26 46  1  0
 27 47  1  0
M  END
>  <Ligand ID>  (1) 
LIG0003958

>  <Ligand>  (1) 
CHEMBL2391449

>  <SMILES>  (1) 
COc1ccc(cc1)Nc1cc(C)nn(c1=O)CC(=O)Nc1ccc(cc1)Br

>  <CID>  (1) 
71699142.0

>  <ChEMBL ID>  (1) 
nan

>  <InChiKey>  (1) 
PVYJAQPPAZLPCA-UHFFFAOYSA-N

>  <InChi>  (1) 
InChI=1S/C20H19BrN4O3/c1-13-11-18(22-15-7-9-17(28-2)10-8-15)20(27)25(24-13)12-19(26)23-16-5-3-14(21)4-6-16/h3-11,22H,12H2,1-2H3,(H,23,26)

>  <IUPAC Name>  (1) 
N-(4-bromophenyl)-2-[5-(4-methoxyanilino)-3-methyl-6-oxopyridazin-1-yl]acetamide

$$$$
