
     RDKit          3D

111118  0  0  0  0  0  0  0  0999 V2000
   13.9135    0.2562    2.7894 C   0  0  0  0  0  0  0  0  0  0  0  0
   14.5015    0.7448    1.6792 O   0  0  0  0  0  0  0  0  0  0  0  0
   13.7736    1.5598    0.9067 C   0  0  0  0  0  0  0  0  0  0  0  0
   12.5290    0.9580    0.3337 C   0  0  0  0  0  0  0  0  0  0  0  0
   11.6285    0.5465    1.2632 O   0  0  0  0  0  0  0  0  0  0  0  0
   10.4847   -0.0482    0.8109 C   0  0  0  0  0  0  0  0  0  0  0  0
    9.7355    0.9012   -0.0949 C   0  0  0  0  0  0  0  0  0  0  0  0
    8.5575    0.2618   -0.5475 O   0  0  0  0  0  0  0  0  0  0  0  0
    7.9190    1.1533   -1.4035 C   0  0  0  0  0  0  0  0  0  0  0  0
    6.6660    0.4273   -1.8737 C   0  0  0  0  0  0  0  0  0  0  0  0
    5.8878    0.1341   -0.7544 O   0  0  0  0  0  0  0  0  0  0  0  0
    5.4420    1.2634   -0.0947 C   0  0  0  0  0  0  0  0  0  0  0  0
    4.5279    2.1417   -0.8904 C   0  0  0  0  0  0  0  0  0  0  0  0
    3.3598    1.5822   -1.2989 O   0  0  0  0  0  0  0  0  0  0  0  0
    3.3727    0.4644   -2.0612 C   0  0  0  0  0  0  0  0  0  0  0  0
    1.9972   -0.0484   -2.4680 C   0  0  0  0  0  0  0  0  0  0  0  0
    1.1882   -0.3576   -1.3313 O   0  0  0  0  0  0  0  0  0  0  0  0
   -0.0844   -0.8843   -1.6008 C   0  0  0  0  0  0  0  0  0  0  0  0
   -0.5310   -1.1162   -2.8841 C   0  0  0  0  0  0  0  0  0  0  0  0
   -1.8009   -1.6423   -3.1594 C   0  0  0  0  0  0  0  0  0  0  0  0
   -2.6551   -1.9477   -2.0845 C   0  0  0  0  0  0  0  0  0  0  0  0
   -2.1415   -1.6938   -0.8535 C   0  0  0  0  0  0  0  0  0  0  0  0
   -0.9177   -1.1806   -0.5450 C   0  0  0  0  0  0  0  0  0  0  0  0
   -0.8707   -1.0921    0.8516 O   0  0  0  0  0  0  0  0  0  0  0  0
   -2.1602   -1.2068    1.3905 C   0  0  2  0  0  0  0  0  0  0  0  0
   -2.9345   -2.0205    0.3460 C   0  0  2  0  0  0  0  0  0  0  0  0
   -2.8744   -3.4623    0.6513 C   0  0  0  0  0  0  0  0  0  0  0  0
   -3.7370   -4.2951   -0.2046 C   0  0  0  0  0  0  0  0  0  0  0  0
   -4.9631   -3.6834   -0.5226 N   0  0  0  0  0  0  0  0  0  0  0  0
   -4.8641   -2.3579   -1.0404 C   0  0  2  0  0  0  0  0  0  0  0  0
   -4.0326   -2.4344   -2.2760 C   0  0  0  0  0  0  0  0  0  0  0  0
   -4.2910   -1.4611    0.0219 C   0  0  2  0  0  0  0  0  0  0  0  0
   -4.1631   -0.0568   -0.5390 C   0  0  0  0  0  0  0  0  0  0  0  0
   -3.2024    0.7212    0.3053 C   0  0  0  0  0  0  0  0  0  0  0  0
   -2.9510    0.0204    1.6331 C   0  0  2  0  0  0  0  0  0  0  0  0
   -2.4305    0.9318    2.5159 O   0  0  0  0  0  0  0  0  0  0  0  0
   -1.2088    1.4698    2.1941 C   0  0  0  0  0  0  0  0  0  0  0  0
   -4.2903   -0.4625    2.2217 C   0  0  2  0  0  0  0  0  0  0  0  0
   -5.0557   -1.3555    1.2851 C   0  0  0  0  0  0  0  0  0  0  0  0
   -5.1091    0.6469    2.7867 C   0  0  0  0  0  0  0  0  0  0  0  0
   -5.4727    1.6349    1.9085 O   0  0  0  0  0  0  0  0  0  0  0  0
   -6.2429    2.5849    2.5641 C   0  0  0  0  0  0  0  0  0  0  0  0
   -6.6805    3.6690    1.6367 C   0  0  0  0  0  0  0  0  0  0  0  0
   -7.8889    3.4291    0.9737 C   0  0  0  0  0  0  0  0  0  0  0  0
   -8.3725    4.3953    0.0853 C   0  0  0  0  0  0  0  0  0  0  0  0
   -7.6670    5.5692   -0.1339 C   0  0  0  0  0  0  0  0  0  0  0  0
   -6.4674    5.7606    0.5520 C   0  0  0  0  0  0  0  0  0  0  0  0
   -5.9666    4.8260    1.4332 C   0  0  0  0  0  0  0  0  0  0  0  0
   -6.1730   -4.2259   -0.1485 C   0  0  0  0  0  0  0  0  0  0  0  0
   -7.3812   -3.4733   -0.5890 C   0  0  0  0  0  0  0  0  0  0  0  0
   -8.6866   -4.1453   -0.1231 C   0  0  0  0  0  0  0  0  0  0  0  0
   -8.3185   -2.8151    0.3717 C   0  0  0  0  0  0  0  0  0  0  0  0
   13.0524   -0.3764    2.5917 H   0  0  0  0  0  0  0  0  0  0  0  0
   13.5454    1.0480    3.4974 H   0  0  0  0  0  0  0  0  0  0  0  0
   14.7185   -0.3258    3.3490 H   0  0  0  0  0  0  0  0  0  0  0  0
   14.3383    1.9746    0.0231 H   0  0  0  0  0  0  0  0  0  0  0  0
   13.4034    2.4784    1.4863 H   0  0  0  0  0  0  0  0  0  0  0  0
   12.1064    1.7559   -0.3576 H   0  0  0  0  0  0  0  0  0  0  0  0
   12.8213    0.0630   -0.2668 H   0  0  0  0  0  0  0  0  0  0  0  0
    9.7832   -0.3189    1.6240 H   0  0  0  0  0  0  0  0  0  0  0  0
   10.6686   -0.9741    0.2182 H   0  0  0  0  0  0  0  0  0  0  0  0
    9.3929    1.8106    0.4480 H   0  0  0  0  0  0  0  0  0  0  0  0
   10.2998    1.1452   -1.0312 H   0  0  0  0  0  0  0  0  0  0  0  0
    7.6813    2.1281   -0.9591 H   0  0  0  0  0  0  0  0  0  0  0  0
    8.5638    1.3795   -2.3040 H   0  0  0  0  0  0  0  0  0  0  0  0
    6.1955    1.0664   -2.6162 H   0  0  0  0  0  0  0  0  0  0  0  0
    6.9849   -0.5301   -2.3058 H   0  0  0  0  0  0  0  0  0  0  0  0
    4.8042    0.8626    0.7550 H   0  0  0  0  0  0  0  0  0  0  0  0
    6.2131    1.8571    0.4047 H   0  0  0  0  0  0  0  0  0  0  0  0
    5.0456    2.6128   -1.7643 H   0  0  0  0  0  0  0  0  0  0  0  0
    4.2946    3.0246   -0.2236 H   0  0  0  0  0  0  0  0  0  0  0  0
    3.8024   -0.3850   -1.4529 H   0  0  0  0  0  0  0  0  0  0  0  0
    3.9366    0.6018   -3.0210 H   0  0  0  0  0  0  0  0  0  0  0  0
    2.1578   -0.9270   -3.1176 H   0  0  0  0  0  0  0  0  0  0  0  0
    1.4211    0.6943   -3.0514 H   0  0  0  0  0  0  0  0  0  0  0  0
    0.1332   -0.8800   -3.7265 H   0  0  0  0  0  0  0  0  0  0  0  0
   -2.1411   -1.8187   -4.1694 H   0  0  0  0  0  0  0  0  0  0  0  0
   -2.0781   -1.8628    2.2975 H   0  0  0  0  0  0  0  0  0  0  0  0
   -1.8042   -3.7916    0.4464 H   0  0  0  0  0  0  0  0  0  0  0  0
   -3.0091   -3.6918    1.7427 H   0  0  0  0  0  0  0  0  0  0  0  0
   -3.9717   -5.2394    0.3581 H   0  0  0  0  0  0  0  0  0  0  0  0
   -3.1786   -4.6442   -1.1087 H   0  0  0  0  0  0  0  0  0  0  0  0
   -5.8560   -1.9773   -1.2858 H   0  0  0  0  0  0  0  0  0  0  0  0
   -4.5282   -1.9412   -3.1519 H   0  0  0  0  0  0  0  0  0  0  0  0
   -3.9405   -3.5043   -2.6051 H   0  0  0  0  0  0  0  0  0  0  0  0
   -3.9112    0.0102   -1.5903 H   0  0  0  0  0  0  0  0  0  0  0  0
   -5.2168    0.3576   -0.4691 H   0  0  0  0  0  0  0  0  0  0  0  0
   -2.2193    0.8539   -0.1772 H   0  0  0  0  0  0  0  0  0  0  0  0
   -3.6388    1.7286    0.4722 H   0  0  0  0  0  0  0  0  0  0  0  0
   -0.3740    0.7577    2.1069 H   0  0  0  0  0  0  0  0  0  0  0  0
   -1.2597    2.1589    1.3129 H   0  0  0  0  0  0  0  0  0  0  0  0
   -0.9444    2.1644    3.0452 H   0  0  0  0  0  0  0  0  0  0  0  0
   -3.9722   -1.1046    3.0914 H   0  0  0  0  0  0  0  0  0  0  0  0
   -5.1706   -2.3982    1.7025 H   0  0  0  0  0  0  0  0  0  0  0  0
   -6.0876   -0.9648    1.1203 H   0  0  0  0  0  0  0  0  0  0  0  0
   -6.0056    0.2223    3.3090 H   0  0  0  0  0  0  0  0  0  0  0  0
   -4.5490    1.1618    3.6168 H   0  0  0  0  0  0  0  0  0  0  0  0
   -5.5860    3.0596    3.3430 H   0  0  0  0  0  0  0  0  0  0  0  0
   -7.1101    2.1569    3.0973 H   0  0  0  0  0  0  0  0  0  0  0  0
   -8.4563    2.5219    1.1267 H   0  0  0  0  0  0  0  0  0  0  0  0
   -9.3030    4.1705   -0.4025 H   0  0  0  0  0  0  0  0  0  0  0  0
   -8.0780    6.2732   -0.8200 H   0  0  0  0  0  0  0  0  0  0  0  0
   -5.9319    6.6713    0.3743 H   0  0  0  0  0  0  0  0  0  0  0  0
   -5.0467    4.9377    1.9804 H   0  0  0  0  0  0  0  0  0  0  0  0
   -6.2611   -4.3811    0.9474 H   0  0  0  0  0  0  0  0  0  0  0  0
   -6.2409   -5.2749   -0.5734 H   0  0  0  0  0  0  0  0  0  0  0  0
   -7.3835   -3.2226   -1.6743 H   0  0  0  0  0  0  0  0  0  0  0  0
   -8.6411   -4.9894    0.5712 H   0  0  0  0  0  0  0  0  0  0  0  0
   -9.5197   -4.1858   -0.8645 H   0  0  0  0  0  0  0  0  0  0  0  0
   -7.9928   -2.6715    1.4170 H   0  0  0  0  0  0  0  0  0  0  0  0
   -8.8540   -1.9151   -0.0365 H   0  0  0  0  0  0  0  0  0  0  0  0
  1  2  1  0
  2  3  1  0
  3  4  1  0
  4  5  1  0
  5  6  1  0
  6  7  1  0
  7  8  1  0
  8  9  1  0
  9 10  1  0
 10 11  1  0
 11 12  1  0
 12 13  1  0
 13 14  1  0
 14 15  1  0
 15 16  1  0
 16 17  1  0
 17 18  1  0
 18 19  2  0
 19 20  1  0
 20 21  2  0
 21 22  1  0
 22 23  2  0
 23 24  1  0
 24 25  1  0
 25 26  1  0
 26 27  1  1
 27 28  1  0
 28 29  1  0
 29 30  1  0
 30 31  1  0
 30 32  1  0
 32 33  1  6
 33 34  1  0
 34 35  1  0
 35 36  1  1
 36 37  1  0
 35 38  1  0
 38 39  1  0
 38 40  1  0
 40 41  1  0
 41 42  1  0
 42 43  1  0
 43 44  2  0
 44 45  1  0
 45 46  2  0
 46 47  1  0
 47 48  2  0
 29 49  1  0
 49 50  1  0
 50 51  1  0
 51 52  1  0
 23 18  1  0
 35 25  1  0
 48 43  1  0
 52 50  1  0
 31 21  1  0
 39 32  1  0
 26 22  1  0
 32 26  1  0
  1 53  1  0
  1 54  1  0
  1 55  1  0
  3 56  1  0
  3 57  1  0
  4 58  1  0
  4 59  1  0
  6 60  1  0
  6 61  1  0
  7 62  1  0
  7 63  1  0
  9 64  1  0
  9 65  1  0
 10 66  1  0
 10 67  1  0
 12 68  1  0
 12 69  1  0
 13 70  1  0
 13 71  1  0
 15 72  1  0
 15 73  1  0
 16 74  1  0
 16 75  1  0
 19 76  1  0
 20 77  1  0
 25 78  1  1
 27 79  1  0
 27 80  1  0
 28 81  1  0
 28 82  1  0
 30 83  1  6
 31 84  1  0
 31 85  1  0
 33 86  1  0
 33 87  1  0
 34 88  1  0
 34 89  1  0
 37 90  1  0
 37 91  1  0
 37 92  1  0
 38 93  1  1
 39 94  1  0
 39 95  1  0
 40 96  1  0
 40 97  1  0
 42 98  1  0
 42 99  1  0
 44100  1  0
 45101  1  0
 46102  1  0
 47103  1  0
 48104  1  0
 49105  1  0
 49106  1  0
 50107  1  0
 51108  1  0
 51109  1  0
 52110  1  0
 52111  1  0
M  END
>  <Ligand ID>  (1) 
LIG0004904

>  <Ligand>  (1) 
SCHEMBL15485704

>  <SMILES>  (1) 
COCCOCCOCCOCCOCCOc1ccc2c3c1O[C@@H]1[C@@]43CCN([C@H](C2)[C@@]24CC[C@@]1(OC)[C@H](C2)COCc1ccccc1)CC1CC1

>  <CID>  (1) 
89978589.0

>  <ChEMBL ID>  (1) 
nan

>  <InChiKey>  (1) 
XANWUMAEHRCRAP-ULPHGGBCSA-N

>  <InChi>  (1) 
InChI=1S/C42H59NO9/c1-44-16-17-46-18-19-47-20-21-48-22-23-49-24-25-51-35-11-10-33-26-36-40-12-13-42(45-2,34(27-40)30-50-29-32-6-4-3-5-7-32)39-41(40,37(33)38(35)52-39)14-15-43(36)28-31-8-9-31/h3-7,10-11,31,34,36,39H,8-9,12-30H2,1-2H3/t34-,36-,39-,40-,41+,42-/m1/s1

>  <IUPAC Name>  (1) 
(1S,2S,6R,14R,15R,16R)-5-(cyclopropylmethyl)-15-methoxy-11-[2-[2-[2-[2-(2-methoxyethoxy)ethoxy]ethoxy]ethoxy]ethoxy]-16-(phenylmethoxymethyl)-13-oxa-5-azahexacyclo[13.2.2.12,8.01,6.02,14.012,20]icosa-8(20),9,11-triene

$$$$
