
     RDKit          3D

115121  0  0  0  0  0  0  0  0999 V2000
    1.8370    6.8965    4.3659 N   0  0  0  0  0  0  0  0  0  0  0  0
    2.1719    5.5996    3.8804 C   0  0  0  0  0  0  0  0  0  0  0  0
    1.3688    4.5822    4.0023 N   0  0  0  0  0  0  0  0  0  0  0  0
    1.7691    3.2665    3.4818 C   0  0  0  0  0  0  0  0  0  0  0  0
    1.5934    3.2912    1.9807 C   0  0  0  0  0  0  0  0  0  0  0  0
    1.9895    1.9510    1.3485 C   0  0  0  0  0  0  0  0  0  0  0  0
    1.7864    2.0616   -0.1143 C   0  0  2  0  0  0  0  0  0  0  0  0
    0.4311    2.3554   -0.5042 N   0  0  0  0  0  0  0  0  0  0  0  0
    0.0618    3.2218   -1.5721 C   0  0  0  0  0  0  0  0  0  0  0  0
    1.0204    3.7175   -2.1900 O   0  0  0  0  0  0  0  0  0  0  0  0
   -1.3702    3.4913   -1.9005 C   0  0  1  0  0  0  0  0  0  0  0  0
   -1.6039    3.1472   -3.3560 C   0  0  0  0  0  0  0  0  0  0  0  0
   -3.0036    3.4331   -3.7051 C   0  0  0  0  0  0  0  0  0  0  0  0
   -3.3072    4.7454   -4.0845 C   0  0  0  0  0  0  0  0  0  0  0  0
   -4.5738    5.1312   -4.4481 C   0  0  0  0  0  0  0  0  0  0  0  0
   -5.6070    4.2437   -4.4565 C   0  0  0  0  0  0  0  0  0  0  0  0
   -5.3202    2.9344   -4.0815 C   0  0  0  0  0  0  0  0  0  0  0  0
   -4.0387    2.5453   -3.7146 C   0  0  0  0  0  0  0  0  0  0  0  0
   -2.2596    2.8473   -0.9799 N   0  0  0  0  0  0  0  0  0  0  0  0
   -2.5665    1.4484   -0.9268 C   0  0  0  0  0  0  0  0  0  0  0  0
   -1.9590    0.7450   -1.7410 O   0  0  0  0  0  0  0  0  0  0  0  0
   -3.5303    0.9175    0.0277 C   0  0  0  0  0  0  0  0  0  0  0  0
   -3.1739   -0.2815    0.7327 N   0  0  0  0  0  0  0  0  0  0  0  0
   -2.9174   -1.5467    0.1374 C   0  0  0  0  0  0  0  0  0  0  0  0
   -2.9703   -1.5968   -1.0920 O   0  0  0  0  0  0  0  0  0  0  0  0
   -2.6173   -2.7650    0.8755 C   0  0  0  0  0  0  0  0  0  0  0  0
   -1.6516   -3.0371    1.7473 C   0  0  0  0  0  0  0  0  0  0  0  0
   -0.2996   -1.9732    2.2550 S   0  0  0  0  0  0  0  0  0  0  0  0
    1.2034   -2.9482    2.3201 C   0  0  0  0  0  0  0  0  0  0  0  0
    1.8272   -3.2965    1.0096 C   0  0  2  0  0  0  0  0  0  0  0  0
    2.3137   -2.0707    0.3382 N   0  0  0  0  0  0  0  0  0  0  0  0
    3.4267   -2.1647   -0.5966 C   0  0  0  0  0  0  0  0  0  0  0  0
    3.7969   -3.3369   -0.7718 O   0  0  0  0  0  0  0  0  0  0  0  0
    4.0083   -0.9723   -1.2491 C   0  0  1  0  0  0  0  0  0  0  0  0
    3.4433    0.1867   -0.5335 N   0  0  0  0  0  0  0  0  0  0  0  0
    2.2387    0.8336   -0.8809 C   0  0  0  0  0  0  0  0  0  0  0  0
    1.5984    0.3431   -1.8151 O   0  0  0  0  0  0  0  0  0  0  0  0
    5.4641   -0.7859   -1.2323 C   0  0  0  0  0  0  0  0  0  0  0  0
    6.3424   -1.7756   -1.8205 C   0  0  0  0  0  0  0  0  0  0  0  0
    6.8117   -1.7071   -3.1436 C   0  0  0  0  0  0  0  0  0  0  0  0
    7.5775   -2.7817   -3.4020 N   0  0  0  0  0  0  0  0  0  0  0  0
    7.6475   -3.5684   -2.3214 C   0  0  0  0  0  0  0  0  0  0  0  0
    6.8890   -2.9515   -1.3469 C   0  0  0  0  0  0  0  0  0  0  0  0
    6.8259   -3.5791   -0.1234 C   0  0  0  0  0  0  0  0  0  0  0  0
    7.4601   -4.7542    0.1681 C   0  0  0  0  0  0  0  0  0  0  0  0
    8.2113   -5.3386   -0.8465 C   0  0  0  0  0  0  0  0  0  0  0  0
    8.3206   -4.7689   -2.0945 C   0  0  0  0  0  0  0  0  0  0  0  0
    0.8992   -4.0019    0.0523 C   0  0  0  0  0  0  0  0  0  0  0  0
    0.5274   -3.3891   -1.0043 O   0  0  0  0  0  0  0  0  0  0  0  0
    0.4320   -5.3170    0.2782 N   0  0  0  0  0  0  0  0  0  0  0  0
   -1.6437   -4.2963    2.3657 C   0  0  0  0  0  0  0  0  0  0  0  0
   -2.5731   -5.2701    2.1241 C   0  0  0  0  0  0  0  0  0  0  0  0
   -3.5691   -4.9945    1.2238 C   0  0  0  0  0  0  0  0  0  0  0  0
   -3.5797   -3.7758    0.6247 C   0  0  0  0  0  0  0  0  0  0  0  0
   -4.5548   -5.9819    0.9440 N   0  0  0  0  0  0  0  0  0  0  0  0
   -5.4665   -5.7361    0.1211 O   0  0  0  0  0  0  0  0  0  0  0  0
   -4.5154   -7.2170    1.5757 O   0  0  0  0  0  0  0  0  0  0  0  0
   -4.8968    0.6571   -0.6907 C   0  0  0  0  0  0  0  0  0  0  0  0
   -5.7030    0.3572    0.5479 C   0  0  0  0  0  0  0  0  0  0  0  0
   -5.1924    1.1271    1.6036 C   0  0  0  0  0  0  0  0  0  0  0  0
   -4.0458    1.9379    1.0358 C   0  0  0  0  0  0  0  0  0  0  0  0
   -5.7271    1.0648    2.8712 C   0  0  0  0  0  0  0  0  0  0  0  0
   -6.7910    0.2186    3.0889 C   0  0  0  0  0  0  0  0  0  0  0  0
   -7.3071   -0.5462    2.0643 C   0  0  0  0  0  0  0  0  0  0  0  0
   -6.7735   -0.4821    0.8065 C   0  0  0  0  0  0  0  0  0  0  0  0
    3.4327    5.4275    3.2420 N   0  0  0  0  0  0  0  0  0  0  0  0
    2.0832    7.1956    5.3156 H   0  0  0  0  0  0  0  0  0  0  0  0
    1.3227    7.5698    3.7346 H   0  0  0  0  0  0  0  0  0  0  0  0
    2.8473    3.1398    3.7118 H   0  0  0  0  0  0  0  0  0  0  0  0
    1.1103    2.5168    3.9473 H   0  0  0  0  0  0  0  0  0  0  0  0
    0.5535    3.5491    1.7111 H   0  0  0  0  0  0  0  0  0  0  0  0
    2.2665    4.0437    1.5232 H   0  0  0  0  0  0  0  0  0  0  0  0
    1.3167    1.2030    1.8047 H   0  0  0  0  0  0  0  0  0  0  0  0
    3.0236    1.7353    1.6321 H   0  0  0  0  0  0  0  0  0  0  0  0
    2.3896    2.9289   -0.5162 H   0  0  0  0  0  0  0  0  0  0  0  0
   -0.3329    1.9322    0.0137 H   0  0  0  0  0  0  0  0  0  0  0  0
   -1.5006    4.6098   -1.7926 H   0  0  0  0  0  0  0  0  0  0  0  0
   -1.4153    2.0835   -3.5697 H   0  0  0  0  0  0  0  0  0  0  0  0
   -0.9511    3.8105   -3.9709 H   0  0  0  0  0  0  0  0  0  0  0  0
   -2.5269    5.4977   -4.0961 H   0  0  0  0  0  0  0  0  0  0  0  0
   -4.7586    6.1644   -4.7344 H   0  0  0  0  0  0  0  0  0  0  0  0
   -6.6087    4.5199   -4.7351 H   0  0  0  0  0  0  0  0  0  0  0  0
   -6.1372    2.2403   -4.0889 H   0  0  0  0  0  0  0  0  0  0  0  0
   -3.8980    1.5318   -3.4505 H   0  0  0  0  0  0  0  0  0  0  0  0
   -2.7334    3.4140   -0.2725 H   0  0  0  0  0  0  0  0  0  0  0  0
   -3.0828   -0.2700    1.7566 H   0  0  0  0  0  0  0  0  0  0  0  0
    2.0001   -2.4256    2.9138 H   0  0  0  0  0  0  0  0  0  0  0  0
    1.0522   -3.9281    2.8587 H   0  0  0  0  0  0  0  0  0  0  0  0
    2.6356   -4.0342    1.1595 H   0  0  0  0  0  0  0  0  0  0  0  0
    1.9424   -1.1490    0.4660 H   0  0  0  0  0  0  0  0  0  0  0  0
    3.6047   -0.9326   -2.3153 H   0  0  0  0  0  0  0  0  0  0  0  0
    3.9472    0.5562    0.2713 H   0  0  0  0  0  0  0  0  0  0  0  0
    5.6907    0.2070   -1.7452 H   0  0  0  0  0  0  0  0  0  0  0  0
    5.8234   -0.5602   -0.1686 H   0  0  0  0  0  0  0  0  0  0  0  0
    6.5902   -0.9048   -3.8556 H   0  0  0  0  0  0  0  0  0  0  0  0
    8.0479   -2.9657   -4.3211 H   0  0  0  0  0  0  0  0  0  0  0  0
    6.2262   -3.0807    0.6367 H   0  0  0  0  0  0  0  0  0  0  0  0
    7.3822   -5.2118    1.1456 H   0  0  0  0  0  0  0  0  0  0  0  0
    8.7492   -6.2818   -0.6843 H   0  0  0  0  0  0  0  0  0  0  0  0
    8.8858   -5.1792   -2.9098 H   0  0  0  0  0  0  0  0  0  0  0  0
    0.8629   -5.8987    1.0116 H   0  0  0  0  0  0  0  0  0  0  0  0
   -0.3355   -5.7090   -0.2792 H   0  0  0  0  0  0  0  0  0  0  0  0
   -0.8652   -4.5551    3.0934 H   0  0  0  0  0  0  0  0  0  0  0  0
   -2.5362   -6.2325    2.6219 H   0  0  0  0  0  0  0  0  0  0  0  0
   -4.3862   -3.5745   -0.1006 H   0  0  0  0  0  0  0  0  0  0  0  0
   -5.2092    1.6173   -1.0962 H   0  0  0  0  0  0  0  0  0  0  0  0
   -4.8259   -0.1838   -1.3760 H   0  0  0  0  0  0  0  0  0  0  0  0
   -3.3082    2.2165    1.7783 H   0  0  0  0  0  0  0  0  0  0  0  0
   -4.4577    2.7860    0.4602 H   0  0  0  0  0  0  0  0  0  0  0  0
   -5.3267    1.6615    3.6754 H   0  0  0  0  0  0  0  0  0  0  0  0
   -7.2006    0.1830    4.0944 H   0  0  0  0  0  0  0  0  0  0  0  0
   -8.1548   -1.2177    2.2451 H   0  0  0  0  0  0  0  0  0  0  0  0
   -7.1983   -1.0952    0.0149 H   0  0  0  0  0  0  0  0  0  0  0  0
    4.1874    4.7983    3.6196 H   0  0  0  0  0  0  0  0  0  0  0  0
    3.5905    5.9606    2.3613 H   0  0  0  0  0  0  0  0  0  0  0  0
  1  2  1  0
  2  3  2  3
  3  4  1  0
  4  5  1  0
  5  6  1  0
  6  7  1  0
  7  8  1  0
  8  9  1  0
  9 10  2  0
  9 11  1  0
 11 12  1  0
 12 13  1  0
 13 14  2  0
 14 15  1  0
 15 16  2  0
 16 17  1  0
 17 18  2  0
 11 19  1  0
 19 20  1  0
 20 21  2  0
 20 22  1  0
 22 23  1  0
 23 24  1  0
 24 25  2  0
 24 26  1  0
 26 27  2  0
 27 28  1  0
 28 29  1  0
 29 30  1  0
 30 31  1  0
 31 32  1  0
 32 33  2  0
 32 34  1  0
 34 35  1  0
 35 36  1  0
 36 37  2  0
 34 38  1  0
 38 39  1  0
 39 40  2  0
 40 41  1  0
 41 42  1  0
 42 43  2  0
 43 44  1  0
 44 45  2  0
 45 46  1  0
 46 47  2  0
 30 48  1  0
 48 49  2  0
 48 50  1  0
 27 51  1  0
 51 52  2  0
 52 53  1  0
 53 54  2  0
 53 55  1  0
 55 56  2  0
 55 57  1  0
 22 58  1  0
 58 59  1  0
 59 60  2  0
 60 61  1  0
 60 62  1  0
 62 63  2  0
 63 64  1  0
 64 65  2  0
  2 66  1  0
 36  7  1  0
 43 39  1  0
 65 59  1  0
 18 13  1  0
 61 22  1  0
 54 26  1  0
 47 42  1  0
  1 67  1  0
  1 68  1  0
  4 69  1  0
  4 70  1  0
  5 71  1  0
  5 72  1  0
  6 73  1  0
  6 74  1  0
  7 75  1  6
  8 76  1  0
 11 77  1  6
 12 78  1  0
 12 79  1  0
 14 80  1  0
 15 81  1  0
 16 82  1  0
 17 83  1  0
 18 84  1  0
 19 85  1  0
 23 86  1  0
 29 87  1  0
 29 88  1  0
 30 89  1  1
 31 90  1  0
 34 91  1  6
 35 92  1  0
 38 93  1  0
 38 94  1  0
 40 95  1  0
 41 96  1  0
 44 97  1  0
 45 98  1  0
 46 99  1  0
 47100  1  0
 50101  1  0
 50102  1  0
 51103  1  0
 52104  1  0
 54105  1  0
 58106  1  0
 58107  1  0
 61108  1  0
 61109  1  0
 62110  1  0
 63111  1  0
 64112  1  0
 65113  1  0
 66114  1  0
 66115  1  0
M  CHG  2  55   1  57  -1
M  END
>  <Ligand ID>  (1) 
LIG0005728

>  <Ligand>  (1) 
CHEMBL449124

>  <SMILES>  (1) 
NC(=NCCC[C@@H]1NC(=O)[C@@H](Cc2ccccc2)NC(=O)C2(NC(=O)c3c(SC[C@H](NC(=O)[C@@H](NC1=O)Cc1c[nH]c4c1cccc4)C(=O)N)ccc(c3)[N+](=O)[O-])Cc1c(C2)cccc1)N

>  <CID>  (1) 
24858479.0

>  <ChEMBL ID>  (1) 
nan

>  <InChiKey>  (1) 
XWJDTXJYFDVXAU-NBRFXYHLSA-N

>  <InChi>  (1) 
InChI=1S/C46H49N11O8S/c47-39(58)37-25-66-38-17-16-30(57(64)65)21-32(38)40(59)56-46(22-27-11-4-5-12-28(27)23-46)44(63)55-35(19-26-9-2-1-3-10-26)42(61)52-34(15-8-18-50-45(48)49)41(60)53-36(43(62)54-37)20-29-24-51-33-14-7-6-13-31(29)33/h1-7,9-14,16-17,21,24,34-37,51H,8,15,18-20,22-23,25H2,(H2,47,58)(H,52,61)(H,53,60)(H,54,62)(H,55,63)(H,56,59)(H4,48,49,50)/t34-,35+,36-,37-/m0/s1

>  <IUPAC Name>  (1) 
(4'R,7'S,10'S,13'R)-13'-benzyl-10'-[3-(diaminomethylideneamino)propyl]-7'-(1H-indol-3-ylmethyl)-21'-nitro-6',9',12',15',18'-pentaoxospiro[1,3-dihydroindene-2,16'-2-thia-5,8,11,14,17-pentazabicyclo[17.4.0]tricosa-1(19),20,22-triene]-4'-carboxamide

$$$$
