
     RDKit          3D

 32 34  0  0  0  0  0  0  0  0999 V2000
   -2.3593   -1.7463    0.8669 C   0  0  0  0  0  0  0  0  0  0  0  0
   -2.1235   -1.0646   -0.4815 C   0  0  0  0  0  0  0  0  0  0  0  0
   -1.6014    0.2932   -0.3729 C   0  0  0  0  0  0  0  0  0  0  0  0
   -2.4755    1.3661   -0.6130 C   0  0  0  0  0  0  0  0  0  0  0  0
   -2.0706    2.6723   -0.5359 C   0  0  0  0  0  0  0  0  0  0  0  0
   -0.7768    2.9292   -0.2149 C   0  0  0  0  0  0  0  0  0  0  0  0
    0.1112    1.9030    0.0278 C   0  0  0  0  0  0  0  0  0  0  0  0
   -0.2623    0.5539   -0.0406 C   0  0  0  0  0  0  0  0  0  0  0  0
    0.6800   -0.5065    0.2360 C   0  0  1  0  0  0  0  0  0  0  0  0
    0.7538   -1.7353   -0.5497 C   0  0  0  0  0  0  0  0  0  0  0  0
    2.1507   -2.2137   -0.4662 N   0  0  0  0  0  0  0  0  0  0  0  0
    2.8753   -1.1994    0.2904 C   0  0  0  0  0  0  0  0  0  0  0  0
    2.0948    0.0007   -0.1148 C   0  0  2  0  0  0  0  0  0  0  0  0
    2.3978    1.2159    0.5935 N   0  0  0  0  0  0  0  0  0  0  0  0
    1.4801    2.3086    0.3540 C   0  0  0  0  0  0  0  0  0  0  0  0
    1.8461    3.5069    0.4248 O   0  0  0  0  0  0  0  0  0  0  0  0
   -0.2718    4.6136   -0.1183 Cl  0  0  0  0  0  0  0  0  0  0  0  0
   -2.4281   -2.8436    0.6224 H   0  0  0  0  0  0  0  0  0  0  0  0
   -1.4777   -1.5635    1.5045 H   0  0  0  0  0  0  0  0  0  0  0  0
   -3.2711   -1.3571    1.3496 H   0  0  0  0  0  0  0  0  0  0  0  0
   -3.1931   -0.9772   -0.8629 H   0  0  0  0  0  0  0  0  0  0  0  0
   -1.6907   -1.7154   -1.2431 H   0  0  0  0  0  0  0  0  0  0  0  0
   -3.5182    1.1945   -0.8723 H   0  0  0  0  0  0  0  0  0  0  0  0
   -2.7612    3.4839   -0.7255 H   0  0  0  0  0  0  0  0  0  0  0  0
    0.7688   -0.7646    1.3221 H   0  0  0  0  0  0  0  0  0  0  0  0
    0.1922   -2.6127   -0.1689 H   0  0  0  0  0  0  0  0  0  0  0  0
    0.6488   -1.5719   -1.6462 H   0  0  0  0  0  0  0  0  0  0  0  0
    2.2613   -3.1024    0.0167 H   0  0  0  0  0  0  0  0  0  0  0  0
    2.7180   -1.3738    1.3777 H   0  0  0  0  0  0  0  0  0  0  0  0
    3.9313   -1.1580    0.0249 H   0  0  0  0  0  0  0  0  0  0  0  0
    2.1771    0.1025   -1.2224 H   0  0  0  0  0  0  0  0  0  0  0  0
    3.1941    1.3618    1.2376 H   0  0  0  0  0  0  0  0  0  0  0  0
  1  2  1  0
  2  3  1  0
  3  4  2  0
  4  5  1  0
  5  6  2  0
  6  7  1  0
  7  8  2  0
  8  9  1  0
  9 10  1  0
 10 11  1  0
 11 12  1  0
 12 13  1  0
 13 14  1  0
 14 15  1  0
 15 16  2  0
  6 17  1  0
  8  3  1  0
 13  9  1  0
 15  7  1  0
  1 18  1  0
  1 19  1  0
  1 20  1  0
  2 21  1  0
  2 22  1  0
  4 23  1  0
  5 24  1  0
  9 25  1  1
 10 26  1  0
 10 27  1  0
 11 28  1  0
 12 29  1  0
 12 30  1  0
 13 31  1  6
 14 32  1  0
M  END
>  <Ligand ID>  (1) 
LIG0004096

>  <Ligand>  (1) 
CHEMBL2337499

>  <SMILES>  (1) 
CCc1ccc(c2c1[C@H]1CNC[C@@H]1NC2=O)Cl

>  <CID>  (1) 
11630623.0

>  <ChEMBL ID>  (1) 
nan

>  <InChiKey>  (1) 
DZCHRJUWBYFRSD-WPRPVWTQSA-N

>  <InChi>  (1) 
InChI=1S/C13H15ClN2O/c1-2-7-3-4-9(14)12-11(7)8-5-15-6-10(8)16-13(12)17/h3-4,8,10,15H,2,5-6H2,1H3,(H,16,17)/t8-,10-/m0/s1

>  <IUPAC Name>  (1) 
(3aR,9bS)-6-chloro-9-ethyl-1,2,3,3a,4,9b-hexahydropyrrolo[3,4-c]isoquinolin-5-one

$$$$
