
     RDKit          3D

 52 54  0  0  0  0  0  0  0  0999 V2000
   -1.9673    4.2710    1.4598 C   0  0  0  0  0  0  0  0  0  0  0  0
   -1.0441    3.8057    0.3533 C   0  0  0  0  0  0  0  0  0  0  0  0
   -0.9613    2.4035    0.4669 O   0  0  0  0  0  0  0  0  0  0  0  0
   -0.2016    1.6111   -0.3798 C   0  0  0  0  0  0  0  0  0  0  0  0
    0.4749    2.0983   -1.3204 O   0  0  0  0  0  0  0  0  0  0  0  0
   -0.2322    0.1253   -0.1081 C   0  0  0  0  0  0  0  0  0  0  0  0
    0.2633   -0.1808    1.2831 C   0  0  0  0  0  0  0  0  0  0  0  0
    1.5848   -0.8733    1.3178 C   0  0  0  0  0  0  0  0  0  0  0  0
    2.4979   -0.0682    0.4851 N   0  0  0  0  0  0  0  0  0  0  0  0
    2.1318   -0.2315   -0.9049 C   0  0  0  0  0  0  0  0  0  0  0  0
    0.6718   -0.6037   -1.0646 C   0  0  0  0  0  0  0  0  0  0  0  0
    3.8077   -0.6104    0.7857 C   0  0  0  0  0  0  0  0  0  0  0  0
    4.9096    0.0368    0.0724 C   0  0  0  0  0  0  0  0  0  0  0  0
    5.6207    1.1250    0.5263 C   0  0  0  0  0  0  0  0  0  0  0  0
    6.5658    1.4400   -0.4126 C   0  0  0  0  0  0  0  0  0  0  0  0
    6.3818    0.4966   -1.4322 C   0  0  0  0  0  0  0  0  0  0  0  0
    5.4040   -0.3065   -1.1115 O   0  0  0  0  0  0  0  0  0  0  0  0
   -1.6429   -0.2921   -0.3394 C   0  0  0  0  0  0  0  0  0  0  0  0
   -1.8876   -1.7443   -0.1175 C   0  0  0  0  0  0  0  0  0  0  0  0
   -3.3405   -2.0790   -0.3620 C   0  0  0  0  0  0  0  0  0  0  0  0
   -3.8042   -2.4488   -1.5972 C   0  0  0  0  0  0  0  0  0  0  0  0
   -5.1455   -2.7481   -1.7787 C   0  0  0  0  0  0  0  0  0  0  0  0
   -6.0265   -2.6780   -0.7238 C   0  0  0  0  0  0  0  0  0  0  0  0
   -5.5773   -2.3067    0.5302 C   0  0  0  0  0  0  0  0  0  0  0  0
   -4.2429   -2.0101    0.7053 C   0  0  0  0  0  0  0  0  0  0  0  0
   -2.2773    5.3176    1.3058 H   0  0  0  0  0  0  0  0  0  0  0  0
   -1.4288    4.1892    2.4306 H   0  0  0  0  0  0  0  0  0  0  0  0
   -2.8552    3.5826    1.5643 H   0  0  0  0  0  0  0  0  0  0  0  0
   -0.0452    4.2375    0.5753 H   0  0  0  0  0  0  0  0  0  0  0  0
   -1.4287    4.1349   -0.6346 H   0  0  0  0  0  0  0  0  0  0  0  0
    0.4283    0.8075    1.7869 H   0  0  0  0  0  0  0  0  0  0  0  0
   -0.5108   -0.6672    1.9107 H   0  0  0  0  0  0  0  0  0  0  0  0
    1.6019   -1.8736    0.8411 H   0  0  0  0  0  0  0  0  0  0  0  0
    1.9809   -0.8525    2.3355 H   0  0  0  0  0  0  0  0  0  0  0  0
    2.7120   -1.1098   -1.3126 H   0  0  0  0  0  0  0  0  0  0  0  0
    2.3053    0.6798   -1.5078 H   0  0  0  0  0  0  0  0  0  0  0  0
    0.5478   -1.6975   -0.9777 H   0  0  0  0  0  0  0  0  0  0  0  0
    0.3849   -0.3374   -2.1025 H   0  0  0  0  0  0  0  0  0  0  0  0
    3.7662   -1.6976    0.4822 H   0  0  0  0  0  0  0  0  0  0  0  0
    3.9173   -0.6449    1.8856 H   0  0  0  0  0  0  0  0  0  0  0  0
    5.4941    1.6692    1.4517 H   0  0  0  0  0  0  0  0  0  0  0  0
    7.2989    2.2219   -0.4079 H   0  0  0  0  0  0  0  0  0  0  0  0
    6.9345    0.4042   -2.3585 H   0  0  0  0  0  0  0  0  0  0  0  0
   -1.8990   -0.0811   -1.4064 H   0  0  0  0  0  0  0  0  0  0  0  0
   -2.2877    0.3221    0.3340 H   0  0  0  0  0  0  0  0  0  0  0  0
   -1.6971   -2.0847    0.9131 H   0  0  0  0  0  0  0  0  0  0  0  0
   -1.3557   -2.3260   -0.8997 H   0  0  0  0  0  0  0  0  0  0  0  0
   -3.1305   -2.5124   -2.4477 H   0  0  0  0  0  0  0  0  0  0  0  0
   -5.4895   -3.0374   -2.7613 H   0  0  0  0  0  0  0  0  0  0  0  0
   -7.0857   -2.9143   -0.8662 H   0  0  0  0  0  0  0  0  0  0  0  0
   -6.2386   -2.2451    1.3610 H   0  0  0  0  0  0  0  0  0  0  0  0
   -3.8829   -1.7171    1.6893 H   0  0  0  0  0  0  0  0  0  0  0  0
  1  2  1  0
  2  3  1  0
  3  4  1  0
  4  5  2  0
  4  6  1  0
  6  7  1  0
  7  8  1  0
  8  9  1  0
  9 10  1  0
 10 11  1  0
  9 12  1  0
 12 13  1  0
 13 14  2  0
 14 15  1  0
 15 16  2  0
 16 17  1  0
  6 18  1  0
 18 19  1  0
 19 20  1  0
 20 21  2  0
 21 22  1  0
 22 23  2  0
 23 24  1  0
 24 25  2  0
 11  6  1  0
 17 13  1  0
 25 20  1  0
  1 26  1  0
  1 27  1  0
  1 28  1  0
  2 29  1  0
  2 30  1  0
  7 31  1  0
  7 32  1  0
  8 33  1  0
  8 34  1  0
 10 35  1  0
 10 36  1  0
 11 37  1  0
 11 38  1  0
 12 39  1  0
 12 40  1  0
 14 41  1  0
 15 42  1  0
 16 43  1  0
 18 44  1  0
 18 45  1  0
 19 46  1  0
 19 47  1  0
 21 48  1  0
 22 49  1  0
 23 50  1  0
 24 51  1  0
 25 52  1  0
M  END
>  <Ligand ID>  (1) 
LIG0004437

>  <Ligand>  (1) 
MLS000733592

>  <SMILES>  (1) 
CCOC(=O)C1(CCN(CC1)Cc1ccco1)CCc1ccccc1

>  <CID>  (1) 
16191458.0

>  <ChEMBL ID>  (1) 
nan

>  <InChiKey>  (1) 
UUTFUVYLHJJDFQ-UHFFFAOYSA-N

>  <InChi>  (1) 
InChI=1S/C21H27NO3/c1-2-24-20(23)21(11-10-18-7-4-3-5-8-18)12-14-22(15-13-21)17-19-9-6-16-25-19/h3-9,16H,2,10-15,17H2,1H3

>  <IUPAC Name>  (1) 
ethyl 1-(furan-2-ylmethyl)-4-(2-phenylethyl)piperidine-4-carboxylate

$$$$
