
     RDKit          3D

102105  0  0  0  0  0  0  0  0999 V2000
    5.3609    2.7958   -2.5873 C   0  0  0  0  0  0  0  0  0  0  0  0
    4.3649    2.2241   -1.6742 N   0  0  0  0  0  0  0  0  0  0  0  0
    4.6829    1.9538   -0.3358 C   0  0  0  0  0  0  0  0  0  0  0  0
    5.8801    2.2376    0.0250 O   0  0  0  0  0  0  0  0  0  0  0  0
    3.8106    1.3864    0.7002 C   0  0  1  0  0  0  0  0  0  0  0  0
    2.4553    1.1645    0.3376 N   0  0  0  0  0  0  0  0  0  0  0  0
    1.9206    0.2709   -0.6720 C   0  0  0  0  0  0  0  0  0  0  0  0
    0.7239   -0.4785   -0.0667 C   0  0  0  0  0  0  0  0  0  0  0  0
   -0.3740    0.4646    0.1585 N   0  0  0  0  0  0  0  0  0  0  0  0
    0.0777    1.8622    0.3189 C   0  0  2  0  0  0  0  0  0  0  0  0
    1.3688    1.8919    1.0307 C   0  0  0  0  0  0  0  0  0  0  0  0
    1.6281    2.4375    2.1052 O   0  0  0  0  0  0  0  0  0  0  0  0
   -0.9155    2.7959    0.8673 C   0  0  0  0  0  0  0  0  0  0  0  0
   -0.3379    4.2005    0.9887 C   0  0  0  0  0  0  0  0  0  0  0  0
    0.1184    4.7213   -0.3604 C   0  0  0  0  0  0  0  0  0  0  0  0
    0.6323    6.0704   -0.1150 N   0  0  0  0  0  0  0  0  0  0  0  0
    1.9070    6.2161    0.0532 C   0  0  0  0  0  0  0  0  0  0  0  0
    2.8251    5.1316    0.0105 N   0  0  0  0  0  0  0  0  0  0  0  0
    2.3548    7.5626    0.2886 N   0  0  0  0  0  0  0  0  0  0  0  0
   -1.7290    0.0849    0.1892 C   0  0  0  0  0  0  0  0  0  0  0  0
   -2.6823    0.8992    0.4138 O   0  0  0  0  0  0  0  0  0  0  0  0
   -2.2104   -1.3225   -0.0462 C   0  0  2  0  0  0  0  0  0  0  0  0
   -3.6634   -1.3405   -0.0956 N   0  0  0  0  0  0  0  0  0  0  0  0
   -4.2593   -1.4816   -1.3615 C   0  0  0  0  0  0  0  0  0  0  0  0
   -3.4767   -1.5730   -2.3703 O   0  0  0  0  0  0  0  0  0  0  0  0
   -5.7027   -1.5302   -1.6607 C   0  0  1  0  0  0  0  0  0  0  0  0
   -5.8931   -1.3521   -3.1266 N   0  0  0  0  0  0  0  0  0  0  0  0
   -6.7391   -0.2737   -3.5065 C   0  0  0  0  0  0  0  0  0  0  0  0
   -7.2953    0.4868   -2.6624 O   0  0  0  0  0  0  0  0  0  0  0  0
   -6.9986   -0.0063   -4.9578 C   0  0  0  0  0  0  0  0  0  0  0  0
   -6.2558   -2.8803   -1.2961 C   0  0  0  0  0  0  0  0  0  0  0  0
   -6.1493   -3.3209    0.1068 C   0  0  0  0  0  0  0  0  0  0  0  0
   -6.8578   -2.4023    1.0141 C   0  0  0  0  0  0  0  0  0  0  0  0
   -7.4836   -1.3767    0.6876 O   0  0  0  0  0  0  0  0  0  0  0  0
   -6.8204   -2.7281    2.4167 N   0  0  0  0  0  0  0  0  0  0  0  0
   -1.7357   -2.2506    1.0256 C   0  0  0  0  0  0  0  0  0  0  0  0
   -2.1740   -1.8561    2.4004 C   0  0  0  0  0  0  0  0  0  0  0  0
   -1.3703   -1.0013    3.1404 C   0  0  0  0  0  0  0  0  0  0  0  0
   -1.6798   -0.5883    4.4145 C   0  0  0  0  0  0  0  0  0  0  0  0
   -2.8439   -1.0441    4.9853 C   0  0  0  0  0  0  0  0  0  0  0  0
   -3.6437   -1.8823    4.2748 C   0  0  0  0  0  0  0  0  0  0  0  0
   -3.3337   -2.3037    2.9832 C   0  0  0  0  0  0  0  0  0  0  0  0
   -3.1301   -0.6231    6.2469 F   0  0  0  0  0  0  0  0  0  0  0  0
    4.4549    0.2711    1.4916 C   0  0  0  0  0  0  0  0  0  0  0  0
    4.8906   -0.9185    0.8033 C   0  0  0  0  0  0  0  0  0  0  0  0
    4.0720   -2.0523    0.7409 C   0  0  0  0  0  0  0  0  0  0  0  0
    4.4473   -3.2070    0.0982 C   0  0  0  0  0  0  0  0  0  0  0  0
    5.6699   -3.3165   -0.5315 C   0  0  0  0  0  0  0  0  0  0  0  0
    6.4922   -2.2174   -0.4841 C   0  0  0  0  0  0  0  0  0  0  0  0
    6.1163   -1.0551    0.1623 C   0  0  0  0  0  0  0  0  0  0  0  0
    7.7200   -2.3006   -1.1067 C   0  0  0  0  0  0  0  0  0  0  0  0
    8.0820   -3.4633   -1.7477 C   0  0  0  0  0  0  0  0  0  0  0  0
    7.2285   -4.5667   -1.7818 C   0  0  0  0  0  0  0  0  0  0  0  0
    5.9918   -4.4968   -1.1602 C   0  0  0  0  0  0  0  0  0  0  0  0
    4.9963    3.8054   -2.8569 H   0  0  0  0  0  0  0  0  0  0  0  0
    6.3319    2.9434   -2.0551 H   0  0  0  0  0  0  0  0  0  0  0  0
    5.4718    2.1865   -3.5034 H   0  0  0  0  0  0  0  0  0  0  0  0
    3.4322    2.0393   -2.0663 H   0  0  0  0  0  0  0  0  0  0  0  0
    3.7398    2.2165    1.5370 H   0  0  0  0  0  0  0  0  0  0  0  0
    1.5669    0.8569   -1.5492 H   0  0  0  0  0  0  0  0  0  0  0  0
    2.6779   -0.4199   -1.0000 H   0  0  0  0  0  0  0  0  0  0  0  0
    1.0463   -0.9505    0.8713 H   0  0  0  0  0  0  0  0  0  0  0  0
    0.3989   -1.2238   -0.7841 H   0  0  0  0  0  0  0  0  0  0  0  0
    0.2996    2.2011   -0.7531 H   0  0  0  0  0  0  0  0  0  0  0  0
   -1.8073    2.9066    0.1898 H   0  0  0  0  0  0  0  0  0  0  0  0
   -1.2361    2.4707    1.8711 H   0  0  0  0  0  0  0  0  0  0  0  0
   -1.1392    4.8902    1.3945 H   0  0  0  0  0  0  0  0  0  0  0  0
    0.5005    4.2867    1.6851 H   0  0  0  0  0  0  0  0  0  0  0  0
    0.9458    4.0777   -0.7589 H   0  0  0  0  0  0  0  0  0  0  0  0
   -0.7412    4.7371   -1.0521 H   0  0  0  0  0  0  0  0  0  0  0  0
    3.2454    4.8617    0.9486 H   0  0  0  0  0  0  0  0  0  0  0  0
    3.0851    4.6224   -0.8578 H   0  0  0  0  0  0  0  0  0  0  0  0
    2.6411    7.9010    1.2327 H   0  0  0  0  0  0  0  0  0  0  0  0
    2.3953    8.2378   -0.5305 H   0  0  0  0  0  0  0  0  0  0  0  0
   -1.7567   -1.6081   -1.0047 H   0  0  0  0  0  0  0  0  0  0  0  0
   -4.2490   -1.2404    0.7525 H   0  0  0  0  0  0  0  0  0  0  0  0
   -6.2654   -0.7533   -1.1505 H   0  0  0  0  0  0  0  0  0  0  0  0
   -5.4245   -1.9899   -3.8045 H   0  0  0  0  0  0  0  0  0  0  0  0
   -6.2686    0.6582   -5.4190 H   0  0  0  0  0  0  0  0  0  0  0  0
   -8.0271    0.3801   -5.1199 H   0  0  0  0  0  0  0  0  0  0  0  0
   -6.9668   -1.0090   -5.4549 H   0  0  0  0  0  0  0  0  0  0  0  0
   -7.3573   -2.8215   -1.5594 H   0  0  0  0  0  0  0  0  0  0  0  0
   -5.8828   -3.6575   -2.0283 H   0  0  0  0  0  0  0  0  0  0  0  0
   -5.0810   -3.3724    0.3824 H   0  0  0  0  0  0  0  0  0  0  0  0
   -6.6147   -4.3506    0.1667 H   0  0  0  0  0  0  0  0  0  0  0  0
   -6.2759   -2.1676    3.1060 H   0  0  0  0  0  0  0  0  0  0  0  0
   -7.3863   -3.5732    2.6790 H   0  0  0  0  0  0  0  0  0  0  0  0
   -0.6549   -2.4647    0.9626 H   0  0  0  0  0  0  0  0  0  0  0  0
   -2.1980   -3.2884    0.8637 H   0  0  0  0  0  0  0  0  0  0  0  0
   -0.4437   -0.6246    2.7198 H   0  0  0  0  0  0  0  0  0  0  0  0
   -1.0083    0.0806    4.9381 H   0  0  0  0  0  0  0  0  0  0  0  0
   -4.5648   -2.2210    4.7758 H   0  0  0  0  0  0  0  0  0  0  0  0
   -3.9850   -2.9703    2.4460 H   0  0  0  0  0  0  0  0  0  0  0  0
    3.7212    0.0344    2.3228 H   0  0  0  0  0  0  0  0  0  0  0  0
    5.3439    0.6643    2.0720 H   0  0  0  0  0  0  0  0  0  0  0  0
    3.1006   -2.0541    1.2126 H   0  0  0  0  0  0  0  0  0  0  0  0
    3.7735   -4.0597    0.0799 H   0  0  0  0  0  0  0  0  0  0  0  0
    6.8313   -0.2537    0.1520 H   0  0  0  0  0  0  0  0  0  0  0  0
    8.4346   -1.4826   -1.1206 H   0  0  0  0  0  0  0  0  0  0  0  0
    9.0330   -3.5783   -2.2503 H   0  0  0  0  0  0  0  0  0  0  0  0
    7.4820   -5.4884   -2.2739 H   0  0  0  0  0  0  0  0  0  0  0  0
    5.3179   -5.3542   -1.1816 H   0  0  0  0  0  0  0  0  0  0  0  0
  1  2  1  0
  2  3  1  0
  3  4  2  0
  3  5  1  0
  5  6  1  0
  6  7  1  0
  7  8  1  0
  8  9  1  0
  9 10  1  0
 10 11  1  0
 11 12  2  0
 10 13  1  0
 13 14  1  0
 14 15  1  0
 15 16  1  0
 16 17  2  3
 17 18  1  0
 17 19  1  0
  9 20  1  0
 20 21  2  0
 20 22  1  0
 22 23  1  0
 23 24  1  0
 24 25  2  0
 24 26  1  0
 26 27  1  0
 27 28  1  0
 28 29  2  0
 28 30  1  0
 26 31  1  0
 31 32  1  0
 32 33  1  0
 33 34  2  0
 33 35  1  0
 22 36  1  0
 36 37  1  0
 37 38  2  0
 38 39  1  0
 39 40  2  0
 40 41  1  0
 41 42  2  0
 40 43  1  0
  5 44  1  0
 44 45  1  0
 45 46  2  0
 46 47  1  0
 47 48  2  0
 48 49  1  0
 49 50  2  0
 49 51  1  0
 51 52  2  0
 52 53  1  0
 53 54  2  0
 11  6  1  0
 42 37  1  0
 50 45  1  0
 54 48  1  0
  1 55  1  0
  1 56  1  0
  1 57  1  0
  2 58  1  0
  5 59  1  1
  7 60  1  0
  7 61  1  0
  8 62  1  0
  8 63  1  0
 10 64  1  6
 13 65  1  0
 13 66  1  0
 14 67  1  0
 14 68  1  0
 15 69  1  0
 15 70  1  0
 18 71  1  0
 18 72  1  0
 19 73  1  0
 19 74  1  0
 22 75  1  6
 23 76  1  0
 26 77  1  1
 27 78  1  0
 30 79  1  0
 30 80  1  0
 30 81  1  0
 31 82  1  0
 31 83  1  0
 32 84  1  0
 32 85  1  0
 35 86  1  0
 35 87  1  0
 36 88  1  0
 36 89  1  0
 38 90  1  0
 39 91  1  0
 41 92  1  0
 42 93  1  0
 44 94  1  0
 44 95  1  0
 46 96  1  0
 47 97  1  0
 50 98  1  0
 51 99  1  0
 52100  1  0
 53101  1  0
 54102  1  0
M  END
>  <Ligand ID>  (1) 
LIG0003310

>  <Ligand>  (1) 
CHEMBL215833

>  <SMILES>  (1) 
CNC(=O)[C@@H](N1CCN([C@H](C1=O)CCCN=C(N)N)C(=O)[C@H](NC(=O)[C@@H](NC(=O)C)CCC(=O)N)Cc1ccc(cc1)F)Cc1ccc2c(c1)cccc2

>  <CID>  (1) 
44416057.0

>  <ChEMBL ID>  (1) 
nan

>  <InChiKey>  (1) 
ZRHYLFBORVIBEU-RACKDBBVSA-N

>  <InChi>  (1) 
InChI=1S/C38H48FN9O6/c1-23(49)45-29(15-16-33(40)50)34(51)46-30(21-24-10-13-28(39)14-11-24)36(53)47-18-19-48(37(54)31(47)8-5-17-44-38(41)42)32(35(52)43-2)22-25-9-12-26-6-3-4-7-27(26)20-25/h3-4,6-7,9-14,20,29-32H,5,8,15-19,21-22H2,1-2H3,(H2,40,50)(H,43,52)(H,45,49)(H,46,51)(H4,41,42,44)/t29-,30+,31-,32-/m0/s1

>  <IUPAC Name>  (1) 
(2S)-2-acetamido-N-[(2R)-1-[(2S)-2-[3-(diaminomethylideneamino)propyl]-4-[(2S)-1-(methylamino)-3-naphthalen-2-yl-1-oxopropan-2-yl]-3-oxopiperazin-1-yl]-3-(4-fluorophenyl)-1-oxopropan-2-yl]pentanediamide

$$$$
