
     RDKit          3D

 30 30  0  0  0  0  0  0  0  0999 V2000
    0.0254   -3.6848   -0.9948 O   0  0  0  0  0  0  0  0  0  0  0  0
    0.8615   -2.7860   -0.7256 C   0  0  0  0  0  0  0  0  0  0  0  0
    0.4694   -1.3482   -0.6746 C   0  0  0  0  0  0  0  0  0  0  0  0
   -0.7999   -1.1271   -0.9243 C   0  0  0  0  0  0  0  0  0  0  0  0
   -1.4591    0.1840   -0.9509 C   0  0  0  0  0  0  0  0  0  0  0  0
   -2.5731    0.2185    0.0722 C   0  0  0  0  0  0  0  0  0  0  0  0
   -2.0426   -0.0392    1.4500 C   0  0  0  0  0  0  0  0  0  0  0  0
   -3.2010    1.6007   -0.0146 C   0  0  0  0  0  0  0  0  0  0  0  0
    1.4602   -0.3987   -0.2658 C   0  0  0  0  0  0  0  0  0  0  0  0
    2.7990   -0.7532   -0.5062 C   0  0  0  0  0  0  0  0  0  0  0  0
    3.8441    0.0297   -0.1105 C   0  0  0  0  0  0  0  0  0  0  0  0
    3.6499    1.2201    0.5515 C   0  0  0  0  0  0  0  0  0  0  0  0
    2.3663    1.5935    0.8014 C   0  0  0  0  0  0  0  0  0  0  0  0
    1.2916    0.7856    0.3939 C   0  0  0  0  0  0  0  0  0  0  0  0
    1.8662   -3.1145   -0.5351 H   0  0  0  0  0  0  0  0  0  0  0  0
   -1.4790   -1.9825   -1.1414 H   0  0  0  0  0  0  0  0  0  0  0  0
   -0.8895    1.0796   -0.9583 H   0  0  0  0  0  0  0  0  0  0  0  0
   -2.0123    0.1953   -1.9883 H   0  0  0  0  0  0  0  0  0  0  0  0
   -3.3537   -0.5445   -0.1923 H   0  0  0  0  0  0  0  0  0  0  0  0
   -1.7024    0.8900    1.9675 H   0  0  0  0  0  0  0  0  0  0  0  0
   -1.1380   -0.7005    1.3180 H   0  0  0  0  0  0  0  0  0  0  0  0
   -2.7870   -0.5334    2.1094 H   0  0  0  0  0  0  0  0  0  0  0  0
   -4.2645    1.4920    0.2769 H   0  0  0  0  0  0  0  0  0  0  0  0
   -2.7059    2.3234    0.6494 H   0  0  0  0  0  0  0  0  0  0  0  0
   -3.1845    1.8867   -1.0872 H   0  0  0  0  0  0  0  0  0  0  0  0
    3.0541   -1.6707   -1.0341 H   0  0  0  0  0  0  0  0  0  0  0  0
    4.8492   -0.2915   -0.3238 H   0  0  0  0  0  0  0  0  0  0  0  0
    4.5192    1.7859    0.8328 H   0  0  0  0  0  0  0  0  0  0  0  0
    2.1990    2.5230    1.3187 H   0  0  0  0  0  0  0  0  0  0  0  0
    0.3375    1.1666    0.6860 H   0  0  0  0  0  0  0  0  0  0  0  0
  1  2  2  0
  2  3  1  0
  3  4  2  0
  4  5  1  0
  5  6  1  0
  6  7  1  0
  6  8  1  0
  3  9  1  0
  9 10  2  0
 10 11  1  0
 11 12  2  0
 12 13  1  0
 13 14  2  0
 14  9  1  0
  2 15  1  0
  4 16  1  0
  5 17  1  0
  5 18  1  0
  6 19  1  0
  7 20  1  0
  7 21  1  0
  7 22  1  0
  8 23  1  0
  8 24  1  0
  8 25  1  0
 10 26  1  0
 11 27  1  0
 12 28  1  0
 13 29  1  0
 14 30  1  0
M  END
>  <Ligand ID>  (1) 
LIG0001062

>  <Ligand>  (1) 
(E)-5-methyl-2-phenylhex-2-enal

>  <SMILES>  (1) 
O=C/C(=C/CC(C)C)/c1ccccc1

>  <CID>  (1) 
5370602.0

>  <ChEMBL ID>  (1) 
nan

>  <InChiKey>  (1) 
YURDCJXYOLERLO-LCYFTJDESA-N

>  <InChi>  (1) 
InChI=1S/C13H16O/c1-11(2)8-9-13(10-14)12-6-4-3-5-7-12/h3-7,9-11H,8H2,1-2H3/b13-9-

>  <IUPAC Name>  (1) 
(E)-5-methyl-2-phenylhex-2-enal

$$$$
