
     RDKit          3D

 71 72  0  0  0  0  0  0  0  0999 V2000
    0.8543   -2.7547   -0.6452 O   0  0  0  0  0  0  0  0  0  0  0  0
    1.1235   -1.4441   -0.2086 C   0  0  0  0  0  0  0  0  0  0  0  0
   -0.3029   -0.8242    0.0453 C   0  0  0  0  0  0  0  0  0  0  0  0
   -0.8661   -1.6641    1.0322 O   0  0  0  0  0  0  0  0  0  0  0  0
   -2.1448   -1.3802    1.4778 C   0  0  0  0  0  0  0  0  0  0  0  0
   -2.9083   -0.3310    1.0231 C   0  0  0  0  0  0  0  0  0  0  0  0
   -4.1779   -0.1455    1.5440 C   0  0  0  0  0  0  0  0  0  0  0  0
   -4.7347   -0.9528    2.4994 C   0  0  0  0  0  0  0  0  0  0  0  0
   -3.9314   -2.0155    2.9445 C   0  0  0  0  0  0  0  0  0  0  0  0
   -2.6645   -2.2259    2.4459 C   0  0  0  0  0  0  0  0  0  0  0  0
   -5.9659   -0.8453    3.0599 O   0  0  0  0  0  0  0  0  0  0  0  0
   -6.9820    0.0711    2.8144 C   0  0  0  0  0  0  0  0  0  0  0  0
   -7.5638    0.0523    1.4301 C   0  0  0  0  0  0  0  0  0  0  0  0
   -8.5737    1.0025    1.2630 O   0  0  0  0  0  0  0  0  0  0  0  0
   -9.1014    0.9711   -0.0204 C   0  0  0  0  0  0  0  0  0  0  0  0
   -8.0853    1.2441   -1.1002 C   0  0  0  0  0  0  0  0  0  0  0  0
   -8.6770    1.2061   -2.4885 C   0  0  0  0  0  0  0  0  0  0  0  0
   -7.6949    0.1679   -2.0802 C   0  0  0  0  0  0  0  0  0  0  0  0
    1.7694   -1.4014    1.1230 C   0  0  0  0  0  0  0  0  0  0  0  0
    2.9540   -2.0487    1.3929 N   0  0  0  0  0  0  0  0  0  0  0  0
    4.1781   -1.6523    0.8504 C   0  0  0  0  0  0  0  0  0  0  0  0
    4.3391   -1.9245   -0.6017 C   0  0  0  0  0  0  0  0  0  0  0  0
    5.6696   -1.5250   -1.1032 N   0  0  0  0  0  0  0  0  0  0  0  0
    6.1354   -0.1884   -1.0472 C   0  0  0  0  0  0  0  0  0  0  0  0
    5.3751    0.6732   -0.5572 O   0  0  0  0  0  0  0  0  0  0  0  0
    7.4154    0.1298   -1.5344 N   0  0  0  0  0  0  0  0  0  0  0  0
    8.0241    1.4000   -1.5509 C   0  0  0  0  0  0  0  0  0  0  0  0
    7.4697    2.5642   -1.0902 C   0  0  0  0  0  0  0  0  0  0  0  0
    8.1229    3.7964   -1.1341 C   0  0  0  0  0  0  0  0  0  0  0  0
    9.3935    3.8679   -1.6653 C   0  0  0  0  0  0  0  0  0  0  0  0
    9.9592    2.7071   -2.1304 C   0  0  0  0  0  0  0  0  0  0  0  0
    9.3000    1.4900   -2.0810 C   0  0  0  0  0  0  0  0  0  0  0  0
   10.0210    5.1047   -1.6970 O   0  0  0  0  0  0  0  0  0  0  0  0
    0.8775   -0.4579    0.0656 O   0  0  0  0  0  0  0  0  0  0  0  0
   -0.4606   -0.0810    0.0662 C   0  0  0  0  0  0  0  0  0  0  0  0
   -0.7608    1.1268   -0.1266 O   0  0  0  0  0  0  0  0  0  0  0  0
    1.1850   -3.4372   -0.0323 H   0  0  0  0  0  0  0  0  0  0  0  0
    1.5124   -0.8257   -1.0081 H   0  0  0  0  0  0  0  0  0  0  0  0
   -0.8158   -0.8762   -0.9353 H   0  0  0  0  0  0  0  0  0  0  0  0
   -0.2089    0.2226    0.3299 H   0  0  0  0  0  0  0  0  0  0  0  0
   -2.4986    0.3286    0.2656 H   0  0  0  0  0  0  0  0  0  0  0  0
   -4.7244    0.7014    1.1623 H   0  0  0  0  0  0  0  0  0  0  0  0
   -4.3126   -2.7087    3.7143 H   0  0  0  0  0  0  0  0  0  0  0  0
   -2.0926   -3.0638    2.8280 H   0  0  0  0  0  0  0  0  0  0  0  0
   -7.8222   -0.0516    3.5352 H   0  0  0  0  0  0  0  0  0  0  0  0
   -6.5160    1.0957    2.9479 H   0  0  0  0  0  0  0  0  0  0  0  0
   -8.1106   -0.9345    1.3607 H   0  0  0  0  0  0  0  0  0  0  0  0
   -6.8523    0.0288    0.6026 H   0  0  0  0  0  0  0  0  0  0  0  0
   -9.7049    0.0919   -0.2505 H   0  0  0  0  0  0  0  0  0  0  0  0
   -9.8108    1.8498   -0.0588 H   0  0  0  0  0  0  0  0  0  0  0  0
   -7.3533    2.0413   -0.8926 H   0  0  0  0  0  0  0  0  0  0  0  0
   -8.3332    1.9338   -3.2544 H   0  0  0  0  0  0  0  0  0  0  0  0
   -9.7192    0.8338   -2.6319 H   0  0  0  0  0  0  0  0  0  0  0  0
   -8.0058   -0.8652   -1.8099 H   0  0  0  0  0  0  0  0  0  0  0  0
   -6.6287    0.2140   -2.4071 H   0  0  0  0  0  0  0  0  0  0  0  0
    1.7933   -0.2831    1.4006 H   0  0  0  0  0  0  0  0  0  0  0  0
    0.9847   -1.7702    1.8848 H   0  0  0  0  0  0  0  0  0  0  0  0
    2.9967   -2.4796    2.3500 H   0  0  0  0  0  0  0  0  0  0  0  0
    4.2799   -0.5349    1.0463 H   0  0  0  0  0  0  0  0  0  0  0  0
    5.0460   -2.0661    1.4471 H   0  0  0  0  0  0  0  0  0  0  0  0
    4.1906   -3.0127   -0.8249 H   0  0  0  0  0  0  0  0  0  0  0  0
    3.6100   -1.3966   -1.2225 H   0  0  0  0  0  0  0  0  0  0  0  0
    6.2813   -2.2884   -1.5167 H   0  0  0  0  0  0  0  0  0  0  0  0
    7.9718   -0.6865   -1.9293 H   0  0  0  0  0  0  0  0  0  0  0  0
    6.4879    2.5779   -0.6662 H   0  0  0  0  0  0  0  0  0  0  0  0
    7.6423    4.6924   -0.7566 H   0  0  0  0  0  0  0  0  0  0  0  0
   10.9530    2.7392   -2.5502 H   0  0  0  0  0  0  0  0  0  0  0  0
    9.8305    0.6289   -2.4730 H   0  0  0  0  0  0  0  0  0  0  0  0
   11.0151    5.1286   -1.8651 H   0  0  0  0  0  0  0  0  0  0  0  0
    1.6118    0.1965   -0.2317 H   0  0  0  0  0  0  0  0  0  0  0  0
   -1.2679   -0.7844    0.2265 H   0  0  0  0  0  0  0  0  0  0  0  0
  1  2  1  0
  2  3  1  0
  3  4  1  0
  4  5  1  0
  5  6  2  0
  6  7  1  0
  7  8  2  0
  8  9  1  0
  9 10  2  0
  8 11  1  0
 11 12  1  0
 12 13  1  0
 13 14  1  0
 14 15  1  0
 15 16  1  0
 16 17  1  0
 17 18  1  0
  2 19  1  0
 19 20  1  0
 20 21  1  0
 21 22  1  0
 22 23  1  0
 23 24  1  0
 24 25  2  0
 24 26  1  0
 26 27  1  0
 27 28  2  0
 28 29  1  0
 29 30  2  0
 30 31  1  0
 31 32  2  0
 30 33  1  0
 34 35  1  0
 35 36  2  0
 10  5  1  0
 18 16  1  0
 32 27  1  0
  1 37  1  0
  2 38  1  0
  3 39  1  0
  3 40  1  0
  6 41  1  0
  7 42  1  0
  9 43  1  0
 10 44  1  0
 12 45  1  0
 12 46  1  0
 13 47  1  0
 13 48  1  0
 15 49  1  0
 15 50  1  0
 16 51  1  0
 17 52  1  0
 17 53  1  0
 18 54  1  0
 18 55  1  0
 19 56  1  0
 19 57  1  0
 20 58  1  0
 21 59  1  0
 21 60  1  0
 22 61  1  0
 22 62  1  0
 23 63  1  0
 26 64  1  0
 28 65  1  0
 29 66  1  0
 31 67  1  0
 32 68  1  0
 33 69  1  0
 34 70  1  0
 35 71  1  0
M  END
>  <Ligand ID>  (1) 
LIG0002970

>  <Ligand>  (1) 
CHEMBL2348220

>  <SMILES>  (1) 
OC(COc1ccc(cc1)OCCOCC1CC1)CNCCNC(=O)Nc1ccc(cc1)O.OC=O

>  <CID>  (1) 
71662071.0

>  <ChEMBL ID>  (1) 
nan

>  <InChiKey>  (1) 
VKWFJDUMSGXDRP-UHFFFAOYSA-N

>  <InChi>  (1) 
InChI=1S/C24H33N3O6.CH2O2/c28-20-5-3-19(4-6-20)27-24(30)26-12-11-25-15-21(29)17-33-23-9-7-22(8-10-23)32-14-13-31-16-18-1-2-18;2-1-3/h3-10,18,21,25,28-29H,1-2,11-17H2,(H2,26,27,30);1H,(H,2,3)

>  <IUPAC Name>  (1) 
1-[2-[[3-[4-[2-(cyclopropylmethoxy)ethoxy]phenoxy]-2-hydroxypropyl]amino]ethyl]-3-(4-hydroxyphenyl)urea;formic acid

$$$$
