
     RDKit          3D

 34 36  0  0  0  0  0  0  0  0999 V2000
    6.8133    0.8145   -0.2346 O   0  0  0  0  0  0  0  0  0  0  0  0
    5.5651    0.2414   -0.2668 C   0  0  0  0  0  0  0  0  0  0  0  0
    4.9124   -0.1832    0.8899 C   0  0  0  0  0  0  0  0  0  0  0  0
    3.6525   -0.7559    0.8031 C   0  0  0  0  0  0  0  0  0  0  0  0
    3.0046   -0.9270   -0.4005 C   0  0  0  0  0  0  0  0  0  0  0  0
    3.6562   -0.5047   -1.5407 C   0  0  0  0  0  0  0  0  0  0  0  0
    4.9120    0.0692   -1.4828 C   0  0  0  0  0  0  0  0  0  0  0  0
    1.7657   -1.4994   -0.3990 O   0  0  0  0  0  0  0  0  0  0  0  0
    0.5819   -0.7821   -0.2872 C   0  0  0  0  0  0  0  0  0  0  0  0
    0.5373    0.5919   -0.1655 C   0  0  0  0  0  0  0  0  0  0  0  0
   -0.7250    1.1856   -0.0612 C   0  0  0  0  0  0  0  0  0  0  0  0
   -1.8837    0.4181   -0.0801 C   0  0  0  0  0  0  0  0  0  0  0  0
   -1.7709   -0.9530   -0.2044 C   0  0  0  0  0  0  0  0  0  0  0  0
   -0.5616   -1.5171   -0.3038 N   0  0  0  0  0  0  0  0  0  0  0  0
   -2.8657   -1.7632   -0.2296 N   0  0  0  0  0  0  0  0  0  0  0  0
   -4.1112   -1.2430   -0.1324 C   0  0  0  0  0  0  0  0  0  0  0  0
   -4.2562    0.1233   -0.0072 C   0  0  0  0  0  0  0  0  0  0  0  0
   -3.1426    0.9708    0.0205 C   0  0  0  0  0  0  0  0  0  0  0  0
   -3.2687    2.4379    0.1537 C   0  0  0  0  0  0  0  0  0  0  0  0
   -4.6180    2.7347    0.2357 F   0  0  0  0  0  0  0  0  0  0  0  0
   -2.7121    3.1134   -0.9214 F   0  0  0  0  0  0  0  0  0  0  0  0
   -2.6899    2.8667    1.3182 F   0  0  0  0  0  0  0  0  0  0  0  0
   -5.3274   -2.1164   -0.1581 C   0  0  0  0  0  0  0  0  0  0  0  0
   -6.3292   -1.5920   -0.9502 F   0  0  0  0  0  0  0  0  0  0  0  0
   -5.8651   -2.2692    1.1060 F   0  0  0  0  0  0  0  0  0  0  0  0
   -5.0363   -3.3572   -0.6887 F   0  0  0  0  0  0  0  0  0  0  0  0
    7.1405    1.1994    0.6334 H   0  0  0  0  0  0  0  0  0  0  0  0
    5.4259   -0.0472    1.8398 H   0  0  0  0  0  0  0  0  0  0  0  0
    3.2088   -1.0627    1.7593 H   0  0  0  0  0  0  0  0  0  0  0  0
    3.1776   -0.6237   -2.4995 H   0  0  0  0  0  0  0  0  0  0  0  0
    5.3897    0.3875   -2.4005 H   0  0  0  0  0  0  0  0  0  0  0  0
    1.4490    1.1580   -0.1540 H   0  0  0  0  0  0  0  0  0  0  0  0
   -0.8014    2.2742    0.0369 H   0  0  0  0  0  0  0  0  0  0  0  0
   -5.2275    0.6105    0.0757 H   0  0  0  0  0  0  0  0  0  0  0  0
  1  2  1  0
  2  3  2  0
  3  4  1  0
  4  5  2  0
  5  6  1  0
  6  7  2  0
  5  8  1  0
  8  9  1  0
  9 10  2  0
 10 11  1  0
 11 12  2  0
 12 13  1  0
 13 14  2  0
 13 15  1  0
 15 16  2  0
 16 17  1  0
 17 18  2  0
 18 19  1  0
 19 20  1  0
 19 21  1  0
 19 22  1  0
 16 23  1  0
 23 24  1  0
 23 25  1  0
 23 26  1  0
  7  2  1  0
 14  9  1  0
 18 12  1  0
  1 27  1  0
  3 28  1  0
  4 29  1  0
  6 30  1  0
  7 31  1  0
 10 32  1  0
 11 33  1  0
 17 34  1  0
M  END
>  <Ligand ID>  (1) 
LIG0002565

>  <Ligand>  (1) 
303996-31-8

>  <SMILES>  (1) 
Oc1ccc(cc1)Oc1ccc2c(n1)nc(cc2C(F)(F)F)C(F)(F)F

>  <CID>  (1) 
1482352.0

>  <ChEMBL ID>  (1) 
nan

>  <InChiKey>  (1) 
RQMBVQYGPRMKDV-UHFFFAOYSA-N

>  <InChi>  (1) 
InChI=1S/C16H8F6N2O2/c17-15(18,19)11-7-12(16(20,21)22)23-14-10(11)5-6-13(24-14)26-9-3-1-8(25)2-4-9/h1-7,25H

>  <IUPAC Name>  (1) 
4-[[5,7-bis(trifluoromethyl)-1,8-naphthyridin-2-yl]oxy]phenol

$$$$
