
     RDKit          3D

 39 41  0  0  0  0  0  0  0  0999 V2000
    2.3475   -1.5214    0.8945 C   0  0  0  0  0  0  0  0  0  0  0  0
    1.7805   -0.7953   -0.2932 C   0  0  0  0  0  0  0  0  0  0  0  0
    2.6275    0.3804   -0.6234 C   0  0  0  0  0  0  0  0  0  0  0  0
    3.2619    0.6392   -1.7164 N   0  0  0  0  0  0  0  0  0  0  0  0
    3.9794    1.8918   -1.6472 C   0  0  0  0  0  0  0  0  0  0  0  0
    3.9430    2.2593   -0.1859 C   0  0  0  0  0  0  0  0  0  0  0  0
    2.8573    1.4411    0.2956 N   0  0  0  0  0  0  0  0  0  0  0  0
    0.3864   -0.4319   -0.1278 N   0  0  0  0  0  0  0  0  0  0  0  0
   -0.5884   -1.4384    0.0424 C   0  0  0  0  0  0  0  0  0  0  0  0
   -0.2534   -2.7719    0.0213 C   0  0  0  0  0  0  0  0  0  0  0  0
   -1.2103   -3.7816    0.1630 C   0  0  0  0  0  0  0  0  0  0  0  0
   -2.5425   -3.4640    0.3311 C   0  0  0  0  0  0  0  0  0  0  0  0
   -2.8795   -2.1268    0.3527 C   0  0  0  0  0  0  0  0  0  0  0  0
   -1.9167   -1.1198    0.2108 C   0  0  0  0  0  0  0  0  0  0  0  0
   -2.4189    0.2444    0.2786 C   0  0  0  0  0  0  0  0  0  0  0  0
   -1.9231    1.2176    1.0949 C   0  0  0  0  0  0  0  0  0  0  0  0
   -2.4223    2.5151    1.1230 C   0  0  0  0  0  0  0  0  0  0  0  0
   -3.4744    2.8488    0.2867 C   0  0  0  0  0  0  0  0  0  0  0  0
   -3.9933    1.8656   -0.5537 C   0  0  0  0  0  0  0  0  0  0  0  0
   -3.4828    0.5835   -0.5660 C   0  0  0  0  0  0  0  0  0  0  0  0
    2.9162   -2.4304    0.6595 H   0  0  0  0  0  0  0  0  0  0  0  0
    1.5204   -1.6626    1.6272 H   0  0  0  0  0  0  0  0  0  0  0  0
    3.0985   -0.8598    1.4215 H   0  0  0  0  0  0  0  0  0  0  0  0
    1.7726   -1.5354   -1.1457 H   0  0  0  0  0  0  0  0  0  0  0  0
    5.0459    1.7702   -1.9523 H   0  0  0  0  0  0  0  0  0  0  0  0
    3.5048    2.6820   -2.2843 H   0  0  0  0  0  0  0  0  0  0  0  0
    3.7110    3.3496   -0.1377 H   0  0  0  0  0  0  0  0  0  0  0  0
    4.9019    2.0296    0.2832 H   0  0  0  0  0  0  0  0  0  0  0  0
    2.3374    1.6244    1.1876 H   0  0  0  0  0  0  0  0  0  0  0  0
    0.1712    0.5870   -0.1511 H   0  0  0  0  0  0  0  0  0  0  0  0
    0.7609   -3.1230   -0.1072 H   0  0  0  0  0  0  0  0  0  0  0  0
   -0.9120   -4.8291    0.1419 H   0  0  0  0  0  0  0  0  0  0  0  0
   -3.2719   -4.2480    0.4390 H   0  0  0  0  0  0  0  0  0  0  0  0
   -3.9354   -1.8736    0.4859 H   0  0  0  0  0  0  0  0  0  0  0  0
   -1.1159    1.0075    1.7672 H   0  0  0  0  0  0  0  0  0  0  0  0
   -1.9864    3.2463    1.7937 H   0  0  0  0  0  0  0  0  0  0  0  0
   -3.8531    3.8547    0.3161 H   0  0  0  0  0  0  0  0  0  0  0  0
   -4.8151    2.1078   -1.2136 H   0  0  0  0  0  0  0  0  0  0  0  0
   -3.9291   -0.1330   -1.2407 H   0  0  0  0  0  0  0  0  0  0  0  0
  1  2  1  0
  2  3  1  0
  3  4  2  0
  4  5  1  0
  5  6  1  0
  6  7  1  0
  2  8  1  0
  8  9  1  0
  9 10  2  0
 10 11  1  0
 11 12  2  0
 12 13  1  0
 13 14  2  0
 14 15  1  0
 15 16  2  0
 16 17  1  0
 17 18  2  0
 18 19  1  0
 19 20  2  0
  7  3  1  0
 14  9  1  0
 20 15  1  0
  1 21  1  0
  1 22  1  0
  1 23  1  0
  2 24  1  0
  5 25  1  0
  5 26  1  0
  6 27  1  0
  6 28  1  0
  7 29  1  0
  8 30  1  0
 10 31  1  0
 11 32  1  0
 12 33  1  0
 13 34  1  0
 16 35  1  0
 17 36  1  0
 18 37  1  0
 19 38  1  0
 20 39  1  0
M  END
>  <Ligand ID>  (1) 
LIG0003510

>  <Ligand>  (1) 
CHEMBL130884

>  <SMILES>  (1) 
CC(C1=NCCN1)Nc1ccccc1c1ccccc1

>  <CID>  (1) 
11140033.0

>  <ChEMBL ID>  (1) 
nan

>  <InChiKey>  (1) 
QPAIAAWBFFTOPZ-UHFFFAOYSA-N

>  <InChi>  (1) 
InChI=1S/C17H19N3/c1-13(17-18-11-12-19-17)20-16-10-6-5-9-15(16)14-7-3-2-4-8-14/h2-10,13,20H,11-12H2,1H3,(H,18,19)

>  <IUPAC Name>  (1) 
N-[1-(4,5-dihydro-1H-imidazol-2-yl)ethyl]-2-phenylaniline

$$$$
