
     RDKit          3D

225231  0  0  0  0  0  0  0  0999 V2000
    8.1225    0.7835    0.5328 C   0  0  0  0  0  0  0  0  0  0  0  0
    8.2455    0.3211    1.9213 C   0  0  0  0  0  0  0  0  0  0  0  0
    7.2707   -0.5839    2.5507 C   0  0  0  0  0  0  0  0  0  0  0  0
    7.0621   -1.9336    2.0803 C   0  0  0  0  0  0  0  0  0  0  0  0
    6.4586   -2.1169    0.6836 C   0  0  1  0  0  0  0  0  0  0  0  0
    5.1789   -1.4569    0.7188 C   0  0  0  0  0  0  0  0  0  0  0  0
    4.4156   -1.8739    1.6845 O   0  0  0  0  0  0  0  0  0  0  0  0
    4.6135   -0.4565   -0.0805 N   0  0  0  0  0  0  0  0  0  0  0  0
    3.3172    0.1369    0.0578 C   0  0  1  0  0  0  0  0  0  0  0  0
    2.4466   -0.4669    1.1724 C   0  0  0  0  0  0  0  0  0  0  0  0
    1.9584   -1.7992    0.7561 C   0  0  0  0  0  0  0  0  0  0  0  0
    2.2005   -2.1618   -0.4050 O   0  0  0  0  0  0  0  0  0  0  0  0
    1.2279   -2.7133    1.5561 N   0  0  0  0  0  0  0  0  0  0  0  0
    0.7620   -3.9928    0.9664 C   0  0  0  0  0  0  0  0  0  0  0  0
   -0.2455   -3.4992   -0.1114 C   0  0  0  0  0  0  0  0  0  0  0  0
   -1.3769   -2.7940    0.5973 C   0  0  0  0  0  0  0  0  0  0  0  0
   -2.2207   -2.0324   -0.3868 C   0  0  0  0  0  0  0  0  0  0  0  0
   -3.3886   -1.3761    0.3184 C   0  0  1  0  0  0  0  0  0  0  0  0
   -3.9726   -0.3910   -0.6059 N   0  0  0  0  0  0  0  0  0  0  0  0
   -3.9271    0.9399   -0.1816 C   0  0  0  0  0  0  0  0  0  0  0  0
   -3.3430    1.1596    0.9124 O   0  0  0  0  0  0  0  0  0  0  0  0
   -4.4686    2.1690   -0.8392 C   0  0  2  0  0  0  0  0  0  0  0  0
   -4.0139    3.3350   -0.0945 N   0  0  0  0  0  0  0  0  0  0  0  0
   -2.9824    4.1596   -0.6453 C   0  0  0  0  0  0  0  0  0  0  0  0
   -2.5824    3.8257   -1.7682 O   0  0  0  0  0  0  0  0  0  0  0  0
   -2.4282    5.3493    0.1038 C   0  0  1  0  0  0  0  0  0  0  0  0
   -1.3558    5.9774   -0.5966 N   0  0  0  0  0  0  0  0  0  0  0  0
   -0.0072    5.7254   -0.1363 C   0  0  0  0  0  0  0  0  0  0  0  0
    0.1062    5.0223    0.8559 O   0  0  0  0  0  0  0  0  0  0  0  0
    1.1865    6.3218   -0.8794 C   0  0  2  0  0  0  0  0  0  0  0  0
    2.3981    5.8198   -0.2169 N   0  0  0  0  0  0  0  0  0  0  0  0
    2.9707    4.5401   -0.6134 C   0  0  0  0  0  0  0  0  0  0  0  0
    2.3625    4.0116   -1.5534 O   0  0  0  0  0  0  0  0  0  0  0  0
    4.1527    3.9651    0.0749 C   0  0  1  0  0  0  0  0  0  0  0  0
    4.2498    2.5115   -0.2420 N   0  0  0  0  0  0  0  0  0  0  0  0
    3.2523    1.5870    0.1659 C   0  0  0  0  0  0  0  0  0  0  0  0
    2.2280    2.1107    0.6509 O   0  0  0  0  0  0  0  0  0  0  0  0
    5.4628    4.5855   -0.1594 C   0  0  0  0  0  0  0  0  0  0  0  0
    5.5708    5.9788    0.2192 C   0  0  0  0  0  0  0  0  0  0  0  0
    5.9312    6.4615    1.4459 N   0  0  0  0  0  0  0  0  0  0  0  0
    5.9837    7.7797    1.3630 C   0  0  0  0  0  0  0  0  0  0  0  0
    5.6632    8.1357    0.1148 N   0  0  0  0  0  0  0  0  0  0  0  0
    5.3933    7.0599   -0.6501 C   0  0  0  0  0  0  0  0  0  0  0  0
    1.0753    7.7822   -0.9841 C   0  0  0  0  0  0  0  0  0  0  0  0
    1.0395    8.5467    0.2733 C   0  0  0  0  0  0  0  0  0  0  0  0
   -0.0934    8.7890    1.0223 C   0  0  0  0  0  0  0  0  0  0  0  0
   -0.0305    9.5337    2.1791 C   0  0  0  0  0  0  0  0  0  0  0  0
    1.1433   10.0804    2.6607 C   0  0  0  0  0  0  0  0  0  0  0  0
    2.2828    9.8399    1.9135 C   0  0  0  0  0  0  0  0  0  0  0  0
    2.2140    9.0981    0.7633 C   0  0  0  0  0  0  0  0  0  0  0  0
   -3.4726    6.2998    0.5516 C   0  0  0  0  0  0  0  0  0  0  0  0
   -4.3675    6.9171   -0.4544 C   0  0  0  0  0  0  0  0  0  0  0  0
   -3.7973    7.7913   -1.5150 C   0  0  0  0  0  0  0  0  0  0  0  0
   -3.0787    8.9280   -1.0181 N   0  0  0  0  0  0  0  0  0  0  0  0
   -3.6008    9.8743   -0.3280 C   0  0  0  0  0  0  0  0  0  0  0  0
   -4.9655    9.9409    0.0520 N   0  0  0  0  0  0  0  0  0  0  0  0
   -2.7714   10.9556    0.1161 N   0  0  0  0  0  0  0  0  0  0  0  0
   -5.9486    2.0647   -0.8048 C   0  0  0  0  0  0  0  0  0  0  0  0
   -6.7118    3.1819   -1.3557 C   0  0  0  0  0  0  0  0  0  0  0  0
   -7.1462    3.3340   -2.6722 C   0  0  0  0  0  0  0  0  0  0  0  0
   -7.7641    4.5322   -2.7936 N   0  0  0  0  0  0  0  0  0  0  0  0
   -7.7544    5.1653   -1.6231 C   0  0  0  0  0  0  0  0  0  0  0  0
   -7.1063    4.3551   -0.6945 C   0  0  0  0  0  0  0  0  0  0  0  0
   -6.9929    4.8044    0.5809 C   0  0  0  0  0  0  0  0  0  0  0  0
   -7.4719    6.0202    1.0469 C   0  0  0  0  0  0  0  0  0  0  0  0
   -8.1124    6.8237    0.1214 C   0  0  0  0  0  0  0  0  0  0  0  0
   -8.2459    6.3991   -1.1763 C   0  0  0  0  0  0  0  0  0  0  0  0
   -4.4284   -2.3652    0.7109 C   0  0  0  0  0  0  0  0  0  0  0  0
   -4.2473   -3.3162    1.4826 O   0  0  0  0  0  0  0  0  0  0  0  0
   -5.7590   -2.2032    0.1490 N   0  0  0  0  0  0  0  0  0  0  0  0
   -6.8114   -3.1207    0.5120 C   0  0  2  0  0  0  0  0  0  0  0  0
   -7.4080   -3.8289   -0.6812 C   0  0  0  0  0  0  0  0  0  0  0  0
   -7.1930   -3.4451   -1.8571 O   0  0  0  0  0  0  0  0  0  0  0  0
   -8.2264   -4.9592   -0.3678 N   0  0  0  0  0  0  0  0  0  0  0  0
   -8.8791   -5.7248   -1.4317 C   0  0  2  0  0  0  0  0  0  0  0  0
  -10.0453   -6.4165   -0.9051 C   0  0  0  0  0  0  0  0  0  0  0  0
  -10.8245   -7.0156   -1.7043 O   0  0  0  0  0  0  0  0  0  0  0  0
  -10.4173   -6.4961    0.4775 N   0  0  0  0  0  0  0  0  0  0  0  0
  -11.5944   -7.2248    0.9075 C   0  0  0  0  0  0  0  0  0  0  0  0
  -12.8557   -6.7092    0.3252 C   0  0  0  0  0  0  0  0  0  0  0  0
  -13.9189   -7.3195    0.6690 O   0  0  0  0  0  0  0  0  0  0  0  0
  -12.8397   -5.6072   -0.5501 N   0  0  0  0  0  0  0  0  0  0  0  0
   -7.8760   -6.7702   -1.9397 C   0  0  0  0  0  0  0  0  0  0  0  0
   -8.5099   -7.5592   -3.0088 C   0  0  0  0  0  0  0  0  0  0  0  0
   -9.1231   -8.7999   -2.7672 C   0  0  0  0  0  0  0  0  0  0  0  0
   -9.7137   -9.5210   -3.8025 C   0  0  0  0  0  0  0  0  0  0  0  0
   -9.7231   -9.0587   -5.0976 C   0  0  0  0  0  0  0  0  0  0  0  0
   -9.1166   -7.8339   -5.3412 C   0  0  0  0  0  0  0  0  0  0  0  0
   -8.5247   -7.1040   -4.3121 C   0  0  0  0  0  0  0  0  0  0  0  0
   -8.0029   -2.3177    1.0645 C   0  0  0  0  0  0  0  0  0  0  0  0
   -7.6480   -1.5209    2.2913 C   0  0  0  0  0  0  0  0  0  0  0  0
   -7.2268   -2.4353    3.4245 C   0  0  0  0  0  0  0  0  0  0  0  0
   -8.3015   -3.3536    3.7623 N   0  0  0  0  0  0  0  0  0  0  0  0
   -8.7988   -3.4192    4.9487 C   0  0  0  0  0  0  0  0  0  0  0  0
   -9.8533   -4.3716    5.1377 N   0  0  0  0  0  0  0  0  0  0  0  0
   -8.3316   -2.5964    6.0302 N   0  0  0  0  0  0  0  0  0  0  0  0
    7.3765   -1.9762   -0.3711 N   0  0  0  0  0  0  0  0  0  0  0  0
    8.3976   -2.9918   -0.4505 C   0  0  0  0  0  0  0  0  0  0  0  0
    8.4080   -3.9373    0.4104 O   0  0  0  0  0  0  0  0  0  0  0  0
    9.4752   -3.0454   -1.4582 C   0  0  2  0  0  0  0  0  0  0  0  0
    9.0067   -3.4700   -2.8024 C   0  0  0  0  0  0  0  0  0  0  0  0
    7.9628   -2.5663   -3.4119 C   0  0  0  0  0  0  0  0  0  0  0  0
   10.1077   -3.6044   -3.8151 C   0  0  0  0  0  0  0  0  0  0  0  0
   10.4171   -4.0964   -0.9969 N   0  0  0  0  0  0  0  0  0  0  0  0
   11.7386   -3.7047   -0.5411 C   0  0  0  0  0  0  0  0  0  0  0  0
   11.9571   -2.4632   -0.6114 O   0  0  0  0  0  0  0  0  0  0  0  0
   12.7203   -4.6847   -0.0389 C   0  0  2  0  0  0  0  0  0  0  0  0
   14.0456   -4.6958   -0.7239 C   0  0  0  0  0  0  0  0  0  0  0  0
   14.9508   -5.7273   -0.1060 C   0  0  0  0  0  0  0  0  0  0  0  0
   15.7905   -5.3391    0.9451 C   0  0  0  0  0  0  0  0  0  0  0  0
   16.6047   -6.2886    1.5194 C   0  0  0  0  0  0  0  0  0  0  0  0
   16.6330   -7.6052    1.1097 C   0  0  0  0  0  0  0  0  0  0  0  0
   15.7939   -7.9699    0.0683 C   0  0  0  0  0  0  0  0  0  0  0  0
   14.9649   -7.0397   -0.5290 C   0  0  0  0  0  0  0  0  0  0  0  0
   17.4796   -8.4611    1.7551 O   0  0  0  0  0  0  0  0  0  0  0  0
   12.1876   -6.0489   -0.0147 N   0  0  0  0  0  0  0  0  0  0  0  0
    7.1273    0.7431    0.0997 H   0  0  0  0  0  0  0  0  0  0  0  0
    8.3998    1.9005    0.4502 H   0  0  0  0  0  0  0  0  0  0  0  0
    8.8827    0.3098   -0.1541 H   0  0  0  0  0  0  0  0  0  0  0  0
    8.3011    1.2821    2.5581 H   0  0  0  0  0  0  0  0  0  0  0  0
    9.3054   -0.1145    2.0968 H   0  0  0  0  0  0  0  0  0  0  0  0
    6.2601   -0.0124    2.6107 H   0  0  0  0  0  0  0  0  0  0  0  0
    7.5063   -0.6199    3.6827 H   0  0  0  0  0  0  0  0  0  0  0  0
    7.9779   -2.5942    2.1749 H   0  0  0  0  0  0  0  0  0  0  0  0
    6.2915   -2.4546    2.7528 H   0  0  0  0  0  0  0  0  0  0  0  0
    6.2596   -3.2918    0.6911 H   0  0  0  0  0  0  0  0  0  0  0  0
    5.2043   -0.1056   -0.8849 H   0  0  0  0  0  0  0  0  0  0  0  0
    2.7257   -0.2750   -0.8617 H   0  0  0  0  0  0  0  0  0  0  0  0
    1.5241    0.2009    1.1502 H   0  0  0  0  0  0  0  0  0  0  0  0
    2.8546   -0.3660    2.1567 H   0  0  0  0  0  0  0  0  0  0  0  0
    1.0566   -2.4348    2.5128 H   0  0  0  0  0  0  0  0  0  0  0  0
    0.1844   -4.5632    1.6862 H   0  0  0  0  0  0  0  0  0  0  0  0
    1.5512   -4.5097    0.4165 H   0  0  0  0  0  0  0  0  0  0  0  0
   -0.6970   -4.4267   -0.5569 H   0  0  0  0  0  0  0  0  0  0  0  0
    0.2647   -2.9608   -0.8721 H   0  0  0  0  0  0  0  0  0  0  0  0
   -0.9671   -2.0305    1.3222 H   0  0  0  0  0  0  0  0  0  0  0  0
   -2.0080   -3.5230    1.1559 H   0  0  0  0  0  0  0  0  0  0  0  0
   -1.6547   -1.2225   -0.8963 H   0  0  0  0  0  0  0  0  0  0  0  0
   -2.6560   -2.6971   -1.1639 H   0  0  0  0  0  0  0  0  0  0  0  0
   -3.0126   -0.9396    1.2371 H   0  0  0  0  0  0  0  0  0  0  0  0
   -4.3865   -0.5995   -1.4995 H   0  0  0  0  0  0  0  0  0  0  0  0
   -4.0208    2.1842   -1.8683 H   0  0  0  0  0  0  0  0  0  0  0  0
   -4.3518    3.6232    0.8174 H   0  0  0  0  0  0  0  0  0  0  0  0
   -1.9924    4.8933    1.0834 H   0  0  0  0  0  0  0  0  0  0  0  0
   -1.3918    6.5980   -1.4008 H   0  0  0  0  0  0  0  0  0  0  0  0
    1.0978    5.8332   -1.8695 H   0  0  0  0  0  0  0  0  0  0  0  0
    2.9005    6.2884    0.5261 H   0  0  0  0  0  0  0  0  0  0  0  0
    3.8712    3.9596    1.1597 H   0  0  0  0  0  0  0  0  0  0  0  0
    5.0271    2.1160   -0.7724 H   0  0  0  0  0  0  0  0  0  0  0  0
    5.8364    4.4200   -1.2148 H   0  0  0  0  0  0  0  0  0  0  0  0
    6.1998    4.0285    0.5158 H   0  0  0  0  0  0  0  0  0  0  0  0
    6.2440    8.4751    2.1481 H   0  0  0  0  0  0  0  0  0  0  0  0
    5.6112    9.1148   -0.2889 H   0  0  0  0  0  0  0  0  0  0  0  0
    5.0994    7.0251   -1.6951 H   0  0  0  0  0  0  0  0  0  0  0  0
    1.9229    8.1850   -1.6078 H   0  0  0  0  0  0  0  0  0  0  0  0
    0.1453    8.0329   -1.5412 H   0  0  0  0  0  0  0  0  0  0  0  0
   -1.0377    8.3911    0.7031 H   0  0  0  0  0  0  0  0  0  0  0  0
   -0.9572    9.6837    2.7307 H   0  0  0  0  0  0  0  0  0  0  0  0
    1.2057   10.6689    3.5646 H   0  0  0  0  0  0  0  0  0  0  0  0
    3.2432   10.2263    2.2292 H   0  0  0  0  0  0  0  0  0  0  0  0
    3.1064    8.9354    0.1942 H   0  0  0  0  0  0  0  0  0  0  0  0
   -2.9921    7.1088    1.1763 H   0  0  0  0  0  0  0  0  0  0  0  0
   -4.1344    5.7935    1.3387 H   0  0  0  0  0  0  0  0  0  0  0  0
   -5.1524    7.5490    0.0825 H   0  0  0  0  0  0  0  0  0  0  0  0
   -4.9426    6.0996   -1.0105 H   0  0  0  0  0  0  0  0  0  0  0  0
   -4.7040    8.2881   -2.0579 H   0  0  0  0  0  0  0  0  0  0  0  0
   -3.3313    7.2671   -2.3756 H   0  0  0  0  0  0  0  0  0  0  0  0
   -5.1391   10.2269    1.0666 H   0  0  0  0  0  0  0  0  0  0  0  0
   -5.7790    9.7439   -0.5582 H   0  0  0  0  0  0  0  0  0  0  0  0
   -2.1956   11.5358   -0.5126 H   0  0  0  0  0  0  0  0  0  0  0  0
   -2.7995   11.1150    1.1716 H   0  0  0  0  0  0  0  0  0  0  0  0
   -6.2654    1.1294   -1.3286 H   0  0  0  0  0  0  0  0  0  0  0  0
   -6.2737    1.9141    0.2717 H   0  0  0  0  0  0  0  0  0  0  0  0
   -7.0140    2.6175   -3.4725 H   0  0  0  0  0  0  0  0  0  0  0  0
   -8.2007    4.9549   -3.6542 H   0  0  0  0  0  0  0  0  0  0  0  0
   -6.5201    4.1786    1.3125 H   0  0  0  0  0  0  0  0  0  0  0  0
   -7.3555    6.3360    2.0857 H   0  0  0  0  0  0  0  0  0  0  0  0
   -8.4833    7.7728    0.4930 H   0  0  0  0  0  0  0  0  0  0  0  0
   -8.7567    7.0591   -1.8947 H   0  0  0  0  0  0  0  0  0  0  0  0
   -5.9615   -1.4311   -0.5145 H   0  0  0  0  0  0  0  0  0  0  0  0
   -6.4714   -3.8319    1.2755 H   0  0  0  0  0  0  0  0  0  0  0  0
   -8.3106   -5.1964    0.6327 H   0  0  0  0  0  0  0  0  0  0  0  0
   -9.0591   -5.0780   -2.3145 H   0  0  0  0  0  0  0  0  0  0  0  0
   -9.8741   -6.0359    1.2347 H   0  0  0  0  0  0  0  0  0  0  0  0
  -11.6425   -7.3201    2.0104 H   0  0  0  0  0  0  0  0  0  0  0  0
  -11.4990   -8.2812    0.5417 H   0  0  0  0  0  0  0  0  0  0  0  0
  -13.2725   -5.7183   -1.4998 H   0  0  0  0  0  0  0  0  0  0  0  0
  -12.4036   -4.7214   -0.2055 H   0  0  0  0  0  0  0  0  0  0  0  0
   -7.5057   -7.4253   -1.1350 H   0  0  0  0  0  0  0  0  0  0  0  0
   -7.0529   -6.1945   -2.4099 H   0  0  0  0  0  0  0  0  0  0  0  0
   -9.1097   -9.1629   -1.7546 H   0  0  0  0  0  0  0  0  0  0  0  0
  -10.1564  -10.4655   -3.5001 H   0  0  0  0  0  0  0  0  0  0  0  0
  -10.1842   -9.6408   -5.8454 H   0  0  0  0  0  0  0  0  0  0  0  0
   -9.1146   -7.4452   -6.3641 H   0  0  0  0  0  0  0  0  0  0  0  0
   -8.0714   -6.1644   -4.5689 H   0  0  0  0  0  0  0  0  0  0  0  0
   -8.3441   -1.6278    0.2682 H   0  0  0  0  0  0  0  0  0  0  0  0
   -8.8421   -2.9712    1.3196 H   0  0  0  0  0  0  0  0  0  0  0  0
   -8.5166   -0.9000    2.5302 H   0  0  0  0  0  0  0  0  0  0  0  0
   -6.7837   -0.8313    2.0747 H   0  0  0  0  0  0  0  0  0  0  0  0
   -6.3400   -3.0011    3.1264 H   0  0  0  0  0  0  0  0  0  0  0  0
   -7.0561   -1.7920    4.3180 H   0  0  0  0  0  0  0  0  0  0  0  0
  -10.8098   -4.0316    4.8942 H   0  0  0  0  0  0  0  0  0  0  0  0
   -9.6719   -5.3400    5.4997 H   0  0  0  0  0  0  0  0  0  0  0  0
   -8.0372   -3.1303    6.8971 H   0  0  0  0  0  0  0  0  0  0  0  0
   -8.2890   -1.5652    5.9582 H   0  0  0  0  0  0  0  0  0  0  0  0
    7.4112   -1.2713   -1.1282 H   0  0  0  0  0  0  0  0  0  0  0  0
    9.9598   -2.0660   -1.4948 H   0  0  0  0  0  0  0  0  0  0  0  0
    8.5337   -4.4737   -2.6953 H   0  0  0  0  0  0  0  0  0  0  0  0
    6.9518   -2.7502   -2.9819 H   0  0  0  0  0  0  0  0  0  0  0  0
    8.2540   -1.5114   -3.3832 H   0  0  0  0  0  0  0  0  0  0  0  0
    7.8879   -2.8704   -4.4866 H   0  0  0  0  0  0  0  0  0  0  0  0
   10.8392   -2.7891   -3.8019 H   0  0  0  0  0  0  0  0  0  0  0  0
    9.6289   -3.6070   -4.8195 H   0  0  0  0  0  0  0  0  0  0  0  0
   10.6098   -4.6085   -3.7185 H   0  0  0  0  0  0  0  0  0  0  0  0
   10.1485   -5.0994   -0.9964 H   0  0  0  0  0  0  0  0  0  0  0  0
   12.8899   -4.4447    1.0432 H   0  0  0  0  0  0  0  0  0  0  0  0
   13.9080   -5.0481   -1.7709 H   0  0  0  0  0  0  0  0  0  0  0  0
   14.5000   -3.6920   -0.7276 H   0  0  0  0  0  0  0  0  0  0  0  0
   15.7807   -4.3112    1.2743 H   0  0  0  0  0  0  0  0  0  0  0  0
   17.2491   -5.9422    2.3380 H   0  0  0  0  0  0  0  0  0  0  0  0
   15.8194   -9.0029   -0.2505 H   0  0  0  0  0  0  0  0  0  0  0  0
   14.2993   -7.2936   -1.3450 H   0  0  0  0  0  0  0  0  0  0  0  0
   17.6013   -8.3963    2.7736 H   0  0  0  0  0  0  0  0  0  0  0  0
   12.8470   -6.5704    0.6220 H   0  0  0  0  0  0  0  0  0  0  0  0
   11.2241   -6.0687    0.4053 H   0  0  0  0  0  0  0  0  0  0  0  0
  1  2  1  0
  2  3  1  0
  3  4  1  0
  4  5  1  0
  5  6  1  0
  6  7  2  0
  6  8  1  0
  8  9  1  0
  9 10  1  0
 10 11  1  0
 11 12  2  0
 11 13  1  0
 13 14  1  0
 14 15  1  0
 15 16  1  0
 16 17  1  0
 17 18  1  0
 18 19  1  0
 19 20  1  0
 20 21  2  0
 20 22  1  0
 22 23  1  0
 23 24  1  0
 24 25  2  0
 24 26  1  0
 26 27  1  0
 27 28  1  0
 28 29  2  0
 28 30  1  0
 30 31  1  0
 31 32  1  0
 32 33  2  0
 32 34  1  0
 34 35  1  0
 35 36  1  0
 36 37  2  0
 34 38  1  0
 38 39  1  0
 39 40  1  0
 40 41  2  0
 41 42  1  0
 42 43  1  0
 30 44  1  0
 44 45  1  0
 45 46  2  0
 46 47  1  0
 47 48  2  0
 48 49  1  0
 49 50  2  0
 26 51  1  0
 51 52  1  0
 52 53  1  0
 53 54  1  0
 54 55  2  3
 55 56  1  0
 55 57  1  0
 22 58  1  0
 58 59  1  0
 59 60  2  0
 60 61  1  0
 61 62  1  0
 62 63  2  0
 63 64  1  0
 64 65  2  0
 65 66  1  0
 66 67  2  0
 18 68  1  0
 68 69  2  0
 68 70  1  0
 70 71  1  0
 71 72  1  0
 72 73  2  0
 72 74  1  0
 74 75  1  0
 75 76  1  0
 76 77  2  0
 76 78  1  0
 78 79  1  0
 79 80  1  0
 80 81  2  0
 80 82  1  0
 75 83  1  0
 83 84  1  0
 84 85  2  0
 85 86  1  0
 86 87  2  0
 87 88  1  0
 88 89  2  0
 71 90  1  0
 90 91  1  0
 91 92  1  0
 92 93  1  0
 93 94  2  3
 94 95  1  0
 94 96  1  0
  5 97  1  0
 97 98  1  0
 98 99  2  0
 98100  1  0
100101  1  0
101102  1  0
101103  1  0
100104  1  0
104105  1  0
105106  2  0
105107  1  0
107108  1  0
108109  1  0
109110  2  0
110111  1  0
111112  2  0
112113  1  0
113114  2  0
112115  1  0
107116  1  0
 36  9  1  0
 43 39  2  0
 50 45  1  0
 63 59  1  0
 89 84  1  0
114109  1  0
 67 62  1  0
  1117  1  0
  1118  1  0
  1119  1  0
  2120  1  0
  2121  1  0
  3122  1  0
  3123  1  0
  4124  1  0
  4125  1  0
  5126  1  1
  8127  1  0
  9128  1  6
 10129  1  0
 10130  1  0
 13131  1  0
 14132  1  0
 14133  1  0
 15134  1  0
 15135  1  0
 16136  1  0
 16137  1  0
 17138  1  0
 17139  1  0
 18140  1  1
 19141  1  0
 22142  1  6
 23143  1  0
 26144  1  1
 27145  1  0
 30146  1  6
 31147  1  0
 34148  1  1
 35149  1  0
 38150  1  0
 38151  1  0
 41152  1  0
 42153  1  0
 43154  1  0
 44155  1  0
 44156  1  0
 46157  1  0
 47158  1  0
 48159  1  0
 49160  1  0
 50161  1  0
 51162  1  0
 51163  1  0
 52164  1  0
 52165  1  0
 53166  1  0
 53167  1  0
 56168  1  0
 56169  1  0
 57170  1  0
 57171  1  0
 58172  1  0
 58173  1  0
 60174  1  0
 61175  1  0
 64176  1  0
 65177  1  0
 66178  1  0
 67179  1  0
 70180  1  0
 71181  1  1
 74182  1  0
 75183  1  6
 78184  1  0
 79185  1  0
 79186  1  0
 82187  1  0
 82188  1  0
 83189  1  0
 83190  1  0
 85191  1  0
 86192  1  0
 87193  1  0
 88194  1  0
 89195  1  0
 90196  1  0
 90197  1  0
 91198  1  0
 91199  1  0
 92200  1  0
 92201  1  0
 95202  1  0
 95203  1  0
 96204  1  0
 96205  1  0
 97206  1  0
100207  1  6
101208  1  0
102209  1  0
102210  1  0
102211  1  0
103212  1  0
103213  1  0
103214  1  0
104215  1  0
107216  1  1
108217  1  0
108218  1  0
110219  1  0
111220  1  0
113221  1  0
114222  1  0
115223  1  0
116224  1  0
116225  1  0
M  END
>  <Ligand ID>  (1) 
LIG0004156

>  <Ligand>  (1) 
CID 44363770

>  <SMILES>  (1) 
CCCC[C@@H](C(=O)N[C@H]1CC(=O)NCCCC[C@@H](NC(=O)[C@H](NC(=O)[C@@H](NC(=O)[C@H](NC(=O)[C@@H](NC1=O)Cc1nc[nH]c1)Cc1ccccc1)CCCN=C(N)N)Cc1c[nH]c2c1cccc2)C(=O)N[C@H](C(=O)N[C@H](C(=O)NCC(=O)N)Cc1ccccc1)CCCN=C(N)N)NC(=O)[C@H](C(C)C)NC(=O)[C@H](Cc1ccc(cc1)O)N

>  <CID>  (1) 
44363770.0

>  <ChEMBL ID>  (1) 
nan

>  <InChiKey>  (1) 
AMLJFTMENZUCBN-ALYHAIMFSA-N

>  <InChi>  (1) 
InChI=1S/C79H109N23O14/c1-4-5-23-55(96-77(116)66(45(2)3)102-67(106)53(80)35-48-28-30-51(103)31-29-48)70(109)101-63-40-65(105)87-32-15-14-25-56(69(108)93-57(26-16-33-88-78(82)83)71(110)97-59(68(107)91-43-64(81)104)36-46-18-8-6-9-19-46)94-74(113)61(38-49-41-90-54-24-13-12-22-52(49)54)99-72(111)58(27-17-34-89-79(84)85)95-73(112)60(37-47-20-10-7-11-21-47)98-75(114)62(100-76(63)115)39-50-42-86-44-92-50/h6-13,18-22,24,28-31,41-42,44-45,53,55-63,66,90,103H,4-5,14-17,23,25-27,32-40,43,80H2,1-3H3,(H2,81,104)(H,86,92)(H,87,105)(H,91,107)(H,93,108)(H,94,113)(H,95,112)(H,96,116)(H,97,110)(H,98,114)(H,99,111)(H,100,115)(H,101,109)(H,102,106)(H4,82,83,88)(H4,84,85,89)/t53-,55-,56+,57-,58-,59-,60+,61+,62-,63-,66-/m0/s1

>  <IUPAC Name>  (1) 
(3R,6S,9R,12S,15S,23R)-15-[[(2S)-2-[[(2S)-2-[[(2S)-2-amino-3-(4-hydroxyphenyl)propanoyl]amino]-3-methylbutanoyl]amino]hexanoyl]amino]-N-[(2S)-1-[[(2S)-1-[(2-amino-2-oxoethyl)amino]-1-oxo-3-phenylpropan-2-yl]amino]-5-(diaminomethylideneamino)-1-oxopentan-2-yl]-9-benzyl-6-[3-(diaminomethylideneamino)propyl]-12-(1H-imidazol-4-ylmethyl)-3-(1H-indol-3-ylmethyl)-2,5,8,11,14,17-hexaoxo-1,4,7,10,13,18-hexazacyclotricosane-23-carboxamide

$$$$
