
     RDKit          3D

145151  0  0  0  0  0  0  0  0999 V2000
   -4.4765    7.2165   -4.6785 N   0  0  0  0  0  0  0  0  0  0  0  0
   -3.2204    7.0546   -4.0121 C   0  0  0  0  0  0  0  0  0  0  0  0
   -3.0673    5.9178   -3.3934 N   0  0  0  0  0  0  0  0  0  0  0  0
   -1.8864    5.5539   -2.6643 C   0  0  0  0  0  0  0  0  0  0  0  0
   -2.3272    4.8769   -1.3645 C   0  0  0  0  0  0  0  0  0  0  0  0
   -1.1489    4.4676   -0.5494 C   0  0  0  0  0  0  0  0  0  0  0  0
   -1.5196    3.7770    0.7862 C   0  0  2  0  0  0  0  0  0  0  0  0
   -0.2328    3.4541    1.4168 N   0  0  0  0  0  0  0  0  0  0  0  0
    0.1890    4.2259    2.5750 C   0  0  0  0  0  0  0  0  0  0  0  0
   -0.6567    5.0850    2.9072 O   0  0  0  0  0  0  0  0  0  0  0  0
    1.4228    4.0661    3.2987 C   0  0  2  0  0  0  0  0  0  0  0  0
    1.5300    5.3744    4.1628 C   0  0  0  0  0  0  0  0  0  0  0  0
    2.0104    6.3824    3.0925 C   0  0  0  0  0  0  0  0  0  0  0  0
    2.6211    5.5061    2.0055 C   0  0  0  0  0  0  0  0  0  0  0  0
    2.6816    4.2506    2.6213 N   0  0  0  0  0  0  0  0  0  0  0  0
    3.7506    3.2703    2.6628 C   0  0  0  0  0  0  0  0  0  0  0  0
    3.4044    2.2675    3.3327 O   0  0  0  0  0  0  0  0  0  0  0  0
    4.9741    3.5424    1.9940 C   0  0  1  0  0  0  0  0  0  0  0  0
    5.9805    4.3074    2.8637 C   0  0  0  0  0  0  0  0  0  0  0  0
    7.1617    4.3846    1.9317 C   0  0  0  0  0  0  0  0  0  0  0  0
    7.1244    3.1259    1.1420 C   0  0  0  0  0  0  0  0  0  0  0  0
    5.8378    2.5412    1.4557 N   0  0  0  0  0  0  0  0  0  0  0  0
    5.5102    1.1695    1.2480 C   0  0  0  0  0  0  0  0  0  0  0  0
    4.3583    0.8417    1.5517 O   0  0  0  0  0  0  0  0  0  0  0  0
    6.4120    0.1250    0.7135 C   0  0  2  0  0  0  0  0  0  0  0  0
    6.9606    0.3663   -0.6535 C   0  0  0  0  0  0  0  0  0  0  0  0
    7.8403   -0.7689   -1.0192 C   0  0  0  0  0  0  0  0  0  0  0  0
    7.4844   -1.8429   -1.7616 C   0  0  0  0  0  0  0  0  0  0  0  0
    8.3683   -2.8962   -2.0440 C   0  0  0  0  0  0  0  0  0  0  0  0
    9.6565   -2.8877   -1.5739 C   0  0  0  0  0  0  0  0  0  0  0  0
   10.0393   -1.7884   -0.8083 C   0  0  0  0  0  0  0  0  0  0  0  0
    9.1574   -0.7479   -0.5325 C   0  0  0  0  0  0  0  0  0  0  0  0
    5.8094   -1.1899    0.8587 N   0  0  0  0  0  0  0  0  0  0  0  0
    4.7496   -1.6455   -0.0066 C   0  0  0  0  0  0  0  0  0  0  0  0
    4.4087   -0.8259   -0.8660 O   0  0  0  0  0  0  0  0  0  0  0  0
    4.1690   -2.9992    0.1822 C   0  0  1  0  0  0  0  0  0  0  0  0
    3.1685   -3.3417   -0.7846 N   0  0  0  0  0  0  0  0  0  0  0  0
    1.8265   -3.4310   -0.4091 C   0  0  0  0  0  0  0  0  0  0  0  0
    1.6110   -3.0719    0.8056 O   0  0  0  0  0  0  0  0  0  0  0  0
    0.6313   -3.8464   -1.1502 C   0  0  1  0  0  0  0  0  0  0  0  0
   -0.5817   -3.4120   -0.4583 N   0  0  0  0  0  0  0  0  0  0  0  0
   -1.2560   -4.1752    0.5284 C   0  0  0  0  0  0  0  0  0  0  0  0
   -0.7718   -5.2502    0.8407 O   0  0  0  0  0  0  0  0  0  0  0  0
   -2.5343   -3.6012    1.1380 C   0  0  1  0  0  0  0  0  0  0  0  0
   -2.8039   -2.3459    0.4370 N   0  0  0  0  0  0  0  0  0  0  0  0
   -2.6848   -1.0424    0.9616 C   0  0  0  0  0  0  0  0  0  0  0  0
   -2.2188   -0.9918    2.1229 O   0  0  0  0  0  0  0  0  0  0  0  0
   -3.0227    0.2076    0.2919 C   0  0  1  0  0  0  0  0  0  0  0  0
   -2.0649    1.2838    0.5028 N   0  0  0  0  0  0  0  0  0  0  0  0
   -2.4197    2.6643    0.5381 C   0  0  0  0  0  0  0  0  0  0  0  0
   -3.6232    2.8907    0.3218 O   0  0  0  0  0  0  0  0  0  0  0  0
   -3.7520    0.2014   -1.0001 C   0  0  0  0  0  0  0  0  0  0  0  0
   -5.1041   -0.3866   -0.8979 C   0  0  0  0  0  0  0  0  0  0  0  0
   -6.0834    0.4411   -0.3183 C   0  0  0  0  0  0  0  0  0  0  0  0
   -7.3934    0.0186   -0.1868 C   0  0  0  0  0  0  0  0  0  0  0  0
   -7.8059   -1.2261   -0.6128 C   0  0  0  0  0  0  0  0  0  0  0  0
   -6.8599   -2.0409   -1.1814 C   0  0  0  0  0  0  0  0  0  0  0  0
   -5.5373   -1.6002   -1.3091 C   0  0  0  0  0  0  0  0  0  0  0  0
   -9.1958   -1.6384   -0.4468 C   0  0  0  0  0  0  0  0  0  0  0  0
   -9.5099   -2.9807   -0.2366 C   0  0  0  0  0  0  0  0  0  0  0  0
  -10.8105   -3.3908   -0.0747 C   0  0  0  0  0  0  0  0  0  0  0  0
  -11.8640   -2.4667   -0.1162 C   0  0  0  0  0  0  0  0  0  0  0  0
  -11.5632   -1.1145   -0.3269 C   0  0  0  0  0  0  0  0  0  0  0  0
  -10.2422   -0.7131   -0.4893 C   0  0  0  0  0  0  0  0  0  0  0  0
   -3.6694   -4.5140    0.7413 C   0  0  0  0  0  0  0  0  0  0  0  0
   -3.5302   -5.9041    1.1872 C   0  0  0  0  0  0  0  0  0  0  0  0
   -2.9474   -6.8630    0.3678 C   0  0  0  0  0  0  0  0  0  0  0  0
   -2.8135   -8.1806    0.7979 C   0  0  0  0  0  0  0  0  0  0  0  0
   -3.2701   -8.5187    2.0521 C   0  0  0  0  0  0  0  0  0  0  0  0
   -3.8468   -7.5775    2.8671 C   0  0  0  0  0  0  0  0  0  0  0  0
   -3.9719   -6.2810    2.4290 C   0  0  0  0  0  0  0  0  0  0  0  0
    0.5890   -3.6981   -2.6146 C   0  0  0  0  0  0  0  0  0  0  0  0
    1.5346   -4.4642   -3.4270 C   0  0  0  0  0  0  0  0  0  0  0  0
    2.2955   -5.3772   -3.0590 O   0  0  0  0  0  0  0  0  0  0  0  0
    1.5938   -4.1223   -4.8301 N   0  0  0  0  0  0  0  0  0  0  0  0
    5.2942   -3.9958    0.0924 C   0  0  0  0  0  0  0  0  0  0  0  0
   -2.2109    8.0605   -4.0212 N   0  0  0  0  0  0  0  0  0  0  0  0
   -5.3469    7.4551   -4.1527 H   0  0  0  0  0  0  0  0  0  0  0  0
   -4.4644    7.0808   -5.7164 H   0  0  0  0  0  0  0  0  0  0  0  0
   -1.3525    6.4768   -2.3886 H   0  0  0  0  0  0  0  0  0  0  0  0
   -1.2460    4.8353   -3.2161 H   0  0  0  0  0  0  0  0  0  0  0  0
   -3.0400    4.0721   -1.5603 H   0  0  0  0  0  0  0  0  0  0  0  0
   -2.8722    5.6712   -0.8081 H   0  0  0  0  0  0  0  0  0  0  0  0
   -0.5239    5.3552   -0.3258 H   0  0  0  0  0  0  0  0  0  0  0  0
   -0.5436    3.7203   -1.0907 H   0  0  0  0  0  0  0  0  0  0  0  0
   -2.0665    4.5628    1.3358 H   0  0  0  0  0  0  0  0  0  0  0  0
    0.4153    2.7404    1.1338 H   0  0  0  0  0  0  0  0  0  0  0  0
    1.3878    3.2366    4.0101 H   0  0  0  0  0  0  0  0  0  0  0  0
    2.2882    5.2369    4.9528 H   0  0  0  0  0  0  0  0  0  0  0  0
    0.5461    5.6836    4.4976 H   0  0  0  0  0  0  0  0  0  0  0  0
    2.7736    7.0066    3.5944 H   0  0  0  0  0  0  0  0  0  0  0  0
    1.2113    7.0348    2.7447 H   0  0  0  0  0  0  0  0  0  0  0  0
    3.6271    5.9018    1.7956 H   0  0  0  0  0  0  0  0  0  0  0  0
    2.0769    5.5470    1.0475 H   0  0  0  0  0  0  0  0  0  0  0  0
    4.7896    4.2650    1.1372 H   0  0  0  0  0  0  0  0  0  0  0  0
    6.1797    3.7863    3.8156 H   0  0  0  0  0  0  0  0  0  0  0  0
    5.5237    5.2900    3.0787 H   0  0  0  0  0  0  0  0  0  0  0  0
    8.0674    4.3477    2.6091 H   0  0  0  0  0  0  0  0  0  0  0  0
    7.1419    5.3064    1.3116 H   0  0  0  0  0  0  0  0  0  0  0  0
    7.1543    3.4296    0.0657 H   0  0  0  0  0  0  0  0  0  0  0  0
    7.9669    2.4428    1.3586 H   0  0  0  0  0  0  0  0  0  0  0  0
    7.3058    0.1396    1.3746 H   0  0  0  0  0  0  0  0  0  0  0  0
    6.1979    0.5880   -1.4181 H   0  0  0  0  0  0  0  0  0  0  0  0
    7.6107    1.2504   -0.6210 H   0  0  0  0  0  0  0  0  0  0  0  0
    6.5170   -1.9299   -2.1806 H   0  0  0  0  0  0  0  0  0  0  0  0
    8.0542   -3.7446   -2.6437 H   0  0  0  0  0  0  0  0  0  0  0  0
   10.3660   -3.6800   -1.7736 H   0  0  0  0  0  0  0  0  0  0  0  0
   11.0715   -1.7747   -0.4272 H   0  0  0  0  0  0  0  0  0  0  0  0
    9.4931    0.1082    0.0767 H   0  0  0  0  0  0  0  0  0  0  0  0
    6.0895   -1.8596    1.5722 H   0  0  0  0  0  0  0  0  0  0  0  0
    3.7635   -3.0535    1.2333 H   0  0  0  0  0  0  0  0  0  0  0  0
    3.4317   -3.4985   -1.7432 H   0  0  0  0  0  0  0  0  0  0  0  0
    0.6626   -5.0223   -1.0038 H   0  0  0  0  0  0  0  0  0  0  0  0
   -0.9889   -2.5040   -0.6839 H   0  0  0  0  0  0  0  0  0  0  0  0
   -2.3486   -3.4996    2.1976 H   0  0  0  0  0  0  0  0  0  0  0  0
   -3.0527   -2.4216   -0.5432 H   0  0  0  0  0  0  0  0  0  0  0  0
   -3.8973    0.6362    1.0169 H   0  0  0  0  0  0  0  0  0  0  0  0
   -1.0642    1.1014    0.6364 H   0  0  0  0  0  0  0  0  0  0  0  0
   -3.1597   -0.3133   -1.7976 H   0  0  0  0  0  0  0  0  0  0  0  0
   -3.9018    1.2544   -1.3292 H   0  0  0  0  0  0  0  0  0  0  0  0
   -5.8641    1.4296    0.0424 H   0  0  0  0  0  0  0  0  0  0  0  0
   -8.1590    0.6635    0.2638 H   0  0  0  0  0  0  0  0  0  0  0  0
   -7.1238   -3.0312   -1.5386 H   0  0  0  0  0  0  0  0  0  0  0  0
   -4.8712   -2.2778   -1.7863 H   0  0  0  0  0  0  0  0  0  0  0  0
   -8.7420   -3.7433   -0.1921 H   0  0  0  0  0  0  0  0  0  0  0  0
  -11.1100   -4.4165    0.0940 H   0  0  0  0  0  0  0  0  0  0  0  0
  -12.8975   -2.7738    0.0108 H   0  0  0  0  0  0  0  0  0  0  0  0
  -12.3975   -0.4469   -0.3524 H   0  0  0  0  0  0  0  0  0  0  0  0
  -10.0283    0.3401   -0.6549 H   0  0  0  0  0  0  0  0  0  0  0  0
   -3.7010   -4.5100   -0.3762 H   0  0  0  0  0  0  0  0  0  0  0  0
   -4.6570   -4.0919    1.0443 H   0  0  0  0  0  0  0  0  0  0  0  0
   -2.5811   -6.6546   -0.6199 H   0  0  0  0  0  0  0  0  0  0  0  0
   -2.3550   -8.9367    0.1556 H   0  0  0  0  0  0  0  0  0  0  0  0
   -3.1399   -9.5681    2.3371 H   0  0  0  0  0  0  0  0  0  0  0  0
   -4.1890   -7.9141    3.8450 H   0  0  0  0  0  0  0  0  0  0  0  0
   -4.4298   -5.5787    3.0998 H   0  0  0  0  0  0  0  0  0  0  0  0
   -0.4415   -3.9765   -3.0166 H   0  0  0  0  0  0  0  0  0  0  0  0
    0.7749   -2.6112   -2.8815 H   0  0  0  0  0  0  0  0  0  0  0  0
    0.7157   -4.1506   -5.4130 H   0  0  0  0  0  0  0  0  0  0  0  0
    2.5073   -3.8594   -5.2347 H   0  0  0  0  0  0  0  0  0  0  0  0
    5.1377   -4.8796    0.7367 H   0  0  0  0  0  0  0  0  0  0  0  0
    5.3756   -4.4135   -0.9546 H   0  0  0  0  0  0  0  0  0  0  0  0
    6.2938   -3.5432    0.2892 H   0  0  0  0  0  0  0  0  0  0  0  0
   -1.7929    8.4542   -4.8914 H   0  0  0  0  0  0  0  0  0  0  0  0
   -1.8254    8.4666   -3.1265 H   0  0  0  0  0  0  0  0  0  0  0  0
  1  2  1  0
  2  3  2  3
  3  4  1  0
  4  5  1  0
  5  6  1  0
  6  7  1  0
  7  8  1  0
  8  9  1  0
  9 10  2  0
  9 11  1  0
 11 12  1  0
 12 13  1  0
 13 14  1  0
 14 15  1  0
 15 16  1  0
 16 17  2  0
 16 18  1  0
 18 19  1  0
 19 20  1  0
 20 21  1  0
 21 22  1  0
 22 23  1  0
 23 24  2  0
 23 25  1  0
 25 26  1  0
 26 27  1  0
 27 28  2  0
 28 29  1  0
 29 30  2  0
 30 31  1  0
 31 32  2  0
 25 33  1  0
 33 34  1  0
 34 35  2  0
 34 36  1  0
 36 37  1  0
 37 38  1  0
 38 39  2  0
 38 40  1  0
 40 41  1  0
 41 42  1  0
 42 43  2  0
 42 44  1  0
 44 45  1  0
 45 46  1  0
 46 47  2  0
 46 48  1  0
 48 49  1  0
 49 50  1  0
 50 51  2  0
 48 52  1  0
 52 53  1  0
 53 54  2  0
 54 55  1  0
 55 56  2  0
 56 57  1  0
 57 58  2  0
 56 59  1  0
 59 60  2  0
 60 61  1  0
 61 62  2  0
 62 63  1  0
 63 64  2  0
 44 65  1  0
 65 66  1  0
 66 67  2  0
 67 68  1  0
 68 69  2  0
 69 70  1  0
 70 71  2  0
 40 72  1  0
 72 73  1  0
 73 74  2  0
 73 75  1  0
 36 76  1  0
  2 77  1  0
 50  7  1  0
 58 53  1  0
 64 59  1  0
 71 66  1  0
 15 11  1  0
 22 18  1  0
 32 27  1  0
  1 78  1  0
  1 79  1  0
  4 80  1  0
  4 81  1  0
  5 82  1  0
  5 83  1  0
  6 84  1  0
  6 85  1  0
  7 86  1  1
  8 87  1  0
 11 88  1  1
 12 89  1  0
 12 90  1  0
 13 91  1  0
 13 92  1  0
 14 93  1  0
 14 94  1  0
 18 95  1  6
 19 96  1  0
 19 97  1  0
 20 98  1  0
 20 99  1  0
 21100  1  0
 21101  1  0
 25102  1  1
 26103  1  0
 26104  1  0
 28105  1  0
 29106  1  0
 30107  1  0
 31108  1  0
 32109  1  0
 33110  1  0
 36111  1  1
 37112  1  0
 40113  1  6
 41114  1  0
 44115  1  1
 45116  1  0
 48117  1  1
 49118  1  0
 52119  1  0
 52120  1  0
 54121  1  0
 55122  1  0
 57123  1  0
 58124  1  0
 60125  1  0
 61126  1  0
 62127  1  0
 63128  1  0
 64129  1  0
 65130  1  0
 65131  1  0
 67132  1  0
 68133  1  0
 69134  1  0
 70135  1  0
 71136  1  0
 72137  1  0
 72138  1  0
 75139  1  0
 75140  1  0
 76141  1  0
 76142  1  0
 76143  1  0
 77144  1  0
 77145  1  0
M  END
>  <Ligand ID>  (1) 
LIG0005498

>  <Ligand>  (1) 
CHEMBL3577982

>  <SMILES>  (1) 
NC(=NCCC[C@@H]1NC(=O)[C@@H]2CCCN2C(=O)[C@H]2CCCN2C(=O)[C@H](Cc2ccccc2)NC(=O)[C@@H](NC(=O)[C@@H](NC(=O)[C@@H](NC(=O)[C@@H](NC1=O)Cc1ccc(cc1)c1ccccc1)Cc1ccccc1)CC(=O)N)C)N

>  <CID>  (1) 
122178152.0

>  <ChEMBL ID>  (1) 
nan

>  <InChiKey>  (1) 
VOZOJZLWKUURJE-DYRRNQNHSA-N

>  <InChi>  (1) 
InChI=1S/C56H68N12O9/c1-34-48(70)66-44(32-36-16-7-3-8-17-36)54(76)68-29-13-22-46(68)55(77)67-28-12-21-45(67)53(75)62-40(20-11-27-60-56(58)59)49(71)63-42(31-37-23-25-39(26-24-37)38-18-9-4-10-19-38)51(73)64-41(30-35-14-5-2-6-15-35)52(74)65-43(33-47(57)69)50(72)61-34/h2-10,14-19,23-26,34,40-46H,11-13,20-22,27-33H2,1H3,(H2,57,69)(H,61,72)(H,62,75)(H,63,71)(H,64,73)(H,65,74)(H,66,70)(H4,58,59,60)/t34-,40-,41-,42-,43-,44-,45-,46+/m0/s1

>  <IUPAC Name>  (1) 
2-[(3R,9S,12S,15S,18S,21S,24S,27S)-9,18-dibenzyl-24-[3-(diaminomethylideneamino)propyl]-12-methyl-2,8,11,14,17,20,23,26-octaoxo-21-[(4-phenylphenyl)methyl]-1,7,10,13,16,19,22,25-octazatricyclo[25.3.0.03,7]triacontan-15-yl]acetamide

$$$$
