
     RDKit          3D

 32 33  0  0  0  0  0  0  0  0999 V2000
    3.3884   -1.5414    1.2700 O   0  0  0  0  0  0  0  0  0  0  0  0
    2.6530   -1.7789    0.1104 C   0  0  0  0  0  0  0  0  0  0  0  0
    3.2090   -2.4126   -0.8249 O   0  0  0  0  0  0  0  0  0  0  0  0
    1.2271   -1.2867   -0.0154 C   0  0  0  0  0  0  0  0  0  0  0  0
    1.1630    0.1992    0.0513 C   0  0  1  0  0  0  0  0  0  0  0  0
   -0.1659    0.9414   -0.0585 C   0  0  2  0  0  0  0  0  0  0  0  0
    0.5315    0.9106    1.2220 C   0  0  2  0  0  0  0  0  0  0  0  0
    1.3198    2.4720    1.7595 P   0  0  0  0  0  0  0  0  0  0  0  0
    2.3750    2.2271    2.7906 O   0  0  0  0  0  0  0  0  0  0  0  0
    1.9355    3.2215    0.3773 O   0  0  0  0  0  0  0  0  0  0  0  0
    0.1105    3.4676    2.3861 O   0  0  0  0  0  0  0  0  0  0  0  0
   -1.3342    0.1162   -0.4068 C   0  0  0  0  0  0  0  0  0  0  0  0
   -1.9474    0.3387   -1.6284 C   0  0  0  0  0  0  0  0  0  0  0  0
   -3.0562   -0.3932   -2.0102 C   0  0  0  0  0  0  0  0  0  0  0  0
   -3.5991   -1.3708   -1.1996 C   0  0  0  0  0  0  0  0  0  0  0  0
   -2.9969   -1.5973    0.0133 C   0  0  0  0  0  0  0  0  0  0  0  0
   -1.8808   -0.8570    0.3923 C   0  0  0  0  0  0  0  0  0  0  0  0
    0.7831   -1.7128   -1.3450 N   0  0  0  0  0  0  0  0  0  0  0  0
    4.1349   -2.1686    1.5829 H   0  0  0  0  0  0  0  0  0  0  0  0
    0.6882   -1.8295    0.7730 H   0  0  0  0  0  0  0  0  0  0  0  0
    2.0327    0.7536   -0.4130 H   0  0  0  0  0  0  0  0  0  0  0  0
   -0.1105    1.9009   -0.6640 H   0  0  0  0  0  0  0  0  0  0  0  0
    0.2425    0.2802    2.0696 H   0  0  0  0  0  0  0  0  0  0  0  0
    1.9064    4.2138    0.4477 H   0  0  0  0  0  0  0  0  0  0  0  0
   -0.2507    4.1082    1.7242 H   0  0  0  0  0  0  0  0  0  0  0  0
   -1.5934    1.0824   -2.3280 H   0  0  0  0  0  0  0  0  0  0  0  0
   -3.5573   -0.2333   -2.9730 H   0  0  0  0  0  0  0  0  0  0  0  0
   -4.4625   -1.9500   -1.4825 H   0  0  0  0  0  0  0  0  0  0  0  0
   -3.3882   -2.3645    0.6985 H   0  0  0  0  0  0  0  0  0  0  0  0
   -1.4617   -1.0669    1.3414 H   0  0  0  0  0  0  0  0  0  0  0  0
    1.0780   -2.6635   -1.5981 H   0  0  0  0  0  0  0  0  0  0  0  0
    1.0262   -1.0066   -2.0625 H   0  0  0  0  0  0  0  0  0  0  0  0
  1  2  1  0
  2  3  2  0
  2  4  1  0
  4  5  1  0
  5  6  1  0
  6  7  1  0
  7  8  1  0
  8  9  2  0
  8 10  1  0
  8 11  1  0
  6 12  1  0
 12 13  2  0
 13 14  1  0
 14 15  2  0
 15 16  1  0
 16 17  2  0
  4 18  1  0
  7  5  1  0
 17 12  1  0
  1 19  1  0
  4 20  1  0
  5 21  1  6
  6 22  1  6
  7 23  1  1
 10 24  1  0
 11 25  1  0
 13 26  1  0
 14 27  1  0
 15 28  1  0
 16 29  1  0
 17 30  1  0
 18 31  1  0
 18 32  1  0
M  END
>  <Ligand ID>  (1) 
LIG0002582

>  <Ligand>  (1) 
CHEMBL396319

>  <SMILES>  (1) 
OC(=O)C([C@H]1[C@H]([C@@H]1P(=O)(O)O)c1ccccc1)N

>  <CID>  (1) 
44429224.0

>  <ChEMBL ID>  (1) 
nan

>  <InChiKey>  (1) 
DLDXPEVIBANPLO-VYQDEHIVSA-N

>  <InChi>  (1) 
InChI=1S/C11H14NO5P/c12-9(11(13)14)8-7(10(8)18(15,16)17)6-4-2-1-3-5-6/h1-5,7-10H,12H2,(H,13,14)(H2,15,16,17)/t7-,8-,9?,10+/m1/s1

>  <IUPAC Name>  (1) 
2-amino-2-[(1R,2S,3S)-2-phenyl-3-phosphonocyclopropyl]acetic acid

$$$$
