
     RDKit          3D

 46 47  0  0  0  0  0  0  0  0999 V2000
    1.4284    1.0939   -3.2517 O   0  0  0  0  0  0  0  0  0  0  0  0
    1.2062    0.1809   -2.2151 C   0  0  2  0  0  0  0  0  0  0  0  0
    0.9176    0.9410   -0.9498 C   0  0  1  0  0  0  0  0  0  0  0  0
   -0.2726    0.4156   -0.2116 C   0  0  0  0  0  0  0  0  0  0  0  0
   -0.1296   -0.9002    0.2156 O   0  0  0  0  0  0  0  0  0  0  0  0
   -1.5945   -1.2686    1.0200 P   0  0  0  0  0  0  0  0  0  0  0  0
   -1.4565   -2.5612    1.7913 O   0  0  0  0  0  0  0  0  0  0  0  0
   -2.8005   -1.3795   -0.1501 O   0  0  0  0  0  0  0  0  0  0  0  0
   -4.0772   -0.3299    0.0829 P   0  0  0  0  0  0  0  0  0  0  0  0
   -3.6772    1.0526    0.4955 O   0  0  0  0  0  0  0  0  0  0  0  0
   -5.3110   -0.9288    1.2566 C   0  0  0  0  0  0  0  0  0  0  0  0
   -6.8437    0.0020    1.0266 P   0  0  0  0  0  0  0  0  0  0  0  0
   -7.9602   -0.9799    0.7371 O   0  0  0  0  0  0  0  0  0  0  0  0
   -7.2603    0.8643    2.4355 O   0  0  0  0  0  0  0  0  0  0  0  0
   -6.7660    1.1156   -0.2201 O   0  0  0  0  0  0  0  0  0  0  0  0
   -5.5065   -2.2847    1.0742 F   0  0  0  0  0  0  0  0  0  0  0  0
   -4.8501   -0.6742    2.5348 F   0  0  0  0  0  0  0  0  0  0  0  0
   -4.8616   -0.1812   -1.4299 O   0  0  0  0  0  0  0  0  0  0  0  0
   -1.8674    0.0161    2.0913 O   0  0  0  0  0  0  0  0  0  0  0  0
    2.0534    0.9093   -0.1549 O   0  0  0  0  0  0  0  0  0  0  0  0
    3.1261    0.6210   -0.9902 C   0  0  2  0  0  0  0  0  0  0  0  0
    2.5734   -0.4347   -1.8973 C   0  0  2  0  0  0  0  0  0  0  0  0
    3.2764   -0.5421   -3.0833 O   0  0  0  0  0  0  0  0  0  0  0  0
    4.2195    0.1660   -0.1821 N   0  0  0  0  0  0  0  0  0  0  0  0
    4.7902   -1.0409   -0.3113 C   0  0  0  0  0  0  0  0  0  0  0  0
    5.8504   -1.4311    0.5013 C   0  0  0  0  0  0  0  0  0  0  0  0
    6.3118   -0.5482    1.4532 C   0  0  0  0  0  0  0  0  0  0  0  0
    7.5506   -0.9493    2.4338 S   0  0  0  0  0  0  0  0  0  0  0  0
    5.7208    0.6484    1.5567 N   0  0  0  0  0  0  0  0  0  0  0  0
    4.6972    1.0011    0.7584 C   0  0  0  0  0  0  0  0  0  0  0  0
    4.2014    2.1591    0.9329 O   0  0  0  0  0  0  0  0  0  0  0  0
    1.6745    1.9746   -2.8484 H   0  0  0  0  0  0  0  0  0  0  0  0
    0.4592   -0.5714   -2.4731 H   0  0  0  0  0  0  0  0  0  0  0  0
    0.7120    1.9982   -1.1854 H   0  0  0  0  0  0  0  0  0  0  0  0
   -1.1170    0.4127   -0.9380 H   0  0  0  0  0  0  0  0  0  0  0  0
   -0.4614    1.0462    0.6629 H   0  0  0  0  0  0  0  0  0  0  0  0
   -6.4578    1.0372    3.0055 H   0  0  0  0  0  0  0  0  0  0  0  0
   -6.6874    2.0692    0.0933 H   0  0  0  0  0  0  0  0  0  0  0  0
   -4.9909    0.7533   -1.6972 H   0  0  0  0  0  0  0  0  0  0  0  0
   -1.5939   -0.2945    3.0039 H   0  0  0  0  0  0  0  0  0  0  0  0
    3.4265    1.4838   -1.6195 H   0  0  0  0  0  0  0  0  0  0  0  0
    2.3903   -1.4026   -1.3934 H   0  0  0  0  0  0  0  0  0  0  0  0
    3.1675    0.3126   -3.5721 H   0  0  0  0  0  0  0  0  0  0  0  0
    4.3901   -1.6910   -1.0711 H   0  0  0  0  0  0  0  0  0  0  0  0
    6.3104   -2.4050    0.3966 H   0  0  0  0  0  0  0  0  0  0  0  0
    6.0894    1.2994    2.2863 H   0  0  0  0  0  0  0  0  0  0  0  0
  1  2  1  0
  2  3  1  0
  3  4  1  0
  4  5  1  0
  5  6  1  0
  6  7  2  0
  6  8  1  0
  8  9  1  0
  9 10  2  0
  9 11  1  0
 11 12  1  0
 12 13  2  0
 12 14  1  0
 12 15  1  0
 11 16  1  0
 11 17  1  0
  9 18  1  0
  6 19  1  0
  3 20  1  0
 20 21  1  0
 21 22  1  0
 22 23  1  0
 21 24  1  0
 24 25  1  0
 25 26  2  0
 26 27  1  0
 27 28  2  0
 27 29  1  0
 29 30  1  0
 30 31  2  0
 22  2  1  0
 30 24  1  0
  1 32  1  0
  2 33  1  6
  3 34  1  6
  4 35  1  0
  4 36  1  0
 14 37  1  0
 15 38  1  0
 18 39  1  0
 19 40  1  0
 21 41  1  6
 22 42  1  1
 23 43  1  0
 25 44  1  0
 26 45  1  0
 29 46  1  0
M  END
>  <Ligand ID>  (1) 
LIG0002836

>  <Ligand>  (1) 
PSB1114

>  <SMILES>  (1) 
O[C@@H]1[C@@H](COP(=O)(OP(=O)(C(P(=O)(O)O)(F)F)O)O)O[C@H]([C@@H]1O)n1ccc(=S)[nH]c1=O

>  <CID>  (1) 
52952605.0

>  <ChEMBL ID>  (1) 
nan

>  <InChiKey>  (1) 
DFGBPSGNGNHNQM-XVFCMESISA-N

>  <InChi>  (1) 
InChI=1S/C10H15F2N2O13P3S/c11-10(12,28(18,19)20)29(21,22)27-30(23,24)25-3-4-6(15)7(16)8(26-4)14-2-1-5(31)13-9(14)17/h1-2,4,6-8,15-16H,3H2,(H,21,22)(H,23,24)(H,13,17,31)(H2,18,19,20)/t4-,6-,7-,8-/m1/s1

>  <IUPAC Name>  (1) 
[[[[(2R,3S,4R,5R)-3,4-dihydroxy-5-(2-oxo-4-sulfanylidenepyrimidin-1-yl)oxolan-2-yl]methoxy-hydroxyphosphoryl]oxy-hydroxyphosphoryl]-difluoromethyl]phosphonic acid

$$$$
