
     RDKit          3D

 50 51  0  0  0  0  0  0  0  0999 V2000
   -2.8001   -1.8571    0.6592 C   0  0  0  0  0  0  0  0  0  0  0  0
   -2.1026   -0.5914    0.6110 N   0  0  0  0  0  0  0  0  0  0  0  0
   -1.1256   -0.5311    1.6744 C   0  0  0  0  0  0  0  0  0  0  0  0
   -0.3918    0.7736    1.6744 C   0  0  0  0  0  0  0  0  0  0  0  0
    0.1019    1.1450    0.2938 C   0  0  2  0  0  0  0  0  0  0  0  0
   -0.9801    1.0427   -0.7440 C   0  0  0  0  0  0  0  0  0  0  0  0
   -1.5256   -0.3535   -0.6876 C   0  0  1  0  0  0  0  0  0  0  0  0
   -0.5462   -1.3974   -1.1078 C   0  0  0  0  0  0  0  0  0  0  0  0
    0.8246   -1.0223   -0.7034 C   0  0  0  0  0  0  0  0  0  0  0  0
    1.1474    0.1466   -0.0551 C   0  0  0  0  0  0  0  0  0  0  0  0
    2.4592    0.4107    0.2833 C   0  0  0  0  0  0  0  0  0  0  0  0
    3.4691   -0.4938   -0.0231 C   0  0  0  0  0  0  0  0  0  0  0  0
    3.1344   -1.6628   -0.6732 C   0  0  0  0  0  0  0  0  0  0  0  0
    1.8328   -1.9407   -1.0171 C   0  0  0  0  0  0  0  0  0  0  0  0
    4.7973   -0.2583    0.3032 O   0  0  0  0  0  0  0  0  0  0  0  0
   -2.1138    2.0143   -0.4940 C   0  0  0  0  0  0  0  0  0  0  0  0
    0.6840    2.5245    0.3476 C   0  0  0  0  0  0  0  0  0  0  0  0
   -2.9259    0.5947    0.4516 O   0  0  0  0  0  0  0  0  0  0  0  0
   -1.8987   -0.0784   -0.2172 C   0  0  0  0  0  0  0  0  0  0  0  0
   -2.1743   -0.9144   -1.0918 O   0  0  0  0  0  0  0  0  0  0  0  0
   -0.5017    0.2093    0.1208 C   0  0  0  0  0  0  0  0  0  0  0  0
    0.5127   -0.3951   -0.4771 C   0  0  0  0  0  0  0  0  0  0  0  0
    1.8641   -0.0587   -0.0898 C   0  0  0  0  0  0  0  0  0  0  0  0
    2.0675    0.8040    0.8105 O   0  0  0  0  0  0  0  0  0  0  0  0
    2.9756   -0.6397   -0.6607 O   0  0  0  0  0  0  0  0  0  0  0  0
   -3.1953   -2.1045   -0.3564 H   0  0  0  0  0  0  0  0  0  0  0  0
   -2.1247   -2.6612    0.9863 H   0  0  0  0  0  0  0  0  0  0  0  0
   -3.6045   -1.7624    1.4076 H   0  0  0  0  0  0  0  0  0  0  0  0
   -0.3984   -1.3810    1.6420 H   0  0  0  0  0  0  0  0  0  0  0  0
   -1.6778   -0.6331    2.6311 H   0  0  0  0  0  0  0  0  0  0  0  0
   -0.9932    1.5687    2.1387 H   0  0  0  0  0  0  0  0  0  0  0  0
    0.5228    0.6333    2.3015 H   0  0  0  0  0  0  0  0  0  0  0  0
   -0.5152    1.2599   -1.7220 H   0  0  0  0  0  0  0  0  0  0  0  0
   -2.3952   -0.3829   -1.4075 H   0  0  0  0  0  0  0  0  0  0  0  0
   -0.5801   -1.4811   -2.2125 H   0  0  0  0  0  0  0  0  0  0  0  0
   -0.7851   -2.3669   -0.6261 H   0  0  0  0  0  0  0  0  0  0  0  0
    2.7794    1.3097    0.7930 H   0  0  0  0  0  0  0  0  0  0  0  0
    3.8893   -2.3984   -0.9327 H   0  0  0  0  0  0  0  0  0  0  0  0
    1.5834   -2.8773   -1.5351 H   0  0  0  0  0  0  0  0  0  0  0  0
    5.4238   -0.0082   -0.4316 H   0  0  0  0  0  0  0  0  0  0  0  0
   -1.8723    3.0301   -0.8083 H   0  0  0  0  0  0  0  0  0  0  0  0
   -3.0530    1.6333   -0.9386 H   0  0  0  0  0  0  0  0  0  0  0  0
   -2.2791    2.0511    0.6185 H   0  0  0  0  0  0  0  0  0  0  0  0
    1.2822    2.7501   -0.5514 H   0  0  0  0  0  0  0  0  0  0  0  0
    1.3018    2.6362    1.2608 H   0  0  0  0  0  0  0  0  0  0  0  0
   -0.1735    3.2354    0.4326 H   0  0  0  0  0  0  0  0  0  0  0  0
   -3.7834    0.7748   -0.0728 H   0  0  0  0  0  0  0  0  0  0  0  0
   -0.2749    0.9393    0.8842 H   0  0  0  0  0  0  0  0  0  0  0  0
    0.3252   -1.1286   -1.2430 H   0  0  0  0  0  0  0  0  0  0  0  0
    3.8138   -0.1072   -0.8744 H   0  0  0  0  0  0  0  0  0  0  0  0
  1  2  1  0
  2  3  1  0
  3  4  1  0
  4  5  1  0
  5  6  1  0
  6  7  1  0
  7  8  1  0
  8  9  1  0
  9 10  2  0
 10 11  1  0
 11 12  2  0
 12 13  1  0
 13 14  2  0
 12 15  1  0
  6 16  1  0
  5 17  1  1
 18 19  1  0
 19 20  2  0
 19 21  1  0
 21 22  2  0
 22 23  1  0
 23 24  2  0
 23 25  1  0
  7  2  1  0
 14  9  1  0
 10  5  1  0
  1 26  1  0
  1 27  1  0
  1 28  1  0
  3 29  1  0
  3 30  1  0
  4 31  1  0
  4 32  1  0
  6 33  1  0
  7 34  1  6
  8 35  1  0
  8 36  1  0
 11 37  1  0
 13 38  1  0
 14 39  1  0
 15 40  1  0
 16 41  1  0
 16 42  1  0
 16 43  1  0
 17 44  1  0
 17 45  1  0
 17 46  1  0
 18 47  1  0
 21 48  1  0
 22 49  1  0
 25 50  1  0
M  END
>  <Ligand ID>  (1) 
LIG0003577

>  <Ligand>  (1) 
CHEMBL1898602

>  <SMILES>  (1) 
CN1CC[C@@]2(C([C@H]1Cc1c2cc(cc1)O)C)C.OC(=O)/C=C/C(=O)O

>  <CID>  (1) 
90660826.0

>  <ChEMBL ID>  (1) 
nan

>  <InChiKey>  (1) 
JJBZYGQNBCNTQB-JCZOAZEHSA-N

>  <InChi>  (1) 
InChI=1S/C15H21NO.C4H4O4/c1-10-14-8-11-4-5-12(17)9-13(11)15(10,2)6-7-16(14)3;5-3(6)1-2-4(7)8/h4-5,9-10,14,17H,6-8H2,1-3H3;1-2H,(H,5,6)(H,7,8)/b;2-1+/t10?,14-,15-;/m1./s1

>  <IUPAC Name>  (1) 
(E)-but-2-enedioic acid;(1R,9R)-1,10,13-trimethyl-10-azatricyclo[7.3.1.02,7]trideca-2(7),3,5-trien-4-ol

$$$$
