
     RDKit          3D

 84 86  0  0  0  0  0  0  0  0999 V2000
   -8.8667   -1.0837   -2.0008 C   0  0  0  0  0  0  0  0  0  0  0  0
   -7.8432   -0.1888   -1.7458 O   0  0  0  0  0  0  0  0  0  0  0  0
   -7.6784    1.0294   -2.4487 C   0  0  0  0  0  0  0  0  0  0  0  0
   -8.6296    1.2965   -3.4090 C   0  0  0  0  0  0  0  0  0  0  0  0
   -8.5609    2.4590   -4.1398 C   0  0  0  0  0  0  0  0  0  0  0  0
   -7.5357    3.3589   -3.9091 C   0  0  0  0  0  0  0  0  0  0  0  0
   -6.6060    3.0541   -2.9405 C   0  0  0  0  0  0  0  0  0  0  0  0
   -6.6400    1.8903   -2.1818 C   0  0  0  0  0  0  0  0  0  0  0  0
   -5.6120    1.5692   -1.1989 C   0  0  0  0  0  0  0  0  0  0  0  0
   -4.6154    2.3320   -0.8660 C   0  0  0  0  0  0  0  0  0  0  0  0
   -3.5778    2.0481    0.0951 C   0  0  0  0  0  0  0  0  0  0  0  0
   -2.6637    2.8890    0.3477 O   0  0  0  0  0  0  0  0  0  0  0  0
   -3.5037    0.8014    0.8238 N   0  0  0  0  0  0  0  0  0  0  0  0
   -2.4255    0.6214    1.7393 C   0  0  2  0  0  0  0  0  0  0  0  0
   -1.2658   -0.0876    1.0969 C   0  0  0  0  0  0  0  0  0  0  0  0
   -1.4006   -0.3474   -0.1388 O   0  0  0  0  0  0  0  0  0  0  0  0
   -0.0951   -0.4493    1.8009 N   0  0  0  0  0  0  0  0  0  0  0  0
    0.9592   -1.1378    1.0155 C   0  0  1  0  0  0  0  0  0  0  0  0
    2.0908   -0.1868    1.0388 C   0  0  0  0  0  0  0  0  0  0  0  0
    1.9092    0.8538    1.7684 O   0  0  0  0  0  0  0  0  0  0  0  0
    3.3021   -0.3393    0.3362 N   0  0  0  0  0  0  0  0  0  0  0  0
    4.3649    0.7730    0.4673 C   0  0  1  0  0  0  0  0  0  0  0  0
    5.6035    0.0741    0.7525 C   0  0  0  0  0  0  0  0  0  0  0  0
    6.6520    0.5234    1.2693 O   0  0  0  0  0  0  0  0  0  0  0  0
    5.6984   -1.3407    0.4089 N   0  0  0  0  0  0  0  0  0  0  0  0
    4.1809    1.4454   -0.8366 C   0  0  0  0  0  0  0  0  0  0  0  0
    4.8539    2.6258   -1.3142 C   0  0  0  0  0  0  0  0  0  0  0  0
    6.2957    2.7349   -1.5494 C   0  0  0  0  0  0  0  0  0  0  0  0
    7.1478    2.6317   -0.4351 N   0  0  0  0  0  0  0  0  0  0  0  0
    8.2786    3.2525   -0.2677 C   0  0  0  0  0  0  0  0  0  0  0  0
    8.8380    4.1419   -1.1938 N   0  0  0  0  0  0  0  0  0  0  0  0
    8.9523    2.9635    0.9670 N   0  0  0  0  0  0  0  0  0  0  0  0
    1.1701   -2.4357    1.7149 C   0  0  0  0  0  0  0  0  0  0  0  0
    2.1583   -3.3461    1.1432 C   0  0  0  0  0  0  0  0  0  0  0  0
    3.4775   -3.4413    1.5136 C   0  0  0  0  0  0  0  0  0  0  0  0
    4.3792   -4.3142    0.9466 C   0  0  0  0  0  0  0  0  0  0  0  0
    3.9120   -5.1441   -0.0614 C   0  0  0  0  0  0  0  0  0  0  0  0
    2.6038   -5.0942   -0.4758 C   0  0  0  0  0  0  0  0  0  0  0  0
    1.7436   -4.2018    0.1272 C   0  0  0  0  0  0  0  0  0  0  0  0
   -2.8359   -0.1274    2.9485 C   0  0  0  0  0  0  0  0  0  0  0  0
   -3.3479   -1.4860    2.7284 C   0  0  0  0  0  0  0  0  0  0  0  0
   -3.5391   -2.2478    1.6135 C   0  0  0  0  0  0  0  0  0  0  0  0
   -4.0496   -3.4636    1.9745 N   0  0  0  0  0  0  0  0  0  0  0  0
   -4.1672   -3.4390    3.2995 C   0  0  0  0  0  0  0  0  0  0  0  0
   -3.7543   -2.2647    3.7850 N   0  0  0  0  0  0  0  0  0  0  0  0
   -8.5234   -2.1011   -1.6248 H   0  0  0  0  0  0  0  0  0  0  0  0
   -9.7900   -0.8817   -1.3978 H   0  0  0  0  0  0  0  0  0  0  0  0
   -9.0402   -1.2069   -3.0666 H   0  0  0  0  0  0  0  0  0  0  0  0
   -9.4588    0.6404   -3.6362 H   0  0  0  0  0  0  0  0  0  0  0  0
   -9.2979    2.6909   -4.8976 H   0  0  0  0  0  0  0  0  0  0  0  0
   -7.5153    4.2441   -4.4978 H   0  0  0  0  0  0  0  0  0  0  0  0
   -5.8189    3.7952   -2.7967 H   0  0  0  0  0  0  0  0  0  0  0  0
   -5.6981    0.6055   -0.7071 H   0  0  0  0  0  0  0  0  0  0  0  0
   -4.5486    3.3079   -1.3700 H   0  0  0  0  0  0  0  0  0  0  0  0
   -4.2652    0.1278    0.6147 H   0  0  0  0  0  0  0  0  0  0  0  0
   -2.0165    1.6467    1.9883 H   0  0  0  0  0  0  0  0  0  0  0  0
    0.0205   -0.2456    2.8127 H   0  0  0  0  0  0  0  0  0  0  0  0
    0.5826   -1.2514   -0.0219 H   0  0  0  0  0  0  0  0  0  0  0  0
    3.5005   -1.1441   -0.2447 H   0  0  0  0  0  0  0  0  0  0  0  0
    3.9702    1.3638    1.3119 H   0  0  0  0  0  0  0  0  0  0  0  0
    5.5010   -1.6696   -0.5499 H   0  0  0  0  0  0  0  0  0  0  0  0
    5.9788   -1.9473    1.2142 H   0  0  0  0  0  0  0  0  0  0  0  0
    3.0382    1.6423   -0.9932 H   0  0  0  0  0  0  0  0  0  0  0  0
    4.2854    0.5875   -1.6259 H   0  0  0  0  0  0  0  0  0  0  0  0
    4.5317    3.5197   -0.6497 H   0  0  0  0  0  0  0  0  0  0  0  0
    4.3140    2.9180   -2.3067 H   0  0  0  0  0  0  0  0  0  0  0  0
    6.5031    3.7209   -2.0811 H   0  0  0  0  0  0  0  0  0  0  0  0
    6.6083    1.9520   -2.3085 H   0  0  0  0  0  0  0  0  0  0  0  0
    9.8488    4.4098   -1.0746 H   0  0  0  0  0  0  0  0  0  0  0  0
    8.3438    4.5614   -1.9880 H   0  0  0  0  0  0  0  0  0  0  0  0
    9.6483    2.1859    0.9242 H   0  0  0  0  0  0  0  0  0  0  0  0
    8.7416    3.5052    1.8368 H   0  0  0  0  0  0  0  0  0  0  0  0
    0.2078   -3.0225    1.7820 H   0  0  0  0  0  0  0  0  0  0  0  0
    1.3840   -2.2200    2.8136 H   0  0  0  0  0  0  0  0  0  0  0  0
    3.8298   -2.7811    2.3123 H   0  0  0  0  0  0  0  0  0  0  0  0
    5.4166   -4.3855    1.2405 H   0  0  0  0  0  0  0  0  0  0  0  0
    4.5738   -5.8626   -0.5539 H   0  0  0  0  0  0  0  0  0  0  0  0
    2.2007   -5.7320   -1.2653 H   0  0  0  0  0  0  0  0  0  0  0  0
    0.7095   -4.1727   -0.2113 H   0  0  0  0  0  0  0  0  0  0  0  0
   -3.5822    0.5028    3.5180 H   0  0  0  0  0  0  0  0  0  0  0  0
   -1.9001   -0.2254    3.5860 H   0  0  0  0  0  0  0  0  0  0  0  0
   -3.3504   -2.0196    0.5895 H   0  0  0  0  0  0  0  0  0  0  0  0
   -4.5438   -4.2549    3.9181 H   0  0  0  0  0  0  0  0  0  0  0  0
   -3.7474   -2.0059    4.7967 H   0  0  0  0  0  0  0  0  0  0  0  0
  1  2  1  0
  2  3  1  0
  3  4  2  0
  4  5  1  0
  5  6  2  0
  6  7  1  0
  7  8  2  0
  8  9  1  0
  9 10  2  0
 10 11  1  0
 11 12  2  0
 11 13  1  0
 13 14  1  0
 14 15  1  0
 15 16  2  0
 15 17  1  0
 17 18  1  0
 18 19  1  0
 19 20  2  0
 19 21  1  0
 21 22  1  0
 22 23  1  0
 23 24  2  0
 23 25  1  0
 22 26  1  0
 26 27  1  0
 27 28  1  0
 28 29  1  0
 29 30  2  3
 30 31  1  0
 30 32  1  0
 18 33  1  0
 33 34  1  0
 34 35  2  0
 35 36  1  0
 36 37  2  0
 37 38  1  0
 38 39  2  0
 14 40  1  0
 40 41  1  0
 41 42  2  0
 42 43  1  0
 43 44  2  0
 44 45  1  0
  8  3  1  0
 39 34  1  0
 45 41  1  0
  1 46  1  0
  1 47  1  0
  1 48  1  0
  4 49  1  0
  5 50  1  0
  6 51  1  0
  7 52  1  0
  9 53  1  0
 10 54  1  0
 13 55  1  0
 14 56  1  1
 17 57  1  0
 18 58  1  6
 21 59  1  0
 22 60  1  1
 25 61  1  0
 25 62  1  0
 26 63  1  0
 26 64  1  0
 27 65  1  0
 27 66  1  0
 28 67  1  0
 28 68  1  0
 31 69  1  0
 31 70  1  0
 32 71  1  0
 32 72  1  0
 33 73  1  0
 33 74  1  0
 35 75  1  0
 36 76  1  0
 37 77  1  0
 38 78  1  0
 39 79  1  0
 40 80  1  0
 40 81  1  0
 42 82  1  0
 44 83  1  0
 45 84  1  0
M  END
>  <Ligand ID>  (1) 
LIG0004858

>  <Ligand>  (1) 
CHEMBL566545

>  <SMILES>  (1) 
COc1ccccc1/C=C/C(=O)N[C@H](C(=O)N[C@@H](C(=O)N[C@@H](C(=O)N)CCCN=C(N)N)Cc1ccccc1)Cc1cnc[nH]1

>  <CID>  (1) 
45487407.0

>  <ChEMBL ID>  (1) 
nan

>  <InChiKey>  (1) 
POHSNDLUDBIGIE-YIQBPBSRSA-N

>  <InChi>  (1) 
InChI=1S/C31H39N9O5/c1-45-26-12-6-5-10-21(26)13-14-27(41)38-25(17-22-18-35-19-37-22)30(44)40-24(16-20-8-3-2-4-9-20)29(43)39-23(28(32)42)11-7-15-36-31(33)34/h2-6,8-10,12-14,18-19,23-25H,7,11,15-17H2,1H3,(H2,32,42)(H,35,37)(H,38,41)(H,39,43)(H,40,44)(H4,33,34,36)/b14-13+/t23-,24-,25+/m1/s1

>  <IUPAC Name>  (1) 
(2R)-5-(diaminomethylideneamino)-2-[[(2R)-2-[[(2S)-3-(1H-imidazol-5-yl)-2-[[(E)-3-(2-methoxyphenyl)prop-2-enoyl]amino]propanoyl]amino]-3-phenylpropanoyl]amino]pentanamide

$$$$
