
     RDKit          3D

 16 17  0  0  0  0  0  0  0  0999 V2000
   -2.1331   -0.4521    0.0683 C   0  0  0  0  0  0  0  0  0  0  0  0
   -1.8237    0.2851    1.1935 C   0  0  0  0  0  0  0  0  0  0  0  0
   -0.5193    0.6860    1.3622 C   0  0  0  0  0  0  0  0  0  0  0  0
    0.4786    0.3797    0.4549 C   0  0  0  0  0  0  0  0  0  0  0  0
    0.1241   -0.3610   -0.6585 C   0  0  0  0  0  0  0  0  0  0  0  0
   -1.1704   -0.7921   -0.8821 C   0  0  0  0  0  0  0  0  0  0  0  0
    1.2596   -0.5135   -1.3595 N   0  0  0  0  0  0  0  0  0  0  0  0
    2.2931    0.0843   -0.7523 C   0  0  0  0  0  0  0  0  0  0  0  0
    1.8257    0.6735    0.4258 C   0  0  0  0  0  0  0  0  0  0  0  0
   -3.1613   -0.7955   -0.1109 H   0  0  0  0  0  0  0  0  0  0  0  0
   -2.5861    0.5498    1.9385 H   0  0  0  0  0  0  0  0  0  0  0  0
   -0.2601    1.2623    2.2350 H   0  0  0  0  0  0  0  0  0  0  0  0
   -1.4156   -1.3704   -1.7638 H   0  0  0  0  0  0  0  0  0  0  0  0
    1.3393   -1.0287   -2.2614 H   0  0  0  0  0  0  0  0  0  0  0  0
    3.3346    0.1583   -1.0337 H   0  0  0  0  0  0  0  0  0  0  0  0
    2.4146    1.2344    1.1441 H   0  0  0  0  0  0  0  0  0  0  0  0
  1  2  2  0
  2  3  1  0
  3  4  2  0
  4  5  1  0
  5  6  2  0
  5  7  1  0
  7  8  1  0
  8  9  2  0
  6  1  1  0
  9  4  1  0
  1 10  1  0
  2 11  1  0
  3 12  1  0
  6 13  1  0
  7 14  1  0
  8 15  1  0
  9 16  1  0
M  END
>  <Ligand ID>  (1) 
LIG0000255

>  <Ligand>  (1) 
Indole

>  <SMILES>  (1) 
c1ccc2c(c1)[nH]cc2

>  <CID>  (1) 
798.0

>  <ChEMBL ID>  (1) 
nan

>  <InChiKey>  (1) 
SIKJAQJRHWYJAI-UHFFFAOYSA-N

>  <InChi>  (1) 
InChI=1S/C8H7N/c1-2-4-8-7(3-1)5-6-9-8/h1-6,9H

>  <IUPAC Name>  (1) 
1H-indole

$$$$
