
     RDKit          3D

 34 35  0  0  0  0  0  0  0  0999 V2000
    4.0225    0.2399   -1.3634 C   0  0  0  0  0  0  0  0  0  0  0  0
    3.5421    0.6291    0.0103 C   0  0  0  0  0  0  0  0  0  0  0  0
    2.2182    0.0221    0.3595 C   0  0  0  0  0  0  0  0  0  0  0  0
    1.0212    0.6616    0.0726 C   0  0  0  0  0  0  0  0  0  0  0  0
   -0.1687    0.0531    0.4185 C   0  0  0  0  0  0  0  0  0  0  0  0
   -1.4477    0.6985    0.1465 C   0  0  1  0  0  0  0  0  0  0  0  0
   -1.5734    1.5117   -1.0833 C   0  0  0  0  0  0  0  0  0  0  0  0
   -3.0272    1.6826   -1.2221 N   0  0  0  0  0  0  0  0  0  0  0  0
   -3.6448    0.6104   -0.4223 C   0  0  0  0  0  0  0  0  0  0  0  0
   -2.5383   -0.3432   -0.1658 C   0  0  2  0  0  0  0  0  0  0  0  0
   -2.6210   -1.1139    1.0543 N   0  0  0  0  0  0  0  0  0  0  0  0
   -1.4190   -1.8430    1.4025 C   0  0  0  0  0  0  0  0  0  0  0  0
   -1.4685   -2.9621    1.9722 O   0  0  0  0  0  0  0  0  0  0  0  0
   -0.1317   -1.1994    1.0520 C   0  0  0  0  0  0  0  0  0  0  0  0
    1.0612   -1.8312    1.3353 C   0  0  0  0  0  0  0  0  0  0  0  0
    2.2555   -1.2193    0.9879 C   0  0  0  0  0  0  0  0  0  0  0  0
    1.0655   -3.3806    2.1209 Cl  0  0  0  0  0  0  0  0  0  0  0  0
    0.6853    0.0000    0.0000 Cl  0  0  0  0  0  0  0  0  0  0  0  0
    3.5362    0.8301   -2.1702 H   0  0  0  0  0  0  0  0  0  0  0  0
    5.1035    0.5145   -1.3957 H   0  0  0  0  0  0  0  0  0  0  0  0
    3.9893   -0.8537   -1.5509 H   0  0  0  0  0  0  0  0  0  0  0  0
    3.4246    1.7396    0.0007 H   0  0  0  0  0  0  0  0  0  0  0  0
    4.2717    0.3358    0.7743 H   0  0  0  0  0  0  0  0  0  0  0  0
    1.0258    1.6389   -0.4231 H   0  0  0  0  0  0  0  0  0  0  0  0
   -1.8246    1.2678    1.0257 H   0  0  0  0  0  0  0  0  0  0  0  0
   -1.0357    2.4754   -1.0701 H   0  0  0  0  0  0  0  0  0  0  0  0
   -1.2770    0.8817   -1.9644 H   0  0  0  0  0  0  0  0  0  0  0  0
   -3.3391    1.5429   -2.2080 H   0  0  0  0  0  0  0  0  0  0  0  0
   -3.9872    1.0565    0.5446 H   0  0  0  0  0  0  0  0  0  0  0  0
   -4.5091    0.1921   -0.9499 H   0  0  0  0  0  0  0  0  0  0  0  0
   -2.2918   -0.9359   -1.0504 H   0  0  0  0  0  0  0  0  0  0  0  0
   -3.4312   -1.1873    1.6724 H   0  0  0  0  0  0  0  0  0  0  0  0
    3.1987   -1.7146    1.2097 H   0  0  0  0  0  0  0  0  0  0  0  0
   -0.6853    0.0000    0.0000 H   0  0  0  0  0  0  0  0  0  0  0  0
  1  2  1  0
  2  3  1  0
  3  4  2  0
  4  5  1  0
  5  6  1  0
  6  7  1  0
  7  8  1  0
  8  9  1  0
  9 10  1  0
 10 11  1  0
 11 12  1  0
 12 13  2  0
 12 14  1  0
 14 15  1  0
 15 16  2  0
 15 17  1  0
 16  3  1  0
 14  5  2  0
 10  6  1  0
  1 19  1  0
  1 20  1  0
  1 21  1  0
  2 22  1  0
  2 23  1  0
  4 24  1  0
  6 25  1  1
  7 26  1  0
  7 27  1  0
  8 28  1  0
  9 29  1  0
  9 30  1  0
 10 31  1  6
 11 32  1  0
 16 33  1  0
 18 34  1  0
M  END
>  <Ligand ID>  (1) 
LIG0004109

>  <Ligand>  (1) 
CHEMBL2337497

>  <SMILES>  (1) 
CCc1cc2[C@H]3CNC[C@@H]3NC(=O)c2c(c1)Cl.Cl

>  <CID>  (1) 
11716184.0

>  <ChEMBL ID>  (1) 
nan

>  <InChiKey>  (1) 
LCSUYPLAJDFOPV-XQKZEKTMSA-N

>  <InChi>  (1) 
InChI=1S/C13H15ClN2O.ClH/c1-2-7-3-8-9-5-15-6-11(9)16-13(17)12(8)10(14)4-7;/h3-4,9,11,15H,2,5-6H2,1H3,(H,16,17);1H/t9-,11+;/m1./s1

>  <IUPAC Name>  (1) 
(3aR,9bS)-6-chloro-8-ethyl-1,2,3,3a,4,9b-hexahydropyrrolo[3,4-c]isoquinolin-5-one;hydrochloride

$$$$
