
     RDKit          3D

 54 58  0  0  0  0  0  0  0  0999 V2000
   -2.5419   -3.3253   -0.8864 C   0  0  0  0  0  0  0  0  0  0  0  0
   -2.4220   -1.9072   -0.6925 N   0  0  0  0  0  0  0  0  0  0  0  0
   -2.2476   -1.1365   -1.8432 C   0  0  0  0  0  0  0  0  0  0  0  0
   -1.1166   -0.1910   -1.9335 C   0  0  0  0  0  0  0  0  0  0  0  0
   -0.7380    0.3720   -0.5584 C   0  0  2  0  0  0  0  0  0  0  0  0
   -0.5213   -0.8531    0.2845 C   0  0  1  0  0  0  0  0  0  0  0  0
   -1.8456   -1.4884    0.5367 C   0  0  1  0  0  0  0  0  0  0  0  0
   -2.7753   -0.6523    1.3709 C   0  0  0  0  0  0  0  0  0  0  0  0
   -2.8584    0.6844    0.7616 C   0  0  0  0  0  0  0  0  0  0  0  0
   -1.9187    1.1695   -0.1345 C   0  0  0  0  0  0  0  0  0  0  0  0
   -2.0503    2.4337   -0.6739 C   0  0  0  0  0  0  0  0  0  0  0  0
   -3.1497    3.2148   -0.2985 C   0  0  0  0  0  0  0  0  0  0  0  0
   -4.0985    2.7563    0.5908 C   0  0  0  0  0  0  0  0  0  0  0  0
   -3.9397    1.4886    1.1130 C   0  0  0  0  0  0  0  0  0  0  0  0
   -3.2931    4.4889   -0.8346 O   0  0  0  0  0  0  0  0  0  0  0  0
    0.2070   -1.7587   -0.5140 O   0  0  0  0  0  0  0  0  0  0  0  0
    0.3146   -0.5934    1.4985 C   0  0  0  0  0  0  0  0  0  0  0  0
    1.6781   -0.2377    0.9630 C   0  0  0  0  0  0  0  0  0  0  0  0
    1.6848    0.6763   -0.0744 C   0  0  0  0  0  0  0  0  0  0  0  0
    0.4447    1.2722   -0.6303 C   0  0  0  0  0  0  0  0  0  0  0  0
    2.8691    1.0378   -0.5991 N   0  0  0  0  0  0  0  0  0  0  0  0
    4.0029    0.5073   -0.1071 C   0  0  0  0  0  0  0  0  0  0  0  0
    4.0296   -0.4058    0.9261 C   0  0  0  0  0  0  0  0  0  0  0  0
    2.8281   -0.7946    1.4835 C   0  0  0  0  0  0  0  0  0  0  0  0
    5.2038   -0.9366    1.4146 C   0  0  0  0  0  0  0  0  0  0  0  0
    6.4147   -0.5409    0.8484 C   0  0  0  0  0  0  0  0  0  0  0  0
    6.3897    0.3713   -0.1838 C   0  0  0  0  0  0  0  0  0  0  0  0
    5.2107    0.9109   -0.6818 C   0  0  0  0  0  0  0  0  0  0  0  0
    0.6885    0.0000    0.0000 Cl  0  0  0  0  0  0  0  0  0  0  0  0
   -3.5450   -3.6176   -1.2828 H   0  0  0  0  0  0  0  0  0  0  0  0
   -2.4743   -3.8185    0.1147 H   0  0  0  0  0  0  0  0  0  0  0  0
   -1.7566   -3.7566   -1.5594 H   0  0  0  0  0  0  0  0  0  0  0  0
   -2.1435   -1.8464   -2.7167 H   0  0  0  0  0  0  0  0  0  0  0  0
   -3.1984   -0.5889   -2.0823 H   0  0  0  0  0  0  0  0  0  0  0  0
   -1.4083    0.7060   -2.5394 H   0  0  0  0  0  0  0  0  0  0  0  0
   -0.1875   -0.5902   -2.3995 H   0  0  0  0  0  0  0  0  0  0  0  0
   -1.6441   -2.4188    1.1382 H   0  0  0  0  0  0  0  0  0  0  0  0
   -3.7611   -1.1650    1.3761 H   0  0  0  0  0  0  0  0  0  0  0  0
   -2.3836   -0.5480    2.4024 H   0  0  0  0  0  0  0  0  0  0  0  0
   -1.3060    2.8143   -1.3820 H   0  0  0  0  0  0  0  0  0  0  0  0
   -4.9594    3.3299    0.9037 H   0  0  0  0  0  0  0  0  0  0  0  0
   -4.6849    1.1012    1.8250 H   0  0  0  0  0  0  0  0  0  0  0  0
   -2.5480    4.9553   -1.3373 H   0  0  0  0  0  0  0  0  0  0  0  0
    1.1343   -1.8680   -0.2106 H   0  0  0  0  0  0  0  0  0  0  0  0
    0.3864   -1.5068    2.0909 H   0  0  0  0  0  0  0  0  0  0  0  0
   -0.0539    0.2585    2.0995 H   0  0  0  0  0  0  0  0  0  0  0  0
    0.3057    2.2348   -0.0587 H   0  0  0  0  0  0  0  0  0  0  0  0
    0.6004    1.5782   -1.6861 H   0  0  0  0  0  0  0  0  0  0  0  0
    2.7549   -1.5045    2.2957 H   0  0  0  0  0  0  0  0  0  0  0  0
    5.2004   -1.6536    2.2282 H   0  0  0  0  0  0  0  0  0  0  0  0
    7.3629   -0.9546    1.2260 H   0  0  0  0  0  0  0  0  0  0  0  0
    7.3271    0.6677   -0.6108 H   0  0  0  0  0  0  0  0  0  0  0  0
    5.2211    1.6285   -1.4968 H   0  0  0  0  0  0  0  0  0  0  0  0
   -0.6885    0.0000    0.0000 H   0  0  0  0  0  0  0  0  0  0  0  0
  1  2  1  0
  2  3  1  0
  3  4  1  0
  5  4  1  6
  5  6  1  0
  6  7  1  0
  7  8  1  0
  8  9  1  0
  9 10  2  0
 10 11  1  0
 11 12  2  0
 12 13  1  0
 13 14  2  0
 12 15  1  0
  6 16  1  6
  6 17  1  0
 17 18  1  0
 18 19  2  0
 19 20  1  0
 19 21  1  0
 21 22  2  0
 22 23  1  0
 23 24  2  0
 23 25  1  0
 25 26  2  0
 26 27  1  0
 27 28  2  0
  7  2  1  0
 14  9  1  0
 24 18  1  0
 20  5  1  0
 28 22  1  0
 10  5  1  0
  1 30  1  0
  1 31  1  0
  1 32  1  0
  3 33  1  0
  3 34  1  0
  4 35  1  0
  4 36  1  0
  7 37  1  1
  8 38  1  0
  8 39  1  0
 11 40  1  0
 13 41  1  0
 14 42  1  0
 15 43  1  0
 16 44  1  0
 17 45  1  0
 17 46  1  0
 20 47  1  0
 20 48  1  0
 24 49  1  0
 25 50  1  0
 26 51  1  0
 27 52  1  0
 28 53  1  0
 29 54  1  0
M  END
>  <Ligand ID>  (1) 
LIG0004619

>  <Ligand>  (1) 
CHEMBL3092394

>  <SMILES>  (1) 
CN1CC[C@@]23[C@@]([C@H]1Cc1c3cc(cc1)O)(O)Cc1c(C2)nc2c(c1)cccc2.Cl

>  <CID>  (1) 
76320889.0

>  <ChEMBL ID>  (1) 
nan

>  <InChiKey>  (1) 
PUVKNXVGDVZJEG-AKEJJZJZSA-N

>  <InChi>  (1) 
InChI=1S/C24H24N2O2.ClH/c1-26-9-8-23-14-21-17(10-16-4-2-3-5-20(16)25-21)13-24(23,28)22(26)11-15-6-7-18(27)12-19(15)23;/h2-7,10,12,22,27-28H,8-9,11,13-14H2,1H3;1H/t22-,23-,24-;/m1./s1

>  <IUPAC Name>  (1) 
(1R,14S,15R)-25-methyl-4,25-diazahexacyclo[13.7.3.01,14.03,12.05,10.017,22]pentacosa-3,5,7,9,11,17(22),18,20-octaene-14,20-diol;hydrochloride

$$$$
