
     RDKit          3D

 36 38  0  0  0  0  0  0  0  0999 V2000
   -3.5719    1.9171    1.1350 C   0  0  0  0  0  0  0  0  0  0  0  0
   -2.9400    1.8460   -0.2651 C   0  0  0  0  0  0  0  0  0  0  0  0
   -1.9130    0.7685   -0.1639 C   0  0  0  0  0  0  0  0  0  0  0  0
   -0.5923    1.2087   -0.0356 C   0  0  0  0  0  0  0  0  0  0  0  0
    0.4014    0.2607    0.0797 C   0  0  0  0  0  0  0  0  0  0  0  0
    1.8501    0.4311    0.2292 C   0  0  2  0  0  0  0  0  0  0  0  0
    2.5215    1.1915   -0.8666 C   0  0  0  0  0  0  0  0  0  0  0  0
    3.9330    1.2349   -0.5904 N   0  0  0  0  0  0  0  0  0  0  0  0
    4.5434   -0.0600   -0.5043 C   0  0  0  0  0  0  0  0  0  0  0  0
    3.8542   -0.9872    0.4770 C   0  0  0  0  0  0  0  0  0  0  0  0
    2.3956   -0.9078    0.3130 N   0  0  0  0  0  0  0  0  0  0  0  0
    1.3531   -1.8696    0.2147 C   0  0  0  0  0  0  0  0  0  0  0  0
    1.4890   -3.1264    0.2480 O   0  0  0  0  0  0  0  0  0  0  0  0
    0.1043   -1.1060    0.0689 C   0  0  0  0  0  0  0  0  0  0  0  0
   -1.2193   -1.4889   -0.0608 C   0  0  0  0  0  0  0  0  0  0  0  0
   -2.2444   -0.5678   -0.1783 C   0  0  0  0  0  0  0  0  0  0  0  0
   -3.5496   -0.9579   -0.3050 O   0  0  0  0  0  0  0  0  0  0  0  0
   -4.0126   -2.2781   -0.3347 C   0  0  0  0  0  0  0  0  0  0  0  0
   -4.2131    2.8360    1.1928 H   0  0  0  0  0  0  0  0  0  0  0  0
   -4.1593    1.0146    1.3389 H   0  0  0  0  0  0  0  0  0  0  0  0
   -2.7470    1.9967    1.9042 H   0  0  0  0  0  0  0  0  0  0  0  0
   -2.5354    2.8012   -0.5844 H   0  0  0  0  0  0  0  0  0  0  0  0
   -3.7530    1.4854   -0.9277 H   0  0  0  0  0  0  0  0  0  0  0  0
   -0.3528    2.2474   -0.0254 H   0  0  0  0  0  0  0  0  0  0  0  0
    2.0295    1.0206    1.1726 H   0  0  0  0  0  0  0  0  0  0  0  0
    2.1498    2.2384   -0.9138 H   0  0  0  0  0  0  0  0  0  0  0  0
    2.3491    0.7277   -1.8336 H   0  0  0  0  0  0  0  0  0  0  0  0
    4.1599    1.8392    0.2323 H   0  0  0  0  0  0  0  0  0  0  0  0
    5.5869    0.0951   -0.1124 H   0  0  0  0  0  0  0  0  0  0  0  0
    4.6474   -0.5067   -1.5050 H   0  0  0  0  0  0  0  0  0  0  0  0
    4.2456   -2.0056    0.2860 H   0  0  0  0  0  0  0  0  0  0  0  0
    4.1071   -0.7346    1.5274 H   0  0  0  0  0  0  0  0  0  0  0  0
   -1.3998   -2.5663   -0.0642 H   0  0  0  0  0  0  0  0  0  0  0  0
   -4.2841   -2.6956    0.6472 H   0  0  0  0  0  0  0  0  0  0  0  0
   -3.2930   -2.9678   -0.8334 H   0  0  0  0  0  0  0  0  0  0  0  0
   -4.9403   -2.3348   -0.9622 H   0  0  0  0  0  0  0  0  0  0  0  0
  1  2  1  0
  2  3  1  0
  3  4  2  0
  4  5  1  0
  5  6  1  0
  6  7  1  0
  7  8  1  0
  8  9  1  0
  9 10  1  0
 10 11  1  0
 11 12  1  0
 12 13  2  0
 12 14  1  0
 14 15  1  0
 15 16  2  0
 16 17  1  0
 17 18  1  0
 16  3  1  0
 14  5  2  0
 11  6  1  0
  1 19  1  0
  1 20  1  0
  1 21  1  0
  2 22  1  0
  2 23  1  0
  4 24  1  0
  6 25  1  1
  7 26  1  0
  7 27  1  0
  8 28  1  0
  9 29  1  0
  9 30  1  0
 10 31  1  0
 10 32  1  0
 15 33  1  0
 18 34  1  0
 18 35  1  0
 18 36  1  0
M  END
>  <Ligand ID>  (1) 
LIG0004092

>  <Ligand>  (1) 
CHEMBL374436

>  <SMILES>  (1) 
CCc1cc2[C@@H]3CNCCN3C(=O)c2cc1OC

>  <CID>  (1) 
16115644.0

>  <ChEMBL ID>  (1) 
nan

>  <InChiKey>  (1) 
SWFBKPFOAKNIHM-LBPRGKRZSA-N

>  <InChi>  (1) 
InChI=1S/C14H18N2O2/c1-3-9-6-10-11(7-13(9)18-2)14(17)16-5-4-15-8-12(10)16/h6-7,12,15H,3-5,8H2,1-2H3/t12-/m0/s1

>  <IUPAC Name>  (1) 
(10bR)-9-ethyl-8-methoxy-2,3,4,10b-tetrahydro-1H-pyrazino[1,2-b]isoindol-6-one

$$$$
