
     RDKit          3D

 43 45  0  0  0  0  0  0  0  0999 V2000
   -3.6818   -2.0975    1.0922 O   0  0  0  0  0  0  0  0  0  0  0  0
   -3.9229   -0.7428    1.3080 C   0  0  2  0  0  0  0  0  0  0  0  0
   -5.2534   -0.3766    0.8386 C   0  0  0  0  0  0  0  0  0  0  0  0
   -5.7187   -0.4684   -0.4472 C   0  0  0  0  0  0  0  0  0  0  0  0
   -7.0353   -0.0963   -0.7636 C   0  0  0  0  0  0  0  0  0  0  0  0
   -7.8938    0.3704    0.2046 C   0  0  0  0  0  0  0  0  0  0  0  0
   -7.4216    0.4535    1.4551 N   0  0  0  0  0  0  0  0  0  0  0  0
   -6.1586    0.1032    1.7900 C   0  0  0  0  0  0  0  0  0  0  0  0
   -2.7995    0.0933    0.6861 C   0  0  0  0  0  0  0  0  0  0  0  0
   -1.5587   -0.1820    1.3649 N   0  0  0  0  0  0  0  0  0  0  0  0
   -0.3808    0.3427    0.6930 C   0  0  0  0  0  0  0  0  0  0  0  0
   -0.0540   -0.4654   -0.5344 C   0  0  0  0  0  0  0  0  0  0  0  0
    1.0360   -0.0789   -1.2798 O   0  0  0  0  0  0  0  0  0  0  0  0
    2.3444    0.0398   -1.0343 C   0  0  0  0  0  0  0  0  0  0  0  0
    3.1652    0.4735   -2.0970 C   0  0  0  0  0  0  0  0  0  0  0  0
    4.5072    0.6352   -1.9731 C   0  0  0  0  0  0  0  0  0  0  0  0
    5.1687    0.3842   -0.7815 C   0  0  0  0  0  0  0  0  0  0  0  0
    4.3892   -0.0389    0.2702 C   0  0  0  0  0  0  0  0  0  0  0  0
    3.0105   -0.2075    0.1418 C   0  0  0  0  0  0  0  0  0  0  0  0
    6.6180    0.5795   -0.6889 C   0  0  0  0  0  0  0  0  0  0  0  0
    7.3729    0.9978   -1.7525 C   0  0  0  0  0  0  0  0  0  0  0  0
    9.0961    1.0674   -1.0696 S   0  0  0  0  0  0  0  0  0  0  0  0
    8.4354    0.4822    0.6239 C   0  0  0  0  0  0  0  0  0  0  0  0
    7.3083    0.3689    0.4141 N   0  0  0  0  0  0  0  0  0  0  0  0
   -2.7116   -2.2617    0.9243 H   0  0  0  0  0  0  0  0  0  0  0  0
   -3.8111   -0.6226    2.4230 H   0  0  0  0  0  0  0  0  0  0  0  0
   -5.0337   -0.8313   -1.2033 H   0  0  0  0  0  0  0  0  0  0  0  0
   -7.4098   -0.1639   -1.7687 H   0  0  0  0  0  0  0  0  0  0  0  0
   -8.9111    0.6660    0.0332 H   0  0  0  0  0  0  0  0  0  0  0  0
   -5.8414    0.1958    2.8184 H   0  0  0  0  0  0  0  0  0  0  0  0
   -2.7609    0.0431   -0.3992 H   0  0  0  0  0  0  0  0  0  0  0  0
   -3.0472    1.1631    0.9632 H   0  0  0  0  0  0  0  0  0  0  0  0
   -1.5845    0.1005    2.3722 H   0  0  0  0  0  0  0  0  0  0  0  0
   -0.5130    1.4198    0.4774 H   0  0  0  0  0  0  0  0  0  0  0  0
    0.4275    0.2559    1.4243 H   0  0  0  0  0  0  0  0  0  0  0  0
   -0.9394   -0.4596   -1.2196 H   0  0  0  0  0  0  0  0  0  0  0  0
   -0.0052   -1.5712   -0.2413 H   0  0  0  0  0  0  0  0  0  0  0  0
    2.7102    0.6813   -3.0511 H   0  0  0  0  0  0  0  0  0  0  0  0
    5.0723    0.9731   -2.8533 H   0  0  0  0  0  0  0  0  0  0  0  0
    4.8657   -0.2420    1.2129 H   0  0  0  0  0  0  0  0  0  0  0  0
    2.5049   -0.5513    1.0149 H   0  0  0  0  0  0  0  0  0  0  0  0
    7.1543    1.2561   -2.7772 H   0  0  0  0  0  0  0  0  0  0  0  0
    9.2614    0.3935    1.3893 H   0  0  0  0  0  0  0  0  0  0  0  0
  1  2  1  0
  2  3  1  0
  3  4  2  0
  4  5  1  0
  5  6  2  0
  6  7  1  0
  7  8  2  0
  2  9  1  0
  9 10  1  0
 10 11  1  0
 11 12  1  0
 12 13  1  0
 13 14  1  0
 14 15  2  0
 15 16  1  0
 16 17  2  0
 17 18  1  0
 18 19  2  0
 17 20  1  0
 20 21  2  0
 21 22  1  0
 22 23  1  0
 23 24  2  0
  8  3  1  0
 19 14  1  0
 24 20  1  0
  1 25  1  0
  2 26  1  1
  4 27  1  0
  5 28  1  0
  6 29  1  0
  8 30  1  0
  9 31  1  0
  9 32  1  0
 10 33  1  0
 11 34  1  0
 11 35  1  0
 12 36  1  0
 12 37  1  0
 15 38  1  0
 16 39  1  0
 18 40  1  0
 19 41  1  0
 21 42  1  0
 23 43  1  0
M  END
>  <Ligand ID>  (1) 
LIG0005972

>  <Ligand>  (1) 
CHEMBL251392

>  <SMILES>  (1) 
O[C@H](c1cccnc1)CNCCOc1ccc(cc1)c1cscn1

>  <CID>  (1) 
10291064.0

>  <ChEMBL ID>  (1) 
nan

>  <InChiKey>  (1) 
ZYUCOCQMSLRKPR-SFHVURJKSA-N

>  <InChi>  (1) 
InChI=1S/C18H19N3O2S/c22-18(15-2-1-7-19-10-15)11-20-8-9-23-16-5-3-14(4-6-16)17-12-24-13-21-17/h1-7,10,12-13,18,20,22H,8-9,11H2/t18-/m0/s1

>  <IUPAC Name>  (1) 
(1R)-1-pyridin-3-yl-2-[2-[4-(1,3-thiazol-4-yl)phenoxy]ethylamino]ethanol

$$$$
