
     RDKit          3D

 67 69  0  0  0  0  0  0  0  0999 V2000
   -2.6343   -1.6129   -2.5605 C   0  0  0  0  0  0  0  0  0  0  0  0
   -3.4284   -1.7192   -1.2741 C   0  0  2  0  0  0  0  0  0  0  0  0
   -4.8173   -1.1879   -1.5248 C   0  0  0  0  0  0  0  0  0  0  0  0
   -5.4717   -0.7107   -0.3275 N   0  0  0  0  0  0  0  0  0  0  0  0
   -4.8677   -1.0861    0.9440 C   0  0  0  0  0  0  0  0  0  0  0  0
   -3.4762   -0.5084    0.9265 C   0  0  0  0  0  0  0  0  0  0  0  0
   -2.7278   -1.0645   -0.2038 N   0  0  0  0  0  0  0  0  0  0  0  0
   -1.3100   -0.9189   -0.1732 C   0  0  0  0  0  0  0  0  0  0  0  0
   -0.7632   -0.2810    0.8858 N   0  0  0  0  0  0  0  0  0  0  0  0
    0.5838   -0.0949    1.0010 C   0  0  0  0  0  0  0  0  0  0  0  0
    1.4336   -0.5634    0.0191 C   0  0  0  0  0  0  0  0  0  0  0  0
    0.8475   -1.2101   -1.0494 C   0  0  0  0  0  0  0  0  0  0  0  0
   -0.4871   -1.3656   -1.1115 N   0  0  0  0  0  0  0  0  0  0  0  0
    2.7998   -0.3734    0.1381 O   0  0  0  0  0  0  0  0  0  0  0  0
    3.7459   -0.8215   -0.8230 C   0  0  0  0  0  0  0  0  0  0  0  0
    5.1032   -0.4194   -0.3205 C   0  0  0  0  0  0  0  0  0  0  0  0
    5.5968    0.8323   -0.6993 C   0  0  0  0  0  0  0  0  0  0  0  0
    6.8333    1.2849   -0.2854 C   0  0  0  0  0  0  0  0  0  0  0  0
    7.5871    0.4515    0.5304 C   0  0  0  0  0  0  0  0  0  0  0  0
    7.0945   -0.7904    0.9047 C   0  0  0  0  0  0  0  0  0  0  0  0
    5.8568   -1.2440    0.4907 C   0  0  0  0  0  0  0  0  0  0  0  0
    9.1568    1.0300    1.0539 S   0  0  0  0  0  0  0  0  0  0  0  0
    9.4618    0.4225    2.3989 O   0  0  0  0  0  0  0  0  0  0  0  0
    9.1844    2.5168    1.2497 O   0  0  0  0  0  0  0  0  0  0  0  0
   10.4202    0.6072   -0.0166 N   0  0  0  0  0  0  0  0  0  0  0  0
   10.6288   -0.7935   -0.1874 C   0  0  0  0  0  0  0  0  0  0  0  0
   10.4440    1.3869   -1.2245 C   0  0  0  0  0  0  0  0  0  0  0  0
   -6.6301    0.0739   -0.4246 C   0  0  0  0  0  0  0  0  0  0  0  0
   -7.0694    0.3413   -1.5724 O   0  0  0  0  0  0  0  0  0  0  0  0
   -7.3208    0.5726    0.6542 O   0  0  0  0  0  0  0  0  0  0  0  0
   -8.4890    1.3633    0.5340 C   0  0  0  0  0  0  0  0  0  0  0  0
   -8.9768    1.7321    1.9178 C   0  0  0  0  0  0  0  0  0  0  0  0
   -8.1902    2.6780   -0.1691 C   0  0  0  0  0  0  0  0  0  0  0  0
   -9.5927    0.6991   -0.2228 C   0  0  0  0  0  0  0  0  0  0  0  0
   -1.9216   -2.4535   -2.6656 H   0  0  0  0  0  0  0  0  0  0  0  0
   -3.3319   -1.7363   -3.4406 H   0  0  0  0  0  0  0  0  0  0  0  0
   -2.1284   -0.6258   -2.6656 H   0  0  0  0  0  0  0  0  0  0  0  0
   -3.4572   -2.8152   -1.0311 H   0  0  0  0  0  0  0  0  0  0  0  0
   -5.4268   -2.0791   -1.8476 H   0  0  0  0  0  0  0  0  0  0  0  0
   -4.8636   -0.4855   -2.3754 H   0  0  0  0  0  0  0  0  0  0  0  0
   -5.4176   -0.7494    1.8214 H   0  0  0  0  0  0  0  0  0  0  0  0
   -4.7379   -2.1936    0.9008 H   0  0  0  0  0  0  0  0  0  0  0  0
   -3.4503    0.5985    0.8848 H   0  0  0  0  0  0  0  0  0  0  0  0
   -3.0071   -0.8459    1.8963 H   0  0  0  0  0  0  0  0  0  0  0  0
    0.9757    0.4263    1.8752 H   0  0  0  0  0  0  0  0  0  0  0  0
    1.5265   -1.5753   -1.8177 H   0  0  0  0  0  0  0  0  0  0  0  0
    3.5758   -0.2925   -1.7740 H   0  0  0  0  0  0  0  0  0  0  0  0
    3.6930   -1.9137   -0.9371 H   0  0  0  0  0  0  0  0  0  0  0  0
    5.0051    1.4715   -1.3320 H   0  0  0  0  0  0  0  0  0  0  0  0
    7.2085    2.2529   -0.5816 H   0  0  0  0  0  0  0  0  0  0  0  0
    7.7322   -1.4073    1.5501 H   0  0  0  0  0  0  0  0  0  0  0  0
    5.4731   -2.2181    0.7857 H   0  0  0  0  0  0  0  0  0  0  0  0
   10.5863   -1.0706   -1.2595 H   0  0  0  0  0  0  0  0  0  0  0  0
   11.6768   -1.0037    0.1733 H   0  0  0  0  0  0  0  0  0  0  0  0
    9.9674   -1.3842    0.4623 H   0  0  0  0  0  0  0  0  0  0  0  0
   11.5171    1.5602   -1.4759 H   0  0  0  0  0  0  0  0  0  0  0  0
   10.0242    2.3920   -0.9771 H   0  0  0  0  0  0  0  0  0  0  0  0
    9.9221    0.9088   -2.0788 H   0  0  0  0  0  0  0  0  0  0  0  0
   -8.1681    1.7981    2.6594 H   0  0  0  0  0  0  0  0  0  0  0  0
   -9.5838    2.6721    1.8772 H   0  0  0  0  0  0  0  0  0  0  0  0
   -9.7166    0.9487    2.2469 H   0  0  0  0  0  0  0  0  0  0  0  0
   -7.8019    2.5430   -1.1921 H   0  0  0  0  0  0  0  0  0  0  0  0
   -7.4952    3.3257    0.4202 H   0  0  0  0  0  0  0  0  0  0  0  0
   -9.1681    3.2023   -0.2475 H   0  0  0  0  0  0  0  0  0  0  0  0
  -10.4348    0.3837    0.4225 H   0  0  0  0  0  0  0  0  0  0  0  0
   -9.2512   -0.2297   -0.7501 H   0  0  0  0  0  0  0  0  0  0  0  0
  -10.0473    1.3694   -1.0024 H   0  0  0  0  0  0  0  0  0  0  0  0
  1  2  1  0
  2  3  1  0
  3  4  1  0
  4  5  1  0
  5  6  1  0
  6  7  1  0
  7  8  1  0
  8  9  2  0
  9 10  1  0
 10 11  2  0
 11 12  1  0
 12 13  2  0
 11 14  1  0
 14 15  1  0
 15 16  1  0
 16 17  2  0
 17 18  1  0
 18 19  2  0
 19 20  1  0
 20 21  2  0
 19 22  1  0
 22 23  2  0
 22 24  2  0
 22 25  1  0
 25 26  1  0
 25 27  1  0
  4 28  1  0
 28 29  2  0
 28 30  1  0
 30 31  1  0
 31 32  1  0
 31 33  1  0
 31 34  1  0
  7  2  1  0
 13  8  1  0
 21 16  1  0
  1 35  1  0
  1 36  1  0
  1 37  1  0
  2 38  1  1
  3 39  1  0
  3 40  1  0
  5 41  1  0
  5 42  1  0
  6 43  1  0
  6 44  1  0
 10 45  1  0
 12 46  1  0
 15 47  1  0
 15 48  1  0
 17 49  1  0
 18 50  1  0
 20 51  1  0
 21 52  1  0
 26 53  1  0
 26 54  1  0
 26 55  1  0
 27 56  1  0
 27 57  1  0
 27 58  1  0
 32 59  1  0
 32 60  1  0
 32 61  1  0
 33 62  1  0
 33 63  1  0
 33 64  1  0
 34 65  1  0
 34 66  1  0
 34 67  1  0
M  END
>  <Ligand ID>  (1) 
LIG0005324

>  <Ligand>  (1) 
CHEMBL2086669

>  <SMILES>  (1) 
C[C@@H]1CN(CCN1c1ncc(cn1)OCc1ccc(cc1)S(=O)(=O)N(C)C)C(=O)OC(C)(C)C

>  <CID>  (1) 
60155364.0

>  <ChEMBL ID>  (1) 
nan

>  <InChiKey>  (1) 
UDHFXHPKMYKCBY-QGZVFWFLSA-N

>  <InChi>  (1) 
InChI=1S/C23H33N5O5S/c1-17-15-27(22(29)33-23(2,3)4)11-12-28(17)21-24-13-19(14-25-21)32-16-18-7-9-20(10-8-18)34(30,31)26(5)6/h7-10,13-14,17H,11-12,15-16H2,1-6H3/t17-/m1/s1

>  <IUPAC Name>  (1) 
tert-butyl (3R)-4-[5-[[4-(dimethylsulfamoyl)phenyl]methoxy]pyrimidin-2-yl]-3-methylpiperazine-1-carboxylate

$$$$
