
     RDKit          3D

 63 65  0  0  0  0  0  0  0  0999 V2000
    9.7024    1.6574   -0.0179 C   0  0  0  0  0  0  0  0  0  0  0  0
    8.3758    1.6037   -0.0697 C   0  0  0  0  0  0  0  0  0  0  0  0
    7.6137    0.7144    0.8370 C   0  0  0  0  0  0  0  0  0  0  0  0
    6.8438   -0.2333    0.1754 O   0  0  0  0  0  0  0  0  0  0  0  0
    5.9166    0.3852   -0.6480 C   0  0  0  0  0  0  0  0  0  0  0  0
    5.0985   -0.6778   -1.3483 C   0  0  0  0  0  0  0  0  0  0  0  0
    4.3521   -1.5691   -0.4131 C   0  0  0  0  0  0  0  0  0  0  0  0
    3.3732   -0.8247    0.4616 C   0  0  2  0  0  0  0  0  0  0  0  0
    2.6805   -1.8146    1.3594 C   0  0  0  0  0  0  0  0  0  0  0  0
    1.5711   -2.5128    0.6265 C   0  0  0  0  0  0  0  0  0  0  0  0
    0.5647   -1.4724    0.2403 C   0  0  0  0  0  0  0  0  0  0  0  0
    1.0398   -0.2582   -0.1734 C   0  0  0  0  0  0  0  0  0  0  0  0
    2.4659    0.1029   -0.2675 C   0  0  0  0  0  0  0  0  0  0  0  0
    0.1126    0.7003   -0.5292 C   0  0  0  0  0  0  0  0  0  0  0  0
   -1.2424    0.4425   -0.4696 C   0  0  0  0  0  0  0  0  0  0  0  0
   -1.7474   -0.7870   -0.0512 C   0  0  0  0  0  0  0  0  0  0  0  0
   -0.7883   -1.7354    0.3018 C   0  0  0  0  0  0  0  0  0  0  0  0
   -3.1905   -1.0477    0.0075 C   0  0  2  0  0  0  0  0  0  0  0  0
   -3.8947   -1.0198   -1.3220 C   0  0  0  0  0  0  0  0  0  0  0  0
   -5.3106   -0.5808   -0.9331 C   0  0  0  0  0  0  0  0  0  0  0  0
   -5.0101    0.4572    0.1147 C   0  0  1  0  0  0  0  0  0  0  0  0
   -3.9580   -0.1828    0.9521 C   0  0  0  0  0  0  0  0  0  0  0  0
   -4.6330    1.7402   -0.4445 N   0  0  0  0  0  0  0  0  0  0  0  0
   -6.3006    0.6980    0.8709 C   0  0  0  0  0  0  0  0  0  0  0  0
   -7.2128    1.1693   -0.0913 O   0  0  0  0  0  0  0  0  0  0  0  0
   -8.7223    1.4951    0.5712 P   0  0  0  0  0  0  0  0  0  0  0  0
   -9.7782    1.3123   -0.5155 O   0  0  0  0  0  0  0  0  0  0  0  0
   -8.7321    3.1302    1.0009 O   0  0  0  0  0  0  0  0  0  0  0  0
   -9.1178    0.4959    1.8531 O   0  0  0  0  0  0  0  0  0  0  0  0
   10.2678    1.0484    0.6935 H   0  0  0  0  0  0  0  0  0  0  0  0
   10.2719    2.2927   -0.6635 H   0  0  0  0  0  0  0  0  0  0  0  0
    7.8629    2.2219   -0.7863 H   0  0  0  0  0  0  0  0  0  0  0  0
    6.9053    1.3072    1.4581 H   0  0  0  0  0  0  0  0  0  0  0  0
    8.2825    0.1516    1.5108 H   0  0  0  0  0  0  0  0  0  0  0  0
    5.3182    1.1443   -0.1411 H   0  0  0  0  0  0  0  0  0  0  0  0
    6.4568    0.9221   -1.4822 H   0  0  0  0  0  0  0  0  0  0  0  0
    5.8538   -1.3297   -1.8655 H   0  0  0  0  0  0  0  0  0  0  0  0
    4.5175   -0.2139   -2.1460 H   0  0  0  0  0  0  0  0  0  0  0  0
    5.0837   -2.0450    0.2549 H   0  0  0  0  0  0  0  0  0  0  0  0
    3.8471   -2.3377   -1.0110 H   0  0  0  0  0  0  0  0  0  0  0  0
    4.0091   -0.1979    1.1534 H   0  0  0  0  0  0  0  0  0  0  0  0
    2.2123   -1.2471    2.1924 H   0  0  0  0  0  0  0  0  0  0  0  0
    3.4452   -2.5168    1.7335 H   0  0  0  0  0  0  0  0  0  0  0  0
    1.0647   -3.2032    1.3301 H   0  0  0  0  0  0  0  0  0  0  0  0
    1.9625   -3.0400   -0.2715 H   0  0  0  0  0  0  0  0  0  0  0  0
    2.5376    1.1591    0.1148 H   0  0  0  0  0  0  0  0  0  0  0  0
    2.6802    0.2073   -1.3600 H   0  0  0  0  0  0  0  0  0  0  0  0
    0.4610    1.6892   -0.8670 H   0  0  0  0  0  0  0  0  0  0  0  0
   -1.8968    1.2481   -0.7659 H   0  0  0  0  0  0  0  0  0  0  0  0
   -1.1314   -2.7042    0.6327 H   0  0  0  0  0  0  0  0  0  0  0  0
   -3.3079   -2.1101    0.3744 H   0  0  0  0  0  0  0  0  0  0  0  0
   -3.9217   -1.9937   -1.8409 H   0  0  0  0  0  0  0  0  0  0  0  0
   -3.5162   -0.2702   -2.0199 H   0  0  0  0  0  0  0  0  0  0  0  0
   -5.8730   -1.3997   -0.4410 H   0  0  0  0  0  0  0  0  0  0  0  0
   -5.8483   -0.1505   -1.7933 H   0  0  0  0  0  0  0  0  0  0  0  0
   -3.3258    0.5382    1.5057 H   0  0  0  0  0  0  0  0  0  0  0  0
   -4.4853   -0.7664    1.7464 H   0  0  0  0  0  0  0  0  0  0  0  0
   -5.1721    1.9250   -1.3204 H   0  0  0  0  0  0  0  0  0  0  0  0
   -4.8077    2.4858    0.2521 H   0  0  0  0  0  0  0  0  0  0  0  0
   -6.6705   -0.1741    1.4135 H   0  0  0  0  0  0  0  0  0  0  0  0
   -6.1451    1.5415    1.5880 H   0  0  0  0  0  0  0  0  0  0  0  0
   -8.2230    3.6157    0.2812 H   0  0  0  0  0  0  0  0  0  0  0  0
   -8.7872    0.8140    2.7295 H   0  0  0  0  0  0  0  0  0  0  0  0
  1  2  2  0
  2  3  1  0
  3  4  1  0
  4  5  1  0
  5  6  1  0
  6  7  1  0
  7  8  1  0
  8  9  1  0
  9 10  1  0
 10 11  1  0
 11 12  2  0
 12 13  1  0
 12 14  1  0
 14 15  2  0
 15 16  1  0
 16 17  2  0
 16 18  1  0
 18 19  1  0
 19 20  1  0
 20 21  1  0
 21 22  1  0
 21 23  1  6
 21 24  1  0
 24 25  1  0
 25 26  1  0
 26 27  2  0
 26 28  1  0
 26 29  1  0
 13  8  1  0
 22 18  1  0
 17 11  1  0
  1 30  1  0
  1 31  1  0
  2 32  1  0
  3 33  1  0
  3 34  1  0
  5 35  1  0
  5 36  1  0
  6 37  1  0
  6 38  1  0
  7 39  1  0
  7 40  1  0
  8 41  1  1
  9 42  1  0
  9 43  1  0
 10 44  1  0
 10 45  1  0
 13 46  1  0
 13 47  1  0
 14 48  1  0
 15 49  1  0
 17 50  1  0
 18 51  1  1
 19 52  1  0
 19 53  1  0
 20 54  1  0
 20 55  1  0
 22 56  1  0
 22 57  1  0
 23 58  1  0
 23 59  1  0
 24 60  1  0
 24 61  1  0
 28 62  1  0
 29 63  1  0
M  END
>  <Ligand ID>  (1) 
LIG0005656

>  <Ligand>  (1) 
BDBM65281

>  <SMILES>  (1) 
C=CCOCCC[C@@H]1CCc2c(C1)ccc(c2)[C@@H]1CC[C@@](C1)(N)COP(=O)(O)O

>  <CID>  (1) 
131953734.0

>  <ChEMBL ID>  (1) 
nan

>  <InChiKey>  (1) 
QHSBWMMACGBXPY-YHYVQYDKSA-N

>  <InChi>  (1) 
InChI=1S/C22H34NO5P/c1-2-11-27-12-3-4-17-5-6-19-14-20(8-7-18(19)13-17)21-9-10-22(23,15-21)16-28-29(24,25)26/h2,7-8,14,17,21H,1,3-6,9-13,15-16,23H2,(H2,24,25,26)/t17-,21-,22+/m1/s1

>  <IUPAC Name>  (1) 
[(1S,3R)-1-amino-3-[(6S)-6-(3-prop-2-enoxypropyl)-5,6,7,8-tetrahydronaphthalen-2-yl]cyclopentyl]methyl dihydrogen phosphate

$$$$
