
     RDKit          3D

140142  0  0  0  0  0  0  0  0999 V2000
   10.8439    2.7458   -2.8011 N   0  0  0  0  0  0  0  0  0  0  0  0
    9.7622    2.2943   -1.9127 C   0  0  0  0  0  0  0  0  0  0  0  0
   10.3118    2.2427   -0.4893 C   0  0  0  0  0  0  0  0  0  0  0  0
    9.2631    1.7998    0.4884 C   0  0  0  0  0  0  0  0  0  0  0  0
    8.7407    0.4554    0.1474 C   0  0  1  0  0  0  0  0  0  0  0  0
    9.7859   -0.5715    0.1700 C   0  0  0  0  0  0  0  0  0  0  0  0
   10.8479   -0.5722   -0.4857 O   0  0  0  0  0  0  0  0  0  0  0  0
    9.6071   -1.7255    1.0326 N   0  0  0  0  0  0  0  0  0  0  0  0
   10.6818   -2.6915    0.9989 C   0  0  0  0  0  0  0  0  0  0  0  0
   11.9896   -2.1336    1.4219 C   0  0  0  0  0  0  0  0  0  0  0  0
   12.9728   -2.8977    1.4156 O   0  0  0  0  0  0  0  0  0  0  0  0
   12.1494   -0.7773    1.8280 N   0  0  0  0  0  0  0  0  0  0  0  0
    7.6333    0.0678    1.0176 N   0  0  0  0  0  0  0  0  0  0  0  0
    6.3425   -0.1802    0.4695 C   0  0  0  0  0  0  0  0  0  0  0  0
    6.1291   -0.0833   -0.7770 O   0  0  0  0  0  0  0  0  0  0  0  0
    5.2207   -0.5531    1.3364 C   0  0  2  0  0  0  0  0  0  0  0  0
    5.4637   -1.8885    1.9681 C   0  0  0  0  0  0  0  0  0  0  0  0
    5.0423   -2.8323    0.8714 C   0  0  0  0  0  0  0  0  0  0  0  0
    3.8567   -2.1885    0.2055 C   0  0  0  0  0  0  0  0  0  0  0  0
    3.9910   -0.7978    0.5619 N   0  0  0  0  0  0  0  0  0  0  0  0
    3.1124    0.2956    0.2819 C   0  0  0  0  0  0  0  0  0  0  0  0
    3.4325    1.4967    0.6388 O   0  0  0  0  0  0  0  0  0  0  0  0
    1.8060    0.2029   -0.4036 C   0  0  2  0  0  0  0  0  0  0  0  0
    1.7771   -0.5734   -1.6819 C   0  0  0  0  0  0  0  0  0  0  0  0
    0.0877   -0.5676   -2.4377 S   0  0  0  0  0  0  0  0  0  0  0  0
   -1.2796   -1.5456   -1.1946 S   0  0  0  0  0  0  0  0  0  0  0  0
   -1.4445   -3.2792   -1.4694 C   0  0  0  0  0  0  0  0  0  0  0  0
   -2.0655   -3.7587   -2.7213 C   0  0  2  0  0  0  0  0  0  0  0  0
   -1.3238   -3.3857   -3.8805 N   0  0  0  0  0  0  0  0  0  0  0  0
   -3.5247   -3.4689   -2.8592 C   0  0  0  0  0  0  0  0  0  0  0  0
   -4.0671   -3.2280   -3.9541 O   0  0  0  0  0  0  0  0  0  0  0  0
   -4.4159   -3.4412   -1.7461 N   0  0  0  0  0  0  0  0  0  0  0  0
   -5.8576   -3.1299   -1.9095 C   0  0  1  0  0  0  0  0  0  0  0  0
   -6.6128   -3.6349   -0.7299 C   0  0  0  0  0  0  0  0  0  0  0  0
   -6.5161   -5.0881   -0.5112 C   0  0  0  0  0  0  0  0  0  0  0  0
   -7.4550   -5.8958   -1.1471 C   0  0  0  0  0  0  0  0  0  0  0  0
   -7.4300   -7.2683   -0.9886 C   0  0  0  0  0  0  0  0  0  0  0  0
   -6.4623   -7.8776   -0.1871 C   0  0  0  0  0  0  0  0  0  0  0  0
   -5.5278   -7.0920    0.4479 C   0  0  0  0  0  0  0  0  0  0  0  0
   -5.5803   -5.7093    0.2675 C   0  0  0  0  0  0  0  0  0  0  0  0
   -5.8505   -1.6386   -1.8961 C   0  0  0  0  0  0  0  0  0  0  0  0
   -4.7248   -1.0986   -1.9278 O   0  0  0  0  0  0  0  0  0  0  0  0
   -6.9564   -0.7585   -1.8456 N   0  0  0  0  0  0  0  0  0  0  0  0
   -6.5917    0.6599   -1.9341 C   0  0  2  0  0  0  0  0  0  0  0  0
   -5.9754    1.0845   -0.6311 C   0  0  0  0  0  0  0  0  0  0  0  0
   -6.3252    0.5407    0.3971 O   0  0  0  0  0  0  0  0  0  0  0  0
   -5.0037    2.0769   -0.6170 N   0  0  0  0  0  0  0  0  0  0  0  0
   -4.2511    2.5812    0.5609 C   0  0  2  0  0  0  0  0  0  0  0  0
   -2.8832    2.8391    0.1226 C   0  0  0  0  0  0  0  0  0  0  0  0
   -2.6557    2.5061   -1.1064 O   0  0  0  0  0  0  0  0  0  0  0  0
   -1.7700    3.3771    0.7668 N   0  0  0  0  0  0  0  0  0  0  0  0
   -0.4962    3.3767    0.0040 C   0  0  2  0  0  0  0  0  0  0  0  0
    0.0791    1.9729    0.1441 C   0  0  0  0  0  0  0  0  0  0  0  0
   -0.4510    1.1113    0.8534 O   0  0  0  0  0  0  0  0  0  0  0  0
    1.2621    1.5708   -0.5392 N   0  0  0  0  0  0  0  0  0  0  0  0
    0.4229    4.4415    0.4358 C   0  0  0  0  0  0  0  0  0  0  0  0
    0.7817    4.2956    1.8789 C   0  0  0  0  0  0  0  0  0  0  0  0
    1.4945    3.3260    2.2183 O   0  0  0  0  0  0  0  0  0  0  0  0
    0.2964    5.2705    2.8204 N   0  0  0  0  0  0  0  0  0  0  0  0
   -4.4002    1.5871    1.6924 C   0  0  0  0  0  0  0  0  0  0  0  0
   -3.6375    1.9585    2.9324 C   0  0  0  0  0  0  0  0  0  0  0  0
   -4.0017    3.2610    3.5276 C   0  0  0  0  0  0  0  0  0  0  0  0
   -4.9279    4.0037    3.0464 O   0  0  0  0  0  0  0  0  0  0  0  0
   -3.3415    3.7756    4.6772 N   0  0  0  0  0  0  0  0  0  0  0  0
   -2.3527    3.1046    5.3287 O   0  0  0  0  0  0  0  0  0  0  0  0
   -2.8831    2.3575    6.3691 C   0  0  0  0  0  0  0  0  0  0  0  0
   -3.7077    5.0817    5.2146 C   0  0  0  0  0  0  0  0  0  0  0  0
   -7.6765    1.5484   -2.3361 C   0  0  2  0  0  0  0  0  0  0  0  0
   -8.2656    1.2401   -3.6973 C   0  0  0  0  0  0  0  0  0  0  0  0
   -7.2782    1.3234   -4.8200 C   0  0  0  0  0  0  0  0  0  0  0  0
   -7.3147    3.0164   -2.3593 C   0  0  0  0  0  0  0  0  0  0  0  0
   10.5475    2.6865   -3.7896 H   0  0  0  0  0  0  0  0  0  0  0  0
   11.7189    2.2067   -2.6534 H   0  0  0  0  0  0  0  0  0  0  0  0
    9.5209    1.2629   -2.2783 H   0  0  0  0  0  0  0  0  0  0  0  0
    8.9262    2.9906   -2.0223 H   0  0  0  0  0  0  0  0  0  0  0  0
   11.2320    1.6416   -0.5093 H   0  0  0  0  0  0  0  0  0  0  0  0
   10.6417    3.2993   -0.2717 H   0  0  0  0  0  0  0  0  0  0  0  0
    9.7236    1.8590    1.5006 H   0  0  0  0  0  0  0  0  0  0  0  0
    8.4488    2.5758    0.4363 H   0  0  0  0  0  0  0  0  0  0  0  0
    8.2706    0.5244   -0.8745 H   0  0  0  0  0  0  0  0  0  0  0  0
    8.7781   -1.8535    1.6259 H   0  0  0  0  0  0  0  0  0  0  0  0
   10.7715   -3.0633   -0.0495 H   0  0  0  0  0  0  0  0  0  0  0  0
   10.4650   -3.5505    1.6685 H   0  0  0  0  0  0  0  0  0  0  0  0
   11.5824   -0.3200    2.5656 H   0  0  0  0  0  0  0  0  0  0  0  0
   12.8949   -0.2368    1.3303 H   0  0  0  0  0  0  0  0  0  0  0  0
    7.7395   -0.0397    2.0494 H   0  0  0  0  0  0  0  0  0  0  0  0
    5.0105    0.2369    2.1084 H   0  0  0  0  0  0  0  0  0  0  0  0
    4.7888   -1.9693    2.8524 H   0  0  0  0  0  0  0  0  0  0  0  0
    6.5062   -2.0663    2.2977 H   0  0  0  0  0  0  0  0  0  0  0  0
    5.9078   -2.9596    0.1805 H   0  0  0  0  0  0  0  0  0  0  0  0
    4.7913   -3.8011    1.3401 H   0  0  0  0  0  0  0  0  0  0  0  0
    2.8993   -2.6460    0.4943 H   0  0  0  0  0  0  0  0  0  0  0  0
    4.0011   -2.3804   -0.8847 H   0  0  0  0  0  0  0  0  0  0  0  0
    1.0665   -0.3092    0.2697 H   0  0  0  0  0  0  0  0  0  0  0  0
    1.8984   -1.6468   -1.3990 H   0  0  0  0  0  0  0  0  0  0  0  0
    2.4442   -0.2239   -2.4720 H   0  0  0  0  0  0  0  0  0  0  0  0
   -2.0108   -3.7342   -0.5965 H   0  0  0  0  0  0  0  0  0  0  0  0
   -0.4494   -3.8227   -1.3969 H   0  0  0  0  0  0  0  0  0  0  0  0
   -2.0220   -4.8858   -2.6783 H   0  0  0  0  0  0  0  0  0  0  0  0
   -1.7917   -3.6815   -4.7691 H   0  0  0  0  0  0  0  0  0  0  0  0
   -1.2624   -2.3326   -3.9524 H   0  0  0  0  0  0  0  0  0  0  0  0
   -3.9937   -3.6452   -0.8433 H   0  0  0  0  0  0  0  0  0  0  0  0
   -6.2052   -3.4870   -2.9027 H   0  0  0  0  0  0  0  0  0  0  0  0
   -7.7077   -3.4045   -0.7884 H   0  0  0  0  0  0  0  0  0  0  0  0
   -6.2964   -3.1041    0.2166 H   0  0  0  0  0  0  0  0  0  0  0  0
   -8.2380   -5.4650   -1.7895 H   0  0  0  0  0  0  0  0  0  0  0  0
   -8.1737   -7.8784   -1.4953 H   0  0  0  0  0  0  0  0  0  0  0  0
   -6.4156   -8.9468   -0.0460 H   0  0  0  0  0  0  0  0  0  0  0  0
   -4.7633   -7.5187    1.0726 H   0  0  0  0  0  0  0  0  0  0  0  0
   -4.8412   -5.1373    0.7788 H   0  0  0  0  0  0  0  0  0  0  0  0
   -7.8716   -1.1495   -1.7578 H   0  0  0  0  0  0  0  0  0  0  0  0
   -5.7386    0.7057   -2.6457 H   0  0  0  0  0  0  0  0  0  0  0  0
   -4.7614    2.5242   -1.5039 H   0  0  0  0  0  0  0  0  0  0  0  0
   -4.7951    3.4592    0.8804 H   0  0  0  0  0  0  0  0  0  0  0  0
   -1.8573    3.7615    1.6903 H   0  0  0  0  0  0  0  0  0  0  0  0
   -0.7365    3.4229   -1.0714 H   0  0  0  0  0  0  0  0  0  0  0  0
    1.6961    2.2923   -1.1180 H   0  0  0  0  0  0  0  0  0  0  0  0
    1.4058    4.3319   -0.1049 H   0  0  0  0  0  0  0  0  0  0  0  0
    0.0193    5.4513    0.2866 H   0  0  0  0  0  0  0  0  0  0  0  0
    0.1794    4.9576    3.8094 H   0  0  0  0  0  0  0  0  0  0  0  0
    0.0774    6.2508    2.4946 H   0  0  0  0  0  0  0  0  0  0  0  0
   -4.1312    0.5577    1.3994 H   0  0  0  0  0  0  0  0  0  0  0  0
   -5.4836    1.6638    2.0308 H   0  0  0  0  0  0  0  0  0  0  0  0
   -2.5360    1.9237    2.8115 H   0  0  0  0  0  0  0  0  0  0  0  0
   -3.9103    1.2100    3.7631 H   0  0  0  0  0  0  0  0  0  0  0  0
   -3.6126    3.0136    6.9274 H   0  0  0  0  0  0  0  0  0  0  0  0
   -3.4468    1.4605    6.0592 H   0  0  0  0  0  0  0  0  0  0  0  0
   -2.1174    1.9996    7.0880 H   0  0  0  0  0  0  0  0  0  0  0  0
   -3.1123    5.3213    6.1032 H   0  0  0  0  0  0  0  0  0  0  0  0
   -3.5549    5.8387    4.4290 H   0  0  0  0  0  0  0  0  0  0  0  0
   -4.7923    5.1067    5.4789 H   0  0  0  0  0  0  0  0  0  0  0  0
   -8.5530    1.4707   -1.6291 H   0  0  0  0  0  0  0  0  0  0  0  0
   -8.9007    0.3408   -3.7170 H   0  0  0  0  0  0  0  0  0  0  0  0
   -8.9942    2.0876   -3.8768 H   0  0  0  0  0  0  0  0  0  0  0  0
   -7.2461    2.3497   -5.2816 H   0  0  0  0  0  0  0  0  0  0  0  0
   -7.6897    0.6753   -5.6517 H   0  0  0  0  0  0  0  0  0  0  0  0
   -6.2446    1.0881   -4.5727 H   0  0  0  0  0  0  0  0  0  0  0  0
   -6.4686    3.1190   -3.0789 H   0  0  0  0  0  0  0  0  0  0  0  0
   -8.1455    3.6418   -2.7490 H   0  0  0  0  0  0  0  0  0  0  0  0
   -6.9850    3.3935   -1.3805 H   0  0  0  0  0  0  0  0  0  0  0  0
  1  2  1  0
  2  3  1  0
  3  4  1  0
  4  5  1  0
  5  6  1  0
  6  7  2  0
  6  8  1  0
  8  9  1  0
  9 10  1  0
 10 11  2  0
 10 12  1  0
  5 13  1  0
 13 14  1  0
 14 15  2  0
 14 16  1  0
 16 17  1  0
 17 18  1  0
 18 19  1  0
 19 20  1  0
 20 21  1  0
 21 22  2  0
 21 23  1  0
 23 24  1  0
 24 25  1  0
 25 26  1  0
 26 27  1  0
 27 28  1  0
 28 29  1  0
 28 30  1  0
 30 31  2  0
 30 32  1  0
 32 33  1  0
 33 34  1  0
 34 35  1  0
 35 36  2  0
 36 37  1  0
 37 38  2  0
 38 39  1  0
 39 40  2  0
 33 41  1  0
 41 42  2  0
 41 43  1  0
 43 44  1  0
 44 45  1  0
 45 46  2  0
 45 47  1  0
 47 48  1  0
 48 49  1  0
 49 50  2  0
 49 51  1  0
 51 52  1  0
 52 53  1  0
 53 54  2  0
 53 55  1  0
 52 56  1  0
 56 57  1  0
 57 58  2  0
 57 59  1  0
 48 60  1  0
 60 61  1  0
 61 62  1  0
 62 63  2  0
 62 64  1  0
 64 65  1  0
 65 66  1  0
 64 67  1  0
 44 68  1  0
 68 69  1  0
 69 70  1  0
 68 71  1  0
 20 16  1  0
 55 23  1  0
 40 35  1  0
  1 72  1  0
  1 73  1  0
  2 74  1  0
  2 75  1  0
  3 76  1  0
  3 77  1  0
  4 78  1  0
  4 79  1  0
  5 80  1  6
  8 81  1  0
  9 82  1  0
  9 83  1  0
 12 84  1  0
 12 85  1  0
 13 86  1  0
 16 87  1  1
 17 88  1  0
 17 89  1  0
 18 90  1  0
 18 91  1  0
 19 92  1  0
 19 93  1  0
 23 94  1  1
 24 95  1  0
 24 96  1  0
 27 97  1  0
 27 98  1  0
 28 99  1  1
 29100  1  0
 29101  1  0
 32102  1  0
 33103  1  6
 34104  1  0
 34105  1  0
 36106  1  0
 37107  1  0
 38108  1  0
 39109  1  0
 40110  1  0
 43111  1  0
 44112  1  6
 47113  1  0
 48114  1  1
 51115  1  0
 52116  1  6
 55117  1  0
 56118  1  0
 56119  1  0
 59120  1  0
 59121  1  0
 60122  1  0
 60123  1  0
 61124  1  0
 61125  1  0
 66126  1  0
 66127  1  0
 66128  1  0
 67129  1  0
 67130  1  0
 67131  1  0
 68132  1  1
 69133  1  0
 69134  1  0
 70135  1  0
 70136  1  0
 70137  1  0
 71138  1  0
 71139  1  0
 71140  1  0
M  END
>  <Ligand ID>  (1) 
LIG0001594

>  <Ligand>  (1) 
CHEMBL1817690

>  <SMILES>  (1) 
NCCC[C@@H](C(=O)NCC(=O)N)NC(=O)[C@@H]1CCCN1C(=O)[C@@H]1CSSC[C@H](N)C(=O)N[C@@H](Cc2ccccc2)C(=O)N[C@H](C(=O)N[C@H](C(=O)N[C@H](C(=O)N1)CC(=O)N)CCC(=O)N(OC)C)[C@H](CC)C

>  <CID>  (1) 
53362156.0

>  <ChEMBL ID>  (1) 
nan

>  <InChiKey>  (1) 
AMZPRFFYULYJOF-PFCVTPPASA-N

>  <InChi>  (1) 
InChI=1S/C44H69N13O12S2/c1-5-24(2)36-43(67)51-28(15-16-35(60)56(3)69-4)39(63)53-30(20-33(47)58)40(64)54-31(23-71-70-22-26(46)37(61)52-29(41(65)55-36)19-25-11-7-6-8-12-25)44(68)57-18-10-14-32(57)42(66)50-27(13-9-17-45)38(62)49-21-34(48)59/h6-8,11-12,24,26-32,36H,5,9-10,13-23,45-46H2,1-4H3,(H2,47,58)(H2,48,59)(H,49,62)(H,50,66)(H,51,67)(H,52,61)(H,53,63)(H,54,64)(H,55,65)/t24-,26-,27-,28-,29-,30-,31-,32-,36-/m0/s1

>  <IUPAC Name>  (1) 
(2S)-N-[(2S)-5-amino-1-[(2-amino-2-oxoethyl)amino]-1-oxopentan-2-yl]-1-[(4R,7S,10S,13S,16S,19R)-19-amino-7-(2-amino-2-oxoethyl)-16-benzyl-13-[(2S)-butan-2-yl]-10-[3-[methoxy(methyl)amino]-3-oxopropyl]-6,9,12,15,18-pentaoxo-1,2-dithia-5,8,11,14,17-pentazacycloicosane-4-carbonyl]pyrrolidine-2-carboxamide

$$$$
