
     RDKit          3D

 69 75  0  0  0  0  0  0  0  0999 V2000
    2.7479   -3.3729    0.0688 O   0  0  0  0  0  0  0  0  0  0  0  0
    3.1840   -2.2154   -0.2739 C   0  0  0  0  0  0  0  0  0  0  0  0
    2.2576   -1.1647   -0.2079 N   0  0  0  0  0  0  0  0  0  0  0  0
    0.8746   -1.3300    0.2328 C   0  0  2  0  0  0  0  0  0  0  0  0
    0.0729   -1.9871   -0.9317 C   0  0  0  0  0  0  0  0  0  0  0  0
   -1.2996   -2.2812   -0.2905 C   0  0  0  0  0  0  0  0  0  0  0  0
   -1.9559   -0.9343   -0.2398 C   0  0  2  0  0  0  0  0  0  0  0  0
   -1.2269   -0.0657    0.7138 C   0  0  2  0  0  0  0  0  0  0  0  0
    0.2735   -0.0627    0.6494 C   0  0  1  0  0  0  0  0  0  0  0  0
    0.5653    0.1955    2.0368 O   0  0  0  0  0  0  0  0  0  0  0  0
   -0.3932   -0.3893    2.8512 C   0  0  0  0  0  0  0  0  0  0  0  0
   -1.4900   -0.6023    2.0681 C   0  0  0  0  0  0  0  0  0  0  0  0
   -2.6673   -1.1598    2.4211 C   0  0  0  0  0  0  0  0  0  0  0  0
   -3.7411   -1.3712    1.4412 C   0  0  0  0  0  0  0  0  0  0  0  0
   -3.4126   -0.8882    0.1093 C   0  0  1  0  0  0  0  0  0  0  0  0
   -3.8865    0.4301   -0.2582 N   0  0  0  0  0  0  0  0  0  0  0  0
   -2.9127    1.4511   -0.3225 C   0  0  0  0  0  0  0  0  0  0  0  0
   -1.7346    1.3374    0.5930 C   0  0  0  0  0  0  0  0  0  0  0  0
   -4.9862    0.4756   -1.1192 C   0  0  0  0  0  0  0  0  0  0  0  0
   -5.3129    1.8642   -1.5901 C   0  0  0  0  0  0  0  0  0  0  0  0
   -5.6719    2.9833   -0.6764 C   0  0  0  0  0  0  0  0  0  0  0  0
   -6.7802    2.3118   -1.4517 C   0  0  0  0  0  0  0  0  0  0  0  0
   -2.7672   -1.5640    3.7639 C   0  0  0  0  0  0  0  0  0  0  0  0
   -1.6759   -1.3708    4.6277 C   0  0  0  0  0  0  0  0  0  0  0  0
   -0.4925   -0.7858    4.1746 C   0  0  0  0  0  0  0  0  0  0  0  0
    0.6004   -0.5812    4.9992 O   0  0  0  0  0  0  0  0  0  0  0  0
   -1.7694   -0.4015   -1.5565 O   0  0  0  0  0  0  0  0  0  0  0  0
    4.5798   -2.1359   -0.6946 C   0  0  0  0  0  0  0  0  0  0  0  0
    5.0723   -0.8031   -0.9464 N   0  0  0  0  0  0  0  0  0  0  0  0
    6.3997   -0.5470   -1.4313 C   0  0  0  0  0  0  0  0  0  0  0  0
    7.0884   -1.5943   -1.6434 O   0  0  0  0  0  0  0  0  0  0  0  0
    6.9055    0.7953   -1.6539 C   0  0  0  0  0  0  0  0  0  0  0  0
    8.0782    0.9866   -2.3439 C   0  0  0  0  0  0  0  0  0  0  0  0
    8.5533    2.2697   -2.5200 C   0  0  0  0  0  0  0  0  0  0  0  0
    7.8908    3.3578   -2.0279 N   0  0  0  0  0  0  0  0  0  0  0  0
    6.7305    3.1951   -1.3420 C   0  0  0  0  0  0  0  0  0  0  0  0
    6.2484    1.9056   -1.1632 C   0  0  0  0  0  0  0  0  0  0  0  0
    2.5210   -0.1906   -0.4849 H   0  0  0  0  0  0  0  0  0  0  0  0
    0.8370   -2.1127    1.0029 H   0  0  0  0  0  0  0  0  0  0  0  0
   -0.0636   -1.2005   -1.6634 H   0  0  0  0  0  0  0  0  0  0  0  0
    0.6085   -2.8781   -1.2230 H   0  0  0  0  0  0  0  0  0  0  0  0
   -1.8723   -3.0256   -0.8790 H   0  0  0  0  0  0  0  0  0  0  0  0
   -1.0542   -2.7062    0.7048 H   0  0  0  0  0  0  0  0  0  0  0  0
    0.6911    0.7813    0.0559 H   0  0  0  0  0  0  0  0  0  0  0  0
   -3.9230   -2.5038    1.3553 H   0  0  0  0  0  0  0  0  0  0  0  0
   -4.7426   -1.0398    1.8287 H   0  0  0  0  0  0  0  0  0  0  0  0
   -3.9306   -1.5752   -0.6484 H   0  0  0  0  0  0  0  0  0  0  0  0
   -2.6296    1.7246   -1.3789 H   0  0  0  0  0  0  0  0  0  0  0  0
   -3.4308    2.4039    0.0179 H   0  0  0  0  0  0  0  0  0  0  0  0
   -1.9218    1.8086    1.5854 H   0  0  0  0  0  0  0  0  0  0  0  0
   -0.9040    1.9575    0.1448 H   0  0  0  0  0  0  0  0  0  0  0  0
   -5.8898    0.1081   -0.5457 H   0  0  0  0  0  0  0  0  0  0  0  0
   -4.9555   -0.1765   -2.0091 H   0  0  0  0  0  0  0  0  0  0  0  0
   -4.8110    2.1850   -2.5480 H   0  0  0  0  0  0  0  0  0  0  0  0
   -5.6771    2.8965    0.4239 H   0  0  0  0  0  0  0  0  0  0  0  0
   -5.4503    4.0189   -1.0435 H   0  0  0  0  0  0  0  0  0  0  0  0
   -7.4710    1.6367   -0.9315 H   0  0  0  0  0  0  0  0  0  0  0  0
   -7.2071    2.8305   -2.3541 H   0  0  0  0  0  0  0  0  0  0  0  0
   -3.6869   -2.0147    4.0997 H   0  0  0  0  0  0  0  0  0  0  0  0
   -1.7559   -1.6886    5.6798 H   0  0  0  0  0  0  0  0  0  0  0  0
    1.1487    0.2794    4.8295 H   0  0  0  0  0  0  0  0  0  0  0  0
   -2.4596   -0.7654   -2.1726 H   0  0  0  0  0  0  0  0  0  0  0  0
    5.2330   -2.6185    0.0664 H   0  0  0  0  0  0  0  0  0  0  0  0
    4.7449   -2.6960   -1.6569 H   0  0  0  0  0  0  0  0  0  0  0  0
    4.4782    0.0312   -0.7742 H   0  0  0  0  0  0  0  0  0  0  0  0
    8.6492    0.1713   -2.7522 H   0  0  0  0  0  0  0  0  0  0  0  0
    9.4812    2.4960   -3.0577 H   0  0  0  0  0  0  0  0  0  0  0  0
    6.1855    4.0664   -0.9322 H   0  0  0  0  0  0  0  0  0  0  0  0
    5.3120    1.8457   -0.6078 H   0  0  0  0  0  0  0  0  0  0  0  0
  1  2  2  0
  2  3  1  0
  3  4  1  0
  4  5  1  0
  5  6  1  0
  6  7  1  0
  7  8  1  0
  8  9  1  0
  9 10  1  0
 10 11  1  0
 11 12  2  0
 12 13  1  0
 13 14  1  0
 14 15  1  0
 15 16  1  0
 16 17  1  0
 17 18  1  0
 16 19  1  0
 19 20  1  0
 20 21  1  0
 21 22  1  0
 13 23  2  0
 23 24  1  0
 24 25  2  0
 25 26  1  0
  7 27  1  6
  2 28  1  0
 28 29  1  0
 29 30  1  0
 30 31  2  0
 30 32  1  0
 32 33  2  0
 33 34  1  0
 34 35  2  0
 35 36  1  0
 36 37  2  0
  9  4  1  0
 25 11  1  0
 37 32  1  0
 15  7  1  0
 22 20  1  0
  8 18  1  1
 12  8  1  0
  3 38  1  0
  4 39  1  1
  5 40  1  0
  5 41  1  0
  6 42  1  0
  6 43  1  0
  9 44  1  6
 14 45  1  0
 14 46  1  0
 15 47  1  6
 17 48  1  0
 17 49  1  0
 18 50  1  0
 18 51  1  0
 19 52  1  0
 19 53  1  0
 20 54  1  0
 21 55  1  0
 21 56  1  0
 22 57  1  0
 22 58  1  0
 23 59  1  0
 24 60  1  0
 26 61  1  0
 27 62  1  0
 28 63  1  0
 28 64  1  0
 29 65  1  0
 33 66  1  0
 34 67  1  0
 36 68  1  0
 37 69  1  0
M  END
>  <Ligand ID>  (1) 
LIG0002882

>  <Ligand>  (1) 
CHEMBL1852458

>  <SMILES>  (1) 
O=C(N[C@@H]1CC[C@@]2([C@@]34[C@H]1Oc1c4c(C[C@H]2N(CC3)CC2CC2)ccc1O)O)CNC(=O)c1ccncc1

>  <CID>  (1) 
53388316.0

>  <ChEMBL ID>  (1) 
nan

>  <InChiKey>  (1) 
XTUCGYCEOQKVGI-UMZWJABMSA-N

>  <InChi>  (1) 
InChI=1S/C28H32N4O5/c33-20-4-3-18-13-21-28(36)8-5-19(31-22(34)14-30-26(35)17-6-10-29-11-7-17)25-27(28,23(18)24(20)37-25)9-12-32(21)15-16-1-2-16/h3-4,6-7,10-11,16,19,21,25,33,36H,1-2,5,8-9,12-15H2,(H,30,35)(H,31,34)/t19-,21-,25+,27+,28-/m1/s1

>  <IUPAC Name>  (1) 
N-[2-[[(4R,4aS,7R,7aR,12bS)-3-(cyclopropylmethyl)-4a,9-dihydroxy-1,2,4,5,6,7,7a,13-octahydro-4,12-methanobenzofuro[3,2-e]isoquinolin-7-yl]amino]-2-oxoethyl]pyridine-4-carboxamide

$$$$
