
     RDKit          3D

 17 16  0  0  0  0  0  0  0  0999 V2000
   -1.1773   -1.0784    0.3612 C   0  0  0  0  0  0  0  0  0  0  0  0
   -0.5917    0.1076   -0.3163 C   0  0  0  0  0  0  0  0  0  0  0  0
    0.7810    0.4758    0.1314 C   0  0  0  0  0  0  0  0  0  0  0  0
    1.7908   -0.5846   -0.0748 C   0  0  0  0  0  0  0  0  0  0  0  0
    1.5007   -1.6943   -0.5846 O   0  0  0  0  0  0  0  0  0  0  0  0
    3.0936   -0.3081    0.3209 O   0  0  0  0  0  0  0  0  0  0  0  0
   -1.4871    1.3070    0.0215 C   0  0  0  0  0  0  0  0  0  0  0  0
   -0.5808   -1.4808    1.1813 H   0  0  0  0  0  0  0  0  0  0  0  0
   -1.3163   -1.8587   -0.4443 H   0  0  0  0  0  0  0  0  0  0  0  0
   -2.1949   -0.8789    0.7922 H   0  0  0  0  0  0  0  0  0  0  0  0
   -0.5776    0.0354   -1.4284 H   0  0  0  0  0  0  0  0  0  0  0  0
    0.7533    0.7342    1.1927 H   0  0  0  0  0  0  0  0  0  0  0  0
    1.1267    1.3401   -0.4607 H   0  0  0  0  0  0  0  0  0  0  0  0
    3.8646   -0.9452    0.1555 H   0  0  0  0  0  0  0  0  0  0  0  0
   -1.7025    1.2704    1.1141 H   0  0  0  0  0  0  0  0  0  0  0  0
   -0.8833    2.2355   -0.1618 H   0  0  0  0  0  0  0  0  0  0  0  0
   -2.3990    1.3231   -0.5950 H   0  0  0  0  0  0  0  0  0  0  0  0
  1  2  1  0
  2  3  1  0
  3  4  1  0
  4  5  2  0
  4  6  1  0
  2  7  1  0
  1  8  1  0
  1  9  1  0
  1 10  1  0
  2 11  1  0
  3 12  1  0
  3 13  1  0
  6 14  1  0
  7 15  1  0
  7 16  1  0
  7 17  1  0
M  END
>  <Ligand ID>  (1) 
LIG0000022

>  <Ligand>  (1) 
isovaleric acid

>  <SMILES>  (1) 
CC(CC(=O)O)C

>  <CID>  (1) 
10430.0

>  <ChEMBL ID>  (1) 
nan

>  <InChiKey>  (1) 
GWYFCOCPABKNJV-UHFFFAOYSA-N

>  <InChi>  (1) 
InChI=1S/C5H10O2/c1-4(2)3-5(6)7/h4H,3H2,1-2H3,(H,6,7)

>  <IUPAC Name>  (1) 
3-methylbutanoic acid

$$$$
