
     RDKit          3D

 47 49  0  0  0  0  0  0  0  0999 V2000
    6.8699   -1.1677   -1.0150 C   0  0  0  0  0  0  0  0  0  0  0  0
    6.4869    0.2522   -0.7352 C   0  0  0  0  0  0  0  0  0  0  0  0
    5.1699    0.2496   -0.0211 C   0  0  0  0  0  0  0  0  0  0  0  0
    5.1399    0.2092    1.3739 C   0  0  0  0  0  0  0  0  0  0  0  0
    3.9341    0.2052    2.0425 C   0  0  0  0  0  0  0  0  0  0  0  0
    2.7273    0.2408    1.3428 C   0  0  0  0  0  0  0  0  0  0  0  0
    2.7413    0.2812   -0.0519 C   0  0  0  0  0  0  0  0  0  0  0  0
    3.9684    0.2853   -0.7196 C   0  0  0  0  0  0  0  0  0  0  0  0
    1.4929    0.2421    2.0483 N   0  0  0  0  0  0  0  0  0  0  0  0
    0.2263    0.1738    1.4275 C   0  0  0  0  0  0  0  0  0  0  0  0
   -0.6001   -1.5187    1.1870 S   0  0  0  0  0  0  0  0  0  0  0  0
   -2.0575   -0.7356    0.3815 C   0  0  0  0  0  0  0  0  0  0  0  0
   -1.7514    0.5292    0.4094 N   0  0  0  0  0  0  0  0  0  0  0  0
   -0.6062    0.8511    0.9460 N   0  0  0  0  0  0  0  0  0  0  0  0
   -2.6205    1.6176   -0.0367 C   0  0  0  0  0  0  0  0  0  0  0  0
   -2.1595    2.5048   -1.0166 C   0  0  0  0  0  0  0  0  0  0  0  0
   -2.9369    3.5518   -1.4144 C   0  0  0  0  0  0  0  0  0  0  0  0
   -4.1775    3.7368   -0.8515 C   0  0  0  0  0  0  0  0  0  0  0  0
   -4.6119    2.8664    0.1001 C   0  0  0  0  0  0  0  0  0  0  0  0
   -3.8749    1.7819    0.5515 C   0  0  0  0  0  0  0  0  0  0  0  0
   -3.1268   -1.5918    0.0033 C   0  0  0  0  0  0  0  0  0  0  0  0
   -3.3090   -2.7695    0.7540 C   0  0  0  0  0  0  0  0  0  0  0  0
   -2.2865   -3.1107    2.1497 Cl  0  0  0  0  0  0  0  0  0  0  0  0
   -4.2721   -3.6947    0.4574 C   0  0  0  0  0  0  0  0  0  0  0  0
   -5.1174   -3.5268   -0.5922 C   0  0  0  0  0  0  0  0  0  0  0  0
   -4.9793   -2.3953   -1.3569 C   0  0  0  0  0  0  0  0  0  0  0  0
   -3.9919   -1.4501   -1.0525 C   0  0  0  0  0  0  0  0  0  0  0  0
   -3.8487   -0.1260   -2.1623 Cl  0  0  0  0  0  0  0  0  0  0  0  0
    0.0000    0.0000    0.0000 Cl  0  0  0  0  0  0  0  0  0  0  0  0
    7.9659   -1.2665   -0.9160 H   0  0  0  0  0  0  0  0  0  0  0  0
    6.5223   -1.4590   -2.0326 H   0  0  0  0  0  0  0  0  0  0  0  0
    6.4037   -1.8177   -0.2284 H   0  0  0  0  0  0  0  0  0  0  0  0
    6.5140    0.9170   -1.6028 H   0  0  0  0  0  0  0  0  0  0  0  0
    7.2361    0.6472    0.0081 H   0  0  0  0  0  0  0  0  0  0  0  0
    6.0758    0.1800    1.9477 H   0  0  0  0  0  0  0  0  0  0  0  0
    3.9270    0.1722    3.1310 H   0  0  0  0  0  0  0  0  0  0  0  0
    1.8124    0.3093   -0.6130 H   0  0  0  0  0  0  0  0  0  0  0  0
    3.9594    0.3171   -1.8091 H   0  0  0  0  0  0  0  0  0  0  0  0
    1.5099    0.2975    3.0897 H   0  0  0  0  0  0  0  0  0  0  0  0
   -1.1744    2.3204   -1.4327 H   0  0  0  0  0  0  0  0  0  0  0  0
   -2.6170    4.2536   -2.1651 H   0  0  0  0  0  0  0  0  0  0  0  0
   -4.8000    4.5683   -1.1663 H   0  0  0  0  0  0  0  0  0  0  0  0
   -5.6065    3.0509    0.5215 H   0  0  0  0  0  0  0  0  0  0  0  0
   -4.2382    1.1005    1.3110 H   0  0  0  0  0  0  0  0  0  0  0  0
   -4.3804   -4.5860    1.0594 H   0  0  0  0  0  0  0  0  0  0  0  0
   -5.8883   -4.2367   -0.8510 H   0  0  0  0  0  0  0  0  0  0  0  0
   -5.6507   -2.2604   -2.1913 H   0  0  0  0  0  0  0  0  0  0  0  0
  1  2  1  0
  2  3  1  0
  3  4  2  0
  4  5  1  0
  5  6  2  0
  6  7  1  0
  7  8  2  0
  6  9  1  0
  9 10  1  0
 10 11  1  0
 11 12  1  0
 12 13  2  0
 13 14  1  0
 13 15  1  0
 15 16  2  0
 16 17  1  0
 17 18  2  0
 18 19  1  0
 19 20  2  0
 12 21  1  0
 21 22  2  0
 22 23  1  0
 22 24  1  0
 24 25  2  0
 25 26  1  0
 26 27  2  0
 27 28  1  0
  8  3  1  0
 14 10  2  0
 20 15  1  0
 27 21  1  0
  1 30  1  0
  1 31  1  0
  1 32  1  0
  2 33  1  0
  2 34  1  0
  4 35  1  0
  5 36  1  0
  7 37  1  0
  8 38  1  0
  9 39  1  0
 16 40  1  0
 17 41  1  0
 18 42  1  0
 19 43  1  0
 20 44  1  0
 24 45  1  0
 25 46  1  0
 26 47  1  0
M  CHG  2  13   1  29  -1
M  END
>  <Ligand ID>  (1) 
LIG0001755

>  <Ligand>  (1) 
MLS000948488

>  <SMILES>  (1) 
CCc1ccc(cc1)Nc1sc([n+](n1)c1ccccc1)c1c(Cl)cccc1Cl.[Cl-]

>  <CID>  (1) 
24789739.0

>  <ChEMBL ID>  (1) 
nan

>  <InChiKey>  (1) 
BQOXWTWXGDCHGV-UHFFFAOYSA-M

>  <InChi>  (1) 
InChI=1S/C22H18Cl2N3S.ClH/c1-2-15-11-13-16(14-12-15)25-22-26-27(17-7-4-3-5-8-17)21(28-22)20-18(23)9-6-10-19(20)24;/h3-14H,2H2,1H3,(H,25,26);1H/q+1;/p-1

>  <IUPAC Name>  (1) 
5-(2,6-dichlorophenyl)-N-(4-ethylphenyl)-4-phenyl-1,3,4-thiadiazol-4-ium-2-amine;chloride

$$$$
