
     RDKit          3D

 44 46  0  0  0  0  0  0  0  0999 V2000
   -2.8457    3.5074   -0.9003 C   0  0  0  0  0  0  0  0  0  0  0  0
   -2.2261    3.8510    0.2008 C   0  0  0  0  0  0  0  0  0  0  0  0
   -1.2866    3.0489    0.9922 C   0  0  0  0  0  0  0  0  0  0  0  0
   -1.0674    1.7063    0.4832 N   0  0  0  0  0  0  0  0  0  0  0  0
   -2.3124    0.9854    0.7229 C   0  0  0  0  0  0  0  0  0  0  0  0
   -2.5145   -0.0960   -0.2695 C   0  0  0  0  0  0  0  0  0  0  0  0
   -1.4968   -1.1746   -0.1595 C   0  0  0  0  0  0  0  0  0  0  0  0
   -0.2431   -1.1672    0.4136 C   0  0  0  0  0  0  0  0  0  0  0  0
    0.5088   -0.1411    1.0994 C   0  0  0  0  0  0  0  0  0  0  0  0
    0.0149    1.2054    1.2675 C   0  0  0  0  0  0  0  0  0  0  0  0
    1.8564   -0.0682    0.4305 C   0  0  0  0  0  0  0  0  0  0  0  0
    2.9961   -0.5717    0.9704 C   0  0  0  0  0  0  0  0  0  0  0  0
    4.2376   -0.5198    0.3721 C   0  0  0  0  0  0  0  0  0  0  0  0
    4.3551    0.0758   -0.8513 C   0  0  0  0  0  0  0  0  0  0  0  0
    3.2114    0.6063   -1.4423 C   0  0  0  0  0  0  0  0  0  0  0  0
    1.9716    0.5439   -0.8240 C   0  0  0  0  0  0  0  0  0  0  0  0
    5.5995    0.1221   -1.4391 O   0  0  0  0  0  0  0  0  0  0  0  0
    0.4707   -2.3515    0.3468 C   0  0  0  0  0  0  0  0  0  0  0  0
   -0.0486   -3.4909   -0.2661 C   0  0  0  0  0  0  0  0  0  0  0  0
   -1.3031   -3.4863   -0.8354 C   0  0  0  0  0  0  0  0  0  0  0  0
   -2.0126   -2.3087   -0.7690 C   0  0  0  0  0  0  0  0  0  0  0  0
   -3.6168   -2.3101   -1.4984 Cl  0  0  0  0  0  0  0  0  0  0  0  0
   -1.8032   -4.6301   -1.4409 O   0  0  0  0  0  0  0  0  0  0  0  0
    0.6721   -4.6661   -0.3268 O   0  0  0  0  0  0  0  0  0  0  0  0
   -3.5378    4.2112   -1.4064 H   0  0  0  0  0  0  0  0  0  0  0  0
   -2.7505    2.5585   -1.4155 H   0  0  0  0  0  0  0  0  0  0  0  0
   -2.4339    4.8621    0.5802 H   0  0  0  0  0  0  0  0  0  0  0  0
   -1.7143    2.8722    2.0262 H   0  0  0  0  0  0  0  0  0  0  0  0
   -0.2998    3.5862    1.1202 H   0  0  0  0  0  0  0  0  0  0  0  0
   -2.2919    0.5636    1.7744 H   0  0  0  0  0  0  0  0  0  0  0  0
   -3.1928    1.6575    0.7183 H   0  0  0  0  0  0  0  0  0  0  0  0
   -3.5354   -0.5362   -0.0559 H   0  0  0  0  0  0  0  0  0  0  0  0
   -2.5560    0.2305   -1.3021 H   0  0  0  0  0  0  0  0  0  0  0  0
    0.7707   -0.5804    2.1219 H   0  0  0  0  0  0  0  0  0  0  0  0
    0.8353    1.9792    1.1495 H   0  0  0  0  0  0  0  0  0  0  0  0
   -0.2978    1.3802    2.3438 H   0  0  0  0  0  0  0  0  0  0  0  0
    2.9538   -1.0485    1.9401 H   0  0  0  0  0  0  0  0  0  0  0  0
    5.0987   -0.9456    0.8686 H   0  0  0  0  0  0  0  0  0  0  0  0
    3.3233    1.0793   -2.4206 H   0  0  0  0  0  0  0  0  0  0  0  0
    1.1083    0.9650   -1.3120 H   0  0  0  0  0  0  0  0  0  0  0  0
    5.8944    0.9567   -1.9281 H   0  0  0  0  0  0  0  0  0  0  0  0
    1.4645   -2.4729    0.7598 H   0  0  0  0  0  0  0  0  0  0  0  0
   -2.5353   -4.5644   -2.1533 H   0  0  0  0  0  0  0  0  0  0  0  0
    0.5790   -5.4245    0.3141 H   0  0  0  0  0  0  0  0  0  0  0  0
  1  2  2  0
  2  3  1  0
  3  4  1  0
  4  5  1  0
  5  6  1  0
  6  7  1  0
  7  8  2  0
  8  9  1  0
  9 10  1  0
  9 11  1  0
 11 12  2  0
 12 13  1  0
 13 14  2  0
 14 15  1  0
 15 16  2  0
 14 17  1  0
  8 18  1  0
 18 19  2  0
 19 20  1  0
 20 21  2  0
 21 22  1  0
 20 23  1  0
 19 24  1  0
 10  4  1  0
 16 11  1  0
 21  7  1  0
  1 25  1  0
  1 26  1  0
  2 27  1  0
  3 28  1  0
  3 29  1  0
  5 30  1  0
  5 31  1  0
  6 32  1  0
  6 33  1  0
  9 34  1  0
 10 35  1  0
 10 36  1  0
 12 37  1  0
 13 38  1  0
 15 39  1  0
 16 40  1  0
 17 41  1  0
 18 42  1  0
 23 43  1  0
 24 44  1  0
M  END
>  <Ligand ID>  (1) 
LIG0005631

>  <Ligand>  (1) 
77386-12-0

>  <SMILES>  (1) 
C=CCN1CCc2c(C(C1)c1ccc(cc1)O)cc(c(c2Cl)O)O

>  <CID>  (1) 
132435.0

>  <ChEMBL ID>  (1) 
nan

>  <InChiKey>  (1) 
VDHWYWSLUYRNGE-UHFFFAOYSA-N

>  <InChi>  (1) 
InChI=1S/C19H20ClNO3/c1-2-8-21-9-7-14-15(10-17(23)19(24)18(14)20)16(11-21)12-3-5-13(22)6-4-12/h2-6,10,16,22-24H,1,7-9,11H2

>  <IUPAC Name>  (1) 
9-chloro-5-(4-hydroxyphenyl)-3-prop-2-enyl-1,2,4,5-tetrahydro-3-benzazepine-7,8-diol

$$$$
