
     RDKit          3D

 43 46  0  0  0  0  0  0  0  0999 V2000
    1.8360   -0.1391   -2.9435 O   0  0  0  0  0  0  0  0  0  0  0  0
    2.7092   -0.3911   -2.0166 C   0  0  0  0  0  0  0  0  0  0  0  0
    2.1852   -0.3978   -0.7100 N   0  0  0  0  0  0  0  0  0  0  0  0
    0.7963   -0.1444   -0.5541 C   0  0  0  0  0  0  0  0  0  0  0  0
    0.2499    1.1092   -0.4141 C   0  0  0  0  0  0  0  0  0  0  0  0
   -1.1376    1.2340   -0.2652 C   0  0  0  0  0  0  0  0  0  0  0  0
   -1.9483    0.0984   -0.2598 C   0  0  0  0  0  0  0  0  0  0  0  0
   -1.3935   -1.1620   -0.4013 C   0  0  0  0  0  0  0  0  0  0  0  0
   -0.0238   -1.2796   -0.5478 C   0  0  0  0  0  0  0  0  0  0  0  0
   -3.4014    0.1866   -0.1088 C   0  0  0  0  0  0  0  0  0  0  0  0
   -4.1191    1.3268    0.0126 N   0  0  0  0  0  0  0  0  0  0  0  0
   -5.4355    1.0531    0.1289 C   0  0  0  0  0  0  0  0  0  0  0  0
   -5.5270   -0.3313    0.0753 C   0  0  0  0  0  0  0  0  0  0  0  0
   -4.2845   -0.8211   -0.0679 N   0  0  0  0  0  0  0  0  0  0  0  0
   -6.7725   -0.9558    0.1682 C   0  0  0  0  0  0  0  0  0  0  0  0
   -7.9367   -0.1917    0.3160 C   0  0  0  0  0  0  0  0  0  0  0  0
   -7.8020    1.1828    0.3648 C   0  0  0  0  0  0  0  0  0  0  0  0
   -6.5812    1.8178    0.2744 C   0  0  0  0  0  0  0  0  0  0  0  0
    4.0828   -0.6318   -2.4239 C   0  0  0  0  0  0  0  0  0  0  0  0
    5.3046    0.5342   -1.8226 S   0  0  0  0  0  0  0  0  0  0  0  0
    5.5592    0.4873   -0.0763 C   0  0  0  0  0  0  0  0  0  0  0  0
    6.5116   -0.4221    0.4087 C   0  0  0  0  0  0  0  0  0  0  0  0
    6.7901   -0.5342    1.7495 C   0  0  0  0  0  0  0  0  0  0  0  0
    6.1280    0.2581    2.6575 C   0  0  0  0  0  0  0  0  0  0  0  0
    5.1854    1.1603    2.1954 C   0  0  0  0  0  0  0  0  0  0  0  0
    4.9011    1.2759    0.8396 C   0  0  0  0  0  0  0  0  0  0  0  0
    6.5221    0.0723    4.3510 Cl  0  0  0  0  0  0  0  0  0  0  0  0
    2.8328   -0.5875    0.0721 H   0  0  0  0  0  0  0  0  0  0  0  0
    0.9132    1.9446   -0.4269 H   0  0  0  0  0  0  0  0  0  0  0  0
   -1.5791    2.2170   -0.1539 H   0  0  0  0  0  0  0  0  0  0  0  0
   -2.0168   -2.0440   -0.4005 H   0  0  0  0  0  0  0  0  0  0  0  0
    0.4065   -2.2736   -0.6544 H   0  0  0  0  0  0  0  0  0  0  0  0
   -4.0636   -1.8296   -0.1330 H   0  0  0  0  0  0  0  0  0  0  0  0
   -6.8200   -2.0416    0.1198 H   0  0  0  0  0  0  0  0  0  0  0  0
   -8.8873   -0.6941    0.3871 H   0  0  0  0  0  0  0  0  0  0  0  0
   -8.7060    1.7849    0.4780 H   0  0  0  0  0  0  0  0  0  0  0  0
   -6.5115    2.8985    0.3143 H   0  0  0  0  0  0  0  0  0  0  0  0
    4.1351   -0.5810   -3.5553 H   0  0  0  0  0  0  0  0  0  0  0  0
    4.4561   -1.6551   -2.1786 H   0  0  0  0  0  0  0  0  0  0  0  0
    7.0615   -1.0757   -0.2750 H   0  0  0  0  0  0  0  0  0  0  0  0
    7.5403   -1.2597    2.0726 H   0  0  0  0  0  0  0  0  0  0  0  0
    4.6810    1.7677    2.9300 H   0  0  0  0  0  0  0  0  0  0  0  0
    4.1596    1.9850    0.4737 H   0  0  0  0  0  0  0  0  0  0  0  0
  1  2  2  0
  2  3  1  0
  3  4  1  0
  4  5  2  0
  5  6  1  0
  6  7  2  0
  7  8  1  0
  8  9  2  0
  7 10  1  0
 10 11  2  0
 11 12  1  0
 12 13  2  0
 13 14  1  0
 13 15  1  0
 15 16  2  0
 16 17  1  0
 17 18  2  0
  2 19  1  0
 19 20  1  0
 20 21  1  0
 21 22  2  0
 22 23  1  0
 23 24  2  0
 24 25  1  0
 25 26  2  0
 24 27  1  0
  9  4  1  0
 14 10  1  0
 26 21  1  0
 18 12  1  0
  3 28  1  0
  5 29  1  0
  6 30  1  0
  8 31  1  0
  9 32  1  0
 14 33  1  0
 15 34  1  0
 16 35  1  0
 17 36  1  0
 18 37  1  0
 19 38  1  0
 19 39  1  0
 22 40  1  0
 23 41  1  0
 25 42  1  0
 26 43  1  0
M  END
>  <Ligand ID>  (1) 
LIG0002751

>  <Ligand>  (1) 
MLS000573591

>  <SMILES>  (1) 
O=C(Nc1ccc(cc1)c1nc2c([nH]1)cccc2)CSc1ccc(cc1)Cl

>  <CID>  (1) 
1342009.0

>  <ChEMBL ID>  (1) 
nan

>  <InChiKey>  (1) 
VFFGQBVJIVFZLI-UHFFFAOYSA-N

>  <InChi>  (1) 
InChI=1S/C21H16ClN3OS/c22-15-7-11-17(12-8-15)27-13-20(26)23-16-9-5-14(6-10-16)21-24-18-3-1-2-4-19(18)25-21/h1-12H,13H2,(H,23,26)(H,24,25)

>  <IUPAC Name>  (1) 
N-[4-(1H-benzimidazol-2-yl)phenyl]-2-(4-chlorophenyl)sulfanylacetamide

$$$$
