
     RDKit          3D

 20 20  0  0  0  0  0  0  0  0999 V2000
   -1.3956   -0.3202    1.2203 C   0  0  0  0  0  0  0  0  0  0  0  0
   -1.3436    0.5142   -0.0442 C   0  0  1  0  0  0  0  0  0  0  0  0
   -0.2870   -0.0433   -0.9759 C   0  0  0  0  0  0  0  0  0  0  0  0
    1.0513   -0.0366   -0.3773 C   0  0  0  0  0  0  0  0  0  0  0  0
    1.9377    1.0252   -0.4874 C   0  0  0  0  0  0  0  0  0  0  0  0
    3.0812    0.7356    0.1655 N   0  0  0  0  0  0  0  0  0  0  0  0
    2.9377   -0.4966    0.6913 C   0  0  0  0  0  0  0  0  0  0  0  0
    1.7040   -0.9547    0.3560 N   0  0  0  0  0  0  0  0  0  0  0  0
   -2.6351    0.4899   -0.6664 N   0  0  0  0  0  0  0  0  0  0  0  0
   -0.3518   -0.4406    1.5852 H   0  0  0  0  0  0  0  0  0  0  0  0
   -2.0177    0.1899    1.9872 H   0  0  0  0  0  0  0  0  0  0  0  0
   -1.8839   -1.2843    0.9742 H   0  0  0  0  0  0  0  0  0  0  0  0
   -1.0847    1.5722    0.1869 H   0  0  0  0  0  0  0  0  0  0  0  0
   -0.5635   -1.0952   -1.2220 H   0  0  0  0  0  0  0  0  0  0  0  0
   -0.2954    0.5328   -1.9142 H   0  0  0  0  0  0  0  0  0  0  0  0
    1.7794    1.9599   -1.0064 H   0  0  0  0  0  0  0  0  0  0  0  0
    3.6942   -1.0179    1.2812 H   0  0  0  0  0  0  0  0  0  0  0  0
    1.2992   -1.8926    0.6233 H   0  0  0  0  0  0  0  0  0  0  0  0
   -2.6858    1.0626   -1.5291 H   0  0  0  0  0  0  0  0  0  0  0  0
   -2.9407   -0.5003   -0.8483 H   0  0  0  0  0  0  0  0  0  0  0  0
  1  2  1  0
  2  3  1  0
  3  4  1  0
  4  5  2  0
  5  6  1  0
  6  7  2  0
  7  8  1  0
  2  9  1  0
  8  4  1  0
  1 10  1  0
  1 11  1  0
  1 12  1  0
  2 13  1  1
  3 14  1  0
  3 15  1  0
  5 16  1  0
  7 17  1  0
  8 18  1  0
  9 19  1  0
  9 20  1  0
M  END
>  <Ligand ID>  (1) 
LIG0005212

>  <Ligand>  (1) 
(S)-alpha;-methylhistamine

>  <SMILES>  (1) 
C[C@@H](Cc1cnc[nH]1)N

>  <CID>  (1) 
6603865.0

>  <ChEMBL ID>  (1) 
nan

>  <InChiKey>  (1) 
XNQIOISZPFVUFG-YFKPBYRVSA-N

>  <InChi>  (1) 
InChI=1S/C6H11N3/c1-5(7)2-6-3-8-4-9-6/h3-5H,2,7H2,1H3,(H,8,9)/t5-/m0/s1

>  <IUPAC Name>  (1) 
(2S)-1-(1H-imidazol-5-yl)propan-2-amine

$$$$
