
     RDKit          3D

 60 64  0  0  0  0  0  0  0  0999 V2000
    6.2566    2.9273    1.4817 O   0  0  0  0  0  0  0  0  0  0  0  0
    7.4084    2.1572    1.5420 C   0  0  0  0  0  0  0  0  0  0  0  0
    7.9816    2.1195    2.6834 O   0  0  0  0  0  0  0  0  0  0  0  0
    7.9661    1.4167    0.3820 C   0  0  0  0  0  0  0  0  0  0  0  0
    7.0945    1.5966   -0.7084 O   0  0  0  0  0  0  0  0  0  0  0  0
    5.7992    1.1336   -0.6216 C   0  0  0  0  0  0  0  0  0  0  0  0
    4.9874    1.3657   -1.7373 C   0  0  0  0  0  0  0  0  0  0  0  0
    3.6784    0.9357   -1.7390 C   0  0  0  0  0  0  0  0  0  0  0  0
    3.1362    0.2731   -0.6572 C   0  0  0  0  0  0  0  0  0  0  0  0
    3.9369    0.0463    0.4399 C   0  0  0  0  0  0  0  0  0  0  0  0
    5.2698    0.4742    0.4623 C   0  0  0  0  0  0  0  0  0  0  0  0
    1.7552   -0.1284   -0.7025 N   0  0  0  0  0  0  0  0  0  0  0  0
    1.3270   -1.4359   -0.3544 C   0  0  0  0  0  0  0  0  0  0  0  0
    2.1946   -2.4265   -0.0206 C   0  0  0  0  0  0  0  0  0  0  0  0
    1.7898   -3.7166    0.3443 C   0  0  0  0  0  0  0  0  0  0  0  0
    2.6225   -4.5991    0.6451 O   0  0  0  0  0  0  0  0  0  0  0  0
    0.4726   -3.9722    0.3594 N   0  0  0  0  0  0  0  0  0  0  0  0
   -0.4178   -3.0149    0.0337 C   0  0  0  0  0  0  0  0  0  0  0  0
   -0.0251   -1.7271   -0.3306 C   0  0  0  0  0  0  0  0  0  0  0  0
   -1.0077   -0.8345   -0.6403 C   0  0  0  0  0  0  0  0  0  0  0  0
   -2.3696   -1.1410   -0.6117 C   0  0  0  0  0  0  0  0  0  0  0  0
   -2.6995   -2.4281   -0.2454 C   0  0  0  0  0  0  0  0  0  0  0  0
   -1.7512   -3.3853    0.0823 C   0  0  0  0  0  0  0  0  0  0  0  0
   -3.3582   -0.1058   -0.9828 C   0  0  0  0  0  0  0  0  0  0  0  0
   -3.0406    1.2559   -0.5186 C   0  0  0  0  0  0  0  0  0  0  0  0
   -3.4404    1.8265    0.6566 C   0  0  0  0  0  0  0  0  0  0  0  0
   -3.0911    3.1254    1.0109 C   0  0  0  0  0  0  0  0  0  0  0  0
   -2.3161    3.9086    0.1840 C   0  0  0  0  0  0  0  0  0  0  0  0
   -1.9053    3.3485   -1.0043 C   0  0  0  0  0  0  0  0  0  0  0  0
   -2.2528    2.0600   -1.3540 C   0  0  0  0  0  0  0  0  0  0  0  0
   -1.8559    5.5458    0.5939 Cl  0  0  0  0  0  0  0  0  0  0  0  0
   -4.7046   -0.5844   -0.5788 C   0  0  0  0  0  0  0  0  0  0  0  0
   -5.0369   -0.9746    0.6958 C   0  0  0  0  0  0  0  0  0  0  0  0
   -6.3101   -1.3959    1.0502 C   0  0  0  0  0  0  0  0  0  0  0  0
   -7.3120   -1.4388    0.1073 C   0  0  0  0  0  0  0  0  0  0  0  0
   -7.0049   -1.0521   -1.1847 C   0  0  0  0  0  0  0  0  0  0  0  0
   -5.7323   -0.6349   -1.5203 C   0  0  0  0  0  0  0  0  0  0  0  0
   -8.8883   -1.9739    0.6027 Cl  0  0  0  0  0  0  0  0  0  0  0  0
    6.1041    3.7721    2.0516 H   0  0  0  0  0  0  0  0  0  0  0  0
    8.0714    0.3320    0.6472 H   0  0  0  0  0  0  0  0  0  0  0  0
    8.9574    1.8266    0.0773 H   0  0  0  0  0  0  0  0  0  0  0  0
    5.3609    1.8757   -2.6024 H   0  0  0  0  0  0  0  0  0  0  0  0
    3.0625    1.1208   -2.6058 H   0  0  0  0  0  0  0  0  0  0  0  0
    3.5790   -0.4501    1.3302 H   0  0  0  0  0  0  0  0  0  0  0  0
    5.8654    0.2663    1.3354 H   0  0  0  0  0  0  0  0  0  0  0  0
    1.1094    0.6340   -1.0167 H   0  0  0  0  0  0  0  0  0  0  0  0
    3.2742   -2.2903   -0.0278 H   0  0  0  0  0  0  0  0  0  0  0  0
    0.1829   -4.9362    0.6326 H   0  0  0  0  0  0  0  0  0  0  0  0
   -0.7554    0.1538   -0.9194 H   0  0  0  0  0  0  0  0  0  0  0  0
   -3.7270   -2.7564   -0.2054 H   0  0  0  0  0  0  0  0  0  0  0  0
   -2.0554   -4.3842    0.3648 H   0  0  0  0  0  0  0  0  0  0  0  0
   -3.3248   -0.1034   -2.1302 H   0  0  0  0  0  0  0  0  0  0  0  0
   -4.0515    1.2975    1.3636 H   0  0  0  0  0  0  0  0  0  0  0  0
   -3.4187    3.5567    1.9463 H   0  0  0  0  0  0  0  0  0  0  0  0
   -1.2903    3.9552   -1.6720 H   0  0  0  0  0  0  0  0  0  0  0  0
   -1.8872    1.7091   -2.3091 H   0  0  0  0  0  0  0  0  0  0  0  0
   -4.3008   -0.9861    1.4847 H   0  0  0  0  0  0  0  0  0  0  0  0
   -6.5193   -1.6942    2.0780 H   0  0  0  0  0  0  0  0  0  0  0  0
   -7.8175   -1.0964   -1.9104 H   0  0  0  0  0  0  0  0  0  0  0  0
   -5.5756   -0.3486   -2.5564 H   0  0  0  0  0  0  0  0  0  0  0  0
  1  2  1  0
  2  3  2  0
  2  4  1  0
  4  5  1  0
  5  6  1  0
  6  7  2  0
  7  8  1  0
  8  9  2  0
  9 10  1  0
 10 11  2  0
  9 12  1  0
 12 13  1  0
 13 14  2  0
 14 15  1  0
 15 16  2  0
 15 17  1  0
 17 18  1  0
 18 19  2  0
 19 20  1  0
 20 21  2  0
 21 22  1  0
 22 23  2  0
 21 24  1  0
 24 25  1  0
 25 26  2  0
 26 27  1  0
 27 28  2  0
 28 29  1  0
 29 30  2  0
 28 31  1  0
 24 32  1  0
 32 33  2  0
 33 34  1  0
 34 35  2  0
 35 36  1  0
 36 37  2  0
 35 38  1  0
 11  6  1  0
 19 13  1  0
 30 25  1  0
 37 32  1  0
 23 18  1  0
  1 39  1  0
  4 40  1  0
  4 41  1  0
  7 42  1  0
  8 43  1  0
 10 44  1  0
 11 45  1  0
 12 46  1  0
 14 47  1  0
 17 48  1  0
 20 49  1  0
 22 50  1  0
 23 51  1  0
 24 52  1  0
 26 53  1  0
 27 54  1  0
 29 55  1  0
 30 56  1  0
 33 57  1  0
 34 58  1  0
 36 59  1  0
 37 60  1  0
M  END
>  <Ligand ID>  (1) 
LIG0005897

>  <Ligand>  (1) 
CHEMBL3896261

>  <SMILES>  (1) 
OC(=O)COc1ccc(cc1)Nc1cc(=O)[nH]c2c1cc(cc2)C(c1ccc(cc1)Cl)c1ccc(cc1)Cl

>  <CID>  (1) 
118323966.0

>  <ChEMBL ID>  (1) 
nan

>  <InChiKey>  (1) 
TWQWCNYJCIPLDX-UHFFFAOYSA-N

>  <InChi>  (1) 
InChI=1S/C30H22Cl2N2O4/c31-21-6-1-18(2-7-21)30(19-3-8-22(32)9-4-19)20-5-14-26-25(15-20)27(16-28(35)34-26)33-23-10-12-24(13-11-23)38-17-29(36)37/h1-16,30H,17H2,(H,36,37)(H2,33,34,35)

>  <IUPAC Name>  (1) 
2-[4-[[6-[bis(4-chlorophenyl)methyl]-2-oxo-1H-quinolin-4-yl]amino]phenoxy]acetic acid

$$$$
