
     RDKit          3D

 42 45  0  0  0  0  0  0  0  0999 V2000
   -8.3847    2.5897    0.4960 Cl  0  0  0  0  0  0  0  0  0  0  0  0
   -6.8026    1.8219    0.5472 C   0  0  0  0  0  0  0  0  0  0  0  0
   -5.6557    2.5283    0.8419 C   0  0  0  0  0  0  0  0  0  0  0  0
   -4.4015    1.9574    0.8901 C   0  0  0  0  0  0  0  0  0  0  0  0
   -4.3261    0.6016    0.6234 C   0  0  0  0  0  0  0  0  0  0  0  0
   -5.4696   -0.1166    0.3268 C   0  0  0  0  0  0  0  0  0  0  0  0
   -6.6791    0.4994    0.2936 N   0  0  0  0  0  0  0  0  0  0  0  0
   -3.0660   -0.1323    0.6386 C   0  0  0  0  0  0  0  0  0  0  0  0
   -2.0127    0.1922    1.4711 C   0  0  0  0  0  0  0  0  0  0  0  0
   -0.8265   -0.5508    1.4386 C   0  0  0  0  0  0  0  0  0  0  0  0
   -0.6611   -1.6175    0.5915 C   0  0  0  0  0  0  0  0  0  0  0  0
   -1.7341   -1.9267   -0.2377 C   0  0  0  0  0  0  0  0  0  0  0  0
   -2.9125   -1.2094   -0.2239 C   0  0  0  0  0  0  0  0  0  0  0  0
    0.5394   -2.4473    0.4902 C   0  0  0  0  0  0  0  0  0  0  0  0
    1.5129   -1.9864   -0.4689 N   0  0  0  0  0  0  0  0  0  0  0  0
    2.5843   -1.0883   -0.1927 C   0  0  0  0  0  0  0  0  0  0  0  0
    2.9867   -0.4432    0.9586 C   0  0  0  0  0  0  0  0  0  0  0  0
    4.0905    0.4065    0.9886 C   0  0  0  0  0  0  0  0  0  0  0  0
    4.8185    0.6150   -0.1885 C   0  0  0  0  0  0  0  0  0  0  0  0
    4.4268   -0.0239   -1.3468 C   0  0  0  0  0  0  0  0  0  0  0  0
    3.3202   -0.8716   -1.3629 C   0  0  0  0  0  0  0  0  0  0  0  0
    2.7163   -1.6488   -2.4393 C   0  0  0  0  0  0  0  0  0  0  0  0
    3.0810   -1.7277   -3.6519 O   0  0  0  0  0  0  0  0  0  0  0  0
    1.5720   -2.3466   -1.8458 C   0  0  0  0  0  0  0  0  0  0  0  0
    0.7560   -3.1299   -2.3929 O   0  0  0  0  0  0  0  0  0  0  0  0
    5.8978    1.4524   -0.1358 O   0  0  0  0  0  0  0  0  0  0  0  0
    5.9200    2.8292   -0.3538 C   0  0  0  0  0  0  0  0  0  0  0  0
    5.1273    3.5580    0.5079 F   0  0  0  0  0  0  0  0  0  0  0  0
    7.2520    3.2283   -0.2333 F   0  0  0  0  0  0  0  0  0  0  0  0
    5.5237    3.1297   -1.6625 F   0  0  0  0  0  0  0  0  0  0  0  0
   -5.7422    3.5885    1.0466 H   0  0  0  0  0  0  0  0  0  0  0  0
   -3.5042    2.5102    1.1207 H   0  0  0  0  0  0  0  0  0  0  0  0
   -5.4696   -1.1749    0.1106 H   0  0  0  0  0  0  0  0  0  0  0  0
   -2.1182    1.0291    2.1480 H   0  0  0  0  0  0  0  0  0  0  0  0
    0.0023   -0.2889    2.0992 H   0  0  0  0  0  0  0  0  0  0  0  0
   -1.6607   -2.7686   -0.9360 H   0  0  0  0  0  0  0  0  0  0  0  0
   -3.7053   -1.4909   -0.8829 H   0  0  0  0  0  0  0  0  0  0  0  0
    0.2137   -3.4951    0.2518 H   0  0  0  0  0  0  0  0  0  0  0  0
    0.9656   -2.5187    1.5196 H   0  0  0  0  0  0  0  0  0  0  0  0
    2.4225   -0.5985    1.8918 H   0  0  0  0  0  0  0  0  0  0  0  0
    4.3893    0.9031    1.9032 H   0  0  0  0  0  0  0  0  0  0  0  0
    5.0139    0.1621   -2.2352 H   0  0  0  0  0  0  0  0  0  0  0  0
  1  2  1  0
  2  3  2  0
  3  4  1  0
  4  5  2  0
  5  6  1  0
  6  7  2  0
  5  8  1  0
  8  9  2  0
  9 10  1  0
 10 11  2  0
 11 12  1  0
 12 13  2  0
 11 14  1  0
 14 15  1  0
 15 16  1  0
 16 17  2  0
 17 18  1  0
 18 19  2  0
 19 20  1  0
 20 21  2  0
 21 22  1  0
 22 23  2  0
 22 24  1  0
 24 25  2  0
 19 26  1  0
 26 27  1  0
 27 28  1  0
 27 29  1  0
 27 30  1  0
  7  2  1  0
 13  8  1  0
 24 15  1  0
 21 16  1  0
  3 31  1  0
  4 32  1  0
  6 33  1  0
  9 34  1  0
 10 35  1  0
 12 36  1  0
 13 37  1  0
 14 38  1  0
 14 39  1  0
 17 40  1  0
 18 41  1  0
 20 42  1  0
M  END
>  <Ligand ID>  (1) 
LIG0005943

>  <Ligand>  (1) 
CHEMBL596289

>  <SMILES>  (1) 
Clc1ccc(cn1)c1ccc(cc1)CN1c2ccc(cc2C(=O)C1=O)OC(F)(F)F

>  <CID>  (1) 
45281798.0

>  <ChEMBL ID>  (1) 
nan

>  <InChiKey>  (1) 
LUHNHJZWUYWOMX-UHFFFAOYSA-N

>  <InChi>  (1) 
InChI=1S/C21H12ClF3N2O3/c22-18-8-5-14(10-26-18)13-3-1-12(2-4-13)11-27-17-7-6-15(30-21(23,24)25)9-16(17)19(28)20(27)29/h1-10H,11H2

>  <IUPAC Name>  (1) 
1-[[4-(6-chloropyridin-3-yl)phenyl]methyl]-5-(trifluoromethoxy)indole-2,3-dione

$$$$
