
     RDKit          3D

 26 26  0  0  0  0  0  0  0  0999 V2000
   -0.6227    1.6349    2.4729 O   0  0  0  0  0  0  0  0  0  0  0  0
   -1.4361    1.4648    1.3870 C   0  0  0  0  0  0  0  0  0  0  0  0
   -2.5787    2.0276    1.4012 O   0  0  0  0  0  0  0  0  0  0  0  0
   -1.0475    0.6563    0.1971 C   0  0  1  0  0  0  0  0  0  0  0  0
    0.2017    1.2791   -0.3884 C   0  0  0  0  0  0  0  0  0  0  0  0
    1.0613    0.1210   -0.7831 C   0  0  0  0  0  0  0  0  0  0  0  0
    0.2483   -1.1328   -0.5943 C   0  0  0  0  0  0  0  0  0  0  0  0
   -0.6720   -0.7551    0.5465 C   0  0  2  0  0  0  0  0  0  0  0  0
   -1.8446   -1.6701    0.4791 C   0  0  0  0  0  0  0  0  0  0  0  0
   -2.2465   -2.3180    1.4731 O   0  0  0  0  0  0  0  0  0  0  0  0
   -2.4998   -1.7928   -0.7410 O   0  0  0  0  0  0  0  0  0  0  0  0
    1.5173    0.2746   -2.1517 N   0  0  0  0  0  0  0  0  0  0  0  0
    2.2497   -0.0212    0.1065 C   0  0  0  0  0  0  0  0  0  0  0  0
    2.0964   -0.1677    1.3448 O   0  0  0  0  0  0  0  0  0  0  0  0
    3.5497    0.0022   -0.3901 O   0  0  0  0  0  0  0  0  0  0  0  0
   -0.9945    1.8088    3.4176 H   0  0  0  0  0  0  0  0  0  0  0  0
   -1.8480    0.6677   -0.5473 H   0  0  0  0  0  0  0  0  0  0  0  0
    0.7296    1.9566    0.2990 H   0  0  0  0  0  0  0  0  0  0  0  0
   -0.0870    1.8677   -1.2977 H   0  0  0  0  0  0  0  0  0  0  0  0
    0.9063   -1.9714   -0.3332 H   0  0  0  0  0  0  0  0  0  0  0  0
   -0.3075   -1.4191   -1.5082 H   0  0  0  0  0  0  0  0  0  0  0  0
   -0.1419   -0.8305    1.5050 H   0  0  0  0  0  0  0  0  0  0  0  0
   -3.1642   -2.5341   -0.9236 H   0  0  0  0  0  0  0  0  0  0  0  0
    1.9461    1.2179   -2.2243 H   0  0  0  0  0  0  0  0  0  0  0  0
    0.7000    0.1747   -2.7873 H   0  0  0  0  0  0  0  0  0  0  0  0
    4.2847   -0.5414    0.0404 H   0  0  0  0  0  0  0  0  0  0  0  0
  1  2  1  0
  2  3  2  0
  2  4  1  0
  4  5  1  0
  5  6  1  0
  6  7  1  0
  7  8  1  0
  8  9  1  0
  9 10  2  0
  9 11  1  0
  6 12  1  0
  6 13  1  0
 13 14  2  0
 13 15  1  0
  8  4  1  0
  1 16  1  0
  4 17  1  6
  5 18  1  0
  5 19  1  0
  7 20  1  0
  7 21  1  0
  8 22  1  1
 11 23  1  0
 12 24  1  0
 12 25  1  0
 15 26  1  0
M  END
>  <Ligand ID>  (1) 
LIG0005665

>  <Ligand>  (1) 
CHEMBL329236

>  <SMILES>  (1) 
OC(=O)[C@H]1CC(C[C@@H]1C(=O)O)(N)C(=O)O

>  <CID>  (1) 
10656383.0

>  <ChEMBL ID>  (1) 
nan

>  <InChiKey>  (1) 
FERIKTBTNCSGJS-IMJSIDKUSA-N

>  <InChi>  (1) 
InChI=1S/C8H11NO6/c9-8(7(14)15)1-3(5(10)11)4(2-8)6(12)13/h3-4H,1-2,9H2,(H,10,11)(H,12,13)(H,14,15)/t3-,4-/m0/s1

>  <IUPAC Name>  (1) 
(1S,2S)-4-aminocyclopentane-1,2,4-tricarboxylic acid

$$$$
