
     RDKit          3D

 25 26  0  0  0  0  0  0  0  0999 V2000
    3.2959    1.7741   -0.6142 O   0  0  0  0  0  0  0  0  0  0  0  0
    3.2649    0.3845   -0.7051 C   0  0  0  0  0  0  0  0  0  0  0  0
    4.2822   -0.1852   -1.1816 O   0  0  0  0  0  0  0  0  0  0  0  0
    2.1175   -0.4103   -0.2754 C   0  0  0  0  0  0  0  0  0  0  0  0
    1.9812   -1.7001   -0.3139 N   0  0  0  0  0  0  0  0  0  0  0  0
    0.7274   -2.0383    0.1955 O   0  0  0  0  0  0  0  0  0  0  0  0
    0.3613   -1.0036    1.1026 C   0  0  0  0  0  0  0  0  0  0  0  0
    0.8676    0.1907    0.3025 C   0  0  0  0  0  0  0  0  0  0  0  0
   -0.1769    0.3081   -0.7790 C   0  0  0  0  0  0  0  0  0  0  0  0
   -1.4577   -0.1828   -0.1934 C   0  0  0  0  0  0  0  0  0  0  0  0
   -1.1167   -0.7799    1.1555 C   0  0  0  0  0  0  0  0  0  0  0  0
   -2.0990   -1.2368   -0.9775 N   0  0  0  0  0  0  0  0  0  0  0  0
   -2.3877    0.9571   -0.0513 C   0  0  0  0  0  0  0  0  0  0  0  0
   -3.5140    0.8688   -0.5833 O   0  0  0  0  0  0  0  0  0  0  0  0
   -1.9798    2.0791    0.6637 O   0  0  0  0  0  0  0  0  0  0  0  0
    4.1612    2.3021   -0.4651 H   0  0  0  0  0  0  0  0  0  0  0  0
    0.8749   -1.0593    2.0656 H   0  0  0  0  0  0  0  0  0  0  0  0
    1.0387    1.0851    0.8908 H   0  0  0  0  0  0  0  0  0  0  0  0
   -0.2219    1.3067   -1.2118 H   0  0  0  0  0  0  0  0  0  0  0  0
    0.0971   -0.4275   -1.5905 H   0  0  0  0  0  0  0  0  0  0  0  0
   -1.2988    0.0064    1.9042 H   0  0  0  0  0  0  0  0  0  0  0  0
   -1.7211   -1.6682    1.3995 H   0  0  0  0  0  0  0  0  0  0  0  0
   -3.0284   -1.3916   -0.5139 H   0  0  0  0  0  0  0  0  0  0  0  0
   -1.5328   -2.1086   -0.8515 H   0  0  0  0  0  0  0  0  0  0  0  0
   -2.5347    2.9295    0.6277 H   0  0  0  0  0  0  0  0  0  0  0  0
  1  2  1  0
  2  3  2  0
  2  4  1  0
  4  5  2  0
  5  6  1  0
  6  7  1  0
  7  8  1  0
  8  9  1  0
  9 10  1  0
 10 11  1  0
 10 12  1  0
 10 13  1  0
 13 14  2  0
 13 15  1  0
  8  4  1  0
 11  7  1  0
  1 16  1  0
  7 17  1  0
  8 18  1  0
  9 19  1  0
  9 20  1  0
 11 21  1  0
 11 22  1  0
 12 23  1  0
 12 24  1  0
 15 25  1  0
M  END
>  <Ligand ID>  (1) 
LIG0002914

>  <Ligand>  (1) 
CHEMBL194787

>  <SMILES>  (1) 
OC(=O)C1=NOC2C1CC(C2)(N)C(=O)O

>  <CID>  (1) 
44404948.0

>  <ChEMBL ID>  (1) 
nan

>  <InChiKey>  (1) 
NTVFQKSMRLANLZ-UHFFFAOYSA-N

>  <InChi>  (1) 
InChI=1S/C8H10N2O5/c9-8(7(13)14)1-3-4(2-8)15-10-5(3)6(11)12/h3-4H,1-2,9H2,(H,11,12)(H,13,14)

>  <IUPAC Name>  (1) 
5-amino-3a,4,6,6a-tetrahydrocyclopenta[d][1,2]oxazole-3,5-dicarboxylic acid

$$$$
