
     RDKit          3D

127129  0  0  0  0  0  0  0  0999 V2000
   11.5056   -0.0963    3.9767 N   0  0  0  0  0  0  0  0  0  0  0  0
   11.1827    0.2619    2.5831 C   0  0  0  0  0  0  0  0  0  0  0  0
    9.9144   -0.3787    2.1461 C   0  0  0  0  0  0  0  0  0  0  0  0
    9.4943   -0.0313    0.7178 C   0  0  1  0  0  0  0  0  0  0  0  0
   10.5313   -0.4654   -0.2579 C   0  0  0  0  0  0  0  0  0  0  0  0
   11.7209   -0.0434   -0.2499 O   0  0  0  0  0  0  0  0  0  0  0  0
   10.2295   -1.4203   -1.2927 N   0  0  0  0  0  0  0  0  0  0  0  0
   11.2151   -1.8837   -2.2496 C   0  0  0  0  0  0  0  0  0  0  0  0
   12.3387   -2.5412   -1.5459 C   0  0  0  0  0  0  0  0  0  0  0  0
   13.2530   -3.0148   -2.3232 O   0  0  0  0  0  0  0  0  0  0  0  0
   12.4511   -2.6664   -0.1424 N   0  0  0  0  0  0  0  0  0  0  0  0
    8.2431   -0.6756    0.4187 N   0  0  0  0  0  0  0  0  0  0  0  0
    6.9774    0.0019    0.2644 C   0  0  0  0  0  0  0  0  0  0  0  0
    6.9912    1.2357    0.4188 O   0  0  0  0  0  0  0  0  0  0  0  0
    5.8553   -0.8658   -0.0547 C   0  0  2  0  0  0  0  0  0  0  0  0
    5.9387   -1.3317   -1.5030 C   0  0  0  0  0  0  0  0  0  0  0  0
    5.0968   -0.3467   -2.2537 C   0  0  0  0  0  0  0  0  0  0  0  0
    4.6062    0.6599   -1.2193 C   0  0  0  0  0  0  0  0  0  0  0  0
    4.5831   -0.1803   -0.0318 N   0  0  0  0  0  0  0  0  0  0  0  0
    3.5890   -0.4646    0.9129 C   0  0  0  0  0  0  0  0  0  0  0  0
    4.0101   -1.1433    1.9526 O   0  0  0  0  0  0  0  0  0  0  0  0
    2.1711   -0.1576    0.9549 C   0  0  2  0  0  0  0  0  0  0  0  0
    1.3968   -1.3858    1.4735 C   0  0  0  0  0  0  0  0  0  0  0  0
   -0.3705   -1.2313    1.2565 S   0  0  0  0  0  0  0  0  0  0  0  0
   -0.8949   -1.4576   -0.8107 S   0  0  0  0  0  0  0  0  0  0  0  0
   -1.2292   -3.2452   -1.0438 C   0  0  0  0  0  0  0  0  0  0  0  0
   -2.4663   -3.6111   -0.2435 C   0  0  2  0  0  0  0  0  0  0  0  0
   -2.7356   -5.0046   -0.3739 N   0  0  0  0  0  0  0  0  0  0  0  0
   -3.6095   -2.7437   -0.6127 C   0  0  0  0  0  0  0  0  0  0  0  0
   -3.3788   -1.6662   -1.1721 O   0  0  0  0  0  0  0  0  0  0  0  0
   -4.9832   -3.0341   -0.3726 N   0  0  0  0  0  0  0  0  0  0  0  0
   -6.0350   -2.1540   -0.8249 C   0  0  1  0  0  0  0  0  0  0  0  0
   -7.1392   -2.8218   -1.5208 C   0  0  0  0  0  0  0  0  0  0  0  0
   -7.7588   -3.9708   -0.7316 C   0  0  0  0  0  0  0  0  0  0  0  0
   -7.3758   -5.2479   -1.0554 C   0  0  0  0  0  0  0  0  0  0  0  0
   -7.9470   -6.2681   -0.3250 C   0  0  0  0  0  0  0  0  0  0  0  0
   -9.0554   -5.4458    0.8580 S   0  0  0  0  0  0  0  0  0  0  0  0
   -8.6372   -3.8196    0.2470 C   0  0  0  0  0  0  0  0  0  0  0  0
   -6.2952   -0.9458   -0.0272 C   0  0  0  0  0  0  0  0  0  0  0  0
   -5.9886   -0.7201    1.1349 O   0  0  0  0  0  0  0  0  0  0  0  0
   -7.0030    0.1298   -0.7048 N   0  0  0  0  0  0  0  0  0  0  0  0
   -7.2623    1.4414   -0.2694 C   0  0  2  0  0  0  0  0  0  0  0  0
   -6.1216    2.3664   -0.1061 C   0  0  0  0  0  0  0  0  0  0  0  0
   -6.3848    3.5903   -0.0779 O   0  0  0  0  0  0  0  0  0  0  0  0
   -4.7639    2.0476    0.0277 N   0  0  0  0  0  0  0  0  0  0  0  0
   -3.6580    2.9980    0.1160 C   0  0  2  0  0  0  0  0  0  0  0  0
   -2.4525    2.4133   -0.4998 C   0  0  0  0  0  0  0  0  0  0  0  0
   -2.5544    1.3210   -1.0650 O   0  0  0  0  0  0  0  0  0  0  0  0
   -1.1492    2.9990   -0.5103 N   0  0  0  0  0  0  0  0  0  0  0  0
   -0.0476    2.2408   -1.1380 C   0  0  2  0  0  0  0  0  0  0  0  0
    0.6227    1.5399    0.0024 C   0  0  0  0  0  0  0  0  0  0  0  0
    0.4051    1.8446    1.1799 O   0  0  0  0  0  0  0  0  0  0  0  0
    1.5618    0.4539   -0.1808 N   0  0  0  0  0  0  0  0  0  0  0  0
    0.8832    3.1240   -1.8951 C   0  0  0  0  0  0  0  0  0  0  0  0
    0.2387    3.8510   -2.9924 C   0  0  0  0  0  0  0  0  0  0  0  0
   -1.0071    3.6371   -3.1673 O   0  0  0  0  0  0  0  0  0  0  0  0
    0.9085    4.7565   -3.8497 N   0  0  0  0  0  0  0  0  0  0  0  0
   -3.3485    3.5079    1.4887 C   0  0  0  0  0  0  0  0  0  0  0  0
   -4.4643    4.2340    2.1620 C   0  0  0  0  0  0  0  0  0  0  0  0
   -3.9702    4.6865    3.5122 C   0  0  0  0  0  0  0  0  0  0  0  0
   -2.8621    4.2786    3.9709 O   0  0  0  0  0  0  0  0  0  0  0  0
   -4.8204    5.5914    4.2273 N   0  0  0  0  0  0  0  0  0  0  0  0
   -8.3774    1.6446    0.7260 C   0  0  2  0  0  0  0  0  0  0  0  0
   -9.7182    1.2291    0.1508 C   0  0  0  0  0  0  0  0  0  0  0  0
   -9.8129   -0.1939   -0.2655 C   0  0  0  0  0  0  0  0  0  0  0  0
   -8.5275    3.0997    1.1129 C   0  0  0  0  0  0  0  0  0  0  0  0
   10.6081   -0.2701    4.4854 H   0  0  0  0  0  0  0  0  0  0  0  0
   12.0354   -0.9938    3.9944 H   0  0  0  0  0  0  0  0  0  0  0  0
   11.1728    1.3719    2.5638 H   0  0  0  0  0  0  0  0  0  0  0  0
   12.0702   -0.0792    2.0048 H   0  0  0  0  0  0  0  0  0  0  0  0
    9.1025   -0.1155    2.8404 H   0  0  0  0  0  0  0  0  0  0  0  0
   10.0351   -1.4959    2.2418 H   0  0  0  0  0  0  0  0  0  0  0  0
    9.3619    1.0560    0.6581 H   0  0  0  0  0  0  0  0  0  0  0  0
    9.2335   -1.7976   -1.3569 H   0  0  0  0  0  0  0  0  0  0  0  0
   10.7032   -2.6431   -2.9005 H   0  0  0  0  0  0  0  0  0  0  0  0
   11.5611   -1.0398   -2.8836 H   0  0  0  0  0  0  0  0  0  0  0  0
   13.3988   -2.6949    0.2909 H   0  0  0  0  0  0  0  0  0  0  0  0
   11.5491   -2.7270    0.4094 H   0  0  0  0  0  0  0  0  0  0  0  0
    8.2929   -1.7410    0.3370 H   0  0  0  0  0  0  0  0  0  0  0  0
    5.8239   -1.7760    0.6208 H   0  0  0  0  0  0  0  0  0  0  0  0
    5.5778   -2.3778   -1.6057 H   0  0  0  0  0  0  0  0  0  0  0  0
    6.9811   -1.3216   -1.8836 H   0  0  0  0  0  0  0  0  0  0  0  0
    4.2001   -0.8397   -2.6854 H   0  0  0  0  0  0  0  0  0  0  0  0
    5.6462    0.2356   -3.0197 H   0  0  0  0  0  0  0  0  0  0  0  0
    3.6980    1.1795   -1.4636 H   0  0  0  0  0  0  0  0  0  0  0  0
    5.3792    1.4809   -1.0877 H   0  0  0  0  0  0  0  0  0  0  0  0
    2.0462    0.5545    1.8663 H   0  0  0  0  0  0  0  0  0  0  0  0
    1.8153   -2.2620    0.9421 H   0  0  0  0  0  0  0  0  0  0  0  0
    1.6195   -1.5100    2.5503 H   0  0  0  0  0  0  0  0  0  0  0  0
   -1.3854   -3.5204   -2.0797 H   0  0  0  0  0  0  0  0  0  0  0  0
   -0.3881   -3.7942   -0.6311 H   0  0  0  0  0  0  0  0  0  0  0  0
   -2.2151   -3.4628    0.8612 H   0  0  0  0  0  0  0  0  0  0  0  0
   -1.8786   -5.5072    0.0212 H   0  0  0  0  0  0  0  0  0  0  0  0
   -2.6470   -5.2241   -1.4186 H   0  0  0  0  0  0  0  0  0  0  0  0
   -5.1458   -3.9050    0.1440 H   0  0  0  0  0  0  0  0  0  0  0  0
   -5.4543   -1.6332   -1.7418 H   0  0  0  0  0  0  0  0  0  0  0  0
   -7.9605   -2.0630   -1.6858 H   0  0  0  0  0  0  0  0  0  0  0  0
   -6.8480   -3.1365   -2.5372 H   0  0  0  0  0  0  0  0  0  0  0  0
   -6.6434   -5.5141   -1.8526 H   0  0  0  0  0  0  0  0  0  0  0  0
   -7.8192   -7.3575   -0.3904 H   0  0  0  0  0  0  0  0  0  0  0  0
   -9.1304   -2.9860    0.7513 H   0  0  0  0  0  0  0  0  0  0  0  0
   -7.3482   -0.1758   -1.6358 H   0  0  0  0  0  0  0  0  0  0  0  0
   -7.7727    1.9165   -1.2304 H   0  0  0  0  0  0  0  0  0  0  0  0
   -4.5062    1.0634    0.0510 H   0  0  0  0  0  0  0  0  0  0  0  0
   -3.9723    3.9034   -0.4730 H   0  0  0  0  0  0  0  0  0  0  0  0
   -1.0724    3.9099   -0.0826 H   0  0  0  0  0  0  0  0  0  0  0  0
   -0.5338    1.4533   -1.7474 H   0  0  0  0  0  0  0  0  0  0  0  0
    1.6883    0.1999   -1.1642 H   0  0  0  0  0  0  0  0  0  0  0  0
    1.6489    2.4388   -2.3707 H   0  0  0  0  0  0  0  0  0  0  0  0
    1.4825    3.7486   -1.2057 H   0  0  0  0  0  0  0  0  0  0  0  0
    1.6497    5.4323   -3.5329 H   0  0  0  0  0  0  0  0  0  0  0  0
    0.6546    4.7672   -4.8885 H   0  0  0  0  0  0  0  0  0  0  0  0
   -2.5717    4.3256    1.3001 H   0  0  0  0  0  0  0  0  0  0  0  0
   -2.7911    2.8077    2.1380 H   0  0  0  0  0  0  0  0  0  0  0  0
   -5.3407    3.6021    2.3889 H   0  0  0  0  0  0  0  0  0  0  0  0
   -4.7683    5.0866    1.5345 H   0  0  0  0  0  0  0  0  0  0  0  0
   -5.8150    5.3605    4.4798 H   0  0  0  0  0  0  0  0  0  0  0  0
   -4.3667    6.5223    4.4799 H   0  0  0  0  0  0  0  0  0  0  0  0
   -8.2362    0.9982    1.6253 H   0  0  0  0  0  0  0  0  0  0  0  0
  -10.5120    1.5186    0.8701 H   0  0  0  0  0  0  0  0  0  0  0  0
   -9.9216    1.8764   -0.7550 H   0  0  0  0  0  0  0  0  0  0  0  0
   -9.8663   -0.2682   -1.3854 H   0  0  0  0  0  0  0  0  0  0  0  0
  -10.8211   -0.5590    0.0841 H   0  0  0  0  0  0  0  0  0  0  0  0
   -9.0550   -0.8387    0.1620 H   0  0  0  0  0  0  0  0  0  0  0  0
   -9.5092    3.1711    1.6872 H   0  0  0  0  0  0  0  0  0  0  0  0
   -8.7189    3.6511    0.1862 H   0  0  0  0  0  0  0  0  0  0  0  0
   -7.7302    3.4870    1.7588 H   0  0  0  0  0  0  0  0  0  0  0  0
  1  2  1  0
  2  3  1  0
  3  4  1  0
  4  5  1  0
  5  6  2  0
  5  7  1  0
  7  8  1  0
  8  9  1  0
  9 10  2  0
  9 11  1  0
  4 12  1  0
 12 13  1  0
 13 14  2  0
 13 15  1  0
 15 16  1  0
 16 17  1  0
 17 18  1  0
 18 19  1  0
 19 20  1  0
 20 21  2  0
 20 22  1  0
 22 23  1  0
 23 24  1  0
 24 25  1  0
 25 26  1  0
 26 27  1  0
 27 28  1  0
 27 29  1  0
 29 30  2  0
 29 31  1  0
 31 32  1  0
 32 33  1  0
 33 34  1  0
 34 35  1  0
 35 36  2  0
 36 37  1  0
 37 38  1  0
 32 39  1  0
 39 40  2  0
 39 41  1  0
 41 42  1  0
 42 43  1  0
 43 44  2  0
 43 45  1  0
 45 46  1  0
 46 47  1  0
 47 48  2  0
 47 49  1  0
 49 50  1  0
 50 51  1  0
 51 52  2  0
 51 53  1  0
 50 54  1  0
 54 55  1  0
 55 56  2  0
 55 57  1  0
 46 58  1  0
 58 59  1  0
 59 60  1  0
 60 61  2  0
 60 62  1  0
 42 63  1  0
 63 64  1  0
 64 65  1  0
 63 66  1  0
 19 15  1  0
 53 22  1  0
 38 34  2  0
  1 67  1  0
  1 68  1  0
  2 69  1  0
  2 70  1  0
  3 71  1  0
  3 72  1  0
  4 73  1  1
  7 74  1  0
  8 75  1  0
  8 76  1  0
 11 77  1  0
 11 78  1  0
 12 79  1  0
 15 80  1  1
 16 81  1  0
 16 82  1  0
 17 83  1  0
 17 84  1  0
 18 85  1  0
 18 86  1  0
 22 87  1  1
 23 88  1  0
 23 89  1  0
 26 90  1  0
 26 91  1  0
 27 92  1  1
 28 93  1  0
 28 94  1  0
 31 95  1  0
 32 96  1  6
 33 97  1  0
 33 98  1  0
 35 99  1  0
 36100  1  0
 38101  1  0
 41102  1  0
 42103  1  6
 45104  1  0
 46105  1  6
 49106  1  0
 50107  1  6
 53108  1  0
 54109  1  0
 54110  1  0
 57111  1  0
 57112  1  0
 58113  1  0
 58114  1  0
 59115  1  0
 59116  1  0
 62117  1  0
 62118  1  0
 63119  1  1
 64120  1  0
 64121  1  0
 65122  1  0
 65123  1  0
 65124  1  0
 66125  1  0
 66126  1  0
 66127  1  0
M  END
>  <Ligand ID>  (1) 
LIG0001618

>  <Ligand>  (1) 
CHEMBL1819549

>  <SMILES>  (1) 
NCC[C@@H](C(=O)NCC(=O)N)NC(=O)[C@@H]1CCCN1C(=O)[C@@H]1CSSC[C@H](N)C(=O)N[C@@H](Cc2ccsc2)C(=O)N[C@H](C(=O)N[C@H](C(=O)N[C@H](C(=O)N1)CC(=O)N)CCC(=O)N)[C@H](CC)C

>  <CID>  (1) 
53362851.0

>  <ChEMBL ID>  (1) 
nan

>  <InChiKey>  (1) 
QKCJUEFLVRTAKM-DSMBUKBGSA-N

>  <InChi>  (1) 
InChI=1S/C39H61N13O11S3/c1-3-19(2)31-38(62)47-22(6-7-28(42)53)34(58)49-25(14-29(43)54)35(59)50-26(18-66-65-17-21(41)32(56)48-24(36(60)51-31)13-20-9-12-64-16-20)39(63)52-11-4-5-27(52)37(61)46-23(8-10-40)33(57)45-15-30(44)55/h9,12,16,19,21-27,31H,3-8,10-11,13-15,17-18,40-41H2,1-2H3,(H2,42,53)(H2,43,54)(H2,44,55)(H,45,57)(H,46,61)(H,47,62)(H,48,56)(H,49,58)(H,50,59)(H,51,60)/t19-,21-,22-,23-,24-,25-,26-,27-,31-/m0/s1

>  <IUPAC Name>  (1) 
(2S)-N-[(2S)-4-amino-1-[(2-amino-2-oxoethyl)amino]-1-oxobutan-2-yl]-1-[(4R,7S,10S,13S,16S,19R)-19-amino-7-(2-amino-2-oxoethyl)-10-(3-amino-3-oxopropyl)-13-[(2S)-butan-2-yl]-6,9,12,15,18-pentaoxo-16-(thiophen-3-ylmethyl)-1,2-dithia-5,8,11,14,17-pentazacycloicosane-4-carbonyl]pyrrolidine-2-carboxamide

$$$$
