
     RDKit          3D

 35 32  0  0  0  0  0  0  0  0999 V2000
   -4.2326   -0.2280    1.1411 C   0  0  0  0  0  0  0  0  0  0  0  0
   -3.1848   -0.4559    0.0419 C   0  0  0  0  0  0  0  0  0  0  0  0
   -2.5198    0.8795   -0.2381 C   0  0  0  0  0  0  0  0  0  0  0  0
   -1.5032    0.7960   -1.2646 N   0  0  0  0  0  0  0  0  0  0  0  0
   -0.3655    0.0207   -0.7814 C   0  0  1  0  0  0  0  0  0  0  0  0
    0.7099   -0.0708   -1.8491 C   0  0  0  0  0  0  0  0  0  0  0  0
    1.6854   -1.1285   -1.3136 C   0  0  0  0  0  0  0  0  0  0  0  0
    2.4059   -0.4187   -0.2034 C   0  0  0  0  0  0  0  0  0  0  0  0
    1.5997    0.3564    0.6276 C   0  0  0  0  0  0  0  0  0  0  0  0
    0.1708    0.5219    0.5078 C   0  0  0  0  0  0  0  0  0  0  0  0
    2.7449    1.0263    1.7835 S   0  0  0  0  0  0  0  0  0  0  0  0
    4.2355    0.1562    0.9902 C   0  0  0  0  0  0  0  0  0  0  0  0
    3.6727   -0.4100    0.1090 N   0  0  0  0  0  0  0  0  0  0  0  0
    5.5227    0.3472    1.5481 N   0  0  0  0  0  0  0  0  0  0  0  0
    0.0000    0.0000    0.0000 Cl  0  0  0  0  0  0  0  0  0  0  0  0
    0.0000    0.0000    0.0000 Cl  0  0  0  0  0  0  0  0  0  0  0  0
    0.0000    0.0000    0.0000 H   0  0  0  0  0 15  0  0  0  0  0  0
    0.0000    0.0000    0.0000 H   0  0  0  0  0 15  0  0  0  0  0  0
   -5.1409    0.2142    0.6847 H   0  0  0  0  0  0  0  0  0  0  0  0
   -3.8155    0.4150    1.9426 H   0  0  0  0  0  0  0  0  0  0  0  0
   -4.5211   -1.2040    1.5731 H   0  0  0  0  0  0  0  0  0  0  0  0
   -3.7020   -0.8372   -0.8470 H   0  0  0  0  0  0  0  0  0  0  0  0
   -2.4283   -1.1394    0.4727 H   0  0  0  0  0  0  0  0  0  0  0  0
   -3.2773    1.6214   -0.6007 H   0  0  0  0  0  0  0  0  0  0  0  0
   -2.0610    1.3029    0.6761 H   0  0  0  0  0  0  0  0  0  0  0  0
   -1.8365    0.3725   -2.1473 H   0  0  0  0  0  0  0  0  0  0  0  0
   -0.7352   -1.0290   -0.6496 H   0  0  0  0  0  0  0  0  0  0  0  0
    1.2347    0.9056   -1.8866 H   0  0  0  0  0  0  0  0  0  0  0  0
    0.2747   -0.3922   -2.8083 H   0  0  0  0  0  0  0  0  0  0  0  0
    1.1194   -1.9313   -0.8441 H   0  0  0  0  0  0  0  0  0  0  0  0
    2.3443   -1.5261   -2.0837 H   0  0  0  0  0  0  0  0  0  0  0  0
   -0.3661    0.0081    1.3509 H   0  0  0  0  0  0  0  0  0  0  0  0
   -0.0490    1.6199    0.6207 H   0  0  0  0  0  0  0  0  0  0  0  0
    6.1925    0.9436    0.9783 H   0  0  0  0  0  0  0  0  0  0  0  0
    5.8259   -0.0646    2.4693 H   0  0  0  0  0  0  0  0  0  0  0  0
  1  2  1  0
  2  3  1  0
  3  4  1  0
  4  5  1  0
  5  6  1  0
  6  7  1  0
  7  8  1  0
  8  9  2  0
  9 10  1  0
  9 11  1  0
 11 12  1  0
 12 13  2  0
 12 14  1  0
 10  5  1  0
 13  8  1  0
  1 19  1  0
  1 20  1  0
  1 21  1  0
  2 22  1  0
  2 23  1  0
  3 24  1  0
  3 25  1  0
  4 26  1  0
  5 27  1  1
  6 28  1  0
  6 29  1  0
  7 30  1  0
  7 31  1  0
 10 32  1  0
 10 33  1  0
 14 34  1  0
 14 35  1  0
M  CHG  4  15  -1  16  -1  17   1  18   1
M  END
>  <Ligand ID>  (1) 
LIG0005071

>  <Ligand>  (1) 
CID 25137927

>  <SMILES>  (1) 
CCCN[C@H]1CCc2c(C1)sc(n2)N.[Cl-].[Cl-].[H+].[H+]

>  <CID>  (1) 
25137927.0

>  <ChEMBL ID>  (1) 
nan

>  <InChiKey>  (1) 
QMNWXHSYPXQFSK-KLXURFKVSA-N

>  <InChi>  (1) 
InChI=1S/C10H17N3S.2ClH/c1-2-5-12-7-3-4-8-9(6-7)14-10(11)13-8;;/h7,12H,2-6H2,1H3,(H2,11,13);2*1H/t7-;;/m0../s1

>  <IUPAC Name>  (1) 
hydron;(6S)-6-N-propyl-4,5,6,7-tetrahydro-1,3-benzothiazole-2,6-diamine;dichloride

$$$$
