
     RDKit          3D

 26 25  0  0  0  0  0  0  0  0999 V2000
   -2.4841    1.2964    0.4603 C   0  0  0  0  0  0  0  0  0  0  0  0
   -1.7724    0.8669   -0.8070 C   0  0  0  0  0  0  0  0  0  0  0  0
   -1.4876   -0.6135   -0.7452 C   0  0  0  0  0  0  0  0  0  0  0  0
   -0.6115   -0.9814    0.4324 C   0  0  0  0  0  0  0  0  0  0  0  0
    0.6934   -0.3229    0.4124 C   0  0  0  0  0  0  0  0  0  0  0  0
    1.0500    0.4385    1.3538 O   0  0  0  0  0  0  0  0  0  0  0  0
    1.5675   -0.5116   -0.6270 O   0  0  0  0  0  0  0  0  0  0  0  0
    2.8410    0.0830   -0.7246 C   0  0  0  0  0  0  0  0  0  0  0  0
    2.8143    1.5931   -0.7363 C   0  0  0  0  0  0  0  0  0  0  0  0
   -0.5106   -2.4953    0.4505 C   0  0  0  0  0  0  0  0  0  0  0  0
   -1.8031    1.5522    1.2772 H   0  0  0  0  0  0  0  0  0  0  0  0
   -3.1968    2.1339    0.2244 H   0  0  0  0  0  0  0  0  0  0  0  0
   -3.1480    0.4331    0.7404 H   0  0  0  0  0  0  0  0  0  0  0  0
   -0.9155    1.4892   -1.0583 H   0  0  0  0  0  0  0  0  0  0  0  0
   -2.5369    0.9954   -1.6172 H   0  0  0  0  0  0  0  0  0  0  0  0
   -2.4690   -1.1223   -0.6533 H   0  0  0  0  0  0  0  0  0  0  0  0
   -1.0755   -0.9538   -1.7173 H   0  0  0  0  0  0  0  0  0  0  0  0
   -1.2002   -0.7173    1.3363 H   0  0  0  0  0  0  0  0  0  0  0  0
    3.3111   -0.2828   -1.6616 H   0  0  0  0  0  0  0  0  0  0  0  0
    3.5400   -0.2072    0.0912 H   0  0  0  0  0  0  0  0  0  0  0  0
    2.6620    2.0186    0.2726 H   0  0  0  0  0  0  0  0  0  0  0  0
    2.1726    2.0112   -1.5131 H   0  0  0  0  0  0  0  0  0  0  0  0
    3.8643    1.8963   -1.0076 H   0  0  0  0  0  0  0  0  0  0  0  0
   -0.1780   -2.8368    1.4688 H   0  0  0  0  0  0  0  0  0  0  0  0
   -1.4381   -2.9729    0.1179 H   0  0  0  0  0  0  0  0  0  0  0  0
    0.3110   -2.7899   -0.2361 H   0  0  0  0  0  0  0  0  0  0  0  0
  1  2  1  0
  2  3  1  0
  3  4  1  0
  4  5  1  0
  5  6  2  0
  5  7  1  0
  7  8  1  0
  8  9  1  0
  4 10  1  0
  1 11  1  0
  1 12  1  0
  1 13  1  0
  2 14  1  0
  2 15  1  0
  3 16  1  0
  3 17  1  0
  4 18  1  0
  8 19  1  0
  8 20  1  0
  9 21  1  0
  9 22  1  0
  9 23  1  0
 10 24  1  0
 10 25  1  0
 10 26  1  0
M  END
>  <Ligand ID>  (1) 
LIG0000401

>  <Ligand>  (1) 
ethyl 2-methylpentanoate

>  <SMILES>  (1) 
CCCC(C(=O)OCC)C

>  <CID>  (1) 
62902.0

>  <ChEMBL ID>  (1) 
nan

>  <InChiKey>  (1) 
HZPKNSYIDSNZKW-UHFFFAOYSA-N

>  <InChi>  (1) 
InChI=1S/C8H16O2/c1-4-6-7(3)8(9)10-5-2/h7H,4-6H2,1-3H3

>  <IUPAC Name>  (1) 
ethyl 2-methylpentanoate

$$$$
