
     RDKit          3D

 73 76  0  0  0  0  0  0  0  0999 V2000
   -5.2832   -3.5243   -1.1345 C   0  0  0  0  0  0  0  0  0  0  0  0
   -4.3759   -3.1119   -0.0817 N   0  0  0  0  0  0  0  0  0  0  0  0
   -3.1556   -2.4333   -0.3349 C   0  0  0  0  0  0  0  0  0  0  0  0
   -2.8396   -2.1741   -1.5256 O   0  0  0  0  0  0  0  0  0  0  0  0
   -2.2206   -2.0103    0.7532 C   0  0  1  0  0  0  0  0  0  0  0  0
   -1.0261   -1.4436    0.1750 N   0  0  0  0  0  0  0  0  0  0  0  0
   -1.0027   -0.2107   -0.6004 C   0  0  0  0  0  0  0  0  0  0  0  0
   -0.1027   -0.4313   -1.8267 C   0  0  0  0  0  0  0  0  0  0  0  0
    1.2983   -0.7274   -1.2679 N   0  0  0  0  0  0  0  0  0  0  0  0
    1.3460   -2.0073   -0.6915 C   0  0  2  0  0  0  0  0  0  0  0  0
    0.2156   -2.1027    0.3236 C   0  0  0  0  0  0  0  0  0  0  0  0
    0.3982   -2.8154    1.3630 O   0  0  0  0  0  0  0  0  0  0  0  0
    2.5421   -2.6549   -0.1562 C   0  0  0  0  0  0  0  0  0  0  0  0
    3.2648   -2.0340    0.9752 C   0  0  0  0  0  0  0  0  0  0  0  0
    3.4073   -3.1924   -1.2641 C   0  0  0  0  0  0  0  0  0  0  0  0
    2.1428    0.3548   -1.4591 C   0  0  0  0  0  0  0  0  0  0  0  0
    1.4383    1.3890   -1.9778 O   0  0  0  0  0  0  0  0  0  0  0  0
    3.5153    0.7123   -1.2808 C   0  0  1  0  0  0  0  0  0  0  0  0
    3.5775    1.7880   -0.1813 C   0  0  0  0  0  0  0  0  0  0  0  0
    4.9523    2.2421    0.0906 C   0  0  0  0  0  0  0  0  0  0  0  0
    5.7877    1.7158    1.0420 C   0  0  0  0  0  0  0  0  0  0  0  0
    7.0739    2.2064    1.2338 C   0  0  0  0  0  0  0  0  0  0  0  0
    7.5531    3.2609    0.4521 C   0  0  0  0  0  0  0  0  0  0  0  0
    6.7153    3.7796   -0.4932 C   0  0  0  0  0  0  0  0  0  0  0  0
    5.4247    3.2982   -0.6963 C   0  0  0  0  0  0  0  0  0  0  0  0
    8.8053    3.6890    0.6871 F   0  0  0  0  0  0  0  0  0  0  0  0
    4.5374   -0.2419   -1.1617 N   0  0  0  0  0  0  0  0  0  0  0  0
   -2.8588   -1.2231    1.8389 C   0  0  0  0  0  0  0  0  0  0  0  0
   -3.4999    0.0488    1.4540 C   0  0  0  0  0  0  0  0  0  0  0  0
   -2.8631    1.2728    1.4752 C   0  0  0  0  0  0  0  0  0  0  0  0
   -3.4569    2.4559    1.1170 C   0  0  0  0  0  0  0  0  0  0  0  0
   -4.7663    2.4781    0.7041 C   0  0  0  0  0  0  0  0  0  0  0  0
   -5.4432    1.2779    0.6674 C   0  0  0  0  0  0  0  0  0  0  0  0
   -4.8349    0.0795    1.0323 C   0  0  0  0  0  0  0  0  0  0  0  0
   -6.7694    1.2901    0.2503 C   0  0  0  0  0  0  0  0  0  0  0  0
   -7.4173    2.4512   -0.1222 C   0  0  0  0  0  0  0  0  0  0  0  0
   -6.7229    3.6601   -0.0812 C   0  0  0  0  0  0  0  0  0  0  0  0
   -5.3919    3.6474    0.3375 C   0  0  0  0  0  0  0  0  0  0  0  0
   -4.7481   -3.7485   -2.0906 H   0  0  0  0  0  0  0  0  0  0  0  0
   -6.0884   -2.7941   -1.3112 H   0  0  0  0  0  0  0  0  0  0  0  0
   -5.7248   -4.5012   -0.8257 H   0  0  0  0  0  0  0  0  0  0  0  0
   -4.6179   -3.3170    0.9242 H   0  0  0  0  0  0  0  0  0  0  0  0
   -1.9029   -2.9855    1.2591 H   0  0  0  0  0  0  0  0  0  0  0  0
   -1.9852    0.0774   -1.0049 H   0  0  0  0  0  0  0  0  0  0  0  0
   -0.5330    0.6301   -0.0597 H   0  0  0  0  0  0  0  0  0  0  0  0
   -0.0761    0.4501   -2.4327 H   0  0  0  0  0  0  0  0  0  0  0  0
   -0.3736   -1.3317   -2.3955 H   0  0  0  0  0  0  0  0  0  0  0  0
    0.9576   -2.7289   -1.5046 H   0  0  0  0  0  0  0  0  0  0  0  0
    2.1249   -3.6419    0.3138 H   0  0  0  0  0  0  0  0  0  0  0  0
    3.1293   -0.9575    1.1329 H   0  0  0  0  0  0  0  0  0  0  0  0
    3.0691   -2.4968    1.9793 H   0  0  0  0  0  0  0  0  0  0  0  0
    4.3716   -2.1960    0.8193 H   0  0  0  0  0  0  0  0  0  0  0  0
    3.2906   -2.5696   -2.1956 H   0  0  0  0  0  0  0  0  0  0  0  0
    3.2967   -4.2547   -1.4790 H   0  0  0  0  0  0  0  0  0  0  0  0
    4.4781   -3.0303   -0.9393 H   0  0  0  0  0  0  0  0  0  0  0  0
    3.8110    1.3347   -2.2140 H   0  0  0  0  0  0  0  0  0  0  0  0
    3.1432    1.4041    0.7633 H   0  0  0  0  0  0  0  0  0  0  0  0
    2.9181    2.6476   -0.4630 H   0  0  0  0  0  0  0  0  0  0  0  0
    5.4145    0.8995    1.6468 H   0  0  0  0  0  0  0  0  0  0  0  0
    7.6798    1.7440    2.0031 H   0  0  0  0  0  0  0  0  0  0  0  0
    7.0959    4.6059   -1.1031 H   0  0  0  0  0  0  0  0  0  0  0  0
    4.8366    3.7645   -1.4600 H   0  0  0  0  0  0  0  0  0  0  0  0
    5.3375   -0.0231   -0.5638 H   0  0  0  0  0  0  0  0  0  0  0  0
    4.8074   -0.7195   -2.0565 H   0  0  0  0  0  0  0  0  0  0  0  0
   -2.0616   -1.0596    2.6227 H   0  0  0  0  0  0  0  0  0  0  0  0
   -3.6226   -1.8344    2.4073 H   0  0  0  0  0  0  0  0  0  0  0  0
   -1.8331    1.3194    1.7972 H   0  0  0  0  0  0  0  0  0  0  0  0
   -2.9120    3.3996    1.1499 H   0  0  0  0  0  0  0  0  0  0  0  0
   -5.4441   -0.7937    0.9744 H   0  0  0  0  0  0  0  0  0  0  0  0
   -7.3061    0.3577    0.2182 H   0  0  0  0  0  0  0  0  0  0  0  0
   -8.4680    2.4364   -0.4490 H   0  0  0  0  0  0  0  0  0  0  0  0
   -7.2135    4.5947   -0.3715 H   0  0  0  0  0  0  0  0  0  0  0  0
   -4.8155    4.5591    0.3847 H   0  0  0  0  0  0  0  0  0  0  0  0
  1  2  1  0
  2  3  1  0
  3  4  2  0
  3  5  1  0
  5  6  1  0
  6  7  1  0
  7  8  1  0
  8  9  1  0
  9 10  1  0
 10 11  1  0
 11 12  2  0
 10 13  1  0
 13 14  1  0
 13 15  1  0
  9 16  1  0
 16 17  2  0
 16 18  1  0
 18 19  1  0
 19 20  1  0
 20 21  2  0
 21 22  1  0
 22 23  2  0
 23 24  1  0
 24 25  2  0
 23 26  1  0
 18 27  1  0
  5 28  1  0
 28 29  1  0
 29 30  2  0
 30 31  1  0
 31 32  2  0
 32 33  1  0
 33 34  2  0
 33 35  1  0
 35 36  2  0
 36 37  1  0
 37 38  2  0
 11  6  1  0
 25 20  1  0
 34 29  1  0
 38 32  1  0
  1 39  1  0
  1 40  1  0
  1 41  1  0
  2 42  1  0
  5 43  1  1
  7 44  1  0
  7 45  1  0
  8 46  1  0
  8 47  1  0
 10 48  1  6
 13 49  1  0
 14 50  1  0
 14 51  1  0
 14 52  1  0
 15 53  1  0
 15 54  1  0
 15 55  1  0
 18 56  1  6
 19 57  1  0
 19 58  1  0
 21 59  1  0
 22 60  1  0
 24 61  1  0
 25 62  1  0
 27 63  1  0
 27 64  1  0
 28 65  1  0
 28 66  1  0
 30 67  1  0
 31 68  1  0
 34 69  1  0
 35 70  1  0
 36 71  1  0
 37 72  1  0
 38 73  1  0
M  END
>  <Ligand ID>  (1) 
LIG0003417

>  <Ligand>  (1) 
CHEMBL460142

>  <SMILES>  (1) 
CNC(=O)[C@@H](N1CCN([C@H](C1=O)C(C)C)C(=O)[C@@H](Cc1ccc(cc1)F)N)Cc1ccc2c(c1)cccc2

>  <CID>  (1) 
25132525.0

>  <ChEMBL ID>  (1) 
nan

>  <InChiKey>  (1) 
SUZIFVSOOKUPKE-PVHODMMVSA-N

>  <InChi>  (1) 
InChI=1S/C30H35FN4O3/c1-19(2)27-30(38)34(14-15-35(27)29(37)25(32)17-20-9-12-24(31)13-10-20)26(28(36)33-3)18-21-8-11-22-6-4-5-7-23(22)16-21/h4-13,16,19,25-27H,14-15,17-18,32H2,1-3H3,(H,33,36)/t25-,26+,27+/m1/s1

>  <IUPAC Name>  (1) 
(2S)-2-[(3S)-4-[(2R)-2-amino-3-(4-fluorophenyl)propanoyl]-2-oxo-3-propan-2-ylpiperazin-1-yl]-N-methyl-3-naphthalen-2-ylpropanamide

$$$$
