
     RDKit          3D

 69 71  0  0  0  0  0  0  0  0999 V2000
   -7.1979   -3.1419    1.3382 O   0  0  0  0  0  0  0  0  0  0  0  0
   -7.0771   -2.5321    0.0942 C   0  0  0  0  0  0  0  0  0  0  0  0
   -7.7036   -1.1622    0.1950 C   0  0  1  0  0  0  0  0  0  0  0  0
   -7.0698   -0.3897    1.1531 O   0  0  0  0  0  0  0  0  0  0  0  0
   -6.2117    0.5596    0.6358 C   0  0  2  0  0  0  0  0  0  0  0  0
   -5.6567    1.2495    1.7012 O   0  0  0  0  0  0  0  0  0  0  0  0
   -3.9899    1.1607    1.7893 P   0  0  0  0  0  0  0  0  0  0  0  0
   -3.5280    0.4984    3.0894 O   0  0  0  0  0  0  0  0  0  0  0  0
   -3.4054    0.3455    0.4468 O   0  0  0  0  0  0  0  0  0  0  0  0
   -2.5070   -1.0003    0.8609 P   0  0  0  0  0  0  0  0  0  0  0  0
   -3.4083   -2.2177    0.6556 O   0  0  0  0  0  0  0  0  0  0  0  0
   -1.1936   -1.1418   -0.1648 O   0  0  0  0  0  0  0  0  0  0  0  0
   -0.7423    0.2847   -0.9102 P   0  0  0  0  0  0  0  0  0  0  0  0
   -0.6713    0.0019   -2.4119 O   0  0  0  0  0  0  0  0  0  0  0  0
    0.8266    0.6747   -0.4061 O   0  0  0  0  0  0  0  0  0  0  0  0
    1.6339   -0.7855   -0.1262 P   0  0  0  0  0  0  0  0  0  0  0  0
    1.3979   -1.1458    1.3178 O   0  0  0  0  0  0  0  0  0  0  0  0
    3.2994   -0.6245   -0.3563 O   0  0  0  0  0  0  0  0  0  0  0  0
    3.6100    0.2490   -1.3744 C   0  0  0  0  0  0  0  0  0  0  0  0
    5.1002    0.4006   -1.5887 C   0  0  1  0  0  0  0  0  0  0  0  0
    5.7564    0.8728   -0.4813 O   0  0  0  0  0  0  0  0  0  0  0  0
    7.0704    0.4011   -0.6229 C   0  0  2  0  0  0  0  0  0  0  0  0
    6.8190   -1.0614   -0.9258 C   0  0  1  0  0  0  0  0  0  0  0  0
    5.6732   -0.9389   -1.9376 C   0  0  2  0  0  0  0  0  0  0  0  0
    6.1807   -0.8535   -3.2364 O   0  0  0  0  0  0  0  0  0  0  0  0
    7.9135   -1.7007   -1.4944 O   0  0  0  0  0  0  0  0  0  0  0  0
    7.8407    0.6203    0.5669 N   0  0  0  0  0  0  0  0  0  0  0  0
    8.8927   -0.1279    0.9352 C   0  0  0  0  0  0  0  0  0  0  0  0
    9.6031    0.1281    2.0970 C   0  0  0  0  0  0  0  0  0  0  0  0
    9.2381    1.1815    2.9218 C   0  0  0  0  0  0  0  0  0  0  0  0
    9.8708    1.4304    3.9817 O   0  0  0  0  0  0  0  0  0  0  0  0
    8.1779    1.9131    2.5239 N   0  0  0  0  0  0  0  0  0  0  0  0
    7.4963    1.6464    1.3838 C   0  0  0  0  0  0  0  0  0  0  0  0
    6.5249    2.3812    1.0965 O   0  0  0  0  0  0  0  0  0  0  0  0
    0.9660   -1.9472   -1.1350 O   0  0  0  0  0  0  0  0  0  0  0  0
   -1.8302    1.5456   -0.6594 O   0  0  0  0  0  0  0  0  0  0  0  0
   -1.9585   -0.9508    2.4573 O   0  0  0  0  0  0  0  0  0  0  0  0
   -3.2819    2.7130    1.8184 O   0  0  0  0  0  0  0  0  0  0  0  0
   -7.0014    1.5848   -0.1764 C   0  0  1  0  0  0  0  0  0  0  0  0
   -8.1690    0.9621   -0.8706 C   0  0  2  0  0  0  0  0  0  0  0  0
   -7.8438   -0.4964   -1.1436 C   0  0  2  0  0  0  0  0  0  0  0  0
   -8.9439   -1.0347   -1.7738 F   0  0  0  0  0  0  0  0  0  0  0  0
   -8.4960    1.6588   -2.0309 O   0  0  0  0  0  0  0  0  0  0  0  0
   -7.3650    2.6463    0.6484 O   0  0  0  0  0  0  0  0  0  0  0  0
   -8.1590   -3.1234    1.5793 H   0  0  0  0  0  0  0  0  0  0  0  0
   -7.7166   -3.1087   -0.6165 H   0  0  0  0  0  0  0  0  0  0  0  0
   -6.0288   -2.5059   -0.2130 H   0  0  0  0  0  0  0  0  0  0  0  0
   -8.7519   -1.3177    0.5785 H   0  0  0  0  0  0  0  0  0  0  0  0
   -5.4500    0.0517    0.0031 H   0  0  0  0  0  0  0  0  0  0  0  0
    3.1077    1.2071   -1.1667 H   0  0  0  0  0  0  0  0  0  0  0  0
    3.1566   -0.1631   -2.2992 H   0  0  0  0  0  0  0  0  0  0  0  0
    5.2416    1.1533   -2.3950 H   0  0  0  0  0  0  0  0  0  0  0  0
    7.5479    0.8189   -1.5525 H   0  0  0  0  0  0  0  0  0  0  0  0
    6.4187   -1.5889   -0.0332 H   0  0  0  0  0  0  0  0  0  0  0  0
    5.0140   -1.7930   -1.7849 H   0  0  0  0  0  0  0  0  0  0  0  0
    5.5658   -0.3565   -3.8312 H   0  0  0  0  0  0  0  0  0  0  0  0
    7.7269   -2.6860   -1.3737 H   0  0  0  0  0  0  0  0  0  0  0  0
    9.1985   -0.9554    0.3101 H   0  0  0  0  0  0  0  0  0  0  0  0
   10.4545   -0.4621    2.4133 H   0  0  0  0  0  0  0  0  0  0  0  0
    7.8712    2.7253    3.1293 H   0  0  0  0  0  0  0  0  0  0  0  0
    1.5399   -2.7441   -1.2553 H   0  0  0  0  0  0  0  0  0  0  0  0
   -2.4722    1.5491   -1.4137 H   0  0  0  0  0  0  0  0  0  0  0  0
   -1.1857   -0.3214    2.4560 H   0  0  0  0  0  0  0  0  0  0  0  0
   -3.4857    3.2230    0.9986 H   0  0  0  0  0  0  0  0  0  0  0  0
   -6.2801    1.9746   -0.9415 H   0  0  0  0  0  0  0  0  0  0  0  0
   -9.0362    0.9321   -0.1580 H   0  0  0  0  0  0  0  0  0  0  0  0
   -6.9599   -0.6230   -1.7939 H   0  0  0  0  0  0  0  0  0  0  0  0
   -9.3809    1.3407   -2.3515 H   0  0  0  0  0  0  0  0  0  0  0  0
   -6.5760    2.9161    1.1755 H   0  0  0  0  0  0  0  0  0  0  0  0
  1  2  1  0
  2  3  1  0
  3  4  1  0
  4  5  1  0
  5  6  1  0
  6  7  1  0
  7  8  2  0
  7  9  1  0
  9 10  1  0
 10 11  2  0
 10 12  1  0
 12 13  1  0
 13 14  2  0
 13 15  1  0
 15 16  1  0
 16 17  2  0
 16 18  1  0
 18 19  1  0
 19 20  1  0
 20 21  1  0
 21 22  1  0
 22 23  1  0
 23 24  1  0
 24 25  1  0
 23 26  1  0
 22 27  1  0
 27 28  1  0
 28 29  2  0
 29 30  1  0
 30 31  2  0
 30 32  1  0
 32 33  1  0
 33 34  2  0
 16 35  1  0
 13 36  1  0
 10 37  1  0
  7 38  1  0
  5 39  1  0
 39 40  1  0
 40 41  1  0
 41 42  1  0
 40 43  1  0
 39 44  1  0
 41  3  1  0
 24 20  1  0
 33 27  1  0
  1 45  1  0
  2 46  1  0
  2 47  1  0
  3 48  1  1
  5 49  1  6
 19 50  1  0
 19 51  1  0
 20 52  1  6
 22 53  1  6
 23 54  1  1
 24 55  1  6
 25 56  1  0
 26 57  1  0
 28 58  1  0
 29 59  1  0
 32 60  1  0
 35 61  1  0
 36 62  1  0
 37 63  1  0
 38 64  1  0
 39 65  1  6
 40 66  1  1
 41 67  1  6
 43 68  1  0
 44 69  1  0
M  END
>  <Ligand ID>  (1) 
LIG0002822

>  <Ligand>  (1) 
CHEMBL1784293

>  <SMILES>  (1) 
OC[C@H]1O[C@H](OP(=O)(OP(=O)(OP(=O)(OP(=O)(OC[C@H]2O[C@H]([C@@H]([C@@H]2O)O)n2ccc(=O)[nH]c2=O)O)O)O)O)[C@@H]([C@H]([C@@H]1F)O)O

>  <CID>  (1) 
53309530.0

>  <ChEMBL ID>  (1) 
nan

>  <InChiKey>  (1) 
NVBJHOWMMXNNQT-JZMIEXBBSA-N

>  <InChi>  (1) 
InChI=1S/C15H25FN2O22P4/c16-8-5(3-19)36-14(12(24)10(8)22)37-42(28,29)39-44(32,33)40-43(30,31)38-41(26,27)34-4-6-9(21)11(23)13(35-6)18-2-1-7(20)17-15(18)25/h1-2,5-6,8-14,19,21-24H,3-4H2,(H,26,27)(H,28,29)(H,30,31)(H,32,33)(H,17,20,25)/t5-,6-,8-,9-,10+,11-,12-,13-,14-/m1/s1

>  <IUPAC Name>  (1) 
[[(2R,3S,4R,5R)-5-(2,4-dioxopyrimidin-1-yl)-3,4-dihydroxyoxolan-2-yl]methoxy-hydroxyphosphoryl] [[[(2R,3R,4R,5S,6R)-5-fluoro-3,4-dihydroxy-6-(hydroxymethyl)oxan-2-yl]oxy-hydroxyphosphoryl]oxy-hydroxyphosphoryl] hydrogen phosphate

$$$$
