
     RDKit          3D

 33 35  0  0  0  0  0  0  0  0999 V2000
    5.4278    0.7462   -0.6477 C   0  0  0  0  0  0  0  0  0  0  0  0
    4.0808    0.6507   -1.0752 O   0  0  0  0  0  0  0  0  0  0  0  0
    3.0660    0.2911   -0.1991 C   0  0  0  0  0  0  0  0  0  0  0  0
    3.2801    0.0028    1.1329 C   0  0  0  0  0  0  0  0  0  0  0  0
    2.1828   -0.3416    1.8951 C   0  0  0  0  0  0  0  0  0  0  0  0
    0.8998   -0.4082    1.3862 C   0  0  0  0  0  0  0  0  0  0  0  0
    0.7046   -0.1145    0.0432 C   0  0  0  0  0  0  0  0  0  0  0  0
    1.7827    0.2354   -0.7537 C   0  0  0  0  0  0  0  0  0  0  0  0
   -0.6699   -0.1884   -0.4913 C   0  0  0  0  0  0  0  0  0  0  0  0
   -1.2620   -1.5798   -0.3664 C   0  0  0  0  0  0  0  0  0  0  0  0
   -2.4978   -1.5928   -1.2652 C   0  0  0  0  0  0  0  0  0  0  0  0
   -3.4206   -0.4978   -0.8496 C   0  0  0  0  0  0  0  0  0  0  0  0
   -2.9632    0.5758   -0.1168 C   0  0  0  0  0  0  0  0  0  0  0  0
   -1.5558    0.7373    0.3132 C   0  0  0  0  0  0  0  0  0  0  0  0
   -4.0061    1.4113    0.1195 N   0  0  0  0  0  0  0  0  0  0  0  0
   -5.1032    0.8781   -0.4522 C   0  0  0  0  0  0  0  0  0  0  0  0
   -4.7296   -0.2761   -1.0334 N   0  0  0  0  0  0  0  0  0  0  0  0
    5.5511    1.7279   -0.1051 H   0  0  0  0  0  0  0  0  0  0  0  0
    5.6992   -0.0486    0.0832 H   0  0  0  0  0  0  0  0  0  0  0  0
    6.1027    0.7207   -1.5429 H   0  0  0  0  0  0  0  0  0  0  0  0
    4.2727    0.0517    1.5378 H   0  0  0  0  0  0  0  0  0  0  0  0
    2.3461   -0.5701    2.9469 H   0  0  0  0  0  0  0  0  0  0  0  0
    0.0932   -0.6864    2.0506 H   0  0  0  0  0  0  0  0  0  0  0  0
    1.6040    0.4593   -1.7959 H   0  0  0  0  0  0  0  0  0  0  0  0
   -0.6606    0.0703   -1.5654 H   0  0  0  0  0  0  0  0  0  0  0  0
   -0.5745   -2.3732   -0.6725 H   0  0  0  0  0  0  0  0  0  0  0  0
   -1.6396   -1.6945    0.6717 H   0  0  0  0  0  0  0  0  0  0  0  0
   -2.1496   -1.3939   -2.3079 H   0  0  0  0  0  0  0  0  0  0  0  0
   -3.0022   -2.5730   -1.2315 H   0  0  0  0  0  0  0  0  0  0  0  0
   -1.5012    0.3882    1.3641 H   0  0  0  0  0  0  0  0  0  0  0  0
   -1.2685    1.8048    0.1873 H   0  0  0  0  0  0  0  0  0  0  0  0
   -3.9758    2.3103    0.6489 H   0  0  0  0  0  0  0  0  0  0  0  0
   -6.1131    1.2770   -0.4617 H   0  0  0  0  0  0  0  0  0  0  0  0
  1  2  1  0
  2  3  1  0
  3  4  2  0
  4  5  1  0
  5  6  2  0
  6  7  1  0
  7  8  2  0
  7  9  1  0
  9 10  1  0
 10 11  1  0
 11 12  1  0
 12 13  2  0
 13 14  1  0
 13 15  1  0
 15 16  1  0
 16 17  2  0
  8  3  1  0
 14  9  1  0
 17 12  1  0
  1 18  1  0
  1 19  1  0
  1 20  1  0
  4 21  1  0
  5 22  1  0
  6 23  1  0
  8 24  1  0
  9 25  1  0
 10 26  1  0
 10 27  1  0
 11 28  1  0
 11 29  1  0
 14 30  1  0
 14 31  1  0
 15 32  1  0
 16 33  1  0
M  END
>  <Ligand ID>  (1) 
LIG0004837

>  <Ligand>  (1) 
CHEMBL466916

>  <SMILES>  (1) 
COc1cccc(c1)C1CCc2c(C1)[nH]cn2

>  <CID>  (1) 
44574878.0

>  <ChEMBL ID>  (1) 
nan

>  <InChiKey>  (1) 
PKWGMVNCXHYOBP-UHFFFAOYSA-N

>  <InChi>  (1) 
InChI=1S/C14H16N2O/c1-17-12-4-2-3-10(7-12)11-5-6-13-14(8-11)16-9-15-13/h2-4,7,9,11H,5-6,8H2,1H3,(H,15,16)

>  <IUPAC Name>  (1) 
6-(3-methoxyphenyl)-4,5,6,7-tetrahydro-1H-benzimidazole

$$$$
