
     RDKit          3D

 44 48  0  0  0  0  0  0  0  0999 V2000
    0.7755   -1.5587    1.2564 O   0  0  0  0  0  0  0  0  0  0  0  0
    0.4841   -0.5263    0.5433 C   0  0  0  0  0  0  0  0  0  0  0  0
   -0.9136   -0.2126    0.2968 C   0  0  0  0  0  0  0  0  0  0  0  0
   -1.3601    1.1597    0.6461 C   0  0  0  0  0  0  0  0  0  0  0  0
   -2.8385    1.2717    0.3374 C   0  0  0  0  0  0  0  0  0  0  0  0
   -3.6636    0.3443    1.1908 C   0  0  0  0  0  0  0  0  0  0  0  0
   -3.1987   -1.0661    0.8846 C   0  0  0  0  0  0  0  0  0  0  0  0
   -1.7449   -1.1515    1.2088 C   0  0  0  0  0  0  0  0  0  0  0  0
   -3.5121   -1.3313   -0.5504 C   0  0  0  0  0  0  0  0  0  0  0  0
   -2.7386   -0.3837   -1.4344 C   0  0  0  0  0  0  0  0  0  0  0  0
   -1.2724   -0.5770   -1.1101 C   0  0  0  0  0  0  0  0  0  0  0  0
   -3.1327    1.0193   -1.1157 C   0  0  0  0  0  0  0  0  0  0  0  0
    1.6033    0.2086    0.0677 N   0  0  0  0  0  0  0  0  0  0  0  0
    1.6964    1.4106   -0.6993 C   0  0  0  0  0  0  0  0  0  0  0  0
    2.9979    1.3177   -1.4739 C   0  0  0  0  0  0  0  0  0  0  0  0
    3.8166    0.4562   -0.5697 C   0  0  0  0  0  0  0  0  0  0  0  0
    2.9672   -0.1813    0.3279 C   0  0  0  0  0  0  0  0  0  0  0  0
    3.5779   -1.0176    1.2402 C   0  0  0  0  0  0  0  0  0  0  0  0
    4.9406   -1.2228    1.2774 C   0  0  0  0  0  0  0  0  0  0  0  0
    5.7581   -0.5763    0.3736 C   0  0  0  0  0  0  0  0  0  0  0  0
    5.1836    0.2707   -0.5569 C   0  0  0  0  0  0  0  0  0  0  0  0
   -0.8647    1.9380    0.0757 H   0  0  0  0  0  0  0  0  0  0  0  0
   -1.3011    1.3219    1.7577 H   0  0  0  0  0  0  0  0  0  0  0  0
   -3.1946    2.3129    0.5658 H   0  0  0  0  0  0  0  0  0  0  0  0
   -3.5116    0.5266    2.2661 H   0  0  0  0  0  0  0  0  0  0  0  0
   -4.7036    0.4489    0.8768 H   0  0  0  0  0  0  0  0  0  0  0  0
   -3.7247   -1.8172    1.4926 H   0  0  0  0  0  0  0  0  0  0  0  0
   -1.5807   -0.7956    2.2371 H   0  0  0  0  0  0  0  0  0  0  0  0
   -1.3138   -2.1597    1.0558 H   0  0  0  0  0  0  0  0  0  0  0  0
   -4.6016   -1.0991   -0.6946 H   0  0  0  0  0  0  0  0  0  0  0  0
   -3.3635   -2.3873   -0.8427 H   0  0  0  0  0  0  0  0  0  0  0  0
   -2.8787   -0.6210   -2.4943 H   0  0  0  0  0  0  0  0  0  0  0  0
   -1.1012   -1.6967   -1.1776 H   0  0  0  0  0  0  0  0  0  0  0  0
   -0.6432   -0.1205   -1.8718 H   0  0  0  0  0  0  0  0  0  0  0  0
   -4.2124    1.1808   -1.2627 H   0  0  0  0  0  0  0  0  0  0  0  0
   -2.5511    1.7591   -1.7109 H   0  0  0  0  0  0  0  0  0  0  0  0
    0.9179    1.5705   -1.4598 H   0  0  0  0  0  0  0  0  0  0  0  0
    1.8248    2.3244   -0.0553 H   0  0  0  0  0  0  0  0  0  0  0  0
    3.4747    2.3128   -1.6069 H   0  0  0  0  0  0  0  0  0  0  0  0
    2.8791    0.7546   -2.4218 H   0  0  0  0  0  0  0  0  0  0  0  0
    2.9884   -1.5501    1.9728 H   0  0  0  0  0  0  0  0  0  0  0  0
    5.3968   -1.8930    2.0135 H   0  0  0  0  0  0  0  0  0  0  0  0
    6.8223   -0.7577    0.4279 H   0  0  0  0  0  0  0  0  0  0  0  0
    5.8167    0.7941   -1.2841 H   0  0  0  0  0  0  0  0  0  0  0  0
  1  2  2  0
  2  3  1  0
  3  4  1  0
  4  5  1  0
  5  6  1  0
  6  7  1  0
  7  8  1  0
  7  9  1  0
  9 10  1  0
 10 11  1  0
 10 12  1  0
  2 13  1  0
 13 14  1  0
 14 15  1  0
 15 16  1  0
 16 17  2  0
 17 18  1  0
 18 19  2  0
 19 20  1  0
 20 21  2  0
 11  3  1  0
 17 13  1  0
  8  3  1  0
 21 16  1  0
 12  5  1  0
  4 22  1  0
  4 23  1  0
  5 24  1  0
  6 25  1  0
  6 26  1  0
  7 27  1  0
  8 28  1  0
  8 29  1  0
  9 30  1  0
  9 31  1  0
 10 32  1  0
 11 33  1  0
 11 34  1  0
 12 35  1  0
 12 36  1  0
 14 37  1  0
 14 38  1  0
 15 39  1  0
 15 40  1  0
 18 41  1  0
 19 42  1  0
 20 43  1  0
 21 44  1  0
M  END
>  <Ligand ID>  (1) 
LIG0001377

>  <Ligand>  (1) 
CHEMBL2338178

>  <SMILES>  (1) 
O=C(C12CC3CC(C2)CC(C1)C3)N1CCc2c1cccc2

>  <CID>  (1) 
3579176.0

>  <ChEMBL ID>  (1) 
nan

>  <InChiKey>  (1) 
PUOVTWNUSGOYMF-UHFFFAOYSA-N

>  <InChi>  (1) 
InChI=1S/C19H23NO/c21-18(20-6-5-16-3-1-2-4-17(16)20)19-10-13-7-14(11-19)9-15(8-13)12-19/h1-4,13-15H,5-12H2

>  <IUPAC Name>  (1) 
1-adamantyl(2,3-dihydroindol-1-yl)methanone

$$$$
