
     RDKit          3D

 60 60  0  0  0  0  0  0  0  0999 V2000
   -8.7669    1.3020   -0.0461 C   0  0  0  0  0  0  0  0  0  0  0  0
   -7.5340    0.6041    0.5933 C   0  0  0  0  0  0  0  0  0  0  0  0
   -7.4709   -0.7407   -0.0245 C   0  0  0  0  0  0  0  0  0  0  0  0
   -6.4784   -1.7222    0.4203 C   0  0  0  0  0  0  0  0  0  0  0  0
   -5.0314   -1.4830    0.3568 C   0  0  0  0  0  0  0  0  0  0  0  0
   -4.5003   -0.4232    1.2351 C   0  0  0  0  0  0  0  0  0  0  0  0
   -2.9825   -0.2762    1.1209 C   0  0  0  0  0  0  0  0  0  0  0  0
   -2.6253    0.0706   -0.2856 C   0  0  0  0  0  0  0  0  0  0  0  0
   -1.1393    0.2414   -0.4442 C   0  0  0  0  0  0  0  0  0  0  0  0
   -0.6205    1.5127   -0.2435 C   0  0  0  0  0  0  0  0  0  0  0  0
    0.7473    1.7037   -0.3822 C   0  0  0  0  0  0  0  0  0  0  0  0
    1.5853    0.6562   -0.7132 C   0  0  0  0  0  0  0  0  0  0  0  0
    1.0666   -0.6112   -0.9130 C   0  0  0  0  0  0  0  0  0  0  0  0
   -0.3116   -0.8068   -0.7739 C   0  0  0  0  0  0  0  0  0  0  0  0
    3.0627    0.9179   -0.8512 C   0  0  0  0  0  0  0  0  0  0  0  0
    3.6422    0.6916    0.5159 C   0  0  0  0  0  0  0  0  0  0  0  0
    5.1092    0.8911    0.6391 C   0  0  1  0  0  0  0  0  0  0  0  0
    5.9350    0.0035   -0.2281 C   0  0  0  0  0  0  0  0  0  0  0  0
    7.2891    0.1509   -0.0429 O   0  0  0  0  0  0  0  0  0  0  0  0
    8.2035   -0.8610   -1.0349 P   0  0  0  0  0  0  0  0  0  0  0  0
    9.6064   -0.3414   -1.2262 O   0  0  0  0  0  0  0  0  0  0  0  0
    8.3022   -2.4035   -0.3678 O   0  0  0  0  0  0  0  0  0  0  0  0
    7.5191   -1.0096   -2.5770 O   0  0  0  0  0  0  0  0  0  0  0  0
    5.4792    2.3589    0.4757 C   0  0  0  0  0  0  0  0  0  0  0  0
    5.2456    2.8597   -0.7781 O   0  0  0  0  0  0  0  0  0  0  0  0
    5.4328    0.5523    2.0358 N   0  0  0  0  0  0  0  0  0  0  0  0
   -8.6823    2.3825    0.1342 H   0  0  0  0  0  0  0  0  0  0  0  0
   -8.7213    1.0517   -1.1199 H   0  0  0  0  0  0  0  0  0  0  0  0
   -9.6699    0.8652    0.4053 H   0  0  0  0  0  0  0  0  0  0  0  0
   -7.5711    0.6212    1.6766 H   0  0  0  0  0  0  0  0  0  0  0  0
   -6.6930    1.2692    0.2428 H   0  0  0  0  0  0  0  0  0  0  0  0
   -7.3365   -0.6134   -1.1540 H   0  0  0  0  0  0  0  0  0  0  0  0
   -8.5209   -1.1901   -0.0014 H   0  0  0  0  0  0  0  0  0  0  0  0
   -6.7654   -2.0954    1.4680 H   0  0  0  0  0  0  0  0  0  0  0  0
   -6.7052   -2.6800   -0.1853 H   0  0  0  0  0  0  0  0  0  0  0  0
   -4.8030   -1.2143   -0.7194 H   0  0  0  0  0  0  0  0  0  0  0  0
   -4.4719   -2.4470    0.5816 H   0  0  0  0  0  0  0  0  0  0  0  0
   -4.9351    0.5587    1.1487 H   0  0  0  0  0  0  0  0  0  0  0  0
   -4.6880   -0.7670    2.2950 H   0  0  0  0  0  0  0  0  0  0  0  0
   -2.4951   -1.2059    1.4246 H   0  0  0  0  0  0  0  0  0  0  0  0
   -2.6504    0.5503    1.7715 H   0  0  0  0  0  0  0  0  0  0  0  0
   -2.8584   -0.8230   -0.9323 H   0  0  0  0  0  0  0  0  0  0  0  0
   -3.0943    0.9942   -0.6389 H   0  0  0  0  0  0  0  0  0  0  0  0
   -1.2727    2.3393    0.0164 H   0  0  0  0  0  0  0  0  0  0  0  0
    1.1779    2.6970   -0.2288 H   0  0  0  0  0  0  0  0  0  0  0  0
    1.7326   -1.4064   -1.1681 H   0  0  0  0  0  0  0  0  0  0  0  0
   -0.7346   -1.8079   -0.9300 H   0  0  0  0  0  0  0  0  0  0  0  0
    3.4119    0.1720   -1.5834 H   0  0  0  0  0  0  0  0  0  0  0  0
    3.1589    1.9247   -1.2495 H   0  0  0  0  0  0  0  0  0  0  0  0
    3.4133   -0.3784    0.7732 H   0  0  0  0  0  0  0  0  0  0  0  0
    3.1266    1.2777    1.2959 H   0  0  0  0  0  0  0  0  0  0  0  0
    5.6936   -1.0491    0.0613 H   0  0  0  0  0  0  0  0  0  0  0  0
    5.7407    0.1535   -1.3089 H   0  0  0  0  0  0  0  0  0  0  0  0
    9.0530   -2.9303   -0.7258 H   0  0  0  0  0  0  0  0  0  0  0  0
    7.9026   -1.7780   -3.0393 H   0  0  0  0  0  0  0  0  0  0  0  0
    4.9501    2.9869    1.2178 H   0  0  0  0  0  0  0  0  0  0  0  0
    6.5644    2.5180    0.6868 H   0  0  0  0  0  0  0  0  0  0  0  0
    5.9524    2.7719   -1.4354 H   0  0  0  0  0  0  0  0  0  0  0  0
    5.2981   -0.4822    2.1530 H   0  0  0  0  0  0  0  0  0  0  0  0
    4.7278    1.0750    2.6074 H   0  0  0  0  0  0  0  0  0  0  0  0
  1  2  1  0
  2  3  1  0
  3  4  1  0
  4  5  1  0
  5  6  1  0
  6  7  1  0
  7  8  1  0
  8  9  1  0
  9 10  2  0
 10 11  1  0
 11 12  2  0
 12 13  1  0
 13 14  2  0
 12 15  1  0
 15 16  1  0
 16 17  1  0
 17 18  1  0
 18 19  1  0
 19 20  1  0
 20 21  2  0
 20 22  1  0
 20 23  1  0
 17 24  1  0
 24 25  1  0
 17 26  1  1
 14  9  1  0
  1 27  1  0
  1 28  1  0
  1 29  1  0
  2 30  1  0
  2 31  1  0
  3 32  1  0
  3 33  1  0
  4 34  1  0
  4 35  1  0
  5 36  1  0
  5 37  1  0
  6 38  1  0
  6 39  1  0
  7 40  1  0
  7 41  1  0
  8 42  1  0
  8 43  1  0
 10 44  1  0
 11 45  1  0
 13 46  1  0
 14 47  1  0
 15 48  1  0
 15 49  1  0
 16 50  1  0
 16 51  1  0
 18 52  1  0
 18 53  1  0
 22 54  1  0
 23 55  1  0
 24 56  1  0
 24 57  1  0
 25 58  1  0
 26 59  1  0
 26 60  1  0
M  END
>  <Ligand ID>  (1) 
LIG0000977

>  <Ligand>  (1) 
(S)-FTY720-phosphate

>  <SMILES>  (1) 
CCCCCCCCc1ccc(cc1)CC[C@@](COP(=O)(O)O)(CO)N

>  <CID>  (1) 
11452022.0

>  <ChEMBL ID>  (1) 
nan

>  <InChiKey>  (1) 
LRFKWQGGENFBFO-IBGZPJMESA-N

>  <InChi>  (1) 
InChI=1S/C19H34NO5P/c1-2-3-4-5-6-7-8-17-9-11-18(12-10-17)13-14-19(20,15-21)16-25-26(22,23)24/h9-12,21H,2-8,13-16,20H2,1H3,(H2,22,23,24)/t19-/m0/s1

>  <IUPAC Name>  (1) 
[(2S)-2-amino-2-(hydroxymethyl)-4-(4-octylphenyl)butyl] dihydrogen phosphate

$$$$
