
     RDKit          3D

113117  0  0  0  0  0  0  0  0999 V2000
    2.2625    2.3213   -2.1215 O   0  0  0  0  0  0  0  0  0  0  0  0
    2.7111    1.7880   -1.0681 C   0  0  0  0  0  0  0  0  0  0  0  0
    2.4509    0.4072   -0.8958 N   0  0  0  0  0  0  0  0  0  0  0  0
    1.7158   -0.2934   -1.8914 C   0  0  2  0  0  0  0  0  0  0  0  0
    0.2201   -0.0606   -1.7019 C   0  0  0  0  0  0  0  0  0  0  0  0
   -0.5767   -0.6734   -2.5004 O   0  0  0  0  0  0  0  0  0  0  0  0
   -0.2620    0.8011   -0.6869 N   0  0  0  0  0  0  0  0  0  0  0  0
   -1.6478    1.0895   -0.4439 C   0  0  0  0  0  0  0  0  0  0  0  0
   -2.4981   -0.1049   -0.0836 C   0  0  0  0  0  0  0  0  0  0  0  0
   -3.8899    0.4505    0.0812 C   0  0  0  0  0  0  0  0  0  0  0  0
   -4.1303    1.6787   -0.1616 O   0  0  0  0  0  0  0  0  0  0  0  0
   -4.9808   -0.3947    0.5142 N   0  0  0  0  0  0  0  0  0  0  0  0
   -4.7886   -1.7494    0.8708 C   0  0  0  0  0  0  0  0  0  0  0  0
   -4.5093   -2.0084    2.2064 C   0  0  0  0  0  0  0  0  0  0  0  0
   -4.3106   -3.3374    2.6042 C   0  0  0  0  0  0  0  0  0  0  0  0
   -4.3915   -4.3529    1.6924 C   0  0  0  0  0  0  0  0  0  0  0  0
   -4.6712   -4.1011    0.3516 C   0  0  0  0  0  0  0  0  0  0  0  0
   -4.8649   -2.7930   -0.0314 C   0  0  0  0  0  0  0  0  0  0  0  0
   -6.2713    0.1949    0.5497 C   0  0  0  0  0  0  0  0  0  0  0  0
   -6.8479    0.2829    1.9423 C   0  0  0  0  0  0  0  0  0  0  0  0
   -8.2264    0.9455    1.8657 C   0  0  0  0  0  0  0  0  0  0  0  0
   -8.4386    1.3374    0.4804 N   0  0  0  0  0  0  0  0  0  0  0  0
   -8.6182    0.0896   -0.2782 C   0  0  0  0  0  0  0  0  0  0  0  0
   -7.2030   -0.5009   -0.3993 C   0  0  0  0  0  0  0  0  0  0  0  0
   -9.6328    2.1150    0.3336 C   0  0  0  0  0  0  0  0  0  0  0  0
  -10.9118    1.3442    0.5525 C   0  0  0  0  0  0  0  0  0  0  0  0
  -12.0220    2.3228    0.3568 C   0  0  0  0  0  0  0  0  0  0  0  0
  -12.5198    3.0609    1.4072 C   0  0  0  0  0  0  0  0  0  0  0  0
  -13.5422    3.9668    1.2429 C   0  0  0  0  0  0  0  0  0  0  0  0
  -14.0596    4.1160   -0.0185 C   0  0  0  0  0  0  0  0  0  0  0  0
  -13.6017    3.4031   -1.1108 C   0  0  0  0  0  0  0  0  0  0  0  0
  -12.5642    2.4910   -0.9150 C   0  0  0  0  0  0  0  0  0  0  0  0
    2.0223   -1.7091   -2.1397 C   0  0  0  0  0  0  0  0  0  0  0  0
    3.4083   -1.9856   -2.5766 C   0  0  0  0  0  0  0  0  0  0  0  0
    3.7100   -2.0190   -3.9348 C   0  0  0  0  0  0  0  0  0  0  0  0
    5.0143   -2.2840   -4.3551 C   0  0  0  0  0  0  0  0  0  0  0  0
    6.0453   -2.5204   -3.4745 C   0  0  0  0  0  0  0  0  0  0  0  0
    5.7439   -2.4869   -2.1204 C   0  0  0  0  0  0  0  0  0  0  0  0
    4.4580   -2.2249   -1.7203 C   0  0  0  0  0  0  0  0  0  0  0  0
    3.4428    2.6495   -0.1336 C   0  0  0  0  0  0  0  0  0  0  0  0
    4.0153    1.9940    1.0076 N   0  0  0  0  0  0  0  0  0  0  0  0
    5.0398    1.0373    0.7608 C   0  0  0  0  0  0  0  0  0  0  0  0
    5.3457    0.8569   -0.4563 O   0  0  0  0  0  0  0  0  0  0  0  0
    5.7451    0.2762    1.8207 C   0  0  2  0  0  0  0  0  0  0  0  0
    6.8854   -0.4128    1.1872 N   0  0  0  0  0  0  0  0  0  0  0  0
    8.1679   -0.0009    1.6619 C   0  0  0  0  0  0  0  0  0  0  0  0
    8.3200    0.8727    2.5570 O   0  0  0  0  0  0  0  0  0  0  0  0
    9.4434   -0.5861    1.1169 C   0  0  2  0  0  0  0  0  0  0  0  0
   10.2309    0.5733    0.5945 C   0  0  0  0  0  0  0  0  0  0  0  0
   11.5245    0.1860    0.0178 C   0  0  0  0  0  0  0  0  0  0  0  0
   11.6591   -0.1241   -1.3108 C   0  0  0  0  0  0  0  0  0  0  0  0
   12.9059   -0.4803   -1.8387 C   0  0  0  0  0  0  0  0  0  0  0  0
   14.0010   -0.5161   -1.0026 C   0  0  0  0  0  0  0  0  0  0  0  0
   13.8717   -0.2041    0.3434 C   0  0  0  0  0  0  0  0  0  0  0  0
   12.6390    0.1439    0.8437 C   0  0  0  0  0  0  0  0  0  0  0  0
   15.2354   -0.8725   -1.5398 O   0  0  0  0  0  0  0  0  0  0  0  0
    9.1476   -1.5006    0.0598 N   0  0  0  0  0  0  0  0  0  0  0  0
    4.8306   -0.7454    2.4392 C   0  0  0  0  0  0  0  0  0  0  0  0
    2.7998   -0.0691   -0.0386 H   0  0  0  0  0  0  0  0  0  0  0  0
    1.8856    0.2753   -2.8612 H   0  0  0  0  0  0  0  0  0  0  0  0
    0.4833    1.2460   -0.0843 H   0  0  0  0  0  0  0  0  0  0  0  0
   -1.7044    1.7801    0.4249 H   0  0  0  0  0  0  0  0  0  0  0  0
   -2.1195    1.6410   -1.2953 H   0  0  0  0  0  0  0  0  0  0  0  0
   -2.1388   -0.4833    0.8976 H   0  0  0  0  0  0  0  0  0  0  0  0
   -2.4905   -0.8862   -0.8687 H   0  0  0  0  0  0  0  0  0  0  0  0
   -4.4464   -1.2181    2.9152 H   0  0  0  0  0  0  0  0  0  0  0  0
   -4.0893   -3.5837    3.6446 H   0  0  0  0  0  0  0  0  0  0  0  0
   -4.2471   -5.3953    1.9496 H   0  0  0  0  0  0  0  0  0  0  0  0
   -4.7421   -4.8955   -0.3878 H   0  0  0  0  0  0  0  0  0  0  0  0
   -5.0872   -2.5751   -1.0765 H   0  0  0  0  0  0  0  0  0  0  0  0
   -6.1682    1.2617    0.2064 H   0  0  0  0  0  0  0  0  0  0  0  0
   -6.1933    0.9790    2.5050 H   0  0  0  0  0  0  0  0  0  0  0  0
   -6.8728   -0.6741    2.4874 H   0  0  0  0  0  0  0  0  0  0  0  0
   -8.9798    0.1848    2.1183 H   0  0  0  0  0  0  0  0  0  0  0  0
   -8.2687    1.8730    2.4620 H   0  0  0  0  0  0  0  0  0  0  0  0
   -9.0403    0.3502   -1.2476 H   0  0  0  0  0  0  0  0  0  0  0  0
   -9.1926   -0.6513    0.3094 H   0  0  0  0  0  0  0  0  0  0  0  0
   -6.8788   -0.2809   -1.4392 H   0  0  0  0  0  0  0  0  0  0  0  0
   -7.2300   -1.5880   -0.2352 H   0  0  0  0  0  0  0  0  0  0  0  0
   -9.6385    2.9381    1.0841 H   0  0  0  0  0  0  0  0  0  0  0  0
   -9.6560    2.5618   -0.6800 H   0  0  0  0  0  0  0  0  0  0  0  0
  -10.9742    0.9219    1.5749 H   0  0  0  0  0  0  0  0  0  0  0  0
  -11.0919    0.5388   -0.1685 H   0  0  0  0  0  0  0  0  0  0  0  0
  -12.0927    2.9178    2.3794 H   0  0  0  0  0  0  0  0  0  0  0  0
  -13.8774    4.5064    2.1145 H   0  0  0  0  0  0  0  0  0  0  0  0
  -14.8728    4.8215   -0.1961 H   0  0  0  0  0  0  0  0  0  0  0  0
  -14.0463    3.5598   -2.0983 H   0  0  0  0  0  0  0  0  0  0  0  0
  -12.2069    1.9338   -1.7752 H   0  0  0  0  0  0  0  0  0  0  0  0
    1.8303   -2.3926   -1.2899 H   0  0  0  0  0  0  0  0  0  0  0  0
    1.3457   -2.0546   -2.9763 H   0  0  0  0  0  0  0  0  0  0  0  0
    2.9367   -1.8396   -4.6807 H   0  0  0  0  0  0  0  0  0  0  0  0
    5.1801   -2.2966   -5.4391 H   0  0  0  0  0  0  0  0  0  0  0  0
    7.0475   -2.7224   -3.8420 H   0  0  0  0  0  0  0  0  0  0  0  0
    6.5350   -2.6674   -1.4215 H   0  0  0  0  0  0  0  0  0  0  0  0
    4.2324   -2.1995   -0.6437 H   0  0  0  0  0  0  0  0  0  0  0  0
    4.2116    3.2722   -0.6424 H   0  0  0  0  0  0  0  0  0  0  0  0
    2.7094    3.3916    0.2733 H   0  0  0  0  0  0  0  0  0  0  0  0
    3.7237    2.1800    1.9899 H   0  0  0  0  0  0  0  0  0  0  0  0
    6.1383    0.9707    2.5728 H   0  0  0  0  0  0  0  0  0  0  0  0
    6.7767   -1.1328    0.4609 H   0  0  0  0  0  0  0  0  0  0  0  0
    9.9306   -1.0613    1.9966 H   0  0  0  0  0  0  0  0  0  0  0  0
   10.4054    1.2923    1.4505 H   0  0  0  0  0  0  0  0  0  0  0  0
    9.5976    1.1521   -0.1250 H   0  0  0  0  0  0  0  0  0  0  0  0
   10.8282   -0.1029   -1.9811 H   0  0  0  0  0  0  0  0  0  0  0  0
   13.0124   -0.7290   -2.9068 H   0  0  0  0  0  0  0  0  0  0  0  0
   14.7703   -0.2558    0.9290 H   0  0  0  0  0  0  0  0  0  0  0  0
   12.5065    0.3888    1.8840 H   0  0  0  0  0  0  0  0  0  0  0  0
   16.0979   -0.5308   -1.0987 H   0  0  0  0  0  0  0  0  0  0  0  0
    8.6636   -2.3615    0.3622 H   0  0  0  0  0  0  0  0  0  0  0  0
    8.6714   -1.0121   -0.7133 H   0  0  0  0  0  0  0  0  0  0  0  0
    5.3481   -1.7311    2.5471 H   0  0  0  0  0  0  0  0  0  0  0  0
    3.9225   -0.9312    1.8645 H   0  0  0  0  0  0  0  0  0  0  0  0
    4.5241   -0.3703    3.4426 H   0  0  0  0  0  0  0  0  0  0  0  0
  1  2  2  0
  2  3  1  0
  3  4  1  0
  4  5  1  0
  5  6  2  0
  5  7  1  0
  7  8  1  0
  8  9  1  0
  9 10  1  0
 10 11  2  0
 10 12  1  0
 12 13  1  0
 13 14  2  0
 14 15  1  0
 15 16  2  0
 16 17  1  0
 17 18  2  0
 12 19  1  0
 19 20  1  0
 20 21  1  0
 21 22  1  0
 22 23  1  0
 23 24  1  0
 22 25  1  0
 25 26  1  0
 26 27  1  0
 27 28  2  0
 28 29  1  0
 29 30  2  0
 30 31  1  0
 31 32  2  0
  4 33  1  0
 33 34  1  0
 34 35  2  0
 35 36  1  0
 36 37  2  0
 37 38  1  0
 38 39  2  0
  2 40  1  0
 40 41  1  0
 41 42  1  0
 42 43  2  0
 42 44  1  0
 44 45  1  0
 45 46  1  0
 46 47  2  0
 46 48  1  0
 48 49  1  0
 49 50  1  0
 50 51  2  0
 51 52  1  0
 52 53  2  0
 53 54  1  0
 54 55  2  0
 53 56  1  0
 48 57  1  0
 44 58  1  0
 18 13  1  0
 24 19  1  0
 32 27  1  0
 39 34  1  0
 55 50  1  0
  3 59  1  0
  4 60  1  6
  7 61  1  0
  8 62  1  0
  8 63  1  0
  9 64  1  0
  9 65  1  0
 14 66  1  0
 15 67  1  0
 16 68  1  0
 17 69  1  0
 18 70  1  0
 19 71  1  0
 20 72  1  0
 20 73  1  0
 21 74  1  0
 21 75  1  0
 23 76  1  0
 23 77  1  0
 24 78  1  0
 24 79  1  0
 25 80  1  0
 25 81  1  0
 26 82  1  0
 26 83  1  0
 28 84  1  0
 29 85  1  0
 30 86  1  0
 31 87  1  0
 32 88  1  0
 33 89  1  0
 33 90  1  0
 35 91  1  0
 36 92  1  0
 37 93  1  0
 38 94  1  0
 39 95  1  0
 40 96  1  0
 40 97  1  0
 41 98  1  0
 44 99  1  1
 45100  1  0
 48101  1  1
 49102  1  0
 49103  1  0
 51104  1  0
 52105  1  0
 54106  1  0
 55107  1  0
 56108  1  0
 57109  1  0
 57110  1  0
 58111  1  0
 58112  1  0
 58113  1  0
M  END
>  <Ligand ID>  (1) 
LIG0005395

>  <Ligand>  (1) 
CHEMBL214022

>  <SMILES>  (1) 
O=C(N[C@H](C(=O)NCCC(=O)N(c1ccccc1)C1CCN(CC1)CCc1ccccc1)Cc1ccccc1)CNC(=O)[C@H](NC(=O)[C@H](Cc1ccc(cc1)O)N)C

>  <CID>  (1) 
16046123.0

>  <ChEMBL ID>  (1) 
nan

>  <InChiKey>  (1) 
WTPXLBTVBOBEDI-JURIQKAMSA-N

>  <InChi>  (1) 
InChI=1S/C45H55N7O6/c1-32(49-44(57)39(46)29-35-17-19-38(53)20-18-35)43(56)48-31-41(54)50-40(30-34-13-7-3-8-14-34)45(58)47-25-21-42(55)52(36-15-9-4-10-16-36)37-23-27-51(28-24-37)26-22-33-11-5-2-6-12-33/h2-20,32,37,39-40,53H,21-31,46H2,1H3,(H,47,58)(H,48,56)(H,49,57)(H,50,54)/t32-,39+,40+/m1/s1

>  <IUPAC Name>  (1) 
(2S)-2-amino-3-(4-hydroxyphenyl)-N-[(2R)-1-oxo-1-[[2-oxo-2-[[(2S)-1-oxo-1-[[3-oxo-3-(N-[1-(2-phenylethyl)piperidin-4-yl]anilino)propyl]amino]-3-phenylpropan-2-yl]amino]ethyl]amino]propan-2-yl]propanamide

$$$$
