
     RDKit          3D

 33 35  0  0  0  0  0  0  0  0999 V2000
   -3.5003    1.8552    0.8894 C   0  0  0  0  0  0  0  0  0  0  0  0
   -2.4166    0.8210    1.1650 C   0  0  0  0  0  0  0  0  0  0  0  0
   -2.4261   -0.1240   -0.0118 C   0  0  0  0  0  0  0  0  0  0  0  0
   -1.5240   -1.1819   -0.0123 N   0  0  0  0  0  0  0  0  0  0  0  0
   -1.4154   -1.9600   -1.2079 C   0  0  0  0  0  0  0  0  0  0  0  0
   -0.5391   -1.1884   -2.2036 C   0  0  0  0  0  0  0  0  0  0  0  0
    0.6215   -0.6569   -1.4716 C   0  0  0  0  0  0  0  0  0  0  0  0
    0.7702   -0.6150   -0.1101 C   0  0  0  0  0  0  0  0  0  0  0  0
   -0.3391   -1.1357    0.7525 C   0  0  0  0  0  0  0  0  0  0  0  0
    1.9863   -0.0593    0.2113 C   0  0  0  0  0  0  0  0  0  0  0  0
    2.5936    0.1866    1.4343 C   0  0  0  0  0  0  0  0  0  0  0  0
    3.8423    0.7540    1.4824 C   0  0  0  0  0  0  0  0  0  0  0  0
    4.4603    1.0661    0.2849 C   0  0  0  0  0  0  0  0  0  0  0  0
    3.8003    0.7951   -0.8894 C   0  0  0  0  0  0  0  0  0  0  0  0
    2.5807    0.2409   -0.9693 N   0  0  0  0  0  0  0  0  0  0  0  0
    1.7703   -0.1151   -1.9815 N   0  0  0  0  0  0  0  0  0  0  0  0
   -3.0556    2.8285    0.6540 H   0  0  0  0  0  0  0  0  0  0  0  0
   -4.1851    1.5278    0.0618 H   0  0  0  0  0  0  0  0  0  0  0  0
   -4.1848    1.9913    1.7719 H   0  0  0  0  0  0  0  0  0  0  0  0
   -1.4424    1.3956    1.2045 H   0  0  0  0  0  0  0  0  0  0  0  0
   -2.6784    0.3498    2.1303 H   0  0  0  0  0  0  0  0  0  0  0  0
   -3.4931   -0.5197   -0.0369 H   0  0  0  0  0  0  0  0  0  0  0  0
   -2.3213    0.4976   -0.9323 H   0  0  0  0  0  0  0  0  0  0  0  0
   -2.3874   -2.2417   -1.6275 H   0  0  0  0  0  0  0  0  0  0  0  0
   -0.8054   -2.8684   -0.9736 H   0  0  0  0  0  0  0  0  0  0  0  0
   -1.1536   -0.3477   -2.5769 H   0  0  0  0  0  0  0  0  0  0  0  0
   -0.2571   -1.8651   -3.0476 H   0  0  0  0  0  0  0  0  0  0  0  0
   -0.0386   -2.2146    0.9405 H   0  0  0  0  0  0  0  0  0  0  0  0
   -0.3954   -0.6459    1.7114 H   0  0  0  0  0  0  0  0  0  0  0  0
    2.0777   -0.0677    2.3663 H   0  0  0  0  0  0  0  0  0  0  0  0
    4.2828    0.9324    2.4508 H   0  0  0  0  0  0  0  0  0  0  0  0
    5.4394    1.5136    0.3444 H   0  0  0  0  0  0  0  0  0  0  0  0
    4.3337    1.0516   -1.8036 H   0  0  0  0  0  0  0  0  0  0  0  0
  1  2  1  0
  2  3  1  0
  3  4  1  0
  4  5  1  0
  5  6  1  0
  6  7  1  0
  7  8  1  0
  8  9  1  0
  8 10  2  0
 10 11  1  0
 11 12  2  0
 12 13  1  0
 13 14  2  0
 14 15  1  0
 15 16  1  0
  9  4  1  0
 15 10  1  0
 16  7  2  0
  1 17  1  0
  1 18  1  0
  1 19  1  0
  2 20  1  0
  2 21  1  0
  3 22  1  0
  3 23  1  0
  5 24  1  0
  5 25  1  0
  6 26  1  0
  6 27  1  0
  9 28  1  0
  9 29  1  0
 11 30  1  0
 12 31  1  0
 13 32  1  0
 14 33  1  0
M  END
>  <Ligand ID>  (1) 
LIG0004350

>  <Ligand>  (1) 
CHEMBL80845

>  <SMILES>  (1) 
CCCN1CCc2c(C1)c1ccccn1n2

>  <CID>  (1) 
44316315.0

>  <ChEMBL ID>  (1) 
nan

>  <InChiKey>  (1) 
URWBDIMBZFWGSF-UHFFFAOYSA-N

>  <InChi>  (1) 
InChI=1S/C13H17N3/c1-2-7-15-9-6-12-11(10-15)13-5-3-4-8-16(13)14-12/h3-5,8H,2,6-7,9-10H2,1H3

>  <IUPAC Name>  (1) 
4-propyl-4,8,9-triazatricyclo[7.4.0.02,7]trideca-1,7,10,12-tetraene

$$$$
