
     RDKit          3D

 36 38  0  0  0  0  0  0  0  0999 V2000
   -2.3630    3.6199    0.6881 C   0  0  0  0  0  0  0  0  0  0  0  0
   -1.6900    2.4620    0.2593 O   0  0  0  0  0  0  0  0  0  0  0  0
   -2.0546    1.1640    0.5902 C   0  0  0  0  0  0  0  0  0  0  0  0
   -3.0844    1.0510    1.3427 O   0  0  0  0  0  0  0  0  0  0  0  0
   -1.3208   -0.0090    0.1190 C   0  0  0  0  0  0  0  0  0  0  0  0
   -1.6526   -1.2517    0.4258 C   0  0  0  0  0  0  0  0  0  0  0  0
   -2.7567   -1.6209    1.2477 N   0  0  0  0  0  0  0  0  0  0  0  0
   -0.7026   -2.1604   -0.2156 C   0  0  0  0  0  0  0  0  0  0  0  0
    0.2065   -1.3923   -0.9165 C   0  0  0  0  0  0  0  0  0  0  0  0
   -0.1409    0.0546   -0.7438 C   0  0  0  0  0  0  0  0  0  0  0  0
   -0.4887    0.6653   -2.0263 C   0  0  0  0  0  0  0  0  0  0  0  0
   -0.7555    1.1357   -3.0501 N   0  0  0  0  0  0  0  0  0  0  0  0
    1.0364    0.7153   -0.1255 C   0  0  0  0  0  0  0  0  0  0  0  0
    1.4826    0.3561    1.1196 C   0  0  0  0  0  0  0  0  0  0  0  0
    2.5873    0.9814    1.6927 C   0  0  0  0  0  0  0  0  0  0  0  0
    3.2208    1.9804    0.9605 C   0  0  0  0  0  0  0  0  0  0  0  0
    2.7747    2.3400   -0.2853 C   0  0  0  0  0  0  0  0  0  0  0  0
    1.6687    1.7104   -0.8532 C   0  0  0  0  0  0  0  0  0  0  0  0
    4.2995    2.6023    1.5019 F   0  0  0  0  0  0  0  0  0  0  0  0
    1.2172   -2.0441   -1.6139 C   0  0  0  0  0  0  0  0  0  0  0  0
    1.2858   -3.4229   -1.5890 C   0  0  0  0  0  0  0  0  0  0  0  0
    0.3911   -4.2125   -0.8975 C   0  0  0  0  0  0  0  0  0  0  0  0
   -0.6213   -3.5463   -0.1995 C   0  0  0  0  0  0  0  0  0  0  0  0
   -1.5418   -4.2701    0.5077 F   0  0  0  0  0  0  0  0  0  0  0  0
   -3.4151    3.4546    0.9552 H   0  0  0  0  0  0  0  0  0  0  0  0
   -2.3208    4.4400   -0.0556 H   0  0  0  0  0  0  0  0  0  0  0  0
   -1.8279    3.9482    1.6241 H   0  0  0  0  0  0  0  0  0  0  0  0
   -2.6751   -2.2035    2.1039 H   0  0  0  0  0  0  0  0  0  0  0  0
   -3.7080   -1.2709    0.9515 H   0  0  0  0  0  0  0  0  0  0  0  0
    0.9952   -0.4281    1.7087 H   0  0  0  0  0  0  0  0  0  0  0  0
    2.9275    0.6826    2.6831 H   0  0  0  0  0  0  0  0  0  0  0  0
    3.2508    3.1229   -0.8894 H   0  0  0  0  0  0  0  0  0  0  0  0
    1.3289    2.0122   -1.8483 H   0  0  0  0  0  0  0  0  0  0  0  0
    1.9208   -1.4323   -2.1575 H   0  0  0  0  0  0  0  0  0  0  0  0
    2.0717   -3.9348   -2.1305 H   0  0  0  0  0  0  0  0  0  0  0  0
    0.4540   -5.2992   -0.8842 H   0  0  0  0  0  0  0  0  0  0  0  0
  1  2  1  0
  2  3  1  0
  3  4  2  0
  3  5  1  0
  5  6  2  0
  6  7  1  0
  6  8  1  0
  8  9  2  0
  9 10  1  0
 10 11  1  0
 11 12  3  0
 10 13  1  0
 13 14  2  0
 14 15  1  0
 15 16  2  0
 16 17  1  0
 17 18  2  0
 16 19  1  0
  9 20  1  0
 20 21  2  0
 21 22  1  0
 22 23  2  0
 23 24  1  0
 10  5  1  0
 18 13  1  0
 23  8  1  0
  1 25  1  0
  1 26  1  0
  1 27  1  0
  7 28  1  0
  7 29  1  0
 14 30  1  0
 15 31  1  0
 17 32  1  0
 18 33  1  0
 20 34  1  0
 21 35  1  0
 22 36  1  0
M  END
>  <Ligand ID>  (1) 
LIG0004708

>  <Ligand>  (1) 
methyl 3-amino-1-cyano-4-fluoro-1-(4-fluorophenyl)-1H-indene-2-carboxylate

>  <SMILES>  (1) 
COC(=O)C1=C(N)c2c(C1(C#N)c1ccc(cc1)F)cccc2F

>  <CID>  (1) 
2766933.0

>  <ChEMBL ID>  (1) 
nan

>  <InChiKey>  (1) 
PBNJGMAIWKFONB-UHFFFAOYSA-N

>  <InChi>  (1) 
InChI=1S/C18H12F2N2O2/c1-24-17(23)15-16(22)14-12(3-2-4-13(14)20)18(15,9-21)10-5-7-11(19)8-6-10/h2-8H,22H2,1H3

>  <IUPAC Name>  (1) 
methyl 3-amino-1-cyano-4-fluoro-1-(4-fluorophenyl)indene-2-carboxylate

$$$$
