
     RDKit          3D

 32 31  0  0  0  0  0  0  0  0999 V2000
   -3.7292   -0.6682   -1.7316 C   0  0  0  0  0  0  0  0  0  0  0  0
   -4.1167   -0.2558   -0.3641 C   0  0  0  0  0  0  0  0  0  0  0  0
   -3.1770    0.6414    0.3519 C   0  0  0  0  0  0  0  0  0  0  0  0
   -1.7949    0.0978    0.5702 C   0  0  0  0  0  0  0  0  0  0  0  0
   -1.0239    1.1726    1.3095 C   0  0  0  0  0  0  0  0  0  0  0  0
    0.3794    0.7228    1.5823 C   0  0  0  0  0  0  0  0  0  0  0  0
    1.1593    0.4103    0.3260 C   0  0  0  0  0  0  0  0  0  0  0  0
    2.5489   -0.0197    0.8172 C   0  0  0  0  0  0  0  0  0  0  0  0
    3.4032   -0.3515   -0.3327 C   0  0  0  0  0  0  0  0  0  0  0  0
    2.9421   -0.2552   -1.4948 O   0  0  0  0  0  0  0  0  0  0  0  0
    4.7049   -0.7639   -0.0780 O   0  0  0  0  0  0  0  0  0  0  0  0
    5.5317   -1.0844   -1.1779 C   0  0  0  0  0  0  0  0  0  0  0  0
   -4.5021   -0.3630   -2.4914 H   0  0  0  0  0  0  0  0  0  0  0  0
   -3.6745   -1.7738   -1.8357 H   0  0  0  0  0  0  0  0  0  0  0  0
   -2.7884   -0.2431   -2.1133 H   0  0  0  0  0  0  0  0  0  0  0  0
   -4.3311   -1.1694    0.2526 H   0  0  0  0  0  0  0  0  0  0  0  0
   -5.0876    0.2825   -0.4052 H   0  0  0  0  0  0  0  0  0  0  0  0
   -3.6041    0.8124    1.3698 H   0  0  0  0  0  0  0  0  0  0  0  0
   -3.1321    1.6373   -0.1259 H   0  0  0  0  0  0  0  0  0  0  0  0
   -1.8522   -0.8175    1.1864 H   0  0  0  0  0  0  0  0  0  0  0  0
   -1.2557   -0.1056   -0.3731 H   0  0  0  0  0  0  0  0  0  0  0  0
   -0.9429    2.1054    0.6802 H   0  0  0  0  0  0  0  0  0  0  0  0
   -1.5454    1.4985    2.2303 H   0  0  0  0  0  0  0  0  0  0  0  0
    0.3651   -0.2489    2.1592 H   0  0  0  0  0  0  0  0  0  0  0  0
    0.9300    1.4426    2.1951 H   0  0  0  0  0  0  0  0  0  0  0  0
    1.2311    1.2807   -0.3284 H   0  0  0  0  0  0  0  0  0  0  0  0
    0.7325   -0.4539   -0.2321 H   0  0  0  0  0  0  0  0  0  0  0  0
    2.9977    0.8679    1.3256 H   0  0  0  0  0  0  0  0  0  0  0  0
    2.4585   -0.8855    1.4878 H   0  0  0  0  0  0  0  0  0  0  0  0
    6.1556   -1.9490   -0.8552 H   0  0  0  0  0  0  0  0  0  0  0  0
    4.9079   -1.3694   -2.0327 H   0  0  0  0  0  0  0  0  0  0  0  0
    6.1100   -0.1943   -1.4618 H   0  0  0  0  0  0  0  0  0  0  0  0
  1  2  1  0
  2  3  1  0
  3  4  1  0
  4  5  1  0
  5  6  1  0
  6  7  1  0
  7  8  1  0
  8  9  1  0
  9 10  2  0
  9 11  1  0
 11 12  1  0
  1 13  1  0
  1 14  1  0
  1 15  1  0
  2 16  1  0
  2 17  1  0
  3 18  1  0
  3 19  1  0
  4 20  1  0
  4 21  1  0
  5 22  1  0
  5 23  1  0
  6 24  1  0
  6 25  1  0
  7 26  1  0
  7 27  1  0
  8 28  1  0
  8 29  1  0
 12 30  1  0
 12 31  1  0
 12 32  1  0
M  END
>  <Ligand ID>  (1) 
LIG0002076

>  <Ligand>  (1) 
methyl nonanoate

>  <SMILES>  (1) 
CCCCCCCCC(=O)OC

>  <CID>  (1) 
15606.0

>  <ChEMBL ID>  (1) 
nan

>  <InChiKey>  (1) 
IJXHLVMUNBOGRR-UHFFFAOYSA-N

>  <InChi>  (1) 
InChI=1S/C10H20O2/c1-3-4-5-6-7-8-9-10(11)12-2/h3-9H2,1-2H3

>  <IUPAC Name>  (1) 
methyl nonanoate

$$$$
