
     RDKit          3D

 19 19  0  0  0  0  0  0  0  0999 V2000
    3.0710    0.4334    0.8773 C   0  0  0  0  0  0  0  0  0  0  0  0
    2.1916   -0.3439    0.2533 C   0  0  0  0  0  0  0  0  0  0  0  0
    1.2825    0.1896   -0.8218 C   0  0  0  0  0  0  0  0  0  0  0  0
   -0.1358    0.0178   -0.4519 C   0  0  0  0  0  0  0  0  0  0  0  0
   -0.8316   -1.1263   -0.7928 C   0  0  0  0  0  0  0  0  0  0  0  0
   -2.1551   -1.2253   -0.4174 C   0  0  0  0  0  0  0  0  0  0  0  0
   -2.7965   -0.2085    0.2893 C   0  0  0  0  0  0  0  0  0  0  0  0
   -2.0953    0.9496    0.6353 C   0  0  0  0  0  0  0  0  0  0  0  0
   -0.7544    1.0250    0.2427 C   0  0  0  0  0  0  0  0  0  0  0  0
    3.7188    0.0040    1.6592 H   0  0  0  0  0  0  0  0  0  0  0  0
    3.1228    1.4779    0.5928 H   0  0  0  0  0  0  0  0  0  0  0  0
    2.0960   -1.3972    0.4970 H   0  0  0  0  0  0  0  0  0  0  0  0
    1.4650   -0.3675   -1.7755 H   0  0  0  0  0  0  0  0  0  0  0  0
    1.5392    1.2526   -1.0454 H   0  0  0  0  0  0  0  0  0  0  0  0
   -0.3700   -1.9353   -1.3395 H   0  0  0  0  0  0  0  0  0  0  0  0
   -2.6840   -2.1350   -0.6962 H   0  0  0  0  0  0  0  0  0  0  0  0
   -3.8536   -0.3093    0.5784 H   0  0  0  0  0  0  0  0  0  0  0  0
   -2.5630    1.7558    1.1826 H   0  0  0  0  0  0  0  0  0  0  0  0
   -0.2478    1.9425    0.5325 H   0  0  0  0  0  0  0  0  0  0  0  0
  1  2  2  0
  2  3  1  0
  3  4  1  0
  4  5  2  0
  5  6  1  0
  6  7  2  0
  7  8  1  0
  8  9  2  0
  9  4  1  0
  1 10  1  0
  1 11  1  0
  2 12  1  0
  3 13  1  0
  3 14  1  0
  5 15  1  0
  6 16  1  0
  7 17  1  0
  8 18  1  0
  9 19  1  0
M  END
>  <Ligand ID>  (1) 
LIG0000131

>  <Ligand>  (1) 
Allyl benzene

>  <SMILES>  (1) 
C=CCc1ccccc1

>  <CID>  (1) 
9309.0

>  <ChEMBL ID>  (1) 
nan

>  <InChiKey>  (1) 
HJWLCRVIBGQPNF-UHFFFAOYSA-N

>  <InChi>  (1) 
InChI=1S/C9H10/c1-2-6-9-7-4-3-5-8-9/h2-5,7-8H,1,6H2

>  <IUPAC Name>  (1) 
prop-2-enylbenzene

$$$$
