
     RDKit          3D

143144  0  0  0  0  0  0  0  0999 V2000
    3.4199   -5.5121   -0.5132 C   0  0  0  0  0  0  0  0  0  0  0  0
    3.9745   -4.1304   -0.8251 C   0  0  0  0  0  0  0  0  0  0  0  0
    2.9010   -3.4108   -1.6063 C   0  0  0  0  0  0  0  0  0  0  0  0
    3.3432   -2.0285   -1.9681 C   0  0  0  0  0  0  0  0  0  0  0  0
    3.6493   -1.1544   -0.7783 C   0  0  0  0  0  0  0  0  0  0  0  0
    4.0232    0.1815   -1.1770 N   0  0  0  0  0  0  0  0  0  0  0  0
    3.2737    1.3276   -1.2910 C   0  0  0  0  0  0  0  0  0  0  0  0
    3.8904    2.3916   -1.6918 O   0  0  0  0  0  0  0  0  0  0  0  0
    1.8171    1.6151   -1.0289 C   0  0  2  0  0  0  0  0  0  0  0  0
    1.8348    2.7689   -0.1098 C   0  0  0  0  0  0  0  0  0  0  0  0
    0.6923    3.5355    0.3822 C   0  0  0  0  0  0  0  0  0  0  0  0
   -0.3812    2.7752    1.5388 S   0  0  0  0  0  0  0  0  0  0  0  0
   -1.5557    1.6469    0.8967 C   0  0  0  0  0  0  0  0  0  0  0  0
   -2.7181    2.3507    0.1599 C   0  0  0  0  0  0  0  0  0  0  0  0
   -3.6959    2.6924    1.2414 C   0  0  0  0  0  0  0  0  0  0  0  0
   -3.4392    2.7499    2.4409 O   0  0  0  0  0  0  0  0  0  0  0  0
   -5.0848    2.9838    0.9127 N   0  0  0  0  0  0  0  0  0  0  0  0
   -6.0672    3.0869    1.9837 C   0  0  1  0  0  0  0  0  0  0  0  0
   -7.1603    4.0405    1.7984 C   0  0  0  0  0  0  0  0  0  0  0  0
   -8.0403    3.8295    0.6320 C   0  0  0  0  0  0  0  0  0  0  0  0
   -7.6549    4.4723   -0.5515 C   0  0  0  0  0  0  0  0  0  0  0  0
   -8.3938    4.3606   -1.7098 C   0  0  0  0  0  0  0  0  0  0  0  0
   -9.5532    3.5754   -1.6624 C   0  0  0  0  0  0  0  0  0  0  0  0
   -9.9049    2.9587   -0.4937 C   0  0  0  0  0  0  0  0  0  0  0  0
   -9.1930    3.0469    0.6836 C   0  0  0  0  0  0  0  0  0  0  0  0
  -10.3297    3.4369   -2.8098 O   0  0  0  0  0  0  0  0  0  0  0  0
   -6.5571    1.6254    2.0933 C   0  0  0  0  0  0  0  0  0  0  0  0
   -7.3610    1.2570    2.9379 O   0  0  0  0  0  0  0  0  0  0  0  0
   -6.0634    0.6903    1.1875 N   0  0  0  0  0  0  0  0  0  0  0  0
   -6.2721   -0.7879    1.1711 C   0  0  2  0  0  0  0  0  0  0  0  0
   -4.8856   -1.3317    1.2123 C   0  0  0  0  0  0  0  0  0  0  0  0
   -4.0079   -0.4327    1.3200 O   0  0  0  0  0  0  0  0  0  0  0  0
   -4.3667   -2.6409    1.1505 N   0  0  0  0  0  0  0  0  0  0  0  0
   -2.9084   -2.7197    1.2244 C   0  0  2  0  0  0  0  0  0  0  0  0
   -2.3806   -2.1499   -0.0827 C   0  0  0  0  0  0  0  0  0  0  0  0
   -3.2346   -1.9255   -0.9350 O   0  0  0  0  0  0  0  0  0  0  0  0
   -1.0332   -1.8580   -0.3765 N   0  0  0  0  0  0  0  0  0  0  0  0
   -0.5411   -1.3625   -1.6184 C   0  0  2  0  0  0  0  0  0  0  0  0
    0.3523   -0.2331   -1.6793 C   0  0  0  0  0  0  0  0  0  0  0  0
    0.5793    0.2508   -2.8445 O   0  0  0  0  0  0  0  0  0  0  0  0
    1.0584    0.4685   -0.6527 N   0  0  0  0  0  0  0  0  0  0  0  0
   -1.5797   -1.3020   -2.7472 C   0  0  0  0  0  0  0  0  0  0  0  0
   -2.0487   -2.6465   -3.0808 C   0  0  0  0  0  0  0  0  0  0  0  0
   -3.0335   -2.7562   -3.8928 O   0  0  0  0  0  0  0  0  0  0  0  0
   -1.5225   -3.8674   -2.5952 N   0  0  0  0  0  0  0  0  0  0  0  0
   -2.2252   -3.8887    1.6917 C   0  0  0  0  0  0  0  0  0  0  0  0
   -2.2913   -5.2169    1.0863 C   0  0  0  0  0  0  0  0  0  0  0  0
   -3.5410   -5.9702    1.0340 C   0  0  0  0  0  0  0  0  0  0  0  0
   -4.5906   -5.7921    1.6706 O   0  0  0  0  0  0  0  0  0  0  0  0
   -3.5619   -7.0905    0.1139 N   0  0  0  0  0  0  0  0  0  0  0  0
   -6.9977   -1.1754   -0.0803 C   0  0  2  0  0  0  0  0  0  0  0  0
   -8.3405   -0.5005   -0.2105 C   0  0  0  0  0  0  0  0  0  0  0  0
   -9.2945   -0.8042    0.9045 C   0  0  0  0  0  0  0  0  0  0  0  0
   -7.2720   -2.6641   -0.0495 C   0  0  0  0  0  0  0  0  0  0  0  0
    5.4586    0.3024   -1.5662 C   0  0  0  0  0  0  0  0  0  0  0  0
    6.2617    0.7009   -0.3955 C   0  0  0  0  0  0  0  0  0  0  0  0
    5.7589    0.8851    0.7495 O   0  0  0  0  0  0  0  0  0  0  0  0
    7.6651    0.8745   -0.6311 N   0  0  0  0  0  0  0  0  0  0  0  0
    8.5793    1.2796    0.4611 C   0  0  2  0  0  0  0  0  0  0  0  0
    9.0887    2.6250    0.1146 C   0  0  0  0  0  0  0  0  0  0  0  0
    8.7650    3.0687   -1.0333 O   0  0  0  0  0  0  0  0  0  0  0  0
    9.8892    3.4341    0.9447 N   0  0  0  0  0  0  0  0  0  0  0  0
   10.3215    4.7336    0.4473 C   0  0  0  0  0  0  0  0  0  0  0  0
    9.1875    5.6292    0.1329 C   0  0  0  0  0  0  0  0  0  0  0  0
    9.4541    6.7901   -0.3189 O   0  0  0  0  0  0  0  0  0  0  0  0
    7.8459    5.2534    0.3108 N   0  0  0  0  0  0  0  0  0  0  0  0
    9.6477    0.2153    0.4513 C   0  0  0  0  0  0  0  0  0  0  0  0
   10.7271    0.3737    1.4685 C   0  0  0  0  0  0  0  0  0  0  0  0
   10.2321    0.3782    2.8746 C   0  0  0  0  0  0  0  0  0  0  0  0
   11.7090   -0.8192    1.3683 C   0  0  0  0  0  0  0  0  0  0  0  0
    2.8074   -5.8206   -1.3723 H   0  0  0  0  0  0  0  0  0  0  0  0
    4.1775   -6.2563   -0.2768 H   0  0  0  0  0  0  0  0  0  0  0  0
    2.6810   -5.3887    0.3355 H   0  0  0  0  0  0  0  0  0  0  0  0
    4.9160   -4.2168   -1.3689 H   0  0  0  0  0  0  0  0  0  0  0  0
    4.1697   -3.5640    0.1001 H   0  0  0  0  0  0  0  0  0  0  0  0
    2.6690   -3.9597   -2.5549 H   0  0  0  0  0  0  0  0  0  0  0  0
    1.9649   -3.3267   -1.0268 H   0  0  0  0  0  0  0  0  0  0  0  0
    4.3192   -2.0607   -2.5468 H   0  0  0  0  0  0  0  0  0  0  0  0
    2.6180   -1.5251   -2.6163 H   0  0  0  0  0  0  0  0  0  0  0  0
    4.5461   -1.6300   -0.2446 H   0  0  0  0  0  0  0  0  0  0  0  0
    2.8207   -1.2345   -0.0835 H   0  0  0  0  0  0  0  0  0  0  0  0
    1.4863    2.0062   -2.0472 H   0  0  0  0  0  0  0  0  0  0  0  0
    2.5509    3.5854   -0.5555 H   0  0  0  0  0  0  0  0  0  0  0  0
    2.5223    2.4921    0.8104 H   0  0  0  0  0  0  0  0  0  0  0  0
    1.0268    4.5599    0.7806 H   0  0  0  0  0  0  0  0  0  0  0  0
    0.0494    3.8903   -0.5254 H   0  0  0  0  0  0  0  0  0  0  0  0
   -2.0450    1.1716    1.8600 H   0  0  0  0  0  0  0  0  0  0  0  0
   -1.2599    0.7576    0.3691 H   0  0  0  0  0  0  0  0  0  0  0  0
   -2.3724    3.2308   -0.3993 H   0  0  0  0  0  0  0  0  0  0  0  0
   -3.1363    1.5895   -0.5263 H   0  0  0  0  0  0  0  0  0  0  0  0
   -5.2596    3.0992   -0.0754 H   0  0  0  0  0  0  0  0  0  0  0  0
   -5.5818    3.2276    2.9691 H   0  0  0  0  0  0  0  0  0  0  0  0
   -6.7388    5.0938    1.7847 H   0  0  0  0  0  0  0  0  0  0  0  0
   -7.7660    4.0518    2.7566 H   0  0  0  0  0  0  0  0  0  0  0  0
   -6.7550    5.0785   -0.5742 H   0  0  0  0  0  0  0  0  0  0  0  0
   -8.1155    4.8415   -2.6204 H   0  0  0  0  0  0  0  0  0  0  0  0
  -10.8078    2.3605   -0.5052 H   0  0  0  0  0  0  0  0  0  0  0  0
   -9.4642    2.5660    1.6003 H   0  0  0  0  0  0  0  0  0  0  0  0
   -9.8632    3.2943   -3.6843 H   0  0  0  0  0  0  0  0  0  0  0  0
   -5.4816    1.0370    0.4175 H   0  0  0  0  0  0  0  0  0  0  0  0
   -6.8856   -1.0152    2.0381 H   0  0  0  0  0  0  0  0  0  0  0  0
   -5.0213   -3.3900    1.0621 H   0  0  0  0  0  0  0  0  0  0  0  0
   -2.6151   -1.8516    1.9298 H   0  0  0  0  0  0  0  0  0  0  0  0
   -0.3714   -2.0248    0.3917 H   0  0  0  0  0  0  0  0  0  0  0  0
    0.0604   -2.2879   -2.0250 H   0  0  0  0  0  0  0  0  0  0  0  0
    0.9580    0.0832    0.2811 H   0  0  0  0  0  0  0  0  0  0  0  0
   -0.9564   -0.9671   -3.6289 H   0  0  0  0  0  0  0  0  0  0  0  0
   -2.3348   -0.5395   -2.5799 H   0  0  0  0  0  0  0  0  0  0  0  0
   -2.1910   -4.4964   -2.0935 H   0  0  0  0  0  0  0  0  0  0  0  0
   -0.5093   -4.1056   -2.7457 H   0  0  0  0  0  0  0  0  0  0  0  0
   -1.0982   -3.6148    1.7626 H   0  0  0  0  0  0  0  0  0  0  0  0
   -2.4105   -4.0592    2.8269 H   0  0  0  0  0  0  0  0  0  0  0  0
   -1.7291   -5.2865    0.1014 H   0  0  0  0  0  0  0  0  0  0  0  0
   -1.6068   -5.8826    1.7405 H   0  0  0  0  0  0  0  0  0  0  0  0
   -4.3653   -7.7497    0.0588 H   0  0  0  0  0  0  0  0  0  0  0  0
   -2.7697   -7.2877   -0.5383 H   0  0  0  0  0  0  0  0  0  0  0  0
   -6.4360   -0.9417   -0.9887 H   0  0  0  0  0  0  0  0  0  0  0  0
   -8.2662    0.5827   -0.4696 H   0  0  0  0  0  0  0  0  0  0  0  0
   -8.7920   -0.9661   -1.1417 H   0  0  0  0  0  0  0  0  0  0  0  0
   -9.4302    0.0818    1.5485 H   0  0  0  0  0  0  0  0  0  0  0  0
  -10.3170   -1.0681    0.5080 H   0  0  0  0  0  0  0  0  0  0  0  0
   -8.9832   -1.6554    1.5286 H   0  0  0  0  0  0  0  0  0  0  0  0
   -8.2873   -2.8656   -0.5060 H   0  0  0  0  0  0  0  0  0  0  0  0
   -6.5635   -3.2484   -0.6876 H   0  0  0  0  0  0  0  0  0  0  0  0
   -7.3526   -3.0414    0.9822 H   0  0  0  0  0  0  0  0  0  0  0  0
    5.5574    1.0809   -2.3551 H   0  0  0  0  0  0  0  0  0  0  0  0
    5.7897   -0.6376   -1.9945 H   0  0  0  0  0  0  0  0  0  0  0  0
    8.1184    0.7332   -1.5475 H   0  0  0  0  0  0  0  0  0  0  0  0
    8.0157    1.3748    1.3848 H   0  0  0  0  0  0  0  0  0  0  0  0
   10.1541    3.1168    1.8966 H   0  0  0  0  0  0  0  0  0  0  0  0
   11.0541    5.1904    1.1577 H   0  0  0  0  0  0  0  0  0  0  0  0
   10.9332    4.5517   -0.4791 H   0  0  0  0  0  0  0  0  0  0  0  0
    7.6092    4.7975    1.2400 H   0  0  0  0  0  0  0  0  0  0  0  0
    7.1190    5.4136   -0.4211 H   0  0  0  0  0  0  0  0  0  0  0  0
   10.1198    0.2774   -0.5740 H   0  0  0  0  0  0  0  0  0  0  0  0
    9.2397   -0.8000    0.5252 H   0  0  0  0  0  0  0  0  0  0  0  0
   11.3396    1.2470    1.2557 H   0  0  0  0  0  0  0  0  0  0  0  0
   10.9250    0.9555    3.5250 H   0  0  0  0  0  0  0  0  0  0  0  0
   10.2409   -0.6704    3.2625 H   0  0  0  0  0  0  0  0  0  0  0  0
    9.1935    0.7343    2.9303 H   0  0  0  0  0  0  0  0  0  0  0  0
   12.4080   -0.7004    2.2190 H   0  0  0  0  0  0  0  0  0  0  0  0
   11.1671   -1.7720    1.4709 H   0  0  0  0  0  0  0  0  0  0  0  0
   12.2946   -0.7364    0.4284 H   0  0  0  0  0  0  0  0  0  0  0  0
  1  2  1  0
  2  3  1  0
  3  4  1  0
  4  5  1  0
  5  6  1  0
  6  7  1  0
  7  8  2  0
  7  9  1  0
  9 10  1  0
 10 11  1  0
 11 12  1  0
 12 13  1  0
 13 14  1  0
 14 15  1  0
 15 16  2  0
 15 17  1  0
 17 18  1  0
 18 19  1  0
 19 20  1  0
 20 21  2  0
 21 22  1  0
 22 23  2  0
 23 24  1  0
 24 25  2  0
 23 26  1  0
 18 27  1  0
 27 28  2  0
 27 29  1  0
 29 30  1  0
 30 31  1  0
 31 32  2  0
 31 33  1  0
 33 34  1  0
 34 35  1  0
 35 36  2  0
 35 37  1  0
 37 38  1  0
 38 39  1  0
 39 40  2  0
 39 41  1  0
 38 42  1  0
 42 43  1  0
 43 44  2  0
 43 45  1  0
 34 46  1  0
 46 47  1  0
 47 48  1  0
 48 49  2  0
 48 50  1  0
 30 51  1  0
 51 52  1  0
 52 53  1  0
 51 54  1  0
  6 55  1  0
 55 56  1  0
 56 57  2  0
 56 58  1  0
 58 59  1  0
 59 60  1  0
 60 61  2  0
 60 62  1  0
 62 63  1  0
 63 64  1  0
 64 65  2  0
 64 66  1  0
 59 67  1  0
 67 68  1  0
 68 69  1  0
 68 70  1  0
 41  9  1  0
 25 20  1  0
  1 71  1  0
  1 72  1  0
  1 73  1  0
  2 74  1  0
  2 75  1  0
  3 76  1  0
  3 77  1  0
  4 78  1  0
  4 79  1  0
  5 80  1  0
  5 81  1  0
  9 82  1  6
 10 83  1  0
 10 84  1  0
 11 85  1  0
 11 86  1  0
 13 87  1  0
 13 88  1  0
 14 89  1  0
 14 90  1  0
 17 91  1  0
 18 92  1  1
 19 93  1  0
 19 94  1  0
 21 95  1  0
 22 96  1  0
 24 97  1  0
 25 98  1  0
 26 99  1  0
 29100  1  0
 30101  1  1
 33102  1  0
 34103  1  1
 37104  1  0
 38105  1  6
 41106  1  0
 42107  1  0
 42108  1  0
 45109  1  0
 45110  1  0
 46111  1  0
 46112  1  0
 47113  1  0
 47114  1  0
 50115  1  0
 50116  1  0
 51117  1  6
 52118  1  0
 52119  1  0
 53120  1  0
 53121  1  0
 53122  1  0
 54123  1  0
 54124  1  0
 54125  1  0
 55126  1  0
 55127  1  0
 58128  1  0
 59129  1  1
 62130  1  0
 63131  1  0
 63132  1  0
 66133  1  0
 66134  1  0
 67135  1  0
 67136  1  0
 68137  1  0
 69138  1  0
 69139  1  0
 69140  1  0
 70141  1  0
 70142  1  0
 70143  1  0
M  END
>  <Ligand ID>  (1) 
LIG0001895

>  <Ligand>  (1) 
CHEMBL3354586

>  <SMILES>  (1) 
CCCCCN(C(=O)[C@@H]1CCSCCC(=O)N[C@@H](Cc2ccc(cc2)O)C(=O)N[C@H](C(=O)N[C@H](C(=O)N[C@H](C(=O)N1)CC(=O)N)CCC(=O)N)[C@H](CC)C)CC(=O)N[C@H](C(=O)NCC(=O)N)CC(C)C

>  <CID>  (1) 
118720276.0

>  <ChEMBL ID>  (1) 
nan

>  <InChiKey>  (1) 
BCZNWIGBGJBZBD-SFKWGLIHSA-N

>  <InChi>  (1) 
InChI=1S/C46H73N11O12S/c1-6-8-9-18-57(25-39(63)52-32(21-26(3)4)41(64)50-24-37(49)61)46(69)31-16-19-70-20-17-38(62)51-33(22-28-10-12-29(58)13-11-28)44(67)56-40(27(5)7-2)45(68)53-30(14-15-35(47)59)42(65)55-34(23-36(48)60)43(66)54-31/h10-13,26-27,30-34,40,58H,6-9,14-25H2,1-5H3,(H2,47,59)(H2,48,60)(H2,49,61)(H,50,64)(H,51,62)(H,52,63)(H,53,68)(H,54,66)(H,55,65)(H,56,67)/t27-,30-,31-,32-,33-,34-,40-/m0/s1

>  <IUPAC Name>  (1) 
(4S,7S,10S,13S,16S)-7-(2-amino-2-oxoethyl)-N-[2-[[(2S)-1-[(2-amino-2-oxoethyl)amino]-4-methyl-1-oxopentan-2-yl]amino]-2-oxoethyl]-10-(3-amino-3-oxopropyl)-13-[(2S)-butan-2-yl]-16-[(4-hydroxyphenyl)methyl]-6,9,12,15,18-pentaoxo-N-pentyl-1-thia-5,8,11,14,17-pentazacycloicosane-4-carboxamide

$$$$
