
     RDKit          3D

 47 50  0  0  0  0  0  0  0  0999 V2000
    0.6407    1.2537   -1.3638 O   0  0  0  0  0  0  0  0  0  0  0  0
    0.9761   -0.0893   -1.1932 C   0  0  2  0  0  0  0  0  0  0  0  0
   -0.1773   -1.0065   -1.4480 C   0  0  0  0  0  0  0  0  0  0  0  0
   -0.6067   -1.5575   -0.1251 C   0  0  1  0  0  0  0  0  0  0  0  0
    0.1675   -0.8595    0.9467 C   0  0  1  0  0  0  0  0  0  0  0  0
    1.3855   -0.2711    0.2558 C   0  0  1  0  0  0  0  0  0  0  0  0
    2.4845   -1.3032    0.2598 C   0  0  0  0  0  0  0  0  0  0  0  0
    3.6057   -0.9824   -0.4649 O   0  0  0  0  0  0  0  0  0  0  0  0
    4.5224    0.0009   -0.3655 C   0  0  0  0  0  0  0  0  0  0  0  0
    4.5946    1.0029    0.5581 C   0  0  0  0  0  0  0  0  0  0  0  0
    5.5961    1.9718    0.5578 C   0  0  0  0  0  0  0  0  0  0  0  0
    6.5766    1.9528   -0.4004 C   0  0  0  0  0  0  0  0  0  0  0  0
    6.5309    0.9565   -1.3428 C   0  0  0  0  0  0  0  0  0  0  0  0
    5.5451    0.0089   -1.3369 C   0  0  0  0  0  0  0  0  0  0  0  0
   -0.6372    0.1540    1.6994 C   0  0  0  0  0  0  0  0  0  0  0  0
   -1.8036    0.7168    0.9510 C   0  0  0  0  0  0  0  0  0  0  0  0
   -2.5192   -0.2771    0.0813 C   0  0  1  0  0  0  0  0  0  0  0  0
   -1.9646   -1.5407    0.0744 O   0  0  0  0  0  0  0  0  0  0  0  0
   -3.9539   -0.4543    0.5347 C   0  0  0  0  0  0  0  0  0  0  0  0
   -4.4884   -1.4589    1.8950 S   0  0  0  0  0  0  0  0  0  0  0  0
   -6.2596   -1.0423    1.6476 C   0  0  0  0  0  0  0  0  0  0  0  0
   -6.2158   -0.1988    0.5698 C   0  0  0  0  0  0  0  0  0  0  0  0
   -5.0607    0.0664    0.0497 N   0  0  0  0  0  0  0  0  0  0  0  0
   -7.4797    0.3869    0.0280 C   0  0  0  0  0  0  0  0  0  0  0  0
   -7.4714    1.1622   -0.9587 O   0  0  0  0  0  0  0  0  0  0  0  0
   -8.7045    0.0953    0.5950 O   0  0  0  0  0  0  0  0  0  0  0  0
    1.3174    1.8323   -0.9429 H   0  0  0  0  0  0  0  0  0  0  0  0
    1.7971   -0.3658   -1.8848 H   0  0  0  0  0  0  0  0  0  0  0  0
   -0.9392   -0.4312   -1.9922 H   0  0  0  0  0  0  0  0  0  0  0  0
    0.0995   -1.8447   -2.1499 H   0  0  0  0  0  0  0  0  0  0  0  0
   -0.2941   -2.6397   -0.0820 H   0  0  0  0  0  0  0  0  0  0  0  0
    0.5684   -1.5826    1.7075 H   0  0  0  0  0  0  0  0  0  0  0  0
    1.7050    0.6463    0.7303 H   0  0  0  0  0  0  0  0  0  0  0  0
    2.0651   -2.2545   -0.2029 H   0  0  0  0  0  0  0  0  0  0  0  0
    2.7354   -1.5771    1.3344 H   0  0  0  0  0  0  0  0  0  0  0  0
    3.8730    1.0809    1.3487 H   0  0  0  0  0  0  0  0  0  0  0  0
    5.6364    2.7567    1.2963 H   0  0  0  0  0  0  0  0  0  0  0  0
    7.3745    2.6641   -0.4606 H   0  0  0  0  0  0  0  0  0  0  0  0
    7.2999    0.9221   -2.1132 H   0  0  0  0  0  0  0  0  0  0  0  0
    5.5718   -0.7448   -2.1086 H   0  0  0  0  0  0  0  0  0  0  0  0
    0.0616    1.0069    1.9456 H   0  0  0  0  0  0  0  0  0  0  0  0
   -0.9415   -0.2423    2.7054 H   0  0  0  0  0  0  0  0  0  0  0  0
   -2.5328    1.0988    1.7003 H   0  0  0  0  0  0  0  0  0  0  0  0
   -1.5068    1.5706    0.3237 H   0  0  0  0  0  0  0  0  0  0  0  0
   -2.6202    0.0876   -0.9636 H   0  0  0  0  0  0  0  0  0  0  0  0
   -7.0437   -1.4028    2.2298 H   0  0  0  0  0  0  0  0  0  0  0  0
   -9.5101    0.7317    0.4815 H   0  0  0  0  0  0  0  0  0  0  0  0
  1  2  1  0
  2  3  1  0
  3  4  1  0
  4  5  1  0
  5  6  1  0
  6  7  1  0
  7  8  1  0
  8  9  1  0
  9 10  2  0
 10 11  1  0
 11 12  2  0
 12 13  1  0
 13 14  2  0
  5 15  1  0
 15 16  1  0
 16 17  1  0
 17 18  1  0
 17 19  1  0
 19 20  1  0
 20 21  1  0
 21 22  2  0
 22 23  1  0
 22 24  1  0
 24 25  2  0
 24 26  1  0
  6  2  1  0
 14  9  1  0
 23 19  2  0
 18  4  1  0
  1 27  1  0
  2 28  1  6
  3 29  1  0
  3 30  1  0
  4 31  1  6
  5 32  1  1
  6 33  1  1
  7 34  1  0
  7 35  1  0
 10 36  1  0
 11 37  1  0
 12 38  1  0
 13 39  1  0
 14 40  1  0
 15 41  1  0
 15 42  1  0
 16 43  1  0
 16 44  1  0
 17 45  1  6
 21 46  1  0
 26 47  1  0
M  END
>  <Ligand ID>  (1) 
LIG0000839

>  <Ligand>  (1) 
CHEMBL3793209

>  <SMILES>  (1) 
O[C@@H]1C[C@H]2[C@@H]([C@H]1COc1ccccc1)CC[C@@H](O2)c1scc(n1)C(=O)O

>  <CID>  (1) 
118352211.0

>  <ChEMBL ID>  (1) 
nan

>  <InChiKey>  (1) 
OLIHKSYTBDCPSM-HSMRXVHUSA-N

>  <InChi>  (1) 
InChI=1S/C19H21NO5S/c21-15-8-17-12(13(15)9-24-11-4-2-1-3-5-11)6-7-16(25-17)18-20-14(10-26-18)19(22)23/h1-5,10,12-13,15-17,21H,6-9H2,(H,22,23)/t12-,13-,15-,16-,17+/m1/s1

>  <IUPAC Name>  (1) 
2-[(2R,4aR,5S,6R,7aS)-6-hydroxy-5-(phenoxymethyl)-2,3,4,4a,5,6,7,7a-octahydrocyclopenta[b]pyran-2-yl]-1,3-thiazole-4-carboxylic acid

$$$$
