
     RDKit          3D

 28 29  0  0  0  0  0  0  0  0999 V2000
   -1.3730   -2.5167   -0.1987 O   0  0  0  0  0  0  0  0  0  0  0  0
   -0.8028   -1.4087   -0.1087 C   0  0  0  0  0  0  0  0  0  0  0  0
    0.6152   -1.3408   -0.0919 N   0  0  0  0  0  0  0  0  0  0  0  0
    1.2716   -2.6495   -0.1873 C   0  0  0  0  0  0  0  0  0  0  0  0
    1.0760   -3.7714   -0.2750 N   0  0  0  0  0  0  0  0  0  0  0  0
    1.9169   -4.7759   -0.3458 C   0  0  0  0  0  0  0  0  0  0  0  0
    3.2250   -4.4395   -0.3098 C   0  0  0  0  0  0  0  0  0  0  0  0
    3.1706   -2.6278   -0.1710 S   0  0  0  0  0  0  0  0  0  0  0  0
    4.4261   -5.1602   -0.3559 N   0  0  0  0  0  0  0  0  0  0  0  0
    5.5204   -4.5791   -0.3029 O   0  0  0  0  0  0  0  0  0  0  0  0
    4.3756   -6.5160   -0.4605 O   0  0  0  0  0  0  0  0  0  0  0  0
   -1.5622   -0.1132   -0.0152 C   0  0  0  0  0  0  0  0  0  0  0  0
   -0.6836    0.9878    0.0768 O   0  0  0  0  0  0  0  0  0  0  0  0
   -1.2332    2.2695    0.1710 C   0  0  0  0  0  0  0  0  0  0  0  0
   -2.5964    2.4708    0.1751 C   0  0  0  0  0  0  0  0  0  0  0  0
   -3.0247    3.7941    0.2735 C   0  0  0  0  0  0  0  0  0  0  0  0
   -2.1389    4.8487    0.3620 C   0  0  0  0  0  0  0  0  0  0  0  0
   -0.7832    4.5931    0.3536 C   0  0  0  0  0  0  0  0  0  0  0  0
   -0.3210    3.3092    0.2586 C   0  0  0  0  0  0  0  0  0  0  0  0
   -2.6853    6.5006    0.4847 Cl  0  0  0  0  0  0  0  0  0  0  0  0
    1.1505   -0.4716   -0.0206 H   0  0  0  0  0  0  0  0  0  0  0  0
    1.5817   -5.8274   -0.4291 H   0  0  0  0  0  0  0  0  0  0  0  0
   -2.1924   -0.1421    0.9144 H   0  0  0  0  0  0  0  0  0  0  0  0
   -2.2533    0.0225   -0.8604 H   0  0  0  0  0  0  0  0  0  0  0  0
   -3.2890    1.6420    0.1056 H   0  0  0  0  0  0  0  0  0  0  0  0
   -4.0825    4.0202    0.2821 H   0  0  0  0  0  0  0  0  0  0  0  0
   -0.0553    5.3987    0.4217 H   0  0  0  0  0  0  0  0  0  0  0  0
    0.7470    3.1296    0.2537 H   0  0  0  0  0  0  0  0  0  0  0  0
  1  2  2  0
  2  3  1  0
  3  4  1  0
  4  5  2  0
  5  6  1  0
  6  7  2  0
  7  8  1  0
  7  9  1  0
  9 10  2  0
  9 11  1  0
  2 12  1  0
 12 13  1  0
 13 14  1  0
 14 15  2  0
 15 16  1  0
 16 17  2  0
 17 18  1  0
 18 19  2  0
 17 20  1  0
  8  4  1  0
 19 14  1  0
  3 21  1  0
  6 22  1  0
 12 23  1  0
 12 24  1  0
 15 25  1  0
 16 26  1  0
 18 27  1  0
 19 28  1  0
M  CHG  2   9   1  11  -1
M  END
>  <Ligand ID>  (1) 
LIG0005969

>  <Ligand>  (1) 
MLS000708273

>  <SMILES>  (1) 
O=C(Nc1ncc(s1)[N+](=O)[O-])COc1ccc(cc1)Cl

>  <CID>  (1) 
3148028.0

>  <ChEMBL ID>  (1) 
nan

>  <InChiKey>  (1) 
UYTYUPKOCVMOCG-UHFFFAOYSA-N

>  <InChi>  (1) 
InChI=1S/C11H8ClN3O4S/c12-7-1-3-8(4-2-7)19-6-9(16)14-11-13-5-10(20-11)15(17)18/h1-5H,6H2,(H,13,14,16)

>  <IUPAC Name>  (1) 
2-(4-chlorophenoxy)-N-(5-nitro-1,3-thiazol-2-yl)acetamide

$$$$
