
     RDKit          3D

 55 58  0  0  0  0  0  0  0  0999 V2000
    4.3752   -0.1133    1.7783 C   0  0  0  0  0  0  0  0  0  0  0  0
    3.8325    0.6199    0.5632 C   0  0  0  0  0  0  0  0  0  0  0  0
    4.6440    0.0907   -0.6265 C   0  0  0  0  0  0  0  0  0  0  0  0
    4.4761   -1.3370   -0.7628 N   0  0  0  0  0  0  0  0  0  0  0  0
    5.2888   -2.2238   -0.1438 C   0  0  0  0  0  0  0  0  0  0  0  0
    4.8801   -3.4862   -0.4624 N   0  0  0  0  0  0  0  0  0  0  0  0
    3.8163   -3.3539   -1.2770 C   0  0  0  0  0  0  0  0  0  0  0  0
    3.5876   -2.0374   -1.4470 N   0  0  0  0  0  0  0  0  0  0  0  0
    2.4836    0.4378    0.2881 N   0  0  0  0  0  0  0  0  0  0  0  0
    1.4699    0.7401    1.1817 C   0  0  0  0  0  0  0  0  0  0  0  0
    0.0681    0.5587    0.6825 C   0  0  0  0  0  0  0  0  0  0  0  0
   -0.7220   -0.5576    0.9426 C   0  0  0  0  0  0  0  0  0  0  0  0
   -1.8957   -0.3594    0.3142 N   0  0  0  0  0  0  0  0  0  0  0  0
   -1.8461    0.8008   -0.2978 N   0  0  0  0  0  0  0  0  0  0  0  0
   -0.6451    1.4225   -0.1050 C   0  0  0  0  0  0  0  0  0  0  0  0
   -0.3560    2.7192   -0.6520 C   0  0  0  0  0  0  0  0  0  0  0  0
    0.7818    3.0971   -1.3073 C   0  0  0  0  0  0  0  0  0  0  0  0
    0.9699    4.3849   -1.7995 C   0  0  0  0  0  0  0  0  0  0  0  0
   -0.0080    5.3440   -1.6390 C   0  0  0  0  0  0  0  0  0  0  0  0
   -1.1754    4.9840   -0.9757 C   0  0  0  0  0  0  0  0  0  0  0  0
   -1.3342    3.7000   -0.4981 C   0  0  0  0  0  0  0  0  0  0  0  0
   -3.0477   -1.2026    0.2668 C   0  0  0  0  0  0  0  0  0  0  0  0
   -3.0164   -2.4962   -0.2070 C   0  0  0  0  0  0  0  0  0  0  0  0
   -4.1772   -3.2440   -0.2195 C   0  0  0  0  0  0  0  0  0  0  0  0
   -4.2110   -4.6365   -0.7143 C   0  0  0  0  0  0  0  0  0  0  0  0
   -5.3659   -2.7025    0.2393 C   0  0  0  0  0  0  0  0  0  0  0  0
   -5.3874   -1.3913    0.7173 C   0  0  0  0  0  0  0  0  0  0  0  0
   -4.2271   -0.6490    0.7280 C   0  0  0  0  0  0  0  0  0  0  0  0
   -4.3036    0.7371    1.2449 C   0  0  0  0  0  0  0  0  0  0  0  0
    4.1061    0.3716    2.7275 H   0  0  0  0  0  0  0  0  0  0  0  0
    4.1104   -1.1720    1.7826 H   0  0  0  0  0  0  0  0  0  0  0  0
    5.4943   -0.0007    1.6996 H   0  0  0  0  0  0  0  0  0  0  0  0
    4.1288    1.6897    0.6456 H   0  0  0  0  0  0  0  0  0  0  0  0
    4.2060    0.5555   -1.5533 H   0  0  0  0  0  0  0  0  0  0  0  0
    5.7139    0.3394   -0.5259 H   0  0  0  0  0  0  0  0  0  0  0  0
    6.1337   -1.9839    0.5045 H   0  0  0  0  0  0  0  0  0  0  0  0
    3.2931   -4.2103   -1.6809 H   0  0  0  0  0  0  0  0  0  0  0  0
    2.2334    0.2829   -0.6651 H   0  0  0  0  0  0  0  0  0  0  0  0
    1.5191    1.7682    1.6375 H   0  0  0  0  0  0  0  0  0  0  0  0
    1.5844    0.0772    2.0961 H   0  0  0  0  0  0  0  0  0  0  0  0
   -0.4706   -1.4381    1.5351 H   0  0  0  0  0  0  0  0  0  0  0  0
    1.5767    2.3931   -1.4658 H   0  0  0  0  0  0  0  0  0  0  0  0
    1.8826    4.6510   -2.3128 H   0  0  0  0  0  0  0  0  0  0  0  0
    0.1643    6.3363   -2.0316 H   0  0  0  0  0  0  0  0  0  0  0  0
   -1.9423    5.7222   -0.8458 H   0  0  0  0  0  0  0  0  0  0  0  0
   -2.2575    3.4800    0.0061 H   0  0  0  0  0  0  0  0  0  0  0  0
   -2.0831   -2.9094   -0.5629 H   0  0  0  0  0  0  0  0  0  0  0  0
   -3.1798   -4.9879   -0.9393 H   0  0  0  0  0  0  0  0  0  0  0  0
   -4.7820   -4.5931   -1.6874 H   0  0  0  0  0  0  0  0  0  0  0  0
   -4.7803   -5.2950   -0.0608 H   0  0  0  0  0  0  0  0  0  0  0  0
   -6.2642   -3.3009    0.2227 H   0  0  0  0  0  0  0  0  0  0  0  0
   -6.3366   -0.9677    1.0809 H   0  0  0  0  0  0  0  0  0  0  0  0
   -4.4620    1.4546    0.4011 H   0  0  0  0  0  0  0  0  0  0  0  0
   -3.3592    1.0294    1.7496 H   0  0  0  0  0  0  0  0  0  0  0  0
   -5.1845    0.8615    1.9036 H   0  0  0  0  0  0  0  0  0  0  0  0
  1  2  1  0
  2  3  1  0
  3  4  1  0
  4  5  1  0
  5  6  2  0
  6  7  1  0
  7  8  2  0
  2  9  1  0
  9 10  1  0
 10 11  1  0
 11 12  2  0
 12 13  1  0
 13 14  1  0
 14 15  2  0
 15 16  1  0
 16 17  2  0
 17 18  1  0
 18 19  2  0
 19 20  1  0
 20 21  2  0
 13 22  1  0
 22 23  2  0
 23 24  1  0
 24 25  1  0
 24 26  2  0
 26 27  1  0
 27 28  2  0
 28 29  1  0
  8  4  1  0
 15 11  1  0
 21 16  1  0
 28 22  1  0
  1 30  1  0
  1 31  1  0
  1 32  1  0
  2 33  1  0
  3 34  1  0
  3 35  1  0
  5 36  1  0
  7 37  1  0
  9 38  1  0
 10 39  1  0
 10 40  1  0
 12 41  1  0
 17 42  1  0
 18 43  1  0
 19 44  1  0
 20 45  1  0
 21 46  1  0
 23 47  1  0
 25 48  1  0
 25 49  1  0
 25 50  1  0
 26 51  1  0
 27 52  1  0
 29 53  1  0
 29 54  1  0
 29 55  1  0
M  END
>  <Ligand ID>  (1) 
LIG0003703

>  <Ligand>  (1) 
MLS000734011

>  <SMILES>  (1) 
CC(Cn1cncn1)NCc1cn(nc1c1ccccc1)c1cc(C)ccc1C

>  <CID>  (1) 
16190428.0

>  <ChEMBL ID>  (1) 
nan

>  <InChiKey>  (1) 
MEMKNMSANHWTDT-UHFFFAOYSA-N

>  <InChi>  (1) 
InChI=1S/C23H26N6/c1-17-9-10-18(2)22(11-17)29-14-21(23(27-29)20-7-5-4-6-8-20)12-25-19(3)13-28-16-24-15-26-28/h4-11,14-16,19,25H,12-13H2,1-3H3

>  <IUPAC Name>  (1) 
N-[[1-(2,5-dimethylphenyl)-3-phenylpyrazol-4-yl]methyl]-1-(1,2,4-triazol-1-yl)propan-2-amine

$$$$
