
     RDKit          3D

 71 76  0  0  0  0  0  0  0  0999 V2000
   -3.3673    4.7179   -1.7757 C   0  0  0  0  0  0  0  0  0  0  0  0
   -2.6118    3.6074   -1.3340 O   0  0  0  0  0  0  0  0  0  0  0  0
   -2.5608    3.2552   -0.0156 C   0  0  0  0  0  0  0  0  0  0  0  0
   -3.2855    4.0320    0.8895 C   0  0  0  0  0  0  0  0  0  0  0  0
   -3.3096    3.7716    2.2396 C   0  0  0  0  0  0  0  0  0  0  0  0
   -2.5853    2.6981    2.7036 C   0  0  0  0  0  0  0  0  0  0  0  0
   -1.8677    1.9318    1.7946 C   0  0  0  0  0  0  0  0  0  0  0  0
   -1.8216    2.1602    0.4605 C   0  0  0  0  0  0  0  0  0  0  0  0
   -1.0761    1.3805   -0.5405 C   0  0  0  0  0  0  0  0  0  0  0  0
   -2.0897    0.4330   -1.1800 C   0  0  0  0  0  0  0  0  0  0  0  0
   -2.7105   -0.3577   -0.0420 C   0  0  0  0  0  0  0  0  0  0  0  0
   -1.6938   -0.9682    0.7170 N   0  0  0  0  0  0  0  0  0  0  0  0
   -0.6679   -0.1712    1.2654 C   0  0  2  0  0  0  0  0  0  0  0  0
   -1.1141    0.7824    2.3548 C   0  0  0  0  0  0  0  0  0  0  0  0
    0.0271    0.5422    0.1402 C   0  0  1  0  0  0  0  0  0  0  0  0
    0.4927   -0.3932   -0.7469 O   0  0  0  0  0  0  0  0  0  0  0  0
    1.4779   -1.2346   -0.3542 C   0  0  0  0  0  0  0  0  0  0  0  0
    1.9120   -2.2124   -1.4445 C   0  0  0  0  0  0  0  0  0  0  0  0
    3.0050   -3.0736   -0.8617 C   0  0  0  0  0  0  0  0  0  0  0  0
    4.1794   -2.3174   -0.4234 C   0  0  0  0  0  0  0  0  0  0  0  0
    4.3352   -1.8053    0.8587 C   0  0  0  0  0  0  0  0  0  0  0  0
    5.4997   -1.0954    1.1770 C   0  0  0  0  0  0  0  0  0  0  0  0
    6.4974   -0.9007    0.2211 C   0  0  0  0  0  0  0  0  0  0  0  0
    6.3418   -1.4092   -1.0511 C   0  0  0  0  0  0  0  0  0  0  0  0
    5.1891   -2.1155   -1.3771 C   0  0  0  0  0  0  0  0  0  0  0  0
    1.0607    1.5232    0.6027 C   0  0  0  0  0  0  0  0  0  0  0  0
    1.8411    2.0312   -0.5763 C   0  0  0  0  0  0  0  0  0  0  0  0
    0.9752    1.8115   -1.7958 C   0  0  0  0  0  0  0  0  0  0  0  0
    1.3896    1.3319   -2.8122 O   0  0  0  0  0  0  0  0  0  0  0  0
   -0.4617    2.2507   -1.6211 C   0  0  0  0  0  0  0  0  0  0  0  0
   -1.9117   -2.2611    1.2391 C   0  0  0  0  0  0  0  0  0  0  0  0
   -1.9543   -3.2227    0.0528 C   0  0  0  0  0  0  0  0  0  0  0  0
   -2.1729   -4.6705    0.3048 C   0  0  0  0  0  0  0  0  0  0  0  0
   -3.2658   -3.8498   -0.3384 C   0  0  0  0  0  0  0  0  0  0  0  0
   -2.9732    4.9388   -2.8094 H   0  0  0  0  0  0  0  0  0  0  0  0
   -4.4448    4.5525   -1.7735 H   0  0  0  0  0  0  0  0  0  0  0  0
   -3.0470    5.6268   -1.1850 H   0  0  0  0  0  0  0  0  0  0  0  0
   -3.8598    4.8774    0.5447 H   0  0  0  0  0  0  0  0  0  0  0  0
   -3.8668    4.3650    2.9539 H   0  0  0  0  0  0  0  0  0  0  0  0
   -2.5730    2.4492    3.7730 H   0  0  0  0  0  0  0  0  0  0  0  0
   -2.8202    1.0614   -1.6860 H   0  0  0  0  0  0  0  0  0  0  0  0
   -1.6231   -0.2934   -1.8610 H   0  0  0  0  0  0  0  0  0  0  0  0
   -3.4676    0.2304    0.5059 H   0  0  0  0  0  0  0  0  0  0  0  0
   -3.2999   -1.1828   -0.5328 H   0  0  0  0  0  0  0  0  0  0  0  0
    0.0609   -0.8497    1.7650 H   0  0  0  0  0  0  0  0  0  0  0  0
   -0.1913    1.1157    2.8921 H   0  0  0  0  0  0  0  0  0  0  0  0
   -1.8069    0.2220    3.0174 H   0  0  0  0  0  0  0  0  0  0  0  0
    1.1462   -1.8736    0.4664 H   0  0  0  0  0  0  0  0  0  0  0  0
    2.3932   -0.6516   -0.1250 H   0  0  0  0  0  0  0  0  0  0  0  0
    1.0793   -2.8284   -1.7961 H   0  0  0  0  0  0  0  0  0  0  0  0
    2.3266   -1.6807   -2.3202 H   0  0  0  0  0  0  0  0  0  0  0  0
    2.5680   -3.5458    0.0637 H   0  0  0  0  0  0  0  0  0  0  0  0
    3.2679   -3.9141   -1.5301 H   0  0  0  0  0  0  0  0  0  0  0  0
    3.5492   -1.9669    1.5872 H   0  0  0  0  0  0  0  0  0  0  0  0
    5.6410   -0.6884    2.1691 H   0  0  0  0  0  0  0  0  0  0  0  0
    7.4139   -0.3469    0.4600 H   0  0  0  0  0  0  0  0  0  0  0  0
    7.1213   -1.2557   -1.7939 H   0  0  0  0  0  0  0  0  0  0  0  0
    5.0875   -2.5091   -2.3911 H   0  0  0  0  0  0  0  0  0  0  0  0
    0.4874    2.4133    0.9966 H   0  0  0  0  0  0  0  0  0  0  0  0
    1.6855    1.1847    1.4333 H   0  0  0  0  0  0  0  0  0  0  0  0
    2.8495    1.6294   -0.6855 H   0  0  0  0  0  0  0  0  0  0  0  0
    1.9693    3.1444   -0.5525 H   0  0  0  0  0  0  0  0  0  0  0  0
   -0.3388    3.2853   -1.1952 H   0  0  0  0  0  0  0  0  0  0  0  0
   -1.0249    2.2302   -2.5636 H   0  0  0  0  0  0  0  0  0  0  0  0
   -1.1099   -2.5084    1.9460 H   0  0  0  0  0  0  0  0  0  0  0  0
   -2.9147   -2.3654    1.7474 H   0  0  0  0  0  0  0  0  0  0  0  0
   -1.2764   -2.9983   -0.8026 H   0  0  0  0  0  0  0  0  0  0  0  0
   -1.6317   -5.4088   -0.3226 H   0  0  0  0  0  0  0  0  0  0  0  0
   -2.4191   -5.0211    1.3126 H   0  0  0  0  0  0  0  0  0  0  0  0
   -3.4751   -4.0160   -1.4290 H   0  0  0  0  0  0  0  0  0  0  0  0
   -4.1778   -3.6235    0.2335 H   0  0  0  0  0  0  0  0  0  0  0  0
  1  2  1  0
  2  3  1  0
  3  4  2  0
  4  5  1  0
  5  6  2  0
  6  7  1  0
  7  8  2  0
  8  9  1  0
  9 10  1  0
 10 11  1  0
 11 12  1  0
 12 13  1  0
 13 14  1  0
 13 15  1  0
 15 16  1  6
 16 17  1  0
 17 18  1  0
 18 19  1  0
 19 20  1  0
 20 21  2  0
 21 22  1  0
 22 23  2  0
 23 24  1  0
 24 25  2  0
 15 26  1  0
 26 27  1  0
 27 28  1  0
 28 29  2  0
 28 30  1  0
 12 31  1  0
 31 32  1  0
 32 33  1  0
 33 34  1  0
  8  3  1  0
 30  9  1  0
 34 32  1  0
 14  7  1  0
 25 20  1  0
 15  9  1  0
  1 35  1  0
  1 36  1  0
  1 37  1  0
  4 38  1  0
  5 39  1  0
  6 40  1  0
 10 41  1  0
 10 42  1  0
 11 43  1  0
 11 44  1  0
 13 45  1  1
 14 46  1  0
 14 47  1  0
 17 48  1  0
 17 49  1  0
 18 50  1  0
 18 51  1  0
 19 52  1  0
 19 53  1  0
 21 54  1  0
 22 55  1  0
 23 56  1  0
 24 57  1  0
 25 58  1  0
 26 59  1  0
 26 60  1  0
 27 61  1  0
 27 62  1  0
 30 63  1  0
 30 64  1  0
 31 65  1  0
 31 66  1  0
 32 67  1  0
 33 68  1  0
 33 69  1  0
 34 70  1  0
 34 71  1  0
M  END
>  <Ligand ID>  (1) 
LIG0004881

>  <Ligand>  (1) 
CHEMBL110640

>  <SMILES>  (1) 
COc1cccc2c1C13CCN([C@H](C2)[C@]3(OCCCc2ccccc2)CCC(=O)C1)CC1CC1

>  <CID>  (1) 
44339521.0

>  <ChEMBL ID>  (1) 
nan

>  <InChiKey>  (1) 
UFAUQZKEVAHHCZ-RUNCHOGJSA-N

>  <InChi>  (1) 
InChI=1S/C30H37NO3/c1-33-26-11-5-10-24-19-27-30(34-18-6-9-22-7-3-2-4-8-22)15-14-25(32)20-29(30,28(24)26)16-17-31(27)21-23-12-13-23/h2-5,7-8,10-11,23,27H,6,9,12-21H2,1H3/t27-,29?,30-/m1/s1

>  <IUPAC Name>  (1) 
(9R,10S)-17-(cyclopropylmethyl)-3-methoxy-10-(3-phenylpropoxy)-17-azatetracyclo[7.5.3.01,10.02,7]heptadeca-2(7),3,5-trien-13-one

$$$$
