
     RDKit          3D

 54 56  0  0  0  0  0  0  0  0999 V2000
   -8.4211    1.4841    2.5830 N   0  0  0  0  0  0  0  0  0  0  0  0
   -7.5753    0.6914    1.7005 C   0  0  0  0  0  0  0  0  0  0  0  0
   -7.3366    1.5283    0.4761 C   0  0  0  0  0  0  0  0  0  0  0  0
   -6.5548    0.9811   -0.5089 O   0  0  0  0  0  0  0  0  0  0  0  0
   -5.2589    0.5915   -0.5096 C   0  0  0  0  0  0  0  0  0  0  0  0
   -4.7552    0.0434   -1.6910 C   0  0  0  0  0  0  0  0  0  0  0  0
   -3.4612   -0.3866   -1.8207 C   0  0  0  0  0  0  0  0  0  0  0  0
   -2.6033   -0.2808   -0.7443 C   0  0  0  0  0  0  0  0  0  0  0  0
   -3.0475    0.2506    0.4399 C   0  0  0  0  0  0  0  0  0  0  0  0
   -4.3677    0.6767    0.5334 C   0  0  0  0  0  0  0  0  0  0  0  0
   -1.2289   -0.7366   -0.8906 C   0  0  0  0  0  0  0  0  0  0  0  0
   -0.3145    0.2268   -1.3319 C   0  0  0  0  0  0  0  0  0  0  0  0
   -0.7586    1.5835   -1.6105 C   0  0  0  0  0  0  0  0  0  0  0  0
   -1.0967    2.6825   -1.8338 N   0  0  0  0  0  0  0  0  0  0  0  0
    1.0182   -0.1143   -1.5047 C   0  0  0  0  0  0  0  0  0  0  0  0
    2.1178    1.1766   -2.0663 S   0  0  0  0  0  0  0  0  0  0  0  0
    2.7614    1.9738   -0.5439 C   0  0  0  0  0  0  0  0  0  0  0  0
    3.6204    1.0005    0.1770 C   0  0  0  0  0  0  0  0  0  0  0  0
    3.1805    0.1311    1.1312 C   0  0  0  0  0  0  0  0  0  0  0  0
    4.0997   -0.7359    1.7239 C   0  0  0  0  0  0  0  0  0  0  0  0
    5.4139   -0.7193    1.3604 N   0  0  0  0  0  0  0  0  0  0  0  0
    5.8727    0.1236    0.4267 C   0  0  0  0  0  0  0  0  0  0  0  0
    4.9573    0.9767   -0.1532 C   0  0  0  0  0  0  0  0  0  0  0  0
    7.2616    0.1867   -0.0052 C   0  0  0  0  0  0  0  0  0  0  0  0
    7.6404    1.0082   -0.8942 O   0  0  0  0  0  0  0  0  0  0  0  0
    8.2787   -0.6561    0.5308 N   0  0  0  0  0  0  0  0  0  0  0  0
    9.6185   -0.4682   -0.0079 C   0  0  0  0  0  0  0  0  0  0  0  0
    1.3952   -1.3596   -1.2437 N   0  0  0  0  0  0  0  0  0  0  0  0
    0.5180   -2.3141   -0.8120 C   0  0  0  0  0  0  0  0  0  0  0  0
   -0.8235   -2.0286   -0.6226 C   0  0  0  0  0  0  0  0  0  0  0  0
   -1.7680   -2.9862   -0.1781 C   0  0  0  0  0  0  0  0  0  0  0  0
   -2.5434   -3.7660    0.1648 N   0  0  0  0  0  0  0  0  0  0  0  0
    0.9744   -3.6350   -0.5452 N   0  0  0  0  0  0  0  0  0  0  0  0
   -9.0350    2.1298    2.0747 H   0  0  0  0  0  0  0  0  0  0  0  0
   -8.8732    0.9471    3.3333 H   0  0  0  0  0  0  0  0  0  0  0  0
   -8.1561   -0.2028    1.3812 H   0  0  0  0  0  0  0  0  0  0  0  0
   -6.7058    0.3866    2.2690 H   0  0  0  0  0  0  0  0  0  0  0  0
   -8.3414    1.7848    0.0628 H   0  0  0  0  0  0  0  0  0  0  0  0
   -6.8336    2.4751    0.8362 H   0  0  0  0  0  0  0  0  0  0  0  0
   -5.4021   -0.0604   -2.5737 H   0  0  0  0  0  0  0  0  0  0  0  0
   -3.0815   -0.8117   -2.7487 H   0  0  0  0  0  0  0  0  0  0  0  0
   -2.3732    0.3334    1.2855 H   0  0  0  0  0  0  0  0  0  0  0  0
   -4.6584    1.0962    1.4791 H   0  0  0  0  0  0  0  0  0  0  0  0
    3.3107    2.8898   -0.8393 H   0  0  0  0  0  0  0  0  0  0  0  0
    1.9267    2.3102    0.1214 H   0  0  0  0  0  0  0  0  0  0  0  0
    2.1321    0.1370    1.4019 H   0  0  0  0  0  0  0  0  0  0  0  0
    3.7460   -1.4359    2.4928 H   0  0  0  0  0  0  0  0  0  0  0  0
    5.3324    1.6717   -0.9227 H   0  0  0  0  0  0  0  0  0  0  0  0
    8.0474   -1.3588    1.2663 H   0  0  0  0  0  0  0  0  0  0  0  0
    9.5184   -0.1792   -1.0844 H   0  0  0  0  0  0  0  0  0  0  0  0
   10.2584   -1.3648    0.1121 H   0  0  0  0  0  0  0  0  0  0  0  0
   10.0333    0.4383    0.4948 H   0  0  0  0  0  0  0  0  0  0  0  0
    1.9658   -3.8332   -0.2123 H   0  0  0  0  0  0  0  0  0  0  0  0
    0.3755   -4.4828   -0.6568 H   0  0  0  0  0  0  0  0  0  0  0  0
  1  2  1  0
  2  3  1  0
  3  4  1  0
  4  5  1  0
  5  6  2  0
  6  7  1  0
  7  8  2  0
  8  9  1  0
  9 10  2  0
  8 11  1  0
 11 12  2  0
 12 13  1  0
 13 14  3  0
 12 15  1  0
 15 16  1  0
 16 17  1  0
 17 18  1  0
 18 19  2  0
 19 20  1  0
 20 21  2  0
 21 22  1  0
 22 23  2  0
 22 24  1  0
 24 25  2  0
 24 26  1  0
 26 27  1  0
 15 28  2  0
 28 29  1  0
 29 30  2  0
 30 31  1  0
 31 32  3  0
 29 33  1  0
 10  5  1  0
 30 11  1  0
 23 18  1  0
  1 34  1  0
  1 35  1  0
  2 36  1  0
  2 37  1  0
  3 38  1  0
  3 39  1  0
  6 40  1  0
  7 41  1  0
  9 42  1  0
 10 43  1  0
 17 44  1  0
 17 45  1  0
 19 46  1  0
 20 47  1  0
 23 48  1  0
 26 49  1  0
 27 50  1  0
 27 51  1  0
 27 52  1  0
 33 53  1  0
 33 54  1  0
M  END
>  <Ligand ID>  (1) 
LIG0004665

>  <Ligand>  (1) 
SCHEMBL3374343

>  <SMILES>  (1) 
NCCOc1ccc(cc1)c1c(C#N)c(SCc2ccnc(c2)C(=O)NC)nc(c1C#N)N

>  <CID>  (1) 
56593480.0

>  <ChEMBL ID>  (1) 
nan

>  <InChiKey>  (1) 
DDUQXIITCCDRIF-UHFFFAOYSA-N

>  <InChi>  (1) 
InChI=1S/C23H21N7O2S/c1-28-22(31)19-10-14(6-8-29-19)13-33-23-18(12-26)20(17(11-25)21(27)30-23)15-2-4-16(5-3-15)32-9-7-24/h2-6,8,10H,7,9,13,24H2,1H3,(H2,27,30)(H,28,31)

>  <IUPAC Name>  (1) 
4-[[6-amino-4-[4-(2-aminoethoxy)phenyl]-3,5-dicyanopyridin-2-yl]sulfanylmethyl]-N-methylpyridine-2-carboxamide

$$$$
