
     RDKit          3D

 85 88  0  0  0  0  0  0  0  0999 V2000
    1.9600    1.2241   -0.9970 O   0  0  0  0  0  0  0  0  0  0  0  0
    2.8600    0.7527   -0.2269 C   0  0  0  0  0  0  0  0  0  0  0  0
    2.6308   -0.4913    0.3727 N   0  0  0  0  0  0  0  0  0  0  0  0
    1.4175   -1.2465    0.1475 C   0  0  2  0  0  0  0  0  0  0  0  0
    0.5899   -1.1586    1.4151 C   0  0  0  0  0  0  0  0  0  0  0  0
    1.0298   -0.5630    2.4202 O   0  0  0  0  0  0  0  0  0  0  0  0
   -0.6777   -1.7956    1.3433 N   0  0  0  0  0  0  0  0  0  0  0  0
   -1.6089   -1.8139    2.4846 C   0  0  1  0  0  0  0  0  0  0  0  0
   -2.8360   -1.0714    2.1875 C   0  0  0  0  0  0  0  0  0  0  0  0
   -3.8166   -0.9368    2.9608 O   0  0  0  0  0  0  0  0  0  0  0  0
   -2.9609   -0.4258    0.9080 N   0  0  0  0  0  0  0  0  0  0  0  0
   -4.1832    0.3009    0.6452 C   0  0  1  0  0  0  0  0  0  0  0  0
   -3.7740    1.7595    0.6645 C   0  0  0  0  0  0  0  0  0  0  0  0
   -2.5500    2.0273    0.8725 O   0  0  0  0  0  0  0  0  0  0  0  0
   -4.7469    2.7907    0.4547 N   0  0  0  0  0  0  0  0  0  0  0  0
   -4.8019    0.0023   -0.6885 C   0  0  0  0  0  0  0  0  0  0  0  0
   -3.8768    0.3415   -1.8376 C   0  0  0  0  0  0  0  0  0  0  0  0
   -4.6123    0.0002   -3.1234 C   0  0  0  0  0  0  0  0  0  0  0  0
   -3.7881    0.2981   -4.2819 N   0  0  0  0  0  0  0  0  0  0  0  0
   -4.0314    1.3921   -4.9359 C   0  0  0  0  0  0  0  0  0  0  0  0
   -5.1057    2.1954   -4.4313 N   0  0  0  0  0  0  0  0  0  0  0  0
   -3.3029    1.7963   -6.0755 N   0  0  0  0  0  0  0  0  0  0  0  0
   -1.9109   -3.2331    2.8686 C   0  0  0  0  0  0  0  0  0  0  0  0
   -2.8427   -3.3406    4.0107 C   0  0  0  0  0  0  0  0  0  0  0  0
   -4.2098   -3.4811    3.8833 C   0  0  0  0  0  0  0  0  0  0  0  0
   -5.0375   -3.5709    4.9822 C   0  0  0  0  0  0  0  0  0  0  0  0
   -4.5362   -3.5251    6.2580 C   0  0  0  0  0  0  0  0  0  0  0  0
   -3.1763   -3.3855    6.4147 C   0  0  0  0  0  0  0  0  0  0  0  0
   -2.3500   -3.2952    5.3127 C   0  0  0  0  0  0  0  0  0  0  0  0
    1.7708   -2.6822   -0.1073 C   0  0  0  0  0  0  0  0  0  0  0  0
    2.6132   -2.9405   -1.2623 C   0  0  0  0  0  0  0  0  0  0  0  0
    3.0493   -4.2370   -1.5907 C   0  0  0  0  0  0  0  0  0  0  0  0
    3.8145   -4.1558   -2.6896 N   0  0  0  0  0  0  0  0  0  0  0  0
    3.8869   -2.8893   -3.0735 C   0  0  0  0  0  0  0  0  0  0  0  0
    3.1613   -2.1703   -2.2085 N   0  0  0  0  0  0  0  0  0  0  0  0
    4.0791    1.5800   -0.0409 C   0  0  0  0  0  0  0  0  0  0  0  0
    4.0082    2.8496   -0.8663 C   0  0  0  0  0  0  0  0  0  0  0  0
    5.2312    3.6240   -0.6411 C   0  0  0  0  0  0  0  0  0  0  0  0
    5.1598    4.7226    0.2140 C   0  0  0  0  0  0  0  0  0  0  0  0
    6.3146    5.4786    0.4532 C   0  0  0  0  0  0  0  0  0  0  0  0
    7.4996    5.1288   -0.1563 C   0  0  0  0  0  0  0  0  0  0  0  0
    7.5557    4.0330   -1.0048 C   0  0  0  0  0  0  0  0  0  0  0  0
    6.4106    3.2660   -1.2549 C   0  0  0  0  0  0  0  0  0  0  0  0
    6.7891    2.2417   -2.1426 O   0  0  0  0  0  0  0  0  0  0  0  0
    8.1947    2.1374   -1.9660 C   0  0  0  0  0  0  0  0  0  0  0  0
    8.6185    3.4919   -1.7235 O   0  0  0  0  0  0  0  0  0  0  0  0
    3.3547   -0.8916    1.0037 H   0  0  0  0  0  0  0  0  0  0  0  0
    0.7649   -0.8598   -0.6293 H   0  0  0  0  0  0  0  0  0  0  0  0
   -0.9972   -2.2829    0.4556 H   0  0  0  0  0  0  0  0  0  0  0  0
   -1.0521   -1.3553    3.3603 H   0  0  0  0  0  0  0  0  0  0  0  0
   -2.2170   -0.4637    0.1816 H   0  0  0  0  0  0  0  0  0  0  0  0
   -4.9367    0.1940    1.4263 H   0  0  0  0  0  0  0  0  0  0  0  0
   -5.3375    2.7612   -0.4025 H   0  0  0  0  0  0  0  0  0  0  0  0
   -4.8482    3.5602    1.1754 H   0  0  0  0  0  0  0  0  0  0  0  0
   -5.1434   -1.0317   -0.7951 H   0  0  0  0  0  0  0  0  0  0  0  0
   -5.6928    0.6549   -0.7853 H   0  0  0  0  0  0  0  0  0  0  0  0
   -3.0123   -0.3741   -1.7687 H   0  0  0  0  0  0  0  0  0  0  0  0
   -3.5694    1.3859   -1.8106 H   0  0  0  0  0  0  0  0  0  0  0  0
   -5.5275    0.6462   -3.1285 H   0  0  0  0  0  0  0  0  0  0  0  0
   -4.9571   -1.0466   -3.0886 H   0  0  0  0  0  0  0  0  0  0  0  0
   -4.9764    2.9285   -3.7027 H   0  0  0  0  0  0  0  0  0  0  0  0
   -6.0835    2.0694   -4.7846 H   0  0  0  0  0  0  0  0  0  0  0  0
   -3.2769    2.8273   -6.2773 H   0  0  0  0  0  0  0  0  0  0  0  0
   -2.8024    1.1344   -6.7098 H   0  0  0  0  0  0  0  0  0  0  0  0
   -0.9958   -3.7985    3.1515 H   0  0  0  0  0  0  0  0  0  0  0  0
   -2.4018   -3.7948    2.0246 H   0  0  0  0  0  0  0  0  0  0  0  0
   -4.6479   -3.5268    2.8932 H   0  0  0  0  0  0  0  0  0  0  0  0
   -6.0849   -3.6776    4.8079 H   0  0  0  0  0  0  0  0  0  0  0  0
   -5.1507   -3.5922    7.1448 H   0  0  0  0  0  0  0  0  0  0  0  0
   -2.6933   -3.3403    7.4029 H   0  0  0  0  0  0  0  0  0  0  0  0
   -1.2785   -3.1836    5.4133 H   0  0  0  0  0  0  0  0  0  0  0  0
    2.3102   -3.1356    0.7839 H   0  0  0  0  0  0  0  0  0  0  0  0
    0.8351   -3.2970   -0.1594 H   0  0  0  0  0  0  0  0  0  0  0  0
    2.8192   -5.1548   -1.0587 H   0  0  0  0  0  0  0  0  0  0  0  0
    4.4399   -2.5470   -3.9273 H   0  0  0  0  0  0  0  0  0  0  0  0
    3.0482   -1.1448   -2.2907 H   0  0  0  0  0  0  0  0  0  0  0  0
    4.0478    1.8932    1.0442 H   0  0  0  0  0  0  0  0  0  0  0  0
    5.0186    1.0615   -0.2269 H   0  0  0  0  0  0  0  0  0  0  0  0
    3.0654    3.3795   -0.7515 H   0  0  0  0  0  0  0  0  0  0  0  0
    4.0531    2.4770   -1.9375 H   0  0  0  0  0  0  0  0  0  0  0  0
    4.2420    5.0181    0.7050 H   0  0  0  0  0  0  0  0  0  0  0  0
    6.2779    6.3457    1.1229 H   0  0  0  0  0  0  0  0  0  0  0  0
    8.3755    5.7405    0.0568 H   0  0  0  0  0  0  0  0  0  0  0  0
    8.7395    1.7874   -2.8425 H   0  0  0  0  0  0  0  0  0  0  0  0
    8.3830    1.6087   -1.0242 H   0  0  0  0  0  0  0  0  0  0  0  0
  1  2  2  0
  2  3  1  0
  3  4  1  0
  4  5  1  0
  5  6  2  0
  5  7  1  0
  7  8  1  0
  8  9  1  0
  9 10  2  0
  9 11  1  0
 11 12  1  0
 12 13  1  0
 13 14  2  0
 13 15  1  0
 12 16  1  0
 16 17  1  0
 17 18  1  0
 18 19  1  0
 19 20  2  3
 20 21  1  0
 20 22  1  0
  8 23  1  0
 23 24  1  0
 24 25  2  0
 25 26  1  0
 26 27  2  0
 27 28  1  0
 28 29  2  0
  4 30  1  0
 30 31  1  0
 31 32  2  0
 32 33  1  0
 33 34  2  0
 34 35  1  0
  2 36  1  0
 36 37  1  0
 37 38  1  0
 38 39  2  0
 39 40  1  0
 40 41  2  0
 41 42  1  0
 42 43  2  0
 43 44  1  0
 44 45  1  0
 45 46  1  0
 29 24  1  0
 35 31  1  0
 43 38  1  0
 46 42  1  0
  3 47  1  0
  4 48  1  6
  7 49  1  0
  8 50  1  1
 11 51  1  0
 12 52  1  1
 15 53  1  0
 15 54  1  0
 16 55  1  0
 16 56  1  0
 17 57  1  0
 17 58  1  0
 18 59  1  0
 18 60  1  0
 21 61  1  0
 21 62  1  0
 22 63  1  0
 22 64  1  0
 23 65  1  0
 23 66  1  0
 25 67  1  0
 26 68  1  0
 27 69  1  0
 28 70  1  0
 29 71  1  0
 30 72  1  0
 30 73  1  0
 32 74  1  0
 34 75  1  0
 35 76  1  0
 36 77  1  0
 36 78  1  0
 37 79  1  0
 37 80  1  0
 39 81  1  0
 40 82  1  0
 41 83  1  0
 45 84  1  0
 45 85  1  0
M  END
>  <Ligand ID>  (1) 
LIG0003256

>  <Ligand>  (1) 
CHEMBL570903

>  <SMILES>  (1) 
O=C(N[C@H](C(=O)N[C@@H](C(=O)N[C@@H](C(=O)N)CCCN=C(N)N)Cc1ccccc1)Cc1cnc[nH]1)CCc1cccc2c1OCO2

>  <CID>  (1) 
45487287.0

>  <ChEMBL ID>  (1) 
nan

>  <InChiKey>  (1) 
XLRDDIVPVKGCSM-SMIHKQSGSA-N

>  <InChi>  (1) 
InChI=1S/C31H39N9O6/c32-28(42)22(9-5-13-36-31(33)34)39-29(43)23(14-19-6-2-1-3-7-19)40-30(44)24(15-21-16-35-17-37-21)38-26(41)12-11-20-8-4-10-25-27(20)46-18-45-25/h1-4,6-8,10,16-17,22-24H,5,9,11-15,18H2,(H2,32,42)(H,35,37)(H,38,41)(H,39,43)(H,40,44)(H4,33,34,36)/t22-,23-,24+/m1/s1

>  <IUPAC Name>  (1) 
(2R)-2-[[(2R)-2-[[(2S)-2-[3-(1,3-benzodioxol-4-yl)propanoylamino]-3-(1H-imidazol-5-yl)propanoyl]amino]-3-phenylpropanoyl]amino]-5-(diaminomethylideneamino)pentanamide

$$$$
