
     RDKit          3D

 75 74  0  0  0  0  0  0  0  0999 V2000
    7.3389    3.8010   -1.6614 C   0  0  0  0  0  0  0  0  0  0  0  0
    8.2508    2.6583   -1.9868 C   0  0  0  0  0  0  0  0  0  0  0  0
    7.4972    1.3623   -1.5176 C   0  0  0  0  0  0  0  0  0  0  0  0
    8.3471    0.1798   -1.8301 C   0  0  0  0  0  0  0  0  0  0  0  0
    7.8910   -1.1793   -1.5670 C   0  0  0  0  0  0  0  0  0  0  0  0
    7.5936   -1.7210   -0.2257 C   0  0  0  0  0  0  0  0  0  0  0  0
    6.4960   -1.0598    0.4716 C   0  0  0  0  0  0  0  0  0  0  0  0
    5.3494   -1.6516    0.8476 C   0  0  0  0  0  0  0  0  0  0  0  0
    4.9816   -3.0545    0.6358 C   0  0  0  0  0  0  0  0  0  0  0  0
    3.7300   -3.2010   -0.2120 C   0  0  0  0  0  0  0  0  0  0  0  0
    2.5266   -2.5116    0.3793 C   0  0  0  0  0  0  0  0  0  0  0  0
    2.1527   -3.0290    1.7308 C   0  0  0  0  0  0  0  0  0  0  0  0
    0.9306   -2.3548    2.3347 C   0  0  0  0  0  0  0  0  0  0  0  0
    1.1016   -0.8827    2.5090 C   0  0  0  0  0  0  0  0  0  0  0  0
   -0.1013   -0.2476    3.1363 C   0  0  0  0  0  0  0  0  0  0  0  0
   -1.3574   -0.3770    2.3511 C   0  0  0  0  0  0  0  0  0  0  0  0
   -1.3562   -0.9570    1.2648 O   0  0  0  0  0  0  0  0  0  0  0  0
   -2.4847    0.1562    2.8626 O   0  0  0  0  0  0  0  0  0  0  0  0
   -3.7629    0.1852    2.3503 C   0  0  0  0  0  0  0  0  0  0  0  0
   -3.8617    0.9593    1.0638 C   0  0  2  0  0  0  0  0  0  0  0  0
   -5.3331    1.0639    0.7280 C   0  0  0  0  0  0  0  0  0  0  0  0
   -5.5679    1.7933   -0.4217 O   0  0  0  0  0  0  0  0  0  0  0  0
   -7.1241    2.3765   -0.5518 P   0  0  0  0  0  0  0  0  0  0  0  0
   -7.6442    2.8923    0.7940 O   0  0  0  0  0  0  0  0  0  0  0  0
   -8.1528    1.1098   -0.9985 O   0  0  0  0  0  0  0  0  0  0  0  0
   -9.4155    1.6340   -1.3047 C   0  0  0  0  0  0  0  0  0  0  0  0
  -10.4015    0.5099   -1.5883 C   0  0  1  0  0  0  0  0  0  0  0  0
  -11.7729    1.0305   -1.7659 C   0  0  0  0  0  0  0  0  0  0  0  0
  -12.4957    0.7663   -2.7801 O   0  0  0  0  0  0  0  0  0  0  0  0
  -12.3416    1.8550   -0.8030 O   0  0  0  0  0  0  0  0  0  0  0  0
   -9.9727   -0.2952   -2.7002 N   0  0  0  0  0  0  0  0  0  0  0  0
   -7.2922    3.6098   -1.6680 O   0  0  0  0  0  0  0  0  0  0  0  0
   -3.1104    0.3613    0.0914 O   0  0  0  0  0  0  0  0  0  0  0  0
    7.5991    4.7383   -2.1926 H   0  0  0  0  0  0  0  0  0  0  0  0
    7.2831    4.0109   -0.5837 H   0  0  0  0  0  0  0  0  0  0  0  0
    6.2852    3.5474   -1.9853 H   0  0  0  0  0  0  0  0  0  0  0  0
    9.1563    2.7352   -1.3238 H   0  0  0  0  0  0  0  0  0  0  0  0
    8.5146    2.5842   -3.0464 H   0  0  0  0  0  0  0  0  0  0  0  0
    7.2578    1.5175   -0.4538 H   0  0  0  0  0  0  0  0  0  0  0  0
    6.5484    1.3942   -2.0866 H   0  0  0  0  0  0  0  0  0  0  0  0
    9.4024    0.3591   -1.4317 H   0  0  0  0  0  0  0  0  0  0  0  0
    8.5341    0.2451   -2.9640 H   0  0  0  0  0  0  0  0  0  0  0  0
    8.5213   -1.9385   -2.1647 H   0  0  0  0  0  0  0  0  0  0  0  0
    6.8906   -1.2848   -2.1527 H   0  0  0  0  0  0  0  0  0  0  0  0
    7.4040   -2.8220   -0.3702 H   0  0  0  0  0  0  0  0  0  0  0  0
    8.5328   -1.7453    0.4251 H   0  0  0  0  0  0  0  0  0  0  0  0
    6.5663   -0.0267    0.7683 H   0  0  0  0  0  0  0  0  0  0  0  0
    4.5895   -1.0338    1.3745 H   0  0  0  0  0  0  0  0  0  0  0  0
    4.7283   -3.4635    1.6606 H   0  0  0  0  0  0  0  0  0  0  0  0
    5.7833   -3.7196    0.2780 H   0  0  0  0  0  0  0  0  0  0  0  0
    3.9075   -2.7561   -1.2266 H   0  0  0  0  0  0  0  0  0  0  0  0
    3.5068   -4.2904   -0.2681 H   0  0  0  0  0  0  0  0  0  0  0  0
    2.6890   -1.4122    0.4548 H   0  0  0  0  0  0  0  0  0  0  0  0
    1.6410   -2.6676   -0.2860 H   0  0  0  0  0  0  0  0  0  0  0  0
    1.9710   -4.1176    1.7417 H   0  0  0  0  0  0  0  0  0  0  0  0
    3.0049   -2.8127    2.4324 H   0  0  0  0  0  0  0  0  0  0  0  0
    0.0394   -2.6540    1.7600 H   0  0  0  0  0  0  0  0  0  0  0  0
    0.8625   -2.7903    3.3775 H   0  0  0  0  0  0  0  0  0  0  0  0
    2.0170   -0.6651    3.1013 H   0  0  0  0  0  0  0  0  0  0  0  0
    1.2765   -0.4581    1.4736 H   0  0  0  0  0  0  0  0  0  0  0  0
   -0.2616   -0.7042    4.1545 H   0  0  0  0  0  0  0  0  0  0  0  0
    0.0669    0.8442    3.2873 H   0  0  0  0  0  0  0  0  0  0  0  0
   -4.4877    0.6292    3.1016 H   0  0  0  0  0  0  0  0  0  0  0  0
   -4.1437   -0.8633    2.1955 H   0  0  0  0  0  0  0  0  0  0  0  0
   -3.4713    1.9893    1.3226 H   0  0  0  0  0  0  0  0  0  0  0  0
   -5.7743    0.0622    0.7420 H   0  0  0  0  0  0  0  0  0  0  0  0
   -5.8042    1.6284    1.5552 H   0  0  0  0  0  0  0  0  0  0  0  0
   -9.7797    2.2562   -0.4674 H   0  0  0  0  0  0  0  0  0  0  0  0
   -9.3774    2.2511   -2.2397 H   0  0  0  0  0  0  0  0  0  0  0  0
  -10.4261   -0.1189   -0.6518 H   0  0  0  0  0  0  0  0  0  0  0  0
  -12.9780    2.6162   -1.0376 H   0  0  0  0  0  0  0  0  0  0  0  0
  -10.2795   -1.2902   -2.5338 H   0  0  0  0  0  0  0  0  0  0  0  0
   -8.9434   -0.1930   -2.8449 H   0  0  0  0  0  0  0  0  0  0  0  0
   -6.5525    3.7236   -2.2910 H   0  0  0  0  0  0  0  0  0  0  0  0
   -2.9385    0.9131   -0.7065 H   0  0  0  0  0  0  0  0  0  0  0  0
  1  2  1  0
  2  3  1  0
  3  4  1  0
  4  5  1  0
  5  6  1  0
  6  7  1  0
  7  8  2  0
  8  9  1  0
  9 10  1  0
 10 11  1  0
 11 12  1  0
 12 13  1  0
 13 14  1  0
 14 15  1  0
 15 16  1  0
 16 17  2  0
 16 18  1  0
 18 19  1  0
 19 20  1  0
 20 21  1  0
 21 22  1  0
 22 23  1  0
 23 24  2  0
 23 25  1  0
 25 26  1  0
 26 27  1  0
 27 28  1  0
 28 29  2  0
 28 30  1  0
 27 31  1  0
 23 32  1  0
 20 33  1  0
  1 34  1  0
  1 35  1  0
  1 36  1  0
  2 37  1  0
  2 38  1  0
  3 39  1  0
  3 40  1  0
  4 41  1  0
  4 42  1  0
  5 43  1  0
  5 44  1  0
  6 45  1  0
  6 46  1  0
  7 47  1  0
  8 48  1  0
  9 49  1  0
  9 50  1  0
 10 51  1  0
 10 52  1  0
 11 53  1  0
 11 54  1  0
 12 55  1  0
 12 56  1  0
 13 57  1  0
 13 58  1  0
 14 59  1  0
 14 60  1  0
 15 61  1  0
 15 62  1  0
 19 63  1  0
 19 64  1  0
 20 65  1  1
 21 66  1  0
 21 67  1  0
 26 68  1  0
 26 69  1  0
 27 70  1  1
 30 71  1  0
 31 72  1  0
 31 73  1  0
 32 74  1  0
 33 75  1  0
M  END
>  <Ligand ID>  (1) 
LIG0004207

>  <Ligand>  (1) 
CHEMBL3577144

>  <SMILES>  (1) 
CCCCCC/C=C\CCCCCCCC(=O)OC[C@H](COP(=O)(OC[C@@H](C(=O)O)N)O)O

>  <CID>  (1) 
52926278.0

>  <ChEMBL ID>  (1) 
nan

>  <InChiKey>  (1) 
XSJRZJQMAINRKX-KGMDJONISA-N

>  <InChi>  (1) 
InChI=1S/C22H42NO9P/c1-2-3-4-5-6-7-8-9-10-11-12-13-14-15-21(25)30-16-19(24)17-31-33(28,29)32-18-20(23)22(26)27/h7-8,19-20,24H,2-6,9-18,23H2,1H3,(H,26,27)(H,28,29)/b8-7-/t19-,20+/m1/s1

>  <IUPAC Name>  (1) 
(2S)-2-amino-3-[[(2R)-3-[(Z)-hexadec-9-enoyl]oxy-2-hydroxypropoxy]-hydroxyphosphoryl]oxypropanoic acid

$$$$
