
     RDKit          3D

132137  0  0  0  0  0  0  0  0999 V2000
   -5.9402   -1.5873   -3.2716 C   0  0  0  0  0  0  0  0  0  0  0  0
   -5.3191   -2.3564   -2.1197 C   0  0  0  0  0  0  0  0  0  0  0  0
   -4.1511   -1.6002   -1.5804 C   0  0  0  0  0  0  0  0  0  0  0  0
   -4.3744   -0.2478   -1.0526 C   0  0  1  0  0  0  0  0  0  0  0  0
   -5.2918   -0.0838    0.0984 C   0  0  0  0  0  0  0  0  0  0  0  0
   -4.7541    0.2887    1.1877 O   0  0  0  0  0  0  0  0  0  0  0  0
   -6.6911   -0.2938    0.0681 N   0  0  0  0  0  0  0  0  0  0  0  0
   -7.5712   -0.0924    1.1523 C   0  0  2  0  0  0  0  0  0  0  0  0
   -7.5145    1.3340    1.6605 C   0  0  0  0  0  0  0  0  0  0  0  0
   -8.1512    1.5486    2.7240 O   0  0  0  0  0  0  0  0  0  0  0  0
   -6.7859    2.3421    0.9667 N   0  0  0  0  0  0  0  0  0  0  0  0
   -6.6765    3.7096    1.3964 C   0  0  0  0  0  0  0  0  0  0  0  0
   -7.8426    4.5541    1.1358 C   0  0  0  0  0  0  0  0  0  0  0  0
   -8.8963    4.7195    2.0386 C   0  0  0  0  0  0  0  0  0  0  0  0
   -9.9232    5.5588    1.6574 C   0  0  0  0  0  0  0  0  0  0  0  0
   -9.9455    6.2209    0.4521 C   0  0  0  0  0  0  0  0  0  0  0  0
   -8.9027    6.0630   -0.4518 C   0  0  0  0  0  0  0  0  0  0  0  0
   -7.8674    5.2301   -0.0928 C   0  0  0  0  0  0  0  0  0  0  0  0
   -7.5686   -0.9958    2.3080 C   0  0  0  0  0  0  0  0  0  0  0  0
   -7.8654   -2.4184    2.0161 C   0  0  0  0  0  0  0  0  0  0  0  0
   -9.1406   -2.9879    2.1012 C   0  0  0  0  0  0  0  0  0  0  0  0
   -9.0955   -4.2777    1.7456 N   0  0  0  0  0  0  0  0  0  0  0  0
   -7.8152   -4.5706    1.4276 C   0  0  0  0  0  0  0  0  0  0  0  0
   -7.0428   -3.4351    1.5890 C   0  0  0  0  0  0  0  0  0  0  0  0
   -5.7094   -3.4951    1.3403 C   0  0  0  0  0  0  0  0  0  0  0  0
   -5.1727   -4.7071    0.9300 C   0  0  0  0  0  0  0  0  0  0  0  0
   -5.9473   -5.8323    0.7703 C   0  0  0  0  0  0  0  0  0  0  0  0
   -7.3041   -5.7841    1.0201 C   0  0  0  0  0  0  0  0  0  0  0  0
   -3.0509    0.3224   -0.7063 N   0  0  0  0  0  0  0  0  0  0  0  0
   -2.8418    1.6555   -1.0942 C   0  0  0  0  0  0  0  0  0  0  0  0
   -3.8379    2.2231   -1.6944 O   0  0  0  0  0  0  0  0  0  0  0  0
   -1.6654    2.4742   -0.9081 C   0  0  2  0  0  0  0  0  0  0  0  0
   -1.3320    3.1735   -2.2148 C   0  0  0  0  0  0  0  0  0  0  0  0
   -0.7321    2.0669   -3.0323 C   0  0  0  0  0  0  0  0  0  0  0  0
   -0.2330    1.0783   -1.9824 C   0  0  0  0  0  0  0  0  0  0  0  0
   -0.3893    1.7498   -0.7235 N   0  0  0  0  0  0  0  0  0  0  0  0
    0.3757    1.8900    0.4309 C   0  0  0  0  0  0  0  0  0  0  0  0
   -0.1441    2.4767    1.4548 O   0  0  0  0  0  0  0  0  0  0  0  0
    1.7743    1.4405    0.6544 C   0  0  2  0  0  0  0  0  0  0  0  0
    2.5891    2.5475    1.3028 C   0  0  0  0  0  0  0  0  0  0  0  0
    3.9902    2.1555    1.5640 C   0  0  0  0  0  0  0  0  0  0  0  0
    5.0027    2.3092    0.6404 C   0  0  0  0  0  0  0  0  0  0  0  0
    6.2665    1.9251    1.0269 C   0  0  0  0  0  0  0  0  0  0  0  0
    6.5626    1.4002    2.2778 C   0  0  0  0  0  0  0  0  0  0  0  0
    5.5311    1.2567    3.1779 C   0  0  0  0  0  0  0  0  0  0  0  0
    4.2564    1.6310    2.8237 C   0  0  0  0  0  0  0  0  0  0  0  0
    2.4480    1.0432   -0.5304 N   0  0  0  0  0  0  0  0  0  0  0  0
    3.1188   -0.1766   -0.7791 C   0  0  0  0  0  0  0  0  0  0  0  0
    3.1799   -1.0393    0.1310 O   0  0  0  0  0  0  0  0  0  0  0  0
    3.7129   -0.3505   -2.1298 C   0  0  0  0  0  0  0  0  0  0  0  0
    4.4370   -1.5756   -2.3132 N   0  0  0  0  0  0  0  0  0  0  0  0
    5.5961   -1.7791   -1.5188 C   0  0  0  0  0  0  0  0  0  0  0  0
    5.8969   -0.8669   -0.7108 O   0  0  0  0  0  0  0  0  0  0  0  0
    6.4328   -3.0347   -1.6437 C   0  0  2  0  0  0  0  0  0  0  0  0
    7.6764   -2.8530   -0.9031 N   0  0  0  0  0  0  0  0  0  0  0  0
    8.4420   -1.7117   -1.2374 C   0  0  0  0  0  0  0  0  0  0  0  0
    8.0194   -0.9185   -2.1579 O   0  0  0  0  0  0  0  0  0  0  0  0
    9.7228   -1.3216   -0.6131 C   0  0  2  0  0  0  0  0  0  0  0  0
    9.6438   -1.1841    0.8925 C   0  0  0  0  0  0  0  0  0  0  0  0
   10.9702   -0.7683    1.4572 C   0  0  0  0  0  0  0  0  0  0  0  0
   11.9273   -1.6639    1.8685 C   0  0  0  0  0  0  0  0  0  0  0  0
   13.1136   -1.1521    2.3737 C   0  0  0  0  0  0  0  0  0  0  0  0
   13.2900    0.2145    2.4451 C   0  0  0  0  0  0  0  0  0  0  0  0
   12.3396    1.1271    2.0365 C   0  0  0  0  0  0  0  0  0  0  0  0
   11.1602    0.6182    1.5338 C   0  0  0  0  0  0  0  0  0  0  0  0
   14.4763    0.7435    2.9493 O   0  0  0  0  0  0  0  0  0  0  0  0
   10.1928   -0.0876   -1.2128 N   0  0  0  0  0  0  0  0  0  0  0  0
    6.6149   -3.4041   -3.0787 C   0  0  0  0  0  0  0  0  0  0  0  0
   -4.7275   -3.6782   -2.6696 C   0  0  0  0  0  0  0  0  0  0  0  0
   -5.9518   -2.2799   -4.1637 H   0  0  0  0  0  0  0  0  0  0  0  0
   -6.9993   -1.3366   -3.1123 H   0  0  0  0  0  0  0  0  0  0  0  0
   -5.2870   -0.7452   -3.5171 H   0  0  0  0  0  0  0  0  0  0  0  0
   -6.0962   -2.6441   -1.4282 H   0  0  0  0  0  0  0  0  0  0  0  0
   -3.4440   -1.4964   -2.4688 H   0  0  0  0  0  0  0  0  0  0  0  0
   -3.5382   -2.2555   -0.8881 H   0  0  0  0  0  0  0  0  0  0  0  0
   -4.8544    0.3673   -1.8630 H   0  0  0  0  0  0  0  0  0  0  0  0
   -7.0893   -0.6130   -0.8503 H   0  0  0  0  0  0  0  0  0  0  0  0
   -8.6406   -0.1161    0.7284 H   0  0  0  0  0  0  0  0  0  0  0  0
   -6.2896    2.1220    0.0460 H   0  0  0  0  0  0  0  0  0  0  0  0
   -5.7279    4.1604    1.0170 H   0  0  0  0  0  0  0  0  0  0  0  0
   -6.5212    3.7098    2.5213 H   0  0  0  0  0  0  0  0  0  0  0  0
   -8.8616    4.1908    2.9795 H   0  0  0  0  0  0  0  0  0  0  0  0
  -10.7347    5.6612    2.3971 H   0  0  0  0  0  0  0  0  0  0  0  0
  -10.7872    6.8764    0.2014 H   0  0  0  0  0  0  0  0  0  0  0  0
   -8.8883    6.5731   -1.4131 H   0  0  0  0  0  0  0  0  0  0  0  0
   -7.0391    5.1032   -0.8113 H   0  0  0  0  0  0  0  0  0  0  0  0
   -6.5938   -0.9841    2.8670 H   0  0  0  0  0  0  0  0  0  0  0  0
   -8.3261   -0.6685    3.0908 H   0  0  0  0  0  0  0  0  0  0  0  0
  -10.0375   -2.4535    2.4124 H   0  0  0  0  0  0  0  0  0  0  0  0
   -9.9427   -4.8962    1.7365 H   0  0  0  0  0  0  0  0  0  0  0  0
   -5.1198   -2.6027    1.4750 H   0  0  0  0  0  0  0  0  0  0  0  0
   -4.0904   -4.7683    0.7275 H   0  0  0  0  0  0  0  0  0  0  0  0
   -5.5562   -6.7970    0.4520 H   0  0  0  0  0  0  0  0  0  0  0  0
   -7.9469   -6.6697    0.8996 H   0  0  0  0  0  0  0  0  0  0  0  0
   -2.3266   -0.2113   -0.2086 H   0  0  0  0  0  0  0  0  0  0  0  0
   -1.7853    3.2731   -0.1344 H   0  0  0  0  0  0  0  0  0  0  0  0
   -2.2619    3.5127   -2.7338 H   0  0  0  0  0  0  0  0  0  0  0  0
   -0.6252    4.0261   -2.0683 H   0  0  0  0  0  0  0  0  0  0  0  0
   -1.5501    1.5953   -3.6415 H   0  0  0  0  0  0  0  0  0  0  0  0
    0.1044    2.4213   -3.6706 H   0  0  0  0  0  0  0  0  0  0  0  0
   -0.8721    0.1485   -2.0107 H   0  0  0  0  0  0  0  0  0  0  0  0
    0.7525    0.7497   -2.2709 H   0  0  0  0  0  0  0  0  0  0  0  0
    1.7506    0.6211    1.3946 H   0  0  0  0  0  0  0  0  0  0  0  0
    2.6019    3.4690    0.6964 H   0  0  0  0  0  0  0  0  0  0  0  0
    2.1113    2.8461    2.2875 H   0  0  0  0  0  0  0  0  0  0  0  0
    4.7584    2.7171   -0.3283 H   0  0  0  0  0  0  0  0  0  0  0  0
    7.0871    2.0400    0.3041 H   0  0  0  0  0  0  0  0  0  0  0  0
    7.5724    1.1084    2.5518 H   0  0  0  0  0  0  0  0  0  0  0  0
    5.7748    0.8467    4.1481 H   0  0  0  0  0  0  0  0  0  0  0  0
    3.4862    1.4950    3.5715 H   0  0  0  0  0  0  0  0  0  0  0  0
    2.4721    1.7823   -1.3153 H   0  0  0  0  0  0  0  0  0  0  0  0
    2.8857   -0.3104   -2.8999 H   0  0  0  0  0  0  0  0  0  0  0  0
    4.3182    0.5669   -2.3585 H   0  0  0  0  0  0  0  0  0  0  0  0
    4.1507   -2.3305   -3.0074 H   0  0  0  0  0  0  0  0  0  0  0  0
    5.8161   -3.7927   -1.0731 H   0  0  0  0  0  0  0  0  0  0  0  0
    8.0144   -3.5006   -0.1695 H   0  0  0  0  0  0  0  0  0  0  0  0
   10.5088   -2.1010   -0.8222 H   0  0  0  0  0  0  0  0  0  0  0  0
    8.8547   -0.4848    1.1789 H   0  0  0  0  0  0  0  0  0  0  0  0
    9.4148   -2.1661    1.3743 H   0  0  0  0  0  0  0  0  0  0  0  0
   11.7447   -2.7223    1.7952 H   0  0  0  0  0  0  0  0  0  0  0  0
   13.9153   -1.8177    2.7160 H   0  0  0  0  0  0  0  0  0  0  0  0
   12.5041    2.1909    2.1044 H   0  0  0  0  0  0  0  0  0  0  0  0
   10.3829    1.3098    1.1985 H   0  0  0  0  0  0  0  0  0  0  0  0
   15.3292    0.8645    2.3856 H   0  0  0  0  0  0  0  0  0  0  0  0
   11.2019   -0.1506   -1.4989 H   0  0  0  0  0  0  0  0  0  0  0  0
    9.6512    0.1687   -2.0522 H   0  0  0  0  0  0  0  0  0  0  0  0
    6.3300   -2.5109   -3.7115 H   0  0  0  0  0  0  0  0  0  0  0  0
    5.8921   -4.2307   -3.3220 H   0  0  0  0  0  0  0  0  0  0  0  0
    7.6327   -3.7601   -3.3178 H   0  0  0  0  0  0  0  0  0  0  0  0
   -5.3947   -3.9662   -3.5096 H   0  0  0  0  0  0  0  0  0  0  0  0
   -3.6991   -3.4787   -3.0288 H   0  0  0  0  0  0  0  0  0  0  0  0
   -4.6863   -4.4161   -1.8686 H   0  0  0  0  0  0  0  0  0  0  0  0
  1  2  1  0
  2  3  1  0
  3  4  1  0
  4  5  1  0
  5  6  2  0
  5  7  1  0
  7  8  1  0
  8  9  1  0
  9 10  2  0
  9 11  1  0
 11 12  1  0
 12 13  1  0
 13 14  2  0
 14 15  1  0
 15 16  2  0
 16 17  1  0
 17 18  2  0
  8 19  1  0
 19 20  1  0
 20 21  2  0
 21 22  1  0
 22 23  1  0
 23 24  2  0
 24 25  1  0
 25 26  2  0
 26 27  1  0
 27 28  2  0
  4 29  1  0
 29 30  1  0
 30 31  2  0
 30 32  1  0
 32 33  1  0
 33 34  1  0
 34 35  1  0
 35 36  1  0
 36 37  1  0
 37 38  2  0
 37 39  1  0
 39 40  1  0
 40 41  1  0
 41 42  2  0
 42 43  1  0
 43 44  2  0
 44 45  1  0
 45 46  2  0
 39 47  1  0
 47 48  1  0
 48 49  2  0
 48 50  1  0
 50 51  1  0
 51 52  1  0
 52 53  2  0
 52 54  1  0
 54 55  1  0
 55 56  1  0
 56 57  2  0
 56 58  1  0
 58 59  1  0
 59 60  1  0
 60 61  2  0
 61 62  1  0
 62 63  2  0
 63 64  1  0
 64 65  2  0
 63 66  1  0
 58 67  1  0
 54 68  1  0
  2 69  1  0
 18 13  1  0
 24 20  1  0
 36 32  1  0
 46 41  1  0
 65 60  1  0
 28 23  1  0
  1 70  1  0
  1 71  1  0
  1 72  1  0
  2 73  1  0
  3 74  1  0
  3 75  1  0
  4 76  1  6
  7 77  1  0
  8 78  1  6
 11 79  1  0
 12 80  1  0
 12 81  1  0
 14 82  1  0
 15 83  1  0
 16 84  1  0
 17 85  1  0
 18 86  1  0
 19 87  1  0
 19 88  1  0
 21 89  1  0
 22 90  1  0
 25 91  1  0
 26 92  1  0
 27 93  1  0
 28 94  1  0
 29 95  1  0
 32 96  1  1
 33 97  1  0
 33 98  1  0
 34 99  1  0
 34100  1  0
 35101  1  0
 35102  1  0
 39103  1  1
 40104  1  0
 40105  1  0
 42106  1  0
 43107  1  0
 44108  1  0
 45109  1  0
 46110  1  0
 47111  1  0
 50112  1  0
 50113  1  0
 51114  1  0
 54115  1  1
 55116  1  0
 58117  1  1
 59118  1  0
 59119  1  0
 61120  1  0
 62121  1  0
 64122  1  0
 65123  1  0
 66124  1  0
 67125  1  0
 67126  1  0
 68127  1  0
 68128  1  0
 68129  1  0
 69130  1  0
 69131  1  0
 69132  1  0
M  END
>  <Ligand ID>  (1) 
LIG0005387

>  <Ligand>  (1) 
H-Tyr-D-Ala-Gly-Phe-Pro-Leu-Trp-NH-Bzl

>  <SMILES>  (1) 
CC(C[C@@H](C(=O)N[C@H](C(=O)NCc1ccccc1)Cc1c[nH]c2c1cccc2)NC(=O)[C@@H]1CCCN1C(=O)[C@H](Cc1ccccc1)NC(=O)CNC(=O)[C@H](NC(=O)[C@H](Cc1ccc(cc1)O)N)C)C

>  <CID>  (1) 
24768353.0

>  <ChEMBL ID>  (1) 
nan

>  <InChiKey>  (1) 
VXHMITAKWYIILS-FDXPNMITSA-N

>  <InChi>  (1) 
InChI=1S/C52H63N9O8/c1-32(2)25-42(50(67)59-43(49(66)55-29-36-15-8-5-9-16-36)28-37-30-54-41-18-11-10-17-39(37)41)60-51(68)45-19-12-24-61(45)52(69)44(27-34-13-6-4-7-14-34)58-46(63)31-56-47(64)33(3)57-48(65)40(53)26-35-20-22-38(62)23-21-35/h4-11,13-18,20-23,30,32-33,40,42-45,54,62H,12,19,24-29,31,53H2,1-3H3,(H,55,66)(H,56,64)(H,57,65)(H,58,63)(H,59,67)(H,60,68)/t33-,40+,42+,43+,44+,45+/m1/s1

>  <IUPAC Name>  (1) 
(2S)-1-[(2S)-2-[[2-[[(2R)-2-[[(2S)-2-amino-3-(4-hydroxyphenyl)propanoyl]amino]propanoyl]amino]acetyl]amino]-3-phenylpropanoyl]-N-[(2S)-1-[[(2S)-1-(benzylamino)-3-(1H-indol-3-yl)-1-oxopropan-2-yl]amino]-4-methyl-1-oxopentan-2-yl]pyrrolidine-2-carboxamide

$$$$
