
     RDKit          3D

 51 54  0  0  0  0  0  0  0  0999 V2000
   -6.1532    2.0175   -0.4989 O   0  0  0  0  0  0  0  0  0  0  0  0
   -4.8520    1.7511   -0.1092 C   0  0  0  0  0  0  0  0  0  0  0  0
   -4.1450    2.7786    0.4822 C   0  0  0  0  0  0  0  0  0  0  0  0
   -2.8548    2.5327    0.8725 C   0  0  0  0  0  0  0  0  0  0  0  0
   -2.2175    1.3204    0.7116 C   0  0  0  0  0  0  0  0  0  0  0  0
   -2.9358    0.3066    0.1211 C   0  0  0  0  0  0  0  0  0  0  0  0
   -4.2561    0.5081   -0.2947 C   0  0  0  0  0  0  0  0  0  0  0  0
   -2.2981   -1.0348   -0.0847 C   0  0  1  0  0  0  0  0  0  0  0  0
   -3.3255   -2.1488   -0.1025 C   0  0  0  0  0  0  0  0  0  0  0  0
   -1.5463   -1.0986   -1.3793 C   0  0  0  0  0  0  0  0  0  0  0  0
   -0.2639   -0.2552   -1.3515 C   0  0  0  0  0  0  0  0  0  0  0  0
    0.4032   -0.4281   -0.1374 N   0  0  0  0  0  0  0  0  0  0  0  0
   -0.3378   -0.1896    1.0696 C   0  0  0  0  0  0  0  0  0  0  0  0
   -0.8250    1.2117    1.1814 C   0  0  0  0  0  0  0  0  0  0  0  0
   -1.4289   -1.2353    1.1200 C   0  0  2  0  0  0  0  0  0  0  0  0
   -0.8196   -2.6053    1.1959 C   0  0  0  0  0  0  0  0  0  0  0  0
    1.7328   -0.0354    0.0295 C   0  0  0  0  0  0  0  0  0  0  0  0
    2.8252   -0.7449   -0.6814 C   0  0  0  0  0  0  0  0  0  0  0  0
    4.1541   -0.1190   -0.3311 C   0  0  0  0  0  0  0  0  0  0  0  0
    4.8868   -0.5819    0.7590 C   0  0  0  0  0  0  0  0  0  0  0  0
    6.0955    0.0187    1.0490 C   0  0  0  0  0  0  0  0  0  0  0  0
    6.5453    1.0565    0.2563 C   0  0  0  0  0  0  0  0  0  0  0  0
    5.8262    1.5125   -0.8155 C   0  0  0  0  0  0  0  0  0  0  0  0
    4.6152    0.9223   -1.1188 C   0  0  0  0  0  0  0  0  0  0  0  0
   -6.3596    2.8168   -1.1079 H   0  0  0  0  0  0  0  0  0  0  0  0
   -4.6037    3.7546    0.6302 H   0  0  0  0  0  0  0  0  0  0  0  0
   -2.3208    3.3640    1.3347 H   0  0  0  0  0  0  0  0  0  0  0  0
   -4.8428   -0.2588   -0.7567 H   0  0  0  0  0  0  0  0  0  0  0  0
   -3.6405   -2.3554   -1.1504 H   0  0  0  0  0  0  0  0  0  0  0  0
   -2.8961   -3.1009    0.2776 H   0  0  0  0  0  0  0  0  0  0  0  0
   -4.2201   -1.9082    0.5041 H   0  0  0  0  0  0  0  0  0  0  0  0
   -2.2118   -0.7831   -2.1896 H   0  0  0  0  0  0  0  0  0  0  0  0
   -1.2892   -2.1656   -1.5477 H   0  0  0  0  0  0  0  0  0  0  0  0
   -0.5764    0.7775   -1.6087 H   0  0  0  0  0  0  0  0  0  0  0  0
    0.3221   -0.6343   -2.1837 H   0  0  0  0  0  0  0  0  0  0  0  0
    0.3674   -0.4035    1.9117 H   0  0  0  0  0  0  0  0  0  0  0  0
   -0.7239    1.6112    2.2325 H   0  0  0  0  0  0  0  0  0  0  0  0
   -0.2391    1.9388    0.5728 H   0  0  0  0  0  0  0  0  0  0  0  0
   -2.0453   -1.0538    2.0236 H   0  0  0  0  0  0  0  0  0  0  0  0
   -0.6514   -3.0458    0.1960 H   0  0  0  0  0  0  0  0  0  0  0  0
    0.1368   -2.5689    1.7498 H   0  0  0  0  0  0  0  0  0  0  0  0
   -1.4878   -3.3078    1.7692 H   0  0  0  0  0  0  0  0  0  0  0  0
    1.8235    1.0521   -0.1995 H   0  0  0  0  0  0  0  0  0  0  0  0
    1.9704   -0.0956    1.1180 H   0  0  0  0  0  0  0  0  0  0  0  0
    2.8013   -0.7467   -1.7704 H   0  0  0  0  0  0  0  0  0  0  0  0
    2.9250   -1.8047   -0.3590 H   0  0  0  0  0  0  0  0  0  0  0  0
    4.4774   -1.4048    1.3454 H   0  0  0  0  0  0  0  0  0  0  0  0
    6.6701   -0.3343    1.8946 H   0  0  0  0  0  0  0  0  0  0  0  0
    7.4981    1.5497    0.4636 H   0  0  0  0  0  0  0  0  0  0  0  0
    6.2078    2.3374   -1.4284 H   0  0  0  0  0  0  0  0  0  0  0  0
    4.0834    1.3102   -1.9678 H   0  0  0  0  0  0  0  0  0  0  0  0
  1  2  1  0
  2  3  2  0
  3  4  1  0
  4  5  2  0
  5  6  1  0
  6  7  2  0
  6  8  1  0
  8  9  1  6
  8 10  1  0
 10 11  1  0
 11 12  1  0
 12 13  1  0
 13 14  1  0
 13 15  1  0
 15 16  1  0
 12 17  1  0
 17 18  1  0
 18 19  1  0
 19 20  2  0
 20 21  1  0
 21 22  2  0
 22 23  1  0
 23 24  2  0
  7  2  1  0
 15  8  1  0
 24 19  1  0
 14  5  1  0
  1 25  1  0
  3 26  1  0
  4 27  1  0
  7 28  1  0
  9 29  1  0
  9 30  1  0
  9 31  1  0
 10 32  1  0
 10 33  1  0
 11 34  1  0
 11 35  1  0
 13 36  1  0
 14 37  1  0
 14 38  1  0
 15 39  1  1
 16 40  1  0
 16 41  1  0
 16 42  1  0
 17 43  1  0
 17 44  1  0
 18 45  1  0
 18 46  1  0
 20 47  1  0
 21 48  1  0
 22 49  1  0
 23 50  1  0
 24 51  1  0
M  END
>  <Ligand ID>  (1) 
LIG0005530

>  <Ligand>  (1) 
Phenobenzorphan

>  <SMILES>  (1) 
Oc1ccc2c(c1)[C@@]1(C)CCN(C(C2)[C@@H]1C)CCc1ccccc1

>  <CID>  (1) 
71751564.0

>  <ChEMBL ID>  (1) 
nan

>  <InChiKey>  (1) 
ZQHYKVKNPWDQSL-URJRECBDSA-N

>  <InChi>  (1) 
InChI=1S/C22H27NO/c1-16-21-14-18-8-9-19(24)15-20(18)22(16,2)11-13-23(21)12-10-17-6-4-3-5-7-17/h3-9,15-16,21,24H,10-14H2,1-2H3/t16-,21?,22-/m0/s1

>  <IUPAC Name>  (1) 
(1S,13R)-1,13-dimethyl-10-(2-phenylethyl)-10-azatricyclo[7.3.1.02,7]trideca-2(7),3,5-trien-4-ol

$$$$
