
     RDKit          3D

 78 81  0  0  0  0  0  0  0  0999 V2000
    7.6464    2.6880    0.0639 C   0  0  0  0  0  0  0  0  0  0  0  0
    6.9263    1.5732   -0.7137 C   0  0  0  0  0  0  0  0  0  0  0  0
    5.4571    1.5991   -0.3275 C   0  0  0  0  0  0  0  0  0  0  0  0
    4.6494    0.5893   -1.0150 C   0  0  0  0  0  0  0  0  0  0  0  0
    4.6805    0.5427   -2.2344 O   0  0  0  0  0  0  0  0  0  0  0  0
    3.8106   -0.3587   -0.1977 C   0  0  0  0  0  0  0  0  0  0  0  0
    2.8647    0.3922    0.6920 C   0  0  0  0  0  0  0  0  0  0  0  0
    1.5193    0.6204   -0.0190 C   0  0  0  0  0  0  0  0  0  0  0  0
    0.8889   -0.6453   -0.2948 N   0  0  0  0  0  0  0  0  0  0  0  0
    1.7510   -1.7395   -0.7050 C   0  0  0  0  0  0  0  0  0  0  0  0
    3.0446   -1.2078   -1.1934 C   0  0  0  0  0  0  0  0  0  0  0  0
   -0.4926   -0.9140   -0.1898 C   0  0  0  0  0  0  0  0  0  0  0  0
   -0.9327   -2.0978   -0.4478 O   0  0  0  0  0  0  0  0  0  0  0  0
   -1.5340    0.0576    0.2056 C   0  0  1  0  0  0  0  0  0  0  0  0
   -1.6300    1.1299   -0.8531 C   0  0  0  0  0  0  0  0  0  0  0  0
   -2.6566    2.1496   -0.5115 C   0  0  0  0  0  0  0  0  0  0  0  0
   -2.2384    3.2032    0.2779 C   0  0  0  0  0  0  0  0  0  0  0  0
   -3.1128    4.2066    0.6540 C   0  0  0  0  0  0  0  0  0  0  0  0
   -4.4114    4.1156    0.2123 C   0  0  0  0  0  0  0  0  0  0  0  0
   -4.8800    3.0835   -0.5788 C   0  0  0  0  0  0  0  0  0  0  0  0
   -3.9642    2.1007   -0.9296 C   0  0  0  0  0  0  0  0  0  0  0  0
   -5.3634    5.1005    0.5543 O   0  0  0  0  0  0  0  0  0  0  0  0
   -4.8499    6.1545    1.3771 C   0  0  0  0  0  0  0  0  0  0  0  0
   -2.8279   -0.6079    0.3691 N   0  0  0  0  0  0  0  0  0  0  0  0
   -3.4889   -1.2963   -0.6739 C   0  0  0  0  0  0  0  0  0  0  0  0
   -3.0242   -1.3941   -1.8226 O   0  0  0  0  0  0  0  0  0  0  0  0
   -4.8035   -1.9422   -0.4084 C   0  0  1  0  0  0  0  0  0  0  0  0
   -4.8238   -3.4182   -0.6392 C   0  0  0  0  0  0  0  0  0  0  0  0
   -6.1927   -3.9422   -0.3439 C   0  0  0  0  0  0  0  0  0  0  0  0
   -6.6612   -5.2374   -0.4164 C   0  0  0  0  0  0  0  0  0  0  0  0
   -7.9463   -5.2316   -0.0556 N   0  0  0  0  0  0  0  0  0  0  0  0
   -8.3229   -4.0020    0.2428 C   0  0  0  0  0  0  0  0  0  0  0  0
   -7.2430   -3.2119    0.0645 N   0  0  0  0  0  0  0  0  0  0  0  0
   -5.1542   -1.7151    0.9420 O   0  0  0  0  0  0  0  0  0  0  0  0
    4.7533   -1.2275    0.5239 C   0  0  0  0  0  0  0  0  0  0  0  0
    5.8105   -1.7575   -0.2253 C   0  0  0  0  0  0  0  0  0  0  0  0
    6.7602   -2.5877    0.3340 C   0  0  0  0  0  0  0  0  0  0  0  0
    6.7062   -2.9266    1.6560 C   0  0  0  0  0  0  0  0  0  0  0  0
    5.6713   -2.4130    2.4169 C   0  0  0  0  0  0  0  0  0  0  0  0
    4.7100   -1.5725    1.8434 C   0  0  0  0  0  0  0  0  0  0  0  0
    7.0990    2.7870    1.0267 H   0  0  0  0  0  0  0  0  0  0  0  0
    8.6785    2.3493    0.2344 H   0  0  0  0  0  0  0  0  0  0  0  0
    7.5884    3.6387   -0.5227 H   0  0  0  0  0  0  0  0  0  0  0  0
    7.0103    1.8205   -1.7778 H   0  0  0  0  0  0  0  0  0  0  0  0
    7.4278    0.6178   -0.4372 H   0  0  0  0  0  0  0  0  0  0  0  0
    5.2836    1.6310    0.7750 H   0  0  0  0  0  0  0  0  0  0  0  0
    5.1130    2.6337   -0.6625 H   0  0  0  0  0  0  0  0  0  0  0  0
    3.2206    1.3970    0.9870 H   0  0  0  0  0  0  0  0  0  0  0  0
    2.5852   -0.1386    1.6151 H   0  0  0  0  0  0  0  0  0  0  0  0
    1.6768    1.2556   -0.9005 H   0  0  0  0  0  0  0  0  0  0  0  0
    0.9176    1.1840    0.7236 H   0  0  0  0  0  0  0  0  0  0  0  0
    1.8187   -2.5189    0.0828 H   0  0  0  0  0  0  0  0  0  0  0  0
    1.2904   -2.2834   -1.5853 H   0  0  0  0  0  0  0  0  0  0  0  0
    3.7016   -2.0281   -1.5799 H   0  0  0  0  0  0  0  0  0  0  0  0
    2.8223   -0.5680   -2.0955 H   0  0  0  0  0  0  0  0  0  0  0  0
   -1.2678    0.4928    1.1880 H   0  0  0  0  0  0  0  0  0  0  0  0
   -1.8374    0.6594   -1.8387 H   0  0  0  0  0  0  0  0  0  0  0  0
   -0.6557    1.6231   -0.9482 H   0  0  0  0  0  0  0  0  0  0  0  0
   -1.2242    3.2812    0.6233 H   0  0  0  0  0  0  0  0  0  0  0  0
   -2.7858    5.0313    1.2661 H   0  0  0  0  0  0  0  0  0  0  0  0
   -5.8960    3.0071   -0.9236 H   0  0  0  0  0  0  0  0  0  0  0  0
   -4.3227    1.3008   -1.5559 H   0  0  0  0  0  0  0  0  0  0  0  0
   -4.0559    6.7188    0.8528 H   0  0  0  0  0  0  0  0  0  0  0  0
   -5.7028    6.8240    1.5795 H   0  0  0  0  0  0  0  0  0  0  0  0
   -4.4468    5.6609    2.2907 H   0  0  0  0  0  0  0  0  0  0  0  0
   -3.3134   -0.5842    1.3138 H   0  0  0  0  0  0  0  0  0  0  0  0
   -5.5784   -1.4867   -1.0361 H   0  0  0  0  0  0  0  0  0  0  0  0
   -4.5705   -3.6978   -1.6690 H   0  0  0  0  0  0  0  0  0  0  0  0
   -4.1006   -3.8804    0.0747 H   0  0  0  0  0  0  0  0  0  0  0  0
   -6.0508   -6.0582   -0.7213 H   0  0  0  0  0  0  0  0  0  0  0  0
   -9.3083   -3.6670    0.5744 H   0  0  0  0  0  0  0  0  0  0  0  0
   -7.3143   -2.1696    0.2447 H   0  0  0  0  0  0  0  0  0  0  0  0
   -5.3577   -0.7249    0.9583 H   0  0  0  0  0  0  0  0  0  0  0  0
    5.9087   -1.5324   -1.2639 H   0  0  0  0  0  0  0  0  0  0  0  0
    7.5612   -2.9875   -0.2596 H   0  0  0  0  0  0  0  0  0  0  0  0
    7.4427   -3.5748    2.1103 H   0  0  0  0  0  0  0  0  0  0  0  0
    5.6001   -2.6581    3.4559 H   0  0  0  0  0  0  0  0  0  0  0  0
    3.9466   -1.2154    2.4966 H   0  0  0  0  0  0  0  0  0  0  0  0
  1  2  1  0
  2  3  1  0
  3  4  1  0
  4  5  2  0
  4  6  1  0
  6  7  1  0
  7  8  1  0
  8  9  1  0
  9 10  1  0
 10 11  1  0
  9 12  1  0
 12 13  2  0
 12 14  1  0
 14 15  1  0
 15 16  1  0
 16 17  2  0
 17 18  1  0
 18 19  2  0
 19 20  1  0
 20 21  2  0
 19 22  1  0
 22 23  1  0
 14 24  1  0
 24 25  1  0
 25 26  2  0
 25 27  1  0
 27 28  1  0
 28 29  1  0
 29 30  2  0
 30 31  1  0
 31 32  2  0
 32 33  1  0
 27 34  1  0
  6 35  1  0
 35 36  2  0
 36 37  1  0
 37 38  2  0
 38 39  1  0
 39 40  2  0
 11  6  1  0
 21 16  1  0
 33 29  1  0
 40 35  1  0
  1 41  1  0
  1 42  1  0
  1 43  1  0
  2 44  1  0
  2 45  1  0
  3 46  1  0
  3 47  1  0
  7 48  1  0
  7 49  1  0
  8 50  1  0
  8 51  1  0
 10 52  1  0
 10 53  1  0
 11 54  1  0
 11 55  1  0
 14 56  1  1
 15 57  1  0
 15 58  1  0
 17 59  1  0
 18 60  1  0
 20 61  1  0
 21 62  1  0
 23 63  1  0
 23 64  1  0
 23 65  1  0
 24 66  1  0
 27 67  1  6
 28 68  1  0
 28 69  1  0
 30 70  1  0
 32 71  1  0
 33 72  1  0
 34 73  1  0
 36 74  1  0
 37 75  1  0
 38 76  1  0
 39 77  1  0
 40 78  1  0
M  END
>  <Ligand ID>  (1) 
LIG0001760

>  <Ligand>  (1) 
CHEMBL276012

>  <SMILES>  (1) 
CCCC(=O)C1(CCN(CC1)C(=O)[C@@H](Cc1ccc(cc1)OC)NC(=O)[C@@H](Cc1cnc[nH]1)O)c1ccccc1

>  <CID>  (1) 
44269214.0

>  <ChEMBL ID>  (1) 
nan

>  <InChiKey>  (1) 
PKLZEDVDEGTAFP-KAYWLYCHSA-N

>  <InChi>  (1) 
InChI=1S/C31H38N4O5/c1-3-7-28(37)31(23-8-5-4-6-9-23)14-16-35(17-15-31)30(39)26(18-22-10-12-25(40-2)13-11-22)34-29(38)27(36)19-24-20-32-21-33-24/h4-6,8-13,20-21,26-27,36H,3,7,14-19H2,1-2H3,(H,32,33)(H,34,38)/t26-,27-/m1/s1

>  <IUPAC Name>  (1) 
(2R)-N-[(2R)-1-(4-butanoyl-4-phenylpiperidin-1-yl)-3-(4-methoxyphenyl)-1-oxopropan-2-yl]-2-hydroxy-3-(1H-imidazol-5-yl)propanamide

$$$$
