
     RDKit          3D

 59 63  0  0  0  0  0  0  0  0999 V2000
   -8.4439   -1.3738    2.1892 Cl  0  0  0  0  0  0  0  0  0  0  0  0
   -6.9625   -0.9746    1.3574 C   0  0  0  0  0  0  0  0  0  0  0  0
   -6.7246   -1.4740    0.1111 C   0  0  0  0  0  0  0  0  0  0  0  0
   -5.5666   -1.1800   -0.5749 C   0  0  0  0  0  0  0  0  0  0  0  0
   -4.5719   -0.3549   -0.0332 C   0  0  0  0  0  0  0  0  0  0  0  0
   -4.8313    0.1377    1.2230 C   0  0  0  0  0  0  0  0  0  0  0  0
   -6.0035   -0.1587    1.9198 C   0  0  0  0  0  0  0  0  0  0  0  0
   -3.3343   -0.0576   -0.8027 C   0  0  0  0  0  0  0  0  0  0  0  0
   -2.2630   -1.0084   -0.5097 C   0  0  0  0  0  0  0  0  0  0  0  0
   -2.6027   -2.3375   -0.3505 C   0  0  0  0  0  0  0  0  0  0  0  0
   -1.6742   -3.3209   -0.0878 C   0  0  0  0  0  0  0  0  0  0  0  0
   -2.2000   -5.1403    0.1226 Br  0  0  0  0  0  0  0  0  0  0  0  0
   -0.3381   -2.9451    0.0195 C   0  0  0  0  0  0  0  0  0  0  0  0
    0.0588   -1.6233   -0.1319 C   0  0  0  0  0  0  0  0  0  0  0  0
   -0.9242   -0.6963   -0.3930 C   0  0  0  0  0  0  0  0  0  0  0  0
    1.3935   -1.3057   -0.0166 C   0  0  0  0  0  0  0  0  0  0  0  0
    1.8454    0.0293   -0.1827 N   0  0  0  0  0  0  0  0  0  0  0  0
    3.2306    0.3931   -0.1663 C   0  0  0  0  0  0  0  0  0  0  0  0
    4.1905   -0.2703   -0.8964 C   0  0  0  0  0  0  0  0  0  0  0  0
    5.5259    0.1214   -0.8182 C   0  0  0  0  0  0  0  0  0  0  0  0
    5.8462    1.1924    0.0125 C   0  0  0  0  0  0  0  0  0  0  0  0
    4.8874    1.8640    0.7482 C   0  0  0  0  0  0  0  0  0  0  0  0
    3.5815    1.4560    0.6514 C   0  0  0  0  0  0  0  0  0  0  0  0
    7.2771    1.6087    0.0933 C   0  0  0  0  0  0  0  0  0  0  0  0
    7.9942    0.8531    1.2133 C   0  0  0  0  0  0  0  0  0  0  0  0
    9.2963    1.2629    1.2519 F   0  0  0  0  0  0  0  0  0  0  0  0
    7.8828   -0.5175    1.0588 F   0  0  0  0  0  0  0  0  0  0  0  0
    7.4233    1.2054    2.4178 F   0  0  0  0  0  0  0  0  0  0  0  0
    2.2642   -2.3383    0.2466 C   0  0  0  0  0  0  0  0  0  0  0  0
    1.8319   -3.6613    0.3934 C   0  0  0  0  0  0  0  0  0  0  0  0
    2.6380   -4.5807    0.6309 O   0  0  0  0  0  0  0  0  0  0  0  0
    0.5275   -3.9424    0.2761 N   0  0  0  0  0  0  0  0  0  0  0  0
   -2.9615    1.3645   -0.7064 C   0  0  0  0  0  0  0  0  0  0  0  0
   -2.2539    1.9183    0.3374 C   0  0  0  0  0  0  0  0  0  0  0  0
   -1.9264    3.2749    0.3806 C   0  0  0  0  0  0  0  0  0  0  0  0
   -2.3030    4.1161   -0.6293 C   0  0  0  0  0  0  0  0  0  0  0  0
   -3.0080    3.5904   -1.6799 C   0  0  0  0  0  0  0  0  0  0  0  0
   -3.3283    2.2603   -1.7208 C   0  0  0  0  0  0  0  0  0  0  0  0
   -1.8752    5.8094   -0.5414 Cl  0  0  0  0  0  0  0  0  0  0  0  0
   -7.4727   -2.1221   -0.3506 H   0  0  0  0  0  0  0  0  0  0  0  0
   -5.4622   -1.6216   -1.5627 H   0  0  0  0  0  0  0  0  0  0  0  0
   -4.1389    0.7758    1.7226 H   0  0  0  0  0  0  0  0  0  0  0  0
   -6.1697    0.2563    2.9211 H   0  0  0  0  0  0  0  0  0  0  0  0
   -3.6153   -0.2451   -1.8868 H   0  0  0  0  0  0  0  0  0  0  0  0
   -3.6401   -2.6841   -0.4257 H   0  0  0  0  0  0  0  0  0  0  0  0
   -0.6404    0.3134   -0.5240 H   0  0  0  0  0  0  0  0  0  0  0  0
    1.1971    0.8429   -0.3264 H   0  0  0  0  0  0  0  0  0  0  0  0
    3.9524   -1.0890   -1.5545 H   0  0  0  0  0  0  0  0  0  0  0  0
    6.3094   -0.3782   -1.3784 H   0  0  0  0  0  0  0  0  0  0  0  0
    5.1387    2.6979    1.3943 H   0  0  0  0  0  0  0  0  0  0  0  0
    2.8276    1.9722    1.2202 H   0  0  0  0  0  0  0  0  0  0  0  0
    7.7480    1.3978   -0.8700 H   0  0  0  0  0  0  0  0  0  0  0  0
    7.2925    2.6753    0.3708 H   0  0  0  0  0  0  0  0  0  0  0  0
    3.3264   -2.1966    0.3709 H   0  0  0  0  0  0  0  0  0  0  0  0
    0.2293   -4.9444    0.3908 H   0  0  0  0  0  0  0  0  0  0  0  0
   -1.9232    1.3312    1.1641 H   0  0  0  0  0  0  0  0  0  0  0  0
   -1.3681    3.6692    1.2212 H   0  0  0  0  0  0  0  0  0  0  0  0
   -3.3013    4.2666   -2.4750 H   0  0  0  0  0  0  0  0  0  0  0  0
   -3.8874    1.8860   -2.5709 H   0  0  0  0  0  0  0  0  0  0  0  0
  1  2  1  0
  2  3  2  0
  3  4  1  0
  4  5  2  0
  5  6  1  0
  6  7  2  0
  5  8  1  0
  8  9  1  0
  9 10  2  0
 10 11  1  0
 11 12  1  0
 11 13  2  0
 13 14  1  0
 14 15  2  0
 14 16  1  0
 16 17  1  0
 17 18  1  0
 18 19  2  0
 19 20  1  0
 20 21  2  0
 21 22  1  0
 22 23  2  0
 21 24  1  0
 24 25  1  0
 25 26  1  0
 25 27  1  0
 25 28  1  0
 16 29  2  0
 29 30  1  0
 30 31  2  0
 30 32  1  0
  8 33  1  0
 33 34  2  0
 34 35  1  0
 35 36  2  0
 36 37  1  0
 37 38  2  0
 36 39  1  0
  7  2  1  0
 15  9  1  0
 23 18  1  0
 38 33  1  0
 32 13  1  0
  3 40  1  0
  4 41  1  0
  6 42  1  0
  7 43  1  0
  8 44  1  0
 10 45  1  0
 15 46  1  0
 17 47  1  0
 19 48  1  0
 20 49  1  0
 22 50  1  0
 23 51  1  0
 24 52  1  0
 24 53  1  0
 29 54  1  0
 32 55  1  0
 34 56  1  0
 35 57  1  0
 37 58  1  0
 38 59  1  0
M  END
>  <Ligand ID>  (1) 
LIG0005909

>  <Ligand>  (1) 
CHEMBL3894216

>  <SMILES>  (1) 
Clc1ccc(cc1)C(c1cc(Br)c2c(c1)c(Nc1ccc(cc1)CC(F)(F)F)cc(=O)[nH]2)c1ccc(cc1)Cl

>  <CID>  (1) 
134137054.0

>  <ChEMBL ID>  (1) 
nan

>  <InChiKey>  (1) 
OYVXMBRKIWHUTQ-UHFFFAOYSA-N

>  <InChi>  (1) 
InChI=1S/C30H20BrCl2F3N2O/c31-25-14-20(28(18-3-7-21(32)8-4-18)19-5-9-22(33)10-6-19)13-24-26(15-27(39)38-29(24)25)37-23-11-1-17(2-12-23)16-30(34,35)36/h1-15,28H,16H2,(H2,37,38,39)

>  <IUPAC Name>  (1) 
6-[bis(4-chlorophenyl)methyl]-8-bromo-4-[4-(2,2,2-trifluoroethyl)anilino]-1H-quinolin-2-one

$$$$
