
     RDKit          3D

 45 45  0  0  0  0  0  0  0  0999 V2000
   -2.7213    1.3817   -1.1303 O   0  0  0  0  0  0  0  0  0  0  0  0
   -2.1826    1.0890   -0.0766 C   0  0  0  0  0  0  0  0  0  0  0  0
   -2.6085   -0.0776    0.7605 C   0  0  0  0  0  0  0  0  0  0  0  0
   -3.4642   -1.0697    0.1162 C   0  0  0  0  0  0  0  0  0  0  0  0
   -2.9503   -1.9349   -0.9769 C   0  0  0  0  0  0  0  0  0  0  0  0
   -1.7763   -2.7740   -0.5595 C   0  0  0  0  0  0  0  0  0  0  0  0
   -0.4542   -2.0758   -0.6421 C   0  0  0  0  0  0  0  0  0  0  0  0
    0.5858   -2.8243    0.1693 C   0  0  0  0  0  0  0  0  0  0  0  0
    1.9689   -2.2255    0.0549 C   0  0  0  0  0  0  0  0  0  0  0  0
    1.9595   -0.7325    0.1479 C   0  0  0  0  0  0  0  0  0  0  0  0
    3.3627   -0.1971    0.2621 C   0  0  0  0  0  0  0  0  0  0  0  0
    3.4296    1.2674    0.0219 C   0  0  0  0  0  0  0  0  0  0  0  0
    2.4279    2.0961    0.7442 C   0  0  0  0  0  0  0  0  0  0  0  0
    1.6072    2.8151   -0.0138 C   0  0  0  0  0  0  0  0  0  0  0  0
    0.5212    3.7206    0.4352 C   0  0  0  0  0  0  0  0  0  0  0  0
   -0.8146    3.1981   -0.1533 C   0  0  0  0  0  0  0  0  0  0  0  0
   -1.0325    1.8698    0.4918 C   0  0  0  0  0  0  0  0  0  0  0  0
   -3.2531    0.3849    1.5977 H   0  0  0  0  0  0  0  0  0  0  0  0
   -1.7704   -0.4990    1.3380 H   0  0  0  0  0  0  0  0  0  0  0  0
   -4.4336   -0.5875   -0.2572 H   0  0  0  0  0  0  0  0  0  0  0  0
   -3.8866   -1.7475    0.9344 H   0  0  0  0  0  0  0  0  0  0  0  0
   -3.7570   -2.5960   -1.4061 H   0  0  0  0  0  0  0  0  0  0  0  0
   -2.5990   -1.3379   -1.8694 H   0  0  0  0  0  0  0  0  0  0  0  0
   -1.9138   -3.0563    0.5195 H   0  0  0  0  0  0  0  0  0  0  0  0
   -1.7625   -3.7194   -1.1840 H   0  0  0  0  0  0  0  0  0  0  0  0
   -0.4167   -1.0224   -0.4117 H   0  0  0  0  0  0  0  0  0  0  0  0
   -0.0996   -2.1693   -1.7187 H   0  0  0  0  0  0  0  0  0  0  0  0
    0.6541   -3.8698   -0.2356 H   0  0  0  0  0  0  0  0  0  0  0  0
    0.2861   -2.9440    1.2259 H   0  0  0  0  0  0  0  0  0  0  0  0
    2.4642   -2.5472   -0.8685 H   0  0  0  0  0  0  0  0  0  0  0  0
    2.5734   -2.6378    0.8948 H   0  0  0  0  0  0  0  0  0  0  0  0
    1.5506   -0.2594   -0.7922 H   0  0  0  0  0  0  0  0  0  0  0  0
    1.3823   -0.4411    1.0524 H   0  0  0  0  0  0  0  0  0  0  0  0
    4.0094   -0.6885   -0.4971 H   0  0  0  0  0  0  0  0  0  0  0  0
    3.8315   -0.5004    1.2416 H   0  0  0  0  0  0  0  0  0  0  0  0
    4.4801    1.6008    0.2804 H   0  0  0  0  0  0  0  0  0  0  0  0
    3.3789    1.4353   -1.0869 H   0  0  0  0  0  0  0  0  0  0  0  0
    2.2946    2.1777    1.7839 H   0  0  0  0  0  0  0  0  0  0  0  0
    1.7544    2.7241   -1.0698 H   0  0  0  0  0  0  0  0  0  0  0  0
    0.4092    3.7771    1.5389 H   0  0  0  0  0  0  0  0  0  0  0  0
    0.5926    4.7547    0.0624 H   0  0  0  0  0  0  0  0  0  0  0  0
   -0.7212    3.1434   -1.2314 H   0  0  0  0  0  0  0  0  0  0  0  0
   -1.6370    3.8813    0.1419 H   0  0  0  0  0  0  0  0  0  0  0  0
   -1.1595    1.9464    1.5803 H   0  0  0  0  0  0  0  0  0  0  0  0
   -0.1097    1.2714    0.2946 H   0  0  0  0  0  0  0  0  0  0  0  0
  1  2  2  0
  2  3  1  0
  3  4  1  0
  4  5  1  0
  5  6  1  0
  6  7  1  0
  7  8  1  0
  8  9  1  0
  9 10  1  0
 10 11  1  0
 11 12  1  0
 12 13  1  0
 13 14  2  3
 14 15  1  0
 15 16  1  0
 16 17  1  0
 17  2  1  0
  3 18  1  0
  3 19  1  0
  4 20  1  0
  4 21  1  0
  5 22  1  0
  5 23  1  0
  6 24  1  0
  6 25  1  0
  7 26  1  0
  7 27  1  0
  8 28  1  0
  8 29  1  0
  9 30  1  0
  9 31  1  0
 10 32  1  0
 10 33  1  0
 11 34  1  0
 11 35  1  0
 12 36  1  0
 12 37  1  0
 13 38  1  0
 14 39  1  0
 15 40  1  0
 15 41  1  0
 16 42  1  0
 16 43  1  0
 17 44  1  0
 17 45  1  0
M  END
>  <Ligand ID>  (1) 
LIG0000640

>  <Ligand>  (1) 
5-Cyclohexadecen-1-one

>  <SMILES>  (1) 
O=C1CCCCCCCCCCC=CCCC1

>  <CID>  (1) 
162268.0

>  <ChEMBL ID>  (1) 
nan

>  <InChiKey>  (1) 
ABRIMXGLNHCLIP-UHFFFAOYSA-N

>  <InChi>  (1) 
InChI=1S/C16H28O/c17-16-14-12-10-8-6-4-2-1-3-5-7-9-11-13-15-16/h6,8H,1-5,7,9-15H2

>  <IUPAC Name>  (1) 
cyclohexadec-5-en-1-one

$$$$
