
     RDKit          3D

 70 74  0  0  0  0  0  0  0  0999 V2000
    5.0604    4.1181   -0.4804 N   0  0  0  0  0  0  0  0  0  0  0  0
    3.7048    3.7478   -0.7512 C   0  0  0  0  0  0  0  0  0  0  0  0
    3.2544    2.7481    0.2813 C   0  0  0  0  0  0  0  0  0  0  0  0
    2.6558    3.1940    1.4576 C   0  0  0  0  0  0  0  0  0  0  0  0
    2.2538    2.2439    2.3891 C   0  0  0  0  0  0  0  0  0  0  0  0
    2.4470    0.8965    2.1456 C   0  0  0  0  0  0  0  0  0  0  0  0
    3.0500    0.4559    0.9600 C   0  0  0  0  0  0  0  0  0  0  0  0
    3.4501    1.4127    0.0318 C   0  0  0  0  0  0  0  0  0  0  0  0
    3.2413   -0.9711    0.7477 C   0  0  0  0  0  0  0  0  0  0  0  0
    4.3239   -1.6250    1.2651 N   0  0  0  0  0  0  0  0  0  0  0  0
    4.2553   -2.9218    0.9225 C   0  0  0  0  0  0  0  0  0  0  0  0
    3.1103   -3.0738    0.1801 C   0  0  0  0  0  0  0  0  0  0  0  0
    2.4901   -1.8584    0.0782 N   0  0  0  0  0  0  0  0  0  0  0  0
    1.2750   -1.6760   -0.6310 C   0  0  0  0  0  0  0  0  0  0  0  0
    0.8838   -0.2949   -0.9908 C   0  0  0  0  0  0  0  0  0  0  0  0
   -0.5023   -0.4574   -1.6595 C   0  0  0  0  0  0  0  0  0  0  0  0
   -1.4007   -0.6565   -0.6096 N   0  0  0  0  0  0  0  0  0  0  0  0
   -0.9488   -1.3140    0.5179 C   0  0  0  0  0  0  0  0  0  0  0  0
    0.1347   -2.3195    0.1037 C   0  0  0  0  0  0  0  0  0  0  0  0
   -2.6675   -0.0109   -0.6795 C   0  0  0  0  0  0  0  0  0  0  0  0
   -3.3205   -0.5414   -1.9438 C   0  0  0  0  0  0  0  0  0  0  0  0
   -3.4615   -0.5060    0.4733 C   0  0  0  0  0  0  0  0  0  0  0  0
   -4.7768    0.0088    0.7860 C   0  0  0  0  0  0  0  0  0  0  0  0
   -5.6268    0.6752   -0.2234 C   0  0  0  0  0  0  0  0  0  0  0  0
   -5.2785    2.0945   -0.5518 C   0  0  0  0  0  0  0  0  0  0  0  0
   -4.3191    2.7581    0.3682 C   0  0  0  0  0  0  0  0  0  0  0  0
   -2.9246    2.2842    0.3835 C   0  0  0  0  0  0  0  0  0  0  0  0
   -2.4570    1.4647   -0.7723 C   0  0  0  0  0  0  0  0  0  0  0  0
    2.7807   -4.3326   -0.3148 C   0  0  0  0  0  0  0  0  0  0  0  0
    3.5934   -5.4367   -0.0685 C   0  0  0  0  0  0  0  0  0  0  0  0
    4.7445   -5.2879    0.6770 C   0  0  0  0  0  0  0  0  0  0  0  0
    5.0451   -4.0291    1.1541 C   0  0  0  0  0  0  0  0  0  0  0  0
    5.1511    5.1470   -0.3314 H   0  0  0  0  0  0  0  0  0  0  0  0
    5.4407    3.5482    0.2807 H   0  0  0  0  0  0  0  0  0  0  0  0
    3.6499    3.2697   -1.7509 H   0  0  0  0  0  0  0  0  0  0  0  0
    3.0107    4.6128   -0.7790 H   0  0  0  0  0  0  0  0  0  0  0  0
    2.5125    4.2579    1.6317 H   0  0  0  0  0  0  0  0  0  0  0  0
    1.7855    2.6016    3.3061 H   0  0  0  0  0  0  0  0  0  0  0  0
    2.1152    0.1837    2.9052 H   0  0  0  0  0  0  0  0  0  0  0  0
    3.9176    1.0791   -0.8874 H   0  0  0  0  0  0  0  0  0  0  0  0
    1.3712   -2.2475   -1.5997 H   0  0  0  0  0  0  0  0  0  0  0  0
    0.7591    0.3963   -0.1314 H   0  0  0  0  0  0  0  0  0  0  0  0
    1.5194    0.1936   -1.7416 H   0  0  0  0  0  0  0  0  0  0  0  0
   -0.3462   -1.3029   -2.3657 H   0  0  0  0  0  0  0  0  0  0  0  0
   -0.6470    0.4250   -2.3130 H   0  0  0  0  0  0  0  0  0  0  0  0
   -0.4394   -0.6246    1.2229 H   0  0  0  0  0  0  0  0  0  0  0  0
   -1.6322   -1.9326    1.1158 H   0  0  0  0  0  0  0  0  0  0  0  0
    0.5140   -2.8342    1.0195 H   0  0  0  0  0  0  0  0  0  0  0  0
   -0.4143   -3.0583   -0.5222 H   0  0  0  0  0  0  0  0  0  0  0  0
   -3.9683   -1.4309   -1.7068 H   0  0  0  0  0  0  0  0  0  0  0  0
   -3.8242    0.2111   -2.5506 H   0  0  0  0  0  0  0  0  0  0  0  0
   -2.5689   -0.9873   -2.6614 H   0  0  0  0  0  0  0  0  0  0  0  0
   -3.5049   -1.6053    0.3019 H   0  0  0  0  0  0  0  0  0  0  0  0
   -2.8228   -0.3081    1.3804 H   0  0  0  0  0  0  0  0  0  0  0  0
   -4.8187    0.6887    1.6937 H   0  0  0  0  0  0  0  0  0  0  0  0
   -5.4106   -0.8420    1.1980 H   0  0  0  0  0  0  0  0  0  0  0  0
   -6.6690    0.7003    0.1865 H   0  0  0  0  0  0  0  0  0  0  0  0
   -5.7744    0.0572   -1.1603 H   0  0  0  0  0  0  0  0  0  0  0  0
   -6.1944    2.7511   -0.5891 H   0  0  0  0  0  0  0  0  0  0  0  0
   -4.9487    2.1102   -1.6227 H   0  0  0  0  0  0  0  0  0  0  0  0
   -4.3842    3.8647    0.1428 H   0  0  0  0  0  0  0  0  0  0  0  0
   -4.7977    2.7131    1.3905 H   0  0  0  0  0  0  0  0  0  0  0  0
   -2.2666    3.2001    0.4932 H   0  0  0  0  0  0  0  0  0  0  0  0
   -2.6364    1.7185    1.3166 H   0  0  0  0  0  0  0  0  0  0  0  0
   -1.3795    1.7078   -0.9162 H   0  0  0  0  0  0  0  0  0  0  0  0
   -2.8958    1.8313   -1.7489 H   0  0  0  0  0  0  0  0  0  0  0  0
    1.8749   -4.4491   -0.9009 H   0  0  0  0  0  0  0  0  0  0  0  0
    3.3013   -6.4070   -0.4731 H   0  0  0  0  0  0  0  0  0  0  0  0
    5.4032   -6.1398    0.8863 H   0  0  0  0  0  0  0  0  0  0  0  0
    5.9474   -3.8892    1.7433 H   0  0  0  0  0  0  0  0  0  0  0  0
  1  2  1  0
  2  3  1  0
  3  4  2  0
  4  5  1  0
  5  6  2  0
  6  7  1  0
  7  8  2  0
  7  9  1  0
  9 10  2  0
 10 11  1  0
 11 12  2  0
 12 13  1  0
 13 14  1  0
 14 15  1  0
 15 16  1  0
 16 17  1  0
 17 18  1  0
 18 19  1  0
 17 20  1  0
 20 21  1  0
 20 22  1  0
 22 23  1  0
 23 24  1  0
 24 25  1  0
 25 26  1  0
 26 27  1  0
 27 28  1  0
 12 29  1  0
 29 30  2  0
 30 31  1  0
 31 32  2  0
  8  3  1  0
 13  9  1  0
 19 14  1  0
 28 20  1  0
 32 11  1  0
  1 33  1  0
  1 34  1  0
  2 35  1  0
  2 36  1  0
  4 37  1  0
  5 38  1  0
  6 39  1  0
  8 40  1  0
 14 41  1  0
 15 42  1  0
 15 43  1  0
 16 44  1  0
 16 45  1  0
 18 46  1  0
 18 47  1  0
 19 48  1  0
 19 49  1  0
 21 50  1  0
 21 51  1  0
 21 52  1  0
 22 53  1  0
 22 54  1  0
 23 55  1  0
 23 56  1  0
 24 57  1  0
 24 58  1  0
 25 59  1  0
 25 60  1  0
 26 61  1  0
 26 62  1  0
 27 63  1  0
 27 64  1  0
 28 65  1  0
 28 66  1  0
 29 67  1  0
 30 68  1  0
 31 69  1  0
 32 70  1  0
M  END
>  <Ligand ID>  (1) 
LIG0003571

>  <Ligand>  (1) 
CHEMBL480426

>  <SMILES>  (1) 
NCc1cccc(c1)c1nc2c(n1C1CCN(CC1)C1(C)CCCCCCC1)cccc2

>  <CID>  (1) 
25207950.0

>  <ChEMBL ID>  (1) 
nan

>  <InChiKey>  (1) 
VUWAQJRSLBBCLH-UHFFFAOYSA-N

>  <InChi>  (1) 
InChI=1S/C28H38N4/c1-28(16-7-3-2-4-8-17-28)31-18-14-24(15-19-31)32-26-13-6-5-12-25(26)30-27(32)23-11-9-10-22(20-23)21-29/h5-6,9-13,20,24H,2-4,7-8,14-19,21,29H2,1H3

>  <IUPAC Name>  (1) 
[3-[1-[1-(1-methylcyclooctyl)piperidin-4-yl]benzimidazol-2-yl]phenyl]methanamine

$$$$
