
     RDKit          3D

 47 47  0  0  0  0  0  0  0  0999 V2000
    3.8754   -3.1643   -1.1699 C   0  0  0  0  0  0  0  0  0  0  0  0
    4.0633   -1.9222   -0.5450 O   0  0  0  0  0  0  0  0  0  0  0  0
    2.9153   -1.1569   -0.2657 C   0  0  0  0  0  0  0  0  0  0  0  0
    1.6913   -1.6796   -0.6245 C   0  0  0  0  0  0  0  0  0  0  0  0
    0.5590   -0.9119   -0.3428 C   0  0  0  0  0  0  0  0  0  0  0  0
    0.6962    0.3121    0.2696 C   0  0  0  0  0  0  0  0  0  0  0  0
    1.9213    0.8492    0.6363 C   0  0  0  0  0  0  0  0  0  0  0  0
    3.0325    0.0867    0.3541 C   0  0  0  0  0  0  0  0  0  0  0  0
    4.3224    0.4887    0.6595 O   0  0  0  0  0  0  0  0  0  0  0  0
    5.0514    1.1638   -0.3437 C   0  0  0  0  0  0  0  0  0  0  0  0
    6.4094    1.5473    0.1236 C   0  0  0  0  0  0  0  0  0  0  0  0
    6.8068    1.2727    1.2983 O   0  0  0  0  0  0  0  0  0  0  0  0
    7.2475    2.2188   -0.7546 O   0  0  0  0  0  0  0  0  0  0  0  0
    1.9599    2.1038    1.2852 N   0  0  0  0  0  0  0  0  0  0  0  0
    0.9290    2.4146    1.9606 O   0  0  0  0  0  0  0  0  0  0  0  0
    2.9626    3.0023    1.2707 O   0  0  0  0  0  0  0  0  0  0  0  0
   -0.7394   -1.4986   -0.7409 C   0  0  0  0  0  0  0  0  0  0  0  0
   -2.1725   -0.7813    0.0711 P   0  0  0  0  0  0  0  0  0  0  0  0
   -1.9100   -0.3255    1.4581 O   0  0  0  0  0  0  0  0  0  0  0  0
   -2.7542    0.5595   -0.9838 C   0  0  0  0  0  0  0  0  0  0  0  0
   -4.2135    0.8256   -0.9380 C   0  0  0  0  0  0  0  0  0  0  0  0
   -4.6791    1.2203    0.4320 C   0  0  1  0  0  0  0  0  0  0  0  0
   -6.1700    1.4829    0.3814 C   0  0  0  0  0  0  0  0  0  0  0  0
   -6.9202    0.7704    1.0597 O   0  0  0  0  0  0  0  0  0  0  0  0
   -6.7018    2.4888   -0.3967 O   0  0  0  0  0  0  0  0  0  0  0  0
   -4.5049    0.1185    1.3301 N   0  0  0  0  0  0  0  0  0  0  0  0
   -3.4077   -1.9627    0.1262 O   0  0  0  0  0  0  0  0  0  0  0  0
   -0.6970   -2.8478   -0.3441 O   0  0  0  0  0  0  0  0  0  0  0  0
    3.3927   -3.0550   -2.1805 H   0  0  0  0  0  0  0  0  0  0  0  0
    4.8611   -3.6426   -1.2755 H   0  0  0  0  0  0  0  0  0  0  0  0
    3.2052   -3.8342   -0.5858 H   0  0  0  0  0  0  0  0  0  0  0  0
    1.5941   -2.6443   -1.1059 H   0  0  0  0  0  0  0  0  0  0  0  0
   -0.1837    0.9009    0.4837 H   0  0  0  0  0  0  0  0  0  0  0  0
    5.1711    0.5202   -1.2533 H   0  0  0  0  0  0  0  0  0  0  0  0
    4.5021    2.0428   -0.6861 H   0  0  0  0  0  0  0  0  0  0  0  0
    8.2675    2.2500   -0.6094 H   0  0  0  0  0  0  0  0  0  0  0  0
   -0.8054   -1.4793   -1.8312 H   0  0  0  0  0  0  0  0  0  0  0  0
   -2.1417    1.4796   -0.7736 H   0  0  0  0  0  0  0  0  0  0  0  0
   -2.5132    0.3239   -2.0662 H   0  0  0  0  0  0  0  0  0  0  0  0
   -4.8239   -0.0296   -1.3325 H   0  0  0  0  0  0  0  0  0  0  0  0
   -4.4968    1.6896   -1.6082 H   0  0  0  0  0  0  0  0  0  0  0  0
   -4.1508    2.0969    0.8359 H   0  0  0  0  0  0  0  0  0  0  0  0
   -7.6237    2.3850   -0.8429 H   0  0  0  0  0  0  0  0  0  0  0  0
   -5.3649   -0.5005    1.3807 H   0  0  0  0  0  0  0  0  0  0  0  0
   -4.3957    0.4446    2.3359 H   0  0  0  0  0  0  0  0  0  0  0  0
   -3.1116   -2.7673    0.6219 H   0  0  0  0  0  0  0  0  0  0  0  0
   -0.9556   -2.8559    0.6150 H   0  0  0  0  0  0  0  0  0  0  0  0
  1  2  1  0
  2  3  1  0
  3  4  2  0
  4  5  1  0
  5  6  2  0
  6  7  1  0
  7  8  2  0
  8  9  1  0
  9 10  1  0
 10 11  1  0
 11 12  2  0
 11 13  1  0
  7 14  1  0
 14 15  2  0
 14 16  1  0
  5 17  1  0
 17 18  1  0
 18 19  2  0
 18 20  1  0
 20 21  1  0
 21 22  1  0
 22 23  1  0
 23 24  2  0
 23 25  1  0
 22 26  1  0
 18 27  1  0
 17 28  1  0
  8  3  1  0
  1 29  1  0
  1 30  1  0
  1 31  1  0
  4 32  1  0
  6 33  1  0
 10 34  1  0
 10 35  1  0
 13 36  1  0
 17 37  1  0
 20 38  1  0
 20 39  1  0
 21 40  1  0
 21 41  1  0
 22 42  1  1
 25 43  1  0
 26 44  1  0
 26 45  1  0
 27 46  1  0
 28 47  1  0
M  CHG  2  14   1  16  -1
M  END
>  <Ligand ID>  (1) 
LIG0002009

>  <Ligand>  (1) 
CHEMBL3966924

>  <SMILES>  (1) 
COc1cc(cc(c1OCC(=O)O)[N+](=O)[O-])C(P(=O)(CC[C@@H](C(=O)O)N)O)O

>  <CID>  (1) 
71014470.0

>  <ChEMBL ID>  (1) 
nan

>  <InChiKey>  (1) 
OCWGTIQPGGIBEM-BVVIDWAXSA-N

>  <InChi>  (1) 
InChI=1S/C14H19N2O11P/c1-26-10-5-7(4-9(16(22)23)12(10)27-6-11(17)18)14(21)28(24,25)3-2-8(15)13(19)20/h4-5,8,14,21H,2-3,6,15H2,1H3,(H,17,18)(H,19,20)(H,24,25)/t8-,14?/m0/s1

>  <IUPAC Name>  (1) 
(2S)-2-amino-4-[[[4-(carboxymethoxy)-3-methoxy-5-nitrophenyl]-hydroxymethyl]-hydroxyphosphoryl]butanoic acid

$$$$
