
     RDKit          3D

 27 27  0  0  0  0  0  0  0  0999 V2000
    3.3276   -0.1050   -0.6848 C   0  0  0  0  0  0  0  0  0  0  0  0
    2.0892   -0.2998    0.1609 C   0  0  2  0  0  0  0  0  0  0  0  0
    1.1331   -1.2033   -0.5944 C   0  0  0  0  0  0  0  0  0  0  0  0
   -0.1957   -1.3127    0.1234 C   0  0  0  0  0  0  0  0  0  0  0  0
   -0.7741    0.0718    0.1288 C   0  0  0  0  0  0  0  0  0  0  0  0
   -2.0724    0.2192    0.2888 C   0  0  0  0  0  0  0  0  0  0  0  0
   -2.9137   -0.9919    0.4578 C   0  0  0  0  0  0  0  0  0  0  0  0
   -2.6827    1.5490    0.3010 C   0  0  0  0  0  0  0  0  0  0  0  0
    0.1176    1.2154   -0.0433 C   0  0  0  0  0  0  0  0  0  0  0  0
   -0.3334    2.2545   -0.5633 O   0  0  0  0  0  0  0  0  0  0  0  0
    1.5253    1.0656    0.4187 C   0  0  0  0  0  0  0  0  0  0  0  0
    3.6213   -1.0423   -1.2133 H   0  0  0  0  0  0  0  0  0  0  0  0
    4.1579    0.2456   -0.0450 H   0  0  0  0  0  0  0  0  0  0  0  0
    3.1047    0.7058   -1.4051 H   0  0  0  0  0  0  0  0  0  0  0  0
    2.4379   -0.7861    1.1018 H   0  0  0  0  0  0  0  0  0  0  0  0
    1.0042   -0.7763   -1.6027 H   0  0  0  0  0  0  0  0  0  0  0  0
    1.6205   -2.2082   -0.6293 H   0  0  0  0  0  0  0  0  0  0  0  0
   -0.8308   -2.0093   -0.4566 H   0  0  0  0  0  0  0  0  0  0  0  0
   -0.0231   -1.6008    1.1645 H   0  0  0  0  0  0  0  0  0  0  0  0
   -3.3443   -1.3637   -0.4915 H   0  0  0  0  0  0  0  0  0  0  0  0
   -3.6982   -0.7116    1.1948 H   0  0  0  0  0  0  0  0  0  0  0  0
   -2.3025   -1.7610    0.9402 H   0  0  0  0  0  0  0  0  0  0  0  0
   -2.6618    2.0700   -0.6755 H   0  0  0  0  0  0  0  0  0  0  0  0
   -3.7676    1.4728    0.5765 H   0  0  0  0  0  0  0  0  0  0  0  0
   -2.1982    2.1783    1.0757 H   0  0  0  0  0  0  0  0  0  0  0  0
    1.5405    1.2365    1.5349 H   0  0  0  0  0  0  0  0  0  0  0  0
    2.1184    1.8873   -0.0319 H   0  0  0  0  0  0  0  0  0  0  0  0
  1  2  1  0
  2  3  1  0
  3  4  1  0
  4  5  1  0
  5  6  2  3
  6  7  1  0
  6  8  1  0
  5  9  1  0
  9 10  2  0
  9 11  1  0
 11  2  1  0
  1 12  1  0
  1 13  1  0
  1 14  1  0
  2 15  1  1
  3 16  1  0
  3 17  1  0
  4 18  1  0
  4 19  1  0
  7 20  1  0
  7 21  1  0
  7 22  1  0
  8 23  1  0
  8 24  1  0
  8 25  1  0
 11 26  1  0
 11 27  1  0
M  END
>  <Ligand ID>  (1) 
LIG0000177

>  <Ligand>  (1) 
(+)-Pulegone

>  <SMILES>  (1) 
C[C@@H]1CCC(=C(C)C)C(=O)C1

>  <CID>  (1) 
442495.0

>  <ChEMBL ID>  (1) 
nan

>  <InChiKey>  (1) 
NZGWDASTMWDZIW-MRVPVSSYSA-N

>  <InChi>  (1) 
InChI=1S/C10H16O/c1-7(2)9-5-4-8(3)6-10(9)11/h8H,4-6H2,1-3H3/t8-/m1/s1

>  <IUPAC Name>  (1) 
(5R)-5-methyl-2-propan-2-ylidenecyclohexan-1-one

$$$$
