
     RDKit          3D

 86 92  0  0  0  0  0  0  0  0999 V2000
   -6.1366   -0.7226    4.3878 C   0  0  0  0  0  0  0  0  0  0  0  0
   -5.8721   -0.3742    3.0419 O   0  0  0  0  0  0  0  0  0  0  0  0
   -5.4264   -1.2951    2.1045 C   0  0  0  0  0  0  0  0  0  0  0  0
   -5.2489   -2.4894    2.4592 O   0  0  0  0  0  0  0  0  0  0  0  0
   -5.1843   -0.8026    0.7275 C   0  0  1  0  0  0  0  0  0  0  0  0
   -4.2230    0.2942    0.7550 N   0  0  0  0  0  0  0  0  0  0  0  0
   -4.5000    1.6080    0.8152 N   0  0  0  0  0  0  0  0  0  0  0  0
   -3.3719    2.3138    0.8170 N   0  0  0  0  0  0  0  0  0  0  0  0
   -2.3374    1.4743    0.7581 C   0  0  0  0  0  0  0  0  0  0  0  0
   -2.8839    0.2079    0.7194 C   0  0  0  0  0  0  0  0  0  0  0  0
   -0.9062    1.7706    0.7308 C   0  0  0  0  0  0  0  0  0  0  0  0
   -0.4259    3.0608    0.7652 C   0  0  0  0  0  0  0  0  0  0  0  0
    0.9099    3.3634    0.7374 C   0  0  0  0  0  0  0  0  0  0  0  0
    1.8043    2.2905    0.6706 C   0  0  0  0  0  0  0  0  0  0  0  0
    1.3726    0.9822    0.6345 C   0  0  0  0  0  0  0  0  0  0  0  0
    0.0125    0.7582    0.6661 C   0  0  0  0  0  0  0  0  0  0  0  0
    2.3033   -0.1398    0.5671 C   0  0  0  0  0  0  0  0  0  0  0  0
    1.9712   -1.4489    0.5317 N   0  0  0  0  0  0  0  0  0  0  0  0
    3.0954   -2.1341    0.4740 N   0  0  0  0  0  0  0  0  0  0  0  0
    4.1392   -1.2915    0.4715 N   0  0  0  0  0  0  0  0  0  0  0  0
    3.6776   -0.0510    0.5284 C   0  0  0  0  0  0  0  0  0  0  0  0
    5.5285   -1.7843    0.4099 C   0  0  2  0  0  0  0  0  0  0  0  0
    6.3696   -0.6222    0.1449 C   0  0  0  0  0  0  0  0  0  0  0  0
    7.0664   -0.4064   -0.8675 O   0  0  0  0  0  0  0  0  0  0  0  0
    6.4101    0.3744    1.1321 O   0  0  0  0  0  0  0  0  0  0  0  0
    5.5463   -2.8894   -0.5795 C   0  0  0  0  0  0  0  0  0  0  0  0
    6.8887   -3.4754   -0.7244 C   0  0  0  0  0  0  0  0  0  0  0  0
    7.7980   -3.1580   -1.6957 C   0  0  0  0  0  0  0  0  0  0  0  0
    9.0331   -3.7663   -1.7057 C   0  0  0  0  0  0  0  0  0  0  0  0
    9.4122   -4.6922   -0.7789 C   0  0  0  0  0  0  0  0  0  0  0  0
    8.5059   -5.0268    0.2108 C   0  0  0  0  0  0  0  0  0  0  0  0
    7.2712   -4.4201    0.2229 C   0  0  0  0  0  0  0  0  0  0  0  0
   10.6367   -5.3208   -0.7560 O   0  0  0  0  0  0  0  0  0  0  0  0
    1.4793    4.6822    0.7745 C   0  0  0  0  0  0  0  0  0  0  0  0
    2.5029    4.8599    1.5117 O   0  0  0  0  0  0  0  0  0  0  0  0
    1.0118    5.8177    0.0660 N   0  0  0  0  0  0  0  0  0  0  0  0
    1.7617    7.0565    0.2615 C   0  0  0  0  0  0  0  0  0  0  0  0
    1.8178    7.8445   -1.0010 C   0  0  0  0  0  0  0  0  0  0  0  0
    1.4143    7.0375   -2.1353 N   0  0  0  0  0  0  0  0  0  0  0  0
   -0.0061    6.7342   -1.9042 C   0  0  0  0  0  0  0  0  0  0  0  0
   -0.1509    5.7342   -0.7945 C   0  0  0  0  0  0  0  0  0  0  0  0
   -4.7048   -1.8746   -0.2057 C   0  0  0  0  0  0  0  0  0  0  0  0
   -5.6301   -2.9963   -0.3693 C   0  0  0  0  0  0  0  0  0  0  0  0
   -5.5489   -4.2699    0.1781 C   0  0  0  0  0  0  0  0  0  0  0  0
   -6.5971   -5.0135   -0.2137 N   0  0  0  0  0  0  0  0  0  0  0  0
   -7.3907   -4.2733   -1.0172 C   0  0  0  0  0  0  0  0  0  0  0  0
   -6.8075   -3.0281   -1.1220 C   0  0  0  0  0  0  0  0  0  0  0  0
   -7.4425   -2.0746   -1.9064 C   0  0  0  0  0  0  0  0  0  0  0  0
   -8.6251   -2.3989   -2.5507 C   0  0  0  0  0  0  0  0  0  0  0  0
   -9.2097   -3.6521   -2.4444 C   0  0  0  0  0  0  0  0  0  0  0  0
   -8.5743   -4.6041   -1.6600 C   0  0  0  0  0  0  0  0  0  0  0  0
   -5.4050   -0.2101    5.0479 H   0  0  0  0  0  0  0  0  0  0  0  0
   -6.1254   -1.8134    4.5471 H   0  0  0  0  0  0  0  0  0  0  0  0
   -7.1515   -0.3182    4.6547 H   0  0  0  0  0  0  0  0  0  0  0  0
   -6.1426   -0.3666    0.3854 H   0  0  0  0  0  0  0  0  0  0  0  0
   -2.3397   -0.7450    0.6692 H   0  0  0  0  0  0  0  0  0  0  0  0
   -1.1381    3.8550    0.8195 H   0  0  0  0  0  0  0  0  0  0  0  0
    2.8603    2.4570    0.6462 H   0  0  0  0  0  0  0  0  0  0  0  0
   -0.3109   -0.2825    0.6386 H   0  0  0  0  0  0  0  0  0  0  0  0
    4.2407    0.8652    0.5416 H   0  0  0  0  0  0  0  0  0  0  0  0
    5.7724   -2.1466    1.4393 H   0  0  0  0  0  0  0  0  0  0  0  0
    6.9856    1.1931    1.0231 H   0  0  0  0  0  0  0  0  0  0  0  0
    4.8446   -3.6790   -0.2243 H   0  0  0  0  0  0  0  0  0  0  0  0
    5.2133   -2.4822   -1.5605 H   0  0  0  0  0  0  0  0  0  0  0  0
    7.5656   -2.4525   -2.4686 H   0  0  0  0  0  0  0  0  0  0  0  0
    9.7463   -3.5083   -2.4808 H   0  0  0  0  0  0  0  0  0  0  0  0
    8.7496   -5.7499    0.9651 H   0  0  0  0  0  0  0  0  0  0  0  0
    6.5892   -4.7055    1.0125 H   0  0  0  0  0  0  0  0  0  0  0  0
   11.3210   -5.0236   -0.0631 H   0  0  0  0  0  0  0  0  0  0  0  0
    1.2978    7.6400    1.0924 H   0  0  0  0  0  0  0  0  0  0  0  0
    2.8034    6.8026    0.5601 H   0  0  0  0  0  0  0  0  0  0  0  0
    2.8509    8.2542   -1.1534 H   0  0  0  0  0  0  0  0  0  0  0  0
    1.0733    8.6868   -0.9305 H   0  0  0  0  0  0  0  0  0  0  0  0
    1.4253    7.6585   -2.9749 H   0  0  0  0  0  0  0  0  0  0  0  0
   -0.4455    6.3939   -2.8608 H   0  0  0  0  0  0  0  0  0  0  0  0
   -0.5255    7.6886   -1.6039 H   0  0  0  0  0  0  0  0  0  0  0  0
   -1.0761    5.9881   -0.2429 H   0  0  0  0  0  0  0  0  0  0  0  0
   -0.2401    4.7020   -1.2343 H   0  0  0  0  0  0  0  0  0  0  0  0
   -3.7497   -2.2762    0.2426 H   0  0  0  0  0  0  0  0  0  0  0  0
   -4.4058   -1.3911   -1.1542 H   0  0  0  0  0  0  0  0  0  0  0  0
   -4.7684   -4.6489    0.8322 H   0  0  0  0  0  0  0  0  0  0  0  0
   -6.8057   -6.0142    0.0405 H   0  0  0  0  0  0  0  0  0  0  0  0
   -6.9859   -1.0915   -1.9910 H   0  0  0  0  0  0  0  0  0  0  0  0
   -9.0702   -1.6071   -3.1465 H   0  0  0  0  0  0  0  0  0  0  0  0
  -10.1448   -3.8802   -2.9670 H   0  0  0  0  0  0  0  0  0  0  0  0
   -9.0446   -5.5609   -1.5903 H   0  0  0  0  0  0  0  0  0  0  0  0
  1  2  1  0
  2  3  1  0
  3  4  2  0
  3  5  1  0
  5  6  1  0
  6  7  1  0
  7  8  2  0
  8  9  1  0
  9 10  2  0
  9 11  1  0
 11 12  2  0
 12 13  1  0
 13 14  2  0
 14 15  1  0
 15 16  2  0
 15 17  1  0
 17 18  1  0
 18 19  2  0
 19 20  1  0
 20 21  1  0
 20 22  1  0
 22 23  1  0
 23 24  2  0
 23 25  1  0
 22 26  1  0
 26 27  1  0
 27 28  2  0
 28 29  1  0
 29 30  2  0
 30 31  1  0
 31 32  2  0
 30 33  1  0
 13 34  1  0
 34 35  2  0
 34 36  1  0
 36 37  1  0
 37 38  1  0
 38 39  1  0
 39 40  1  0
 40 41  1  0
  5 42  1  0
 42 43  1  0
 43 44  2  0
 44 45  1  0
 45 46  1  0
 46 47  2  0
 47 48  1  0
 48 49  2  0
 49 50  1  0
 50 51  2  0
 10  6  1  0
 16 11  1  0
 21 17  2  0
 32 27  1  0
 41 36  1  0
 47 43  1  0
 51 46  1  0
  1 52  1  0
  1 53  1  0
  1 54  1  0
  5 55  1  6
 10 56  1  0
 12 57  1  0
 14 58  1  0
 16 59  1  0
 21 60  1  0
 22 61  1  1
 25 62  1  0
 26 63  1  0
 26 64  1  0
 28 65  1  0
 29 66  1  0
 31 67  1  0
 32 68  1  0
 33 69  1  0
 37 70  1  0
 37 71  1  0
 38 72  1  0
 38 73  1  0
 39 74  1  0
 40 75  1  0
 40 76  1  0
 41 77  1  0
 41 78  1  0
 42 79  1  0
 42 80  1  0
 44 81  1  0
 45 82  1  0
 48 83  1  0
 49 84  1  0
 50 85  1  0
 51 86  1  0
M  END
>  <Ligand ID>  (1) 
LIG0004707

>  <Ligand>  (1) 
LU-MONO-WY-DP

>  <SMILES>  (1) 
COC(=O)[C@@H](n1nnc(c1)c1cc(cc(c1)c1nnn(c1)[C@H](C(=O)O)Cc1ccc(cc1)O)C(=O)N1CCNCC1)Cc1c[nH]c2c1cccc2

>  <CID>  (1) 
16066608.0

>  <ChEMBL ID>  (1) 
nan

>  <InChiKey>  (1) 
XHYTYDLOOKTKLL-LQJZCPKCSA-N

>  <InChi>  (1) 
InChI=1S/C36H35N9O6/c1-51-36(50)33(18-26-19-38-29-5-3-2-4-28(26)29)45-21-31(40-42-45)24-15-23(16-25(17-24)34(47)43-12-10-37-11-13-43)30-20-44(41-39-30)32(35(48)49)14-22-6-8-27(46)9-7-22/h2-9,15-17,19-21,32-33,37-38,46H,10-14,18H2,1H3,(H,48,49)/t32-,33-/m0/s1

>  <IUPAC Name>  (1) 
(2S)-3-(4-hydroxyphenyl)-2-[4-[3-[1-[(2S)-3-(1H-indol-3-yl)-1-methoxy-1-oxopropan-2-yl]triazol-4-yl]-5-(piperazine-1-carbonyl)phenyl]triazol-1-yl]propanoic acid

$$$$
