
     RDKit          3D

 58 61  0  0  0  0  0  0  0  0999 V2000
    5.1207   -4.5254   -2.1229 C   0  0  0  0  0  0  0  0  0  0  0  0
    4.2710   -4.6639   -1.0218 O   0  0  0  0  0  0  0  0  0  0  0  0
    3.8667   -3.6268   -0.2114 C   0  0  0  0  0  0  0  0  0  0  0  0
    4.2824   -2.3302   -0.4315 C   0  0  0  0  0  0  0  0  0  0  0  0
    3.8658   -1.3090    0.3919 C   0  0  0  0  0  0  0  0  0  0  0  0
    3.0108   -1.5487    1.4751 C   0  0  0  0  0  0  0  0  0  0  0  0
    2.5920   -2.8396    1.7006 C   0  0  0  0  0  0  0  0  0  0  0  0
    3.0311   -3.8504    0.8497 C   0  0  0  0  0  0  0  0  0  0  0  0
    2.6368   -0.3839    2.2879 C   0  0  0  0  0  0  0  0  0  0  0  0
    1.4282    0.3362    1.8217 C   0  0  0  0  0  0  0  0  0  0  0  0
    1.5904    1.5238    1.1394 C   0  0  0  0  0  0  0  0  0  0  0  0
    0.5007    2.2336    0.6842 C   0  0  0  0  0  0  0  0  0  0  0  0
   -0.7226    1.7380    0.9230 N   0  0  0  0  0  0  0  0  0  0  0  0
   -0.9234    0.5865    1.5830 N   0  0  0  0  0  0  0  0  0  0  0  0
    0.1421   -0.1077    2.0279 C   0  0  0  0  0  0  0  0  0  0  0  0
   -0.0570   -1.1847    2.6449 O   0  0  0  0  0  0  0  0  0  0  0  0
   -2.2925    0.1566    1.7797 C   0  0  0  0  0  0  0  0  0  0  0  0
   -2.8090   -0.6893    0.6886 C   0  0  0  0  0  0  0  0  0  0  0  0
   -2.0976   -0.9871   -0.3093 O   0  0  0  0  0  0  0  0  0  0  0  0
   -4.1432   -1.1626    0.7955 N   0  0  0  0  0  0  0  0  0  0  0  0
   -4.7628   -1.9831   -0.1865 C   0  0  0  0  0  0  0  0  0  0  0  0
   -4.7252   -3.3514   -0.1811 C   0  0  0  0  0  0  0  0  0  0  0  0
   -5.3559   -4.0754   -1.1755 C   0  0  0  0  0  0  0  0  0  0  0  0
   -6.0345   -3.3967   -2.1896 C   0  0  0  0  0  0  0  0  0  0  0  0
   -6.0687   -2.0194   -2.1895 C   0  0  0  0  0  0  0  0  0  0  0  0
   -5.4397   -1.3328   -1.1992 C   0  0  0  0  0  0  0  0  0  0  0  0
   -6.9177   -4.3846   -3.5815 Br  0  0  0  0  0  0  0  0  0  0  0  0
    0.6054    3.4910   -0.0448 C   0  0  0  0  0  0  0  0  0  0  0  0
   -0.5695    4.0930   -0.4434 C   0  0  0  0  0  0  0  0  0  0  0  0
   -0.5189    5.2950   -1.1460 C   0  0  0  0  0  0  0  0  0  0  0  0
    0.6823    5.8753   -1.4394 C   0  0  0  0  0  0  0  0  0  0  0  0
    1.8525    5.2682   -1.0378 C   0  0  0  0  0  0  0  0  0  0  0  0
    1.8028    4.0960   -0.3525 C   0  0  0  0  0  0  0  0  0  0  0  0
    0.6755    7.1540   -2.1894 C   0  0  0  0  0  0  0  0  0  0  0  0
    4.7605   -3.8268   -2.9047 H   0  0  0  0  0  0  0  0  0  0  0  0
    5.2417   -5.5200   -2.6102 H   0  0  0  0  0  0  0  0  0  0  0  0
    6.1663   -4.2329   -1.8360 H   0  0  0  0  0  0  0  0  0  0  0  0
    4.9448   -2.1128   -1.2626 H   0  0  0  0  0  0  0  0  0  0  0  0
    4.2216   -0.3037    0.1761 H   0  0  0  0  0  0  0  0  0  0  0  0
    1.9461   -3.0429    2.5164 H   0  0  0  0  0  0  0  0  0  0  0  0
    2.7132   -4.8906    1.0056 H   0  0  0  0  0  0  0  0  0  0  0  0
    3.5032    0.3347    2.3764 H   0  0  0  0  0  0  0  0  0  0  0  0
    2.4268   -0.6613    3.3580 H   0  0  0  0  0  0  0  0  0  0  0  0
    2.5839    1.8895    0.9672 H   0  0  0  0  0  0  0  0  0  0  0  0
   -2.9643    1.0622    1.8370 H   0  0  0  0  0  0  0  0  0  0  0  0
   -2.3794   -0.3184    2.7814 H   0  0  0  0  0  0  0  0  0  0  0  0
   -4.7505   -0.9208    1.6299 H   0  0  0  0  0  0  0  0  0  0  0  0
   -4.1950   -3.8663    0.6117 H   0  0  0  0  0  0  0  0  0  0  0  0
   -5.3558   -5.1574   -1.2168 H   0  0  0  0  0  0  0  0  0  0  0  0
   -6.5939   -1.4856   -2.9732 H   0  0  0  0  0  0  0  0  0  0  0  0
   -5.4820   -0.2549   -1.2224 H   0  0  0  0  0  0  0  0  0  0  0  0
   -1.5242    3.6735   -0.2345 H   0  0  0  0  0  0  0  0  0  0  0  0
   -1.4614    5.7440   -1.4454 H   0  0  0  0  0  0  0  0  0  0  0  0
    2.8068    5.7205   -1.2658 H   0  0  0  0  0  0  0  0  0  0  0  0
    2.7334    3.6399   -0.0493 H   0  0  0  0  0  0  0  0  0  0  0  0
    0.5695    8.0103   -1.5010 H   0  0  0  0  0  0  0  0  0  0  0  0
    1.6694    7.2487   -2.6762 H   0  0  0  0  0  0  0  0  0  0  0  0
   -0.0996    7.1768   -2.9822 H   0  0  0  0  0  0  0  0  0  0  0  0
  1  2  1  0
  2  3  1  0
  3  4  2  0
  4  5  1  0
  5  6  2  0
  6  7  1  0
  7  8  2  0
  6  9  1  0
  9 10  1  0
 10 11  2  0
 11 12  1  0
 12 13  2  0
 13 14  1  0
 14 15  1  0
 15 16  2  0
 14 17  1  0
 17 18  1  0
 18 19  2  0
 18 20  1  0
 20 21  1  0
 21 22  2  0
 22 23  1  0
 23 24  2  0
 24 25  1  0
 25 26  2  0
 24 27  1  0
 12 28  1  0
 28 29  2  0
 29 30  1  0
 30 31  2  0
 31 32  1  0
 32 33  2  0
 31 34  1  0
  8  3  1  0
 15 10  1  0
 26 21  1  0
 33 28  1  0
  1 35  1  0
  1 36  1  0
  1 37  1  0
  4 38  1  0
  5 39  1  0
  7 40  1  0
  8 41  1  0
  9 42  1  0
  9 43  1  0
 11 44  1  0
 17 45  1  0
 17 46  1  0
 20 47  1  0
 22 48  1  0
 23 49  1  0
 25 50  1  0
 26 51  1  0
 29 52  1  0
 30 53  1  0
 32 54  1  0
 33 55  1  0
 34 56  1  0
 34 57  1  0
 34 58  1  0
M  END
>  <Ligand ID>  (1) 
LIG0003808

>  <Ligand>  (1) 
CHEMBL2391270

>  <SMILES>  (1) 
COc1ccc(cc1)Cc1cc(nn(c1=O)CC(=O)Nc1ccc(cc1)Br)c1ccc(cc1)C

>  <CID>  (1) 
71698793.0

>  <ChEMBL ID>  (1) 
nan

>  <InChiKey>  (1) 
FOTFXRLBUSVZRA-UHFFFAOYSA-N

>  <InChi>  (1) 
InChI=1S/C27H24BrN3O3/c1-18-3-7-20(8-4-18)25-16-21(15-19-5-13-24(34-2)14-6-19)27(33)31(30-25)17-26(32)29-23-11-9-22(28)10-12-23/h3-14,16H,15,17H2,1-2H3,(H,29,32)

>  <IUPAC Name>  (1) 
N-(4-bromophenyl)-2-[5-[(4-methoxyphenyl)methyl]-3-(4-methylphenyl)-6-oxopyridazin-1-yl]acetamide

$$$$
