
     RDKit          3D

 52 55  0  0  0  0  0  0  0  0999 V2000
    2.2232    1.4178    1.7350 C   0  0  0  0  0  0  0  0  0  0  0  0
    1.0836    0.7253    1.0874 C   0  0  1  0  0  0  0  0  0  0  0  0
    0.2300    1.6602    0.2165 C   0  0  0  0  0  0  0  0  0  0  0  0
   -0.9974    0.9700    0.0054 N   0  0  0  0  0  0  0  0  0  0  0  0
   -0.8802   -0.2135   -0.7478 C   0  0  0  0  0  0  0  0  0  0  0  0
    0.5251   -0.6677   -0.9249 C   0  0  0  0  0  0  0  0  0  0  0  0
    1.3877   -0.4890    0.2952 C   0  0  1  0  0  0  0  0  0  0  0  0
    2.7997   -0.5896   -0.1089 C   0  0  0  0  0  0  0  0  0  0  0  0
    3.5561    0.4482   -0.5979 C   0  0  0  0  0  0  0  0  0  0  0  0
    4.8875    0.3008   -0.9755 C   0  0  0  0  0  0  0  0  0  0  0  0
    5.5155   -0.9210   -0.8717 C   0  0  0  0  0  0  0  0  0  0  0  0
    4.7763   -1.9774   -0.3836 C   0  0  0  0  0  0  0  0  0  0  0  0
    3.4589   -1.8229   -0.0120 C   0  0  0  0  0  0  0  0  0  0  0  0
    2.7774   -2.8883    0.4603 F   0  0  0  0  0  0  0  0  0  0  0  0
    6.8430   -1.0530   -1.2518 O   0  0  0  0  0  0  0  0  0  0  0  0
    7.8688   -0.8359   -0.2841 C   0  0  0  0  0  0  0  0  0  0  0  0
    9.1287   -1.0011   -0.8028 F   0  0  0  0  0  0  0  0  0  0  0  0
    7.7719    0.4749    0.1968 F   0  0  0  0  0  0  0  0  0  0  0  0
    7.6830   -1.6495    0.8164 F   0  0  0  0  0  0  0  0  0  0  0  0
   -2.0107    1.0985    0.9610 C   0  0  0  0  0  0  0  0  0  0  0  0
   -3.2559    0.3268    0.6295 C   0  0  0  0  0  0  0  0  0  0  0  0
   -3.5681   -0.9362    0.9601 N   0  0  0  0  0  0  0  0  0  0  0  0
   -4.7793   -1.2636    0.4739 C   0  0  0  0  0  0  0  0  0  0  0  0
   -5.2160   -0.1207   -0.1892 C   0  0  0  0  0  0  0  0  0  0  0  0
   -4.2839    0.8362   -0.0877 N   0  0  0  0  0  0  0  0  0  0  0  0
   -4.3556    2.1865   -0.6463 C   0  0  0  0  0  0  0  0  0  0  0  0
   -6.4425   -0.0861   -0.8231 C   0  0  0  0  0  0  0  0  0  0  0  0
   -7.2301   -1.2272   -0.7801 C   0  0  0  0  0  0  0  0  0  0  0  0
   -6.7717   -2.3414   -0.1172 C   0  0  0  0  0  0  0  0  0  0  0  0
   -5.5620   -2.3593    0.5018 N   0  0  0  0  0  0  0  0  0  0  0  0
    2.0025    1.6573    2.8200 H   0  0  0  0  0  0  0  0  0  0  0  0
    2.3439    2.4475    1.2877 H   0  0  0  0  0  0  0  0  0  0  0  0
    3.1686    0.8542    1.7807 H   0  0  0  0  0  0  0  0  0  0  0  0
    0.3642    0.4541    1.9250 H   0  0  0  0  0  0  0  0  0  0  0  0
    0.7858    1.7779   -0.7350 H   0  0  0  0  0  0  0  0  0  0  0  0
    0.0911    2.6318    0.7223 H   0  0  0  0  0  0  0  0  0  0  0  0
   -1.3242   -0.0159   -1.7634 H   0  0  0  0  0  0  0  0  0  0  0  0
   -1.5298   -1.0252   -0.3155 H   0  0  0  0  0  0  0  0  0  0  0  0
    0.5190   -1.7472   -1.1773 H   0  0  0  0  0  0  0  0  0  0  0  0
    0.9705   -0.1600   -1.8263 H   0  0  0  0  0  0  0  0  0  0  0  0
    1.1659   -1.3965    0.9406 H   0  0  0  0  0  0  0  0  0  0  0  0
    3.1333    1.4135   -0.7048 H   0  0  0  0  0  0  0  0  0  0  0  0
    5.4459    1.1280   -1.3513 H   0  0  0  0  0  0  0  0  0  0  0  0
    5.2211   -2.9627   -0.2808 H   0  0  0  0  0  0  0  0  0  0  0  0
   -1.6352    0.8288    1.9686 H   0  0  0  0  0  0  0  0  0  0  0  0
   -2.2870    2.1889    1.0552 H   0  0  0  0  0  0  0  0  0  0  0  0
   -3.3627    2.5948   -0.8660 H   0  0  0  0  0  0  0  0  0  0  0  0
   -4.9344    2.8068    0.0515 H   0  0  0  0  0  0  0  0  0  0  0  0
   -4.9303    2.1527   -1.6068 H   0  0  0  0  0  0  0  0  0  0  0  0
   -6.7542    0.8221   -1.3321 H   0  0  0  0  0  0  0  0  0  0  0  0
   -8.1986   -1.2283   -1.2697 H   0  0  0  0  0  0  0  0  0  0  0  0
   -7.4184   -3.2243   -0.1028 H   0  0  0  0  0  0  0  0  0  0  0  0
  1  2  1  0
  2  3  1  0
  3  4  1  0
  4  5  1  0
  5  6  1  0
  6  7  1  0
  7  8  1  0
  8  9  2  0
  9 10  1  0
 10 11  2  0
 11 12  1  0
 12 13  2  0
 13 14  1  0
 11 15  1  0
 15 16  1  0
 16 17  1  0
 16 18  1  0
 16 19  1  0
  4 20  1  0
 20 21  1  0
 21 22  2  0
 22 23  1  0
 23 24  2  0
 24 25  1  0
 25 26  1  0
 24 27  1  0
 27 28  2  0
 28 29  1  0
 29 30  2  0
  7  2  1  0
 13  8  1  0
 25 21  1  0
 30 23  1  0
  1 31  1  0
  1 32  1  0
  1 33  1  0
  2 34  1  1
  3 35  1  0
  3 36  1  0
  5 37  1  0
  5 38  1  0
  6 39  1  0
  6 40  1  0
  7 41  1  1
  9 42  1  0
 10 43  1  0
 12 44  1  0
 20 45  1  0
 20 46  1  0
 26 47  1  0
 26 48  1  0
 26 49  1  0
 27 50  1  0
 28 51  1  0
 29 52  1  0
M  END
>  <Ligand ID>  (1) 
LIG0005538

>  <Ligand>  (1) 
CHEMBL1774235

>  <SMILES>  (1) 
C[C@H]1CN(CC[C@H]1c1ccc(cc1F)OC(F)(F)F)Cc1nc2c(n1C)cccn2

>  <CID>  (1) 
44178197.0

>  <ChEMBL ID>  (1) 
nan

>  <InChiKey>  (1) 
CQTZXNPIJZSXKK-DZGCQCFKSA-N

>  <InChi>  (1) 
InChI=1S/C21H22F4N4O/c1-13-11-29(12-19-27-20-18(28(19)2)4-3-8-26-20)9-7-15(13)16-6-5-14(10-17(16)22)30-21(23,24)25/h3-6,8,10,13,15H,7,9,11-12H2,1-2H3/t13-,15+/m0/s1

>  <IUPAC Name>  (1) 
2-[[(3R,4R)-4-[2-fluoro-4-(trifluoromethoxy)phenyl]-3-methylpiperidin-1-yl]methyl]-1-methylimidazo[4,5-b]pyridine

$$$$
