
     RDKit          2D

197199  0  0  0  0  0  0  0  0999 V2000
    7.4184   -2.9391    0.0000 N   0  0  0  0  0  0  0  0  0  0  0  0
    7.1065   -1.4718    0.0000 C   0  0  0  0  0  0  0  0  0  0  0  0
    6.7946   -0.0046    0.0000 C   0  0  0  0  0  0  0  0  0  0  0  0
    6.4828    1.4626    0.0000 C   0  0  0  0  0  0  0  0  0  0  0  0
    6.1709    2.9298    0.0000 C   0  0  0  0  0  0  0  0  0  0  0  0
    5.8590    4.3970    0.0000 C   0  0  0  0  0  0  0  0  0  0  0  0
    5.5472    5.8643    0.0000 C   0  0  0  0  0  0  0  0  0  0  0  0
    4.1877    6.4982    0.0000 O   0  0  0  0  0  0  0  0  0  0  0  0
    6.6619    6.8680    0.0000 N   0  0  0  0  0  0  0  0  0  0  0  0
    6.3500    8.3352    0.0000 C   0  0  0  0  0  0  0  0  0  0  0  0
    7.8173    8.6470    0.0000 C   0  0  0  0  0  0  0  0  0  0  0  0
    8.2808   10.0736    0.0000 O   0  0  0  0  0  0  0  0  0  0  0  0
    8.8209    7.5323    0.0000 N   0  0  0  0  0  0  0  0  0  0  0  0
   10.2882    7.8442    0.0000 C   0  0  0  0  0  0  0  0  0  0  0  0
   10.6000    6.3770    0.0000 C   0  0  0  0  0  0  0  0  0  0  0  0
    9.4853    5.3733    0.0000 O   0  0  0  0  0  0  0  0  0  0  0  0
   12.0266    5.9134    0.0000 N   0  0  0  0  0  0  0  0  0  0  0  0
   12.3385    4.4462    0.0000 C   0  0  0  0  0  0  0  0  0  0  0  0
   13.8057    4.7581    0.0000 C   0  0  0  0  0  0  0  0  0  0  0  0
   14.2692    6.1847    0.0000 O   0  0  0  0  0  0  0  0  0  0  0  0
   14.8094    3.6434    0.0000 O   0  0  0  0  0  0  0  0  0  0  0  0
   10.8713    4.1344    0.0000 C   0  0  0  0  0  0  0  0  0  0  0  0
    9.4040    3.8225    0.0000 O   0  0  0  0  0  0  0  0  0  0  0  0
    9.9763    9.3114    0.0000 C   0  0  0  0  0  0  0  0  0  0  0  0
    9.6644   10.7786    0.0000 S   0  0  0  0  0  0  0  0  0  0  0  0
    4.8828    8.0233    0.0000 C   0  0  0  0  0  0  0  0  0  0  0  0
    4.5709    9.4905    0.0000 O   0  0  0  0  0  0  0  0  0  0  0  0
    3.4156    7.7114    0.0000 C   0  0  0  0  0  0  0  0  0  0  0  0
    4.3918    4.0852    0.0000 N   0  0  0  0  0  0  0  0  0  0  0  0
    3.9283    2.6586    0.0000 C   0  0  0  0  0  0  0  0  0  0  0  0
    3.1316    2.6864    0.0000 O   0  0  0  0  0  0  0  0  0  0  0  0
    4.9320    1.5439    0.0000 C   0  0  0  0  0  0  0  0  0  0  0  0
    3.8173    0.5402    0.0000 N   0  0  0  0  0  0  0  0  0  0  0  0
    2.3907    1.0037    0.0000 C   0  0  0  0  0  0  0  0  0  0  0  0
    2.4217    1.8889    0.0000 O   0  0  0  0  0  0  0  0  0  0  0  0
    1.2760    0.0000    0.0000 C   0  0  0  0  0  0  0  0  0  0  0  0
    0.2723    1.1147    0.0000 N   0  0  0  0  0  0  0  0  0  0  0  0
    0.7358    2.5413    0.0000 C   0  0  0  0  0  0  0  0  0  0  0  0
    1.9937    3.3584    0.0000 O   0  0  0  0  0  0  0  0  0  0  0  0
   -0.2679    3.6560    0.0000 C   0  0  0  0  0  0  0  0  0  0  0  0
    0.8468    4.6597    0.0000 N   0  0  0  0  0  0  0  0  0  0  0  0
    2.2734    4.1962    0.0000 C   0  0  0  0  0  0  0  0  0  0  0  0
    2.3910    2.8513    0.0000 O   0  0  0  0  0  0  0  0  0  0  0  0
    3.3881    5.1999    0.0000 C   0  0  0  0  0  0  0  0  0  0  0  0
    4.3918    4.0852    0.0000 N   0  0  0  0  0  0  0  0  0  0  0  0
    3.9283    2.6586    0.0000 C   0  0  0  0  0  0  0  0  0  0  0  0
    2.4865    3.0722    0.0000 O   0  0  0  0  0  0  0  0  0  0  0  0
    4.9320    1.5439    0.0000 C   0  0  0  0  0  0  0  0  0  0  0  0
    3.8173    0.5402    0.0000 N   0  0  0  0  0  0  0  0  0  0  0  0
    2.3907    1.0037    0.0000 C   0  0  0  0  0  0  0  0  0  0  0  0
    1.7331    2.3519    0.0000 O   0  0  0  0  0  0  0  0  0  0  0  0
    1.2760    0.0000    0.0000 C   0  0  0  0  0  0  0  0  0  0  0  0
    0.3943    1.2135    0.0000 C   0  0  0  0  0  0  0  0  0  0  0  0
   -1.0323    0.7500    0.0000 C   0  0  0  0  0  0  0  0  0  0  0  0
   -1.0323   -0.7500    0.0000 C   0  0  0  0  0  0  0  0  0  0  0  0
    0.3943   -1.2135    0.0000 N   0  0  0  0  0  0  0  0  0  0  0  0
    0.8578   -2.6401    0.0000 C   0  0  0  0  0  0  0  0  0  0  0  0
    2.3250   -2.9520    0.0000 O   0  0  0  0  0  0  0  0  0  0  0  0
   -0.1459   -3.7548    0.0000 C   0  0  0  0  0  0  0  0  0  0  0  0
    0.9688   -4.7585    0.0000 N   0  0  0  0  0  0  0  0  0  0  0  0
    0.6570   -6.2257    0.0000 C   0  0  0  0  0  0  0  0  0  0  0  0
   -0.7696   -6.6893    0.0000 O   0  0  0  0  0  0  0  0  0  0  0  0
    1.7717   -7.2294    0.0000 C   0  0  0  0  0  0  0  0  0  0  0  0
    3.0707   -7.9794    0.0000 C   0  0  0  0  0  0  0  0  0  0  0  0
    2.7589   -9.4467    0.0000 C   0  0  0  0  0  0  0  0  0  0  0  0
    1.2671   -9.6035    0.0000 C   0  0  0  0  0  0  0  0  0  0  0  0
    0.6570   -8.2331    0.0000 N   0  0  0  0  0  0  0  0  0  0  0  0
   -0.8102   -7.9213    0.0000 C   0  0  0  0  0  0  0  0  0  0  0  0
   -2.1806   -7.3112    0.0000 C   0  0  0  0  0  0  0  0  0  0  0  0
   -2.8382   -5.9630    0.0000 O   0  0  0  0  0  0  0  0  0  0  0  0
   -3.1843   -8.4259    0.0000 C   0  0  0  0  0  0  0  0  0  0  0  0
   -2.4343   -9.7249    0.0000 C   0  0  0  0  0  0  0  0  0  0  0  0
   -0.9670   -9.4131    0.0000 C   0  0  0  0  0  0  0  0  0  0  0  0
   -0.8102  -10.9048    0.0000 C   0  0  0  0  0  0  0  0  0  0  0  0
   -1.9072  -11.9279    0.0000 O   0  0  0  0  0  0  0  0  0  0  0  0
    0.5601  -11.5149    0.0000 O   0  0  0  0  0  0  0  0  0  0  0  0
   -1.1496   -4.8695    0.0000 C   0  0  0  0  0  0  0  0  0  0  0  0
   -2.1533   -5.9843    0.0000 C   0  0  0  0  0  0  0  0  0  0  0  0
   -3.1570   -7.0990    0.0000 C   0  0  0  0  0  0  0  0  0  0  0  0
   -3.2680   -4.9806    0.0000 C   0  0  0  0  0  0  0  0  0  0  0  0
    5.9357    0.4291    0.0000 C   0  0  0  0  0  0  0  0  0  0  0  0
    6.9394   -0.6856    0.0000 C   0  0  0  0  0  0  0  0  0  0  0  0
    6.1444   -1.9576    0.0000 O   0  0  0  0  0  0  0  0  0  0  0  0
    8.4066   -0.3737    0.0000 O   0  0  0  0  0  0  0  0  0  0  0  0
    4.5028    6.2036    0.0000 C   0  0  0  0  0  0  0  0  0  0  0  0
    5.6176    7.2073    0.0000 S   0  0  0  0  0  0  0  0  0  0  0  0
   -1.2716    4.7707    0.0000 C   0  0  0  0  0  0  0  0  0  0  0  0
   -2.2753    5.8855    0.0000 S   0  0  0  0  0  0  0  0  0  0  0  0
    0.1613   -1.0037    0.0000 C   0  0  0  0  0  0  0  0  0  0  0  0
   -0.9535   -2.0074    0.0000 C   0  0  0  0  0  0  0  0  0  0  0  0
   -2.0682   -3.0111    0.0000 C   0  0  0  0  0  0  0  0  0  0  0  0
   -3.1829   -4.0148    0.0000 N   0  0  0  0  0  0  0  0  0  0  0  0
   -4.6095   -3.5513    0.0000 C   0  0  0  0  0  0  0  0  0  0  0  0
   -5.7242   -4.5550    0.0000 N   0  0  0  0  0  0  0  0  0  0  0  0
   -4.9213   -2.0840    0.0000 N   0  0  0  0  0  0  0  0  0  0  0  0
    5.9357    0.4291    0.0000 C   0  0  0  0  0  0  0  0  0  0  0  0
    6.9394   -0.6856    0.0000 C   0  0  0  0  0  0  0  0  0  0  0  0
    7.9431   -1.8003    0.0000 C   0  0  0  0  0  0  0  0  0  0  0  0
    9.4422   -1.8527    0.0000 O   0  0  0  0  0  0  0  0  0  0  0  0
    7.4796   -3.2269    0.0000 N   0  0  0  0  0  0  0  0  0  0  0  0
    6.1896   -3.7994    0.0000 H   0  0  0  0  0  0  0  0  0  0  0  0
    8.8450   -3.4026    0.0000 H   0  0  0  0  0  0  0  0  0  0  0  0
    8.6056   -1.5243    0.0000 H   0  0  0  0  0  0  0  0  0  0  0  0
    5.7584   -2.1295    0.0000 H   0  0  0  0  0  0  0  0  0  0  0  0
    8.0526    0.8124    0.0000 H   0  0  0  0  0  0  0  0  0  0  0  0
    5.4465   -0.6623    0.0000 H   0  0  0  0  0  0  0  0  0  0  0  0
    5.3338    0.4983    0.0000 H   0  0  0  0  0  0  0  0  0  0  0  0
    7.9500    1.7745    0.0000 H   0  0  0  0  0  0  0  0  0  0  0  0
    5.0220    1.9655    0.0000 H   0  0  0  0  0  0  0  0  0  0  0  0
    7.6381    3.2417    0.0000 H   0  0  0  0  0  0  0  0  0  0  0  0
    7.3263    4.7089    0.0000 H   0  0  0  0  0  0  0  0  0  0  0  0
    8.0213    6.2340    0.0000 H   0  0  0  0  0  0  0  0  0  0  0  0
    6.0382    9.8024    0.0000 H   0  0  0  0  0  0  0  0  0  0  0  0
    8.5348    6.0599    0.0000 H   0  0  0  0  0  0  0  0  0  0  0  0
   11.7554    8.1561    0.0000 H   0  0  0  0  0  0  0  0  0  0  0  0
   13.1413    6.9171    0.0000 H   0  0  0  0  0  0  0  0  0  0  0  0
   12.6504    2.9790    0.0000 H   0  0  0  0  0  0  0  0  0  0  0  0
   16.2766    3.9552    0.0000 H   0  0  0  0  0  0  0  0  0  0  0  0
   11.1831    2.6671    0.0000 H   0  0  0  0  0  0  0  0  0  0  0  0
   10.2136    5.4825    0.0000 H   0  0  0  0  0  0  0  0  0  0  0  0
    8.9405    2.3959    0.0000 H   0  0  0  0  0  0  0  0  0  0  0  0
   11.4435    9.6233    0.0000 H   0  0  0  0  0  0  0  0  0  0  0  0
    8.4772    9.3638    0.0000 H   0  0  0  0  0  0  0  0  0  0  0  0
    8.2378   11.2422    0.0000 H   0  0  0  0  0  0  0  0  0  0  0  0
    5.5404    6.6752    0.0000 H   0  0  0  0  0  0  0  0  0  0  0  0
    3.2115   10.1245    0.0000 H   0  0  0  0  0  0  0  0  0  0  0  0
    1.9484    7.3996    0.0000 H   0  0  0  0  0  0  0  0  0  0  0  0
    2.9272    9.1297    0.0000 H   0  0  0  0  0  0  0  0  0  0  0  0
    3.9040    6.2932    0.0000 H   0  0  0  0  0  0  0  0  0  0  0  0
    3.6877    5.4096    0.0000 H   0  0  0  0  0  0  0  0  0  0  0  0
    6.3324    2.0813    0.0000 H   0  0  0  0  0  0  0  0  0  0  0  0
    3.9480   -0.9541    0.0000 H   0  0  0  0  0  0  0  0  0  0  0  0
    2.4081   -0.9841    0.0000 H   0  0  0  0  0  0  0  0  0  0  0  0
   -1.1460    0.6263    0.0000 H   0  0  0  0  0  0  0  0  0  0  0  0
   -1.4966    2.7957    0.0000 H   0  0  0  0  0  0  0  0  0  0  0  0
    0.7161    6.1540    0.0000 H   0  0  0  0  0  0  0  0  0  0  0  0
    2.3844    6.3146    0.0000 H   0  0  0  0  0  0  0  0  0  0  0  0
    5.8733    3.8504    0.0000 H   0  0  0  0  0  0  0  0  0  0  0  0
    6.1607    2.4042    0.0000 H   0  0  0  0  0  0  0  0  0  0  0  0
    3.5825   -0.9413    0.0000 H   0  0  0  0  0  0  0  0  0  0  0  0
    2.2600   -1.1321    0.0000 H   0  0  0  0  0  0  0  0  0  0  0  0
   -0.2158    2.5838    0.0000 H   0  0  0  0  0  0  0  0  0  0  0  0
    1.1890    2.4857    0.0000 H   0  0  0  0  0  0  0  0  0  0  0  0
   -2.5241    0.5932    0.0000 H   0  0  0  0  0  0  0  0  0  0  0  0
   -1.5207    2.1683    0.0000 H   0  0  0  0  0  0  0  0  0  0  0  0
   -1.8493   -2.0079    0.0000 H   0  0  0  0  0  0  0  0  0  0  0  0
   -2.4938   -0.4125    0.0000 H   0  0  0  0  0  0  0  0  0  0  0  0
   -1.3746   -2.8945    0.0000 H   0  0  0  0  0  0  0  0  0  0  0  0
    2.3954   -4.2950    0.0000 H   0  0  0  0  0  0  0  0  0  0  0  0
    2.6534   -6.0159    0.0000 H   0  0  0  0  0  0  0  0  0  0  0  0
    3.6808   -6.6091    0.0000 H   0  0  0  0  0  0  0  0  0  0  0  0
    4.4973   -8.4430    0.0000 H   0  0  0  0  0  0  0  0  0  0  0  0
    4.2506   -9.6035    0.0000 H   0  0  0  0  0  0  0  0  0  0  0  0
    2.7589  -10.9467    0.0000 H   0  0  0  0  0  0  0  0  0  0  0  0
    1.5790  -11.0707    0.0000 H   0  0  0  0  0  0  0  0  0  0  0  0
   -0.1595  -10.0670    0.0000 H   0  0  0  0  0  0  0  0  0  0  0  0
   -0.1763   -6.5618    0.0000 H   0  0  0  0  0  0  0  0  0  0  0  0
   -4.3163   -7.4418    0.0000 H   0  0  0  0  0  0  0  0  0  0  0  0
   -4.3978   -9.3076    0.0000 H   0  0  0  0  0  0  0  0  0  0  0  0
   -3.8046  -10.3350    0.0000 H   0  0  0  0  0  0  0  0  0  0  0  0
   -2.1481  -11.1974    0.0000 H   0  0  0  0  0  0  0  0  0  0  0  0
    0.4884   -9.7760    0.0000 H   0  0  0  0  0  0  0  0  0  0  0  0
    0.7169  -13.0067    0.0000 H   0  0  0  0  0  0  0  0  0  0  0  0
   -2.1336   -3.7375    0.0000 H   0  0  0  0  0  0  0  0  0  0  0  0
   -0.1655   -6.0016    0.0000 H   0  0  0  0  0  0  0  0  0  0  0  0
   -1.0385   -6.9880    0.0000 H   0  0  0  0  0  0  0  0  0  0  0  0
   -4.2891   -8.0830    0.0000 H   0  0  0  0  0  0  0  0  0  0  0  0
   -4.3857   -6.2386    0.0000 H   0  0  0  0  0  0  0  0  0  0  0  0
   -2.0422   -8.1027    0.0000 H   0  0  0  0  0  0  0  0  0  0  0  0
   -4.5924   -4.2764    0.0000 H   0  0  0  0  0  0  0  0  0  0  0  0
   -4.4001   -5.9646    0.0000 H   0  0  0  0  0  0  0  0  0  0  0  0
   -2.4076   -3.7518    0.0000 H   0  0  0  0  0  0  0  0  0  0  0  0
    4.8210   -0.5745    0.0000 H   0  0  0  0  0  0  0  0  0  0  0  0
    7.1644    1.2895    0.0000 H   0  0  0  0  0  0  0  0  0  0  0  0
    9.6502   -1.2124    0.0000 H   0  0  0  0  0  0  0  0  0  0  0  0
    3.2592    7.0423    0.0000 H   0  0  0  0  0  0  0  0  0  0  0  0
    5.9644    5.8664    0.0000 H   0  0  0  0  0  0  0  0  0  0  0  0
    7.1139    7.1027    0.0000 H   0  0  0  0  0  0  0  0  0  0  0  0
   -2.3863    3.7670    0.0000 H   0  0  0  0  0  0  0  0  0  0  0  0
   -0.2875    5.9028    0.0000 H   0  0  0  0  0  0  0  0  0  0  0  0
   -1.8118    7.3120    0.0000 H   0  0  0  0  0  0  0  0  0  0  0  0
    0.8654   -2.3282    0.0000 H   0  0  0  0  0  0  0  0  0  0  0  0
   -1.1753   -0.3228    0.0000 H   0  0  0  0  0  0  0  0  0  0  0  0
   -2.0855   -1.0233    0.0000 H   0  0  0  0  0  0  0  0  0  0  0  0
   -0.2493   -3.3319    0.0000 H   0  0  0  0  0  0  0  0  0  0  0  0
   -3.0719   -1.8964    0.0000 H   0  0  0  0  0  0  0  0  0  0  0  0
   -1.3640   -4.3355    0.0000 H   0  0  0  0  0  0  0  0  0  0  0  0
   -7.1508   -4.0914    0.0000 H   0  0  0  0  0  0  0  0  0  0  0  0
   -5.4123   -6.0222    0.0000 H   0  0  0  0  0  0  0  0  0  0  0  0
   -6.3479   -1.6205    0.0000 H   0  0  0  0  0  0  0  0  0  0  0  0
   -3.8066   -1.0803    0.0000 H   0  0  0  0  0  0  0  0  0  0  0  0
    7.3361    0.9666    0.0000 H   0  0  0  0  0  0  0  0  0  0  0  0
    5.0970   -0.8145    0.0000 H   0  0  0  0  0  0  0  0  0  0  0  0
    8.3398   -0.1481    0.0000 H   0  0  0  0  0  0  0  0  0  0  0  0
    5.8247   -1.6893    0.0000 H   0  0  0  0  0  0  0  0  0  0  0  0
    8.4833   -4.3416    0.0000 H   0  0  0  0  0  0  0  0  0  0  0  0
    6.0613   -3.7153    0.0000 H   0  0  0  0  0  0  0  0  0  0  0  0
  1  2  1  0
  2  3  1  0
  3  4  1  0
  4  5  1  0
  5  6  1  0
  6  7  1  0
  7  8  2  0
  7  9  1  0
  9 10  1  0
 10 11  1  0
 11 12  2  0
 11 13  1  0
 13 14  1  0
 14 15  1  0
 15 16  2  0
 15 17  1  0
 17 18  1  0
 18 19  1  0
 19 20  2  0
 19 21  1  0
 18 22  1  0
 22 23  1  0
 14 24  1  0
 24 25  1  0
 10 26  1  0
 26 27  1  0
 26 28  1  0
  6 29  1  0
 29 30  1  0
 30 31  2  0
 30 32  1  0
 32 33  1  0
 33 34  1  0
 34 35  2  0
 34 36  1  0
 36 37  1  0
 37 38  1  0
 38 39  2  0
 38 40  1  0
 40 41  1  0
 41 42  1  0
 42 43  2  0
 42 44  1  0
 44 45  1  0
 45 46  1  0
 46 47  2  0
 46 48  1  0
 48 49  1  0
 49 50  1  0
 50 51  2  0
 50 52  1  0
 52 53  1  0
 53 54  1  0
 54 55  1  0
 55 56  1  0
 56 57  1  0
 57 58  2  0
 57 59  1  0
 59 60  1  0
 60 61  1  0
 61 62  2  0
 61 63  1  0
 63 64  1  0
 64 65  1  0
 65 66  1  0
 66 67  1  0
 67 68  1  0
 68 69  1  0
 69 70  2  0
 69 71  1  0
 71 72  1  0
 72 73  1  0
 73 74  1  0
 74 75  2  0
 74 76  1  0
 59 77  1  0
 77 78  1  0
 78 79  1  0
 78 80  1  0
 48 81  1  0
 81 82  1  0
 82 83  2  0
 82 84  1  0
 44 85  1  0
 85 86  1  0
 40 87  1  0
 87 88  1  0
 36 89  1  0
 89 90  1  0
 90 91  1  0
 91 92  1  0
 92 93  2  3
 93 94  1  0
 93 95  1  0
 32 96  1  0
 96 97  1  0
 97 98  1  0
 98 99  2  0
 98100  1  0
 56 52  1  0
 67 63  1  0
 73 68  1  0
  1101  1  0
  1102  1  0
  2103  1  0
  2104  1  0
  3105  1  0
  3106  1  0
  4107  1  0
  4108  1  0
  5109  1  0
  5110  1  0
  6111  1  1
  9112  1  0
 10113  1  6
 13114  1  0
 14115  1  6
 17116  1  0
 18117  1  1
 21118  1  0
 22119  1  0
 22120  1  0
 23121  1  0
 24122  1  0
 24123  1  0
 25124  1  0
 26125  1  6
 27126  1  0
 28127  1  0
 28128  1  0
 28129  1  0
 29130  1  0
 32131  1  1
 33132  1  0
 36133  1  1
 37134  1  0
 40135  1  1
 41136  1  0
 44137  1  1
 45138  1  0
 48139  1  1
 49140  1  0
 52141  1  6
 53142  1  0
 53143  1  0
 54144  1  0
 54145  1  0
 55146  1  0
 55147  1  0
 59148  1  6
 60149  1  0
 63150  1  1
 64151  1  0
 64152  1  0
 65153  1  0
 65154  1  0
 66155  1  0
 66156  1  0
 68157  1  0
 71158  1  0
 71159  1  0
 72160  1  0
 72161  1  0
 73162  1  0
 76163  1  0
 77164  1  0
 77165  1  0
 78166  1  0
 79167  1  0
 79168  1  0
 79169  1  0
 80170  1  0
 80171  1  0
 80172  1  0
 81173  1  0
 81174  1  0
 84175  1  0
 85176  1  0
 85177  1  0
 86178  1  0
 87179  1  0
 87180  1  0
 88181  1  0
 89182  1  0
 89183  1  0
 90184  1  0
 90185  1  0
 91186  1  0
 91187  1  0
 94188  1  0
 94189  1  0
 95190  1  0
 95191  1  0
 96192  1  0
 96193  1  0
 97194  1  0
 97195  1  0
100196  1  0
100197  1  0
M  END
>  <Ligand ID>  (1) 
LIG0005357

>  <Ligand>  (1) 
CHEMBL406778

>  <SMILES>  (1) 
NCCCC[C@@H](C(=O)N[C@H](C(=O)N[C@H](C(=O)N[C@H](C(=O)O)CO)CS)[C@H](O)C)NC(=O)[C@@H](NC(=O)[C@@H](NC(=O)[C@@H](NC(=O)[C@@H](NC(=O)[C@@H](NC(=O)[C@@H]1CCCN1C(=O)[C@@H](NC(=O)[C@@H]1CCCN1C1C(=O)CCC1C(=O)O)CC(C)C)CC(=O)O)CS)CS)CCCN=C(N)N)CCC(=O)N

>  <CID>  (1) 
44270731.0

>  <ChEMBL ID>  (1) 
nan

>  <InChiKey>  (1) 
BXDMGPYJPKDKOL-FOGLHXRGSA-N

>  <InChi>  (1) 
InChI=1S/C59H97N17O21S3/c1-27(2)21-34(69-53(90)39-11-7-19-75(39)45-29(57(94)95)13-15-41(45)79)56(93)76-20-8-12-40(76)54(91)68-33(22-43(81)82)49(86)71-37(25-99)52(89)72-36(24-98)50(87)66-31(10-6-18-64-59(62)63)46(83)67-32(14-16-42(61)80)47(84)65-30(9-4-5-17-60)48(85)74-44(28(3)78)55(92)73-38(26-100)51(88)70-35(23-77)58(96)97/h27-40,44-45,77-78,98-100H,4-26,60H2,1-3H3,(H2,61,80)(H,65,84)(H,66,87)(H,67,83)(H,68,91)(H,69,90)(H,70,88)(H,71,86)(H,72,89)(H,73,92)(H,74,85)(H,81,82)(H,94,95)(H,96,97)(H4,62,63,64)/t28-,29?,30+,31+,32+,33+,34+,35+,36+,37+,38+,39+,40+,44+,45?/m1/s1

>  <IUPAC Name>  (1) 
2-[(2S)-2-[[(2S)-1-[(2S)-2-[[(2S)-1-[[(2R)-1-[[(2R)-1-[[(2S)-1-[[(2S)-5-amino-1-[[(2S)-6-amino-1-[[(2S,3R)-1-[[(2R)-1-[[(1S)-1-carboxy-2-hydroxyethyl]amino]-1-oxo-3-sulfanylpropan-2-yl]amino]-3-hydroxy-1-oxobutan-2-yl]amino]-1-oxohexan-2-yl]amino]-1,5-dioxopentan-2-yl]amino]-5-(diaminomethylideneamino)-1-oxopentan-2-yl]amino]-1-oxo-3-sulfanylpropan-2-yl]amino]-1-oxo-3-sulfanylpropan-2-yl]amino]-3-carboxy-1-oxopropan-2-yl]carbamoyl]pyrrolidin-1-yl]-4-methyl-1-oxopentan-2-yl]carbamoyl]pyrrolidin-1-yl]-3-oxocyclopentane-1-carboxylic acid

$$$$
