
     RDKit          3D

 33 34  0  0  0  0  0  0  0  0999 V2000
   -3.1339   -0.8148   -2.2634 O   0  0  0  0  0  0  0  0  0  0  0  0
   -3.5173   -0.2346   -1.2001 C   0  0  0  0  0  0  0  0  0  0  0  0
   -4.8132   -0.3770   -0.4927 C   0  0  0  0  0  0  0  0  0  0  0  0
   -4.9572    0.9402    0.2624 C   0  0  0  0  0  0  0  0  0  0  0  0
   -3.5175    1.1487    0.7026 C   0  0  0  0  0  0  0  0  0  0  0  0
   -2.7302    0.7085   -0.4543 N   0  0  0  0  0  0  0  0  0  0  0  0
   -1.3824    1.1304   -0.8145 C   0  0  0  0  0  0  0  0  0  0  0  0
   -0.3569    0.2750   -0.2020 C   0  0  0  0  0  0  0  0  0  0  0  0
    0.4715   -0.4428    0.2992 C   0  0  0  0  0  0  0  0  0  0  0  0
    1.4499   -1.2976    0.9204 C   0  0  0  0  0  0  0  0  0  0  0  0
    2.7461   -0.9579    0.5317 N   0  0  0  0  0  0  0  0  0  0  0  0
    3.1072   -1.2119   -0.8498 C   0  0  0  0  0  0  0  0  0  0  0  0
    4.5620   -0.7362   -0.8340 C   0  0  0  0  0  0  0  0  0  0  0  0
    4.6842    0.2340    0.3250 C   0  0  0  0  0  0  0  0  0  0  0  0
    3.2167    0.3791    0.7606 C   0  0  0  0  0  0  0  0  0  0  0  0
   -4.7526   -1.2075    0.2293 H   0  0  0  0  0  0  0  0  0  0  0  0
   -5.6617   -0.4960   -1.2023 H   0  0  0  0  0  0  0  0  0  0  0  0
   -5.2871    1.7141   -0.4605 H   0  0  0  0  0  0  0  0  0  0  0  0
   -5.6318    0.8161    1.1209 H   0  0  0  0  0  0  0  0  0  0  0  0
   -3.3372    0.4712    1.5519 H   0  0  0  0  0  0  0  0  0  0  0  0
   -3.3219    2.2024    0.9450 H   0  0  0  0  0  0  0  0  0  0  0  0
   -1.2545    1.1728   -1.9199 H   0  0  0  0  0  0  0  0  0  0  0  0
   -1.2826    2.1671   -0.4100 H   0  0  0  0  0  0  0  0  0  0  0  0
    1.4152   -1.2736    2.0487 H   0  0  0  0  0  0  0  0  0  0  0  0
    1.2938   -2.3859    0.6593 H   0  0  0  0  0  0  0  0  0  0  0  0
    3.0680   -2.2817   -1.0317 H   0  0  0  0  0  0  0  0  0  0  0  0
    2.5264   -0.5844   -1.5241 H   0  0  0  0  0  0  0  0  0  0  0  0
    4.8454   -0.2152   -1.7634 H   0  0  0  0  0  0  0  0  0  0  0  0
    5.2264   -1.6187   -0.7190 H   0  0  0  0  0  0  0  0  0  0  0  0
    5.1098    1.2013    0.0042 H   0  0  0  0  0  0  0  0  0  0  0  0
    5.2355   -0.2788    1.1238 H   0  0  0  0  0  0  0  0  0  0  0  0
    2.7398    1.1545    0.1250 H   0  0  0  0  0  0  0  0  0  0  0  0
    3.2400    0.6991    1.8026 H   0  0  0  0  0  0  0  0  0  0  0  0
  1  2  2  0
  2  3  1  0
  3  4  1  0
  4  5  1  0
  5  6  1  0
  6  7  1  0
  7  8  1  0
  8  9  3  0
  9 10  1  0
 10 11  1  0
 11 12  1  0
 12 13  1  0
 13 14  1  0
 14 15  1  0
  6  2  1  0
 15 11  1  0
  3 16  1  0
  3 17  1  0
  4 18  1  0
  4 19  1  0
  5 20  1  0
  5 21  1  0
  7 22  1  0
  7 23  1  0
 10 24  1  0
 10 25  1  0
 12 26  1  0
 12 27  1  0
 13 28  1  0
 13 29  1  0
 14 30  1  0
 14 31  1  0
 15 32  1  0
 15 33  1  0
M  END
>  <Ligand ID>  (1) 
LIG0000674

>  <Ligand>  (1) 
oxotremorine

>  <SMILES>  (1) 
O=C1CCCN1CC#CCN1CCCC1

>  <CID>  (1) 
4630.0

>  <ChEMBL ID>  (1) 
nan

>  <InChiKey>  (1) 
RSDOPYMFZBJHRL-UHFFFAOYSA-N

>  <InChi>  (1) 
InChI=1S/C12H18N2O/c15-12-6-5-11-14(12)10-4-3-9-13-7-1-2-8-13/h1-2,5-11H2

>  <IUPAC Name>  (1) 
1-(4-pyrrolidin-1-ylbut-2-ynyl)pyrrolidin-2-one

$$$$
