
     RDKit          3D

 57 60  0  0  0  0  0  0  0  0999 V2000
    5.0844    0.4739    0.7145 O   0  0  0  0  0  0  0  0  0  0  0  0
    5.2133   -0.1044   -0.4035 C   0  0  0  0  0  0  0  0  0  0  0  0
    6.5578   -0.1428   -1.0296 C   0  0  0  0  0  0  0  0  0  0  0  0
    7.5501    0.5259   -0.2195 N   0  0  0  0  0  0  0  0  0  0  0  0
    7.7162    1.8353   -0.4617 N   0  0  0  0  0  0  0  0  0  0  0  0
    8.6226    2.5200    0.2547 C   0  0  0  0  0  0  0  0  0  0  0  0
    9.3909    1.9068    1.2384 C   0  0  0  0  0  0  0  0  0  0  0  0
    9.2103    0.5486    1.4811 C   0  0  0  0  0  0  0  0  0  0  0  0
    8.2658   -0.1132    0.7183 C   0  0  0  0  0  0  0  0  0  0  0  0
    8.0740   -1.3454    0.9097 O   0  0  0  0  0  0  0  0  0  0  0  0
    4.1298   -0.7190   -1.0878 N   0  0  0  0  0  0  0  0  0  0  0  0
    2.8108   -0.7202   -0.5451 C   0  0  0  0  0  0  0  0  0  0  0  0
    2.3458   -1.7292    0.2830 C   0  0  0  0  0  0  0  0  0  0  0  0
    1.0584   -1.6760    0.7791 C   0  0  0  0  0  0  0  0  0  0  0  0
    0.1830   -0.6423    0.4870 C   0  0  0  0  0  0  0  0  0  0  0  0
    0.6770    0.3534   -0.3445 C   0  0  0  0  0  0  0  0  0  0  0  0
    1.9632    0.3200   -0.8527 C   0  0  0  0  0  0  0  0  0  0  0  0
   -1.1871   -0.5984    1.0233 C   0  0  0  0  0  0  0  0  0  0  0  0
   -2.2066   -1.2674    0.1625 C   0  0  2  0  0  0  0  0  0  0  0  0
   -2.3302   -0.6789   -1.2224 C   0  0  0  0  0  0  0  0  0  0  0  0
   -3.7659   -0.9525   -1.6279 C   0  0  0  0  0  0  0  0  0  0  0  0
   -4.3867   -1.4147   -0.3363 C   0  0  1  0  0  0  0  0  0  0  0  0
   -3.5217   -0.9444    0.7072 N   0  0  0  0  0  0  0  0  0  0  0  0
   -5.8224   -1.1139   -0.1989 C   0  0  1  0  0  0  0  0  0  0  0  0
   -6.2124    0.2690    0.0333 C   0  0  0  0  0  0  0  0  0  0  0  0
   -5.3701    1.3391    0.2125 C   0  0  0  0  0  0  0  0  0  0  0  0
   -5.8062    2.6306    0.4338 C   0  0  0  0  0  0  0  0  0  0  0  0
   -7.1576    2.9007    0.4843 C   0  0  0  0  0  0  0  0  0  0  0  0
   -8.0202    1.8412    0.3069 C   0  0  0  0  0  0  0  0  0  0  0  0
   -7.5801    0.5528    0.0862 C   0  0  0  0  0  0  0  0  0  0  0  0
   -6.5595   -1.6499   -1.2871 O   0  0  0  0  0  0  0  0  0  0  0  0
    6.8387   -1.2324   -1.0586 H   0  0  0  0  0  0  0  0  0  0  0  0
    6.5505    0.2201   -2.0701 H   0  0  0  0  0  0  0  0  0  0  0  0
    8.7221    3.5753    0.0241 H   0  0  0  0  0  0  0  0  0  0  0  0
   10.1219    2.4773    1.8103 H   0  0  0  0  0  0  0  0  0  0  0  0
    9.7785    0.0190    2.2327 H   0  0  0  0  0  0  0  0  0  0  0  0
    4.2939   -1.1886   -2.0207 H   0  0  0  0  0  0  0  0  0  0  0  0
    3.0309   -2.5276    0.5050 H   0  0  0  0  0  0  0  0  0  0  0  0
    0.7312   -2.4879    1.4257 H   0  0  0  0  0  0  0  0  0  0  0  0
    0.0726    1.2005   -0.6296 H   0  0  0  0  0  0  0  0  0  0  0  0
    2.3165    1.1048   -1.4933 H   0  0  0  0  0  0  0  0  0  0  0  0
   -1.5360    0.4281    1.2596 H   0  0  0  0  0  0  0  0  0  0  0  0
   -1.1743   -1.1635    1.9892 H   0  0  0  0  0  0  0  0  0  0  0  0
   -2.1462   -2.3800    0.1605 H   0  0  0  0  0  0  0  0  0  0  0  0
   -1.6610   -1.1121   -1.9675 H   0  0  0  0  0  0  0  0  0  0  0  0
   -2.1377    0.4090   -1.1071 H   0  0  0  0  0  0  0  0  0  0  0  0
   -4.1671   -0.0193   -2.0242 H   0  0  0  0  0  0  0  0  0  0  0  0
   -3.8218   -1.7155   -2.4288 H   0  0  0  0  0  0  0  0  0  0  0  0
   -4.2560   -2.5377   -0.3378 H   0  0  0  0  0  0  0  0  0  0  0  0
   -3.6999   -1.3526    1.6286 H   0  0  0  0  0  0  0  0  0  0  0  0
   -6.2099   -1.7072    0.6811 H   0  0  0  0  0  0  0  0  0  0  0  0
   -4.3055    1.1897    0.1797 H   0  0  0  0  0  0  0  0  0  0  0  0
   -5.0782    3.4318    0.5676 H   0  0  0  0  0  0  0  0  0  0  0  0
   -7.4793    3.9179    0.6586 H   0  0  0  0  0  0  0  0  0  0  0  0
   -9.0885    2.0458    0.3453 H   0  0  0  0  0  0  0  0  0  0  0  0
   -8.3124   -0.2377   -0.0459 H   0  0  0  0  0  0  0  0  0  0  0  0
   -6.3097   -2.5624   -1.5042 H   0  0  0  0  0  0  0  0  0  0  0  0
  1  2  2  0
  2  3  1  0
  3  4  1  0
  4  5  1  0
  5  6  2  0
  6  7  1  0
  7  8  2  0
  8  9  1  0
  9 10  2  0
  2 11  1  0
 11 12  1  0
 12 13  2  0
 13 14  1  0
 14 15  2  0
 15 16  1  0
 16 17  2  0
 15 18  1  0
 18 19  1  0
 19 20  1  0
 20 21  1  0
 21 22  1  0
 22 23  1  0
 22 24  1  0
 24 25  1  0
 25 26  2  0
 26 27  1  0
 27 28  2  0
 28 29  1  0
 29 30  2  0
 24 31  1  0
  9  4  1  0
 17 12  1  0
 23 19  1  0
 30 25  1  0
  3 32  1  0
  3 33  1  0
  6 34  1  0
  7 35  1  0
  8 36  1  0
 11 37  1  0
 13 38  1  0
 14 39  1  0
 16 40  1  0
 17 41  1  0
 18 42  1  0
 18 43  1  0
 19 44  1  6
 20 45  1  0
 20 46  1  0
 21 47  1  0
 21 48  1  0
 22 49  1  6
 23 50  1  0
 24 51  1  1
 26 52  1  0
 27 53  1  0
 28 54  1  0
 29 55  1  0
 30 56  1  0
 31 57  1  0
M  END
>  <Ligand ID>  (1) 
LIG0001300

>  <Ligand>  (1) 
CHEMBL3764088

>  <SMILES>  (1) 
O=C(Cn1ncccc1=O)Nc1ccc(cc1)C[C@@H]1CC[C@@H](N1)[C@@H](c1ccccc1)O

>  <CID>  (1) 
44472610.0

>  <ChEMBL ID>  (1) 
nan

>  <InChiKey>  (1) 
URLFNGRPGJRFPI-YZUZCNPQSA-N

>  <InChi>  (1) 
InChI=1S/C24H26N4O3/c29-22(16-28-23(30)7-4-14-25-28)27-19-10-8-17(9-11-19)15-20-12-13-21(26-20)24(31)18-5-2-1-3-6-18/h1-11,14,20-21,24,26,31H,12-13,15-16H2,(H,27,29)/t20-,21+,24+/m0/s1

>  <IUPAC Name>  (1) 
N-[4-[[(2S,5R)-5-[(R)-hydroxy(phenyl)methyl]pyrrolidin-2-yl]methyl]phenyl]-2-(6-oxopyridazin-1-yl)acetamide

$$$$
