
     RDKit          3D

 60 62  0  0  0  0  0  0  0  0999 V2000
   -5.3372   -1.7201    4.1100 C   0  0  0  0  0  0  0  0  0  0  0  0
   -5.1814   -2.3133    2.8186 O   0  0  0  0  0  0  0  0  0  0  0  0
   -4.7470   -1.5181    1.7662 C   0  0  0  0  0  0  0  0  0  0  0  0
   -4.5873   -2.0703    0.5003 C   0  0  0  0  0  0  0  0  0  0  0  0
   -4.1500   -1.2801   -0.5698 C   0  0  0  0  0  0  0  0  0  0  0  0
   -3.8698    0.0682   -0.3794 C   0  0  0  0  0  0  0  0  0  0  0  0
   -4.0349    0.5961    0.8844 C   0  0  0  0  0  0  0  0  0  0  0  0
   -4.4693   -0.1788    1.9582 C   0  0  0  0  0  0  0  0  0  0  0  0
   -3.4024    0.9310   -1.5060 C   0  0  0  0  0  0  0  0  0  0  0  0
   -4.2587    0.6162   -2.6307 N   0  0  0  0  0  0  0  0  0  0  0  0
   -3.9039    1.3356   -3.8208 C   0  0  0  0  0  0  0  0  0  0  0  0
   -5.6292    0.7971   -2.2186 C   0  0  0  0  0  0  0  0  0  0  0  0
   -1.9543    0.6017   -1.7842 C   0  0  0  0  0  0  0  0  0  0  0  0
   -1.1948    0.8691   -0.5876 N   0  0  0  0  0  0  0  0  0  0  0  0
    0.2139    0.6173   -0.6492 C   0  0  0  0  0  0  0  0  0  0  0  0
    0.7980    0.1914   -1.6559 O   0  0  0  0  0  0  0  0  0  0  0  0
    0.9966    0.8924    0.5826 C   0  0  0  0  0  0  0  0  0  0  0  0
    2.4238    0.6074    0.4282 C   0  0  0  0  0  0  0  0  0  0  0  0
    3.1480    1.3010   -0.5306 C   0  0  0  0  0  0  0  0  0  0  0  0
    4.5027    1.0615   -0.7098 C   0  0  0  0  0  0  0  0  0  0  0  0
    5.1785    0.1303    0.0534 C   0  0  0  0  0  0  0  0  0  0  0  0
    4.4538   -0.5548    1.0035 C   0  0  0  0  0  0  0  0  0  0  0  0
    3.1042   -0.3209    1.1869 C   0  0  0  0  0  0  0  0  0  0  0  0
    5.1363   -1.4948    1.7737 C   0  0  0  0  0  0  0  0  0  0  0  0
    6.4946   -1.7035    1.5610 C   0  0  0  0  0  0  0  0  0  0  0  0
    7.1996   -0.9965    0.5943 C   0  0  0  0  0  0  0  0  0  0  0  0
    6.5263   -0.0707   -0.1641 C   0  0  0  0  0  0  0  0  0  0  0  0
    8.5564   -1.2663    0.4462 O   0  0  0  0  0  0  0  0  0  0  0  0
    9.2637   -0.5427   -0.5387 C   0  0  0  0  0  0  0  0  0  0  0  0
    0.7277    2.2979    1.0116 C   0  0  0  0  0  0  0  0  0  0  0  0
   -4.3761   -1.1946    4.3765 H   0  0  0  0  0  0  0  0  0  0  0  0
   -5.6058   -2.4828    4.8541 H   0  0  0  0  0  0  0  0  0  0  0  0
   -6.1165   -0.9368    4.1248 H   0  0  0  0  0  0  0  0  0  0  0  0
   -4.7996   -3.1206    0.3258 H   0  0  0  0  0  0  0  0  0  0  0  0
   -4.0307   -1.7286   -1.5531 H   0  0  0  0  0  0  0  0  0  0  0  0
   -3.8381    1.6347    1.1129 H   0  0  0  0  0  0  0  0  0  0  0  0
   -4.5924    0.2685    2.9564 H   0  0  0  0  0  0  0  0  0  0  0  0
   -3.5341    1.9823   -1.2562 H   0  0  0  0  0  0  0  0  0  0  0  0
   -4.8156    1.3901   -4.4665 H   0  0  0  0  0  0  0  0  0  0  0  0
   -3.1390    0.8181   -4.4345 H   0  0  0  0  0  0  0  0  0  0  0  0
   -3.5309    2.3592   -3.6170 H   0  0  0  0  0  0  0  0  0  0  0  0
   -6.2558    1.0907   -3.1007 H   0  0  0  0  0  0  0  0  0  0  0  0
   -6.0858   -0.1520   -1.8366 H   0  0  0  0  0  0  0  0  0  0  0  0
   -5.7402    1.6117   -1.4576 H   0  0  0  0  0  0  0  0  0  0  0  0
   -1.9007   -0.4466   -2.1093 H   0  0  0  0  0  0  0  0  0  0  0  0
   -1.5899    1.2319   -2.6093 H   0  0  0  0  0  0  0  0  0  0  0  0
   -1.6198    1.2281    0.2947 H   0  0  0  0  0  0  0  0  0  0  0  0
    0.6213    0.2223    1.4054 H   0  0  0  0  0  0  0  0  0  0  0  0
    2.6478    2.0504   -1.1587 H   0  0  0  0  0  0  0  0  0  0  0  0
    5.0246    1.6309   -1.4737 H   0  0  0  0  0  0  0  0  0  0  0  0
    2.5365   -0.8599    1.9334 H   0  0  0  0  0  0  0  0  0  0  0  0
    4.6084   -2.0481    2.5227 H   0  0  0  0  0  0  0  0  0  0  0  0
    7.0335   -2.4325    2.1554 H   0  0  0  0  0  0  0  0  0  0  0  0
    7.0575    0.4888   -0.9206 H   0  0  0  0  0  0  0  0  0  0  0  0
   10.2733   -0.9398   -0.7273 H   0  0  0  0  0  0  0  0  0  0  0  0
    8.7134   -0.5541   -1.4999 H   0  0  0  0  0  0  0  0  0  0  0  0
    9.2706    0.5186   -0.1752 H   0  0  0  0  0  0  0  0  0  0  0  0
    1.4248    2.6805    1.7685 H   0  0  0  0  0  0  0  0  0  0  0  0
    0.6457    2.9586    0.1358 H   0  0  0  0  0  0  0  0  0  0  0  0
   -0.2903    2.2878    1.4962 H   0  0  0  0  0  0  0  0  0  0  0  0
  1  2  1  0
  2  3  1  0
  3  4  2  0
  4  5  1  0
  5  6  2  0
  6  7  1  0
  7  8  2  0
  6  9  1  0
  9 10  1  0
 10 11  1  0
 10 12  1  0
  9 13  1  0
 13 14  1  0
 14 15  1  0
 15 16  2  0
 15 17  1  0
 17 18  1  0
 18 19  2  0
 19 20  1  0
 20 21  2  0
 21 22  1  0
 22 23  2  0
 22 24  1  0
 24 25  2  0
 25 26  1  0
 26 27  2  0
 26 28  1  0
 28 29  1  0
 17 30  1  0
  8  3  1  0
 23 18  1  0
 27 21  1  0
  1 31  1  0
  1 32  1  0
  1 33  1  0
  4 34  1  0
  5 35  1  0
  7 36  1  0
  8 37  1  0
  9 38  1  0
 11 39  1  0
 11 40  1  0
 11 41  1  0
 12 42  1  0
 12 43  1  0
 12 44  1  0
 13 45  1  0
 13 46  1  0
 14 47  1  0
 17 48  1  0
 19 49  1  0
 20 50  1  0
 23 51  1  0
 24 52  1  0
 25 53  1  0
 27 54  1  0
 29 55  1  0
 29 56  1  0
 29 57  1  0
 30 58  1  0
 30 59  1  0
 30 60  1  0
M  END
>  <Ligand ID>  (1) 
LIG0003509

>  <Ligand>  (1) 
MLS001175244

>  <SMILES>  (1) 
COc1ccc(cc1)C(N(C)C)CNC(=O)C(c1ccc2c(c1)ccc(c2)OC)C

>  <CID>  (1) 
16260203.0

>  <ChEMBL ID>  (1) 
nan

>  <InChiKey>  (1) 
XFYTYUXTEZXNGI-UHFFFAOYSA-N

>  <InChi>  (1) 
InChI=1S/C25H30N2O3/c1-17(19-6-7-21-15-23(30-5)13-10-20(21)14-19)25(28)26-16-24(27(2)3)18-8-11-22(29-4)12-9-18/h6-15,17,24H,16H2,1-5H3,(H,26,28)

>  <IUPAC Name>  (1) 
N-[2-(dimethylamino)-2-(4-methoxyphenyl)ethyl]-2-(6-methoxynaphthalen-2-yl)propanamide

$$$$
