
     RDKit          3D

147153  0  0  0  0  0  0  0  0999 V2000
   -7.0554   -2.2900   -3.8558 C   0  0  0  0  0  0  0  0  0  0  0  0
   -5.7975   -2.2609   -3.0214 C   0  0  0  0  0  0  0  0  0  0  0  0
   -5.8402   -3.1358   -1.8128 C   0  0  0  0  0  0  0  0  0  0  0  0
   -6.9353   -2.9090   -0.8341 C   0  0  0  0  0  0  0  0  0  0  0  0
   -7.0127   -1.5538   -0.1871 C   0  0  1  0  0  0  0  0  0  0  0  0
   -5.7580   -1.2987    0.5119 C   0  0  0  0  0  0  0  0  0  0  0  0
   -5.5250   -2.0584    1.5149 O   0  0  0  0  0  0  0  0  0  0  0  0
   -4.7920   -0.3346    0.2200 N   0  0  0  0  0  0  0  0  0  0  0  0
   -3.6118   -0.0974    0.9315 C   0  0  1  0  0  0  0  0  0  0  0  0
   -2.2916   -0.5267    0.5200 C   0  0  0  0  0  0  0  0  0  0  0  0
   -2.0125   -1.9753    0.6102 C   0  0  0  0  0  0  0  0  0  0  0  0
   -2.7581   -2.9214    0.5220 O   0  0  0  0  0  0  0  0  0  0  0  0
   -0.6198   -2.3050    0.8563 N   0  0  0  0  0  0  0  0  0  0  0  0
   -0.0547   -3.6140    1.0092 C   0  0  0  0  0  0  0  0  0  0  0  0
    1.4336   -3.4799    1.3815 C   0  0  0  0  0  0  0  0  0  0  0  0
    2.1008   -4.7659    1.6705 C   0  0  0  0  0  0  0  0  0  0  0  0
    2.4018   -5.7094    0.5864 C   0  0  0  0  0  0  0  0  0  0  0  0
    3.5961   -5.4029   -0.3049 C   0  0  2  0  0  0  0  0  0  0  0  0
    3.5710   -4.1816   -1.0333 N   0  0  0  0  0  0  0  0  0  0  0  0
    4.3779   -3.0060   -0.7543 C   0  0  0  0  0  0  0  0  0  0  0  0
    5.0919   -3.0756    0.2342 O   0  0  0  0  0  0  0  0  0  0  0  0
    4.2155   -1.8713   -1.6802 C   0  0  1  0  0  0  0  0  0  0  0  0
    4.6473   -0.5799   -1.0576 N   0  0  0  0  0  0  0  0  0  0  0  0
    4.0677   -0.0272    0.1256 C   0  0  0  0  0  0  0  0  0  0  0  0
    3.3097   -0.7826    0.7472 O   0  0  0  0  0  0  0  0  0  0  0  0
    4.4003    1.3159    0.4979 C   0  0  1  0  0  0  0  0  0  0  0  0
    3.3758    2.2924    0.7357 N   0  0  0  0  0  0  0  0  0  0  0  0
    1.9962    2.1198    0.8547 C   0  0  0  0  0  0  0  0  0  0  0  0
    1.5687    0.9732    0.8957 O   0  0  0  0  0  0  0  0  0  0  0  0
    1.0147    3.2339    0.9435 C   0  0  2  0  0  0  0  0  0  0  0  0
   -0.3003    2.8420    1.3739 N   0  0  0  0  0  0  0  0  0  0  0  0
   -1.1029    3.6420    2.2456 C   0  0  0  0  0  0  0  0  0  0  0  0
   -0.6081    4.7381    2.5379 O   0  0  0  0  0  0  0  0  0  0  0  0
   -2.4521    3.1767    2.7576 C   0  0  1  0  0  0  0  0  0  0  0  0
   -2.6064    1.8230    2.2697 N   0  0  0  0  0  0  0  0  0  0  0  0
   -3.6178    1.3463    1.4030 C   0  0  0  0  0  0  0  0  0  0  0  0
   -4.4803    2.1603    1.0709 O   0  0  0  0  0  0  0  0  0  0  0  0
   -2.4590    3.1802    4.2769 C   0  0  0  0  0  0  0  0  0  0  0  0
   -2.1856    4.4744    4.8932 C   0  0  0  0  0  0  0  0  0  0  0  0
   -2.9865    5.4932    5.2620 N   0  0  0  0  0  0  0  0  0  0  0  0
   -2.2330    6.4596    5.8233 C   0  0  0  0  0  0  0  0  0  0  0  0
   -0.9674    6.0707    5.8161 N   0  0  0  0  0  0  0  0  0  0  0  0
   -0.8955    4.8597    5.2547 C   0  0  0  0  0  0  0  0  0  0  0  0
    0.8964    3.6520   -0.5429 C   0  0  0  0  0  0  0  0  0  0  0  0
   -0.0870    4.7142   -0.7388 C   0  0  0  0  0  0  0  0  0  0  0  0
    0.1451    6.0575   -0.7413 C   0  0  0  0  0  0  0  0  0  0  0  0
   -0.8988    6.9214   -0.9134 C   0  0  0  0  0  0  0  0  0  0  0  0
   -2.2105    6.5105   -1.0892 C   0  0  0  0  0  0  0  0  0  0  0  0
   -2.4542    5.1526   -1.0896 C   0  0  0  0  0  0  0  0  0  0  0  0
   -1.4210    4.2661   -0.9186 C   0  0  0  0  0  0  0  0  0  0  0  0
   -3.7232    4.6211   -1.2682 C   0  0  0  0  0  0  0  0  0  0  0  0
   -4.7725    5.4961   -1.4513 C   0  0  0  0  0  0  0  0  0  0  0  0
   -4.5490    6.8699   -1.4535 C   0  0  0  0  0  0  0  0  0  0  0  0
   -3.2619    7.3589   -1.2715 C   0  0  0  0  0  0  0  0  0  0  0  0
    4.1660    3.4881    0.9210 C   0  0  0  0  0  0  0  0  0  0  0  0
    5.2950    3.0371    1.8508 C   0  0  2  0  0  0  0  0  0  0  0  0
    5.4144    1.5397    1.5781 C   0  0  0  0  0  0  0  0  0  0  0  0
    4.9937    3.3028    3.2132 N   0  0  0  0  0  0  0  0  0  0  0  0
    5.9292    3.3193    4.1024 C   0  0  0  0  0  0  0  0  0  0  0  0
    5.5230    3.6002    5.4595 N   0  0  0  0  0  0  0  0  0  0  0  0
    7.2921    3.0751    3.8310 N   0  0  0  0  0  0  0  0  0  0  0  0
    5.0356   -2.0005   -2.9226 C   0  0  0  0  0  0  0  0  0  0  0  0
    4.9117   -3.1146   -3.8302 C   0  0  0  0  0  0  0  0  0  0  0  0
    4.2083   -3.1562   -5.0409 C   0  0  0  0  0  0  0  0  0  0  0  0
    4.3758   -4.3915   -5.5929 N   0  0  0  0  0  0  0  0  0  0  0  0
    5.1441   -5.1484   -4.8161 C   0  0  0  0  0  0  0  0  0  0  0  0
    5.4954   -4.3795   -3.7032 C   0  0  0  0  0  0  0  0  0  0  0  0
    6.3089   -4.9264   -2.7116 C   0  0  0  0  0  0  0  0  0  0  0  0
    6.7856   -6.2349   -2.7998 C   0  0  0  0  0  0  0  0  0  0  0  0
    6.4049   -6.9446   -3.9222 C   0  0  0  0  0  0  0  0  0  0  0  0
    5.6066   -6.4471   -4.9208 C   0  0  0  0  0  0  0  0  0  0  0  0
    3.6211   -6.5838   -1.2501 C   0  0  0  0  0  0  0  0  0  0  0  0
    3.4918   -6.4780   -2.4725 O   0  0  0  0  0  0  0  0  0  0  0  0
    3.8052   -7.8901   -0.7076 N   0  0  0  0  0  0  0  0  0  0  0  0
   -7.5109   -0.5722   -1.0991 N   0  0  0  0  0  0  0  0  0  0  0  0
   -8.9152   -0.2257   -0.9583 C   0  0  0  0  0  0  0  0  0  0  0  0
   -9.6368   -0.7608   -0.0722 O   0  0  0  0  0  0  0  0  0  0  0  0
   -9.5695    0.7633   -1.8442 C   0  0  0  0  0  0  0  0  0  0  0  0
   -6.8760   -2.7037   -4.8699 H   0  0  0  0  0  0  0  0  0  0  0  0
   -7.4372   -1.2511   -3.9690 H   0  0  0  0  0  0  0  0  0  0  0  0
   -7.8806   -2.8529   -3.3445 H   0  0  0  0  0  0  0  0  0  0  0  0
   -4.9360   -2.7085   -3.6585 H   0  0  0  0  0  0  0  0  0  0  0  0
   -5.4302   -1.2392   -2.8494 H   0  0  0  0  0  0  0  0  0  0  0  0
   -4.8489   -2.9964   -1.2753 H   0  0  0  0  0  0  0  0  0  0  0  0
   -5.7859   -4.2176   -2.1318 H   0  0  0  0  0  0  0  0  0  0  0  0
   -6.8318   -3.7265   -0.0630 H   0  0  0  0  0  0  0  0  0  0  0  0
   -7.9587   -3.1095   -1.2533 H   0  0  0  0  0  0  0  0  0  0  0  0
   -7.8213   -1.6393    0.6498 H   0  0  0  0  0  0  0  0  0  0  0  0
   -4.9913    0.2777   -0.6327 H   0  0  0  0  0  0  0  0  0  0  0  0
   -3.7852   -0.6568    1.9397 H   0  0  0  0  0  0  0  0  0  0  0  0
   -1.9532   -0.1169   -0.4803 H   0  0  0  0  0  0  0  0  0  0  0  0
   -1.5459   -0.0560    1.2167 H   0  0  0  0  0  0  0  0  0  0  0  0
   -0.0042   -1.4840    0.9239 H   0  0  0  0  0  0  0  0  0  0  0  0
   -0.2045   -4.2699    0.1526 H   0  0  0  0  0  0  0  0  0  0  0  0
   -0.5415   -4.0983    1.8908 H   0  0  0  0  0  0  0  0  0  0  0  0
    1.8816   -2.9902    0.5055 H   0  0  0  0  0  0  0  0  0  0  0  0
    1.5710   -2.8196    2.2688 H   0  0  0  0  0  0  0  0  0  0  0  0
    3.0708   -4.5476    2.2078 H   0  0  0  0  0  0  0  0  0  0  0  0
    1.4687   -5.2580    2.4944 H   0  0  0  0  0  0  0  0  0  0  0  0
    1.5573   -5.8607   -0.1284 H   0  0  0  0  0  0  0  0  0  0  0  0
    2.6145   -6.7067    1.0561 H   0  0  0  0  0  0  0  0  0  0  0  0
    4.5314   -5.4940    0.3268 H   0  0  0  0  0  0  0  0  0  0  0  0
    2.9491   -4.0911   -1.8328 H   0  0  0  0  0  0  0  0  0  0  0  0
    3.1512   -1.7331   -1.9042 H   0  0  0  0  0  0  0  0  0  0  0  0
    5.4092   -0.0274   -1.4846 H   0  0  0  0  0  0  0  0  0  0  0  0
    4.9441    1.8021   -0.4287 H   0  0  0  0  0  0  0  0  0  0  0  0
    1.3727    4.0524    1.5471 H   0  0  0  0  0  0  0  0  0  0  0  0
   -0.7107    1.9819    1.0565 H   0  0  0  0  0  0  0  0  0  0  0  0
   -3.1827    3.9025    2.4025 H   0  0  0  0  0  0  0  0  0  0  0  0
   -1.9148    1.1367    2.5958 H   0  0  0  0  0  0  0  0  0  0  0  0
   -3.4548    2.7444    4.5649 H   0  0  0  0  0  0  0  0  0  0  0  0
   -1.7016    2.4079    4.5762 H   0  0  0  0  0  0  0  0  0  0  0  0
   -4.0391    5.4780    5.1032 H   0  0  0  0  0  0  0  0  0  0  0  0
   -2.6244    7.4105    6.2133 H   0  0  0  0  0  0  0  0  0  0  0  0
    0.0279    4.3230    5.1360 H   0  0  0  0  0  0  0  0  0  0  0  0
    0.6343    2.7419   -1.0989 H   0  0  0  0  0  0  0  0  0  0  0  0
    1.8777    4.0161   -0.9074 H   0  0  0  0  0  0  0  0  0  0  0  0
    1.1566    6.4046   -0.6207 H   0  0  0  0  0  0  0  0  0  0  0  0
   -0.6904    7.9726   -0.9312 H   0  0  0  0  0  0  0  0  0  0  0  0
   -1.6373    3.2015   -0.9226 H   0  0  0  0  0  0  0  0  0  0  0  0
   -3.8942    3.5340   -1.2694 H   0  0  0  0  0  0  0  0  0  0  0  0
   -5.7861    5.1693   -1.5939 H   0  0  0  0  0  0  0  0  0  0  0  0
   -5.3267    7.5993   -1.5832 H   0  0  0  0  0  0  0  0  0  0  0  0
   -3.0614    8.4137   -1.2746 H   0  0  0  0  0  0  0  0  0  0  0  0
    4.5664    3.7392   -0.0879 H   0  0  0  0  0  0  0  0  0  0  0  0
    3.6524    4.3099    1.3966 H   0  0  0  0  0  0  0  0  0  0  0  0
    6.2270    3.5017    1.5255 H   0  0  0  0  0  0  0  0  0  0  0  0
    6.4421    1.2716    1.2372 H   0  0  0  0  0  0  0  0  0  0  0  0
    5.1575    1.0175    2.5251 H   0  0  0  0  0  0  0  0  0  0  0  0
    6.1248    3.3332    6.2818 H   0  0  0  0  0  0  0  0  0  0  0  0
    4.6262    4.0723    5.6732 H   0  0  0  0  0  0  0  0  0  0  0  0
    7.9161    3.7905    3.4442 H   0  0  0  0  0  0  0  0  0  0  0  0
    7.7041    2.1380    4.0245 H   0  0  0  0  0  0  0  0  0  0  0  0
    6.1255   -1.9022   -2.5344 H   0  0  0  0  0  0  0  0  0  0  0  0
    4.9967   -0.9936   -3.5059 H   0  0  0  0  0  0  0  0  0  0  0  0
    3.6199   -2.3690   -5.4924 H   0  0  0  0  0  0  0  0  0  0  0  0
    3.9214   -4.6247   -6.5192 H   0  0  0  0  0  0  0  0  0  0  0  0
    6.6014   -4.3835   -1.8358 H   0  0  0  0  0  0  0  0  0  0  0  0
    7.4112   -6.6401   -2.0293 H   0  0  0  0  0  0  0  0  0  0  0  0
    6.7597   -7.9844   -4.0479 H   0  0  0  0  0  0  0  0  0  0  0  0
    5.3125   -7.0309   -5.8012 H   0  0  0  0  0  0  0  0  0  0  0  0
    3.0536   -8.5753   -0.9197 H   0  0  0  0  0  0  0  0  0  0  0  0
    4.6562   -8.0705   -0.1441 H   0  0  0  0  0  0  0  0  0  0  0  0
   -7.0225   -0.0478   -1.8369 H   0  0  0  0  0  0  0  0  0  0  0  0
  -10.2030    0.1880   -2.5658 H   0  0  0  0  0  0  0  0  0  0  0  0
   -8.8570    1.3439   -2.4460 H   0  0  0  0  0  0  0  0  0  0  0  0
  -10.2024    1.4710   -1.2867 H   0  0  0  0  0  0  0  0  0  0  0  0
  1  2  1  0
  2  3  1  0
  3  4  1  0
  4  5  1  0
  5  6  1  0
  6  7  2  0
  6  8  1  0
  8  9  1  0
  9 10  1  0
 10 11  1  0
 11 12  2  0
 11 13  1  0
 13 14  1  0
 14 15  1  0
 15 16  1  0
 16 17  1  0
 17 18  1  0
 18 19  1  0
 19 20  1  0
 20 21  2  0
 20 22  1  0
 22 23  1  0
 23 24  1  0
 24 25  2  0
 24 26  1  0
 26 27  1  0
 27 28  1  0
 28 29  2  0
 28 30  1  0
 30 31  1  0
 31 32  1  0
 32 33  2  0
 32 34  1  0
 34 35  1  0
 35 36  1  0
 36 37  2  0
 34 38  1  0
 38 39  1  0
 39 40  1  0
 40 41  1  0
 41 42  2  0
 42 43  1  0
 30 44  1  0
 44 45  1  0
 45 46  2  0
 46 47  1  0
 47 48  2  0
 48 49  1  0
 49 50  2  0
 49 51  1  0
 51 52  2  0
 52 53  1  0
 53 54  2  0
 27 55  1  0
 55 56  1  0
 56 57  1  0
 56 58  1  0
 58 59  2  3
 59 60  1  0
 59 61  1  0
 22 62  1  0
 62 63  1  0
 63 64  2  0
 64 65  1  0
 65 66  1  0
 66 67  2  0
 67 68  1  0
 68 69  2  0
 69 70  1  0
 70 71  2  0
 18 72  1  0
 72 73  2  0
 72 74  1  0
  5 75  1  0
 75 76  1  0
 76 77  2  0
 76 78  1  0
 36  9  1  0
 43 39  2  0
 50 45  1  0
 67 63  1  0
 57 26  1  0
 71 66  1  0
 54 48  1  0
  1 79  1  0
  1 80  1  0
  1 81  1  0
  2 82  1  0
  2 83  1  0
  3 84  1  0
  3 85  1  0
  4 86  1  0
  4 87  1  0
  5 88  1  1
  8 89  1  0
  9 90  1  1
 10 91  1  0
 10 92  1  0
 13 93  1  0
 14 94  1  0
 14 95  1  0
 15 96  1  0
 15 97  1  0
 16 98  1  0
 16 99  1  0
 17100  1  0
 17101  1  0
 18102  1  1
 19103  1  0
 22104  1  6
 23105  1  0
 26106  1  6
 30107  1  1
 31108  1  0
 34109  1  6
 35110  1  0
 38111  1  0
 38112  1  0
 40113  1  0
 41114  1  0
 43115  1  0
 44116  1  0
 44117  1  0
 46118  1  0
 47119  1  0
 50120  1  0
 51121  1  0
 52122  1  0
 53123  1  0
 54124  1  0
 55125  1  0
 55126  1  0
 56127  1  6
 57128  1  0
 57129  1  0
 60130  1  0
 60131  1  0
 61132  1  0
 61133  1  0
 62134  1  0
 62135  1  0
 64136  1  0
 65137  1  0
 68138  1  0
 69139  1  0
 70140  1  0
 71141  1  0
 74142  1  0
 74143  1  0
 75144  1  0
 78145  1  0
 78146  1  0
 78147  1  0
M  END
>  <Ligand ID>  (1) 
LIG0001782

>  <Ligand>  (1) 
CHEMBL509582

>  <SMILES>  (1) 
CCCC[C@@H](C(=O)N[C@H]1CC(=O)NCCCC[C@H](NC(=O)[C@@H](NC(=O)[C@H]2N(C(=O)[C@H](NC(=O)[C@@H](NC1=O)Cc1[nH]cnc1)Cc1ccc3c(c1)cccc3)C[C@H](C2)N=C(N)N)Cc1c[nH]c2c1cccc2)C(=O)N)NC(=O)C

>  <CID>  (1) 
44158336.0

>  <ChEMBL ID>  (1) 
nan

>  <InChiKey>  (1) 
AODONYDDQNDROG-QLXMJECZSA-N

>  <InChi>  (1) 
InChI=1S/C54H69N15O9/c1-3-4-14-40(62-30(2)70)48(73)66-43-25-46(71)59-19-10-9-16-39(47(55)72)64-49(74)41(22-34-26-60-38-15-8-7-13-37(34)38)67-52(77)45-24-36(63-54(56)57)28-69(45)53(78)44(21-31-17-18-32-11-5-6-12-33(32)20-31)68-50(75)42(65-51(43)76)23-35-27-58-29-61-35/h5-8,11-13,15,17-18,20,26-27,29,36,39-45,60H,3-4,9-10,14,16,19,21-25,28H2,1-2H3,(H2,55,72)(H,58,61)(H,59,71)(H,62,70)(H,64,74)(H,65,76)(H,66,73)(H,67,77)(H,68,75)(H4,56,57,63)/t36-,39-,40-,41-,42-,43-,44+,45-/m0/s1

>  <IUPAC Name>  (1) 
(3R,6S,9S,17S,20S,23S,25S)-9-[[(2S)-2-acetamidohexanoyl]amino]-25-(diaminomethylideneamino)-6-(1H-imidazol-5-ylmethyl)-20-(1H-indol-3-ylmethyl)-3-(naphthalen-2-ylmethyl)-2,5,8,11,19,22-hexaoxo-1,4,7,12,18,21-hexazabicyclo[21.3.0]hexacosane-17-carboxamide

$$$$
