
     RDKit          3D

 26 26  0  0  0  0  0  0  0  0999 V2000
    3.5455    0.2645   -0.1140 C   0  0  0  0  0  0  0  0  0  0  0  0
    2.0841    0.0301    0.0679 C   0  0  0  0  0  0  0  0  0  0  0  0
    1.4154   -0.7631   -0.7622 C   0  0  0  0  0  0  0  0  0  0  0  0
   -0.0391   -1.0421   -0.6420 C   0  0  0  0  0  0  0  0  0  0  0  0
   -0.6595   -0.3328    0.5383 C   0  0  1  0  0  0  0  0  0  0  0  0
   -0.0024    1.0345    0.6639 C   0  0  0  0  0  0  0  0  0  0  0  0
    1.3960    0.7137    1.2103 C   0  0  0  0  0  0  0  0  0  0  0  0
   -2.1218   -0.2501    0.4531 C   0  0  0  0  0  0  0  0  0  0  0  0
   -2.9255   -0.8275    1.3410 C   0  0  0  0  0  0  0  0  0  0  0  0
   -2.7213    0.5151   -0.6792 C   0  0  0  0  0  0  0  0  0  0  0  0
    4.0884   -0.6238    0.2648 H   0  0  0  0  0  0  0  0  0  0  0  0
    3.8373    1.1963    0.4060 H   0  0  0  0  0  0  0  0  0  0  0  0
    3.7327    0.3812   -1.1964 H   0  0  0  0  0  0  0  0  0  0  0  0
    1.9557   -1.2245   -1.5592 H   0  0  0  0  0  0  0  0  0  0  0  0
   -0.2259   -2.1280   -0.5301 H   0  0  0  0  0  0  0  0  0  0  0  0
   -0.5685   -0.7506   -1.5775 H   0  0  0  0  0  0  0  0  0  0  0  0
   -0.4031   -0.8828    1.4710 H   0  0  0  0  0  0  0  0  0  0  0  0
   -0.5541    1.7357    1.2880 H   0  0  0  0  0  0  0  0  0  0  0  0
    0.1448    1.4529   -0.3677 H   0  0  0  0  0  0  0  0  0  0  0  0
    1.9325    1.5921    1.5586 H   0  0  0  0  0  0  0  0  0  0  0  0
    1.2575   -0.0709    1.9954 H   0  0  0  0  0  0  0  0  0  0  0  0
   -2.5072   -1.3874    2.1700 H   0  0  0  0  0  0  0  0  0  0  0  0
   -3.9924   -0.7545    1.2598 H   0  0  0  0  0  0  0  0  0  0  0  0
   -2.2254    1.4993   -0.8034 H   0  0  0  0  0  0  0  0  0  0  0  0
   -2.6351   -0.0277   -1.6491 H   0  0  0  0  0  0  0  0  0  0  0  0
   -3.8087    0.6505   -0.5084 H   0  0  0  0  0  0  0  0  0  0  0  0
  1  2  1  0
  2  3  2  0
  3  4  1  0
  4  5  1  0
  5  6  1  0
  6  7  1  0
  5  8  1  0
  8  9  2  0
  8 10  1  0
  7  2  1  0
  1 11  1  0
  1 12  1  0
  1 13  1  0
  3 14  1  0
  4 15  1  0
  4 16  1  0
  5 17  1  1
  6 18  1  0
  6 19  1  0
  7 20  1  0
  7 21  1  0
  9 22  1  0
  9 23  1  0
 10 24  1  0
 10 25  1  0
 10 26  1  0
M  END
>  <Ligand ID>  (1) 
LIG0000079

>  <Ligand>  (1) 
Limonene, (+)-

>  <SMILES>  (1) 
CC1=CC[C@@H](CC1)C(=C)C

>  <CID>  (1) 
440917.0

>  <ChEMBL ID>  (1) 
nan

>  <InChiKey>  (1) 
XMGQYMWWDOXHJM-JTQLQIEISA-N

>  <InChi>  (1) 
InChI=1S/C10H16/c1-8(2)10-6-4-9(3)5-7-10/h4,10H,1,5-7H2,2-3H3/t10-/m0/s1

>  <IUPAC Name>  (1) 
(4R)-1-methyl-4-prop-1-en-2-ylcyclohexene

$$$$
