
     RDKit          3D

 50 54  0  0  0  0  0  0  0  0999 V2000
    7.1998   -0.0433    2.6348 C   0  0  0  0  0  0  0  0  0  0  0  0
    5.8076    0.0304    2.2962 O   0  0  0  0  0  0  0  0  0  0  0  0
    5.4715    0.2161    0.9668 C   0  0  0  0  0  0  0  0  0  0  0  0
    6.4878    0.3205    0.0388 C   0  0  0  0  0  0  0  0  0  0  0  0
    6.1209    0.5044   -1.2754 C   0  0  0  0  0  0  0  0  0  0  0  0
    4.7951    0.5848   -1.6776 C   0  0  0  0  0  0  0  0  0  0  0  0
    3.7820    0.4757   -0.7160 C   0  0  0  0  0  0  0  0  0  0  0  0
    4.1453    0.2906    0.6083 C   0  0  0  0  0  0  0  0  0  0  0  0
    2.4952    0.5615   -1.1653 O   0  0  0  0  0  0  0  0  0  0  0  0
    1.3073    0.4849   -0.4398 C   0  0  0  0  0  0  0  0  0  0  0  0
    0.2584   -0.4570   -0.9945 C   0  0  0  0  0  0  0  0  0  0  0  0
   -0.7439    0.4528   -0.5476 N   0  0  0  0  0  0  0  0  0  0  0  0
    0.2693    1.5236   -0.7350 C   0  0  0  0  0  0  0  0  0  0  0  0
   -2.0870    0.5927   -0.1128 C   0  0  0  0  0  0  0  0  0  0  0  0
   -3.0079   -0.4645   -0.0542 C   0  0  0  0  0  0  0  0  0  0  0  0
   -2.3662   -1.6887   -0.5254 C   0  0  0  0  0  0  0  0  0  0  0  0
   -3.2112   -2.8938   -0.7225 C   0  0  0  0  0  0  0  0  0  0  0  0
   -4.5941   -2.6673   -0.9911 N   0  0  0  0  0  0  0  0  0  0  0  0
   -5.2401   -2.5979    0.3286 C   0  0  0  0  0  0  0  0  0  0  0  0
   -5.4842   -1.1413    0.5666 C   0  0  0  0  0  0  0  0  0  0  0  0
   -4.2982   -0.2854    0.3832 C   0  0  0  0  0  0  0  0  0  0  0  0
   -4.6746    0.9740    0.7684 N   0  0  0  0  0  0  0  0  0  0  0  0
   -3.8187    1.9854    0.7195 C   0  0  0  0  0  0  0  0  0  0  0  0
   -2.5585    1.8248    0.2956 N   0  0  0  0  0  0  0  0  0  0  0  0
   -1.9796    3.0024    0.3650 N   0  0  0  0  0  0  0  0  0  0  0  0
   -2.8215    3.9243    0.8203 C   0  0  0  0  0  0  0  0  0  0  0  0
   -4.0172    3.3176    1.0624 C   0  0  0  0  0  0  0  0  0  0  0  0
    7.3198   -0.2681    3.7163 H   0  0  0  0  0  0  0  0  0  0  0  0
    7.7128    0.9205    2.4519 H   0  0  0  0  0  0  0  0  0  0  0  0
    7.6147   -0.8429    1.9889 H   0  0  0  0  0  0  0  0  0  0  0  0
    7.5351    0.2677    0.2787 H   0  0  0  0  0  0  0  0  0  0  0  0
    6.8715    0.5938   -2.0525 H   0  0  0  0  0  0  0  0  0  0  0  0
    4.5584    0.7316   -2.7310 H   0  0  0  0  0  0  0  0  0  0  0  0
    3.3846    0.2063    1.3449 H   0  0  0  0  0  0  0  0  0  0  0  0
    1.4433    0.3397    0.6311 H   0  0  0  0  0  0  0  0  0  0  0  0
    0.3977   -1.4294   -0.5383 H   0  0  0  0  0  0  0  0  0  0  0  0
    0.3153   -0.4322   -2.1132 H   0  0  0  0  0  0  0  0  0  0  0  0
    0.2044    2.3441    0.0020 H   0  0  0  0  0  0  0  0  0  0  0  0
    0.2491    1.9177   -1.7841 H   0  0  0  0  0  0  0  0  0  0  0  0
   -1.7828   -1.4754   -1.4624 H   0  0  0  0  0  0  0  0  0  0  0  0
   -1.6349   -1.9690    0.2844 H   0  0  0  0  0  0  0  0  0  0  0  0
   -2.8118   -3.4403   -1.6310 H   0  0  0  0  0  0  0  0  0  0  0  0
   -3.0675   -3.6505    0.1063 H   0  0  0  0  0  0  0  0  0  0  0  0
   -5.0183   -3.4211   -1.5656 H   0  0  0  0  0  0  0  0  0  0  0  0
   -4.5719   -2.9646    1.1229 H   0  0  0  0  0  0  0  0  0  0  0  0
   -6.1994   -3.1580    0.3192 H   0  0  0  0  0  0  0  0  0  0  0  0
   -5.8776   -1.0356    1.6113 H   0  0  0  0  0  0  0  0  0  0  0  0
   -6.3262   -0.7778   -0.1036 H   0  0  0  0  0  0  0  0  0  0  0  0
   -2.6095    4.9734    0.9766 H   0  0  0  0  0  0  0  0  0  0  0  0
   -4.9435    3.7424    1.4391 H   0  0  0  0  0  0  0  0  0  0  0  0
  1  2  1  0
  2  3  1  0
  3  4  2  0
  4  5  1  0
  5  6  2  0
  6  7  1  0
  7  8  2  0
  7  9  1  0
  9 10  1  0
 10 11  1  0
 11 12  1  0
 12 13  1  0
 12 14  1  0
 14 15  2  0
 15 16  1  0
 16 17  1  0
 17 18  1  0
 18 19  1  0
 19 20  1  0
 20 21  1  0
 21 22  2  0
 22 23  1  0
 23 24  1  0
 24 25  1  0
 25 26  2  0
 26 27  1  0
  8  3  1  0
 13 10  1  0
 24 14  1  0
 21 15  1  0
 27 23  2  0
  1 28  1  0
  1 29  1  0
  1 30  1  0
  4 31  1  0
  5 32  1  0
  6 33  1  0
  8 34  1  0
 10 35  1  0
 11 36  1  0
 11 37  1  0
 13 38  1  0
 13 39  1  0
 16 40  1  0
 16 41  1  0
 17 42  1  0
 17 43  1  0
 18 44  1  0
 19 45  1  0
 19 46  1  0
 20 47  1  0
 20 48  1  0
 26 49  1  0
 27 50  1  0
M  END
>  <Ligand ID>  (1) 
LIG0004853

>  <Ligand>  (1) 
CHEMBL1643853

>  <SMILES>  (1) 
COc1cccc(c1)OC1CN(C1)c1c2CCNCCc2nc2n1ncc2

>  <CID>  (1) 
53317923.0

>  <ChEMBL ID>  (1) 
nan

>  <InChiKey>  (1) 
KAXMPFDXCLPAGI-UHFFFAOYSA-N

>  <InChi>  (1) 
InChI=1S/C20H23N5O2/c1-26-14-3-2-4-15(11-14)27-16-12-24(13-16)20-17-5-8-21-9-6-18(17)23-19-7-10-22-25(19)20/h2-4,7,10-11,16,21H,5-6,8-9,12-13H2,1H3

>  <IUPAC Name>  (1) 
8-[3-(3-methoxyphenoxy)azetidin-1-yl]-2,6,7,12-tetrazatricyclo[7.5.0.03,7]tetradeca-1,3,5,8-tetraene

$$$$
