
     RDKit          3D

 40 43  0  0  0  0  0  0  0  0999 V2000
   -3.9505    1.5573    0.7646 N   0  0  0  0  0  0  0  0  0  0  0  0
   -4.0894    0.7248   -0.3861 C   0  0  0  0  0  0  0  0  0  0  0  0
   -3.3491   -0.5785   -0.1817 C   0  0  0  0  0  0  0  0  0  0  0  0
   -1.9740   -0.2345    0.0316 N   0  0  0  0  0  0  0  0  0  0  0  0
   -1.6749    0.6573    1.1507 C   0  0  0  0  0  0  0  0  0  0  0  0
   -2.9453    1.1954    1.7028 C   0  0  0  0  0  0  0  0  0  0  0  0
   -0.7190    1.7510    0.7219 C   0  0  0  0  0  0  0  0  0  0  0  0
    0.5845    1.1117    0.2836 C   0  0  0  0  0  0  0  0  0  0  0  0
    0.3652   -0.0307   -0.6396 C   0  0  0  0  0  0  0  0  0  0  0  0
   -0.8766   -0.6718   -0.7425 C   0  0  0  0  0  0  0  0  0  0  0  0
   -1.0787   -1.7333   -1.5959 C   0  0  0  0  0  0  0  0  0  0  0  0
   -0.0408   -2.1916   -2.3795 C   0  0  0  0  0  0  0  0  0  0  0  0
    1.1853   -1.5678   -2.2864 C   0  0  0  0  0  0  0  0  0  0  0  0
    1.4022   -0.4872   -1.4215 C   0  0  0  0  0  0  0  0  0  0  0  0
    2.7630    0.0899   -1.4211 C   0  0  0  0  0  0  0  0  0  0  0  0
    3.5867   -0.2808   -0.3027 C   0  0  0  0  0  0  0  0  0  0  0  0
    3.8491    0.2966    0.9285 C   0  0  0  0  0  0  0  0  0  0  0  0
    4.6755   -0.2968    1.7739 C   0  0  0  0  0  0  0  0  0  0  0  0
    5.2594   -1.5070    1.3769 C   0  0  0  0  0  0  0  0  0  0  0  0
    4.5677   -1.8002   -0.3235 S   0  0  0  0  0  0  0  0  0  0  0  0
   -4.8795    1.5152    1.2813 H   0  0  0  0  0  0  0  0  0  0  0  0
   -3.6272    1.2745   -1.2500 H   0  0  0  0  0  0  0  0  0  0  0  0
   -5.1465    0.5547   -0.6754 H   0  0  0  0  0  0  0  0  0  0  0  0
   -3.5780   -1.3333   -0.9136 H   0  0  0  0  0  0  0  0  0  0  0  0
   -3.7131   -0.9948    0.8058 H   0  0  0  0  0  0  0  0  0  0  0  0
   -1.1645    0.0455    1.9197 H   0  0  0  0  0  0  0  0  0  0  0  0
   -3.3551    0.4917    2.4798 H   0  0  0  0  0  0  0  0  0  0  0  0
   -2.6869    2.1202    2.2940 H   0  0  0  0  0  0  0  0  0  0  0  0
   -0.4958    2.3464    1.6318 H   0  0  0  0  0  0  0  0  0  0  0  0
   -1.1501    2.3965   -0.0442 H   0  0  0  0  0  0  0  0  0  0  0  0
    1.2229    1.9004   -0.1367 H   0  0  0  0  0  0  0  0  0  0  0  0
    1.0154    0.6809    1.2354 H   0  0  0  0  0  0  0  0  0  0  0  0
   -2.0245   -2.2436   -1.6906 H   0  0  0  0  0  0  0  0  0  0  0  0
   -0.1868   -3.0274   -3.0561 H   0  0  0  0  0  0  0  0  0  0  0  0
    1.9721   -1.9530   -2.9135 H   0  0  0  0  0  0  0  0  0  0  0  0
    2.7225    1.2202   -1.4556 H   0  0  0  0  0  0  0  0  0  0  0  0
    3.3034   -0.1730   -2.3591 H   0  0  0  0  0  0  0  0  0  0  0  0
    3.3399    1.2651    1.1620 H   0  0  0  0  0  0  0  0  0  0  0  0
    4.9399    0.0947    2.7741 H   0  0  0  0  0  0  0  0  0  0  0  0
    5.9514   -2.1847    1.8570 H   0  0  0  0  0  0  0  0  0  0  0  0
  1  2  1  0
  2  3  1  0
  3  4  1  0
  4  5  1  0
  5  6  1  0
  5  7  1  0
  7  8  1  0
  8  9  1  0
  9 10  2  0
 10 11  1  0
 11 12  2  0
 12 13  1  0
 13 14  2  0
 14 15  1  0
 15 16  1  0
 16 17  2  0
 17 18  1  0
 18 19  2  0
 19 20  1  0
  6  1  1  0
 14  9  1  0
 20 16  1  0
 10  4  1  0
  1 21  1  0
  2 22  1  0
  2 23  1  0
  3 24  1  0
  3 25  1  0
  5 26  1  0
  6 27  1  0
  6 28  1  0
  7 29  1  0
  7 30  1  0
  8 31  1  0
  8 32  1  0
 11 33  1  0
 12 34  1  0
 13 35  1  0
 15 36  1  0
 15 37  1  0
 17 38  1  0
 18 39  1  0
 19 40  1  0
M  END
>  <Ligand ID>  (1) 
LIG0003001

>  <Ligand>  (1) 
CHEMBL3959570

>  <SMILES>  (1) 
N1CCN2C(C1)CCc1c2cccc1Cc1cccs1

>  <CID>  (1) 
134155852.0

>  <ChEMBL ID>  (1) 
nan

>  <InChiKey>  (1) 
NNRMMTGPLBXKIO-UHFFFAOYSA-N

>  <InChi>  (1) 
InChI=1S/C17H20N2S/c1-3-13(11-15-4-2-10-20-15)16-7-6-14-12-18-8-9-19(14)17(16)5-1/h1-5,10,14,18H,6-9,11-12H2

>  <IUPAC Name>  (1) 
7-(thiophen-2-ylmethyl)-2,3,4,4a,5,6-hexahydro-1H-pyrazino[1,2-a]quinoline

$$$$
