
     RDKit          3D

 61 65  0  0  0  0  0  0  0  0999 V2000
    7.2427    0.5664    2.8856 O   0  0  0  0  0  0  0  0  0  0  0  0
    7.6791    1.2365    1.7462 C   0  0  0  0  0  0  0  0  0  0  0  0
    8.5723    2.1246    1.8642 O   0  0  0  0  0  0  0  0  0  0  0  0
    7.0950    0.9097    0.3839 C   0  0  0  0  0  0  0  0  0  0  0  0
    6.1914   -0.0126    0.3928 O   0  0  0  0  0  0  0  0  0  0  0  0
    5.3125   -0.9409    0.4105 C   0  0  0  0  0  0  0  0  0  0  0  0
    5.6224   -2.2332    0.8747 C   0  0  0  0  0  0  0  0  0  0  0  0
    4.7043   -3.2446    0.9055 C   0  0  0  0  0  0  0  0  0  0  0  0
    3.4314   -2.9631    0.4591 C   0  0  0  0  0  0  0  0  0  0  0  0
    3.0506   -1.7266   -0.0092 C   0  0  0  0  0  0  0  0  0  0  0  0
    3.9979   -0.7302   -0.0273 C   0  0  0  0  0  0  0  0  0  0  0  0
    3.6869    0.6287   -0.5113 C   0  0  0  0  0  0  0  0  0  0  0  0
    2.2266    0.8051   -0.8673 C   0  0  0  0  0  0  0  0  0  0  0  0
    1.7580   -0.4404   -1.5361 C   0  0  0  0  0  0  0  0  0  0  0  0
    1.6398   -1.5010   -0.4792 C   0  0  0  0  0  0  0  0  0  0  0  0
    0.5894   -0.2830   -2.4318 C   0  0  0  0  0  0  0  0  0  0  0  0
   -0.6061    0.2095   -1.8300 N   0  0  0  0  0  0  0  0  0  0  0  0
   -0.7998    1.5215   -1.8052 N   0  0  0  0  0  0  0  0  0  0  0  0
   -1.8881    2.1019   -1.2655 C   0  0  0  0  0  0  0  0  0  0  0  0
   -2.8871    1.3395   -0.6939 C   0  0  0  0  0  0  0  0  0  0  0  0
   -2.7111   -0.0410   -0.7053 C   0  0  0  0  0  0  0  0  0  0  0  0
   -1.5656   -0.5544   -1.2790 C   0  0  0  0  0  0  0  0  0  0  0  0
   -1.4245   -1.7948   -1.2801 O   0  0  0  0  0  0  0  0  0  0  0  0
   -3.7487   -0.8679   -0.1085 C   0  0  0  0  0  0  0  0  0  0  0  0
   -3.4729   -1.7012    0.9717 C   0  0  0  0  0  0  0  0  0  0  0  0
   -4.5139   -2.4625    1.4920 C   0  0  0  0  0  0  0  0  0  0  0  0
   -5.7769   -2.3929    0.9543 C   0  0  0  0  0  0  0  0  0  0  0  0
   -6.0442   -1.5633   -0.1185 C   0  0  0  0  0  0  0  0  0  0  0  0
   -5.0127   -0.7946   -0.6510 C   0  0  0  0  0  0  0  0  0  0  0  0
   -4.0807    1.9315   -0.1002 C   0  0  0  0  0  0  0  0  0  0  0  0
   -4.3927    1.8007    1.2198 C   0  0  0  0  0  0  0  0  0  0  0  0
   -5.5413    2.3918    1.7055 C   0  0  0  0  0  0  0  0  0  0  0  0
   -6.4065    3.1196    0.9187 C   0  0  0  0  0  0  0  0  0  0  0  0
   -6.0926    3.2535   -0.4192 C   0  0  0  0  0  0  0  0  0  0  0  0
   -4.9459    2.6622   -0.8987 C   0  0  0  0  0  0  0  0  0  0  0  0
   -4.6824    2.8247   -2.2277 F   0  0  0  0  0  0  0  0  0  0  0  0
    7.9353    0.3196    3.5912 H   0  0  0  0  0  0  0  0  0  0  0  0
    7.9947    0.6823   -0.2825 H   0  0  0  0  0  0  0  0  0  0  0  0
    6.7376    1.9236   -0.0151 H   0  0  0  0  0  0  0  0  0  0  0  0
    6.6307   -2.4271    1.2198 H   0  0  0  0  0  0  0  0  0  0  0  0
    4.9328   -4.2414    1.2603 H   0  0  0  0  0  0  0  0  0  0  0  0
    2.6918   -3.7444    0.4742 H   0  0  0  0  0  0  0  0  0  0  0  0
    4.3417    0.9725   -1.3408 H   0  0  0  0  0  0  0  0  0  0  0  0
    3.9426    1.3161    0.3470 H   0  0  0  0  0  0  0  0  0  0  0  0
    2.0609    1.7092   -1.4784 H   0  0  0  0  0  0  0  0  0  0  0  0
    1.7206    1.0075    0.1161 H   0  0  0  0  0  0  0  0  0  0  0  0
    2.6152   -0.7778   -2.1919 H   0  0  0  0  0  0  0  0  0  0  0  0
    1.0147   -1.1103    0.3497 H   0  0  0  0  0  0  0  0  0  0  0  0
    1.2342   -2.4145   -0.9597 H   0  0  0  0  0  0  0  0  0  0  0  0
    0.3524   -1.3130   -2.8303 H   0  0  0  0  0  0  0  0  0  0  0  0
    0.9224    0.3161   -3.3090 H   0  0  0  0  0  0  0  0  0  0  0  0
   -2.0074    3.1594   -1.2652 H   0  0  0  0  0  0  0  0  0  0  0  0
   -2.4901   -1.7482    1.3815 H   0  0  0  0  0  0  0  0  0  0  0  0
   -4.3053   -3.1148    2.3355 H   0  0  0  0  0  0  0  0  0  0  0  0
   -6.5947   -2.9745    1.3440 H   0  0  0  0  0  0  0  0  0  0  0  0
   -7.0354   -1.4989   -0.5518 H   0  0  0  0  0  0  0  0  0  0  0  0
   -5.2722   -0.1596   -1.4920 H   0  0  0  0  0  0  0  0  0  0  0  0
   -3.7368    1.2367    1.8651 H   0  0  0  0  0  0  0  0  0  0  0  0
   -5.8166    2.3026    2.7627 H   0  0  0  0  0  0  0  0  0  0  0  0
   -7.3010    3.5725    1.3277 H   0  0  0  0  0  0  0  0  0  0  0  0
   -6.7744    3.8271   -1.0405 H   0  0  0  0  0  0  0  0  0  0  0  0
  1  2  1  0
  2  3  2  0
  2  4  1  0
  4  5  1  0
  5  6  1  0
  6  7  2  0
  7  8  1  0
  8  9  2  0
  9 10  1  0
 10 11  2  0
 11 12  1  0
 12 13  1  0
 13 14  1  0
 14 15  1  0
 14 16  1  0
 16 17  1  0
 17 18  1  0
 18 19  2  0
 19 20  1  0
 20 21  2  0
 21 22  1  0
 22 23  2  0
 21 24  1  0
 24 25  2  0
 25 26  1  0
 26 27  2  0
 27 28  1  0
 28 29  2  0
 20 30  1  0
 30 31  2  0
 31 32  1  0
 32 33  2  0
 33 34  1  0
 34 35  2  0
 35 36  1  0
 11  6  1  0
 22 17  1  0
 29 24  1  0
 35 30  1  0
 15 10  1  0
  1 37  1  0
  4 38  1  0
  4 39  1  0
  7 40  1  0
  8 41  1  0
  9 42  1  0
 12 43  1  0
 12 44  1  0
 13 45  1  0
 13 46  1  0
 14 47  1  0
 15 48  1  0
 15 49  1  0
 16 50  1  0
 16 51  1  0
 19 52  1  0
 25 53  1  0
 26 54  1  0
 27 55  1  0
 28 56  1  0
 29 57  1  0
 31 58  1  0
 32 59  1  0
 33 60  1  0
 34 61  1  0
M  END
>  <Ligand ID>  (1) 
LIG0003015

>  <Ligand>  (1) 
CHEMBL3398227

>  <SMILES>  (1) 
OC(=O)COc1cccc2c1CCC(C2)Cn1ncc(c(c1=O)c1ccccc1)c1ccccc1F

>  <CID>  (1) 
118727306.0

>  <ChEMBL ID>  (1) 
nan

>  <InChiKey>  (1) 
INNXTRNVCBZPHW-UHFFFAOYSA-N

>  <InChi>  (1) 
InChI=1S/C29H25FN2O4/c30-25-11-5-4-10-23(25)24-16-31-32(29(35)28(24)20-7-2-1-3-8-20)17-19-13-14-22-21(15-19)9-6-12-26(22)36-18-27(33)34/h1-12,16,19H,13-15,17-18H2,(H,33,34)

>  <IUPAC Name>  (1) 
2-[[6-[[4-(2-fluorophenyl)-6-oxo-5-phenylpyridazin-1-yl]methyl]-5,6,7,8-tetrahydronaphthalen-1-yl]oxy]acetic acid

$$$$
