
     RDKit          3D

 62 66  0  0  0  0  0  0  0  0999 V2000
   -6.1533    1.6684    0.4654 C   0  0  0  0  0  0  0  0  0  0  0  0
   -6.3596    0.3740   -0.2148 C   0  0  0  0  0  0  0  0  0  0  0  0
   -7.3526    0.2080   -1.1806 C   0  0  0  0  0  0  0  0  0  0  0  0
   -7.5543   -0.9965   -1.8209 C   0  0  0  0  0  0  0  0  0  0  0  0
   -6.7348   -2.0486   -1.4750 C   0  0  0  0  0  0  0  0  0  0  0  0
   -5.7502   -1.8949   -0.5215 C   0  0  0  0  0  0  0  0  0  0  0  0
   -5.5393   -0.6753    0.1330 C   0  0  0  0  0  0  0  0  0  0  0  0
   -4.4597   -0.5600    1.1558 C   0  0  0  0  0  0  0  0  0  0  0  0
   -3.3116    0.1346    0.6526 N   0  0  0  0  0  0  0  0  0  0  0  0
   -2.6876   -0.4301   -0.4653 C   0  0  0  0  0  0  0  0  0  0  0  0
   -1.1963   -0.5908   -0.4120 C   0  0  0  0  0  0  0  0  0  0  0  0
   -0.6162    0.7270    0.0497 C   0  0  0  0  0  0  0  0  0  0  0  0
   -1.1106    0.9817    1.4315 C   0  0  0  0  0  0  0  0  0  0  0  0
   -2.6109    0.9562    1.5397 C   0  0  0  0  0  0  0  0  0  0  0  0
    0.7718    0.7158   -0.0822 N   0  0  0  0  0  0  0  0  0  0  0  0
    1.3481    0.5756   -1.3423 C   0  0  0  0  0  0  0  0  0  0  0  0
    2.7323   -0.0796   -1.2568 C   0  0  0  0  0  0  0  0  0  0  0  0
    3.5424    0.9240   -0.4388 C   0  0  0  0  0  0  0  0  0  0  0  0
    2.9872    1.0084    0.9494 C   0  0  0  0  0  0  0  0  0  0  0  0
    1.5686    0.5790    1.0677 C   0  0  0  0  0  0  0  0  0  0  0  0
    4.9524    0.7411   -0.5348 N   0  0  0  0  0  0  0  0  0  0  0  0
    5.8712    1.6012   -1.0669 C   0  0  0  0  0  0  0  0  0  0  0  0
    5.5408    2.7148   -1.5561 O   0  0  0  0  0  0  0  0  0  0  0  0
    7.0937    1.0992   -0.9873 N   0  0  0  0  0  0  0  0  0  0  0  0
    7.0272   -0.1046   -0.4027 C   0  0  0  0  0  0  0  0  0  0  0  0
    5.6969   -0.3178   -0.1260 C   0  0  0  0  0  0  0  0  0  0  0  0
    5.3717   -1.5144    0.4890 C   0  0  0  0  0  0  0  0  0  0  0  0
    6.3760   -2.4307    0.7949 C   0  0  0  0  0  0  0  0  0  0  0  0
    7.6986   -2.1786    0.5005 C   0  0  0  0  0  0  0  0  0  0  0  0
    8.0317   -0.9897   -0.1116 C   0  0  0  0  0  0  0  0  0  0  0  0
   -6.1422    1.5583    1.5755 H   0  0  0  0  0  0  0  0  0  0  0  0
   -5.3019    2.2536    0.0725 H   0  0  0  0  0  0  0  0  0  0  0  0
   -7.0607    2.2966    0.2482 H   0  0  0  0  0  0  0  0  0  0  0  0
   -7.9944    1.0302   -1.4519 H   0  0  0  0  0  0  0  0  0  0  0  0
   -8.3207   -1.1510   -2.5761 H   0  0  0  0  0  0  0  0  0  0  0  0
   -6.8112   -3.0399   -1.9204 H   0  0  0  0  0  0  0  0  0  0  0  0
   -5.1042   -2.7434   -0.2559 H   0  0  0  0  0  0  0  0  0  0  0  0
   -4.2095   -1.5892    1.4805 H   0  0  0  0  0  0  0  0  0  0  0  0
   -4.8368   -0.0367    2.0559 H   0  0  0  0  0  0  0  0  0  0  0  0
   -2.9263    0.1264   -1.3963 H   0  0  0  0  0  0  0  0  0  0  0  0
   -3.1018   -1.4700   -0.6181 H   0  0  0  0  0  0  0  0  0  0  0  0
   -0.8718   -0.8487   -1.4386 H   0  0  0  0  0  0  0  0  0  0  0  0
   -0.8754   -1.4332    0.2318 H   0  0  0  0  0  0  0  0  0  0  0  0
   -1.0318    1.5179   -0.6143 H   0  0  0  0  0  0  0  0  0  0  0  0
   -0.7979    2.0214    1.7244 H   0  0  0  0  0  0  0  0  0  0  0  0
   -0.7009    0.2268    2.1125 H   0  0  0  0  0  0  0  0  0  0  0  0
   -2.8609    0.6678    2.5874 H   0  0  0  0  0  0  0  0  0  0  0  0
   -3.0312    2.0003    1.4475 H   0  0  0  0  0  0  0  0  0  0  0  0
    0.8136    0.0276   -2.1154 H   0  0  0  0  0  0  0  0  0  0  0  0
    1.5391    1.5975   -1.7847 H   0  0  0  0  0  0  0  0  0  0  0  0
    3.1471   -0.1062   -2.2804 H   0  0  0  0  0  0  0  0  0  0  0  0
    2.5934   -1.0415   -0.7702 H   0  0  0  0  0  0  0  0  0  0  0  0
    3.2998    1.9227   -0.9107 H   0  0  0  0  0  0  0  0  0  0  0  0
    3.6554    0.4060    1.6157 H   0  0  0  0  0  0  0  0  0  0  0  0
    3.1251    2.0638    1.3314 H   0  0  0  0  0  0  0  0  0  0  0  0
    1.5482   -0.4886    1.4169 H   0  0  0  0  0  0  0  0  0  0  0  0
    1.1097    1.1641    1.9071 H   0  0  0  0  0  0  0  0  0  0  0  0
    7.9475    1.6021   -1.3401 H   0  0  0  0  0  0  0  0  0  0  0  0
    4.3369   -1.7193    0.7236 H   0  0  0  0  0  0  0  0  0  0  0  0
    6.1354   -3.3793    1.2798 H   0  0  0  0  0  0  0  0  0  0  0  0
    8.5040   -2.8573    0.7190 H   0  0  0  0  0  0  0  0  0  0  0  0
    9.0507   -0.7759   -0.3479 H   0  0  0  0  0  0  0  0  0  0  0  0
  1  2  1  0
  2  3  2  0
  3  4  1  0
  4  5  2  0
  5  6  1  0
  6  7  2  0
  7  8  1  0
  8  9  1  0
  9 10  1  0
 10 11  1  0
 11 12  1  0
 12 13  1  0
 13 14  1  0
 12 15  1  0
 15 16  1  0
 16 17  1  0
 17 18  1  0
 18 19  1  0
 19 20  1  0
 18 21  1  0
 21 22  1  0
 22 23  2  0
 22 24  1  0
 24 25  1  0
 25 26  2  0
 26 27  1  0
 27 28  2  0
 28 29  1  0
 29 30  2  0
  7  2  1  0
 14  9  1  0
 20 15  1  0
 26 21  1  0
 30 25  1  0
  1 31  1  0
  1 32  1  0
  1 33  1  0
  3 34  1  0
  4 35  1  0
  5 36  1  0
  6 37  1  0
  8 38  1  0
  8 39  1  0
 10 40  1  0
 10 41  1  0
 11 42  1  0
 11 43  1  0
 12 44  1  0
 13 45  1  0
 13 46  1  0
 14 47  1  0
 14 48  1  0
 16 49  1  0
 16 50  1  0
 17 51  1  0
 17 52  1  0
 18 53  1  0
 19 54  1  0
 19 55  1  0
 20 56  1  0
 20 57  1  0
 24 58  1  0
 27 59  1  0
 28 60  1  0
 29 61  1  0
 30 62  1  0
M  END
>  <Ligand ID>  (1) 
LIG0000512

>  <Ligand>  (1) 
TBPB

>  <SMILES>  (1) 
Cc1ccccc1CN1CCC(CC1)N1CCC(CC1)n1c(=O)[nH]c2c1cccc2

>  <CID>  (1) 
10092649.0

>  <ChEMBL ID>  (1) 
nan

>  <InChiKey>  (1) 
CWPKTBMRVATCBL-UHFFFAOYSA-N

>  <InChi>  (1) 
InChI=1S/C25H32N4O/c1-19-6-2-3-7-20(19)18-27-14-10-21(11-15-27)28-16-12-22(13-17-28)29-24-9-5-4-8-23(24)26-25(29)30/h2-9,21-22H,10-18H2,1H3,(H,26,30)

>  <IUPAC Name>  (1) 
3-[1-[1-[(2-methylphenyl)methyl]piperidin-4-yl]piperidin-4-yl]-1H-benzimidazol-2-one

$$$$
