
     RDKit          3D

 51 53  0  0  0  0  0  0  0  0999 V2000
    5.2500    1.2564    4.3619 N   0  0  0  0  0  0  0  0  0  0  0  0
    4.9154    1.0025    3.2626 C   0  0  0  0  0  0  0  0  0  0  0  0
    4.5219    0.6887    1.9193 C   0  0  0  0  0  0  0  0  0  0  0  0
    5.4273    0.8117    0.8870 C   0  0  0  0  0  0  0  0  0  0  0  0
    5.0594    0.5134   -0.4061 C   0  0  0  0  0  0  0  0  0  0  0  0
    3.7642    0.0911   -0.6272 C   0  0  0  0  0  0  0  0  0  0  0  0
    2.8272   -0.0461    0.3727 C   0  0  0  0  0  0  0  0  0  0  0  0
    3.2367    0.2634    1.6567 C   0  0  0  0  0  0  0  0  0  0  0  0
    1.4920   -0.4786    0.1512 N   0  0  0  0  0  0  0  0  0  0  0  0
    0.5819   -0.6092    1.3029 C   0  0  0  0  0  0  0  0  0  0  0  0
   -0.6271   -1.4090    0.8958 C   0  0  0  0  0  0  0  0  0  0  0  0
   -1.4061   -0.6654   -0.2040 C   0  0  0  0  0  0  0  0  0  0  0  0
   -0.4642   -0.2583   -1.3222 C   0  0  0  0  0  0  0  0  0  0  0  0
    0.9414   -0.8064   -1.1317 C   0  0  0  0  0  0  0  0  0  0  0  0
   -2.3995   -1.6382   -0.7190 C   0  0  0  0  0  0  0  0  0  0  0  0
   -3.8044   -1.1421   -0.8975 C   0  0  0  0  0  0  0  0  0  0  0  0
   -4.1535   -0.3022    0.3092 C   0  0  0  0  0  0  0  0  0  0  0  0
   -3.3351    0.9560    0.1130 C   0  0  0  0  0  0  0  0  0  0  0  0
   -1.9132    0.5795    0.4363 C   0  0  0  0  0  0  0  0  0  0  0  0
   -5.6220   -0.0670    0.4408 C   0  0  0  0  0  0  0  0  0  0  0  0
   -6.2216    0.6287   -0.7025 C   0  0  0  0  0  0  0  0  0  0  0  0
   -5.6052    1.0122   -1.7245 O   0  0  0  0  0  0  0  0  0  0  0  0
   -7.5941    0.8877   -0.6526 O   0  0  0  0  0  0  0  0  0  0  0  0
    6.1880    0.6590   -1.7746 S   0  0  0  0  0  0  0  0  0  0  0  0
    7.8006    1.2433   -1.2140 C   0  0  0  0  0  0  0  0  0  0  0  0
    8.3516    0.2563   -0.4064 F   0  0  0  0  0  0  0  0  0  0  0  0
    8.6344    1.5619   -2.2623 F   0  0  0  0  0  0  0  0  0  0  0  0
    7.5900    2.3491   -0.4139 F   0  0  0  0  0  0  0  0  0  0  0  0
    6.4082    1.1406    1.1238 H   0  0  0  0  0  0  0  0  0  0  0  0
    3.4984   -0.1375   -1.6441 H   0  0  0  0  0  0  0  0  0  0  0  0
    2.5618    0.1855    2.5204 H   0  0  0  0  0  0  0  0  0  0  0  0
    1.0878   -1.1671    2.0882 H   0  0  0  0  0  0  0  0  0  0  0  0
    0.2813    0.4217    1.5461 H   0  0  0  0  0  0  0  0  0  0  0  0
   -0.3305   -2.4170    0.5915 H   0  0  0  0  0  0  0  0  0  0  0  0
   -1.3155   -1.4423    1.7661 H   0  0  0  0  0  0  0  0  0  0  0  0
   -0.3579    0.8437   -1.3967 H   0  0  0  0  0  0  0  0  0  0  0  0
   -0.8025   -0.6106   -2.3190 H   0  0  0  0  0  0  0  0  0  0  0  0
    1.5267   -0.4138   -1.9613 H   0  0  0  0  0  0  0  0  0  0  0  0
    0.8482   -1.9030   -1.2948 H   0  0  0  0  0  0  0  0  0  0  0  0
   -2.0850   -2.0042   -1.7191 H   0  0  0  0  0  0  0  0  0  0  0  0
   -2.4834   -2.5859   -0.1111 H   0  0  0  0  0  0  0  0  0  0  0  0
   -4.4870   -1.9938   -0.9611 H   0  0  0  0  0  0  0  0  0  0  0  0
   -3.8240   -0.4962   -1.8019 H   0  0  0  0  0  0  0  0  0  0  0  0
   -3.7845   -0.8176    1.2341 H   0  0  0  0  0  0  0  0  0  0  0  0
   -3.6753    1.6952    0.8481 H   0  0  0  0  0  0  0  0  0  0  0  0
   -3.4514    1.3601   -0.9002 H   0  0  0  0  0  0  0  0  0  0  0  0
   -1.3006    1.4636    0.1537 H   0  0  0  0  0  0  0  0  0  0  0  0
   -1.8553    0.5654    1.5506 H   0  0  0  0  0  0  0  0  0  0  0  0
   -5.8554    0.4665    1.3645 H   0  0  0  0  0  0  0  0  0  0  0  0
   -6.0846   -1.0929    0.5177 H   0  0  0  0  0  0  0  0  0  0  0  0
   -7.9553    1.6009   -1.2704 H   0  0  0  0  0  0  0  0  0  0  0  0
  1  2  3  0
  2  3  1  0
  3  4  2  0
  4  5  1  0
  5  6  2  0
  6  7  1  0
  7  8  2  0
  7  9  1  0
  9 10  1  0
 10 11  1  0
 11 12  1  0
 12 13  1  0
 13 14  1  0
 12 15  1  0
 15 16  1  0
 16 17  1  0
 17 18  1  0
 18 19  1  0
 17 20  1  0
 20 21  1  0
 21 22  2  0
 21 23  1  0
  5 24  1  0
 24 25  1  0
 25 26  1  0
 25 27  1  0
 25 28  1  0
  8  3  1  0
 14  9  1  0
 19 12  1  0
  4 29  1  0
  6 30  1  0
  8 31  1  0
 10 32  1  0
 10 33  1  0
 11 34  1  0
 11 35  1  0
 13 36  1  0
 13 37  1  0
 14 38  1  0
 14 39  1  0
 15 40  1  0
 15 41  1  0
 16 42  1  0
 16 43  1  0
 17 44  1  0
 18 45  1  0
 18 46  1  0
 19 47  1  0
 19 48  1  0
 20 49  1  0
 20 50  1  0
 23 51  1  0
M  END
>  <Ligand ID>  (1) 
LIG0002980

>  <Ligand>  (1) 
CHEMBL3953289

>  <SMILES>  (1) 
N#Cc1cc(cc(c1)N1CCC2(CC1)CCC(CC2)CC(=O)O)SC(F)(F)F

>  <CID>  (1) 
73777135.0

>  <ChEMBL ID>  (1) 
nan

>  <InChiKey>  (1) 
DXIACLRPBPXBLP-UHFFFAOYSA-N

>  <InChi>  (1) 
InChI=1S/C20H23F3N2O2S/c21-20(22,23)28-17-10-15(13-24)9-16(12-17)25-7-5-19(6-8-25)3-1-14(2-4-19)11-18(26)27/h9-10,12,14H,1-8,11H2,(H,26,27)

>  <IUPAC Name>  (1) 
2-[3-[3-cyano-5-(trifluoromethylsulfanyl)phenyl]-3-azaspiro[5.5]undecan-9-yl]acetic acid

$$$$
