
     RDKit          3D

 29 28  0  0  0  0  0  0  0  0999 V2000
   -3.4595    0.7460    0.6224 C   0  0  0  0  0  0  0  0  0  0  0  0
   -3.4362   -0.4305   -0.2608 C   0  0  0  0  0  0  0  0  0  0  0  0
   -2.4728   -1.5190   -0.0661 C   0  0  0  0  0  0  0  0  0  0  0  0
   -1.0217   -1.2560   -0.1912 C   0  0  0  0  0  0  0  0  0  0  0  0
   -0.4993   -0.2960    0.8104 C   0  0  0  0  0  0  0  0  0  0  0  0
    0.9986   -0.0811    0.6227 C   0  0  0  0  0  0  0  0  0  0  0  0
    1.4474    1.1205    0.3640 C   0  0  0  0  0  0  0  0  0  0  0  0
    2.8110    1.5535    0.1479 C   0  0  0  0  0  0  0  0  0  0  0  0
    3.9238    0.6085    0.1524 C   0  0  0  0  0  0  0  0  0  0  0  0
    3.8137   -0.3906   -0.9447 C   0  0  0  0  0  0  0  0  0  0  0  0
    4.8052   -0.6969   -1.6195 O   0  0  0  0  0  0  0  0  0  0  0  0
   -4.5440    1.1260    0.7524 H   0  0  0  0  0  0  0  0  0  0  0  0
   -2.9705    1.6430    0.1738 H   0  0  0  0  0  0  0  0  0  0  0  0
   -3.1196    0.6344    1.6465 H   0  0  0  0  0  0  0  0  0  0  0  0
   -3.3739   -0.1052   -1.3412 H   0  0  0  0  0  0  0  0  0  0  0  0
   -4.4891   -0.8826   -0.2125 H   0  0  0  0  0  0  0  0  0  0  0  0
   -2.7927   -2.3520   -0.7847 H   0  0  0  0  0  0  0  0  0  0  0  0
   -2.7076   -2.0311    0.9331 H   0  0  0  0  0  0  0  0  0  0  0  0
   -0.4931   -2.2525   -0.0574 H   0  0  0  0  0  0  0  0  0  0  0  0
   -0.7490   -0.9816   -1.2437 H   0  0  0  0  0  0  0  0  0  0  0  0
   -0.6978   -0.7161    1.8316 H   0  0  0  0  0  0  0  0  0  0  0  0
   -1.0093    0.6636    0.7619 H   0  0  0  0  0  0  0  0  0  0  0  0
    1.6658   -0.8913    0.7149 H   0  0  0  0  0  0  0  0  0  0  0  0
    0.6638    1.9152    0.3014 H   0  0  0  0  0  0  0  0  0  0  0  0
    2.8141    2.0660   -0.8631 H   0  0  0  0  0  0  0  0  0  0  0  0
    2.9974    2.4264    0.8488 H   0  0  0  0  0  0  0  0  0  0  0  0
    4.8630    1.1911   -0.0384 H   0  0  0  0  0  0  0  0  0  0  0  0
    4.1254    0.0904    1.1104 H   0  0  0  0  0  0  0  0  0  0  0  0
    2.9069   -0.9021   -1.2282 H   0  0  0  0  0  0  0  0  0  0  0  0
  1  2  1  0
  2  3  1  0
  3  4  1  0
  4  5  1  0
  5  6  1  0
  6  7  2  0
  7  8  1  0
  8  9  1  0
  9 10  1  0
 10 11  2  0
  1 12  1  0
  1 13  1  0
  1 14  1  0
  2 15  1  0
  2 16  1  0
  3 17  1  0
  3 18  1  0
  4 19  1  0
  4 20  1  0
  5 21  1  0
  5 22  1  0
  6 23  1  0
  7 24  1  0
  8 25  1  0
  8 26  1  0
  9 27  1  0
  9 28  1  0
 10 29  1  0
M  END
>  <Ligand ID>  (1) 
LIG0001046

>  <Ligand>  (1) 
trans-4-Decen-1-al

>  <SMILES>  (1) 
CCCCC/C=C/CCC=O

>  <CID>  (1) 
5702654.0

>  <ChEMBL ID>  (1) 
nan

>  <InChiKey>  (1) 
CWRKZMLUDFBPAO-VOTSOKGWSA-N

>  <InChi>  (1) 
InChI=1S/C10H18O/c1-2-3-4-5-6-7-8-9-10-11/h6-7,10H,2-5,8-9H2,1H3/b7-6+

>  <IUPAC Name>  (1) 
(E)-dec-4-enal

$$$$
