
     RDKit          3D

 43 43  0  0  0  0  0  0  0  0999 V2000
    4.1932   -0.3546   -0.9380 C   0  0  0  0  0  0  0  0  0  0  0  0
    3.2663    0.0793    0.2275 C   0  0  0  0  0  0  0  0  0  0  0  0
    2.5622    1.3226   -0.0514 C   0  0  0  0  0  0  0  0  0  0  0  0
    1.7688    1.8665    1.0597 C   0  0  0  0  0  0  0  0  0  0  0  0
    0.5220    2.2677    1.0693 C   0  0  0  0  0  0  0  0  0  0  0  0
   -0.4412    2.2879   -0.0511 C   0  0  0  0  0  0  0  0  0  0  0  0
   -1.6651    1.4822    0.3962 C   0  0  0  0  0  0  0  0  0  0  0  0
   -2.7313    1.3852   -0.6307 C   0  0  0  0  0  0  0  0  0  0  0  0
   -3.8915    0.5209   -0.3601 C   0  0  0  0  0  0  0  0  0  0  0  0
   -3.8332   -0.9461   -0.4351 C   0  0  0  0  0  0  0  0  0  0  0  0
   -2.7210   -1.6741    0.2422 C   0  0  0  0  0  0  0  0  0  0  0  0
   -1.4877   -1.6604   -0.6261 C   0  0  0  0  0  0  0  0  0  0  0  0
   -0.2532   -1.9044    0.1544 C   0  0  0  0  0  0  0  0  0  0  0  0
   -0.2945   -2.0341    1.4162 O   0  0  0  0  0  0  0  0  0  0  0  0
    0.9567   -1.9805   -0.5502 O   0  0  0  0  0  0  0  0  0  0  0  0
    2.1636   -2.1743    0.1041 C   0  0  0  0  0  0  0  0  0  0  0  0
    2.7061   -1.0512    0.9301 C   0  0  0  0  0  0  0  0  0  0  0  0
    4.7739    0.5567   -1.1873 H   0  0  0  0  0  0  0  0  0  0  0  0
    4.8767   -1.0928   -0.5242 H   0  0  0  0  0  0  0  0  0  0  0  0
    3.6263   -0.6446   -1.8252 H   0  0  0  0  0  0  0  0  0  0  0  0
    4.1548    0.4206    0.9749 H   0  0  0  0  0  0  0  0  0  0  0  0
    1.9059    1.2155   -0.9859 H   0  0  0  0  0  0  0  0  0  0  0  0
    3.2877    2.1199   -0.4196 H   0  0  0  0  0  0  0  0  0  0  0  0
    2.3042    1.9469    2.0229 H   0  0  0  0  0  0  0  0  0  0  0  0
    0.1342    2.6380    2.0278 H   0  0  0  0  0  0  0  0  0  0  0  0
   -0.7524    3.3466   -0.2911 H   0  0  0  0  0  0  0  0  0  0  0  0
   -0.0565    1.8174   -0.9724 H   0  0  0  0  0  0  0  0  0  0  0  0
   -2.0841    2.0709    1.3125 H   0  0  0  0  0  0  0  0  0  0  0  0
   -1.3101    0.5671    0.8037 H   0  0  0  0  0  0  0  0  0  0  0  0
   -2.3535    1.2465   -1.6752 H   0  0  0  0  0  0  0  0  0  0  0  0
   -3.1388    2.4749   -0.7247 H   0  0  0  0  0  0  0  0  0  0  0  0
   -4.3431    0.8071    0.6631 H   0  0  0  0  0  0  0  0  0  0  0  0
   -4.7469    0.8240   -1.0619 H   0  0  0  0  0  0  0  0  0  0  0  0
   -4.8172   -1.4282   -0.1330 H   0  0  0  0  0  0  0  0  0  0  0  0
   -3.7568   -1.2223   -1.5387 H   0  0  0  0  0  0  0  0  0  0  0  0
   -2.5494   -1.2895    1.2417 H   0  0  0  0  0  0  0  0  0  0  0  0
   -3.0268   -2.7610    0.3696 H   0  0  0  0  0  0  0  0  0  0  0  0
   -1.6112   -2.4988   -1.3831 H   0  0  0  0  0  0  0  0  0  0  0  0
   -1.4468   -0.7710   -1.2218 H   0  0  0  0  0  0  0  0  0  0  0  0
    2.9114   -2.5914   -0.6048 H   0  0  0  0  0  0  0  0  0  0  0  0
    2.0068   -3.0269    0.8367 H   0  0  0  0  0  0  0  0  0  0  0  0
    1.8142   -0.6843    1.5375 H   0  0  0  0  0  0  0  0  0  0  0  0
    3.3770   -1.4738    1.7349 H   0  0  0  0  0  0  0  0  0  0  0  0
  1  2  1  0
  2  3  1  0
  3  4  1  0
  4  5  2  0
  5  6  1  0
  6  7  1  0
  7  8  1  0
  8  9  1  0
  9 10  1  0
 10 11  1  0
 11 12  1  0
 12 13  1  0
 13 14  2  0
 13 15  1  0
 15 16  1  0
 16 17  1  0
 17  2  1  0
  1 18  1  0
  1 19  1  0
  1 20  1  0
  2 21  1  0
  3 22  1  0
  3 23  1  0
  4 24  1  0
  5 25  1  0
  6 26  1  0
  6 27  1  0
  7 28  1  0
  7 29  1  0
  8 30  1  0
  8 31  1  0
  9 32  1  0
  9 33  1  0
 10 34  1  0
 10 35  1  0
 11 36  1  0
 11 37  1  0
 12 38  1  0
 12 39  1  0
 16 40  1  0
 16 41  1  0
 17 42  1  0
 17 43  1  0
M  END
>  <Ligand ID>  (1) 
LIG0001033

>  <Ligand>  (1) 
Nirvanolide

>  <SMILES>  (1) 
CC1C/C=C\CCCCCCCC(=O)OCC1

>  <CID>  (1) 
11064468.0

>  <ChEMBL ID>  (1) 
nan

>  <InChiKey>  (1) 
NUSRNVWNTPMBJA-VURMDHGXSA-N

>  <InChi>  (1) 
InChI=1S/C15H26O2/c1-14-10-8-6-4-2-3-5-7-9-11-15(16)17-13-12-14/h6,8,14H,2-5,7,9-13H2,1H3/b8-6-

>  <IUPAC Name>  (1) 
(10Z)-13-methyl-1-oxacyclopentadec-10-en-2-one

$$$$
