
     RDKit          3D

 26 26  0  0  0  0  0  0  0  0999 V2000
    0.5371   -1.7033    0.3477 O   0  0  0  0  0  0  0  0  0  0  0  0
    0.9395   -0.5074    0.3378 C   0  0  0  0  0  0  0  0  0  0  0  0
    2.3911   -0.1882    0.2679 C   0  0  0  0  0  0  0  0  0  0  0  0
    3.2538   -1.4023    0.2144 C   0  0  0  0  0  0  0  0  0  0  0  0
    2.7164    0.7353   -0.8703 C   0  0  0  0  0  0  0  0  0  0  0  0
    0.0669    0.5753    0.3907 O   0  0  0  0  0  0  0  0  0  0  0  0
   -1.3131    0.4336    0.4586 C   0  0  0  0  0  0  0  0  0  0  0  0
   -2.1149    0.3674   -0.6709 C   0  0  0  0  0  0  0  0  0  0  0  0
   -1.5004    0.4486   -2.0190 C   0  0  0  0  0  0  0  0  0  0  0  0
   -3.4080    0.2331   -0.4850 O   0  0  0  0  0  0  0  0  0  0  0  0
   -3.9833    0.1583    0.6880 C   0  0  0  0  0  0  0  0  0  0  0  0
   -3.2136    0.2211    1.8286 C   0  0  0  0  0  0  0  0  0  0  0  0
   -1.8550    0.3608    1.7412 C   0  0  0  0  0  0  0  0  0  0  0  0
   -1.1111    0.4226    2.7554 O   0  0  0  0  0  0  0  0  0  0  0  0
    2.6085    0.3649    1.2070 H   0  0  0  0  0  0  0  0  0  0  0  0
    4.1769   -1.2020    0.7967 H   0  0  0  0  0  0  0  0  0  0  0  0
    3.5660   -1.6720   -0.8228 H   0  0  0  0  0  0  0  0  0  0  0  0
    2.7879   -2.3030    0.6602 H   0  0  0  0  0  0  0  0  0  0  0  0
    2.2563    1.7242   -0.5991 H   0  0  0  0  0  0  0  0  0  0  0  0
    3.7980    0.9075   -0.8658 H   0  0  0  0  0  0  0  0  0  0  0  0
    2.3431    0.3879   -1.8492 H   0  0  0  0  0  0  0  0  0  0  0  0
   -2.2799    0.8918   -2.7036 H   0  0  0  0  0  0  0  0  0  0  0  0
   -0.6422    1.1184   -2.0809 H   0  0  0  0  0  0  0  0  0  0  0  0
   -1.3259   -0.5838   -2.3711 H   0  0  0  0  0  0  0  0  0  0  0  0
   -5.0578    0.0470    0.8136 H   0  0  0  0  0  0  0  0  0  0  0  0
   -3.6362    0.1642    2.8297 H   0  0  0  0  0  0  0  0  0  0  0  0
  1  2  2  0
  2  3  1  0
  3  4  1  0
  3  5  1  0
  2  6  1  0
  6  7  1  0
  7  8  2  0
  8  9  1  0
  8 10  1  0
 10 11  1  0
 11 12  2  0
 12 13  1  0
 13 14  2  0
 13  7  1  0
  3 15  1  0
  4 16  1  0
  4 17  1  0
  4 18  1  0
  5 19  1  0
  5 20  1  0
  5 21  1  0
  9 22  1  0
  9 23  1  0
  9 24  1  0
 11 25  1  0
 12 26  1  0
M  END
>  <Ligand ID>  (1) 
LIG0000417

>  <Ligand>  (1) 
Maltyl isobutyrate

>  <SMILES>  (1) 
O=C(C(C)C)Oc1c(C)occc1=O

>  <CID>  (1) 
3354132.0

>  <ChEMBL ID>  (1) 
nan

>  <InChiKey>  (1) 
VSBHYRPUJHEOBE-UHFFFAOYSA-N

>  <InChi>  (1) 
InChI=1S/C10H12O4/c1-6(2)10(12)14-9-7(3)13-5-4-8(9)11/h4-6H,1-3H3

>  <IUPAC Name>  (1) 
(2-methyl-4-oxopyran-3-yl) 2-methylpropanoate

$$$$
