
     RDKit          3D

 33 35  0  0  0  0  0  0  0  0999 V2000
   -3.6100    2.5412    2.0101 N   0  0  0  0  0  0  0  0  0  0  0  0
   -4.3403    1.4298    1.8106 C   0  0  0  0  0  0  0  0  0  0  0  0
   -3.7414    0.4296    1.0484 C   0  0  0  0  0  0  0  0  0  0  0  0
   -2.4842    0.5395    0.5183 C   0  0  0  0  0  0  0  0  0  0  0  0
   -1.8049    1.6681    0.7496 N   0  0  0  0  0  0  0  0  0  0  0  0
   -2.3652    2.6300    1.4755 C   0  0  0  0  0  0  0  0  0  0  0  0
   -1.8654   -0.5318   -0.2876 C   0  0  0  0  0  0  0  0  0  0  0  0
   -2.5301   -1.7162   -0.5527 C   0  0  0  0  0  0  0  0  0  0  0  0
   -1.9684   -2.7344   -1.3064 C   0  0  0  0  0  0  0  0  0  0  0  0
   -0.7025   -2.5347   -1.7977 C   0  0  0  0  0  0  0  0  0  0  0  0
   -0.0538   -1.3572   -1.5290 C   0  0  0  0  0  0  0  0  0  0  0  0
   -0.5643   -0.3229   -0.7903 C   0  0  0  0  0  0  0  0  0  0  0  0
    0.0157    0.8568   -0.4948 O   0  0  0  0  0  0  0  0  0  0  0  0
    1.2576    1.3541   -0.7979 C   0  0  0  0  0  0  0  0  0  0  0  0
    2.4296    0.7061   -0.1721 C   0  0  0  0  0  0  0  0  0  0  0  0
    3.3414    1.4335    0.4314 N   0  0  0  0  0  0  0  0  0  0  0  0
    4.4084    0.6379    0.9801 C   0  0  0  0  0  0  0  0  0  0  0  0
    4.3031   -0.5995    0.0725 C   0  0  0  0  0  0  0  0  0  0  0  0
    2.8433   -0.6293   -0.0591 N   0  0  0  0  0  0  0  0  0  0  0  0
   -5.3338    1.2985    2.2080 H   0  0  0  0  0  0  0  0  0  0  0  0
   -4.3408   -0.4549    0.8982 H   0  0  0  0  0  0  0  0  0  0  0  0
   -1.7912    3.5410    1.6503 H   0  0  0  0  0  0  0  0  0  0  0  0
   -3.5291   -1.9105   -0.1831 H   0  0  0  0  0  0  0  0  0  0  0  0
   -2.4724   -3.6637   -1.5221 H   0  0  0  0  0  0  0  0  0  0  0  0
   -0.2050   -3.3073   -2.4027 H   0  0  0  0  0  0  0  0  0  0  0  0
    0.9283   -1.2327   -1.9470 H   0  0  0  0  0  0  0  0  0  0  0  0
    1.4439    1.3408   -1.9343 H   0  0  0  0  0  0  0  0  0  0  0  0
    1.2957    2.4705   -0.5966 H   0  0  0  0  0  0  0  0  0  0  0  0
    4.2533    0.3459    2.0332 H   0  0  0  0  0  0  0  0  0  0  0  0
    5.4106    1.1296    0.8344 H   0  0  0  0  0  0  0  0  0  0  0  0
    4.6950   -1.4800    0.6061 H   0  0  0  0  0  0  0  0  0  0  0  0
    4.7859   -0.3994   -0.9017 H   0  0  0  0  0  0  0  0  0  0  0  0
    2.2910   -1.4783   -0.0518 H   0  0  0  0  0  0  0  0  0  0  0  0
  1  2  2  0
  2  3  1  0
  3  4  2  0
  4  5  1  0
  5  6  2  0
  4  7  1  0
  7  8  2  0
  8  9  1  0
  9 10  2  0
 10 11  1  0
 11 12  2  0
 12 13  1  0
 13 14  1  0
 14 15  1  0
 15 16  2  0
 16 17  1  0
 17 18  1  0
 18 19  1  0
  6  1  1  0
 12  7  1  0
 19 15  1  0
  2 20  1  0
  3 21  1  0
  6 22  1  0
  8 23  1  0
  9 24  1  0
 10 25  1  0
 11 26  1  0
 14 27  1  0
 14 28  1  0
 17 29  1  0
 17 30  1  0
 18 31  1  0
 18 32  1  0
 19 33  1  0
M  END
>  <Ligand ID>  (1) 
LIG0003204

>  <Ligand>  (1) 
CHEMBL142310

>  <SMILES>  (1) 
n1ccc(nc1)c1ccccc1OCC1=NCCN1

>  <CID>  (1) 
44362287.0

>  <ChEMBL ID>  (1) 
nan

>  <InChiKey>  (1) 
XETSZHAOODKPNL-UHFFFAOYSA-N

>  <InChi>  (1) 
InChI=1S/C14H14N4O/c1-2-4-13(19-9-14-16-7-8-17-14)11(3-1)12-5-6-15-10-18-12/h1-6,10H,7-9H2,(H,16,17)

>  <IUPAC Name>  (1) 
4-[2-(4,5-dihydro-1H-imidazol-2-ylmethoxy)phenyl]pyrimidine

$$$$
