
     RDKit          3D

 81 85  0  0  0  0  0  0  0  0999 V2000
    5.3397   -1.4482    2.0703 O   0  0  0  0  0  0  0  0  0  0  0  0
    5.8884   -0.9112    0.9005 C   0  0  2  0  0  0  0  0  0  0  0  0
    7.1239   -0.1467    1.1951 C   0  0  0  0  0  0  0  0  0  0  0  0
    7.2777    0.3798    2.4816 C   0  0  0  0  0  0  0  0  0  0  0  0
    8.4174    1.0862    2.7845 C   0  0  0  0  0  0  0  0  0  0  0  0
    9.4345    1.2980    1.8453 C   0  0  0  0  0  0  0  0  0  0  0  0
    9.2807    0.7733    0.5631 C   0  0  0  0  0  0  0  0  0  0  0  0
    8.1294    0.0691    0.2835 C   0  0  0  0  0  0  0  0  0  0  0  0
    8.0009   -0.4407   -0.9961 C   0  0  0  0  0  0  0  0  0  0  0  0
    8.9998   -0.2343   -1.9249 C   0  0  0  0  0  0  0  0  0  0  0  0
   10.1517    0.4865   -1.5986 C   0  0  0  0  0  0  0  0  0  0  0  0
   11.0619    0.6760   -2.4419 O   0  0  0  0  0  0  0  0  0  0  0  0
   10.2619    0.9833   -0.3275 N   0  0  0  0  0  0  0  0  0  0  0  0
   10.5605    2.0195    2.2156 O   0  0  0  0  0  0  0  0  0  0  0  0
    4.8648    0.0383    0.3061 C   0  0  0  0  0  0  0  0  0  0  0  0
    3.6277   -0.6291   -0.0341 N   0  0  0  0  0  0  0  0  0  0  0  0
    3.7960   -1.5353   -1.1532 C   0  0  0  0  0  0  0  0  0  0  0  0
    2.4992   -2.2132   -1.4562 C   0  0  0  0  0  0  0  0  0  0  0  0
    1.3916   -1.2884   -1.8018 C   0  0  0  0  0  0  0  0  0  0  0  0
    1.1136   -0.8639   -3.0808 C   0  0  0  0  0  0  0  0  0  0  0  0
    0.0277    0.0020   -3.2648 C   0  0  0  0  0  0  0  0  0  0  0  0
   -0.7471    0.4234   -2.2043 C   0  0  0  0  0  0  0  0  0  0  0  0
   -0.4615   -0.0054   -0.9249 C   0  0  0  0  0  0  0  0  0  0  0  0
    0.6059   -0.8586   -0.7322 C   0  0  0  0  0  0  0  0  0  0  0  0
   -1.8552    1.3178   -2.3588 N   0  0  0  0  0  0  0  0  0  0  0  0
   -2.9855    1.2867   -1.4964 C   0  0  0  0  0  0  0  0  0  0  0  0
   -3.7658    2.3774   -1.2146 C   0  0  0  0  0  0  0  0  0  0  0  0
   -4.8696    2.2482   -0.3684 C   0  0  0  0  0  0  0  0  0  0  0  0
   -5.2413    1.0745    0.2176 C   0  0  0  0  0  0  0  0  0  0  0  0
   -4.4033   -0.0336   -0.1007 C   0  0  0  0  0  0  0  0  0  0  0  0
   -3.3226    0.0826   -0.9265 C   0  0  0  0  0  0  0  0  0  0  0  0
   -4.6962   -1.3511    0.4708 C   0  0  0  0  0  0  0  0  0  0  0  0
   -5.0250   -1.5307    1.8003 C   0  0  0  0  0  0  0  0  0  0  0  0
   -5.2885   -2.8048    2.2775 C   0  0  0  0  0  0  0  0  0  0  0  0
   -5.2204   -3.9018    1.4125 C   0  0  0  0  0  0  0  0  0  0  0  0
   -4.8893   -3.6849    0.0943 C   0  0  0  0  0  0  0  0  0  0  0  0
   -4.6194   -2.4247   -0.4196 C   0  0  0  0  0  0  0  0  0  0  0  0
   -6.2478    0.8028    1.0375 O   0  0  0  0  0  0  0  0  0  0  0  0
   -7.2910    1.4270    1.6018 C   0  0  0  0  0  0  0  0  0  0  0  0
   -8.3575    1.8479    0.6377 C   0  0  0  0  0  0  0  0  0  0  0  0
   -7.9103    2.7465   -0.3408 N   0  0  0  0  0  0  0  0  0  0  0  0
   -9.5615    2.3623    1.4224 C   0  0  0  0  0  0  0  0  0  0  0  0
   -8.7923    0.5647   -0.0813 C   0  0  0  0  0  0  0  0  0  0  0  0
    6.0797   -1.6887    2.6847 H   0  0  0  0  0  0  0  0  0  0  0  0
    6.1220   -1.7375    0.2059 H   0  0  0  0  0  0  0  0  0  0  0  0
    6.5091    0.2392    3.2443 H   0  0  0  0  0  0  0  0  0  0  0  0
    8.5831    1.5174    3.7788 H   0  0  0  0  0  0  0  0  0  0  0  0
    7.1399   -1.0043   -1.3203 H   0  0  0  0  0  0  0  0  0  0  0  0
    8.8698   -0.6505   -2.9278 H   0  0  0  0  0  0  0  0  0  0  0  0
   11.1230    1.5074   -0.1294 H   0  0  0  0  0  0  0  0  0  0  0  0
   10.9391    2.6858    1.5587 H   0  0  0  0  0  0  0  0  0  0  0  0
    5.3122    0.4350   -0.6169 H   0  0  0  0  0  0  0  0  0  0  0  0
    4.6138    0.8366    1.0285 H   0  0  0  0  0  0  0  0  0  0  0  0
    3.1826   -1.1018    0.7700 H   0  0  0  0  0  0  0  0  0  0  0  0
    4.1379   -1.0222   -2.0621 H   0  0  0  0  0  0  0  0  0  0  0  0
    4.5373   -2.3286   -0.9139 H   0  0  0  0  0  0  0  0  0  0  0  0
    2.6676   -2.9595   -2.2624 H   0  0  0  0  0  0  0  0  0  0  0  0
    2.2399   -2.8381   -0.5572 H   0  0  0  0  0  0  0  0  0  0  0  0
    1.7276   -1.2039   -3.8934 H   0  0  0  0  0  0  0  0  0  0  0  0
   -0.2119    0.3495   -4.2564 H   0  0  0  0  0  0  0  0  0  0  0  0
   -1.0120    0.2866   -0.0451 H   0  0  0  0  0  0  0  0  0  0  0  0
    0.8299   -1.1986    0.2884 H   0  0  0  0  0  0  0  0  0  0  0  0
   -1.7886    2.0087   -3.1534 H   0  0  0  0  0  0  0  0  0  0  0  0
   -3.4969    3.3206   -1.6630 H   0  0  0  0  0  0  0  0  0  0  0  0
   -5.3978    3.1572   -0.1802 H   0  0  0  0  0  0  0  0  0  0  0  0
   -2.7441   -0.8356   -1.1237 H   0  0  0  0  0  0  0  0  0  0  0  0
   -5.0745   -0.6617    2.4654 H   0  0  0  0  0  0  0  0  0  0  0  0
   -5.5494   -2.9808    3.3133 H   0  0  0  0  0  0  0  0  0  0  0  0
   -5.4272   -4.9091    1.7791 H   0  0  0  0  0  0  0  0  0  0  0  0
   -4.8213   -4.5049   -0.6192 H   0  0  0  0  0  0  0  0  0  0  0  0
   -4.3596   -2.2690   -1.4599 H   0  0  0  0  0  0  0  0  0  0  0  0
   -7.0198    2.3732    2.1708 H   0  0  0  0  0  0  0  0  0  0  0  0
   -7.7565    0.8096    2.4398 H   0  0  0  0  0  0  0  0  0  0  0  0
   -8.1609    3.7438   -0.1978 H   0  0  0  0  0  0  0  0  0  0  0  0
   -7.9475    2.4194   -1.3168 H   0  0  0  0  0  0  0  0  0  0  0  0
  -10.3326    2.7294    0.7473 H   0  0  0  0  0  0  0  0  0  0  0  0
   -9.9516    1.4769    1.9621 H   0  0  0  0  0  0  0  0  0  0  0  0
   -9.2609    3.1383    2.1411 H   0  0  0  0  0  0  0  0  0  0  0  0
   -7.8729    0.0368   -0.4285 H   0  0  0  0  0  0  0  0  0  0  0  0
   -9.3501    0.8541   -1.0069 H   0  0  0  0  0  0  0  0  0  0  0  0
   -9.3821   -0.0979    0.5643 H   0  0  0  0  0  0  0  0  0  0  0  0
  1  2  1  0
  2  3  1  0
  3  4  2  0
  4  5  1  0
  5  6  2  0
  6  7  1  0
  7  8  2  0
  8  9  1  0
  9 10  2  0
 10 11  1  0
 11 12  2  0
 11 13  1  0
  6 14  1  0
  2 15  1  0
 15 16  1  0
 16 17  1  0
 17 18  1  0
 18 19  1  0
 19 20  2  0
 20 21  1  0
 21 22  2  0
 22 23  1  0
 23 24  2  0
 22 25  1  0
 25 26  1  0
 26 27  2  0
 27 28  1  0
 28 29  2  0
 29 30  1  0
 30 31  2  0
 30 32  1  0
 32 33  2  0
 33 34  1  0
 34 35  2  0
 35 36  1  0
 36 37  2  0
 29 38  1  0
 38 39  1  0
 39 40  1  0
 40 41  1  0
 40 42  1  0
 40 43  1  0
  8  3  1  0
 24 19  1  0
 31 26  1  0
 37 32  1  0
 13  7  1  0
  1 44  1  0
  2 45  1  6
  4 46  1  0
  5 47  1  0
  9 48  1  0
 10 49  1  0
 13 50  1  0
 14 51  1  0
 15 52  1  0
 15 53  1  0
 16 54  1  0
 17 55  1  0
 17 56  1  0
 18 57  1  0
 18 58  1  0
 20 59  1  0
 21 60  1  0
 23 61  1  0
 24 62  1  0
 25 63  1  0
 27 64  1  0
 28 65  1  0
 31 66  1  0
 33 67  1  0
 34 68  1  0
 35 69  1  0
 36 70  1  0
 37 71  1  0
 39 72  1  0
 39 73  1  0
 41 74  1  0
 41 75  1  0
 42 76  1  0
 42 77  1  0
 42 78  1  0
 43 79  1  0
 43 80  1  0
 43 81  1  0
M  END
>  <Ligand ID>  (1) 
LIG0003405

>  <Ligand>  (1) 
CHEMBL3298987

>  <SMILES>  (1) 
O[C@H](c1ccc(c2c1ccc(=O)[nH]2)O)CNCCc1ccc(cc1)Nc1ccc(c(c1)c1ccccc1)OCC(N)(C)C

>  <CID>  (1) 
90645347.0

>  <ChEMBL ID>  (1) 
nan

>  <InChiKey>  (1) 
HJLOLWXGFOKVSM-HKBQPEDESA-N

>  <InChi>  (1) 
InChI=1S/C35H38N4O4/c1-35(2,36)22-43-32-16-12-26(20-29(32)24-6-4-3-5-7-24)38-25-10-8-23(9-11-25)18-19-37-21-31(41)27-13-15-30(40)34-28(27)14-17-33(42)39-34/h3-17,20,31,37-38,40-41H,18-19,21-22,36H2,1-2H3,(H,39,42)/t31-/m0/s1

>  <IUPAC Name>  (1) 
5-[(1R)-2-[2-[4-[4-(2-amino-2-methylpropoxy)-3-phenylanilino]phenyl]ethylamino]-1-hydroxyethyl]-8-hydroxy-1H-quinolin-2-one

$$$$
