
     RDKit          3D

 57 62  0  0  0  0  0  0  0  0999 V2000
    2.8252    2.6955   -0.7141 C   0  0  0  0  0  0  0  0  0  0  0  0
    2.7898    1.3438   -0.9095 O   0  0  0  0  0  0  0  0  0  0  0  0
    1.6563    0.6851   -0.5094 C   0  0  2  0  0  0  0  0  0  0  0  0
    1.4131    0.8601    0.9616 C   0  0  0  0  0  0  0  0  0  0  0  0
    0.4976   -0.2095    1.5140 C   0  0  0  0  0  0  0  0  0  0  0  0
   -0.2791    0.2063    2.5568 O   0  0  0  0  0  0  0  0  0  0  0  0
   -0.2120   -0.8230    0.3495 C   0  0  2  0  0  0  0  0  0  0  0  0
    0.7979   -1.6949   -0.3361 C   0  0  0  0  0  0  0  0  0  0  0  0
    1.8688   -0.7834   -0.8795 C   0  0  2  0  0  0  0  0  0  0  0  0
    3.2595   -1.2640   -0.7531 C   0  0  1  0  0  0  0  0  0  0  0  0
    4.0633   -0.5004   -1.5987 O   0  0  0  0  0  0  0  0  0  0  0  0
    3.8717   -1.3165    0.5912 C   0  0  0  0  0  0  0  0  0  0  0  0
   -0.6831    0.1782   -0.6557 C   0  0  2  0  0  0  0  0  0  0  0  0
    0.3986    1.0725   -1.2353 C   0  0  1  0  0  0  0  0  0  0  0  0
   -0.0683    2.3869   -1.0478 O   0  0  0  0  0  0  0  0  0  0  0  0
   -1.1189    2.4251   -0.1447 C   0  0  0  0  0  0  0  0  0  0  0  0
   -1.4719    1.1522    0.1275 C   0  0  0  0  0  0  0  0  0  0  0  0
   -2.4366    0.6993    0.9609 C   0  0  0  0  0  0  0  0  0  0  0  0
   -2.6097   -0.7367    1.1700 C   0  0  0  0  0  0  0  0  0  0  0  0
   -1.4603   -1.6073    0.7370 C   0  0  1  0  0  0  0  0  0  0  0  0
   -1.7820   -2.3275   -0.4750 N   0  0  0  0  0  0  0  0  0  0  0  0
   -2.3549   -1.5401   -1.5067 C   0  0  0  0  0  0  0  0  0  0  0  0
   -1.4876   -0.3484   -1.7679 C   0  0  0  0  0  0  0  0  0  0  0  0
   -2.3872   -3.6042   -0.2639 C   0  0  0  0  0  0  0  0  0  0  0  0
   -3.1729    1.6883    1.6267 C   0  0  0  0  0  0  0  0  0  0  0  0
   -2.8693    3.0362    1.3943 C   0  0  0  0  0  0  0  0  0  0  0  0
   -1.8502    3.4169    0.5165 C   0  0  0  0  0  0  0  0  0  0  0  0
   -1.5374    4.7458    0.2771 O   0  0  0  0  0  0  0  0  0  0  0  0
    3.8363    3.0356   -1.0979 H   0  0  0  0  0  0  0  0  0  0  0  0
    2.7579    3.0460    0.3151 H   0  0  0  0  0  0  0  0  0  0  0  0
    2.0678    3.2055   -1.3696 H   0  0  0  0  0  0  0  0  0  0  0  0
    2.3429    0.9579    1.5616 H   0  0  0  0  0  0  0  0  0  0  0  0
    0.8802    1.8280    1.1208 H   0  0  0  0  0  0  0  0  0  0  0  0
    1.1779   -1.0050    1.9418 H   0  0  0  0  0  0  0  0  0  0  0  0
   -0.3404   -0.4615    3.2937 H   0  0  0  0  0  0  0  0  0  0  0  0
    0.2877   -2.3064   -1.1021 H   0  0  0  0  0  0  0  0  0  0  0  0
    1.2413   -2.3960    0.4086 H   0  0  0  0  0  0  0  0  0  0  0  0
    1.6774   -0.7819   -2.0028 H   0  0  0  0  0  0  0  0  0  0  0  0
    3.2766   -2.3018   -1.2005 H   0  0  0  0  0  0  0  0  0  0  0  0
    4.7215    0.0122   -1.0634 H   0  0  0  0  0  0  0  0  0  0  0  0
    4.8375   -1.9012    0.4683 H   0  0  0  0  0  0  0  0  0  0  0  0
    4.2500   -0.2941    0.8746 H   0  0  0  0  0  0  0  0  0  0  0  0
    3.3311   -1.8344    1.3775 H   0  0  0  0  0  0  0  0  0  0  0  0
    0.5372    0.8269   -2.3123 H   0  0  0  0  0  0  0  0  0  0  0  0
   -3.5201   -1.0793    0.6519 H   0  0  0  0  0  0  0  0  0  0  0  0
   -2.8341   -0.8872    2.2623 H   0  0  0  0  0  0  0  0  0  0  0  0
   -1.2745   -2.3516    1.5328 H   0  0  0  0  0  0  0  0  0  0  0  0
   -3.3938   -1.1776   -1.3159 H   0  0  0  0  0  0  0  0  0  0  0  0
   -2.3707   -2.2019   -2.4269 H   0  0  0  0  0  0  0  0  0  0  0  0
   -0.8857   -0.6006   -2.6800 H   0  0  0  0  0  0  0  0  0  0  0  0
   -2.1672    0.4713   -2.1438 H   0  0  0  0  0  0  0  0  0  0  0  0
   -3.4682   -3.6515   -0.4902 H   0  0  0  0  0  0  0  0  0  0  0  0
   -1.8935   -4.3115   -0.9713 H   0  0  0  0  0  0  0  0  0  0  0  0
   -2.1370   -3.9747    0.7514 H   0  0  0  0  0  0  0  0  0  0  0  0
   -3.9575    1.3836    2.3037 H   0  0  0  0  0  0  0  0  0  0  0  0
   -3.4421    3.8139    1.9111 H   0  0  0  0  0  0  0  0  0  0  0  0
   -1.1994    5.1010   -0.5844 H   0  0  0  0  0  0  0  0  0  0  0  0
  1  2  1  0
  3  2  1  6
  3  4  1  0
  4  5  1  0
  5  6  1  0
  7  5  1  1
  7  8  1  0
  8  9  1  0
  9 10  1  0
 10 11  1  0
 10 12  1  0
  7 13  1  0
 13 14  1  0
 14 15  1  0
 15 16  1  0
 16 17  2  0
 17 18  1  0
 18 19  1  0
 19 20  1  0
 20 21  1  0
 21 22  1  0
 22 23  1  0
 21 24  1  0
 18 25  2  0
 25 26  1  0
 26 27  2  0
 27 28  1  0
  9  3  1  0
 13 23  1  6
 14  3  1  0
 27 16  1  0
 20  7  1  0
 17 13  1  0
  1 29  1  0
  1 30  1  0
  1 31  1  0
  4 32  1  0
  4 33  1  0
  5 34  1  0
  6 35  1  0
  8 36  1  0
  8 37  1  0
  9 38  1  6
 10 39  1  6
 11 40  1  0
 12 41  1  0
 12 42  1  0
 12 43  1  0
 14 44  1  6
 19 45  1  0
 19 46  1  0
 20 47  1  1
 22 48  1  0
 22 49  1  0
 23 50  1  0
 23 51  1  0
 24 52  1  0
 24 53  1  0
 24 54  1  0
 25 55  1  0
 26 56  1  0
 28 57  1  0
M  END
>  <Ligand ID>  (1) 
LIG0002133

>  <Ligand>  (1) 
CHEMBL392269

>  <SMILES>  (1) 
CO[C@]12CC(O)[C@]3(C[C@@H]1[C@@H](O)C)[C@@]14[C@H]2Oc2c4c(C[C@H]3N(CC1)C)ccc2O

>  <CID>  (1) 
44433401.0

>  <ChEMBL ID>  (1) 
nan

>  <InChiKey>  (1) 
ILSVNVUECQFENV-AFMBGQDCSA-N

>  <InChi>  (1) 
InChI=1S/C22H29NO5/c1-11(24)13-9-21-15-8-12-4-5-14(25)18-17(12)20(21,6-7-23(15)2)19(28-18)22(13,27-3)10-16(21)26/h4-5,11,13,15-16,19,24-26H,6-10H2,1-3H3/t11-,13+,15+,16?,19+,20-,21+,22+/m0/s1

>  <IUPAC Name>  (1) 
(1R,2S,6R,14R,15R,19R)-19-[(1S)-1-hydroxyethyl]-15-methoxy-5-methyl-13-oxa-5-azahexacyclo[13.2.2.12,8.01,6.02,14.012,20]icosa-8(20),9,11-triene-11,17-diol

$$$$
