
     RDKit          3D

 68 68  0  0  0  0  0  0  0  0999 V2000
    1.4337   -0.5552   -0.5808 O   0  0  0  0  0  0  0  0  0  0  0  0
    0.4939    0.1534    0.1739 C   0  0  0  0  0  0  0  0  0  0  0  0
    0.8497    0.9332    1.1121 O   0  0  0  0  0  0  0  0  0  0  0  0
   -0.9697    0.0162   -0.0995 C   0  0  0  0  0  0  0  0  0  0  0  0
   -1.6025    0.8469    0.8217 F   0  0  0  0  0  0  0  0  0  0  0  0
   -1.3006    0.2678   -1.3913 F   0  0  0  0  0  0  0  0  0  0  0  0
   -1.3021   -1.2832    0.3070 F   0  0  0  0  0  0  0  0  0  0  0  0
    6.8665    1.7051   -0.5391 C   0  0  0  0  0  0  0  0  0  0  0  0
    7.7542    0.6663    0.0059 C   0  0  0  0  0  0  0  0  0  0  0  0
    7.4742    0.0649    1.3122 C   0  0  0  0  0  0  0  0  0  0  0  0
    6.3354   -0.7500    1.6209 C   0  0  0  0  0  0  0  0  0  0  0  0
    4.9528   -0.3241    1.6168 C   0  0  0  0  0  0  0  0  0  0  0  0
    4.2432    0.1272    0.4226 C   0  0  0  0  0  0  0  0  0  0  0  0
    4.2633   -0.8694   -0.7335 C   0  0  0  0  0  0  0  0  0  0  0  0
    3.4887   -0.2558   -1.8703 C   0  0  0  0  0  0  0  0  0  0  0  0
    2.0992    0.0288   -1.5267 C   0  0  0  0  0  0  0  0  0  0  0  0
    1.6270    1.2122   -1.0052 C   0  0  0  0  0  0  0  0  0  0  0  0
    0.2961    1.4099   -0.7005 C   0  0  0  0  0  0  0  0  0  0  0  0
   -0.6347    0.4134   -0.9087 C   0  0  0  0  0  0  0  0  0  0  0  0
   -0.1880   -0.7839   -1.4310 C   0  0  0  0  0  0  0  0  0  0  0  0
    1.1450   -0.9699   -1.7317 C   0  0  0  0  0  0  0  0  0  0  0  0
   -2.0527    0.5750   -0.6023 C   0  0  0  0  0  0  0  0  0  0  0  0
   -2.6569    1.6953   -0.0810 C   0  0  0  0  0  0  0  0  0  0  0  0
   -3.9838    1.4206    0.0473 N   0  0  0  0  0  0  0  0  0  0  0  0
   -4.1994    0.1510   -0.3872 C   0  0  0  0  0  0  0  0  0  0  0  0
   -3.0263   -0.3633   -0.7820 N   0  0  0  0  0  0  0  0  0  0  0  0
   -5.4847   -0.5976   -0.4424 C   0  0  0  0  0  0  0  0  0  0  0  0
   -6.6167    0.2637    0.0738 C   0  0  0  0  0  0  0  0  0  0  0  0
   -7.7834   -0.4915   -0.0723 O   0  0  0  0  0  0  0  0  0  0  0  0
   -9.1517    0.3360    0.4663 P   0  0  0  0  0  0  0  0  0  0  0  0
   -9.1852    1.7372   -0.1167 O   0  0  0  0  0  0  0  0  0  0  0  0
   -9.0364    0.4544    2.1627 O   0  0  0  0  0  0  0  0  0  0  0  0
  -10.5189   -0.5304    0.0315 O   0  0  0  0  0  0  0  0  0  0  0  0
   -5.7592   -0.9015   -1.8357 N   0  0  0  0  0  0  0  0  0  0  0  0
   -5.4038   -1.9011    0.3039 C   0  0  0  0  0  0  0  0  0  0  0  0
    2.3976   -0.3791   -0.3431 H   0  0  0  0  0  0  0  0  0  0  0  0
    6.3575    2.2104    0.2877 H   0  0  0  0  0  0  0  0  0  0  0  0
    7.4745    2.5355   -1.0526 H   0  0  0  0  0  0  0  0  0  0  0  0
    6.1787    1.3573   -1.3305 H   0  0  0  0  0  0  0  0  0  0  0  0
    8.7837    1.1794    0.1223 H   0  0  0  0  0  0  0  0  0  0  0  0
    7.9872   -0.1270   -0.7835 H   0  0  0  0  0  0  0  0  0  0  0  0
    7.5361    0.9296    2.1122 H   0  0  0  0  0  0  0  0  0  0  0  0
    8.4193   -0.5169    1.6729 H   0  0  0  0  0  0  0  0  0  0  0  0
    6.3783   -1.7084    0.9336 H   0  0  0  0  0  0  0  0  0  0  0  0
    6.5473   -1.3112    2.6329 H   0  0  0  0  0  0  0  0  0  0  0  0
    4.2808   -1.1520    2.0885 H   0  0  0  0  0  0  0  0  0  0  0  0
    4.7795    0.5328    2.3945 H   0  0  0  0  0  0  0  0  0  0  0  0
    3.0847    0.1133    0.6852 H   0  0  0  0  0  0  0  0  0  0  0  0
    4.3413    1.1281    0.0434 H   0  0  0  0  0  0  0  0  0  0  0  0
    3.8729   -1.8426   -0.4288 H   0  0  0  0  0  0  0  0  0  0  0  0
    5.3340   -1.0063   -0.9827 H   0  0  0  0  0  0  0  0  0  0  0  0
    3.4911   -0.9913   -2.7235 H   0  0  0  0  0  0  0  0  0  0  0  0
    3.9412    0.6911   -2.2251 H   0  0  0  0  0  0  0  0  0  0  0  0
    2.3121    2.0154   -0.8289 H   0  0  0  0  0  0  0  0  0  0  0  0
   -0.0228    2.3607   -0.2919 H   0  0  0  0  0  0  0  0  0  0  0  0
   -0.8932   -1.5692   -1.6001 H   0  0  0  0  0  0  0  0  0  0  0  0
    1.4207   -1.9407   -2.1402 H   0  0  0  0  0  0  0  0  0  0  0  0
   -2.1952    2.6509    0.1941 H   0  0  0  0  0  0  0  0  0  0  0  0
   -2.8709   -1.3161   -1.1632 H   0  0  0  0  0  0  0  0  0  0  0  0
   -6.4684    0.5431    1.1287 H   0  0  0  0  0  0  0  0  0  0  0  0
   -6.6945    1.1853   -0.5133 H   0  0  0  0  0  0  0  0  0  0  0  0
   -9.6448    1.2041    2.4221 H   0  0  0  0  0  0  0  0  0  0  0  0
  -10.3201   -1.3693   -0.4586 H   0  0  0  0  0  0  0  0  0  0  0  0
   -6.7547   -0.8036   -2.0857 H   0  0  0  0  0  0  0  0  0  0  0  0
   -5.3185   -1.7893   -2.1450 H   0  0  0  0  0  0  0  0  0  0  0  0
   -4.5338   -2.4677   -0.0492 H   0  0  0  0  0  0  0  0  0  0  0  0
   -6.3226   -2.4788    0.0117 H   0  0  0  0  0  0  0  0  0  0  0  0
   -5.3452   -1.7690    1.3975 H   0  0  0  0  0  0  0  0  0  0  0  0
  1  2  1  0
  2  3  2  0
  2  4  1  0
  4  5  1  0
  4  6  1  0
  4  7  1  0
  8  9  1  0
  9 10  1  0
 10 11  1  0
 11 12  1  0
 12 13  1  0
 13 14  1  0
 14 15  1  0
 15 16  1  0
 16 17  2  0
 17 18  1  0
 18 19  2  0
 19 20  1  0
 20 21  2  0
 19 22  1  0
 22 23  2  0
 23 24  1  0
 24 25  2  0
 25 26  1  0
 25 27  1  0
 27 28  1  0
 28 29  1  0
 29 30  1  0
 30 31  2  0
 30 32  1  0
 30 33  1  0
 27 34  1  0
 27 35  1  0
 21 16  1  0
 26 22  1  0
  1 36  1  0
  8 37  1  0
  8 38  1  0
  8 39  1  0
  9 40  1  0
  9 41  1  0
 10 42  1  0
 10 43  1  0
 11 44  1  0
 11 45  1  0
 12 46  1  0
 12 47  1  0
 13 48  1  0
 13 49  1  0
 14 50  1  0
 14 51  1  0
 15 52  1  0
 15 53  1  0
 17 54  1  0
 18 55  1  0
 20 56  1  0
 21 57  1  0
 23 58  1  0
 26 59  1  0
 28 60  1  0
 28 61  1  0
 32 62  1  0
 33 63  1  0
 34 64  1  0
 34 65  1  0
 35 66  1  0
 35 67  1  0
 35 68  1  0
M  END
>  <Ligand ID>  (1) 
LIG0004244

>  <Ligand>  (1) 
CHEMBL188881

>  <SMILES>  (1) 
OC(=O)C(F)(F)F.CCCCCCCCc1ccc(cc1)c1cnc([nH]1)C(COP(=O)(O)O)(N)C

>  <CID>  (1) 
44398093.0

>  <ChEMBL ID>  (1) 
nan

>  <InChiKey>  (1) 
QNQVRZVVXJSKJS-UHFFFAOYSA-N

>  <InChi>  (1) 
InChI=1S/C20H32N3O4P.C2HF3O2/c1-3-4-5-6-7-8-9-16-10-12-17(13-11-16)18-14-22-19(23-18)20(2,21)15-27-28(24,25)26;3-2(4,5)1(6)7/h10-14H,3-9,15,21H2,1-2H3,(H,22,23)(H2,24,25,26);(H,6,7)

>  <IUPAC Name>  (1) 
[2-amino-2-[5-(4-octylphenyl)-1H-imidazol-2-yl]propyl] dihydrogen phosphate;2,2,2-trifluoroacetic acid

$$$$
