
     RDKit          3D

 65 71  0  0  0  0  0  0  0  0999 V2000
    1.6856   -2.4688   -0.7895 C   0  0  0  0  0  0  0  0  0  0  0  0
    1.6954   -1.1239   -0.5299 O   0  0  0  0  0  0  0  0  0  0  0  0
    0.4793   -0.4995   -0.4551 C   0  0  2  0  0  0  0  0  0  0  0  0
   -0.2676   -0.6574   -1.7729 C   0  0  0  0  0  0  0  0  0  0  0  0
   -1.4781    0.2064   -1.8452 C   0  0  0  0  0  0  0  0  0  0  0  0
   -1.6434    0.9107   -0.5260 C   0  0  2  0  0  0  0  0  0  0  0  0
   -0.4864    1.8240   -0.3327 C   0  0  0  0  0  0  0  0  0  0  0  0
    0.7704    0.9788   -0.2072 C   0  0  2  0  0  0  0  0  0  0  0  0
    1.8634    1.4807   -1.1100 C   0  0  0  0  0  0  0  0  0  0  0  0
    3.0269    0.7892   -0.8982 O   0  0  0  0  0  0  0  0  0  0  0  0
    3.5890    0.8811    0.3430 C   0  0  0  0  0  0  0  0  0  0  0  0
    4.8560    0.0624    0.3287 C   0  0  0  0  0  0  0  0  0  0  0  0
    6.0517    0.6333   -0.0415 C   0  0  0  0  0  0  0  0  0  0  0  0
    7.2471   -0.0576   -0.0742 C   0  0  0  0  0  0  0  0  0  0  0  0
    7.2363   -1.3749    0.2800 C   0  0  0  0  0  0  0  0  0  0  0  0
    6.0496   -1.9623    0.6530 C   0  0  0  0  0  0  0  0  0  0  0  0
    4.8627   -1.2693    0.6837 C   0  0  0  0  0  0  0  0  0  0  0  0
   -1.6643   -0.1353    0.5734 C   0  0  2  0  0  0  0  0  0  0  0  0
   -0.4233   -0.9629    0.6516 C   0  0  1  0  0  0  0  0  0  0  0  0
   -0.8570   -2.3263    0.5109 O   0  0  0  0  0  0  0  0  0  0  0  0
   -2.1582   -2.3890    0.0555 C   0  0  0  0  0  0  0  0  0  0  0  0
   -2.6390   -1.1229    0.0737 C   0  0  0  0  0  0  0  0  0  0  0  0
   -3.8761   -0.6833   -0.2945 C   0  0  0  0  0  0  0  0  0  0  0  0
   -4.1597    0.7550   -0.2217 C   0  0  0  0  0  0  0  0  0  0  0  0
   -2.9404    1.6413   -0.4018 C   0  0  1  0  0  0  0  0  0  0  0  0
   -2.7606    2.4866    0.7934 N   0  0  0  0  0  0  0  0  0  0  0  0
   -2.6161    1.7400    1.9982 C   0  0  0  0  0  0  0  0  0  0  0  0
   -2.0844    0.3624    1.9028 C   0  0  0  0  0  0  0  0  0  0  0  0
   -3.8057    3.4528    0.9460 C   0  0  0  0  0  0  0  0  0  0  0  0
   -4.7554   -1.6554   -0.7413 C   0  0  0  0  0  0  0  0  0  0  0  0
   -4.3342   -2.9867   -0.7873 C   0  0  0  0  0  0  0  0  0  0  0  0
   -3.0444   -3.3671   -0.3942 C   0  0  0  0  0  0  0  0  0  0  0  0
   -2.6199   -4.6403   -0.4312 F   0  0  0  0  0  0  0  0  0  0  0  0
    2.7733   -2.7834   -0.8225 H   0  0  0  0  0  0  0  0  0  0  0  0
    1.2596   -3.1088    0.0127 H   0  0  0  0  0  0  0  0  0  0  0  0
    1.2751   -2.6487   -1.7895 H   0  0  0  0  0  0  0  0  0  0  0  0
   -0.5558   -1.7475   -1.8029 H   0  0  0  0  0  0  0  0  0  0  0  0
    0.4379   -0.5456   -2.6266 H   0  0  0  0  0  0  0  0  0  0  0  0
   -1.2473    1.0178   -2.5961 H   0  0  0  0  0  0  0  0  0  0  0  0
   -2.3826   -0.2888   -2.2145 H   0  0  0  0  0  0  0  0  0  0  0  0
   -0.3433    2.5218   -1.1912 H   0  0  0  0  0  0  0  0  0  0  0  0
   -0.6561    2.4286    0.5844 H   0  0  0  0  0  0  0  0  0  0  0  0
    1.1251    1.0655    0.8384 H   0  0  0  0  0  0  0  0  0  0  0  0
    2.0706    2.5384   -0.7617 H   0  0  0  0  0  0  0  0  0  0  0  0
    1.5543    1.4953   -2.1772 H   0  0  0  0  0  0  0  0  0  0  0  0
    3.9304    1.9149    0.6002 H   0  0  0  0  0  0  0  0  0  0  0  0
    2.9944    0.5461    1.1969 H   0  0  0  0  0  0  0  0  0  0  0  0
    6.0304    1.6756   -0.3163 H   0  0  0  0  0  0  0  0  0  0  0  0
    8.1711    0.4099   -0.3673 H   0  0  0  0  0  0  0  0  0  0  0  0
    8.1517   -1.9340    0.2630 H   0  0  0  0  0  0  0  0  0  0  0  0
    6.0859   -3.0044    0.9251 H   0  0  0  0  0  0  0  0  0  0  0  0
    3.9283   -1.7040    0.9715 H   0  0  0  0  0  0  0  0  0  0  0  0
    0.0342   -0.8147    1.6582 H   0  0  0  0  0  0  0  0  0  0  0  0
   -4.9661    1.0060   -0.9522 H   0  0  0  0  0  0  0  0  0  0  0  0
   -4.6102    0.9507    0.7826 H   0  0  0  0  0  0  0  0  0  0  0  0
   -3.1691    2.3390   -1.2301 H   0  0  0  0  0  0  0  0  0  0  0  0
   -3.5573    1.7833    2.6334 H   0  0  0  0  0  0  0  0  0  0  0  0
   -1.8931    2.3428    2.6336 H   0  0  0  0  0  0  0  0  0  0  0  0
   -2.9108   -0.3187    2.2797 H   0  0  0  0  0  0  0  0  0  0  0  0
   -1.2884    0.1981    2.6966 H   0  0  0  0  0  0  0  0  0  0  0  0
   -3.3757    4.4523    1.2357 H   0  0  0  0  0  0  0  0  0  0  0  0
   -4.5387    3.2161    1.7286 H   0  0  0  0  0  0  0  0  0  0  0  0
   -4.3491    3.5807   -0.0116 H   0  0  0  0  0  0  0  0  0  0  0  0
   -5.7454   -1.3475   -1.0414 H   0  0  0  0  0  0  0  0  0  0  0  0
   -5.0324   -3.7588   -1.1414 H   0  0  0  0  0  0  0  0  0  0  0  0
  1  2  1  0
  3  2  1  6
  3  4  1  0
  4  5  1  0
  6  5  1  6
  6  7  1  0
  7  8  1  0
  8  9  1  0
  9 10  1  0
 10 11  1  0
 11 12  1  0
 12 13  2  0
 13 14  1  0
 14 15  2  0
 15 16  1  0
 16 17  2  0
  6 18  1  0
 18 19  1  0
 19 20  1  0
 20 21  1  0
 21 22  2  0
 22 23  1  0
 23 24  1  0
 24 25  1  0
 25 26  1  0
 26 27  1  0
 27 28  1  0
 26 29  1  0
 23 30  2  0
 30 31  1  0
 31 32  2  0
 32 33  1  0
  8  3  1  0
 17 12  1  0
 18 28  1  1
 19  3  1  0
 32 21  1  0
 25  6  1  0
 22 18  1  0
  1 34  1  0
  1 35  1  0
  1 36  1  0
  4 37  1  0
  4 38  1  0
  5 39  1  0
  5 40  1  0
  7 41  1  0
  7 42  1  0
  8 43  1  1
  9 44  1  0
  9 45  1  0
 11 46  1  0
 11 47  1  0
 13 48  1  0
 14 49  1  0
 15 50  1  0
 16 51  1  0
 17 52  1  0
 19 53  1  1
 24 54  1  0
 24 55  1  0
 25 56  1  6
 27 57  1  0
 27 58  1  0
 28 59  1  0
 28 60  1  0
 29 61  1  0
 29 62  1  0
 29 63  1  0
 30 64  1  0
 31 65  1  0
M  END
>  <Ligand ID>  (1) 
LIG0004588

>  <Ligand>  (1) 
SCHEMBL15489699

>  <SMILES>  (1) 
CO[C@]12CC[C@]3(C[C@@H]1COCc1ccccc1)[C@@]14[C@H]2Oc2c4c(C[C@H]3N(CC1)C)ccc2F

>  <CID>  (1) 
89981528.0

>  <ChEMBL ID>  (1) 
nan

>  <InChiKey>  (1) 
LURXKAVKEBVYHH-RHRQCQTHSA-N

>  <InChi>  (1) 
InChI=1S/C28H32FNO3/c1-30-13-12-27-23-19-8-9-21(29)24(23)33-25(27)28(31-2)11-10-26(27,22(30)14-19)15-20(28)17-32-16-18-6-4-3-5-7-18/h3-9,20,22,25H,10-17H2,1-2H3/t20-,22-,25-,26-,27+,28-/m1/s1

>  <IUPAC Name>  (1) 
(1S,2S,6R,14R,15R,16R)-11-fluoro-15-methoxy-5-methyl-16-(phenylmethoxymethyl)-13-oxa-5-azahexacyclo[13.2.2.12,8.01,6.02,14.012,20]icosa-8(20),9,11-triene

$$$$
