
     RDKit          3D

 34 36  0  0  0  0  0  0  0  0999 V2000
    3.4845   -1.7769    0.6724 C   0  0  0  0  0  0  0  0  0  0  0  0
    2.7632   -0.5095    0.5144 C   0  0  0  0  0  0  0  0  0  0  0  0
    3.4478    0.7079    0.4478 C   0  0  0  0  0  0  0  0  0  0  0  0
    4.9293    0.7600    0.5347 C   0  0  0  0  0  0  0  0  0  0  0  0
    2.7290    1.8896    0.2976 C   0  0  0  0  0  0  0  0  0  0  0  0
    1.3869    1.9139    0.2124 N   0  0  0  0  0  0  0  0  0  0  0  0
    0.7054    0.7566    0.2739 C   0  0  0  0  0  0  0  0  0  0  0  0
    1.3870   -0.4318    0.4224 C   0  0  0  0  0  0  0  0  0  0  0  0
    0.6242   -1.5820    0.4783 C   0  0  0  0  0  0  0  0  0  0  0  0
   -0.7550   -1.5264    0.3880 C   0  0  0  0  0  0  0  0  0  0  0  0
   -1.4249   -0.3245    0.2390 C   0  0  0  0  0  0  0  0  0  0  0  0
   -0.6685    0.8394    0.1816 C   0  0  0  0  0  0  0  0  0  0  0  0
   -1.3006    2.0336    0.0356 N   0  0  0  0  0  0  0  0  0  0  0  0
   -2.6348    2.1420   -0.0565 C   0  0  0  0  0  0  0  0  0  0  0  0
   -3.3938    0.9907   -0.0004 C   0  0  0  0  0  0  0  0  0  0  0  0
   -2.7995   -0.2435    0.1468 C   0  0  0  0  0  0  0  0  0  0  0  0
   -3.5895   -1.4878    0.2094 C   0  0  0  0  0  0  0  0  0  0  0  0
   -4.8851    1.0726   -0.0999 C   0  0  0  0  0  0  0  0  0  0  0  0
    3.6949   -1.9910    1.7458 H   0  0  0  0  0  0  0  0  0  0  0  0
    4.5023   -1.6109    0.2095 H   0  0  0  0  0  0  0  0  0  0  0  0
    3.0811   -2.6307    0.1077 H   0  0  0  0  0  0  0  0  0  0  0  0
    5.1762    1.7566    1.0029 H   0  0  0  0  0  0  0  0  0  0  0  0
    5.3261   -0.0364    1.2113 H   0  0  0  0  0  0  0  0  0  0  0  0
    5.3638    0.6699   -0.4836 H   0  0  0  0  0  0  0  0  0  0  0  0
    3.3038    2.8105    0.2506 H   0  0  0  0  0  0  0  0  0  0  0  0
    1.1019   -2.5399    0.5935 H   0  0  0  0  0  0  0  0  0  0  0  0
   -1.3209   -2.4626    0.4369 H   0  0  0  0  0  0  0  0  0  0  0  0
   -3.1276    3.1096   -0.1736 H   0  0  0  0  0  0  0  0  0  0  0  0
   -3.5640   -1.9304    1.2302 H   0  0  0  0  0  0  0  0  0  0  0  0
   -4.6290   -1.3408   -0.1246 H   0  0  0  0  0  0  0  0  0  0  0  0
   -3.1253   -2.2209   -0.4973 H   0  0  0  0  0  0  0  0  0  0  0  0
   -5.3118    0.4215    0.7072 H   0  0  0  0  0  0  0  0  0  0  0  0
   -5.2608    0.6490   -1.0443 H   0  0  0  0  0  0  0  0  0  0  0  0
   -5.2162    2.1230    0.0403 H   0  0  0  0  0  0  0  0  0  0  0  0
  1  2  1  0
  2  3  2  0
  3  4  1  0
  3  5  1  0
  5  6  2  0
  6  7  1  0
  7  8  2  0
  8  9  1  0
  9 10  2  0
 10 11  1  0
 11 12  2  0
 12 13  1  0
 13 14  2  0
 14 15  1  0
 15 16  2  0
 16 17  1  0
 15 18  1  0
  8  2  1  0
 16 11  1  0
 12  7  1  0
  1 19  1  0
  1 20  1  0
  1 21  1  0
  4 22  1  0
  4 23  1  0
  4 24  1  0
  5 25  1  0
  9 26  1  0
 10 27  1  0
 14 28  1  0
 17 29  1  0
 17 30  1  0
 17 31  1  0
 18 32  1  0
 18 33  1  0
 18 34  1  0
M  END
>  <Ligand ID>  (1) 
LIG0003909

>  <Ligand>  (1) 
3,4,7,8-Tetramethyl-1,10-phenanthroline

>  <SMILES>  (1) 
Cc1c(C)cnc2c1ccc1c2ncc(c1C)C

>  <CID>  (1) 
74265.0

>  <ChEMBL ID>  (1) 
nan

>  <InChiKey>  (1) 
NPAXPTHCUCUHPT-UHFFFAOYSA-N

>  <InChi>  (1) 
InChI=1S/C16H16N2/c1-9-7-17-15-13(11(9)3)5-6-14-12(4)10(2)8-18-16(14)15/h5-8H,1-4H3

>  <IUPAC Name>  (1) 
3,4,7,8-tetramethyl-1,10-phenanthroline

$$$$
