
     RDKit          3D

 70 73  0  0  0  0  0  0  0  0999 V2000
   -5.1524   -1.2128   -3.0599 C   0  0  0  0  0  0  0  0  0  0  0  0
   -3.8686   -0.9970   -2.2439 C   0  0  2  0  0  0  0  0  0  0  0  0
   -3.1089   -2.2730   -2.2197 C   0  0  0  0  0  0  0  0  0  0  0  0
   -1.8454   -2.1323   -1.4586 C   0  0  0  0  0  0  0  0  0  0  0  0
   -1.7213   -2.3591   -0.1090 C   0  0  0  0  0  0  0  0  0  0  0  0
   -0.5349   -2.2253    0.5829 C   0  0  0  0  0  0  0  0  0  0  0  0
    0.6029   -1.8429   -0.1023 C   0  0  0  0  0  0  0  0  0  0  0  0
    0.5232   -1.6035   -1.4674 C   0  0  0  0  0  0  0  0  0  0  0  0
   -0.6956   -1.7478   -2.1408 C   0  0  0  0  0  0  0  0  0  0  0  0
    1.8411   -1.7049    0.6506 C   0  0  0  0  0  0  0  0  0  0  0  0
    2.0409   -2.5141    1.7381 C   0  0  0  0  0  0  0  0  0  0  0  0
    3.1950   -2.4229    2.4689 C   0  0  0  0  0  0  0  0  0  0  0  0
    4.1890   -1.5066    2.1220 C   0  0  0  0  0  0  0  0  0  0  0  0
    4.0202   -0.6602    1.0133 C   0  0  0  0  0  0  0  0  0  0  0  0
    2.7984   -0.8051    0.2963 C   0  0  0  0  0  0  0  0  0  0  0  0
    4.8724    0.1854    0.6428 O   0  0  0  0  0  0  0  0  0  0  0  0
    5.7511    1.0554    0.2634 C   0  0  0  0  0  0  0  0  0  0  0  0
    6.4397    0.7412   -1.0872 C   0  0  0  0  0  0  0  0  0  0  0  0
    7.2704    1.9243   -1.4477 C   0  0  0  0  0  0  0  0  0  0  0  0
    6.3271    3.0303   -1.8764 C   0  0  0  0  0  0  0  0  0  0  0  0
    4.9696    2.8785   -1.2253 C   0  0  0  0  0  0  0  0  0  0  0  0
    5.1605    2.4624    0.1944 C   0  0  0  0  0  0  0  0  0  0  0  0
    5.3650   -1.4928    2.9550 C   0  0  0  0  0  0  0  0  0  0  0  0
    5.4694   -2.2849    3.9619 O   0  0  0  0  0  0  0  0  0  0  0  0
    6.4633   -0.6652    2.7746 O   0  0  0  0  0  0  0  0  0  0  0  0
   -4.1742   -0.4155   -0.9669 N   0  0  0  0  0  0  0  0  0  0  0  0
   -5.1321   -1.1395   -0.1884 C   0  0  0  0  0  0  0  0  0  0  0  0
   -5.3229   -0.4046    1.1308 C   0  0  1  0  0  0  0  0  0  0  0  0
   -5.7012    1.0176    0.9521 C   0  0  0  0  0  0  0  0  0  0  0  0
   -4.7717    2.0299    1.1032 C   0  0  0  0  0  0  0  0  0  0  0  0
   -5.1898    3.3387    0.9237 C   0  0  0  0  0  0  0  0  0  0  0  0
   -6.5039    3.6431    0.6000 C   0  0  0  0  0  0  0  0  0  0  0  0
   -7.3942    2.6175    0.4587 C   0  0  0  0  0  0  0  0  0  0  0  0
   -7.0168    1.2915    0.6301 C   0  0  0  0  0  0  0  0  0  0  0  0
   -6.2547   -1.0853    1.9201 O   0  0  0  0  0  0  0  0  0  0  0  0
   -4.8136   -1.4425   -4.0984 H   0  0  0  0  0  0  0  0  0  0  0  0
   -5.6988   -0.2570   -3.0753 H   0  0  0  0  0  0  0  0  0  0  0  0
   -5.6921   -2.0658   -2.6330 H   0  0  0  0  0  0  0  0  0  0  0  0
   -3.3166   -0.2258   -2.8202 H   0  0  0  0  0  0  0  0  0  0  0  0
   -2.8458   -2.6181   -3.2519 H   0  0  0  0  0  0  0  0  0  0  0  0
   -3.6720   -3.1264   -1.7900 H   0  0  0  0  0  0  0  0  0  0  0  0
   -2.5804   -2.6635    0.4682 H   0  0  0  0  0  0  0  0  0  0  0  0
   -0.5249   -2.4268    1.6655 H   0  0  0  0  0  0  0  0  0  0  0  0
    1.4200   -1.3051   -1.9963 H   0  0  0  0  0  0  0  0  0  0  0  0
   -0.7603   -1.5583   -3.2167 H   0  0  0  0  0  0  0  0  0  0  0  0
    1.3051   -3.2271    2.0325 H   0  0  0  0  0  0  0  0  0  0  0  0
    3.3172   -3.0801    3.3241 H   0  0  0  0  0  0  0  0  0  0  0  0
    2.6267   -0.1752   -0.5618 H   0  0  0  0  0  0  0  0  0  0  0  0
    6.6713    1.2126    0.9398 H   0  0  0  0  0  0  0  0  0  0  0  0
    7.0404   -0.1855   -0.9648 H   0  0  0  0  0  0  0  0  0  0  0  0
    5.6380    0.6058   -1.8144 H   0  0  0  0  0  0  0  0  0  0  0  0
    7.8442    2.2155   -0.5428 H   0  0  0  0  0  0  0  0  0  0  0  0
    7.9001    1.6699   -2.3018 H   0  0  0  0  0  0  0  0  0  0  0  0
    6.1901    2.9826   -2.9615 H   0  0  0  0  0  0  0  0  0  0  0  0
    6.7294    4.0142   -1.5670 H   0  0  0  0  0  0  0  0  0  0  0  0
    4.3249    2.1391   -1.7346 H   0  0  0  0  0  0  0  0  0  0  0  0
    4.4449    3.8759   -1.2197 H   0  0  0  0  0  0  0  0  0  0  0  0
    5.7042    3.1945    0.8051 H   0  0  0  0  0  0  0  0  0  0  0  0
    4.1429    2.3943    0.6504 H   0  0  0  0  0  0  0  0  0  0  0  0
    7.3835   -0.9255    3.0695 H   0  0  0  0  0  0  0  0  0  0  0  0
   -3.3387   -0.2508   -0.3996 H   0  0  0  0  0  0  0  0  0  0  0  0
   -4.8468   -2.1738    0.0818 H   0  0  0  0  0  0  0  0  0  0  0  0
   -6.1455   -1.1561   -0.6511 H   0  0  0  0  0  0  0  0  0  0  0  0
   -4.3567   -0.4354    1.6664 H   0  0  0  0  0  0  0  0  0  0  0  0
   -3.7529    1.7759    1.3563 H   0  0  0  0  0  0  0  0  0  0  0  0
   -4.4966    4.1568    1.0321 H   0  0  0  0  0  0  0  0  0  0  0  0
   -6.8374    4.6826    0.4570 H   0  0  0  0  0  0  0  0  0  0  0  0
   -8.4142    2.8421    0.2091 H   0  0  0  0  0  0  0  0  0  0  0  0
   -7.7165    0.5018    0.5172 H   0  0  0  0  0  0  0  0  0  0  0  0
   -5.7839   -1.6852    2.5610 H   0  0  0  0  0  0  0  0  0  0  0  0
  1  2  1  0
  2  3  1  0
  3  4  1  0
  4  5  2  0
  5  6  1  0
  6  7  2  0
  7  8  1  0
  8  9  2  0
  7 10  1  0
 10 11  2  0
 11 12  1  0
 12 13  2  0
 13 14  1  0
 14 15  2  0
 14 16  1  0
 16 17  1  0
 17 18  1  0
 18 19  1  0
 19 20  1  0
 20 21  1  0
 21 22  1  0
 13 23  1  0
 23 24  2  0
 23 25  1  0
  2 26  1  0
 26 27  1  0
 27 28  1  0
 28 29  1  0
 29 30  2  0
 30 31  1  0
 31 32  2  0
 32 33  1  0
 33 34  2  0
 28 35  1  0
  9  4  1  0
 15 10  1  0
 22 17  1  0
 34 29  1  0
  1 36  1  0
  1 37  1  0
  1 38  1  0
  2 39  1  6
  3 40  1  0
  3 41  1  0
  5 42  1  0
  6 43  1  0
  8 44  1  0
  9 45  1  0
 11 46  1  0
 12 47  1  0
 15 48  1  0
 17 49  1  0
 18 50  1  0
 18 51  1  0
 19 52  1  0
 19 53  1  0
 20 54  1  0
 20 55  1  0
 21 56  1  0
 21 57  1  0
 22 58  1  0
 22 59  1  0
 25 60  1  0
 26 61  1  0
 27 62  1  0
 27 63  1  0
 28 64  1  1
 30 65  1  0
 31 66  1  0
 32 67  1  0
 33 68  1  0
 34 69  1  0
 35 70  1  0
M  END
>  <Ligand ID>  (1) 
LIG0005454

>  <Ligand>  (1) 
CHEMBL509156

>  <SMILES>  (1) 
C[C@H](Cc1ccc(cc1)c1ccc(c(c1)OC1CCCCC1)C(=O)O)NC[C@@H](c1ccccc1)O

>  <CID>  (1) 
24894202.0

>  <ChEMBL ID>  (1) 
nan

>  <InChiKey>  (1) 
BTGYMCRAGAZJTI-PIKZIKFNSA-N

>  <InChi>  (1) 
InChI=1S/C30H35NO4/c1-21(31-20-28(32)24-8-4-2-5-9-24)18-22-12-14-23(15-13-22)25-16-17-27(30(33)34)29(19-25)35-26-10-6-3-7-11-26/h2,4-5,8-9,12-17,19,21,26,28,31-32H,3,6-7,10-11,18,20H2,1H3,(H,33,34)/t21-,28+/m1/s1

>  <IUPAC Name>  (1) 
2-cyclohexyloxy-4-[4-[(2R)-2-[[(2R)-2-hydroxy-2-phenylethyl]amino]propyl]phenyl]benzoic acid

$$$$
