
     RDKit          3D

 65 67  0  0  0  0  0  0  0  0999 V2000
   -3.6203    3.0851    0.3248 C   0  0  0  0  0  0  0  0  0  0  0  0
   -3.7849    1.6001    0.5448 C   0  0  2  0  0  0  0  0  0  0  0  0
   -2.4386    0.8897    0.5124 C   0  0  0  0  0  0  0  0  0  0  0  0
   -1.7729    1.0741   -0.7547 N   0  0  0  0  0  0  0  0  0  0  0  0
   -0.5137    0.4971   -1.0760 C   0  0  0  0  0  0  0  0  0  0  0  0
    0.1771   -0.3016   -0.1887 C   0  0  0  0  0  0  0  0  0  0  0  0
    1.4145   -0.8576   -0.5366 C   0  0  0  0  0  0  0  0  0  0  0  0
    1.9746   -0.6221   -1.7729 C   0  0  0  0  0  0  0  0  0  0  0  0
    1.2637    0.1905   -2.6644 C   0  0  0  0  0  0  0  0  0  0  0  0
    0.0484    0.7319   -2.3129 C   0  0  0  0  0  0  0  0  0  0  0  0
    3.2534   -1.1582   -2.2397 C   0  0  0  0  0  0  0  0  0  0  0  0
    4.3925   -0.2926   -1.8772 C   0  0  0  0  0  0  0  0  0  0  0  0
    4.1461    0.7511   -1.2260 O   0  0  0  0  0  0  0  0  0  0  0  0
    5.6899   -0.6918   -2.2857 N   0  0  0  0  0  0  0  0  0  0  0  0
    6.8985    0.0517   -2.0030 C   0  0  0  0  0  0  0  0  0  0  0  0
    7.2836   -0.1929   -0.6045 C   0  0  0  0  0  0  0  0  0  0  0  0
    6.9121    0.5825    0.4676 C   0  0  0  0  0  0  0  0  0  0  0  0
    7.3336    0.2487    1.7439 C   0  0  0  0  0  0  0  0  0  0  0  0
    8.1334   -0.8662    1.9661 C   0  0  0  0  0  0  0  0  0  0  0  0
    8.5125   -1.6510    0.9013 C   0  0  0  0  0  0  0  0  0  0  0  0
    8.0889   -1.3122   -0.3653 C   0  0  0  0  0  0  0  0  0  0  0  0
    8.6024   -1.2540    3.3174 C   0  0  0  0  0  0  0  0  0  0  0  0
   -4.6618    1.0104   -0.4026 N   0  0  0  0  0  0  0  0  0  0  0  0
   -5.9624    1.5601   -0.4808 C   0  0  0  0  0  0  0  0  0  0  0  0
   -6.8733    1.3546    0.6745 C   0  0  1  0  0  0  0  0  0  0  0  0
   -7.1621   -0.0804    0.9476 C   0  0  0  0  0  0  0  0  0  0  0  0
   -7.8349   -0.3593    2.1425 C   0  0  0  0  0  0  0  0  0  0  0  0
   -8.1325   -1.6765    2.4609 C   0  0  0  0  0  0  0  0  0  0  0  0
   -7.7678   -2.6958    1.6069 C   0  0  0  0  0  0  0  0  0  0  0  0
   -7.1016   -2.4097    0.4249 C   0  0  0  0  0  0  0  0  0  0  0  0
   -6.8041   -1.1015    0.1053 C   0  0  0  0  0  0  0  0  0  0  0  0
   -6.6743   -3.7598   -0.6035 Cl  0  0  0  0  0  0  0  0  0  0  0  0
   -6.3680    1.9145    1.8339 O   0  0  0  0  0  0  0  0  0  0  0  0
   -2.7998    3.5377    0.8770 H   0  0  0  0  0  0  0  0  0  0  0  0
   -4.5397    3.6325    0.6207 H   0  0  0  0  0  0  0  0  0  0  0  0
   -3.4802    3.3157   -0.7508 H   0  0  0  0  0  0  0  0  0  0  0  0
   -4.1636    1.4426    1.5670 H   0  0  0  0  0  0  0  0  0  0  0  0
   -2.6534   -0.1864    0.6590 H   0  0  0  0  0  0  0  0  0  0  0  0
   -1.8811    1.2474    1.3830 H   0  0  0  0  0  0  0  0  0  0  0  0
   -2.2590    1.6672   -1.4608 H   0  0  0  0  0  0  0  0  0  0  0  0
   -0.2234   -0.5170    0.7990 H   0  0  0  0  0  0  0  0  0  0  0  0
    1.9704   -1.4842    0.1427 H   0  0  0  0  0  0  0  0  0  0  0  0
    1.6796    0.3946   -3.6475 H   0  0  0  0  0  0  0  0  0  0  0  0
   -0.4402    1.3489   -3.0563 H   0  0  0  0  0  0  0  0  0  0  0  0
    3.2220   -1.3788   -3.3304 H   0  0  0  0  0  0  0  0  0  0  0  0
    3.4313   -2.1553   -1.7636 H   0  0  0  0  0  0  0  0  0  0  0  0
    5.7767   -1.5999   -2.8360 H   0  0  0  0  0  0  0  0  0  0  0  0
    6.7257    1.1351   -2.2122 H   0  0  0  0  0  0  0  0  0  0  0  0
    7.6702   -0.2640   -2.7296 H   0  0  0  0  0  0  0  0  0  0  0  0
    6.2945    1.4505    0.2983 H   0  0  0  0  0  0  0  0  0  0  0  0
    7.0645    0.8291    2.6054 H   0  0  0  0  0  0  0  0  0  0  0  0
    9.1380   -2.5375    1.0117 H   0  0  0  0  0  0  0  0  0  0  0  0
    8.3987   -1.9476   -1.2040 H   0  0  0  0  0  0  0  0  0  0  0  0
    8.4922   -0.4087    4.0341 H   0  0  0  0  0  0  0  0  0  0  0  0
    8.0031   -2.1326    3.6356 H   0  0  0  0  0  0  0  0  0  0  0  0
    9.6747   -1.4951    3.2339 H   0  0  0  0  0  0  0  0  0  0  0  0
   -4.1858    0.8914   -1.3203 H   0  0  0  0  0  0  0  0  0  0  0  0
   -6.4136    1.2002   -1.4493 H   0  0  0  0  0  0  0  0  0  0  0  0
   -5.8878    2.6847   -0.6229 H   0  0  0  0  0  0  0  0  0  0  0  0
   -7.8351    1.9044    0.4592 H   0  0  0  0  0  0  0  0  0  0  0  0
   -8.1405    0.3846    2.8347 H   0  0  0  0  0  0  0  0  0  0  0  0
   -8.6549   -1.8844    3.3921 H   0  0  0  0  0  0  0  0  0  0  0  0
   -8.0238   -3.7146    1.9001 H   0  0  0  0  0  0  0  0  0  0  0  0
   -6.2836   -0.8778   -0.8178 H   0  0  0  0  0  0  0  0  0  0  0  0
   -6.3280    1.2587    2.5702 H   0  0  0  0  0  0  0  0  0  0  0  0
  1  2  1  0
  2  3  1  0
  3  4  1  0
  4  5  1  0
  5  6  2  0
  6  7  1  0
  7  8  2  0
  8  9  1  0
  9 10  2  0
  8 11  1  0
 11 12  1  0
 12 13  2  0
 12 14  1  0
 14 15  1  0
 15 16  1  0
 16 17  2  0
 17 18  1  0
 18 19  2  0
 19 20  1  0
 20 21  2  0
 19 22  1  0
  2 23  1  0
 23 24  1  0
 24 25  1  0
 25 26  1  0
 26 27  2  0
 27 28  1  0
 28 29  2  0
 29 30  1  0
 30 31  2  0
 30 32  1  0
 25 33  1  0
 10  5  1  0
 21 16  1  0
 31 26  1  0
  1 34  1  0
  1 35  1  0
  1 36  1  0
  2 37  1  1
  3 38  1  0
  3 39  1  0
  4 40  1  0
  6 41  1  0
  7 42  1  0
  9 43  1  0
 10 44  1  0
 11 45  1  0
 11 46  1  0
 14 47  1  0
 15 48  1  0
 15 49  1  0
 17 50  1  0
 18 51  1  0
 20 52  1  0
 21 53  1  0
 22 54  1  0
 22 55  1  0
 22 56  1  0
 23 57  1  0
 24 58  1  0
 24 59  1  0
 25 60  1  6
 27 61  1  0
 28 62  1  0
 29 63  1  0
 31 64  1  0
 33 65  1  0
M  END
>  <Ligand ID>  (1) 
LIG0003819

>  <Ligand>  (1) 
CHEMBL154370

>  <SMILES>  (1) 
C[C@H](CNc1ccc(cc1)CC(=O)NCc1ccc(cc1)C)NC[C@@H](c1cccc(c1)Cl)O

>  <CID>  (1) 
11091850.0

>  <ChEMBL ID>  (1) 
nan

>  <InChiKey>  (1) 
PHRSTEUVRCQEGQ-IBVKSMDESA-N

>  <InChi>  (1) 
InChI=1S/C27H32ClN3O2/c1-19-6-8-22(9-7-19)17-31-27(33)14-21-10-12-25(13-11-21)30-16-20(2)29-18-26(32)23-4-3-5-24(28)15-23/h3-13,15,20,26,29-30,32H,14,16-18H2,1-2H3,(H,31,33)/t20-,26+/m1/s1

>  <IUPAC Name>  (1) 
2-[4-[[(2R)-2-[[(2R)-2-(3-chlorophenyl)-2-hydroxyethyl]amino]propyl]amino]phenyl]-N-[(4-methylphenyl)methyl]acetamide

$$$$
