
     RDKit          3D

 47 51  0  0  0  0  0  0  0  0999 V2000
    4.1114    0.0541   -1.7596 O   0  0  0  0  0  0  0  0  0  0  0  0
    3.7265    0.5312   -0.5096 C   0  0  0  0  0  0  0  0  0  0  0  0
    4.7078    1.0136    0.3084 C   0  0  0  0  0  0  0  0  0  0  0  0
    4.4468    1.5107    1.5652 C   0  0  0  0  0  0  0  0  0  0  0  0
    3.1336    1.5058    1.9803 C   0  0  0  0  0  0  0  0  0  0  0  0
    2.1299    1.0119    1.1420 C   0  0  0  0  0  0  0  0  0  0  0  0
    2.3811    0.5162   -0.1075 C   0  0  0  0  0  0  0  0  0  0  0  0
    1.4175   -0.0092   -1.0588 C   0  0  1  0  0  0  0  0  0  0  0  0
    1.5725    0.7695   -2.3710 C   0  0  0  0  0  0  0  0  0  0  0  0
    1.7527   -1.3305   -1.3613 O   0  0  0  0  0  0  0  0  0  0  0  0
    0.6285   -2.0922   -1.4605 C   0  0  2  0  0  0  0  0  0  0  0  0
   -0.5244   -1.2580   -1.4537 N   0  0  0  0  0  0  0  0  0  0  0  0
    0.0017   -0.1161   -0.6523 C   0  0  1  0  0  0  0  0  0  0  0  0
   -0.2483   -0.5085    0.6569 O   0  0  0  0  0  0  0  0  0  0  0  0
   -1.5766   -0.9663    0.5596 C   0  0  1  0  0  0  0  0  0  0  0  0
   -1.5073   -1.8955   -0.5879 C   0  0  2  0  0  0  0  0  0  0  0  0
   -0.9732   -3.1457   -0.2587 O   0  0  0  0  0  0  0  0  0  0  0  0
    0.4095   -3.0118   -0.2843 C   0  0  0  0  0  0  0  0  0  0  0  0
   -2.0218   -1.6153    1.8505 C   0  0  0  0  0  0  0  0  0  0  0  0
   -2.5076    0.1373    0.2919 C   0  0  0  0  0  0  0  0  0  0  0  0
   -3.3205    0.2721   -0.8001 C   0  0  0  0  0  0  0  0  0  0  0  0
   -4.1623    1.3823   -0.9411 C   0  0  0  0  0  0  0  0  0  0  0  0
   -4.2138    2.3838    0.0017 C   0  0  0  0  0  0  0  0  0  0  0  0
   -3.3946    2.2489    1.1025 C   0  0  0  0  0  0  0  0  0  0  0  0
   -2.5676    1.1550    1.2383 C   0  0  0  0  0  0  0  0  0  0  0  0
   -1.7744    1.1085    2.3898 O   0  0  0  0  0  0  0  0  0  0  0  0
    4.4270   -0.8935   -1.9140 H   0  0  0  0  0  0  0  0  0  0  0  0
    5.7552    1.0256   -0.0038 H   0  0  0  0  0  0  0  0  0  0  0  0
    5.2365    1.8884    2.1991 H   0  0  0  0  0  0  0  0  0  0  0  0
    2.8984    1.8926    2.9688 H   0  0  0  0  0  0  0  0  0  0  0  0
    1.1404    1.0465    1.5281 H   0  0  0  0  0  0  0  0  0  0  0  0
    2.1929    0.2224   -3.0822 H   0  0  0  0  0  0  0  0  0  0  0  0
    2.0706    1.7581   -2.1678 H   0  0  0  0  0  0  0  0  0  0  0  0
    0.5934    0.9941   -2.8397 H   0  0  0  0  0  0  0  0  0  0  0  0
    0.7037   -2.7394   -2.3643 H   0  0  0  0  0  0  0  0  0  0  0  0
   -0.5587    0.7711   -0.9602 H   0  0  0  0  0  0  0  0  0  0  0  0
   -2.4545   -2.0685   -1.1158 H   0  0  0  0  0  0  0  0  0  0  0  0
    0.9064   -3.9936   -0.4242 H   0  0  0  0  0  0  0  0  0  0  0  0
    0.7250   -2.6234    0.6809 H   0  0  0  0  0  0  0  0  0  0  0  0
   -3.0611   -1.3317    2.1196 H   0  0  0  0  0  0  0  0  0  0  0  0
   -2.0794   -2.7119    1.6333 H   0  0  0  0  0  0  0  0  0  0  0  0
   -1.3889   -1.3914    2.7118 H   0  0  0  0  0  0  0  0  0  0  0  0
   -3.3658   -0.4394   -1.6028 H   0  0  0  0  0  0  0  0  0  0  0  0
   -4.8065    1.4703   -1.8254 H   0  0  0  0  0  0  0  0  0  0  0  0
   -4.8696    3.2213   -0.1361 H   0  0  0  0  0  0  0  0  0  0  0  0
   -3.4153    3.0087    1.8455 H   0  0  0  0  0  0  0  0  0  0  0  0
   -2.2768    1.2421    3.2686 H   0  0  0  0  0  0  0  0  0  0  0  0
  1  2  1  0
  2  3  2  0
  3  4  1  0
  4  5  2  0
  5  6  1  0
  6  7  2  0
  7  8  1  0
  8  9  1  6
  8 10  1  0
 10 11  1  0
 11 12  1  0
 12 13  1  0
 13 14  1  0
 14 15  1  0
 15 16  1  0
 16 17  1  0
 17 18  1  0
 15 19  1  1
 15 20  1  0
 20 21  2  0
 21 22  1  0
 22 23  2  0
 23 24  1  0
 24 25  2  0
 25 26  1  0
  7  2  1  0
 13  8  1  0
 25 20  1  0
 18 11  1  0
 16 12  1  0
  1 27  1  0
  3 28  1  0
  4 29  1  0
  5 30  1  0
  6 31  1  0
  9 32  1  0
  9 33  1  0
  9 34  1  0
 11 35  1  6
 13 36  1  6
 16 37  1  6
 18 38  1  0
 18 39  1  0
 19 40  1  0
 19 41  1  0
 19 42  1  0
 21 43  1  0
 22 44  1  0
 23 45  1  0
 24 46  1  0
 26 47  1  0
M  END
>  <Ligand ID>  (1) 
LIG0002127

>  <Ligand>  (1) 
CHEMBL3338874

>  <SMILES>  (1) 
Oc1ccccc1[C@@]1(C)O[C@@H]2N3[C@H]1O[C@@]([C@@H]3OC2)(C)c1ccccc1O

>  <CID>  (1) 
91801212.0

>  <ChEMBL ID>  (1) 
nan

>  <InChiKey>  (1) 
SMJRVISIMGPMFJ-VYJAJWGXSA-N

>  <InChi>  (1) 
InChI=1S/C20H21NO5/c1-19(12-7-3-5-9-14(12)22)17-21-16(11-24-17)25-20(2,18(21)26-19)13-8-4-6-10-15(13)23/h3-10,16-18,22-23H,11H2,1-2H3/t16-,17-,18-,19-,20+/m0/s1

>  <IUPAC Name>  (1) 
2-[(1S,3S,4S,7S,9R)-9-(2-hydroxyphenyl)-3,9-dimethyl-2,5,8-trioxa-10-azatricyclo[5.2.1.04,10]decan-3-yl]phenol

$$$$
