
     RDKit          3D

 72 79  0  0  0  0  0  0  0  0999 V2000
    1.2810   -4.5735   -1.0883 C   0  0  0  0  0  0  0  0  0  0  0  0
    1.6382   -3.2612   -0.9430 O   0  0  0  0  0  0  0  0  0  0  0  0
    0.7054   -2.4203   -0.3963 C   0  0  1  0  0  0  0  0  0  0  0  0
    0.2869   -2.8216    0.9887 C   0  0  0  0  0  0  0  0  0  0  0  0
   -0.5289   -1.7496    1.6370 C   0  0  0  0  0  0  0  0  0  0  0  0
   -0.7808   -0.6558    0.6323 C   0  0  1  0  0  0  0  0  0  0  0  0
    0.5324   -0.0192    0.3428 C   0  0  0  0  0  0  0  0  0  0  0  0
    1.4186   -1.0464   -0.3122 C   0  0  1  0  0  0  0  0  0  0  0  0
    2.6379   -1.2455    0.5379 C   0  0  0  0  0  0  0  0  0  0  0  0
    3.3435   -0.0924    0.6873 O   0  0  0  0  0  0  0  0  0  0  0  0
    3.7817    0.3971   -0.5232 C   0  0  0  0  0  0  0  0  0  0  0  0
    4.5850    1.6393   -0.2473 C   0  0  0  0  0  0  0  0  0  0  0  0
    4.0056    2.8876   -0.2029 C   0  0  0  0  0  0  0  0  0  0  0  0
    4.8494    3.9562    0.0602 C   0  0  0  0  0  0  0  0  0  0  0  0
    6.1953    3.7499    0.2629 C   0  0  0  0  0  0  0  0  0  0  0  0
    6.7658    2.4989    0.2168 C   0  0  0  0  0  0  0  0  0  0  0  0
    5.9431    1.4317   -0.0426 C   0  0  0  0  0  0  0  0  0  0  0  0
   -1.3985   -1.2452   -0.6368 C   0  0  1  0  0  0  0  0  0  0  0  0
   -0.5197   -2.2952   -1.2400 C   0  0  2  0  0  0  0  0  0  0  0  0
   -1.2625   -3.5110   -1.2061 O   0  0  0  0  0  0  0  0  0  0  0  0
   -2.4012   -3.3838   -0.4315 C   0  0  0  0  0  0  0  0  0  0  0  0
   -2.4823   -2.0837   -0.0728 C   0  0  0  0  0  0  0  0  0  0  0  0
   -3.4222   -1.4680    0.7000 C   0  0  0  0  0  0  0  0  0  0  0  0
   -3.2301   -0.0268    0.9767 C   0  0  0  0  0  0  0  0  0  0  0  0
   -1.7670    0.3603    1.0871 C   0  0  2  0  0  0  0  0  0  0  0  0
   -1.5714    1.4755    0.1914 N   0  0  0  0  0  0  0  0  0  0  0  0
   -1.8999    1.1914   -1.1692 C   0  0  0  0  0  0  0  0  0  0  0  0
   -1.8368   -0.2090   -1.5962 C   0  0  0  0  0  0  0  0  0  0  0  0
   -2.1732    2.6962    0.6415 C   0  0  0  0  0  0  0  0  0  0  0  0
   -1.9831    3.8658   -0.2716 C   0  0  0  0  0  0  0  0  0  0  0  0
   -2.6291    5.1543    0.2225 C   0  0  0  0  0  0  0  0  0  0  0  0
   -3.1897    4.4008   -0.9605 C   0  0  0  0  0  0  0  0  0  0  0  0
   -4.4316   -2.2651    1.1809 C   0  0  0  0  0  0  0  0  0  0  0  0
   -4.4248   -3.6281    0.8523 C   0  0  0  0  0  0  0  0  0  0  0  0
   -3.4245   -4.1943    0.0548 C   0  0  0  0  0  0  0  0  0  0  0  0
   -3.4014   -6.0386   -0.3975 Br  0  0  0  0  0  0  0  0  0  0  0  0
    1.0149   -5.0786   -0.1365 H   0  0  0  0  0  0  0  0  0  0  0  0
    0.5861   -4.7234   -1.9147 H   0  0  0  0  0  0  0  0  0  0  0  0
    2.2258   -5.1113   -1.4093 H   0  0  0  0  0  0  0  0  0  0  0  0
   -0.3972   -3.7176    0.9157 H   0  0  0  0  0  0  0  0  0  0  0  0
    1.1327   -3.1934    1.6107 H   0  0  0  0  0  0  0  0  0  0  0  0
   -1.4595   -2.1172    2.1140 H   0  0  0  0  0  0  0  0  0  0  0  0
    0.0662   -1.3117    2.4642 H   0  0  0  0  0  0  0  0  0  0  0  0
    0.4351    0.9145   -0.2472 H   0  0  0  0  0  0  0  0  0  0  0  0
    0.9563    0.3054    1.3316 H   0  0  0  0  0  0  0  0  0  0  0  0
    1.6488   -0.7463   -1.3695 H   0  0  0  0  0  0  0  0  0  0  0  0
    3.2495   -2.0781    0.1059 H   0  0  0  0  0  0  0  0  0  0  0  0
    2.2754   -1.5481    1.5645 H   0  0  0  0  0  0  0  0  0  0  0  0
    4.3518   -0.3263   -1.1321 H   0  0  0  0  0  0  0  0  0  0  0  0
    2.8893    0.7428   -1.1206 H   0  0  0  0  0  0  0  0  0  0  0  0
    2.9488    2.9953   -0.3682 H   0  0  0  0  0  0  0  0  0  0  0  0
    4.4405    4.9481    0.1041 H   0  0  0  0  0  0  0  0  0  0  0  0
    6.8709    4.5801    0.4707 H   0  0  0  0  0  0  0  0  0  0  0  0
    7.8278    2.3356    0.3767 H   0  0  0  0  0  0  0  0  0  0  0  0
    6.3930    0.4507   -0.0784 H   0  0  0  0  0  0  0  0  0  0  0  0
   -0.3035   -2.1227   -2.3132 H   0  0  0  0  0  0  0  0  0  0  0  0
   -3.7958    0.2576    1.8940 H   0  0  0  0  0  0  0  0  0  0  0  0
   -3.7574    0.5070    0.1511 H   0  0  0  0  0  0  0  0  0  0  0  0
   -1.6010    0.7272    2.1087 H   0  0  0  0  0  0  0  0  0  0  0  0
   -1.2042    1.7900   -1.8010 H   0  0  0  0  0  0  0  0  0  0  0  0
   -2.9030    1.6688   -1.3768 H   0  0  0  0  0  0  0  0  0  0  0  0
   -2.8678   -0.5131   -1.9437 H   0  0  0  0  0  0  0  0  0  0  0  0
   -1.2167   -0.3462   -2.5309 H   0  0  0  0  0  0  0  0  0  0  0  0
   -1.7292    2.9203    1.6356 H   0  0  0  0  0  0  0  0  0  0  0  0
   -3.2542    2.5219    0.7879 H   0  0  0  0  0  0  0  0  0  0  0  0
   -0.9980    4.0150   -0.7504 H   0  0  0  0  0  0  0  0  0  0  0  0
   -2.1563    6.1116   -0.0053 H   0  0  0  0  0  0  0  0  0  0  0  0
   -3.2904    5.1213    1.1125 H   0  0  0  0  0  0  0  0  0  0  0  0
   -4.1286    3.8213   -0.8345 H   0  0  0  0  0  0  0  0  0  0  0  0
   -3.0467    4.8147   -1.9723 H   0  0  0  0  0  0  0  0  0  0  0  0
   -5.1826   -1.8136    1.7873 H   0  0  0  0  0  0  0  0  0  0  0  0
   -5.2323   -4.2722    1.2343 H   0  0  0  0  0  0  0  0  0  0  0  0
  1  2  1  0
  3  2  1  6
  3  4  1  0
  4  5  1  0
  6  5  1  1
  6  7  1  0
  7  8  1  0
  8  9  1  0
  9 10  1  0
 10 11  1  0
 11 12  1  0
 12 13  2  0
 13 14  1  0
 14 15  2  0
 15 16  1  0
 16 17  2  0
  6 18  1  0
 18 19  1  0
 19 20  1  0
 20 21  1  0
 21 22  2  0
 22 23  1  0
 23 24  1  0
 24 25  1  0
 25 26  1  0
 26 27  1  0
 27 28  1  0
 26 29  1  0
 29 30  1  0
 30 31  1  0
 31 32  1  0
 23 33  2  0
 33 34  1  0
 34 35  2  0
 35 36  1  0
  8  3  1  0
 17 12  1  0
 18 28  1  6
 32 30  1  0
 19  3  1  0
 35 21  1  0
 25  6  1  0
 22 18  1  0
  1 37  1  0
  1 38  1  0
  1 39  1  0
  4 40  1  0
  4 41  1  0
  5 42  1  0
  5 43  1  0
  7 44  1  0
  7 45  1  0
  8 46  1  6
  9 47  1  0
  9 48  1  0
 11 49  1  0
 11 50  1  0
 13 51  1  0
 14 52  1  0
 15 53  1  0
 16 54  1  0
 17 55  1  0
 19 56  1  6
 24 57  1  0
 24 58  1  0
 25 59  1  1
 27 60  1  0
 27 61  1  0
 28 62  1  0
 28 63  1  0
 29 64  1  0
 29 65  1  0
 30 66  1  0
 31 67  1  0
 31 68  1  0
 32 69  1  0
 32 70  1  0
 33 71  1  0
 34 72  1  0
M  END
>  <Ligand ID>  (1) 
LIG0004699

>  <Ligand>  (1) 
CHEMBL3960194

>  <SMILES>  (1) 
CO[C@@]12CC[C@@]3(C[C@H]1COCc1ccccc1)[C@]14[C@@H]2Oc2c4c(C[C@@H]3N(CC1)CC1CC1)ccc2Br

>  <CID>  (1) 
134154774.0

>  <ChEMBL ID>  (1) 
nan

>  <InChiKey>  (1) 
ZQPMWEQJZNJYEY-RFEMKGLMSA-N

>  <InChi>  (1) 
InChI=1S/C31H36BrNO3/c1-34-31-12-11-29(16-23(31)19-35-18-21-5-3-2-4-6-21)25-15-22-9-10-24(32)27-26(22)30(29,28(31)36-27)13-14-33(25)17-20-7-8-20/h2-6,9-10,20,23,25,28H,7-8,11-19H2,1H3/t23-,25-,28-,29-,30+,31-/m0/s1

>  <IUPAC Name>  (1) 
(1R,2R,6S,14S,15S,16S)-11-bromo-5-(cyclopropylmethyl)-15-methoxy-16-(phenylmethoxymethyl)-13-oxa-5-azahexacyclo[13.2.2.12,8.01,6.02,14.012,20]icosa-8(20),9,11-triene

$$$$
