
     RDKit          3D

 45 47  0  0  0  0  0  0  0  0999 V2000
    3.9277   -0.7540    1.3001 C   0  0  0  0  0  0  0  0  0  0  0  0
    3.3348   -1.2525   -0.0089 C   0  0  0  0  0  0  0  0  0  0  0  0
    4.1515   -0.6071   -1.1234 C   0  0  0  0  0  0  0  0  0  0  0  0
    4.3715    0.6957   -0.7251 O   0  0  0  0  0  0  0  0  0  0  0  0
    3.2612    1.4985   -0.6779 C   0  0  0  0  0  0  0  0  0  0  0  0
    2.0055    0.7518   -0.4348 C   0  0  0  0  0  0  0  0  0  0  0  0
    1.9857   -0.5912   -0.1055 C   0  0  0  0  0  0  0  0  0  0  0  0
    0.8488   -1.3003    0.1227 C   0  0  0  0  0  0  0  0  0  0  0  0
   -0.3638   -0.6511    0.0225 C   0  0  0  0  0  0  0  0  0  0  0  0
   -0.3649    0.6844   -0.3039 C   0  0  0  0  0  0  0  0  0  0  0  0
    0.8019    1.3991   -0.5350 C   0  0  0  0  0  0  0  0  0  0  0  0
   -1.7642    1.2002   -0.3625 C   0  0  0  0  0  0  0  0  0  0  0  0
   -2.6331    0.0364   -0.0180 C   0  0  0  0  0  0  0  0  0  0  0  0
   -1.7472   -1.1450    0.2100 C   0  0  0  0  0  0  0  0  0  0  0  0
   -2.0572   -2.2437   -0.8015 C   0  0  0  0  0  0  0  0  0  0  0  0
   -1.8518   -1.7517    1.5769 C   0  0  0  0  0  0  0  0  0  0  0  0
   -3.5687    0.3183    1.1344 C   0  0  0  0  0  0  0  0  0  0  0  0
   -1.8944    2.3441    0.6130 C   0  0  0  0  0  0  0  0  0  0  0  0
   -2.0036    1.7269   -1.7616 C   0  0  0  0  0  0  0  0  0  0  0  0
    3.4944    0.2502    1.5708 H   0  0  0  0  0  0  0  0  0  0  0  0
    3.6250   -1.4436    2.0999 H   0  0  0  0  0  0  0  0  0  0  0  0
    5.0181   -0.6273    1.2638 H   0  0  0  0  0  0  0  0  0  0  0  0
    3.2869   -2.3387   -0.0762 H   0  0  0  0  0  0  0  0  0  0  0  0
    3.5881   -0.6974   -2.0667 H   0  0  0  0  0  0  0  0  0  0  0  0
    5.1251   -1.1046   -1.2111 H   0  0  0  0  0  0  0  0  0  0  0  0
    3.2288    2.0662   -1.6333 H   0  0  0  0  0  0  0  0  0  0  0  0
    3.3923    2.2252    0.1502 H   0  0  0  0  0  0  0  0  0  0  0  0
    0.8507   -2.3326    0.3750 H   0  0  0  0  0  0  0  0  0  0  0  0
    0.7618    2.4680   -0.7944 H   0  0  0  0  0  0  0  0  0  0  0  0
   -3.2881   -0.1630   -0.9079 H   0  0  0  0  0  0  0  0  0  0  0  0
   -2.1364   -1.7466   -1.7894 H   0  0  0  0  0  0  0  0  0  0  0  0
   -3.0831   -2.5976   -0.5602 H   0  0  0  0  0  0  0  0  0  0  0  0
   -1.2973   -3.0425   -0.7646 H   0  0  0  0  0  0  0  0  0  0  0  0
   -1.3335   -1.1894    2.3707 H   0  0  0  0  0  0  0  0  0  0  0  0
   -1.3270   -2.7492    1.5094 H   0  0  0  0  0  0  0  0  0  0  0  0
   -2.9160   -1.9859    1.8295 H   0  0  0  0  0  0  0  0  0  0  0  0
   -3.8603    1.3760    1.1640 H   0  0  0  0  0  0  0  0  0  0  0  0
   -3.1530    0.0189    2.1231 H   0  0  0  0  0  0  0  0  0  0  0  0
   -4.5006   -0.2698    1.0025 H   0  0  0  0  0  0  0  0  0  0  0  0
   -1.8333    2.0084    1.6466 H   0  0  0  0  0  0  0  0  0  0  0  0
   -2.7972    2.9503    0.3816 H   0  0  0  0  0  0  0  0  0  0  0  0
   -1.0205    3.0203    0.4222 H   0  0  0  0  0  0  0  0  0  0  0  0
   -2.9547    2.3148   -1.6939 H   0  0  0  0  0  0  0  0  0  0  0  0
   -1.1448    2.3457   -2.0440 H   0  0  0  0  0  0  0  0  0  0  0  0
   -2.1651    0.8854   -2.4894 H   0  0  0  0  0  0  0  0  0  0  0  0
  1  2  1  0
  2  3  1  0
  3  4  1  0
  4  5  1  0
  5  6  1  0
  6  7  2  0
  7  8  1  0
  8  9  2  0
  9 10  1  0
 10 11  2  0
 10 12  1  0
 12 13  1  0
 13 14  1  0
 14 15  1  0
 14 16  1  0
 13 17  1  0
 12 18  1  0
 12 19  1  0
  7  2  1  0
 14  9  1  0
 11  6  1  0
  1 20  1  0
  1 21  1  0
  1 22  1  0
  2 23  1  0
  3 24  1  0
  3 25  1  0
  5 26  1  0
  5 27  1  0
  8 28  1  0
 11 29  1  0
 13 30  1  0
 15 31  1  0
 15 32  1  0
 15 33  1  0
 16 34  1  0
 16 35  1  0
 16 36  1  0
 17 37  1  0
 17 38  1  0
 17 39  1  0
 18 40  1  0
 18 41  1  0
 18 42  1  0
 19 43  1  0
 19 44  1  0
 19 45  1  0
M  END
>  <Ligand ID>  (1) 
LIG0000334

>  <Ligand>  (1) 
Galaxolide

>  <SMILES>  (1) 
CC1COCc2c1cc1c(c2)C(C(C1(C)C)C)(C)C

>  <CID>  (1) 
91497.0

>  <ChEMBL ID>  (1) 
nan

>  <InChiKey>  (1) 
ONKNPOPIGWHAQC-UHFFFAOYSA-N

>  <InChi>  (1) 
InChI=1S/C18H26O/c1-11-9-19-10-13-7-15-16(8-14(11)13)18(5,6)12(2)17(15,3)4/h7-8,11-12H,9-10H2,1-6H3

>  <IUPAC Name>  (1) 
4,6,6,7,8,8-hexamethyl-1,3,4,7-tetrahydrocyclopenta[g]isochromene

$$$$
