
     RDKit          3D

182187  0  0  0  0  0  0  0  0999 V2000
   -9.2562   -2.7614    2.0556 N   0  0  0  0  0  0  0  0  0  0  0  0
   -7.8786   -2.3897    1.9737 C   0  0  0  0  0  0  0  0  0  0  0  0
   -7.6818   -0.9592    1.4420 C   0  0  0  0  0  0  0  0  0  0  0  0
   -8.2409   -0.8272    0.0807 C   0  0  0  0  0  0  0  0  0  0  0  0
   -7.7320   -1.5766   -1.0447 C   0  0  0  0  0  0  0  0  0  0  0  0
   -6.3423   -1.4657   -1.5583 C   0  0  2  0  0  0  0  0  0  0  0  0
   -5.2508   -1.8682   -0.7043 N   0  0  0  0  0  0  0  0  0  0  0  0
   -4.8883   -3.2928   -0.7010 C   0  0  0  0  0  0  0  0  0  0  0  0
   -5.8388   -3.9780   -1.2103 O   0  0  0  0  0  0  0  0  0  0  0  0
   -3.7303   -3.9573   -0.2406 C   0  0  1  0  0  0  0  0  0  0  0  0
   -2.5736   -3.0197   -0.1769 N   0  0  0  0  0  0  0  0  0  0  0  0
   -1.3177   -3.5865   -0.5520 C   0  0  0  0  0  0  0  0  0  0  0  0
   -1.4114   -4.8132   -0.8979 O   0  0  0  0  0  0  0  0  0  0  0  0
    0.0026   -3.0120   -0.5979 C   0  0  2  0  0  0  0  0  0  0  0  0
    1.0461   -3.8881    0.0898 C   0  0  0  0  0  0  0  0  0  0  0  0
    1.0935   -5.2177   -0.5838 C   0  0  0  0  0  0  0  0  0  0  0  0
    0.5602   -6.3674   -0.0821 C   0  0  0  0  0  0  0  0  0  0  0  0
    0.6004   -7.5746   -0.7810 C   0  0  0  0  0  0  0  0  0  0  0  0
    1.2014   -7.5857   -2.0134 C   0  0  0  0  0  0  0  0  0  0  0  0
    1.7620   -6.4502   -2.5797 C   0  0  0  0  0  0  0  0  0  0  0  0
    1.6931   -5.2691   -1.8340 C   0  0  0  0  0  0  0  0  0  0  0  0
    0.1368   -1.6017   -0.2948 N   0  0  0  0  0  0  0  0  0  0  0  0
    1.3243   -0.9171   -0.5973 C   0  0  0  0  0  0  0  0  0  0  0  0
    2.2831   -1.5937   -1.0064 O   0  0  0  0  0  0  0  0  0  0  0  0
    1.5879    0.5562   -0.4729 C   0  0  2  0  0  0  0  0  0  0  0  0
    1.2945    1.0361   -1.8948 C   0  0  0  0  0  0  0  0  0  0  0  0
    1.7308    2.6251   -2.4106 S   0  0  0  0  0  0  0  0  0  0  0  0
    1.0152    4.3228   -1.4911 S   0  0  0  0  0  0  0  0  0  0  0  0
   -0.6581    4.8128   -2.1746 C   0  0  0  0  0  0  0  0  0  0  0  0
   -1.5301    3.7789   -1.5225 C   0  0  2  0  0  0  0  0  0  0  0  0
   -2.9300    3.7683   -1.8447 N   0  0  0  0  0  0  0  0  0  0  0  0
   -3.5791    2.5117   -1.6852 C   0  0  0  0  0  0  0  0  0  0  0  0
   -2.8706    1.5611   -1.3359 O   0  0  0  0  0  0  0  0  0  0  0  0
   -5.0373    2.2534   -1.8989 C   0  0  1  0  0  0  0  0  0  0  0  0
   -5.3237    0.9007   -1.4498 N   0  0  0  0  0  0  0  0  0  0  0  0
   -6.1517   -0.0416   -2.0886 C   0  0  0  0  0  0  0  0  0  0  0  0
   -6.7371    0.3536   -3.1096 O   0  0  0  0  0  0  0  0  0  0  0  0
   -5.7198    3.3409   -1.1321 C   0  0  0  0  0  0  0  0  0  0  0  0
   -7.1699    3.4153   -1.1037 C   0  0  0  0  0  0  0  0  0  0  0  0
   -7.9410    3.9770   -2.1326 C   0  0  0  0  0  0  0  0  0  0  0  0
   -9.3308    4.0634   -1.9541 C   0  0  0  0  0  0  0  0  0  0  0  0
   -9.9430    3.6118   -0.8065 C   0  0  0  0  0  0  0  0  0  0  0  0
   -9.1820    3.0514    0.2177 C   0  0  0  0  0  0  0  0  0  0  0  0
   -7.8214    2.9663    0.0492 C   0  0  0  0  0  0  0  0  0  0  0  0
  -11.3112    3.6850   -0.5906 O   0  0  0  0  0  0  0  0  0  0  0  0
   -1.4676    4.1627   -0.0320 C   0  0  0  0  0  0  0  0  0  0  0  0
   -0.3317    4.0742    0.5032 O   0  0  0  0  0  0  0  0  0  0  0  0
   -2.5876    4.5855    0.6805 N   0  0  0  0  0  0  0  0  0  0  0  0
   -2.4259    4.9366    2.0968 C   0  0  2  0  0  0  0  0  0  0  0  0
   -3.4660    4.2908    2.9299 C   0  0  0  0  0  0  0  0  0  0  0  0
   -4.3716    3.5487    2.4757 O   0  0  0  0  0  0  0  0  0  0  0  0
   -3.4654    4.4969    4.3022 O   0  0  0  0  0  0  0  0  0  0  0  0
   -2.5888    6.4560    2.2549 C   0  0  0  0  0  0  0  0  0  0  0  0
   -3.9513    6.8990    1.7916 C   0  0  0  0  0  0  0  0  0  0  0  0
   -2.2578    6.8548    3.6554 C   0  0  0  0  0  0  0  0  0  0  0  0
    2.9600    0.7742   -0.1344 N   0  0  0  0  0  0  0  0  0  0  0  0
    3.2066    1.6812    0.9747 C   0  0  0  0  0  0  0  0  0  0  0  0
    2.2363    2.2457    1.5450 O   0  0  0  0  0  0  0  0  0  0  0  0
    4.6359    1.9278    1.4330 C   0  0  1  0  0  0  0  0  0  0  0  0
    5.4280    0.9882    0.6602 N   0  0  0  0  0  0  0  0  0  0  0  0
    5.7077   -0.2571    1.2387 C   0  0  0  0  0  0  0  0  0  0  0  0
    5.1969   -0.3937    2.4422 O   0  0  0  0  0  0  0  0  0  0  0  0
    6.4333   -1.3808    0.7422 C   0  0  1  0  0  0  0  0  0  0  0  0
    5.4815   -2.3294   -0.0406 C   0  0  0  0  0  0  0  0  0  0  0  0
    6.4545   -3.3857   -0.4921 C   0  0  0  0  0  0  0  0  0  0  0  0
    7.8309   -2.8771   -0.2305 C   0  0  0  0  0  0  0  0  0  0  0  0
    7.5293   -1.3731   -0.1233 N   0  0  0  0  0  0  0  0  0  0  0  0
    8.4013   -0.5404   -0.8168 C   0  0  0  0  0  0  0  0  0  0  0  0
    9.4007   -1.1830   -1.3783 O   0  0  0  0  0  0  0  0  0  0  0  0
    8.4328    0.8985   -1.0437 C   0  0  2  0  0  0  0  0  0  0  0  0
    7.6768    1.1596   -2.3564 C   0  0  2  0  0  0  0  0  0  0  0  0
    8.3135    0.3380   -3.3020 O   0  0  0  0  0  0  0  0  0  0  0  0
    7.8815    2.5811   -2.8342 C   0  0  0  0  0  0  0  0  0  0  0  0
    9.8227    1.3055   -1.4227 N   0  0  0  0  0  0  0  0  0  0  0  0
   10.3928    2.2813   -0.5679 C   0  0  0  0  0  0  0  0  0  0  0  0
    9.8202    2.7929    0.4127 O   0  0  0  0  0  0  0  0  0  0  0  0
   11.7896    2.7081   -0.8910 C   0  0  2  0  0  0  0  0  0  0  0  0
   12.7109    1.5357   -0.9461 C   0  0  0  0  0  0  0  0  0  0  0  0
   12.8320    0.7226    0.2934 C   0  0  0  0  0  0  0  0  0  0  0  0
   13.3646    1.3956    1.4820 C   0  0  0  0  0  0  0  0  0  0  0  0
   13.2650    0.7786    2.5884 O   0  0  0  0  0  0  0  0  0  0  0  0
   13.9667    2.6348    1.5252 O   0  0  0  0  0  0  0  0  0  0  0  0
   12.2257    3.7572   -0.0119 N   0  0  0  0  0  0  0  0  0  0  0  0
    5.0291    3.3450    1.2648 C   0  0  0  0  0  0  0  0  0  0  0  0
    4.2513    4.3359    2.0260 C   0  0  0  0  0  0  0  0  0  0  0  0
    4.3975    5.5668    1.7583 O   0  0  0  0  0  0  0  0  0  0  0  0
    3.3459    4.0501    3.0342 O   0  0  0  0  0  0  0  0  0  0  0  0
   -3.6454   -4.8519    0.9454 C   0  0  0  0  0  0  0  0  0  0  0  0
   -4.4639   -6.0552    0.9672 C   0  0  0  0  0  0  0  0  0  0  0  0
   -4.0448   -7.2517    0.3443 C   0  0  0  0  0  0  0  0  0  0  0  0
   -5.0376   -8.1727    0.4814 N   0  0  0  0  0  0  0  0  0  0  0  0
   -6.0689   -7.6583    1.1494 C   0  0  0  0  0  0  0  0  0  0  0  0
   -5.7089   -6.3610    1.4450 C   0  0  0  0  0  0  0  0  0  0  0  0
   -6.5834   -5.5962    2.1638 C   0  0  0  0  0  0  0  0  0  0  0  0
   -7.8042   -6.0551    2.6023 C   0  0  0  0  0  0  0  0  0  0  0  0
   -8.1674   -7.3374    2.3100 C   0  0  0  0  0  0  0  0  0  0  0  0
   -7.2884   -8.1281    1.5821 C   0  0  0  0  0  0  0  0  0  0  0  0
   -9.5410   -3.4947    1.3957 H   0  0  0  0  0  0  0  0  0  0  0  0
   -9.9206   -1.9951    2.2228 H   0  0  0  0  0  0  0  0  0  0  0  0
   -7.4287   -3.0472    1.1682 H   0  0  0  0  0  0  0  0  0  0  0  0
   -7.3875   -2.5803    2.9172 H   0  0  0  0  0  0  0  0  0  0  0  0
   -6.6643   -0.6293    1.6032 H   0  0  0  0  0  0  0  0  0  0  0  0
   -8.3391   -0.3473    2.1137 H   0  0  0  0  0  0  0  0  0  0  0  0
   -8.4417    0.2689   -0.1444 H   0  0  0  0  0  0  0  0  0  0  0  0
   -9.3310   -1.1837    0.2125 H   0  0  0  0  0  0  0  0  0  0  0  0
   -7.9065   -2.6735   -0.8512 H   0  0  0  0  0  0  0  0  0  0  0  0
   -8.4285   -1.3826   -1.9184 H   0  0  0  0  0  0  0  0  0  0  0  0
   -6.3153   -2.1029   -2.4689 H   0  0  0  0  0  0  0  0  0  0  0  0
   -4.6839   -1.3201   -0.0818 H   0  0  0  0  0  0  0  0  0  0  0  0
   -3.4647   -4.7203   -1.0910 H   0  0  0  0  0  0  0  0  0  0  0  0
   -2.6005   -2.0636    0.0857 H   0  0  0  0  0  0  0  0  0  0  0  0
    0.4165   -3.0491   -1.6877 H   0  0  0  0  0  0  0  0  0  0  0  0
    0.8742   -3.9784    1.2006 H   0  0  0  0  0  0  0  0  0  0  0  0
    2.0755   -3.4963    0.0187 H   0  0  0  0  0  0  0  0  0  0  0  0
    0.0940   -6.3404    0.8982 H   0  0  0  0  0  0  0  0  0  0  0  0
    0.1873   -8.4862   -0.3950 H   0  0  0  0  0  0  0  0  0  0  0  0
    1.2451   -8.5141   -2.5994 H   0  0  0  0  0  0  0  0  0  0  0  0
    2.2275   -6.4544   -3.5534 H   0  0  0  0  0  0  0  0  0  0  0  0
    2.1482   -4.3909   -2.3074 H   0  0  0  0  0  0  0  0  0  0  0  0
   -0.6068   -1.0577    0.1445 H   0  0  0  0  0  0  0  0  0  0  0  0
    0.8991    0.9701    0.2428 H   0  0  0  0  0  0  0  0  0  0  0  0
    0.1851    0.8564   -2.0571 H   0  0  0  0  0  0  0  0  0  0  0  0
    1.7624    0.2788   -2.5822 H   0  0  0  0  0  0  0  0  0  0  0  0
   -0.8914    5.8029   -1.8107 H   0  0  0  0  0  0  0  0  0  0  0  0
   -0.6123    4.7716   -3.2596 H   0  0  0  0  0  0  0  0  0  0  0  0
   -1.0396    2.8132   -1.5555 H   0  0  0  0  0  0  0  0  0  0  0  0
   -3.5069    4.5328   -2.1804 H   0  0  0  0  0  0  0  0  0  0  0  0
   -5.2851    2.4158   -2.9619 H   0  0  0  0  0  0  0  0  0  0  0  0
   -4.8808    0.6001   -0.5770 H   0  0  0  0  0  0  0  0  0  0  0  0
   -5.2911    4.3362   -1.4361 H   0  0  0  0  0  0  0  0  0  0  0  0
   -5.3584    3.2625   -0.0466 H   0  0  0  0  0  0  0  0  0  0  0  0
   -7.4595    4.3278   -3.0215 H   0  0  0  0  0  0  0  0  0  0  0  0
   -9.9642    4.4874   -2.7336 H   0  0  0  0  0  0  0  0  0  0  0  0
   -9.6485    2.6916    1.1408 H   0  0  0  0  0  0  0  0  0  0  0  0
   -7.2452    2.5243    0.8669 H   0  0  0  0  0  0  0  0  0  0  0  0
  -11.7516    3.0399    0.0354 H   0  0  0  0  0  0  0  0  0  0  0  0
   -3.4972    4.6478    0.1978 H   0  0  0  0  0  0  0  0  0  0  0  0
   -1.4369    4.7034    2.4764 H   0  0  0  0  0  0  0  0  0  0  0  0
   -4.2948    4.4058    4.8847 H   0  0  0  0  0  0  0  0  0  0  0  0
   -1.8636    6.9616    1.5480 H   0  0  0  0  0  0  0  0  0  0  0  0
   -4.7684    6.4510    2.3871 H   0  0  0  0  0  0  0  0  0  0  0  0
   -4.0072    7.9955    1.9049 H   0  0  0  0  0  0  0  0  0  0  0  0
   -4.0837    6.5578    0.7549 H   0  0  0  0  0  0  0  0  0  0  0  0
   -1.7458    6.0349    4.2459 H   0  0  0  0  0  0  0  0  0  0  0  0
   -1.5692    7.7515    3.6793 H   0  0  0  0  0  0  0  0  0  0  0  0
   -3.1881    7.1792    4.1661 H   0  0  0  0  0  0  0  0  0  0  0  0
    3.7589    0.3321   -0.6286 H   0  0  0  0  0  0  0  0  0  0  0  0
    4.5802    1.6739    2.5071 H   0  0  0  0  0  0  0  0  0  0  0  0
    5.7474    1.2270   -0.2735 H   0  0  0  0  0  0  0  0  0  0  0  0
    6.7753   -2.0001    1.6550 H   0  0  0  0  0  0  0  0  0  0  0  0
    5.1254   -1.6975   -0.9001 H   0  0  0  0  0  0  0  0  0  0  0  0
    4.6973   -2.6647    0.6288 H   0  0  0  0  0  0  0  0  0  0  0  0
    6.2633   -3.5146   -1.5948 H   0  0  0  0  0  0  0  0  0  0  0  0
    6.2015   -4.3051    0.0742 H   0  0  0  0  0  0  0  0  0  0  0  0
    8.1506   -3.1207    0.7959 H   0  0  0  0  0  0  0  0  0  0  0  0
    8.5700   -3.0635   -0.9913 H   0  0  0  0  0  0  0  0  0  0  0  0
    8.0762    1.5205   -0.2251 H   0  0  0  0  0  0  0  0  0  0  0  0
    6.6159    0.9838   -2.3289 H   0  0  0  0  0  0  0  0  0  0  0  0
    7.8253   -0.5193   -3.4307 H   0  0  0  0  0  0  0  0  0  0  0  0
    8.7986    2.6960   -3.4503 H   0  0  0  0  0  0  0  0  0  0  0  0
    7.0352    2.8953   -3.5146 H   0  0  0  0  0  0  0  0  0  0  0  0
    7.8532    3.2595   -1.9722 H   0  0  0  0  0  0  0  0  0  0  0  0
   10.2880    0.8891   -2.2529 H   0  0  0  0  0  0  0  0  0  0  0  0
   11.7626    3.1536   -1.9203 H   0  0  0  0  0  0  0  0  0  0  0  0
   12.3918    0.8993   -1.8174 H   0  0  0  0  0  0  0  0  0  0  0  0
   13.7366    1.9469   -1.1857 H   0  0  0  0  0  0  0  0  0  0  0  0
   13.5273   -0.1295    0.0477 H   0  0  0  0  0  0  0  0  0  0  0  0
   11.8766    0.2052    0.5592 H   0  0  0  0  0  0  0  0  0  0  0  0
   14.4141    2.9321    2.3937 H   0  0  0  0  0  0  0  0  0  0  0  0
   11.5563    3.9529    0.7771 H   0  0  0  0  0  0  0  0  0  0  0  0
   12.3057    4.6893   -0.5113 H   0  0  0  0  0  0  0  0  0  0  0  0
    4.8193    3.5902    0.1756 H   0  0  0  0  0  0  0  0  0  0  0  0
    6.1257    3.5142    1.3417 H   0  0  0  0  0  0  0  0  0  0  0  0
    2.7891    4.7737    3.4733 H   0  0  0  0  0  0  0  0  0  0  0  0
   -3.8715   -4.2730    1.9099 H   0  0  0  0  0  0  0  0  0  0  0  0
   -2.5665   -5.1548    1.1236 H   0  0  0  0  0  0  0  0  0  0  0  0
   -3.0953   -7.3977   -0.1539 H   0  0  0  0  0  0  0  0  0  0  0  0
   -5.0431   -9.1555    0.1302 H   0  0  0  0  0  0  0  0  0  0  0  0
   -6.2699   -4.6016    2.4098 H   0  0  0  0  0  0  0  0  0  0  0  0
   -8.4873   -5.4470    3.1691 H   0  0  0  0  0  0  0  0  0  0  0  0
   -9.1210   -7.7817    2.6233 H   0  0  0  0  0  0  0  0  0  0  0  0
   -7.5254   -9.1675    1.3335 H   0  0  0  0  0  0  0  0  0  0  0  0
  1  2  1  0
  2  3  1  0
  3  4  1  0
  4  5  1  0
  5  6  1  0
  6  7  1  0
  7  8  1  0
  8  9  2  0
  8 10  1  0
 10 11  1  0
 11 12  1  0
 12 13  2  0
 12 14  1  0
 14 15  1  0
 15 16  1  0
 16 17  2  0
 17 18  1  0
 18 19  2  0
 19 20  1  0
 20 21  2  0
 14 22  1  0
 22 23  1  0
 23 24  2  0
 23 25  1  0
 25 26  1  0
 26 27  1  0
 27 28  1  0
 28 29  1  0
 29 30  1  0
 30 31  1  0
 31 32  1  0
 32 33  2  0
 32 34  1  0
 34 35  1  0
 35 36  1  0
 36 37  2  0
 34 38  1  0
 38 39  1  0
 39 40  2  0
 40 41  1  0
 41 42  2  0
 42 43  1  0
 43 44  2  0
 42 45  1  0
 30 46  1  0
 46 47  2  0
 46 48  1  0
 48 49  1  0
 49 50  1  0
 50 51  2  0
 50 52  1  0
 49 53  1  0
 53 54  1  0
 53 55  1  0
 25 56  1  0
 56 57  1  0
 57 58  2  0
 57 59  1  0
 59 60  1  0
 60 61  1  0
 61 62  2  0
 61 63  1  0
 63 64  1  0
 64 65  1  0
 65 66  1  0
 66 67  1  0
 67 68  1  0
 68 69  2  0
 68 70  1  0
 70 71  1  0
 71 72  1  0
 71 73  1  0
 70 74  1  0
 74 75  1  0
 75 76  2  0
 75 77  1  0
 77 78  1  0
 78 79  1  0
 79 80  1  0
 80 81  2  0
 80 82  1  0
 77 83  1  0
 59 84  1  0
 84 85  1  0
 85 86  2  0
 85 87  1  0
 10 88  1  0
 88 89  1  0
 89 90  2  0
 90 91  1  0
 91 92  1  0
 92 93  2  0
 93 94  1  0
 94 95  2  0
 95 96  1  0
 96 97  2  0
 36  6  1  0
 44 39  1  0
 67 63  1  0
 93 89  1  0
 21 16  1  0
 97 92  1  0
  1 98  1  0
  1 99  1  0
  2100  1  0
  2101  1  0
  3102  1  0
  3103  1  0
  4104  1  0
  4105  1  0
  5106  1  0
  5107  1  0
  6108  1  6
  7109  1  0
 10110  1  6
 11111  1  0
 14112  1  6
 15113  1  0
 15114  1  0
 17115  1  0
 18116  1  0
 19117  1  0
 20118  1  0
 21119  1  0
 22120  1  0
 25121  1  1
 26122  1  0
 26123  1  0
 29124  1  0
 29125  1  0
 30126  1  1
 31127  1  0
 34128  1  6
 35129  1  0
 38130  1  0
 38131  1  0
 40132  1  0
 41133  1  0
 43134  1  0
 44135  1  0
 45136  1  0
 48137  1  0
 49138  1  1
 52139  1  0
 53140  1  0
 54141  1  0
 54142  1  0
 54143  1  0
 55144  1  0
 55145  1  0
 55146  1  0
 56147  1  0
 59148  1  1
 60149  1  0
 63150  1  1
 64151  1  0
 64152  1  0
 65153  1  0
 65154  1  0
 66155  1  0
 66156  1  0
 70157  1  1
 71158  1  1
 72159  1  0
 73160  1  0
 73161  1  0
 73162  1  0
 74163  1  0
 77164  1  6
 78165  1  0
 78166  1  0
 79167  1  0
 79168  1  0
 82169  1  0
 83170  1  0
 83171  1  0
 84172  1  0
 84173  1  0
 87174  1  0
 88175  1  0
 88176  1  0
 90177  1  0
 91178  1  0
 94179  1  0
 95180  1  0
 96181  1  0
 97182  1  0
M  END
>  <Ligand ID>  (1) 
LIG0005359

>  <Ligand>  (1) 
urotensin-II

>  <SMILES>  (1) 
NCCCC[C@@H]1NC(=O)[C@@H](NC(=O)[C@H](Cc2ccccc2)NC(=O)[C@H](CSSC[C@H](NC(=O)[C@@H](NC1=O)Cc1ccc(cc1)O)C(=O)N[C@H](C(=O)O)C(C)C)NC(=O)[C@@H](NC(=O)[C@H]1CCCN1C(=O)[C@H]([C@H](O)C)NC(=O)[C@H](CCC(=O)O)N)CC(=O)O)Cc1c[nH]c2c1cccc2

>  <CID>  (1) 
44583410.0

>  <ChEMBL ID>  (1) 
nan

>  <InChiKey>  (1) 
HFNHAPQMXICKCF-ZYNSIFMHSA-N

>  <InChi>  (1) 
InChI=1S/C64H85N13O18S2/c1-33(2)52(64(94)95)75-61(91)48-32-97-96-31-47(73-59(89)46(29-51(82)83)72-62(92)49-17-11-25-77(49)63(93)53(34(3)78)76-54(84)40(66)22-23-50(80)81)60(90)70-43(26-35-12-5-4-6-13-35)56(86)71-45(28-37-30-67-41-15-8-7-14-39(37)41)58(88)68-42(16-9-10-24-65)55(85)69-44(57(87)74-48)27-36-18-20-38(79)21-19-36/h4-8,12-15,18-21,30,33-34,40,42-49,52-53,67,78-79H,9-11,16-17,22-29,31-32,65-66H2,1-3H3,(H,68,88)(H,69,85)(H,70,90)(H,71,86)(H,72,92)(H,73,89)(H,74,87)(H,75,91)(H,76,84)(H,80,81)(H,82,83)(H,94,95)/t34-,40+,42+,43+,44+,45+,46+,47+,48+,49-,52+,53+/m1/s1

>  <IUPAC Name>  (1) 
(4S)-4-amino-5-[[(2S,3R)-1-[(2R)-2-[[(2S)-1-[[(4R,7S,10S,13S,16S,19R)-10-(4-aminobutyl)-16-benzyl-4-[[(1S)-1-carboxy-2-methylpropyl]carbamoyl]-7-[(4-hydroxyphenyl)methyl]-13-(1H-indol-3-ylmethyl)-6,9,12,15,18-pentaoxo-1,2-dithia-5,8,11,14,17-pentazacycloicos-19-yl]amino]-3-carboxy-1-oxopropan-2-yl]carbamoyl]pyrrolidin-1-yl]-3-hydroxy-1-oxobutan-2-yl]amino]-5-oxopentanoic acid

$$$$
