
     RDKit          3D

 75 76  0  0  0  0  0  0  0  0999 V2000
   -9.1545    2.2128   -2.8454 O   0  0  0  0  0  0  0  0  0  0  0  0
   -8.0680    1.4052   -2.5215 C   0  0  0  0  0  0  0  0  0  0  0  0
   -8.2680    0.7109   -1.2171 C   0  0  0  0  0  0  0  0  0  0  0  0
   -7.2395   -0.0955   -0.7812 C   0  0  0  0  0  0  0  0  0  0  0  0
   -7.3594   -0.7646    0.4101 C   0  0  0  0  0  0  0  0  0  0  0  0
   -8.5376   -0.5875    1.1263 C   0  0  0  0  0  0  0  0  0  0  0  0
   -9.5604    0.2209    0.6826 C   0  0  0  0  0  0  0  0  0  0  0  0
   -9.4388    0.8912   -0.5120 C   0  0  0  0  0  0  0  0  0  0  0  0
  -10.4696    1.7033   -0.9544 O   0  0  0  0  0  0  0  0  0  0  0  0
   -6.2729   -1.6596    0.9470 C   0  0  2  0  0  0  0  0  0  0  0  0
   -5.2768   -0.7371    1.6091 C   0  0  0  0  0  0  0  0  0  0  0  0
   -4.6203    0.1376    0.7275 N   0  0  0  0  0  0  0  0  0  0  0  0
   -3.6961   -0.3565   -0.2059 C   0  0  0  0  0  0  0  0  0  0  0  0
   -2.4202   -0.9058    0.3981 C   0  0  0  0  0  0  0  0  0  0  0  0
   -1.6921    0.1542    1.1963 C   0  0  0  0  0  0  0  0  0  0  0  0
   -0.4390   -0.4403    1.7820 C   0  0  0  0  0  0  0  0  0  0  0  0
    0.5018   -0.9369    0.7275 C   0  0  0  0  0  0  0  0  0  0  0  0
    1.7656   -1.5277    1.3598 C   0  0  0  0  0  0  0  0  0  0  0  0
    2.4389   -0.6641    2.1158 O   0  0  0  0  0  0  0  0  0  0  0  0
    2.9180    0.5156    1.7691 C   0  0  0  0  0  0  0  0  0  0  0  0
    3.9565    0.6656    0.7093 C   0  0  0  0  0  0  0  0  0  0  0  0
    3.6039    0.2313   -0.6637 C   0  0  0  0  0  0  0  0  0  0  0  0
    4.7894    0.5202   -1.6039 C   0  0  0  0  0  0  0  0  0  0  0  0
    6.0204   -0.1822   -1.1819 C   0  0  0  0  0  0  0  0  0  0  0  0
    6.3519   -1.4590   -1.5906 C   0  0  0  0  0  0  0  0  0  0  0  0
    7.5281   -2.0871   -1.1776 C   0  0  0  0  0  0  0  0  0  0  0  0
    8.4181   -1.4335   -0.3258 C   0  0  0  0  0  0  0  0  0  0  0  0
    8.0947   -0.1574    0.0880 C   0  0  0  0  0  0  0  0  0  0  0  0
    6.9304    0.4419   -0.3320 C   0  0  0  0  0  0  0  0  0  0  0  0
    9.0270    0.5700    1.0033 C   0  0  0  0  0  0  0  0  0  0  0  0
   10.2306    1.5196    0.1180 S   0  0  0  0  0  0  0  0  0  0  0  0
   11.1095    0.6636   -0.7272 O   0  0  0  0  0  0  0  0  0  0  0  0
   11.0149    2.2936    1.1583 O   0  0  0  0  0  0  0  0  0  0  0  0
    9.4380    2.6960   -0.8786 N   0  0  0  0  0  0  0  0  0  0  0  0
   -5.7360   -2.4835   -0.0072 O   0  0  0  0  0  0  0  0  0  0  0  0
   -9.0685    3.0323   -2.2815 H   0  0  0  0  0  0  0  0  0  0  0  0
   -7.8619    0.6522   -3.2974 H   0  0  0  0  0  0  0  0  0  0  0  0
   -7.1740    2.0515   -2.4081 H   0  0  0  0  0  0  0  0  0  0  0  0
   -6.3500   -0.2030   -1.3630 H   0  0  0  0  0  0  0  0  0  0  0  0
   -8.7089   -1.0853    2.0828 H   0  0  0  0  0  0  0  0  0  0  0  0
  -10.4907    0.3563    1.2533 H   0  0  0  0  0  0  0  0  0  0  0  0
  -11.3924    1.5929   -0.5458 H   0  0  0  0  0  0  0  0  0  0  0  0
   -6.7569   -2.2922    1.7258 H   0  0  0  0  0  0  0  0  0  0  0  0
   -5.9027   -0.0986    2.3022 H   0  0  0  0  0  0  0  0  0  0  0  0
   -4.6182   -1.2979    2.3032 H   0  0  0  0  0  0  0  0  0  0  0  0
   -4.9392    1.1033    0.6456 H   0  0  0  0  0  0  0  0  0  0  0  0
   -4.0974   -1.1067   -0.8905 H   0  0  0  0  0  0  0  0  0  0  0  0
   -3.3537    0.4974   -0.8538 H   0  0  0  0  0  0  0  0  0  0  0  0
   -1.7710   -1.1460   -0.4729 H   0  0  0  0  0  0  0  0  0  0  0  0
   -2.5471   -1.8411    0.9523 H   0  0  0  0  0  0  0  0  0  0  0  0
   -1.3328    0.9810    0.5150 H   0  0  0  0  0  0  0  0  0  0  0  0
   -2.3186    0.6009    1.9792 H   0  0  0  0  0  0  0  0  0  0  0  0
    0.1084    0.3167    2.4104 H   0  0  0  0  0  0  0  0  0  0  0  0
   -0.6931   -1.2724    2.4726 H   0  0  0  0  0  0  0  0  0  0  0  0
    0.0650   -1.7670    0.1404 H   0  0  0  0  0  0  0  0  0  0  0  0
    0.8034   -0.1469    0.0263 H   0  0  0  0  0  0  0  0  0  0  0  0
    1.2987   -2.2838    2.1174 H   0  0  0  0  0  0  0  0  0  0  0  0
    2.2605   -2.1659    0.6410 H   0  0  0  0  0  0  0  0  0  0  0  0
    3.4089    0.9696    2.7066 H   0  0  0  0  0  0  0  0  0  0  0  0
    2.1099    1.2783    1.5020 H   0  0  0  0  0  0  0  0  0  0  0  0
    4.9450    0.2331    1.0464 H   0  0  0  0  0  0  0  0  0  0  0  0
    4.1541    1.7844    0.6377 H   0  0  0  0  0  0  0  0  0  0  0  0
    3.3280   -0.8098   -0.7531 H   0  0  0  0  0  0  0  0  0  0  0  0
    2.7422    0.8613   -1.0310 H   0  0  0  0  0  0  0  0  0  0  0  0
    4.5025    0.2507   -2.6563 H   0  0  0  0  0  0  0  0  0  0  0  0
    4.9347    1.6226   -1.5977 H   0  0  0  0  0  0  0  0  0  0  0  0
    5.6849   -1.9805   -2.2443 H   0  0  0  0  0  0  0  0  0  0  0  0
    7.7779   -3.0911   -1.5067 H   0  0  0  0  0  0  0  0  0  0  0  0
    9.3261   -1.9069   -0.0017 H   0  0  0  0  0  0  0  0  0  0  0  0
    6.7393    1.4588    0.0359 H   0  0  0  0  0  0  0  0  0  0  0  0
    9.5363   -0.1676    1.6486 H   0  0  0  0  0  0  0  0  0  0  0  0
    8.4784    1.2738    1.6665 H   0  0  0  0  0  0  0  0  0  0  0  0
    9.0122    2.2483   -1.7232 H   0  0  0  0  0  0  0  0  0  0  0  0
    8.6211    3.1002   -0.3478 H   0  0  0  0  0  0  0  0  0  0  0  0
   -6.3491   -2.6782   -0.7613 H   0  0  0  0  0  0  0  0  0  0  0  0
  1  2  1  0
  2  3  1  0
  3  4  2  0
  4  5  1  0
  5  6  2  0
  6  7  1  0
  7  8  2  0
  8  9  1  0
  5 10  1  0
 10 11  1  0
 11 12  1  0
 12 13  1  0
 13 14  1  0
 14 15  1  0
 15 16  1  0
 16 17  1  0
 17 18  1  0
 18 19  1  0
 19 20  1  0
 20 21  1  0
 21 22  1  0
 22 23  1  0
 23 24  1  0
 24 25  2  0
 25 26  1  0
 26 27  2  0
 27 28  1  0
 28 29  2  0
 28 30  1  0
 30 31  1  0
 31 32  2  0
 31 33  2  0
 31 34  1  0
 10 35  1  0
  8  3  1  0
 29 24  1  0
  1 36  1  0
  2 37  1  0
  2 38  1  0
  4 39  1  0
  6 40  1  0
  7 41  1  0
  9 42  1  0
 10 43  1  1
 11 44  1  0
 11 45  1  0
 12 46  1  0
 13 47  1  0
 13 48  1  0
 14 49  1  0
 14 50  1  0
 15 51  1  0
 15 52  1  0
 16 53  1  0
 16 54  1  0
 17 55  1  0
 17 56  1  0
 18 57  1  0
 18 58  1  0
 20 59  1  0
 20 60  1  0
 21 61  1  0
 21 62  1  0
 22 63  1  0
 22 64  1  0
 23 65  1  0
 23 66  1  0
 25 67  1  0
 26 68  1  0
 27 69  1  0
 29 70  1  0
 30 71  1  0
 30 72  1  0
 34 73  1  0
 34 74  1  0
 35 75  1  0
M  END
>  <Ligand ID>  (1) 
LIG0002504

>  <Ligand>  (1) 
CHEMBL475237

>  <SMILES>  (1) 
OCc1cc(ccc1O)[C@H](CNCCCCCCOCCCCc1cccc(c1)CS(=O)(=O)N)O

>  <CID>  (1) 
42625588.0

>  <ChEMBL ID>  (1) 
nan

>  <InChiKey>  (1) 
ZXQIEANXCQRVSZ-SANMLTNESA-N

>  <InChi>  (1) 
InChI=1S/C26H40N2O6S/c27-35(32,33)20-22-10-7-9-21(16-22)8-3-6-15-34-14-5-2-1-4-13-28-18-26(31)23-11-12-25(30)24(17-23)19-29/h7,9-12,16-17,26,28-31H,1-6,8,13-15,18-20H2,(H2,27,32,33)/t26-/m0/s1

>  <IUPAC Name>  (1) 
[3-[4-[6-[[(2R)-2-hydroxy-2-[4-hydroxy-3-(hydroxymethyl)phenyl]ethyl]amino]hexoxy]butyl]phenyl]methanesulfonamide

$$$$
