
     RDKit          3D

 48 49  0  0  0  0  0  0  0  0999 V2000
   -5.5825    3.0638   -0.4684 C   0  0  0  0  0  0  0  0  0  0  0  0
   -5.3032    1.7300   -1.1195 C   0  0  0  0  0  0  0  0  0  0  0  0
   -4.4211    0.9014   -0.1904 C   0  0  0  0  0  0  0  0  0  0  0  0
   -4.0251   -0.7198   -0.8886 S   0  0  0  0  0  0  0  0  0  0  0  0
   -2.9083   -1.5417    0.2297 C   0  0  0  0  0  0  0  0  0  0  0  0
   -3.4897   -2.1532    1.2973 N   0  0  0  0  0  0  0  0  0  0  0  0
   -2.7939   -2.8318    2.2105 C   0  0  0  0  0  0  0  0  0  0  0  0
   -3.3936   -3.3795    3.1832 O   0  0  0  0  0  0  0  0  0  0  0  0
   -1.4289   -2.8988    2.0368 C   0  0  0  0  0  0  0  0  0  0  0  0
   -0.8634   -2.2763    0.9521 C   0  0  0  0  0  0  0  0  0  0  0  0
   -1.5737   -1.5849    0.0198 N   0  0  0  0  0  0  0  0  0  0  0  0
   -0.9032   -1.0375   -1.1145 C   0  0  2  0  0  0  0  0  0  0  0  0
    0.4507   -1.4244   -1.0160 O   0  0  0  0  0  0  0  0  0  0  0  0
    1.1933   -0.3313   -0.6576 C   0  0  1  0  0  0  0  0  0  0  0  0
    0.1963    0.7151   -0.1461 C   0  0  2  0  0  0  0  0  0  0  0  0
   -0.8457    0.4468   -1.2568 C   0  0  1  0  0  0  0  0  0  0  0  0
   -0.1209    0.7220   -2.4358 O   0  0  0  0  0  0  0  0  0  0  0  0
    0.6754    1.9980   -0.1972 O   0  0  0  0  0  0  0  0  0  0  0  0
    2.3589   -0.5398    0.2209 C   0  0  0  0  0  0  0  0  0  0  0  0
    3.2525   -1.3868   -0.4243 O   0  0  0  0  0  0  0  0  0  0  0  0
    4.7595   -1.4086    0.3603 P   0  0  0  0  0  0  0  0  0  0  0  0
    5.7995   -1.2983   -0.7580 O   0  0  0  0  0  0  0  0  0  0  0  0
    4.9335   -0.1311    1.4395 O   0  0  0  0  0  0  0  0  0  0  0  0
    5.9385    1.0830    0.8182 P   0  0  0  0  0  0  0  0  0  0  0  0
    6.7623    1.7474    1.8737 O   0  0  0  0  0  0  0  0  0  0  0  0
    6.9312    0.5253   -0.4113 O   0  0  0  0  0  0  0  0  0  0  0  0
    4.9148    2.2799    0.1504 O   0  0  0  0  0  0  0  0  0  0  0  0
    4.9187   -2.9019    1.1297 O   0  0  0  0  0  0  0  0  0  0  0  0
   -5.2664    3.0125    0.5853 H   0  0  0  0  0  0  0  0  0  0  0  0
   -6.6420    3.3645   -0.5164 H   0  0  0  0  0  0  0  0  0  0  0  0
   -4.9418    3.8447   -0.9370 H   0  0  0  0  0  0  0  0  0  0  0  0
   -4.7907    1.8225   -2.0836 H   0  0  0  0  0  0  0  0  0  0  0  0
   -6.2739    1.1718   -1.2388 H   0  0  0  0  0  0  0  0  0  0  0  0
   -3.5361    1.4990    0.0469 H   0  0  0  0  0  0  0  0  0  0  0  0
   -4.9768    0.7602    0.8021 H   0  0  0  0  0  0  0  0  0  0  0  0
   -0.8751   -3.4501    2.7835 H   0  0  0  0  0  0  0  0  0  0  0  0
    0.2151   -2.3592    0.8600 H   0  0  0  0  0  0  0  0  0  0  0  0
   -1.2955   -1.4393   -2.0816 H   0  0  0  0  0  0  0  0  0  0  0  0
    1.5696    0.1167   -1.6256 H   0  0  0  0  0  0  0  0  0  0  0  0
   -0.2886    0.4315    0.7864 H   0  0  0  0  0  0  0  0  0  0  0  0
   -1.7378    1.0143   -1.1753 H   0  0  0  0  0  0  0  0  0  0  0  0
   -0.5247    0.3179   -3.2387 H   0  0  0  0  0  0  0  0  0  0  0  0
   -0.1387    2.5886   -0.1902 H   0  0  0  0  0  0  0  0  0  0  0  0
    2.9098    0.4332    0.3290 H   0  0  0  0  0  0  0  0  0  0  0  0
    2.1366   -0.9782    1.2054 H   0  0  0  0  0  0  0  0  0  0  0  0
    7.8764    0.5990   -0.1436 H   0  0  0  0  0  0  0  0  0  0  0  0
    5.3581    3.1660    0.2021 H   0  0  0  0  0  0  0  0  0  0  0  0
    5.7906   -3.2826    0.8626 H   0  0  0  0  0  0  0  0  0  0  0  0
  1  2  1  0
  2  3  1  0
  3  4  1  0
  4  5  1  0
  5  6  2  0
  6  7  1  0
  7  8  2  0
  7  9  1  0
  9 10  2  0
 10 11  1  0
 11 12  1  0
 12 13  1  0
 13 14  1  0
 14 15  1  0
 15 16  1  0
 16 17  1  0
 15 18  1  0
 14 19  1  0
 19 20  1  0
 20 21  1  0
 21 22  2  0
 21 23  1  0
 23 24  1  0
 24 25  2  0
 24 26  1  0
 24 27  1  0
 21 28  1  0
 11  5  1  0
 16 12  1  0
  1 29  1  0
  1 30  1  0
  1 31  1  0
  2 32  1  0
  2 33  1  0
  3 34  1  0
  3 35  1  0
  9 36  1  0
 10 37  1  0
 12 38  1  6
 14 39  1  6
 15 40  1  1
 16 41  1  1
 17 42  1  0
 18 43  1  0
 19 44  1  0
 19 45  1  0
 26 46  1  0
 27 47  1  0
 28 48  1  0
M  END
>  <Ligand ID>  (1) 
LIG0004362

>  <Ligand>  (1) 
CHEMBL1767411

>  <SMILES>  (1) 
CCCSc1nc(=O)ccn1[C@@H]1O[C@@H]([C@H]([C@H]1O)O)COP(=O)(OP(=O)(O)O)O

>  <CID>  (1) 
52952281.0

>  <ChEMBL ID>  (1) 
nan

>  <InChiKey>  (1) 
PSPSPUIWAWTIGL-QCNRFFRDSA-N

>  <InChi>  (1) 
InChI=1S/C12H20N2O11P2S/c1-2-5-28-12-13-8(15)3-4-14(12)11-10(17)9(16)7(24-11)6-23-27(21,22)25-26(18,19)20/h3-4,7,9-11,16-17H,2,5-6H2,1H3,(H,21,22)(H2,18,19,20)/t7-,9-,10-,11-/m1/s1

>  <IUPAC Name>  (1) 
[(2R,3S,4R,5R)-3,4-dihydroxy-5-(4-oxo-2-propylsulfanylpyrimidin-1-yl)oxolan-2-yl]methyl phosphono hydrogen phosphate

$$$$
