
     RDKit          3D

 64 69  0  0  0  0  0  0  0  0999 V2000
   -8.2556    0.4595    0.3564 C   0  0  0  0  0  0  0  0  0  0  0  0
   -6.9648    1.1432    0.7801 C   0  0  0  0  0  0  0  0  0  0  0  0
   -5.9379    0.1384    1.1615 C   0  0  0  0  0  0  0  0  0  0  0  0
   -4.5066    0.6749    1.1487 C   0  0  0  0  0  0  0  0  0  0  0  0
   -4.1711    1.0664   -0.2524 C   0  0  0  0  0  0  0  0  0  0  0  0
   -5.2372    1.7045   -0.9345 C   0  0  0  0  0  0  0  0  0  0  0  0
   -6.5290    2.0499   -0.3210 C   0  0  0  0  0  0  0  0  0  0  0  0
   -4.6319    1.9870   -2.5835 S   0  0  0  0  0  0  0  0  0  0  0  0
   -3.0483    1.2737   -2.2895 C   0  0  0  0  0  0  0  0  0  0  0  0
   -3.0568    0.8634   -0.9803 C   0  0  0  0  0  0  0  0  0  0  0  0
   -1.8399    0.2649   -0.5911 C   0  0  0  0  0  0  0  0  0  0  0  0
   -0.8540    0.1676   -1.5307 N   0  0  0  0  0  0  0  0  0  0  0  0
   -0.8979    0.5751   -2.7828 C   0  0  0  0  0  0  0  0  0  0  0  0
   -2.0742    1.1640   -3.1751 N   0  0  0  0  0  0  0  0  0  0  0  0
    0.2374    0.3973   -3.7187 C   0  0  0  0  0  0  0  0  0  0  0  0
   -1.4905   -0.2006    0.6711 N   0  0  0  0  0  0  0  0  0  0  0  0
   -1.1816    0.5638    1.8558 C   0  0  0  0  0  0  0  0  0  0  0  0
   -0.1237   -0.2263    2.6724 C   0  0  0  0  0  0  0  0  0  0  0  0
    0.7872   -0.8230    1.6693 N   0  0  0  0  0  0  0  0  0  0  0  0
    0.2139   -1.7966    0.8049 C   0  0  0  0  0  0  0  0  0  0  0  0
   -1.3435   -1.6674    0.8385 C   0  0  0  0  0  0  0  0  0  0  0  0
    2.1029   -0.3336    1.7159 C   0  0  0  0  0  0  0  0  0  0  0  0
    2.2423    0.5550    2.6792 O   0  0  0  0  0  0  0  0  0  0  0  0
    3.2551   -0.6059    0.9503 C   0  0  0  0  0  0  0  0  0  0  0  0
    3.4777   -1.6128    0.0497 C   0  0  0  0  0  0  0  0  0  0  0  0
    4.6394   -1.7994   -0.6592 C   0  0  0  0  0  0  0  0  0  0  0  0
    5.6924   -0.9499   -0.4982 C   0  0  0  0  0  0  0  0  0  0  0  0
    5.5205    0.0920    0.4053 C   0  0  0  0  0  0  0  0  0  0  0  0
    4.3583    0.2766    1.1110 C   0  0  0  0  0  0  0  0  0  0  0  0
    6.6527    0.8113    0.4453 N   0  0  0  0  0  0  0  0  0  0  0  0
    7.5562    0.2570   -0.4169 C   0  0  0  0  0  0  0  0  0  0  0  0
    6.9456   -0.7936   -0.9649 N   0  0  0  0  0  0  0  0  0  0  0  0
    7.5442   -1.6763   -1.9522 C   0  0  0  0  0  0  0  0  0  0  0  0
    8.9322    0.7779   -0.6365 C   0  0  0  0  0  0  0  0  0  0  0  0
   -8.0729   -0.5788    0.0086 H   0  0  0  0  0  0  0  0  0  0  0  0
   -8.7890    0.9907   -0.4475 H   0  0  0  0  0  0  0  0  0  0  0  0
   -8.9834    0.4070    1.2076 H   0  0  0  0  0  0  0  0  0  0  0  0
   -7.1797    1.7801    1.6765 H   0  0  0  0  0  0  0  0  0  0  0  0
   -6.1466   -0.3295    2.1547 H   0  0  0  0  0  0  0  0  0  0  0  0
   -5.9286   -0.7113    0.4337 H   0  0  0  0  0  0  0  0  0  0  0  0
   -4.4464    1.5052    1.8624 H   0  0  0  0  0  0  0  0  0  0  0  0
   -3.8774   -0.2153    1.4277 H   0  0  0  0  0  0  0  0  0  0  0  0
   -6.4589    3.1145    0.0137 H   0  0  0  0  0  0  0  0  0  0  0  0
   -7.2915    1.9758   -1.1527 H   0  0  0  0  0  0  0  0  0  0  0  0
    1.1256    0.9704   -3.3757 H   0  0  0  0  0  0  0  0  0  0  0  0
    0.6066   -0.6753   -3.7472 H   0  0  0  0  0  0  0  0  0  0  0  0
   -0.0486    0.6131   -4.7608 H   0  0  0  0  0  0  0  0  0  0  0  0
   -0.6964    1.5357    1.6331 H   0  0  0  0  0  0  0  0  0  0  0  0
   -2.0405    0.6352    2.5116 H   0  0  0  0  0  0  0  0  0  0  0  0
    0.4261    0.4708    3.3226 H   0  0  0  0  0  0  0  0  0  0  0  0
   -0.5902   -0.9969    3.2996 H   0  0  0  0  0  0  0  0  0  0  0  0
    0.5278   -2.7980    1.0617 H   0  0  0  0  0  0  0  0  0  0  0  0
    0.5197   -1.5467   -0.2542 H   0  0  0  0  0  0  0  0  0  0  0  0
   -1.6472   -2.0085    1.8204 H   0  0  0  0  0  0  0  0  0  0  0  0
   -1.7733   -2.1827   -0.0283 H   0  0  0  0  0  0  0  0  0  0  0  0
    2.6866   -2.3208   -0.1102 H   0  0  0  0  0  0  0  0  0  0  0  0
    4.7400   -2.6093   -1.3504 H   0  0  0  0  0  0  0  0  0  0  0  0
    4.3107    1.1098    1.7823 H   0  0  0  0  0  0  0  0  0  0  0  0
    8.1405   -2.4797   -1.4806 H   0  0  0  0  0  0  0  0  0  0  0  0
    6.7599   -2.0634   -2.6292 H   0  0  0  0  0  0  0  0  0  0  0  0
    8.2597   -1.0470   -2.5434 H   0  0  0  0  0  0  0  0  0  0  0  0
    9.0722    1.6581    0.0193 H   0  0  0  0  0  0  0  0  0  0  0  0
    9.0741    0.9974   -1.6998 H   0  0  0  0  0  0  0  0  0  0  0  0
    9.7075    0.0207   -0.3568 H   0  0  0  0  0  0  0  0  0  0  0  0
  1  2  1  0
  2  3  1  0
  3  4  1  0
  4  5  1  0
  5  6  2  0
  6  7  1  0
  6  8  1  0
  8  9  1  0
  9 10  2  0
 10 11  1  0
 11 12  2  0
 12 13  1  0
 13 14  2  0
 13 15  1  0
 11 16  1  0
 16 17  1  0
 17 18  1  0
 18 19  1  0
 19 20  1  0
 20 21  1  0
 19 22  1  0
 22 23  2  0
 22 24  1  0
 24 25  2  0
 25 26  1  0
 26 27  2  0
 27 28  1  0
 28 29  2  0
 28 30  1  0
 30 31  2  0
 31 32  1  0
 32 33  1  0
 31 34  1  0
  7  2  1  0
 14  9  1  0
 21 16  1  0
 29 24  1  0
 10  5  1  0
 32 27  1  0
  1 35  1  0
  1 36  1  0
  1 37  1  0
  2 38  1  0
  3 39  1  0
  3 40  1  0
  4 41  1  0
  4 42  1  0
  7 43  1  0
  7 44  1  0
 15 45  1  0
 15 46  1  0
 15 47  1  0
 17 48  1  0
 17 49  1  0
 18 50  1  0
 18 51  1  0
 20 52  1  0
 20 53  1  0
 21 54  1  0
 21 55  1  0
 25 56  1  0
 26 57  1  0
 29 58  1  0
 33 59  1  0
 33 60  1  0
 33 61  1  0
 34 62  1  0
 34 63  1  0
 34 64  1  0
M  END
>  <Ligand ID>  (1) 
LIG0004007

>  <Ligand>  (1) 
MLS-0437138.0001

>  <SMILES>  (1) 
CC1CCc2c(C1)sc1c2c(nc(n1)C)N1CCN(CC1)C(=O)c1ccc2c(c1)nc(n2C)C

>  <CID>  (1) 
3197465.0

>  <ChEMBL ID>  (1) 
nan

>  <InChiKey>  (1) 
HOLAEUJDCSCFDT-UHFFFAOYSA-N

>  <InChi>  (1) 
InChI=1S/C26H30N6OS/c1-15-5-7-19-22(13-15)34-25-23(19)24(27-16(2)28-25)31-9-11-32(12-10-31)26(33)18-6-8-21-20(14-18)29-17(3)30(21)4/h6,8,14-15H,5,7,9-13H2,1-4H3

>  <IUPAC Name>  (1) 
(1,2-dimethylbenzimidazol-5-yl)-[4-(2,7-dimethyl-5,6,7,8-tetrahydro-[1]benzothiolo[2,3-d]pyrimidin-4-yl)piperazin-1-yl]methanone

$$$$
