
     RDKit          3D

 30 31  0  0  0  0  0  0  0  0999 V2000
    3.9311    0.0306    0.7173 C   0  0  0  0  0  0  0  0  0  0  0  0
    2.9392    0.1251   -0.3780 N   0  0  0  0  0  0  0  0  0  0  0  0
    1.6205    0.4281    0.2166 C   0  0  0  0  0  0  0  0  0  0  0  0
    0.7081    0.7806   -0.9338 C   0  0  0  0  0  0  0  0  0  0  0  0
   -0.6723    1.0661   -0.4615 C   0  0  0  0  0  0  0  0  0  0  0  0
   -1.1678    2.3113   -0.2354 C   0  0  0  0  0  0  0  0  0  0  0  0
   -2.4547    2.2048    0.2209 N   0  0  0  0  0  0  0  0  0  0  0  0
   -2.7650    0.8658    0.2781 C   0  0  0  0  0  0  0  0  0  0  0  0
   -1.6729    0.1429   -0.1412 C   0  0  0  0  0  0  0  0  0  0  0  0
   -1.6795   -1.2541   -0.2025 C   0  0  0  0  0  0  0  0  0  0  0  0
   -0.5679   -1.9407   -0.6239 F   0  0  0  0  0  0  0  0  0  0  0  0
   -2.8291   -1.9557    0.1724 C   0  0  0  0  0  0  0  0  0  0  0  0
   -3.9233   -1.2310    0.5926 C   0  0  0  0  0  0  0  0  0  0  0  0
   -3.8973    0.1716    0.6474 C   0  0  0  0  0  0  0  0  0  0  0  0
    2.8653   -1.2471   -0.8777 C   0  0  0  0  0  0  0  0  0  0  0  0
    3.8414    0.9144    1.3801 H   0  0  0  0  0  0  0  0  0  0  0  0
    4.9271    0.0011    0.1854 H   0  0  0  0  0  0  0  0  0  0  0  0
    3.7387   -0.8880    1.2981 H   0  0  0  0  0  0  0  0  0  0  0  0
    1.7216    1.2192    0.9750 H   0  0  0  0  0  0  0  0  0  0  0  0
    1.2822   -0.4899    0.7298 H   0  0  0  0  0  0  0  0  0  0  0  0
    0.6397   -0.1039   -1.6039 H   0  0  0  0  0  0  0  0  0  0  0  0
    1.0469    1.6432   -1.5340 H   0  0  0  0  0  0  0  0  0  0  0  0
   -0.7081    3.2967   -0.3551 H   0  0  0  0  0  0  0  0  0  0  0  0
   -3.1188    2.9379    0.4912 H   0  0  0  0  0  0  0  0  0  0  0  0
   -2.8487   -3.0558    0.1244 H   0  0  0  0  0  0  0  0  0  0  0  0
   -4.8122   -1.7879    0.8784 H   0  0  0  0  0  0  0  0  0  0  0  0
   -4.7708    0.6734    0.9841 H   0  0  0  0  0  0  0  0  0  0  0  0
    2.6046   -1.9084    0.0076 H   0  0  0  0  0  0  0  0  0  0  0  0
    2.1528   -1.4039   -1.6829 H   0  0  0  0  0  0  0  0  0  0  0  0
    3.8689   -1.5463   -1.2355 H   0  0  0  0  0  0  0  0  0  0  0  0
  1  2  1  0
  2  3  1  0
  3  4  1  0
  4  5  1  0
  5  6  2  0
  6  7  1  0
  7  8  1  0
  8  9  2  0
  9 10  1  0
 10 11  1  0
 10 12  2  0
 12 13  1  0
 13 14  2  0
  2 15  1  0
  9  5  1  0
 14  8  1  0
  1 16  1  0
  1 17  1  0
  1 18  1  0
  3 19  1  0
  3 20  1  0
  4 21  1  0
  4 22  1  0
  6 23  1  0
  7 24  1  0
 12 25  1  0
 13 26  1  0
 14 27  1  0
 15 28  1  0
 15 29  1  0
 15 30  1  0
M  END
>  <Ligand ID>  (1) 
LIG0004538

>  <Ligand>  (1) 
CHEMBL197646

>  <SMILES>  (1) 
CN(CCc1c[nH]c2c1c(F)ccc2)C

>  <CID>  (1) 
11492162.0

>  <ChEMBL ID>  (1) 
nan

>  <InChiKey>  (1) 
ISJZKVWGUWBUFG-UHFFFAOYSA-N

>  <InChi>  (1) 
InChI=1S/C12H15FN2/c1-15(2)7-6-9-8-14-11-5-3-4-10(13)12(9)11/h3-5,8,14H,6-7H2,1-2H3

>  <IUPAC Name>  (1) 
2-(4-fluoro-1H-indol-3-yl)-N,N-dimethylethanamine

$$$$
