
     RDKit          3D

 44 47  0  0  0  0  0  0  0  0999 V2000
    5.4936   -3.1650   -0.7774 Cl  0  0  0  0  0  0  0  0  0  0  0  0
    4.5399   -1.8398   -0.1495 C   0  0  0  0  0  0  0  0  0  0  0  0
    3.1952   -2.0408    0.1811 C   0  0  0  0  0  0  0  0  0  0  0  0
    2.4137   -1.0110    0.6806 C   0  0  0  0  0  0  0  0  0  0  0  0
    2.9884    0.2381    0.8511 C   0  0  0  0  0  0  0  0  0  0  0  0
    4.3239    0.4102    0.5155 C   0  0  0  0  0  0  0  0  0  0  0  0
    5.1130   -0.5930    0.0210 C   0  0  0  0  0  0  0  0  0  0  0  0
    6.5521   -0.3637   -0.3295 C   0  0  0  0  0  0  0  0  0  0  0  0
    6.8705    0.9678   -0.0628 F   0  0  0  0  0  0  0  0  0  0  0  0
    6.7168   -0.4937   -1.7081 F   0  0  0  0  0  0  0  0  0  0  0  0
    7.3846   -1.1995    0.3678 F   0  0  0  0  0  0  0  0  0  0  0  0
    2.1953    1.3961    1.3861 C   0  0  0  0  0  0  0  0  0  0  0  0
    1.4772    2.2037   -0.0681 S   0  0  0  0  0  0  0  0  0  0  0  0
    0.2775    1.1820   -0.9059 C   0  0  0  0  0  0  0  0  0  0  0  0
    0.6387    0.3147   -1.8928 N   0  0  0  0  0  0  0  0  0  0  0  0
   -0.4588   -0.2894   -2.3165 N   0  0  0  0  0  0  0  0  0  0  0  0
   -1.4904    0.2017   -1.5961 C   0  0  0  0  0  0  0  0  0  0  0  0
   -1.0576    1.1144   -0.7166 N   0  0  0  0  0  0  0  0  0  0  0  0
   -1.8316    1.8674    0.2216 C   0  0  0  0  0  0  0  0  0  0  0  0
   -1.9849    1.2025    1.5400 C   0  0  0  0  0  0  0  0  0  0  0  0
   -3.0379    0.3377    1.8090 C   0  0  0  0  0  0  0  0  0  0  0  0
   -2.8834   -0.1054    3.1241 C   0  0  0  0  0  0  0  0  0  0  0  0
   -1.7369    0.5261    3.5682 C   0  0  0  0  0  0  0  0  0  0  0  0
   -1.2469    1.2782    2.6119 O   0  0  0  0  0  0  0  0  0  0  0  0
   -2.8654   -0.2622   -1.8172 C   0  0  0  0  0  0  0  0  0  0  0  0
   -3.7403    0.4208   -2.6525 C   0  0  0  0  0  0  0  0  0  0  0  0
   -5.0024   -0.1066   -2.7855 C   0  0  0  0  0  0  0  0  0  0  0  0
   -5.3993   -1.2631   -2.1253 C   0  0  0  0  0  0  0  0  0  0  0  0
   -4.4580   -1.8640   -1.3214 C   0  0  0  0  0  0  0  0  0  0  0  0
   -3.2306   -1.3863   -1.1672 N   0  0  0  0  0  0  0  0  0  0  0  0
    2.8096   -3.0403    0.0231 H   0  0  0  0  0  0  0  0  0  0  0  0
    1.3742   -1.1811    0.9320 H   0  0  0  0  0  0  0  0  0  0  0  0
    4.7465    1.4142    0.6642 H   0  0  0  0  0  0  0  0  0  0  0  0
    1.4399    1.0808    2.1032 H   0  0  0  0  0  0  0  0  0  0  0  0
    2.9278    2.1222    1.7971 H   0  0  0  0  0  0  0  0  0  0  0  0
   -2.8186    2.1060   -0.2407 H   0  0  0  0  0  0  0  0  0  0  0  0
   -1.3731    2.8711    0.4325 H   0  0  0  0  0  0  0  0  0  0  0  0
   -3.8507    0.0273    1.1680 H   0  0  0  0  0  0  0  0  0  0  0  0
   -3.5022   -0.7842    3.6869 H   0  0  0  0  0  0  0  0  0  0  0  0
   -1.2628    0.4562    4.5392 H   0  0  0  0  0  0  0  0  0  0  0  0
   -3.4009    1.3192   -3.1530 H   0  0  0  0  0  0  0  0  0  0  0  0
   -5.7215    0.3859   -3.4231 H   0  0  0  0  0  0  0  0  0  0  0  0
   -6.3893   -1.6860   -2.2235 H   0  0  0  0  0  0  0  0  0  0  0  0
   -4.7349   -2.7695   -0.7911 H   0  0  0  0  0  0  0  0  0  0  0  0
  1  2  1  0
  2  3  2  0
  3  4  1  0
  4  5  2  0
  5  6  1  0
  6  7  2  0
  7  8  1  0
  8  9  1  0
  8 10  1  0
  8 11  1  0
  5 12  1  0
 12 13  1  0
 13 14  1  0
 14 15  2  0
 15 16  1  0
 16 17  2  0
 17 18  1  0
 18 19  1  0
 19 20  1  0
 20 21  2  0
 21 22  1  0
 22 23  2  0
 23 24  1  0
 17 25  1  0
 25 26  2  0
 26 27  1  0
 27 28  2  0
 28 29  1  0
 29 30  2  0
  7  2  1  0
 18 14  1  0
 24 20  1  0
 30 25  1  0
  3 31  1  0
  4 32  1  0
  6 33  1  0
 12 34  1  0
 12 35  1  0
 19 36  1  0
 19 37  1  0
 21 38  1  0
 22 39  1  0
 23 40  1  0
 26 41  1  0
 27 42  1  0
 28 43  1  0
 29 44  1  0
M  END
>  <Ligand ID>  (1) 
LIG0002764

>  <Ligand>  (1) 
KUC104190N

>  <SMILES>  (1) 
Clc1ccc(cc1C(F)(F)F)CSc1nnc(n1Cc1ccco1)c1ccccn1

>  <CID>  (1) 
44620914.0

>  <ChEMBL ID>  (1) 
nan

>  <InChiKey>  (1) 
QOKCJVIMDZJKFH-UHFFFAOYSA-N

>  <InChi>  (1) 
InChI=1S/C20H14ClF3N4OS/c21-16-7-6-13(10-15(16)20(22,23)24)12-30-19-27-26-18(17-5-1-2-8-25-17)28(19)11-14-4-3-9-29-14/h1-10H,11-12H2

>  <IUPAC Name>  (1) 
2-[5-[[4-chloro-3-(trifluoromethyl)phenyl]methylsulfanyl]-4-(furan-2-ylmethyl)-1,2,4-triazol-3-yl]pyridine

$$$$
