
     RDKit          3D

 45 48  0  0  0  0  0  0  0  0999 V2000
    6.0468    1.8357    1.3141 C   0  0  0  0  0  0  0  0  0  0  0  0
    5.1205    2.3942    0.4703 C   0  0  0  0  0  0  0  0  0  0  0  0
    4.0457    1.6374    0.0123 C   0  0  0  0  0  0  0  0  0  0  0  0
    3.8533    0.3276    0.3660 C   0  0  0  0  0  0  0  0  0  0  0  0
    4.8118   -0.2166    1.2266 C   0  0  0  0  0  0  0  0  0  0  0  0
    5.8820    0.5228    1.6878 C   0  0  0  0  0  0  0  0  0  0  0  0
    2.7297   -0.4835   -0.1040 C   0  0  0  0  0  0  0  0  0  0  0  0
    1.8015   -0.0132   -0.9107 C   0  0  0  0  0  0  0  0  0  0  0  0
    0.6487   -0.8148   -1.4042 C   0  0  0  0  0  0  0  0  0  0  0  0
    0.4880   -2.0522   -0.7306 N   0  0  0  0  0  0  0  0  0  0  0  0
    1.7309   -2.7254   -0.4311 C   0  0  0  0  0  0  0  0  0  0  0  0
    2.6719   -1.9015    0.3767 C   0  0  0  0  0  0  0  0  0  0  0  0
   -0.3026   -1.9925    0.4633 C   0  0  0  0  0  0  0  0  0  0  0  0
   -1.6802   -1.5199    0.1722 C   0  0  0  0  0  0  0  0  0  0  0  0
   -2.6999   -2.4199   -0.1587 C   0  0  0  0  0  0  0  0  0  0  0  0
   -3.7860   -1.6508   -0.3484 N   0  0  0  0  0  0  0  0  0  0  0  0
   -3.4957   -0.3751   -0.1581 N   0  0  0  0  0  0  0  0  0  0  0  0
   -2.1924   -0.2395    0.1692 C   0  0  0  0  0  0  0  0  0  0  0  0
   -4.4201    0.7002   -0.2798 C   0  0  0  0  0  0  0  0  0  0  0  0
   -4.0787    1.9797    0.1124 C   0  0  0  0  0  0  0  0  0  0  0  0
   -5.0057    2.9976   -0.0221 C   0  0  0  0  0  0  0  0  0  0  0  0
   -6.2711    2.7913   -0.5362 C   0  0  0  0  0  0  0  0  0  0  0  0
   -6.6079    1.5103   -0.9270 C   0  0  0  0  0  0  0  0  0  0  0  0
   -5.6825    0.4879   -0.7940 C   0  0  0  0  0  0  0  0  0  0  0  0
    6.8726    2.4463    1.6551 H   0  0  0  0  0  0  0  0  0  0  0  0
    5.2558    3.4338    0.1776 H   0  0  0  0  0  0  0  0  0  0  0  0
    3.3637    2.1490   -0.6461 H   0  0  0  0  0  0  0  0  0  0  0  0
    4.7552   -1.2405    1.5682 H   0  0  0  0  0  0  0  0  0  0  0  0
    6.6216    0.0819    2.3596 H   0  0  0  0  0  0  0  0  0  0  0  0
    1.8389    1.0163   -1.2630 H   0  0  0  0  0  0  0  0  0  0  0  0
   -0.2743   -0.2321   -1.3659 H   0  0  0  0  0  0  0  0  0  0  0  0
    0.8783   -1.0359   -2.4826 H   0  0  0  0  0  0  0  0  0  0  0  0
    1.4624   -3.6263    0.1795 H   0  0  0  0  0  0  0  0  0  0  0  0
    2.2476   -3.0980   -1.3236 H   0  0  0  0  0  0  0  0  0  0  0  0
    3.6972   -2.3351    0.2199 H   0  0  0  0  0  0  0  0  0  0  0  0
    2.4104   -1.8369    1.4461 H   0  0  0  0  0  0  0  0  0  0  0  0
    0.2190   -1.2689    1.1558 H   0  0  0  0  0  0  0  0  0  0  0  0
   -0.3137   -2.9514    1.0201 H   0  0  0  0  0  0  0  0  0  0  0  0
   -2.6087   -3.5103   -0.2394 H   0  0  0  0  0  0  0  0  0  0  0  0
   -1.6544    0.6496    0.3833 H   0  0  0  0  0  0  0  0  0  0  0  0
   -3.1005    2.1829    0.5188 H   0  0  0  0  0  0  0  0  0  0  0  0
   -4.7560    4.0231    0.2833 H   0  0  0  0  0  0  0  0  0  0  0  0
   -7.0076    3.5771   -0.6478 H   0  0  0  0  0  0  0  0  0  0  0  0
   -7.5863    1.3241   -1.3299 H   0  0  0  0  0  0  0  0  0  0  0  0
   -5.9288   -0.5287   -1.0963 H   0  0  0  0  0  0  0  0  0  0  0  0
  1  2  2  0
  2  3  1  0
  3  4  2  0
  4  5  1  0
  5  6  2  0
  4  7  1  0
  7  8  2  0
  8  9  1  0
  9 10  1  0
 10 11  1  0
 11 12  1  0
 10 13  1  0
 13 14  1  0
 14 15  1  0
 15 16  2  0
 16 17  1  0
 17 18  1  0
 17 19  1  0
 19 20  2  0
 20 21  1  0
 21 22  2  0
 22 23  1  0
 23 24  2  0
  6  1  1  0
 12  7  1  0
 18 14  2  0
 24 19  1  0
  1 25  1  0
  2 26  1  0
  3 27  1  0
  5 28  1  0
  6 29  1  0
  8 30  1  0
  9 31  1  0
  9 32  1  0
 11 33  1  0
 11 34  1  0
 12 35  1  0
 12 36  1  0
 13 37  1  0
 13 38  1  0
 15 39  1  0
 18 40  1  0
 20 41  1  0
 21 42  1  0
 22 43  1  0
 23 44  1  0
 24 45  1  0
M  END
>  <Ligand ID>  (1) 
LIG0003129

>  <Ligand>  (1) 
CHEMBL378455

>  <SMILES>  (1) 
c1ccc(cc1)C1=CCN(CC1)Cc1cnn(c1)c1ccccc1

>  <CID>  (1) 
11983282.0

>  <ChEMBL ID>  (1) 
nan

>  <InChiKey>  (1) 
UOKGFRGTMUWXQL-UHFFFAOYSA-N

>  <InChi>  (1) 
InChI=1S/C21H21N3/c1-3-7-19(8-4-1)20-11-13-23(14-12-20)16-18-15-22-24(17-18)21-9-5-2-6-10-21/h1-11,15,17H,12-14,16H2

>  <IUPAC Name>  (1) 
4-phenyl-1-[(1-phenylpyrazol-4-yl)methyl]-3,6-dihydro-2H-pyridine

$$$$
