
     RDKit          3D

 50 53  0  0  0  0  0  0  0  0999 V2000
    3.1361    2.5646   -1.0896 O   0  0  0  0  0  0  0  0  0  0  0  0
    3.0401    1.3627   -0.7090 C   0  0  0  0  0  0  0  0  0  0  0  0
    1.6811    0.8511   -0.5478 C   0  0  0  0  0  0  0  0  0  0  0  0
    1.1689   -0.1756   -1.3203 C   0  0  0  0  0  0  0  0  0  0  0  0
   -0.1335   -0.6099   -1.1128 C   0  0  0  0  0  0  0  0  0  0  0  0
   -0.8993   -0.0031   -0.1304 C   0  0  0  0  0  0  0  0  0  0  0  0
   -0.4134    1.0229    0.6543 C   0  0  0  0  0  0  0  0  0  0  0  0
    0.8878    1.4436    0.4340 C   0  0  0  0  0  0  0  0  0  0  0  0
   -1.4394    1.3836    1.5191 O   0  0  0  0  0  0  0  0  0  0  0  0
   -2.3462    0.2867    1.6584 C   0  0  0  0  0  0  0  0  0  0  0  0
   -2.3248   -0.3043    0.2693 C   0  0  0  0  0  0  0  0  0  0  0  0
   -2.4877   -1.7893    0.2615 C   0  0  0  0  0  0  0  0  0  0  0  0
   -3.1819    0.4554   -0.6371 C   0  0  0  0  0  0  0  0  0  0  0  0
   -4.6259    0.3792   -0.5095 C   0  0  0  0  0  0  0  0  0  0  0  0
   -5.3207   -0.6168   -1.1943 C   0  0  0  0  0  0  0  0  0  0  0  0
   -6.6934   -0.7413   -1.1202 C   0  0  0  0  0  0  0  0  0  0  0  0
   -7.4449    0.1094   -0.3685 C   0  0  0  0  0  0  0  0  0  0  0  0
   -6.7836    1.1150    0.3274 C   0  0  0  0  0  0  0  0  0  0  0  0
   -5.4122    1.2338    0.2491 C   0  0  0  0  0  0  0  0  0  0  0  0
    4.1989    0.5698   -0.4571 N   0  0  0  0  0  0  0  0  0  0  0  0
    4.0134   -0.7847   -0.0279 C   0  0  0  0  0  0  0  0  0  0  0  0
    5.2442   -1.4442    0.5157 C   0  0  0  0  0  0  0  0  0  0  0  0
    6.5260   -0.9667   -0.1340 C   0  0  0  0  0  0  0  0  0  0  0  0
    6.5934    0.5234    0.1379 C   0  0  0  0  0  0  0  0  0  0  0  0
    5.4943    1.1916   -0.6535 C   0  0  0  0  0  0  0  0  0  0  0  0
    1.7602   -0.6342   -2.0706 H   0  0  0  0  0  0  0  0  0  0  0  0
   -0.5660   -1.4167   -1.7053 H   0  0  0  0  0  0  0  0  0  0  0  0
    1.2527    2.2497    1.0588 H   0  0  0  0  0  0  0  0  0  0  0  0
   -1.9615   -0.4435    2.4105 H   0  0  0  0  0  0  0  0  0  0  0  0
   -3.3068    0.7256    1.9448 H   0  0  0  0  0  0  0  0  0  0  0  0
   -3.0315   -2.0417    1.2183 H   0  0  0  0  0  0  0  0  0  0  0  0
   -1.4850   -2.2931    0.3974 H   0  0  0  0  0  0  0  0  0  0  0  0
   -2.9295   -2.2264   -0.6310 H   0  0  0  0  0  0  0  0  0  0  0  0
   -2.9377    0.1709   -1.7020 H   0  0  0  0  0  0  0  0  0  0  0  0
   -2.9049    1.5432   -0.5795 H   0  0  0  0  0  0  0  0  0  0  0  0
   -4.8128   -1.3458   -1.8223 H   0  0  0  0  0  0  0  0  0  0  0  0
   -7.1997   -1.5358   -1.6720 H   0  0  0  0  0  0  0  0  0  0  0  0
   -8.5145    0.0317   -0.2956 H   0  0  0  0  0  0  0  0  0  0  0  0
   -7.4068    1.7840    0.9217 H   0  0  0  0  0  0  0  0  0  0  0  0
   -4.9328    2.0291    0.7995 H   0  0  0  0  0  0  0  0  0  0  0  0
    3.6985   -1.4171   -0.9091 H   0  0  0  0  0  0  0  0  0  0  0  0
    3.2086   -0.7822    0.7374 H   0  0  0  0  0  0  0  0  0  0  0  0
    5.3305   -1.3155    1.6084 H   0  0  0  0  0  0  0  0  0  0  0  0
    5.2285   -2.5596    0.3335 H   0  0  0  0  0  0  0  0  0  0  0  0
    7.3575   -1.4998    0.3596 H   0  0  0  0  0  0  0  0  0  0  0  0
    6.5207   -1.1579   -1.2269 H   0  0  0  0  0  0  0  0  0  0  0  0
    6.3863    0.6497    1.2145 H   0  0  0  0  0  0  0  0  0  0  0  0
    7.5525    0.9708   -0.1665 H   0  0  0  0  0  0  0  0  0  0  0  0
    5.7893    1.2076   -1.7259 H   0  0  0  0  0  0  0  0  0  0  0  0
    5.4265    2.2504   -0.3045 H   0  0  0  0  0  0  0  0  0  0  0  0
  1  2  2  0
  2  3  1  0
  3  4  2  0
  4  5  1  0
  5  6  2  0
  6  7  1  0
  7  8  2  0
  7  9  1  0
  9 10  1  0
 10 11  1  0
 11 12  1  0
 11 13  1  0
 13 14  1  0
 14 15  2  0
 15 16  1  0
 16 17  2  0
 17 18  1  0
 18 19  2  0
  2 20  1  0
 20 21  1  0
 21 22  1  0
 22 23  1  0
 23 24  1  0
 24 25  1  0
  8  3  1  0
 19 14  1  0
 25 20  1  0
 11  6  1  0
  4 26  1  0
  5 27  1  0
  8 28  1  0
 10 29  1  0
 10 30  1  0
 12 31  1  0
 12 32  1  0
 12 33  1  0
 13 34  1  0
 13 35  1  0
 15 36  1  0
 16 37  1  0
 17 38  1  0
 18 39  1  0
 19 40  1  0
 21 41  1  0
 21 42  1  0
 22 43  1  0
 22 44  1  0
 23 45  1  0
 23 46  1  0
 24 47  1  0
 24 48  1  0
 25 49  1  0
 25 50  1  0
M  END
>  <Ligand ID>  (1) 
LIG0001668

>  <Ligand>  (1) 
CHEMBL495528

>  <SMILES>  (1) 
O=C(c1ccc2c(c1)OCC2(C)Cc1ccccc1)N1CCCCC1

>  <CID>  (1) 
24766011.0

>  <ChEMBL ID>  (1) 
nan

>  <InChiKey>  (1) 
ZEMCXAZYSOBAGF-UHFFFAOYSA-N

>  <InChi>  (1) 
InChI=1S/C22H25NO2/c1-22(15-17-8-4-2-5-9-17)16-25-20-14-18(10-11-19(20)22)21(24)23-12-6-3-7-13-23/h2,4-5,8-11,14H,3,6-7,12-13,15-16H2,1H3

>  <IUPAC Name>  (1) 
(3-benzyl-3-methyl-2H-1-benzofuran-6-yl)-piperidin-1-ylmethanone

$$$$
