
     RDKit          3D

 12 11  0  0  0  0  0  0  0  0999 V2000
    1.9889    0.2066    0.0563 C   0  0  0  0  0  0  0  0  0  0  0  0
    0.5195    0.3958    0.0394 C   0  0  0  0  0  0  0  0  0  0  0  0
   -0.2449   -0.6104    0.4290 C   0  0  0  0  0  0  0  0  0  0  0  0
   -1.7075   -0.4307    0.4152 C   0  0  0  0  0  0  0  0  0  0  0  0
   -2.4591   -1.3948    0.7892 O   0  0  0  0  0  0  0  0  0  0  0  0
   -2.2721    0.7507    0.0088 O   0  0  0  0  0  0  0  0  0  0  0  0
    2.2902   -0.6137   -0.6023 H   0  0  0  0  0  0  0  0  0  0  0  0
    2.3176    0.0096    1.1173 H   0  0  0  0  0  0  0  0  0  0  0  0
    2.5199    1.1384   -0.2340 H   0  0  0  0  0  0  0  0  0  0  0  0
    0.1110    1.3375   -0.2860 H   0  0  0  0  0  0  0  0  0  0  0  0
    0.1680   -1.5544    0.7550 H   0  0  0  0  0  0  0  0  0  0  0  0
   -3.2314    0.7653   -0.3393 H   0  0  0  0  0  0  0  0  0  0  0  0
  1  2  1  0
  2  3  2  0
  3  4  1  0
  4  5  2  0
  4  6  1  0
  1  7  1  0
  1  8  1  0
  1  9  1  0
  2 10  1  0
  3 11  1  0
  6 12  1  0
M  END
>  <Ligand ID>  (1) 
LIG0000722

>  <Ligand>  (1) 
Crotonic acid

>  <SMILES>  (1) 
C/C=C/C(=O)O

>  <CID>  (1) 
637090.0

>  <ChEMBL ID>  (1) 
nan

>  <InChiKey>  (1) 
LDHQCZJRKDOVOX-NSCUHMNNSA-N

>  <InChi>  (1) 
InChI=1S/C4H6O2/c1-2-3-4(5)6/h2-3H,1H3,(H,5,6)/b3-2+

>  <IUPAC Name>  (1) 
(E)-but-2-enoic acid

$$$$
