
     RDKit          3D

 16 16  0  0  0  0  0  0  0  0999 V2000
   -2.7387   -0.2174   -0.1821 C   0  0  0  0  0  0  0  0  0  0  0  0
   -1.5992    0.5113    0.4264 C   0  0  0  0  0  0  0  0  0  0  0  0
   -1.8993    1.4617    1.2171 O   0  0  0  0  0  0  0  0  0  0  0  0
   -0.2107    0.1681    0.1429 C   0  0  0  0  0  0  0  0  0  0  0  0
    0.7819    0.8988    0.7528 C   0  0  0  0  0  0  0  0  0  0  0  0
    2.1110    0.6063    0.5115 C   0  0  0  0  0  0  0  0  0  0  0  0
    2.4395   -0.4299   -0.3505 C   0  0  0  0  0  0  0  0  0  0  0  0
    1.4271   -1.1573   -0.9578 C   0  0  0  0  0  0  0  0  0  0  0  0
    0.1504   -0.8281   -0.6858 N   0  0  0  0  0  0  0  0  0  0  0  0
   -3.5934    0.4582   -0.4064 H   0  0  0  0  0  0  0  0  0  0  0  0
   -3.0952   -1.0618    0.4553 H   0  0  0  0  0  0  0  0  0  0  0  0
   -2.3408   -0.6432   -1.1448 H   0  0  0  0  0  0  0  0  0  0  0  0
    0.5657    1.7054    1.4239 H   0  0  0  0  0  0  0  0  0  0  0  0
    2.8937    1.1920    1.0003 H   0  0  0  0  0  0  0  0  0  0  0  0
    3.4700   -0.6903   -0.5657 H   0  0  0  0  0  0  0  0  0  0  0  0
    1.6378   -1.9739   -1.6372 H   0  0  0  0  0  0  0  0  0  0  0  0
  1  2  1  0
  2  3  2  0
  2  4  1  0
  4  5  2  0
  5  6  1  0
  6  7  2  0
  7  8  1  0
  8  9  2  0
  9  4  1  0
  1 10  1  0
  1 11  1  0
  1 12  1  0
  5 13  1  0
  6 14  1  0
  7 15  1  0
  8 16  1  0
M  END
>  <Ligand ID>  (1) 
LIG0000329

>  <Ligand>  (1) 
2-Acetylpyridine

>  <SMILES>  (1) 
CC(=O)c1ccccn1

>  <CID>  (1) 
14286.0

>  <ChEMBL ID>  (1) 
nan

>  <InChiKey>  (1) 
AJKVQEKCUACUMD-UHFFFAOYSA-N

>  <InChi>  (1) 
InChI=1S/C7H7NO/c1-6(9)7-4-2-3-5-8-7/h2-5H,1H3

>  <IUPAC Name>  (1) 
1-pyridin-2-ylethanone

$$$$
