
     RDKit          3D

 19 19  0  0  0  0  0  0  0  0999 V2000
   -3.6506   -0.6223    0.4728 O   0  0  0  0  0  0  0  0  0  0  0  0
   -2.4575   -0.2213    0.5094 C   0  0  0  0  0  0  0  0  0  0  0  0
   -1.9521    1.0649    0.8844 N   0  0  0  0  0  0  0  0  0  0  0  0
   -0.5797    1.0377    0.8148 O   0  0  0  0  0  0  0  0  0  0  0  0
   -0.3567    0.1565   -0.2403 C   0  0  0  0  0  0  0  0  0  0  0  0
   -1.2129   -1.0040    0.1609 C   0  0  0  0  0  0  0  0  0  0  0  0
    1.0697   -0.1340   -0.4887 C   0  0  0  0  0  0  0  0  0  0  0  0
    1.7415    1.1534   -0.8094 C   0  0  0  0  0  0  0  0  0  0  0  0
    1.2332    2.2670   -0.4774 O   0  0  0  0  0  0  0  0  0  0  0  0
    2.9591    1.0728   -1.4940 O   0  0  0  0  0  0  0  0  0  0  0  0
    1.7536   -0.7273    0.6209 N   0  0  0  0  0  0  0  0  0  0  0  0
   -2.5574    1.8823    1.1639 H   0  0  0  0  0  0  0  0  0  0  0  0
   -0.8011    0.6180   -1.1375 H   0  0  0  0  0  0  0  0  0  0  0  0
   -1.3888   -1.7351   -0.6310 H   0  0  0  0  0  0  0  0  0  0  0  0
   -0.9169   -1.4824    1.1059 H   0  0  0  0  0  0  0  0  0  0  0  0
    1.1365   -0.7328   -1.4214 H   0  0  0  0  0  0  0  0  0  0  0  0
    2.0507    0.0221    1.2918 H   0  0  0  0  0  0  0  0  0  0  0  0
    1.2602   -1.5158    1.0800 H   0  0  0  0  0  0  0  0  0  0  0  0
    2.6692   -1.0996    0.2269 H   0  0  0  0  0  0  0  0  0  0  0  0
  1  2  2  0
  2  3  1  0
  3  4  1  0
  4  5  1  0
  5  6  1  0
  5  7  1  0
  7  8  1  0
  8  9  2  0
  8 10  1  0
  7 11  1  0
  6  2  1  0
  3 12  1  0
  5 13  1  0
  6 14  1  0
  6 15  1  0
  7 16  1  0
 11 17  1  0
 11 18  1  0
 11 19  1  0
M  CHG  2  10  -1  11   1
M  END
>  <Ligand ID>  (1) 
LIG0002880

>  <Ligand>  (1) 
CID 59951973

>  <SMILES>  (1) 
O=C1NOC(C1)C(C(=O)[O-])[NH3+]

>  <CID>  (1) 
59951973.0

>  <ChEMBL ID>  (1) 
nan

>  <InChiKey>  (1) 
NTHMUJMQOXQYBR-UHFFFAOYSA-N

>  <InChi>  (1) 
InChI=1S/C5H8N2O4/c6-4(5(9)10)2-1-3(8)7-11-2/h2,4H,1,6H2,(H,7,8)(H,9,10)

>  <IUPAC Name>  (1) 
2-azaniumyl-2-(3-oxo-1,2-oxazolidin-5-yl)acetate

$$$$
