
     RDKit          3D

 39 40  0  0  0  0  0  0  0  0999 V2000
   -1.4108   -1.6618   -0.8954 C   0  0  0  0  0  0  0  0  0  0  0  0
   -2.3352   -0.5815   -0.4356 C   0  0  0  0  0  0  0  0  0  0  0  0
   -1.8293    0.7503   -0.7840 N   0  0  0  0  0  0  0  0  0  0  0  0
   -0.9848    1.4907    0.0849 C   0  0  0  0  0  0  0  0  0  0  0  0
   -0.5401    2.6380   -0.1984 O   0  0  0  0  0  0  0  0  0  0  0  0
   -0.6008    0.9136    1.3738 C   0  0  0  0  0  0  0  0  0  0  0  0
   -1.4211    1.1763    2.4506 C   0  0  0  0  0  0  0  0  0  0  0  0
   -1.0702    0.6366    3.6771 C   0  0  0  0  0  0  0  0  0  0  0  0
    0.0533   -0.1427    3.8585 C   0  0  0  0  0  0  0  0  0  0  0  0
    0.8594   -0.3893    2.7545 C   0  0  0  0  0  0  0  0  0  0  0  0
    0.5485    0.1290    1.5095 C   0  0  0  0  0  0  0  0  0  0  0  0
    1.3533   -0.1116    0.3853 O   0  0  0  0  0  0  0  0  0  0  0  0
    2.5055   -0.9052    0.5491 C   0  0  0  0  0  0  0  0  0  0  0  0
    3.2666   -1.0822   -0.7140 C   0  0  0  0  0  0  0  0  0  0  0  0
    3.0949   -2.0848   -1.6387 C   0  0  0  0  0  0  0  0  0  0  0  0
    4.0074   -1.8262   -2.6066 N   0  0  0  0  0  0  0  0  0  0  0  0
    4.7023   -0.7160   -2.2842 C   0  0  0  0  0  0  0  0  0  0  0  0
    4.2445   -0.2474   -1.1042 N   0  0  0  0  0  0  0  0  0  0  0  0
   -2.1886    1.3597   -2.0577 C   0  0  0  0  0  0  0  0  0  0  0  0
   -3.4643    2.1517   -1.8330 C   0  0  0  0  0  0  0  0  0  0  0  0
   -2.0173   -2.5194   -1.2352 H   0  0  0  0  0  0  0  0  0  0  0  0
   -0.7479   -2.0180   -0.0724 H   0  0  0  0  0  0  0  0  0  0  0  0
   -0.8365   -1.2791   -1.7598 H   0  0  0  0  0  0  0  0  0  0  0  0
   -3.3152   -0.6992   -0.9419 H   0  0  0  0  0  0  0  0  0  0  0  0
   -2.5390   -0.6500    0.6626 H   0  0  0  0  0  0  0  0  0  0  0  0
   -2.3154    1.7895    2.3343 H   0  0  0  0  0  0  0  0  0  0  0  0
   -1.7265    0.8537    4.5116 H   0  0  0  0  0  0  0  0  0  0  0  0
    0.3002   -0.5482    4.8231 H   0  0  0  0  0  0  0  0  0  0  0  0
    1.7457   -0.9996    2.8799 H   0  0  0  0  0  0  0  0  0  0  0  0
    3.1550   -0.3846    1.3078 H   0  0  0  0  0  0  0  0  0  0  0  0
    2.2609   -1.8982    0.9984 H   0  0  0  0  0  0  0  0  0  0  0  0
    2.3877   -2.9095   -1.6129 H   0  0  0  0  0  0  0  0  0  0  0  0
    5.5013   -0.2379   -2.8396 H   0  0  0  0  0  0  0  0  0  0  0  0
    4.5764    0.6064   -0.5747 H   0  0  0  0  0  0  0  0  0  0  0  0
   -1.3782    1.9977   -2.4585 H   0  0  0  0  0  0  0  0  0  0  0  0
   -2.4383    0.5161   -2.7404 H   0  0  0  0  0  0  0  0  0  0  0  0
   -3.3939    2.7530   -0.9178 H   0  0  0  0  0  0  0  0  0  0  0  0
   -3.7305    2.7390   -2.7367 H   0  0  0  0  0  0  0  0  0  0  0  0
   -4.2788    1.3907   -1.7192 H   0  0  0  0  0  0  0  0  0  0  0  0
  1  2  1  0
  2  3  1  0
  3  4  1  0
  4  5  2  0
  4  6  1  0
  6  7  2  0
  7  8  1  0
  8  9  2  0
  9 10  1  0
 10 11  2  0
 11 12  1  0
 12 13  1  0
 13 14  1  0
 14 15  2  0
 15 16  1  0
 16 17  2  0
 17 18  1  0
  3 19  1  0
 19 20  1  0
 11  6  1  0
 18 14  1  0
  1 21  1  0
  1 22  1  0
  1 23  1  0
  2 24  1  0
  2 25  1  0
  7 26  1  0
  8 27  1  0
  9 28  1  0
 10 29  1  0
 13 30  1  0
 13 31  1  0
 15 32  1  0
 17 33  1  0
 18 34  1  0
 19 35  1  0
 19 36  1  0
 20 37  1  0
 20 38  1  0
 20 39  1  0
M  END
>  <Ligand ID>  (1) 
LIG0004369

>  <Ligand>  (1) 
CHEMBL326837

>  <SMILES>  (1) 
CCN(C(=O)c1ccccc1OCc1cnc[nH]1)CC

>  <CID>  (1) 
44343524.0

>  <ChEMBL ID>  (1) 
nan

>  <InChiKey>  (1) 
ATKNWVZEWKNQHH-UHFFFAOYSA-N

>  <InChi>  (1) 
InChI=1S/C15H19N3O2/c1-3-18(4-2)15(19)13-7-5-6-8-14(13)20-10-12-9-16-11-17-12/h5-9,11H,3-4,10H2,1-2H3,(H,16,17)

>  <IUPAC Name>  (1) 
N,N-diethyl-2-(1H-imidazol-5-ylmethoxy)benzamide

$$$$
