
     RDKit          3D

 52 54  0  0  0  0  0  0  0  0999 V2000
    4.2920    0.2302   -0.1015 O   0  0  0  0  0  0  0  0  0  0  0  0
    4.4626   -1.0031   -0.1950 C   0  0  0  0  0  0  0  0  0  0  0  0
    5.8586   -1.5029   -0.0988 C   0  0  0  0  0  0  0  0  0  0  0  0
    6.8100   -0.3418    0.1065 C   0  0  0  0  0  0  0  0  0  0  0  0
    7.0503    0.0570    1.4635 C   0  0  0  0  0  0  0  0  0  0  0  0
    8.2464    1.4620    1.1850 S   0  0  0  0  0  0  0  0  0  0  0  0
    8.2507    1.3210   -0.5874 C   0  0  0  0  0  0  0  0  0  0  0  0
    7.4000    0.2861   -0.8195 N   0  0  0  0  0  0  0  0  0  0  0  0
    8.9874    2.1222   -1.5266 N   0  0  0  0  0  0  0  0  0  0  0  0
    3.4049   -1.9146   -0.3838 N   0  0  0  0  0  0  0  0  0  0  0  0
    2.0362   -1.5905   -0.4933 C   0  0  0  0  0  0  0  0  0  0  0  0
    1.5033   -0.3354   -0.4414 C   0  0  0  0  0  0  0  0  0  0  0  0
    0.1330   -0.1105   -0.5576 C   0  0  0  0  0  0  0  0  0  0  0  0
   -0.7440   -1.1589   -0.7309 C   0  0  0  0  0  0  0  0  0  0  0  0
   -0.2076   -2.4247   -0.7833 C   0  0  0  0  0  0  0  0  0  0  0  0
    1.1297   -2.6347   -0.6691 C   0  0  0  0  0  0  0  0  0  0  0  0
   -2.2193   -0.9051   -0.8555 C   0  0  0  0  0  0  0  0  0  0  0  0
   -2.9020   -0.9246    0.4836 C   0  0  0  0  0  0  0  0  0  0  0  0
   -2.4618    0.0265    1.4140 N   0  0  0  0  0  0  0  0  0  0  0  0
   -2.6729    1.3975    1.3018 C   0  0  0  0  0  0  0  0  0  0  0  0
   -4.1151    1.7964    1.4909 C   0  0  1  0  0  0  0  0  0  0  0  0
   -4.9764    1.4043    0.3968 C   0  0  0  0  0  0  0  0  0  0  0  0
   -6.2462    0.8965    0.7205 C   0  0  0  0  0  0  0  0  0  0  0  0
   -7.1493    0.5398   -0.2594 C   0  0  0  0  0  0  0  0  0  0  0  0
   -6.8348    0.6701   -1.5916 C   0  0  0  0  0  0  0  0  0  0  0  0
   -5.6006    1.1639   -1.9389 C   0  0  0  0  0  0  0  0  0  0  0  0
   -4.7131    1.5146   -0.9431 C   0  0  0  0  0  0  0  0  0  0  0  0
   -4.4831    1.2633    2.7422 O   0  0  0  0  0  0  0  0  0  0  0  0
    5.9459   -2.2185    0.7198 H   0  0  0  0  0  0  0  0  0  0  0  0
    6.1059   -2.0278   -1.0418 H   0  0  0  0  0  0  0  0  0  0  0  0
    6.7117   -0.2720    2.3728 H   0  0  0  0  0  0  0  0  0  0  0  0
    8.4362    2.5461   -2.2991 H   0  0  0  0  0  0  0  0  0  0  0  0
   10.0008    2.2588   -1.4262 H   0  0  0  0  0  0  0  0  0  0  0  0
    3.6796   -2.9312   -0.4473 H   0  0  0  0  0  0  0  0  0  0  0  0
    2.1096    0.5384   -0.3091 H   0  0  0  0  0  0  0  0  0  0  0  0
   -0.2758    0.8968   -0.5145 H   0  0  0  0  0  0  0  0  0  0  0  0
   -0.8665   -3.2428   -0.9159 H   0  0  0  0  0  0  0  0  0  0  0  0
    1.4788   -3.6682   -0.7208 H   0  0  0  0  0  0  0  0  0  0  0  0
   -2.6146   -1.7195   -1.4928 H   0  0  0  0  0  0  0  0  0  0  0  0
   -2.2986    0.0493   -1.3839 H   0  0  0  0  0  0  0  0  0  0  0  0
   -3.9946   -0.8626    0.3383 H   0  0  0  0  0  0  0  0  0  0  0  0
   -2.7721   -1.9368    0.9753 H   0  0  0  0  0  0  0  0  0  0  0  0
   -1.7792   -0.2822    2.1358 H   0  0  0  0  0  0  0  0  0  0  0  0
   -2.4070    1.7619    0.2753 H   0  0  0  0  0  0  0  0  0  0  0  0
   -2.1125    2.0058    2.0717 H   0  0  0  0  0  0  0  0  0  0  0  0
   -4.1792    2.9301    1.6199 H   0  0  0  0  0  0  0  0  0  0  0  0
   -6.5479    0.7725    1.7442 H   0  0  0  0  0  0  0  0  0  0  0  0
   -8.1306    0.1473    0.0176 H   0  0  0  0  0  0  0  0  0  0  0  0
   -7.5761    0.3769   -2.3392 H   0  0  0  0  0  0  0  0  0  0  0  0
   -5.3695    1.2601   -2.9990 H   0  0  0  0  0  0  0  0  0  0  0  0
   -3.7519    1.9080   -1.2388 H   0  0  0  0  0  0  0  0  0  0  0  0
   -4.0314    0.4051    2.9175 H   0  0  0  0  0  0  0  0  0  0  0  0
  1  2  2  0
  2  3  1  0
  3  4  1  0
  4  5  2  0
  5  6  1  0
  6  7  1  0
  7  8  2  0
  7  9  1  0
  2 10  1  0
 10 11  1  0
 11 12  2  0
 12 13  1  0
 13 14  2  0
 14 15  1  0
 15 16  2  0
 14 17  1  0
 17 18  1  0
 18 19  1  0
 19 20  1  0
 20 21  1  0
 21 22  1  0
 22 23  2  0
 23 24  1  0
 24 25  2  0
 25 26  1  0
 26 27  2  0
 21 28  1  0
  8  4  1  0
 16 11  1  0
 27 22  1  0
  3 29  1  0
  3 30  1  0
  5 31  1  0
  9 32  1  0
  9 33  1  0
 10 34  1  0
 12 35  1  0
 13 36  1  0
 15 37  1  0
 16 38  1  0
 17 39  1  0
 17 40  1  0
 18 41  1  0
 18 42  1  0
 19 43  1  0
 20 44  1  0
 20 45  1  0
 21 46  1  1
 23 47  1  0
 24 48  1  0
 25 49  1  0
 26 50  1  0
 27 51  1  0
 28 52  1  0
M  END
>  <Ligand ID>  (1) 
LIG0002587

>  <Ligand>  (1) 
mirabegron

>  <SMILES>  (1) 
O=C(Cc1csc(n1)N)Nc1ccc(cc1)CCNC[C@@H](c1ccccc1)O

>  <CID>  (1) 
9865528.0

>  <ChEMBL ID>  (1) 
nan

>  <InChiKey>  (1) 
PBAPPPCECJKMCM-IBGZPJMESA-N

>  <InChi>  (1) 
InChI=1S/C21H24N4O2S/c22-21-25-18(14-28-21)12-20(27)24-17-8-6-15(7-9-17)10-11-23-13-19(26)16-4-2-1-3-5-16/h1-9,14,19,23,26H,10-13H2,(H2,22,25)(H,24,27)/t19-/m0/s1

>  <IUPAC Name>  (1) 
2-(2-amino-1,3-thiazol-4-yl)-N-[4-[2-[[(2R)-2-hydroxy-2-phenylethyl]amino]ethyl]phenyl]acetamide

$$$$
