
     RDKit          3D

 49 51  0  0  0  0  0  0  0  0999 V2000
   -6.4050   -3.3579    1.4602 Cl  0  0  0  0  0  0  0  0  0  0  0  0
   -5.3051   -2.0624    1.0688 C   0  0  0  0  0  0  0  0  0  0  0  0
   -5.0974   -0.9950    1.9154 C   0  0  0  0  0  0  0  0  0  0  0  0
   -4.2091    0.0304    1.5747 C   0  0  0  0  0  0  0  0  0  0  0  0
   -3.5073    0.0114    0.3778 C   0  0  0  0  0  0  0  0  0  0  0  0
   -3.7305   -1.0631   -0.4501 C   0  0  0  0  0  0  0  0  0  0  0  0
   -4.6126   -2.0909   -0.1229 C   0  0  0  0  0  0  0  0  0  0  0  0
   -2.6034    1.0738    0.0685 N   0  0  0  0  0  0  0  0  0  0  0  0
   -2.2868    2.0828    1.0959 C   0  0  0  0  0  0  0  0  0  0  0  0
   -1.3159    2.9826    0.4053 C   0  0  0  0  0  0  0  0  0  0  0  0
   -1.5938    2.8045   -1.0849 C   0  0  0  0  0  0  0  0  0  0  0  0
   -1.9171    1.3291   -1.1523 C   0  0  2  0  0  0  0  0  0  0  0  0
   -2.7319    1.1005   -2.4022 C   0  0  0  0  0  0  0  0  0  0  0  0
   -0.5973    0.6382   -1.2239 C   0  0  0  0  0  0  0  0  0  0  0  0
    0.1411    0.7682   -2.2570 O   0  0  0  0  0  0  0  0  0  0  0  0
   -0.0982   -0.1825   -0.1753 N   0  0  0  0  0  0  0  0  0  0  0  0
    1.1633   -0.8347   -0.2589 C   0  0  0  0  0  0  0  0  0  0  0  0
    1.4716   -2.0528   -0.7392 N   0  0  0  0  0  0  0  0  0  0  0  0
    2.7684   -2.2602   -0.6241 O   0  0  0  0  0  0  0  0  0  0  0  0
    3.3339   -1.2110   -0.0789 C   0  0  0  0  0  0  0  0  0  0  0  0
    2.3410   -0.2745    0.1707 C   0  0  0  0  0  0  0  0  0  0  0  0
    4.7774   -1.0460    0.2211 C   0  0  0  0  0  0  0  0  0  0  0  0
    5.5459   -0.4336   -0.9147 C   0  0  0  0  0  0  0  0  0  0  0  0
    4.9956   -0.2092    1.4736 C   0  0  0  0  0  0  0  0  0  0  0  0
    5.3470   -2.4240    0.4860 C   0  0  0  0  0  0  0  0  0  0  0  0
   -5.6350   -0.9545    2.8610 H   0  0  0  0  0  0  0  0  0  0  0  0
   -4.1136    0.8232    2.3023 H   0  0  0  0  0  0  0  0  0  0  0  0
   -3.2260   -1.1461   -1.3772 H   0  0  0  0  0  0  0  0  0  0  0  0
   -4.7831   -2.9336   -0.7805 H   0  0  0  0  0  0  0  0  0  0  0  0
   -1.8398    1.5203    1.9480 H   0  0  0  0  0  0  0  0  0  0  0  0
   -3.1999    2.5609    1.4694 H   0  0  0  0  0  0  0  0  0  0  0  0
   -0.2463    2.7517    0.6491 H   0  0  0  0  0  0  0  0  0  0  0  0
   -1.4876    4.0363    0.7072 H   0  0  0  0  0  0  0  0  0  0  0  0
   -0.7426    3.1004   -1.7036 H   0  0  0  0  0  0  0  0  0  0  0  0
   -2.5143    3.4226   -1.2813 H   0  0  0  0  0  0  0  0  0  0  0  0
   -2.6515    2.0184   -3.0372 H   0  0  0  0  0  0  0  0  0  0  0  0
   -2.3454    0.2859   -3.0484 H   0  0  0  0  0  0  0  0  0  0  0  0
   -3.8129    1.0250   -2.1687 H   0  0  0  0  0  0  0  0  0  0  0  0
   -0.6817   -0.3142    0.6962 H   0  0  0  0  0  0  0  0  0  0  0  0
    2.4389    0.7162    0.6167 H   0  0  0  0  0  0  0  0  0  0  0  0
    5.3134    0.6427   -1.0582 H   0  0  0  0  0  0  0  0  0  0  0  0
    5.3449   -1.0048   -1.8520 H   0  0  0  0  0  0  0  0  0  0  0  0
    6.6163   -0.5276   -0.7037 H   0  0  0  0  0  0  0  0  0  0  0  0
    4.9851   -0.8731    2.3606 H   0  0  0  0  0  0  0  0  0  0  0  0
    4.2310    0.5703    1.5890 H   0  0  0  0  0  0  0  0  0  0  0  0
    6.0200    0.2365    1.3635 H   0  0  0  0  0  0  0  0  0  0  0  0
    5.7489   -2.8819   -0.4470 H   0  0  0  0  0  0  0  0  0  0  0  0
    4.5342   -3.0874    0.8879 H   0  0  0  0  0  0  0  0  0  0  0  0
    6.1731   -2.3108    1.2337 H   0  0  0  0  0  0  0  0  0  0  0  0
  1  2  1  0
  2  3  2  0
  3  4  1  0
  4  5  2  0
  5  6  1  0
  6  7  2  0
  5  8  1  0
  8  9  1  0
  9 10  1  0
 10 11  1  0
 11 12  1  0
 12 13  1  6
 12 14  1  0
 14 15  2  0
 14 16  1  0
 16 17  1  0
 17 18  2  0
 18 19  1  0
 19 20  1  0
 20 21  2  0
 20 22  1  0
 22 23  1  0
 22 24  1  0
 22 25  1  0
  7  2  1  0
 12  8  1  0
 21 17  1  0
  3 26  1  0
  4 27  1  0
  6 28  1  0
  7 29  1  0
  9 30  1  0
  9 31  1  0
 10 32  1  0
 10 33  1  0
 11 34  1  0
 11 35  1  0
 13 36  1  0
 13 37  1  0
 13 38  1  0
 16 39  1  0
 21 40  1  0
 23 41  1  0
 23 42  1  0
 23 43  1  0
 24 44  1  0
 24 45  1  0
 24 46  1  0
 25 47  1  0
 25 48  1  0
 25 49  1  0
M  END
>  <Ligand ID>  (1) 
LIG0005117

>  <Ligand>  (1) 
CHEMBL3400945

>  <SMILES>  (1) 
Clc1ccc(cc1)N1CCC[C@@]1(C)C(=O)Nc1noc(c1)C(C)(C)C

>  <CID>  (1) 
67455563.0

>  <ChEMBL ID>  (1) 
nan

>  <InChiKey>  (1) 
QIGKNCJASZEQPS-IBGZPJMESA-N

>  <InChi>  (1) 
InChI=1S/C19H24ClN3O2/c1-18(2,3)15-12-16(22-25-15)21-17(24)19(4)10-5-11-23(19)14-8-6-13(20)7-9-14/h6-9,12H,5,10-11H2,1-4H3,(H,21,22,24)/t19-/m0/s1

>  <IUPAC Name>  (1) 
(2S)-N-(5-tert-butyl-1,2-oxazol-3-yl)-1-(4-chlorophenyl)-2-methylpyrrolidine-2-carboxamide

$$$$
