
     RDKit          3D

 96 99  0  0  0  0  0  0  0  0999 V2000
   -4.2955   -1.4356    0.4085 N   0  0  0  0  0  0  0  0  0  0  0  0
   -4.8898   -0.1823    0.6288 C   0  0  0  0  0  0  0  0  0  0  0  0
   -5.9158   -0.2469    1.4455 O   0  0  0  0  0  0  0  0  0  0  0  0
   -4.5760    1.1173    0.1328 C   0  0  0  0  0  0  0  0  0  0  0  0
   -3.5093    1.3749   -0.7963 N   0  0  0  0  0  0  0  0  0  0  0  0
   -2.1468    1.5291   -0.4376 C   0  0  0  0  0  0  0  0  0  0  0  0
   -1.3291    1.8239   -1.3937 O   0  0  0  0  0  0  0  0  0  0  0  0
   -1.5254    1.3931    0.8742 C   0  0  1  0  0  0  0  0  0  0  0  0
   -0.0570    1.5835    0.7652 N   0  0  0  0  0  0  0  0  0  0  0  0
    0.6879    0.3758    0.6700 C   0  0  0  0  0  0  0  0  0  0  0  0
    0.1509   -0.7694    0.6725 O   0  0  0  0  0  0  0  0  0  0  0  0
    2.2196    0.4291    0.5554 C   0  0  1  0  0  0  0  0  0  0  0  0
    2.5976   -0.9436    0.3328 N   0  0  0  0  0  0  0  0  0  0  0  0
    3.1117   -1.7218    1.3556 C   0  0  0  0  0  0  0  0  0  0  0  0
    3.2222   -1.1098    2.5067 O   0  0  0  0  0  0  0  0  0  0  0  0
    3.5456   -3.1133    1.3820 C   0  0  2  0  0  0  0  0  0  0  0  0
    3.0502   -4.0822    0.4015 C   0  0  0  0  0  0  0  0  0  0  0  0
    3.4623   -3.8314   -0.9925 C   0  0  0  0  0  0  0  0  0  0  0  0
    4.2553   -2.9317   -1.5566 N   0  0  0  0  0  0  0  0  0  0  0  0
    4.3255   -3.0695   -2.8899 C   0  0  0  0  0  0  0  0  0  0  0  0
    3.5236   -4.1292   -3.1951 N   0  0  0  0  0  0  0  0  0  0  0  0
    2.9868   -4.6094   -2.0514 C   0  0  0  0  0  0  0  0  0  0  0  0
    3.7076   -3.6063    2.7459 N   0  0  0  0  0  0  0  0  0  0  0  0
    4.9723   -3.8414    3.3413 C   0  0  0  0  0  0  0  0  0  0  0  0
    6.0664   -3.6344    2.7215 O   0  0  0  0  0  0  0  0  0  0  0  0
    4.9719   -4.3543    4.7567 C   0  0  0  0  0  0  0  0  0  0  0  0
    2.6141    1.2924   -0.5795 C   0  0  0  0  0  0  0  0  0  0  0  0
    4.0812    1.3759   -0.7033 C   0  0  0  0  0  0  0  0  0  0  0  0
    4.8526    0.5748   -1.5079 C   0  0  0  0  0  0  0  0  0  0  0  0
    6.2362    0.7300   -1.5596 C   0  0  0  0  0  0  0  0  0  0  0  0
    6.8799    1.6974   -0.8013 C   0  0  0  0  0  0  0  0  0  0  0  0
    6.1047    2.5072    0.0113 C   0  0  0  0  0  0  0  0  0  0  0  0
    4.7245    2.3505    0.0612 C   0  0  0  0  0  0  0  0  0  0  0  0
   -2.0036    2.2660    1.9811 C   0  0  0  0  0  0  0  0  0  0  0  0
   -1.8616    3.7422    1.6730 C   0  0  0  0  0  0  0  0  0  0  0  0
   -2.3817    4.4971    2.8769 C   0  0  0  0  0  0  0  0  0  0  0  0
   -2.2813    5.9394    2.6781 N   0  0  0  0  0  0  0  0  0  0  0  0
   -3.2471    6.5017    2.0112 C   0  0  0  0  0  0  0  0  0  0  0  0
   -4.3516    5.7607    1.4947 N   0  0  0  0  0  0  0  0  0  0  0  0
   -3.1887    7.8998    1.7959 N   0  0  0  0  0  0  0  0  0  0  0  0
   -3.8516    1.6591   -2.1728 C   0  0  0  0  0  0  0  0  0  0  0  0
   -3.6380    0.6869   -3.2344 C   0  0  0  0  0  0  0  0  0  0  0  0
   -4.1735   -0.6549   -3.2019 C   0  0  0  0  0  0  0  0  0  0  0  0
   -5.3543   -1.2040   -3.6356 C   0  0  0  0  0  0  0  0  0  0  0  0
   -5.3788   -2.5359   -3.3330 N   0  0  0  0  0  0  0  0  0  0  0  0
   -4.2467   -2.8750   -2.7132 C   0  0  0  0  0  0  0  0  0  0  0  0
   -3.4835   -1.7355   -2.6187 C   0  0  0  0  0  0  0  0  0  0  0  0
   -2.2156   -1.7730   -2.0200 C   0  0  0  0  0  0  0  0  0  0  0  0
   -1.7319   -2.9861   -1.5156 C   0  0  0  0  0  0  0  0  0  0  0  0
   -2.5048   -4.1362   -1.6107 C   0  0  0  0  0  0  0  0  0  0  0  0
   -3.7659   -4.0903   -2.2092 C   0  0  0  0  0  0  0  0  0  0  0  0
   -3.2925   -1.5491    0.6376 H   0  0  0  0  0  0  0  0  0  0  0  0
   -4.9121   -2.1965    0.0219 H   0  0  0  0  0  0  0  0  0  0  0  0
   -5.5663    1.4733   -0.3903 H   0  0  0  0  0  0  0  0  0  0  0  0
   -4.5277    1.9047    0.9354 H   0  0  0  0  0  0  0  0  0  0  0  0
   -1.7118    0.3207    1.1747 H   0  0  0  0  0  0  0  0  0  0  0  0
    0.3713    2.5297    0.7609 H   0  0  0  0  0  0  0  0  0  0  0  0
    2.5938    0.8593    1.5067 H   0  0  0  0  0  0  0  0  0  0  0  0
    2.4537   -1.3380   -0.6046 H   0  0  0  0  0  0  0  0  0  0  0  0
    4.6898   -3.0030    1.0815 H   0  0  0  0  0  0  0  0  0  0  0  0
    1.9558   -4.2963    0.4731 H   0  0  0  0  0  0  0  0  0  0  0  0
    3.5123   -5.0908    0.6577 H   0  0  0  0  0  0  0  0  0  0  0  0
    4.7665   -2.2075   -0.9664 H   0  0  0  0  0  0  0  0  0  0  0  0
    4.9031   -2.4651   -3.6057 H   0  0  0  0  0  0  0  0  0  0  0  0
    2.3042   -5.4587   -1.9957 H   0  0  0  0  0  0  0  0  0  0  0  0
    2.8154   -3.7827    3.2752 H   0  0  0  0  0  0  0  0  0  0  0  0
    4.5905   -5.3981    4.7889 H   0  0  0  0  0  0  0  0  0  0  0  0
    6.0163   -4.2987    5.1208 H   0  0  0  0  0  0  0  0  0  0  0  0
    4.3924   -3.6508    5.3865 H   0  0  0  0  0  0  0  0  0  0  0  0
    2.2578    0.8506   -1.5658 H   0  0  0  0  0  0  0  0  0  0  0  0
    2.1423    2.3064   -0.5507 H   0  0  0  0  0  0  0  0  0  0  0  0
    4.3269   -0.1700   -2.0928 H   0  0  0  0  0  0  0  0  0  0  0  0
    6.7895    0.0718   -2.2095 H   0  0  0  0  0  0  0  0  0  0  0  0
    7.9686    1.8281   -0.8322 H   0  0  0  0  0  0  0  0  0  0  0  0
    6.5309    3.2886    0.6383 H   0  0  0  0  0  0  0  0  0  0  0  0
    4.1360    2.9934    0.7035 H   0  0  0  0  0  0  0  0  0  0  0  0
   -1.2004    2.1138    2.8062 H   0  0  0  0  0  0  0  0  0  0  0  0
   -2.9117    1.9822    2.4992 H   0  0  0  0  0  0  0  0  0  0  0  0
   -2.3297    4.0475    0.7387 H   0  0  0  0  0  0  0  0  0  0  0  0
   -0.7862    3.9673    1.5953 H   0  0  0  0  0  0  0  0  0  0  0  0
   -1.7479    4.2638    3.7554 H   0  0  0  0  0  0  0  0  0  0  0  0
   -3.4234    4.1816    3.1244 H   0  0  0  0  0  0  0  0  0  0  0  0
   -5.0853    5.3271    2.1093 H   0  0  0  0  0  0  0  0  0  0  0  0
   -4.3968    5.6663    0.4403 H   0  0  0  0  0  0  0  0  0  0  0  0
   -4.0309    8.5343    1.8680 H   0  0  0  0  0  0  0  0  0  0  0  0
   -2.2484    8.3153    1.5515 H   0  0  0  0  0  0  0  0  0  0  0  0
   -4.9410    2.0178   -2.1419 H   0  0  0  0  0  0  0  0  0  0  0  0
   -3.3395    2.6337   -2.4844 H   0  0  0  0  0  0  0  0  0  0  0  0
   -2.4941    0.6097   -3.3716 H   0  0  0  0  0  0  0  0  0  0  0  0
   -3.9140    1.1673   -4.2395 H   0  0  0  0  0  0  0  0  0  0  0  0
   -6.1342   -0.6559   -4.1367 H   0  0  0  0  0  0  0  0  0  0  0  0
   -6.1679   -3.2022   -3.5515 H   0  0  0  0  0  0  0  0  0  0  0  0
   -1.5944   -0.8939   -1.9337 H   0  0  0  0  0  0  0  0  0  0  0  0
   -0.7508   -3.0268   -1.0495 H   0  0  0  0  0  0  0  0  0  0  0  0
   -2.1248   -5.0760   -1.2157 H   0  0  0  0  0  0  0  0  0  0  0  0
   -4.3309   -4.9986   -2.2629 H   0  0  0  0  0  0  0  0  0  0  0  0
  1  2  1  0
  2  3  2  0
  2  4  1  0
  4  5  1  0
  5  6  1  0
  6  7  2  0
  6  8  1  0
  8  9  1  0
  9 10  1  0
 10 11  2  0
 10 12  1  0
 12 13  1  0
 13 14  1  0
 14 15  2  0
 14 16  1  0
 16 17  1  0
 17 18  1  0
 18 19  1  0
 19 20  1  0
 20 21  2  0
 21 22  1  0
 16 23  1  0
 23 24  1  0
 24 25  2  0
 24 26  1  0
 12 27  1  0
 27 28  1  0
 28 29  2  0
 29 30  1  0
 30 31  2  0
 31 32  1  0
 32 33  2  0
  8 34  1  0
 34 35  1  0
 35 36  1  0
 36 37  1  0
 37 38  2  3
 38 39  1  0
 38 40  1  0
  5 41  1  0
 41 42  1  0
 42 43  1  0
 43 44  2  0
 44 45  1  0
 45 46  1  0
 46 47  2  0
 47 48  1  0
 48 49  2  0
 49 50  1  0
 50 51  2  0
 22 18  2  0
 33 28  1  0
 47 43  1  0
 51 46  1  0
  1 52  1  0
  1 53  1  0
  4 54  1  0
  4 55  1  0
  8 56  1  1
  9 57  1  0
 12 58  1  1
 13 59  1  0
 16 60  1  6
 17 61  1  0
 17 62  1  0
 19 63  1  0
 20 64  1  0
 22 65  1  0
 23 66  1  0
 26 67  1  0
 26 68  1  0
 26 69  1  0
 27 70  1  0
 27 71  1  0
 29 72  1  0
 30 73  1  0
 31 74  1  0
 32 75  1  0
 33 76  1  0
 34 77  1  0
 34 78  1  0
 35 79  1  0
 35 80  1  0
 36 81  1  0
 36 82  1  0
 39 83  1  0
 39 84  1  0
 40 85  1  0
 40 86  1  0
 41 87  1  0
 41 88  1  0
 42 89  1  0
 42 90  1  0
 44 91  1  0
 45 92  1  0
 48 93  1  0
 49 94  1  0
 50 95  1  0
 51 96  1  0
M  END
>  <Ligand ID>  (1) 
LIG0003294

>  <Ligand>  (1) 
CHEMBL138212

>  <SMILES>  (1) 
NC(=O)CN(C(=O)[C@@H](NC(=O)[C@@H](NC(=O)[C@H](Cc1[nH]cnc1)NC(=O)C)Cc1ccccc1)CCCN=C(N)N)CCc1c[nH]c2c1cccc2

>  <CID>  (1) 
44359731.0

>  <ChEMBL ID>  (1) 
nan

>  <InChiKey>  (1) 
DNTXCPMOMVOUSI-DTXPUJKBSA-N

>  <InChi>  (1) 
InChI=1S/C35H45N11O5/c1-22(47)43-30(17-25-19-39-21-42-25)33(50)45-29(16-23-8-3-2-4-9-23)32(49)44-28(12-7-14-40-35(37)38)34(51)46(20-31(36)48)15-13-24-18-41-27-11-6-5-10-26(24)27/h2-6,8-11,18-19,21,28-30,41H,7,12-17,20H2,1H3,(H2,36,48)(H,39,42)(H,43,47)(H,44,49)(H,45,50)(H4,37,38,40)/t28-,29-,30-/m0/s1

>  <IUPAC Name>  (1) 
(2S)-2-[[(2S)-2-[[(2S)-2-acetamido-3-(1H-imidazol-5-yl)propanoyl]amino]-3-phenylpropanoyl]amino]-N-(2-amino-2-oxoethyl)-5-(diaminomethylideneamino)-N-[2-(1H-indol-3-yl)ethyl]pentanamide

$$$$
