
     RDKit          3D

 32 32  0  0  0  0  0  0  0  0999 V2000
    3.9382    2.0774   -0.0907 C   0  0  0  0  0  0  0  0  0  0  0  0
    3.0360    1.0671    0.5390 C   0  0  0  0  0  0  0  0  0  0  0  0
    3.4193    0.5808    1.6384 O   0  0  0  0  0  0  0  0  0  0  0  0
    1.8396    0.6676   -0.0296 O   0  0  0  0  0  0  0  0  0  0  0  0
    0.9801   -0.2913    0.5650 C   0  0  0  0  0  0  0  0  0  0  0  0
   -0.3632    0.3142    0.8429 C   0  0  0  0  0  0  0  0  0  0  0  0
   -1.3483    0.2001   -0.2695 C   0  0  1  0  0  0  0  0  0  0  0  0
   -1.5250   -1.1957   -0.7990 C   0  0  0  0  0  0  0  0  0  0  0  0
   -0.2399   -1.9225   -0.8619 C   0  0  0  0  0  0  0  0  0  0  0  0
    0.8809   -1.5436   -0.2682 C   0  0  0  0  0  0  0  0  0  0  0  0
    2.1439   -2.3451   -0.3860 C   0  0  0  0  0  0  0  0  0  0  0  0
   -2.6784    0.6987    0.1524 C   0  0  0  0  0  0  0  0  0  0  0  0
   -2.9766    1.0844    1.3864 C   0  0  0  0  0  0  0  0  0  0  0  0
   -3.7375    0.7627   -0.8970 C   0  0  0  0  0  0  0  0  0  0  0  0
    4.8768    1.6130   -0.4508 H   0  0  0  0  0  0  0  0  0  0  0  0
    3.4347    2.7242   -0.8156 H   0  0  0  0  0  0  0  0  0  0  0  0
    4.2497    2.7548    0.7562 H   0  0  0  0  0  0  0  0  0  0  0  0
    1.3860   -0.6715    1.5281 H   0  0  0  0  0  0  0  0  0  0  0  0
   -0.7913   -0.1345    1.7635 H   0  0  0  0  0  0  0  0  0  0  0  0
   -0.2351    1.3905    1.0631 H   0  0  0  0  0  0  0  0  0  0  0  0
   -1.0610    0.8275   -1.1408 H   0  0  0  0  0  0  0  0  0  0  0  0
   -1.9177   -1.1845   -1.8449 H   0  0  0  0  0  0  0  0  0  0  0  0
   -2.2480   -1.8025   -0.2115 H   0  0  0  0  0  0  0  0  0  0  0  0
   -0.2042   -2.8539   -1.4473 H   0  0  0  0  0  0  0  0  0  0  0  0
    2.5636   -2.4339    0.6384 H   0  0  0  0  0  0  0  0  0  0  0  0
    1.9645   -3.3726   -0.7387 H   0  0  0  0  0  0  0  0  0  0  0  0
    2.8949   -1.8253   -1.0080 H   0  0  0  0  0  0  0  0  0  0  0  0
   -2.3087    1.0855    2.2199 H   0  0  0  0  0  0  0  0  0  0  0  0
   -3.9976    1.4402    1.5995 H   0  0  0  0  0  0  0  0  0  0  0  0
   -3.5828    1.6552   -1.5184 H   0  0  0  0  0  0  0  0  0  0  0  0
   -3.6526   -0.1509   -1.5088 H   0  0  0  0  0  0  0  0  0  0  0  0
   -4.7405    0.7839   -0.4061 H   0  0  0  0  0  0  0  0  0  0  0  0
  1  2  1  0
  2  3  2  0
  2  4  1  0
  4  5  1  0
  5  6  1  0
  6  7  1  0
  7  8  1  0
  8  9  1  0
  9 10  2  0
 10 11  1  0
  7 12  1  0
 12 13  2  0
 12 14  1  0
 10  5  1  0
  1 15  1  0
  1 16  1  0
  1 17  1  0
  5 18  1  0
  6 19  1  0
  6 20  1  0
  7 21  1  6
  8 22  1  0
  8 23  1  0
  9 24  1  0
 11 25  1  0
 11 26  1  0
 11 27  1  0
 13 28  1  0
 13 29  1  0
 14 30  1  0
 14 31  1  0
 14 32  1  0
M  END
>  <Ligand ID>  (1) 
LIG0000295

>  <Ligand>  (1) 
(-)-Carvyl acetate

>  <SMILES>  (1) 
CC(=O)OC1C[C@@H](CC=C1C)C(=C)C

>  <CID>  (1) 
11964245.0

>  <ChEMBL ID>  (1) 
nan

>  <InChiKey>  (1) 
YTHRBOFHFYZBRJ-JHJMLUEUSA-N

>  <InChi>  (1) 
InChI=1S/C12H18O2/c1-8(2)11-6-5-9(3)12(7-11)14-10(4)13/h5,11-12H,1,6-7H2,2-4H3/t11-,12?/m1/s1

>  <IUPAC Name>  (1) 
[(5R)-2-methyl-5-prop-1-en-2-ylcyclohex-2-en-1-yl] acetate

$$$$
