
     RDKit          3D

 44 47  0  0  0  0  0  0  0  0999 V2000
    4.4696   -1.1960   -0.6345 O   0  0  0  0  0  0  0  0  0  0  0  0
    4.5438    0.1020   -1.0613 C   0  0  0  0  0  0  0  0  0  0  0  0
    3.7503    1.0808   -0.2514 C   0  0  0  0  0  0  0  0  0  0  0  0
    2.3439    0.7915   -0.2445 N   0  0  0  0  0  0  0  0  0  0  0  0
    1.7345   -0.3670    0.2755 C   0  0  0  0  0  0  0  0  0  0  0  0
    2.3620   -1.2897    0.8045 O   0  0  0  0  0  0  0  0  0  0  0  0
    0.2665   -0.5181    0.2001 C   0  0  0  0  0  0  0  0  0  0  0  0
   -0.5898    0.3705   -0.3355 N   0  0  0  0  0  0  0  0  0  0  0  0
   -1.8403   -0.0552   -0.2502 N   0  0  0  0  0  0  0  0  0  0  0  0
   -1.8253   -1.2490    0.3522 C   0  0  0  0  0  0  0  0  0  0  0  0
   -0.5113   -1.5576    0.6430 C   0  0  0  0  0  0  0  0  0  0  0  0
   -0.4074   -2.8670    1.3130 C   0  0  0  0  0  0  0  0  0  0  0  0
   -1.8028   -3.2953    1.5947 C   0  0  2  0  0  0  0  0  0  0  0  0
   -2.6624   -2.3600    0.8251 C   0  0  1  0  0  0  0  0  0  0  0  0
   -2.7868   -2.4951    2.3186 C   0  0  0  0  0  0  0  0  0  0  0  0
   -2.9425    0.7048   -0.7463 C   0  0  0  0  0  0  0  0  0  0  0  0
   -4.2001    0.6458   -0.1726 C   0  0  0  0  0  0  0  0  0  0  0  0
   -4.4218   -0.1456    0.8889 F   0  0  0  0  0  0  0  0  0  0  0  0
   -5.2520    1.3858   -0.6639 C   0  0  0  0  0  0  0  0  0  0  0  0
   -5.0374    2.1913   -1.7402 C   0  0  0  0  0  0  0  0  0  0  0  0
   -3.7989    2.2994   -2.3664 C   0  0  0  0  0  0  0  0  0  0  0  0
   -2.7707    1.5410   -1.8432 C   0  0  0  0  0  0  0  0  0  0  0  0
   -1.5577    1.6357   -2.4428 F   0  0  0  0  0  0  0  0  0  0  0  0
    4.0041    2.4950   -0.7566 C   0  0  0  0  0  0  0  0  0  0  0  0
    4.1974    1.0491    1.2178 C   0  0  0  0  0  0  0  0  0  0  0  0
    5.2375   -1.4769   -0.0831 H   0  0  0  0  0  0  0  0  0  0  0  0
    5.6152    0.4070   -1.1158 H   0  0  0  0  0  0  0  0  0  0  0  0
    4.1904    0.1895   -2.1291 H   0  0  0  0  0  0  0  0  0  0  0  0
    1.6884    1.5118   -0.6695 H   0  0  0  0  0  0  0  0  0  0  0  0
    0.2440   -2.8379    2.2107 H   0  0  0  0  0  0  0  0  0  0  0  0
    0.0621   -3.6012    0.6267 H   0  0  0  0  0  0  0  0  0  0  0  0
   -1.9741   -4.3901    1.5516 H   0  0  0  0  0  0  0  0  0  0  0  0
   -3.3851   -2.8440    0.1410 H   0  0  0  0  0  0  0  0  0  0  0  0
   -2.5086   -1.5944    2.9205 H   0  0  0  0  0  0  0  0  0  0  0  0
   -3.6599   -3.0083    2.7483 H   0  0  0  0  0  0  0  0  0  0  0  0
   -6.2343    1.3338   -0.2086 H   0  0  0  0  0  0  0  0  0  0  0  0
   -5.8583    2.7931   -2.1534 H   0  0  0  0  0  0  0  0  0  0  0  0
   -3.6526    2.9514   -3.2267 H   0  0  0  0  0  0  0  0  0  0  0  0
    4.3460    3.1619    0.0519 H   0  0  0  0  0  0  0  0  0  0  0  0
    3.0716    2.9225   -1.1994 H   0  0  0  0  0  0  0  0  0  0  0  0
    4.7698    2.4555   -1.5579 H   0  0  0  0  0  0  0  0  0  0  0  0
    4.2087   -0.0009    1.5739 H   0  0  0  0  0  0  0  0  0  0  0  0
    3.3934    1.5698    1.7859 H   0  0  0  0  0  0  0  0  0  0  0  0
    5.1811    1.5603    1.3211 H   0  0  0  0  0  0  0  0  0  0  0  0
  1  2  1  0
  2  3  1  0
  3  4  1  0
  4  5  1  0
  5  6  2  0
  5  7  1  0
  7  8  2  0
  8  9  1  0
  9 10  1  0
 10 11  2  0
 11 12  1  0
 12 13  1  0
 13 14  1  0
 14 15  1  0
  9 16  1  0
 16 17  2  0
 17 18  1  0
 17 19  1  0
 19 20  2  0
 20 21  1  0
 21 22  2  0
 22 23  1  0
  3 24  1  0
  3 25  1  0
 11  7  1  0
 15 13  1  0
 22 16  1  0
 14 10  1  0
  1 26  1  0
  2 27  1  0
  2 28  1  0
  4 29  1  0
 12 30  1  0
 12 31  1  0
 13 32  1  6
 14 33  1  6
 15 34  1  0
 15 35  1  0
 19 36  1  0
 20 37  1  0
 21 38  1  0
 24 39  1  0
 24 40  1  0
 24 41  1  0
 25 42  1  0
 25 43  1  0
 25 44  1  0
M  END
>  <Ligand ID>  (1) 
LIG0001492

>  <Ligand>  (1) 
CHEMBL3354972

>  <SMILES>  (1) 
OCC(NC(=O)c1nn(c2c1C[C@@H]1[C@H]2C1)c1c(F)cccc1F)(C)C

>  <CID>  (1) 
118720579.0

>  <ChEMBL ID>  (1) 
nan

>  <InChiKey>  (1) 
QZVOCKMIPFYYSZ-NXEZZACHSA-N

>  <InChi>  (1) 
InChI=1S/C18H19F2N3O2/c1-18(2,8-24)21-17(25)14-11-7-9-6-10(9)15(11)23(22-14)16-12(19)4-3-5-13(16)20/h3-5,9-10,24H,6-8H2,1-2H3,(H,21,25)/t9-,10-/m1/s1

>  <IUPAC Name>  (1) 
(2R,4R)-9-(2,6-difluorophenyl)-N-(1-hydroxy-2-methylpropan-2-yl)-8,9-diazatricyclo[4.3.0.02,4]nona-1(6),7-diene-7-carboxamide

$$$$
