
     RDKit          3D

 48 53  0  0  0  0  0  0  0  0999 V2000
   -5.4838    4.0559    2.5738 F   0  0  0  0  0  0  0  0  0  0  0  0
   -4.6834    3.1396    1.9416 C   0  0  0  0  0  0  0  0  0  0  0  0
   -4.0498    3.4182    0.7487 C   0  0  0  0  0  0  0  0  0  0  0  0
   -3.2405    2.5016    0.1028 C   0  0  0  0  0  0  0  0  0  0  0  0
   -3.0816    1.2607    0.7076 C   0  0  0  0  0  0  0  0  0  0  0  0
   -3.7104    0.9662    1.9038 C   0  0  0  0  0  0  0  0  0  0  0  0
   -4.5143    1.8974    2.5313 C   0  0  0  0  0  0  0  0  0  0  0  0
   -3.5314   -0.2446    2.4563 F   0  0  0  0  0  0  0  0  0  0  0  0
   -2.2625    0.2496    0.1114 N   0  0  0  0  0  0  0  0  0  0  0  0
   -0.9436    0.2300    0.0094 N   0  0  0  0  0  0  0  0  0  0  0  0
   -0.5305   -0.9026   -0.6234 C   0  0  0  0  0  0  0  0  0  0  0  0
   -1.6989   -1.5808   -0.9040 C   0  0  0  0  0  0  0  0  0  0  0  0
   -2.7837   -0.8615   -0.4451 C   0  0  0  0  0  0  0  0  0  0  0  0
   -4.0521   -1.5818   -0.7412 C   0  0  2  0  0  0  0  0  0  0  0  0
   -4.2709   -2.9439   -0.1662 C   0  0  0  0  0  0  0  0  0  0  0  0
   -3.6422   -2.7833   -1.5106 C   0  0  2  0  0  0  0  0  0  0  0  0
   -2.1428   -2.8458   -1.5479 C   0  0  0  0  0  0  0  0  0  0  0  0
    0.8519   -1.2778   -0.9196 C   0  0  0  0  0  0  0  0  0  0  0  0
    1.0189   -2.3684   -1.5127 O   0  0  0  0  0  0  0  0  0  0  0  0
    1.8971   -0.4268   -0.5384 N   0  0  0  0  0  0  0  0  0  0  0  0
    3.2995   -0.6311   -0.7469 C   0  0  0  0  0  0  0  0  0  0  0  0
    3.8932   -1.8912   -0.1243 C   0  0  0  0  0  0  0  0  0  0  0  0
    3.8320   -1.6788   -1.6191 C   0  0  0  0  0  0  0  0  0  0  0  0
    4.1761    0.5649   -0.5163 C   0  0  0  0  0  0  0  0  0  0  0  0
    3.9648    1.2960    0.6320 C   0  0  0  0  0  0  0  0  0  0  0  0
    4.7220    2.4150    0.9293 C   0  0  0  0  0  0  0  0  0  0  0  0
    5.7079    2.7897    0.0396 C   0  0  0  0  0  0  0  0  0  0  0  0
    5.9345    2.0769   -1.1079 C   0  0  0  0  0  0  0  0  0  0  0  0
    5.1547    0.9622   -1.3697 C   0  0  0  0  0  0  0  0  0  0  0  0
   -4.2142    4.3996    0.3314 H   0  0  0  0  0  0  0  0  0  0  0  0
   -2.7413    2.7237   -0.8389 H   0  0  0  0  0  0  0  0  0  0  0  0
   -5.0010    1.6454    3.4737 H   0  0  0  0  0  0  0  0  0  0  0  0
   -4.8976   -0.9735   -1.0867 H   0  0  0  0  0  0  0  0  0  0  0  0
   -5.3410   -3.2560   -0.1293 H   0  0  0  0  0  0  0  0  0  0  0  0
   -3.6675   -3.3185    0.6610 H   0  0  0  0  0  0  0  0  0  0  0  0
   -4.2237   -2.9726   -2.4310 H   0  0  0  0  0  0  0  0  0  0  0  0
   -1.7292   -3.6984   -0.9729 H   0  0  0  0  0  0  0  0  0  0  0  0
   -1.7961   -2.9149   -2.6144 H   0  0  0  0  0  0  0  0  0  0  0  0
    1.6186    0.4650   -0.0402 H   0  0  0  0  0  0  0  0  0  0  0  0
    3.1617   -2.6208    0.2896 H   0  0  0  0  0  0  0  0  0  0  0  0
    4.8711   -1.8410    0.3875 H   0  0  0  0  0  0  0  0  0  0  0  0
    4.8603   -1.5488   -2.0816 H   0  0  0  0  0  0  0  0  0  0  0  0
    3.1486   -2.3100   -2.2068 H   0  0  0  0  0  0  0  0  0  0  0  0
    3.1788    0.9817    1.3232 H   0  0  0  0  0  0  0  0  0  0  0  0
    4.5657    2.9873    1.8161 H   0  0  0  0  0  0  0  0  0  0  0  0
    6.3185    3.6618    0.2437 H   0  0  0  0  0  0  0  0  0  0  0  0
    6.7153    2.3734   -1.8130 H   0  0  0  0  0  0  0  0  0  0  0  0
    5.3428    0.4108   -2.2769 H   0  0  0  0  0  0  0  0  0  0  0  0
  1  2  1  0
  2  3  2  0
  3  4  1  0
  4  5  2  0
  5  6  1  0
  6  7  2  0
  6  8  1  0
  5  9  1  0
  9 10  1  0
 10 11  2  0
 11 12  1  0
 12 13  2  0
 13 14  1  0
 14 15  1  0
 15 16  1  0
 16 17  1  0
 11 18  1  0
 18 19  2  0
 18 20  1  0
 20 21  1  0
 21 22  1  0
 22 23  1  0
 21 24  1  0
 24 25  2  0
 25 26  1  0
 26 27  2  0
 27 28  1  0
 28 29  2  0
  7  2  1  0
 13  9  1  0
 16 14  1  0
 23 21  1  0
 29 24  1  0
 17 12  1  0
  3 30  1  0
  4 31  1  0
  7 32  1  0
 14 33  1  6
 15 34  1  0
 15 35  1  0
 16 36  1  6
 17 37  1  0
 17 38  1  0
 20 39  1  0
 22 40  1  0
 22 41  1  0
 23 42  1  0
 23 43  1  0
 25 44  1  0
 26 45  1  0
 27 46  1  0
 28 47  1  0
 29 48  1  0
M  END
>  <Ligand ID>  (1) 
LIG0001330

>  <Ligand>  (1) 
CHEMBL3354946

>  <SMILES>  (1) 
Fc1ccc(c(c1)F)n1nc(c2c1[C@@H]1C[C@@H]1C2)C(=O)NC1(CC1)c1ccccc1

>  <CID>  (1) 
118720559.0

>  <ChEMBL ID>  (1) 
nan

>  <InChiKey>  (1) 
MPLRNAYZKDYUTL-CZUORRHYSA-N

>  <InChi>  (1) 
InChI=1S/C23H19F2N3O/c24-15-6-7-19(18(25)12-15)28-21-16-10-13(16)11-17(21)20(27-28)22(29)26-23(8-9-23)14-4-2-1-3-5-14/h1-7,12-13,16H,8-11H2,(H,26,29)/t13-,16-/m1/s1

>  <IUPAC Name>  (1) 
(2R,4R)-9-(2,4-difluorophenyl)-N-(1-phenylcyclopropyl)-8,9-diazatricyclo[4.3.0.02,4]nona-1(6),7-diene-7-carboxamide

$$$$
