
     RDKit          3D

 33 35  0  0  0  0  0  0  0  0999 V2000
   -5.6852    0.6828   -0.5864 C   0  0  0  0  0  0  0  0  0  0  0  0
   -4.2826    0.1926   -0.5569 C   0  0  0  0  0  0  0  0  0  0  0  0
   -3.7365   -0.5443   -1.6051 C   0  0  0  0  0  0  0  0  0  0  0  0
   -2.4398   -1.0032   -1.5895 C   0  0  0  0  0  0  0  0  0  0  0  0
   -1.6332   -0.7304   -0.4966 C   0  0  0  0  0  0  0  0  0  0  0  0
   -2.1948   -0.0012    0.5261 C   0  0  0  0  0  0  0  0  0  0  0  0
   -3.4669    0.4345    0.4825 N   0  0  0  0  0  0  0  0  0  0  0  0
   -1.4166    0.2649    1.5863 N   0  0  0  0  0  0  0  0  0  0  0  0
   -0.1266   -0.1552    1.6713 C   0  0  0  0  0  0  0  0  0  0  0  0
    0.6771    0.2423    3.0275 S   0  0  0  0  0  0  0  0  0  0  0  0
    0.4862   -0.8853    0.6810 C   0  0  0  0  0  0  0  0  0  0  0  0
   -0.3215   -1.1688   -0.4320 C   0  0  0  0  0  0  0  0  0  0  0  0
    0.2701   -2.0966   -1.7903 Cl  0  0  0  0  0  0  0  0  0  0  0  0
    1.8748   -1.3638    0.7190 C   0  0  0  0  0  0  0  0  0  0  0  0
    2.8969   -0.3220    0.4612 C   0  0  0  0  0  0  0  0  0  0  0  0
    3.6495    0.2724    1.4454 C   0  0  0  0  0  0  0  0  0  0  0  0
    4.5971    1.2601    1.1745 C   0  0  0  0  0  0  0  0  0  0  0  0
    4.8255    1.6907   -0.1091 C   0  0  0  0  0  0  0  0  0  0  0  0
    4.0768    1.1034   -1.1161 C   0  0  0  0  0  0  0  0  0  0  0  0
    3.1401    0.1261   -0.8415 C   0  0  0  0  0  0  0  0  0  0  0  0
   -5.7647    1.6823   -1.0649 H   0  0  0  0  0  0  0  0  0  0  0  0
   -6.2435   -0.0193   -1.2519 H   0  0  0  0  0  0  0  0  0  0  0  0
   -6.1713    0.6172    0.4011 H   0  0  0  0  0  0  0  0  0  0  0  0
   -4.3529   -0.7657   -2.4648 H   0  0  0  0  0  0  0  0  0  0  0  0
   -2.0181   -1.5762   -2.4068 H   0  0  0  0  0  0  0  0  0  0  0  0
   -1.8575    0.8213    2.3585 H   0  0  0  0  0  0  0  0  0  0  0  0
    2.1035   -1.9367    1.6478 H   0  0  0  0  0  0  0  0  0  0  0  0
    2.0138   -2.1190   -0.0962 H   0  0  0  0  0  0  0  0  0  0  0  0
    3.5456   -0.0078    2.4664 H   0  0  0  0  0  0  0  0  0  0  0  0
    5.1622    1.6978    1.9709 H   0  0  0  0  0  0  0  0  0  0  0  0
    5.5388    2.4444   -0.3785 H   0  0  0  0  0  0  0  0  0  0  0  0
    4.2460    1.4329   -2.1371 H   0  0  0  0  0  0  0  0  0  0  0  0
    2.6075   -0.2704   -1.6956 H   0  0  0  0  0  0  0  0  0  0  0  0
  1  2  1  0
  2  3  2  0
  3  4  1  0
  4  5  2  0
  5  6  1  0
  6  7  2  0
  6  8  1  0
  8  9  1  0
  9 10  2  0
  9 11  1  0
 11 12  2  0
 12 13  1  0
 11 14  1  0
 14 15  1  0
 15 16  2  0
 16 17  1  0
 17 18  2  0
 18 19  1  0
 19 20  2  0
  7  2  1  0
 20 15  1  0
 12  5  1  0
  1 21  1  0
  1 22  1  0
  1 23  1  0
  3 24  1  0
  4 25  1  0
  8 26  1  0
 14 27  1  0
 14 28  1  0
 16 29  1  0
 17 30  1  0
 18 31  1  0
 19 32  1  0
 20 33  1  0
M  END
>  <Ligand ID>  (1) 
LIG0003930

>  <Ligand>  (1) 
MLS001182542

>  <SMILES>  (1) 
Cc1ccc2c(n1)[nH]c(=S)c(c2Cl)Cc1ccccc1

>  <CID>  (1) 
5455972.0

>  <ChEMBL ID>  (1) 
nan

>  <InChiKey>  (1) 
KRGULNTWJREXFU-UHFFFAOYSA-N

>  <InChi>  (1) 
InChI=1S/C16H13ClN2S/c1-10-7-8-12-14(17)13(16(20)19-15(12)18-10)9-11-5-3-2-4-6-11/h2-8H,9H2,1H3,(H,18,19,20)

>  <IUPAC Name>  (1) 
3-benzyl-4-chloro-7-methyl-1H-1,8-naphthyridine-2-thione

$$$$
