
     RDKit          3D

 26 27  0  0  0  0  0  0  0  0999 V2000
   -4.3761    0.0964   -0.4095 C   0  0  0  0  0  0  0  0  0  0  0  0
   -3.3790   -0.7541    0.3310 C   0  0  0  0  0  0  0  0  0  0  0  0
   -3.7634   -1.4010    1.2892 O   0  0  0  0  0  0  0  0  0  0  0  0
   -1.9696   -0.7570   -0.1524 C   0  0  0  0  0  0  0  0  0  0  0  0
   -1.2127    0.1744    0.7562 C   0  0  0  0  0  0  0  0  0  0  0  0
    0.2155    0.2889    0.4149 C   0  0  0  0  0  0  0  0  0  0  0  0
    0.5629    1.2948   -0.4956 C   0  0  0  0  0  0  0  0  0  0  0  0
    1.8622    1.4917   -0.8850 C   0  0  0  0  0  0  0  0  0  0  0  0
    2.8463    0.6711   -0.3594 C   0  0  0  0  0  0  0  0  0  0  0  0
    2.5211   -0.3338    0.5466 C   0  0  0  0  0  0  0  0  0  0  0  0
    1.2013   -0.5262    0.9357 C   0  0  0  0  0  0  0  0  0  0  0  0
    3.7210   -0.9561    0.8670 O   0  0  0  0  0  0  0  0  0  0  0  0
    4.6812   -0.6478   -0.1410 C   0  0  0  0  0  0  0  0  0  0  0  0
    4.2256    0.6429   -0.5716 O   0  0  0  0  0  0  0  0  0  0  0  0
   -3.9436    0.4540   -1.3660 H   0  0  0  0  0  0  0  0  0  0  0  0
   -4.5645    1.0419    0.1764 H   0  0  0  0  0  0  0  0  0  0  0  0
   -5.3503   -0.3922   -0.5254 H   0  0  0  0  0  0  0  0  0  0  0  0
   -1.9298   -0.4869   -1.2084 H   0  0  0  0  0  0  0  0  0  0  0  0
   -1.5256   -1.7797   -0.0411 H   0  0  0  0  0  0  0  0  0  0  0  0
   -1.7127    1.1597    0.8267 H   0  0  0  0  0  0  0  0  0  0  0  0
   -1.2704   -0.2563    1.7779 H   0  0  0  0  0  0  0  0  0  0  0  0
   -0.2224    1.9432   -0.9096 H   0  0  0  0  0  0  0  0  0  0  0  0
    2.1088    2.2722   -1.5886 H   0  0  0  0  0  0  0  0  0  0  0  0
    0.9341   -1.2942    1.6313 H   0  0  0  0  0  0  0  0  0  0  0  0
    5.6941   -0.5683    0.2800 H   0  0  0  0  0  0  0  0  0  0  0  0
    4.6462   -1.3779   -0.9578 H   0  0  0  0  0  0  0  0  0  0  0  0
  1  2  1  0
  2  3  2  0
  2  4  1  0
  4  5  1  0
  5  6  1  0
  6  7  2  0
  7  8  1  0
  8  9  2  0
  9 10  1  0
 10 11  2  0
 10 12  1  0
 12 13  1  0
 13 14  1  0
 11  6  1  0
 14  9  1  0
  1 15  1  0
  1 16  1  0
  1 17  1  0
  4 18  1  0
  4 19  1  0
  5 20  1  0
  5 21  1  0
  7 22  1  0
  8 23  1  0
 11 24  1  0
 13 25  1  0
 13 26  1  0
M  END
>  <Ligand ID>  (1) 
LIG0002052

>  <Ligand>  (1) 
4-(3,4-Methylenedioxyphenyl)-2-butanone

>  <SMILES>  (1) 
CC(=O)CCc1ccc2c(c1)OCO2

>  <CID>  (1) 
62098.0

>  <ChEMBL ID>  (1) 
nan

>  <InChiKey>  (1) 
TZJLGGWGVLADDN-UHFFFAOYSA-N

>  <InChi>  (1) 
InChI=1S/C11H12O3/c1-8(12)2-3-9-4-5-10-11(6-9)14-7-13-10/h4-6H,2-3,7H2,1H3

>  <IUPAC Name>  (1) 
4-(1,3-benzodioxol-5-yl)butan-2-one

$$$$
