
     RDKit          3D

182187  0  0  0  0  0  0  0  0999 V2000
  -10.3310   -3.5146    0.1059 N   0  0  0  0  0  0  0  0  0  0  0  0
  -10.8117   -2.4171    0.8768 C   0  0  0  0  0  0  0  0  0  0  0  0
   -9.7287   -2.0055    1.8702 C   0  0  0  0  0  0  0  0  0  0  0  0
   -8.4422   -1.6044    1.1529 C   0  0  0  0  0  0  0  0  0  0  0  0
   -7.4284   -1.1792    2.1895 C   0  0  0  0  0  0  0  0  0  0  0  0
   -6.1070   -0.7595    1.5107 C   0  0  1  0  0  0  0  0  0  0  0  0
   -5.6501   -1.9679    0.7990 N   0  0  0  0  0  0  0  0  0  0  0  0
   -4.4271   -2.6423    1.1557 C   0  0  0  0  0  0  0  0  0  0  0  0
   -3.7949   -2.1160    2.0723 O   0  0  0  0  0  0  0  0  0  0  0  0
   -3.9921   -3.8976    0.4230 C   0  0  1  0  0  0  0  0  0  0  0  0
   -2.6622   -4.2829    0.8672 N   0  0  0  0  0  0  0  0  0  0  0  0
   -1.6090   -3.4849    0.4212 C   0  0  0  0  0  0  0  0  0  0  0  0
   -1.9536   -2.4959   -0.3177 O   0  0  0  0  0  0  0  0  0  0  0  0
   -0.1359   -3.5713    0.6578 C   0  0  1  0  0  0  0  0  0  0  0  0
    0.6102   -4.4497   -0.2821 C   0  0  0  0  0  0  0  0  0  0  0  0
    0.2133   -5.8618   -0.3268 C   0  0  0  0  0  0  0  0  0  0  0  0
    0.8651   -6.7288    0.5496 C   0  0  0  0  0  0  0  0  0  0  0  0
    0.5778   -8.0732    0.5620 C   0  0  0  0  0  0  0  0  0  0  0  0
   -0.3802   -8.5284   -0.3252 C   0  0  0  0  0  0  0  0  0  0  0  0
   -1.0439   -7.6975   -1.2044 C   0  0  0  0  0  0  0  0  0  0  0  0
   -0.7573   -6.3411   -1.2208 C   0  0  0  0  0  0  0  0  0  0  0  0
    0.3343   -2.1824    0.2381 N   0  0  0  0  0  0  0  0  0  0  0  0
    0.6727   -1.2278    1.2200 C   0  0  0  0  0  0  0  0  0  0  0  0
    0.8522   -1.6461    2.3852 O   0  0  0  0  0  0  0  0  0  0  0  0
    0.8348    0.2635    0.8897 C   0  0  1  0  0  0  0  0  0  0  0  0
   -0.0130    0.9967    1.8354 C   0  0  0  0  0  0  0  0  0  0  0  0
   -0.1885    2.7300    1.5571 S   0  0  0  0  0  0  0  0  0  0  0  0
   -1.0394    3.1088   -0.3828 S   0  0  0  0  0  0  0  0  0  0  0  0
   -2.8037    2.8865   -0.3250 C   0  0  0  0  0  0  0  0  0  0  0  0
   -3.5220    3.7582    0.6970 C   0  0  2  0  0  0  0  0  0  0  0  0
   -4.8783    3.2704    0.7865 N   0  0  0  0  0  0  0  0  0  0  0  0
   -5.9121    3.4284   -0.1722 C   0  0  0  0  0  0  0  0  0  0  0  0
   -5.6896    4.2283   -1.0810 O   0  0  0  0  0  0  0  0  0  0  0  0
   -7.2060    2.6430   -0.0483 C   0  0  1  0  0  0  0  0  0  0  0  0
   -6.8863    1.6391    0.9887 N   0  0  0  0  0  0  0  0  0  0  0  0
   -6.4594    0.3128    0.6067 C   0  0  0  0  0  0  0  0  0  0  0  0
   -6.4118    0.1446   -0.6181 O   0  0  0  0  0  0  0  0  0  0  0  0
   -8.3197    3.5194    0.3416 C   0  0  0  0  0  0  0  0  0  0  0  0
   -8.6181    4.6310   -0.5795 C   0  0  0  0  0  0  0  0  0  0  0  0
   -9.4439    4.4105   -1.6831 C   0  0  0  0  0  0  0  0  0  0  0  0
   -9.7833    5.4240   -2.5551 C   0  0  0  0  0  0  0  0  0  0  0  0
   -9.3432    6.6957   -2.4038 C   0  0  0  0  0  0  0  0  0  0  0  0
   -8.5115    6.9480   -1.3028 C   0  0  0  0  0  0  0  0  0  0  0  0
   -8.1691    5.9248   -0.4261 C   0  0  0  0  0  0  0  0  0  0  0  0
   -9.6435    7.7607   -3.2308 O   0  0  0  0  0  0  0  0  0  0  0  0
   -3.2475    5.1640    0.6226 C   0  0  0  0  0  0  0  0  0  0  0  0
   -1.9910    5.4852    0.5065 O   0  0  0  0  0  0  0  0  0  0  0  0
   -4.1183    6.2638    0.6547 N   0  0  0  0  0  0  0  0  0  0  0  0
   -3.6060    7.6153    0.5756 C   0  0  2  0  0  0  0  0  0  0  0  0
   -4.3173    8.5404    1.4865 C   0  0  0  0  0  0  0  0  0  0  0  0
   -4.0246    9.7721    1.5435 O   0  0  0  0  0  0  0  0  0  0  0  0
   -5.3372    8.1127    2.3261 O   0  0  0  0  0  0  0  0  0  0  0  0
   -3.8172    8.0593   -0.8909 C   0  0  0  0  0  0  0  0  0  0  0  0
   -3.2855    9.4658   -1.0397 C   0  0  0  0  0  0  0  0  0  0  0  0
   -5.2809    7.9530   -1.1689 C   0  0  0  0  0  0  0  0  0  0  0  0
    2.1316    0.7056    0.5997 N   0  0  0  0  0  0  0  0  0  0  0  0
    3.1125    0.1085   -0.2104 C   0  0  0  0  0  0  0  0  0  0  0  0
    2.9595   -0.9922   -0.7780 O   0  0  0  0  0  0  0  0  0  0  0  0
    4.4115    0.8601   -0.3966 C   0  0  1  0  0  0  0  0  0  0  0  0
    5.3918    0.0377   -1.0705 N   0  0  0  0  0  0  0  0  0  0  0  0
    6.7069    0.0625   -0.6133 C   0  0  0  0  0  0  0  0  0  0  0  0
    6.9613    0.8202    0.3976 O   0  0  0  0  0  0  0  0  0  0  0  0
    7.8499   -0.6872   -1.1693 C   0  0  1  0  0  0  0  0  0  0  0  0
    8.0107   -0.2781   -2.5931 C   0  0  0  0  0  0  0  0  0  0  0  0
    8.8750    0.9724   -2.5413 C   0  0  0  0  0  0  0  0  0  0  0  0
    9.6777    0.8105   -1.2703 C   0  0  0  0  0  0  0  0  0  0  0  0
    9.0965   -0.2690   -0.4957 N   0  0  0  0  0  0  0  0  0  0  0  0
    9.5285   -0.8771    0.6949 C   0  0  0  0  0  0  0  0  0  0  0  0
    8.7354   -1.8390    1.1168 O   0  0  0  0  0  0  0  0  0  0  0  0
   10.6690   -0.6518    1.5508 C   0  0  2  0  0  0  0  0  0  0  0  0
   10.1230   -0.1775    2.9380 C   0  0  2  0  0  0  0  0  0  0  0  0
    9.5383    1.0802    2.7312 O   0  0  0  0  0  0  0  0  0  0  0  0
   11.2204   -0.0749    3.9547 C   0  0  0  0  0  0  0  0  0  0  0  0
   11.6290    0.3003    1.0932 N   0  0  0  0  0  0  0  0  0  0  0  0
   13.0198   -0.0507    1.3031 C   0  0  0  0  0  0  0  0  0  0  0  0
   13.3254   -1.1515    1.8492 O   0  0  0  0  0  0  0  0  0  0  0  0
   14.1461    0.8281    0.9201 C   0  0  2  0  0  0  0  0  0  0  0  0
   14.7119    0.5285   -0.4639 C   0  0  0  0  0  0  0  0  0  0  0  0
   13.5952    0.7033   -1.4505 C   0  0  0  0  0  0  0  0  0  0  0  0
   14.0374    0.4780   -2.8695 C   0  0  0  0  0  0  0  0  0  0  0  0
   15.1951    0.1463   -3.1693 O   0  0  0  0  0  0  0  0  0  0  0  0
   13.0435    0.6708   -3.8323 O   0  0  0  0  0  0  0  0  0  0  0  0
   15.2967    0.5771    1.8133 N   0  0  0  0  0  0  0  0  0  0  0  0
    4.1071    1.9696   -1.4553 C   0  0  0  0  0  0  0  0  0  0  0  0
    3.6605    1.2947   -2.7129 C   0  0  0  0  0  0  0  0  0  0  0  0
    4.4483    0.9243   -3.6175 O   0  0  0  0  0  0  0  0  0  0  0  0
    2.3033    1.0293   -2.9584 O   0  0  0  0  0  0  0  0  0  0  0  0
   -5.0719   -4.8641    0.4651 C   0  0  0  0  0  0  0  0  0  0  0  0
   -4.9178   -6.1695   -0.1727 C   0  0  0  0  0  0  0  0  0  0  0  0
   -5.3937   -6.4413   -1.4527 C   0  0  0  0  0  0  0  0  0  0  0  0
   -5.1170   -7.7094   -1.8026 N   0  0  0  0  0  0  0  0  0  0  0  0
   -4.4598   -8.2688   -0.7598 C   0  0  0  0  0  0  0  0  0  0  0  0
   -4.3309   -7.3433    0.2438 C   0  0  0  0  0  0  0  0  0  0  0  0
   -3.7167   -7.6318    1.4421 C   0  0  0  0  0  0  0  0  0  0  0  0
   -3.1916   -8.9018    1.6832 C   0  0  0  0  0  0  0  0  0  0  0  0
   -3.3141   -9.8586    0.6651 C   0  0  0  0  0  0  0  0  0  0  0  0
   -3.9368   -9.5232   -0.5169 C   0  0  0  0  0  0  0  0  0  0  0  0
   -9.8814   -4.2111    0.7221 H   0  0  0  0  0  0  0  0  0  0  0  0
   -9.7282   -3.2490   -0.6802 H   0  0  0  0  0  0  0  0  0  0  0  0
  -11.0795   -1.5350    0.2378 H   0  0  0  0  0  0  0  0  0  0  0  0
  -11.6808   -2.7504    1.4813 H   0  0  0  0  0  0  0  0  0  0  0  0
  -10.1350   -1.2174    2.5157 H   0  0  0  0  0  0  0  0  0  0  0  0
   -9.5402   -2.9246    2.5050 H   0  0  0  0  0  0  0  0  0  0  0  0
   -8.0610   -2.5641    0.6795 H   0  0  0  0  0  0  0  0  0  0  0  0
   -8.6084   -0.9097    0.3417 H   0  0  0  0  0  0  0  0  0  0  0  0
   -7.8109   -0.2907    2.7057 H   0  0  0  0  0  0  0  0  0  0  0  0
   -7.2599   -2.0363    2.8774 H   0  0  0  0  0  0  0  0  0  0  0  0
   -5.4169   -0.4885    2.2977 H   0  0  0  0  0  0  0  0  0  0  0  0
   -6.1574   -2.3937    0.0267 H   0  0  0  0  0  0  0  0  0  0  0  0
   -3.8552   -3.4826   -0.6226 H   0  0  0  0  0  0  0  0  0  0  0  0
   -2.4207   -5.0625    1.4667 H   0  0  0  0  0  0  0  0  0  0  0  0
    0.0911   -3.6529    1.7172 H   0  0  0  0  0  0  0  0  0  0  0  0
    1.6845   -4.4014    0.0292 H   0  0  0  0  0  0  0  0  0  0  0  0
    0.5890   -3.9859   -1.3064 H   0  0  0  0  0  0  0  0  0  0  0  0
    1.6199   -6.3020    1.2382 H   0  0  0  0  0  0  0  0  0  0  0  0
    1.0988   -8.7041    1.2530 H   0  0  0  0  0  0  0  0  0  0  0  0
   -0.5909   -9.5871   -0.2928 H   0  0  0  0  0  0  0  0  0  0  0  0
   -1.8027   -8.0775   -1.9040 H   0  0  0  0  0  0  0  0  0  0  0  0
   -1.2415   -5.6329   -1.8769 H   0  0  0  0  0  0  0  0  0  0  0  0
    0.4094   -1.9269   -0.7348 H   0  0  0  0  0  0  0  0  0  0  0  0
    0.2763    0.2533   -0.1431 H   0  0  0  0  0  0  0  0  0  0  0  0
   -1.0582    0.5412    1.7311 H   0  0  0  0  0  0  0  0  0  0  0  0
    0.2215    0.7477    2.9105 H   0  0  0  0  0  0  0  0  0  0  0  0
   -3.2454    3.1702   -1.3283 H   0  0  0  0  0  0  0  0  0  0  0  0
   -3.0870    1.8263   -0.1265 H   0  0  0  0  0  0  0  0  0  0  0  0
   -3.0496    3.4059    1.6889 H   0  0  0  0  0  0  0  0  0  0  0  0
   -5.1829    2.7453    1.6321 H   0  0  0  0  0  0  0  0  0  0  0  0
   -7.2723    2.1402   -1.0368 H   0  0  0  0  0  0  0  0  0  0  0  0
   -6.9396    1.7972    1.9905 H   0  0  0  0  0  0  0  0  0  0  0  0
   -8.1641    3.8983    1.3969 H   0  0  0  0  0  0  0  0  0  0  0  0
   -9.2325    2.8576    0.4703 H   0  0  0  0  0  0  0  0  0  0  0  0
   -9.8212    3.4111   -1.8374 H   0  0  0  0  0  0  0  0  0  0  0  0
  -10.4411    5.1779   -3.3967 H   0  0  0  0  0  0  0  0  0  0  0  0
   -8.1535    7.9539   -1.1561 H   0  0  0  0  0  0  0  0  0  0  0  0
   -7.5197    6.0928    0.4399 H   0  0  0  0  0  0  0  0  0  0  0  0
  -10.6313    7.8808   -3.5005 H   0  0  0  0  0  0  0  0  0  0  0  0
   -5.1284    6.0981    0.7516 H   0  0  0  0  0  0  0  0  0  0  0  0
   -2.5175    7.5734    0.7267 H   0  0  0  0  0  0  0  0  0  0  0  0
   -5.6064    8.6662    3.1492 H   0  0  0  0  0  0  0  0  0  0  0  0
   -3.2707    7.3610   -1.5147 H   0  0  0  0  0  0  0  0  0  0  0  0
   -4.0700   10.1963   -0.7767 H   0  0  0  0  0  0  0  0  0  0  0  0
   -2.3506    9.5421   -0.4297 H   0  0  0  0  0  0  0  0  0  0  0  0
   -2.9394    9.5934   -2.1061 H   0  0  0  0  0  0  0  0  0  0  0  0
   -5.9153    8.0419   -0.2576 H   0  0  0  0  0  0  0  0  0  0  0  0
   -5.4717    6.9656   -1.6800 H   0  0  0  0  0  0  0  0  0  0  0  0
   -5.5500    8.7233   -1.9518 H   0  0  0  0  0  0  0  0  0  0  0  0
    2.4320    1.6522    1.0610 H   0  0  0  0  0  0  0  0  0  0  0  0
    4.8064    1.3110    0.4893 H   0  0  0  0  0  0  0  0  0  0  0  0
    5.1609   -0.5805   -1.8930 H   0  0  0  0  0  0  0  0  0  0  0  0
    7.7450   -1.7651   -1.0893 H   0  0  0  0  0  0  0  0  0  0  0  0
    7.0379    0.0412   -3.0711 H   0  0  0  0  0  0  0  0  0  0  0  0
    8.5065   -1.0432   -3.2153 H   0  0  0  0  0  0  0  0  0  0  0  0
    9.5172    1.0700   -3.4322 H   0  0  0  0  0  0  0  0  0  0  0  0
    8.2681    1.8855   -2.5030 H   0  0  0  0  0  0  0  0  0  0  0  0
    9.6388    1.7712   -0.7132 H   0  0  0  0  0  0  0  0  0  0  0  0
   10.7234    0.6195   -1.5145 H   0  0  0  0  0  0  0  0  0  0  0  0
   11.1707   -1.6349    1.7838 H   0  0  0  0  0  0  0  0  0  0  0  0
    9.3296   -0.8515    3.2899 H   0  0  0  0  0  0  0  0  0  0  0  0
    8.9884    1.3170    3.4993 H   0  0  0  0  0  0  0  0  0  0  0  0
   10.8506    0.5239    4.8387 H   0  0  0  0  0  0  0  0  0  0  0  0
   12.0275    0.5799    3.5160 H   0  0  0  0  0  0  0  0  0  0  0  0
   11.5901   -1.0362    4.3183 H   0  0  0  0  0  0  0  0  0  0  0  0
   11.4581    1.2100    0.6416 H   0  0  0  0  0  0  0  0  0  0  0  0
   13.9018    1.8920    1.0033 H   0  0  0  0  0  0  0  0  0  0  0  0
   15.5714    1.2111   -0.6912 H   0  0  0  0  0  0  0  0  0  0  0  0
   15.1177   -0.5126   -0.4603 H   0  0  0  0  0  0  0  0  0  0  0  0
   12.8537   -0.1245   -1.2128 H   0  0  0  0  0  0  0  0  0  0  0  0
   13.1650    1.7065   -1.3403 H   0  0  0  0  0  0  0  0  0  0  0  0
   13.0815    0.1390   -4.6886 H   0  0  0  0  0  0  0  0  0  0  0  0
   15.1033    1.0221    2.7305 H   0  0  0  0  0  0  0  0  0  0  0  0
   15.5174   -0.4417    1.8615 H   0  0  0  0  0  0  0  0  0  0  0  0
    3.2970    2.6191   -1.1020 H   0  0  0  0  0  0  0  0  0  0  0  0
    5.0377    2.5267   -1.6553 H   0  0  0  0  0  0  0  0  0  0  0  0
    2.0133    0.4046   -3.7012 H   0  0  0  0  0  0  0  0  0  0  0  0
   -5.3320   -5.0158    1.5780 H   0  0  0  0  0  0  0  0  0  0  0  0
   -6.0039   -4.3890    0.0466 H   0  0  0  0  0  0  0  0  0  0  0  0
   -5.9186   -5.7576   -2.1076 H   0  0  0  0  0  0  0  0  0  0  0  0
   -5.3767   -8.1370   -2.7205 H   0  0  0  0  0  0  0  0  0  0  0  0
   -3.6236   -6.9132    2.2188 H   0  0  0  0  0  0  0  0  0  0  0  0
   -2.7104   -9.1339    2.6322 H   0  0  0  0  0  0  0  0  0  0  0  0
   -2.8947  -10.8229    0.8855 H   0  0  0  0  0  0  0  0  0  0  0  0
   -4.0589  -10.2447   -1.3342 H   0  0  0  0  0  0  0  0  0  0  0  0
  1  2  1  0
  2  3  1  0
  3  4  1  0
  4  5  1  0
  5  6  1  0
  6  7  1  0
  7  8  1  0
  8  9  2  0
  8 10  1  0
 10 11  1  0
 11 12  1  0
 12 13  2  0
 12 14  1  0
 14 15  1  0
 15 16  1  0
 16 17  2  0
 17 18  1  0
 18 19  2  0
 19 20  1  0
 20 21  2  0
 14 22  1  0
 22 23  1  0
 23 24  2  0
 23 25  1  0
 25 26  1  0
 26 27  1  0
 27 28  1  0
 28 29  1  0
 29 30  1  0
 30 31  1  0
 31 32  1  0
 32 33  2  0
 32 34  1  0
 34 35  1  0
 35 36  1  0
 36 37  2  0
 34 38  1  0
 38 39  1  0
 39 40  2  0
 40 41  1  0
 41 42  2  0
 42 43  1  0
 43 44  2  0
 42 45  1  0
 30 46  1  0
 46 47  2  0
 46 48  1  0
 48 49  1  0
 49 50  1  0
 50 51  2  0
 50 52  1  0
 49 53  1  0
 53 54  1  0
 53 55  1  0
 25 56  1  0
 56 57  1  0
 57 58  2  0
 57 59  1  0
 59 60  1  0
 60 61  1  0
 61 62  2  0
 61 63  1  0
 63 64  1  0
 64 65  1  0
 65 66  1  0
 66 67  1  0
 67 68  1  0
 68 69  2  0
 68 70  1  0
 70 71  1  0
 71 72  1  0
 71 73  1  0
 70 74  1  0
 74 75  1  0
 75 76  2  0
 75 77  1  0
 77 78  1  0
 78 79  1  0
 79 80  1  0
 80 81  2  0
 80 82  1  0
 77 83  1  0
 59 84  1  0
 84 85  1  0
 85 86  2  0
 85 87  1  0
 10 88  1  0
 88 89  1  0
 89 90  2  0
 90 91  1  0
 91 92  1  0
 92 93  2  0
 93 94  1  0
 94 95  2  0
 95 96  1  0
 96 97  2  0
 36  6  1  0
 44 39  1  0
 67 63  1  0
 93 89  1  0
 21 16  1  0
 97 92  1  0
  1 98  1  0
  1 99  1  0
  2100  1  0
  2101  1  0
  3102  1  0
  3103  1  0
  4104  1  0
  4105  1  0
  5106  1  0
  5107  1  0
  6108  1  1
  7109  1  0
 10110  1  6
 11111  1  0
 14112  1  1
 15113  1  0
 15114  1  0
 17115  1  0
 18116  1  0
 19117  1  0
 20118  1  0
 21119  1  0
 22120  1  0
 25121  1  6
 26122  1  0
 26123  1  0
 29124  1  0
 29125  1  0
 30126  1  1
 31127  1  0
 34128  1  6
 35129  1  0
 38130  1  0
 38131  1  0
 40132  1  0
 41133  1  0
 43134  1  0
 44135  1  0
 45136  1  0
 48137  1  0
 49138  1  1
 52139  1  0
 53140  1  0
 54141  1  0
 54142  1  0
 54143  1  0
 55144  1  0
 55145  1  0
 55146  1  0
 56147  1  0
 59148  1  1
 60149  1  0
 63150  1  6
 64151  1  0
 64152  1  0
 65153  1  0
 65154  1  0
 66155  1  0
 66156  1  0
 70157  1  1
 71158  1  1
 72159  1  0
 73160  1  0
 73161  1  0
 73162  1  0
 74163  1  0
 77164  1  6
 78165  1  0
 78166  1  0
 79167  1  0
 79168  1  0
 82169  1  0
 83170  1  0
 83171  1  0
 84172  1  0
 84173  1  0
 87174  1  0
 88175  1  0
 88176  1  0
 90177  1  0
 91178  1  0
 94179  1  0
 95180  1  0
 96181  1  0
 97182  1  0
M  END
>  <Ligand ID>  (1) 
LIG0005358

>  <Ligand>  (1) 
CHEMBL437430

>  <SMILES>  (1) 
NCCCC[C@H]1NC(=O)[C@@H](NC(=O)[C@@H](Cc2ccccc2)NC(=O)[C@@H](CSSC[C@H](NC(=O)[C@@H](NC1=O)Cc1ccc(cc1)O)C(=O)N[C@H](C(=O)O)C(C)C)NC(=O)[C@@H](NC(=O)[C@H]1CCCN1C(=O)[C@H]([C@H](O)C)NC(=O)[C@H](CCC(=O)O)N)CC(=O)O)Cc1c[nH]c2c1cccc2

>  <CID>  (1) 
44290317.0

>  <ChEMBL ID>  (1) 
nan

>  <InChiKey>  (1) 
HFNHAPQMXICKCF-FDMLFMOBSA-N

>  <InChi>  (1) 
InChI=1S/C64H85N13O18S2/c1-33(2)52(64(94)95)75-61(91)48-32-97-96-31-47(73-59(89)46(29-51(82)83)72-62(92)49-17-11-25-77(49)63(93)53(34(3)78)76-54(84)40(66)22-23-50(80)81)60(90)70-43(26-35-12-5-4-6-13-35)56(86)71-45(28-37-30-67-41-15-8-7-14-39(37)41)58(88)68-42(16-9-10-24-65)55(85)69-44(57(87)74-48)27-36-18-20-38(79)21-19-36/h4-8,12-15,18-21,30,33-34,40,42-49,52-53,67,78-79H,9-11,16-17,22-29,31-32,65-66H2,1-3H3,(H,68,88)(H,69,85)(H,70,90)(H,71,86)(H,72,92)(H,73,89)(H,74,87)(H,75,91)(H,76,84)(H,80,81)(H,82,83)(H,94,95)/t34-,40+,42-,43-,44+,45+,46+,47-,48+,49-,52+,53+/m1/s1

>  <IUPAC Name>  (1) 
(4S)-4-amino-5-[[(2S,3R)-1-[(2R)-2-[[(2S)-1-[[(4R,7S,10R,13S,16R,19S)-10-(4-aminobutyl)-16-benzyl-4-[[(1S)-1-carboxy-2-methylpropyl]carbamoyl]-7-[(4-hydroxyphenyl)methyl]-13-(1H-indol-3-ylmethyl)-6,9,12,15,18-pentaoxo-1,2-dithia-5,8,11,14,17-pentazacycloicos-19-yl]amino]-3-carboxy-1-oxopropan-2-yl]carbamoyl]pyrrolidin-1-yl]-3-hydroxy-1-oxobutan-2-yl]amino]-5-oxopentanoic acid

$$$$
