
     RDKit          3D

 65 71  0  0  0  0  0  0  0  0999 V2000
    6.0095    1.5825   -0.2788 C   0  0  0  0  0  0  0  0  0  0  0  0
    4.4975    1.5810   -0.5400 C   0  0  0  0  0  0  0  0  0  0  0  0
    4.2704    0.6840   -1.7043 C   0  0  0  0  0  0  0  0  0  0  0  0
    2.8451    0.5350   -2.1443 C   0  0  0  0  0  0  0  0  0  0  0  0
    2.0456   -0.0499   -1.0434 C   0  0  0  0  0  0  0  0  0  0  0  0
    2.5173   -0.4104    0.0597 O   0  0  0  0  0  0  0  0  0  0  0  0
    0.6571   -0.2116   -1.2533 N   0  0  0  0  0  0  0  0  0  0  0  0
   -0.2675   -0.7639   -0.2924 C   0  0  1  0  0  0  0  0  0  0  0  0
   -0.2299    0.0801    0.9492 C   0  0  0  0  0  0  0  0  0  0  0  0
   -0.7717    1.4145    0.6599 C   0  0  0  0  0  0  0  0  0  0  0  0
   -1.7569    1.6596   -0.2641 C   0  0  0  0  0  0  0  0  0  0  0  0
   -2.3137    0.5630   -1.0292 C   0  0  1  0  0  0  0  0  0  0  0  0
   -1.6563   -0.7741   -0.8451 C   0  0  1  0  0  0  0  0  0  0  0  0
   -1.7064   -1.5931   -2.0956 C   0  0  0  0  0  0  0  0  0  0  0  0
   -1.0395   -2.9052   -1.9440 C   0  0  0  0  0  0  0  0  0  0  0  0
    0.2858   -2.8057   -1.3431 N   0  0  0  0  0  0  0  0  0  0  0  0
    0.1571   -2.1920   -0.0092 C   0  0  0  0  0  0  0  0  0  0  0  0
   -0.7946   -3.0135    0.7728 C   0  0  0  0  0  0  0  0  0  0  0  0
   -2.1224   -2.4182    0.9816 C   0  0  0  0  0  0  0  0  0  0  0  0
   -2.5101   -1.3467    0.2296 C   0  0  0  0  0  0  0  0  0  0  0  0
   -3.6978   -0.6732    0.3339 C   0  0  0  0  0  0  0  0  0  0  0  0
   -3.6824    0.3632   -0.6212 O   0  0  0  0  0  0  0  0  0  0  0  0
   -4.5914   -1.1152    1.2830 C   0  0  0  0  0  0  0  0  0  0  0  0
   -4.2562   -2.2058    2.0818 C   0  0  0  0  0  0  0  0  0  0  0  0
   -3.0274   -2.8618    1.9392 C   0  0  0  0  0  0  0  0  0  0  0  0
   -5.8057   -0.4538    1.4125 O   0  0  0  0  0  0  0  0  0  0  0  0
    0.8386   -4.1319   -1.2503 C   0  0  0  0  0  0  0  0  0  0  0  0
   -1.9960    2.9646   -0.2519 N   0  0  0  0  0  0  0  0  0  0  0  0
   -1.2108    3.5750    0.6373 C   0  0  0  0  0  0  0  0  0  0  0  0
   -0.4102    2.6331    1.2471 C   0  0  0  0  0  0  0  0  0  0  0  0
    0.4981    3.0020    2.2116 C   0  0  0  0  0  0  0  0  0  0  0  0
    0.5797    4.3378    2.5455 C   0  0  0  0  0  0  0  0  0  0  0  0
   -0.2059    5.3125    1.9567 C   0  0  0  0  0  0  0  0  0  0  0  0
   -1.1044    4.9028    0.9940 C   0  0  0  0  0  0  0  0  0  0  0  0
    6.4777    2.0023   -1.2131 H   0  0  0  0  0  0  0  0  0  0  0  0
    6.2782    2.1669    0.6067 H   0  0  0  0  0  0  0  0  0  0  0  0
    6.3525    0.5529   -0.1667 H   0  0  0  0  0  0  0  0  0  0  0  0
    4.1395    2.6200   -0.7042 H   0  0  0  0  0  0  0  0  0  0  0  0
    4.0412    1.2476    0.3992 H   0  0  0  0  0  0  0  0  0  0  0  0
    4.7090   -0.3173   -1.4219 H   0  0  0  0  0  0  0  0  0  0  0  0
    4.8406    1.0315   -2.5933 H   0  0  0  0  0  0  0  0  0  0  0  0
    2.7573   -0.0495   -3.0768 H   0  0  0  0  0  0  0  0  0  0  0  0
    2.4182    1.5468   -2.4085 H   0  0  0  0  0  0  0  0  0  0  0  0
    0.2622    0.0977   -2.1915 H   0  0  0  0  0  0  0  0  0  0  0  0
   -0.9474   -0.3858    1.6856 H   0  0  0  0  0  0  0  0  0  0  0  0
    0.7428    0.1037    1.4675 H   0  0  0  0  0  0  0  0  0  0  0  0
   -2.4090    0.8239   -2.1158 H   0  0  0  0  0  0  0  0  0  0  0  0
   -1.2637   -1.0252   -2.9398 H   0  0  0  0  0  0  0  0  0  0  0  0
   -2.7775   -1.7758   -2.3271 H   0  0  0  0  0  0  0  0  0  0  0  0
   -1.6845   -3.6594   -1.4815 H   0  0  0  0  0  0  0  0  0  0  0  0
   -0.8330   -3.3056   -2.9809 H   0  0  0  0  0  0  0  0  0  0  0  0
    1.1519   -2.2295    0.4270 H   0  0  0  0  0  0  0  0  0  0  0  0
   -0.8590   -4.0380    0.3206 H   0  0  0  0  0  0  0  0  0  0  0  0
   -0.3051   -3.2227    1.7767 H   0  0  0  0  0  0  0  0  0  0  0  0
   -4.9747   -2.5280    2.8138 H   0  0  0  0  0  0  0  0  0  0  0  0
   -2.7628   -3.7074    2.5565 H   0  0  0  0  0  0  0  0  0  0  0  0
   -6.2321   -0.1780    2.2812 H   0  0  0  0  0  0  0  0  0  0  0  0
    0.1059   -4.8980   -1.5743 H   0  0  0  0  0  0  0  0  0  0  0  0
    1.2515   -4.3634   -0.2484 H   0  0  0  0  0  0  0  0  0  0  0  0
    1.6589   -4.1774   -2.0132 H   0  0  0  0  0  0  0  0  0  0  0  0
   -2.6989    3.4369   -0.8544 H   0  0  0  0  0  0  0  0  0  0  0  0
    1.1089    2.2651    2.6734 H   0  0  0  0  0  0  0  0  0  0  0  0
    1.2884    4.6869    3.3097 H   0  0  0  0  0  0  0  0  0  0  0  0
   -0.1497    6.3589    2.2106 H   0  0  0  0  0  0  0  0  0  0  0  0
   -1.7323    5.6551    0.5183 H   0  0  0  0  0  0  0  0  0  0  0  0
  1  2  1  0
  2  3  1  0
  3  4  1  0
  4  5  1  0
  5  6  2  0
  5  7  1  0
  8  7  1  6
  8  9  1  0
  9 10  1  0
 10 11  2  0
 11 12  1  0
 12 13  1  0
 13 14  1  6
 14 15  1  0
 15 16  1  0
 16 17  1  0
 17 18  1  0
 18 19  1  0
 19 20  2  0
 20 21  1  0
 21 22  1  0
 21 23  2  0
 23 24  1  0
 24 25  2  0
 23 26  1  0
 16 27  1  0
 11 28  1  0
 28 29  1  0
 29 30  2  0
 30 31  1  0
 31 32  2  0
 32 33  1  0
 33 34  2  0
 17  8  1  0
 25 19  1  0
 34 29  1  0
 13  8  1  0
 30 10  1  0
 22 12  1  0
 20 13  1  0
  1 35  1  0
  1 36  1  0
  1 37  1  0
  2 38  1  0
  2 39  1  0
  3 40  1  0
  3 41  1  0
  4 42  1  0
  4 43  1  0
  7 44  1  0
  9 45  1  0
  9 46  1  0
 12 47  1  6
 14 48  1  0
 14 49  1  0
 15 50  1  0
 15 51  1  0
 17 52  1  0
 18 53  1  0
 18 54  1  0
 24 55  1  0
 25 56  1  0
 26 57  1  0
 27 58  1  0
 27 59  1  0
 27 60  1  0
 28 61  1  0
 31 62  1  0
 32 63  1  0
 33 64  1  0
 34 65  1  0
M  END
>  <Ligand ID>  (1) 
LIG0004185

>  <Ligand>  (1) 
CHEMBL2113381

>  <SMILES>  (1) 
CCCCC(=O)N[C@]12Cc3c([C@H]4[C@]52CCN(C1Cc1c5c(O4)c(cc1)O)C)[nH]c1c3cccc1

>  <CID>  (1) 
71456258.0

>  <ChEMBL ID>  (1) 
nan

>  <InChiKey>  (1) 
LQSPBMZMOPAOOK-UKRMFAJRSA-N

>  <InChi>  (1) 
InChI=1S/C28H31N3O3/c1-3-4-9-22(33)30-28-15-18-17-7-5-6-8-19(17)29-24(18)26-27(28)12-13-31(2)21(28)14-16-10-11-20(32)25(34-26)23(16)27/h5-8,10-11,21,26,29,32H,3-4,9,12-15H2,1-2H3,(H,30,33)/t21?,26-,27-,28+/m0/s1

>  <IUPAC Name>  (1) 
N-[(1R,2S,13R)-16-hydroxy-22-methyl-14-oxa-11,22-diazaheptacyclo[13.9.1.01,13.02,21.04,12.05,10.019,25]pentacosa-4(12),5,7,9,15,17,19(25)-heptaen-2-yl]pentanamide

$$$$
