
     RDKit          3D

 57 59  0  0  0  0  0  0  0  0999 V2000
   -4.4445    0.1482   -2.7526 F   0  0  0  0  0  0  0  0  0  0  0  0
   -5.1390    1.2554   -2.3919 C   0  0  0  0  0  0  0  0  0  0  0  0
   -5.7422    1.2538   -1.0329 C   0  0  0  0  0  0  0  0  0  0  0  0
   -4.7597    1.1191    0.1008 C   0  0  0  0  0  0  0  0  0  0  0  0
   -3.9403   -0.1011    0.1192 C   0  0  0  0  0  0  0  0  0  0  0  0
   -2.9741   -0.2308    1.2542 C   0  0  0  0  0  0  0  0  0  0  0  0
   -1.9843    0.9095    1.2531 C   0  0  0  0  0  0  0  0  0  0  0  0
   -2.5664    1.3680    2.5665 C   0  0  0  0  0  0  0  0  0  0  0  0
   -3.3972    0.1398    2.6067 C   0  0  0  0  0  0  0  0  0  0  0  0
   -2.2662   -1.5703    1.2204 C   0  0  1  0  0  0  0  0  0  0  0  0
   -1.5267   -1.6812   -0.0609 C   0  0  0  0  0  0  0  0  0  0  0  0
   -0.2102   -1.5483   -0.1707 C   0  0  0  0  0  0  0  0  0  0  0  0
    0.5200   -1.6597   -1.4444 C   0  0  1  0  0  0  0  0  0  0  0  0
   -0.1690   -1.0577   -2.6272 C   0  0  0  0  0  0  0  0  0  0  0  0
    0.2705    0.3009   -2.5778 O   0  0  0  0  0  0  0  0  0  0  0  0
    1.6274    0.2564   -2.2297 C   0  0  0  0  0  0  0  0  0  0  0  0
    2.5592    1.0181   -2.6093 O   0  0  0  0  0  0  0  0  0  0  0  0
    1.7268   -0.8527   -1.3407 N   0  0  0  0  0  0  0  0  0  0  0  0
    2.8483   -1.1521   -0.4633 C   0  0  0  0  0  0  0  0  0  0  0  0
    3.8243   -2.0301   -1.1877 C   0  0  0  0  0  0  0  0  0  0  0  0
    5.2189   -2.4070   -0.1164 S   0  0  0  0  0  0  0  0  0  0  0  0
    6.1565   -0.9274    0.2132 C   0  0  0  0  0  0  0  0  0  0  0  0
    7.5993   -0.4723   -0.9896 S   0  0  0  0  0  0  0  0  0  0  0  0
    7.9677    0.9914   -0.0284 C   0  0  0  0  0  0  0  0  0  0  0  0
    7.0278    0.9915    1.0341 C   0  0  0  0  0  0  0  0  0  0  0  0
    6.2244   -0.0427    0.9689 N   0  0  0  0  0  0  0  0  0  0  0  0
    7.0343    2.0542    2.0295 C   0  0  0  0  0  0  0  0  0  0  0  0
    7.8667    2.9822    1.9640 O   0  0  0  0  0  0  0  0  0  0  0  0
    6.1301    2.0800    3.0770 O   0  0  0  0  0  0  0  0  0  0  0  0
   -1.4592   -1.6983    2.3337 O   0  0  0  0  0  0  0  0  0  0  0  0
   -5.9624    1.3855   -3.1201 H   0  0  0  0  0  0  0  0  0  0  0  0
   -4.4696    2.1429   -2.4784 H   0  0  0  0  0  0  0  0  0  0  0  0
   -6.6041    0.5614   -0.9277 H   0  0  0  0  0  0  0  0  0  0  0  0
   -6.2090    2.2764   -0.9008 H   0  0  0  0  0  0  0  0  0  0  0  0
   -4.1996    2.0721    0.1173 H   0  0  0  0  0  0  0  0  0  0  0  0
   -5.3936    1.1601    1.0373 H   0  0  0  0  0  0  0  0  0  0  0  0
   -3.3307   -0.1565   -0.8192 H   0  0  0  0  0  0  0  0  0  0  0  0
   -4.6097   -0.9848    0.0977 H   0  0  0  0  0  0  0  0  0  0  0  0
   -2.1629    1.6718    0.4614 H   0  0  0  0  0  0  0  0  0  0  0  0
   -0.9205    0.5973    1.3316 H   0  0  0  0  0  0  0  0  0  0  0  0
   -1.7589    1.4417    3.3497 H   0  0  0  0  0  0  0  0  0  0  0  0
   -3.1004    2.3361    2.5151 H   0  0  0  0  0  0  0  0  0  0  0  0
   -4.4733    0.2586    2.8197 H   0  0  0  0  0  0  0  0  0  0  0  0
   -2.9948   -0.5493    3.4014 H   0  0  0  0  0  0  0  0  0  0  0  0
   -3.0289   -2.3930    1.3051 H   0  0  0  0  0  0  0  0  0  0  0  0
   -2.0881   -1.8801   -0.9479 H   0  0  0  0  0  0  0  0  0  0  0  0
    0.3447   -1.3476    0.7383 H   0  0  0  0  0  0  0  0  0  0  0  0
    0.8038   -2.7236   -1.6027 H   0  0  0  0  0  0  0  0  0  0  0  0
    0.2694   -1.5192   -3.5367 H   0  0  0  0  0  0  0  0  0  0  0  0
   -1.2538   -1.1646   -2.6602 H   0  0  0  0  0  0  0  0  0  0  0  0
    3.3597   -0.2103   -0.2388 H   0  0  0  0  0  0  0  0  0  0  0  0
    2.5179   -1.6768    0.4559 H   0  0  0  0  0  0  0  0  0  0  0  0
    4.2238   -1.5315   -2.0971 H   0  0  0  0  0  0  0  0  0  0  0  0
    3.3543   -3.0157   -1.4680 H   0  0  0  0  0  0  0  0  0  0  0  0
    8.7714    1.7388   -0.2341 H   0  0  0  0  0  0  0  0  0  0  0  0
    6.0057    2.9472    3.6155 H   0  0  0  0  0  0  0  0  0  0  0  0
   -1.1139   -0.8737    2.7056 H   0  0  0  0  0  0  0  0  0  0  0  0
  1  2  1  0
  2  3  1  0
  3  4  1  0
  4  5  1  0
  5  6  1  0
  6  7  1  0
  7  8  1  0
  8  9  1  0
  6 10  1  0
 10 11  1  0
 11 12  2  0
 12 13  1  0
 13 14  1  0
 14 15  1  0
 15 16  1  0
 16 17  2  0
 16 18  1  0
 18 19  1  0
 19 20  1  0
 20 21  1  0
 21 22  1  0
 22 23  1  0
 23 24  1  0
 24 25  2  0
 25 26  1  0
 25 27  1  0
 27 28  2  0
 27 29  1  0
 10 30  1  0
  9  6  1  0
 18 13  1  0
 26 22  2  0
  2 31  1  0
  2 32  1  0
  3 33  1  0
  3 34  1  0
  4 35  1  0
  4 36  1  0
  5 37  1  0
  5 38  1  0
  7 39  1  0
  7 40  1  0
  8 41  1  0
  8 42  1  0
  9 43  1  0
  9 44  1  0
 10 45  1  6
 11 46  1  0
 12 47  1  0
 13 48  1  6
 14 49  1  0
 14 50  1  0
 19 51  1  0
 19 52  1  0
 20 53  1  0
 20 54  1  0
 24 55  1  0
 29 56  1  0
 30 57  1  0
M  END
>  <Ligand ID>  (1) 
LIG0002926

>  <Ligand>  (1) 
CHEMBL3751951

>  <SMILES>  (1) 
FCCCCC1(CCC1)[C@@H](/C=C/[C@H]1COC(=O)N1CCSc1scc(n1)C(=O)O)O

>  <CID>  (1) 
11294085.0

>  <ChEMBL ID>  (1) 
nan

>  <InChiKey>  (1) 
URMNVJYXANRVOF-WIJLQKJISA-N

>  <InChi>  (1) 
InChI=1S/C20H27FN2O5S2/c21-9-2-1-6-20(7-3-8-20)16(24)5-4-14-12-28-19(27)23(14)10-11-29-18-22-15(13-30-18)17(25)26/h4-5,13-14,16,24H,1-3,6-12H2,(H,25,26)/b5-4+/t14-,16+/m0/s1

>  <IUPAC Name>  (1) 
2-[2-[(4S)-4-[(E,3R)-3-[1-(4-fluorobutyl)cyclobutyl]-3-hydroxyprop-1-enyl]-2-oxo-1,3-oxazolidin-3-yl]ethylsulfanyl]-1,3-thiazole-4-carboxylic acid

$$$$
