
     RDKit          3D

 30 31  0  0  0  0  0  0  0  0999 V2000
   -2.9243   -2.2544   -2.3846 O   0  0  0  0  0  0  0  0  0  0  0  0
   -2.1478   -1.7377   -1.5304 C   0  0  0  0  0  0  0  0  0  0  0  0
   -2.4923   -0.5141   -0.7991 C   0  0  0  0  0  0  0  0  0  0  0  0
   -3.7060    0.0894   -1.0558 C   0  0  0  0  0  0  0  0  0  0  0  0
   -4.0913    1.2445   -0.4009 C   0  0  0  0  0  0  0  0  0  0  0  0
   -3.2154    1.7728    0.5210 C   0  0  0  0  0  0  0  0  0  0  0  0
   -1.9951    1.1582    0.7732 C   0  0  0  0  0  0  0  0  0  0  0  0
   -1.5904    0.0094    0.1347 C   0  0  0  0  0  0  0  0  0  0  0  0
   -0.4230   -0.6528    0.3192 O   0  0  0  0  0  0  0  0  0  0  0  0
    0.6151   -0.3298    1.1802 C   0  0  0  0  0  0  0  0  0  0  0  0
    1.8699   -0.0588    0.3950 C   0  0  0  0  0  0  0  0  0  0  0  0
    1.9744   -0.1153   -0.8804 N   0  0  0  0  0  0  0  0  0  0  0  0
    3.2929    0.1923   -1.3565 C   0  0  0  0  0  0  0  0  0  0  0  0
    3.9737    0.7951   -0.1728 C   0  0  0  0  0  0  0  0  0  0  0  0
    3.1469    0.3036    0.9216 N   0  0  0  0  0  0  0  0  0  0  0  0
    0.8277   -1.4663    2.1514 C   0  0  0  0  0  0  0  0  0  0  0  0
   -1.1875   -2.2233   -1.3334 H   0  0  0  0  0  0  0  0  0  0  0  0
   -4.3550   -0.3716   -1.7921 H   0  0  0  0  0  0  0  0  0  0  0  0
   -5.0288    1.7247   -0.5885 H   0  0  0  0  0  0  0  0  0  0  0  0
   -3.5175    2.6745    1.0315 H   0  0  0  0  0  0  0  0  0  0  0  0
   -1.3646    1.6100    1.4916 H   0  0  0  0  0  0  0  0  0  0  0  0
    0.3540    0.5924    1.7304 H   0  0  0  0  0  0  0  0  0  0  0  0
    3.8697   -0.7138   -1.6487 H   0  0  0  0  0  0  0  0  0  0  0  0
    3.2926    0.9426   -2.1901 H   0  0  0  0  0  0  0  0  0  0  0  0
    5.0302    0.4963   -0.0506 H   0  0  0  0  0  0  0  0  0  0  0  0
    3.9083    1.9081   -0.1574 H   0  0  0  0  0  0  0  0  0  0  0  0
    3.4318    0.2263    1.9230 H   0  0  0  0  0  0  0  0  0  0  0  0
    1.3610   -2.2872    1.6364 H   0  0  0  0  0  0  0  0  0  0  0  0
    1.2842   -1.1575    3.1060 H   0  0  0  0  0  0  0  0  0  0  0  0
   -0.1932   -1.8576    2.3992 H   0  0  0  0  0  0  0  0  0  0  0  0
  1  2  2  0
  2  3  1  0
  3  4  2  0
  4  5  1  0
  5  6  2  0
  6  7  1  0
  7  8  2  0
  8  9  1  0
  9 10  1  0
 10 11  1  0
 11 12  2  0
 12 13  1  0
 13 14  1  0
 14 15  1  0
 10 16  1  0
  8  3  1  0
 15 11  1  0
  2 17  1  0
  4 18  1  0
  5 19  1  0
  6 20  1  0
  7 21  1  0
 10 22  1  0
 13 23  1  0
 13 24  1  0
 14 25  1  0
 14 26  1  0
 15 27  1  0
 16 28  1  0
 16 29  1  0
 16 30  1  0
M  END
>  <Ligand ID>  (1) 
LIG0003514

>  <Ligand>  (1) 
CHEMBL1956201

>  <SMILES>  (1) 
O=Cc1ccccc1OC(C1=NCCN1)C

>  <CID>  (1) 
57402718.0

>  <ChEMBL ID>  (1) 
nan

>  <InChiKey>  (1) 
UQOROHPPKUMVNP-UHFFFAOYSA-N

>  <InChi>  (1) 
InChI=1S/C12H14N2O2/c1-9(12-13-6-7-14-12)16-11-5-3-2-4-10(11)8-15/h2-5,8-9H,6-7H2,1H3,(H,13,14)

>  <IUPAC Name>  (1) 
2-[1-(4,5-dihydro-1H-imidazol-2-yl)ethoxy]benzaldehyde

$$$$
