
     RDKit          3D

 75 75  0  0  0  0  0  0  0  0999 V2000
    0.9926    3.5890   -2.0057 O   0  0  0  0  0  0  0  0  0  0  0  0
    1.0229    2.8263   -0.8348 C   0  0  2  0  0  0  0  0  0  0  0  0
    2.4880    2.7303   -0.4266 C   0  0  2  0  0  0  0  0  0  0  0  0
    3.2243    3.7451   -1.0004 O   0  0  0  0  0  0  0  0  0  0  0  0
    2.8249    1.3769   -1.0242 C   0  0  2  0  0  0  0  0  0  0  0  0
    1.7453    0.6193   -0.5791 O   0  0  0  0  0  0  0  0  0  0  0  0
    0.6791    1.3715   -1.0781 C   0  0  1  0  0  0  0  0  0  0  0  0
   -0.5983    0.9889   -0.5362 N   0  0  0  0  0  0  0  0  0  0  0  0
   -0.7671    0.6695    0.7620 C   0  0  0  0  0  0  0  0  0  0  0  0
   -2.0427    0.3071    1.2138 C   0  0  0  0  0  0  0  0  0  0  0  0
   -3.1171    0.2775    0.3370 C   0  0  0  0  0  0  0  0  0  0  0  0
   -2.8871    0.6066   -0.9473 N   0  0  0  0  0  0  0  0  0  0  0  0
   -1.6565    0.9592   -1.3971 C   0  0  0  0  0  0  0  0  0  0  0  0
   -1.4907    1.2625   -2.6242 O   0  0  0  0  0  0  0  0  0  0  0  0
   -4.4361   -0.0902    0.7721 N   0  0  0  0  0  0  0  0  0  0  0  0
   -5.4413   -0.0992   -0.1334 O   0  0  0  0  0  0  0  0  0  0  0  0
   -6.4300   -0.9717    0.2743 C   0  0  0  0  0  0  0  0  0  0  0  0
   -7.5515   -0.9716   -0.7512 C   0  0  0  0  0  0  0  0  0  0  0  0
   -6.9393   -0.5121    1.6211 C   0  0  0  0  0  0  0  0  0  0  0  0
   -5.8930   -2.3713    0.4257 C   0  0  0  0  0  0  0  0  0  0  0  0
    4.1401    0.8491   -0.5035 C   0  0  0  0  0  0  0  0  0  0  0  0
    4.2524   -0.4642   -0.9782 O   0  0  0  0  0  0  0  0  0  0  0  0
    5.6953   -1.1779   -0.4622 P   0  0  0  0  0  0  0  0  0  0  0  0
    6.0248   -2.3282   -1.3799 O   0  0  0  0  0  0  0  0  0  0  0  0
    5.5613   -1.8004    1.1065 O   0  0  0  0  0  0  0  0  0  0  0  0
    7.1168   -2.3535    1.5266 P   0  0  0  0  0  0  0  0  0  0  0  0
    7.8889   -1.1424    2.0276 O   0  0  0  0  0  0  0  0  0  0  0  0
    7.0437   -3.5544    2.6895 O   0  0  0  0  0  0  0  0  0  0  0  0
    7.9035   -2.9484    0.1457 O   0  0  0  0  0  0  0  0  0  0  0  0
    6.9822   -0.0654   -0.5420 O   0  0  0  0  0  0  0  0  0  0  0  0
    0.4132    2.5077   -0.6883 C   0  0  0  0  0  0  0  0  0  0  0  0
   -0.5927    1.5599   -0.1574 C   0  0  0  0  0  0  0  0  0  0  0  0
   -0.1964    0.1279   -0.4551 N   0  0  0  0  0  0  0  0  0  0  0  0
    0.9727   -0.1468    0.3373 C   0  0  0  0  0  0  0  0  0  0  0  0
    1.7898   -1.3354   -0.0001 C   0  0  0  0  0  0  0  0  0  0  0  0
   -1.3456   -0.5230    0.2000 C   0  0  0  0  0  0  0  0  0  0  0  0
   -1.3882   -1.9892    0.1159 C   0  0  0  0  0  0  0  0  0  0  0  0
    0.0817    3.5128   -2.3872 H   0  0  0  0  0  0  0  0  0  0  0  0
    0.3983    3.3022   -0.0537 H   0  0  0  0  0  0  0  0  0  0  0  0
    2.5327    2.7253    0.6772 H   0  0  0  0  0  0  0  0  0  0  0  0
    4.1655    3.4569   -1.0834 H   0  0  0  0  0  0  0  0  0  0  0  0
    2.8172    1.4989   -2.1169 H   0  0  0  0  0  0  0  0  0  0  0  0
    0.7056    1.2273   -2.1743 H   0  0  0  0  0  0  0  0  0  0  0  0
    0.0839    0.6970    1.4379 H   0  0  0  0  0  0  0  0  0  0  0  0
   -2.2049    0.0478    2.2435 H   0  0  0  0  0  0  0  0  0  0  0  0
   -4.5571   -0.3360    1.7794 H   0  0  0  0  0  0  0  0  0  0  0  0
   -7.1061   -1.1020   -1.7429 H   0  0  0  0  0  0  0  0  0  0  0  0
   -8.2264   -1.8232   -0.5253 H   0  0  0  0  0  0  0  0  0  0  0  0
   -8.1076   -0.0242   -0.7146 H   0  0  0  0  0  0  0  0  0  0  0  0
   -7.9911   -0.8241    1.7958 H   0  0  0  0  0  0  0  0  0  0  0  0
   -6.3575   -1.0616    2.4066 H   0  0  0  0  0  0  0  0  0  0  0  0
   -6.8061    0.5805    1.6739 H   0  0  0  0  0  0  0  0  0  0  0  0
   -5.5080   -2.4847    1.4733 H   0  0  0  0  0  0  0  0  0  0  0  0
   -5.0211   -2.5072   -0.2488 H   0  0  0  0  0  0  0  0  0  0  0  0
   -6.6843   -3.1087    0.1933 H   0  0  0  0  0  0  0  0  0  0  0  0
    4.9656    1.4206   -0.9699 H   0  0  0  0  0  0  0  0  0  0  0  0
    4.1123    0.9098    0.6025 H   0  0  0  0  0  0  0  0  0  0  0  0
    7.8481   -4.1323    2.6460 H   0  0  0  0  0  0  0  0  0  0  0  0
    7.4927   -3.8043   -0.1074 H   0  0  0  0  0  0  0  0  0  0  0  0
    7.0313    0.5016    0.2648 H   0  0  0  0  0  0  0  0  0  0  0  0
    1.1239    2.8582    0.1103 H   0  0  0  0  0  0  0  0  0  0  0  0
   -0.1005    3.4149   -1.0628 H   0  0  0  0  0  0  0  0  0  0  0  0
    1.0067    2.0463   -1.5125 H   0  0  0  0  0  0  0  0  0  0  0  0
   -1.5602    1.6665   -0.6699 H   0  0  0  0  0  0  0  0  0  0  0  0
   -0.7359    1.6680    0.9153 H   0  0  0  0  0  0  0  0  0  0  0  0
    0.6900   -0.2600    1.4286 H   0  0  0  0  0  0  0  0  0  0  0  0
    1.6745    0.7390    0.3551 H   0  0  0  0  0  0  0  0  0  0  0  0
    2.5655   -1.1088   -0.7922 H   0  0  0  0  0  0  0  0  0  0  0  0
    1.2920   -2.2538   -0.3014 H   0  0  0  0  0  0  0  0  0  0  0  0
    2.4161   -1.5666    0.9033 H   0  0  0  0  0  0  0  0  0  0  0  0
   -2.2877   -0.1120   -0.2783 H   0  0  0  0  0  0  0  0  0  0  0  0
   -1.3466   -0.1722    1.2440 H   0  0  0  0  0  0  0  0  0  0  0  0
   -0.6656   -2.5112    0.7549 H   0  0  0  0  0  0  0  0  0  0  0  0
   -1.2880   -2.3206   -0.9332 H   0  0  0  0  0  0  0  0  0  0  0  0
   -2.4371   -2.2887    0.4864 H   0  0  0  0  0  0  0  0  0  0  0  0
  1  2  1  0
  2  3  1  0
  3  4  1  0
  3  5  1  0
  5  6  1  0
  6  7  1  0
  7  8  1  0
  8  9  1  0
  9 10  2  0
 10 11  1  0
 11 12  2  0
 12 13  1  0
 13 14  2  0
 11 15  1  0
 15 16  1  0
 16 17  1  0
 17 18  1  0
 17 19  1  0
 17 20  1  0
  5 21  1  0
 21 22  1  0
 22 23  1  0
 23 24  2  0
 23 25  1  0
 25 26  1  0
 26 27  2  0
 26 28  1  0
 26 29  1  0
 23 30  1  0
 31 32  1  0
 32 33  1  0
 33 34  1  0
 34 35  1  0
 33 36  1  0
 36 37  1  0
  7  2  1  0
 13  8  1  0
  1 38  1  0
  2 39  1  1
  3 40  1  1
  4 41  1  0
  5 42  1  6
  7 43  1  6
  9 44  1  0
 10 45  1  0
 15 46  1  0
 18 47  1  0
 18 48  1  0
 18 49  1  0
 19 50  1  0
 19 51  1  0
 19 52  1  0
 20 53  1  0
 20 54  1  0
 20 55  1  0
 21 56  1  0
 21 57  1  0
 28 58  1  0
 29 59  1  0
 30 60  1  0
 31 61  1  0
 31 62  1  0
 31 63  1  0
 32 64  1  0
 32 65  1  0
 34 66  1  0
 34 67  1  0
 35 68  1  0
 35 69  1  0
 35 70  1  0
 36 71  1  0
 36 72  1  0
 37 73  1  0
 37 74  1  0
 37 75  1  0
M  END
>  <Ligand ID>  (1) 
LIG0004376

>  <Ligand>  (1) 
CHEMBL1084296

>  <SMILES>  (1) 
O[C@@H]1[C@H](O)[C@H](O[C@H]1n1ccc(nc1=O)NOC(C)(C)C)COP(=O)(OP(=O)(O)O)O.CCN(CC)CC

>  <CID>  (1) 
46831385.0

>  <ChEMBL ID>  (1) 
nan

>  <InChiKey>  (1) 
XLYQWPVJIOUUCF-VYFIMUGFSA-N

>  <InChi>  (1) 
InChI=1S/C13H23N3O12P2.C6H15N/c1-13(2,3)27-15-8-4-5-16(12(19)14-8)11-10(18)9(17)7(26-11)6-25-30(23,24)28-29(20,21)22;1-4-7(5-2)6-3/h4-5,7,9-11,17-18H,6H2,1-3H3,(H,23,24)(H,14,15,19)(H2,20,21,22);4-6H2,1-3H3/t7-,9-,10-,11-;/m1./s1

>  <IUPAC Name>  (1) 
N,N-diethylethanamine;[(2R,3S,4R,5R)-3,4-dihydroxy-5-[4-[(2-methylpropan-2-yl)oxyamino]-2-oxopyrimidin-1-yl]oxolan-2-yl]methyl phosphono hydrogen phosphate

$$$$
