
     RDKit          3D

124126  0  0  0  0  0  0  0  0999 V2000
    9.7613   -3.7722   -2.0467 N   0  0  0  0  0  0  0  0  0  0  0  0
    9.3921   -2.5523   -1.3432 C   0  0  0  0  0  0  0  0  0  0  0  0
    8.5979   -2.8649   -0.0907 C   0  0  0  0  0  0  0  0  0  0  0  0
    8.1944   -1.6142    0.6644 C   0  0  1  0  0  0  0  0  0  0  0  0
    9.4534   -0.9159    1.0353 C   0  0  0  0  0  0  0  0  0  0  0  0
   10.2658   -1.5296    1.7691 O   0  0  0  0  0  0  0  0  0  0  0  0
    9.7532    0.4144    0.5827 N   0  0  0  0  0  0  0  0  0  0  0  0
   10.9953    1.0742    0.9603 C   0  0  0  0  0  0  0  0  0  0  0  0
   11.0449    2.4439    0.3486 C   0  0  0  0  0  0  0  0  0  0  0  0
   10.1081    2.8752   -0.3701 O   0  0  0  0  0  0  0  0  0  0  0  0
   12.1969    3.2441    0.6113 N   0  0  0  0  0  0  0  0  0  0  0  0
    7.4318   -0.7115   -0.1748 N   0  0  0  0  0  0  0  0  0  0  0  0
    6.0833   -0.3385    0.1866 C   0  0  0  0  0  0  0  0  0  0  0  0
    5.6442   -0.8320    1.2298 O   0  0  0  0  0  0  0  0  0  0  0  0
    5.4061    0.5814   -0.7351 C   0  0  2  0  0  0  0  0  0  0  0  0
    6.0332    1.9667   -0.4710 C   0  0  0  0  0  0  0  0  0  0  0  0
    4.8748    2.9244   -0.6201 C   0  0  0  0  0  0  0  0  0  0  0  0
    3.7636    2.1157   -1.1949 C   0  0  0  0  0  0  0  0  0  0  0  0
    4.0161    0.8210   -0.5225 N   0  0  0  0  0  0  0  0  0  0  0  0
    2.9945    0.0940    0.1437 C   0  0  0  0  0  0  0  0  0  0  0  0
    3.2133   -1.0665    0.6443 O   0  0  0  0  0  0  0  0  0  0  0  0
    1.6283    0.6074    0.3046 C   0  0  2  0  0  0  0  0  0  0  0  0
    1.5314    1.7220    1.3833 C   0  0  0  0  0  0  0  0  0  0  0  0
   -0.2363    2.2029    1.2942 S   0  0  0  0  0  0  0  0  0  0  0  0
   -0.6510    3.4647   -0.3249 S   0  0  0  0  0  0  0  0  0  0  0  0
   -0.9789    2.6824   -1.8896 C   0  0  0  0  0  0  0  0  0  0  0  0
   -2.0726    1.7176   -1.8542 C   0  0  2  0  0  0  0  0  0  0  0  0
   -2.2405    1.2116   -3.2465 N   0  0  0  0  0  0  0  0  0  0  0  0
   -3.4220    2.0720   -1.4173 C   0  0  0  0  0  0  0  0  0  0  0  0
   -4.3547    1.9779   -2.2293 O   0  0  0  0  0  0  0  0  0  0  0  0
   -3.7629    2.5295   -0.1194 N   0  0  0  0  0  0  0  0  0  0  0  0
   -5.0651    2.6476    0.4702 C   0  0  1  0  0  0  0  0  0  0  0  0
   -5.8677    3.8261    0.1341 C   0  0  0  0  0  0  0  0  0  0  0  0
   -6.2309    4.1072   -1.2121 C   0  0  0  0  0  0  0  0  0  0  0  0
   -7.3021    3.7331   -1.9542 C   0  0  0  0  0  0  0  0  0  0  0  0
   -7.4162    4.1367   -3.2101 C   0  0  0  0  0  0  0  0  0  0  0  0
   -6.4248    4.9392   -3.7337 C   0  0  0  0  0  0  0  0  0  0  0  0
   -5.1959    5.1702   -2.3558 S   0  0  0  0  0  0  0  0  0  0  0  0
   -5.7324    1.3160    0.2386 C   0  0  0  0  0  0  0  0  0  0  0  0
   -5.4690    0.5463   -0.6838 O   0  0  0  0  0  0  0  0  0  0  0  0
   -6.7692    0.8237    1.1277 N   0  0  0  0  0  0  0  0  0  0  0  0
   -7.3010   -0.5274    0.9776 C   0  0  2  0  0  0  0  0  0  0  0  0
   -6.2050   -1.5591    0.8330 C   0  0  0  0  0  0  0  0  0  0  0  0
   -6.4793   -2.7332    0.5243 O   0  0  0  0  0  0  0  0  0  0  0  0
   -4.8382   -1.2890    1.0373 N   0  0  0  0  0  0  0  0  0  0  0  0
   -3.7188   -2.1659    0.7928 C   0  0  2  0  0  0  0  0  0  0  0  0
   -2.5964   -1.8991    1.6929 C   0  0  0  0  0  0  0  0  0  0  0  0
   -2.7275   -1.1510    2.6721 O   0  0  0  0  0  0  0  0  0  0  0  0
   -1.2742   -2.4426    1.5455 N   0  0  0  0  0  0  0  0  0  0  0  0
   -0.2076   -2.1451    2.4748 C   0  0  2  0  0  0  0  0  0  0  0  0
    0.7691   -1.1312    1.9823 C   0  0  0  0  0  0  0  0  0  0  0  0
    1.7238   -0.8733    2.7229 O   0  0  0  0  0  0  0  0  0  0  0  0
    0.6900   -0.4519    0.7516 N   0  0  0  0  0  0  0  0  0  0  0  0
    0.4828   -3.4171    2.8820 C   0  0  0  0  0  0  0  0  0  0  0  0
    1.0786   -4.1413    1.7467 C   0  0  0  0  0  0  0  0  0  0  0  0
    1.0470   -3.7801    0.5558 O   0  0  0  0  0  0  0  0  0  0  0  0
    1.7542   -5.3699    2.0398 N   0  0  0  0  0  0  0  0  0  0  0  0
   -3.2973   -2.2461   -0.6593 C   0  0  0  0  0  0  0  0  0  0  0  0
   -4.3804   -2.7546   -1.5190 C   0  0  0  0  0  0  0  0  0  0  0  0
   -5.1932   -2.0693   -2.1703 O   0  0  0  0  0  0  0  0  0  0  0  0
   -4.5265   -4.1817   -1.6275 N   0  0  0  0  0  0  0  0  0  0  0  0
   -8.3974   -0.6710    0.0108 C   0  0  2  0  0  0  0  0  0  0  0  0
   -9.5512    0.2129    0.4617 C   0  0  0  0  0  0  0  0  0  0  0  0
  -10.0822   -0.1425    1.8151 C   0  0  0  0  0  0  0  0  0  0  0  0
   -8.9087   -2.0748   -0.0050 C   0  0  0  0  0  0  0  0  0  0  0  0
   10.7757   -3.8747   -2.1972 H   0  0  0  0  0  0  0  0  0  0  0  0
    9.3233   -4.6176   -1.6705 H   0  0  0  0  0  0  0  0  0  0  0  0
    8.7420   -1.9624   -2.0191 H   0  0  0  0  0  0  0  0  0  0  0  0
   10.3409   -2.0298   -1.1047 H   0  0  0  0  0  0  0  0  0  0  0  0
    9.2877   -3.4398    0.5702 H   0  0  0  0  0  0  0  0  0  0  0  0
    7.7359   -3.5149   -0.3355 H   0  0  0  0  0  0  0  0  0  0  0  0
    7.6262   -1.9295    1.5508 H   0  0  0  0  0  0  0  0  0  0  0  0
    9.0846    0.9242   -0.0206 H   0  0  0  0  0  0  0  0  0  0  0  0
   11.8652    0.5282    0.5697 H   0  0  0  0  0  0  0  0  0  0  0  0
   11.1098    1.2038    2.0409 H   0  0  0  0  0  0  0  0  0  0  0  0
   12.8513    3.5033   -0.1821 H   0  0  0  0  0  0  0  0  0  0  0  0
   12.3486    3.5446    1.5926 H   0  0  0  0  0  0  0  0  0  0  0  0
    7.8772   -0.3413   -1.0422 H   0  0  0  0  0  0  0  0  0  0  0  0
    5.6411    0.3365   -1.8018 H   0  0  0  0  0  0  0  0  0  0  0  0
    6.8598    2.1489   -1.1750 H   0  0  0  0  0  0  0  0  0  0  0  0
    6.3198    1.9841    0.5887 H   0  0  0  0  0  0  0  0  0  0  0  0
    4.5971    3.4408    0.3166 H   0  0  0  0  0  0  0  0  0  0  0  0
    5.1587    3.7220   -1.3416 H   0  0  0  0  0  0  0  0  0  0  0  0
    3.8695    1.9718   -2.3032 H   0  0  0  0  0  0  0  0  0  0  0  0
    2.7748    2.4713   -1.0075 H   0  0  0  0  0  0  0  0  0  0  0  0
    1.2814    1.0444   -0.6403 H   0  0  0  0  0  0  0  0  0  0  0  0
    2.1492    2.5827    1.1685 H   0  0  0  0  0  0  0  0  0  0  0  0
    1.6828    1.2552    2.3424 H   0  0  0  0  0  0  0  0  0  0  0  0
   -0.0359    2.2072   -2.3127 H   0  0  0  0  0  0  0  0  0  0  0  0
   -1.2468    3.4653   -2.6673 H   0  0  0  0  0  0  0  0  0  0  0  0
   -1.7644    0.7532   -1.3113 H   0  0  0  0  0  0  0  0  0  0  0  0
   -2.9459    0.4422   -3.2629 H   0  0  0  0  0  0  0  0  0  0  0  0
   -1.3250    0.8764   -3.6281 H   0  0  0  0  0  0  0  0  0  0  0  0
   -2.9497    2.8231    0.4446 H   0  0  0  0  0  0  0  0  0  0  0  0
   -4.8562    2.6093    1.6080 H   0  0  0  0  0  0  0  0  0  0  0  0
   -5.3184    4.7295    0.5457 H   0  0  0  0  0  0  0  0  0  0  0  0
   -6.7945    3.8054    0.7877 H   0  0  0  0  0  0  0  0  0  0  0  0
   -8.0817    3.0763   -1.4720 H   0  0  0  0  0  0  0  0  0  0  0  0
   -8.2724    3.8634   -3.8696 H   0  0  0  0  0  0  0  0  0  0  0  0
   -6.2767    5.3972   -4.7089 H   0  0  0  0  0  0  0  0  0  0  0  0
   -7.0647    1.5026    1.8261 H   0  0  0  0  0  0  0  0  0  0  0  0
   -7.7016   -0.7557    2.0209 H   0  0  0  0  0  0  0  0  0  0  0  0
   -4.6162   -0.3788    1.4700 H   0  0  0  0  0  0  0  0  0  0  0  0
   -4.1053   -3.1865    0.9972 H   0  0  0  0  0  0  0  0  0  0  0  0
   -1.1497   -3.0520    0.7433 H   0  0  0  0  0  0  0  0  0  0  0  0
   -0.6116   -1.6726    3.4114 H   0  0  0  0  0  0  0  0  0  0  0  0
   -0.0832   -0.7342    0.1396 H   0  0  0  0  0  0  0  0  0  0  0  0
   -0.1905   -4.0521    3.4925 H   0  0  0  0  0  0  0  0  0  0  0  0
    1.3489   -3.1652    3.5613 H   0  0  0  0  0  0  0  0  0  0  0  0
    1.3456   -6.3028    1.8756 H   0  0  0  0  0  0  0  0  0  0  0  0
    2.7141   -5.3010    2.4424 H   0  0  0  0  0  0  0  0  0  0  0  0
   -2.4619   -2.9719   -0.7198 H   0  0  0  0  0  0  0  0  0  0  0  0
   -2.9076   -1.3015   -1.0494 H   0  0  0  0  0  0  0  0  0  0  0  0
   -5.4513   -4.6411   -1.7402 H   0  0  0  0  0  0  0  0  0  0  0  0
   -3.6911   -4.8038   -1.5958 H   0  0  0  0  0  0  0  0  0  0  0  0
   -8.1619   -0.3270   -1.0188 H   0  0  0  0  0  0  0  0  0  0  0  0
   -9.2282    1.2885    0.5103 H   0  0  0  0  0  0  0  0  0  0  0  0
  -10.3967    0.1255   -0.2686 H   0  0  0  0  0  0  0  0  0  0  0  0
  -11.1717    0.1497    1.8558 H   0  0  0  0  0  0  0  0  0  0  0  0
   -9.6009    0.3753    2.6606 H   0  0  0  0  0  0  0  0  0  0  0  0
  -10.0934   -1.2355    1.9883 H   0  0  0  0  0  0  0  0  0  0  0  0
   -8.4253   -2.7397   -0.7524 H   0  0  0  0  0  0  0  0  0  0  0  0
   -8.7544   -2.5353    0.9873 H   0  0  0  0  0  0  0  0  0  0  0  0
  -10.0283   -2.0726   -0.1565 H   0  0  0  0  0  0  0  0  0  0  0  0
  1  2  1  0
  2  3  1  0
  3  4  1  0
  4  5  1  0
  5  6  2  0
  5  7  1  0
  7  8  1  0
  8  9  1  0
  9 10  2  0
  9 11  1  0
  4 12  1  0
 12 13  1  0
 13 14  2  0
 13 15  1  0
 15 16  1  0
 16 17  1  0
 17 18  1  0
 18 19  1  0
 19 20  1  0
 20 21  2  0
 20 22  1  0
 22 23  1  0
 23 24  1  0
 24 25  1  0
 25 26  1  0
 26 27  1  0
 27 28  1  0
 27 29  1  0
 29 30  2  0
 29 31  1  0
 31 32  1  0
 32 33  1  0
 33 34  1  0
 34 35  2  0
 35 36  1  0
 36 37  2  0
 37 38  1  0
 32 39  1  0
 39 40  2  0
 39 41  1  0
 41 42  1  0
 42 43  1  0
 43 44  2  0
 43 45  1  0
 45 46  1  0
 46 47  1  0
 47 48  2  0
 47 49  1  0
 49 50  1  0
 50 51  1  0
 51 52  2  0
 51 53  1  0
 50 54  1  0
 54 55  1  0
 55 56  2  0
 55 57  1  0
 46 58  1  0
 58 59  1  0
 59 60  2  0
 59 61  1  0
 42 62  1  0
 62 63  1  0
 63 64  1  0
 62 65  1  0
 19 15  1  0
 53 22  1  0
 38 34  1  0
  1 66  1  0
  1 67  1  0
  2 68  1  0
  2 69  1  0
  3 70  1  0
  3 71  1  0
  4 72  1  1
  7 73  1  0
  8 74  1  0
  8 75  1  0
 11 76  1  0
 11 77  1  0
 12 78  1  0
 15 79  1  6
 16 80  1  0
 16 81  1  0
 17 82  1  0
 17 83  1  0
 18 84  1  0
 18 85  1  0
 22 86  1  6
 23 87  1  0
 23 88  1  0
 26 89  1  0
 26 90  1  0
 27 91  1  1
 28 92  1  0
 28 93  1  0
 31 94  1  0
 32 95  1  1
 33 96  1  0
 33 97  1  0
 35 98  1  0
 36 99  1  0
 37100  1  0
 41101  1  0
 42102  1  1
 45103  1  0
 46104  1  1
 49105  1  0
 50106  1  1
 53107  1  0
 54108  1  0
 54109  1  0
 57110  1  0
 57111  1  0
 58112  1  0
 58113  1  0
 61114  1  0
 61115  1  0
 62116  1  6
 63117  1  0
 63118  1  0
 64119  1  0
 64120  1  0
 64121  1  0
 65122  1  0
 65123  1  0
 65124  1  0
M  END
>  <Ligand ID>  (1) 
LIG0001612

>  <Ligand>  (1) 
CHEMBL1817762

>  <SMILES>  (1) 
NCC[C@@H](C(=O)NCC(=O)N)NC(=O)[C@@H]1CCCN1C(=O)[C@@H]1CSSC[C@H](N)C(=O)N[C@@H](Cc2cccs2)C(=O)N[C@H](C(=O)N[C@H](C(=O)N[C@H](C(=O)N1)CC(=O)N)CC(=O)N)[C@H](CC)C

>  <CID>  (1) 
53362797.0

>  <ChEMBL ID>  (1) 
nan

>  <InChiKey>  (1) 
KDVSRMMYPQWJTI-URPKOMAESA-N

>  <InChi>  (1) 
InChI=1S/C38H59N13O11S3/c1-3-18(2)30-37(61)48-24(14-28(42)53)33(57)47-23(13-27(41)52)34(58)49-25(17-65-64-16-20(40)31(55)46-22(35(59)50-30)12-19-6-5-11-63-19)38(62)51-10-4-7-26(51)36(60)45-21(8-9-39)32(56)44-15-29(43)54/h5-6,11,18,20-26,30H,3-4,7-10,12-17,39-40H2,1-2H3,(H2,41,52)(H2,42,53)(H2,43,54)(H,44,56)(H,45,60)(H,46,55)(H,47,57)(H,48,61)(H,49,58)(H,50,59)/t18-,20-,21-,22-,23-,24-,25-,26-,30-/m0/s1

>  <IUPAC Name>  (1) 
(2S)-N-[(2S)-4-amino-1-[(2-amino-2-oxoethyl)amino]-1-oxobutan-2-yl]-1-[(4R,7S,10S,13S,16S,19R)-19-amino-7,10-bis(2-amino-2-oxoethyl)-13-[(2S)-butan-2-yl]-6,9,12,15,18-pentaoxo-16-(thiophen-2-ylmethyl)-1,2-dithia-5,8,11,14,17-pentazacycloicosane-4-carbonyl]pyrrolidine-2-carboxamide

$$$$
