
     RDKit          3D

125129  0  0  0  0  0  0  0  0999 V2000
   -6.4444   -2.9201    2.9150 C   0  0  0  0  0  0  0  0  0  0  0  0
   -4.9762   -3.0798    2.6813 C   0  0  0  0  0  0  0  0  0  0  0  0
   -4.6614   -2.9051    1.1892 C   0  0  0  0  0  0  0  0  0  0  0  0
   -3.1698   -3.0625    1.0047 C   0  0  0  0  0  0  0  0  0  0  0  0
   -2.7780   -2.9657   -0.4269 C   0  0  2  0  0  0  0  0  0  0  0  0
   -1.3398   -3.1002   -0.6100 N   0  0  0  0  0  0  0  0  0  0  0  0
   -0.3707   -2.2450   -0.0311 C   0  0  0  0  0  0  0  0  0  0  0  0
   -0.8191   -1.3099    0.7046 O   0  0  0  0  0  0  0  0  0  0  0  0
    1.0649   -2.3281   -0.2013 C   0  0  2  0  0  0  0  0  0  0  0  0
    1.7809   -3.5194    0.3970 C   0  0  0  0  0  0  0  0  0  0  0  0
    1.7079   -3.6816    1.8364 C   0  0  0  0  0  0  0  0  0  0  0  0
    2.7441   -3.2362    2.6890 C   0  0  0  0  0  0  0  0  0  0  0  0
    2.4087   -3.4900    3.9632 N   0  0  0  0  0  0  0  0  0  0  0  0
    1.2081   -4.0798    4.0146 C   0  0  0  0  0  0  0  0  0  0  0  0
    0.7813   -4.1951    2.6983 C   0  0  0  0  0  0  0  0  0  0  0  0
   -0.4332   -4.7844    2.4546 C   0  0  0  0  0  0  0  0  0  0  0  0
   -1.2556   -5.2680    3.4538 C   0  0  0  0  0  0  0  0  0  0  0  0
   -0.8014   -5.1380    4.7723 C   0  0  0  0  0  0  0  0  0  0  0  0
    0.4092   -4.5549    5.0610 C   0  0  0  0  0  0  0  0  0  0  0  0
    1.7081   -1.1031    0.3566 N   0  0  0  0  0  0  0  0  0  0  0  0
    2.9383   -0.7381   -0.2451 C   0  0  0  0  0  0  0  0  0  0  0  0
    3.3438   -1.5048   -1.1806 O   0  0  0  0  0  0  0  0  0  0  0  0
    3.7283    0.4626    0.1800 C   0  0  0  0  0  0  0  0  0  0  0  0
    4.9937    0.4842   -0.5863 N   0  0  0  0  0  0  0  0  0  0  0  0
    5.8197   -0.6386   -0.3718 C   0  0  0  0  0  0  0  0  0  0  0  0
    5.3488   -1.5119    0.4497 O   0  0  0  0  0  0  0  0  0  0  0  0
    7.1125   -0.9302   -0.9600 C   0  0  1  0  0  0  0  0  0  0  0  0
    6.8021   -1.3212   -2.4351 C   0  0  0  0  0  0  0  0  0  0  0  0
    8.2283   -1.3953   -2.9681 C   0  0  0  0  0  0  0  0  0  0  0  0
    8.8707   -0.1606   -2.3673 C   0  0  0  0  0  0  0  0  0  0  0  0
    8.0757    0.1057   -1.1250 N   0  0  0  0  0  0  0  0  0  0  0  0
    8.4549    1.2224   -0.3356 C   0  0  0  0  0  0  0  0  0  0  0  0
    9.4998    1.8381   -0.7667 O   0  0  0  0  0  0  0  0  0  0  0  0
    7.8357    1.7453    0.8685 C   0  0  2  0  0  0  0  0  0  0  0  0
    7.1041    3.0536    0.5634 C   0  0  0  0  0  0  0  0  0  0  0  0
    8.0709    4.0739    0.0271 C   0  0  0  0  0  0  0  0  0  0  0  0
    8.7742    4.9187    0.8671 C   0  0  0  0  0  0  0  0  0  0  0  0
    9.6760    5.8632    0.3609 C   0  0  0  0  0  0  0  0  0  0  0  0
    9.8582    5.9425   -1.0061 C   0  0  0  0  0  0  0  0  0  0  0  0
    9.1753    5.1185   -1.8681 C   0  0  0  0  0  0  0  0  0  0  0  0
    8.2976    4.2031   -1.3330 C   0  0  0  0  0  0  0  0  0  0  0  0
   10.7397    6.8555   -1.5946 O   0  0  0  0  0  0  0  0  0  0  0  0
    8.8523    2.0426    1.8981 N   0  0  0  0  0  0  0  0  0  0  0  0
   -0.8869   -4.1805   -1.4706 C   0  0  0  0  0  0  0  0  0  0  0  0
   -3.2390   -1.6996   -1.0348 C   0  0  0  0  0  0  0  0  0  0  0  0
   -2.4114   -0.7446   -1.2643 O   0  0  0  0  0  0  0  0  0  0  0  0
   -4.5755   -1.4310   -1.4133 N   0  0  0  0  0  0  0  0  0  0  0  0
   -5.0473   -0.2137   -2.0263 C   0  0  2  0  0  0  0  0  0  0  0  0
   -5.8857    0.6223   -1.1213 C   0  0  0  0  0  0  0  0  0  0  0  0
   -6.0568    0.3840    0.0976 O   0  0  0  0  0  0  0  0  0  0  0  0
   -6.5523    1.7702   -1.6410 N   0  0  0  0  0  0  0  0  0  0  0  0
   -7.3526    2.5176   -0.6431 C   0  0  2  0  0  0  0  0  0  0  0  0
   -8.7575    2.0157   -0.9208 C   0  0  0  0  0  0  0  0  0  0  0  0
   -8.9970    1.2525   -1.8889 O   0  0  0  0  0  0  0  0  0  0  0  0
   -9.8489    2.3896   -0.0896 N   0  0  0  0  0  0  0  0  0  0  0  0
   -7.3200    3.9760   -0.9074 C   0  0  0  0  0  0  0  0  0  0  0  0
   -8.0807    4.7753    0.0508 C   0  0  0  0  0  0  0  0  0  0  0  0
   -7.4599    5.1658    1.2171 C   0  0  0  0  0  0  0  0  0  0  0  0
   -8.0571    5.9288    2.1920 C   0  0  0  0  0  0  0  0  0  0  0  0
   -9.3734    6.3474    2.0146 C   0  0  0  0  0  0  0  0  0  0  0  0
   -9.9922    5.9614    0.8578 C   0  0  0  0  0  0  0  0  0  0  0  0
   -9.3861    5.1928   -0.1220 C   0  0  0  0  0  0  0  0  0  0  0  0
   -5.9503   -0.6273   -3.1616 C   0  0  0  0  0  0  0  0  0  0  0  0
   -5.2711   -1.4624   -4.1853 C   0  0  0  0  0  0  0  0  0  0  0  0
   -4.0389   -1.7515   -4.1074 O   0  0  0  0  0  0  0  0  0  0  0  0
   -6.0489   -1.9191   -5.2393 O   0  0  0  0  0  0  0  0  0  0  0  0
   -6.6887   -2.3264    3.8257 H   0  0  0  0  0  0  0  0  0  0  0  0
   -6.9005   -2.4702    2.0280 H   0  0  0  0  0  0  0  0  0  0  0  0
   -6.9003   -3.9453    3.0544 H   0  0  0  0  0  0  0  0  0  0  0  0
   -4.4029   -2.3926    3.2975 H   0  0  0  0  0  0  0  0  0  0  0  0
   -4.6582   -4.1207    2.9379 H   0  0  0  0  0  0  0  0  0  0  0  0
   -5.2569   -3.6151    0.6079 H   0  0  0  0  0  0  0  0  0  0  0  0
   -4.9837   -1.8730    0.9402 H   0  0  0  0  0  0  0  0  0  0  0  0
   -2.9522   -4.0929    1.4310 H   0  0  0  0  0  0  0  0  0  0  0  0
   -2.6712   -2.2949    1.6314 H   0  0  0  0  0  0  0  0  0  0  0  0
   -3.3128   -3.7844   -0.9995 H   0  0  0  0  0  0  0  0  0  0  0  0
    1.3367   -2.3563   -1.2745 H   0  0  0  0  0  0  0  0  0  0  0  0
    2.8626   -3.4356    0.0635 H   0  0  0  0  0  0  0  0  0  0  0  0
    1.4221   -4.4263   -0.1681 H   0  0  0  0  0  0  0  0  0  0  0  0
    3.6694   -2.7643    2.3894 H   0  0  0  0  0  0  0  0  0  0  0  0
    2.9774   -3.2746    4.8170 H   0  0  0  0  0  0  0  0  0  0  0  0
   -0.7318   -4.8708    1.4132 H   0  0  0  0  0  0  0  0  0  0  0  0
   -2.2139   -5.7287    3.2615 H   0  0  0  0  0  0  0  0  0  0  0  0
   -1.4065   -5.4989    5.5946 H   0  0  0  0  0  0  0  0  0  0  0  0
    0.7370   -4.4678    6.0988 H   0  0  0  0  0  0  0  0  0  0  0  0
    1.2794   -0.5627    1.1270 H   0  0  0  0  0  0  0  0  0  0  0  0
    4.0314    0.4099    1.2221 H   0  0  0  0  0  0  0  0  0  0  0  0
    3.1676    1.3833    0.0038 H   0  0  0  0  0  0  0  0  0  0  0  0
    5.2811    1.2040   -1.2305 H   0  0  0  0  0  0  0  0  0  0  0  0
    7.5691   -1.8699   -0.5428 H   0  0  0  0  0  0  0  0  0  0  0  0
    6.2701   -2.2824   -2.4797 H   0  0  0  0  0  0  0  0  0  0  0  0
    6.2773   -0.4753   -2.9073 H   0  0  0  0  0  0  0  0  0  0  0  0
    8.6867   -2.3121   -2.5236 H   0  0  0  0  0  0  0  0  0  0  0  0
    8.2692   -1.3809   -4.0753 H   0  0  0  0  0  0  0  0  0  0  0  0
    8.7905    0.6754   -3.0710 H   0  0  0  0  0  0  0  0  0  0  0  0
    9.9124   -0.3856   -2.0455 H   0  0  0  0  0  0  0  0  0  0  0  0
    7.1226    1.0441    1.3020 H   0  0  0  0  0  0  0  0  0  0  0  0
    6.6956    3.5138    1.4994 H   0  0  0  0  0  0  0  0  0  0  0  0
    6.2514    2.9267   -0.1011 H   0  0  0  0  0  0  0  0  0  0  0  0
    8.6470    4.8774    1.9417 H   0  0  0  0  0  0  0  0  0  0  0  0
   10.2334    6.5298    0.9881 H   0  0  0  0  0  0  0  0  0  0  0  0
    9.3114    5.1732   -2.9469 H   0  0  0  0  0  0  0  0  0  0  0  0
    7.7568    3.5539   -2.0013 H   0  0  0  0  0  0  0  0  0  0  0  0
   11.7341    6.6777   -1.5211 H   0  0  0  0  0  0  0  0  0  0  0  0
    8.6937    1.4448    2.7343 H   0  0  0  0  0  0  0  0  0  0  0  0
    9.7806    1.7431    1.5081 H   0  0  0  0  0  0  0  0  0  0  0  0
    0.0265   -3.8575   -2.0096 H   0  0  0  0  0  0  0  0  0  0  0  0
   -0.7008   -5.1246   -0.9598 H   0  0  0  0  0  0  0  0  0  0  0  0
   -1.6661   -4.2941   -2.2784 H   0  0  0  0  0  0  0  0  0  0  0  0
   -5.3228   -2.1805   -1.2756 H   0  0  0  0  0  0  0  0  0  0  0  0
   -4.1390    0.3396   -2.3477 H   0  0  0  0  0  0  0  0  0  0  0  0
   -6.4963    2.0801   -2.6298 H   0  0  0  0  0  0  0  0  0  0  0  0
   -7.0723    2.2921    0.3807 H   0  0  0  0  0  0  0  0  0  0  0  0
   -9.7566    2.4511    0.9467 H   0  0  0  0  0  0  0  0  0  0  0  0
  -10.8062    2.6232   -0.4650 H   0  0  0  0  0  0  0  0  0  0  0  0
   -6.2768    4.3871   -0.9145 H   0  0  0  0  0  0  0  0  0  0  0  0
   -7.6721    4.1612   -1.9625 H   0  0  0  0  0  0  0  0  0  0  0  0
   -6.4334    4.8613    1.3978 H   0  0  0  0  0  0  0  0  0  0  0  0
   -7.4898    6.1906    3.0767 H   0  0  0  0  0  0  0  0  0  0  0  0
   -9.8235    6.9471    2.7918 H   0  0  0  0  0  0  0  0  0  0  0  0
  -11.0084    6.2764    0.7090 H   0  0  0  0  0  0  0  0  0  0  0  0
   -9.9281    4.9407   -1.0112 H   0  0  0  0  0  0  0  0  0  0  0  0
   -6.4201    0.2803   -3.6122 H   0  0  0  0  0  0  0  0  0  0  0  0
   -6.8185   -1.1593   -2.6753 H   0  0  0  0  0  0  0  0  0  0  0  0
   -5.6571   -2.3967   -6.0407 H   0  0  0  0  0  0  0  0  0  0  0  0
  1  2  1  0
  2  3  1  0
  3  4  1  0
  4  5  1  0
  5  6  1  0
  6  7  1  0
  7  8  2  0
  7  9  1  0
  9 10  1  0
 10 11  1  0
 11 12  2  0
 12 13  1  0
 13 14  1  0
 14 15  2  0
 15 16  1  0
 16 17  2  0
 17 18  1  0
 18 19  2  0
  9 20  1  0
 20 21  1  0
 21 22  2  0
 21 23  1  0
 23 24  1  0
 24 25  1  0
 25 26  2  0
 25 27  1  0
 27 28  1  0
 28 29  1  0
 29 30  1  0
 30 31  1  0
 31 32  1  0
 32 33  2  0
 32 34  1  0
 34 35  1  0
 35 36  1  0
 36 37  2  0
 37 38  1  0
 38 39  2  0
 39 40  1  0
 40 41  2  0
 39 42  1  0
 34 43  1  0
  6 44  1  0
  5 45  1  0
 45 46  2  0
 45 47  1  0
 47 48  1  0
 48 49  1  0
 49 50  2  0
 49 51  1  0
 51 52  1  0
 52 53  1  0
 53 54  2  0
 53 55  1  0
 52 56  1  0
 56 57  1  0
 57 58  2  0
 58 59  1  0
 59 60  2  0
 60 61  1  0
 61 62  2  0
 48 63  1  0
 63 64  1  0
 64 65  2  0
 64 66  1  0
 15 11  1  0
 31 27  1  0
 41 36  1  0
 62 57  1  0
 19 14  1  0
  1 67  1  0
  1 68  1  0
  1 69  1  0
  2 70  1  0
  2 71  1  0
  3 72  1  0
  3 73  1  0
  4 74  1  0
  4 75  1  0
  5 76  1  6
  9 77  1  6
 10 78  1  0
 10 79  1  0
 12 80  1  0
 13 81  1  0
 16 82  1  0
 17 83  1  0
 18 84  1  0
 19 85  1  0
 20 86  1  0
 23 87  1  0
 23 88  1  0
 24 89  1  0
 27 90  1  1
 28 91  1  0
 28 92  1  0
 29 93  1  0
 29 94  1  0
 30 95  1  0
 30 96  1  0
 34 97  1  1
 35 98  1  0
 35 99  1  0
 37100  1  0
 38101  1  0
 40102  1  0
 41103  1  0
 42104  1  0
 43105  1  0
 43106  1  0
 44107  1  0
 44108  1  0
 44109  1  0
 47110  1  0
 48111  1  6
 51112  1  0
 52113  1  1
 55114  1  0
 55115  1  0
 56116  1  0
 56117  1  0
 58118  1  0
 59119  1  0
 60120  1  0
 61121  1  0
 62122  1  0
 63123  1  0
 63124  1  0
 66125  1  0
M  END
>  <Ligand ID>  (1) 
LIG0004149

>  <Ligand>  (1) 
Tyr-D-Pro-Gly-Trp-NMeNle-Asp-Phe-NH2

>  <SMILES>  (1) 
CCCC[C@H](N(C(=O)[C@H](Cc1c[nH]c2c1cccc2)NC(=O)CNC(=O)[C@H]1CCCN1C(=O)[C@H](Cc1ccc(cc1)O)N)C)C(=O)N[C@H](C(=O)N[C@H](C(=O)N)Cc1ccccc1)CC(=O)O

>  <CID>  (1) 
11693641.0

>  <ChEMBL ID>  (1) 
nan

>  <InChiKey>  (1) 
XMLJSDGQSNTHPG-TVUSJDTQSA-N

>  <InChi>  (1) 
InChI=1S/C47H59N9O10/c1-3-4-15-38(45(64)54-36(25-41(59)60)43(62)53-35(42(49)61)23-28-11-6-5-7-12-28)55(2)47(66)37(24-30-26-50-34-14-9-8-13-32(30)34)52-40(58)27-51-44(63)39-16-10-21-56(39)46(65)33(48)22-29-17-19-31(57)20-18-29/h5-9,11-14,17-20,26,33,35-39,50,57H,3-4,10,15-16,21-25,27,48H2,1-2H3,(H2,49,61)(H,51,63)(H,52,58)(H,53,62)(H,54,64)(H,59,60)/t33-,35-,36-,37-,38-,39+/m0/s1

>  <IUPAC Name>  (1) 
(3S)-3-[[(2S)-2-[[(2S)-2-[[2-[[(2R)-1-[(2S)-2-amino-3-(4-hydroxyphenyl)propanoyl]pyrrolidine-2-carbonyl]amino]acetyl]amino]-3-(1H-indol-3-yl)propanoyl]-methylamino]hexanoyl]amino]-4-[[(2S)-1-amino-1-oxo-3-phenylpropan-2-yl]amino]-4-oxobutanoic acid

$$$$
