
     RDKit          3D

 34 35  0  0  0  0  0  0  0  0999 V2000
   -1.0339   -4.0858   -0.5735 C   0  0  0  0  0  0  0  0  0  0  0  0
   -1.8873   -3.2511    0.8023 S   0  0  0  0  0  0  0  0  0  0  0  0
   -2.0219   -1.5178    0.3597 C   0  0  0  0  0  0  0  0  0  0  0  0
   -3.1179   -1.0484   -0.3321 C   0  0  0  0  0  0  0  0  0  0  0  0
   -3.2286    0.2826   -0.6760 C   0  0  0  0  0  0  0  0  0  0  0  0
   -2.2075    1.1321   -0.3060 C   0  0  0  0  0  0  0  0  0  0  0  0
   -1.1082    0.6502    0.3904 C   0  0  0  0  0  0  0  0  0  0  0  0
   -0.9726   -0.6759    0.7464 C   0  0  0  0  0  0  0  0  0  0  0  0
    0.1321   -1.1656    1.4555 N   0  0  0  0  0  0  0  0  0  0  0  0
    1.2578   -0.3647    1.8841 C   0  0  0  0  0  0  0  0  0  0  0  0
    1.9279    0.1415    0.6356 C   0  0  0  0  0  0  0  0  0  0  0  0
    1.6209   -0.1162   -0.5929 N   0  0  0  0  0  0  0  0  0  0  0  0
    2.4911    0.5512   -1.5091 C   0  0  0  0  0  0  0  0  0  0  0  0
    3.6183    1.0626   -0.6288 C   0  0  0  0  0  0  0  0  0  0  0  0
    3.0508    1.0112    0.7051 N   0  0  0  0  0  0  0  0  0  0  0  0
   -2.3366    2.4637   -0.6600 O   0  0  0  0  0  0  0  0  0  0  0  0
   -1.3846    3.4515   -0.3568 C   0  0  0  0  0  0  0  0  0  0  0  0
   -1.7602   -4.1634   -1.4036 H   0  0  0  0  0  0  0  0  0  0  0  0
   -0.2326   -3.3961   -0.9148 H   0  0  0  0  0  0  0  0  0  0  0  0
   -0.6445   -5.0522   -0.2156 H   0  0  0  0  0  0  0  0  0  0  0  0
   -3.9091   -1.7451   -0.6105 H   0  0  0  0  0  0  0  0  0  0  0  0
   -4.0933    0.6383   -1.2188 H   0  0  0  0  0  0  0  0  0  0  0  0
   -0.3570    1.3843    0.6445 H   0  0  0  0  0  0  0  0  0  0  0  0
    0.1506   -2.1901    1.6970 H   0  0  0  0  0  0  0  0  0  0  0  0
    0.9342    0.5196    2.4750 H   0  0  0  0  0  0  0  0  0  0  0  0
    1.9751   -0.9599    2.4817 H   0  0  0  0  0  0  0  0  0  0  0  0
    2.0094    1.3835   -2.0575 H   0  0  0  0  0  0  0  0  0  0  0  0
    2.8763   -0.1508   -2.2818 H   0  0  0  0  0  0  0  0  0  0  0  0
    3.8461    2.0973   -0.8898 H   0  0  0  0  0  0  0  0  0  0  0  0
    4.4541    0.3465   -0.7230 H   0  0  0  0  0  0  0  0  0  0  0  0
    3.4072    1.5188    1.5441 H   0  0  0  0  0  0  0  0  0  0  0  0
   -0.9518    3.3371    0.6622 H   0  0  0  0  0  0  0  0  0  0  0  0
   -0.6065    3.4616   -1.1531 H   0  0  0  0  0  0  0  0  0  0  0  0
   -1.8980    4.4493   -0.3588 H   0  0  0  0  0  0  0  0  0  0  0  0
  1  2  1  0
  2  3  1  0
  3  4  2  0
  4  5  1  0
  5  6  2  0
  6  7  1  0
  7  8  2  0
  8  9  1  0
  9 10  1  0
 10 11  1  0
 11 12  2  0
 12 13  1  0
 13 14  1  0
 14 15  1  0
  6 16  1  0
 16 17  1  0
  8  3  1  0
 15 11  1  0
  1 18  1  0
  1 19  1  0
  1 20  1  0
  4 21  1  0
  5 22  1  0
  7 23  1  0
  9 24  1  0
 10 25  1  0
 10 26  1  0
 13 27  1  0
 13 28  1  0
 14 29  1  0
 14 30  1  0
 15 31  1  0
 17 32  1  0
 17 33  1  0
 17 34  1  0
M  END
>  <Ligand ID>  (1) 
LIG0002006

>  <Ligand>  (1) 
CHEMBL70691

>  <SMILES>  (1) 
CSc1ccc(cc1NCC1=NCCN1)OC

>  <CID>  (1) 
11098175.0

>  <ChEMBL ID>  (1) 
nan

>  <InChiKey>  (1) 
NMTCRDZBJDXVCH-UHFFFAOYSA-N

>  <InChi>  (1) 
InChI=1S/C12H17N3OS/c1-16-9-3-4-11(17-2)10(7-9)15-8-12-13-5-6-14-12/h3-4,7,15H,5-6,8H2,1-2H3,(H,13,14)

>  <IUPAC Name>  (1) 
N-(4,5-dihydro-1H-imidazol-2-ylmethyl)-5-methoxy-2-methylsulfanylaniline

$$$$
