
     RDKit          3D

 57 58  0  0  0  0  0  0  0  0999 V2000
   -7.4457   -2.0559    2.1786 C   0  0  0  0  0  0  0  0  0  0  0  0
   -7.1069   -0.6108    2.0566 C   0  0  0  0  0  0  0  0  0  0  0  0
   -6.8388   -0.1250    0.6672 C   0  0  0  0  0  0  0  0  0  0  0  0
   -5.7269   -0.7789   -0.0225 C   0  0  0  0  0  0  0  0  0  0  0  0
   -5.8768   -1.9616   -0.4693 O   0  0  0  0  0  0  0  0  0  0  0  0
   -4.4221   -0.1713   -0.2481 C   0  0  0  0  0  0  0  0  0  0  0  0
   -4.1003    1.1012    0.1757 C   0  0  0  0  0  0  0  0  0  0  0  0
   -2.8429    1.6598   -0.0534 C   0  0  0  0  0  0  0  0  0  0  0  0
   -1.8804    0.9211   -0.7269 C   0  0  0  0  0  0  0  0  0  0  0  0
   -2.1911   -0.3526   -1.1553 C   0  0  0  0  0  0  0  0  0  0  0  0
   -3.4483   -0.8853   -0.9151 C   0  0  0  0  0  0  0  0  0  0  0  0
   -3.6905   -2.1793   -1.3776 O   0  0  0  0  0  0  0  0  0  0  0  0
   -1.1796   -1.1655   -1.8781 C   0  0  0  0  0  0  0  0  0  0  0  0
   -0.6344    1.4981   -0.9444 O   0  0  0  0  0  0  0  0  0  0  0  0
   -0.2270    2.7591   -0.5568 C   0  0  0  0  0  0  0  0  0  0  0  0
    1.1842    3.0251   -0.9710 C   0  0  0  0  0  0  0  0  0  0  0  0
    2.1823    2.1152   -0.3543 C   0  0  0  0  0  0  0  0  0  0  0  0
    2.0360    0.6681   -0.6330 C   0  0  0  0  0  0  0  0  0  0  0  0
    3.0608   -0.0704   -0.0590 O   0  0  0  0  0  0  0  0  0  0  0  0
    4.3798   -0.0375   -0.3434 C   0  0  0  0  0  0  0  0  0  0  0  0
    5.0125    0.7209   -1.2952 C   0  0  0  0  0  0  0  0  0  0  0  0
    6.3931    0.6727   -1.5065 C   0  0  0  0  0  0  0  0  0  0  0  0
    7.1738   -0.1567   -0.7487 C   0  0  0  0  0  0  0  0  0  0  0  0
    6.5724   -0.9351    0.2172 C   0  0  0  0  0  0  0  0  0  0  0  0
    5.2154   -0.8767    0.4138 C   0  0  0  0  0  0  0  0  0  0  0  0
    4.5948   -1.7415    1.4792 C   0  0  0  0  0  0  0  0  0  0  0  0
    7.4393   -1.8033    0.9989 C   0  0  0  0  0  0  0  0  0  0  0  0
    7.0103   -2.5682    1.9157 O   0  0  0  0  0  0  0  0  0  0  0  0
    8.8199   -1.8515    0.7873 O   0  0  0  0  0  0  0  0  0  0  0  0
   -7.0047   -2.4795    3.1290 H   0  0  0  0  0  0  0  0  0  0  0  0
   -8.5603   -2.2243    2.2227 H   0  0  0  0  0  0  0  0  0  0  0  0
   -7.0942   -2.7103    1.3777 H   0  0  0  0  0  0  0  0  0  0  0  0
   -6.3149   -0.3590    2.7781 H   0  0  0  0  0  0  0  0  0  0  0  0
   -8.0089   -0.0460    2.4211 H   0  0  0  0  0  0  0  0  0  0  0  0
   -6.7709    0.9795    0.6636 H   0  0  0  0  0  0  0  0  0  0  0  0
   -7.7648   -0.3466    0.0673 H   0  0  0  0  0  0  0  0  0  0  0  0
   -4.8413    1.6842    0.6998 H   0  0  0  0  0  0  0  0  0  0  0  0
   -2.6442    2.6486    0.2955 H   0  0  0  0  0  0  0  0  0  0  0  0
   -3.7300   -2.9937   -0.7902 H   0  0  0  0  0  0  0  0  0  0  0  0
   -0.7314   -1.8810   -1.1397 H   0  0  0  0  0  0  0  0  0  0  0  0
   -0.3796   -0.5318   -2.3103 H   0  0  0  0  0  0  0  0  0  0  0  0
   -1.6767   -1.7582   -2.6625 H   0  0  0  0  0  0  0  0  0  0  0  0
   -0.3094    2.7831    0.5739 H   0  0  0  0  0  0  0  0  0  0  0  0
   -0.9125    3.5777   -0.8738 H   0  0  0  0  0  0  0  0  0  0  0  0
    1.3081    2.9412   -2.0894 H   0  0  0  0  0  0  0  0  0  0  0  0
    1.3986    4.1025   -0.7723 H   0  0  0  0  0  0  0  0  0  0  0  0
    2.0488    2.1966    0.7911 H   0  0  0  0  0  0  0  0  0  0  0  0
    3.1792    2.5562   -0.5311 H   0  0  0  0  0  0  0  0  0  0  0  0
    1.9476    0.5296   -1.7349 H   0  0  0  0  0  0  0  0  0  0  0  0
    1.0507    0.3330   -0.1901 H   0  0  0  0  0  0  0  0  0  0  0  0
    4.4728    1.3773   -1.9450 H   0  0  0  0  0  0  0  0  0  0  0  0
    6.8496    1.2930   -2.2728 H   0  0  0  0  0  0  0  0  0  0  0  0
    8.2479   -0.1813   -0.9274 H   0  0  0  0  0  0  0  0  0  0  0  0
    3.5016   -1.5143    1.5435 H   0  0  0  0  0  0  0  0  0  0  0  0
    4.7795   -2.7987    1.2975 H   0  0  0  0  0  0  0  0  0  0  0  0
    5.0521   -1.4302    2.4327 H   0  0  0  0  0  0  0  0  0  0  0  0
    9.4447   -2.4506    1.3144 H   0  0  0  0  0  0  0  0  0  0  0  0
  1  2  1  0
  2  3  1  0
  3  4  1  0
  4  5  2  0
  4  6  1  0
  6  7  2  0
  7  8  1  0
  8  9  2  0
  9 10  1  0
 10 11  2  0
 11 12  1  0
 10 13  1  0
  9 14  1  0
 14 15  1  0
 15 16  1  0
 16 17  1  0
 17 18  1  0
 18 19  1  0
 19 20  1  0
 20 21  2  0
 21 22  1  0
 22 23  2  0
 23 24  1  0
 24 25  2  0
 25 26  1  0
 24 27  1  0
 27 28  2  0
 27 29  1  0
 11  6  1  0
 25 20  1  0
  1 30  1  0
  1 31  1  0
  1 32  1  0
  2 33  1  0
  2 34  1  0
  3 35  1  0
  3 36  1  0
  7 37  1  0
  8 38  1  0
 12 39  1  0
 13 40  1  0
 13 41  1  0
 13 42  1  0
 15 43  1  0
 15 44  1  0
 16 45  1  0
 16 46  1  0
 17 47  1  0
 17 48  1  0
 18 49  1  0
 18 50  1  0
 21 51  1  0
 22 52  1  0
 23 53  1  0
 26 54  1  0
 26 55  1  0
 26 56  1  0
 29 57  1  0
M  END
>  <Ligand ID>  (1) 
LIG0004138

>  <Ligand>  (1) 
CHEMBL3287720

>  <SMILES>  (1) 
CCCC(=O)c1ccc(c(c1O)C)OCCCCOc1cccc(c1C)C(=O)O

>  <CID>  (1) 
90643885.0

>  <ChEMBL ID>  (1) 
nan

>  <InChiKey>  (1) 
RTZVIXOIFJEZOY-UHFFFAOYSA-N

>  <InChi>  (1) 
InChI=1S/C23H28O6/c1-4-8-19(24)18-11-12-21(16(3)22(18)25)29-14-6-5-13-28-20-10-7-9-17(15(20)2)23(26)27/h7,9-12,25H,4-6,8,13-14H2,1-3H3,(H,26,27)

>  <IUPAC Name>  (1) 
3-[4-(4-butanoyl-3-hydroxy-2-methylphenoxy)butoxy]-2-methylbenzoic acid

$$$$
