
     RDKit          3D

 30 31  0  0  0  0  0  0  0  0999 V2000
   -2.9224    1.1278   -0.7946 C   0  0  0  0  0  0  0  0  0  0  0  0
   -2.2541   -0.1389   -0.4507 C   0  0  0  0  0  0  0  0  0  0  0  0
   -1.0898   -0.1933    0.4255 C   0  0  1  0  0  0  0  0  0  0  0  0
   -0.7400   -1.7077    0.5131 C   0  0  0  0  0  0  0  0  0  0  0  0
   -0.1153   -2.1120   -0.7452 N   0  0  0  0  0  0  0  0  0  0  0  0
    1.2602   -2.4098   -0.4503 C   0  0  0  0  0  0  0  0  0  0  0  0
    1.9425   -1.3312    0.3098 C   0  0  0  0  0  0  0  0  0  0  0  0
    1.4295    0.0394    0.0886 C   0  0  0  0  0  0  0  0  0  0  0  0
    0.1204    0.5527    0.1475 C   0  0  0  0  0  0  0  0  0  0  0  0
    0.0044    1.8975   -0.0836 C   0  0  0  0  0  0  0  0  0  0  0  0
    1.0763    2.7330   -0.3620 C   0  0  0  0  0  0  0  0  0  0  0  0
    0.8010    4.4394   -0.6410 Cl  0  0  0  0  0  0  0  0  0  0  0  0
    2.3537    2.2284   -0.4201 C   0  0  0  0  0  0  0  0  0  0  0  0
    2.5045    0.8807   -0.1914 C   0  0  0  0  0  0  0  0  0  0  0  0
   -2.5054    1.7013   -1.6478 H   0  0  0  0  0  0  0  0  0  0  0  0
   -3.2100    1.7467    0.0807 H   0  0  0  0  0  0  0  0  0  0  0  0
   -3.9492    0.8257   -1.2068 H   0  0  0  0  0  0  0  0  0  0  0  0
   -2.0494   -0.6735   -1.4203 H   0  0  0  0  0  0  0  0  0  0  0  0
   -3.0571   -0.7866    0.0464 H   0  0  0  0  0  0  0  0  0  0  0  0
   -1.4058    0.0363    1.4831 H   0  0  0  0  0  0  0  0  0  0  0  0
   -1.6735   -2.2971    0.6025 H   0  0  0  0  0  0  0  0  0  0  0  0
   -0.1105   -1.9141    1.3785 H   0  0  0  0  0  0  0  0  0  0  0  0
   -0.2036   -1.3926   -1.4977 H   0  0  0  0  0  0  0  0  0  0  0  0
    1.8433   -2.7233   -1.3411 H   0  0  0  0  0  0  0  0  0  0  0  0
    1.2428   -3.3329    0.2002 H   0  0  0  0  0  0  0  0  0  0  0  0
    1.9645   -1.5763    1.4178 H   0  0  0  0  0  0  0  0  0  0  0  0
    3.0172   -1.3607    0.0259 H   0  0  0  0  0  0  0  0  0  0  0  0
   -0.9516    2.3482   -0.0371 H   0  0  0  0  0  0  0  0  0  0  0  0
    3.1654    2.9052   -0.6394 H   0  0  0  0  0  0  0  0  0  0  0  0
    3.5118    0.4874   -0.2377 H   0  0  0  0  0  0  0  0  0  0  0  0
  1  2  1  0
  2  3  1  0
  3  4  1  0
  4  5  1  0
  5  6  1  0
  6  7  1  0
  7  8  1  0
  8  9  2  0
  9 10  1  0
 10 11  2  0
 11 12  1  0
 11 13  1  0
 13 14  2  0
  9  3  1  0
 14  8  1  0
  1 15  1  0
  1 16  1  0
  1 17  1  0
  2 18  1  0
  2 19  1  0
  3 20  1  1
  4 21  1  0
  4 22  1  0
  5 23  1  0
  6 24  1  0
  6 25  1  0
  7 26  1  0
  7 27  1  0
 10 28  1  0
 13 29  1  0
 14 30  1  0
M  END
>  <Ligand ID>  (1) 
LIG0003546

>  <Ligand>  (1) 
CHEMBL253809

>  <SMILES>  (1) 
CC[C@H]1CNCCc2c1cc(Cl)cc2

>  <CID>  (1) 
24773814.0

>  <ChEMBL ID>  (1) 
nan

>  <InChiKey>  (1) 
DNLSOPHLIKCIIV-VIFPVBQESA-N

>  <InChi>  (1) 
InChI=1S/C12H16ClN/c1-2-9-8-14-6-5-10-3-4-11(13)7-12(9)10/h3-4,7,9,14H,2,5-6,8H2,1H3/t9-/m0/s1

>  <IUPAC Name>  (1) 
(5R)-7-chloro-5-ethyl-2,3,4,5-tetrahydro-1H-3-benzazepine

$$$$
