
     RDKit          3D

 60 61  0  0  0  0  0  0  0  0999 V2000
   -8.5024   -0.9256    1.0254 C   0  0  0  0  0  0  0  0  0  0  0  0
   -7.4002   -0.0659    0.4127 C   0  0  0  0  0  0  0  0  0  0  0  0
   -6.5562   -0.9278   -0.5038 C   0  0  0  0  0  0  0  0  0  0  0  0
   -5.5062   -0.0820   -1.0790 C   0  0  0  0  0  0  0  0  0  0  0  0
   -5.7792    0.6646   -2.0660 O   0  0  0  0  0  0  0  0  0  0  0  0
   -4.1403   -0.0627   -0.5557 C   0  0  0  0  0  0  0  0  0  0  0  0
   -3.7727   -0.8375    0.5024 C   0  0  0  0  0  0  0  0  0  0  0  0
   -2.4748   -0.8172    1.0004 C   0  0  0  0  0  0  0  0  0  0  0  0
   -1.5347    0.0187    0.3964 C   0  0  0  0  0  0  0  0  0  0  0  0
   -1.8919    0.8060   -0.6727 C   0  0  0  0  0  0  0  0  0  0  0  0
   -3.1911    0.7555   -1.1357 C   0  0  0  0  0  0  0  0  0  0  0  0
   -3.5605    1.5533   -2.2219 O   0  0  0  0  0  0  0  0  0  0  0  0
   -0.8984    1.6854   -1.3062 C   0  0  0  0  0  0  0  0  0  0  0  0
   -0.2490   -0.0014    0.9383 O   0  0  0  0  0  0  0  0  0  0  0  0
    0.1052   -0.8063    2.0261 C   0  0  0  0  0  0  0  0  0  0  0  0
    1.5353   -0.6156    2.3922 C   0  0  0  0  0  0  0  0  0  0  0  0
    2.5618   -0.9765    1.3689 C   0  0  0  0  0  0  0  0  0  0  0  0
    2.4337   -0.1916    0.1162 C   0  0  0  0  0  0  0  0  0  0  0  0
    3.3974   -0.4511   -0.8511 O   0  0  0  0  0  0  0  0  0  0  0  0
    4.7336   -0.2950   -0.8692 C   0  0  0  0  0  0  0  0  0  0  0  0
    5.4098   -0.6945   -2.0376 C   0  0  0  0  0  0  0  0  0  0  0  0
    6.7754   -0.5739   -2.1544 C   0  0  0  0  0  0  0  0  0  0  0  0
    7.5536   -0.0595   -1.1429 C   0  0  0  0  0  0  0  0  0  0  0  0
    6.9112    0.3381    0.0087 C   0  0  0  0  0  0  0  0  0  0  0  0
    5.5372    0.2148    0.1209 C   0  0  0  0  0  0  0  0  0  0  0  0
    7.7003    0.9008    1.1345 C   0  0  0  0  0  0  0  0  0  0  0  0
    8.9919    0.0397   -1.3301 C   0  0  0  0  0  0  0  0  0  0  0  0
    9.5298   -0.3433   -2.4157 O   0  0  0  0  0  0  0  0  0  0  0  0
    9.8570    0.5424   -0.3711 O   0  0  0  0  0  0  0  0  0  0  0  0
   -8.1095    1.0261   -0.3560 C   0  0  0  0  0  0  0  0  0  0  0  0
   -8.9223   -1.5394    0.2015 H   0  0  0  0  0  0  0  0  0  0  0  0
   -8.1438   -1.5510    1.8514 H   0  0  0  0  0  0  0  0  0  0  0  0
   -9.2837   -0.1937    1.3808 H   0  0  0  0  0  0  0  0  0  0  0  0
   -6.8121    0.3511    1.2472 H   0  0  0  0  0  0  0  0  0  0  0  0
   -7.2648   -1.2610   -1.3181 H   0  0  0  0  0  0  0  0  0  0  0  0
   -6.2158   -1.8491   -0.0228 H   0  0  0  0  0  0  0  0  0  0  0  0
   -4.4786   -1.4829    0.9773 H   0  0  0  0  0  0  0  0  0  0  0  0
   -2.1832   -1.4278    1.8351 H   0  0  0  0  0  0  0  0  0  0  0  0
   -3.4762    1.2502   -3.1772 H   0  0  0  0  0  0  0  0  0  0  0  0
   -1.4468    2.4711   -1.8983 H   0  0  0  0  0  0  0  0  0  0  0  0
   -0.2505    1.1031   -2.0209 H   0  0  0  0  0  0  0  0  0  0  0  0
   -0.2928    2.2541   -0.5676 H   0  0  0  0  0  0  0  0  0  0  0  0
   -0.0690   -1.8808    1.7459 H   0  0  0  0  0  0  0  0  0  0  0  0
   -0.5767   -0.6504    2.9020 H   0  0  0  0  0  0  0  0  0  0  0  0
    1.7126    0.4225    2.8015 H   0  0  0  0  0  0  0  0  0  0  0  0
    1.7241   -1.2863    3.2897 H   0  0  0  0  0  0  0  0  0  0  0  0
    2.3628   -2.0679    1.1127 H   0  0  0  0  0  0  0  0  0  0  0  0
    3.5483   -0.8987    1.8730 H   0  0  0  0  0  0  0  0  0  0  0  0
    2.2989    0.8875    0.3303 H   0  0  0  0  0  0  0  0  0  0  0  0
    1.4537   -0.5240   -0.3651 H   0  0  0  0  0  0  0  0  0  0  0  0
    4.8598   -1.1090   -2.8761 H   0  0  0  0  0  0  0  0  0  0  0  0
    7.2761   -0.8878   -3.0618 H   0  0  0  0  0  0  0  0  0  0  0  0
    5.1051    0.5608    1.0447 H   0  0  0  0  0  0  0  0  0  0  0  0
    8.2058    1.8414    0.8365 H   0  0  0  0  0  0  0  0  0  0  0  0
    8.4956    0.2051    1.4938 H   0  0  0  0  0  0  0  0  0  0  0  0
    7.0343    1.0447    2.0154 H   0  0  0  0  0  0  0  0  0  0  0  0
   10.8668    0.6221   -0.5220 H   0  0  0  0  0  0  0  0  0  0  0  0
   -8.7528    1.5547    0.3993 H   0  0  0  0  0  0  0  0  0  0  0  0
   -8.8074    0.5421   -1.0608 H   0  0  0  0  0  0  0  0  0  0  0  0
   -7.4338    1.7509   -0.8215 H   0  0  0  0  0  0  0  0  0  0  0  0
  1  2  1  0
  2  3  1  0
  3  4  1  0
  4  5  2  0
  4  6  1  0
  6  7  2  0
  7  8  1  0
  8  9  2  0
  9 10  1  0
 10 11  2  0
 11 12  1  0
 10 13  1  0
  9 14  1  0
 14 15  1  0
 15 16  1  0
 16 17  1  0
 17 18  1  0
 18 19  1  0
 19 20  1  0
 20 21  2  0
 21 22  1  0
 22 23  2  0
 23 24  1  0
 24 25  2  0
 24 26  1  0
 23 27  1  0
 27 28  2  0
 27 29  1  0
  2 30  1  0
 11  6  1  0
 25 20  1  0
  1 31  1  0
  1 32  1  0
  1 33  1  0
  2 34  1  0
  3 35  1  0
  3 36  1  0
  7 37  1  0
  8 38  1  0
 12 39  1  0
 13 40  1  0
 13 41  1  0
 13 42  1  0
 15 43  1  0
 15 44  1  0
 16 45  1  0
 16 46  1  0
 17 47  1  0
 17 48  1  0
 18 49  1  0
 18 50  1  0
 21 51  1  0
 22 52  1  0
 25 53  1  0
 26 54  1  0
 26 55  1  0
 26 56  1  0
 29 57  1  0
 30 58  1  0
 30 59  1  0
 30 60  1  0
M  END
>  <Ligand ID>  (1) 
LIG0003630

>  <Ligand>  (1) 
CHEMBL3287699

>  <SMILES>  (1) 
CC(CC(=O)c1ccc(c(c1O)C)OCCCCOc1ccc(c(c1)C)C(=O)O)C

>  <CID>  (1) 
90643876.0

>  <ChEMBL ID>  (1) 
nan

>  <InChiKey>  (1) 
SZENSIMCFJFUGR-UHFFFAOYSA-N

>  <InChi>  (1) 
InChI=1S/C24H30O6/c1-15(2)13-21(25)20-9-10-22(17(4)23(20)26)30-12-6-5-11-29-18-7-8-19(24(27)28)16(3)14-18/h7-10,14-15,26H,5-6,11-13H2,1-4H3,(H,27,28)

>  <IUPAC Name>  (1) 
4-[4-[3-hydroxy-2-methyl-4-(3-methylbutanoyl)phenoxy]butoxy]-2-methylbenzoic acid

$$$$
