
     RDKit          3D

 40 42  0  0  0  0  0  0  0  0999 V2000
    6.2908    1.5079   -0.7853 C   0  0  0  0  0  0  0  0  0  0  0  0
    5.0606    0.6470   -0.7633 C   0  0  0  0  0  0  0  0  0  0  0  0
    4.0874    1.1626    0.1389 O   0  0  0  0  0  0  0  0  0  0  0  0
    2.8956    0.4543    0.2534 C   0  0  0  0  0  0  0  0  0  0  0  0
    2.6723   -0.7074   -0.4860 C   0  0  0  0  0  0  0  0  0  0  0  0
    1.4763   -1.3996   -0.3573 C   0  0  0  0  0  0  0  0  0  0  0  0
    0.4748   -0.9753    0.4928 C   0  0  0  0  0  0  0  0  0  0  0  0
    0.7092    0.1866    1.2263 C   0  0  0  0  0  0  0  0  0  0  0  0
    1.8936    0.8904    1.1124 C   0  0  0  0  0  0  0  0  0  0  0  0
   -0.2605    0.6686    2.1020 O   0  0  0  0  0  0  0  0  0  0  0  0
   -0.7830   -1.7116    0.6218 C   0  0  0  0  0  0  0  0  0  0  0  0
   -0.9250   -2.9823    1.0434 N   0  0  0  0  0  0  0  0  0  0  0  0
   -2.2069   -3.3322    1.0375 N   0  0  0  0  0  0  0  0  0  0  0  0
   -2.9387   -2.2835    0.6063 C   0  0  0  0  0  0  0  0  0  0  0  0
   -2.0558   -1.2536    0.3400 C   0  0  0  0  0  0  0  0  0  0  0  0
   -2.4029    0.0767   -0.1498 C   0  0  0  0  0  0  0  0  0  0  0  0
   -1.9677    0.5592   -1.3725 C   0  0  0  0  0  0  0  0  0  0  0  0
   -2.3400    1.8321   -1.7664 C   0  0  0  0  0  0  0  0  0  0  0  0
   -3.1384    2.6498   -0.9780 C   0  0  0  0  0  0  0  0  0  0  0  0
   -3.5626    2.1398    0.2476 C   0  0  0  0  0  0  0  0  0  0  0  0
   -3.2069    0.8740    0.6663 C   0  0  0  0  0  0  0  0  0  0  0  0
   -4.4193   -2.2911    0.4637 C   0  0  0  0  0  0  0  0  0  0  0  0
    6.1861    2.2565   -1.6234 H   0  0  0  0  0  0  0  0  0  0  0  0
    7.1845    0.8918   -0.9517 H   0  0  0  0  0  0  0  0  0  0  0  0
    6.3145    2.0648    0.1780 H   0  0  0  0  0  0  0  0  0  0  0  0
    4.5559    0.5479   -1.7424 H   0  0  0  0  0  0  0  0  0  0  0  0
    5.3532   -0.3895   -0.4429 H   0  0  0  0  0  0  0  0  0  0  0  0
    3.4429   -1.0616   -1.1605 H   0  0  0  0  0  0  0  0  0  0  0  0
    1.3493   -2.2940   -0.9504 H   0  0  0  0  0  0  0  0  0  0  0  0
    2.1070    1.7921    1.6648 H   0  0  0  0  0  0  0  0  0  0  0  0
   -0.4128    1.6671    2.0762 H   0  0  0  0  0  0  0  0  0  0  0  0
   -2.5426   -4.2813    1.3299 H   0  0  0  0  0  0  0  0  0  0  0  0
   -1.3352   -0.0778   -2.0062 H   0  0  0  0  0  0  0  0  0  0  0  0
   -2.0124    2.2284   -2.7148 H   0  0  0  0  0  0  0  0  0  0  0  0
   -3.4234    3.6385   -1.2915 H   0  0  0  0  0  0  0  0  0  0  0  0
   -4.1927    2.7384    0.9096 H   0  0  0  0  0  0  0  0  0  0  0  0
   -3.5453    0.4869    1.6273 H   0  0  0  0  0  0  0  0  0  0  0  0
   -4.9078   -2.0115    1.4153 H   0  0  0  0  0  0  0  0  0  0  0  0
   -4.7226   -1.5936   -0.3539 H   0  0  0  0  0  0  0  0  0  0  0  0
   -4.7517   -3.3155    0.1597 H   0  0  0  0  0  0  0  0  0  0  0  0
  1  2  1  0
  2  3  1  0
  3  4  1  0
  4  5  2  0
  5  6  1  0
  6  7  2  0
  7  8  1  0
  8  9  2  0
  8 10  1  0
  7 11  1  0
 11 12  2  0
 12 13  1  0
 13 14  1  0
 14 15  2  0
 15 16  1  0
 16 17  2  0
 17 18  1  0
 18 19  2  0
 19 20  1  0
 20 21  2  0
 14 22  1  0
  9  4  1  0
 15 11  1  0
 21 16  1  0
  1 23  1  0
  1 24  1  0
  1 25  1  0
  2 26  1  0
  2 27  1  0
  5 28  1  0
  6 29  1  0
  9 30  1  0
 10 31  1  0
 13 32  1  0
 17 33  1  0
 18 34  1  0
 19 35  1  0
 20 36  1  0
 21 37  1  0
 22 38  1  0
 22 39  1  0
 22 40  1  0
M  END
>  <Ligand ID>  (1) 
LIG0004476

>  <Ligand>  (1) 
5-ethoxy-2-(5-methyl-4-phenyl-1H-pyrazol-3-yl)phenol

>  <SMILES>  (1) 
CCOc1ccc(c(c1)O)c1n[nH]c(c1c1ccccc1)C

>  <CID>  (1) 
797608.0

>  <ChEMBL ID>  (1) 
nan

>  <InChiKey>  (1) 
ARZWFJWBGYWQHV-UHFFFAOYSA-N

>  <InChi>  (1) 
InChI=1S/C18H18N2O2/c1-3-22-14-9-10-15(16(21)11-14)18-17(12(2)19-20-18)13-7-5-4-6-8-13/h4-11,21H,3H2,1-2H3,(H,19,20)

>  <IUPAC Name>  (1) 
5-ethoxy-2-(5-methyl-4-phenyl-1H-pyrazol-3-yl)phenol

$$$$
