
     RDKit          3D

 12 12  0  0  0  0  0  0  0  0999 V2000
   -1.0596    0.9195    0.0076 C   0  0  0  0  0  0  0  0  0  0  0  0
    0.2513    1.3491   -0.0848 C   0  0  0  0  0  0  0  0  0  0  0  0
    1.3193    0.4882   -0.0959 C   0  0  0  0  0  0  0  0  0  0  0  0
    1.0469   -0.8736   -0.0093 C   0  0  0  0  0  0  0  0  0  0  0  0
   -0.2412   -1.3631    0.0850 C   0  0  0  0  0  0  0  0  0  0  0  0
   -1.2908   -0.4541    0.0926 C   0  0  0  0  0  0  0  0  0  0  0  0
   -1.9061    1.5981    0.0166 H   0  0  0  0  0  0  0  0  0  0  0  0
    0.4321    2.4147   -0.1508 H   0  0  0  0  0  0  0  0  0  0  0  0
    2.3521    0.7986   -0.1672 H   0  0  0  0  0  0  0  0  0  0  0  0
    1.8429   -1.6070   -0.0127 H   0  0  0  0  0  0  0  0  0  0  0  0
   -0.4659   -2.4206    0.1529 H   0  0  0  0  0  0  0  0  0  0  0  0
   -2.2812   -0.8497    0.1661 H   0  0  0  0  0  0  0  0  0  0  0  0
  1  2  2  0
  2  3  1  0
  3  4  2  0
  4  5  1  0
  5  6  2  0
  6  1  1  0
  1  7  1  0
  2  8  1  0
  3  9  1  0
  4 10  1  0
  5 11  1  0
  6 12  1  0
M  END
>  <Ligand ID>  (1) 
LIG0000107

>  <Ligand>  (1) 
benzene

>  <SMILES>  (1) 
c1ccccc1

>  <CID>  (1) 
241.0

>  <ChEMBL ID>  (1) 
nan

>  <InChiKey>  (1) 
UHOVQNZJYSORNB-UHFFFAOYSA-N

>  <InChi>  (1) 
InChI=1S/C6H6/c1-2-4-6-5-3-1/h1-6H

>  <IUPAC Name>  (1) 
benzene

$$$$
