
     RDKit          3D

 61 63  0  0  0  0  0  0  0  0999 V2000
   -2.1218    1.1144   -2.8216 C   0  0  0  0  0  0  0  0  0  0  0  0
   -1.5537    0.1419   -1.9954 O   0  0  0  0  0  0  0  0  0  0  0  0
   -0.4924    0.6454   -1.2438 C   0  0  2  0  0  0  0  0  0  0  0  0
    0.7659   -0.1041   -1.5444 C   0  0  0  0  0  0  0  0  0  0  0  0
    1.7673   -0.0563   -0.5430 N   0  0  0  0  0  0  0  0  0  0  0  0
    2.9976    0.5510   -0.9180 C   0  0  0  0  0  0  0  0  0  0  0  0
    3.7716   -0.2825   -1.9495 C   0  0  0  0  0  0  0  0  0  0  0  0
    5.0443    0.4397   -2.2808 C   0  0  0  0  0  0  0  0  0  0  0  0
    5.8948    0.6706   -1.2148 O   0  0  0  0  0  0  0  0  0  0  0  0
    6.5641   -0.1495   -0.3900 C   0  0  0  0  0  0  0  0  0  0  0  0
    7.3330    0.4436    0.6195 C   0  0  0  0  0  0  0  0  0  0  0  0
    8.0622   -0.2713    1.5226 C   0  0  0  0  0  0  0  0  0  0  0  0
    8.0521   -1.6471    1.4511 C   0  0  0  0  0  0  0  0  0  0  0  0
    7.3162   -2.2906    0.4807 C   0  0  0  0  0  0  0  0  0  0  0  0
    6.5941   -1.5254   -0.4114 C   0  0  0  0  0  0  0  0  0  0  0  0
    8.7765   -2.3438    2.3501 F   0  0  0  0  0  0  0  0  0  0  0  0
    1.3607    0.1206    0.8097 C   0  0  0  0  0  0  0  0  0  0  0  0
   -0.0295   -0.4564    0.9502 C   0  0  0  0  0  0  0  0  0  0  0  0
   -0.9233    0.5451    0.1960 C   0  0  2  0  0  0  0  0  0  0  0  0
   -2.3063    0.2047    0.3778 N   0  0  0  0  0  0  0  0  0  0  0  0
   -3.1609    1.0078    1.1683 C   0  0  0  0  0  0  0  0  0  0  0  0
   -2.6203    2.0297    1.6944 O   0  0  0  0  0  0  0  0  0  0  0  0
   -4.5599    0.7738    1.4228 C   0  0  0  0  0  0  0  0  0  0  0  0
   -5.2404    1.6800    2.2385 C   0  0  0  0  0  0  0  0  0  0  0  0
   -6.5712    1.5515    2.5454 C   0  0  0  0  0  0  0  0  0  0  0  0
   -7.3489    2.7290    3.5762 Cl  0  0  0  0  0  0  0  0  0  0  0  0
   -7.2951    0.4910    2.0414 C   0  0  0  0  0  0  0  0  0  0  0  0
   -6.6642   -0.4257    1.2333 C   0  0  0  0  0  0  0  0  0  0  0  0
   -5.3098   -0.2677    0.9392 C   0  0  0  0  0  0  0  0  0  0  0  0
   -4.7455   -1.2214    0.1251 O   0  0  0  0  0  0  0  0  0  0  0  0
   -5.3619   -2.3285   -0.4437 C   0  0  0  0  0  0  0  0  0  0  0  0
   -8.6743    0.2980    2.3184 N   0  0  0  0  0  0  0  0  0  0  0  0
   -2.9692    0.7332   -3.4256 H   0  0  0  0  0  0  0  0  0  0  0  0
   -1.3826    1.5008   -3.5778 H   0  0  0  0  0  0  0  0  0  0  0  0
   -2.5240    1.9849   -2.2474 H   0  0  0  0  0  0  0  0  0  0  0  0
   -0.3889    1.7124   -1.5238 H   0  0  0  0  0  0  0  0  0  0  0  0
    0.5107   -1.1759   -1.7186 H   0  0  0  0  0  0  0  0  0  0  0  0
    1.1903    0.2670   -2.4998 H   0  0  0  0  0  0  0  0  0  0  0  0
    3.6310    0.5774    0.0006 H   0  0  0  0  0  0  0  0  0  0  0  0
    2.8358    1.5569   -1.3387 H   0  0  0  0  0  0  0  0  0  0  0  0
    3.9337   -1.3046   -1.5927 H   0  0  0  0  0  0  0  0  0  0  0  0
    3.1454   -0.3773   -2.8850 H   0  0  0  0  0  0  0  0  0  0  0  0
    5.5731   -0.1937   -3.0627 H   0  0  0  0  0  0  0  0  0  0  0  0
    4.7838    1.3819   -2.8377 H   0  0  0  0  0  0  0  0  0  0  0  0
    7.3653    1.5373    0.7076 H   0  0  0  0  0  0  0  0  0  0  0  0
    8.6441    0.2016    2.2873 H   0  0  0  0  0  0  0  0  0  0  0  0
    7.3392   -3.3727    0.4638 H   0  0  0  0  0  0  0  0  0  0  0  0
    6.0442   -2.0661   -1.1641 H   0  0  0  0  0  0  0  0  0  0  0  0
    2.0940   -0.4024    1.4648 H   0  0  0  0  0  0  0  0  0  0  0  0
    1.3662    1.1958    1.0951 H   0  0  0  0  0  0  0  0  0  0  0  0
   -0.0349   -1.4280    0.4204 H   0  0  0  0  0  0  0  0  0  0  0  0
   -0.3731   -0.5167    1.9866 H   0  0  0  0  0  0  0  0  0  0  0  0
   -0.7253    1.5027    0.7124 H   0  0  0  0  0  0  0  0  0  0  0  0
   -2.6593   -0.6473   -0.0883 H   0  0  0  0  0  0  0  0  0  0  0  0
   -4.7206    2.5490    2.6731 H   0  0  0  0  0  0  0  0  0  0  0  0
   -7.2371   -1.2571    0.8396 H   0  0  0  0  0  0  0  0  0  0  0  0
   -5.3589   -3.1592    0.2951 H   0  0  0  0  0  0  0  0  0  0  0  0
   -4.7203   -2.6380   -1.3168 H   0  0  0  0  0  0  0  0  0  0  0  0
   -6.3921   -2.1164   -0.7965 H   0  0  0  0  0  0  0  0  0  0  0  0
   -9.3414    0.9904    1.9283 H   0  0  0  0  0  0  0  0  0  0  0  0
   -8.9499   -0.5259    2.8963 H   0  0  0  0  0  0  0  0  0  0  0  0
  1  2  1  0
  2  3  1  0
  3  4  1  0
  4  5  1  0
  5  6  1  0
  6  7  1  0
  7  8  1  0
  8  9  1  0
  9 10  1  0
 10 11  2  0
 11 12  1  0
 12 13  2  0
 13 14  1  0
 14 15  2  0
 13 16  1  0
  5 17  1  0
 17 18  1  0
 18 19  1  0
 19 20  1  0
 20 21  1  0
 21 22  2  0
 21 23  1  0
 23 24  2  0
 24 25  1  0
 25 26  1  0
 25 27  2  0
 27 28  1  0
 28 29  2  0
 29 30  1  0
 30 31  1  0
 27 32  1  0
 19  3  1  0
 29 23  1  0
 15 10  1  0
  1 33  1  0
  1 34  1  0
  1 35  1  0
  3 36  1  6
  4 37  1  0
  4 38  1  0
  6 39  1  0
  6 40  1  0
  7 41  1  0
  7 42  1  0
  8 43  1  0
  8 44  1  0
 11 45  1  0
 12 46  1  0
 14 47  1  0
 15 48  1  0
 17 49  1  0
 17 50  1  0
 18 51  1  0
 18 52  1  0
 19 53  1  1
 20 54  1  0
 24 55  1  0
 28 56  1  0
 31 57  1  0
 31 58  1  0
 31 59  1  0
 32 60  1  0
 32 61  1  0
M  END
>  <Ligand ID>  (1) 
LIG0004705

>  <Ligand>  (1) 
cisapride

>  <SMILES>  (1) 
CO[C@@H]1CN(CCCOc2ccc(cc2)F)CC[C@@H]1NC(=O)c1cc(Cl)c(cc1OC)N

>  <CID>  (1) 
5311047.0

>  <ChEMBL ID>  (1) 
nan

>  <InChiKey>  (1) 
DCSUBABJRXZOMT-RBBKRZOGSA-N

>  <InChi>  (1) 
InChI=1S/C23H29ClFN3O4/c1-30-21-13-19(26)18(24)12-17(21)23(29)27-20-8-10-28(14-22(20)31-2)9-3-11-32-16-6-4-15(25)5-7-16/h4-7,12-13,20,22H,3,8-11,14,26H2,1-2H3,(H,27,29)/t20-,22+/m0/s1

>  <IUPAC Name>  (1) 
4-amino-5-chloro-N-[(3R,4S)-1-[3-(4-fluorophenoxy)propyl]-3-methoxypiperidin-4-yl]-2-methoxybenzamide

$$$$
