
     RDKit          3D

204211  0  0  0  0  0  0  0  0999 V2000
   14.1006    0.7224    3.2254 N   0  0  0  0  0  0  0  0  0  0  0  0
   14.0147   -0.0317    1.9912 C   0  0  0  0  0  0  0  0  0  0  0  0
   12.5198   -0.2552    1.7233 C   0  0  0  0  0  0  0  0  0  0  0  0
   12.2562   -1.0258    0.4788 C   0  0  0  0  0  0  0  0  0  0  0  0
   12.7124   -0.4352   -0.8007 C   0  0  0  0  0  0  0  0  0  0  0  0
   12.1550    0.8874   -1.2186 C   0  0  1  0  0  0  0  0  0  0  0  0
   12.7901    1.2590   -2.5261 C   0  0  0  0  0  0  0  0  0  0  0  0
   11.9960    1.4964   -3.4511 O   0  0  0  0  0  0  0  0  0  0  0  0
   14.2188    1.3673   -2.8212 C   0  0  0  0  0  0  0  0  0  0  0  0
   15.1230    1.1071   -1.7490 N   0  0  0  0  0  0  0  0  0  0  0  0
   16.5067    1.0109   -2.0987 C   0  0  2  0  0  0  0  0  0  0  0  0
   16.7872   -0.1243   -3.0265 C   0  0  0  0  0  0  0  0  0  0  0  0
   15.8863   -0.9186   -3.4309 O   0  0  0  0  0  0  0  0  0  0  0  0
   18.1152   -0.3354   -3.4875 N   0  0  0  0  0  0  0  0  0  0  0  0
   17.3633    0.7956   -0.8897 C   0  0  0  0  0  0  0  0  0  0  0  0
   17.2869    1.8988    0.0863 C   0  0  0  0  0  0  0  0  0  0  0  0
   16.6185    2.9479   -0.0637 O   0  0  0  0  0  0  0  0  0  0  0  0
   18.0081    1.7669    1.2609 O   0  0  0  0  0  0  0  0  0  0  0  0
   10.7389    0.8738   -1.4332 N   0  0  0  0  0  0  0  0  0  0  0  0
    9.8232    0.9319   -0.3912 C   0  0  0  0  0  0  0  0  0  0  0  0
    8.4186    0.6632   -0.8578 C   0  0  0  0  0  0  0  0  0  0  0  0
    8.1732    0.5173   -2.0665 O   0  0  0  0  0  0  0  0  0  0  0  0
    7.3187    0.5714    0.1684 C   0  0  2  0  0  0  0  0  0  0  0  0
    7.6442   -0.4892    1.1879 C   0  0  0  0  0  0  0  0  0  0  0  0
    6.8964   -1.7124    0.6970 C   0  0  0  0  0  0  0  0  0  0  0  0
    6.0067   -1.2018   -0.3654 C   0  0  0  0  0  0  0  0  0  0  0  0
    6.1074    0.2185   -0.5115 N   0  0  0  0  0  0  0  0  0  0  0  0
    4.9250    0.9398   -0.2148 C   0  0  0  0  0  0  0  0  0  0  0  0
    4.4929    1.0989    1.1630 C   0  0  0  0  0  0  0  0  0  0  0  0
    5.4508    1.4007    1.9606 O   0  0  0  0  0  0  0  0  0  0  0  0
    3.2138    0.9847    1.8070 C   0  0  2  0  0  0  0  0  0  0  0  0
    3.4782    0.1162    3.0690 C   0  0  0  0  0  0  0  0  0  0  0  0
    3.0626   -1.2673    2.5990 C   0  0  0  0  0  0  0  0  0  0  0  0
    1.7368   -0.8768    1.9296 C   0  0  0  0  0  0  0  0  0  0  0  0
    2.0997    0.3606    1.1899 N   0  0  0  0  0  0  0  0  0  0  0  0
    1.3248    0.7530    0.0383 C   0  0  0  0  0  0  0  0  0  0  0  0
    1.8099    1.8041   -0.5453 O   0  0  0  0  0  0  0  0  0  0  0  0
    0.1663    0.1647   -0.5079 C   0  0  2  0  0  0  0  0  0  0  0  0
   -0.8391    1.2055   -1.0501 C   0  0  0  0  0  0  0  0  0  0  0  0
   -0.2581    2.2314   -2.3330 S   0  0  0  0  0  0  0  0  0  0  0  0
    0.6381    4.0268   -1.6749 S   0  0  0  0  0  0  0  0  0  0  0  0
   -0.6729    5.2839   -1.7185 C   0  0  0  0  0  0  0  0  0  0  0  0
   -1.6777    5.0796   -0.6316 C   0  0  1  0  0  0  0  0  0  0  0  0
   -1.4025    5.8803    0.5580 C   0  0  0  0  0  0  0  0  0  0  0  0
   -0.4561    6.6826    0.5003 O   0  0  0  0  0  0  0  0  0  0  0  0
   -2.1311    5.8454    1.8451 C   0  0  0  0  0  0  0  0  0  0  0  0
   -3.0378    4.9192   -1.1393 C   0  0  0  0  0  0  0  0  0  0  0  0
   -3.1829    4.7333   -2.3742 O   0  0  0  0  0  0  0  0  0  0  0  0
   -4.2545    4.9523   -0.4251 N   0  0  0  0  0  0  0  0  0  0  0  0
   -5.5390    4.6001   -1.0556 C   0  0  2  0  0  0  0  0  0  0  0  0
   -5.9562    5.7205   -2.0114 C   0  0  0  0  0  0  0  0  0  0  0  0
   -6.1023    7.0552   -1.4032 C   0  0  0  0  0  0  0  0  0  0  0  0
   -7.1060    7.1540   -0.3348 C   0  0  0  0  0  0  0  0  0  0  0  0
   -6.7557    7.5370    0.8252 O   0  0  0  0  0  0  0  0  0  0  0  0
   -8.4326    6.8516   -0.5077 O   0  0  0  0  0  0  0  0  0  0  0  0
   -6.5722    4.2755   -0.0798 C   0  0  0  0  0  0  0  0  0  0  0  0
   -6.3567    4.5581    1.1306 O   0  0  0  0  0  0  0  0  0  0  0  0
   -7.8260    3.6530   -0.3082 N   0  0  0  0  0  0  0  0  0  0  0  0
   -8.7874    3.5642    0.8308 C   0  0  2  0  0  0  0  0  0  0  0  0
   -8.7607    2.1776    1.3834 C   0  0  0  0  0  0  0  0  0  0  0  0
   -9.0725    1.8967    2.5544 O   0  0  0  0  0  0  0  0  0  0  0  0
   -8.3854    1.0092    0.6103 N   0  0  0  0  0  0  0  0  0  0  0  0
   -8.3883   -0.2543    1.3151 C   0  0  2  0  0  0  0  0  0  0  0  0
   -7.5614   -1.3170    0.7530 C   0  0  0  0  0  0  0  0  0  0  0  0
   -7.5675   -2.4294    1.3305 O   0  0  0  0  0  0  0  0  0  0  0  0
   -6.7225   -1.2565   -0.3902 N   0  0  0  0  0  0  0  0  0  0  0  0
   -5.9640   -2.4884   -0.8237 C   0  0  2  0  0  0  0  0  0  0  0  0
   -4.6132   -2.2739   -0.2723 C   0  0  0  0  0  0  0  0  0  0  0  0
   -4.4123   -1.1607    0.2706 O   0  0  0  0  0  0  0  0  0  0  0  0
   -3.5070   -3.1550   -0.2701 N   0  0  0  0  0  0  0  0  0  0  0  0
   -2.3101   -2.6827    0.4565 C   0  0  1  0  0  0  0  0  0  0  0  0
   -1.5303   -1.7025   -0.3004 C   0  0  0  0  0  0  0  0  0  0  0  0
   -1.6180   -1.6169   -1.5296 O   0  0  0  0  0  0  0  0  0  0  0  0
   -0.6177   -0.7593    0.3050 N   0  0  0  0  0  0  0  0  0  0  0  0
   -2.5782   -2.3690    1.8885 C   0  0  0  0  0  0  0  0  0  0  0  0
   -3.0468   -3.5931    2.5936 C   0  0  0  0  0  0  0  0  0  0  0  0
   -4.2749   -4.0507    2.9230 C   0  0  0  0  0  0  0  0  0  0  0  0
   -4.1575   -5.2482    3.5456 N   0  0  0  0  0  0  0  0  0  0  0  0
   -2.8479   -5.5916    3.6342 C   0  0  0  0  0  0  0  0  0  0  0  0
   -2.1503   -4.5658    3.0434 C   0  0  0  0  0  0  0  0  0  0  0  0
   -0.7745   -4.6102    2.9860 C   0  0  0  0  0  0  0  0  0  0  0  0
   -0.0826   -5.6976    3.5298 C   0  0  0  0  0  0  0  0  0  0  0  0
   -0.7920   -6.7349    4.1281 C   0  0  0  0  0  0  0  0  0  0  0  0
   -2.1938   -6.6875    4.1824 C   0  0  0  0  0  0  0  0  0  0  0  0
   -6.1083   -2.6903   -2.2695 C   0  0  0  0  0  0  0  0  0  0  0  0
   -5.4602   -3.8780   -2.8892 C   0  0  0  0  0  0  0  0  0  0  0  0
   -5.9628   -5.1788   -2.2960 C   0  0  0  0  0  0  0  0  0  0  0  0
   -5.3075   -6.2795   -2.9673 N   0  0  0  0  0  0  0  0  0  0  0  0
   -5.6296   -7.4995   -2.5919 C   0  0  0  0  0  0  0  0  0  0  0  0
   -5.0418   -8.6445   -3.1902 N   0  0  0  0  0  0  0  0  0  0  0  0
   -6.5804   -7.6998   -1.5491 N   0  0  0  0  0  0  0  0  0  0  0  0
   -9.8048   -0.7514    1.5914 C   0  0  0  0  0  0  0  0  0  0  0  0
  -10.6434   -1.0006    0.4356 C   0  0  0  0  0  0  0  0  0  0  0  0
  -11.4446   -0.0590   -0.1938 C   0  0  0  0  0  0  0  0  0  0  0  0
  -12.2529   -0.3927   -1.2779 C   0  0  0  0  0  0  0  0  0  0  0  0
  -12.2649   -1.7045   -1.7490 C   0  0  0  0  0  0  0  0  0  0  0  0
  -11.4729   -2.6607   -1.1330 C   0  0  0  0  0  0  0  0  0  0  0  0
  -10.6849   -2.3037   -0.0683 C   0  0  0  0  0  0  0  0  0  0  0  0
  -11.5046   -3.9524   -1.5902 C   0  0  0  0  0  0  0  0  0  0  0  0
  -12.2884   -4.3628   -2.6438 C   0  0  0  0  0  0  0  0  0  0  0  0
  -13.0973   -3.4150   -3.2853 C   0  0  0  0  0  0  0  0  0  0  0  0
  -13.0520   -2.1032   -2.8025 C   0  0  0  0  0  0  0  0  0  0  0  0
  -10.1478    3.8559    0.2827 C   0  0  0  0  0  0  0  0  0  0  0  0
  -11.2713    3.9120    1.2077 C   0  0  0  0  0  0  0  0  0  0  0  0
  -11.4283    3.8179    2.5231 N   0  0  0  0  0  0  0  0  0  0  0  0
  -12.7484    3.9001    2.8627 C   0  0  0  0  0  0  0  0  0  0  0  0
  -13.4545    4.0535    1.7132 N   0  0  0  0  0  0  0  0  0  0  0  0
  -12.5853    4.0638    0.7154 C   0  0  0  0  0  0  0  0  0  0  0  0
   14.4928    1.6634    3.0441 H   0  0  0  0  0  0  0  0  0  0  0  0
   14.5446    0.2060    3.9942 H   0  0  0  0  0  0  0  0  0  0  0  0
   14.3972   -1.0733    2.1907 H   0  0  0  0  0  0  0  0  0  0  0  0
   14.4854    0.4669    1.1489 H   0  0  0  0  0  0  0  0  0  0  0  0
   11.9581    0.6762    1.8516 H   0  0  0  0  0  0  0  0  0  0  0  0
   12.1766   -0.9111    2.5703 H   0  0  0  0  0  0  0  0  0  0  0  0
   12.8773   -1.9815    0.5928 H   0  0  0  0  0  0  0  0  0  0  0  0
   11.2305   -1.3937    0.4653 H   0  0  0  0  0  0  0  0  0  0  0  0
   13.8220   -0.5121   -0.8852 H   0  0  0  0  0  0  0  0  0  0  0  0
   12.3438   -1.1605   -1.6084 H   0  0  0  0  0  0  0  0  0  0  0  0
   12.4152    1.7140   -0.5221 H   0  0  0  0  0  0  0  0  0  0  0  0
   14.4947    0.8610   -3.7882 H   0  0  0  0  0  0  0  0  0  0  0  0
   14.3965    2.4683   -3.0977 H   0  0  0  0  0  0  0  0  0  0  0  0
   14.9277    1.6118   -0.8851 H   0  0  0  0  0  0  0  0  0  0  0  0
   16.8059    1.9449   -2.6255 H   0  0  0  0  0  0  0  0  0  0  0  0
   18.4526   -1.3271   -3.6504 H   0  0  0  0  0  0  0  0  0  0  0  0
   18.8004    0.4067   -3.6775 H   0  0  0  0  0  0  0  0  0  0  0  0
   18.4149    0.5165   -1.1511 H   0  0  0  0  0  0  0  0  0  0  0  0
   16.9748   -0.1298   -0.3630 H   0  0  0  0  0  0  0  0  0  0  0  0
   18.5023    2.5776    1.6741 H   0  0  0  0  0  0  0  0  0  0  0  0
   10.4237    0.6007   -2.3656 H   0  0  0  0  0  0  0  0  0  0  0  0
   10.0250    0.4972    0.5824 H   0  0  0  0  0  0  0  0  0  0  0  0
    9.7506    2.0627   -0.1175 H   0  0  0  0  0  0  0  0  0  0  0  0
    7.2042    1.5787    0.6178 H   0  0  0  0  0  0  0  0  0  0  0  0
    8.7305   -0.8162    1.1453 H   0  0  0  0  0  0  0  0  0  0  0  0
    7.4927   -0.2347    2.2285 H   0  0  0  0  0  0  0  0  0  0  0  0
    6.3472   -2.2081    1.5431 H   0  0  0  0  0  0  0  0  0  0  0  0
    7.5937   -2.5169    0.3116 H   0  0  0  0  0  0  0  0  0  0  0  0
    4.9628   -1.5820   -0.3321 H   0  0  0  0  0  0  0  0  0  0  0  0
    6.3960   -1.6193   -1.3484 H   0  0  0  0  0  0  0  0  0  0  0  0
    4.1149    0.4394   -0.8527 H   0  0  0  0  0  0  0  0  0  0  0  0
    5.0319    1.9163   -0.7607 H   0  0  0  0  0  0  0  0  0  0  0  0
    2.9631    1.9863    2.2665 H   0  0  0  0  0  0  0  0  0  0  0  0
    2.9528    0.4810    3.9406 H   0  0  0  0  0  0  0  0  0  0  0  0
    4.5644    0.0776    3.2845 H   0  0  0  0  0  0  0  0  0  0  0  0
    2.9490   -1.9764    3.4119 H   0  0  0  0  0  0  0  0  0  0  0  0
    3.7567   -1.6830    1.8475 H   0  0  0  0  0  0  0  0  0  0  0  0
    1.0681   -0.6600    2.7743 H   0  0  0  0  0  0  0  0  0  0  0  0
    1.4819   -1.7034    1.2889 H   0  0  0  0  0  0  0  0  0  0  0  0
    0.4012   -0.4183   -1.4755 H   0  0  0  0  0  0  0  0  0  0  0  0
   -1.1454    1.8167   -0.1406 H   0  0  0  0  0  0  0  0  0  0  0  0
   -1.7780    0.6628   -1.3333 H   0  0  0  0  0  0  0  0  0  0  0  0
   -0.1802    6.2830   -1.5330 H   0  0  0  0  0  0  0  0  0  0  0  0
   -1.1517    5.3549   -2.7048 H   0  0  0  0  0  0  0  0  0  0  0  0
   -1.4194    3.9742   -0.2654 H   0  0  0  0  0  0  0  0  0  0  0  0
   -2.5350    4.8667    2.0988 H   0  0  0  0  0  0  0  0  0  0  0  0
   -2.9193    6.6501    1.8874 H   0  0  0  0  0  0  0  0  0  0  0  0
   -1.4473    6.1053    2.7033 H   0  0  0  0  0  0  0  0  0  0  0  0
   -4.2372    5.2406    0.5399 H   0  0  0  0  0  0  0  0  0  0  0  0
   -5.2932    3.7631   -1.7842 H   0  0  0  0  0  0  0  0  0  0  0  0
   -6.9191    5.3529   -2.4479 H   0  0  0  0  0  0  0  0  0  0  0  0
   -5.2497    5.7085   -2.8795 H   0  0  0  0  0  0  0  0  0  0  0  0
   -5.0946    7.3317   -0.9748 H   0  0  0  0  0  0  0  0  0  0  0  0
   -6.3140    7.8049   -2.2064 H   0  0  0  0  0  0  0  0  0  0  0  0
   -9.1139    7.2966    0.1227 H   0  0  0  0  0  0  0  0  0  0  0  0
   -8.0084    3.2904   -1.2290 H   0  0  0  0  0  0  0  0  0  0  0  0
   -8.4895    4.2367    1.6086 H   0  0  0  0  0  0  0  0  0  0  0  0
   -8.1547    1.1993   -0.3529 H   0  0  0  0  0  0  0  0  0  0  0  0
   -8.0457    0.0244    2.3655 H   0  0  0  0  0  0  0  0  0  0  0  0
   -6.6617   -0.3802   -0.8780 H   0  0  0  0  0  0  0  0  0  0  0  0
   -6.3922   -3.3574   -0.2477 H   0  0  0  0  0  0  0  0  0  0  0  0
   -3.6013   -4.0334   -0.7474 H   0  0  0  0  0  0  0  0  0  0  0  0
   -1.7018   -3.6608    0.5203 H   0  0  0  0  0  0  0  0  0  0  0  0
   -0.6239   -0.7945    1.3205 H   0  0  0  0  0  0  0  0  0  0  0  0
   -3.2799   -1.5558    2.1006 H   0  0  0  0  0  0  0  0  0  0  0  0
   -1.6189   -2.0531    2.3824 H   0  0  0  0  0  0  0  0  0  0  0  0
   -5.2082   -3.5604    2.7256 H   0  0  0  0  0  0  0  0  0  0  0  0
   -4.9076   -5.8508    3.9222 H   0  0  0  0  0  0  0  0  0  0  0  0
   -0.1731   -3.8168    2.5201 H   0  0  0  0  0  0  0  0  0  0  0  0
    0.9991   -5.6961    3.4611 H   0  0  0  0  0  0  0  0  0  0  0  0
   -0.2388   -7.5611    4.5495 H   0  0  0  0  0  0  0  0  0  0  0  0
   -2.7365   -7.4994    4.6471 H   0  0  0  0  0  0  0  0  0  0  0  0
   -5.6751   -1.7877   -2.7994 H   0  0  0  0  0  0  0  0  0  0  0  0
   -7.2043   -2.7714   -2.5207 H   0  0  0  0  0  0  0  0  0  0  0  0
   -5.8101   -3.8986   -3.9679 H   0  0  0  0  0  0  0  0  0  0  0  0
   -4.3754   -3.8926   -2.9523 H   0  0  0  0  0  0  0  0  0  0  0  0
   -7.0595   -5.3090   -2.4046 H   0  0  0  0  0  0  0  0  0  0  0  0
   -5.6393   -5.2133   -1.2416 H   0  0  0  0  0  0  0  0  0  0  0  0
   -4.0887   -8.8987   -2.8619 H   0  0  0  0  0  0  0  0  0  0  0  0
   -5.5854   -9.1643   -3.9098 H   0  0  0  0  0  0  0  0  0  0  0  0
   -6.2219   -7.8039   -0.5676 H   0  0  0  0  0  0  0  0  0  0  0  0
   -7.6188   -7.7451   -1.7178 H   0  0  0  0  0  0  0  0  0  0  0  0
  -10.2663   -0.0515    2.2960 H   0  0  0  0  0  0  0  0  0  0  0  0
   -9.6438   -1.7241    2.1443 H   0  0  0  0  0  0  0  0  0  0  0  0
  -11.4572    0.9477    0.1410 H   0  0  0  0  0  0  0  0  0  0  0  0
  -12.8743    0.3590   -1.7428 H   0  0  0  0  0  0  0  0  0  0  0  0
  -10.0879   -3.1038    0.3762 H   0  0  0  0  0  0  0  0  0  0  0  0
  -10.8916   -4.7058   -1.1148 H   0  0  0  0  0  0  0  0  0  0  0  0
  -12.2790   -5.4070   -2.9654 H   0  0  0  0  0  0  0  0  0  0  0  0
  -13.7344   -3.6926   -4.1318 H   0  0  0  0  0  0  0  0  0  0  0  0
  -13.6690   -1.3354   -3.2807 H   0  0  0  0  0  0  0  0  0  0  0  0
  -10.1955    4.7819   -0.3365 H   0  0  0  0  0  0  0  0  0  0  0  0
  -10.4007    3.0145   -0.4545 H   0  0  0  0  0  0  0  0  0  0  0  0
  -10.7098    3.7205    3.2577 H   0  0  0  0  0  0  0  0  0  0  0  0
  -13.1868    3.8564    3.8538 H   0  0  0  0  0  0  0  0  0  0  0  0
  -12.8801    4.1768   -0.3261 H   0  0  0  0  0  0  0  0  0  0  0  0
  1  2  1  0
  2  3  1  0
  3  4  1  0
  4  5  1  0
  5  6  1  0
  6  7  1  0
  7  8  2  0
  7  9  1  0
  9 10  1  0
 10 11  1  0
 11 12  1  0
 12 13  2  0
 12 14  1  0
 11 15  1  0
 15 16  1  0
 16 17  2  0
 16 18  1  0
  6 19  1  0
 19 20  1  0
 20 21  1  0
 21 22  2  0
 21 23  1  0
 23 24  1  0
 24 25  1  0
 25 26  1  0
 26 27  1  0
 27 28  1  0
 28 29  1  0
 29 30  2  0
 29 31  1  0
 31 32  1  0
 32 33  1  0
 33 34  1  0
 34 35  1  0
 35 36  1  0
 36 37  2  0
 36 38  1  0
 38 39  1  0
 39 40  1  0
 40 41  1  0
 41 42  1  0
 42 43  1  0
 43 44  1  0
 44 45  2  0
 44 46  1  0
 43 47  1  0
 47 48  2  0
 47 49  1  0
 49 50  1  0
 50 51  1  0
 51 52  1  0
 52 53  1  0
 53 54  2  0
 53 55  1  0
 50 56  1  0
 56 57  2  0
 56 58  1  0
 58 59  1  0
 59 60  1  0
 60 61  2  0
 60 62  1  0
 62 63  1  0
 63 64  1  0
 64 65  2  0
 64 66  1  0
 66 67  1  0
 67 68  1  0
 68 69  2  0
 68 70  1  0
 70 71  1  0
 71 72  1  0
 72 73  2  0
 72 74  1  0
 71 75  1  0
 75 76  1  0
 76 77  2  0
 77 78  1  0
 78 79  1  0
 79 80  2  0
 80 81  1  0
 81 82  2  0
 82 83  1  0
 83 84  2  0
 67 85  1  0
 85 86  1  0
 86 87  1  0
 87 88  1  0
 88 89  2  3
 89 90  1  0
 89 91  1  0
 63 92  1  0
 92 93  1  0
 93 94  2  0
 94 95  1  0
 95 96  2  0
 96 97  1  0
 97 98  2  0
 97 99  1  0
 99100  2  0
100101  1  0
101102  2  0
 59103  1  0
103104  1  0
104105  1  0
105106  1  0
106107  2  0
107108  1  0
 27 23  1  0
 35 31  1  0
 74 38  1  0
 80 76  1  0
 98 93  1  0
108104  2  0
 84 79  1  0
102 96  1  0
  1109  1  0
  1110  1  0
  2111  1  0
  2112  1  0
  3113  1  0
  3114  1  0
  4115  1  0
  4116  1  0
  5117  1  0
  5118  1  0
  6119  1  1
  9120  1  0
  9121  1  0
 10122  1  0
 11123  1  6
 14124  1  0
 14125  1  0
 15126  1  0
 15127  1  0
 18128  1  0
 19129  1  0
 20130  1  0
 20131  1  0
 23132  1  1
 24133  1  0
 24134  1  0
 25135  1  0
 25136  1  0
 26137  1  0
 26138  1  0
 28139  1  0
 28140  1  0
 31141  1  1
 32142  1  0
 32143  1  0
 33144  1  0
 33145  1  0
 34146  1  0
 34147  1  0
 38148  1  6
 39149  1  0
 39150  1  0
 42151  1  0
 42152  1  0
 43153  1  1
 46154  1  0
 46155  1  0
 46156  1  0
 49157  1  0
 50158  1  6
 51159  1  0
 51160  1  0
 52161  1  0
 52162  1  0
 55163  1  0
 58164  1  0
 59165  1  1
 62166  1  0
 63167  1  1
 66168  1  0
 67169  1  1
 70170  1  0
 71171  1  1
 74172  1  0
 75173  1  0
 75174  1  0
 77175  1  0
 78176  1  0
 81177  1  0
 82178  1  0
 83179  1  0
 84180  1  0
 85181  1  0
 85182  1  0
 86183  1  0
 86184  1  0
 87185  1  0
 87186  1  0
 90187  1  0
 90188  1  0
 91189  1  0
 91190  1  0
 92191  1  0
 92192  1  0
 94193  1  0
 95194  1  0
 98195  1  0
 99196  1  0
100197  1  0
101198  1  0
102199  1  0
103200  1  0
103201  1  0
105202  1  0
106203  1  0
108204  1  0
M  END
>  <Ligand ID>  (1) 
LIG0003268

>  <Ligand>  (1) 
CHEMBL2111807

>  <SMILES>  (1) 
NCCCC[C@@H](C(=O)CN[C@H](C(=O)N)CC(=O)O)NCC(=O)[C@@H]1CCCN1CC(=O)[C@@H]1CCCN1C(=O)[C@@H]1CSSC[C@@H](C(=O)C)C(=O)N[C@H](CCC(=O)O)C(=O)N[C@H](C(=O)N[C@H](C(=O)N[C@H](C(=O)N[C@@H](C(=O)N1)Cc1c[nH]c2c1cccc2)CCCN=C(N)N)Cc1ccc2c(c1)cccc2)Cc1[nH]cnc1

>  <CID>  (1) 
71449047.0

>  <ChEMBL ID>  (1) 
nan

>  <InChiKey>  (1) 
TUEXZDIGHDGDGO-RAZSUPJJSA-N

>  <InChi>  (1) 
InChI=1S/C72H96N18O16S2/c1-40(91)47-37-107-108-38-56(71(106)90-26-10-18-58(90)61(94)36-89-25-9-17-57(89)60(93)35-80-49(15-6-7-23-73)59(92)34-81-52(64(74)99)31-63(97)98)88-69(104)54(29-44-32-79-48-14-5-4-13-46(44)48)86-66(101)50(16-8-24-78-72(75)76)84-68(103)53(28-41-19-20-42-11-2-3-12-43(42)27-41)85-70(105)55(30-45-33-77-39-82-45)87-67(102)51(83-65(47)100)21-22-62(95)96/h2-5,11-14,19-20,27,32-33,39,47,49-58,79-81H,6-10,15-18,21-26,28-31,34-38,73H2,1H3,(H2,74,99)(H,77,82)(H,83,100)(H,84,103)(H,85,105)(H,86,101)(H,87,102)(H,88,104)(H,95,96)(H,97,98)(H4,75,76,78)/t47-,49-,50-,51+,52-,53-,54+,55-,56-,57-,58-/m0/s1

>  <IUPAC Name>  (1) 
(3S)-3-[[(3S)-3-[[2-[(2S)-1-[2-[(2S)-1-[(4R,7R,10S,13S,16S,19R,22S)-22-acetyl-19-(2-carboxyethyl)-10-[3-(diaminomethylideneamino)propyl]-16-(1H-imidazol-5-ylmethyl)-7-(1H-indol-3-ylmethyl)-13-(naphthalen-2-ylmethyl)-6,9,12,15,18,21-hexaoxo-1,2-dithia-5,8,11,14,17,20-hexazacyclotricosane-4-carbonyl]pyrrolidin-2-yl]-2-oxoethyl]pyrrolidin-2-yl]-2-oxoethyl]amino]-7-amino-2-oxoheptyl]amino]-4-amino-4-oxobutanoic acid

$$$$
