
     RDKit          3D

107110  0  0  0  0  0  0  0  0999 V2000
    2.1623   -0.5075    0.7345 O   0  0  0  0  0  0  0  0  0  0  0  0
    1.7336   -1.6533    1.0236 C   0  0  0  0  0  0  0  0  0  0  0  0
    2.5653   -2.5408    1.8755 C   0  0  0  0  0  0  0  0  0  0  0  0
    3.8865   -1.9539    2.2494 C   0  0  0  0  0  0  0  0  0  0  0  0
    4.7167   -1.6493    1.0402 C   0  0  0  0  0  0  0  0  0  0  0  0
    4.2274   -1.8896   -0.1172 O   0  0  0  0  0  0  0  0  0  0  0  0
    6.0213   -1.1063    1.1193 N   0  0  0  0  0  0  0  0  0  0  0  0
    6.8331   -0.8041    0.0039 C   0  0  0  0  0  0  0  0  0  0  0  0
    7.4623    0.5136   -0.1214 C   0  0  0  0  0  0  0  0  0  0  0  0
    8.7531    0.5335    0.6397 C   0  0  0  0  0  0  0  0  0  0  0  0
    9.7565   -0.1675   -0.0829 N   0  0  0  0  0  0  0  0  0  0  0  0
    9.1729   -1.3220   -0.7151 C   0  0  0  0  0  0  0  0  0  0  0  0
    7.9673   -1.8444    0.0288 C   0  0  0  0  0  0  0  0  0  0  0  0
   10.5082    0.5485   -1.0439 C   0  0  0  0  0  0  0  0  0  0  0  0
   11.4445    1.5923   -0.5631 C   0  0  0  0  0  0  0  0  0  0  0  0
   12.4361    0.9368    0.3313 C   0  0  0  0  0  0  0  0  0  0  0  0
   13.6280    0.4118   -0.1706 C   0  0  0  0  0  0  0  0  0  0  0  0
   14.5605   -0.2005    0.6389 C   0  0  0  0  0  0  0  0  0  0  0  0
   14.3127   -0.3002    1.9894 C   0  0  0  0  0  0  0  0  0  0  0  0
   13.1466    0.2076    2.5156 C   0  0  0  0  0  0  0  0  0  0  0  0
   12.2251    0.8169    1.6900 C   0  0  0  0  0  0  0  0  0  0  0  0
    0.4847   -2.1659    0.5815 N   0  0  0  0  0  0  0  0  0  0  0  0
   -0.4033   -1.4478   -0.2260 N   0  0  0  0  0  0  0  0  0  0  0  0
   -1.4358   -0.6289    0.2332 C   0  0  0  0  0  0  0  0  0  0  0  0
   -1.5798   -0.5405    1.5036 O   0  0  0  0  0  0  0  0  0  0  0  0
   -2.3802    0.1428   -0.5818 C   0  0  2  0  0  0  0  0  0  0  0  0
   -1.7791    1.3495   -1.2717 C   0  0  0  0  0  0  0  0  0  0  0  0
   -0.6812    0.9940   -2.1844 C   0  0  0  0  0  0  0  0  0  0  0  0
   -0.9895    0.6199   -3.4887 C   0  0  0  0  0  0  0  0  0  0  0  0
    0.0674    0.3134   -4.3500 C   0  0  0  0  0  0  0  0  0  0  0  0
    1.3861    0.3814   -3.9126 C   0  0  0  0  0  0  0  0  0  0  0  0
    1.6772    0.7548   -2.6130 C   0  0  0  0  0  0  0  0  0  0  0  0
    0.6480    1.0607   -1.7497 C   0  0  0  0  0  0  0  0  0  0  0  0
   -3.4481    0.7103    0.2840 N   0  0  0  0  0  0  0  0  0  0  0  0
   -4.8080    0.4636   -0.0613 C   0  0  0  0  0  0  0  0  0  0  0  0
   -4.9893   -0.2351   -1.1077 O   0  0  0  0  0  0  0  0  0  0  0  0
   -5.9309    0.9930    0.7532 C   0  0  0  0  0  0  0  0  0  0  0  0
   -7.1695    0.5876    0.1164 N   0  0  0  0  0  0  0  0  0  0  0  0
   -7.3860    1.0635   -1.2113 C   0  0  0  0  0  0  0  0  0  0  0  0
   -6.4922    1.8030   -1.7371 O   0  0  0  0  0  0  0  0  0  0  0  0
   -8.5707    0.7629   -2.0226 C   0  0  2  0  0  0  0  0  0  0  0  0
   -9.5268   -0.1029   -1.3649 N   0  0  0  0  0  0  0  0  0  0  0  0
  -10.8745    0.3880   -1.2457 C   0  0  0  0  0  0  0  0  0  0  0  0
  -11.2060    1.5270   -1.6945 O   0  0  0  0  0  0  0  0  0  0  0  0
  -11.9436   -0.4022   -0.5980 C   0  0  2  0  0  0  0  0  0  0  0  0
  -12.5040    0.3359    0.5822 C   0  0  0  0  0  0  0  0  0  0  0  0
  -11.4767    0.6141    1.6149 C   0  0  0  0  0  0  0  0  0  0  0  0
  -10.7076    1.7474    1.6436 C   0  0  0  0  0  0  0  0  0  0  0  0
   -9.7751    1.9200    2.6465 C   0  0  0  0  0  0  0  0  0  0  0  0
   -9.6176    0.9581    3.6145 C   0  0  0  0  0  0  0  0  0  0  0  0
  -10.3750   -0.2003    3.6205 C   0  0  0  0  0  0  0  0  0  0  0  0
  -11.3003   -0.3482    2.6064 C   0  0  0  0  0  0  0  0  0  0  0  0
   -8.6909    1.0992    4.6357 O   0  0  0  0  0  0  0  0  0  0  0  0
  -11.4378   -1.6817   -0.1215 N   0  0  0  0  0  0  0  0  0  0  0  0
   -8.2093    0.1082   -3.3512 C   0  0  0  0  0  0  0  0  0  0  0  0
    2.0441   -2.8166    2.8159 H   0  0  0  0  0  0  0  0  0  0  0  0
    2.7799   -3.4824    1.3127 H   0  0  0  0  0  0  0  0  0  0  0  0
    3.7784   -1.0981    2.9162 H   0  0  0  0  0  0  0  0  0  0  0  0
    4.4404   -2.7561    2.8041 H   0  0  0  0  0  0  0  0  0  0  0  0
    6.3941   -0.9219    2.0912 H   0  0  0  0  0  0  0  0  0  0  0  0
    6.2149   -1.0102   -0.9204 H   0  0  0  0  0  0  0  0  0  0  0  0
    6.8145    1.3861    0.0807 H   0  0  0  0  0  0  0  0  0  0  0  0
    7.7349    0.6507   -1.2124 H   0  0  0  0  0  0  0  0  0  0  0  0
    8.5814   -0.0669    1.5827 H   0  0  0  0  0  0  0  0  0  0  0  0
    9.0329    1.5391    1.0044 H   0  0  0  0  0  0  0  0  0  0  0  0
    9.9113   -2.1193   -0.7707 H   0  0  0  0  0  0  0  0  0  0  0  0
    8.8593   -1.0696   -1.7695 H   0  0  0  0  0  0  0  0  0  0  0  0
    8.2431   -2.1472    1.0387 H   0  0  0  0  0  0  0  0  0  0  0  0
    7.6018   -2.7275   -0.4957 H   0  0  0  0  0  0  0  0  0  0  0  0
   11.1162   -0.2088   -1.6131 H   0  0  0  0  0  0  0  0  0  0  0  0
    9.8677    1.0139   -1.8461 H   0  0  0  0  0  0  0  0  0  0  0  0
   12.0351    1.9180   -1.4719 H   0  0  0  0  0  0  0  0  0  0  0  0
   11.0130    2.5120   -0.1782 H   0  0  0  0  0  0  0  0  0  0  0  0
   13.8531    0.4742   -1.2286 H   0  0  0  0  0  0  0  0  0  0  0  0
   15.4910   -0.6101    0.2475 H   0  0  0  0  0  0  0  0  0  0  0  0
   15.0493   -0.7790    2.6007 H   0  0  0  0  0  0  0  0  0  0  0  0
   12.9999    0.1015    3.5939 H   0  0  0  0  0  0  0  0  0  0  0  0
   11.3268    1.2011    2.1368 H   0  0  0  0  0  0  0  0  0  0  0  0
    0.1862   -3.1293    0.8599 H   0  0  0  0  0  0  0  0  0  0  0  0
   -0.2749   -1.5582   -1.2562 H   0  0  0  0  0  0  0  0  0  0  0  0
   -2.8142   -0.5104   -1.3542 H   0  0  0  0  0  0  0  0  0  0  0  0
   -2.5604    1.8358   -1.8956 H   0  0  0  0  0  0  0  0  0  0  0  0
   -1.4840    2.1356   -0.5361 H   0  0  0  0  0  0  0  0  0  0  0  0
   -2.0286    0.5665   -3.8321 H   0  0  0  0  0  0  0  0  0  0  0  0
   -0.1684    0.0266   -5.3497 H   0  0  0  0  0  0  0  0  0  0  0  0
    2.1789    0.1292   -4.6344 H   0  0  0  0  0  0  0  0  0  0  0  0
    2.6908    0.8063   -2.2796 H   0  0  0  0  0  0  0  0  0  0  0  0
    0.7836    1.3610   -0.7240 H   0  0  0  0  0  0  0  0  0  0  0  0
   -3.1868    1.2729    1.1204 H   0  0  0  0  0  0  0  0  0  0  0  0
   -5.9212    0.5014    1.7483 H   0  0  0  0  0  0  0  0  0  0  0  0
   -5.9024    2.1029    0.8524 H   0  0  0  0  0  0  0  0  0  0  0  0
   -7.8896   -0.0158    0.5656 H   0  0  0  0  0  0  0  0  0  0  0  0
   -9.0999    1.7242   -2.3136 H   0  0  0  0  0  0  0  0  0  0  0  0
   -9.2712   -1.0253   -0.9962 H   0  0  0  0  0  0  0  0  0  0  0  0
  -12.7571   -0.6508   -1.3100 H   0  0  0  0  0  0  0  0  0  0  0  0
  -12.9284    1.3208    0.2684 H   0  0  0  0  0  0  0  0  0  0  0  0
  -13.3473   -0.2454    1.0261 H   0  0  0  0  0  0  0  0  0  0  0  0
  -10.8554    2.4887    0.8651 H   0  0  0  0  0  0  0  0  0  0  0  0
   -9.1740    2.8200    2.6568 H   0  0  0  0  0  0  0  0  0  0  0  0
  -10.2576   -0.9651    4.3811 H   0  0  0  0  0  0  0  0  0  0  0  0
  -11.9054   -1.2450    2.5883 H   0  0  0  0  0  0  0  0  0  0  0  0
   -8.9199    0.9887    5.6150 H   0  0  0  0  0  0  0  0  0  0  0  0
  -10.6117   -1.5255    0.4758 H   0  0  0  0  0  0  0  0  0  0  0  0
  -11.3292   -2.3793   -0.8694 H   0  0  0  0  0  0  0  0  0  0  0  0
   -7.7878   -0.8923   -3.2144 H   0  0  0  0  0  0  0  0  0  0  0  0
   -9.1543    0.0013   -3.9297 H   0  0  0  0  0  0  0  0  0  0  0  0
   -7.4874    0.8039   -3.8549 H   0  0  0  0  0  0  0  0  0  0  0  0
  1  2  2  0
  2  3  1  0
  3  4  1  0
  4  5  1  0
  5  6  2  0
  5  7  1  0
  7  8  1  0
  8  9  1  0
  9 10  1  0
 10 11  1  0
 11 12  1  0
 12 13  1  0
 11 14  1  0
 14 15  1  0
 15 16  1  0
 16 17  2  0
 17 18  1  0
 18 19  2  0
 19 20  1  0
 20 21  2  0
  2 22  1  0
 22 23  1  0
 23 24  1  0
 24 25  2  0
 24 26  1  0
 26 27  1  0
 27 28  1  0
 28 29  2  0
 29 30  1  0
 30 31  2  0
 31 32  1  0
 32 33  2  0
 26 34  1  0
 34 35  1  0
 35 36  2  0
 35 37  1  0
 37 38  1  0
 38 39  1  0
 39 40  2  0
 39 41  1  0
 41 42  1  0
 42 43  1  0
 43 44  2  0
 43 45  1  0
 45 46  1  0
 46 47  1  0
 47 48  2  0
 48 49  1  0
 49 50  2  0
 50 51  1  0
 51 52  2  0
 50 53  1  0
 45 54  1  0
 41 55  1  0
 13  8  1  0
 21 16  1  0
 33 28  1  0
 52 47  1  0
  3 56  1  0
  3 57  1  0
  4 58  1  0
  4 59  1  0
  7 60  1  0
  8 61  1  0
  9 62  1  0
  9 63  1  0
 10 64  1  0
 10 65  1  0
 12 66  1  0
 12 67  1  0
 13 68  1  0
 13 69  1  0
 14 70  1  0
 14 71  1  0
 15 72  1  0
 15 73  1  0
 17 74  1  0
 18 75  1  0
 19 76  1  0
 20 77  1  0
 21 78  1  0
 22 79  1  0
 23 80  1  0
 26 81  1  6
 27 82  1  0
 27 83  1  0
 29 84  1  0
 30 85  1  0
 31 86  1  0
 32 87  1  0
 33 88  1  0
 34 89  1  0
 37 90  1  0
 37 91  1  0
 38 92  1  0
 41 93  1  6
 42 94  1  0
 45 95  1  6
 46 96  1  0
 46 97  1  0
 48 98  1  0
 49 99  1  0
 51100  1  0
 52101  1  0
 53102  1  0
 54103  1  0
 54104  1  0
 55105  1  0
 55106  1  0
 55107  1  0
M  END
>  <Ligand ID>  (1) 
LIG0005399

>  <Ligand>  (1) 
4-anilidopiperidine, 11

>  <SMILES>  (1) 
O=C(CCC(=O)NC1CCN(CC1)CCc1ccccc1)NNC(=O)[C@H](Cc1ccccc1)NC(=O)CNC(=O)[C@H](NC(=O)[C@H](Cc1ccc(cc1)O)N)C

>  <CID>  (1) 
23634920.0

>  <ChEMBL ID>  (1) 
nan

>  <InChiKey>  (1) 
DSXQNAAVJJDPAE-KUSJRIKGSA-N

>  <InChi>  (1) 
InChI=1S/C40H52N8O7/c1-27(43-39(54)33(41)24-30-12-14-32(49)15-13-30)38(53)42-26-37(52)45-34(25-29-10-6-3-7-11-29)40(55)47-46-36(51)17-16-35(50)44-31-19-22-48(23-20-31)21-18-28-8-4-2-5-9-28/h2-15,27,31,33-34,49H,16-26,41H2,1H3,(H,42,53)(H,43,54)(H,44,50)(H,45,52)(H,46,51)(H,47,55)/t27-,33+,34+/m1/s1

>  <IUPAC Name>  (1) 
4-[2-[(2S)-2-[[2-[[(2R)-2-[[(2S)-2-amino-3-(4-hydroxyphenyl)propanoyl]amino]propanoyl]amino]acetyl]amino]-3-phenylpropanoyl]hydrazinyl]-4-oxo-N-[1-(2-phenylethyl)piperidin-4-yl]butanamide

$$$$
