
     RDKit          3D

 83 85  0  0  0  0  0  0  0  0999 V2000
   -2.8754    6.8098   -0.1066 N   0  0  0  0  0  0  0  0  0  0  0  0
   -1.9130    5.7643   -0.1315 C   0  0  0  0  0  0  0  0  0  0  0  0
   -2.2961    4.5678   -0.5049 N   0  0  0  0  0  0  0  0  0  0  0  0
   -1.3680    3.4664   -0.5512 C   0  0  0  0  0  0  0  0  0  0  0  0
   -1.7747    2.4696   -1.6263 C   0  0  0  0  0  0  0  0  0  0  0  0
   -0.8394    1.3119   -1.7004 C   0  0  0  0  0  0  0  0  0  0  0  0
   -0.7551    0.5252   -0.4453 C   0  0  1  0  0  0  0  0  0  0  0  0
   -2.0175   -0.0713   -0.0497 C   0  0  0  0  0  0  0  0  0  0  0  0
   -2.1081   -1.3483   -0.1794 O   0  0  0  0  0  0  0  0  0  0  0  0
   -3.1690    0.5571    0.4653 N   0  0  0  0  0  0  0  0  0  0  0  0
   -4.3359   -0.2639    0.7819 C   0  0  2  0  0  0  0  0  0  0  0  0
   -4.0415   -1.3053    1.7918 C   0  0  0  0  0  0  0  0  0  0  0  0
   -5.0068   -2.0729    2.1204 O   0  0  0  0  0  0  0  0  0  0  0  0
   -2.7723   -1.4898    2.3992 N   0  0  0  0  0  0  0  0  0  0  0  0
   -4.9524   -0.8500   -0.4700 C   0  0  0  0  0  0  0  0  0  0  0  0
   -6.1428   -1.6896   -0.1671 C   0  0  0  0  0  0  0  0  0  0  0  0
   -6.2091   -3.0838   -0.1527 C   0  0  0  0  0  0  0  0  0  0  0  0
   -7.4669   -3.4453    0.1687 N   0  0  0  0  0  0  0  0  0  0  0  0
   -8.2396   -2.3773    0.3687 C   0  0  0  0  0  0  0  0  0  0  0  0
   -7.4141   -1.2729    0.1595 C   0  0  0  0  0  0  0  0  0  0  0  0
   -7.9182    0.0047    0.2903 C   0  0  0  0  0  0  0  0  0  0  0  0
   -9.2290    0.1989    0.6256 C   0  0  0  0  0  0  0  0  0  0  0  0
  -10.0690   -0.8696    0.8386 C   0  0  0  0  0  0  0  0  0  0  0  0
   -9.5503   -2.1383    0.7039 C   0  0  0  0  0  0  0  0  0  0  0  0
    0.2189   -0.5846   -0.6491 N   0  0  0  0  0  0  0  0  0  0  0  0
    1.4630   -0.5365    0.0096 C   0  0  0  0  0  0  0  0  0  0  0  0
    1.8281    0.3929    0.7774 O   0  0  0  0  0  0  0  0  0  0  0  0
    2.4150   -1.6458   -0.2084 C   0  0  1  0  0  0  0  0  0  0  0  0
    3.6745   -1.4457    0.4888 N   0  0  0  0  0  0  0  0  0  0  0  0
    4.8558   -1.5034   -0.3066 C   0  0  0  0  0  0  0  0  0  0  0  0
    4.8031   -1.7214   -1.5605 O   0  0  0  0  0  0  0  0  0  0  0  0
    6.2212   -1.3174    0.2520 C   0  0  2  0  0  0  0  0  0  0  0  0
    6.2892    0.1348    0.7446 C   0  0  0  0  0  0  0  0  0  0  0  0
    7.6093    0.4611    1.3294 C   0  0  0  0  0  0  0  0  0  0  0  0
    8.6604    0.9588    0.6171 N   0  0  0  0  0  0  0  0  0  0  0  0
    9.6665    1.1218    1.4916 C   0  0  0  0  0  0  0  0  0  0  0  0
    9.2632    0.7418    2.7050 N   0  0  0  0  0  0  0  0  0  0  0  0
    7.9808    0.3233    2.6381 C   0  0  0  0  0  0  0  0  0  0  0  0
    7.1279   -1.4685   -0.8950 N   0  0  0  0  0  0  0  0  0  0  0  0
    8.1536   -2.4499   -0.8432 C   0  0  0  0  0  0  0  0  0  0  0  0
    8.2322   -3.1592    0.2173 O   0  0  0  0  0  0  0  0  0  0  0  0
    9.1194   -2.6844   -1.9438 C   0  0  0  0  0  0  0  0  0  0  0  0
    1.8543   -2.9610    0.3042 C   0  0  0  0  0  0  0  0  0  0  0  0
   -0.5365    5.9786    0.2395 N   0  0  0  0  0  0  0  0  0  0  0  0
   -2.8442    7.5224    0.6800 H   0  0  0  0  0  0  0  0  0  0  0  0
   -3.6245    6.9032   -0.8482 H   0  0  0  0  0  0  0  0  0  0  0  0
   -1.2918    2.9279    0.3996 H   0  0  0  0  0  0  0  0  0  0  0  0
   -0.3403    3.8128   -0.8311 H   0  0  0  0  0  0  0  0  0  0  0  0
   -2.8408    2.2254   -1.4925 H   0  0  0  0  0  0  0  0  0  0  0  0
   -1.7764    3.0397   -2.6152 H   0  0  0  0  0  0  0  0  0  0  0  0
    0.1468    1.7095   -2.0395 H   0  0  0  0  0  0  0  0  0  0  0  0
   -1.2629    0.6191   -2.4923 H   0  0  0  0  0  0  0  0  0  0  0  0
   -0.3002    1.1632    0.3304 H   0  0  0  0  0  0  0  0  0  0  0  0
   -3.1793    1.5693    0.6360 H   0  0  0  0  0  0  0  0  0  0  0  0
   -5.1003    0.4491    1.2108 H   0  0  0  0  0  0  0  0  0  0  0  0
   -2.3829   -2.4261    2.6490 H   0  0  0  0  0  0  0  0  0  0  0  0
   -2.1953   -0.6602    2.6096 H   0  0  0  0  0  0  0  0  0  0  0  0
   -4.2418   -1.4334   -1.0842 H   0  0  0  0  0  0  0  0  0  0  0  0
   -5.2628   -0.0015   -1.1511 H   0  0  0  0  0  0  0  0  0  0  0  0
   -5.3514   -3.7166   -0.3729 H   0  0  0  0  0  0  0  0  0  0  0  0
   -7.7795   -4.4354    0.2477 H   0  0  0  0  0  0  0  0  0  0  0  0
   -7.2691    0.8524    0.1259 H   0  0  0  0  0  0  0  0  0  0  0  0
   -9.6738    1.1886    0.7402 H   0  0  0  0  0  0  0  0  0  0  0  0
  -11.1144   -0.7647    1.1061 H   0  0  0  0  0  0  0  0  0  0  0  0
  -10.1994   -2.9827    0.8683 H   0  0  0  0  0  0  0  0  0  0  0  0
   -0.0246   -1.3845   -1.2732 H   0  0  0  0  0  0  0  0  0  0  0  0
    2.6245   -1.7957   -1.2809 H   0  0  0  0  0  0  0  0  0  0  0  0
    3.7475   -1.2678    1.5118 H   0  0  0  0  0  0  0  0  0  0  0  0
    6.5021   -2.0372    1.0208 H   0  0  0  0  0  0  0  0  0  0  0  0
    6.0885    0.7929   -0.1358 H   0  0  0  0  0  0  0  0  0  0  0  0
    5.5236    0.2824    1.5155 H   0  0  0  0  0  0  0  0  0  0  0  0
    8.6995    1.1751   -0.3951 H   0  0  0  0  0  0  0  0  0  0  0  0
   10.6618    1.5003    1.2789 H   0  0  0  0  0  0  0  0  0  0  0  0
    7.4127   -0.0371    3.4727 H   0  0  0  0  0  0  0  0  0  0  0  0
    7.0458   -0.8791   -1.7502 H   0  0  0  0  0  0  0  0  0  0  0  0
    9.3552   -3.7759   -1.9662 H   0  0  0  0  0  0  0  0  0  0  0  0
    8.6952   -2.3915   -2.9368 H   0  0  0  0  0  0  0  0  0  0  0  0
   10.0076   -2.0554   -1.7682 H   0  0  0  0  0  0  0  0  0  0  0  0
    1.0023   -3.2288   -0.3391 H   0  0  0  0  0  0  0  0  0  0  0  0
    2.6165   -3.7375    0.2327 H   0  0  0  0  0  0  0  0  0  0  0  0
    1.5739   -2.8673    1.3743 H   0  0  0  0  0  0  0  0  0  0  0  0
    0.0753    6.5014   -0.4156 H   0  0  0  0  0  0  0  0  0  0  0  0
   -0.1586    5.6109    1.1572 H   0  0  0  0  0  0  0  0  0  0  0  0
  1  2  1  0
  2  3  2  3
  3  4  1  0
  4  5  1  0
  5  6  1  0
  6  7  1  0
  7  8  1  0
  8  9  2  0
  8 10  1  0
 10 11  1  0
 11 12  1  0
 12 13  2  0
 12 14  1  0
 11 15  1  0
 15 16  1  0
 16 17  2  0
 17 18  1  0
 18 19  1  0
 19 20  2  0
 20 21  1  0
 21 22  2  0
 22 23  1  0
 23 24  2  0
  7 25  1  0
 25 26  1  0
 26 27  2  0
 26 28  1  0
 28 29  1  0
 29 30  1  0
 30 31  2  0
 30 32  1  0
 32 33  1  0
 33 34  1  0
 34 35  1  0
 35 36  1  0
 36 37  2  0
 37 38  1  0
 32 39  1  0
 39 40  1  0
 40 41  2  0
 40 42  1  0
 28 43  1  0
  2 44  1  0
 20 16  1  0
 38 34  2  0
 24 19  1  0
  1 45  1  0
  1 46  1  0
  4 47  1  0
  4 48  1  0
  5 49  1  0
  5 50  1  0
  6 51  1  0
  6 52  1  0
  7 53  1  1
 10 54  1  0
 11 55  1  1
 14 56  1  0
 14 57  1  0
 15 58  1  0
 15 59  1  0
 17 60  1  0
 18 61  1  0
 21 62  1  0
 22 63  1  0
 23 64  1  0
 24 65  1  0
 25 66  1  0
 28 67  1  6
 29 68  1  0
 32 69  1  1
 33 70  1  0
 33 71  1  0
 35 72  1  0
 36 73  1  0
 38 74  1  0
 39 75  1  0
 42 76  1  0
 42 77  1  0
 42 78  1  0
 43 79  1  0
 43 80  1  0
 43 81  1  0
 44 82  1  0
 44 83  1  0
M  END
>  <Ligand ID>  (1) 
LIG0001091

>  <Ligand>  (1) 
CHEMBL317210

>  <SMILES>  (1) 
NC(=NCCC[C@@H](C(=O)N[C@H](C(=O)N)Cc1c[nH]c2c1cccc2)NC(=O)[C@@H](NC(=O)[C@H](Cc1[nH]cnc1)NC(=O)C)C)N

>  <CID>  (1) 
10984921.0

>  <ChEMBL ID>  (1) 
nan

>  <InChiKey>  (1) 
POSGXQYVXRDBTO-OBAATPRFSA-N

>  <InChi>  (1) 
InChI=1S/C28H39N11O5/c1-15(36-27(44)23(37-16(2)40)11-18-13-32-14-35-18)25(42)38-21(8-5-9-33-28(30)31)26(43)39-22(24(29)41)10-17-12-34-20-7-4-3-6-19(17)20/h3-4,6-7,12-15,21-23,34H,5,8-11H2,1-2H3,(H2,29,41)(H,32,35)(H,36,44)(H,37,40)(H,38,42)(H,39,43)(H4,30,31,33)/t15-,21-,22-,23-/m0/s1

>  <IUPAC Name>  (1) 
(2S)-2-[[(2S)-2-[[(2S)-2-acetamido-3-(1H-imidazol-5-yl)propanoyl]amino]propanoyl]amino]-N-[(2S)-1-amino-3-(1H-indol-3-yl)-1-oxopropan-2-yl]-5-(diaminomethylideneamino)pentanamide

$$$$
