
     RDKit          3D

 45 45  0  0  0  0  0  0  0  0999 V2000
    3.4189   -2.4374   -1.7756 C   0  0  0  0  0  0  0  0  0  0  0  0
    3.8652   -1.5779   -0.7432 O   0  0  0  0  0  0  0  0  0  0  0  0
    2.9919   -0.6680   -0.1538 C   0  0  0  0  0  0  0  0  0  0  0  0
    1.6880   -0.6217   -0.5951 C   0  0  0  0  0  0  0  0  0  0  0  0
    0.7654    0.2533   -0.0594 C   0  0  0  0  0  0  0  0  0  0  0  0
    1.2128    1.0846    0.9468 C   0  0  0  0  0  0  0  0  0  0  0  0
    2.5391    1.0366    1.3964 C   0  0  0  0  0  0  0  0  0  0  0  0
    3.4630    0.1705    0.8668 C   0  0  0  0  0  0  0  0  0  0  0  0
    4.7630    0.0365    1.2237 O   0  0  0  0  0  0  0  0  0  0  0  0
    5.8562    0.5636    0.5999 C   0  0  0  0  0  0  0  0  0  0  0  0
    6.0262    1.9921    0.3971 C   0  0  0  0  0  0  0  0  0  0  0  0
    7.1283    2.3502   -0.1664 O   0  0  0  0  0  0  0  0  0  0  0  0
    5.1852    3.0191    0.7157 O   0  0  0  0  0  0  0  0  0  0  0  0
    2.9275    2.0959    2.7324 Cl  0  0  0  0  0  0  0  0  0  0  0  0
   -0.6137    0.2510   -0.5796 C   0  0  0  0  0  0  0  0  0  0  0  0
   -1.6050   -1.1232    0.0623 P   0  0  0  0  0  0  0  0  0  0  0  0
   -1.0652   -2.3980   -0.5479 O   0  0  0  0  0  0  0  0  0  0  0  0
   -3.3346   -0.8612   -0.3817 C   0  0  0  0  0  0  0  0  0  0  0  0
   -3.9960   -0.1092    0.7531 C   0  0  0  0  0  0  0  0  0  0  0  0
   -5.4451    0.1705    0.5017 C   0  0  1  0  0  0  0  0  0  0  0  0
   -5.5319    0.9921   -0.7319 C   0  0  0  0  0  0  0  0  0  0  0  0
   -6.1730    0.6445   -1.7502 O   0  0  0  0  0  0  0  0  0  0  0  0
   -4.8579    2.2074   -0.7337 O   0  0  0  0  0  0  0  0  0  0  0  0
   -6.1752   -1.0604    0.3956 N   0  0  0  0  0  0  0  0  0  0  0  0
   -1.5119   -1.1954    1.7587 O   0  0  0  0  0  0  0  0  0  0  0  0
   -0.6515    0.2134   -1.9569 O   0  0  0  0  0  0  0  0  0  0  0  0
    2.5183   -2.9710   -1.3757 H   0  0  0  0  0  0  0  0  0  0  0  0
    4.1877   -3.2251   -1.8962 H   0  0  0  0  0  0  0  0  0  0  0  0
    3.1790   -1.9017   -2.7163 H   0  0  0  0  0  0  0  0  0  0  0  0
    1.3755   -1.2803   -1.3754 H   0  0  0  0  0  0  0  0  0  0  0  0
    0.5018    1.7799    1.3810 H   0  0  0  0  0  0  0  0  0  0  0  0
    6.7649    0.1526    1.1536 H   0  0  0  0  0  0  0  0  0  0  0  0
    5.9964    0.1078   -0.4512 H   0  0  0  0  0  0  0  0  0  0  0  0
    5.1926    3.8553    0.1481 H   0  0  0  0  0  0  0  0  0  0  0  0
   -1.1625    1.1887   -0.2877 H   0  0  0  0  0  0  0  0  0  0  0  0
   -3.4648   -0.3764   -1.3504 H   0  0  0  0  0  0  0  0  0  0  0  0
   -3.8194   -1.8783   -0.3956 H   0  0  0  0  0  0  0  0  0  0  0  0
   -3.4868    0.8807    0.8201 H   0  0  0  0  0  0  0  0  0  0  0  0
   -3.8112   -0.6516    1.6958 H   0  0  0  0  0  0  0  0  0  0  0  0
   -5.8065    0.7590    1.3744 H   0  0  0  0  0  0  0  0  0  0  0  0
   -4.5774    2.6436   -1.6203 H   0  0  0  0  0  0  0  0  0  0  0  0
   -5.6438   -1.7852    0.9300 H   0  0  0  0  0  0  0  0  0  0  0  0
   -6.2706   -1.3245   -0.6058 H   0  0  0  0  0  0  0  0  0  0  0  0
   -1.7751   -0.3199    2.1141 H   0  0  0  0  0  0  0  0  0  0  0  0
   -0.7678   -0.6822   -2.3294 H   0  0  0  0  0  0  0  0  0  0  0  0
  1  2  1  0
  2  3  1  0
  3  4  2  0
  4  5  1  0
  5  6  2  0
  6  7  1  0
  7  8  2  0
  8  9  1  0
  9 10  1  0
 10 11  1  0
 11 12  2  0
 11 13  1  0
  7 14  1  0
  5 15  1  0
 15 16  1  0
 16 17  2  0
 16 18  1  0
 18 19  1  0
 19 20  1  0
 20 21  1  0
 21 22  2  0
 21 23  1  0
 20 24  1  0
 16 25  1  0
 15 26  1  0
  8  3  1  0
  1 27  1  0
  1 28  1  0
  1 29  1  0
  4 30  1  0
  6 31  1  0
 10 32  1  0
 10 33  1  0
 13 34  1  0
 15 35  1  0
 18 36  1  0
 18 37  1  0
 19 38  1  0
 19 39  1  0
 20 40  1  1
 23 41  1  0
 24 42  1  0
 24 43  1  0
 25 44  1  0
 26 45  1  0
M  END
>  <Ligand ID>  (1) 
LIG0004721

>  <Ligand>  (1) 
CHEMBL3969216

>  <SMILES>  (1) 
COc1cc(cc(c1OCC(=O)O)Cl)C(P(=O)(CC[C@@H](C(=O)O)N)O)O

>  <CID>  (1) 
71041981.0

>  <ChEMBL ID>  (1) 
nan

>  <InChiKey>  (1) 
CITKLHPQBXWCKK-CUVJYRNJSA-N

>  <InChi>  (1) 
InChI=1S/C14H19ClNO9P/c1-24-10-5-7(4-8(15)12(10)25-6-11(17)18)14(21)26(22,23)3-2-9(16)13(19)20/h4-5,9,14,21H,2-3,6,16H2,1H3,(H,17,18)(H,19,20)(H,22,23)/t9-,14?/m0/s1

>  <IUPAC Name>  (1) 
(2S)-2-amino-4-[[[4-(carboxymethoxy)-3-chloro-5-methoxyphenyl]-hydroxymethyl]-hydroxyphosphoryl]butanoic acid

$$$$
