
     RDKit          3D

 62 66  0  0  0  0  0  0  0  0999 V2000
   -8.7701   -0.9113   -1.9228 Cl  0  0  0  0  0  0  0  0  0  0  0  0
   -7.1022   -0.6208   -1.4812 C   0  0  0  0  0  0  0  0  0  0  0  0
   -6.6159    0.6264   -1.1481 C   0  0  0  0  0  0  0  0  0  0  0  0
   -5.2844    0.8244   -0.8012 C   0  0  0  0  0  0  0  0  0  0  0  0
   -4.4299   -0.2586   -0.7911 C   0  0  0  0  0  0  0  0  0  0  0  0
   -4.9027   -1.5044   -1.1217 C   0  0  0  0  0  0  0  0  0  0  0  0
   -6.2351   -1.6956   -1.4672 C   0  0  0  0  0  0  0  0  0  0  0  0
   -3.0041   -0.1446   -0.4812 C   0  0  0  0  0  0  0  0  0  0  0  0
   -2.3698   -0.8672    0.4158 C   0  0  0  0  0  0  0  0  0  0  0  0
   -3.0193   -1.8919    1.2297 C   0  0  0  0  0  0  0  0  0  0  0  0
   -2.3538   -3.2312    0.8633 C   0  0  0  0  0  0  0  0  0  0  0  0
   -1.0656   -3.2759    1.6186 C   0  0  0  0  0  0  0  0  0  0  0  0
    0.1405   -2.8703    0.7746 C   0  0  0  0  0  0  0  0  0  0  0  0
    0.1683   -1.3857    0.6303 C   0  0  0  0  0  0  0  0  0  0  0  0
   -0.9288   -0.5193    0.4859 C   0  0  0  0  0  0  0  0  0  0  0  0
   -0.4622    0.7629    0.4018 N   0  0  0  0  0  0  0  0  0  0  0  0
    0.8704    0.6843    0.4890 N   0  0  0  0  0  0  0  0  0  0  0  0
    1.2843   -0.5788    0.6258 C   0  0  0  0  0  0  0  0  0  0  0  0
    2.6762   -0.9937    0.7342 C   0  0  0  0  0  0  0  0  0  0  0  0
    3.0206   -2.2085    0.8069 O   0  0  0  0  0  0  0  0  0  0  0  0
    3.7199   -0.0396    0.7634 N   0  0  0  0  0  0  0  0  0  0  0  0
    5.0963   -0.4317    0.8691 C   0  0  1  0  0  0  0  0  0  0  0  0
    5.9508    0.1037   -0.2327 C   0  0  0  0  0  0  0  0  0  0  0  0
    5.8540    1.4103   -0.6409 C   0  0  0  0  0  0  0  0  0  0  0  0
    6.6519    1.9166   -1.6667 C   0  0  0  0  0  0  0  0  0  0  0  0
    7.5341    1.0219   -2.2346 C   0  0  0  0  0  0  0  0  0  0  0  0
    7.6410   -0.2953   -1.8328 C   0  0  0  0  0  0  0  0  0  0  0  0
    6.8415   -0.7323   -0.8323 N   0  0  0  0  0  0  0  0  0  0  0  0
    5.7311   -0.0284    2.1834 C   0  0  0  0  0  0  0  0  0  0  0  0
   -1.2247    1.9612    0.2788 C   0  0  0  0  0  0  0  0  0  0  0  0
   -2.2858    2.2470    1.1526 C   0  0  0  0  0  0  0  0  0  0  0  0
   -2.9997    3.4427    1.0116 C   0  0  0  0  0  0  0  0  0  0  0  0
   -2.6766    4.3587    0.0171 C   0  0  0  0  0  0  0  0  0  0  0  0
   -1.6328    4.0678   -0.8352 C   0  0  0  0  0  0  0  0  0  0  0  0
   -0.9127    2.8978   -0.7192 C   0  0  0  0  0  0  0  0  0  0  0  0
   -1.1731    5.1834   -2.1159 Cl  0  0  0  0  0  0  0  0  0  0  0  0
   -3.5265    5.8565   -0.2071 Cl  0  0  0  0  0  0  0  0  0  0  0  0
   -7.3347    1.4504   -1.1717 H   0  0  0  0  0  0  0  0  0  0  0  0
   -4.9181    1.8062   -0.5426 H   0  0  0  0  0  0  0  0  0  0  0  0
   -4.2549   -2.3568   -1.1403 H   0  0  0  0  0  0  0  0  0  0  0  0
   -6.5603   -2.6915   -1.7180 H   0  0  0  0  0  0  0  0  0  0  0  0
   -2.4880    0.5992   -1.1189 H   0  0  0  0  0  0  0  0  0  0  0  0
   -2.7788   -1.6973    2.3233 H   0  0  0  0  0  0  0  0  0  0  0  0
   -4.0949   -1.9562    1.1191 H   0  0  0  0  0  0  0  0  0  0  0  0
   -3.0385   -4.0311    1.2081 H   0  0  0  0  0  0  0  0  0  0  0  0
   -2.2132   -3.2030   -0.2382 H   0  0  0  0  0  0  0  0  0  0  0  0
   -1.0622   -2.6164    2.5063 H   0  0  0  0  0  0  0  0  0  0  0  0
   -0.8360   -4.2983    2.0067 H   0  0  0  0  0  0  0  0  0  0  0  0
    1.0246   -3.2026    1.3428 H   0  0  0  0  0  0  0  0  0  0  0  0
    0.0823   -3.4029   -0.1936 H   0  0  0  0  0  0  0  0  0  0  0  0
    3.4746    0.9554    0.7070 H   0  0  0  0  0  0  0  0  0  0  0  0
    5.1244   -1.5484    0.8725 H   0  0  0  0  0  0  0  0  0  0  0  0
    5.1573    2.0955   -0.1837 H   0  0  0  0  0  0  0  0  0  0  0  0
    6.5731    2.9592   -1.9907 H   0  0  0  0  0  0  0  0  0  0  0  0
    8.1901    1.3308   -3.0362 H   0  0  0  0  0  0  0  0  0  0  0  0
    8.3176   -1.0078   -2.2579 H   0  0  0  0  0  0  0  0  0  0  0  0
    6.7400   -0.5379    2.1651 H   0  0  0  0  0  0  0  0  0  0  0  0
    5.9450    1.0410    2.2709 H   0  0  0  0  0  0  0  0  0  0  0  0
    5.2194   -0.4824    3.0462 H   0  0  0  0  0  0  0  0  0  0  0  0
   -2.5532    1.5330    1.9433 H   0  0  0  0  0  0  0  0  0  0  0  0
   -3.8336    3.6801    1.6887 H   0  0  0  0  0  0  0  0  0  0  0  0
   -0.0867    2.7016   -1.4173 H   0  0  0  0  0  0  0  0  0  0  0  0
  1  2  1  0
  2  3  2  0
  3  4  1  0
  4  5  2  0
  5  6  1  0
  6  7  2  0
  5  8  1  0
  8  9  2  0
  9 10  1  0
 10 11  1  0
 11 12  1  0
 12 13  1  0
 13 14  1  0
 14 15  2  0
 15 16  1  0
 16 17  1  0
 17 18  2  0
 18 19  1  0
 19 20  2  0
 19 21  1  0
 21 22  1  0
 22 23  1  0
 23 24  2  0
 24 25  1  0
 25 26  2  0
 26 27  1  0
 27 28  2  0
 22 29  1  0
 16 30  1  0
 30 31  2  0
 31 32  1  0
 32 33  2  0
 33 34  1  0
 34 35  2  0
 34 36  1  0
 33 37  1  0
  7  2  1  0
 15  9  1  0
 28 23  1  0
 35 30  1  0
 18 14  1  0
  3 38  1  0
  4 39  1  0
  6 40  1  0
  7 41  1  0
  8 42  1  0
 10 43  1  0
 10 44  1  0
 11 45  1  0
 11 46  1  0
 12 47  1  0
 12 48  1  0
 13 49  1  0
 13 50  1  0
 21 51  1  0
 22 52  1  1
 24 53  1  0
 25 54  1  0
 26 55  1  0
 27 56  1  0
 29 57  1  0
 29 58  1  0
 29 59  1  0
 31 60  1  0
 32 61  1  0
 35 62  1  0
M  END
>  <Ligand ID>  (1) 
LIG0005425

>  <Ligand>  (1) 
CHEMBL3975291

>  <SMILES>  (1) 
Clc1ccc(cc1)/C=C/1\CCCCc2c1n(nc2C(=O)N[C@@H](c1ccccn1)C)c1ccc(c(c1)Cl)Cl

>  <CID>  (1) 
134151463.0

>  <ChEMBL ID>  (1) 
nan

>  <InChiKey>  (1) 
UMFJZDWETVUUGJ-RILMWAFASA-N

>  <InChi>  (1) 
InChI=1S/C29H25Cl3N4O/c1-18(26-8-4-5-15-33-26)34-29(37)27-23-7-3-2-6-20(16-19-9-11-21(30)12-10-19)28(23)36(35-27)22-13-14-24(31)25(32)17-22/h4-5,8-18H,2-3,6-7H2,1H3,(H,34,37)/b20-16+/t18-/m1/s1

>  <IUPAC Name>  (1) 
(8E)-8-[(4-chlorophenyl)methylidene]-1-(3,4-dichlorophenyl)-N-[(1R)-1-pyridin-2-ylethyl]-4,5,6,7-tetrahydrocyclohepta[c]pyrazole-3-carboxamide

$$$$
