
     RDKit          3D

 55 57  0  0  0  0  0  0  0  0999 V2000
    8.7187    0.2823    1.6708 C   0  0  0  0  0  0  0  0  0  0  0  0
    7.5642    1.0045    1.1727 N   0  0  0  0  0  0  0  0  0  0  0  0
    6.3486    0.3703    0.7973 C   0  0  0  0  0  0  0  0  0  0  0  0
    6.3029   -0.8869    0.9150 O   0  0  0  0  0  0  0  0  0  0  0  0
    5.2034    1.1479    0.2966 C   0  0  0  0  0  0  0  0  0  0  0  0
    5.3382    2.4833    0.2029 N   0  0  0  0  0  0  0  0  0  0  0  0
    4.3128    3.2266   -0.2504 C   0  0  0  0  0  0  0  0  0  0  0  0
    3.1406    2.5942   -0.6102 C   0  0  0  0  0  0  0  0  0  0  0  0
    2.9977    1.2121   -0.5145 C   0  0  0  0  0  0  0  0  0  0  0  0
    4.0605    0.4678   -0.0474 C   0  0  0  0  0  0  0  0  0  0  0  0
    1.7005    0.6119   -0.9234 C   0  0  0  0  0  0  0  0  0  0  0  0
    0.6535    0.5810    0.5723 S   0  0  0  0  0  0  0  0  0  0  0  0
   -0.9177   -0.1426    0.0928 C   0  0  0  0  0  0  0  0  0  0  0  0
   -1.8646    0.6909   -0.3460 N   0  0  0  0  0  0  0  0  0  0  0  0
   -3.0959    0.3262   -0.7456 C   0  0  0  0  0  0  0  0  0  0  0  0
   -4.0683    1.2558   -1.2056 N   0  0  0  0  0  0  0  0  0  0  0  0
   -3.8113    2.6765   -1.2808 C   0  0  0  0  0  0  0  0  0  0  0  0
   -3.4762    3.2437    0.1001 C   0  0  0  0  0  0  0  0  0  0  0  0
   -3.2793    4.7374    0.0297 C   0  0  0  0  0  0  0  0  0  0  0  0
   -2.9729    5.2645    1.2855 F   0  0  0  0  0  0  0  0  0  0  0  0
   -4.3845    5.3951   -0.4581 F   0  0  0  0  0  0  0  0  0  0  0  0
   -2.2039    5.0676   -0.7881 F   0  0  0  0  0  0  0  0  0  0  0  0
   -4.5602    3.0138    0.9395 O   0  0  0  0  0  0  0  0  0  0  0  0
   -3.3650   -1.0461   -0.6803 C   0  0  0  0  0  0  0  0  0  0  0  0
   -2.4060   -1.9307   -0.2310 C   0  0  0  0  0  0  0  0  0  0  0  0
   -1.1583   -1.4995    0.1666 C   0  0  0  0  0  0  0  0  0  0  0  0
   -0.1319   -2.3809    0.6397 C   0  0  0  0  0  0  0  0  0  0  0  0
    0.7066   -3.0797    1.0276 N   0  0  0  0  0  0  0  0  0  0  0  0
   -2.6690   -3.3623   -0.1564 C   0  0  0  0  0  0  0  0  0  0  0  0
   -3.1954   -3.8675    1.0154 C   0  0  0  0  0  0  0  0  0  0  0  0
   -3.4703   -5.2147    1.1584 C   0  0  0  0  0  0  0  0  0  0  0  0
   -3.2092   -6.0794    0.0950 C   0  0  0  0  0  0  0  0  0  0  0  0
   -2.6831   -5.5666   -1.0728 C   0  0  0  0  0  0  0  0  0  0  0  0
   -2.4049   -4.2160   -1.2232 C   0  0  0  0  0  0  0  0  0  0  0  0
   -4.6655   -1.5322   -1.0904 C   0  0  0  0  0  0  0  0  0  0  0  0
   -5.6945   -1.9163   -1.4229 N   0  0  0  0  0  0  0  0  0  0  0  0
    8.7931   -0.7436    1.3059 H   0  0  0  0  0  0  0  0  0  0  0  0
    9.6115    0.8762    1.3306 H   0  0  0  0  0  0  0  0  0  0  0  0
    8.7587    0.3239    2.7819 H   0  0  0  0  0  0  0  0  0  0  0  0
    7.5926    2.0462    1.0716 H   0  0  0  0  0  0  0  0  0  0  0  0
    4.3877    4.3096   -0.3390 H   0  0  0  0  0  0  0  0  0  0  0  0
    2.2866    3.1764   -0.9837 H   0  0  0  0  0  0  0  0  0  0  0  0
    3.9442   -0.5880    0.0231 H   0  0  0  0  0  0  0  0  0  0  0  0
    1.2166    1.2792   -1.6459 H   0  0  0  0  0  0  0  0  0  0  0  0
    1.8240   -0.4078   -1.3424 H   0  0  0  0  0  0  0  0  0  0  0  0
   -4.9953    0.8745   -1.4943 H   0  0  0  0  0  0  0  0  0  0  0  0
   -4.6968    3.2124   -1.6335 H   0  0  0  0  0  0  0  0  0  0  0  0
   -2.9741    2.9028   -1.9888 H   0  0  0  0  0  0  0  0  0  0  0  0
   -2.5394    2.8136    0.4837 H   0  0  0  0  0  0  0  0  0  0  0  0
   -5.3626    2.9668    0.3805 H   0  0  0  0  0  0  0  0  0  0  0  0
   -3.4105   -3.2205    1.8635 H   0  0  0  0  0  0  0  0  0  0  0  0
   -3.8829   -5.5699    2.0945 H   0  0  0  0  0  0  0  0  0  0  0  0
   -3.4403   -7.1128    0.2582 H   0  0  0  0  0  0  0  0  0  0  0  0
   -2.4814   -6.2538   -1.9026 H   0  0  0  0  0  0  0  0  0  0  0  0
   -1.9919   -3.8170   -2.1413 H   0  0  0  0  0  0  0  0  0  0  0  0
  1  2  1  0
  2  3  1  0
  3  4  2  0
  3  5  1  0
  5  6  2  0
  6  7  1  0
  7  8  2  0
  8  9  1  0
  9 10  2  0
  9 11  1  0
 11 12  1  0
 12 13  1  0
 13 14  2  0
 14 15  1  0
 15 16  1  0
 16 17  1  0
 17 18  1  0
 18 19  1  0
 19 20  1  0
 19 21  1  0
 19 22  1  0
 18 23  1  0
 15 24  2  0
 24 25  1  0
 25 26  2  0
 26 27  1  0
 27 28  3  0
 25 29  1  0
 29 30  2  0
 30 31  1  0
 31 32  2  0
 32 33  1  0
 33 34  2  0
 24 35  1  0
 35 36  3  0
 10  5  1  0
 26 13  1  0
 34 29  1  0
  1 37  1  0
  1 38  1  0
  1 39  1  0
  2 40  1  0
  7 41  1  0
  8 42  1  0
 10 43  1  0
 11 44  1  0
 11 45  1  0
 16 46  1  0
 17 47  1  0
 17 48  1  0
 18 49  1  0
 23 50  1  0
 30 51  1  0
 31 52  1  0
 32 53  1  0
 33 54  1  0
 34 55  1  0
M  END
>  <Ligand ID>  (1) 
LIG0004673

>  <Ligand>  (1) 
SCHEMBL3332820

>  <SMILES>  (1) 
CNC(=O)c1nccc(c1)CSc1nc(NCC(C(F)(F)F)O)c(c(c1C#N)c1ccccc1)C#N

>  <CID>  (1) 
68600557.0

>  <ChEMBL ID>  (1) 
nan

>  <InChiKey>  (1) 
XRIAXFSXESCCIJ-UHFFFAOYSA-N

>  <InChi>  (1) 
InChI=1S/C24H19F3N6O2S/c1-30-22(35)18-9-14(7-8-31-18)13-36-23-17(11-29)20(15-5-3-2-4-6-15)16(10-28)21(33-23)32-12-19(34)24(25,26)27/h2-9,19,34H,12-13H2,1H3,(H,30,35)(H,32,33)

>  <IUPAC Name>  (1) 
4-[[3,5-dicyano-4-phenyl-6-[(3,3,3-trifluoro-2-hydroxypropyl)amino]pyridin-2-yl]sulfanylmethyl]-N-methylpyridine-2-carboxamide

$$$$
