
     RDKit          3D

 61 65  0  0  0  0  0  0  0  0999 V2000
   -3.9782   -4.1796   -1.8705 C   0  0  0  0  0  0  0  0  0  0  0  0
   -3.8100   -3.2202   -0.8757 O   0  0  0  0  0  0  0  0  0  0  0  0
   -2.9803   -3.2921    0.2089 C   0  0  0  0  0  0  0  0  0  0  0  0
   -2.1518   -4.3453    0.5113 C   0  0  0  0  0  0  0  0  0  0  0  0
   -1.3499   -4.3215    1.6345 C   0  0  0  0  0  0  0  0  0  0  0  0
   -1.3326   -3.2444    2.5157 C   0  0  0  0  0  0  0  0  0  0  0  0
   -2.1573   -2.1942    2.2154 C   0  0  0  0  0  0  0  0  0  0  0  0
   -2.9735   -2.2033    1.0846 C   0  0  0  0  0  0  0  0  0  0  0  0
   -2.2531   -0.9579    3.0573 C   0  0  0  0  0  0  0  0  0  0  0  0
   -1.3401    0.0648    2.5432 C   0  0  0  0  0  0  0  0  0  0  0  0
   -1.8807    1.0984    1.7674 C   0  0  0  0  0  0  0  0  0  0  0  0
   -1.0764    2.0801    1.2456 C   0  0  0  0  0  0  0  0  0  0  0  0
    0.2410    2.0114    1.5067 N   0  0  0  0  0  0  0  0  0  0  0  0
    0.8029    1.0594    2.2319 N   0  0  0  0  0  0  0  0  0  0  0  0
    0.0194    0.0960    2.7443 C   0  0  0  0  0  0  0  0  0  0  0  0
    0.5532   -0.8097    3.4335 O   0  0  0  0  0  0  0  0  0  0  0  0
    2.2365    1.1248    2.4260 C   0  0  0  0  0  0  0  0  0  0  0  0
    3.0271    0.4179    1.4139 C   0  0  0  0  0  0  0  0  0  0  0  0
    4.3007    0.3701    1.4238 O   0  0  0  0  0  0  0  0  0  0  0  0
    2.4097   -0.2833    0.3191 N   0  0  0  0  0  0  0  0  0  0  0  0
    3.3082   -0.9190   -0.5855 C   0  0  0  0  0  0  0  0  0  0  0  0
    3.7225   -2.2142   -0.3642 C   0  0  0  0  0  0  0  0  0  0  0  0
    4.5954   -2.8700   -1.2120 C   0  0  0  0  0  0  0  0  0  0  0  0
    5.0368   -2.1366   -2.3163 C   0  0  0  0  0  0  0  0  0  0  0  0
    4.6323   -0.8427   -2.5516 C   0  0  0  0  0  0  0  0  0  0  0  0
    3.7611   -0.2080   -1.6927 C   0  0  0  0  0  0  0  0  0  0  0  0
    5.2684   -0.4388   -3.7300 O   0  0  0  0  0  0  0  0  0  0  0  0
    6.3171   -1.3257   -4.0660 C   0  0  0  0  0  0  0  0  0  0  0  0
    5.9107   -2.5020   -3.3486 O   0  0  0  0  0  0  0  0  0  0  0  0
   -1.5977    3.1648    0.4234 C   0  0  0  0  0  0  0  0  0  0  0  0
   -2.9297    3.3112    0.1088 C   0  0  0  0  0  0  0  0  0  0  0  0
   -3.3783    4.3479   -0.6799 C   0  0  0  0  0  0  0  0  0  0  0  0
   -2.5146    5.2812   -1.1866 C   0  0  0  0  0  0  0  0  0  0  0  0
   -1.1750    5.1640   -0.8905 C   0  0  0  0  0  0  0  0  0  0  0  0
   -0.7284    4.1091   -0.0896 C   0  0  0  0  0  0  0  0  0  0  0  0
   -3.0363    6.3817   -2.0350 C   0  0  0  0  0  0  0  0  0  0  0  0
   -3.5711   -5.1595   -1.5721 H   0  0  0  0  0  0  0  0  0  0  0  0
   -3.4588   -3.8025   -2.7947 H   0  0  0  0  0  0  0  0  0  0  0  0
   -5.0818   -4.2470   -2.0584 H   0  0  0  0  0  0  0  0  0  0  0  0
   -2.1300   -5.1991   -0.1387 H   0  0  0  0  0  0  0  0  0  0  0  0
   -0.7158   -5.2021    1.8069 H   0  0  0  0  0  0  0  0  0  0  0  0
   -0.7099   -3.2308    3.3887 H   0  0  0  0  0  0  0  0  0  0  0  0
   -3.6183   -1.3622    0.8648 H   0  0  0  0  0  0  0  0  0  0  0  0
   -3.2813   -0.5969    3.0439 H   0  0  0  0  0  0  0  0  0  0  0  0
   -2.0068   -1.2145    4.1104 H   0  0  0  0  0  0  0  0  0  0  0  0
   -2.9341    1.0950    1.5978 H   0  0  0  0  0  0  0  0  0  0  0  0
    2.5652    2.2091    2.3704 H   0  0  0  0  0  0  0  0  0  0  0  0
    2.4968    0.8620    3.4891 H   0  0  0  0  0  0  0  0  0  0  0  0
    1.3694   -0.3118    0.2130 H   0  0  0  0  0  0  0  0  0  0  0  0
    3.3411   -2.7166    0.5044 H   0  0  0  0  0  0  0  0  0  0  0  0
    4.9172   -3.8873   -1.0322 H   0  0  0  0  0  0  0  0  0  0  0  0
    3.4310    0.8001   -1.8544 H   0  0  0  0  0  0  0  0  0  0  0  0
    7.2937   -0.9625   -3.7382 H   0  0  0  0  0  0  0  0  0  0  0  0
    6.2400   -1.5870   -5.1410 H   0  0  0  0  0  0  0  0  0  0  0  0
   -3.6471    2.6200    0.4725 H   0  0  0  0  0  0  0  0  0  0  0  0
   -4.4158    4.4336   -0.9064 H   0  0  0  0  0  0  0  0  0  0  0  0
   -0.4923    5.8890   -1.2824 H   0  0  0  0  0  0  0  0  0  0  0  0
    0.3348    3.9984    0.1572 H   0  0  0  0  0  0  0  0  0  0  0  0
   -2.1564    6.8993   -2.4929 H   0  0  0  0  0  0  0  0  0  0  0  0
   -3.6071    7.1280   -1.4508 H   0  0  0  0  0  0  0  0  0  0  0  0
   -3.6616    5.9708   -2.8777 H   0  0  0  0  0  0  0  0  0  0  0  0
  1  2  1  0
  2  3  1  0
  3  4  2  0
  4  5  1  0
  5  6  2  0
  6  7  1  0
  7  8  2  0
  7  9  1  0
  9 10  1  0
 10 11  2  0
 11 12  1  0
 12 13  2  0
 13 14  1  0
 14 15  1  0
 15 16  2  0
 14 17  1  0
 17 18  1  0
 18 19  2  0
 18 20  1  0
 20 21  1  0
 21 22  2  0
 22 23  1  0
 23 24  2  0
 24 25  1  0
 25 26  2  0
 25 27  1  0
 27 28  1  0
 28 29  1  0
 12 30  1  0
 30 31  2  0
 31 32  1  0
 32 33  2  0
 33 34  1  0
 34 35  2  0
 33 36  1  0
  8  3  1  0
 15 10  1  0
 26 21  1  0
 35 30  1  0
 29 24  1  0
  1 37  1  0
  1 38  1  0
  1 39  1  0
  4 40  1  0
  5 41  1  0
  6 42  1  0
  8 43  1  0
  9 44  1  0
  9 45  1  0
 11 46  1  0
 17 47  1  0
 17 48  1  0
 20 49  1  0
 22 50  1  0
 23 51  1  0
 26 52  1  0
 28 53  1  0
 28 54  1  0
 31 55  1  0
 32 56  1  0
 34 57  1  0
 35 58  1  0
 36 59  1  0
 36 60  1  0
 36 61  1  0
M  END
>  <Ligand ID>  (1) 
LIG0003807

>  <Ligand>  (1) 
CHEMBL2391271

>  <SMILES>  (1) 
COc1cccc(c1)Cc1cc(nn(c1=O)CC(=O)Nc1ccc2c(c1)OCO2)c1ccc(cc1)C

>  <CID>  (1) 
71698794.0

>  <ChEMBL ID>  (1) 
nan

>  <InChiKey>  (1) 
WDWACBBVRWSNAG-UHFFFAOYSA-N

>  <InChi>  (1) 
InChI=1S/C28H25N3O5/c1-18-6-8-20(9-7-18)24-14-21(12-19-4-3-5-23(13-19)34-2)28(33)31(30-24)16-27(32)29-22-10-11-25-26(15-22)36-17-35-25/h3-11,13-15H,12,16-17H2,1-2H3,(H,29,32)

>  <IUPAC Name>  (1) 
N-(1,3-benzodioxol-5-yl)-2-[5-[(3-methoxyphenyl)methyl]-3-(4-methylphenyl)-6-oxopyridazin-1-yl]acetamide

$$$$
