
     RDKit          3D

 51 55  0  0  0  0  0  0  0  0999 V2000
    4.2953    2.0120    1.4390 C   0  0  0  0  0  0  0  0  0  0  0  0
    3.2061    1.2786    0.9613 O   0  0  0  0  0  0  0  0  0  0  0  0
    3.6491    0.6089   -0.1711 C   0  0  0  0  0  0  0  0  0  0  0  0
    2.7880    0.9516   -1.3946 C   0  0  0  0  0  0  0  0  0  0  0  0
    1.3367    0.8973   -0.9229 C   0  0  0  0  0  0  0  0  0  0  0  0
    1.0612   -0.3682   -0.2926 N   0  0  0  0  0  0  0  0  0  0  0  0
    2.1521   -1.3054   -0.1432 C   0  0  0  0  0  0  0  0  0  0  0  0
    3.4704   -0.8811   -0.0457 C   0  0  0  0  0  0  0  0  0  0  0  0
    4.5316   -1.7396    0.1100 C   0  0  0  0  0  0  0  0  0  0  0  0
    4.2889   -3.0927    0.1726 C   0  0  0  0  0  0  0  0  0  0  0  0
    2.9932   -3.5617    0.0781 C   0  0  0  0  0  0  0  0  0  0  0  0
    1.9466   -2.6654   -0.0783 C   0  0  0  0  0  0  0  0  0  0  0  0
   -0.1762   -0.7624    0.2539 C   0  0  0  0  0  0  0  0  0  0  0  0
   -0.2217   -1.7858    1.0612 O   0  0  0  0  0  0  0  0  0  0  0  0
   -1.5072   -0.1675    0.0422 C   0  0  0  0  0  0  0  0  0  0  0  0
   -2.4699   -0.8898    0.9982 C   0  0  0  0  0  0  0  0  0  0  0  0
   -3.8579   -0.3789    0.8986 C   0  0  0  0  0  0  0  0  0  0  0  0
   -3.8617    1.0654    1.3461 C   0  0  0  0  0  0  0  0  0  0  0  0
   -2.9475    1.8126    0.4430 C   0  0  0  0  0  0  0  0  0  0  0  0
   -1.5156    1.2766    0.4218 C   0  0  0  0  0  0  0  0  0  0  0  0
   -3.4746    1.6504   -0.9888 C   0  0  0  0  0  0  0  0  0  0  0  0
   -3.4531    0.2083   -1.4101 C   0  0  0  0  0  0  0  0  0  0  0  0
   -2.0181   -0.2800   -1.3781 C   0  0  0  0  0  0  0  0  0  0  0  0
   -4.3636   -0.5603   -0.5075 C   0  0  0  0  0  0  0  0  0  0  0  0
    4.0287    2.5836    2.3518 H   0  0  0  0  0  0  0  0  0  0  0  0
    4.6488    2.7365    0.6583 H   0  0  0  0  0  0  0  0  0  0  0  0
    5.1491    1.3372    1.6662 H   0  0  0  0  0  0  0  0  0  0  0  0
    4.6946    0.8564   -0.3382 H   0  0  0  0  0  0  0  0  0  0  0  0
    2.9434    0.1597   -2.1340 H   0  0  0  0  0  0  0  0  0  0  0  0
    3.0320    1.9257   -1.8149 H   0  0  0  0  0  0  0  0  0  0  0  0
    0.7388    1.1537   -1.7895 H   0  0  0  0  0  0  0  0  0  0  0  0
    1.2119    1.7457   -0.1728 H   0  0  0  0  0  0  0  0  0  0  0  0
    5.5311   -1.3376    0.1799 H   0  0  0  0  0  0  0  0  0  0  0  0
    5.1040   -3.8000    0.2956 H   0  0  0  0  0  0  0  0  0  0  0  0
    2.8510   -4.6277    0.1315 H   0  0  0  0  0  0  0  0  0  0  0  0
    0.9658   -3.0883   -0.1653 H   0  0  0  0  0  0  0  0  0  0  0  0
   -2.4184   -1.9775    0.8804 H   0  0  0  0  0  0  0  0  0  0  0  0
   -2.0830   -0.6581    2.0216 H   0  0  0  0  0  0  0  0  0  0  0  0
   -4.5055   -0.9951    1.5506 H   0  0  0  0  0  0  0  0  0  0  0  0
   -3.5793    1.0852    2.4055 H   0  0  0  0  0  0  0  0  0  0  0  0
   -4.8804    1.4729    1.1860 H   0  0  0  0  0  0  0  0  0  0  0  0
   -2.8923    2.8717    0.6917 H   0  0  0  0  0  0  0  0  0  0  0  0
   -1.0388    1.5300    1.3677 H   0  0  0  0  0  0  0  0  0  0  0  0
   -1.0378    1.9176   -0.3839 H   0  0  0  0  0  0  0  0  0  0  0  0
   -2.9201    2.3345   -1.6421 H   0  0  0  0  0  0  0  0  0  0  0  0
   -4.5419    1.9696   -0.9890 H   0  0  0  0  0  0  0  0  0  0  0  0
   -3.7700    0.1573   -2.4615 H   0  0  0  0  0  0  0  0  0  0  0  0
   -1.4582    0.4405   -2.0003 H   0  0  0  0  0  0  0  0  0  0  0  0
   -1.9296   -1.3023   -1.7560 H   0  0  0  0  0  0  0  0  0  0  0  0
   -5.3755   -0.1765   -0.6377 H   0  0  0  0  0  0  0  0  0  0  0  0
   -4.3204   -1.6376   -0.7246 H   0  0  0  0  0  0  0  0  0  0  0  0
  1  2  1  0
  2  3  1  0
  3  4  1  0
  4  5  1  0
  5  6  1  0
  6  7  1  0
  7  8  2  0
  8  9  1  0
  9 10  2  0
 10 11  1  0
 11 12  2  0
  6 13  1  0
 13 14  2  0
 13 15  1  0
 15 16  1  0
 16 17  1  0
 17 18  1  0
 18 19  1  0
 19 20  1  0
 19 21  1  0
 21 22  1  0
 22 23  1  0
 22 24  1  0
  8  3  1  0
 23 15  1  0
 12  7  1  0
 20 15  1  0
 24 17  1  0
  1 25  1  0
  1 26  1  0
  1 27  1  0
  3 28  1  0
  4 29  1  0
  4 30  1  0
  5 31  1  0
  5 32  1  0
  9 33  1  0
 10 34  1  0
 11 35  1  0
 12 36  1  0
 16 37  1  0
 16 38  1  0
 17 39  1  0
 18 40  1  0
 18 41  1  0
 19 42  1  0
 20 43  1  0
 20 44  1  0
 21 45  1  0
 21 46  1  0
 22 47  1  0
 23 48  1  0
 23 49  1  0
 24 50  1  0
 24 51  1  0
M  END
>  <Ligand ID>  (1) 
LIG0002016

>  <Ligand>  (1) 
CHEMBL2338174

>  <SMILES>  (1) 
COC1CCN(c2c1cccc2)C(=O)C12CC3CC(C2)CC(C1)C3

>  <CID>  (1) 
71559417.0

>  <ChEMBL ID>  (1) 
nan

>  <InChiKey>  (1) 
ZREKTMNXUFQZAY-UHFFFAOYSA-N

>  <InChi>  (1) 
InChI=1S/C21H27NO2/c1-24-19-6-7-22(18-5-3-2-4-17(18)19)20(23)21-11-14-8-15(12-21)10-16(9-14)13-21/h2-5,14-16,19H,6-13H2,1H3

>  <IUPAC Name>  (1) 
1-adamantyl-(4-methoxy-3,4-dihydro-2H-quinolin-1-yl)methanone

$$$$
