
     RDKit          3D

 26 27  0  0  0  0  0  0  0  0999 V2000
    1.9328    1.5047    1.4260 C   0  0  0  0  0  0  0  0  0  0  0  0
    1.2313    0.7294    0.6051 C   0  0  0  0  0  0  0  0  0  0  0  0
    1.8319   -0.5794    0.2219 C   0  0  0  0  0  0  0  0  0  0  0  0
    1.0189   -1.3133   -0.7977 C   0  0  0  0  0  0  0  0  0  0  0  0
   -0.2499   -0.6054   -1.1490 C   0  0  0  0  0  0  0  0  0  0  0  0
    0.0000    0.8599   -1.4581 C   0  0  0  0  0  0  0  0  0  0  0  0
   -0.0936    1.0847    0.0564 C   0  0  0  0  0  0  0  0  0  0  0  0
   -1.0246   -0.1106    0.0509 C   0  0  0  0  0  0  0  0  0  0  0  0
   -2.4075    0.3347   -0.3296 C   0  0  0  0  0  0  0  0  0  0  0  0
   -1.0055   -0.9987    1.2473 C   0  0  0  0  0  0  0  0  0  0  0  0
    2.8842    1.1582    1.7699 H   0  0  0  0  0  0  0  0  0  0  0  0
    1.4910    2.4551    1.7011 H   0  0  0  0  0  0  0  0  0  0  0  0
    1.9947   -1.2457    1.0977 H   0  0  0  0  0  0  0  0  0  0  0  0
    2.8739   -0.3910   -0.1712 H   0  0  0  0  0  0  0  0  0  0  0  0
    1.6092   -1.3805   -1.7543 H   0  0  0  0  0  0  0  0  0  0  0  0
    0.7709   -2.3546   -0.5106 H   0  0  0  0  0  0  0  0  0  0  0  0
   -0.8293   -1.1447   -1.9104 H   0  0  0  0  0  0  0  0  0  0  0  0
   -0.8881    1.3307   -1.9261 H   0  0  0  0  0  0  0  0  0  0  0  0
    0.9674    1.1014   -1.8996 H   0  0  0  0  0  0  0  0  0  0  0  0
   -0.5263    2.0299    0.3719 H   0  0  0  0  0  0  0  0  0  0  0  0
   -2.4919    1.4271   -0.4706 H   0  0  0  0  0  0  0  0  0  0  0  0
   -3.1683   -0.0066    0.4274 H   0  0  0  0  0  0  0  0  0  0  0  0
   -2.6968   -0.1842   -1.2696 H   0  0  0  0  0  0  0  0  0  0  0  0
   -1.0560   -2.0593    0.8880 H   0  0  0  0  0  0  0  0  0  0  0  0
   -0.2016   -0.8111    1.9708 H   0  0  0  0  0  0  0  0  0  0  0  0
   -1.9668   -0.8306    1.8123 H   0  0  0  0  0  0  0  0  0  0  0  0
  1  2  2  0
  2  3  1  0
  3  4  1  0
  4  5  1  0
  5  6  1  0
  6  7  1  0
  7  8  1  0
  8  9  1  0
  8 10  1  0
  7  2  1  0
  8  5  1  0
  1 11  1  0
  1 12  1  0
  3 13  1  0
  3 14  1  0
  4 15  1  0
  4 16  1  0
  5 17  1  0
  6 18  1  0
  6 19  1  0
  7 20  1  0
  9 21  1  0
  9 22  1  0
  9 23  1  0
 10 24  1  0
 10 25  1  0
 10 26  1  0
M  END
>  <Ligand ID>  (1) 
LIG0000526

>  <Ligand>  (1) 
beta-Pinene

>  <SMILES>  (1) 
C=C1CCC2CC1C2(C)C

>  <CID>  (1) 
14896.0

>  <ChEMBL ID>  (1) 
nan

>  <InChiKey>  (1) 
WTARULDDTDQWMU-UHFFFAOYSA-N

>  <InChi>  (1) 
InChI=1S/C10H16/c1-7-4-5-8-6-9(7)10(8,2)3/h8-9H,1,4-6H2,2-3H3

>  <IUPAC Name>  (1) 
6,6-dimethyl-2-methylidenebicyclo[3.1.1]heptane

$$$$
