
     RDKit          3D

 78 80  0  0  0  0  0  0  0  0999 V2000
   -6.9858    4.3114   -1.8908 C   0  0  0  0  0  0  0  0  0  0  0  0
   -7.0113    2.8375   -2.2322 C   0  0  0  0  0  0  0  0  0  0  0  0
   -6.4002    2.1031   -1.0359 C   0  0  0  0  0  0  0  0  0  0  0  0
   -6.3976    0.6051   -1.3420 C   0  0  0  0  0  0  0  0  0  0  0  0
   -5.8238   -0.0727   -0.2175 N   0  0  0  0  0  0  0  0  0  0  0  0
   -6.8242   -0.5958    1.0596 S   0  0  0  0  0  0  0  0  0  0  0  0
   -6.2834    0.0078    2.3201 O   0  0  0  0  0  0  0  0  0  0  0  0
   -8.2418   -0.1554    0.8392 O   0  0  0  0  0  0  0  0  0  0  0  0
   -6.8133   -2.3576    1.2904 C   0  0  0  0  0  0  0  0  0  0  0  0
   -7.7090   -2.6836    2.4130 C   0  0  0  0  0  0  0  0  0  0  0  0
   -7.8452   -3.9095    2.7294 O   0  0  0  0  0  0  0  0  0  0  0  0
   -8.4137   -1.7342    3.1505 O   0  0  0  0  0  0  0  0  0  0  0  0
   -4.4150   -0.2904   -0.2215 C   0  0  0  0  0  0  0  0  0  0  0  0
   -3.5951    0.6596    0.3602 C   0  0  0  0  0  0  0  0  0  0  0  0
   -2.2048    0.5062    0.3893 C   0  0  0  0  0  0  0  0  0  0  0  0
   -1.5893   -0.6144   -0.1704 C   0  0  0  0  0  0  0  0  0  0  0  0
   -2.4275   -1.5457   -0.7442 C   0  0  0  0  0  0  0  0  0  0  0  0
   -3.8085   -1.3855   -0.7680 C   0  0  0  0  0  0  0  0  0  0  0  0
   -0.1682   -0.7625   -0.1435 N   0  0  0  0  0  0  0  0  0  0  0  0
    0.4894   -2.0245   -0.5043 C   0  0  0  0  0  0  0  0  0  0  0  0
    1.3750   -1.7054   -1.6899 C   0  0  0  0  0  0  0  0  0  0  0  0
    2.4864   -0.8232   -1.1202 C   0  0  0  0  0  0  0  0  0  0  0  0
    1.8456    0.4955   -0.7566 C   0  0  0  0  0  0  0  0  0  0  0  0
    0.7208    0.3187    0.2332 C   0  0  0  0  0  0  0  0  0  0  0  0
    2.8904   -1.4250    0.1265 N   0  0  0  0  0  0  0  0  0  0  0  0
    3.6043   -2.6613    0.0139 C   0  0  0  0  0  0  0  0  0  0  0  0
    4.9907   -2.3799   -0.5744 C   0  0  1  0  0  0  0  0  0  0  0  0
    5.5716   -1.3542    0.3543 C   0  0  0  0  0  0  0  0  0  0  0  0
    5.9885   -1.6785    1.6389 C   0  0  0  0  0  0  0  0  0  0  0  0
    6.4929   -0.7151    2.4876 C   0  0  0  0  0  0  0  0  0  0  0  0
    6.5787    0.5894    2.0535 C   0  0  0  0  0  0  0  0  0  0  0  0
    6.1718    0.9279    0.7839 C   0  0  0  0  0  0  0  0  0  0  0  0
    5.6626   -0.0349   -0.0838 C   0  0  0  0  0  0  0  0  0  0  0  0
    6.2033    2.2658    0.2839 N   0  0  0  0  0  0  0  0  0  0  0  0
    7.5135    2.8546   -0.6858 S   0  0  0  0  0  0  0  0  0  0  0  0
    7.6622    2.1070   -1.9793 O   0  0  0  0  0  0  0  0  0  0  0  0
    7.2587    4.2916   -1.0334 O   0  0  0  0  0  0  0  0  0  0  0  0
    9.0338    2.7777    0.2695 C   0  0  0  0  0  0  0  0  0  0  0  0
    7.0792    1.6212    2.8643 O   0  0  0  0  0  0  0  0  0  0  0  0
    5.7090   -3.5389   -0.6537 O   0  0  0  0  0  0  0  0  0  0  0  0
   -7.6475    4.4175   -0.9845 H   0  0  0  0  0  0  0  0  0  0  0  0
   -7.4481    4.8403   -2.7556 H   0  0  0  0  0  0  0  0  0  0  0  0
   -5.9605    4.6405   -1.6959 H   0  0  0  0  0  0  0  0  0  0  0  0
   -8.0279    2.4438   -2.3998 H   0  0  0  0  0  0  0  0  0  0  0  0
   -6.3902    2.6321   -3.1458 H   0  0  0  0  0  0  0  0  0  0  0  0
   -6.9663    2.2558   -0.1161 H   0  0  0  0  0  0  0  0  0  0  0  0
   -5.3662    2.4856   -0.9585 H   0  0  0  0  0  0  0  0  0  0  0  0
   -5.7161    0.5148   -2.2337 H   0  0  0  0  0  0  0  0  0  0  0  0
   -7.3853    0.2518   -1.6740 H   0  0  0  0  0  0  0  0  0  0  0  0
   -5.7915   -2.6482    1.5457 H   0  0  0  0  0  0  0  0  0  0  0  0
   -7.1144   -2.8834    0.3650 H   0  0  0  0  0  0  0  0  0  0  0  0
   -9.0699   -1.9951    3.8913 H   0  0  0  0  0  0  0  0  0  0  0  0
   -4.0536    1.5325    0.7996 H   0  0  0  0  0  0  0  0  0  0  0  0
   -1.6660    1.2898    0.8649 H   0  0  0  0  0  0  0  0  0  0  0  0
   -2.0536   -2.4402   -1.2071 H   0  0  0  0  0  0  0  0  0  0  0  0
   -4.4302   -2.1226   -1.2191 H   0  0  0  0  0  0  0  0  0  0  0  0
   -0.1980   -2.8532   -0.6564 H   0  0  0  0  0  0  0  0  0  0  0  0
    1.1695   -2.2739    0.3722 H   0  0  0  0  0  0  0  0  0  0  0  0
    0.8085   -1.0300   -2.3798 H   0  0  0  0  0  0  0  0  0  0  0  0
    1.7309   -2.5717   -2.2370 H   0  0  0  0  0  0  0  0  0  0  0  0
    3.2673   -0.7308   -1.8698 H   0  0  0  0  0  0  0  0  0  0  0  0
    2.5591    1.2537   -0.4040 H   0  0  0  0  0  0  0  0  0  0  0  0
    1.3685    0.8651   -1.6884 H   0  0  0  0  0  0  0  0  0  0  0  0
    1.1772   -0.0025    1.1978 H   0  0  0  0  0  0  0  0  0  0  0  0
    0.2347    1.2749    0.4235 H   0  0  0  0  0  0  0  0  0  0  0  0
    3.3737   -0.7669    0.7585 H   0  0  0  0  0  0  0  0  0  0  0  0
    3.8034   -3.0025    1.0439 H   0  0  0  0  0  0  0  0  0  0  0  0
    3.0596   -3.4421   -0.5089 H   0  0  0  0  0  0  0  0  0  0  0  0
    4.8876   -1.9338   -1.5717 H   0  0  0  0  0  0  0  0  0  0  0  0
    5.9114   -2.7219    1.9928 H   0  0  0  0  0  0  0  0  0  0  0  0
    6.8289   -0.9267    3.5012 H   0  0  0  0  0  0  0  0  0  0  0  0
    5.3426    0.2365   -1.0989 H   0  0  0  0  0  0  0  0  0  0  0  0
    5.3585    2.8471    0.5493 H   0  0  0  0  0  0  0  0  0  0  0  0
    8.8998    3.2581    1.2556 H   0  0  0  0  0  0  0  0  0  0  0  0
    9.4304    1.7356    0.3258 H   0  0  0  0  0  0  0  0  0  0  0  0
    9.8521    3.3480   -0.2393 H   0  0  0  0  0  0  0  0  0  0  0  0
    7.9038    1.3651    3.4270 H   0  0  0  0  0  0  0  0  0  0  0  0
    5.9471   -3.9752    0.1884 H   0  0  0  0  0  0  0  0  0  0  0  0
  1  2  1  0
  2  3  1  0
  3  4  1  0
  4  5  1  0
  5  6  1  0
  6  7  2  0
  6  8  2  0
  6  9  1  0
  9 10  1  0
 10 11  2  0
 10 12  1  0
  5 13  1  0
 13 14  2  0
 14 15  1  0
 15 16  2  0
 16 17  1  0
 17 18  2  0
 16 19  1  0
 19 20  1  0
 20 21  1  0
 21 22  1  0
 22 23  1  0
 23 24  1  0
 22 25  1  0
 25 26  1  0
 26 27  1  0
 27 28  1  0
 28 29  2  0
 29 30  1  0
 30 31  2  0
 31 32  1  0
 32 33  2  0
 32 34  1  0
 34 35  1  0
 35 36  2  0
 35 37  2  0
 35 38  1  0
 31 39  1  0
 27 40  1  0
 18 13  1  0
 24 19  1  0
 33 28  1  0
  1 41  1  0
  1 42  1  0
  1 43  1  0
  2 44  1  0
  2 45  1  0
  3 46  1  0
  3 47  1  0
  4 48  1  0
  4 49  1  0
  9 50  1  0
  9 51  1  0
 12 52  1  0
 14 53  1  0
 15 54  1  0
 17 55  1  0
 18 56  1  0
 20 57  1  0
 20 58  1  0
 21 59  1  0
 21 60  1  0
 22 61  1  0
 23 62  1  0
 23 63  1  0
 24 64  1  0
 24 65  1  0
 25 66  1  0
 26 67  1  0
 26 68  1  0
 27 69  1  6
 29 70  1  0
 30 71  1  0
 33 72  1  0
 34 73  1  0
 38 74  1  0
 38 75  1  0
 38 76  1  0
 39 77  1  0
 40 78  1  0
M  END
>  <Ligand ID>  (1) 
LIG0004320

>  <Ligand>  (1) 
CHEMBL35500

>  <SMILES>  (1) 
CCCCN(S(=O)(=O)CC(=O)O)c1ccc(cc1)N1CCC(CC1)NC[C@@H](c1ccc(c(c1)NS(=O)(=O)C)O)O

>  <CID>  (1) 
10393774.0

>  <ChEMBL ID>  (1) 
nan

>  <InChiKey>  (1) 
QEABVDDCGKDZQS-VWLOTQADSA-N

>  <InChi>  (1) 
InChI=1S/C26H38N4O8S2/c1-3-4-13-30(40(37,38)18-26(33)34)22-8-6-21(7-9-22)29-14-11-20(12-15-29)27-17-25(32)19-5-10-24(31)23(16-19)28-39(2,35)36/h5-10,16,20,25,27-28,31-32H,3-4,11-15,17-18H2,1-2H3,(H,33,34)/t25-/m0/s1

>  <IUPAC Name>  (1) 
2-[butyl-[4-[4-[[(2R)-2-hydroxy-2-[4-hydroxy-3-(methanesulfonamido)phenyl]ethyl]amino]piperidin-1-yl]phenyl]sulfamoyl]acetic acid

$$$$
