
     RDKit          3D

 96 99  0  0  0  0  0  0  0  0999 V2000
    0.6577    7.5327   -1.8281 N   0  0  0  0  0  0  0  0  0  0  0  0
   -0.5394    7.0804   -1.2076 C   0  0  0  0  0  0  0  0  0  0  0  0
   -0.6408    5.8261   -0.9027 N   0  0  0  0  0  0  0  0  0  0  0  0
    0.5250    4.9910   -1.2432 C   0  0  0  0  0  0  0  0  0  0  0  0
    1.1184    4.5785    0.0803 C   0  0  0  0  0  0  0  0  0  0  0  0
    2.3297    3.7350   -0.1478 C   0  0  0  0  0  0  0  0  0  0  0  0
    2.0113    2.4870   -0.9058 C   0  0  1  0  0  0  0  0  0  0  0  0
    3.2886    1.6787   -1.1058 C   0  0  0  0  0  0  0  0  0  0  0  0
    4.2482    2.1714   -1.7510 O   0  0  0  0  0  0  0  0  0  0  0  0
    3.3234    0.3866   -0.5401 N   0  0  0  0  0  0  0  0  0  0  0  0
    4.4747   -0.5159   -0.6457 C   0  0  2  0  0  0  0  0  0  0  0  0
    4.1305   -1.7284   -1.3564 C   0  0  0  0  0  0  0  0  0  0  0  0
    2.8907   -1.9103   -1.6395 O   0  0  0  0  0  0  0  0  0  0  0  0
    5.0045   -2.7442   -1.7856 N   0  0  0  0  0  0  0  0  0  0  0  0
    5.0681   -0.7472    0.6892 C   0  0  0  0  0  0  0  0  0  0  0  0
    6.2114   -1.6635    0.7889 C   0  0  0  0  0  0  0  0  0  0  0  0
    7.5422   -1.3256    0.7161 C   0  0  0  0  0  0  0  0  0  0  0  0
    8.2922   -2.4498    0.8182 N   0  0  0  0  0  0  0  0  0  0  0  0
    7.5102   -3.5219    0.9569 C   0  0  0  0  0  0  0  0  0  0  0  0
    6.1961   -3.0509    0.9410 C   0  0  0  0  0  0  0  0  0  0  0  0
    5.2150   -4.0043    1.0923 C   0  0  0  0  0  0  0  0  0  0  0  0
    5.4425   -5.3344    1.2499 C   0  0  0  0  0  0  0  0  0  0  0  0
    6.7369   -5.8036    1.2646 C   0  0  0  0  0  0  0  0  0  0  0  0
    7.7404   -4.8686    1.1155 C   0  0  0  0  0  0  0  0  0  0  0  0
    1.0694    1.7053   -0.1351 N   0  0  0  0  0  0  0  0  0  0  0  0
   -0.1831    1.2655   -0.5496 C   0  0  0  0  0  0  0  0  0  0  0  0
   -0.7098    1.4884   -1.6779 O   0  0  0  0  0  0  0  0  0  0  0  0
   -1.0297    0.4419    0.3931 C   0  0  2  0  0  0  0  0  0  0  0  0
   -2.2916    0.1017   -0.2249 N   0  0  0  0  0  0  0  0  0  0  0  0
   -2.6193   -1.1277   -0.7937 C   0  0  0  0  0  0  0  0  0  0  0  0
   -1.7198   -2.0383   -0.7721 O   0  0  0  0  0  0  0  0  0  0  0  0
   -3.8985   -1.4960   -1.4235 C   0  0  2  0  0  0  0  0  0  0  0  0
   -3.7281   -1.8030   -2.9023 C   0  0  0  0  0  0  0  0  0  0  0  0
   -5.0681   -2.1606   -3.4307 C   0  0  0  0  0  0  0  0  0  0  0  0
   -5.5990   -3.4042   -3.4748 N   0  0  0  0  0  0  0  0  0  0  0  0
   -6.8417   -3.3072   -4.0327 C   0  0  0  0  0  0  0  0  0  0  0  0
   -7.0917   -2.0173   -4.3373 N   0  0  0  0  0  0  0  0  0  0  0  0
   -6.0034   -1.2947   -3.9704 C   0  0  0  0  0  0  0  0  0  0  0  0
   -4.8514   -0.3841   -1.2764 N   0  0  0  0  0  0  0  0  0  0  0  0
   -6.1093   -0.6836   -0.6451 C   0  0  0  0  0  0  0  0  0  0  0  0
   -6.3731   -1.8647   -0.2363 O   0  0  0  0  0  0  0  0  0  0  0  0
   -7.1013    0.4305   -0.4807 C   0  0  0  0  0  0  0  0  0  0  0  0
   -1.1444    1.0437    1.7501 C   0  0  0  0  0  0  0  0  0  0  0  0
   -1.9790    0.2054    2.6464 C   0  0  0  0  0  0  0  0  0  0  0  0
   -3.3389    0.3414    2.7789 C   0  0  0  0  0  0  0  0  0  0  0  0
   -4.0910   -0.4531    3.6215 C   0  0  0  0  0  0  0  0  0  0  0  0
   -3.4765   -1.4248    4.3667 C   0  0  0  0  0  0  0  0  0  0  0  0
   -2.1068   -1.6009    4.2676 C   0  0  0  0  0  0  0  0  0  0  0  0
   -1.3681   -0.7934    3.4162 C   0  0  0  0  0  0  0  0  0  0  0  0
   -4.1949   -2.3306    5.3018 C   0  0  0  0  0  0  0  0  0  0  0  0
   -5.5789   -2.1737    5.1741 F   0  0  0  0  0  0  0  0  0  0  0  0
   -3.8547   -2.0858    6.6107 F   0  0  0  0  0  0  0  0  0  0  0  0
   -3.9490   -3.6680    5.0503 F   0  0  0  0  0  0  0  0  0  0  0  0
   -1.6246    7.9556   -0.9128 N   0  0  0  0  0  0  0  0  0  0  0  0
    0.6004    7.8720   -2.8342 H   0  0  0  0  0  0  0  0  0  0  0  0
    1.5901    7.5379   -1.3132 H   0  0  0  0  0  0  0  0  0  0  0  0
    1.2721    5.5435   -1.8165 H   0  0  0  0  0  0  0  0  0  0  0  0
    0.1541    4.0928   -1.7892 H   0  0  0  0  0  0  0  0  0  0  0  0
    1.3600    5.4902    0.6736 H   0  0  0  0  0  0  0  0  0  0  0  0
    0.3208    4.0474    0.6396 H   0  0  0  0  0  0  0  0  0  0  0  0
    3.1229    4.3377   -0.6419 H   0  0  0  0  0  0  0  0  0  0  0  0
    2.6725    3.3966    0.8732 H   0  0  0  0  0  0  0  0  0  0  0  0
    1.5581    2.6887   -1.8999 H   0  0  0  0  0  0  0  0  0  0  0  0
    2.5101   -0.0115   -0.0006 H   0  0  0  0  0  0  0  0  0  0  0  0
    5.2627    0.0340   -1.2595 H   0  0  0  0  0  0  0  0  0  0  0  0
    4.7020   -3.7329   -1.8429 H   0  0  0  0  0  0  0  0  0  0  0  0
    5.9741   -2.5245   -2.0557 H   0  0  0  0  0  0  0  0  0  0  0  0
    4.2971   -1.1604    1.4206 H   0  0  0  0  0  0  0  0  0  0  0  0
    5.3685    0.2293    1.1844 H   0  0  0  0  0  0  0  0  0  0  0  0
    8.0071   -0.3519    0.5986 H   0  0  0  0  0  0  0  0  0  0  0  0
    9.3363   -2.4992    0.7945 H   0  0  0  0  0  0  0  0  0  0  0  0
    4.1832   -3.6377    1.0811 H   0  0  0  0  0  0  0  0  0  0  0  0
    4.5748   -5.9981    1.3615 H   0  0  0  0  0  0  0  0  0  0  0  0
    6.9060   -6.8615    1.3908 H   0  0  0  0  0  0  0  0  0  0  0  0
    8.7682   -5.2091    1.1233 H   0  0  0  0  0  0  0  0  0  0  0  0
    1.3788    1.4492    0.8477 H   0  0  0  0  0  0  0  0  0  0  0  0
   -0.4258   -0.5133    0.4816 H   0  0  0  0  0  0  0  0  0  0  0  0
   -3.0377    0.8605   -0.2470 H   0  0  0  0  0  0  0  0  0  0  0  0
   -4.3752   -2.3859   -0.9709 H   0  0  0  0  0  0  0  0  0  0  0  0
   -3.3534   -0.9214   -3.4613 H   0  0  0  0  0  0  0  0  0  0  0  0
   -3.0590   -2.6589   -3.0702 H   0  0  0  0  0  0  0  0  0  0  0  0
   -5.1731   -4.2999   -3.1526 H   0  0  0  0  0  0  0  0  0  0  0  0
   -7.4837   -4.1816   -4.1806 H   0  0  0  0  0  0  0  0  0  0  0  0
   -5.8727   -0.2143   -4.0764 H   0  0  0  0  0  0  0  0  0  0  0  0
   -4.6228    0.5832   -1.6171 H   0  0  0  0  0  0  0  0  0  0  0  0
   -7.2377    0.9001   -1.4852 H   0  0  0  0  0  0  0  0  0  0  0  0
   -6.5919    1.2105    0.1237 H   0  0  0  0  0  0  0  0  0  0  0  0
   -8.0327    0.0681   -0.0378 H   0  0  0  0  0  0  0  0  0  0  0  0
   -1.5812    2.0635    1.7435 H   0  0  0  0  0  0  0  0  0  0  0  0
   -0.1436    1.1175    2.2430 H   0  0  0  0  0  0  0  0  0  0  0  0
   -3.8135    1.1070    2.1893 H   0  0  0  0  0  0  0  0  0  0  0  0
   -5.1657   -0.3566    3.7360 H   0  0  0  0  0  0  0  0  0  0  0  0
   -1.5602   -2.3429    4.8235 H   0  0  0  0  0  0  0  0  0  0  0  0
   -0.2796   -0.9515    3.3539 H   0  0  0  0  0  0  0  0  0  0  0  0
   -2.2871    8.1448   -1.7119 H   0  0  0  0  0  0  0  0  0  0  0  0
   -1.7446    8.3722    0.0266 H   0  0  0  0  0  0  0  0  0  0  0  0
  1  2  1  0
  2  3  2  3
  3  4  1  0
  4  5  1  0
  5  6  1  0
  6  7  1  0
  7  8  1  0
  8  9  2  0
  8 10  1  0
 10 11  1  0
 11 12  1  0
 12 13  2  0
 12 14  1  0
 11 15  1  0
 15 16  1  0
 16 17  2  0
 17 18  1  0
 18 19  1  0
 19 20  2  0
 20 21  1  0
 21 22  2  0
 22 23  1  0
 23 24  2  0
  7 25  1  0
 25 26  1  0
 26 27  2  0
 26 28  1  0
 28 29  1  0
 29 30  1  0
 30 31  2  0
 30 32  1  0
 32 33  1  0
 33 34  1  0
 34 35  1  0
 35 36  1  0
 36 37  2  0
 37 38  1  0
 32 39  1  0
 39 40  1  0
 40 41  2  0
 40 42  1  0
 28 43  1  0
 43 44  1  0
 44 45  2  0
 45 46  1  0
 46 47  2  0
 47 48  1  0
 48 49  2  0
 47 50  1  0
 50 51  1  0
 50 52  1  0
 50 53  1  0
  2 54  1  0
 20 16  1  0
 38 34  2  0
 49 44  1  0
 24 19  1  0
  1 55  1  0
  1 56  1  0
  4 57  1  0
  4 58  1  0
  5 59  1  0
  5 60  1  0
  6 61  1  0
  6 62  1  0
  7 63  1  6
 10 64  1  0
 11 65  1  6
 14 66  1  0
 14 67  1  0
 15 68  1  0
 15 69  1  0
 17 70  1  0
 18 71  1  0
 21 72  1  0
 22 73  1  0
 23 74  1  0
 24 75  1  0
 25 76  1  0
 28 77  1  1
 29 78  1  0
 32 79  1  1
 33 80  1  0
 33 81  1  0
 35 82  1  0
 36 83  1  0
 38 84  1  0
 39 85  1  0
 42 86  1  0
 42 87  1  0
 42 88  1  0
 43 89  1  0
 43 90  1  0
 45 91  1  0
 46 92  1  0
 48 93  1  0
 49 94  1  0
 54 95  1  0
 54 96  1  0
M  END
>  <Ligand ID>  (1) 
LIG0003301

>  <Ligand>  (1) 
CHEMBL501679

>  <SMILES>  (1) 
NC(=NCCC[C@@H](C(=O)N[C@H](C(=O)N)Cc1c[nH]c2c1cccc2)NC(=O)[C@H](NC(=O)[C@H](Cc1[nH]cnc1)NC(=O)C)Cc1ccc(cc1)C(F)(F)F)N

>  <CID>  (1) 
25108217.0

>  <ChEMBL ID>  (1) 
nan

>  <InChiKey>  (1) 
OBZQTNACJLTWOC-FKWFRFQNSA-N

>  <InChi>  (1) 
InChI=1S/C35H42F3N11O5/c1-19(50)46-29(15-23-17-42-18-45-23)33(54)49-28(13-20-8-10-22(11-9-20)35(36,37)38)32(53)47-26(7-4-12-43-34(40)41)31(52)48-27(30(39)51)14-21-16-44-25-6-3-2-5-24(21)25/h2-3,5-6,8-11,16-18,26-29,44H,4,7,12-15H2,1H3,(H2,39,51)(H,42,45)(H,46,50)(H,47,53)(H,48,52)(H,49,54)(H4,40,41,43)/t26-,27-,28+,29-/m0/s1

>  <IUPAC Name>  (1) 
(2S)-2-[[(2R)-2-[[(2S)-2-acetamido-3-(1H-imidazol-5-yl)propanoyl]amino]-3-[4-(trifluoromethyl)phenyl]propanoyl]amino]-N-[(2S)-1-amino-3-(1H-indol-3-yl)-1-oxopropan-2-yl]-5-(diaminomethylideneamino)pentanamide

$$$$
