
     RDKit          3D

 34 35  0  0  0  0  0  0  0  0999 V2000
    5.4621    0.6154    3.1534 Cl  0  0  0  0  0  0  0  0  0  0  0  0
    4.5153    0.2376    1.7452 C   0  0  0  0  0  0  0  0  0  0  0  0
    3.6912   -0.8558    1.7647 C   0  0  0  0  0  0  0  0  0  0  0  0
    2.9504   -1.1336    0.6353 C   0  0  0  0  0  0  0  0  0  0  0  0
    2.9877   -0.3785   -0.5127 C   0  0  0  0  0  0  0  0  0  0  0  0
    3.8507    0.7304   -0.4752 C   0  0  0  0  0  0  0  0  0  0  0  0
    4.6029    1.0377    0.6303 C   0  0  0  0  0  0  0  0  0  0  0  0
    4.0004    1.7866   -1.8741 Cl  0  0  0  0  0  0  0  0  0  0  0  0
    2.3020   -0.5796   -1.6519 O   0  0  0  0  0  0  0  0  0  0  0  0
    1.3864   -1.4996   -2.0840 C   0  0  0  0  0  0  0  0  0  0  0  0
    0.1270   -1.4707   -1.2521 C   0  0  0  0  0  0  0  0  0  0  0  0
   -0.4978   -0.1967   -1.2996 O   0  0  0  0  0  0  0  0  0  0  0  0
   -1.6672    0.0970   -0.6246 C   0  0  0  0  0  0  0  0  0  0  0  0
   -2.2663   -0.8789    0.1328 C   0  0  0  0  0  0  0  0  0  0  0  0
   -3.4284   -0.5784    0.8005 C   0  0  0  0  0  0  0  0  0  0  0  0
   -4.0004    0.6762    0.7247 C   0  0  0  0  0  0  0  0  0  0  0  0
   -3.3792    1.6068   -0.0311 N   0  0  0  0  0  0  0  0  0  0  0  0
   -2.2373    1.3570   -0.7037 C   0  0  0  0  0  0  0  0  0  0  0  0
   -1.5947    2.3618   -1.5003 N   0  0  0  0  0  0  0  0  0  0  0  0
   -0.9656    1.9594   -2.5189 O   0  0  0  0  0  0  0  0  0  0  0  0
   -1.6523    3.6996   -1.1834 O   0  0  0  0  0  0  0  0  0  0  0  0
   -5.2532    0.9926    1.4474 C   0  0  0  0  0  0  0  0  0  0  0  0
    3.6544   -1.4585    2.6674 H   0  0  0  0  0  0  0  0  0  0  0  0
    2.3218   -1.9959    0.6685 H   0  0  0  0  0  0  0  0  0  0  0  0
    5.2663    1.8977    0.6468 H   0  0  0  0  0  0  0  0  0  0  0  0
    1.7364   -2.5588   -2.0555 H   0  0  0  0  0  0  0  0  0  0  0  0
    1.0421   -1.3452   -3.1340 H   0  0  0  0  0  0  0  0  0  0  0  0
    0.1992   -1.9048   -0.2595 H   0  0  0  0  0  0  0  0  0  0  0  0
   -0.5956   -2.1451   -1.8157 H   0  0  0  0  0  0  0  0  0  0  0  0
   -1.8712   -1.8750    0.2325 H   0  0  0  0  0  0  0  0  0  0  0  0
   -3.9411   -1.3192    1.4144 H   0  0  0  0  0  0  0  0  0  0  0  0
   -5.0791    1.4775    2.4119 H   0  0  0  0  0  0  0  0  0  0  0  0
   -5.8958    1.6237    0.7968 H   0  0  0  0  0  0  0  0  0  0  0  0
   -5.7711    0.0173    1.6357 H   0  0  0  0  0  0  0  0  0  0  0  0
  1  2  1  0
  2  3  2  0
  3  4  1  0
  4  5  2  0
  5  6  1  0
  6  7  2  0
  6  8  1  0
  5  9  1  0
  9 10  1  0
 10 11  1  0
 11 12  1  0
 12 13  1  0
 13 14  2  0
 14 15  1  0
 15 16  2  0
 16 17  1  0
 17 18  2  0
 18 19  1  0
 19 20  2  0
 19 21  1  0
 16 22  1  0
  7  2  1  0
 18 13  1  0
  3 23  1  0
  4 24  1  0
  7 25  1  0
 10 26  1  0
 10 27  1  0
 11 28  1  0
 11 29  1  0
 14 30  1  0
 15 31  1  0
 22 32  1  0
 22 33  1  0
 22 34  1  0
M  CHG  2  19   1  21  -1
M  END
>  <Ligand ID>  (1) 
LIG0001739

>  <Ligand>  (1) 
MLS000417155

>  <SMILES>  (1) 
Clc1ccc(c(c1)Cl)OCCOc1ccc(nc1[N+](=O)[O-])C

>  <CID>  (1) 
4780551.0

>  <ChEMBL ID>  (1) 
nan

>  <InChiKey>  (1) 
UCNNLUFXUJQOTI-UHFFFAOYSA-N

>  <InChi>  (1) 
InChI=1S/C14H12Cl2N2O4/c1-9-2-4-13(14(17-9)18(19)20)22-7-6-21-12-5-3-10(15)8-11(12)16/h2-5,8H,6-7H2,1H3

>  <IUPAC Name>  (1) 
3-[2-(2,4-dichlorophenoxy)ethoxy]-6-methyl-2-nitropyridine

$$$$
