
     RDKit          3D

 31 30  0  0  0  0  0  0  0  0999 V2000
   -2.7464   -0.5422   -2.0837 O   0  0  0  0  0  0  0  0  0  0  0  0
   -3.2765   -0.6562   -0.8081 C   0  0  0  0  0  0  0  0  0  0  0  0
   -2.1942   -0.7088    0.2710 C   0  0  0  0  0  0  0  0  0  0  0  0
   -1.4179    0.5679    0.1662 C   0  0  2  0  0  0  0  0  0  0  0  0
   -0.3059    0.6644    1.1742 C   0  0  0  0  0  0  0  0  0  0  0  0
    0.7205   -0.4066    1.0812 C   0  0  0  0  0  0  0  0  0  0  0  0
    1.4330   -0.4804   -0.2037 C   0  0  0  0  0  0  0  0  0  0  0  0
    2.7507   -0.3402   -0.3439 C   0  0  0  0  0  0  0  0  0  0  0  0
    3.3785   -0.4336   -1.7057 C   0  0  0  0  0  0  0  0  0  0  0  0
    3.5888   -0.0920    0.8526 C   0  0  0  0  0  0  0  0  0  0  0  0
   -2.3841    1.7039    0.4545 C   0  0  0  0  0  0  0  0  0  0  0  0
   -2.5085    0.4061   -2.3103 H   0  0  0  0  0  0  0  0  0  0  0  0
   -3.9379   -1.5257   -0.7674 H   0  0  0  0  0  0  0  0  0  0  0  0
   -3.8906    0.2465   -0.6053 H   0  0  0  0  0  0  0  0  0  0  0  0
   -1.5754   -1.6236    0.1604 H   0  0  0  0  0  0  0  0  0  0  0  0
   -2.7007   -0.7626    1.2388 H   0  0  0  0  0  0  0  0  0  0  0  0
   -1.0431    0.6287   -0.8560 H   0  0  0  0  0  0  0  0  0  0  0  0
   -0.7376    0.6115    2.1977 H   0  0  0  0  0  0  0  0  0  0  0  0
    0.2001    1.6479    1.1066 H   0  0  0  0  0  0  0  0  0  0  0  0
    1.4699   -0.1959    1.8731 H   0  0  0  0  0  0  0  0  0  0  0  0
    0.3125   -1.4170    1.3498 H   0  0  0  0  0  0  0  0  0  0  0  0
    0.8202   -0.6644   -1.0994 H   0  0  0  0  0  0  0  0  0  0  0  0
    2.6535   -0.8902   -2.3943 H   0  0  0  0  0  0  0  0  0  0  0  0
    4.2897   -1.0782   -1.6733 H   0  0  0  0  0  0  0  0  0  0  0  0
    3.6276    0.5660   -2.1260 H   0  0  0  0  0  0  0  0  0  0  0  0
    4.6355    0.1536    0.5124 H   0  0  0  0  0  0  0  0  0  0  0  0
    3.1855    0.7926    1.3827 H   0  0  0  0  0  0  0  0  0  0  0  0
    3.5975   -0.9614    1.5503 H   0  0  0  0  0  0  0  0  0  0  0  0
   -2.7584    2.1265   -0.5008 H   0  0  0  0  0  0  0  0  0  0  0  0
   -3.2869    1.3757    1.0081 H   0  0  0  0  0  0  0  0  0  0  0  0
   -1.8993    2.4848    1.0981 H   0  0  0  0  0  0  0  0  0  0  0  0
  1  2  1  0
  2  3  1  0
  3  4  1  0
  4  5  1  0
  5  6  1  0
  6  7  1  0
  7  8  2  3
  8  9  1  0
  8 10  1  0
  4 11  1  0
  1 12  1  0
  2 13  1  0
  2 14  1  0
  3 15  1  0
  3 16  1  0
  4 17  1  6
  5 18  1  0
  5 19  1  0
  6 20  1  0
  6 21  1  0
  7 22  1  0
  9 23  1  0
  9 24  1  0
  9 25  1  0
 10 26  1  0
 10 27  1  0
 10 28  1  0
 11 29  1  0
 11 30  1  0
 11 31  1  0
M  END
>  <Ligand ID>  (1) 
LIG0000088

>  <Ligand>  (1) 
(-)-beta-Citronellol

>  <SMILES>  (1) 
OCC[C@H](CCC=C(C)C)C

>  <CID>  (1) 
7793.0

>  <ChEMBL ID>  (1) 
nan

>  <InChiKey>  (1) 
QMVPMAAFGQKVCJ-JTQLQIEISA-N

>  <InChi>  (1) 
InChI=1S/C10H20O/c1-9(2)5-4-6-10(3)7-8-11/h5,10-11H,4,6-8H2,1-3H3/t10-/m0/s1

>  <IUPAC Name>  (1) 
(3S)-3,7-dimethyloct-6-en-1-ol

$$$$
