
     RDKit          3D

 18 18  0  0  0  0  0  0  0  0999 V2000
   -2.4844   -0.8921    0.1064 C   0  0  0  0  0  0  0  0  0  0  0  0
   -1.1764   -0.1490    0.0596 C   0  0  0  0  0  0  0  0  0  0  0  0
   -1.1621    1.2332    0.1046 C   0  0  0  0  0  0  0  0  0  0  0  0
    0.0089    1.9614    0.0648 C   0  0  0  0  0  0  0  0  0  0  0  0
    1.2032    1.2830   -0.0228 C   0  0  0  0  0  0  0  0  0  0  0  0
    1.1730   -0.0953   -0.0667 C   0  0  0  0  0  0  0  0  0  0  0  0
    0.0166   -0.8362   -0.0281 C   0  0  0  0  0  0  0  0  0  0  0  0
    2.4547   -0.8688   -0.1622 C   0  0  0  0  0  0  0  0  0  0  0  0
   -3.2994   -0.1698    0.2155 H   0  0  0  0  0  0  0  0  0  0  0  0
   -2.4801   -1.5442    1.0051 H   0  0  0  0  0  0  0  0  0  0  0  0
   -2.6470   -1.4688   -0.8070 H   0  0  0  0  0  0  0  0  0  0  0  0
   -2.0785    1.8032    0.1734 H   0  0  0  0  0  0  0  0  0  0  0  0
    0.0286    3.0548    0.0999 H   0  0  0  0  0  0  0  0  0  0  0  0
    2.1384    1.7926   -0.0569 H   0  0  0  0  0  0  0  0  0  0  0  0
    0.0479   -1.9152   -0.0655 H   0  0  0  0  0  0  0  0  0  0  0  0
    3.2957   -0.1668   -0.1781 H   0  0  0  0  0  0  0  0  0  0  0  0
    2.5240   -1.6007    0.6800 H   0  0  0  0  0  0  0  0  0  0  0  0
    2.4369   -1.4214   -1.1218 H   0  0  0  0  0  0  0  0  0  0  0  0
  1  2  1  0
  2  3  2  0
  3  4  1  0
  4  5  2  0
  5  6  1  0
  6  7  2  0
  6  8  1  0
  7  2  1  0
  1  9  1  0
  1 10  1  0
  1 11  1  0
  3 12  1  0
  4 13  1  0
  5 14  1  0
  7 15  1  0
  8 16  1  0
  8 17  1  0
  8 18  1  0
M  END
>  <Ligand ID>  (1) 
LIG0000536

>  <Ligand>  (1) 
m-xylene

>  <SMILES>  (1) 
Cc1cccc(c1)C

>  <CID>  (1) 
7929.0

>  <ChEMBL ID>  (1) 
nan

>  <InChiKey>  (1) 
IVSZLXZYQVIEFR-UHFFFAOYSA-N

>  <InChi>  (1) 
InChI=1S/C8H10/c1-7-4-3-5-8(2)6-7/h3-6H,1-2H3

>  <IUPAC Name>  (1) 
1,3-xylene

$$$$
