
     RDKit          3D

 30 31  0  0  0  0  0  0  0  0999 V2000
    2.0781   -1.0841   -1.2697 C   0  0  0  0  0  0  0  0  0  0  0  0
    2.1889   -0.6236    0.1409 C   0  0  0  0  0  0  0  0  0  0  0  0
    0.8839   -0.4454    0.8737 C   0  0  2  0  0  0  0  0  0  0  0  0
    0.1909   -1.7656    0.8893 C   0  0  0  0  0  0  0  0  0  0  0  0
   -1.2324   -1.6394    1.1385 N   0  0  0  0  0  0  0  0  0  0  0  0
   -1.8317   -1.6585   -0.1821 C   0  0  0  0  0  0  0  0  0  0  0  0
   -2.0060   -0.2885   -0.7079 C   0  0  0  0  0  0  0  0  0  0  0  0
   -1.1037    0.7463   -0.2239 C   0  0  0  0  0  0  0  0  0  0  0  0
    0.1013    0.6988    0.4353 C   0  0  0  0  0  0  0  0  0  0  0  0
    0.7426    1.8763    0.7752 C   0  0  0  0  0  0  0  0  0  0  0  0
    0.2106    3.1186    0.4730 C   0  0  0  0  0  0  0  0  0  0  0  0
    1.0622    4.5698    0.9253 Cl  0  0  0  0  0  0  0  0  0  0  0  0
   -0.9934    3.1725   -0.1858 C   0  0  0  0  0  0  0  0  0  0  0  0
   -1.6402    2.0036   -0.5287 C   0  0  0  0  0  0  0  0  0  0  0  0
    2.0310   -2.1954   -1.3701 H   0  0  0  0  0  0  0  0  0  0  0  0
    1.2724   -0.5884   -1.8453 H   0  0  0  0  0  0  0  0  0  0  0  0
    3.0156   -0.8010   -1.7959 H   0  0  0  0  0  0  0  0  0  0  0  0
    2.7706    0.3417    0.1348 H   0  0  0  0  0  0  0  0  0  0  0  0
    2.8608   -1.3268    0.6751 H   0  0  0  0  0  0  0  0  0  0  0  0
    1.1854   -0.2177    1.9398 H   0  0  0  0  0  0  0  0  0  0  0  0
    0.4053   -2.2910   -0.0701 H   0  0  0  0  0  0  0  0  0  0  0  0
    0.6237   -2.3834    1.6967 H   0  0  0  0  0  0  0  0  0  0  0  0
   -1.5436   -2.4929    1.6470 H   0  0  0  0  0  0  0  0  0  0  0  0
   -1.2400   -2.3000   -0.8667 H   0  0  0  0  0  0  0  0  0  0  0  0
   -2.8174   -2.1433   -0.0802 H   0  0  0  0  0  0  0  0  0  0  0  0
   -3.0859    0.0243   -0.6286 H   0  0  0  0  0  0  0  0  0  0  0  0
   -1.8408   -0.3498   -1.8242 H   0  0  0  0  0  0  0  0  0  0  0  0
    1.6906    1.8274    1.2940 H   0  0  0  0  0  0  0  0  0  0  0  0
   -1.3901    4.1552   -0.4116 H   0  0  0  0  0  0  0  0  0  0  0  0
   -2.5884    2.0604   -1.0477 H   0  0  0  0  0  0  0  0  0  0  0  0
  1  2  1  0
  2  3  1  0
  3  4  1  0
  4  5  1  0
  5  6  1  0
  6  7  1  0
  7  8  1  0
  8  9  2  0
  9 10  1  0
 10 11  2  0
 11 12  1  0
 11 13  1  0
 13 14  2  0
  9  3  1  0
 14  8  1  0
  1 15  1  0
  1 16  1  0
  1 17  1  0
  2 18  1  0
  2 19  1  0
  3 20  1  1
  4 21  1  0
  4 22  1  0
  5 23  1  0
  6 24  1  0
  6 25  1  0
  7 26  1  0
  7 27  1  0
 10 28  1  0
 13 29  1  0
 14 30  1  0
M  END
>  <Ligand ID>  (1) 
LIG0003538

>  <Ligand>  (1) 
CHEMBL253810

>  <SMILES>  (1) 
CC[C@@H]1CNCCc2c1cc(Cl)cc2

>  <CID>  (1) 
24773728.0

>  <ChEMBL ID>  (1) 
nan

>  <InChiKey>  (1) 
DNLSOPHLIKCIIV-SECBINFHSA-N

>  <InChi>  (1) 
InChI=1S/C12H16ClN/c1-2-9-8-14-6-5-10-3-4-11(13)7-12(9)10/h3-4,7,9,14H,2,5-6,8H2,1H3/t9-/m1/s1

>  <IUPAC Name>  (1) 
(5S)-7-chloro-5-ethyl-2,3,4,5-tetrahydro-1H-3-benzazepine

$$$$
