
     RDKit          3D

 43 43  0  0  0  0  0  0  0  0999 V2000
   -7.1826   -1.1705   -1.2377 O   0  0  0  0  0  0  0  0  0  0  0  0
   -6.6832   -1.6481   -0.0416 C   0  0  0  0  0  0  0  0  0  0  0  0
   -7.4253   -2.3572    0.6791 O   0  0  0  0  0  0  0  0  0  0  0  0
   -5.3130   -1.3699    0.4433 C   0  0  0  0  0  0  0  0  0  0  0  0
   -4.6824   -0.5562   -0.5400 O   0  0  0  0  0  0  0  0  0  0  0  0
   -3.3648   -0.1241   -0.3631 C   0  0  0  0  0  0  0  0  0  0  0  0
   -2.6657   -0.4942    0.7864 C   0  0  0  0  0  0  0  0  0  0  0  0
   -1.3653   -0.0657    0.9577 C   0  0  0  0  0  0  0  0  0  0  0  0
   -0.7217    0.7232    0.0268 C   0  0  0  0  0  0  0  0  0  0  0  0
   -1.4418    1.0716   -1.0995 C   0  0  0  0  0  0  0  0  0  0  0  0
   -2.7377    0.6680   -1.3114 C   0  0  0  0  0  0  0  0  0  0  0  0
   -3.4562    1.0526   -2.5001 N   0  0  0  0  0  0  0  0  0  0  0  0
   -4.3225    0.3080   -3.0063 O   0  0  0  0  0  0  0  0  0  0  0  0
   -3.1758    2.2742   -3.0891 O   0  0  0  0  0  0  0  0  0  0  0  0
    0.6534    1.2107    0.1465 C   0  0  0  0  0  0  0  0  0  0  0  0
    1.6473    0.3928    1.3874 P   0  0  0  0  0  0  0  0  0  0  0  0
    1.1073    0.5620    2.7857 O   0  0  0  0  0  0  0  0  0  0  0  0
    3.2678    1.2131    1.3869 C   0  0  0  0  0  0  0  0  0  0  0  0
    3.9644    1.1748    0.0728 C   0  0  0  0  0  0  0  0  0  0  0  0
    4.2612   -0.2105   -0.4490 C   0  0  2  0  0  0  0  0  0  0  0  0
    5.1362   -0.9833    0.4679 C   0  0  0  0  0  0  0  0  0  0  0  0
    4.8184   -1.2619    1.6588 O   0  0  0  0  0  0  0  0  0  0  0  0
    6.3894   -1.4591    0.0621 O   0  0  0  0  0  0  0  0  0  0  0  0
    4.9681   -0.1272   -1.7317 N   0  0  0  0  0  0  0  0  0  0  0  0
    1.7836   -1.2614    1.0846 O   0  0  0  0  0  0  0  0  0  0  0  0
    1.2657    1.0161   -1.0916 O   0  0  0  0  0  0  0  0  0  0  0  0
   -8.1851   -1.1506   -1.3449 H   0  0  0  0  0  0  0  0  0  0  0  0
   -5.3453   -0.8669    1.4107 H   0  0  0  0  0  0  0  0  0  0  0  0
   -4.7105   -2.3202    0.4757 H   0  0  0  0  0  0  0  0  0  0  0  0
   -3.1573   -1.1193    1.5372 H   0  0  0  0  0  0  0  0  0  0  0  0
   -0.8280   -0.3554    1.8509 H   0  0  0  0  0  0  0  0  0  0  0  0
   -0.9939    1.6986   -1.8848 H   0  0  0  0  0  0  0  0  0  0  0  0
    0.6196    2.2880    0.3251 H   0  0  0  0  0  0  0  0  0  0  0  0
    3.9485    0.8158    2.1817 H   0  0  0  0  0  0  0  0  0  0  0  0
    3.1121    2.2879    1.7077 H   0  0  0  0  0  0  0  0  0  0  0  0
    3.4937    1.8101   -0.6962 H   0  0  0  0  0  0  0  0  0  0  0  0
    4.9759    1.6488    0.2445 H   0  0  0  0  0  0  0  0  0  0  0  0
    3.3030   -0.7556   -0.5991 H   0  0  0  0  0  0  0  0  0  0  0  0
    7.1249   -1.6377    0.7389 H   0  0  0  0  0  0  0  0  0  0  0  0
    5.6328    0.6516   -1.7195 H   0  0  0  0  0  0  0  0  0  0  0  0
    4.3465   -0.1784   -2.5451 H   0  0  0  0  0  0  0  0  0  0  0  0
    1.1212   -1.7364    1.6427 H   0  0  0  0  0  0  0  0  0  0  0  0
    0.8172    0.3418   -1.6400 H   0  0  0  0  0  0  0  0  0  0  0  0
  1  2  1  0
  2  3  2  0
  2  4  1  0
  4  5  1  0
  5  6  1  0
  6  7  2  0
  7  8  1  0
  8  9  2  0
  9 10  1  0
 10 11  2  0
 11 12  1  0
 12 13  2  0
 12 14  1  0
  9 15  1  0
 15 16  1  0
 16 17  2  0
 16 18  1  0
 18 19  1  0
 19 20  1  0
 20 21  1  0
 21 22  2  0
 21 23  1  0
 20 24  1  0
 16 25  1  0
 15 26  1  0
 11  6  1  0
  1 27  1  0
  4 28  1  0
  4 29  1  0
  7 30  1  0
  8 31  1  0
 10 32  1  0
 15 33  1  0
 18 34  1  0
 18 35  1  0
 19 36  1  0
 19 37  1  0
 20 38  1  6
 23 39  1  0
 24 40  1  0
 24 41  1  0
 25 42  1  0
 26 43  1  0
M  CHG  2  12   1  14  -1
M  END
>  <Ligand ID>  (1) 
LIG0002474

>  <Ligand>  (1) 
US9212196, Derivative 24

>  <SMILES>  (1) 
OC(=O)COc1ccc(cc1[N+](=O)[O-])C(P(=O)(CC[C@H](C(=O)O)N)O)O

>  <CID>  (1) 
122197954.0

>  <ChEMBL ID>  (1) 
nan

>  <InChiKey>  (1) 
UFAMDVHATQKVBA-UOGPZTOASA-N

>  <InChi>  (1) 
InChI=1S/C13H17N2O10P/c14-8(12(18)19)3-4-26(23,24)13(20)7-1-2-10(25-6-11(16)17)9(5-7)15(21)22/h1-2,5,8,13,20H,3-4,6,14H2,(H,16,17)(H,18,19)(H,23,24)/t8-,13?/m1/s1

>  <IUPAC Name>  (1) 
(2R)-2-amino-4-[[[4-(carboxymethoxy)-3-nitrophenyl]-hydroxymethyl]-hydroxyphosphoryl]butanoic acid

$$$$
