
     RDKit          3D

135138  0  0  0  0  0  0  0  0999 V2000
   15.0970   -3.4965    0.4779 C   0  0  0  0  0  0  0  0  0  0  0  0
   15.2693   -2.0646    0.2018 C   0  0  0  0  0  0  0  0  0  0  0  0
   14.1145   -1.1726    0.4780 C   0  0  0  0  0  0  0  0  0  0  0  0
   12.8333   -1.4244   -0.2331 C   0  0  0  0  0  0  0  0  0  0  0  0
   12.0646   -2.6439    0.0542 C   0  0  0  0  0  0  0  0  0  0  0  0
   11.5643   -2.7578    1.4714 C   0  0  0  0  0  0  0  0  0  0  0  0
   10.6569   -1.5940    1.8362 C   0  0  0  0  0  0  0  0  0  0  0  0
    9.4590   -1.4717    0.9589 C   0  0  0  0  0  0  0  0  0  0  0  0
    8.5979   -0.2322    1.3160 C   0  0  0  0  0  0  0  0  0  0  0  0
    8.0586   -0.2733    2.6936 C   0  0  0  0  0  0  0  0  0  0  0  0
    7.3688    0.9125    3.1645 C   0  0  0  0  0  0  0  0  0  0  0  0
    6.2016    1.5983    2.6227 C   0  0  0  0  0  0  0  0  0  0  0  0
    6.1308    2.3347    1.3748 C   0  0  0  0  0  0  0  0  0  0  0  0
    6.2751    1.7777    0.0349 C   0  0  0  0  0  0  0  0  0  0  0  0
    5.3087    0.7349   -0.4242 C   0  0  0  0  0  0  0  0  0  0  0  0
    3.9371    1.2897   -0.4791 C   0  0  0  0  0  0  0  0  0  0  0  0
    3.6199    2.4325   -0.0589 O   0  0  0  0  0  0  0  0  0  0  0  0
    2.8294    0.5415   -1.0441 N   0  0  0  0  0  0  0  0  0  0  0  0
    1.5598    1.2223   -1.0410 C   0  0  2  0  0  0  0  0  0  0  0  0
    0.4446    0.2865   -1.0966 C   0  0  0  0  0  0  0  0  0  0  0  0
    0.5135   -0.9665   -1.1064 O   0  0  0  0  0  0  0  0  0  0  0  0
   -0.8764    0.8708   -1.1491 N   0  0  0  0  0  0  0  0  0  0  0  0
   -2.0917    0.0895   -1.2292 C   0  0  1  0  0  0  0  0  0  0  0  0
   -2.9480    0.3980   -0.0879 C   0  0  0  0  0  0  0  0  0  0  0  0
   -2.4063    1.0162    0.8934 O   0  0  0  0  0  0  0  0  0  0  0  0
   -4.3126    0.0876    0.0583 N   0  0  0  0  0  0  0  0  0  0  0  0
   -5.1356    0.3487    1.2015 C   0  0  2  0  0  0  0  0  0  0  0  0
   -6.1970   -0.6938    1.1877 C   0  0  0  0  0  0  0  0  0  0  0  0
   -6.0044   -1.6163    0.3081 O   0  0  0  0  0  0  0  0  0  0  0  0
   -7.3194   -0.7038    2.0276 N   0  0  0  0  0  0  0  0  0  0  0  0
   -8.3656   -1.7350    1.9799 C   0  0  2  0  0  0  0  0  0  0  0  0
   -7.7909   -3.0962    2.2275 C   0  0  0  0  0  0  0  0  0  0  0  0
   -8.5154   -4.1254    2.2544 O   0  0  0  0  0  0  0  0  0  0  0  0
   -6.3885   -3.2942    2.4457 N   0  0  0  0  0  0  0  0  0  0  0  0
   -8.9740   -1.6601    0.5971 C   0  0  0  0  0  0  0  0  0  0  0  0
  -10.0534   -2.6619    0.4823 C   0  0  0  0  0  0  0  0  0  0  0  0
   -9.9991   -3.8869   -0.1260 C   0  0  0  0  0  0  0  0  0  0  0  0
  -11.1701   -4.5093   -0.0289 N   0  0  0  0  0  0  0  0  0  0  0  0
  -11.9839   -3.6964    0.6381 C   0  0  0  0  0  0  0  0  0  0  0  0
  -11.3175   -2.5232    0.9776 C   0  0  0  0  0  0  0  0  0  0  0  0
  -11.9385   -1.5132    1.6696 C   0  0  0  0  0  0  0  0  0  0  0  0
  -13.2642   -1.6167    2.0628 C   0  0  0  0  0  0  0  0  0  0  0  0
  -13.9131   -2.7799    1.7227 C   0  0  0  0  0  0  0  0  0  0  0  0
  -13.3045   -3.7949    1.0324 C   0  0  0  0  0  0  0  0  0  0  0  0
   -5.6686    1.7273    1.2449 C   0  0  0  0  0  0  0  0  0  0  0  0
   -6.5545    2.1026    0.1002 C   0  0  0  0  0  0  0  0  0  0  0  0
   -7.0553    3.5295    0.2511 C   0  0  0  0  0  0  0  0  0  0  0  0
   -7.8230    3.7877    1.4060 N   0  0  0  0  0  0  0  0  0  0  0  0
   -8.9611    3.2388    1.6121 C   0  0  0  0  0  0  0  0  0  0  0  0
   -9.6293    3.5878    2.8258 N   0  0  0  0  0  0  0  0  0  0  0  0
   -9.6004    2.3374    0.7435 N   0  0  0  0  0  0  0  0  0  0  0  0
   -2.6808    0.0959   -2.5919 C   0  0  0  0  0  0  0  0  0  0  0  0
   -3.0875    1.3593   -3.1713 C   0  0  0  0  0  0  0  0  0  0  0  0
   -2.2677    2.2757   -3.7959 C   0  0  0  0  0  0  0  0  0  0  0  0
   -2.7560    3.4402   -4.3579 C   0  0  0  0  0  0  0  0  0  0  0  0
   -4.0972    3.7453   -4.3216 C   0  0  0  0  0  0  0  0  0  0  0  0
   -4.9388    2.8474   -3.7044 C   0  0  0  0  0  0  0  0  0  0  0  0
   -4.4460    1.6945   -3.1496 C   0  0  0  0  0  0  0  0  0  0  0  0
    1.4640    2.1749   -2.2310 C   0  0  0  0  0  0  0  0  0  0  0  0
    1.5843    1.5595   -3.5435 C   0  0  0  0  0  0  0  0  0  0  0  0
    1.5166    2.3257   -4.6902 N   0  0  0  0  0  0  0  0  0  0  0  0
    1.6530    1.5236   -5.7577 C   0  0  0  0  0  0  0  0  0  0  0  0
    1.8079    0.2652   -5.3637 N   0  0  0  0  0  0  0  0  0  0  0  0
    1.7637    0.2939   -3.9996 C   0  0  0  0  0  0  0  0  0  0  0  0
   14.7652   -3.9987   -0.4646 H   0  0  0  0  0  0  0  0  0  0  0  0
   14.4517   -3.6638    1.3380 H   0  0  0  0  0  0  0  0  0  0  0  0
   16.1205   -3.9251    0.7113 H   0  0  0  0  0  0  0  0  0  0  0  0
   15.5778   -1.8608   -0.8752 H   0  0  0  0  0  0  0  0  0  0  0  0
   16.1912   -1.7245    0.7605 H   0  0  0  0  0  0  0  0  0  0  0  0
   14.4743   -0.1205    0.2084 H   0  0  0  0  0  0  0  0  0  0  0  0
   13.9338   -1.1437    1.6094 H   0  0  0  0  0  0  0  0  0  0  0  0
   12.1968   -0.4961   -0.2648 H   0  0  0  0  0  0  0  0  0  0  0  0
   13.1304   -1.5133   -1.3401 H   0  0  0  0  0  0  0  0  0  0  0  0
   12.6085   -3.5486   -0.2260 H   0  0  0  0  0  0  0  0  0  0  0  0
   11.1722   -2.6402   -0.6522 H   0  0  0  0  0  0  0  0  0  0  0  0
   12.4084   -2.8191    2.1761 H   0  0  0  0  0  0  0  0  0  0  0  0
   10.9708   -3.6812    1.5594 H   0  0  0  0  0  0  0  0  0  0  0  0
   11.1622   -0.6393    1.9514 H   0  0  0  0  0  0  0  0  0  0  0  0
   10.2664   -1.8886    2.8596 H   0  0  0  0  0  0  0  0  0  0  0  0
    8.7466   -2.3402    1.0842 H   0  0  0  0  0  0  0  0  0  0  0  0
    9.6624   -1.4521   -0.1293 H   0  0  0  0  0  0  0  0  0  0  0  0
    7.7279   -0.4236    0.5750 H   0  0  0  0  0  0  0  0  0  0  0  0
    9.1278    0.6618    1.0054 H   0  0  0  0  0  0  0  0  0  0  0  0
    8.9597   -0.5123    3.3674 H   0  0  0  0  0  0  0  0  0  0  0  0
    7.4019   -1.2108    2.8279 H   0  0  0  0  0  0  0  0  0  0  0  0
    8.1698    1.7888    3.2956 H   0  0  0  0  0  0  0  0  0  0  0  0
    7.2142    0.7501    4.3206 H   0  0  0  0  0  0  0  0  0  0  0  0
    5.8863    2.3486    3.4466 H   0  0  0  0  0  0  0  0  0  0  0  0
    5.2714    0.8920    2.7170 H   0  0  0  0  0  0  0  0  0  0  0  0
    5.1875    2.9779    1.4209 H   0  0  0  0  0  0  0  0  0  0  0  0
    6.9255    3.1737    1.4580 H   0  0  0  0  0  0  0  0  0  0  0  0
    7.3260    1.6272   -0.3494 H   0  0  0  0  0  0  0  0  0  0  0  0
    5.9929    2.6866   -0.6671 H   0  0  0  0  0  0  0  0  0  0  0  0
    5.5966    0.4887   -1.4928 H   0  0  0  0  0  0  0  0  0  0  0  0
    5.3748   -0.2094    0.1345 H   0  0  0  0  0  0  0  0  0  0  0  0
    3.0126   -0.4125   -1.4005 H   0  0  0  0  0  0  0  0  0  0  0  0
    1.5095    1.9499   -0.1648 H   0  0  0  0  0  0  0  0  0  0  0  0
   -1.0109    1.9143   -1.1277 H   0  0  0  0  0  0  0  0  0  0  0  0
   -1.6825   -0.9947   -1.0686 H   0  0  0  0  0  0  0  0  0  0  0  0
   -4.7590   -0.3937   -0.7823 H   0  0  0  0  0  0  0  0  0  0  0  0
   -4.5312    0.2230    2.1340 H   0  0  0  0  0  0  0  0  0  0  0  0
   -7.4066    0.0720    2.7256 H   0  0  0  0  0  0  0  0  0  0  0  0
   -9.0910   -1.5345    2.7819 H   0  0  0  0  0  0  0  0  0  0  0  0
   -5.9871   -2.7564    3.2626 H   0  0  0  0  0  0  0  0  0  0  0  0
   -5.8188   -3.9139    1.8507 H   0  0  0  0  0  0  0  0  0  0  0  0
   -9.4296   -0.6230    0.5383 H   0  0  0  0  0  0  0  0  0  0  0  0
   -8.1919   -1.7909   -0.1506 H   0  0  0  0  0  0  0  0  0  0  0  0
   -9.1421   -4.3444   -0.6378 H   0  0  0  0  0  0  0  0  0  0  0  0
  -11.4301   -5.4665   -0.3994 H   0  0  0  0  0  0  0  0  0  0  0  0
  -11.3450   -0.6299    1.8958 H   0  0  0  0  0  0  0  0  0  0  0  0
  -13.7323   -0.8206    2.5969 H   0  0  0  0  0  0  0  0  0  0  0  0
  -14.9486   -2.8918    2.0176 H   0  0  0  0  0  0  0  0  0  0  0  0
  -13.8750   -4.6915    0.7946 H   0  0  0  0  0  0  0  0  0  0  0  0
   -4.7644    2.4119    1.1453 H   0  0  0  0  0  0  0  0  0  0  0  0
   -6.0820    2.0275    2.2329 H   0  0  0  0  0  0  0  0  0  0  0  0
   -5.9216    2.1208   -0.8058 H   0  0  0  0  0  0  0  0  0  0  0  0
   -7.4151    1.4052   -0.0272 H   0  0  0  0  0  0  0  0  0  0  0  0
   -7.5889    3.7442   -0.7198 H   0  0  0  0  0  0  0  0  0  0  0  0
   -6.1772    4.2354    0.2413 H   0  0  0  0  0  0  0  0  0  0  0  0
  -10.2119    2.8951    3.3680 H   0  0  0  0  0  0  0  0  0  0  0  0
   -9.5468    4.5637    3.2006 H   0  0  0  0  0  0  0  0  0  0  0  0
  -10.1558    1.5498    1.1898 H   0  0  0  0  0  0  0  0  0  0  0  0
   -9.5581    2.4023   -0.3183 H   0  0  0  0  0  0  0  0  0  0  0  0
   -3.4702   -0.6948   -2.6472 H   0  0  0  0  0  0  0  0  0  0  0  0
   -1.8754   -0.3265   -3.2740 H   0  0  0  0  0  0  0  0  0  0  0  0
   -1.2187    2.0443   -3.8287 H   0  0  0  0  0  0  0  0  0  0  0  0
   -2.0874    4.1628   -4.8484 H   0  0  0  0  0  0  0  0  0  0  0  0
   -4.5179    4.6473   -4.7493 H   0  0  0  0  0  0  0  0  0  0  0  0
   -6.0050    3.0590   -3.6606 H   0  0  0  0  0  0  0  0  0  0  0  0
   -5.1146    1.0095   -2.6907 H   0  0  0  0  0  0  0  0  0  0  0  0
    2.2945    2.9416   -2.1640 H   0  0  0  0  0  0  0  0  0  0  0  0
    0.5476    2.7825   -2.0637 H   0  0  0  0  0  0  0  0  0  0  0  0
    1.3755    3.3791   -4.7216 H   0  0  0  0  0  0  0  0  0  0  0  0
    1.6325    1.8986   -6.7678 H   0  0  0  0  0  0  0  0  0  0  0  0
    1.8612   -0.5867   -3.4227 H   0  0  0  0  0  0  0  0  0  0  0  0
  1  2  1  0
  2  3  1  0
  3  4  1  0
  4  5  1  0
  5  6  1  0
  6  7  1  0
  7  8  1  0
  8  9  1  0
  9 10  1  0
 10 11  1  0
 11 12  1  0
 12 13  1  0
 13 14  1  0
 14 15  1  0
 15 16  1  0
 16 17  2  0
 16 18  1  0
 18 19  1  0
 19 20  1  0
 20 21  2  0
 20 22  1  0
 22 23  1  0
 23 24  1  0
 24 25  2  0
 24 26  1  0
 26 27  1  0
 27 28  1  0
 28 29  2  0
 28 30  1  0
 30 31  1  0
 31 32  1  0
 32 33  2  0
 32 34  1  0
 31 35  1  0
 35 36  1  0
 36 37  2  0
 37 38  1  0
 38 39  1  0
 39 40  2  0
 40 41  1  0
 41 42  2  0
 42 43  1  0
 43 44  2  0
 27 45  1  0
 45 46  1  0
 46 47  1  0
 47 48  1  0
 48 49  2  3
 49 50  1  0
 49 51  1  0
 23 52  1  0
 52 53  1  0
 53 54  2  0
 54 55  1  0
 55 56  2  0
 56 57  1  0
 57 58  2  0
 19 59  1  0
 59 60  1  0
 60 61  1  0
 61 62  1  0
 62 63  2  0
 63 64  1  0
 40 36  1  0
 58 53  1  0
 64 60  2  0
 44 39  1  0
  1 65  1  0
  1 66  1  0
  1 67  1  0
  2 68  1  0
  2 69  1  0
  3 70  1  0
  3 71  1  0
  4 72  1  0
  4 73  1  0
  5 74  1  0
  5 75  1  0
  6 76  1  0
  6 77  1  0
  7 78  1  0
  7 79  1  0
  8 80  1  0
  8 81  1  0
  9 82  1  0
  9 83  1  0
 10 84  1  0
 10 85  1  0
 11 86  1  0
 11 87  1  0
 12 88  1  0
 12 89  1  0
 13 90  1  0
 13 91  1  0
 14 92  1  0
 14 93  1  0
 15 94  1  0
 15 95  1  0
 18 96  1  0
 19 97  1  1
 22 98  1  0
 23 99  1  1
 26100  1  0
 27101  1  1
 30102  1  0
 31103  1  1
 34104  1  0
 34105  1  0
 35106  1  0
 35107  1  0
 37108  1  0
 38109  1  0
 41110  1  0
 42111  1  0
 43112  1  0
 44113  1  0
 45114  1  0
 45115  1  0
 46116  1  0
 46117  1  0
 47118  1  0
 47119  1  0
 50120  1  0
 50121  1  0
 51122  1  0
 51123  1  0
 52124  1  0
 52125  1  0
 54126  1  0
 55127  1  0
 56128  1  0
 57129  1  0
 58130  1  0
 59131  1  0
 59132  1  0
 61133  1  0
 62134  1  0
 64135  1  0
M  END
>  <Ligand ID>  (1) 
LIG0001889

>  <Ligand>  (1) 
CHEMBL265236

>  <SMILES>  (1) 
CCCCCCCCCCCCCCCC(=O)N[C@H](C(=O)N[C@@H](C(=O)N[C@H](C(=O)N[C@H](C(=O)N)Cc1c[nH]c2c1cccc2)CCCN=C(N)N)Cc1ccccc1)Cc1[nH]cnc1

>  <CID>  (1) 
11423083.0

>  <ChEMBL ID>  (1) 
nan

>  <InChiKey>  (1) 
FTHMBGYIBAGPMD-GFUJKPJOSA-N

>  <InChi>  (1) 
InChI=1S/C48H71N11O5/c1-2-3-4-5-6-7-8-9-10-11-12-13-17-26-43(60)56-42(30-36-32-52-33-55-36)47(64)59-41(28-34-21-15-14-16-22-34)46(63)57-39(25-20-27-53-48(50)51)45(62)58-40(44(49)61)29-35-31-54-38-24-19-18-23-37(35)38/h14-16,18-19,21-24,31-33,39-42,54H,2-13,17,20,25-30H2,1H3,(H2,49,61)(H,52,55)(H,56,60)(H,57,63)(H,58,62)(H,59,64)(H4,50,51,53)/t39-,40-,41+,42-/m0/s1

>  <IUPAC Name>  (1) 
N-[(2S)-1-[[(2R)-1-[[(2S)-1-[[(2S)-1-amino-3-(1H-indol-3-yl)-1-oxopropan-2-yl]amino]-5-(diaminomethylideneamino)-1-oxopentan-2-yl]amino]-1-oxo-3-phenylpropan-2-yl]amino]-3-(1H-imidazol-5-yl)-1-oxopropan-2-yl]hexadecanamide

$$$$
