
     RDKit          3D

 47 48  0  0  0  0  0  0  0  0999 V2000
   -7.2850   -0.5399    2.0253 C   0  0  0  0  0  0  0  0  0  0  0  0
   -6.0132   -0.4579    1.2739 C   0  0  0  0  0  0  0  0  0  0  0  0
   -5.2877    0.7109    1.3817 C   0  0  0  0  0  0  0  0  0  0  0  0
   -4.0955    0.8037    0.6850 C   0  0  0  0  0  0  0  0  0  0  0  0
   -3.4643    1.8936    0.8137 O   0  0  0  0  0  0  0  0  0  0  0  0
   -3.6152   -0.1857   -0.0865 N   0  0  0  0  0  0  0  0  0  0  0  0
   -4.3679   -1.3115   -0.1568 C   0  0  0  0  0  0  0  0  0  0  0  0
   -3.9683   -2.2856   -0.8708 O   0  0  0  0  0  0  0  0  0  0  0  0
   -5.5331   -1.4465    0.5029 N   0  0  0  0  0  0  0  0  0  0  0  0
   -2.3869   -0.0752   -0.7972 C   0  0  2  0  0  0  0  0  0  0  0  0
   -1.2419   -0.1944    0.0162 O   0  0  0  0  0  0  0  0  0  0  0  0
   -0.2467    0.1577   -0.9236 C   0  0  1  0  0  0  0  0  0  0  0  0
   -0.7696    1.5291   -1.3125 C   0  0  2  0  0  0  0  0  0  0  0  0
   -2.2188    1.1476   -1.6354 C   0  0  1  0  0  0  0  0  0  0  0  0
   -2.2095    0.8624   -3.0188 O   0  0  0  0  0  0  0  0  0  0  0  0
   -0.1112    2.0754   -2.3976 O   0  0  0  0  0  0  0  0  0  0  0  0
    1.1125    0.3113   -0.2847 C   0  0  0  0  0  0  0  0  0  0  0  0
    2.0099    0.6595   -1.3122 O   0  0  0  0  0  0  0  0  0  0  0  0
    3.5754    0.8560   -0.6889 P   0  0  0  0  0  0  0  0  0  0  0  0
    4.6192    0.5308   -1.7236 O   0  0  0  0  0  0  0  0  0  0  0  0
    3.6972   -0.1086    0.6739 O   0  0  0  0  0  0  0  0  0  0  0  0
    4.7669   -1.4116    0.4605 P   0  0  0  0  0  0  0  0  0  0  0  0
    5.3993   -1.3978   -0.9068 O   0  0  0  0  0  0  0  0  0  0  0  0
    5.9044   -1.4710    1.7109 O   0  0  0  0  0  0  0  0  0  0  0  0
    7.2699   -0.5410    1.3782 P   0  0  0  0  0  0  0  0  0  0  0  0
    7.0450    0.8329    1.9544 O   0  0  0  0  0  0  0  0  0  0  0  0
    7.4152   -0.4261   -0.3086 O   0  0  0  0  0  0  0  0  0  0  0  0
    8.6617   -1.2348    2.0762 O   0  0  0  0  0  0  0  0  0  0  0  0
    3.8393   -2.8363    0.5876 O   0  0  0  0  0  0  0  0  0  0  0  0
    3.7542    2.5035   -0.3213 O   0  0  0  0  0  0  0  0  0  0  0  0
   -7.8296   -1.4911    1.8151 H   0  0  0  0  0  0  0  0  0  0  0  0
   -7.1172   -0.4379    3.1160 H   0  0  0  0  0  0  0  0  0  0  0  0
   -8.0191    0.2553    1.7463 H   0  0  0  0  0  0  0  0  0  0  0  0
   -5.6451    1.5254    1.9932 H   0  0  0  0  0  0  0  0  0  0  0  0
   -6.0808   -2.3347    0.4188 H   0  0  0  0  0  0  0  0  0  0  0  0
   -2.2967   -0.9519   -1.5022 H   0  0  0  0  0  0  0  0  0  0  0  0
   -0.2548   -0.5641   -1.7370 H   0  0  0  0  0  0  0  0  0  0  0  0
   -0.7128    2.1490   -0.3986 H   0  0  0  0  0  0  0  0  0  0  0  0
   -2.9281    1.9568   -1.4703 H   0  0  0  0  0  0  0  0  0  0  0  0
   -1.8348   -0.0334   -3.1563 H   0  0  0  0  0  0  0  0  0  0  0  0
    0.3682    1.3629   -2.8666 H   0  0  0  0  0  0  0  0  0  0  0  0
    1.0896    1.0259    0.5370 H   0  0  0  0  0  0  0  0  0  0  0  0
    1.4088   -0.6746    0.0955 H   0  0  0  0  0  0  0  0  0  0  0  0
    7.3269    0.5184   -0.5846 H   0  0  0  0  0  0  0  0  0  0  0  0
    9.3935   -1.0916    1.4200 H   0  0  0  0  0  0  0  0  0  0  0  0
    3.6205   -2.9234    1.5612 H   0  0  0  0  0  0  0  0  0  0  0  0
    3.2563    2.7583    0.5012 H   0  0  0  0  0  0  0  0  0  0  0  0
  1  2  1  0
  2  3  2  0
  3  4  1  0
  4  5  2  0
  4  6  1  0
  6  7  1  0
  7  8  2  0
  7  9  1  0
  6 10  1  0
 10 11  1  0
 11 12  1  0
 12 13  1  0
 13 14  1  0
 14 15  1  0
 13 16  1  0
 12 17  1  0
 17 18  1  0
 18 19  1  0
 19 20  2  0
 19 21  1  0
 21 22  1  0
 22 23  2  0
 22 24  1  0
 24 25  1  0
 25 26  2  0
 25 27  1  0
 25 28  1  0
 22 29  1  0
 19 30  1  0
  9  2  1  0
 14 10  1  0
  1 31  1  0
  1 32  1  0
  1 33  1  0
  3 34  1  0
  9 35  1  0
 10 36  1  6
 12 37  1  6
 13 38  1  1
 14 39  1  6
 15 40  1  0
 16 41  1  0
 17 42  1  0
 17 43  1  0
 27 44  1  0
 28 45  1  0
 29 46  1  0
 30 47  1  0
M  END
>  <Ligand ID>  (1) 
LIG0003791

>  <Ligand>  (1) 
CHEMBL413841

>  <SMILES>  (1) 
Cc1cc(=O)n(c(=O)[nH]1)[C@@H]1O[C@@H]([C@H]([C@H]1O)O)COP(=O)(OP(=O)(OP(=O)(O)O)O)O

>  <CID>  (1) 
11994009.0

>  <ChEMBL ID>  (1) 
nan

>  <InChiKey>  (1) 
AROARRWARGPJJC-ZOQUXTDFSA-N

>  <InChi>  (1) 
InChI=1S/C10H17N2O15P3/c1-4-2-6(13)12(10(16)11-4)9-8(15)7(14)5(25-9)3-24-29(20,21)27-30(22,23)26-28(17,18)19/h2,5,7-9,14-15H,3H2,1H3,(H,11,16)(H,20,21)(H,22,23)(H2,17,18,19)/t5-,7-,8-,9-/m1/s1

>  <IUPAC Name>  (1) 
[[(2R,3S,4R,5R)-3,4-dihydroxy-5-(6-methyl-2,4-dioxo-1H-pyrimidin-3-yl)oxolan-2-yl]methoxy-hydroxyphosphoryl] phosphono hydrogen phosphate

$$$$
