
     RDKit          3D

 40 43  0  0  0  0  0  0  0  0999 V2000
    8.8931    1.7295   -0.0199 Cl  0  0  0  0  0  0  0  0  0  0  0  0
    7.4507    0.7285   -0.1392 C   0  0  0  0  0  0  0  0  0  0  0  0
    7.4908   -0.5717   -0.5986 C   0  0  0  0  0  0  0  0  0  0  0  0
    6.3154   -1.2915   -0.6623 C   0  0  0  0  0  0  0  0  0  0  0  0
    5.1004   -0.7469   -0.2792 C   0  0  0  0  0  0  0  0  0  0  0  0
    5.0598    0.5386    0.1751 C   0  0  0  0  0  0  0  0  0  0  0  0
    6.2372    1.2588    0.2387 C   0  0  0  0  0  0  0  0  0  0  0  0
    3.6662    0.8565    0.5081 C   0  0  0  0  0  0  0  0  0  0  0  0
    3.3541    1.9919    0.9549 O   0  0  0  0  0  0  0  0  0  0  0  0
    2.8311   -0.2801    0.2448 N   0  0  0  0  0  0  0  0  0  0  0  0
    3.7215   -1.2727   -0.2435 C   0  0  0  0  0  0  0  0  0  0  0  0
    3.4822   -2.4471   -0.6178 O   0  0  0  0  0  0  0  0  0  0  0  0
    1.4438   -0.2695    0.4250 C   0  0  0  0  0  0  0  0  0  0  0  0
    0.7688    0.9548    0.3544 C   0  0  0  0  0  0  0  0  0  0  0  0
   -0.5965    1.0531    0.5544 C   0  0  0  0  0  0  0  0  0  0  0  0
   -1.3645   -0.0448    0.8328 C   0  0  0  0  0  0  0  0  0  0  0  0
   -0.7252   -1.2598    0.9078 C   0  0  0  0  0  0  0  0  0  0  0  0
    0.6580   -1.3634    0.7065 C   0  0  0  0  0  0  0  0  0  0  0  0
    1.3241   -2.9665    0.8749 Cl  0  0  0  0  0  0  0  0  0  0  0  0
   -2.7631    0.1083    1.0295 N   0  0  0  0  0  0  0  0  0  0  0  0
   -3.7151    0.0252   -0.0243 C   0  0  0  0  0  0  0  0  0  0  0  0
   -3.4046   -0.1900   -1.2164 O   0  0  0  0  0  0  0  0  0  0  0  0
   -5.1381    0.2030    0.3156 C   0  0  0  0  0  0  0  0  0  0  0  0
   -5.6503    0.4362    1.5107 O   0  0  0  0  0  0  0  0  0  0  0  0
   -6.9408    0.5440    1.4796 C   0  0  0  0  0  0  0  0  0  0  0  0
   -7.3645    0.3775    0.1899 C   0  0  0  0  0  0  0  0  0  0  0  0
   -6.2064    0.1594   -0.5521 C   0  0  0  0  0  0  0  0  0  0  0  0
   -6.1581   -0.0763   -2.0200 C   0  0  0  0  0  0  0  0  0  0  0  0
    8.4510   -0.9558   -0.8852 H   0  0  0  0  0  0  0  0  0  0  0  0
    6.3600   -2.3168   -1.0266 H   0  0  0  0  0  0  0  0  0  0  0  0
    6.2106    2.2955    0.6041 H   0  0  0  0  0  0  0  0  0  0  0  0
    1.2715    1.8840    0.1315 H   0  0  0  0  0  0  0  0  0  0  0  0
   -1.0976    2.0144    0.4947 H   0  0  0  0  0  0  0  0  0  0  0  0
   -1.3289   -2.1281    1.1273 H   0  0  0  0  0  0  0  0  0  0  0  0
   -3.0932    0.2909    2.0046 H   0  0  0  0  0  0  0  0  0  0  0  0
   -7.5542    0.7337    2.3432 H   0  0  0  0  0  0  0  0  0  0  0  0
   -8.3862    0.4102   -0.1684 H   0  0  0  0  0  0  0  0  0  0  0  0
   -5.5353   -0.9572   -2.2763 H   0  0  0  0  0  0  0  0  0  0  0  0
   -7.1956   -0.3075   -2.3847 H   0  0  0  0  0  0  0  0  0  0  0  0
   -5.8721    0.8519   -2.5612 H   0  0  0  0  0  0  0  0  0  0  0  0
  1  2  1  0
  2  3  2  0
  3  4  1  0
  4  5  2  0
  5  6  1  0
  6  7  2  0
  6  8  1  0
  8  9  2  0
  8 10  1  0
 10 11  1  0
 11 12  2  0
 10 13  1  0
 13 14  2  0
 14 15  1  0
 15 16  2  0
 16 17  1  0
 17 18  2  0
 18 19  1  0
 16 20  1  0
 20 21  1  0
 21 22  2  0
 21 23  1  0
 23 24  1  0
 24 25  1  0
 25 26  2  0
 26 27  1  0
 27 28  1  0
  7  2  1  0
 18 13  1  0
 27 23  2  0
 11  5  1  0
  3 29  1  0
  4 30  1  0
  7 31  1  0
 14 32  1  0
 15 33  1  0
 17 34  1  0
 20 35  1  0
 25 36  1  0
 26 37  1  0
 28 38  1  0
 28 39  1  0
 28 40  1  0
M  END
>  <Ligand ID>  (1) 
LIG0003677

>  <Ligand>  (1) 
CHEMBL3628112

>  <SMILES>  (1) 
Clc1ccc2c(c1)C(=O)N(C2=O)c1ccc(cc1Cl)NC(=O)c1occc1C

>  <CID>  (1) 
122193176.0

>  <ChEMBL ID>  (1) 
nan

>  <InChiKey>  (1) 
DCYOTMCWHBEKAQ-UHFFFAOYSA-N

>  <InChi>  (1) 
InChI=1S/C20H12Cl2N2O4/c1-10-6-7-28-17(10)18(25)23-12-3-5-16(15(22)9-12)24-19(26)13-4-2-11(21)8-14(13)20(24)27/h2-9H,1H3,(H,23,25)

>  <IUPAC Name>  (1) 
N-[3-chloro-4-(5-chloro-1,3-dioxoisoindol-2-yl)phenyl]-3-methylfuran-2-carboxamide

$$$$
