
     RDKit          3D

 43 45  0  0  0  0  0  0  0  0999 V2000
    1.4683    2.9032    1.1056 N   0  0  0  0  0  0  0  0  0  0  0  0
    1.6150    1.8104    0.8208 C   0  0  0  0  0  0  0  0  0  0  0  0
    1.7892    0.4422    0.4498 C   0  0  0  0  0  0  0  0  0  0  0  0
    0.7091   -0.4052    0.1820 C   0  0  0  0  0  0  0  0  0  0  0  0
   -0.9692    0.2449    0.3072 S   0  0  0  0  0  0  0  0  0  0  0  0
   -2.1050   -1.0849   -0.0952 C   0  0  0  0  0  0  0  0  0  0  0  0
   -3.5337   -0.6899   -0.0322 C   0  0  0  0  0  0  0  0  0  0  0  0
   -4.2378   -0.8280    1.1685 C   0  0  0  0  0  0  0  0  0  0  0  0
   -5.5816   -0.4520    1.2121 C   0  0  0  0  0  0  0  0  0  0  0  0
   -6.2214    0.0521    0.0903 C   0  0  0  0  0  0  0  0  0  0  0  0
   -5.5275    0.1909   -1.1028 C   0  0  0  0  0  0  0  0  0  0  0  0
   -4.2007   -0.1851   -1.1291 C   0  0  0  0  0  0  0  0  0  0  0  0
   -6.1642    0.7198   -2.3150 C   0  0  0  0  0  0  0  0  0  0  0  0
   -5.4851    0.8258   -3.3771 O   0  0  0  0  0  0  0  0  0  0  0  0
   -7.5334    1.1018   -2.2672 N   0  0  0  0  0  0  0  0  0  0  0  0
    0.9485   -1.6814   -0.1615 N   0  0  0  0  0  0  0  0  0  0  0  0
    2.1755   -2.2214   -0.2708 C   0  0  0  0  0  0  0  0  0  0  0  0
    3.2662   -1.4149   -0.0139 C   0  0  0  0  0  0  0  0  0  0  0  0
    3.0422   -0.0826    0.3456 C   0  0  0  0  0  0  0  0  0  0  0  0
    4.1869    0.7874    0.6217 C   0  0  0  0  0  0  0  0  0  0  0  0
    4.7502    1.5067   -0.4128 C   0  0  0  0  0  0  0  0  0  0  0  0
    5.8295    2.3506   -0.2473 C   0  0  0  0  0  0  0  0  0  0  0  0
    6.3597    2.4644    1.0427 C   0  0  0  0  0  0  0  0  0  0  0  0
    5.7911    1.7423    2.0707 C   0  0  0  0  0  0  0  0  0  0  0  0
    4.7167    0.9007    1.9118 C   0  0  0  0  0  0  0  0  0  0  0  0
    4.5871   -1.9620   -0.1221 C   0  0  0  0  0  0  0  0  0  0  0  0
    5.6706   -2.3955   -0.1956 N   0  0  0  0  0  0  0  0  0  0  0  0
    2.3076   -3.5956   -0.6447 N   0  0  0  0  0  0  0  0  0  0  0  0
   -1.9180   -1.9152    0.6440 H   0  0  0  0  0  0  0  0  0  0  0  0
   -1.8929   -1.5420   -1.0956 H   0  0  0  0  0  0  0  0  0  0  0  0
   -3.7289   -1.2242    2.0442 H   0  0  0  0  0  0  0  0  0  0  0  0
   -6.1196   -0.5612    2.1427 H   0  0  0  0  0  0  0  0  0  0  0  0
   -7.2519    0.3449    0.1079 H   0  0  0  0  0  0  0  0  0  0  0  0
   -3.6845   -0.0622   -2.0856 H   0  0  0  0  0  0  0  0  0  0  0  0
   -8.0774    0.9743   -3.1681 H   0  0  0  0  0  0  0  0  0  0  0  0
   -7.9941    1.4850   -1.4123 H   0  0  0  0  0  0  0  0  0  0  0  0
    4.3560    1.4360   -1.4277 H   0  0  0  0  0  0  0  0  0  0  0  0
    6.2704    2.9120   -1.0504 H   0  0  0  0  0  0  0  0  0  0  0  0
    7.2001    3.1253    1.1564 H   0  0  0  0  0  0  0  0  0  0  0  0
    6.2244    1.8489    3.0700 H   0  0  0  0  0  0  0  0  0  0  0  0
    4.2832    0.3429    2.7248 H   0  0  0  0  0  0  0  0  0  0  0  0
    1.5559   -4.0406   -1.2196 H   0  0  0  0  0  0  0  0  0  0  0  0
    3.1235   -4.1688   -0.3661 H   0  0  0  0  0  0  0  0  0  0  0  0
  1  2  3  0
  2  3  1  0
  3  4  2  0
  4  5  1  0
  5  6  1  0
  6  7  1  0
  7  8  2  0
  8  9  1  0
  9 10  2  0
 10 11  1  0
 11 12  2  0
 11 13  1  0
 13 14  2  0
 13 15  1  0
  4 16  1  0
 16 17  2  0
 17 18  1  0
 18 19  2  0
 19 20  1  0
 20 21  2  0
 21 22  1  0
 22 23  2  0
 23 24  1  0
 24 25  2  0
 18 26  1  0
 26 27  3  0
 17 28  1  0
 19  3  1  0
 25 20  1  0
 12  7  1  0
  6 29  1  0
  6 30  1  0
  8 31  1  0
  9 32  1  0
 10 33  1  0
 12 34  1  0
 15 35  1  0
 15 36  1  0
 21 37  1  0
 22 38  1  0
 23 39  1  0
 24 40  1  0
 25 41  1  0
 28 42  1  0
 28 43  1  0
M  END
>  <Ligand ID>  (1) 
LIG0002657

>  <Ligand>  (1) 
SCHEMBL3368591

>  <SMILES>  (1) 
N#Cc1c(SCc2cccc(c2)C(=O)N)nc(c(c1c1ccccc1)C#N)N

>  <CID>  (1) 
68615669.0

>  <ChEMBL ID>  (1) 
nan

>  <InChiKey>  (1) 
CNCRFHGLUXOHFK-UHFFFAOYSA-N

>  <InChi>  (1) 
InChI=1S/C21H15N5OS/c22-10-16-18(14-6-2-1-3-7-14)17(11-23)21(26-19(16)24)28-12-13-5-4-8-15(9-13)20(25)27/h1-9H,12H2,(H2,24,26)(H2,25,27)

>  <IUPAC Name>  (1) 
3-[(6-amino-3,5-dicyano-4-phenylpyridin-2-yl)sulfanylmethyl]benzamide

$$$$
