
     RDKit          3D

 56 57  0  0  0  0  0  0  0  0999 V2000
    3.9242    1.4863    0.8152 O   0  0  0  0  0  0  0  0  0  0  0  0
    4.0766    0.2504    0.9589 C   0  0  0  0  0  0  0  0  0  0  0  0
    5.4815   -0.1954    1.2560 C   0  0  2  0  0  0  0  0  0  0  0  0
    6.3496    0.1698    0.0659 C   0  0  0  0  0  0  0  0  0  0  0  0
    7.6298   -0.2715    0.3454 O   0  0  0  0  0  0  0  0  0  0  0  0
    8.7416    0.0489   -0.8740 P   0  0  0  0  0  0  0  0  0  0  0  0
    9.6500   -1.1576   -0.9854 O   0  0  0  0  0  0  0  0  0  0  0  0
    8.0144    0.2674   -2.3741 O   0  0  0  0  0  0  0  0  0  0  0  0
    9.7501    1.3567   -0.4843 O   0  0  0  0  0  0  0  0  0  0  0  0
    5.5297   -1.6320    1.3994 N   0  0  0  0  0  0  0  0  0  0  0  0
    5.9811    0.5020    2.5024 C   0  0  0  0  0  0  0  0  0  0  0  0
    2.9945   -0.6480    0.8466 N   0  0  0  0  0  0  0  0  0  0  0  0
    1.6546   -0.3103    0.5713 C   0  0  0  0  0  0  0  0  0  0  0  0
    1.1501    0.9283    0.3629 C   0  0  0  0  0  0  0  0  0  0  0  0
   -0.2046    1.1552    0.0954 C   0  0  0  0  0  0  0  0  0  0  0  0
   -1.0876    0.1135    0.0332 C   0  0  0  0  0  0  0  0  0  0  0  0
   -0.5895   -1.1552    0.2433 C   0  0  0  0  0  0  0  0  0  0  0  0
    0.7418   -1.3719    0.5056 C   0  0  0  0  0  0  0  0  0  0  0  0
   -2.4444    0.2764   -0.2286 O   0  0  0  0  0  0  0  0  0  0  0  0
   -3.0066    1.5464   -0.4506 C   0  0  0  0  0  0  0  0  0  0  0  0
   -4.5075    1.3921   -0.7087 C   0  0  0  0  0  0  0  0  0  0  0  0
   -4.6910    0.5168   -1.9305 C   0  0  0  0  0  0  0  0  0  0  0  0
   -6.1645    0.3253   -2.2407 C   0  0  0  0  0  0  0  0  0  0  0  0
   -6.8439   -0.3198   -1.0930 C   0  0  0  0  0  0  0  0  0  0  0  0
   -7.3781    0.5133   -0.1249 C   0  0  0  0  0  0  0  0  0  0  0  0
   -8.0362    0.0262    0.9933 C   0  0  0  0  0  0  0  0  0  0  0  0
   -8.1497   -1.3375    1.1234 C   0  0  0  0  0  0  0  0  0  0  0  0
   -7.6158   -2.1730    0.1557 C   0  0  0  0  0  0  0  0  0  0  0  0
   -6.9601   -1.6832   -0.9582 C   0  0  0  0  0  0  0  0  0  0  0  0
    6.2936    1.2404   -0.1784 H   0  0  0  0  0  0  0  0  0  0  0  0
    5.9685   -0.3974   -0.7979 H   0  0  0  0  0  0  0  0  0  0  0  0
    7.0451    0.4529   -2.3180 H   0  0  0  0  0  0  0  0  0  0  0  0
    9.3321    1.9606    0.1666 H   0  0  0  0  0  0  0  0  0  0  0  0
    5.1772   -2.0540    0.5154 H   0  0  0  0  0  0  0  0  0  0  0  0
    4.8783   -1.9112    2.1619 H   0  0  0  0  0  0  0  0  0  0  0  0
    5.3957    1.4252    2.6082 H   0  0  0  0  0  0  0  0  0  0  0  0
    5.8097   -0.1757    3.3539 H   0  0  0  0  0  0  0  0  0  0  0  0
    7.0629    0.6984    2.3559 H   0  0  0  0  0  0  0  0  0  0  0  0
    3.2447   -1.6733    0.9883 H   0  0  0  0  0  0  0  0  0  0  0  0
    1.7689    1.7804    0.3951 H   0  0  0  0  0  0  0  0  0  0  0  0
   -0.5774    2.1607   -0.0671 H   0  0  0  0  0  0  0  0  0  0  0  0
   -1.2643   -1.9953    0.1999 H   0  0  0  0  0  0  0  0  0  0  0  0
    1.0488   -2.3992    0.6583 H   0  0  0  0  0  0  0  0  0  0  0  0
   -2.8216    2.2408    0.3803 H   0  0  0  0  0  0  0  0  0  0  0  0
   -2.5378    1.9842   -1.3593 H   0  0  0  0  0  0  0  0  0  0  0  0
   -4.9347    0.9344    0.1990 H   0  0  0  0  0  0  0  0  0  0  0  0
   -4.9072    2.3861   -0.9441 H   0  0  0  0  0  0  0  0  0  0  0  0
   -4.2675   -0.4967   -1.7991 H   0  0  0  0  0  0  0  0  0  0  0  0
   -4.1832    0.9629   -2.8085 H   0  0  0  0  0  0  0  0  0  0  0  0
   -6.2774   -0.2142   -3.1833 H   0  0  0  0  0  0  0  0  0  0  0  0
   -6.5965    1.3508   -2.4046 H   0  0  0  0  0  0  0  0  0  0  0  0
   -7.2862    1.5919   -0.2315 H   0  0  0  0  0  0  0  0  0  0  0  0
   -8.4251    0.7340    1.7029 H   0  0  0  0  0  0  0  0  0  0  0  0
   -8.6583   -1.7146    1.9876 H   0  0  0  0  0  0  0  0  0  0  0  0
   -7.7321   -3.2220    0.3061 H   0  0  0  0  0  0  0  0  0  0  0  0
   -6.5464   -2.3374   -1.7084 H   0  0  0  0  0  0  0  0  0  0  0  0
  1  2  2  0
  2  3  1  0
  3  4  1  0
  4  5  1  0
  5  6  1  0
  6  7  2  0
  6  8  1  0
  6  9  1  0
  3 10  1  1
  3 11  1  0
  2 12  1  0
 12 13  1  0
 13 14  2  0
 14 15  1  0
 15 16  2  0
 16 17  1  0
 17 18  2  0
 16 19  1  0
 19 20  1  0
 20 21  1  0
 21 22  1  0
 22 23  1  0
 23 24  1  0
 24 25  2  0
 25 26  1  0
 26 27  2  0
 27 28  1  0
 28 29  2  0
 18 13  1  0
 29 24  1  0
  4 30  1  0
  4 31  1  0
  8 32  1  0
  9 33  1  0
 10 34  1  0
 10 35  1  0
 11 36  1  0
 11 37  1  0
 11 38  1  0
 12 39  1  0
 14 40  1  0
 15 41  1  0
 17 42  1  0
 18 43  1  0
 20 44  1  0
 20 45  1  0
 21 46  1  0
 21 47  1  0
 22 48  1  0
 22 49  1  0
 23 50  1  0
 23 51  1  0
 25 52  1  0
 26 53  1  0
 27 54  1  0
 28 55  1  0
 29 56  1  0
M  END
>  <Ligand ID>  (1) 
LIG0005099

>  <Ligand>  (1) 
CHEMBL514302

>  <SMILES>  (1) 
O=C([C@](COP(=O)(O)O)(N)C)Nc1ccc(cc1)OCCCCc1ccccc1

>  <CID>  (1) 
44565596.0

>  <ChEMBL ID>  (1) 
nan

>  <InChiKey>  (1) 
BWCQGMDWAWERIV-FQEVSTJZSA-N

>  <InChi>  (1) 
InChI=1S/C20H27N2O6P/c1-20(21,15-28-29(24,25)26)19(23)22-17-10-12-18(13-11-17)27-14-6-5-9-16-7-3-2-4-8-16/h2-4,7-8,10-13H,5-6,9,14-15,21H2,1H3,(H,22,23)(H2,24,25,26)/t20-/m0/s1

>  <IUPAC Name>  (1) 
[(2S)-2-amino-2-methyl-3-oxo-3-[4-(4-phenylbutoxy)anilino]propyl] dihydrogen phosphate

$$$$
