
     RDKit          3D

142147  0  0  0  0  0  0  0  0999 V2000
   11.2792    1.6823    2.0515 C   0  0  0  0  0  0  0  0  0  0  0  0
   10.1209    0.6755    1.9754 C   0  0  0  0  0  0  0  0  0  0  0  0
    9.4330    0.8123    0.6510 C   0  0  0  0  0  0  0  0  0  0  0  0
    8.2972   -0.1335    0.4194 C   0  0  0  0  0  0  0  0  0  0  0  0
    7.1854   -0.0380    1.4336 C   0  0  1  0  0  0  0  0  0  0  0  0
    6.1035   -1.0199    1.0913 C   0  0  0  0  0  0  0  0  0  0  0  0
    6.4165   -2.2110    0.8995 O   0  0  0  0  0  0  0  0  0  0  0  0
    4.7466   -0.5533    1.0047 N   0  0  0  0  0  0  0  0  0  0  0  0
    3.7746   -1.6239    0.6760 C   0  0  1  0  0  0  0  0  0  0  0  0
    3.1152   -2.0693    1.9769 C   0  0  0  0  0  0  0  0  0  0  0  0
    2.2803   -3.2904    1.7837 C   0  0  0  0  0  0  0  0  0  0  0  0
    2.0454   -3.8248    0.7084 O   0  0  0  0  0  0  0  0  0  0  0  0
    1.7043   -3.9121    2.9367 N   0  0  0  0  0  0  0  0  0  0  0  0
    0.9080   -5.0712    3.0028 C   0  0  0  0  0  0  0  0  0  0  0  0
   -0.4495   -5.1857    2.4310 C   0  0  0  0  0  0  0  0  0  0  0  0
   -0.7072   -4.9228    0.9997 C   0  0  0  0  0  0  0  0  0  0  0  0
   -2.0969   -5.3829    0.6620 C   0  0  0  0  0  0  0  0  0  0  0  0
   -3.2763   -4.7669    1.2368 C   0  0  2  0  0  0  0  0  0  0  0  0
   -3.5685   -3.3710    0.8800 N   0  0  0  0  0  0  0  0  0  0  0  0
   -4.9131   -3.0038    0.4663 C   0  0  0  0  0  0  0  0  0  0  0  0
   -5.6858   -3.9974    0.4411 O   0  0  0  0  0  0  0  0  0  0  0  0
   -5.4219   -1.7204    0.1108 C   0  0  1  0  0  0  0  0  0  0  0  0
   -4.5796   -0.5426    0.2009 N   0  0  0  0  0  0  0  0  0  0  0  0
   -4.8361    0.4013    1.2522 C   0  0  0  0  0  0  0  0  0  0  0  0
   -5.6684    0.0392    2.0945 O   0  0  0  0  0  0  0  0  0  0  0  0
   -4.2025    1.7134    1.3965 C   0  0  1  0  0  0  0  0  0  0  0  0
   -3.3091    2.1343    0.3591 N   0  0  0  0  0  0  0  0  0  0  0  0
   -1.9027    2.2771    0.4850 C   0  0  0  0  0  0  0  0  0  0  0  0
   -1.4138    1.9298    1.5680 O   0  0  0  0  0  0  0  0  0  0  0  0
   -1.0253    2.8089   -0.5982 C   0  0  2  0  0  0  0  0  0  0  0  0
   -0.4520    1.8162   -1.4203 N   0  0  0  0  0  0  0  0  0  0  0  0
    0.7125    1.0122   -1.0754 C   0  0  0  0  0  0  0  0  0  0  0  0
    0.5057    0.5104    0.0341 O   0  0  0  0  0  0  0  0  0  0  0  0
    1.9724    0.7530   -1.8208 C   0  0  0  0  0  0  0  0  0  0  0  0
    2.9929    0.2188   -0.9392 N   0  0  0  0  0  0  0  0  0  0  0  0
    2.8275   -1.0737   -0.3020 C   0  0  0  0  0  0  0  0  0  0  0  0
    1.8071   -1.6728   -0.6670 O   0  0  0  0  0  0  0  0  0  0  0  0
    1.7215   -0.0724   -3.0670 C   0  0  0  0  0  0  0  0  0  0  0  0
    1.0046    0.8886   -3.9916 C   0  0  0  0  0  0  0  0  0  0  0  0
    1.6885    1.0986   -5.1704 C   0  0  0  0  0  0  0  0  0  0  0  0
    1.2143    1.9583   -6.1593 C   0  0  0  0  0  0  0  0  0  0  0  0
    0.0159    2.6277   -5.9579 C   0  0  0  0  0  0  0  0  0  0  0  0
   -0.6894    2.4338   -4.7824 C   0  0  0  0  0  0  0  0  0  0  0  0
   -0.1803    1.5710   -3.8289 C   0  0  0  0  0  0  0  0  0  0  0  0
   -1.1217    1.5470   -2.6795 C   0  0  0  0  0  0  0  0  0  0  0  0
   -0.1723    3.8900   -0.0344 C   0  0  0  0  0  0  0  0  0  0  0  0
    0.7603    4.5592   -0.9413 C   0  0  0  0  0  0  0  0  0  0  0  0
    2.0743    4.1834   -1.0965 C   0  0  0  0  0  0  0  0  0  0  0  0
    2.9612    4.7988   -1.9457 C   0  0  0  0  0  0  0  0  0  0  0  0
    2.5461    5.8607   -2.7038 C   0  0  0  0  0  0  0  0  0  0  0  0
    1.2257    6.2563   -2.5628 C   0  0  0  0  0  0  0  0  0  0  0  0
    0.3364    5.6394   -1.7112 C   0  0  0  0  0  0  0  0  0  0  0  0
   -5.2375    2.7726    1.7355 C   0  0  0  0  0  0  0  0  0  0  0  0
   -4.7150    4.1372    1.8640 C   0  0  0  0  0  0  0  0  0  0  0  0
   -3.6943    4.4259    2.9008 C   0  0  0  0  0  0  0  0  0  0  0  0
   -4.1016    4.1634    4.2644 N   0  0  0  0  0  0  0  0  0  0  0  0
   -3.4564    4.8585    5.1717 C   0  0  0  0  0  0  0  0  0  0  0  0
   -2.4664    5.7493    4.6479 N   0  0  0  0  0  0  0  0  0  0  0  0
   -3.7244    4.7310    6.5592 N   0  0  0  0  0  0  0  0  0  0  0  0
   -6.1204   -1.5973   -1.2234 C   0  0  0  0  0  0  0  0  0  0  0  0
   -5.3577   -1.9108   -2.4213 C   0  0  0  0  0  0  0  0  0  0  0  0
   -4.6698   -0.9251   -3.1480 C   0  0  0  0  0  0  0  0  0  0  0  0
   -4.0316   -1.5042   -4.1869 N   0  0  0  0  0  0  0  0  0  0  0  0
   -4.2637   -2.8192   -4.1834 C   0  0  0  0  0  0  0  0  0  0  0  0
   -5.0810   -3.0727   -3.0970 C   0  0  0  0  0  0  0  0  0  0  0  0
   -5.4806   -4.3538   -2.8874 C   0  0  0  0  0  0  0  0  0  0  0  0
   -5.0726   -5.3663   -3.7408 C   0  0  0  0  0  0  0  0  0  0  0  0
   -4.2502   -5.0895   -4.8243 C   0  0  0  0  0  0  0  0  0  0  0  0
   -3.8333   -3.7925   -5.0566 C   0  0  0  0  0  0  0  0  0  0  0  0
   -3.4848   -4.9212    2.7127 C   0  0  0  0  0  0  0  0  0  0  0  0
   -3.7500   -3.8752    3.3820 O   0  0  0  0  0  0  0  0  0  0  0  0
   -3.4160   -6.1346    3.4206 N   0  0  0  0  0  0  0  0  0  0  0  0
    7.7978   -0.5710    2.6772 N   0  0  0  0  0  0  0  0  0  0  0  0
   11.9488    1.4187    2.9143 H   0  0  0  0  0  0  0  0  0  0  0  0
   10.8689    2.6787    2.2441 H   0  0  0  0  0  0  0  0  0  0  0  0
   11.9200    1.6376    1.1518 H   0  0  0  0  0  0  0  0  0  0  0  0
    9.4080    1.0425    2.7789 H   0  0  0  0  0  0  0  0  0  0  0  0
   10.4740   -0.3399    2.2010 H   0  0  0  0  0  0  0  0  0  0  0  0
   10.2196    0.5508   -0.1297 H   0  0  0  0  0  0  0  0  0  0  0  0
    9.1950    1.8640    0.4394 H   0  0  0  0  0  0  0  0  0  0  0  0
    7.8944   -0.0356   -0.6066 H   0  0  0  0  0  0  0  0  0  0  0  0
    8.7211   -1.1869    0.4429 H   0  0  0  0  0  0  0  0  0  0  0  0
    6.8385    0.9703    1.5766 H   0  0  0  0  0  0  0  0  0  0  0  0
    4.4604    0.4257    1.1647 H   0  0  0  0  0  0  0  0  0  0  0  0
    4.3198   -2.4928    0.2985 H   0  0  0  0  0  0  0  0  0  0  0  0
    3.9312   -2.3266    2.6948 H   0  0  0  0  0  0  0  0  0  0  0  0
    2.5347   -1.2808    2.4703 H   0  0  0  0  0  0  0  0  0  0  0  0
    1.9269   -3.4080    3.8216 H   0  0  0  0  0  0  0  0  0  0  0  0
    0.8323   -5.4291    4.0954 H   0  0  0  0  0  0  0  0  0  0  0  0
    1.5585   -5.9345    2.5486 H   0  0  0  0  0  0  0  0  0  0  0  0
   -1.1193   -4.4699    3.0071 H   0  0  0  0  0  0  0  0  0  0  0  0
   -0.8836   -6.2023    2.7327 H   0  0  0  0  0  0  0  0  0  0  0  0
   -0.0202   -5.4883    0.3231 H   0  0  0  0  0  0  0  0  0  0  0  0
   -0.5837   -3.8398    0.7311 H   0  0  0  0  0  0  0  0  0  0  0  0
   -2.1593   -6.5010    0.8994 H   0  0  0  0  0  0  0  0  0  0  0  0
   -2.1928   -5.4215   -0.4791 H   0  0  0  0  0  0  0  0  0  0  0  0
   -4.1887   -5.3484    0.8290 H   0  0  0  0  0  0  0  0  0  0  0  0
   -2.9113   -2.6061    0.8870 H   0  0  0  0  0  0  0  0  0  0  0  0
   -6.3085   -1.5662    0.8475 H   0  0  0  0  0  0  0  0  0  0  0  0
   -3.8013   -0.3005   -0.4011 H   0  0  0  0  0  0  0  0  0  0  0  0
   -3.5690    1.6144    2.3240 H   0  0  0  0  0  0  0  0  0  0  0  0
   -3.6813    2.3574   -0.5705 H   0  0  0  0  0  0  0  0  0  0  0  0
   -1.7639    3.3675   -1.2603 H   0  0  0  0  0  0  0  0  0  0  0  0
    2.4506    1.6652   -2.2294 H   0  0  0  0  0  0  0  0  0  0  0  0
    3.8785    0.6696   -0.7035 H   0  0  0  0  0  0  0  0  0  0  0  0
    2.6926   -0.3516   -3.4671 H   0  0  0  0  0  0  0  0  0  0  0  0
    1.0585   -0.9206   -2.9423 H   0  0  0  0  0  0  0  0  0  0  0  0
    2.6282    0.5616   -5.3104 H   0  0  0  0  0  0  0  0  0  0  0  0
    1.7255    2.1302   -7.0822 H   0  0  0  0  0  0  0  0  0  0  0  0
   -0.3856    3.2991   -6.6946 H   0  0  0  0  0  0  0  0  0  0  0  0
   -1.6131    2.9120   -4.5504 H   0  0  0  0  0  0  0  0  0  0  0  0
   -2.0156    2.1358   -2.8207 H   0  0  0  0  0  0  0  0  0  0  0  0
   -1.4597    0.4849   -2.6004 H   0  0  0  0  0  0  0  0  0  0  0  0
   -0.8810    4.6973    0.3101 H   0  0  0  0  0  0  0  0  0  0  0  0
    0.3112    3.5985    0.9351 H   0  0  0  0  0  0  0  0  0  0  0  0
    2.4271    3.3442   -0.5059 H   0  0  0  0  0  0  0  0  0  0  0  0
    3.9847    4.4624   -2.0285 H   0  0  0  0  0  0  0  0  0  0  0  0
    3.2510    6.3280   -3.3598 H   0  0  0  0  0  0  0  0  0  0  0  0
    0.9317    7.1042   -3.1851 H   0  0  0  0  0  0  0  0  0  0  0  0
   -0.7068    5.9909   -1.6364 H   0  0  0  0  0  0  0  0  0  0  0  0
   -6.0683    2.7791    0.9930 H   0  0  0  0  0  0  0  0  0  0  0  0
   -5.6915    2.4380    2.6813 H   0  0  0  0  0  0  0  0  0  0  0  0
   -5.5932    4.8173    2.0583 H   0  0  0  0  0  0  0  0  0  0  0  0
   -4.2991    4.5384    0.8943 H   0  0  0  0  0  0  0  0  0  0  0  0
   -3.5388    5.5554    2.8598 H   0  0  0  0  0  0  0  0  0  0  0  0
   -2.6790    4.0368    2.6891 H   0  0  0  0  0  0  0  0  0  0  0  0
   -2.7691    6.6846    4.3468 H   0  0  0  0  0  0  0  0  0  0  0  0
   -1.4926    5.3801    4.6135 H   0  0  0  0  0  0  0  0  0  0  0  0
   -3.2825    3.9182    7.0594 H   0  0  0  0  0  0  0  0  0  0  0  0
   -4.3324    5.4016    7.0946 H   0  0  0  0  0  0  0  0  0  0  0  0
   -6.5635   -0.5709   -1.2482 H   0  0  0  0  0  0  0  0  0  0  0  0
   -6.9855   -2.3346   -1.2015 H   0  0  0  0  0  0  0  0  0  0  0  0
   -4.6598    0.1304   -2.9136 H   0  0  0  0  0  0  0  0  0  0  0  0
   -3.4496   -0.9315   -4.8641 H   0  0  0  0  0  0  0  0  0  0  0  0
   -6.1166   -4.5796   -2.0752 H   0  0  0  0  0  0  0  0  0  0  0  0
   -5.3648   -6.3972   -3.6119 H   0  0  0  0  0  0  0  0  0  0  0  0
   -3.9320   -5.8815   -5.4931 H   0  0  0  0  0  0  0  0  0  0  0  0
   -3.1909   -3.5914   -5.9084 H   0  0  0  0  0  0  0  0  0  0  0  0
   -3.8247   -7.0172    3.0309 H   0  0  0  0  0  0  0  0  0  0  0  0
   -2.9316   -6.1058    4.3595 H   0  0  0  0  0  0  0  0  0  0  0  0
    7.6186   -1.5938    2.7147 H   0  0  0  0  0  0  0  0  0  0  0  0
    7.3048   -0.0802    3.4755 H   0  0  0  0  0  0  0  0  0  0  0  0
  1  2  1  0
  2  3  1  0
  3  4  1  0
  4  5  1  0
  5  6  1  0
  6  7  2  0
  6  8  1  0
  8  9  1  0
  9 10  1  0
 10 11  1  0
 11 12  2  0
 11 13  1  0
 13 14  1  0
 14 15  1  0
 15 16  1  0
 16 17  1  0
 17 18  1  0
 18 19  1  0
 19 20  1  0
 20 21  2  0
 20 22  1  0
 22 23  1  0
 23 24  1  0
 24 25  2  0
 24 26  1  0
 26 27  1  0
 27 28  1  0
 28 29  2  0
 28 30  1  0
 30 31  1  0
 31 32  1  0
 32 33  2  0
 32 34  1  0
 34 35  1  0
 35 36  1  0
 36 37  2  0
 34 38  1  0
 38 39  1  0
 39 40  2  0
 40 41  1  0
 41 42  2  0
 42 43  1  0
 43 44  2  0
 44 45  1  0
 30 46  1  0
 46 47  1  0
 47 48  2  0
 48 49  1  0
 49 50  2  0
 50 51  1  0
 51 52  2  0
 26 53  1  0
 53 54  1  0
 54 55  1  0
 55 56  1  0
 56 57  2  3
 57 58  1  0
 57 59  1  0
 22 60  1  0
 60 61  1  0
 61 62  2  0
 62 63  1  0
 63 64  1  0
 64 65  2  0
 65 66  1  0
 66 67  2  0
 67 68  1  0
 68 69  2  0
 18 70  1  0
 70 71  2  0
 70 72  1  0
  5 73  1  0
 36  9  1  0
 44 39  1  0
 52 47  1  0
 65 61  1  0
 45 31  1  0
 69 64  1  0
  1 74  1  0
  1 75  1  0
  1 76  1  0
  2 77  1  0
  2 78  1  0
  3 79  1  0
  3 80  1  0
  4 81  1  0
  4 82  1  0
  5 83  1  1
  8 84  1  0
  9 85  1  6
 10 86  1  0
 10 87  1  0
 13 88  1  0
 14 89  1  0
 14 90  1  0
 15 91  1  0
 15 92  1  0
 16 93  1  0
 16 94  1  0
 17 95  1  0
 17 96  1  0
 18 97  1  6
 19 98  1  0
 22 99  1  1
 23100  1  0
 26101  1  1
 27102  1  0
 30103  1  6
 34104  1  0
 35105  1  0
 38106  1  0
 38107  1  0
 40108  1  0
 41109  1  0
 42110  1  0
 43111  1  0
 45112  1  0
 45113  1  0
 46114  1  0
 46115  1  0
 48116  1  0
 49117  1  0
 50118  1  0
 51119  1  0
 52120  1  0
 53121  1  0
 53122  1  0
 54123  1  0
 54124  1  0
 55125  1  0
 55126  1  0
 58127  1  0
 58128  1  0
 59129  1  0
 59130  1  0
 60131  1  0
 60132  1  0
 62133  1  0
 63134  1  0
 66135  1  0
 67136  1  0
 68137  1  0
 69138  1  0
 72139  1  0
 72140  1  0
 73141  1  0
 73142  1  0
M  END
>  <Ligand ID>  (1) 
LIG0001770

>  <Ligand>  (1) 
CHEMBL234629

>  <SMILES>  (1) 
CCCC[C@@H](C(=O)N[C@H]1CC(=O)NCCCC[C@H](NC(=O)[C@@H](NC(=O)[C@@H](NC(=O)[C@H](N2C(=O)C(NC1=O)Cc1ccccc1C2)Cc1ccccc1)CCCN=C(N)N)Cc1c[nH]c2c1cccc2)C(=O)N)N

>  <CID>  (1) 
44431511.0

>  <ChEMBL ID>  (1) 
nan

>  <InChiKey>  (1) 
PVCJCCYBNKILDR-FUHNRYBUSA-N

>  <InChi>  (1) 
InChI=1S/C52H69N13O8/c1-2-3-19-36(53)46(68)62-41-28-44(66)57-23-12-11-21-38(45(54)67)60-48(70)40(27-34-29-59-37-20-10-9-18-35(34)37)63-47(69)39(22-13-24-58-52(55)56)61-50(72)43(25-31-14-5-4-6-15-31)65-30-33-17-8-7-16-32(33)26-42(51(65)73)64-49(41)71/h4-10,14-18,20,29,36,38-43,59H,2-3,11-13,19,21-28,30,53H2,1H3,(H2,54,67)(H,57,66)(H,60,70)(H,61,72)(H,62,68)(H,63,69)(H,64,71)(H4,55,56,58)/t36-,38-,39-,40-,41-,42?,43+/m0/s1

>  <IUPAC Name>  (1) 
(2R,5S,8S,11S,19S)-19-[[(2S)-2-aminohexanoyl]amino]-2-benzyl-5-[3-(diaminomethylideneamino)propyl]-8-(1H-indol-3-ylmethyl)-3,6,9,17,20,31-hexaoxo-1,4,7,10,16,21-hexazatricyclo[20.8.1.024,29]hentriaconta-24,26,28-triene-11-carboxamide

$$$$
