
     RDKit          3D

 30 32  0  0  0  0  0  0  0  0999 V2000
    6.0859    1.4161   -0.5633 N   0  0  0  0  0  0  0  0  0  0  0  0
    5.0361    0.9223   -0.4267 C   0  0  0  0  0  0  0  0  0  0  0  0
    3.7350    0.3035   -0.2526 C   0  0  0  0  0  0  0  0  0  0  0  0
    3.5955   -1.0455   -0.0040 C   0  0  0  0  0  0  0  0  0  0  0  0
    2.3264   -1.5874    0.1545 C   0  0  0  0  0  0  0  0  0  0  0  0
    1.1962   -0.7960    0.0673 C   0  0  0  0  0  0  0  0  0  0  0  0
    1.3868    0.5434   -0.1817 C   0  0  0  0  0  0  0  0  0  0  0  0
    2.6312    1.1198   -0.3454 C   0  0  0  0  0  0  0  0  0  0  0  0
    0.1912    1.4077   -0.2676 C   0  0  0  0  0  0  0  0  0  0  0  0
    0.2778    2.6422   -0.4940 O   0  0  0  0  0  0  0  0  0  0  0  0
   -1.0595    0.7397   -0.0761 N   0  0  0  0  0  0  0  0  0  0  0  0
   -1.0919   -0.4058    0.7725 C   0  0  2  0  0  0  0  0  0  0  0  0
   -0.1264   -1.4365    0.2357 C   0  0  0  0  0  0  0  0  0  0  0  0
   -2.4655   -0.9778    0.9911 C   0  0  0  0  0  0  0  0  0  0  0  0
   -3.4360   -0.6379    0.0057 N   0  0  0  0  0  0  0  0  0  0  0  0
   -3.4794    0.8015   -0.1414 C   0  0  0  0  0  0  0  0  0  0  0  0
   -2.2161    1.2911   -0.7708 C   0  0  0  0  0  0  0  0  0  0  0  0
    4.4840   -1.6394    0.0595 H   0  0  0  0  0  0  0  0  0  0  0  0
    2.2718   -2.6431    0.3465 H   0  0  0  0  0  0  0  0  0  0  0  0
    2.6988    2.1727   -0.5374 H   0  0  0  0  0  0  0  0  0  0  0  0
   -0.6526   -0.1052    1.7697 H   0  0  0  0  0  0  0  0  0  0  0  0
   -0.4702   -1.7707   -0.7842 H   0  0  0  0  0  0  0  0  0  0  0  0
   -0.0441   -2.3172    0.9194 H   0  0  0  0  0  0  0  0  0  0  0  0
   -2.3755   -2.0926    1.1022 H   0  0  0  0  0  0  0  0  0  0  0  0
   -2.8398   -0.6292    1.9948 H   0  0  0  0  0  0  0  0  0  0  0  0
   -3.4282   -1.1708   -0.8671 H   0  0  0  0  0  0  0  0  0  0  0  0
   -4.3621    1.1714   -0.6648 H   0  0  0  0  0  0  0  0  0  0  0  0
   -3.5035    1.2086    0.9016 H   0  0  0  0  0  0  0  0  0  0  0  0
   -2.1941    2.4105   -0.6348 H   0  0  0  0  0  0  0  0  0  0  0  0
   -2.1717    1.1046   -1.8570 H   0  0  0  0  0  0  0  0  0  0  0  0
  1  2  3  0
  2  3  1  0
  3  4  2  0
  4  5  1  0
  5  6  2  0
  6  7  1  0
  7  8  2  0
  7  9  1  0
  9 10  2  0
  9 11  1  0
 11 12  1  0
 12 13  1  0
 12 14  1  0
 14 15  1  0
 15 16  1  0
 16 17  1  0
  8  3  1  0
 17 11  1  0
 13  6  1  0
  4 18  1  0
  5 19  1  0
  8 20  1  0
 12 21  1  1
 13 22  1  0
 13 23  1  0
 14 24  1  0
 14 25  1  0
 15 26  1  0
 16 27  1  0
 16 28  1  0
 17 29  1  0
 17 30  1  0
M  END
>  <Ligand ID>  (1) 
LIG0003213

>  <Ligand>  (1) 
CHEMBL2397879

>  <SMILES>  (1) 
N#Cc1ccc2c(c1)C(=O)N1[C@H](C2)CNCC1

>  <CID>  (1) 
68690817.0

>  <ChEMBL ID>  (1) 
nan

>  <InChiKey>  (1) 
LCSJDSADPYDRJY-LLVKDONJSA-N

>  <InChi>  (1) 
InChI=1S/C13H13N3O/c14-7-9-1-2-10-6-11-8-15-3-4-16(11)13(17)12(10)5-9/h1-2,5,11,15H,3-4,6,8H2/t11-/m1/s1

>  <IUPAC Name>  (1) 
(11aR)-6-oxo-1,2,3,4,11,11a-hexahydropyrazino[1,2-b]isoquinoline-8-carbonitrile

$$$$
