
     RDKit          3D

 71 77  0  0  0  0  0  0  0  0999 V2000
   -6.2127    4.5633   -1.1218 C   0  0  0  0  0  0  0  0  0  0  0  0
   -4.9715    3.9526   -1.2695 O   0  0  0  0  0  0  0  0  0  0  0  0
   -4.5363    2.8200   -0.6144 C   0  0  0  0  0  0  0  0  0  0  0  0
   -5.2854    2.1118    0.3014 C   0  0  0  0  0  0  0  0  0  0  0  0
   -4.7958    0.9651    0.9405 C   0  0  0  0  0  0  0  0  0  0  0  0
   -3.5217    0.5322    0.6415 C   0  0  0  0  0  0  0  0  0  0  0  0
   -2.8191    1.2669   -0.2721 C   0  0  0  0  0  0  0  0  0  0  0  0
   -3.2433    2.3830   -0.9192 C   0  0  0  0  0  0  0  0  0  0  0  0
   -2.2246    2.8139   -1.7526 O   0  0  0  0  0  0  0  0  0  0  0  0
   -0.9834    2.2086   -1.3169 C   0  0  2  0  0  0  0  0  0  0  0  0
   -1.4141    0.9021   -0.6888 C   0  0  2  0  0  0  0  0  0  0  0  0
   -1.4971   -0.2215   -1.6363 C   0  0  0  0  0  0  0  0  0  0  0  0
   -1.1239   -1.5913   -1.1492 C   0  0  0  0  0  0  0  0  0  0  0  0
   -1.0797   -1.8038    0.2319 N   0  0  0  0  0  0  0  0  0  0  0  0
   -1.3916   -0.7024    1.1033 C   0  0  0  0  0  0  0  0  0  0  0  0
   -2.8735   -0.6457    1.2380 C   0  0  0  0  0  0  0  0  0  0  0  0
   -0.7295    0.5355    0.5717 C   0  0  2  0  0  0  0  0  0  0  0  0
   -0.8602    1.7100    1.5196 C   0  0  0  0  0  0  0  0  0  0  0  0
    0.0666    2.7916    1.0023 C   0  0  0  0  0  0  0  0  0  0  0  0
   -0.2922    3.1230   -0.4019 C   0  0  0  0  0  0  0  0  0  0  0  0
    0.0106    4.2297   -0.8154 O   0  0  0  0  0  0  0  0  0  0  0  0
    0.6740    0.3113    0.4000 N   0  0  0  0  0  0  0  0  0  0  0  0
    1.5842   -0.0088    1.4327 C   0  0  0  0  0  0  0  0  0  0  0  0
    1.0943   -0.0983    2.6051 O   0  0  0  0  0  0  0  0  0  0  0  0
    3.0096   -0.2342    1.2321 C   0  0  0  0  0  0  0  0  0  0  0  0
    3.6262   -0.1718    0.0884 C   0  0  0  0  0  0  0  0  0  0  0  0
    5.0501   -0.3957   -0.1196 C   0  0  0  0  0  0  0  0  0  0  0  0
    5.9226   -0.7054    0.8974 C   0  0  0  0  0  0  0  0  0  0  0  0
    7.2800   -0.9161    0.6932 C   0  0  0  0  0  0  0  0  0  0  0  0
    7.8180   -0.8201   -0.5704 C   0  0  0  0  0  0  0  0  0  0  0  0
    6.9556   -0.5107   -1.5976 C   0  0  0  0  0  0  0  0  0  0  0  0
    5.5945   -0.2997   -1.3911 C   0  0  0  0  0  0  0  0  0  0  0  0
    4.7614    0.0253   -2.5605 C   0  0  0  0  0  0  0  0  0  0  0  0
   -0.1905   -2.7678    0.7245 C   0  0  0  0  0  0  0  0  0  0  0  0
   -0.5248   -4.2070    0.4852 C   0  0  0  0  0  0  0  0  0  0  0  0
   -0.6986   -4.8207   -0.8408 C   0  0  0  0  0  0  0  0  0  0  0  0
   -1.8821   -4.6623    0.0325 C   0  0  0  0  0  0  0  0  0  0  0  0
   -6.2056    5.4373   -0.4355 H   0  0  0  0  0  0  0  0  0  0  0  0
   -6.5353    4.8833   -2.1540 H   0  0  0  0  0  0  0  0  0  0  0  0
   -6.9546    3.8074   -0.8018 H   0  0  0  0  0  0  0  0  0  0  0  0
   -6.2862    2.4452    0.5422 H   0  0  0  0  0  0  0  0  0  0  0  0
   -5.3825    0.4112    1.6573 H   0  0  0  0  0  0  0  0  0  0  0  0
   -0.4307    1.9584   -2.2307 H   0  0  0  0  0  0  0  0  0  0  0  0
   -0.8197    0.0192   -2.5080 H   0  0  0  0  0  0  0  0  0  0  0  0
   -2.5186   -0.2357   -2.1222 H   0  0  0  0  0  0  0  0  0  0  0  0
   -1.8545   -2.2753   -1.6249 H   0  0  0  0  0  0  0  0  0  0  0  0
   -0.1403   -1.9239   -1.6230 H   0  0  0  0  0  0  0  0  0  0  0  0
   -0.9872   -0.9672    2.1006 H   0  0  0  0  0  0  0  0  0  0  0  0
   -3.2165   -0.7170    2.3129 H   0  0  0  0  0  0  0  0  0  0  0  0
   -3.3937   -1.5316    0.7637 H   0  0  0  0  0  0  0  0  0  0  0  0
   -1.8733    2.1714    1.5150 H   0  0  0  0  0  0  0  0  0  0  0  0
   -0.6469    1.4679    2.5656 H   0  0  0  0  0  0  0  0  0  0  0  0
   -0.0763    3.7381    1.6014 H   0  0  0  0  0  0  0  0  0  0  0  0
    1.1366    2.5402    1.1108 H   0  0  0  0  0  0  0  0  0  0  0  0
    1.0466    0.3966   -0.5930 H   0  0  0  0  0  0  0  0  0  0  0  0
    3.6056   -0.4742    2.1102 H   0  0  0  0  0  0  0  0  0  0  0  0
    3.0243    0.0681   -0.7902 H   0  0  0  0  0  0  0  0  0  0  0  0
    5.5812   -0.7989    1.9139 H   0  0  0  0  0  0  0  0  0  0  0  0
    7.9225   -1.1582    1.5365 H   0  0  0  0  0  0  0  0  0  0  0  0
    8.8782   -0.9892   -0.6954 H   0  0  0  0  0  0  0  0  0  0  0  0
    7.3879   -0.4365   -2.5912 H   0  0  0  0  0  0  0  0  0  0  0  0
    4.2003   -0.8951   -2.8441 H   0  0  0  0  0  0  0  0  0  0  0  0
    5.3933    0.3360   -3.4222 H   0  0  0  0  0  0  0  0  0  0  0  0
    4.0792    0.8893   -2.3268 H   0  0  0  0  0  0  0  0  0  0  0  0
   -0.0988   -2.6798    1.8594 H   0  0  0  0  0  0  0  0  0  0  0  0
    0.8756   -2.5920    0.3944 H   0  0  0  0  0  0  0  0  0  0  0  0
   -0.0420   -4.9486    1.2333 H   0  0  0  0  0  0  0  0  0  0  0  0
   -0.5848   -4.2327   -1.7554 H   0  0  0  0  0  0  0  0  0  0  0  0
   -0.3998   -5.8865   -1.0016 H   0  0  0  0  0  0  0  0  0  0  0  0
   -2.6444   -3.9284   -0.2401 H   0  0  0  0  0  0  0  0  0  0  0  0
   -2.3361   -5.5614    0.5230 H   0  0  0  0  0  0  0  0  0  0  0  0
  1  2  1  0
  2  3  1  0
  3  4  2  0
  4  5  1  0
  5  6  2  0
  6  7  1  0
  7  8  2  0
  8  9  1  0
  9 10  1  0
 10 11  1  0
 11 12  1  6
 12 13  1  0
 13 14  1  0
 14 15  1  0
 15 16  1  0
 15 17  1  0
 17 18  1  0
 18 19  1  0
 19 20  1  0
 20 21  2  0
 17 22  1  6
 22 23  1  0
 23 24  2  0
 23 25  1  0
 25 26  2  0
 26 27  1  0
 27 28  2  0
 28 29  1  0
 29 30  2  0
 30 31  1  0
 31 32  2  0
 32 33  1  0
 14 34  1  0
 34 35  1  0
 35 36  1  0
 36 37  1  0
  8  3  1  0
 20 10  1  0
 32 27  1  0
 37 35  1  0
 16  6  1  0
 11  7  1  0
 17 11  1  0
  1 38  1  0
  1 39  1  0
  1 40  1  0
  4 41  1  0
  5 42  1  0
 10 43  1  6
 12 44  1  0
 12 45  1  0
 13 46  1  0
 13 47  1  0
 15 48  1  0
 16 49  1  0
 16 50  1  0
 18 51  1  0
 18 52  1  0
 19 53  1  0
 19 54  1  0
 22 55  1  0
 25 56  1  0
 26 57  1  0
 28 58  1  0
 29 59  1  0
 30 60  1  0
 31 61  1  0
 33 62  1  0
 33 63  1  0
 33 64  1  0
 34 65  1  0
 34 66  1  0
 35 67  1  0
 36 68  1  0
 36 69  1  0
 37 70  1  0
 37 71  1  0
M  END
>  <Ligand ID>  (1) 
LIG0003861

>  <Ligand>  (1) 
BDBM50193536

>  <SMILES>  (1) 
COc1ccc2c3c1O[C@@H]1[C@@]43CCN(C(C2)[C@@]4(CCC1=O)NC(=O)/C=C/c1ccccc1C)CC1CC1

>  <CID>  (1) 
44415131.0

>  <ChEMBL ID>  (1) 
nan

>  <InChiKey>  (1) 
HKFWFMQRXDJWRR-RNGWUSNQSA-N

>  <InChi>  (1) 
InChI=1S/C31H34N2O4/c1-19-5-3-4-6-21(19)10-12-26(35)32-31-14-13-23(34)29-30(31)15-16-33(18-20-7-8-20)25(31)17-22-9-11-24(36-2)28(37-29)27(22)30/h3-6,9-12,20,25,29H,7-8,13-18H2,1-2H3,(H,32,35)/b12-10+/t25?,29-,30-,31+/m0/s1

>  <IUPAC Name>  (1) 
(E)-N-[(4aS,7aR,12bR)-3-(cyclopropylmethyl)-9-methoxy-7-oxo-2,4,5,6,7a,13-hexahydro-1H-4,12-methanobenzofuro[3,2-e]isoquinolin-4a-yl]-3-(2-methylphenyl)prop-2-enamide

$$$$
