
     RDKit          3D

 20 19  0  0  0  0  0  0  0  0999 V2000
   -3.1554    0.3982   -0.0899 C   0  0  0  0  0  0  0  0  0  0  0  0
   -1.6997    0.7615    0.1995 C   0  0  0  0  0  0  0  0  0  0  0  0
   -0.7770   -0.3672   -0.2838 C   0  0  0  0  0  0  0  0  0  0  0  0
    0.6254    0.0690    0.0371 C   0  0  0  0  0  0  0  0  0  0  0  0
    1.6858   -0.9226   -0.3683 C   0  0  0  0  0  0  0  0  0  0  0  0
    3.0077   -0.3219    0.0271 C   0  0  0  0  0  0  0  0  0  0  0  0
    3.9032   -0.0843   -0.8363 O   0  0  0  0  0  0  0  0  0  0  0  0
    3.2703   -0.0154    1.3559 O   0  0  0  0  0  0  0  0  0  0  0  0
    1.6815   -1.3509   -2.2260 Br  0  0  0  0  0  0  0  0  0  0  0  0
   -3.6546    0.2176    0.9063 H   0  0  0  0  0  0  0  0  0  0  0  0
   -3.7066    1.2379   -0.5341 H   0  0  0  0  0  0  0  0  0  0  0  0
   -3.2519   -0.4798   -0.7547 H   0  0  0  0  0  0  0  0  0  0  0  0
   -1.4883    1.7049   -0.3356 H   0  0  0  0  0  0  0  0  0  0  0  0
   -1.5419    0.9125    1.2865 H   0  0  0  0  0  0  0  0  0  0  0  0
   -0.9460   -0.6005   -1.3320 H   0  0  0  0  0  0  0  0  0  0  0  0
   -1.0055   -1.2549    0.3463 H   0  0  0  0  0  0  0  0  0  0  0  0
    0.7064    0.1706    1.1444 H   0  0  0  0  0  0  0  0  0  0  0  0
    0.8404    1.0486   -0.3869 H   0  0  0  0  0  0  0  0  0  0  0  0
    1.6052   -1.8617    0.2238 H   0  0  0  0  0  0  0  0  0  0  0  0
    3.9008    0.7384    1.6206 H   0  0  0  0  0  0  0  0  0  0  0  0
  1  2  1  0
  2  3  1  0
  3  4  1  0
  4  5  1  0
  5  6  1  0
  6  7  2  0
  6  8  1  0
  5  9  1  0
  1 10  1  0
  1 11  1  0
  1 12  1  0
  2 13  1  0
  2 14  1  0
  3 15  1  0
  3 16  1  0
  4 17  1  0
  4 18  1  0
  5 19  1  0
  8 20  1  0
M  END
>  <Ligand ID>  (1) 
LIG0000285

>  <Ligand>  (1) 
2-bromohexanoic acid

>  <SMILES>  (1) 
CCCCC(C(=O)O)Br

>  <CID>  (1) 
12013.0

>  <ChEMBL ID>  (1) 
nan

>  <InChiKey>  (1) 
HZTPKMIMXLTOSK-UHFFFAOYSA-N

>  <InChi>  (1) 
InChI=1S/C6H11BrO2/c1-2-3-4-5(7)6(8)9/h5H,2-4H2,1H3,(H,8,9)

>  <IUPAC Name>  (1) 
2-bromohexanoic acid

$$$$
