
     RDKit          3D

 56 60  0  0  0  0  0  0  0  0999 V2000
    1.1697    1.3319    1.1709 C   0  0  0  0  0  0  0  0  0  0  0  0
    1.5136   -0.0608    1.6490 C   0  0  0  0  0  0  0  0  0  0  0  0
    2.4314   -0.7139    0.6470 C   0  0  0  0  0  0  0  0  0  0  0  0
    3.7454   -0.8715    0.7738 C   0  0  0  0  0  0  0  0  0  0  0  0
    4.4681   -1.4656   -0.1876 C   0  0  0  0  0  0  0  0  0  0  0  0
    3.2191   -1.8822   -1.4579 S   0  0  0  0  0  0  0  0  0  0  0  0
    1.8784   -1.2252   -0.5788 C   0  0  0  0  0  0  0  0  0  0  0  0
    0.4756   -1.1855   -0.9664 C   0  0  0  0  0  0  0  0  0  0  0  0
   -0.0391   -2.0322   -1.8875 N   0  0  0  0  0  0  0  0  0  0  0  0
   -1.2957   -1.7696   -2.0298 O   0  0  0  0  0  0  0  0  0  0  0  0
   -1.6740   -0.7684   -1.2387 C   0  0  0  0  0  0  0  0  0  0  0  0
   -0.5301   -0.4192   -0.5772 N   0  0  0  0  0  0  0  0  0  0  0  0
   -3.0010   -0.1778   -1.1055 C   0  0  0  0  0  0  0  0  0  0  0  0
   -3.2446    0.8698   -0.2301 C   0  0  0  0  0  0  0  0  0  0  0  0
   -4.5097    1.4031   -0.1301 C   0  0  0  0  0  0  0  0  0  0  0  0
   -5.5406    0.8865   -0.9103 C   0  0  0  0  0  0  0  0  0  0  0  0
   -5.2956   -0.1631   -1.7872 C   0  0  0  0  0  0  0  0  0  0  0  0
   -4.0064   -0.6959   -1.8793 C   0  0  0  0  0  0  0  0  0  0  0  0
   -6.8192    1.4100   -0.8232 O   0  0  0  0  0  0  0  0  0  0  0  0
   -7.7944    0.9545    0.0506 C   0  0  0  0  0  0  0  0  0  0  0  0
   -9.0261    1.5950    0.0071 C   0  0  0  0  0  0  0  0  0  0  0  0
  -10.0770    1.2234    0.8361 C   0  0  0  0  0  0  0  0  0  0  0  0
   -9.8703    0.1757    1.7303 C   0  0  0  0  0  0  0  0  0  0  0  0
   -8.6440   -0.4791    1.7897 C   0  0  0  0  0  0  0  0  0  0  0  0
   -7.6197   -0.0667    0.9343 C   0  0  0  0  0  0  0  0  0  0  0  0
    5.8921   -1.7688   -0.3324 C   0  0  0  0  0  0  0  0  0  0  0  0
    6.6588   -0.7743   -0.9968 N   0  0  0  0  0  0  0  0  0  0  0  0
    6.6419    0.5116   -0.3379 C   0  0  0  0  0  0  0  0  0  0  0  0
    7.8060    0.0369    0.5181 C   0  0  0  0  0  0  0  0  0  0  0  0
    8.0659   -0.8793   -0.6584 C   0  0  0  0  0  0  0  0  0  0  0  0
    8.8570    1.0680    0.7214 C   0  0  0  0  0  0  0  0  0  0  0  0
    8.7883    2.2172    0.2330 O   0  0  0  0  0  0  0  0  0  0  0  0
    9.9510    0.7088    1.4924 O   0  0  0  0  0  0  0  0  0  0  0  0
    1.8055    2.0298    1.7600 H   0  0  0  0  0  0  0  0  0  0  0  0
    0.0893    1.5400    1.3149 H   0  0  0  0  0  0  0  0  0  0  0  0
    1.4707    1.4014    0.1071 H   0  0  0  0  0  0  0  0  0  0  0  0
    0.5739   -0.6237    1.7256 H   0  0  0  0  0  0  0  0  0  0  0  0
    1.9707   -0.0797    2.6565 H   0  0  0  0  0  0  0  0  0  0  0  0
    4.2741   -0.5047    1.7085 H   0  0  0  0  0  0  0  0  0  0  0  0
   -2.4432    1.2743    0.3791 H   0  0  0  0  0  0  0  0  0  0  0  0
   -4.6694    2.2215    0.5628 H   0  0  0  0  0  0  0  0  0  0  0  0
   -6.0829   -0.5801   -2.4032 H   0  0  0  0  0  0  0  0  0  0  0  0
   -3.8091   -1.5172   -2.5638 H   0  0  0  0  0  0  0  0  0  0  0  0
   -9.2093    2.4025   -0.6710 H   0  0  0  0  0  0  0  0  0  0  0  0
  -11.0435    1.7170    0.8103 H   0  0  0  0  0  0  0  0  0  0  0  0
  -10.6768   -0.1510    2.4056 H   0  0  0  0  0  0  0  0  0  0  0  0
   -8.5073   -1.2891    2.4916 H   0  0  0  0  0  0  0  0  0  0  0  0
   -6.6646   -0.5730    0.9769 H   0  0  0  0  0  0  0  0  0  0  0  0
    6.2729   -1.9718    0.7116 H   0  0  0  0  0  0  0  0  0  0  0  0
    5.9798   -2.7674   -0.8277 H   0  0  0  0  0  0  0  0  0  0  0  0
    5.7325    0.6871    0.2615 H   0  0  0  0  0  0  0  0  0  0  0  0
    6.9268    1.3693   -0.9879 H   0  0  0  0  0  0  0  0  0  0  0  0
    7.4988   -0.5085    1.4125 H   0  0  0  0  0  0  0  0  0  0  0  0
    8.3984   -1.9037   -0.3645 H   0  0  0  0  0  0  0  0  0  0  0  0
    8.7087   -0.3834   -1.4131 H   0  0  0  0  0  0  0  0  0  0  0  0
   10.8289    1.2167    1.4786 H   0  0  0  0  0  0  0  0  0  0  0  0
  1  2  1  0
  2  3  1  0
  3  4  1  0
  4  5  2  0
  5  6  1  0
  6  7  1  0
  7  8  1  0
  8  9  2  0
  9 10  1  0
 10 11  1  0
 11 12  2  0
 11 13  1  0
 13 14  2  0
 14 15  1  0
 15 16  2  0
 16 17  1  0
 17 18  2  0
 16 19  1  0
 19 20  1  0
 20 21  2  0
 21 22  1  0
 22 23  2  0
 23 24  1  0
 24 25  2  0
  5 26  1  0
 26 27  1  0
 27 28  1  0
 28 29  1  0
 29 30  1  0
 29 31  1  0
 31 32  2  0
 31 33  1  0
  7  3  2  0
 12  8  1  0
 18 13  1  0
 25 20  1  0
 30 27  1  0
  1 34  1  0
  1 35  1  0
  1 36  1  0
  2 37  1  0
  2 38  1  0
  4 39  1  0
 14 40  1  0
 15 41  1  0
 17 42  1  0
 18 43  1  0
 21 44  1  0
 22 45  1  0
 23 46  1  0
 24 47  1  0
 25 48  1  0
 26 49  1  0
 26 50  1  0
 28 51  1  0
 28 52  1  0
 29 53  1  0
 30 54  1  0
 30 55  1  0
 33 56  1  0
M  END
>  <Ligand ID>  (1) 
LIG0001752

>  <Ligand>  (1) 
CHEMBL1951304

>  <SMILES>  (1) 
CCc1cc(sc1c1noc(n1)c1ccc(cc1)Oc1ccccc1)CN1CC(C1)C(=O)O

>  <CID>  (1) 
11977938.0

>  <ChEMBL ID>  (1) 
nan

>  <InChiKey>  (1) 
DWVJASHDNJMDNH-UHFFFAOYSA-N

>  <InChi>  (1) 
InChI=1S/C25H23N3O4S/c1-2-16-12-21(15-28-13-18(14-28)25(29)30)33-22(16)23-26-24(32-27-23)17-8-10-20(11-9-17)31-19-6-4-3-5-7-19/h3-12,18H,2,13-15H2,1H3,(H,29,30)

>  <IUPAC Name>  (1) 
1-[[4-ethyl-5-[5-(4-phenoxyphenyl)-1,2,4-oxadiazol-3-yl]thiophen-2-yl]methyl]azetidine-3-carboxylic acid

$$$$
