
     RDKit          3D

 67 73  0  0  0  0  0  0  0  0999 V2000
    0.0702    3.6541    1.4514 C   0  0  0  0  0  0  0  0  0  0  0  0
    0.7209    2.4523    1.4201 O   0  0  0  0  0  0  0  0  0  0  0  0
    0.0637    1.3968    0.8471 C   0  0  1  0  0  0  0  0  0  0  0  0
   -0.2868    1.6520   -0.5976 C   0  0  0  0  0  0  0  0  0  0  0  0
   -0.7897    0.3807   -1.2366 C   0  0  0  0  0  0  0  0  0  0  0  0
   -0.9753   -0.6654   -0.1853 C   0  0  1  0  0  0  0  0  0  0  0  0
    0.3995   -1.0174    0.2959 C   0  0  0  0  0  0  0  0  0  0  0  0
    0.9517    0.1707    1.0113 C   0  0  1  0  0  0  0  0  0  0  0  0
    2.3873    0.4669    0.6563 C   0  0  0  0  0  0  0  0  0  0  0  0
    2.5589    0.8873   -0.6358 O   0  0  0  0  0  0  0  0  0  0  0  0
    3.8862    1.1571   -0.9509 C   0  0  0  0  0  0  0  0  0  0  0  0
    4.7832   -0.0086   -0.7998 C   0  0  0  0  0  0  0  0  0  0  0  0
    5.4158   -0.2507    0.4147 C   0  0  0  0  0  0  0  0  0  0  0  0
    6.2454   -1.3557    0.5029 C   0  0  0  0  0  0  0  0  0  0  0  0
    6.4540   -2.2100   -0.5759 C   0  0  0  0  0  0  0  0  0  0  0  0
    5.8005   -1.9105   -1.7361 C   0  0  0  0  0  0  0  0  0  0  0  0
    4.9599   -0.8295   -1.8997 C   0  0  0  0  0  0  0  0  0  0  0  0
   -1.8324   -0.0924    0.9264 C   0  0  1  0  0  0  0  0  0  0  0  0
   -1.1926    1.0937    1.6156 C   0  0  2  0  0  0  0  0  0  0  0  0
   -2.1926    2.1023    1.5443 O   0  0  0  0  0  0  0  0  0  0  0  0
   -3.1390    1.8167    0.5804 C   0  0  0  0  0  0  0  0  0  0  0  0
   -2.9472    0.5487    0.1845 C   0  0  0  0  0  0  0  0  0  0  0  0
   -3.6296   -0.1694   -0.7496 C   0  0  0  0  0  0  0  0  0  0  0  0
   -3.1772   -1.5479   -1.0317 C   0  0  0  0  0  0  0  0  0  0  0  0
   -1.7608   -1.8563   -0.6865 C   0  0  2  0  0  0  0  0  0  0  0  0
   -1.7660   -2.9048    0.3016 N   0  0  0  0  0  0  0  0  0  0  0  0
   -2.0816   -2.5035    1.6093 C   0  0  0  0  0  0  0  0  0  0  0  0
   -2.3779   -1.0826    1.8810 C   0  0  0  0  0  0  0  0  0  0  0  0
   -0.7952   -3.9171    0.1133 C   0  0  0  0  0  0  0  0  0  0  0  0
   -4.6653    0.4843   -1.3798 C   0  0  0  0  0  0  0  0  0  0  0  0
   -4.9380    1.8121   -1.0257 C   0  0  0  0  0  0  0  0  0  0  0  0
   -4.1918    2.4894   -0.0562 C   0  0  0  0  0  0  0  0  0  0  0  0
   -4.4592    3.8330    0.3087 N   0  0  0  0  0  0  0  0  0  0  0  0
   -0.1960    4.0131    0.4298 H   0  0  0  0  0  0  0  0  0  0  0  0
   -0.7285    3.7497    2.1967 H   0  0  0  0  0  0  0  0  0  0  0  0
    0.8476    4.4097    1.7870 H   0  0  0  0  0  0  0  0  0  0  0  0
    0.5750    2.0121   -1.1653 H   0  0  0  0  0  0  0  0  0  0  0  0
   -1.0415    2.4508   -0.6196 H   0  0  0  0  0  0  0  0  0  0  0  0
   -1.6380    0.6169   -1.8650 H   0  0  0  0  0  0  0  0  0  0  0  0
   -0.0085   -0.0406   -1.9443 H   0  0  0  0  0  0  0  0  0  0  0  0
    0.4668   -1.9091    0.9306 H   0  0  0  0  0  0  0  0  0  0  0  0
    1.0161   -1.1475   -0.6468 H   0  0  0  0  0  0  0  0  0  0  0  0
    0.9452   -0.0440    2.1029 H   0  0  0  0  0  0  0  0  0  0  0  0
    2.7177    1.2805    1.3370 H   0  0  0  0  0  0  0  0  0  0  0  0
    2.9669   -0.4303    0.9253 H   0  0  0  0  0  0  0  0  0  0  0  0
    4.3007    1.9850   -0.3342 H   0  0  0  0  0  0  0  0  0  0  0  0
    3.8660    1.5553   -1.9939 H   0  0  0  0  0  0  0  0  0  0  0  0
    5.2640    0.4039    1.2624 H   0  0  0  0  0  0  0  0  0  0  0  0
    6.7669   -1.5996    1.4194 H   0  0  0  0  0  0  0  0  0  0  0  0
    7.1140   -3.0698   -0.4689 H   0  0  0  0  0  0  0  0  0  0  0  0
    5.9284   -2.5517   -2.6219 H   0  0  0  0  0  0  0  0  0  0  0  0
    4.4547   -0.6256   -2.8491 H   0  0  0  0  0  0  0  0  0  0  0  0
   -0.9536    0.8183    2.6425 H   0  0  0  0  0  0  0  0  0  0  0  0
   -3.8699   -2.2051   -0.4254 H   0  0  0  0  0  0  0  0  0  0  0  0
   -3.3922   -1.8524   -2.0821 H   0  0  0  0  0  0  0  0  0  0  0  0
   -1.2391   -2.2354   -1.5844 H   0  0  0  0  0  0  0  0  0  0  0  0
   -2.9507   -3.1406    1.9632 H   0  0  0  0  0  0  0  0  0  0  0  0
   -1.2470   -2.8404    2.2898 H   0  0  0  0  0  0  0  0  0  0  0  0
   -2.1110   -0.8716    2.9456 H   0  0  0  0  0  0  0  0  0  0  0  0
   -3.5066   -0.9830    1.8849 H   0  0  0  0  0  0  0  0  0  0  0  0
   -1.3222   -4.8351   -0.2587 H   0  0  0  0  0  0  0  0  0  0  0  0
   -0.2501   -4.2287    1.0177 H   0  0  0  0  0  0  0  0  0  0  0  0
   -0.1233   -3.6407   -0.7432 H   0  0  0  0  0  0  0  0  0  0  0  0
   -5.2298   -0.0474   -2.1228 H   0  0  0  0  0  0  0  0  0  0  0  0
   -5.7670    2.3362   -1.5287 H   0  0  0  0  0  0  0  0  0  0  0  0
   -3.7229    4.3948    0.7601 H   0  0  0  0  0  0  0  0  0  0  0  0
   -5.4311    4.1961    0.0904 H   0  0  0  0  0  0  0  0  0  0  0  0
  1  2  1  0
  3  2  1  1
  3  4  1  0
  4  5  1  0
  6  5  1  6
  6  7  1  0
  7  8  1  0
  8  9  1  0
  9 10  1  0
 10 11  1  0
 11 12  1  0
 12 13  2  0
 13 14  1  0
 14 15  2  0
 15 16  1  0
 16 17  2  0
  6 18  1  0
 18 19  1  0
 19 20  1  0
 20 21  1  0
 21 22  2  0
 22 23  1  0
 23 24  1  0
 24 25  1  0
 25 26  1  0
 26 27  1  0
 27 28  1  0
 26 29  1  0
 23 30  2  0
 30 31  1  0
 31 32  2  0
 32 33  1  0
  8  3  1  0
 17 12  1  0
 18 28  1  1
 19  3  1  0
 32 21  1  0
 25  6  1  0
 22 18  1  0
  1 34  1  0
  1 35  1  0
  1 36  1  0
  4 37  1  0
  4 38  1  0
  5 39  1  0
  5 40  1  0
  7 41  1  0
  7 42  1  0
  8 43  1  1
  9 44  1  0
  9 45  1  0
 11 46  1  0
 11 47  1  0
 13 48  1  0
 14 49  1  0
 15 50  1  0
 16 51  1  0
 17 52  1  0
 19 53  1  1
 24 54  1  0
 24 55  1  0
 25 56  1  6
 27 57  1  0
 27 58  1  0
 28 59  1  0
 28 60  1  0
 29 61  1  0
 29 62  1  0
 29 63  1  0
 30 64  1  0
 31 65  1  0
 33 66  1  0
 33 67  1  0
M  END
>  <Ligand ID>  (1) 
LIG0004623

>  <Ligand>  (1) 
CHEMBL3978134

>  <SMILES>  (1) 
CO[C@@]12CC[C@@]3(C[C@H]1COCc1ccccc1)[C@]14[C@@H]2Oc2c4c(C[C@@H]3N(CC1)C)ccc2N

>  <CID>  (1) 
134152610.0

>  <ChEMBL ID>  (1) 
nan

>  <InChiKey>  (1) 
CUAYKCKUHHCHSI-XKNGQPLFSA-N

>  <InChi>  (1) 
InChI=1S/C28H34N2O3/c1-30-13-12-27-23-19-8-9-21(29)24(23)33-25(27)28(31-2)11-10-26(27,22(30)14-19)15-20(28)17-32-16-18-6-4-3-5-7-18/h3-9,20,22,25H,10-17,29H2,1-2H3/t20-,22-,25-,26-,27+,28-/m0/s1

>  <IUPAC Name>  (1) 
(1R,2R,6S,14S,15S,16S)-15-methoxy-5-methyl-16-(phenylmethoxymethyl)-13-oxa-5-azahexacyclo[13.2.2.12,8.01,6.02,14.012,20]icosa-8(20),9,11-trien-11-amine

$$$$
