
     RDKit          3D

106110  0  0  0  0  0  0  0  0999 V2000
   -7.1939   -0.0525    3.3003 C   0  0  0  0  0  0  0  0  0  0  0  0
   -6.4893    0.6856    2.2575 N   0  0  0  0  0  0  0  0  0  0  0  0
   -5.2691    0.2234    1.6888 C   0  0  0  0  0  0  0  0  0  0  0  0
   -4.7681   -0.8554    2.0816 O   0  0  0  0  0  0  0  0  0  0  0  0
   -4.6268    1.0761    0.6258 C   0  0  1  0  0  0  0  0  0  0  0  0
   -3.3306    0.5562    0.3829 N   0  0  0  0  0  0  0  0  0  0  0  0
   -2.9885   -0.6910   -0.2306 C   0  0  0  0  0  0  0  0  0  0  0  0
   -1.8202   -1.2806    0.5281 C   0  0  0  0  0  0  0  0  0  0  0  0
   -0.6541   -0.4041    0.5603 N   0  0  0  0  0  0  0  0  0  0  0  0
   -0.8058    1.0311    0.4442 C   0  0  2  0  0  0  0  0  0  0  0  0
   -2.2083    1.3667    0.8203 C   0  0  0  0  0  0  0  0  0  0  0  0
   -2.3786    2.3899    1.5387 O   0  0  0  0  0  0  0  0  0  0  0  0
   -0.4809    1.5301   -0.9436 C   0  0  0  0  0  0  0  0  0  0  0  0
   -0.6137    3.0233   -1.1095 C   0  0  0  0  0  0  0  0  0  0  0  0
    0.3332    3.7100   -0.1711 C   0  0  0  0  0  0  0  0  0  0  0  0
    0.2621    5.1533   -0.3077 N   0  0  0  0  0  0  0  0  0  0  0  0
    0.4245    5.9101    0.7213 C   0  0  0  0  0  0  0  0  0  0  0  0
    0.6768    5.4074    2.0257 N   0  0  0  0  0  0  0  0  0  0  0  0
    0.3367    7.3251    0.4708 N   0  0  0  0  0  0  0  0  0  0  0  0
    0.5914   -1.0765    0.6709 C   0  0  0  0  0  0  0  0  0  0  0  0
    0.5216   -2.3509    0.6175 O   0  0  0  0  0  0  0  0  0  0  0  0
    1.9180   -0.4975    0.8370 C   0  0  1  0  0  0  0  0  0  0  0  0
    2.1603   -0.1256    2.3221 C   0  0  0  0  0  0  0  0  0  0  0  0
    3.5263    0.4463    2.3998 C   0  0  0  0  0  0  0  0  0  0  0  0
    4.6196   -0.3802    2.6753 C   0  0  0  0  0  0  0  0  0  0  0  0
    5.9081    0.1329    2.7629 C   0  0  0  0  0  0  0  0  0  0  0  0
    6.0884    1.5044    2.5677 C   0  0  0  0  0  0  0  0  0  0  0  0
    5.0172    2.3464    2.2921 C   0  0  0  0  0  0  0  0  0  0  0  0
    3.7281    1.7942    2.2104 C   0  0  0  0  0  0  0  0  0  0  0  0
    2.8870   -1.5665    0.6064 N   0  0  0  0  0  0  0  0  0  0  0  0
    4.0544   -1.1898   -0.1234 C   0  0  0  0  0  0  0  0  0  0  0  0
    4.1308    0.0114   -0.4751 O   0  0  0  0  0  0  0  0  0  0  0  0
    5.0697   -2.2207   -0.4075 C   0  0  2  0  0  0  0  0  0  0  0  0
    5.2311   -2.3700   -1.9001 C   0  0  0  0  0  0  0  0  0  0  0  0
    5.6594   -1.1093   -2.5017 C   0  0  0  0  0  0  0  0  0  0  0  0
    4.8319   -0.1733   -3.0822 C   0  0  0  0  0  0  0  0  0  0  0  0
    5.3497    1.0130   -3.6144 C   0  0  0  0  0  0  0  0  0  0  0  0
    6.6975    1.2781   -3.5741 C   0  0  0  0  0  0  0  0  0  0  0  0
    7.5453    0.3424   -2.9922 C   0  0  0  0  0  0  0  0  0  0  0  0
    7.0312   -0.8259   -2.4681 C   0  0  0  0  0  0  0  0  0  0  0  0
    7.2823    2.4243   -4.0758 O   0  0  0  0  0  0  0  0  0  0  0  0
    4.6780   -3.5531    0.0863 N   0  0  0  0  0  0  0  0  0  0  0  0
    5.4827   -4.2692    1.0149 C   0  0  0  0  0  0  0  0  0  0  0  0
    6.5645   -3.8460    1.4853 O   0  0  0  0  0  0  0  0  0  0  0  0
    4.9911   -5.6041    1.4420 C   0  0  0  0  0  0  0  0  0  0  0  0
   -5.5734    1.2548   -0.4820 C   0  0  0  0  0  0  0  0  0  0  0  0
   -6.0245    0.0357   -1.1651 C   0  0  0  0  0  0  0  0  0  0  0  0
   -5.3472   -0.3953   -2.3051 C   0  0  0  0  0  0  0  0  0  0  0  0
   -5.7179   -1.5170   -3.0058 C   0  0  0  0  0  0  0  0  0  0  0  0
   -6.7900   -2.2907   -2.6227 C   0  0  0  0  0  0  0  0  0  0  0  0
   -7.4770   -1.8835   -1.4954 C   0  0  0  0  0  0  0  0  0  0  0  0
   -7.0968   -0.7427   -0.7863 C   0  0  0  0  0  0  0  0  0  0  0  0
   -8.5591   -2.6563   -1.1109 C   0  0  0  0  0  0  0  0  0  0  0  0
   -8.9121   -3.7814   -1.8438 C   0  0  0  0  0  0  0  0  0  0  0  0
   -8.1916   -4.1440   -2.9628 C   0  0  0  0  0  0  0  0  0  0  0  0
   -7.1094   -3.3943   -3.3705 C   0  0  0  0  0  0  0  0  0  0  0  0
   -8.0399   -0.5589    2.8357 H   0  0  0  0  0  0  0  0  0  0  0  0
   -6.5298   -0.8084    3.8011 H   0  0  0  0  0  0  0  0  0  0  0  0
   -7.4823    0.6510    4.1243 H   0  0  0  0  0  0  0  0  0  0  0  0
   -6.9551    1.5856    1.9600 H   0  0  0  0  0  0  0  0  0  0  0  0
   -4.4858    2.0811    1.1560 H   0  0  0  0  0  0  0  0  0  0  0  0
   -3.7868   -1.4571   -0.1570 H   0  0  0  0  0  0  0  0  0  0  0  0
   -2.7178   -0.6161   -1.2983 H   0  0  0  0  0  0  0  0  0  0  0  0
   -1.5852   -2.2993    0.2154 H   0  0  0  0  0  0  0  0  0  0  0  0
   -2.1417   -1.3381    1.6090 H   0  0  0  0  0  0  0  0  0  0  0  0
   -0.0981    1.5032    1.1381 H   0  0  0  0  0  0  0  0  0  0  0  0
   -1.0940    0.9911   -1.7271 H   0  0  0  0  0  0  0  0  0  0  0  0
    0.5628    1.2880   -1.2294 H   0  0  0  0  0  0  0  0  0  0  0  0
   -1.6549    3.3770   -1.0041 H   0  0  0  0  0  0  0  0  0  0  0  0
   -0.2385    3.2337   -2.1534 H   0  0  0  0  0  0  0  0  0  0  0  0
    0.1660    3.4825    0.8869 H   0  0  0  0  0  0  0  0  0  0  0  0
    1.3868    3.3650   -0.3784 H   0  0  0  0  0  0  0  0  0  0  0  0
    1.6501    5.2822    2.4147 H   0  0  0  0  0  0  0  0  0  0  0  0
   -0.1779    5.1640    2.5942 H   0  0  0  0  0  0  0  0  0  0  0  0
   -0.2683    7.9637    1.0048 H   0  0  0  0  0  0  0  0  0  0  0  0
    0.9133    7.7387   -0.2926 H   0  0  0  0  0  0  0  0  0  0  0  0
    2.1290    0.4267    0.2970 H   0  0  0  0  0  0  0  0  0  0  0  0
    1.4212    0.6197    2.6601 H   0  0  0  0  0  0  0  0  0  0  0  0
    2.0584   -1.0235    2.9726 H   0  0  0  0  0  0  0  0  0  0  0  0
    4.5019   -1.4324    2.8263 H   0  0  0  0  0  0  0  0  0  0  0  0
    6.7729   -0.4811    2.9754 H   0  0  0  0  0  0  0  0  0  0  0  0
    7.0654    1.9295    2.6301 H   0  0  0  0  0  0  0  0  0  0  0  0
    5.1302    3.4089    2.1356 H   0  0  0  0  0  0  0  0  0  0  0  0
    2.9018    2.4659    1.9933 H   0  0  0  0  0  0  0  0  0  0  0  0
    2.6990   -2.5160    0.9638 H   0  0  0  0  0  0  0  0  0  0  0  0
    6.0287   -1.9100    0.0685 H   0  0  0  0  0  0  0  0  0  0  0  0
    5.9686   -3.1756   -2.1519 H   0  0  0  0  0  0  0  0  0  0  0  0
    4.2891   -2.6947   -2.3903 H   0  0  0  0  0  0  0  0  0  0  0  0
    3.7652   -0.3600   -3.1333 H   0  0  0  0  0  0  0  0  0  0  0  0
    4.7098    1.7526   -4.0710 H   0  0  0  0  0  0  0  0  0  0  0  0
    8.6044    0.5304   -2.9488 H   0  0  0  0  0  0  0  0  0  0  0  0
    7.7230   -1.5510   -2.0101 H   0  0  0  0  0  0  0  0  0  0  0  0
    8.1706    2.3471   -4.5683 H   0  0  0  0  0  0  0  0  0  0  0  0
    3.7860   -3.9393   -0.2801 H   0  0  0  0  0  0  0  0  0  0  0  0
    4.4687   -5.5999    2.4112 H   0  0  0  0  0  0  0  0  0  0  0  0
    5.9080   -6.2411    1.5708 H   0  0  0  0  0  0  0  0  0  0  0  0
    4.3701   -6.1015    0.6815 H   0  0  0  0  0  0  0  0  0  0  0  0
   -5.2740    2.0530   -1.2134 H   0  0  0  0  0  0  0  0  0  0  0  0
   -6.5163    1.6969   -0.0293 H   0  0  0  0  0  0  0  0  0  0  0  0
   -4.5023    0.1816   -2.6499 H   0  0  0  0  0  0  0  0  0  0  0  0
   -5.1349   -1.7952   -3.8991 H   0  0  0  0  0  0  0  0  0  0  0  0
   -7.6792   -0.4723    0.0813 H   0  0  0  0  0  0  0  0  0  0  0  0
   -9.1443   -2.3821   -0.2240 H   0  0  0  0  0  0  0  0  0  0  0  0
   -9.7625   -4.3412   -1.4935 H   0  0  0  0  0  0  0  0  0  0  0  0
   -8.4683   -5.0339   -3.5487 H   0  0  0  0  0  0  0  0  0  0  0  0
   -6.5851   -3.7149   -4.2460 H   0  0  0  0  0  0  0  0  0  0  0  0
  1  2  1  0
  2  3  1  0
  3  4  2  0
  3  5  1  0
  5  6  1  0
  6  7  1  0
  7  8  1  0
  8  9  1  0
  9 10  1  0
 10 11  1  0
 11 12  2  0
 10 13  1  0
 13 14  1  0
 14 15  1  0
 15 16  1  0
 16 17  2  3
 17 18  1  0
 17 19  1  0
  9 20  1  0
 20 21  2  0
 20 22  1  0
 22 23  1  0
 23 24  1  0
 24 25  2  0
 25 26  1  0
 26 27  2  0
 27 28  1  0
 28 29  2  0
 22 30  1  0
 30 31  1  0
 31 32  2  0
 31 33  1  0
 33 34  1  0
 34 35  1  0
 35 36  2  0
 36 37  1  0
 37 38  2  0
 38 39  1  0
 39 40  2  0
 38 41  1  0
 33 42  1  0
 42 43  1  0
 43 44  2  0
 43 45  1  0
  5 46  1  0
 46 47  1  0
 47 48  2  0
 48 49  1  0
 49 50  2  0
 50 51  1  0
 51 52  2  0
 51 53  1  0
 53 54  2  0
 54 55  1  0
 55 56  2  0
 11  6  1  0
 29 24  1  0
 40 35  1  0
 52 47  1  0
 56 50  1  0
  1 57  1  0
  1 58  1  0
  1 59  1  0
  2 60  1  0
  5 61  1  1
  7 62  1  0
  7 63  1  0
  8 64  1  0
  8 65  1  0
 10 66  1  1
 13 67  1  0
 13 68  1  0
 14 69  1  0
 14 70  1  0
 15 71  1  0
 15 72  1  0
 18 73  1  0
 18 74  1  0
 19 75  1  0
 19 76  1  0
 22 77  1  6
 23 78  1  0
 23 79  1  0
 25 80  1  0
 26 81  1  0
 27 82  1  0
 28 83  1  0
 29 84  1  0
 30 85  1  0
 33 86  1  1
 34 87  1  0
 34 88  1  0
 36 89  1  0
 37 90  1  0
 39 91  1  0
 40 92  1  0
 41 93  1  0
 42 94  1  0
 45 95  1  0
 45 96  1  0
 45 97  1  0
 46 98  1  0
 46 99  1  0
 48100  1  0
 49101  1  0
 52102  1  0
 53103  1  0
 54104  1  0
 55105  1  0
 56106  1  0
M  END
>  <Ligand ID>  (1) 
LIG0003289

>  <Ligand>  (1) 
CHEMBL379054

>  <SMILES>  (1) 
CNC(=O)[C@@H](N1CCN([C@H](C1=O)CCCN=C(N)N)C(=O)[C@@H](Cc1ccccc1)NC(=O)[C@H](Cc1ccc(cc1)O)NC(=O)C)Cc1ccc2c(c1)cccc2

>  <CID>  (1) 
44415914.0

>  <ChEMBL ID>  (1) 
nan

>  <InChiKey>  (1) 
KYOVLZCJSUXUJI-NBRFXYHLSA-N

>  <InChi>  (1) 
InChI=1S/C42H50N8O6/c1-27(51)47-34(24-29-15-18-33(52)19-16-29)38(53)48-35(25-28-9-4-3-5-10-28)40(55)49-21-22-50(41(56)36(49)13-8-20-46-42(43)44)37(39(54)45-2)26-30-14-17-31-11-6-7-12-32(31)23-30/h3-7,9-12,14-19,23,34-37,52H,8,13,20-22,24-26H2,1-2H3,(H,45,54)(H,47,51)(H,48,53)(H4,43,44,46)/t34-,35+,36-,37-/m0/s1

>  <IUPAC Name>  (1) 
(2S)-2-acetamido-N-[(2R)-1-[(2S)-2-[3-(diaminomethylideneamino)propyl]-4-[(2S)-1-(methylamino)-3-naphthalen-2-yl-1-oxopropan-2-yl]-3-oxopiperazin-1-yl]-1-oxo-3-phenylpropan-2-yl]-3-(4-hydroxyphenyl)propanamide

$$$$
