
     RDKit          3D

 43 42  0  0  0  0  0  0  0  0999 V2000
   -3.8220    1.6822   -0.5269 C   0  0  0  0  0  0  0  0  0  0  0  0
   -4.4371    0.6121   -1.3473 C   0  0  0  0  0  0  0  0  0  0  0  0
   -4.8288   -0.6499   -0.7307 C   0  0  0  0  0  0  0  0  0  0  0  0
   -3.9416   -1.6382   -0.1700 C   0  0  0  0  0  0  0  0  0  0  0  0
   -3.0730   -1.4812    0.9636 C   0  0  0  0  0  0  0  0  0  0  0  0
   -1.9600   -0.5209    0.9105 C   0  0  0  0  0  0  0  0  0  0  0  0
   -1.0767   -0.7932   -0.2899 C   0  0  0  0  0  0  0  0  0  0  0  0
    0.0858    0.1732   -0.3870 C   0  0  0  0  0  0  0  0  0  0  0  0
    0.9685    0.1349    0.7691 C   0  0  0  0  0  0  0  0  0  0  0  0
    2.2834   -0.1724    0.7557 C   0  0  0  0  0  0  0  0  0  0  0  0
    3.0508   -0.5215   -0.4260 C   0  0  0  0  0  0  0  0  0  0  0  0
    4.1902    0.2957   -0.8529 C   0  0  0  0  0  0  0  0  0  0  0  0
    5.3896    0.4766   -0.0318 C   0  0  0  0  0  0  0  0  0  0  0  0
    5.3054    1.1005    1.3071 C   0  0  0  0  0  0  0  0  0  0  0  0
    6.6613    1.1620    1.7850 O   0  0  0  0  0  0  0  0  0  0  0  0
   -4.2108    2.7098   -0.8512 H   0  0  0  0  0  0  0  0  0  0  0  0
   -2.7428    1.7372   -0.7071 H   0  0  0  0  0  0  0  0  0  0  0  0
   -4.0707    1.6252    0.5359 H   0  0  0  0  0  0  0  0  0  0  0  0
   -3.7790    0.4261   -2.2778 H   0  0  0  0  0  0  0  0  0  0  0  0
   -5.3799    1.0430   -1.8194 H   0  0  0  0  0  0  0  0  0  0  0  0
   -5.6705   -0.3937    0.0520 H   0  0  0  0  0  0  0  0  0  0  0  0
   -5.5085   -1.2454   -1.4749 H   0  0  0  0  0  0  0  0  0  0  0  0
   -3.2987   -2.0139   -1.0980 H   0  0  0  0  0  0  0  0  0  0  0  0
   -4.5271   -2.6593   -0.0458 H   0  0  0  0  0  0  0  0  0  0  0  0
   -2.5932   -2.5246    1.1738 H   0  0  0  0  0  0  0  0  0  0  0  0
   -3.6527   -1.3714    1.9524 H   0  0  0  0  0  0  0  0  0  0  0  0
   -1.3040   -0.8526    1.8448 H   0  0  0  0  0  0  0  0  0  0  0  0
   -2.1754    0.5014    1.1542 H   0  0  0  0  0  0  0  0  0  0  0  0
   -0.7695   -1.8421   -0.2435 H   0  0  0  0  0  0  0  0  0  0  0  0
   -1.6692   -0.6740   -1.2193 H   0  0  0  0  0  0  0  0  0  0  0  0
    0.5531    0.0250   -1.3486 H   0  0  0  0  0  0  0  0  0  0  0  0
   -0.4131    1.1916   -0.4658 H   0  0  0  0  0  0  0  0  0  0  0  0
    0.5071    0.3837    1.7512 H   0  0  0  0  0  0  0  0  0  0  0  0
    2.7419   -0.1564    1.7385 H   0  0  0  0  0  0  0  0  0  0  0  0
    3.4656   -1.5962   -0.3417 H   0  0  0  0  0  0  0  0  0  0  0  0
    2.3898   -0.6494   -1.3389 H   0  0  0  0  0  0  0  0  0  0  0  0
    3.8832    1.3182   -1.2326 H   0  0  0  0  0  0  0  0  0  0  0  0
    4.5619   -0.1881   -1.8272 H   0  0  0  0  0  0  0  0  0  0  0  0
    6.0265   -0.4629    0.0186 H   0  0  0  0  0  0  0  0  0  0  0  0
    6.0767    1.1655   -0.6348 H   0  0  0  0  0  0  0  0  0  0  0  0
    4.8383    0.4658    2.0944 H   0  0  0  0  0  0  0  0  0  0  0  0
    4.9244    2.1184    1.2939 H   0  0  0  0  0  0  0  0  0  0  0  0
    7.0006    2.0593    1.5887 H   0  0  0  0  0  0  0  0  0  0  0  0
  1  2  1  0
  2  3  1  0
  3  4  1  0
  4  5  1  0
  5  6  1  0
  6  7  1  0
  7  8  1  0
  8  9  1  0
  9 10  2  0
 10 11  1  0
 11 12  1  0
 12 13  1  0
 13 14  1  0
 14 15  1  0
  1 16  1  0
  1 17  1  0
  1 18  1  0
  2 19  1  0
  2 20  1  0
  3 21  1  0
  3 22  1  0
  4 23  1  0
  4 24  1  0
  5 25  1  0
  5 26  1  0
  6 27  1  0
  6 28  1  0
  7 29  1  0
  7 30  1  0
  8 31  1  0
  8 32  1  0
  9 33  1  0
 10 34  1  0
 11 35  1  0
 11 36  1  0
 12 37  1  0
 12 38  1  0
 13 39  1  0
 13 40  1  0
 14 41  1  0
 14 42  1  0
 15 43  1  0
M  END
>  <Ligand ID>  (1) 
LIG0002075

>  <Ligand>  (1) 
(Z)-tetradec-5-en-1-ol

>  <SMILES>  (1) 
CCCCCCCC/C=C\CCCCO

>  <CID>  (1) 
6427104.0

>  <ChEMBL ID>  (1) 
nan

>  <InChiKey>  (1) 
ZYTGEAXLNDKCTI-KTKRTIGZSA-N

>  <InChi>  (1) 
InChI=1S/C14H28O/c1-2-3-4-5-6-7-8-9-10-11-12-13-14-15/h9-10,15H,2-8,11-14H2,1H3/b10-9-

>  <IUPAC Name>  (1) 
(Z)-tetradec-5-en-1-ol

$$$$
