
     RDKit          3D

 30 31  0  0  0  0  0  0  0  0999 V2000
   -2.2815   -2.1693    0.0065 O   0  0  0  0  0  0  0  0  0  0  0  0
   -2.5108   -1.1037   -0.8751 C   0  0  0  0  0  0  0  0  0  0  0  0
   -2.7243   -1.2894   -2.1023 O   0  0  0  0  0  0  0  0  0  0  0  0
   -2.5002    0.3075   -0.3308 C   0  0  1  0  0  0  0  0  0  0  0  0
   -1.2010    0.4651    0.3640 C   0  0  1  0  0  0  0  0  0  0  0  0
    0.0588    0.2974   -0.4121 C   0  0  1  0  0  0  0  0  0  0  0  0
   -0.2882    1.5706    0.3875 C   0  0  1  0  0  0  0  0  0  0  0  0
   -0.2410    2.7654   -0.4452 C   0  0  0  0  0  0  0  0  0  0  0  0
   -0.7789    2.8637   -1.5988 O   0  0  0  0  0  0  0  0  0  0  0  0
    0.4205    3.9488   -0.0382 O   0  0  0  0  0  0  0  0  0  0  0  0
    1.2087   -0.4694    0.1252 C   0  0  0  0  0  0  0  0  0  0  0  0
    2.0752   -1.0910   -0.7689 C   0  0  0  0  0  0  0  0  0  0  0  0
    3.1610   -1.8165   -0.3041 C   0  0  0  0  0  0  0  0  0  0  0  0
    3.3845   -1.9233    1.0549 C   0  0  0  0  0  0  0  0  0  0  0  0
    2.5346   -1.3125    1.9659 C   0  0  0  0  0  0  0  0  0  0  0  0
    1.4559   -0.5927    1.4740 C   0  0  0  0  0  0  0  0  0  0  0  0
   -2.7591    1.1265   -1.4598 N   0  0  0  0  0  0  0  0  0  0  0  0
   -2.7140   -3.0758   -0.2275 H   0  0  0  0  0  0  0  0  0  0  0  0
   -3.3431    0.3010    0.4137 H   0  0  0  0  0  0  0  0  0  0  0  0
   -1.1920   -0.1993    1.2902 H   0  0  0  0  0  0  0  0  0  0  0  0
   -0.0293    0.3211   -1.4953 H   0  0  0  0  0  0  0  0  0  0  0  0
    0.2815    1.7283    1.3575 H   0  0  0  0  0  0  0  0  0  0  0  0
    0.7105    4.6367   -0.7255 H   0  0  0  0  0  0  0  0  0  0  0  0
    1.9265   -1.0256   -1.8430 H   0  0  0  0  0  0  0  0  0  0  0  0
    3.8561   -2.3137   -0.9789 H   0  0  0  0  0  0  0  0  0  0  0  0
    4.2559   -2.5068    1.3908 H   0  0  0  0  0  0  0  0  0  0  0  0
    2.7149   -1.4000    3.0214 H   0  0  0  0  0  0  0  0  0  0  0  0
    0.8078   -0.1261    2.1935 H   0  0  0  0  0  0  0  0  0  0  0  0
   -2.5184    0.6930   -2.3769 H   0  0  0  0  0  0  0  0  0  0  0  0
   -3.7704    1.3900   -1.4606 H   0  0  0  0  0  0  0  0  0  0  0  0
  1  2  1  0
  2  3  2  0
  2  4  1  0
  4  5  1  0
  5  6  1  0
  6  7  1  0
  7  8  1  0
  8  9  2  0
  8 10  1  0
  6 11  1  0
 11 12  2  0
 12 13  1  0
 13 14  2  0
 14 15  1  0
 15 16  2  0
  4 17  1  0
  7  5  1  0
 16 11  1  0
  1 18  1  0
  4 19  1  1
  5 20  1  1
  6 21  1  6
  7 22  1  1
 10 23  1  0
 12 24  1  0
 13 25  1  0
 14 26  1  0
 15 27  1  0
 16 28  1  0
 17 29  1  0
 17 30  1  0
M  END
>  <Ligand ID>  (1) 
LIG0002588

>  <Ligand>  (1) 
CHEMBL2114110

>  <SMILES>  (1) 
OC(=O)[C@@H]([C@H]1[C@@H]([C@H]1C(=O)O)c1ccccc1)N

>  <CID>  (1) 
10059959.0

>  <ChEMBL ID>  (1) 
nan

>  <InChiKey>  (1) 
IFLWVSHRWAIVQF-AXTSPUMRSA-N

>  <InChi>  (1) 
InChI=1S/C12H13NO4/c13-10(12(16)17)8-7(9(8)11(14)15)6-4-2-1-3-5-6/h1-5,7-10H,13H2,(H,14,15)(H,16,17)/t7-,8-,9+,10+/m0/s1

>  <IUPAC Name>  (1) 
(1R,2S,3S)-2-[(R)-amino(carboxy)methyl]-3-phenylcyclopropane-1-carboxylic acid

$$$$
