
     RDKit          3D

 14 14  0  0  0  0  0  0  0  0999 V2000
    2.4230    1.3764   -0.5476 S   0  0  0  0  0  0  0  0  0  0  0  0
    0.9778    0.6127    0.2220 C   0  0  0  0  0  0  0  0  0  0  0  0
    0.4668   -0.4903   -0.6634 C   0  0  0  0  0  0  0  0  0  0  0  0
   -0.9190   -0.8393   -0.2653 C   0  0  0  0  0  0  0  0  0  0  0  0
   -1.7118    0.3892   -0.0168 C   0  0  0  0  0  0  0  0  0  0  0  0
   -0.4744    1.7164    0.1887 S   0  0  0  0  0  0  0  0  0  0  0  0
    3.4067    0.3587   -0.6160 H   0  0  0  0  0  0  0  0  0  0  0  0
    1.1510    0.3031    1.2617 H   0  0  0  0  0  0  0  0  0  0  0  0
    0.5634   -0.1373   -1.7081 H   0  0  0  0  0  0  0  0  0  0  0  0
    1.1260   -1.3534   -0.5141 H   0  0  0  0  0  0  0  0  0  0  0  0
   -0.9086   -1.4895    0.6188 H   0  0  0  0  0  0  0  0  0  0  0  0
   -1.3969   -1.3705   -1.1255 H   0  0  0  0  0  0  0  0  0  0  0  0
   -2.4462    0.6153   -0.8048 H   0  0  0  0  0  0  0  0  0  0  0  0
   -2.2579    0.3086    0.9606 H   0  0  0  0  0  0  0  0  0  0  0  0
  1  2  1  0
  2  3  1  0
  3  4  1  0
  4  5  1  0
  5  6  1  0
  6  2  1  0
  1  7  1  0
  2  8  1  0
  3  9  1  0
  3 10  1  0
  4 11  1  0
  4 12  1  0
  5 13  1  0
  5 14  1  0
M  END
>  <Ligand ID>  (1) 
LIG0002105

>  <Ligand>  (1) 
2-Tetrahydrothiophenethiol

>  <SMILES>  (1) 
SC1CCCS1

>  <CID>  (1) 
526191.0

>  <ChEMBL ID>  (1) 
nan

>  <InChiKey>  (1) 
MBURDTXKYKCZEZ-UHFFFAOYSA-N

>  <InChi>  (1) 
InChI=1S/C4H8S2/c5-4-2-1-3-6-4/h4-5H,1-3H2

>  <IUPAC Name>  (1) 
thiolane-2-thiol

$$$$
