
     RDKit          3D

 46 48  0  0  0  0  0  0  0  0999 V2000
    3.5389    3.8435   -0.5486 C   0  0  0  0  0  0  0  0  0  0  0  0
    4.2056    2.9414   -1.5633 C   0  0  0  0  0  0  0  0  0  0  0  0
    4.1596    1.5932   -1.2004 O   0  0  0  0  0  0  0  0  0  0  0  0
    3.0249    0.8588   -0.9922 C   0  0  0  0  0  0  0  0  0  0  0  0
    1.9111    1.4396   -1.1379 O   0  0  0  0  0  0  0  0  0  0  0  0
    3.0986   -0.5517   -0.6137 C   0  0  0  0  0  0  0  0  0  0  0  0
    4.1698   -1.2891   -0.4255 O   0  0  0  0  0  0  0  0  0  0  0  0
    3.8358   -2.5113   -0.0937 C   0  0  0  0  0  0  0  0  0  0  0  0
    2.4601   -2.6191   -0.0517 C   0  0  0  0  0  0  0  0  0  0  0  0
    1.9898   -1.3626   -0.3851 C   0  0  0  0  0  0  0  0  0  0  0  0
    0.6395   -0.9317   -0.4884 N   0  0  0  0  0  0  0  0  0  0  0  0
   -0.0840   -0.3888    0.6035 C   0  0  0  0  0  0  0  0  0  0  0  0
    0.4869   -0.2798    1.7184 O   0  0  0  0  0  0  0  0  0  0  0  0
   -1.4660    0.0554    0.5096 C   0  0  0  0  0  0  0  0  0  0  0  0
   -2.0533    0.5647    1.6497 C   0  0  0  0  0  0  0  0  0  0  0  0
   -3.3802    1.0084    1.6227 C   0  0  0  0  0  0  0  0  0  0  0  0
   -3.9475    1.5153    2.7793 O   0  0  0  0  0  0  0  0  0  0  0  0
   -5.2944    1.9821    2.8123 C   0  0  0  0  0  0  0  0  0  0  0  0
   -4.0872    0.9300    0.4492 C   0  0  0  0  0  0  0  0  0  0  0  0
   -3.5100    0.4243   -0.6903 C   0  0  0  0  0  0  0  0  0  0  0  0
   -2.2008   -0.0111   -0.6550 C   0  0  0  0  0  0  0  0  0  0  0  0
   -4.1928    0.3343   -1.8761 O   0  0  0  0  0  0  0  0  0  0  0  0
   -5.5324    0.7418   -2.0520 C   0  0  0  0  0  0  0  0  0  0  0  0
    1.8122   -3.8006    0.2721 C   0  0  0  0  0  0  0  0  0  0  0  0
    2.5678   -4.9389    0.5710 C   0  0  0  0  0  0  0  0  0  0  0  0
    3.9438   -4.8472    0.5334 C   0  0  0  0  0  0  0  0  0  0  0  0
    4.5640   -3.6520    0.2062 C   0  0  0  0  0  0  0  0  0  0  0  0
    3.5605    4.8782   -0.9354 H   0  0  0  0  0  0  0  0  0  0  0  0
    2.5028    3.5590   -0.3172 H   0  0  0  0  0  0  0  0  0  0  0  0
    4.1112    3.7898    0.4008 H   0  0  0  0  0  0  0  0  0  0  0  0
    5.2702    3.2527   -1.6199 H   0  0  0  0  0  0  0  0  0  0  0  0
    3.7798    3.1613   -2.5568 H   0  0  0  0  0  0  0  0  0  0  0  0
    0.1853   -1.0289   -1.4136 H   0  0  0  0  0  0  0  0  0  0  0  0
   -1.5395    0.6447    2.5871 H   0  0  0  0  0  0  0  0  0  0  0  0
   -5.9865    1.1367    2.8654 H   0  0  0  0  0  0  0  0  0  0  0  0
   -5.4709    2.6479    3.6604 H   0  0  0  0  0  0  0  0  0  0  0  0
   -5.4896    2.5715    1.8877 H   0  0  0  0  0  0  0  0  0  0  0  0
   -5.1148    1.2583    0.3723 H   0  0  0  0  0  0  0  0  0  0  0  0
   -1.7525   -0.4082   -1.5558 H   0  0  0  0  0  0  0  0  0  0  0  0
   -5.8869    0.3001   -3.0148 H   0  0  0  0  0  0  0  0  0  0  0  0
   -5.6350    1.8389   -2.1533 H   0  0  0  0  0  0  0  0  0  0  0  0
   -6.1543    0.3492   -1.2158 H   0  0  0  0  0  0  0  0  0  0  0  0
    0.7446   -3.8120    0.2852 H   0  0  0  0  0  0  0  0  0  0  0  0
    2.0702   -5.8632    0.8243 H   0  0  0  0  0  0  0  0  0  0  0  0
    4.5054   -5.7416    0.7686 H   0  0  0  0  0  0  0  0  0  0  0  0
    5.6403   -3.5832    0.1775 H   0  0  0  0  0  0  0  0  0  0  0  0
  1  2  1  0
  2  3  1  0
  3  4  1  0
  4  5  2  0
  4  6  1  0
  6  7  1  0
  7  8  1  0
  8  9  2  0
  9 10  1  0
 10 11  1  0
 11 12  1  0
 12 13  2  0
 12 14  1  0
 14 15  2  0
 15 16  1  0
 16 17  1  0
 17 18  1  0
 16 19  2  0
 19 20  1  0
 20 21  2  0
 20 22  1  0
 22 23  1  0
  9 24  1  0
 24 25  2  0
 25 26  1  0
 26 27  2  0
 10  6  2  0
 21 14  1  0
 27  8  1  0
  1 28  1  0
  1 29  1  0
  1 30  1  0
  2 31  1  0
  2 32  1  0
 11 33  1  0
 15 34  1  0
 18 35  1  0
 18 36  1  0
 18 37  1  0
 19 38  1  0
 21 39  1  0
 23 40  1  0
 23 41  1  0
 23 42  1  0
 24 43  1  0
 25 44  1  0
 26 45  1  0
 27 46  1  0
M  END
>  <Ligand ID>  (1) 
LIG0004444

>  <Ligand>  (1) 
SMR000028646

>  <SMILES>  (1) 
CCOC(=O)c1oc2c(c1NC(=O)c1cc(OC)cc(c1)OC)cccc2

>  <CID>  (1) 
3237605.0

>  <ChEMBL ID>  (1) 
nan

>  <InChiKey>  (1) 
NQCAQHREUACKCK-UHFFFAOYSA-N

>  <InChi>  (1) 
InChI=1S/C20H19NO6/c1-4-26-20(23)18-17(15-7-5-6-8-16(15)27-18)21-19(22)12-9-13(24-2)11-14(10-12)25-3/h5-11H,4H2,1-3H3,(H,21,22)

>  <IUPAC Name>  (1) 
ethyl 3-[(3,5-dimethoxybenzoyl)amino]-1-benzofuran-2-carboxylate

$$$$
