
     RDKit          3D

 45 48  0  0  0  0  0  0  0  0999 V2000
    4.8815   -0.3249    2.1208 N   0  0  0  0  0  0  0  0  0  0  0  0
    3.6459    0.2414    1.6542 C   0  0  0  0  0  0  0  0  0  0  0  0
    3.1112    1.2598    2.3988 C   0  0  0  0  0  0  0  0  0  0  0  0
    1.9335    1.8172    1.9784 C   0  0  0  0  0  0  0  0  0  0  0  0
    1.3053    1.3551    0.8279 C   0  0  0  0  0  0  0  0  0  0  0  0
    1.8371    0.3252    0.0658 C   0  0  0  0  0  0  0  0  0  0  0  0
    3.0258   -0.2207    0.5104 C   0  0  0  0  0  0  0  0  0  0  0  0
    1.2183   -0.1854   -1.1563 C   0  0  1  0  0  0  0  0  0  0  0  0
    2.3210   -0.5106   -2.1293 C   0  0  0  0  0  0  0  0  0  0  0  0
    0.3925   -1.3961   -0.8733 C   0  0  0  0  0  0  0  0  0  0  0  0
   -0.8408   -1.0957   -0.0521 C   0  0  0  0  0  0  0  0  0  0  0  0
   -1.3933    0.1776   -0.2071 N   0  0  0  0  0  0  0  0  0  0  0  0
   -0.6788    1.2604   -0.7042 C   0  0  0  0  0  0  0  0  0  0  0  0
    0.0422    1.9701    0.4003 C   0  0  0  0  0  0  0  0  0  0  0  0
   -0.3950    3.0200    0.9292 O   0  0  0  0  0  0  0  0  0  0  0  0
    0.3314    0.8854   -1.7710 C   0  0  2  0  0  0  0  0  0  0  0  0
   -0.3805    0.4115   -2.9958 C   0  0  0  0  0  0  0  0  0  0  0  0
   -2.4889    0.4810    0.6144 C   0  0  0  0  0  0  0  0  0  0  0  0
   -3.7622   -0.2473    0.2791 C   0  0  0  0  0  0  0  0  0  0  0  0
   -4.9054    0.1380    1.2293 C   0  0  0  0  0  0  0  0  0  0  0  0
   -4.4046   -1.2589    1.1228 C   0  0  0  0  0  0  0  0  0  0  0  0
    4.9323   -0.6211    3.1226 H   0  0  0  0  0  0  0  0  0  0  0  0
    5.7133   -0.4492    1.5174 H   0  0  0  0  0  0  0  0  0  0  0  0
    3.6161    1.6180    3.3045 H   0  0  0  0  0  0  0  0  0  0  0  0
    1.4527    2.6183    2.4989 H   0  0  0  0  0  0  0  0  0  0  0  0
    3.5321   -1.0342   -0.0048 H   0  0  0  0  0  0  0  0  0  0  0  0
    3.2408    0.1075   -1.9144 H   0  0  0  0  0  0  0  0  0  0  0  0
    1.9827   -0.2879   -3.1569 H   0  0  0  0  0  0  0  0  0  0  0  0
    2.6404   -1.5559   -2.1000 H   0  0  0  0  0  0  0  0  0  0  0  0
    0.0737   -1.9300   -1.7944 H   0  0  0  0  0  0  0  0  0  0  0  0
    1.0144   -2.1366   -0.3221 H   0  0  0  0  0  0  0  0  0  0  0  0
   -0.5580   -1.3447    1.0200 H   0  0  0  0  0  0  0  0  0  0  0  0
   -1.6027   -1.8762   -0.2972 H   0  0  0  0  0  0  0  0  0  0  0  0
   -1.4176    1.9958   -1.1443 H   0  0  0  0  0  0  0  0  0  0  0  0
    0.9686    1.7469   -1.9850 H   0  0  0  0  0  0  0  0  0  0  0  0
   -1.4849    0.2954   -2.8234 H   0  0  0  0  0  0  0  0  0  0  0  0
   -0.2485    1.1599   -3.8056 H   0  0  0  0  0  0  0  0  0  0  0  0
   -0.0220   -0.5774   -3.3245 H   0  0  0  0  0  0  0  0  0  0  0  0
   -2.3158    0.2952    1.7086 H   0  0  0  0  0  0  0  0  0  0  0  0
   -2.7675    1.5818    0.5521 H   0  0  0  0  0  0  0  0  0  0  0  0
   -4.0611   -0.2057   -0.8153 H   0  0  0  0  0  0  0  0  0  0  0  0
   -4.6553    0.7094    2.1562 H   0  0  0  0  0  0  0  0  0  0  0  0
   -5.8735    0.3903    0.7586 H   0  0  0  0  0  0  0  0  0  0  0  0
   -5.0712   -1.9858    0.6033 H   0  0  0  0  0  0  0  0  0  0  0  0
   -3.8850   -1.6792    2.0033 H   0  0  0  0  0  0  0  0  0  0  0  0
  1  2  1  0
  2  3  2  0
  3  4  1  0
  4  5  2  0
  5  6  1  0
  6  7  2  0
  6  8  1  0
  8  9  1  6
  8 10  1  0
 10 11  1  0
 11 12  1  0
 12 13  1  0
 13 14  1  0
 14 15  2  0
 13 16  1  0
 16 17  1  0
 12 18  1  0
 18 19  1  0
 19 20  1  0
 20 21  1  0
  7  2  1  0
 16  8  1  0
 21 19  1  0
 14  5  1  0
  1 22  1  0
  1 23  1  0
  3 24  1  0
  4 25  1  0
  7 26  1  0
  9 27  1  0
  9 28  1  0
  9 29  1  0
 10 30  1  0
 10 31  1  0
 11 32  1  0
 11 33  1  0
 13 34  1  0
 16 35  1  6
 17 36  1  0
 17 37  1  0
 17 38  1  0
 18 39  1  0
 18 40  1  0
 19 41  1  0
 20 42  1  0
 20 43  1  0
 21 44  1  0
 21 45  1  0
M  END
>  <Ligand ID>  (1) 
LIG0005517

>  <Ligand>  (1) 
CHEMBL422560

>  <SMILES>  (1) 
Nc1ccc2c(c1)[C@@]1(C)CCN(C(C2=O)[C@@H]1C)CC1CC1

>  <CID>  (1) 
10334091.0

>  <ChEMBL ID>  (1) 
nan

>  <InChiKey>  (1) 
NVNLCWUDSURWQS-GQWBRKQSSA-N

>  <InChi>  (1) 
InChI=1S/C18H24N2O/c1-11-16-17(21)14-6-5-13(19)9-15(14)18(11,2)7-8-20(16)10-12-3-4-12/h5-6,9,11-12,16H,3-4,7-8,10,19H2,1-2H3/t11-,16?,18-/m0/s1

>  <IUPAC Name>  (1) 
(1S,13R)-4-amino-10-(cyclopropylmethyl)-1,13-dimethyl-10-azatricyclo[7.3.1.02,7]trideca-2(7),3,5-trien-8-one

$$$$
