
     RDKit          3D

 59 63  0  0  0  0  0  0  0  0999 V2000
   -0.9861   -3.7054   -0.5714 N   0  0  0  0  0  0  0  0  0  0  0  0
   -1.3189   -2.6697   -0.1807 C   0  0  0  0  0  0  0  0  0  0  0  0
   -1.7544   -1.3969    0.2997 C   0  0  0  0  0  0  0  0  0  0  0  0
   -1.0869   -0.8111    1.3473 C   0  0  0  0  0  0  0  0  0  0  0  0
    0.3785   -1.2806    2.1047 S   0  0  0  0  0  0  0  0  0  0  0  0
    1.4615   -2.4901    1.4862 C   0  0  0  0  0  0  0  0  0  0  0  0
    2.3219   -1.9674    0.4013 C   0  0  0  0  0  0  0  0  0  0  0  0
    2.0740   -1.9724   -0.9331 C   0  0  0  0  0  0  0  0  0  0  0  0
    3.0167   -1.4448   -1.8239 C   0  0  0  0  0  0  0  0  0  0  0  0
    4.1761   -0.9287   -1.3760 N   0  0  0  0  0  0  0  0  0  0  0  0
    4.4703   -0.9010   -0.0601 C   0  0  0  0  0  0  0  0  0  0  0  0
    3.5435   -1.4178    0.8103 C   0  0  0  0  0  0  0  0  0  0  0  0
    5.7453   -0.3558    0.4386 C   0  0  0  0  0  0  0  0  0  0  0  0
    6.0328   -0.3438    1.6686 O   0  0  0  0  0  0  0  0  0  0  0  0
    6.6615    0.1617   -0.4884 N   0  0  0  0  0  0  0  0  0  0  0  0
    7.9243    0.6978   -0.1002 C   0  0  0  0  0  0  0  0  0  0  0  0
    8.9914    1.0518   -1.0275 C   0  0  0  0  0  0  0  0  0  0  0  0
    8.1451    2.1763   -0.5607 C   0  0  0  0  0  0  0  0  0  0  0  0
   -1.6720    0.3643    1.7916 N   0  0  0  0  0  0  0  0  0  0  0  0
   -2.7708    0.8827    1.2593 C   0  0  0  0  0  0  0  0  0  0  0  0
   -3.4259    0.2850    0.2072 C   0  0  0  0  0  0  0  0  0  0  0  0
   -2.8960   -0.8853   -0.2771 C   0  0  0  0  0  0  0  0  0  0  0  0
   -3.5658   -1.5553   -1.4086 C   0  0  0  0  0  0  0  0  0  0  0  0
   -4.5163   -2.5343   -1.2068 C   0  0  0  0  0  0  0  0  0  0  0  0
   -5.1651   -3.1699   -2.2561 C   0  0  0  0  0  0  0  0  0  0  0  0
   -4.8471   -2.8090   -3.5446 C   0  0  0  0  0  0  0  0  0  0  0  0
   -3.8880   -1.8219   -3.7287 C   0  0  0  0  0  0  0  0  0  0  0  0
   -3.2495   -1.1952   -2.7095 C   0  0  0  0  0  0  0  0  0  0  0  0
   -4.6080    0.8095   -0.4070 C   0  0  0  0  0  0  0  0  0  0  0  0
   -5.5650    1.2250   -0.9029 N   0  0  0  0  0  0  0  0  0  0  0  0
   -3.3085    2.1041    1.8045 N   0  0  0  0  0  0  0  0  0  0  0  0
   -4.6226    2.1821    2.4440 C   0  0  0  0  0  0  0  0  0  0  0  0
   -4.8169    3.6130    2.8293 C   0  0  0  0  0  0  0  0  0  0  0  0
   -3.9394    4.3219    1.8105 C   0  0  0  0  0  0  0  0  0  0  0  0
   -2.7148    3.4207    1.8359 C   0  0  0  0  0  0  0  0  0  0  0  0
    2.1838   -2.8438    2.3081 H   0  0  0  0  0  0  0  0  0  0  0  0
    0.9975   -3.4715    1.1975 H   0  0  0  0  0  0  0  0  0  0  0  0
    1.1900   -2.3620   -1.3771 H   0  0  0  0  0  0  0  0  0  0  0  0
    2.8255   -1.4475   -2.8893 H   0  0  0  0  0  0  0  0  0  0  0  0
    3.8020   -1.3803    1.8790 H   0  0  0  0  0  0  0  0  0  0  0  0
    6.4158    0.1589   -1.5047 H   0  0  0  0  0  0  0  0  0  0  0  0
    8.1491    0.5455    0.9957 H   0  0  0  0  0  0  0  0  0  0  0  0
   10.0289    1.0294   -0.5940 H   0  0  0  0  0  0  0  0  0  0  0  0
    8.9817    0.8247   -2.0922 H   0  0  0  0  0  0  0  0  0  0  0  0
    8.5060    2.8563    0.2517 H   0  0  0  0  0  0  0  0  0  0  0  0
    7.4456    2.6049   -1.2753 H   0  0  0  0  0  0  0  0  0  0  0  0
   -4.7941   -2.8458   -0.2057 H   0  0  0  0  0  0  0  0  0  0  0  0
   -5.9016   -3.9325   -2.0343 H   0  0  0  0  0  0  0  0  0  0  0  0
   -5.3419   -3.2944   -4.3923 H   0  0  0  0  0  0  0  0  0  0  0  0
   -3.6525   -1.5536   -4.7452 H   0  0  0  0  0  0  0  0  0  0  0  0
   -2.5053   -0.4296   -2.8160 H   0  0  0  0  0  0  0  0  0  0  0  0
   -5.4347    1.8834    1.7868 H   0  0  0  0  0  0  0  0  0  0  0  0
   -4.5788    1.5641    3.3623 H   0  0  0  0  0  0  0  0  0  0  0  0
   -4.4108    3.8051    3.8343 H   0  0  0  0  0  0  0  0  0  0  0  0
   -5.8591    3.9739    2.7002 H   0  0  0  0  0  0  0  0  0  0  0  0
   -3.6979    5.3583    2.0701 H   0  0  0  0  0  0  0  0  0  0  0  0
   -4.3703    4.2061    0.7944 H   0  0  0  0  0  0  0  0  0  0  0  0
   -2.1635    3.5004    2.8004 H   0  0  0  0  0  0  0  0  0  0  0  0
   -2.0406    3.6104    0.9698 H   0  0  0  0  0  0  0  0  0  0  0  0
  1  2  3  0
  2  3  1  0
  3  4  2  0
  4  5  1  0
  5  6  1  0
  6  7  1  0
  7  8  2  0
  8  9  1  0
  9 10  2  0
 10 11  1  0
 11 12  2  0
 11 13  1  0
 13 14  2  0
 13 15  1  0
 15 16  1  0
 16 17  1  0
 17 18  1  0
  4 19  1  0
 19 20  2  0
 20 21  1  0
 21 22  2  0
 22 23  1  0
 23 24  2  0
 24 25  1  0
 25 26  2  0
 26 27  1  0
 27 28  2  0
 21 29  1  0
 29 30  3  0
 20 31  1  0
 31 32  1  0
 32 33  1  0
 33 34  1  0
 34 35  1  0
 22  3  1  0
 28 23  1  0
 35 31  1  0
 12  7  1  0
 18 16  1  0
  6 36  1  0
  6 37  1  0
  8 38  1  0
  9 39  1  0
 12 40  1  0
 15 41  1  0
 16 42  1  0
 17 43  1  0
 17 44  1  0
 18 45  1  0
 18 46  1  0
 24 47  1  0
 25 48  1  0
 26 49  1  0
 27 50  1  0
 28 51  1  0
 32 52  1  0
 32 53  1  0
 33 54  1  0
 33 55  1  0
 34 56  1  0
 34 57  1  0
 35 58  1  0
 35 59  1  0
M  END
>  <Ligand ID>  (1) 
LIG0003082

>  <Ligand>  (1) 
SCHEMBL3336671

>  <SMILES>  (1) 
N#Cc1c(SCc2ccnc(c2)C(=O)NC2CC2)nc(c(c1c1ccccc1)C#N)N1CCCC1

>  <CID>  (1) 
68602402.0

>  <ChEMBL ID>  (1) 
nan

>  <InChiKey>  (1) 
TXZYEFSLJQNQOK-UHFFFAOYSA-N

>  <InChi>  (1) 
InChI=1S/C27H24N6OS/c28-15-21-24(19-6-2-1-3-7-19)22(16-29)27(32-25(21)33-12-4-5-13-33)35-17-18-10-11-30-23(14-18)26(34)31-20-8-9-20/h1-3,6-7,10-11,14,20H,4-5,8-9,12-13,17H2,(H,31,34)

>  <IUPAC Name>  (1) 
N-cyclopropyl-4-[(3,5-dicyano-4-phenyl-6-pyrrolidin-1-ylpyridin-2-yl)sulfanylmethyl]pyridine-2-carboxamide

$$$$
