
     RDKit          3D

 34 34  0  0  0  0  0  0  0  0999 V2000
    1.6070   -4.1742    0.9392 C   0  0  0  0  0  0  0  0  0  0  0  0
    0.5339   -3.4085    0.9364 C   0  0  0  0  0  0  0  0  0  0  0  0
    0.0344   -2.6419   -0.2296 C   0  0  0  0  0  0  0  0  0  0  0  0
   -0.0349   -1.2709   -0.0354 O   0  0  0  0  0  0  0  0  0  0  0  0
    0.9369   -0.3765    0.2387 C   0  0  0  0  0  0  0  0  0  0  0  0
    2.2817   -0.6375    0.3857 C   0  0  0  0  0  0  0  0  0  0  0  0
    3.2221    0.3350    0.6668 C   0  0  0  0  0  0  0  0  0  0  0  0
    4.5360    0.0512    0.8063 F   0  0  0  0  0  0  0  0  0  0  0  0
    2.8316    1.6411    0.8137 C   0  0  0  0  0  0  0  0  0  0  0  0
    1.4979    1.9470    0.6748 C   0  0  0  0  0  0  0  0  0  0  0  0
    0.5603    0.9556    0.3913 C   0  0  0  0  0  0  0  0  0  0  0  0
   -0.8391    1.3839    0.2591 C   0  0  0  0  0  0  0  0  0  0  0  0
   -1.1594    1.8129   -1.2062 C   0  0  0  0  0  0  0  0  0  0  0  0
   -1.9025    0.7691   -0.4938 C   0  0  0  0  0  0  0  0  0  0  0  0
   -3.3276    1.1625   -0.1041 C   0  0  0  0  0  0  0  0  0  0  0  0
   -3.5434    2.5916   -0.2574 N   0  0  0  0  0  0  0  0  0  0  0  0
    3.9949    2.8988    1.1699 Cl  0  0  0  0  0  0  0  0  0  0  0  0
    0.6914    0.0000    0.0000 Cl  0  0  0  0  0  0  0  0  0  0  0  0
    2.2009   -4.2852    0.0528 H   0  0  0  0  0  0  0  0  0  0  0  0
    1.9043   -4.6961    1.8197 H   0  0  0  0  0  0  0  0  0  0  0  0
   -0.0621   -3.3095    1.8611 H   0  0  0  0  0  0  0  0  0  0  0  0
   -0.9571   -3.0660   -0.5310 H   0  0  0  0  0  0  0  0  0  0  0  0
    0.7816   -2.8515   -1.0538 H   0  0  0  0  0  0  0  0  0  0  0  0
    2.6329   -1.6332    0.2739 H   0  0  0  0  0  0  0  0  0  0  0  0
    1.2096    2.9901    0.7954 H   0  0  0  0  0  0  0  0  0  0  0  0
   -1.1245    2.1274    1.0563 H   0  0  0  0  0  0  0  0  0  0  0  0
   -0.5000    1.4805   -2.0044 H   0  0  0  0  0  0  0  0  0  0  0  0
   -1.4850    2.8675   -1.2899 H   0  0  0  0  0  0  0  0  0  0  0  0
   -1.9242   -0.2518   -0.9226 H   0  0  0  0  0  0  0  0  0  0  0  0
   -3.3927    0.9341    0.9818 H   0  0  0  0  0  0  0  0  0  0  0  0
   -4.1010    0.6269   -0.6486 H   0  0  0  0  0  0  0  0  0  0  0  0
   -3.5261    2.8949   -1.2472 H   0  0  0  0  0  0  0  0  0  0  0  0
   -2.8863    3.1326    0.3239 H   0  0  0  0  0  0  0  0  0  0  0  0
   -0.6914    0.0000    0.0000 H   0  0  0  0  0  0  0  0  0  0  0  0
  1  2  2  0
  2  3  1  0
  3  4  1  0
  4  5  1  0
  5  6  2  0
  6  7  1  0
  7  8  1  0
  7  9  2  0
  9 10  1  0
 10 11  2  0
 11 12  1  0
 12 13  1  0
 13 14  1  0
 14 15  1  0
 15 16  1  0
  9 17  1  0
 11  5  1  0
 14 12  1  0
  1 19  1  0
  1 20  1  0
  2 21  1  0
  3 22  1  0
  3 23  1  0
  6 24  1  0
 10 25  1  0
 12 26  1  0
 13 27  1  0
 13 28  1  0
 14 29  1  0
 15 30  1  0
 15 31  1  0
 16 32  1  0
 16 33  1  0
 18 34  1  0
M  END
>  <Ligand ID>  (1) 
LIG0005655

>  <Ligand>  (1) 
CHEMBL3770174

>  <SMILES>  (1) 
C=CCOc1cc(F)c(cc1C1CC1CN)Cl.Cl

>  <CID>  (1) 
127028094.0

>  <ChEMBL ID>  (1) 
nan

>  <InChiKey>  (1) 
BFKVRYNWYCDLDI-UHFFFAOYSA-N

>  <InChi>  (1) 
InChI=1S/C13H15ClFNO.ClH/c1-2-3-17-13-6-12(15)11(14)5-10(13)9-4-8(9)7-16;/h2,5-6,8-9H,1,3-4,7,16H2;1H

>  <IUPAC Name>  (1) 
[2-(5-chloro-4-fluoro-2-prop-2-enoxyphenyl)cyclopropyl]methanamine;hydrochloride

$$$$
