
     RDKit          3D

 45 46  0  0  0  0  0  0  0  0999 V2000
   -1.0856   -0.2823    3.2279 O   0  0  0  0  0  0  0  0  0  0  0  0
   -1.5317   -0.3537    1.9147 C   0  0  2  0  0  0  0  0  0  0  0  0
   -0.7979    0.6151    1.0114 C   0  0  1  0  0  0  0  0  0  0  0  0
    0.5977    0.2028    0.6912 C   0  0  0  0  0  0  0  0  0  0  0  0
    1.0704    1.1002   -0.2650 O   0  0  0  0  0  0  0  0  0  0  0  0
    2.6544    0.7568   -0.7292 P   0  0  0  0  0  0  0  0  0  0  0  0
    3.6534    1.1999    0.3198 O   0  0  0  0  0  0  0  0  0  0  0  0
    2.8734   -0.8890   -1.0296 O   0  0  0  0  0  0  0  0  0  0  0  0
    4.4044   -1.4334   -0.6068 P   0  0  0  0  0  0  0  0  0  0  0  0
    4.6852   -1.1652    0.8374 O   0  0  0  0  0  0  0  0  0  0  0  0
    5.5995   -0.7552   -1.5720 O   0  0  0  0  0  0  0  0  0  0  0  0
    6.7367    0.1070   -0.6800 P   0  0  0  0  0  0  0  0  0  0  0  0
    6.4912    0.0492    0.8073 O   0  0  0  0  0  0  0  0  0  0  0  0
    6.6759    1.7234   -1.1732 O   0  0  0  0  0  0  0  0  0  0  0  0
    8.3230   -0.4449   -0.9829 O   0  0  0  0  0  0  0  0  0  0  0  0
    4.4306   -3.1089   -0.8466 O   0  0  0  0  0  0  0  0  0  0  0  0
    2.9566    1.5486   -2.2076 O   0  0  0  0  0  0  0  0  0  0  0  0
   -1.6428    0.5861   -0.1146 O   0  0  0  0  0  0  0  0  0  0  0  0
   -2.8961    0.8488    0.4229 C   0  0  2  0  0  0  0  0  0  0  0  0
   -2.9542    0.1806    1.7638 C   0  0  2  0  0  0  0  0  0  0  0  0
   -3.1192    1.1349    2.7784 O   0  0  0  0  0  0  0  0  0  0  0  0
   -3.9871    0.3358   -0.3831 N   0  0  0  0  0  0  0  0  0  0  0  0
   -3.8355   -0.6392   -1.2978 C   0  0  0  0  0  0  0  0  0  0  0  0
   -2.5659   -1.1923   -1.4886 O   0  0  0  0  0  0  0  0  0  0  0  0
   -4.9378   -1.0618   -2.0183 C   0  0  0  0  0  0  0  0  0  0  0  0
   -6.2007   -0.5068   -1.8237 C   0  0  0  0  0  0  0  0  0  0  0  0
   -7.2030   -0.8798   -2.4677 O   0  0  0  0  0  0  0  0  0  0  0  0
   -6.2977    0.4761   -0.8861 N   0  0  0  0  0  0  0  0  0  0  0  0
   -5.2086    0.8842   -0.1836 C   0  0  0  0  0  0  0  0  0  0  0  0
   -5.3639    1.8101    0.6820 O   0  0  0  0  0  0  0  0  0  0  0  0
   -0.7441   -1.2021    3.4605 H   0  0  0  0  0  0  0  0  0  0  0  0
   -1.4740   -1.3654    1.4799 H   0  0  0  0  0  0  0  0  0  0  0  0
   -0.8701    1.6450    1.4091 H   0  0  0  0  0  0  0  0  0  0  0  0
    0.5685   -0.8335    0.2955 H   0  0  0  0  0  0  0  0  0  0  0  0
    1.1833    0.2486    1.6126 H   0  0  0  0  0  0  0  0  0  0  0  0
    6.8907    2.3610   -0.4332 H   0  0  0  0  0  0  0  0  0  0  0  0
    8.8128   -0.5909   -0.1392 H   0  0  0  0  0  0  0  0  0  0  0  0
    4.1673   -3.5955   -0.0263 H   0  0  0  0  0  0  0  0  0  0  0  0
    3.3664    2.4381   -2.0474 H   0  0  0  0  0  0  0  0  0  0  0  0
   -3.0112    1.9473    0.4879 H   0  0  0  0  0  0  0  0  0  0  0  0
   -3.7005   -0.6296    1.8218 H   0  0  0  0  0  0  0  0  0  0  0  0
   -2.2468    1.5452    3.0233 H   0  0  0  0  0  0  0  0  0  0  0  0
   -2.4132   -1.8977   -2.1932 H   0  0  0  0  0  0  0  0  0  0  0  0
   -4.8295   -1.8538   -2.7655 H   0  0  0  0  0  0  0  0  0  0  0  0
   -7.2241    0.9364   -0.6912 H   0  0  0  0  0  0  0  0  0  0  0  0
  1  2  1  0
  2  3  1  0
  3  4  1  0
  4  5  1  0
  5  6  1  0
  6  7  2  0
  6  8  1  0
  8  9  1  0
  9 10  2  0
  9 11  1  0
 11 12  1  0
 12 13  2  0
 12 14  1  0
 12 15  1  0
  9 16  1  0
  6 17  1  0
  3 18  1  0
 18 19  1  0
 19 20  1  0
 20 21  1  0
 19 22  1  0
 22 23  1  0
 23 24  1  0
 23 25  2  0
 25 26  1  0
 26 27  2  0
 26 28  1  0
 28 29  1  0
 29 30  2  0
 20  2  1  0
 29 22  1  0
  1 31  1  0
  2 32  1  6
  3 33  1  1
  4 34  1  0
  4 35  1  0
 14 36  1  0
 15 37  1  0
 16 38  1  0
 17 39  1  0
 19 40  1  1
 20 41  1  6
 21 42  1  0
 24 43  1  0
 25 44  1  0
 28 45  1  0
M  END
>  <Ligand ID>  (1) 
LIG0002459

>  <Ligand>  (1) 
CHEMBL436959

>  <SMILES>  (1) 
O[C@@H]1[C@@H](COP(=O)(OP(=O)(OP(=O)(O)O)O)O)O[C@H]([C@@H]1O)n1c(O)cc(=O)[nH]c1=O

>  <CID>  (1) 
11995641.0

>  <ChEMBL ID>  (1) 
nan

>  <InChiKey>  (1) 
MTOPXBLKWYGUFG-YXZULKJRSA-N

>  <InChi>  (1) 
InChI=1S/C9H15N2O16P3/c12-4-1-5(13)11(9(16)10-4)8-7(15)6(14)3(25-8)2-24-29(20,21)27-30(22,23)26-28(17,18)19/h1,3,6-8,13-15H,2H2,(H,20,21)(H,22,23)(H,10,12,16)(H2,17,18,19)/t3-,6-,7-,8-/m1/s1

>  <IUPAC Name>  (1) 
[[(2R,3S,4R,5R)-3,4-dihydroxy-5-(6-hydroxy-2,4-dioxopyrimidin-1-yl)oxolan-2-yl]methoxy-hydroxyphosphoryl] phosphono hydrogen phosphate

$$$$
