
     RDKit          3D

 20 20  0  0  0  0  0  0  0  0999 V2000
   -2.4115    0.6027   -0.0285 N   0  0  0  0  0  0  0  0  0  0  0  0
   -1.0679    0.2795   -0.3734 C   0  0  0  0  0  0  0  0  0  0  0  0
   -0.6641   -1.0453    0.1976 C   0  0  0  0  0  0  0  0  0  0  0  0
    0.7562   -1.4090   -0.0342 C   0  0  0  0  0  0  0  0  0  0  0  0
    1.6796   -0.2626    0.3463 C   0  0  0  0  0  0  0  0  0  0  0  0
    1.2607    0.8997   -0.5264 C   0  0  0  0  0  0  0  0  0  0  0  0
   -0.0791    1.3643    0.0344 C   0  0  0  0  0  0  0  0  0  0  0  0
   -2.9556   -0.2882    0.0666 H   0  0  0  0  0  0  0  0  0  0  0  0
   -2.5130    1.0961    0.8966 H   0  0  0  0  0  0  0  0  0  0  0  0
   -0.9692    0.2199   -1.4860 H   0  0  0  0  0  0  0  0  0  0  0  0
   -0.8041   -1.0073    1.3031 H   0  0  0  0  0  0  0  0  0  0  0  0
   -1.3371   -1.8051   -0.2418 H   0  0  0  0  0  0  0  0  0  0  0  0
    1.0259   -2.2521    0.6423 H   0  0  0  0  0  0  0  0  0  0  0  0
    1.0046   -1.7260   -1.0582 H   0  0  0  0  0  0  0  0  0  0  0  0
    2.7361   -0.5343    0.2293 H   0  0  0  0  0  0  0  0  0  0  0  0
    1.5380   -0.0393    1.4309 H   0  0  0  0  0  0  0  0  0  0  0  0
    1.1103    0.4797   -1.5478 H   0  0  0  0  0  0  0  0  0  0  0  0
    1.9990    1.7062   -0.5874 H   0  0  0  0  0  0  0  0  0  0  0  0
    0.0570    1.3940    1.1399 H   0  0  0  0  0  0  0  0  0  0  0  0
   -0.3658    2.3271   -0.4033 H   0  0  0  0  0  0  0  0  0  0  0  0
  1  2  1  0
  2  3  1  0
  3  4  1  0
  4  5  1  0
  5  6  1  0
  6  7  1  0
  7  2  1  0
  1  8  1  0
  1  9  1  0
  2 10  1  0
  3 11  1  0
  3 12  1  0
  4 13  1  0
  4 14  1  0
  5 15  1  0
  5 16  1  0
  6 17  1  0
  6 18  1  0
  7 19  1  0
  7 20  1  0
M  END
>  <Ligand ID>  (1) 
LIG0005044

>  <Ligand>  (1) 
Cyclohexylamine

>  <SMILES>  (1) 
NC1CCCCC1

>  <CID>  (1) 
7965.0

>  <ChEMBL ID>  (1) 
nan

>  <InChiKey>  (1) 
PAFZNILMFXTMIY-UHFFFAOYSA-N

>  <InChi>  (1) 
InChI=1S/C6H13N/c7-6-4-2-1-3-5-6/h6H,1-5,7H2

>  <IUPAC Name>  (1) 
cyclohexanamine

$$$$
