
     RDKit          3D

 26 27  0  0  0  0  0  0  0  0999 V2000
    2.7708    0.5152    0.6894 C   0  0  0  0  0  0  0  0  0  0  0  0
    1.3978    0.4433    0.1096 C   0  0  0  0  0  0  0  0  0  0  0  0
    0.9407    1.3198   -0.7811 C   0  0  0  0  0  0  0  0  0  0  0  0
   -0.1260    0.8316   -1.7055 C   0  0  0  0  0  0  0  0  0  0  0  0
   -0.8021   -0.3647   -1.1100 C   0  0  1  0  0  0  0  0  0  0  0  0
    0.2210   -1.4343   -0.7759 C   0  0  0  0  0  0  0  0  0  0  0  0
    0.4626   -0.6427    0.5180 C   0  0  2  0  0  0  0  0  0  0  0  0
   -0.9813   -0.2245    0.3958 C   0  0  0  0  0  0  0  0  0  0  0  0
   -1.3486    1.1482    0.8276 C   0  0  0  0  0  0  0  0  0  0  0  0
   -1.8731   -1.3329    0.9202 C   0  0  0  0  0  0  0  0  0  0  0  0
    2.7075    0.7968    1.7686 H   0  0  0  0  0  0  0  0  0  0  0  0
    3.2394   -0.5126    0.6889 H   0  0  0  0  0  0  0  0  0  0  0  0
    3.4477    1.1332    0.0984 H   0  0  0  0  0  0  0  0  0  0  0  0
    1.3248    2.3478   -0.8365 H   0  0  0  0  0  0  0  0  0  0  0  0
    0.4020    0.5422   -2.6359 H   0  0  0  0  0  0  0  0  0  0  0  0
   -0.8326    1.6285   -1.9315 H   0  0  0  0  0  0  0  0  0  0  0  0
   -1.6875   -0.7151   -1.6490 H   0  0  0  0  0  0  0  0  0  0  0  0
   -0.2214   -2.4036   -0.4863 H   0  0  0  0  0  0  0  0  0  0  0  0
    1.0806   -1.4650   -1.4468 H   0  0  0  0  0  0  0  0  0  0  0  0
    0.7332   -1.2314    1.3930 H   0  0  0  0  0  0  0  0  0  0  0  0
   -0.5354    1.8069    1.1361 H   0  0  0  0  0  0  0  0  0  0  0  0
   -1.9726    1.6020    0.0057 H   0  0  0  0  0  0  0  0  0  0  0  0
   -2.0593    1.0552    1.6892 H   0  0  0  0  0  0  0  0  0  0  0  0
   -2.4731   -0.9205    1.7390 H   0  0  0  0  0  0  0  0  0  0  0  0
   -1.3059   -2.2134    1.2908 H   0  0  0  0  0  0  0  0  0  0  0  0
   -2.5094   -1.7101    0.0882 H   0  0  0  0  0  0  0  0  0  0  0  0
  1  2  1  0
  2  3  2  0
  3  4  1  0
  4  5  1  0
  5  6  1  0
  6  7  1  0
  7  8  1  0
  8  9  1  0
  8 10  1  0
  7  2  1  0
  8  5  1  0
  1 11  1  0
  1 12  1  0
  1 13  1  0
  3 14  1  0
  4 15  1  0
  4 16  1  0
  5 17  1  6
  6 18  1  0
  6 19  1  0
  7 20  1  1
  9 21  1  0
  9 22  1  0
  9 23  1  0
 10 24  1  0
 10 25  1  0
 10 26  1  0
M  END
>  <Ligand ID>  (1) 
LIG0000399

>  <Ligand>  (1) 
(-)-alpha-Pinene

>  <SMILES>  (1) 
CC1=CC[C@H]2C[C@@H]1C2(C)C

>  <CID>  (1) 
440968.0

>  <ChEMBL ID>  (1) 
nan

>  <InChiKey>  (1) 
GRWFGVWFFZKLTI-IUCAKERBSA-N

>  <InChi>  (1) 
InChI=1S/C10H16/c1-7-4-5-8-6-9(7)10(8,2)3/h4,8-9H,5-6H2,1-3H3/t8-,9-/m0/s1

>  <IUPAC Name>  (1) 
(1S,5S)-2,6,6-trimethylbicyclo[3.1.1]hept-2-ene

$$$$
