
     RDKit          3D

 34 34  0  0  0  0  0  0  0  0999 V2000
    4.4833    0.6634   -0.9409 N   0  0  0  0  0  0  0  0  0  0  0  0
    3.4724    1.4001   -0.1913 C   0  0  0  0  0  0  0  0  0  0  0  0
    2.5039    0.4207    0.4314 C   0  0  1  0  0  0  0  0  0  0  0  0
    1.4046    1.0893    1.2391 C   0  0  0  0  0  0  0  0  0  0  0  0
    1.1098    0.3282   -0.0212 C   0  0  2  0  0  0  0  0  0  0  0  0
    0.3392   -0.9065    0.1589 C   0  0  0  0  0  0  0  0  0  0  0  0
    0.9387   -2.1401    0.3815 C   0  0  0  0  0  0  0  0  0  0  0  0
    0.1847   -3.2882    0.5478 C   0  0  0  0  0  0  0  0  0  0  0  0
    1.0039   -4.8176    0.8262 Cl  0  0  0  0  0  0  0  0  0  0  0  0
   -1.1720   -3.2039    0.4916 C   0  0  0  0  0  0  0  0  0  0  0  0
   -1.8232   -1.9983    0.2719 C   0  0  0  0  0  0  0  0  0  0  0  0
   -1.0559   -0.8495    0.1060 C   0  0  0  0  0  0  0  0  0  0  0  0
   -1.6940    0.3431   -0.1111 O   0  0  0  0  0  0  0  0  0  0  0  0
   -3.0985    0.4902   -0.1792 C   0  0  0  0  0  0  0  0  0  0  0  0
   -3.4647    1.9118   -0.4257 C   0  0  0  0  0  0  0  0  0  0  0  0
   -4.1536    2.2843   -1.4987 C   0  0  0  0  0  0  0  0  0  0  0  0
   -3.0564    2.8164    0.5080 F   0  0  0  0  0  0  0  0  0  0  0  0
    0.6883    0.0000    0.0000 Cl  0  0  0  0  0  0  0  0  0  0  0  0
    5.3189    1.2185   -1.1644 H   0  0  0  0  0  0  0  0  0  0  0  0
    4.0078    0.2530   -1.7714 H   0  0  0  0  0  0  0  0  0  0  0  0
    4.0219    1.8833    0.6432 H   0  0  0  0  0  0  0  0  0  0  0  0
    2.9943    2.1920   -0.7822 H   0  0  0  0  0  0  0  0  0  0  0  0
    2.9846   -0.4789    0.8175 H   0  0  0  0  0  0  0  0  0  0  0  0
    1.2422    0.6211    2.2233 H   0  0  0  0  0  0  0  0  0  0  0  0
    1.2809    2.1856    1.1872 H   0  0  0  0  0  0  0  0  0  0  0  0
    0.8482    0.9151   -0.9255 H   0  0  0  0  0  0  0  0  0  0  0  0
    2.0029   -2.2267    0.4290 H   0  0  0  0  0  0  0  0  0  0  0  0
   -1.7758   -4.0849    0.6184 H   0  0  0  0  0  0  0  0  0  0  0  0
   -2.9001   -1.9113    0.2240 H   0  0  0  0  0  0  0  0  0  0  0  0
   -3.6364    0.1479    0.7101 H   0  0  0  0  0  0  0  0  0  0  0  0
   -3.4765   -0.1077   -1.0544 H   0  0  0  0  0  0  0  0  0  0  0  0
   -4.4480    1.5162   -2.2026 H   0  0  0  0  0  0  0  0  0  0  0  0
   -4.3869    3.3334   -1.6178 H   0  0  0  0  0  0  0  0  0  0  0  0
   -0.6883    0.0000    0.0000 H   0  0  0  0  0  0  0  0  0  0  0  0
  1  2  1  0
  2  3  1  0
  3  4  1  0
  4  5  1  0
  5  6  1  0
  6  7  2  0
  7  8  1  0
  8  9  1  0
  8 10  2  0
 10 11  1  0
 11 12  2  0
 12 13  1  0
 13 14  1  0
 14 15  1  0
 15 16  2  0
 15 17  1  0
  5  3  1  0
 12  6  1  0
  1 19  1  0
  1 20  1  0
  2 21  1  0
  2 22  1  0
  3 23  1  1
  4 24  1  0
  4 25  1  0
  5 26  1  6
  7 27  1  0
 10 28  1  0
 11 29  1  0
 14 30  1  0
 14 31  1  0
 16 32  1  0
 16 33  1  0
 18 34  1  0
M  END
>  <Ligand ID>  (1) 
LIG0005610

>  <Ligand>  (1) 
CHEMBL3416051

>  <SMILES>  (1) 
NC[C@H]1C[C@@H]1c1cc(Cl)ccc1OCC(=C)F.Cl

>  <CID>  (1) 
118733797.0

>  <ChEMBL ID>  (1) 
nan

>  <InChiKey>  (1) 
SQRGDUIVPQUHPV-XQKZEKTMSA-N

>  <InChi>  (1) 
InChI=1S/C13H15ClFNO.ClH/c1-8(15)7-17-13-3-2-10(14)5-12(13)11-4-9(11)6-16;/h2-3,5,9,11H,1,4,6-7,16H2;1H/t9-,11+;/m1./s1

>  <IUPAC Name>  (1) 
[(1S,2S)-2-[5-chloro-2-(2-fluoroprop-2-enoxy)phenyl]cyclopropyl]methanamine;hydrochloride

$$$$
