
     RDKit          3D

 76 79  0  0  0  0  0  0  0  0999 V2000
   -1.7200    6.7782   -0.0132 C   0  0  0  0  0  0  0  0  0  0  0  0
   -2.3435    5.8433    0.9970 C   0  0  0  0  0  0  0  0  0  0  0  0
   -2.2635    4.3960    0.5255 C   0  0  0  0  0  0  0  0  0  0  0  0
   -0.8841    4.0170    0.3429 N   0  0  0  0  0  0  0  0  0  0  0  0
   -0.4454    2.7396   -0.0826 C   0  0  0  0  0  0  0  0  0  0  0  0
   -1.2692    1.7148   -0.3625 N   0  0  0  0  0  0  0  0  0  0  0  0
   -0.8397    0.5007   -0.7664 C   0  0  0  0  0  0  0  0  0  0  0  0
   -1.7713   -0.5660   -1.0471 N   0  0  0  0  0  0  0  0  0  0  0  0
   -1.5379   -1.8018   -0.3281 C   0  0  0  0  0  0  0  0  0  0  0  0
   -2.5406   -2.8729   -0.6499 C   0  0  0  0  0  0  0  0  0  0  0  0
   -3.9264   -2.4795   -0.3174 C   0  0  0  0  0  0  0  0  0  0  0  0
   -4.4145   -1.3481    0.2107 N   0  0  0  0  0  0  0  0  0  0  0  0
   -5.7604   -1.4655    0.3275 C   0  0  0  0  0  0  0  0  0  0  0  0
   -6.1387   -2.6823   -0.1297 N   0  0  0  0  0  0  0  0  0  0  0  0
   -5.0078   -3.3258   -0.5348 C   0  0  0  0  0  0  0  0  0  0  0  0
   -7.4542   -3.2646   -0.2112 C   0  0  0  0  0  0  0  0  0  0  0  0
   -8.1268   -2.9624   -1.5342 C   0  0  0  0  0  0  0  0  0  0  0  0
    0.4712    0.2258   -0.9206 N   0  0  0  0  0  0  0  0  0  0  0  0
    1.3507    1.2159   -0.6546 C   0  0  0  0  0  0  0  0  0  0  0  0
    0.9211    2.4595   -0.2411 C   0  0  0  0  0  0  0  0  0  0  0  0
    1.9848    3.2460   -0.0498 N   0  0  0  0  0  0  0  0  0  0  0  0
    3.0912    2.5169   -0.3377 C   0  0  0  0  0  0  0  0  0  0  0  0
    2.7069    1.2746   -0.7082 N   0  0  0  0  0  0  0  0  0  0  0  0
    3.5050    0.1483   -1.1105 C   0  0  2  0  0  0  0  0  0  0  0  0
    3.5717   -0.9598   -0.0944 C   0  0  0  0  0  0  0  0  0  0  0  0
    5.0288   -1.4172   -0.2058 C   0  0  1  0  0  0  0  0  0  0  0  0
    5.6827   -0.0294   -0.1988 C   0  0  2  0  0  0  0  0  0  0  0  0
    4.9391    0.5352   -1.4200 C   0  0  1  0  0  0  0  0  0  0  0  0
    5.4388   -0.2089   -2.5000 O   0  0  0  0  0  0  0  0  0  0  0  0
    7.0467   -0.0905   -0.4224 O   0  0  0  0  0  0  0  0  0  0  0  0
    5.4403   -2.2565    0.8597 N   0  0  0  0  0  0  0  0  0  0  0  0
    6.0351   -3.5207    0.6095 C   0  0  0  0  0  0  0  0  0  0  0  0
    6.1936   -3.8861   -0.6092 O   0  0  0  0  0  0  0  0  0  0  0  0
    6.4867   -4.4497    1.6735 C   0  0  0  0  0  0  0  0  0  0  0  0
    7.0938   -5.6685    1.0085 C   0  0  0  0  0  0  0  0  0  0  0  0
   -3.0434    3.4836    1.4369 C   0  0  0  0  0  0  0  0  0  0  0  0
   -4.5016    3.9663    1.4108 C   0  0  0  0  0  0  0  0  0  0  0  0
   -2.3575    7.6920   -0.0861 H   0  0  0  0  0  0  0  0  0  0  0  0
   -1.7032    6.2969   -1.0119 H   0  0  0  0  0  0  0  0  0  0  0  0
   -0.6973    7.0152    0.3104 H   0  0  0  0  0  0  0  0  0  0  0  0
   -3.4016    6.1179    1.1815 H   0  0  0  0  0  0  0  0  0  0  0  0
   -1.8020    5.9674    1.9555 H   0  0  0  0  0  0  0  0  0  0  0  0
   -2.8254    4.3895   -0.4436 H   0  0  0  0  0  0  0  0  0  0  0  0
   -0.1322    4.7386    0.5367 H   0  0  0  0  0  0  0  0  0  0  0  0
   -2.5552   -0.4365   -1.7276 H   0  0  0  0  0  0  0  0  0  0  0  0
   -1.5997   -1.6441    0.7797 H   0  0  0  0  0  0  0  0  0  0  0  0
   -0.5170   -2.2051   -0.5112 H   0  0  0  0  0  0  0  0  0  0  0  0
   -2.3373   -3.8196   -0.1416 H   0  0  0  0  0  0  0  0  0  0  0  0
   -2.5378   -3.1043   -1.7552 H   0  0  0  0  0  0  0  0  0  0  0  0
   -6.4646   -0.7374    0.7159 H   0  0  0  0  0  0  0  0  0  0  0  0
   -4.9878   -4.3289   -0.9500 H   0  0  0  0  0  0  0  0  0  0  0  0
   -7.4051   -4.3691   -0.0768 H   0  0  0  0  0  0  0  0  0  0  0  0
   -8.0831   -2.8712    0.6375 H   0  0  0  0  0  0  0  0  0  0  0  0
   -9.0223   -2.3122   -1.3914 H   0  0  0  0  0  0  0  0  0  0  0  0
   -8.4205   -3.9191   -2.0537 H   0  0  0  0  0  0  0  0  0  0  0  0
   -7.4419   -2.3776   -2.2001 H   0  0  0  0  0  0  0  0  0  0  0  0
    4.1202    2.8586   -0.2857 H   0  0  0  0  0  0  0  0  0  0  0  0
    3.1262   -0.3277   -2.0482 H   0  0  0  0  0  0  0  0  0  0  0  0
    2.9855   -1.8722   -0.4146 H   0  0  0  0  0  0  0  0  0  0  0  0
    3.3138   -0.6314    0.9102 H   0  0  0  0  0  0  0  0  0  0  0  0
    5.1965   -1.8122   -1.2102 H   0  0  0  0  0  0  0  0  0  0  0  0
    5.3865    0.5382    0.6967 H   0  0  0  0  0  0  0  0  0  0  0  0
    5.0998    1.6061   -1.5542 H   0  0  0  0  0  0  0  0  0  0  0  0
    5.0612    0.1049   -3.3558 H   0  0  0  0  0  0  0  0  0  0  0  0
    7.4841    0.1639    0.4493 H   0  0  0  0  0  0  0  0  0  0  0  0
    5.3029   -1.9409    1.8441 H   0  0  0  0  0  0  0  0  0  0  0  0
    7.1137   -4.0009    2.4407 H   0  0  0  0  0  0  0  0  0  0  0  0
    5.5286   -4.8323    2.1401 H   0  0  0  0  0  0  0  0  0  0  0  0
    7.7384   -6.2598    1.6924 H   0  0  0  0  0  0  0  0  0  0  0  0
    7.7625   -5.3782    0.1486 H   0  0  0  0  0  0  0  0  0  0  0  0
    6.3250   -6.3475    0.5899 H   0  0  0  0  0  0  0  0  0  0  0  0
   -2.6735    3.4830    2.4796 H   0  0  0  0  0  0  0  0  0  0  0  0
   -3.0519    2.4728    0.9871 H   0  0  0  0  0  0  0  0  0  0  0  0
   -5.1739    3.0892    1.4092 H   0  0  0  0  0  0  0  0  0  0  0  0
   -4.6479    4.5225    0.4528 H   0  0  0  0  0  0  0  0  0  0  0  0
   -4.7054    4.6661    2.2580 H   0  0  0  0  0  0  0  0  0  0  0  0
  1  2  1  0
  2  3  1  0
  3  4  1  0
  4  5  1  0
  5  6  2  0
  6  7  1  0
  7  8  1  0
  8  9  1  0
  9 10  1  0
 10 11  1  0
 11 12  1  0
 12 13  2  0
 13 14  1  0
 14 15  1  0
 14 16  1  0
 16 17  1  0
  7 18  2  0
 18 19  1  0
 19 20  2  0
 20 21  1  0
 21 22  2  0
 22 23  1  0
 23 24  1  0
 24 25  1  0
 25 26  1  0
 26 27  1  0
 27 28  1  0
 28 29  1  0
 27 30  1  0
 26 31  1  0
 31 32  1  0
 32 33  2  0
 32 34  1  0
 34 35  1  0
  3 36  1  0
 36 37  1  0
 20  5  1  0
 28 24  1  0
 15 11  2  0
 23 19  1  0
  1 38  1  0
  1 39  1  0
  1 40  1  0
  2 41  1  0
  2 42  1  0
  3 43  1  0
  4 44  1  0
  8 45  1  0
  9 46  1  0
  9 47  1  0
 10 48  1  0
 10 49  1  0
 13 50  1  0
 15 51  1  0
 16 52  1  0
 16 53  1  0
 17 54  1  0
 17 55  1  0
 17 56  1  0
 22 57  1  0
 24 58  1  6
 25 59  1  0
 25 60  1  0
 26 61  1  6
 27 62  1  1
 28 63  1  6
 29 64  1  0
 30 65  1  0
 31 66  1  0
 34 67  1  0
 34 68  1  0
 35 69  1  0
 35 70  1  0
 35 71  1  0
 36 72  1  0
 36 73  1  0
 37 74  1  0
 37 75  1  0
 37 76  1  0
M  END
>  <Ligand ID>  (1) 
LIG0004062

>  <Ligand>  (1) 
CHEMBL592541

>  <SMILES>  (1) 
CCC(Nc1nc(NCCc2ncn(c2)CC)nc2c1ncn2[C@@H]1C[C@@H]([C@H]([C@H]1O)O)NC(=O)CC)CC

>  <CID>  (1) 
11533614.0

>  <ChEMBL ID>  (1) 
nan

>  <InChiKey>  (1) 
BHLNXDOZTJNVFB-KKXYHZGYSA-N

>  <InChi>  (1) 
InChI=1S/C25H39N9O3/c1-5-15(6-2)29-23-20-24(32-25(31-23)26-10-9-16-12-33(8-4)13-27-16)34(14-28-20)18-11-17(21(36)22(18)37)30-19(35)7-3/h12-15,17-18,21-22,36-37H,5-11H2,1-4H3,(H,30,35)(H2,26,29,31,32)/t17-,18+,21+,22-/m0/s1

>  <IUPAC Name>  (1) 
N-[(1S,2R,3S,4R)-4-[2-[2-(1-ethylimidazol-4-yl)ethylamino]-6-(pentan-3-ylamino)purin-9-yl]-2,3-dihydroxycyclopentyl]propanamide

$$$$
