
     RDKit          3D

 44 47  0  0  0  0  0  0  0  0999 V2000
    7.3233   -1.5798    1.8621 C   0  0  0  0  0  0  0  0  0  0  0  0
    6.9165   -0.2426    2.0465 O   0  0  0  0  0  0  0  0  0  0  0  0
    5.8235    0.2235    1.3766 C   0  0  0  0  0  0  0  0  0  0  0  0
    5.3869    1.5253    1.5235 C   0  0  0  0  0  0  0  0  0  0  0  0
    4.3057    2.0593    0.8876 C   0  0  0  0  0  0  0  0  0  0  0  0
    3.5414    1.2677    0.0039 C   0  0  0  0  0  0  0  0  0  0  0  0
    4.0159   -0.0268   -0.1109 C   0  0  0  0  0  0  0  0  0  0  0  0
    5.0925   -0.5726    0.5171 C   0  0  0  0  0  0  0  0  0  0  0  0
    2.8333   -0.8151   -1.3180 S   0  0  0  0  0  0  0  0  0  0  0  0
    1.8883    0.6323   -1.5101 C   0  0  0  0  0  0  0  0  0  0  0  0
    2.4586    1.5941   -0.7117 C   0  0  0  0  0  0  0  0  0  0  0  0
    1.7161    3.2293   -0.6774 Cl  0  0  0  0  0  0  0  0  0  0  0  0
    0.7184    0.7161   -2.3855 C   0  0  0  0  0  0  0  0  0  0  0  0
    0.7150    0.8444   -3.7194 N   0  0  0  0  0  0  0  0  0  0  0  0
   -0.5131    0.8858   -4.1689 N   0  0  0  0  0  0  0  0  0  0  0  0
   -1.3662    0.7813   -3.0959 C   0  0  0  0  0  0  0  0  0  0  0  0
   -0.5993    0.6793   -2.0214 N   0  0  0  0  0  0  0  0  0  0  0  0
   -1.0219    0.5506   -0.6693 C   0  0  0  0  0  0  0  0  0  0  0  0
   -3.1228    0.8008   -3.3251 S   0  0  0  0  0  0  0  0  0  0  0  0
   -4.0992    0.6459   -1.8538 C   0  0  0  0  0  0  0  0  0  0  0  0
   -3.9547   -0.6930   -1.2077 C   0  0  0  0  0  0  0  0  0  0  0  0
   -3.2190   -1.5751   -1.7319 O   0  0  0  0  0  0  0  0  0  0  0  0
   -4.6822   -0.9574    0.0408 C   0  0  0  0  0  0  0  0  0  0  0  0
   -5.4904   -0.0091    0.6286 C   0  0  0  0  0  0  0  0  0  0  0  0
   -6.1889   -0.2174    1.7981 C   0  0  0  0  0  0  0  0  0  0  0  0
   -6.0505   -1.4715    2.3999 C   0  0  0  0  0  0  0  0  0  0  0  0
   -5.2328   -2.4405    1.8111 C   0  0  0  0  0  0  0  0  0  0  0  0
   -4.5486   -2.1926    0.6373 C   0  0  0  0  0  0  0  0  0  0  0  0
    7.3559   -1.7633    0.7511 H   0  0  0  0  0  0  0  0  0  0  0  0
    8.4060   -1.6748    2.1544 H   0  0  0  0  0  0  0  0  0  0  0  0
    6.6793   -2.2702    2.4035 H   0  0  0  0  0  0  0  0  0  0  0  0
    5.9614    2.1548    2.2009 H   0  0  0  0  0  0  0  0  0  0  0  0
    4.0627    3.0876    1.0825 H   0  0  0  0  0  0  0  0  0  0  0  0
    5.3704   -1.5998    0.3507 H   0  0  0  0  0  0  0  0  0  0  0  0
   -1.8766    1.1899   -0.4683 H   0  0  0  0  0  0  0  0  0  0  0  0
   -0.1931    0.9525   -0.0069 H   0  0  0  0  0  0  0  0  0  0  0  0
   -1.1129   -0.5062   -0.3550 H   0  0  0  0  0  0  0  0  0  0  0  0
   -4.0876    1.4891   -1.1517 H   0  0  0  0  0  0  0  0  0  0  0  0
   -5.1850    0.6306   -2.2111 H   0  0  0  0  0  0  0  0  0  0  0  0
   -5.5967    0.9616    0.1610 H   0  0  0  0  0  0  0  0  0  0  0  0
   -6.8208    0.5173    2.2617 H   0  0  0  0  0  0  0  0  0  0  0  0
   -6.5792   -1.7073    3.3346 H   0  0  0  0  0  0  0  0  0  0  0  0
   -5.1062   -3.4273    2.2584 H   0  0  0  0  0  0  0  0  0  0  0  0
   -3.9231   -2.9675    0.2082 H   0  0  0  0  0  0  0  0  0  0  0  0
  1  2  1  0
  2  3  1  0
  3  4  2  0
  4  5  1  0
  5  6  2  0
  6  7  1  0
  7  8  2  0
  7  9  1  0
  9 10  1  0
 10 11  2  0
 11 12  1  0
 10 13  1  0
 13 14  2  0
 14 15  1  0
 15 16  2  0
 16 17  1  0
 17 18  1  0
 16 19  1  0
 19 20  1  0
 20 21  1  0
 21 22  2  0
 21 23  1  0
 23 24  2  0
 24 25  1  0
 25 26  2  0
 26 27  1  0
 27 28  2  0
  8  3  1  0
 17 13  1  0
 28 23  1  0
 11  6  1  0
  1 29  1  0
  1 30  1  0
  1 31  1  0
  4 32  1  0
  5 33  1  0
  8 34  1  0
 18 35  1  0
 18 36  1  0
 18 37  1  0
 20 38  1  0
 20 39  1  0
 24 40  1  0
 25 41  1  0
 26 42  1  0
 27 43  1  0
 28 44  1  0
M  END
>  <Ligand ID>  (1) 
LIG0004562

>  <Ligand>  (1) 
MLS000535475

>  <SMILES>  (1) 
COc1ccc2c(c1)sc(c2Cl)c1nnc(n1C)SCC(=O)c1ccccc1

>  <CID>  (1) 
1177949.0

>  <ChEMBL ID>  (1) 
nan

>  <InChiKey>  (1) 
ZDEZOWAOZLLYOL-UHFFFAOYSA-N

>  <InChi>  (1) 
InChI=1S/C20H16ClN3O2S2/c1-24-19(18-17(21)14-9-8-13(26-2)10-16(14)28-18)22-23-20(24)27-11-15(25)12-6-4-3-5-7-12/h3-10H,11H2,1-2H3

>  <IUPAC Name>  (1) 
2-[[5-(3-chloro-6-methoxy-1-benzothiophen-2-yl)-4-methyl-1,2,4-triazol-3-yl]sulfanyl]-1-phenylethanone

$$$$
