
     RDKit          3D

 10  9  0  0  0  0  0  0  0  0999 V2000
    2.0560    0.2283    0.2629 C   0  0  0  0  0  0  0  0  0  0  0  0
    0.9646   -0.9466   -0.5708 S   0  0  0  0  0  0  0  0  0  0  0  0
   -0.8105   -1.2645    0.5544 S   0  0  0  0  0  0  0  0  0  0  0  0
   -2.0816   -0.0799    0.0645 C   0  0  0  0  0  0  0  0  0  0  0  0
    2.4604   -0.1542    1.2012 H   0  0  0  0  0  0  0  0  0  0  0  0
    2.8728    0.5130   -0.4289 H   0  0  0  0  0  0  0  0  0  0  0  0
    1.4718    1.1617    0.4374 H   0  0  0  0  0  0  0  0  0  0  0  0
   -1.5377    0.8434   -0.2867 H   0  0  0  0  0  0  0  0  0  0  0  0
   -2.6881   -0.4345   -0.7813 H   0  0  0  0  0  0  0  0  0  0  0  0
   -2.7078    0.1333    0.9563 H   0  0  0  0  0  0  0  0  0  0  0  0
  1  2  1  0
  2  3  1  0
  3  4  1  0
  1  5  1  0
  1  6  1  0
  1  7  1  0
  4  8  1  0
  4  9  1  0
  4 10  1  0
M  END
>  <Ligand ID>  (1) 
LIG0000091

>  <Ligand>  (1) 
Dimethyl Disulfide

>  <SMILES>  (1) 
CSSC

>  <CID>  (1) 
12232.0

>  <ChEMBL ID>  (1) 
nan

>  <InChiKey>  (1) 
WQOXQRCZOLPYPM-UHFFFAOYSA-N

>  <InChi>  (1) 
InChI=1S/C2H6S2/c1-3-4-2/h1-2H3

>  <IUPAC Name>  (1) 
(methyldisulfanyl)methane

$$$$
