
     RDKit          3D

 28 29  0  0  0  0  0  0  0  0999 V2000
   -4.0477    2.5073    0.9513 C   0  0  0  0  0  0  0  0  0  0  0  0
   -2.7280    2.0283    0.8190 O   0  0  0  0  0  0  0  0  0  0  0  0
   -2.4136    0.8021    0.2643 C   0  0  0  0  0  0  0  0  0  0  0  0
   -3.3705   -0.0765   -0.2165 C   0  0  0  0  0  0  0  0  0  0  0  0
   -2.9509   -1.2761   -0.7512 C   0  0  0  0  0  0  0  0  0  0  0  0
   -1.6432   -1.5463   -0.7861 N   0  0  0  0  0  0  0  0  0  0  0  0
   -0.6775   -0.7276   -0.3328 C   0  0  0  0  0  0  0  0  0  0  0  0
   -1.0586    0.4802    0.2085 C   0  0  0  0  0  0  0  0  0  0  0  0
    0.7083   -1.1635   -0.4402 C   0  0  0  0  0  0  0  0  0  0  0  0
    1.0225   -2.3739   -0.9874 N   0  0  0  0  0  0  0  0  0  0  0  0
    2.2930   -2.8006   -1.0986 C   0  0  0  0  0  0  0  0  0  0  0  0
    3.3764   -2.0598   -0.6737 C   0  0  0  0  0  0  0  0  0  0  0  0
    3.0910   -0.8238   -0.1124 C   0  0  0  0  0  0  0  0  0  0  0  0
    1.7791   -0.4114   -0.0109 C   0  0  0  0  0  0  0  0  0  0  0  0
    4.1686   -0.0721    0.3172 O   0  0  0  0  0  0  0  0  0  0  0  0
    3.9563    1.1935    0.8976 C   0  0  0  0  0  0  0  0  0  0  0  0
   -4.7336    1.7904    1.4522 H   0  0  0  0  0  0  0  0  0  0  0  0
   -4.0282    3.4230    1.5769 H   0  0  0  0  0  0  0  0  0  0  0  0
   -4.5107    2.7820   -0.0145 H   0  0  0  0  0  0  0  0  0  0  0  0
   -4.4230    0.1976   -0.1618 H   0  0  0  0  0  0  0  0  0  0  0  0
   -3.6796   -1.9971   -1.1418 H   0  0  0  0  0  0  0  0  0  0  0  0
   -0.3211    1.1558    0.5783 H   0  0  0  0  0  0  0  0  0  0  0  0
    2.4957   -3.7801   -1.5451 H   0  0  0  0  0  0  0  0  0  0  0  0
    4.3903   -2.4245   -0.7738 H   0  0  0  0  0  0  0  0  0  0  0  0
    1.6142    0.5596    0.4343 H   0  0  0  0  0  0  0  0  0  0  0  0
    3.6732    1.9633    0.1322 H   0  0  0  0  0  0  0  0  0  0  0  0
    3.1512    1.1227    1.6572 H   0  0  0  0  0  0  0  0  0  0  0  0
    4.8664    1.5278    1.4467 H   0  0  0  0  0  0  0  0  0  0  0  0
  1  2  1  0
  2  3  1  0
  3  4  2  0
  4  5  1  0
  5  6  2  0
  6  7  1  0
  7  8  2  0
  7  9  1  0
  9 10  2  0
 10 11  1  0
 11 12  2  0
 12 13  1  0
 13 14  2  0
 13 15  1  0
 15 16  1  0
  8  3  1  0
 14  9  1  0
  1 17  1  0
  1 18  1  0
  1 19  1  0
  4 20  1  0
  5 21  1  0
  8 22  1  0
 11 23  1  0
 12 24  1  0
 14 25  1  0
 16 26  1  0
 16 27  1  0
 16 28  1  0
M  END
>  <Ligand ID>  (1) 
LIG0004794

>  <Ligand>  (1) 
4,4'-Dimethoxy-2,2'-bipyridine

>  <SMILES>  (1) 
COc1ccnc(c1)c1nccc(c1)OC

>  <CID>  (1) 
2733927.0

>  <ChEMBL ID>  (1) 
nan

>  <InChiKey>  (1) 
IMEVSAIFJKKDAP-UHFFFAOYSA-N

>  <InChi>  (1) 
InChI=1S/C12H12N2O2/c1-15-9-3-5-13-11(7-9)12-8-10(16-2)4-6-14-12/h3-8H,1-2H3

>  <IUPAC Name>  (1) 
4-methoxy-2-(4-methoxypyridin-2-yl)pyridine

$$$$
