
     RDKit          3D

137139  0  0  0  0  0  0  0  0999 V2000
   -8.0091    0.5666    2.6812 C   0  0  0  0  0  0  0  0  0  0  0  0
   -7.4937    0.7110    1.2838 C   0  0  0  0  0  0  0  0  0  0  0  0
   -6.1257    1.4136    1.2323 C   0  0  1  0  0  0  0  0  0  0  0  0
   -5.7205    1.4847   -0.1925 C   0  0  2  0  0  0  0  0  0  0  0  0
   -5.5833    0.1463   -0.8383 N   0  0  0  0  0  0  0  0  0  0  0  0
   -5.2246   -1.0339   -0.1781 C   0  0  0  0  0  0  0  0  0  0  0  0
   -5.0978   -1.0523    1.0310 O   0  0  0  0  0  0  0  0  0  0  0  0
   -4.9725   -2.3379   -0.9182 C   0  0  1  0  0  0  0  0  0  0  0  0
   -4.6324   -3.3797    0.0247 N   0  0  0  0  0  0  0  0  0  0  0  0
   -3.3951   -3.2888    0.7782 C   0  0  0  0  0  0  0  0  0  0  0  0
   -2.7670   -2.2388    0.5871 O   0  0  0  0  0  0  0  0  0  0  0  0
   -2.9309   -4.3373    1.6960 C   0  0  0  0  0  0  0  0  0  0  0  0
   -2.0238   -3.7537    2.7870 C   0  0  0  0  0  0  0  0  0  0  0  0
   -0.6681   -2.9433    2.4405 S   0  0  0  0  0  0  0  0  0  0  0  0
    0.6884   -2.1384    2.0924 C   0  0  0  0  0  0  0  0  0  0  0  0
    1.1354   -1.9668    0.6068 C   0  0  0  0  0  0  0  0  0  0  0  0
    2.4125   -1.1473    0.6389 C   0  0  2  0  0  0  0  0  0  0  0  0
    1.9748    0.1635    1.1489 N   0  0  0  0  0  0  0  0  0  0  0  0
    1.0472    1.0048    0.4936 C   0  0  0  0  0  0  0  0  0  0  0  0
    0.6507    0.6320   -0.6203 O   0  0  0  0  0  0  0  0  0  0  0  0
    0.5118    2.2820    1.0194 C   0  0  1  0  0  0  0  0  0  0  0  0
   -0.5261    2.6955    0.0993 N   0  0  0  0  0  0  0  0  0  0  0  0
   -1.7077    3.4068    0.3835 C   0  0  0  0  0  0  0  0  0  0  0  0
   -1.9481    3.7002    1.5438 O   0  0  0  0  0  0  0  0  0  0  0  0
   -2.6483    3.7639   -0.7701 C   0  0  1  0  0  0  0  0  0  0  0  0
   -3.9931    3.4758   -0.2079 N   0  0  0  0  0  0  0  0  0  0  0  0
   -4.5062    2.2132   -0.5261 C   0  0  0  0  0  0  0  0  0  0  0  0
   -3.7159    1.5296   -1.3009 O   0  0  0  0  0  0  0  0  0  0  0  0
   -2.4945    5.2073   -1.0866 C   0  0  0  0  0  0  0  0  0  0  0  0
   -3.3953    5.6586   -2.2196 C   0  0  0  0  0  0  0  0  0  0  0  0
   -3.1566    4.9557   -3.4836 C   0  0  0  0  0  0  0  0  0  0  0  0
   -2.2655    4.1012   -3.6894 O   0  0  0  0  0  0  0  0  0  0  0  0
   -4.0223    5.2770   -4.5844 N   0  0  0  0  0  0  0  0  0  0  0  0
   -0.2575    1.8343    2.3123 C   0  0  0  0  0  0  0  0  0  0  0  0
   -1.3141    0.9219    1.8811 C   0  0  0  0  0  0  0  0  0  0  0  0
   -1.5650    0.5892    0.7021 O   0  0  0  0  0  0  0  0  0  0  0  0
   -2.1610    0.3373    2.8912 N   0  0  0  0  0  0  0  0  0  0  0  0
    3.0777   -1.1079   -0.6391 C   0  0  0  0  0  0  0  0  0  0  0  0
    3.0538    0.0141   -1.2768 O   0  0  0  0  0  0  0  0  0  0  0  0
    3.7710   -2.1529   -1.2967 N   0  0  0  0  0  0  0  0  0  0  0  0
    3.9577   -3.4935   -0.8011 C   0  0  0  0  0  0  0  0  0  0  0  0
    5.1544   -3.6727   -0.0259 C   0  0  0  0  0  0  0  0  0  0  0  0
    5.5058   -3.5747    1.2898 C   0  0  0  0  0  0  0  0  0  0  0  0
    6.7280   -3.8667    1.6910 C   0  0  0  0  0  0  0  0  0  0  0  0
    7.6739   -4.2792    0.7664 C   0  0  0  0  0  0  0  0  0  0  0  0
    6.7496   -4.2575   -0.8645 S   0  0  0  0  0  0  0  0  0  0  0  0
    4.3336   -1.9036   -2.6290 C   0  0  0  0  0  0  0  0  0  0  0  0
    5.6498   -1.2691   -2.5887 C   0  0  0  0  0  0  0  0  0  0  0  0
    6.2553   -1.1138   -3.6907 O   0  0  0  0  0  0  0  0  0  0  0  0
    6.3205   -0.7993   -1.4368 N   0  0  0  0  0  0  0  0  0  0  0  0
    7.6232   -0.2018   -1.5513 C   0  0  2  0  0  0  0  0  0  0  0  0
    8.4602   -0.4515   -0.3831 C   0  0  0  0  0  0  0  0  0  0  0  0
    7.9263   -1.1057    0.5790 O   0  0  0  0  0  0  0  0  0  0  0  0
    9.7978   -0.0580   -0.1882 N   0  0  0  0  0  0  0  0  0  0  0  0
   10.5930   -0.3415    0.9771 C   0  0  0  0  0  0  0  0  0  0  0  0
   10.1043    0.1671    2.2539 C   0  0  0  0  0  0  0  0  0  0  0  0
   10.8157   -0.0891    3.2868 O   0  0  0  0  0  0  0  0  0  0  0  0
    8.9325    0.9150    2.4925 N   0  0  0  0  0  0  0  0  0  0  0  0
    7.6945    1.1763   -2.0388 C   0  0  0  0  0  0  0  0  0  0  0  0
    7.0070    2.2723   -1.3257 C   0  0  0  0  0  0  0  0  0  0  0  0
    7.3923    2.5406    0.0785 C   0  0  0  0  0  0  0  0  0  0  0  0
    7.2022    3.6182   -2.0622 C   0  0  0  0  0  0  0  0  0  0  0  0
   -5.9374   -2.6636   -1.9659 C   0  0  0  0  0  0  0  0  0  0  0  0
   -7.3499   -2.8103   -1.5675 C   0  0  0  0  0  0  0  0  0  0  0  0
   -8.2713   -1.7813   -1.5800 C   0  0  0  0  0  0  0  0  0  0  0  0
   -9.5733   -2.0113   -1.1867 C   0  0  0  0  0  0  0  0  0  0  0  0
   -9.9908   -3.2556   -0.7749 C   0  0  0  0  0  0  0  0  0  0  0  0
   -9.0827   -4.2969   -0.7560 C   0  0  0  0  0  0  0  0  0  0  0  0
   -7.7806   -4.0725   -1.1479 C   0  0  0  0  0  0  0  0  0  0  0  0
   -6.4269    2.8670    1.6679 C   0  0  0  0  0  0  0  0  0  0  0  0
   -8.2659   -0.5251    2.8240 H   0  0  0  0  0  0  0  0  0  0  0  0
   -8.9538    1.1116    2.8785 H   0  0  0  0  0  0  0  0  0  0  0  0
   -7.1944    0.8393    3.3810 H   0  0  0  0  0  0  0  0  0  0  0  0
   -8.2150    1.4447    0.7816 H   0  0  0  0  0  0  0  0  0  0  0  0
   -7.5303   -0.1801    0.6835 H   0  0  0  0  0  0  0  0  0  0  0  0
   -5.4574    0.9370    1.9358 H   0  0  0  0  0  0  0  0  0  0  0  0
   -6.5944    1.9187   -0.7220 H   0  0  0  0  0  0  0  0  0  0  0  0
   -5.7600    0.0632   -1.8475 H   0  0  0  0  0  0  0  0  0  0  0  0
   -3.9781   -2.0371   -1.4353 H   0  0  0  0  0  0  0  0  0  0  0  0
   -5.1775   -4.2113    0.2420 H   0  0  0  0  0  0  0  0  0  0  0  0
   -2.2526   -5.0503    1.1426 H   0  0  0  0  0  0  0  0  0  0  0  0
   -3.7052   -4.9575    2.1429 H   0  0  0  0  0  0  0  0  0  0  0  0
   -2.8028   -3.1043    3.3928 H   0  0  0  0  0  0  0  0  0  0  0  0
   -1.9528   -4.6493    3.5525 H   0  0  0  0  0  0  0  0  0  0  0  0
    0.7932   -1.0591    2.5208 H   0  0  0  0  0  0  0  0  0  0  0  0
    1.6559   -2.6055    2.5768 H   0  0  0  0  0  0  0  0  0  0  0  0
    1.1869   -2.9468    0.1733 H   0  0  0  0  0  0  0  0  0  0  0  0
    0.3093   -1.4181    0.1174 H   0  0  0  0  0  0  0  0  0  0  0  0
    3.0392   -1.6477    1.4338 H   0  0  0  0  0  0  0  0  0  0  0  0
    2.3486    0.5263    2.0312 H   0  0  0  0  0  0  0  0  0  0  0  0
    1.1995    3.0583    1.3365 H   0  0  0  0  0  0  0  0  0  0  0  0
   -0.3929    2.4446   -0.8939 H   0  0  0  0  0  0  0  0  0  0  0  0
   -2.4448    3.1002   -1.6022 H   0  0  0  0  0  0  0  0  0  0  0  0
   -4.5230    4.1093    0.3555 H   0  0  0  0  0  0  0  0  0  0  0  0
   -1.4513    5.4484   -1.3798 H   0  0  0  0  0  0  0  0  0  0  0  0
   -2.7080    5.8598   -0.2189 H   0  0  0  0  0  0  0  0  0  0  0  0
   -3.2188    6.7468   -2.3725 H   0  0  0  0  0  0  0  0  0  0  0  0
   -4.4408    5.4381   -1.8989 H   0  0  0  0  0  0  0  0  0  0  0  0
   -5.0313    5.4907   -4.4231 H   0  0  0  0  0  0  0  0  0  0  0  0
   -3.6533    5.3009   -5.5566 H   0  0  0  0  0  0  0  0  0  0  0  0
   -0.5443    2.6979    2.9092 H   0  0  0  0  0  0  0  0  0  0  0  0
    0.5056    1.2336    2.8726 H   0  0  0  0  0  0  0  0  0  0  0  0
   -1.8084    0.2406    3.8848 H   0  0  0  0  0  0  0  0  0  0  0  0
   -3.1358    0.0014    2.6453 H   0  0  0  0  0  0  0  0  0  0  0  0
    3.1098   -3.8918   -0.2074 H   0  0  0  0  0  0  0  0  0  0  0  0
    3.9747   -4.2192   -1.6970 H   0  0  0  0  0  0  0  0  0  0  0  0
    4.7103   -3.2406    2.0164 H   0  0  0  0  0  0  0  0  0  0  0  0
    7.0562   -3.8026    2.7563 H   0  0  0  0  0  0  0  0  0  0  0  0
    8.6858   -4.5634    0.8225 H   0  0  0  0  0  0  0  0  0  0  0  0
    3.6479   -1.2314   -3.2104 H   0  0  0  0  0  0  0  0  0  0  0  0
    4.3569   -2.8686   -3.1606 H   0  0  0  0  0  0  0  0  0  0  0  0
    5.8398   -0.9016   -0.5188 H   0  0  0  0  0  0  0  0  0  0  0  0
    8.0953   -0.8092   -2.4152 H   0  0  0  0  0  0  0  0  0  0  0  0
   10.2521    0.4913   -0.9635 H   0  0  0  0  0  0  0  0  0  0  0  0
   10.6594   -1.4637    1.0354 H   0  0  0  0  0  0  0  0  0  0  0  0
   11.6513    0.0574    0.8389 H   0  0  0  0  0  0  0  0  0  0  0  0
    9.0130    1.9573    2.4131 H   0  0  0  0  0  0  0  0  0  0  0  0
    8.0076    0.5433    2.7431 H   0  0  0  0  0  0  0  0  0  0  0  0
    7.5421    1.2283   -3.1615 H   0  0  0  0  0  0  0  0  0  0  0  0
    8.8007    1.4438   -1.9888 H   0  0  0  0  0  0  0  0  0  0  0  0
    5.8845    2.1389   -1.3923 H   0  0  0  0  0  0  0  0  0  0  0  0
    6.9315    1.8079    0.7715 H   0  0  0  0  0  0  0  0  0  0  0  0
    8.4978    2.3707    0.1463 H   0  0  0  0  0  0  0  0  0  0  0  0
    7.2624    3.5945    0.3965 H   0  0  0  0  0  0  0  0  0  0  0  0
    6.8636    3.5318   -3.1136 H   0  0  0  0  0  0  0  0  0  0  0  0
    8.2820    3.8699   -2.0902 H   0  0  0  0  0  0  0  0  0  0  0  0
    6.5847    4.3955   -1.5742 H   0  0  0  0  0  0  0  0  0  0  0  0
   -5.8847   -1.9465   -2.8206 H   0  0  0  0  0  0  0  0  0  0  0  0
   -5.6392   -3.6459   -2.4531 H   0  0  0  0  0  0  0  0  0  0  0  0
   -7.9760   -0.8089   -1.8939 H   0  0  0  0  0  0  0  0  0  0  0  0
  -10.2468   -1.1554   -1.2202 H   0  0  0  0  0  0  0  0  0  0  0  0
  -11.0268   -3.3541   -0.4849 H   0  0  0  0  0  0  0  0  0  0  0  0
   -9.4581   -5.2539   -0.4256 H   0  0  0  0  0  0  0  0  0  0  0  0
   -7.0705   -4.9150   -1.1256 H   0  0  0  0  0  0  0  0  0  0  0  0
   -7.3394    2.8389    2.3439 H   0  0  0  0  0  0  0  0  0  0  0  0
   -6.7439    3.4899    0.8152 H   0  0  0  0  0  0  0  0  0  0  0  0
   -5.6355    3.2986    2.2705 H   0  0  0  0  0  0  0  0  0  0  0  0
  1  2  1  0
  2  3  1  0
  3  4  1  0
  4  5  1  0
  5  6  1  0
  6  7  2  0
  6  8  1  0
  8  9  1  0
  9 10  1  0
 10 11  2  0
 10 12  1  0
 12 13  1  0
 13 14  1  0
 14 15  1  0
 15 16  1  0
 16 17  1  0
 17 18  1  0
 18 19  1  0
 19 20  2  0
 19 21  1  0
 21 22  1  0
 22 23  1  0
 23 24  2  0
 23 25  1  0
 25 26  1  0
 26 27  1  0
 27 28  2  0
 25 29  1  0
 29 30  1  0
 30 31  1  0
 31 32  2  0
 31 33  1  0
 21 34  1  0
 34 35  1  0
 35 36  2  0
 35 37  1  0
 17 38  1  0
 38 39  2  0
 38 40  1  0
 40 41  1  0
 41 42  1  0
 42 43  2  0
 43 44  1  0
 44 45  2  0
 45 46  1  0
 40 47  1  0
 47 48  1  0
 48 49  2  0
 48 50  1  0
 50 51  1  0
 51 52  1  0
 52 53  2  0
 52 54  1  0
 54 55  1  0
 55 56  1  0
 56 57  2  0
 56 58  1  0
 51 59  1  0
 59 60  1  0
 60 61  1  0
 60 62  1  0
  8 63  1  0
 63 64  1  0
 64 65  2  0
 65 66  1  0
 66 67  2  0
 67 68  1  0
 68 69  2  0
  3 70  1  0
 27  4  1  0
 46 42  1  0
 69 64  1  0
  1 71  1  0
  1 72  1  0
  1 73  1  0
  2 74  1  0
  2 75  1  0
  3 76  1  1
  4 77  1  6
  5 78  1  0
  8 79  1  6
  9 80  1  0
 12 81  1  0
 12 82  1  0
 13 83  1  0
 13 84  1  0
 15 85  1  0
 15 86  1  0
 16 87  1  0
 16 88  1  0
 17 89  1  1
 18 90  1  0
 21 91  1  1
 22 92  1  0
 25 93  1  6
 26 94  1  0
 29 95  1  0
 29 96  1  0
 30 97  1  0
 30 98  1  0
 33 99  1  0
 33100  1  0
 34101  1  0
 34102  1  0
 37103  1  0
 37104  1  0
 41105  1  0
 41106  1  0
 43107  1  0
 44108  1  0
 45109  1  0
 47110  1  0
 47111  1  0
 50112  1  0
 51113  1  6
 54114  1  0
 55115  1  0
 55116  1  0
 58117  1  0
 58118  1  0
 59119  1  0
 59120  1  0
 60121  1  0
 61122  1  0
 61123  1  0
 61124  1  0
 62125  1  0
 62126  1  0
 62127  1  0
 63128  1  0
 63129  1  0
 65130  1  0
 66131  1  0
 67132  1  0
 68133  1  0
 69134  1  0
 70135  1  0
 70136  1  0
 70137  1  0
M  END
>  <Ligand ID>  (1) 
LIG0001564

>  <Ligand>  (1) 
CHEMBL3354602

>  <SMILES>  (1) 
CC[C@@H]([C@@H]1NC(=O)[C@@H](NC(=O)CCSCC[C@H](NC(=O)[C@@H](NC(=O)[C@@H](NC1=O)CCC(=O)N)CC(=O)N)C(=O)N(Cc1cccs1)CC(=O)N[C@H](C(=O)NCC(=O)N)CC(C)C)Cc1ccccc1)C

>  <CID>  (1) 
118720290.0

>  <ChEMBL ID>  (1) 
nan

>  <InChiKey>  (1) 
ODZVPODXYBIPRY-SFKWGLIHSA-N

>  <InChi>  (1) 
InChI=1S/C46H67N11O11S2/c1-5-27(4)40-45(67)53-30(13-14-35(47)58)42(64)55-34(22-36(48)59)43(65)54-31(15-18-69-19-16-38(61)51-33(44(66)56-40)21-28-10-7-6-8-11-28)46(68)57(24-29-12-9-17-70-29)25-39(62)52-32(20-26(2)3)41(63)50-23-37(49)60/h6-12,17,26-27,30-34,40H,5,13-16,18-25H2,1-4H3,(H2,47,58)(H2,48,59)(H2,49,60)(H,50,63)(H,51,61)(H,52,62)(H,53,67)(H,54,65)(H,55,64)(H,56,66)/t27-,30-,31-,32-,33-,34-,40-/m0/s1

>  <IUPAC Name>  (1) 
(4S,7S,10S,13S,16S)-7-(2-amino-2-oxoethyl)-N-[2-[[(2S)-1-[(2-amino-2-oxoethyl)amino]-4-methyl-1-oxopentan-2-yl]amino]-2-oxoethyl]-10-(3-amino-3-oxopropyl)-16-benzyl-13-[(2S)-butan-2-yl]-6,9,12,15,18-pentaoxo-N-(thiophen-2-ylmethyl)-1-thia-5,8,11,14,17-pentazacycloicosane-4-carboxamide

$$$$
