
     RDKit          3D

 43 46  0  0  0  0  0  0  0  0999 V2000
   -8.0395    0.2347    3.2996 F   0  0  0  0  0  0  0  0  0  0  0  0
   -7.0984    0.3833    2.3269 C   0  0  0  0  0  0  0  0  0  0  0  0
   -7.5223    1.0634    1.1816 C   0  0  0  0  0  0  0  0  0  0  0  0
   -6.6393    1.2625    0.1425 C   0  0  0  0  0  0  0  0  0  0  0  0
   -5.3620    0.7655    0.3032 C   0  0  0  0  0  0  0  0  0  0  0  0
   -4.9727    0.0948    1.4527 C   0  0  0  0  0  0  0  0  0  0  0  0
   -5.8614   -0.0814    2.4472 N   0  0  0  0  0  0  0  0  0  0  0  0
   -3.7030   -0.4116    1.6386 O   0  0  0  0  0  0  0  0  0  0  0  0
   -2.6712   -0.3258    0.7356 C   0  0  0  0  0  0  0  0  0  0  0  0
   -2.5256   -1.3435   -0.1967 C   0  0  0  0  0  0  0  0  0  0  0  0
   -1.4967   -1.2927   -1.1243 C   0  0  0  0  0  0  0  0  0  0  0  0
   -0.6175   -0.2224   -1.1141 C   0  0  0  0  0  0  0  0  0  0  0  0
   -0.7814    0.7839   -0.1734 C   0  0  0  0  0  0  0  0  0  0  0  0
   -1.8055    0.7497    0.7627 C   0  0  0  0  0  0  0  0  0  0  0  0
    0.4944   -0.1498   -2.1025 C   0  0  0  0  0  0  0  0  0  0  0  0
    1.6947   -0.7993   -1.5847 N   0  0  0  0  0  0  0  0  0  0  0  0
    2.7566   -0.2246   -0.8249 C   0  0  0  0  0  0  0  0  0  0  0  0
    2.9730    1.0609   -0.3634 C   0  0  0  0  0  0  0  0  0  0  0  0
    4.1296    1.3395    0.3730 C   0  0  0  0  0  0  0  0  0  0  0  0
    5.0387    0.3077    0.6235 C   0  0  0  0  0  0  0  0  0  0  0  0
    4.8150   -0.9761    0.1582 C   0  0  0  0  0  0  0  0  0  0  0  0
    3.6672   -1.2278   -0.5661 C   0  0  0  0  0  0  0  0  0  0  0  0
    3.2237   -2.4887   -1.1514 C   0  0  0  0  0  0  0  0  0  0  0  0
    3.8035   -3.6195   -1.1158 O   0  0  0  0  0  0  0  0  0  0  0  0
    1.9506   -2.1920   -1.8036 C   0  0  0  0  0  0  0  0  0  0  0  0
    1.2332   -3.0239   -2.4333 O   0  0  0  0  0  0  0  0  0  0  0  0
    6.2046    0.5125    1.3459 O   0  0  0  0  0  0  0  0  0  0  0  0
    7.4234    0.8899    0.7331 C   0  0  0  0  0  0  0  0  0  0  0  0
    7.8725   -0.0279   -0.1961 F   0  0  0  0  0  0  0  0  0  0  0  0
    8.3905    1.1638    1.6795 F   0  0  0  0  0  0  0  0  0  0  0  0
    7.2166    2.0850    0.0530 F   0  0  0  0  0  0  0  0  0  0  0  0
   -8.5300    1.4399    1.0879 H   0  0  0  0  0  0  0  0  0  0  0  0
   -6.9437    1.7944   -0.7721 H   0  0  0  0  0  0  0  0  0  0  0  0
   -4.6391    0.9069   -0.5016 H   0  0  0  0  0  0  0  0  0  0  0  0
   -3.2056   -2.1890   -0.2184 H   0  0  0  0  0  0  0  0  0  0  0  0
   -1.3947   -2.0927   -1.8455 H   0  0  0  0  0  0  0  0  0  0  0  0
   -0.1036    1.6490   -0.1343 H   0  0  0  0  0  0  0  0  0  0  0  0
   -1.9447    1.5315    1.5046 H   0  0  0  0  0  0  0  0  0  0  0  0
    0.1665   -0.6524   -3.0369 H   0  0  0  0  0  0  0  0  0  0  0  0
    0.7059    0.9103   -2.3822 H   0  0  0  0  0  0  0  0  0  0  0  0
    2.2487    1.8413   -0.5738 H   0  0  0  0  0  0  0  0  0  0  0  0
    4.3300    2.3354    0.7494 H   0  0  0  0  0  0  0  0  0  0  0  0
    5.5190   -1.7647    0.3549 H   0  0  0  0  0  0  0  0  0  0  0  0
  1  2  1  0
  2  3  2  0
  3  4  1  0
  4  5  2  0
  5  6  1  0
  6  7  2  0
  6  8  1  0
  8  9  1  0
  9 10  2  0
 10 11  1  0
 11 12  2  0
 12 13  1  0
 13 14  2  0
 12 15  1  0
 15 16  1  0
 16 17  1  0
 17 18  2  0
 18 19  1  0
 19 20  2  0
 20 21  1  0
 21 22  2  0
 22 23  1  0
 23 24  2  0
 23 25  1  0
 25 26  2  0
 20 27  1  0
 27 28  1  0
 28 29  1  0
 28 30  1  0
 28 31  1  0
  7  2  1  0
 14  9  1  0
 25 16  1  0
 22 17  1  0
  3 32  1  0
  4 33  1  0
  5 34  1  0
 10 35  1  0
 11 36  1  0
 13 37  1  0
 14 38  1  0
 15 39  1  0
 15 40  1  0
 18 41  1  0
 19 42  1  0
 21 43  1  0
M  END
>  <Ligand ID>  (1) 
LIG0000824

>  <Ligand>  (1) 
CHEMBL1257975

>  <SMILES>  (1) 
Fc1cccc(n1)Oc1ccc(cc1)CN1c2ccc(cc2C(=O)C1=O)OC(F)(F)F

>  <CID>  (1) 
46945663.0

>  <ChEMBL ID>  (1) 
nan

>  <InChiKey>  (1) 
RUQIIZGSRSUFTC-UHFFFAOYSA-N

>  <InChi>  (1) 
InChI=1S/C21H12F4N2O4/c22-17-2-1-3-18(26-17)30-13-6-4-12(5-7-13)11-27-16-9-8-14(31-21(23,24)25)10-15(16)19(28)20(27)29/h1-10H,11H2

>  <IUPAC Name>  (1) 
1-[[4-(6-fluoropyridin-2-yl)oxyphenyl]methyl]-5-(trifluoromethoxy)indole-2,3-dione

$$$$
