
     RDKit          3D

 31 30  0  0  0  0  0  0  0  0999 V2000
    3.9756   -0.5361    1.0104 C   0  0  0  0  0  0  0  0  0  0  0  0
    3.0027    0.5983    0.7791 C   0  0  0  0  0  0  0  0  0  0  0  0
    1.9005    0.0615   -0.1258 C   0  0  0  0  0  0  0  0  0  0  0  0
    0.8889    1.1220   -0.4084 C   0  0  0  0  0  0  0  0  0  0  0  0
   -0.2057    0.6900   -1.3000 C   0  0  0  0  0  0  0  0  0  0  0  0
   -1.0578   -0.4424   -0.8683 C   0  0  0  0  0  0  0  0  0  0  0  0
   -1.7753   -0.2084    0.4484 C   0  0  0  0  0  0  0  0  0  0  0  0
   -2.6941    0.9785    0.4278 C   0  0  0  0  0  0  0  0  0  0  0  0
   -3.3367    1.1532    1.6741 O   0  0  0  0  0  0  0  0  0  0  0  0
   -2.6305   -1.4439    0.6818 C   0  0  0  0  0  0  0  0  0  0  0  0
   -0.2528   -2.0364   -0.8195 S   0  0  0  0  0  0  0  0  0  0  0  0
    4.3647   -0.5427    2.0484 H   0  0  0  0  0  0  0  0  0  0  0  0
    3.4855   -1.4993    0.8512 H   0  0  0  0  0  0  0  0  0  0  0  0
    4.8808   -0.4375    0.3625 H   0  0  0  0  0  0  0  0  0  0  0  0
    2.6208    0.9158    1.7573 H   0  0  0  0  0  0  0  0  0  0  0  0
    3.5735    1.4134    0.2729 H   0  0  0  0  0  0  0  0  0  0  0  0
    1.4187   -0.7408    0.4806 H   0  0  0  0  0  0  0  0  0  0  0  0
    2.3922   -0.3314   -1.0336 H   0  0  0  0  0  0  0  0  0  0  0  0
    1.4366    1.9568   -0.9412 H   0  0  0  0  0  0  0  0  0  0  0  0
    0.5513    1.5539    0.5576 H   0  0  0  0  0  0  0  0  0  0  0  0
    0.2411    0.3865   -2.2957 H   0  0  0  0  0  0  0  0  0  0  0  0
   -0.8892    1.5322   -1.5873 H   0  0  0  0  0  0  0  0  0  0  0  0
   -1.9177   -0.5348   -1.6179 H   0  0  0  0  0  0  0  0  0  0  0  0
   -1.0471   -0.1468    1.2776 H   0  0  0  0  0  0  0  0  0  0  0  0
   -2.1524    1.9155    0.2189 H   0  0  0  0  0  0  0  0  0  0  0  0
   -3.5074    0.7854   -0.2990 H   0  0  0  0  0  0  0  0  0  0  0  0
   -3.5883    2.0861    1.8374 H   0  0  0  0  0  0  0  0  0  0  0  0
   -3.0558   -1.7121   -0.3156 H   0  0  0  0  0  0  0  0  0  0  0  0
   -1.9437   -2.2352    1.0344 H   0  0  0  0  0  0  0  0  0  0  0  0
   -3.4568   -1.2444    1.3879 H   0  0  0  0  0  0  0  0  0  0  0  0
   -1.2216   -3.0569   -0.7592 H   0  0  0  0  0  0  0  0  0  0  0  0
  1  2  1  0
  2  3  1  0
  3  4  1  0
  4  5  1  0
  5  6  1  0
  6  7  1  0
  7  8  1  0
  8  9  1  0
  7 10  1  0
  6 11  1  0
  1 12  1  0
  1 13  1  0
  1 14  1  0
  2 15  1  0
  2 16  1  0
  3 17  1  0
  3 18  1  0
  4 19  1  0
  4 20  1  0
  5 21  1  0
  5 22  1  0
  6 23  1  0
  7 24  1  0
  8 25  1  0
  8 26  1  0
  9 27  1  0
 10 28  1  0
 10 29  1  0
 10 30  1  0
 11 31  1  0
M  END
>  <Ligand ID>  (1) 
LIG0000061

>  <Ligand>  (1) 
3-mercapto-2-methyloctan-1-ol

>  <SMILES>  (1) 
CCCCCC(C(CO)C)S

>  <CID>  (1) 
nan

>  <ChEMBL ID>  (1) 
nan

>  <InChiKey>  (1) 
nan

>  <InChi>  (1) 
nan

>  <IUPAC Name>  (1) 
2-Methyl-3-sulfanyloctan-1-ol

$$$$
