
     RDKit          3D

 32 34  0  0  0  0  0  0  0  0999 V2000
    4.6864    2.5315    0.5449 O   0  0  0  0  0  0  0  0  0  0  0  0
    3.9304    1.4025    0.2627 C   0  0  0  0  0  0  0  0  0  0  0  0
    4.5320    0.1870   -0.0681 C   0  0  0  0  0  0  0  0  0  0  0  0
    3.7585   -0.9206   -0.3445 C   0  0  0  0  0  0  0  0  0  0  0  0
    4.3063   -2.1545   -0.6791 O   0  0  0  0  0  0  0  0  0  0  0  0
    2.3869   -0.8087   -0.2890 C   0  0  0  0  0  0  0  0  0  0  0  0
    1.7804    0.3853    0.0363 C   0  0  0  0  0  0  0  0  0  0  0  0
    2.5536    1.4925    0.3125 C   0  0  0  0  0  0  0  0  0  0  0  0
    0.4880    0.5277    0.0982 O   0  0  0  0  0  0  0  0  0  0  0  0
   -0.3829   -0.4514   -0.1425 C   0  0  0  0  0  0  0  0  0  0  0  0
    0.1641   -1.6620   -0.4709 C   0  0  0  0  0  0  0  0  0  0  0  0
    1.5473   -1.8722   -0.5525 C   0  0  0  0  0  0  0  0  0  0  0  0
    2.0228   -2.9843   -0.8537 O   0  0  0  0  0  0  0  0  0  0  0  0
   -0.6262   -2.7491   -0.7416 O   0  0  0  0  0  0  0  0  0  0  0  0
   -1.7885   -0.1490   -0.0363 C   0  0  0  0  0  0  0  0  0  0  0  0
   -2.8274   -1.0100   -0.2428 C   0  0  0  0  0  0  0  0  0  0  0  0
   -4.1680   -0.6350   -0.1188 C   0  0  0  0  0  0  0  0  0  0  0  0
   -4.5098    0.6538    0.2263 C   0  0  0  0  0  0  0  0  0  0  0  0
   -3.4721    1.5371    0.4386 C   0  0  0  0  0  0  0  0  0  0  0  0
   -2.1531    1.1591    0.3143 C   0  0  0  0  0  0  0  0  0  0  0  0
   -3.7770    2.8442    0.7877 O   0  0  0  0  0  0  0  0  0  0  0  0
   -5.7992    1.0887    0.3650 O   0  0  0  0  0  0  0  0  0  0  0  0
    5.6894    2.5038    0.6377 H   0  0  0  0  0  0  0  0  0  0  0  0
    5.6272    0.1111   -0.1089 H   0  0  0  0  0  0  0  0  0  0  0  0
    4.2211   -2.5456   -1.6219 H   0  0  0  0  0  0  0  0  0  0  0  0
    2.0930    2.4393    0.5700 H   0  0  0  0  0  0  0  0  0  0  0  0
   -0.3919   -3.7083   -0.6458 H   0  0  0  0  0  0  0  0  0  0  0  0
   -2.6533   -2.0261   -0.5130 H   0  0  0  0  0  0  0  0  0  0  0  0
   -4.9512   -1.3454   -0.2905 H   0  0  0  0  0  0  0  0  0  0  0  0
   -1.4040    1.9244    0.5011 H   0  0  0  0  0  0  0  0  0  0  0  0
   -4.3141    3.4347    0.1560 H   0  0  0  0  0  0  0  0  0  0  0  0
   -6.5685    0.7995   -0.2235 H   0  0  0  0  0  0  0  0  0  0  0  0
  1  2  1  0
  2  3  2  0
  3  4  1  0
  4  5  1  0
  4  6  2  0
  6  7  1  0
  7  8  2  0
  7  9  1  0
  9 10  1  0
 10 11  2  0
 11 12  1  0
 12 13  2  0
 11 14  1  0
 10 15  1  0
 15 16  2  0
 16 17  1  0
 17 18  2  0
 18 19  1  0
 19 20  2  0
 19 21  1  0
 18 22  1  0
  8  2  1  0
 20 15  1  0
 12  6  1  0
  1 23  1  0
  3 24  1  0
  5 25  1  0
  8 26  1  0
 14 27  1  0
 16 28  1  0
 17 29  1  0
 20 30  1  0
 21 31  1  0
 22 32  1  0
M  END
>  <Ligand ID>  (1) 
LIG0002481

>  <Ligand>  (1) 
quercetin

>  <SMILES>  (1) 
Oc1cc(O)c2c(c1)oc(c(c2=O)O)c1ccc(c(c1)O)O

>  <CID>  (1) 
5280343.0

>  <ChEMBL ID>  (1) 
nan

>  <InChiKey>  (1) 
REFJWTPEDVJJIY-UHFFFAOYSA-N

>  <InChi>  (1) 
InChI=1S/C15H10O7/c16-7-4-10(19)12-11(5-7)22-15(14(21)13(12)20)6-1-2-8(17)9(18)3-6/h1-5,16-19,21H

>  <IUPAC Name>  (1) 
2-(3,4-dihydroxyphenyl)-3,5,7-trihydroxychromen-4-one

$$$$
