
     RDKit          3D

 82 88  0  0  0  0  0  0  0  0999 V2000
   -5.1501   -4.5545    0.3693 C   0  0  0  0  0  0  0  0  0  0  0  0
   -4.0901   -3.8115   -0.2062 O   0  0  0  0  0  0  0  0  0  0  0  0
   -4.0868   -2.4181   -0.1567 C   0  0  0  0  0  0  0  0  0  0  0  0
   -5.1456   -1.7506    0.4696 C   0  0  0  0  0  0  0  0  0  0  0  0
   -5.1050   -0.3823    0.4977 C   0  0  0  0  0  0  0  0  0  0  0  0
   -6.1747    0.4657    1.1200 C   0  0  0  0  0  0  0  0  0  0  0  0
   -6.5504    1.5665    0.1511 C   0  0  0  0  0  0  0  0  0  0  0  0
   -5.4538    2.3038   -0.3856 N   0  0  0  0  0  0  0  0  0  0  0  0
   -4.1634    1.8106    0.0573 C   0  0  1  0  0  0  0  0  0  0  0  0
   -4.0535    0.3559   -0.0713 C   0  0  0  0  0  0  0  0  0  0  0  0
   -3.0541   -0.3519   -0.6664 C   0  0  0  0  0  0  0  0  0  0  0  0
   -3.0327   -1.7302   -0.7299 C   0  0  0  0  0  0  0  0  0  0  0  0
   -1.9793   -2.3877   -1.3527 O   0  0  0  0  0  0  0  0  0  0  0  0
   -0.6925   -1.9216   -1.4614 C   0  0  0  0  0  0  0  0  0  0  0  0
    0.2626   -2.2842   -0.5419 C   0  0  0  0  0  0  0  0  0  0  0  0
    1.5882   -1.8421   -0.6036 C   0  0  0  0  0  0  0  0  0  0  0  0
    1.9085   -1.0029   -1.6504 C   0  0  0  0  0  0  0  0  0  0  0  0
    0.9656   -0.6105   -2.6055 C   0  0  0  0  0  0  0  0  0  0  0  0
   -0.3255   -1.0718   -2.5059 C   0  0  0  0  0  0  0  0  0  0  0  0
   -1.2223   -0.6576   -3.4778 O   0  0  0  0  0  0  0  0  0  0  0  0
    2.5720   -2.2911    0.3575 C   0  0  0  0  0  0  0  0  0  0  0  0
    3.1767   -1.3483    1.3150 C   0  0  1  0  0  0  0  0  0  0  0  0
    4.2900   -2.0236    2.0187 N   0  0  0  0  0  0  0  0  0  0  0  0
    3.6940   -3.1312    2.7407 C   0  0  0  0  0  0  0  0  0  0  0  0
    5.2528   -2.5353    1.1001 C   0  0  0  0  0  0  0  0  0  0  0  0
    5.6206   -1.6387   -0.0291 C   0  0  0  0  0  0  0  0  0  0  0  0
    5.0130   -0.3129    0.1020 C   0  0  0  0  0  0  0  0  0  0  0  0
    3.7905   -0.1158    0.7691 C   0  0  0  0  0  0  0  0  0  0  0  0
    3.2452    1.1433    0.9061 C   0  0  0  0  0  0  0  0  0  0  0  0
    2.0743    1.3154    1.5539 O   0  0  0  0  0  0  0  0  0  0  0  0
    0.8895    1.6261    0.9630 C   0  0  0  0  0  0  0  0  0  0  0  0
    0.7160    2.1140   -0.3096 C   0  0  0  0  0  0  0  0  0  0  0  0
   -0.5418    2.3920   -0.7975 C   0  0  0  0  0  0  0  0  0  0  0  0
   -1.6954    2.1914   -0.0263 C   0  0  0  0  0  0  0  0  0  0  0  0
   -3.0049    2.4800   -0.6169 C   0  0  0  0  0  0  0  0  0  0  0  0
   -1.5237    1.7026    1.2505 C   0  0  0  0  0  0  0  0  0  0  0  0
   -0.2657    1.4263    1.7356 C   0  0  0  0  0  0  0  0  0  0  0  0
    3.9513    2.2109    0.3569 C   0  0  0  0  0  0  0  0  0  0  0  0
    5.1505    2.0443   -0.3030 C   0  0  0  0  0  0  0  0  0  0  0  0
    5.6940    0.7847   -0.4378 C   0  0  0  0  0  0  0  0  0  0  0  0
    5.8183    3.1376   -0.8353 O   0  0  0  0  0  0  0  0  0  0  0  0
    7.0499    2.9851   -1.5161 C   0  0  0  0  0  0  0  0  0  0  0  0
    3.4774    3.5231    0.4483 O   0  0  0  0  0  0  0  0  0  0  0  0
   -5.5048    3.7247   -0.1176 C   0  0  0  0  0  0  0  0  0  0  0  0
   -5.3936   -4.1631    1.3966 H   0  0  0  0  0  0  0  0  0  0  0  0
   -4.8507   -5.6246    0.4304 H   0  0  0  0  0  0  0  0  0  0  0  0
   -6.0689   -4.4922   -0.2335 H   0  0  0  0  0  0  0  0  0  0  0  0
   -5.9712   -2.2612    0.9199 H   0  0  0  0  0  0  0  0  0  0  0  0
   -5.8364    0.8778    2.0882 H   0  0  0  0  0  0  0  0  0  0  0  0
   -7.0632   -0.1477    1.2887 H   0  0  0  0  0  0  0  0  0  0  0  0
   -7.1655    2.2895    0.7392 H   0  0  0  0  0  0  0  0  0  0  0  0
   -7.2373    1.1240   -0.6031 H   0  0  0  0  0  0  0  0  0  0  0  0
   -4.1211    2.0958    1.1542 H   0  0  0  0  0  0  0  0  0  0  0  0
   -2.2402    0.1649   -1.1212 H   0  0  0  0  0  0  0  0  0  0  0  0
   -0.0155   -2.9464    0.2761 H   0  0  0  0  0  0  0  0  0  0  0  0
    2.8990   -0.5990   -1.8021 H   0  0  0  0  0  0  0  0  0  0  0  0
    1.2425    0.0548   -3.4267 H   0  0  0  0  0  0  0  0  0  0  0  0
   -1.2278    0.2823   -3.8562 H   0  0  0  0  0  0  0  0  0  0  0  0
    3.3368   -2.8909   -0.2213 H   0  0  0  0  0  0  0  0  0  0  0  0
    2.0669   -3.1197    0.9660 H   0  0  0  0  0  0  0  0  0  0  0  0
    2.4394   -1.1145    2.1257 H   0  0  0  0  0  0  0  0  0  0  0  0
    4.1750   -3.1644    3.7390 H   0  0  0  0  0  0  0  0  0  0  0  0
    3.8578   -4.0674    2.1625 H   0  0  0  0  0  0  0  0  0  0  0  0
    2.6234   -2.9226    2.9296 H   0  0  0  0  0  0  0  0  0  0  0  0
    5.0089   -3.5529    0.7193 H   0  0  0  0  0  0  0  0  0  0  0  0
    6.1932   -2.7076    1.7078 H   0  0  0  0  0  0  0  0  0  0  0  0
    6.7480   -1.5030   -0.0970 H   0  0  0  0  0  0  0  0  0  0  0  0
    5.3716   -2.0407   -1.0467 H   0  0  0  0  0  0  0  0  0  0  0  0
    1.5472    2.2908   -0.9764 H   0  0  0  0  0  0  0  0  0  0  0  0
   -0.6599    2.7836   -1.8214 H   0  0  0  0  0  0  0  0  0  0  0  0
   -3.1713    3.5886   -0.7325 H   0  0  0  0  0  0  0  0  0  0  0  0
   -2.9713    2.1032   -1.6776 H   0  0  0  0  0  0  0  0  0  0  0  0
   -2.3664    1.5231    1.9025 H   0  0  0  0  0  0  0  0  0  0  0  0
   -0.1779    1.0354    2.7658 H   0  0  0  0  0  0  0  0  0  0  0  0
    6.6429    0.6284   -0.9560 H   0  0  0  0  0  0  0  0  0  0  0  0
    7.7625    2.3480   -0.9485 H   0  0  0  0  0  0  0  0  0  0  0  0
    7.4903    4.0239   -1.5496 H   0  0  0  0  0  0  0  0  0  0  0  0
    6.9402    2.6225   -2.5482 H   0  0  0  0  0  0  0  0  0  0  0  0
    3.3590    4.1185   -0.3485 H   0  0  0  0  0  0  0  0  0  0  0  0
   -5.2628    4.2157   -1.0969 H   0  0  0  0  0  0  0  0  0  0  0  0
   -4.7733    3.9622    0.6732 H   0  0  0  0  0  0  0  0  0  0  0  0
   -6.5153    4.0557    0.2009 H   0  0  0  0  0  0  0  0  0  0  0  0
  1  2  1  0
  2  3  1  0
  3  4  2  0
  4  5  1  0
  5  6  1  0
  6  7  1  0
  7  8  1  0
  8  9  1  0
  9 10  1  0
 10 11  1  0
 11 12  2  0
 12 13  1  0
 13 14  1  0
 14 15  2  0
 15 16  1  0
 16 17  2  0
 17 18  1  0
 18 19  2  0
 19 20  1  0
 16 21  1  0
 21 22  1  0
 22 23  1  0
 23 24  1  0
 23 25  1  0
 25 26  1  0
 26 27  1  0
 27 28  2  0
 28 29  1  0
 29 30  1  0
 30 31  1  0
 31 32  2  0
 32 33  1  0
 33 34  2  0
 34 35  1  0
 34 36  1  0
 36 37  2  0
 29 38  2  0
 38 39  1  0
 39 40  2  0
 39 41  1  0
 41 42  1  0
 38 43  1  0
  8 44  1  0
 12  3  1  0
 19 14  1  0
 28 22  1  0
 37 31  1  0
 10  5  2  0
 40 27  1  0
 35  9  1  0
  1 45  1  0
  1 46  1  0
  1 47  1  0
  4 48  1  0
  6 49  1  0
  6 50  1  0
  7 51  1  0
  7 52  1  0
  9 53  1  1
 11 54  1  0
 15 55  1  0
 17 56  1  0
 18 57  1  0
 20 58  1  0
 21 59  1  0
 21 60  1  0
 22 61  1  1
 24 62  1  0
 24 63  1  0
 24 64  1  0
 25 65  1  0
 25 66  1  0
 26 67  1  0
 26 68  1  0
 32 69  1  0
 33 70  1  0
 35 71  1  0
 35 72  1  0
 36 73  1  0
 37 74  1  0
 40 75  1  0
 42 76  1  0
 42 77  1  0
 42 78  1  0
 43 79  1  0
 44 80  1  0
 44 81  1  0
 44 82  1  0
M  END
>  <Ligand ID>  (1) 
LIG0001974

>  <Ligand>  (1) 
Curine

>  <SMILES>  (1) 
COc1cc2CCN([C@H]3c2cc1Oc1cc(ccc1O)C[C@H]1N(C)CCc2c1c(Oc1ccc(C3)cc1)c(c(c2)OC)O)C

>  <CID>  (1) 
253793.0

>  <ChEMBL ID>  (1) 
nan

>  <InChiKey>  (1) 
NGZXDRGWBULKFA-VSGBNLITSA-N

>  <InChi>  (1) 
InChI=1S/C36H38N2O6/c1-37-13-11-23-18-31(41-3)32-20-26(23)27(37)15-21-5-8-25(9-6-21)43-36-34-24(19-33(42-4)35(36)40)12-14-38(2)28(34)16-22-7-10-29(39)30(17-22)44-32/h5-10,17-20,27-28,39-40H,11-16H2,1-4H3/t27-,28-/m1/s1

>  <IUPAC Name>  (1) 
(1R,16R)-10,25-dimethoxy-15,30-dimethyl-7,23-dioxa-15,30-diazaheptacyclo[22.6.2.23,6.18,12.118,22.027,31.016,34]hexatriaconta-3(36),4,6(35),8(34),9,11,18(33),19,21,24,26,31-dodecaene-9,21-diol

$$$$
