
     RDKit          3D

 39 40  0  0  0  0  0  0  0  0999 V2000
    5.6406    2.1613   -1.2673 O   0  0  0  0  0  0  0  0  0  0  0  0
    6.2479    1.5803   -0.1826 C   0  0  0  0  0  0  0  0  0  0  0  0
    6.0442    0.1264    0.0103 C   0  0  0  0  0  0  0  0  0  0  0  0
    4.6195   -0.2716    0.2288 C   0  0  0  0  0  0  0  0  0  0  0  0
    3.7680    0.0955   -0.9286 C   0  0  0  0  0  0  0  0  0  0  0  0
    2.3973   -0.4029   -0.5797 C   0  0  0  0  0  0  0  0  0  0  0  0
    1.2872   -0.7920   -0.3148 C   0  0  0  0  0  0  0  0  0  0  0  0
   -0.0447   -1.2429   -0.0186 C   0  0  0  0  0  0  0  0  0  0  0  0
   -0.2810   -2.5493    0.3754 C   0  0  0  0  0  0  0  0  0  0  0  0
   -1.5957   -2.9189    0.6467 C   0  0  0  0  0  0  0  0  0  0  0  0
   -2.6240   -2.0064    0.5245 C   0  0  0  0  0  0  0  0  0  0  0  0
   -2.3769   -0.7003    0.1292 C   0  0  0  0  0  0  0  0  0  0  0  0
   -1.0665   -0.3149   -0.1460 C   0  0  0  0  0  0  0  0  0  0  0  0
   -3.4606    0.3085   -0.0127 C   0  0  1  0  0  0  0  0  0  0  0  0
   -4.7716   -0.2732   -0.4994 C   0  0  0  0  0  0  0  0  0  0  0  0
   -4.6361    0.2076    0.8965 C   0  0  2  0  0  0  0  0  0  0  0  0
   -5.4232    1.4668    1.2347 C   0  0  0  0  0  0  0  0  0  0  0  0
   -5.9828    2.0907    0.0529 N   0  0  0  0  0  0  0  0  0  0  0  0
    6.2288    2.3288   -2.0431 H   0  0  0  0  0  0  0  0  0  0  0  0
    7.3321    1.8657   -0.2468 H   0  0  0  0  0  0  0  0  0  0  0  0
    5.8057    2.0951    0.7251 H   0  0  0  0  0  0  0  0  0  0  0  0
    6.3854   -0.4064   -0.9355 H   0  0  0  0  0  0  0  0  0  0  0  0
    6.7225   -0.2911    0.8004 H   0  0  0  0  0  0  0  0  0  0  0  0
    4.2686    0.2460    1.1690 H   0  0  0  0  0  0  0  0  0  0  0  0
    4.5494   -1.3556    0.4898 H   0  0  0  0  0  0  0  0  0  0  0  0
    4.1241   -0.3666   -1.8505 H   0  0  0  0  0  0  0  0  0  0  0  0
    3.6715    1.2017   -0.9881 H   0  0  0  0  0  0  0  0  0  0  0  0
    0.5322   -3.2623    0.4697 H   0  0  0  0  0  0  0  0  0  0  0  0
   -1.8268   -3.9402    0.9607 H   0  0  0  0  0  0  0  0  0  0  0  0
   -3.6612   -2.2616    0.7284 H   0  0  0  0  0  0  0  0  0  0  0  0
   -0.8575    0.6819   -0.4502 H   0  0  0  0  0  0  0  0  0  0  0  0
   -3.1984    1.3382   -0.3328 H   0  0  0  0  0  0  0  0  0  0  0  0
   -4.8456   -1.3668   -0.6774 H   0  0  0  0  0  0  0  0  0  0  0  0
   -5.2985    0.3106   -1.2617 H   0  0  0  0  0  0  0  0  0  0  0  0
   -4.5470   -0.5157    1.7119 H   0  0  0  0  0  0  0  0  0  0  0  0
   -6.2714    1.1538    1.8732 H   0  0  0  0  0  0  0  0  0  0  0  0
   -4.8001    2.1944    1.7982 H   0  0  0  0  0  0  0  0  0  0  0  0
   -6.7948    1.5235   -0.2609 H   0  0  0  0  0  0  0  0  0  0  0  0
   -5.2606    2.2617   -0.6588 H   0  0  0  0  0  0  0  0  0  0  0  0
  1  2  1  0
  2  3  1  0
  3  4  1  0
  4  5  1  0
  5  6  1  0
  6  7  3  0
  7  8  1  0
  8  9  2  0
  9 10  1  0
 10 11  2  0
 11 12  1  0
 12 13  2  0
 12 14  1  0
 14 15  1  0
 15 16  1  0
 16 17  1  0
 17 18  1  0
 13  8  1  0
 16 14  1  0
  1 19  1  0
  2 20  1  0
  2 21  1  0
  3 22  1  0
  3 23  1  0
  4 24  1  0
  4 25  1  0
  5 26  1  0
  5 27  1  0
  9 28  1  0
 10 29  1  0
 11 30  1  0
 13 31  1  0
 14 32  1  6
 15 33  1  0
 15 34  1  0
 16 35  1  1
 17 36  1  0
 17 37  1  0
 18 38  1  0
 18 39  1  0
M  END
>  <Ligand ID>  (1) 
LIG0005672

>  <Ligand>  (1) 
CHEMBL472678

>  <SMILES>  (1) 
OCCCCC#Cc1cccc(c1)[C@H]1C[C@@H]1CN

>  <CID>  (1) 
44572371.0

>  <ChEMBL ID>  (1) 
nan

>  <InChiKey>  (1) 
IVSQEGDZORYTHD-HZPDHXFCSA-N

>  <InChi>  (1) 
InChI=1S/C16H21NO/c17-12-15-11-16(15)14-8-5-7-13(10-14)6-3-1-2-4-9-18/h5,7-8,10,15-16,18H,1-2,4,9,11-12,17H2/t15-,16-/m1/s1

>  <IUPAC Name>  (1) 
6-[3-[(1S,2S)-2-(aminomethyl)cyclopropyl]phenyl]hex-5-yn-1-ol

$$$$
