
     RDKit          3D

 48 51  0  0  0  0  0  0  0  0999 V2000
   -3.5697    1.1315   -0.8929 O   0  0  0  0  0  0  0  0  0  0  0  0
   -3.1096    0.1614   -0.2360 C   0  0  0  0  0  0  0  0  0  0  0  0
   -1.7144    0.1494    0.0180 N   0  0  0  0  0  0  0  0  0  0  0  0
   -0.8931    1.2385   -0.4823 C   0  0  0  0  0  0  0  0  0  0  0  0
    0.0048    1.6193    0.6759 C   0  0  0  0  0  0  0  0  0  0  0  0
    1.0262    0.5438    0.9113 C   0  0  0  0  0  0  0  0  0  0  0  0
    0.4326   -0.7682    0.3921 C   0  0  0  0  0  0  0  0  0  0  0  0
   -1.0357   -0.8955    0.7560 C   0  0  0  0  0  0  0  0  0  0  0  0
    2.2693    0.7728    0.2412 N   0  0  0  0  0  0  0  0  0  0  0  0
    3.3679    0.0511    0.5028 N   0  0  0  0  0  0  0  0  0  0  0  0
    4.3828    0.4700   -0.2568 C   0  0  0  0  0  0  0  0  0  0  0  0
    3.9083    1.4546   -0.9905 O   0  0  0  0  0  0  0  0  0  0  0  0
    2.6496    1.6399   -0.6985 C   0  0  0  0  0  0  0  0  0  0  0  0
    1.9399    2.5138   -1.2433 O   0  0  0  0  0  0  0  0  0  0  0  0
    5.7542   -0.0388   -0.2918 C   0  0  0  0  0  0  0  0  0  0  0  0
    6.1630   -1.0810    0.5205 C   0  0  0  0  0  0  0  0  0  0  0  0
    7.4713   -1.5172    0.4412 C   0  0  0  0  0  0  0  0  0  0  0  0
    8.3917   -0.9409   -0.4307 C   0  0  0  0  0  0  0  0  0  0  0  0
    7.9840    0.1020   -1.2442 C   0  0  0  0  0  0  0  0  0  0  0  0
    6.6716    0.5262   -1.1523 C   0  0  0  0  0  0  0  0  0  0  0  0
   -4.0218   -0.9121    0.2393 C   0  0  0  0  0  0  0  0  0  0  0  0
   -5.4249   -0.6494   -0.1654 C   0  0  0  0  0  0  0  0  0  0  0  0
   -6.0467   -1.3159   -1.2020 C   0  0  0  0  0  0  0  0  0  0  0  0
   -7.3712   -0.9806   -1.4925 C   0  0  0  0  0  0  0  0  0  0  0  0
   -8.0460   -0.0159   -0.7729 C   0  0  0  0  0  0  0  0  0  0  0  0
   -7.4186    0.6510    0.2669 C   0  0  0  0  0  0  0  0  0  0  0  0
   -6.1069    0.3189    0.5546 C   0  0  0  0  0  0  0  0  0  0  0  0
   -5.5082    0.9892    1.5848 F   0  0  0  0  0  0  0  0  0  0  0  0
   -1.5117    2.1043   -0.8017 H   0  0  0  0  0  0  0  0  0  0  0  0
   -0.2910    0.9547   -1.3433 H   0  0  0  0  0  0  0  0  0  0  0  0
    0.4249    2.6268    0.4905 H   0  0  0  0  0  0  0  0  0  0  0  0
   -0.5959    1.6728    1.6259 H   0  0  0  0  0  0  0  0  0  0  0  0
    1.1924    0.3874    2.0197 H   0  0  0  0  0  0  0  0  0  0  0  0
    0.5065   -0.7969   -0.7034 H   0  0  0  0  0  0  0  0  0  0  0  0
    1.0222   -1.6323    0.7597 H   0  0  0  0  0  0  0  0  0  0  0  0
   -1.1303   -0.7131    1.8518 H   0  0  0  0  0  0  0  0  0  0  0  0
   -1.3693   -1.9034    0.5202 H   0  0  0  0  0  0  0  0  0  0  0  0
    5.4459   -1.5399    1.2093 H   0  0  0  0  0  0  0  0  0  0  0  0
    7.8296   -2.3290    1.0594 H   0  0  0  0  0  0  0  0  0  0  0  0
    9.4174   -1.2736   -0.5011 H   0  0  0  0  0  0  0  0  0  0  0  0
    8.6439    0.5992   -1.9471 H   0  0  0  0  0  0  0  0  0  0  0  0
    6.3677    1.3468   -1.7988 H   0  0  0  0  0  0  0  0  0  0  0  0
   -3.6664   -1.9272   -0.0888 H   0  0  0  0  0  0  0  0  0  0  0  0
   -3.9852   -0.8935    1.3521 H   0  0  0  0  0  0  0  0  0  0  0  0
   -5.5210   -2.0596   -1.7538 H   0  0  0  0  0  0  0  0  0  0  0  0
   -7.8831   -1.4918   -2.3051 H   0  0  0  0  0  0  0  0  0  0  0  0
   -9.0842    0.2448   -1.0030 H   0  0  0  0  0  0  0  0  0  0  0  0
   -7.9630    1.4051    0.8210 H   0  0  0  0  0  0  0  0  0  0  0  0
  1  2  2  0
  2  3  1  0
  3  4  1  0
  4  5  1  0
  5  6  1  0
  6  7  1  0
  7  8  1  0
  6  9  1  0
  9 10  1  0
 10 11  2  0
 11 12  1  0
 12 13  1  0
 13 14  2  0
 11 15  1  0
 15 16  2  0
 16 17  1  0
 17 18  2  0
 18 19  1  0
 19 20  2  0
  2 21  1  0
 21 22  1  0
 22 23  2  0
 23 24  1  0
 24 25  2  0
 25 26  1  0
 26 27  2  0
 27 28  1  0
  8  3  1  0
 13  9  1  0
 20 15  1  0
 27 22  1  0
  4 29  1  0
  4 30  1  0
  5 31  1  0
  5 32  1  0
  6 33  1  0
  7 34  1  0
  7 35  1  0
  8 36  1  0
  8 37  1  0
 16 38  1  0
 17 39  1  0
 18 40  1  0
 19 41  1  0
 20 42  1  0
 21 43  1  0
 21 44  1  0
 23 45  1  0
 24 46  1  0
 25 47  1  0
 26 48  1  0
M  END
>  <Ligand ID>  (1) 
LIG0003144

>  <Ligand>  (1) 
MLS-0437150.0001

>  <SMILES>  (1) 
O=C(N1CCC(CC1)n1nc(oc1=O)c1ccccc1)Cc1ccccc1F

>  <CID>  (1) 
23612542.0

>  <ChEMBL ID>  (1) 
nan

>  <InChiKey>  (1) 
GGYRPAOZNOBUSJ-UHFFFAOYSA-N

>  <InChi>  (1) 
InChI=1S/C21H20FN3O3/c22-18-9-5-4-8-16(18)14-19(26)24-12-10-17(11-13-24)25-21(27)28-20(23-25)15-6-2-1-3-7-15/h1-9,17H,10-14H2

>  <IUPAC Name>  (1) 
3-[1-[2-(2-fluorophenyl)acetyl]piperidin-4-yl]-5-phenyl-1,3,4-oxadiazol-2-one

$$$$
