
     RDKit          3D

153157  0  0  0  0  0  0  0  0999 V2000
    2.0043   -3.8984   -4.1562 C   0  0  0  0  0  0  0  0  0  0  0  0
    1.3856   -2.7146   -5.3298 S   0  0  0  0  0  0  0  0  0  0  0  0
   -0.0530   -1.7952   -4.8866 C   0  0  0  0  0  0  0  0  0  0  0  0
    0.0048   -0.7479   -3.8695 C   0  0  0  0  0  0  0  0  0  0  0  0
    0.4067   -0.9606   -2.4797 C   0  0  1  0  0  0  0  0  0  0  0  0
   -0.3609   -1.8975   -1.6488 C   0  0  0  0  0  0  0  0  0  0  0  0
    0.1654   -2.3262   -0.5860 O   0  0  0  0  0  0  0  0  0  0  0  0
   -1.6597   -2.3671   -1.9508 N   0  0  0  0  0  0  0  0  0  0  0  0
   -2.4576   -3.2571   -1.1752 C   0  0  0  0  0  0  0  0  0  0  0  0
   -3.1044   -2.6316    0.0346 C   0  0  0  0  0  0  0  0  0  0  0  0
   -3.7207   -3.3585    0.8222 O   0  0  0  0  0  0  0  0  0  0  0  0
   -3.0298   -1.2585    0.2788 N   0  0  0  0  0  0  0  0  0  0  0  0
   -3.5918   -0.4998    1.3437 C   0  0  2  0  0  0  0  0  0  0  0  0
   -4.6541    0.4129    0.7055 C   0  0  0  0  0  0  0  0  0  0  0  0
   -4.9330    1.4398    1.3540 O   0  0  0  0  0  0  0  0  0  0  0  0
   -5.2133    0.0318   -0.5239 N   0  0  0  0  0  0  0  0  0  0  0  0
   -6.1442    0.6332   -1.3808 C   0  0  2  0  0  0  0  0  0  0  0  0
   -6.9201    1.8161   -0.8823 C   0  0  0  0  0  0  0  0  0  0  0  0
   -7.7159    2.2948   -1.7820 O   0  0  0  0  0  0  0  0  0  0  0  0
   -6.9013    2.4182    0.3120 O   0  0  0  0  0  0  0  0  0  0  0  0
   -7.6339    3.5213    0.7219 C   0  0  0  0  0  0  0  0  0  0  0  0
   -9.0831    3.4328    0.6999 C   0  0  0  0  0  0  0  0  0  0  0  0
   -9.7386    2.9477    1.8188 C   0  0  0  0  0  0  0  0  0  0  0  0
  -11.1165    2.8442    1.8724 C   0  0  0  0  0  0  0  0  0  0  0  0
  -11.9148    3.2170    0.8131 C   0  0  0  0  0  0  0  0  0  0  0  0
  -11.2721    3.7065   -0.3209 C   0  0  0  0  0  0  0  0  0  0  0  0
   -9.8971    3.8050   -0.3585 C   0  0  0  0  0  0  0  0  0  0  0  0
  -12.0934    4.1238   -1.5051 C   0  0  0  0  0  0  0  0  0  0  0  0
  -12.6990    2.9800   -2.0276 F   0  0  0  0  0  0  0  0  0  0  0  0
  -13.0677    5.0247   -1.1141 F   0  0  0  0  0  0  0  0  0  0  0  0
  -11.2865    4.6922   -2.4542 F   0  0  0  0  0  0  0  0  0  0  0  0
  -11.7389    2.3246    3.1223 C   0  0  0  0  0  0  0  0  0  0  0  0
  -11.1689    1.1368    3.5500 F   0  0  0  0  0  0  0  0  0  0  0  0
  -11.5675    3.2541    4.1189 F   0  0  0  0  0  0  0  0  0  0  0  0
  -13.0768    2.0747    2.8818 F   0  0  0  0  0  0  0  0  0  0  0  0
   -7.0794   -0.3102   -2.0748 C   0  0  0  0  0  0  0  0  0  0  0  0
   -7.9648   -1.0847   -1.2062 C   0  0  0  0  0  0  0  0  0  0  0  0
   -9.2936   -0.6605   -0.9632 C   0  0  0  0  0  0  0  0  0  0  0  0
   -9.8686   -1.5177   -0.1170 N   0  0  0  0  0  0  0  0  0  0  0  0
   -9.0098   -2.4950    0.2257 C   0  0  0  0  0  0  0  0  0  0  0  0
   -7.8459   -2.2117   -0.4541 C   0  0  0  0  0  0  0  0  0  0  0  0
   -6.7955   -3.0746   -0.2874 C   0  0  0  0  0  0  0  0  0  0  0  0
   -6.9128   -4.1727    0.5291 C   0  0  0  0  0  0  0  0  0  0  0  0
   -8.0904   -4.4344    1.2022 C   0  0  0  0  0  0  0  0  0  0  0  0
   -9.1656   -3.5846    1.0539 C   0  0  0  0  0  0  0  0  0  0  0  0
   -2.8084    0.3397    2.2228 C   0  0  0  0  0  0  0  0  0  0  0  0
   -2.0543    1.4947    1.6538 C   0  0  0  0  0  0  0  0  0  0  0  0
   -1.0461    1.2053    0.6234 C   0  0  0  0  0  0  0  0  0  0  0  0
   -1.3171    2.1346    2.8450 C   0  0  0  0  0  0  0  0  0  0  0  0
   -3.5304   -3.8678   -2.0198 C   0  0  0  0  0  0  0  0  0  0  0  0
   -1.6103   -4.4112   -0.6180 C   0  0  0  0  0  0  0  0  0  0  0  0
    1.8155   -0.8750   -2.2250 N   0  0  0  0  0  0  0  0  0  0  0  0
    2.4765   -0.1367   -1.2461 C   0  0  0  0  0  0  0  0  0  0  0  0
    1.8627    0.5486   -0.4193 O   0  0  0  0  0  0  0  0  0  0  0  0
    3.9841   -0.1164   -1.1328 C   0  0  2  0  0  0  0  0  0  0  0  0
    4.6385   -1.4294   -1.2952 C   0  0  0  0  0  0  0  0  0  0  0  0
    4.2235   -2.4506   -0.3042 C   0  0  0  0  0  0  0  0  0  0  0  0
    4.8741   -2.5523    0.9278 C   0  0  0  0  0  0  0  0  0  0  0  0
    4.5169   -3.5005    1.8473 C   0  0  0  0  0  0  0  0  0  0  0  0
    3.4971   -4.4047    1.6076 C   0  0  0  0  0  0  0  0  0  0  0  0
    2.8470   -4.3211    0.4067 C   0  0  0  0  0  0  0  0  0  0  0  0
    3.2168   -3.3578   -0.5163 C   0  0  0  0  0  0  0  0  0  0  0  0
    4.4078    0.6815   -0.0104 N   0  0  0  0  0  0  0  0  0  0  0  0
    4.1941    2.0896   -0.0580 C   0  0  0  0  0  0  0  0  0  0  0  0
    3.6132    2.5213   -1.0995 O   0  0  0  0  0  0  0  0  0  0  0  0
    4.5705    3.0549    0.9638 C   0  0  0  0  0  0  0  0  0  0  0  0
    5.3485    2.4374    2.0323 N   0  0  0  0  0  0  0  0  0  0  0  0
    6.6050    1.9156    1.6393 C   0  0  0  0  0  0  0  0  0  0  0  0
    6.9018    2.0453    0.4023 O   0  0  0  0  0  0  0  0  0  0  0  0
    7.5987    1.2525    2.4859 C   0  0  2  0  0  0  0  0  0  0  0  0
    8.7678    1.0223    1.6033 N   0  0  0  0  0  0  0  0  0  0  0  0
   10.0423    1.5084    1.9410 C   0  0  0  0  0  0  0  0  0  0  0  0
   10.1890    2.1415    3.0330 O   0  0  0  0  0  0  0  0  0  0  0  0
   11.2603    1.3384    1.0988 C   0  0  2  0  0  0  0  0  0  0  0  0
   11.7102    2.7629    0.7562 C   0  0  0  0  0  0  0  0  0  0  0  0
   12.9181    2.6570   -0.0844 C   0  0  0  0  0  0  0  0  0  0  0  0
   14.1614    2.6154    0.5258 C   0  0  0  0  0  0  0  0  0  0  0  0
   15.3200    2.5323   -0.2074 C   0  0  0  0  0  0  0  0  0  0  0  0
   15.2265    2.4888   -1.6028 C   0  0  0  0  0  0  0  0  0  0  0  0
   13.9773    2.5297   -2.1967 C   0  0  0  0  0  0  0  0  0  0  0  0
   12.8045    2.6137   -1.4776 C   0  0  0  0  0  0  0  0  0  0  0  0
   16.4024    2.4046   -2.3529 O   0  0  0  0  0  0  0  0  0  0  0  0
   10.9987    0.6604   -0.1443 N   0  0  0  0  0  0  0  0  0  0  0  0
    7.0991   -0.0705    2.9619 C   0  0  0  0  0  0  0  0  0  0  0  0
    1.3181   -4.1452   -3.3150 H   0  0  0  0  0  0  0  0  0  0  0  0
    2.2417   -4.8386   -4.7397 H   0  0  0  0  0  0  0  0  0  0  0  0
    3.0086   -3.5660   -3.7903 H   0  0  0  0  0  0  0  0  0  0  0  0
   -0.9475   -2.4953   -4.7675 H   0  0  0  0  0  0  0  0  0  0  0  0
   -0.3803   -1.2542   -5.8543 H   0  0  0  0  0  0  0  0  0  0  0  0
    0.5541    0.1855   -4.2717 H   0  0  0  0  0  0  0  0  0  0  0  0
   -1.0628   -0.3124   -3.8231 H   0  0  0  0  0  0  0  0  0  0  0  0
    0.0632    0.0659   -1.9598 H   0  0  0  0  0  0  0  0  0  0  0  0
   -2.0910   -1.9986   -2.8453 H   0  0  0  0  0  0  0  0  0  0  0  0
   -2.4622   -0.6933   -0.4420 H   0  0  0  0  0  0  0  0  0  0  0  0
   -4.1964   -1.2030    1.9468 H   0  0  0  0  0  0  0  0  0  0  0  0
   -4.8292   -0.9175   -0.8959 H   0  0  0  0  0  0  0  0  0  0  0  0
   -5.5161    1.1559   -2.1883 H   0  0  0  0  0  0  0  0  0  0  0  0
   -7.3032    4.3795    0.0682 H   0  0  0  0  0  0  0  0  0  0  0  0
   -7.3236    3.8740    1.7525 H   0  0  0  0  0  0  0  0  0  0  0  0
   -9.1530    2.6429    2.6738 H   0  0  0  0  0  0  0  0  0  0  0  0
  -12.9810    3.1522    0.8082 H   0  0  0  0  0  0  0  0  0  0  0  0
   -9.4720    4.2060   -1.2632 H   0  0  0  0  0  0  0  0  0  0  0  0
   -7.6463    0.3146   -2.8152 H   0  0  0  0  0  0  0  0  0  0  0  0
   -6.4349   -0.9862   -2.7219 H   0  0  0  0  0  0  0  0  0  0  0  0
   -9.7846    0.2068   -1.3823 H   0  0  0  0  0  0  0  0  0  0  0  0
  -10.8502   -1.4672    0.2504 H   0  0  0  0  0  0  0  0  0  0  0  0
   -5.8978   -2.8959   -0.8031 H   0  0  0  0  0  0  0  0  0  0  0  0
   -6.0912   -4.8742    0.6814 H   0  0  0  0  0  0  0  0  0  0  0  0
   -8.1861   -5.3050    1.8521 H   0  0  0  0  0  0  0  0  0  0  0  0
  -10.0986   -3.7600    1.5659 H   0  0  0  0  0  0  0  0  0  0  0  0
   -2.2002   -0.2134    3.0049 H   0  0  0  0  0  0  0  0  0  0  0  0
   -3.5487    0.8558    2.9061 H   0  0  0  0  0  0  0  0  0  0  0  0
   -2.7411    2.2935    1.2985 H   0  0  0  0  0  0  0  0  0  0  0  0
   -0.1691    1.8984    0.7879 H   0  0  0  0  0  0  0  0  0  0  0  0
   -0.6027    0.1942    0.7193 H   0  0  0  0  0  0  0  0  0  0  0  0
   -1.3574    1.4367   -0.4159 H   0  0  0  0  0  0  0  0  0  0  0  0
   -0.3747    1.5424    2.9596 H   0  0  0  0  0  0  0  0  0  0  0  0
   -1.0902    3.1846    2.6752 H   0  0  0  0  0  0  0  0  0  0  0  0
   -1.9094    1.9612    3.7611 H   0  0  0  0  0  0  0  0  0  0  0  0
   -4.0813   -4.6935   -1.5018 H   0  0  0  0  0  0  0  0  0  0  0  0
   -3.0006   -4.3893   -2.8694 H   0  0  0  0  0  0  0  0  0  0  0  0
   -4.2189   -3.1472   -2.4757 H   0  0  0  0  0  0  0  0  0  0  0  0
   -1.4596   -4.2845    0.4749 H   0  0  0  0  0  0  0  0  0  0  0  0
   -2.1619   -5.3414   -0.8210 H   0  0  0  0  0  0  0  0  0  0  0  0
   -0.6593   -4.4386   -1.1783 H   0  0  0  0  0  0  0  0  0  0  0  0
    2.4406   -1.4430   -2.8776 H   0  0  0  0  0  0  0  0  0  0  0  0
    4.2604    0.5448   -2.0382 H   0  0  0  0  0  0  0  0  0  0  0  0
    5.7597   -1.3539   -1.3049 H   0  0  0  0  0  0  0  0  0  0  0  0
    4.3705   -1.8019   -2.3348 H   0  0  0  0  0  0  0  0  0  0  0  0
    5.6769   -1.8863    1.1768 H   0  0  0  0  0  0  0  0  0  0  0  0
    5.0288   -3.5624    2.7938 H   0  0  0  0  0  0  0  0  0  0  0  0
    3.1991   -5.1630    2.3195 H   0  0  0  0  0  0  0  0  0  0  0  0
    2.0448   -5.0280    0.2116 H   0  0  0  0  0  0  0  0  0  0  0  0
    2.6583   -3.3546   -1.4372 H   0  0  0  0  0  0  0  0  0  0  0  0
    4.8635    0.3057    0.8460 H   0  0  0  0  0  0  0  0  0  0  0  0
    3.6784    3.5022    1.4892 H   0  0  0  0  0  0  0  0  0  0  0  0
    5.1587    3.9123    0.5435 H   0  0  0  0  0  0  0  0  0  0  0  0
    5.0520    2.3597    3.0144 H   0  0  0  0  0  0  0  0  0  0  0  0
    7.9262    1.8556    3.3481 H   0  0  0  0  0  0  0  0  0  0  0  0
    8.6483    0.4938    0.7173 H   0  0  0  0  0  0  0  0  0  0  0  0
   12.0576    0.8067    1.6527 H   0  0  0  0  0  0  0  0  0  0  0  0
   11.9298    3.2813    1.7297 H   0  0  0  0  0  0  0  0  0  0  0  0
   10.8806    3.2548    0.2260 H   0  0  0  0  0  0  0  0  0  0  0  0
   14.2235    2.6506    1.6096 H   0  0  0  0  0  0  0  0  0  0  0  0
   16.2789    2.5044    0.2922 H   0  0  0  0  0  0  0  0  0  0  0  0
   13.9451    2.4916   -3.2697 H   0  0  0  0  0  0  0  0  0  0  0  0
   11.8358    2.6449   -1.9507 H   0  0  0  0  0  0  0  0  0  0  0  0
   17.2291    2.9504   -2.0808 H   0  0  0  0  0  0  0  0  0  0  0  0
   10.1339    0.9900   -0.5886 H   0  0  0  0  0  0  0  0  0  0  0  0
   11.0281   -0.3688   -0.0755 H   0  0  0  0  0  0  0  0  0  0  0  0
    7.4721   -0.8728    2.2830 H   0  0  0  0  0  0  0  0  0  0  0  0
    7.4875   -0.3313    3.9725 H   0  0  0  0  0  0  0  0  0  0  0  0
    5.9995   -0.0890    2.9257 H   0  0  0  0  0  0  0  0  0  0  0  0
  1  2  1  0
  2  3  1  0
  3  4  1  0
  4  5  1  0
  5  6  1  0
  6  7  2  0
  6  8  1  0
  8  9  1  0
  9 10  1  0
 10 11  2  0
 10 12  1  0
 12 13  1  0
 13 14  1  0
 14 15  2  0
 14 16  1  0
 16 17  1  0
 17 18  1  0
 18 19  2  0
 18 20  1  0
 20 21  1  0
 21 22  1  0
 22 23  2  0
 23 24  1  0
 24 25  2  0
 25 26  1  0
 26 27  2  0
 26 28  1  0
 28 29  1  0
 28 30  1  0
 28 31  1  0
 24 32  1  0
 32 33  1  0
 32 34  1  0
 32 35  1  0
 17 36  1  0
 36 37  1  0
 37 38  2  0
 38 39  1  0
 39 40  1  0
 40 41  2  0
 41 42  1  0
 42 43  2  0
 43 44  1  0
 44 45  2  0
 13 46  1  0
 46 47  1  0
 47 48  1  0
 47 49  1  0
  9 50  1  0
  9 51  1  0
  5 52  1  0
 52 53  1  0
 53 54  2  0
 53 55  1  0
 55 56  1  0
 56 57  1  0
 57 58  2  0
 58 59  1  0
 59 60  2  0
 60 61  1  0
 61 62  2  0
 55 63  1  0
 63 64  1  0
 64 65  2  0
 64 66  1  0
 66 67  1  0
 67 68  1  0
 68 69  2  0
 68 70  1  0
 70 71  1  0
 71 72  1  0
 72 73  2  0
 72 74  1  0
 74 75  1  0
 75 76  1  0
 76 77  2  0
 77 78  1  0
 78 79  2  0
 79 80  1  0
 80 81  2  0
 79 82  1  0
 74 83  1  0
 70 84  1  0
 27 22  1  0
 41 37  1  0
 62 57  1  0
 81 76  1  0
 45 40  1  0
  1 85  1  0
  1 86  1  0
  1 87  1  0
  3 88  1  0
  3 89  1  0
  4 90  1  0
  4 91  1  0
  5 92  1  1
  8 93  1  0
 12 94  1  0
 13 95  1  1
 16 96  1  0
 17 97  1  6
 21 98  1  0
 21 99  1  0
 23100  1  0
 25101  1  0
 27102  1  0
 36103  1  0
 36104  1  0
 38105  1  0
 39106  1  0
 42107  1  0
 43108  1  0
 44109  1  0
 45110  1  0
 46111  1  0
 46112  1  0
 47113  1  0
 48114  1  0
 48115  1  0
 48116  1  0
 49117  1  0
 49118  1  0
 49119  1  0
 50120  1  0
 50121  1  0
 50122  1  0
 51123  1  0
 51124  1  0
 51125  1  0
 52126  1  0
 55127  1  6
 56128  1  0
 56129  1  0
 58130  1  0
 59131  1  0
 60132  1  0
 61133  1  0
 62134  1  0
 63135  1  0
 66136  1  0
 66137  1  0
 67138  1  0
 70139  1  1
 71140  1  0
 74141  1  1
 75142  1  0
 75143  1  0
 77144  1  0
 78145  1  0
 80146  1  0
 81147  1  0
 82148  1  0
 83149  1  0
 83150  1  0
 84151  1  0
 84152  1  0
 84153  1  0
M  END
>  <Ligand ID>  (1) 
LIG0005382

>  <Ligand>  (1) 
CHEMBL2419539

>  <SMILES>  (1) 
CSCC[C@@H](C(=O)NC(C(=O)N[C@H](C(=O)N[C@H](C(=O)OCc1cc(cc(c1)C(F)(F)F)C(F)(F)F)Cc1c[nH]c2c1cccc2)CC(C)C)(C)C)NC(=O)[C@H](Cc1ccccc1)NC(=O)CNC(=O)[C@H](NC(=O)[C@H](Cc1ccc(cc1)O)N)C

>  <CID>  (1) 
44177668.0

>  <ChEMBL ID>  (1) 
nan

>  <InChiKey>  (1) 
OXXARYIRJZWVPQ-IZYRQKRSSA-N

>  <InChi>  (1) 
InChI=1S/C58H69F6N9O10S/c1-32(2)22-45(51(78)71-47(27-37-29-66-43-15-11-10-14-41(37)43)54(81)83-31-36-23-38(57(59,60)61)28-39(24-36)58(62,63)64)72-55(82)56(4,5)73-53(80)44(20-21-84-6)70-52(79)46(26-34-12-8-7-9-13-34)69-48(75)30-67-49(76)33(3)68-50(77)42(65)25-35-16-18-40(74)19-17-35/h7-19,23-24,28-29,32-33,42,44-47,66,74H,20-22,25-27,30-31,65H2,1-6H3,(H,67,76)(H,68,77)(H,69,75)(H,70,79)(H,71,78)(H,72,82)(H,73,80)/t33-,42+,44+,45+,46+,47+/m1/s1

>  <IUPAC Name>  (1) 
[3,5-bis(trifluoromethyl)phenyl]methyl (2S)-2-[[(2S)-2-[[2-[[(2S)-2-[[(2S)-2-[[2-[[(2R)-2-[[(2S)-2-amino-3-(4-hydroxyphenyl)propanoyl]amino]propanoyl]amino]acetyl]amino]-3-phenylpropanoyl]amino]-4-methylsulfanylbutanoyl]amino]-2-methylpropanoyl]amino]-4-methylpentanoyl]amino]-3-(1H-indol-3-yl)propanoate

$$$$
