
     RDKit          3D

 80 80  0  0  0  0  0  0  0  0999 V2000
   -0.9820   -0.0829    0.0484 C   0  0  0  0  0  0  0  0  0  0  0  0
    0.4620    0.2869   -0.0264 C   0  0  0  0  0  0  0  0  0  0  0  0
    0.7573    1.4839   -0.2878 O   0  0  0  0  0  0  0  0  0  0  0  0
    1.4297   -0.6935    0.1928 O   0  0  0  0  0  0  0  0  0  0  0  0
    9.0296   -2.1807   -3.0867 O   0  0  0  0  0  0  0  0  0  0  0  0
    9.2154   -2.3985   -1.7225 C   0  0  0  0  0  0  0  0  0  0  0  0
    8.7025   -1.2179   -0.9755 C   0  0  0  0  0  0  0  0  0  0  0  0
    7.5068   -1.2370   -0.3050 C   0  0  0  0  0  0  0  0  0  0  0  0
    7.1340   -0.0812    0.3545 C   0  0  0  0  0  0  0  0  0  0  0  0
    7.9260    1.0443    0.3418 C   0  0  0  0  0  0  0  0  0  0  0  0
    9.1305    1.0781   -0.3281 C   0  0  0  0  0  0  0  0  0  0  0  0
    9.5168   -0.0833   -0.9974 C   0  0  0  0  0  0  0  0  0  0  0  0
   10.7212   -0.0708   -1.6752 O   0  0  0  0  0  0  0  0  0  0  0  0
    5.8404    0.0002    1.1187 C   0  0  2  0  0  0  0  0  0  0  0  0
    4.9298    0.9096    0.3486 C   0  0  0  0  0  0  0  0  0  0  0  0
    3.7140    1.1838    1.0773 N   0  0  0  0  0  0  0  0  0  0  0  0
    2.9354   -0.0291    1.1482 C   0  0  0  0  0  0  0  0  0  0  0  0
    1.6485    0.2716    1.9202 C   0  0  0  0  0  0  0  0  0  0  0  0
    0.8480    1.3444    1.2291 C   0  0  0  0  0  0  0  0  0  0  0  0
   -0.4265    1.7102    1.9159 C   0  0  0  0  0  0  0  0  0  0  0  0
   -1.4042    0.5756    2.0693 C   0  0  0  0  0  0  0  0  0  0  0  0
   -1.7669    0.0517    0.6974 C   0  0  0  0  0  0  0  0  0  0  0  0
   -2.6642   -0.9863    0.7053 O   0  0  0  0  0  0  0  0  0  0  0  0
   -3.8859   -0.6489    1.3029 C   0  0  0  0  0  0  0  0  0  0  0  0
   -4.5579    0.4875    0.5991 C   0  0  0  0  0  0  0  0  0  0  0  0
   -4.8804    0.1813   -0.8462 C   0  0  0  0  0  0  0  0  0  0  0  0
   -5.8691   -0.9466   -0.9984 C   0  0  0  0  0  0  0  0  0  0  0  0
   -7.2081   -0.6359   -0.4283 C   0  0  0  0  0  0  0  0  0  0  0  0
   -7.4917   -0.9441    0.8970 C   0  0  0  0  0  0  0  0  0  0  0  0
   -8.6977   -0.6167    1.4958 C   0  0  0  0  0  0  0  0  0  0  0  0
   -9.6617    0.0367    0.7683 C   0  0  0  0  0  0  0  0  0  0  0  0
   -9.3914    0.3415   -0.5346 C   0  0  0  0  0  0  0  0  0  0  0  0
   -8.1893    0.0272   -1.1728 C   0  0  0  0  0  0  0  0  0  0  0  0
   -8.0073    0.4020   -2.8623 S   0  0  0  0  0  0  0  0  0  0  0  0
   -7.0114    1.4350   -3.1850 O   0  0  0  0  0  0  0  0  0  0  0  0
   -9.3794    0.8810   -3.3616 O   0  0  0  0  0  0  0  0  0  0  0  0
   -7.7582   -1.0905   -3.7347 N   0  0  0  0  0  0  0  0  0  0  0  0
    6.1860    0.5932    2.3392 O   0  0  0  0  0  0  0  0  0  0  0  0
   -1.1193   -1.1454   -0.1539 H   0  0  0  0  0  0  0  0  0  0  0  0
   -1.6008    0.5614   -0.6249 H   0  0  0  0  0  0  0  0  0  0  0  0
   -1.2797    0.1046    1.1027 H   0  0  0  0  0  0  0  0  0  0  0  0
    2.3328   -0.5150   -0.2510 H   0  0  0  0  0  0  0  0  0  0  0  0
    9.6472   -1.4983   -3.4397 H   0  0  0  0  0  0  0  0  0  0  0  0
    8.6792   -3.3051   -1.3919 H   0  0  0  0  0  0  0  0  0  0  0  0
   10.2983   -2.4775   -1.5035 H   0  0  0  0  0  0  0  0  0  0  0  0
    6.8907   -2.1038   -0.2925 H   0  0  0  0  0  0  0  0  0  0  0  0
    7.6215    1.9417    0.8612 H   0  0  0  0  0  0  0  0  0  0  0  0
    9.7834    1.9356   -0.3651 H   0  0  0  0  0  0  0  0  0  0  0  0
   11.0938    0.8002   -2.0237 H   0  0  0  0  0  0  0  0  0  0  0  0
    5.4345   -0.9893    1.3323 H   0  0  0  0  0  0  0  0  0  0  0  0
    5.3951    1.8741    0.1002 H   0  0  0  0  0  0  0  0  0  0  0  0
    4.6830    0.3677   -0.6057 H   0  0  0  0  0  0  0  0  0  0  0  0
    3.9665    1.5645    1.9997 H   0  0  0  0  0  0  0  0  0  0  0  0
    3.4772   -0.7656    1.7935 H   0  0  0  0  0  0  0  0  0  0  0  0
    2.7452   -0.4195    0.1385 H   0  0  0  0  0  0  0  0  0  0  0  0
    1.9458    0.5355    2.9357 H   0  0  0  0  0  0  0  0  0  0  0  0
    1.0483   -0.6605    1.9546 H   0  0  0  0  0  0  0  0  0  0  0  0
    0.6940    1.1016    0.1688 H   0  0  0  0  0  0  0  0  0  0  0  0
    1.4948    2.2581    1.2390 H   0  0  0  0  0  0  0  0  0  0  0  0
   -0.9358    2.4547    1.2540 H   0  0  0  0  0  0  0  0  0  0  0  0
   -0.2275    2.1883    2.8932 H   0  0  0  0  0  0  0  0  0  0  0  0
   -1.0372   -0.2392    2.7132 H   0  0  0  0  0  0  0  0  0  0  0  0
   -2.2904    0.9995    2.5939 H   0  0  0  0  0  0  0  0  0  0  0  0
   -2.0816    0.8191   -0.0040 H   0  0  0  0  0  0  0  0  0  0  0  0
   -0.8035   -0.3679    0.2900 H   0  0  0  0  0  0  0  0  0  0  0  0
   -4.4798   -1.5831    1.2940 H   0  0  0  0  0  0  0  0  0  0  0  0
   -3.7805   -0.3740    2.3706 H   0  0  0  0  0  0  0  0  0  0  0  0
   -3.9132    1.3751    0.6288 H   0  0  0  0  0  0  0  0  0  0  0  0
   -5.4774    0.7323    1.1823 H   0  0  0  0  0  0  0  0  0  0  0  0
   -3.9689   -0.0015   -1.4061 H   0  0  0  0  0  0  0  0  0  0  0  0
   -5.3296    1.1020   -1.2457 H   0  0  0  0  0  0  0  0  0  0  0  0
   -5.9711   -1.1065   -2.0929 H   0  0  0  0  0  0  0  0  0  0  0  0
   -5.4664   -1.9173   -0.6182 H   0  0  0  0  0  0  0  0  0  0  0  0
   -6.7880   -1.4621    1.5432 H   0  0  0  0  0  0  0  0  0  0  0  0
   -8.9214   -0.8533    2.5250 H   0  0  0  0  0  0  0  0  0  0  0  0
  -10.6304    0.3152    1.2077 H   0  0  0  0  0  0  0  0  0  0  0  0
  -10.1857    0.8643   -1.0830 H   0  0  0  0  0  0  0  0  0  0  0  0
   -6.8842   -1.0849   -4.2907 H   0  0  0  0  0  0  0  0  0  0  0  0
   -7.9363   -1.9191   -3.1607 H   0  0  0  0  0  0  0  0  0  0  0  0
    5.4770    0.5117    3.0214 H   0  0  0  0  0  0  0  0  0  0  0  0
  1  2  1  0
  2  3  2  0
  2  4  1  0
  5  6  1  0
  6  7  1  0
  7  8  2  0
  8  9  1  0
  9 10  2  0
 10 11  1  0
 11 12  2  0
 12 13  1  0
  9 14  1  0
 14 15  1  0
 15 16  1  0
 16 17  1  0
 17 18  1  0
 18 19  1  0
 19 20  1  0
 20 21  1  0
 21 22  1  0
 22 23  1  0
 23 24  1  0
 24 25  1  0
 25 26  1  0
 26 27  1  0
 27 28  1  0
 28 29  2  0
 29 30  1  0
 30 31  2  0
 31 32  1  0
 32 33  2  0
 33 34  1  0
 34 35  2  0
 34 36  2  0
 34 37  1  0
 14 38  1  0
 12  7  1  0
 33 28  1  0
  1 39  1  0
  1 40  1  0
  1 41  1  0
  4 42  1  0
  5 43  1  0
  6 44  1  0
  6 45  1  0
  8 46  1  0
 10 47  1  0
 11 48  1  0
 13 49  1  0
 14 50  1  1
 15 51  1  0
 15 52  1  0
 16 53  1  0
 17 54  1  0
 17 55  1  0
 18 56  1  0
 18 57  1  0
 19 58  1  0
 19 59  1  0
 20 60  1  0
 20 61  1  0
 21 62  1  0
 21 63  1  0
 22 64  1  0
 22 65  1  0
 24 66  1  0
 24 67  1  0
 25 68  1  0
 25 69  1  0
 26 70  1  0
 26 71  1  0
 27 72  1  0
 27 73  1  0
 29 74  1  0
 30 75  1  0
 31 76  1  0
 32 77  1  0
 37 78  1  0
 37 79  1  0
 38 80  1  0
M  END
>  <Ligand ID>  (1) 
LIG0003346

>  <Ligand>  (1) 
CHEMBL520313

>  <SMILES>  (1) 
CC(=O)O.OCc1cc(ccc1O)[C@H](CNCCCCCCOCCCCc1ccccc1S(=O)(=O)N)O

>  <CID>  (1) 
42625510.0

>  <ChEMBL ID>  (1) 
nan

>  <InChiKey>  (1) 
VAIBMXNTQZFQCJ-JIDHJSLPSA-N

>  <InChi>  (1) 
InChI=1S/C25H38N2O6S.C2H4O2/c26-34(31,32)25-11-4-3-9-20(25)10-5-8-16-33-15-7-2-1-6-14-27-18-24(30)21-12-13-23(29)22(17-21)19-28;1-2(3)4/h3-4,9,11-13,17,24,27-30H,1-2,5-8,10,14-16,18-19H2,(H2,26,31,32);1H3,(H,3,4)/t24-;/m0./s1

>  <IUPAC Name>  (1) 
acetic acid;2-[4-[6-[[(2R)-2-hydroxy-2-[4-hydroxy-3-(hydroxymethyl)phenyl]ethyl]amino]hexoxy]butyl]benzenesulfonamide

$$$$
