
     RDKit          3D

 28 27  0  0  0  0  0  0  0  0999 V2000
   -4.2304   -0.3731    0.1826 C   0  0  0  0  0  0  0  0  0  0  0  0
   -3.6277    0.8866   -0.3908 C   0  0  0  0  0  0  0  0  0  0  0  0
   -2.1846    0.9731    0.0519 C   0  0  0  0  0  0  0  0  0  0  0  0
   -1.3664   -0.1959   -0.4113 C   0  0  0  0  0  0  0  0  0  0  0  0
    0.0415    0.0765    0.1310 C   0  0  0  0  0  0  0  0  0  0  0  0
    0.9949   -1.0131   -0.2489 C   0  0  0  0  0  0  0  0  0  0  0  0
    2.3153   -0.6582    0.3180 C   0  0  0  0  0  0  0  0  0  0  0  0
    3.4124   -0.4678   -0.3777 C   0  0  0  0  0  0  0  0  0  0  0  0
    4.7116   -0.1085    0.2928 C   0  0  0  0  0  0  0  0  0  0  0  0
    5.1636    1.1244   -0.1799 O   0  0  0  0  0  0  0  0  0  0  0  0
   -3.7222   -1.2810   -0.2138 H   0  0  0  0  0  0  0  0  0  0  0  0
   -5.3258   -0.4226   -0.0552 H   0  0  0  0  0  0  0  0  0  0  0  0
   -4.1177   -0.3462    1.2845 H   0  0  0  0  0  0  0  0  0  0  0  0
   -4.1628    1.7439    0.0949 H   0  0  0  0  0  0  0  0  0  0  0  0
   -3.7512    0.9766   -1.4681 H   0  0  0  0  0  0  0  0  0  0  0  0
   -2.1085    1.0659    1.1540 H   0  0  0  0  0  0  0  0  0  0  0  0
   -1.7039    1.8890   -0.3661 H   0  0  0  0  0  0  0  0  0  0  0  0
   -1.2511   -0.2247   -1.5073 H   0  0  0  0  0  0  0  0  0  0  0  0
   -1.6874   -1.1575   -0.0067 H   0  0  0  0  0  0  0  0  0  0  0  0
   -0.0231    0.0923    1.2379 H   0  0  0  0  0  0  0  0  0  0  0  0
    0.3711    1.0766   -0.2053 H   0  0  0  0  0  0  0  0  0  0  0  0
    0.6625   -1.9426    0.2652 H   0  0  0  0  0  0  0  0  0  0  0  0
    1.0273   -1.1889   -1.3351 H   0  0  0  0  0  0  0  0  0  0  0  0
    2.3802   -0.5468    1.3969 H   0  0  0  0  0  0  0  0  0  0  0  0
    3.3591   -0.5758   -1.4486 H   0  0  0  0  0  0  0  0  0  0  0  0
    4.5451   -0.1311    1.3879 H   0  0  0  0  0  0  0  0  0  0  0  0
    5.4255   -0.8988   -0.0016 H   0  0  0  0  0  0  0  0  0  0  0  0
    4.8525    1.8539    0.4187 H   0  0  0  0  0  0  0  0  0  0  0  0
  1  2  1  0
  2  3  1  0
  3  4  1  0
  4  5  1  0
  5  6  1  0
  6  7  1  0
  7  8  2  0
  8  9  1  0
  9 10  1  0
  1 11  1  0
  1 12  1  0
  1 13  1  0
  2 14  1  0
  2 15  1  0
  3 16  1  0
  3 17  1  0
  4 18  1  0
  4 19  1  0
  5 20  1  0
  5 21  1  0
  6 22  1  0
  6 23  1  0
  7 24  1  0
  8 25  1  0
  9 26  1  0
  9 27  1  0
 10 28  1  0
M  END
>  <Ligand ID>  (1) 
LIG0000408

>  <Ligand>  (1) 
2-Nonen-1-ol, (2E)-

>  <SMILES>  (1) 
CCCCCC/C=C/CO

>  <CID>  (1) 
5364941.0

>  <ChEMBL ID>  (1) 
nan

>  <InChiKey>  (1) 
NSSALFVIQPAIQK-BQYQJAHWSA-N

>  <InChi>  (1) 
InChI=1S/C9H18O/c1-2-3-4-5-6-7-8-9-10/h7-8,10H,2-6,9H2,1H3/b8-7+

>  <IUPAC Name>  (1) 
(E)-non-2-en-1-ol

$$$$
