
     RDKit          3D

 62 65  0  0  0  0  0  0  0  0999 V2000
   -7.7291    2.3232    0.0589 C   0  0  0  0  0  0  0  0  0  0  0  0
   -6.7710    1.2940    0.2095 O   0  0  0  0  0  0  0  0  0  0  0  0
   -7.1401    0.0196    0.5999 C   0  0  0  0  0  0  0  0  0  0  0  0
   -8.4355   -0.3599    0.8718 C   0  0  0  0  0  0  0  0  0  0  0  0
   -8.7528   -1.6388    1.2565 C   0  0  0  0  0  0  0  0  0  0  0  0
   -7.7811   -2.6224    1.3924 C   0  0  0  0  0  0  0  0  0  0  0  0
   -6.4763   -2.2581    1.1233 C   0  0  0  0  0  0  0  0  0  0  0  0
   -6.1722   -0.9732    0.7388 C   0  0  0  0  0  0  0  0  0  0  0  0
   -4.8429   -0.6184    0.4693 N   0  0  0  0  0  0  0  0  0  0  0  0
   -4.1413    0.4361    1.2128 C   0  0  0  0  0  0  0  0  0  0  0  0
   -2.6439    0.3189    1.0147 C   0  0  0  0  0  0  0  0  0  0  0  0
   -2.3513    0.4095   -0.3715 N   0  0  0  0  0  0  0  0  0  0  0  0
   -3.3302   -0.1036   -1.2713 C   0  0  0  0  0  0  0  0  0  0  0  0
   -4.0311   -1.2615   -0.5747 C   0  0  0  0  0  0  0  0  0  0  0  0
   -0.9831    0.1205   -0.7305 C   0  0  0  0  0  0  0  0  0  0  0  0
   -0.0126    1.1395   -0.2477 C   0  0  0  0  0  0  0  0  0  0  0  0
    1.4224    0.8523   -0.6242 C   0  0  0  0  0  0  0  0  0  0  0  0
    1.8497   -0.4545   -0.0441 C   0  0  0  0  0  0  0  0  0  0  0  0
    3.2261   -0.8039   -0.3557 N   0  0  0  0  0  0  0  0  0  0  0  0
    4.3306    0.0122    0.0370 C   0  0  0  0  0  0  0  0  0  0  0  0
    4.0335    1.0629    0.6768 O   0  0  0  0  0  0  0  0  0  0  0  0
    5.7081   -0.2975   -0.2527 C   0  0  0  0  0  0  0  0  0  0  0  0
    6.1303   -1.4200   -0.9381 C   0  0  0  0  0  0  0  0  0  0  0  0
    7.4728   -1.6649   -1.1892 C   0  0  0  0  0  0  0  0  0  0  0  0
    8.4391   -0.7975   -0.7645 C   0  0  0  0  0  0  0  0  0  0  0  0
    8.0496    0.3261   -0.0810 C   0  0  0  0  0  0  0  0  0  0  0  0
    6.7016    0.5695    0.1696 C   0  0  0  0  0  0  0  0  0  0  0  0
    9.0106    1.2207    0.3600 C   0  0  0  0  0  0  0  0  0  0  0  0
   10.3612    0.9765    0.1088 C   0  0  0  0  0  0  0  0  0  0  0  0
   10.6939   -0.1671   -0.5817 C   0  0  0  0  0  0  0  0  0  0  0  0
    9.7631   -1.0805   -1.0360 C   0  0  0  0  0  0  0  0  0  0  0  0
   -8.6701    1.9531   -0.3494 H   0  0  0  0  0  0  0  0  0  0  0  0
   -7.8442    2.8807    1.0342 H   0  0  0  0  0  0  0  0  0  0  0  0
   -7.3433    3.1022   -0.6380 H   0  0  0  0  0  0  0  0  0  0  0  0
   -9.2331    0.3622    0.7835 H   0  0  0  0  0  0  0  0  0  0  0  0
   -9.7685   -1.8807    1.4550 H   0  0  0  0  0  0  0  0  0  0  0  0
   -8.0068   -3.6193    1.6892 H   0  0  0  0  0  0  0  0  0  0  0  0
   -5.6793   -3.0010    1.2175 H   0  0  0  0  0  0  0  0  0  0  0  0
   -4.3486    0.2143    2.2931 H   0  0  0  0  0  0  0  0  0  0  0  0
   -4.5223    1.4343    0.9664 H   0  0  0  0  0  0  0  0  0  0  0  0
   -2.3531   -0.6994    1.3897 H   0  0  0  0  0  0  0  0  0  0  0  0
   -2.1587    1.0723    1.6426 H   0  0  0  0  0  0  0  0  0  0  0  0
   -2.7968   -0.5797   -2.1380 H   0  0  0  0  0  0  0  0  0  0  0  0
   -4.0664    0.6425   -1.6380 H   0  0  0  0  0  0  0  0  0  0  0  0
   -3.2198   -1.8279   -0.0813 H   0  0  0  0  0  0  0  0  0  0  0  0
   -4.6255   -1.8701   -1.2597 H   0  0  0  0  0  0  0  0  0  0  0  0
   -0.9553   -0.0013   -1.8335 H   0  0  0  0  0  0  0  0  0  0  0  0
   -0.7369   -0.8912   -0.3063 H   0  0  0  0  0  0  0  0  0  0  0  0
   -0.2784    2.1741   -0.4949 H   0  0  0  0  0  0  0  0  0  0  0  0
   -0.0244    1.1032    0.8818 H   0  0  0  0  0  0  0  0  0  0  0  0
    1.4311    0.8164   -1.7525 H   0  0  0  0  0  0  0  0  0  0  0  0
    2.0565    1.7185   -0.3626 H   0  0  0  0  0  0  0  0  0  0  0  0
    1.2321   -1.2403   -0.5424 H   0  0  0  0  0  0  0  0  0  0  0  0
    1.6179   -0.5363    1.0239 H   0  0  0  0  0  0  0  0  0  0  0  0
    3.4853   -1.6775   -0.8875 H   0  0  0  0  0  0  0  0  0  0  0  0
    5.4115   -2.1328   -1.2933 H   0  0  0  0  0  0  0  0  0  0  0  0
    7.7514   -2.5554   -1.7283 H   0  0  0  0  0  0  0  0  0  0  0  0
    6.4444    1.4612    0.7078 H   0  0  0  0  0  0  0  0  0  0  0  0
    8.7245    2.1302    0.9111 H   0  0  0  0  0  0  0  0  0  0  0  0
   11.1064    1.6694    0.4499 H   0  0  0  0  0  0  0  0  0  0  0  0
   11.7341   -0.3928   -0.7971 H   0  0  0  0  0  0  0  0  0  0  0  0
   10.0377   -1.9799   -1.5803 H   0  0  0  0  0  0  0  0  0  0  0  0
  1  2  1  0
  2  3  1  0
  3  4  2  0
  4  5  1  0
  5  6  2  0
  6  7  1  0
  7  8  2  0
  8  9  1  0
  9 10  1  0
 10 11  1  0
 11 12  1  0
 12 13  1  0
 13 14  1  0
 12 15  1  0
 15 16  1  0
 16 17  1  0
 17 18  1  0
 18 19  1  0
 19 20  1  0
 20 21  2  0
 20 22  1  0
 22 23  2  0
 23 24  1  0
 24 25  2  0
 25 26  1  0
 26 27  2  0
 26 28  1  0
 28 29  2  0
 29 30  1  0
 30 31  2  0
  8  3  1  0
 14  9  1  0
 27 22  1  0
 31 25  1  0
  1 32  1  0
  1 33  1  0
  1 34  1  0
  4 35  1  0
  5 36  1  0
  6 37  1  0
  7 38  1  0
 10 39  1  0
 10 40  1  0
 11 41  1  0
 11 42  1  0
 13 43  1  0
 13 44  1  0
 14 45  1  0
 14 46  1  0
 15 47  1  0
 15 48  1  0
 16 49  1  0
 16 50  1  0
 17 51  1  0
 17 52  1  0
 18 53  1  0
 18 54  1  0
 19 55  1  0
 23 56  1  0
 24 57  1  0
 27 58  1  0
 28 59  1  0
 29 60  1  0
 30 61  1  0
 31 62  1  0
M  END
>  <Ligand ID>  (1) 
LIG0004874

>  <Ligand>  (1) 
BP 897

>  <SMILES>  (1) 
COc1ccccc1N1CCN(CC1)CCCCNC(=O)c1ccc2c(c1)cccc2

>  <CID>  (1) 
3038495.0

>  <ChEMBL ID>  (1) 
nan

>  <InChiKey>  (1) 
MNHDKMDLOJSCGN-UHFFFAOYSA-N

>  <InChi>  (1) 
InChI=1S/C26H31N3O2/c1-31-25-11-5-4-10-24(25)29-18-16-28(17-19-29)15-7-6-14-27-26(30)23-13-12-21-8-2-3-9-22(21)20-23/h2-5,8-13,20H,6-7,14-19H2,1H3,(H,27,30)

>  <IUPAC Name>  (1) 
N-[4-[4-(2-methoxyphenyl)piperazin-1-yl]butyl]naphthalene-2-carboxamide

$$$$
