
     RDKit          3D

161166  0  0  0  0  0  0  0  0999 V2000
    8.6603   -5.6208    0.2575 C   0  0  0  0  0  0  0  0  0  0  0  0
    8.6598   -5.0728    1.6812 C   0  0  0  0  0  0  0  0  0  0  0  0
    8.8405   -3.5957    1.7022 C   0  0  0  0  0  0  0  0  0  0  0  0
    7.7261   -2.8564    0.9245 C   0  0  0  0  0  0  0  0  0  0  0  0
    8.0521   -1.4122    1.0437 C   0  0  2  0  0  0  0  0  0  0  0  0
    7.1367   -0.4688    0.3933 C   0  0  0  0  0  0  0  0  0  0  0  0
    7.6028    0.5337   -0.2598 O   0  0  0  0  0  0  0  0  0  0  0  0
    5.7238   -0.5740    0.4285 N   0  0  0  0  0  0  0  0  0  0  0  0
    4.9734    0.4828   -0.2578 C   0  0  1  0  0  0  0  0  0  0  0  0
    4.4850   -0.1215   -1.5976 C   0  0  0  0  0  0  0  0  0  0  0  0
    3.5003   -1.1604   -1.2917 C   0  0  0  0  0  0  0  0  0  0  0  0
    3.3479   -1.7586   -0.2087 O   0  0  0  0  0  0  0  0  0  0  0  0
    2.4961   -1.6536   -2.2641 N   0  0  0  0  0  0  0  0  0  0  0  0
    1.6701   -2.6583   -1.5936 C   0  0  0  0  0  0  0  0  0  0  0  0
    0.5698   -3.1208   -2.4872 C   0  0  0  0  0  0  0  0  0  0  0  0
   -0.2159   -4.1793   -1.6788 C   0  0  0  0  0  0  0  0  0  0  0  0
   -0.5049   -3.5746   -0.3016 C   0  0  0  0  0  0  0  0  0  0  0  0
   -1.3724   -4.4774    0.5013 C   0  0  1  0  0  0  0  0  0  0  0  0
   -1.5573   -3.9220    1.8672 C   0  0  0  0  0  0  0  0  0  0  0  0
   -2.7353   -3.9305    2.3644 O   0  0  0  0  0  0  0  0  0  0  0  0
   -0.5432   -3.3789    2.6657 N   0  0  0  0  0  0  0  0  0  0  0  0
   -2.7532   -4.6046   -0.0042 N   0  0  0  0  0  0  0  0  0  0  0  0
   -3.1749   -5.8694   -0.4486 C   0  0  0  0  0  0  0  0  0  0  0  0
   -3.5562   -3.4859   -0.1046 C   0  0  0  0  0  0  0  0  0  0  0  0
   -2.8416   -2.4331    0.1895 O   0  0  0  0  0  0  0  0  0  0  0  0
   -4.9145   -3.1253   -0.4371 C   0  0  1  0  0  0  0  0  0  0  0  0
   -4.7869   -1.7359   -1.0225 N   0  0  0  0  0  0  0  0  0  0  0  0
   -4.9983   -0.5803   -0.3052 C   0  0  0  0  0  0  0  0  0  0  0  0
   -5.0844   -0.8176    0.9399 O   0  0  0  0  0  0  0  0  0  0  0  0
   -5.1258    0.8693   -0.6640 C   0  0  1  0  0  0  0  0  0  0  0  0
   -4.0206    1.6789   -0.2156 N   0  0  0  0  0  0  0  0  0  0  0  0
   -2.8420    1.9703   -0.9457 C   0  0  0  0  0  0  0  0  0  0  0  0
   -3.0059    1.5220   -2.1338 O   0  0  0  0  0  0  0  0  0  0  0  0
   -1.6176    2.6326   -0.6664 C   0  0  2  0  0  0  0  0  0  0  0  0
   -0.7597    2.5749    0.4378 N   0  0  0  0  0  0  0  0  0  0  0  0
    0.6179    2.1892    0.1718 C   0  0  0  0  0  0  0  0  0  0  0  0
    0.8779    1.8586   -0.9700 O   0  0  0  0  0  0  0  0  0  0  0  0
    1.7128    2.1775    1.1892 C   0  0  1  0  0  0  0  0  0  0  0  0
    2.9216    1.9500    0.3481 N   0  0  0  0  0  0  0  0  0  0  0  0
    3.7755    0.8284    0.5593 C   0  0  0  0  0  0  0  0  0  0  0  0
    3.4305    0.1427    1.5151 O   0  0  0  0  0  0  0  0  0  0  0  0
    3.2831    2.8301   -0.6939 C   0  0  0  0  0  0  0  0  0  0  0  0
    1.8158    3.5008    1.8688 C   0  0  0  0  0  0  0  0  0  0  0  0
    2.8591    3.6796    2.8808 C   0  0  0  0  0  0  0  0  0  0  0  0
    3.8007    2.9496    3.4299 N   0  0  0  0  0  0  0  0  0  0  0  0
    4.5620    3.6284    4.3049 C   0  0  0  0  0  0  0  0  0  0  0  0
    4.0650    4.8817    4.3126 N   0  0  0  0  0  0  0  0  0  0  0  0
    3.0366    4.9651    3.4717 C   0  0  0  0  0  0  0  0  0  0  0  0
   -1.9800    4.1831   -0.7950 C   0  0  0  0  0  0  0  0  0  0  0  0
   -0.9142    5.1057   -0.5175 C   0  0  0  0  0  0  0  0  0  0  0  0
   -0.7578    5.5372    0.8120 C   0  0  0  0  0  0  0  0  0  0  0  0
    0.1532    6.4433    1.2240 C   0  0  0  0  0  0  0  0  0  0  0  0
    1.0262    7.0155    0.2741 C   0  0  0  0  0  0  0  0  0  0  0  0
    0.8642    6.5874   -1.0112 C   0  0  0  0  0  0  0  0  0  0  0  0
   -0.0497    5.6698   -1.4573 C   0  0  0  0  0  0  0  0  0  0  0  0
    1.7167    7.1508   -1.9622 C   0  0  0  0  0  0  0  0  0  0  0  0
    2.6676    8.0813   -1.6498 C   0  0  0  0  0  0  0  0  0  0  0  0
    2.7746    8.4679   -0.3202 C   0  0  0  0  0  0  0  0  0  0  0  0
    1.9718    7.9572    0.6705 C   0  0  0  0  0  0  0  0  0  0  0  0
   -4.0981    2.2616    1.0937 C   0  0  0  0  0  0  0  0  0  0  0  0
   -5.8558    1.1261   -1.8854 C   0  0  0  0  0  0  0  0  0  0  0  0
   -6.0905    2.4896   -2.3820 C   0  0  0  0  0  0  0  0  0  0  0  0
   -6.8414    3.4373   -1.5024 C   0  0  0  0  0  0  0  0  0  0  0  0
   -6.9119    4.6897   -2.3129 N   0  0  0  0  0  0  0  0  0  0  0  0
   -6.1573    5.6223   -1.9819 C   0  0  0  0  0  0  0  0  0  0  0  0
   -5.9576    6.9177   -2.5277 N   0  0  0  0  0  0  0  0  0  0  0  0
   -5.2256    5.3911   -0.8519 N   0  0  0  0  0  0  0  0  0  0  0  0
   -4.3979   -1.7398   -2.3869 C   0  0  0  0  0  0  0  0  0  0  0  0
   -5.9135   -3.9151   -1.0941 C   0  0  0  0  0  0  0  0  0  0  0  0
   -6.4524   -5.1398   -0.5364 C   0  0  0  0  0  0  0  0  0  0  0  0
   -6.3385   -6.4776   -0.7998 C   0  0  0  0  0  0  0  0  0  0  0  0
   -7.0932   -7.2127    0.0199 N   0  0  0  0  0  0  0  0  0  0  0  0
   -7.7441   -6.4002    0.8605 C   0  0  0  0  0  0  0  0  0  0  0  0
   -7.3750   -5.1192    0.5511 C   0  0  0  0  0  0  0  0  0  0  0  0
   -7.9014   -4.0430    1.2683 C   0  0  0  0  0  0  0  0  0  0  0  0
   -8.7986   -4.3103    2.2946 C   0  0  0  0  0  0  0  0  0  0  0  0
   -9.1667   -5.6245    2.6017 C   0  0  0  0  0  0  0  0  0  0  0  0
   -8.6315   -6.6964    1.8741 C   0  0  0  0  0  0  0  0  0  0  0  0
    9.4491   -1.1747    0.7048 N   0  0  0  0  0  0  0  0  0  0  0  0
    9.8516   -1.0354   -0.6818 C   0  0  0  0  0  0  0  0  0  0  0  0
    9.0418   -1.1078   -1.6178 O   0  0  0  0  0  0  0  0  0  0  0  0
   11.2840   -0.8006   -1.0285 C   0  0  0  0  0  0  0  0  0  0  0  0
    7.5918   -5.8724    0.0456 H   0  0  0  0  0  0  0  0  0  0  0  0
    9.2120   -6.5764    0.2450 H   0  0  0  0  0  0  0  0  0  0  0  0
    9.0386   -4.8679   -0.4623 H   0  0  0  0  0  0  0  0  0  0  0  0
    9.5341   -5.5147    2.1944 H   0  0  0  0  0  0  0  0  0  0  0  0
    7.7733   -5.4240    2.2330 H   0  0  0  0  0  0  0  0  0  0  0  0
    9.8029   -3.3497    1.1808 H   0  0  0  0  0  0  0  0  0  0  0  0
    8.8743   -3.1612    2.6984 H   0  0  0  0  0  0  0  0  0  0  0  0
    6.8033   -3.1067    1.4919 H   0  0  0  0  0  0  0  0  0  0  0  0
    7.6313   -3.2333   -0.0834 H   0  0  0  0  0  0  0  0  0  0  0  0
    8.0152   -1.1655    2.1636 H   0  0  0  0  0  0  0  0  0  0  0  0
    5.2890   -1.3587    0.9282 H   0  0  0  0  0  0  0  0  0  0  0  0
    5.5478    1.3494   -0.4968 H   0  0  0  0  0  0  0  0  0  0  0  0
    4.0558    0.6672   -2.1825 H   0  0  0  0  0  0  0  0  0  0  0  0
    5.3877   -0.5948   -2.0328 H   0  0  0  0  0  0  0  0  0  0  0  0
    2.5152   -1.2763   -3.1509 H   0  0  0  0  0  0  0  0  0  0  0  0
    2.2441   -3.5283   -1.2594 H   0  0  0  0  0  0  0  0  0  0  0  0
    1.1796   -2.1573   -0.7138 H   0  0  0  0  0  0  0  0  0  0  0  0
    1.0460   -3.6945   -3.3173 H   0  0  0  0  0  0  0  0  0  0  0  0
   -0.0695   -2.3559   -2.9177 H   0  0  0  0  0  0  0  0  0  0  0  0
    0.4825   -5.0320   -1.5775 H   0  0  0  0  0  0  0  0  0  0  0  0
   -1.0962   -4.5044   -2.2182 H   0  0  0  0  0  0  0  0  0  0  0  0
    0.5182   -3.6581    0.2113 H   0  0  0  0  0  0  0  0  0  0  0  0
   -0.7136   -2.5121   -0.3137 H   0  0  0  0  0  0  0  0  0  0  0  0
   -0.8739   -5.4358    0.5672 H   0  0  0  0  0  0  0  0  0  0  0  0
   -0.4429   -2.3345    2.6904 H   0  0  0  0  0  0  0  0  0  0  0  0
    0.1363   -3.9142    3.2496 H   0  0  0  0  0  0  0  0  0  0  0  0
   -3.6353   -5.8724   -1.4614 H   0  0  0  0  0  0  0  0  0  0  0  0
   -2.2187   -6.4679   -0.6248 H   0  0  0  0  0  0  0  0  0  0  0  0
   -3.7313   -6.4409    0.3139 H   0  0  0  0  0  0  0  0  0  0  0  0
   -5.3788   -2.8151    0.5997 H   0  0  0  0  0  0  0  0  0  0  0  0
   -5.9285    1.1251    0.1859 H   0  0  0  0  0  0  0  0  0  0  0  0
   -0.9705    2.5253   -1.5966 H   0  0  0  0  0  0  0  0  0  0  0  0
   -0.9042    2.7731    1.4338 H   0  0  0  0  0  0  0  0  0  0  0  0
    1.6254    1.3848    1.9277 H   0  0  0  0  0  0  0  0  0  0  0  0
    2.9127    2.5695   -1.6911 H   0  0  0  0  0  0  0  0  0  0  0  0
    2.9289    3.8704   -0.5195 H   0  0  0  0  0  0  0  0  0  0  0  0
    4.3880    2.9009   -0.7662 H   0  0  0  0  0  0  0  0  0  0  0  0
    0.8407    3.7515    2.3988 H   0  0  0  0  0  0  0  0  0  0  0  0
    1.9304    4.3053    1.0843 H   0  0  0  0  0  0  0  0  0  0  0  0
    3.9684    1.9485    3.2350 H   0  0  0  0  0  0  0  0  0  0  0  0
    5.4195    3.2452    4.8846 H   0  0  0  0  0  0  0  0  0  0  0  0
    2.4257    5.8455    3.2593 H   0  0  0  0  0  0  0  0  0  0  0  0
   -2.7605    4.2726    0.0261 H   0  0  0  0  0  0  0  0  0  0  0  0
   -2.5307    4.3294   -1.7402 H   0  0  0  0  0  0  0  0  0  0  0  0
   -1.4208    5.1198    1.5842 H   0  0  0  0  0  0  0  0  0  0  0  0
    0.2432    6.7465    2.2692 H   0  0  0  0  0  0  0  0  0  0  0  0
   -0.1522    5.3480   -2.4839 H   0  0  0  0  0  0  0  0  0  0  0  0
    1.6278    6.8446   -3.0037 H   0  0  0  0  0  0  0  0  0  0  0  0
    3.3235    8.5165   -2.4096 H   0  0  0  0  0  0  0  0  0  0  0  0
    3.5379    9.2089   -0.1070 H   0  0  0  0  0  0  0  0  0  0  0  0
    2.0493    8.2526    1.7030 H   0  0  0  0  0  0  0  0  0  0  0  0
   -3.1022    2.3439    1.5561 H   0  0  0  0  0  0  0  0  0  0  0  0
   -4.6088    3.2255    1.1221 H   0  0  0  0  0  0  0  0  0  0  0  0
   -4.6703    1.5854    1.7753 H   0  0  0  0  0  0  0  0  0  0  0  0
   -6.8445    0.5503   -1.8270 H   0  0  0  0  0  0  0  0  0  0  0  0
   -5.3800    0.5839   -2.7911 H   0  0  0  0  0  0  0  0  0  0  0  0
   -6.7446    2.3781   -3.3419 H   0  0  0  0  0  0  0  0  0  0  0  0
   -5.1395    2.9528   -2.7640 H   0  0  0  0  0  0  0  0  0  0  0  0
   -6.3421    3.5797   -0.5640 H   0  0  0  0  0  0  0  0  0  0  0  0
   -7.8719    3.0733   -1.3539 H   0  0  0  0  0  0  0  0  0  0  0  0
   -5.9433    6.9629   -3.5792 H   0  0  0  0  0  0  0  0  0  0  0  0
   -5.8360    7.7627   -1.9429 H   0  0  0  0  0  0  0  0  0  0  0  0
   -5.0861    6.1165   -0.1384 H   0  0  0  0  0  0  0  0  0  0  0  0
   -4.7883    4.4698   -0.9109 H   0  0  0  0  0  0  0  0  0  0  0  0
   -5.2327   -1.6810   -3.0932 H   0  0  0  0  0  0  0  0  0  0  0  0
   -3.6619   -0.9644   -2.6356 H   0  0  0  0  0  0  0  0  0  0  0  0
   -3.8262   -2.7010   -2.6215 H   0  0  0  0  0  0  0  0  0  0  0  0
   -6.8393   -3.2225   -1.2084 H   0  0  0  0  0  0  0  0  0  0  0  0
   -5.6946   -4.0588   -2.2298 H   0  0  0  0  0  0  0  0  0  0  0  0
   -5.7294   -6.8997   -1.5812 H   0  0  0  0  0  0  0  0  0  0  0  0
   -7.1576   -8.2672    0.0102 H   0  0  0  0  0  0  0  0  0  0  0  0
   -7.6417   -3.0089    1.0585 H   0  0  0  0  0  0  0  0  0  0  0  0
   -9.1919   -3.4747    2.8369 H   0  0  0  0  0  0  0  0  0  0  0  0
   -9.8730   -5.8154    3.4141 H   0  0  0  0  0  0  0  0  0  0  0  0
   -8.9126   -7.7297    2.0969 H   0  0  0  0  0  0  0  0  0  0  0  0
   10.2156   -1.0869    1.3987 H   0  0  0  0  0  0  0  0  0  0  0  0
   11.7209   -1.8125   -1.2724 H   0  0  0  0  0  0  0  0  0  0  0  0
   11.3564   -0.1483   -1.8940 H   0  0  0  0  0  0  0  0  0  0  0  0
   11.8122   -0.3848   -0.1424 H   0  0  0  0  0  0  0  0  0  0  0  0
  1  2  1  0
  2  3  1  0
  3  4  1  0
  4  5  1  0
  5  6  1  0
  6  7  2  0
  6  8  1  0
  8  9  1  0
  9 10  1  0
 10 11  1  0
 11 12  2  0
 11 13  1  0
 13 14  1  0
 14 15  1  0
 15 16  1  0
 16 17  1  0
 17 18  1  0
 18 19  1  0
 19 20  2  0
 19 21  1  0
 18 22  1  0
 22 23  1  0
 22 24  1  0
 24 25  2  0
 24 26  1  0
 26 27  1  0
 27 28  1  0
 28 29  2  0
 28 30  1  0
 30 31  1  0
 31 32  1  0
 32 33  2  0
 32 34  1  0
 34 35  1  0
 35 36  1  0
 36 37  2  0
 36 38  1  0
 38 39  1  0
 39 40  1  0
 40 41  2  0
 39 42  1  0
 38 43  1  0
 43 44  1  0
 44 45  1  0
 45 46  1  0
 46 47  2  0
 47 48  1  0
 34 49  1  0
 49 50  1  0
 50 51  2  0
 51 52  1  0
 52 53  2  0
 53 54  1  0
 54 55  2  0
 54 56  1  0
 56 57  2  0
 57 58  1  0
 58 59  2  0
 31 60  1  0
 30 61  1  0
 61 62  1  0
 62 63  1  0
 63 64  1  0
 64 65  2  3
 65 66  1  0
 65 67  1  0
 27 68  1  0
 26 69  1  0
 69 70  1  0
 70 71  2  0
 71 72  1  0
 72 73  1  0
 73 74  2  0
 74 75  1  0
 75 76  2  0
 76 77  1  0
 77 78  2  0
  5 79  1  0
 79 80  1  0
 80 81  2  0
 80 82  1  0
 40  9  1  0
 48 44  2  0
 55 50  1  0
 74 70  1  0
 59 53  1  0
 78 73  1  0
  1 83  1  0
  1 84  1  0
  1 85  1  0
  2 86  1  0
  2 87  1  0
  3 88  1  0
  3 89  1  0
  4 90  1  0
  4 91  1  0
  5 92  1  1
  8 93  1  0
  9 94  1  6
 10 95  1  0
 10 96  1  0
 13 97  1  0
 14 98  1  0
 14 99  1  0
 15100  1  0
 15101  1  0
 16102  1  0
 16103  1  0
 17104  1  0
 17105  1  0
 18106  1  1
 21107  1  0
 21108  1  0
 23109  1  0
 23110  1  0
 23111  1  0
 26112  1  1
 30113  1  1
 34114  1  6
 35115  1  0
 38116  1  1
 42117  1  0
 42118  1  0
 42119  1  0
 43120  1  0
 43121  1  0
 45122  1  0
 46123  1  0
 48124  1  0
 49125  1  0
 49126  1  0
 51127  1  0
 52128  1  0
 55129  1  0
 56130  1  0
 57131  1  0
 58132  1  0
 59133  1  0
 60134  1  0
 60135  1  0
 60136  1  0
 61137  1  0
 61138  1  0
 62139  1  0
 62140  1  0
 63141  1  0
 63142  1  0
 66143  1  0
 66144  1  0
 67145  1  0
 67146  1  0
 68147  1  0
 68148  1  0
 68149  1  0
 69150  1  0
 69151  1  0
 71152  1  0
 72153  1  0
 75154  1  0
 76155  1  0
 77156  1  0
 78157  1  0
 79158  1  0
 82159  1  0
 82160  1  0
 82161  1  0
M  END
>  <Ligand ID>  (1) 
LIG0001802

>  <Ligand>  (1) 
CHEMBL3601428

>  <SMILES>  (1) 
CCCC[C@H](C(=O)N[C@H]1CC(=O)NCCCC[C@@H](C(=O)N)N(C)C(=O)[C@@H](N(C(=O)[C@@H](N(C(=O)[C@H](NC(=O)[C@@H](N(C1=O)C)Cc1[nH]cnc1)Cc1ccc2c(c1)cccc2)C)CCCN=C(N)N)C)Cc1c[nH]c2c1cccc2)NC(=O)C

>  <CID>  (1) 
122184910.0

>  <ChEMBL ID>  (1) 
nan

>  <InChiKey>  (1) 
RVVLJWZWXHPMLS-BSIOEMLPSA-N

>  <InChi>  (1) 
InChI=1S/C58H79N15O9/c1-7-8-19-43(67-35(2)74)52(77)68-45-31-50(75)63-25-14-13-21-46(51(59)76)70(3)57(82)49(29-39-32-65-42-20-12-11-18-41(39)42)73(6)56(81)47(22-15-26-64-58(60)61)71(4)54(79)44(28-36-23-24-37-16-9-10-17-38(37)27-36)69-53(78)48(72(5)55(45)80)30-40-33-62-34-66-40/h9-12,16-18,20,23-24,27,32-34,43-49,65H,7-8,13-15,19,21-22,25-26,28-31H2,1-6H3,(H2,59,76)(H,62,66)(H,63,75)(H,67,74)(H,68,77)(H,69,78)(H4,60,61,64)/t43-,44-,45+,46+,47+,48+,49+/m1/s1

>  <IUPAC Name>  (1) 
(3S,6S,9R,12S,15S,23S)-15-[[(2R)-2-acetamidohexanoyl]amino]-6-[3-(diaminomethylideneamino)propyl]-12-(1H-imidazol-5-ylmethyl)-3-(1H-indol-3-ylmethyl)-1,4,7,13-tetramethyl-9-(naphthalen-2-ylmethyl)-2,5,8,11,14,17-hexaoxo-1,4,7,10,13,18-hexazacyclotricosane-23-carboxamide

$$$$
