
     RDKit          3D

 24 25  0  0  0  0  0  0  0  0999 V2000
   -3.3985    0.0907   -1.2922 N   0  0  0  0  0  0  0  0  0  0  0  0
   -2.9766   -0.2869    0.0428 C   0  0  0  0  0  0  0  0  0  0  0  0
   -1.5763    0.2496    0.2738 C   0  0  1  0  0  0  0  0  0  0  0  0
   -1.0193   -0.0784    1.6360 C   0  0  0  0  0  0  0  0  0  0  0  0
   -0.4922   -0.7289    0.3491 C   0  0  2  0  0  0  0  0  0  0  0  0
    0.9309   -0.3396    0.0789 C   0  0  0  0  0  0  0  0  0  0  0  0
    1.8530   -1.3036   -0.3154 C   0  0  0  0  0  0  0  0  0  0  0  0
    3.1823   -0.9699   -0.5731 C   0  0  0  0  0  0  0  0  0  0  0  0
    3.5884    0.3382   -0.4344 C   0  0  0  0  0  0  0  0  0  0  0  0
    2.6546    1.3009   -0.0374 C   0  0  0  0  0  0  0  0  0  0  0  0
    1.3398    0.9810    0.2193 C   0  0  0  0  0  0  0  0  0  0  0  0
    3.1825    3.1406    0.1680 Br  0  0  0  0  0  0  0  0  0  0  0  0
   -4.4070    0.2326   -1.3937 H   0  0  0  0  0  0  0  0  0  0  0  0
   -2.8111    0.8492   -1.6984 H   0  0  0  0  0  0  0  0  0  0  0  0
   -3.7078    0.1598    0.7542 H   0  0  0  0  0  0  0  0  0  0  0  0
   -3.0191   -1.3878    0.1976 H   0  0  0  0  0  0  0  0  0  0  0  0
   -1.3521    1.2350   -0.1713 H   0  0  0  0  0  0  0  0  0  0  0  0
   -0.4469    0.7429    2.0985 H   0  0  0  0  0  0  0  0  0  0  0  0
   -1.5442   -0.7725    2.2956 H   0  0  0  0  0  0  0  0  0  0  0  0
   -0.6816   -1.8012    0.2010 H   0  0  0  0  0  0  0  0  0  0  0  0
    1.5499   -2.3270   -0.4274 H   0  0  0  0  0  0  0  0  0  0  0  0
    3.9138   -1.7005   -0.8798 H   0  0  0  0  0  0  0  0  0  0  0  0
    4.6132    0.6402   -0.6250 H   0  0  0  0  0  0  0  0  0  0  0  0
    0.6244    1.7357    0.5265 H   0  0  0  0  0  0  0  0  0  0  0  0
  1  2  1  0
  2  3  1  0
  3  4  1  0
  4  5  1  0
  5  6  1  0
  6  7  2  0
  7  8  1  0
  8  9  2  0
  9 10  1  0
 10 11  2  0
 10 12  1  0
  5  3  1  0
 11  6  1  0
  1 13  1  0
  1 14  1  0
  2 15  1  0
  2 16  1  0
  3 17  1  6
  4 18  1  0
  4 19  1  0
  5 20  1  1
  7 21  1  0
  8 22  1  0
  9 23  1  0
 11 24  1  0
M  END
>  <Ligand ID>  (1) 
LIG0002370

>  <Ligand>  (1) 
CHEMBL506727

>  <SMILES>  (1) 
NC[C@H]1C[C@@H]1c1cccc(c1)Br

>  <CID>  (1) 
25084025.0

>  <ChEMBL ID>  (1) 
nan

>  <InChiKey>  (1) 
MRQUSUULKJTBOR-PSASIEDQSA-N

>  <InChi>  (1) 
InChI=1S/C10H12BrN/c11-9-3-1-2-7(4-9)10-5-8(10)6-12/h1-4,8,10H,5-6,12H2/t8-,10-/m1/s1

>  <IUPAC Name>  (1) 
[(1S,2S)-2-(3-bromophenyl)cyclopropyl]methanamine

$$$$
