
     RDKit          3D

 57 61  0  0  0  0  0  0  0  0999 V2000
   -2.3053   -0.2608   -2.7592 C   0  0  0  0  0  0  0  0  0  0  0  0
   -1.6188   -0.4531   -1.4595 C   0  0  0  0  0  0  0  0  0  0  0  0
   -0.2365   -0.5733   -1.4651 C   0  0  0  0  0  0  0  0  0  0  0  0
    0.5205   -0.7435   -0.3389 C   0  0  0  0  0  0  0  0  0  0  0  0
    1.8625   -0.8655   -0.2455 O   0  0  0  0  0  0  0  0  0  0  0  0
    2.9007   -0.8465   -1.1299 C   0  0  0  0  0  0  0  0  0  0  0  0
    3.0500    0.4832   -1.8190 C   0  0  0  0  0  0  0  0  0  0  0  0
    3.2980    1.6033   -0.8382 C   0  0  0  0  0  0  0  0  0  0  0  0
    4.4405    1.5136   -0.0394 N   0  0  0  0  0  0  0  0  0  0  0  0
    5.7043    1.6365   -0.6512 C   0  0  0  0  0  0  0  0  0  0  0  0
    6.8742    1.2570    0.2011 C   0  0  0  0  0  0  0  0  0  0  0  0
    6.5685    0.0816    1.0825 C   0  0  0  0  0  0  0  0  0  0  0  0
    5.2963    0.0479    1.6180 C   0  0  0  0  0  0  0  0  0  0  0  0
    4.3571    1.1261    1.3027 C   0  0  0  0  0  0  0  0  0  0  0  0
    5.2356   -1.0540    2.3533 N   0  0  0  0  0  0  0  0  0  0  0  0
    6.4225   -1.7044    2.2936 C   0  0  0  0  0  0  0  0  0  0  0  0
    7.2645   -0.9937    1.4951 N   0  0  0  0  0  0  0  0  0  0  0  0
   -0.1966   -0.7941    0.8685 C   0  0  0  0  0  0  0  0  0  0  0  0
   -1.5526   -0.6768    0.8724 C   0  0  0  0  0  0  0  0  0  0  0  0
   -2.3104   -0.5021   -0.2924 C   0  0  0  0  0  0  0  0  0  0  0  0
   -3.7470   -0.4038   -0.1462 C   0  0  0  0  0  0  0  0  0  0  0  0
   -4.3558   -0.4078    1.0690 N   0  0  0  0  0  0  0  0  0  0  0  0
   -5.6816   -0.2977    0.9585 C   0  0  0  0  0  0  0  0  0  0  0  0
   -5.9468   -0.2191   -0.3778 C   0  0  0  0  0  0  0  0  0  0  0  0
   -4.7480   -0.2870   -1.0136 N   0  0  0  0  0  0  0  0  0  0  0  0
   -7.2438   -0.0964   -0.8253 C   0  0  0  0  0  0  0  0  0  0  0  0
   -8.2694   -0.0535    0.0796 C   0  0  0  0  0  0  0  0  0  0  0  0
   -8.0190   -0.1316    1.4318 C   0  0  0  0  0  0  0  0  0  0  0  0
   -6.7120   -0.2541    1.8557 C   0  0  0  0  0  0  0  0  0  0  0  0
   -6.3889   -0.3425    3.3021 C   0  0  0  0  0  0  0  0  0  0  0  0
   -9.0340   -0.0891    2.3304 F   0  0  0  0  0  0  0  0  0  0  0  0
   -2.9072   -1.1238   -3.0838 H   0  0  0  0  0  0  0  0  0  0  0  0
   -2.8374    0.7303   -2.8169 H   0  0  0  0  0  0  0  0  0  0  0  0
   -1.5025   -0.1638   -3.5582 H   0  0  0  0  0  0  0  0  0  0  0  0
    0.2622   -0.5495   -2.4096 H   0  0  0  0  0  0  0  0  0  0  0  0
    2.6776   -1.6167   -1.9403 H   0  0  0  0  0  0  0  0  0  0  0  0
    3.8617   -1.2151   -0.7098 H   0  0  0  0  0  0  0  0  0  0  0  0
    3.8275    0.4478   -2.6168 H   0  0  0  0  0  0  0  0  0  0  0  0
    2.1202    0.7285   -2.3386 H   0  0  0  0  0  0  0  0  0  0  0  0
    2.3834    1.6679   -0.2104 H   0  0  0  0  0  0  0  0  0  0  0  0
    3.3325    2.5680   -1.3938 H   0  0  0  0  0  0  0  0  0  0  0  0
    5.7476    1.1225   -1.6380 H   0  0  0  0  0  0  0  0  0  0  0  0
    5.8373    2.7340   -0.8874 H   0  0  0  0  0  0  0  0  0  0  0  0
    7.1349    2.0957    0.8775 H   0  0  0  0  0  0  0  0  0  0  0  0
    7.7346    1.0187   -0.4743 H   0  0  0  0  0  0  0  0  0  0  0  0
    4.6427    2.0135    1.9411 H   0  0  0  0  0  0  0  0  0  0  0  0
    3.3113    0.9078    1.5754 H   0  0  0  0  0  0  0  0  0  0  0  0
    4.4343   -1.4298    2.9194 H   0  0  0  0  0  0  0  0  0  0  0  0
    6.6869   -2.6370    2.7888 H   0  0  0  0  0  0  0  0  0  0  0  0
    0.3277   -0.9274    1.8034 H   0  0  0  0  0  0  0  0  0  0  0  0
   -2.0395   -0.7268    1.8582 H   0  0  0  0  0  0  0  0  0  0  0  0
   -4.6965   -0.2512   -2.0392 H   0  0  0  0  0  0  0  0  0  0  0  0
   -7.4439   -0.0340   -1.9032 H   0  0  0  0  0  0  0  0  0  0  0  0
   -9.2738    0.0443   -0.3231 H   0  0  0  0  0  0  0  0  0  0  0  0
   -5.5169   -0.9881    3.5081 H   0  0  0  0  0  0  0  0  0  0  0  0
   -7.2424   -0.8048    3.8529 H   0  0  0  0  0  0  0  0  0  0  0  0
   -6.2907    0.6902    3.7090 H   0  0  0  0  0  0  0  0  0  0  0  0
  1  2  1  0
  2  3  2  0
  3  4  1  0
  4  5  1  0
  5  6  1  0
  6  7  1  0
  7  8  1  0
  8  9  1  0
  9 10  1  0
 10 11  1  0
 11 12  1  0
 12 13  2  0
 13 14  1  0
 13 15  1  0
 15 16  1  0
 16 17  2  0
  4 18  2  0
 18 19  1  0
 19 20  2  0
 20 21  1  0
 21 22  2  0
 22 23  1  0
 23 24  2  0
 24 25  1  0
 24 26  1  0
 26 27  2  0
 27 28  1  0
 28 29  2  0
 29 30  1  0
 28 31  1  0
 20  2  1  0
 25 21  1  0
 14  9  1  0
 29 23  1  0
 17 12  1  0
  1 32  1  0
  1 33  1  0
  1 34  1  0
  3 35  1  0
  6 36  1  0
  6 37  1  0
  7 38  1  0
  7 39  1  0
  8 40  1  0
  8 41  1  0
 10 42  1  0
 10 43  1  0
 11 44  1  0
 11 45  1  0
 14 46  1  0
 14 47  1  0
 15 48  1  0
 16 49  1  0
 18 50  1  0
 19 51  1  0
 25 52  1  0
 26 53  1  0
 27 54  1  0
 30 55  1  0
 30 56  1  0
 30 57  1  0
M  END
>  <Ligand ID>  (1) 
LIG0001699

>  <Ligand>  (1) 
CHEMBL1086105

>  <SMILES>  (1) 
Cc1cc(OCCCN2CCc3c(C2)[nH]cn3)ccc1c1nc2c([nH]1)ccc(c2C)F

>  <CID>  (1) 
46890166.0

>  <ChEMBL ID>  (1) 
nan

>  <InChiKey>  (1) 
MGPIMNVSULKFFK-UHFFFAOYSA-N

>  <InChi>  (1) 
InChI=1S/C24H26FN5O/c1-15-12-17(31-11-3-9-30-10-8-20-22(13-30)27-14-26-20)4-5-18(15)24-28-21-7-6-19(25)16(2)23(21)29-24/h4-7,12,14H,3,8-11,13H2,1-2H3,(H,26,27)(H,28,29)

>  <IUPAC Name>  (1) 
5-[3-[4-(5-fluoro-4-methyl-1H-benzimidazol-2-yl)-3-methylphenoxy]propyl]-3,4,6,7-tetrahydroimidazo[4,5-c]pyridine

$$$$
