
     RDKit          3D

 23 22  0  0  0  0  0  0  0  0999 V2000
    4.0964   -0.3098    0.1741 C   0  0  0  0  0  0  0  0  0  0  0  0
    2.9095    0.6218    0.0345 C   0  0  0  0  0  0  0  0  0  0  0  0
    1.7445   -0.1835   -0.0163 O   0  0  0  0  0  0  0  0  0  0  0  0
    0.4689    0.3497   -0.1428 C   0  0  0  0  0  0  0  0  0  0  0  0
    0.2704    1.6027   -0.2212 O   0  0  0  0  0  0  0  0  0  0  0  0
   -0.6615   -0.6094   -0.1832 C   0  0  0  0  0  0  0  0  0  0  0  0
   -1.9986    0.0403   -0.3204 C   0  0  0  0  0  0  0  0  0  0  0  0
   -2.3640    0.9766    0.7694 C   0  0  0  0  0  0  0  0  0  0  0  0
   -3.0243   -1.0901   -0.3364 C   0  0  0  0  0  0  0  0  0  0  0  0
    4.4328   -0.4390    1.2064 H   0  0  0  0  0  0  0  0  0  0  0  0
    4.9337    0.0726   -0.4715 H   0  0  0  0  0  0  0  0  0  0  0  0
    3.8568   -1.3374   -0.2064 H   0  0  0  0  0  0  0  0  0  0  0  0
    3.0148    1.2705   -0.8492 H   0  0  0  0  0  0  0  0  0  0  0  0
    2.9377    1.2739    0.9273 H   0  0  0  0  0  0  0  0  0  0  0  0
   -0.6079   -1.2383    0.7293 H   0  0  0  0  0  0  0  0  0  0  0  0
   -0.5148   -1.2560   -1.0734 H   0  0  0  0  0  0  0  0  0  0  0  0
   -2.0925    0.5483   -1.3018 H   0  0  0  0  0  0  0  0  0  0  0  0
   -3.4688    1.1552    0.6828 H   0  0  0  0  0  0  0  0  0  0  0  0
   -1.8890    1.9745    0.7081 H   0  0  0  0  0  0  0  0  0  0  0  0
   -2.1778    0.4938    1.7556 H   0  0  0  0  0  0  0  0  0  0  0  0
   -3.2598   -1.3075    0.7201 H   0  0  0  0  0  0  0  0  0  0  0  0
   -2.6667   -1.9763   -0.8807 H   0  0  0  0  0  0  0  0  0  0  0  0
   -3.9400   -0.6327   -0.7679 H   0  0  0  0  0  0  0  0  0  0  0  0
  1  2  1  0
  2  3  1  0
  3  4  1  0
  4  5  2  0
  4  6  1  0
  6  7  1  0
  7  8  1  0
  7  9  1  0
  1 10  1  0
  1 11  1  0
  1 12  1  0
  2 13  1  0
  2 14  1  0
  6 15  1  0
  6 16  1  0
  7 17  1  0
  8 18  1  0
  8 19  1  0
  8 20  1  0
  9 21  1  0
  9 22  1  0
  9 23  1  0
M  END
>  <Ligand ID>  (1) 
LIG0000176

>  <Ligand>  (1) 
Ethyl isovalerate

>  <SMILES>  (1) 
CCOC(=O)CC(C)C

>  <CID>  (1) 
7945.0

>  <ChEMBL ID>  (1) 
nan

>  <InChiKey>  (1) 
PPXUHEORWJQRHJ-UHFFFAOYSA-N

>  <InChi>  (1) 
InChI=1S/C7H14O2/c1-4-9-7(8)5-6(2)3/h6H,4-5H2,1-3H3

>  <IUPAC Name>  (1) 
ethyl 3-methylbutanoate

$$$$
