
     RDKit          3D

 33 32  0  0  0  0  0  0  0  0999 V2000
    5.4832   -0.8733   -0.9088 C   0  0  0  0  0  0  0  0  0  0  0  0
    4.0447   -0.4382   -1.1066 C   0  0  0  0  0  0  0  0  0  0  0  0
    3.2228   -1.0837   -0.0310 C   0  0  0  0  0  0  0  0  0  0  0  0
    1.7520   -0.7285   -0.1139 C   0  0  0  0  0  0  0  0  0  0  0  0
    1.5174    0.7463    0.0115 C   0  0  0  0  0  0  0  0  0  0  0  0
    0.0769    1.1210   -0.0726 C   0  0  0  0  0  0  0  0  0  0  0  0
   -0.7475    0.4793    1.0112 C   0  0  0  0  0  0  0  0  0  0  0  0
   -2.1733    0.8874    0.8867 C   0  0  0  0  0  0  0  0  0  0  0  0
   -3.1601    0.0388    0.6983 C   0  0  0  0  0  0  0  0  0  0  0  0
   -4.5354    0.5116    0.5854 C   0  0  0  0  0  0  0  0  0  0  0  0
   -5.5395   -0.3191    0.3966 C   0  0  0  0  0  0  0  0  0  0  0  0
   -6.9063    0.1830    0.2873 C   0  0  0  0  0  0  0  0  0  0  0  0
   -7.0731    1.4280    0.3811 O   0  0  0  0  0  0  0  0  0  0  0  0
    6.1569   -0.1251   -1.3946 H   0  0  0  0  0  0  0  0  0  0  0  0
    5.6914   -0.8455    0.1787 H   0  0  0  0  0  0  0  0  0  0  0  0
    5.6315   -1.8861   -1.3254 H   0  0  0  0  0  0  0  0  0  0  0  0
    3.6688   -0.7924   -2.1023 H   0  0  0  0  0  0  0  0  0  0  0  0
    3.9757    0.6670   -1.0201 H   0  0  0  0  0  0  0  0  0  0  0  0
    3.5750   -0.7380    0.9688 H   0  0  0  0  0  0  0  0  0  0  0  0
    3.3028   -2.1752   -0.0827 H   0  0  0  0  0  0  0  0  0  0  0  0
    1.2887   -1.2449    0.7742 H   0  0  0  0  0  0  0  0  0  0  0  0
    1.2699   -1.1369   -1.0193 H   0  0  0  0  0  0  0  0  0  0  0  0
    1.8612    1.0610    1.0403 H   0  0  0  0  0  0  0  0  0  0  0  0
    2.0623    1.3316   -0.7449 H   0  0  0  0  0  0  0  0  0  0  0  0
    0.0237    2.2357    0.0770 H   0  0  0  0  0  0  0  0  0  0  0  0
   -0.3659    0.9396   -1.0717 H   0  0  0  0  0  0  0  0  0  0  0  0
   -0.6302   -0.6219    0.9209 H   0  0  0  0  0  0  0  0  0  0  0  0
   -0.3996    0.7809    1.9995 H   0  0  0  0  0  0  0  0  0  0  0  0
   -2.3635    1.9607    0.9623 H   0  0  0  0  0  0  0  0  0  0  0  0
   -2.9251   -1.0194    0.6291 H   0  0  0  0  0  0  0  0  0  0  0  0
   -4.7488    1.5534    0.6555 H   0  0  0  0  0  0  0  0  0  0  0  0
   -5.3272   -1.3800    0.3247 H   0  0  0  0  0  0  0  0  0  0  0  0
   -7.7095   -0.5168    0.1331 H   0  0  0  0  0  0  0  0  0  0  0  0
  1  2  1  0
  2  3  1  0
  3  4  1  0
  4  5  1  0
  5  6  1  0
  6  7  1  0
  7  8  1  0
  8  9  2  0
  9 10  1  0
 10 11  2  0
 11 12  1  0
 12 13  2  0
  1 14  1  0
  1 15  1  0
  1 16  1  0
  2 17  1  0
  2 18  1  0
  3 19  1  0
  3 20  1  0
  4 21  1  0
  4 22  1  0
  5 23  1  0
  5 24  1  0
  6 25  1  0
  6 26  1  0
  7 27  1  0
  7 28  1  0
  8 29  1  0
  9 30  1  0
 10 31  1  0
 11 32  1  0
 12 33  1  0
M  END
>  <Ligand ID>  (1) 
LIG0002073

>  <Ligand>  (1) 
(2E,4E)-dodeca-2,4-dienal

>  <SMILES>  (1) 
CCCCCCC/C=C/C=C/C=O

>  <CID>  (1) 
5367530.0

>  <ChEMBL ID>  (1) 
nan

>  <InChiKey>  (1) 
QKTZBZWNADPFOL-BNFZFUHLSA-N

>  <InChi>  (1) 
InChI=1S/C12H20O/c1-2-3-4-5-6-7-8-9-10-11-12-13/h8-12H,2-7H2,1H3/b9-8+,11-10+

>  <IUPAC Name>  (1) 
(2E,4E)-dodeca-2,4-dienal

$$$$
