
     RDKit          3D

 68 70  0  0  0  0  0  0  0  0999 V2000
   -1.2789   -3.4705   -1.5199 O   0  0  0  0  0  0  0  0  0  0  0  0
   -1.8607   -2.2688   -1.1795 C   0  0  2  0  0  0  0  0  0  0  0  0
   -3.3068   -2.1535   -1.6755 C   0  0  2  0  0  0  0  0  0  0  0  0
   -3.4410   -2.7251   -2.9368 O   0  0  0  0  0  0  0  0  0  0  0  0
   -3.4172   -0.6469   -1.8507 C   0  0  2  0  0  0  0  0  0  0  0  0
   -2.2005   -0.0897   -1.5497 O   0  0  0  0  0  0  0  0  0  0  0  0
   -1.2584   -1.0725   -1.8733 C   0  0  1  0  0  0  0  0  0  0  0  0
    0.0651   -0.7514   -1.4274 N   0  0  0  0  0  0  0  0  0  0  0  0
    0.6434   -1.2522   -0.3209 C   0  0  0  0  0  0  0  0  0  0  0  0
    1.9269   -0.9165    0.0773 C   0  0  0  0  0  0  0  0  0  0  0  0
    2.6433   -0.0272   -0.6985 C   0  0  0  0  0  0  0  0  0  0  0  0
    2.0561    0.4683   -1.8035 N   0  0  0  0  0  0  0  0  0  0  0  0
    0.7891    0.1094   -2.1575 C   0  0  0  0  0  0  0  0  0  0  0  0
    0.3095    0.6214   -3.2126 O   0  0  0  0  0  0  0  0  0  0  0  0
    3.9629    0.3302   -0.3059 N   0  0  0  0  0  0  0  0  0  0  0  0
    4.4314   -0.2485    0.8390 O   0  0  0  0  0  0  0  0  0  0  0  0
    4.7972    0.7325    1.7669 C   0  0  0  0  0  0  0  0  0  0  0  0
    5.3021    0.1456    3.0176 C   0  0  0  0  0  0  0  0  0  0  0  0
    6.4419   -0.7671    3.0357 C   0  0  0  0  0  0  0  0  0  0  0  0
    7.7700   -0.3067    2.5986 C   0  0  0  0  0  0  0  0  0  0  0  0
    7.8702    0.1303    1.2113 C   0  0  0  0  0  0  0  0  0  0  0  0
    7.9781   -0.8643    0.2350 C   0  0  0  0  0  0  0  0  0  0  0  0
    8.1407   -0.5122   -1.0764 C   0  0  0  0  0  0  0  0  0  0  0  0
    8.2077    0.7880   -1.5166 C   0  0  0  0  0  0  0  0  0  0  0  0
    8.1016    1.7780   -0.5557 C   0  0  0  0  0  0  0  0  0  0  0  0
    7.9389    1.4199    0.7562 C   0  0  0  0  0  0  0  0  0  0  0  0
   -4.5166   -0.1918   -0.9113 C   0  0  0  0  0  0  0  0  0  0  0  0
   -4.7240    1.1700   -0.9181 O   0  0  0  0  0  0  0  0  0  0  0  0
   -5.9863    1.4571    0.1997 P   0  0  0  0  0  0  0  0  0  0  0  0
   -6.5362    2.8374    0.0522 O   0  0  0  0  0  0  0  0  0  0  0  0
   -7.1368    0.2505    0.1206 O   0  0  0  0  0  0  0  0  0  0  0  0
   -8.3540    0.5707   -0.9911 P   0  0  0  0  0  0  0  0  0  0  0  0
   -8.6644    2.0396   -1.1068 O   0  0  0  0  0  0  0  0  0  0  0  0
   -9.7774   -0.2658   -0.6185 O   0  0  0  0  0  0  0  0  0  0  0  0
  -10.2122    0.0521    0.9729 P   0  0  0  0  0  0  0  0  0  0  0  0
  -11.4668   -0.6864    1.3368 O   0  0  0  0  0  0  0  0  0  0  0  0
   -8.9394   -0.4468    1.9742 O   0  0  0  0  0  0  0  0  0  0  0  0
  -10.5131    1.7145    1.1202 O   0  0  0  0  0  0  0  0  0  0  0  0
   -7.8270   -0.0117   -2.5084 O   0  0  0  0  0  0  0  0  0  0  0  0
   -5.2496    1.3220    1.7385 O   0  0  0  0  0  0  0  0  0  0  0  0
   -1.2661   -4.0128   -0.6694 H   0  0  0  0  0  0  0  0  0  0  0  0
   -1.9114   -2.0895   -0.0673 H   0  0  0  0  0  0  0  0  0  0  0  0
   -4.0119   -2.5575   -0.9394 H   0  0  0  0  0  0  0  0  0  0  0  0
   -3.5932   -2.0487   -3.6437 H   0  0  0  0  0  0  0  0  0  0  0  0
   -3.7076   -0.3422   -2.8652 H   0  0  0  0  0  0  0  0  0  0  0  0
   -1.2950   -1.3041   -2.9625 H   0  0  0  0  0  0  0  0  0  0  0  0
    0.0900   -1.9456    0.2875 H   0  0  0  0  0  0  0  0  0  0  0  0
    2.3337   -1.3446    0.9636 H   0  0  0  0  0  0  0  0  0  0  0  0
    4.5285    0.9993   -0.8728 H   0  0  0  0  0  0  0  0  0  0  0  0
    5.3441    1.5449    1.3034 H   0  0  0  0  0  0  0  0  0  0  0  0
    3.7861    1.2516    2.0252 H   0  0  0  0  0  0  0  0  0  0  0  0
    4.4152   -0.3905    3.5107 H   0  0  0  0  0  0  0  0  0  0  0  0
    5.4899    1.0252    3.7296 H   0  0  0  0  0  0  0  0  0  0  0  0
    6.1935   -1.7630    2.5168 H   0  0  0  0  0  0  0  0  0  0  0  0
    6.5890   -1.1670    4.1128 H   0  0  0  0  0  0  0  0  0  0  0  0
    8.5656   -1.1044    2.7474 H   0  0  0  0  0  0  0  0  0  0  0  0
    8.1138    0.5459    3.2865 H   0  0  0  0  0  0  0  0  0  0  0  0
    7.9333   -1.9090    0.5144 H   0  0  0  0  0  0  0  0  0  0  0  0
    8.2240   -1.2945   -1.8314 H   0  0  0  0  0  0  0  0  0  0  0  0
    8.3356    1.0795   -2.5467 H   0  0  0  0  0  0  0  0  0  0  0  0
    8.1418    2.8339   -0.7962 H   0  0  0  0  0  0  0  0  0  0  0  0
    7.8560    2.2105    1.5085 H   0  0  0  0  0  0  0  0  0  0  0  0
   -4.2595   -0.4786    0.1498 H   0  0  0  0  0  0  0  0  0  0  0  0
   -5.4738   -0.6888   -1.1669 H   0  0  0  0  0  0  0  0  0  0  0  0
   -9.0384   -0.0926    2.8939 H   0  0  0  0  0  0  0  0  0  0  0  0
   -9.6669    2.2196    1.0422 H   0  0  0  0  0  0  0  0  0  0  0  0
   -8.5435   -0.4786   -2.9942 H   0  0  0  0  0  0  0  0  0  0  0  0
   -5.8813    1.0215    2.4250 H   0  0  0  0  0  0  0  0  0  0  0  0
  1  2  1  0
  2  3  1  0
  3  4  1  0
  3  5  1  0
  5  6  1  0
  6  7  1  0
  7  8  1  0
  8  9  1  0
  9 10  2  0
 10 11  1  0
 11 12  2  0
 12 13  1  0
 13 14  2  0
 11 15  1  0
 15 16  1  0
 16 17  1  0
 17 18  1  0
 18 19  1  0
 19 20  1  0
 20 21  1  0
 21 22  2  0
 22 23  1  0
 23 24  2  0
 24 25  1  0
 25 26  2  0
  5 27  1  0
 27 28  1  0
 28 29  1  0
 29 30  2  0
 29 31  1  0
 31 32  1  0
 32 33  2  0
 32 34  1  0
 34 35  1  0
 35 36  2  0
 35 37  1  0
 35 38  1  0
 32 39  1  0
 29 40  1  0
  7  2  1  0
 13  8  1  0
 26 21  1  0
  1 41  1  0
  2 42  1  1
  3 43  1  1
  4 44  1  0
  5 45  1  6
  7 46  1  6
  9 47  1  0
 10 48  1  0
 15 49  1  0
 17 50  1  0
 17 51  1  0
 18 52  1  0
 18 53  1  0
 19 54  1  0
 19 55  1  0
 20 56  1  0
 20 57  1  0
 22 58  1  0
 23 59  1  0
 24 60  1  0
 25 61  1  0
 26 62  1  0
 27 63  1  0
 27 64  1  0
 37 65  1  0
 38 66  1  0
 39 67  1  0
 40 68  1  0
M  END
>  <Ligand ID>  (1) 
LIG0002677

>  <Ligand>  (1) 
CHEMBL3261360

>  <SMILES>  (1) 
O[C@@H]1[C@H](O)[C@H](O[C@H]1n1ccc(nc1=O)NOCCCCc1ccccc1)COP(=O)(OP(=O)(OP(=O)(O)O)O)O

>  <CID>  (1) 
90656211.0

>  <ChEMBL ID>  (1) 
nan

>  <InChiKey>  (1) 
YIIHWWZMFGDXDI-VDHUWJSZSA-N

>  <InChi>  (1) 
InChI=1S/C19H28N3O15P3/c23-16-14(12-34-39(29,30)37-40(31,32)36-38(26,27)28)35-18(17(16)24)22-10-9-15(20-19(22)25)21-33-11-5-4-8-13-6-2-1-3-7-13/h1-3,6-7,9-10,14,16-18,23-24H,4-5,8,11-12H2,(H,29,30)(H,31,32)(H,20,21,25)(H2,26,27,28)/t14-,16-,17-,18-/m1/s1

>  <IUPAC Name>  (1) 
[[(2R,3S,4R,5R)-3,4-dihydroxy-5-[2-oxo-4-(4-phenylbutoxyamino)pyrimidin-1-yl]oxolan-2-yl]methoxy-hydroxyphosphoryl] phosphono hydrogen phosphate

$$$$
