
     RDKit          3D

118121  0  0  0  0  0  0  0  0999 V2000
   -6.3837   -2.4929   -4.7368 C   0  0  0  0  0  0  0  0  0  0  0  0
   -5.9010   -3.6715   -3.9882 C   0  0  0  0  0  0  0  0  0  0  0  0
   -4.9877   -3.4739   -2.8221 C   0  0  0  0  0  0  0  0  0  0  0  0
   -3.6839   -2.8468   -3.0918 C   0  0  0  0  0  0  0  0  0  0  0  0
   -3.6390   -1.4475   -3.5529 C   0  0  2  0  0  0  0  0  0  0  0  0
   -2.2647   -1.0360   -3.8312 N   0  0  0  0  0  0  0  0  0  0  0  0
   -1.2268   -1.0076   -2.8555 C   0  0  0  0  0  0  0  0  0  0  0  0
   -1.4901   -1.2657   -1.6572 O   0  0  0  0  0  0  0  0  0  0  0  0
    0.1509   -0.6839   -3.2259 C   0  0  2  0  0  0  0  0  0  0  0  0
    0.7788   -1.7286   -4.1354 C   0  0  0  0  0  0  0  0  0  0  0  0
    0.8528   -3.0794   -3.5792 C   0  0  0  0  0  0  0  0  0  0  0  0
   -0.0549   -4.0873   -3.9010 C   0  0  0  0  0  0  0  0  0  0  0  0
    0.2462   -5.2139   -3.2225 N   0  0  0  0  0  0  0  0  0  0  0  0
    1.3506   -4.9868   -2.4408 C   0  0  0  0  0  0  0  0  0  0  0  0
    1.7108   -3.6610   -2.6755 C   0  0  0  0  0  0  0  0  0  0  0  0
    2.8138   -3.1663   -2.0099 C   0  0  0  0  0  0  0  0  0  0  0  0
    3.5152   -3.9978   -1.1384 C   0  0  0  0  0  0  0  0  0  0  0  0
    3.1383   -5.3137   -0.9196 C   0  0  0  0  0  0  0  0  0  0  0  0
    2.0264   -5.8162   -1.5914 C   0  0  0  0  0  0  0  0  0  0  0  0
    0.9554   -0.4942   -2.0402 N   0  0  0  0  0  0  0  0  0  0  0  0
    1.9366    0.5070   -2.0703 C   0  0  0  0  0  0  0  0  0  0  0  0
    2.0166    1.1803   -3.1706 O   0  0  0  0  0  0  0  0  0  0  0  0
    2.8837    0.8852   -1.0336 C   0  0  0  0  0  0  0  0  0  0  0  0
    2.7819    0.1768    0.2210 N   0  0  0  0  0  0  0  0  0  0  0  0
    3.7739    0.5067    1.1975 C   0  0  0  0  0  0  0  0  0  0  0  0
    4.6257    1.3671    0.8384 O   0  0  0  0  0  0  0  0  0  0  0  0
    3.8628   -0.0730    2.5359 C   0  0  0  0  0  0  0  0  0  0  0  0
    5.0580    0.4501    3.2120 N   0  0  0  0  0  0  0  0  0  0  0  0
    6.2870    0.1316    2.5900 C   0  0  0  0  0  0  0  0  0  0  0  0
    6.2176   -0.5740    1.5255 O   0  0  0  0  0  0  0  0  0  0  0  0
    7.6260    0.5271    3.0400 C   0  0  2  0  0  0  0  0  0  0  0  0
    7.7916    2.0288    2.8655 C   0  0  0  0  0  0  0  0  0  0  0  0
    9.1560    2.4540    3.2960 C   0  0  0  0  0  0  0  0  0  0  0  0
    9.4645    2.8702    4.5624 C   0  0  0  0  0  0  0  0  0  0  0  0
   10.7903    3.2196    4.8001 C   0  0  0  0  0  0  0  0  0  0  0  0
   11.7675    3.1631    3.8396 C   0  0  0  0  0  0  0  0  0  0  0  0
   11.4425    2.7398    2.5587 C   0  0  0  0  0  0  0  0  0  0  0  0
   10.1368    2.3864    2.2915 C   0  0  0  0  0  0  0  0  0  0  0  0
   13.0618    3.5324    4.1782 O   0  0  0  0  0  0  0  0  0  0  0  0
    8.6338   -0.1239    2.1830 N   0  0  0  0  0  0  0  0  0  0  0  0
   -2.0217   -0.5987   -5.2138 C   0  0  0  0  0  0  0  0  0  0  0  0
   -4.2074   -0.4478   -2.5986 C   0  0  0  0  0  0  0  0  0  0  0  0
   -4.5517    0.6540   -3.0938 O   0  0  0  0  0  0  0  0  0  0  0  0
   -4.3676   -0.6755   -1.2162 N   0  0  0  0  0  0  0  0  0  0  0  0
   -4.9147    0.2528   -0.2644 C   0  0  2  0  0  0  0  0  0  0  0  0
   -3.9273    0.6923    0.7623 C   0  0  0  0  0  0  0  0  0  0  0  0
   -2.7131    0.2876    0.7256 O   0  0  0  0  0  0  0  0  0  0  0  0
   -4.3960    1.5716    1.7719 N   0  0  0  0  0  0  0  0  0  0  0  0
   -3.5561    2.0842    2.8420 C   0  0  2  0  0  0  0  0  0  0  0  0
   -4.0435    1.6036    4.1667 C   0  0  0  0  0  0  0  0  0  0  0  0
   -5.0585    0.9031    4.2039 O   0  0  0  0  0  0  0  0  0  0  0  0
   -3.2885    1.9921    5.3317 N   0  0  0  0  0  0  0  0  0  0  0  0
   -3.5042    3.5988    2.8018 C   0  0  0  0  0  0  0  0  0  0  0  0
   -4.8681    4.1637    2.9563 C   0  0  0  0  0  0  0  0  0  0  0  0
   -5.6235    4.3916    1.8426 C   0  0  0  0  0  0  0  0  0  0  0  0
   -6.9169    4.9137    1.9025 C   0  0  0  0  0  0  0  0  0  0  0  0
   -7.3982    5.1914    3.1625 C   0  0  0  0  0  0  0  0  0  0  0  0
   -6.6817    4.9820    4.3094 C   0  0  0  0  0  0  0  0  0  0  0  0
   -5.4067    4.4632    4.1865 C   0  0  0  0  0  0  0  0  0  0  0  0
   -6.1360   -0.3147    0.3815 C   0  0  0  0  0  0  0  0  0  0  0  0
   -7.2234   -0.6174   -0.5666 C   0  0  0  0  0  0  0  0  0  0  0  0
   -8.2438   -1.1969   -0.1144 O   0  0  0  0  0  0  0  0  0  0  0  0
   -7.2152   -0.3153   -1.9121 O   0  0  0  0  0  0  0  0  0  0  0  0
   -6.5115   -1.5704   -4.1822 H   0  0  0  0  0  0  0  0  0  0  0  0
   -5.8737   -2.3559   -5.7221 H   0  0  0  0  0  0  0  0  0  0  0  0
   -7.4493   -2.7543   -5.0729 H   0  0  0  0  0  0  0  0  0  0  0  0
   -6.7953   -4.2735   -3.6429 H   0  0  0  0  0  0  0  0  0  0  0  0
   -5.3262   -4.3053   -4.7416 H   0  0  0  0  0  0  0  0  0  0  0  0
   -5.5240   -2.8914   -2.0213 H   0  0  0  0  0  0  0  0  0  0  0  0
   -4.8135   -4.4834   -2.3560 H   0  0  0  0  0  0  0  0  0  0  0  0
   -2.9600   -2.9548   -2.2391 H   0  0  0  0  0  0  0  0  0  0  0  0
   -3.1875   -3.4734   -3.8994 H   0  0  0  0  0  0  0  0  0  0  0  0
   -4.2378   -1.3640   -4.4747 H   0  0  0  0  0  0  0  0  0  0  0  0
    0.1966    0.2365   -3.8193 H   0  0  0  0  0  0  0  0  0  0  0  0
    1.7656   -1.3055   -4.4176 H   0  0  0  0  0  0  0  0  0  0  0  0
    0.2026   -1.7541   -5.0619 H   0  0  0  0  0  0  0  0  0  0  0  0
   -0.8942   -4.0095   -4.5984 H   0  0  0  0  0  0  0  0  0  0  0  0
   -0.2572   -6.1514   -3.2504 H   0  0  0  0  0  0  0  0  0  0  0  0
    3.1234   -2.1489   -2.1763 H   0  0  0  0  0  0  0  0  0  0  0  0
    4.3946   -3.6165   -0.6007 H   0  0  0  0  0  0  0  0  0  0  0  0
    3.6505   -5.9780   -0.2603 H   0  0  0  0  0  0  0  0  0  0  0  0
    1.6927   -6.8504   -1.4506 H   0  0  0  0  0  0  0  0  0  0  0  0
    0.8567   -1.0510   -1.1644 H   0  0  0  0  0  0  0  0  0  0  0  0
    2.9298    1.9987   -0.8646 H   0  0  0  0  0  0  0  0  0  0  0  0
    3.9162    0.6753   -1.4728 H   0  0  0  0  0  0  0  0  0  0  0  0
    2.0584   -0.5327    0.4529 H   0  0  0  0  0  0  0  0  0  0  0  0
    4.0172   -1.1621    2.4345 H   0  0  0  0  0  0  0  0  0  0  0  0
    2.9545    0.1661    3.1240 H   0  0  0  0  0  0  0  0  0  0  0  0
    5.0439    1.0091    4.0742 H   0  0  0  0  0  0  0  0  0  0  0  0
    7.8065    0.2332    4.0821 H   0  0  0  0  0  0  0  0  0  0  0  0
    7.0764    2.5199    3.5566 H   0  0  0  0  0  0  0  0  0  0  0  0
    7.6109    2.3326    1.8262 H   0  0  0  0  0  0  0  0  0  0  0  0
    8.6958    2.9128    5.3154 H   0  0  0  0  0  0  0  0  0  0  0  0
   11.0027    3.5439    5.8167 H   0  0  0  0  0  0  0  0  0  0  0  0
   12.1640    2.6754    1.7753 H   0  0  0  0  0  0  0  0  0  0  0  0
    9.8716    2.0473    1.2802 H   0  0  0  0  0  0  0  0  0  0  0  0
   13.7980    2.9885    3.7121 H   0  0  0  0  0  0  0  0  0  0  0  0
    8.6388   -1.1400    2.4620 H   0  0  0  0  0  0  0  0  0  0  0  0
    8.2316   -0.0812    1.2169 H   0  0  0  0  0  0  0  0  0  0  0  0
   -2.9213   -0.0009   -5.5648 H   0  0  0  0  0  0  0  0  0  0  0  0
   -1.9311   -1.4218   -5.9288 H   0  0  0  0  0  0  0  0  0  0  0  0
   -1.1912    0.1268   -5.2763 H   0  0  0  0  0  0  0  0  0  0  0  0
   -4.0530   -1.6094   -0.7997 H   0  0  0  0  0  0  0  0  0  0  0  0
   -5.2203    1.1587   -0.8657 H   0  0  0  0  0  0  0  0  0  0  0  0
   -5.3823    1.8801    1.7714 H   0  0  0  0  0  0  0  0  0  0  0  0
   -2.5415    1.7030    2.6350 H   0  0  0  0  0  0  0  0  0  0  0  0
   -2.6354    2.8091    5.2929 H   0  0  0  0  0  0  0  0  0  0  0  0
   -3.3660    1.4838    6.2259 H   0  0  0  0  0  0  0  0  0  0  0  0
   -2.8161    3.9264    3.5900 H   0  0  0  0  0  0  0  0  0  0  0  0
   -3.1024    3.8756    1.8253 H   0  0  0  0  0  0  0  0  0  0  0  0
   -5.2471    4.1720    0.8408 H   0  0  0  0  0  0  0  0  0  0  0  0
   -7.5060    5.0863    1.0040 H   0  0  0  0  0  0  0  0  0  0  0  0
   -8.4095    5.5996    3.2075 H   0  0  0  0  0  0  0  0  0  0  0  0
   -7.1409    5.2304    5.2500 H   0  0  0  0  0  0  0  0  0  0  0  0
   -4.8537    4.3075    5.0900 H   0  0  0  0  0  0  0  0  0  0  0  0
   -6.5765    0.3675    1.1433 H   0  0  0  0  0  0  0  0  0  0  0  0
   -5.8933   -1.2465    0.9471 H   0  0  0  0  0  0  0  0  0  0  0  0
   -8.0397   -0.0434   -2.4401 H   0  0  0  0  0  0  0  0  0  0  0  0
  1  2  1  0
  2  3  1  0
  3  4  1  0
  4  5  1  0
  5  6  1  0
  6  7  1  0
  7  8  2  0
  7  9  1  0
  9 10  1  0
 10 11  1  0
 11 12  2  0
 12 13  1  0
 13 14  1  0
 14 15  2  0
 15 16  1  0
 16 17  2  0
 17 18  1  0
 18 19  2  0
  9 20  1  0
 20 21  1  0
 21 22  2  0
 21 23  1  0
 23 24  1  0
 24 25  1  0
 25 26  2  0
 25 27  1  0
 27 28  1  0
 28 29  1  0
 29 30  2  0
 29 31  1  0
 31 32  1  0
 32 33  1  0
 33 34  2  0
 34 35  1  0
 35 36  2  0
 36 37  1  0
 37 38  2  0
 36 39  1  0
 31 40  1  0
  6 41  1  0
  5 42  1  0
 42 43  2  0
 42 44  1  0
 44 45  1  0
 45 46  1  0
 46 47  2  0
 46 48  1  0
 48 49  1  0
 49 50  1  0
 50 51  2  0
 50 52  1  0
 49 53  1  0
 53 54  1  0
 54 55  2  0
 55 56  1  0
 56 57  2  0
 57 58  1  0
 58 59  2  0
 45 60  1  0
 60 61  1  0
 61 62  2  0
 61 63  1  0
 15 11  1  0
 38 33  1  0
 59 54  1  0
 19 14  1  0
  1 64  1  0
  1 65  1  0
  1 66  1  0
  2 67  1  0
  2 68  1  0
  3 69  1  0
  3 70  1  0
  4 71  1  0
  4 72  1  0
  5 73  1  6
  9 74  1  6
 10 75  1  0
 10 76  1  0
 12 77  1  0
 13 78  1  0
 16 79  1  0
 17 80  1  0
 18 81  1  0
 19 82  1  0
 20 83  1  0
 23 84  1  0
 23 85  1  0
 24 86  1  0
 27 87  1  0
 27 88  1  0
 28 89  1  0
 31 90  1  1
 32 91  1  0
 32 92  1  0
 34 93  1  0
 35 94  1  0
 37 95  1  0
 38 96  1  0
 39 97  1  0
 40 98  1  0
 40 99  1  0
 41100  1  0
 41101  1  0
 41102  1  0
 44103  1  0
 45104  1  6
 48105  1  0
 49106  1  6
 52107  1  0
 52108  1  0
 53109  1  0
 53110  1  0
 55111  1  0
 56112  1  0
 57113  1  0
 58114  1  0
 59115  1  0
 60116  1  0
 60117  1  0
 63118  1  0
M  END
>  <Ligand ID>  (1) 
LIG0004150

>  <Ligand>  (1) 
CHEMBL336381

>  <SMILES>  (1) 
CCCC[C@H](N(C(=O)[C@H](Cc1c[nH]c2c1cccc2)NC(=O)CNC(=O)CNC(=O)[C@H](Cc1ccc(cc1)O)N)C)C(=O)N[C@H](C(=O)N[C@H](C(=O)N)Cc1ccccc1)CC(=O)O

>  <CID>  (1) 
11061906.0

>  <ChEMBL ID>  (1) 
nan

>  <InChiKey>  (1) 
KSAGKPZDJHLHBS-AWSJBNSNSA-N

>  <InChi>  (1) 
InChI=1S/C44H55N9O10/c1-3-4-14-36(43(62)52-34(22-39(57)58)42(61)51-33(40(46)59)20-26-10-6-5-7-11-26)53(2)44(63)35(21-28-23-47-32-13-9-8-12-30(28)32)50-38(56)25-48-37(55)24-49-41(60)31(45)19-27-15-17-29(54)18-16-27/h5-13,15-18,23,31,33-36,47,54H,3-4,14,19-22,24-25,45H2,1-2H3,(H2,46,59)(H,48,55)(H,49,60)(H,50,56)(H,51,61)(H,52,62)(H,57,58)/t31-,33-,34-,35-,36-/m0/s1

>  <IUPAC Name>  (1) 
(3S)-3-[[(2S)-2-[[(2S)-2-[[2-[[2-[[(2S)-2-amino-3-(4-hydroxyphenyl)propanoyl]amino]acetyl]amino]acetyl]amino]-3-(1H-indol-3-yl)propanoyl]-methylamino]hexanoyl]amino]-4-[[(2S)-1-amino-1-oxo-3-phenylpropan-2-yl]amino]-4-oxobutanoic acid

$$$$
