
     RDKit          3D

 29 29  0  0  0  0  0  0  0  0999 V2000
   -4.3302    0.5223   -0.9030 N   0  0  0  0  0  0  0  0  0  0  0  0
   -3.3507    0.7916    0.1242 C   0  0  0  0  0  0  0  0  0  0  0  0
   -2.1632   -0.1522   -0.1529 C   0  0  1  0  0  0  0  0  0  0  0  0
   -1.5655    0.1022   -1.5296 C   0  0  0  0  0  0  0  0  0  0  0  0
   -0.8348    0.4176   -0.2704 C   0  0  2  0  0  0  0  0  0  0  0  0
    0.4486   -0.1888    0.0514 C   0  0  0  0  0  0  0  0  0  0  0  0
    0.6705   -1.2862    0.8401 C   0  0  0  0  0  0  0  0  0  0  0  0
   -0.6750   -2.0965    1.5989 Cl  0  0  0  0  0  0  0  0  0  0  0  0
    1.9327   -1.7928    1.0790 C   0  0  0  0  0  0  0  0  0  0  0  0
    3.0546   -1.2108    0.5272 C   0  0  0  0  0  0  0  0  0  0  0  0
    2.8546   -0.1035   -0.2708 C   0  0  0  0  0  0  0  0  0  0  0  0
    1.5935    0.4005   -0.5081 C   0  0  0  0  0  0  0  0  0  0  0  0
    1.4623    1.5061   -1.3123 F   0  0  0  0  0  0  0  0  0  0  0  0
    4.0181    0.5962   -0.9140 C   0  0  0  0  0  0  0  0  0  0  0  0
    0.6832    0.0000    0.0000 Cl  0  0  0  0  0  0  0  0  0  0  0  0
   -3.8420    0.2273   -1.7688 H   0  0  0  0  0  0  0  0  0  0  0  0
   -4.9543    1.3369   -1.0925 H   0  0  0  0  0  0  0  0  0  0  0  0
   -3.0188    1.8432    0.0950 H   0  0  0  0  0  0  0  0  0  0  0  0
   -3.7430    0.5534    1.1261 H   0  0  0  0  0  0  0  0  0  0  0  0
   -2.4469   -1.1681    0.1217 H   0  0  0  0  0  0  0  0  0  0  0  0
   -1.9628    0.9166   -2.1673 H   0  0  0  0  0  0  0  0  0  0  0  0
   -1.3017   -0.7921   -2.1537 H   0  0  0  0  0  0  0  0  0  0  0  0
   -0.8057    1.5388   -0.0787 H   0  0  0  0  0  0  0  0  0  0  0  0
    2.0672   -2.6784    1.7201 H   0  0  0  0  0  0  0  0  0  0  0  0
    4.0594   -1.5624    0.6791 H   0  0  0  0  0  0  0  0  0  0  0  0
    4.1207    1.6272   -0.4783 H   0  0  0  0  0  0  0  0  0  0  0  0
    4.9167   -0.0094   -0.7597 H   0  0  0  0  0  0  0  0  0  0  0  0
    3.7956    0.6615   -1.9972 H   0  0  0  0  0  0  0  0  0  0  0  0
   -0.6832    0.0000    0.0000 H   0  0  0  0  0  0  0  0  0  0  0  0
  1  2  1  0
  2  3  1  0
  3  4  1  0
  4  5  1  0
  5  6  1  0
  6  7  2  0
  7  8  1  0
  7  9  1  0
  9 10  2  0
 10 11  1  0
 11 12  2  0
 12 13  1  0
 11 14  1  0
  5  3  1  0
 12  6  1  0
  1 16  1  0
  1 17  1  0
  2 18  1  0
  2 19  1  0
  3 20  1  1
  4 21  1  0
  4 22  1  0
  5 23  1  6
  9 24  1  0
 10 25  1  0
 14 26  1  0
 14 27  1  0
 14 28  1  0
 15 29  1  0
M  END
>  <Ligand ID>  (1) 
LIG0003581

>  <Ligand>  (1) 
CHEMBL508680

>  <SMILES>  (1) 
NC[C@H]1C[C@@H]1c1c(Cl)ccc(c1F)C.Cl

>  <CID>  (1) 
44572206.0

>  <ChEMBL ID>  (1) 
nan

>  <InChiKey>  (1) 
QVXXZFJRKGZBMX-WLYNEOFISA-N

>  <InChi>  (1) 
InChI=1S/C11H13ClFN.ClH/c1-6-2-3-9(12)10(11(6)13)8-4-7(8)5-14;/h2-3,7-8H,4-5,14H2,1H3;1H/t7-,8+;/m1./s1

>  <IUPAC Name>  (1) 
[(1S,2S)-2-(6-chloro-2-fluoro-3-methylphenyl)cyclopropyl]methanamine;hydrochloride

$$$$
