
     RDKit          3D

 62 64  0  0  0  0  0  0  0  0999 V2000
   10.8498   -1.5018   -1.4857 O   0  0  0  0  0  0  0  0  0  0  0  0
    9.8937   -0.5237   -1.2041 C   0  0  0  0  0  0  0  0  0  0  0  0
    9.3759    0.0703   -2.1849 O   0  0  0  0  0  0  0  0  0  0  0  0
    9.5058   -0.2005    0.2156 C   0  0  0  0  0  0  0  0  0  0  0  0
    8.4656    0.8892    0.1388 C   0  0  0  0  0  0  0  0  0  0  0  0
    8.0553    1.2588    1.4505 N   0  0  0  0  0  0  0  0  0  0  0  0
    7.3166    0.1876    2.0648 C   0  0  0  0  0  0  0  0  0  0  0  0
    6.1333   -0.2009    1.2761 C   0  0  0  0  0  0  0  0  0  0  0  0
    5.9635   -1.1364    0.2664 C   0  0  0  0  0  0  0  0  0  0  0  0
    4.7166   -1.2339   -0.2407 C   0  0  0  0  0  0  0  0  0  0  0  0
    3.7492   -0.4593    0.2328 C   0  0  0  0  0  0  0  0  0  0  0  0
    4.4607    0.5408    1.4857 S   0  0  0  0  0  0  0  0  0  0  0  0
    2.3233   -0.4254   -0.1986 C   0  0  0  0  0  0  0  0  0  0  0  0
    1.4479   -0.4736    0.7459 N   0  0  0  0  0  0  0  0  0  0  0  0
    0.0783   -0.4494    0.4799 O   0  0  0  0  0  0  0  0  0  0  0  0
   -0.5728    0.7081    1.0262 C   0  0  0  0  0  0  0  0  0  0  0  0
   -1.9979    0.6051    0.6738 C   0  0  0  0  0  0  0  0  0  0  0  0
   -2.4920    1.1394   -0.4907 C   0  0  0  0  0  0  0  0  0  0  0  0
   -3.8273    1.0257   -0.7832 C   0  0  0  0  0  0  0  0  0  0  0  0
   -4.7553    0.3904    0.0331 C   0  0  0  0  0  0  0  0  0  0  0  0
   -4.2500   -0.1543    1.2208 C   0  0  0  0  0  0  0  0  0  0  0  0
   -2.8846   -0.0313    1.5071 C   0  0  0  0  0  0  0  0  0  0  0  0
   -5.1116   -0.8423    2.1686 C   0  0  0  0  0  0  0  0  0  0  0  0
   -5.7885   -1.9432    1.7101 F   0  0  0  0  0  0  0  0  0  0  0  0
   -4.2525   -1.4590    3.1175 F   0  0  0  0  0  0  0  0  0  0  0  0
   -5.8483   -0.0262    3.0105 F   0  0  0  0  0  0  0  0  0  0  0  0
   -6.1553    0.3181   -0.3729 C   0  0  0  0  0  0  0  0  0  0  0  0
   -6.5302   -0.8781   -1.2215 C   0  0  0  0  0  0  0  0  0  0  0  0
   -7.7332   -0.4380   -2.0766 C   0  0  0  0  0  0  0  0  0  0  0  0
   -8.8504   -0.0239   -1.1275 C   0  0  0  0  0  0  0  0  0  0  0  0
   -8.4426    1.1461   -0.2685 C   0  0  0  0  0  0  0  0  0  0  0  0
   -7.2334    0.6570    0.5717 C   0  0  0  0  0  0  0  0  0  0  0  0
    1.9247   -0.3434   -1.6025 C   0  0  0  0  0  0  0  0  0  0  0  0
   11.5235   -1.3789   -2.2538 H   0  0  0  0  0  0  0  0  0  0  0  0
   10.4086    0.1327    0.7301 H   0  0  0  0  0  0  0  0  0  0  0  0
    9.1244   -1.1162    0.7008 H   0  0  0  0  0  0  0  0  0  0  0  0
    8.8682    1.7805   -0.4269 H   0  0  0  0  0  0  0  0  0  0  0  0
    7.5903    0.5644   -0.4917 H   0  0  0  0  0  0  0  0  0  0  0  0
    7.5377    2.1657    1.4999 H   0  0  0  0  0  0  0  0  0  0  0  0
    7.0262    0.5692    3.0792 H   0  0  0  0  0  0  0  0  0  0  0  0
    7.9625   -0.6777    2.2637 H   0  0  0  0  0  0  0  0  0  0  0  0
    6.8374   -1.7339   -0.0577 H   0  0  0  0  0  0  0  0  0  0  0  0
    4.5112   -1.9780   -1.0657 H   0  0  0  0  0  0  0  0  0  0  0  0
   -0.1316    1.6392    0.6235 H   0  0  0  0  0  0  0  0  0  0  0  0
   -0.4568    0.7335    2.1279 H   0  0  0  0  0  0  0  0  0  0  0  0
   -1.7918    1.6408   -1.1467 H   0  0  0  0  0  0  0  0  0  0  0  0
   -4.1468    1.4793   -1.7338 H   0  0  0  0  0  0  0  0  0  0  0  0
   -2.4665   -0.4467    2.4255 H   0  0  0  0  0  0  0  0  0  0  0  0
   -6.2473    1.1584   -1.1512 H   0  0  0  0  0  0  0  0  0  0  0  0
   -6.9138   -1.7401   -0.6862 H   0  0  0  0  0  0  0  0  0  0  0  0
   -5.6998   -1.1282   -1.9189 H   0  0  0  0  0  0  0  0  0  0  0  0
   -8.1120   -1.3157   -2.6437 H   0  0  0  0  0  0  0  0  0  0  0  0
   -7.4081    0.3862   -2.7224 H   0  0  0  0  0  0  0  0  0  0  0  0
   -9.0561   -0.8671   -0.4520 H   0  0  0  0  0  0  0  0  0  0  0  0
   -9.7078    0.2913   -1.7278 H   0  0  0  0  0  0  0  0  0  0  0  0
   -8.0639    2.0073   -0.8367 H   0  0  0  0  0  0  0  0  0  0  0  0
   -9.2931    1.3803    0.3906 H   0  0  0  0  0  0  0  0  0  0  0  0
   -7.0108    1.5418    1.1954 H   0  0  0  0  0  0  0  0  0  0  0  0
   -7.7113   -0.1877    1.1122 H   0  0  0  0  0  0  0  0  0  0  0  0
    0.9527   -0.9100   -1.6982 H   0  0  0  0  0  0  0  0  0  0  0  0
    1.6931    0.6841   -1.9422 H   0  0  0  0  0  0  0  0  0  0  0  0
    2.6475   -0.8667   -2.2544 H   0  0  0  0  0  0  0  0  0  0  0  0
  1  2  1  0
  2  3  2  0
  2  4  1  0
  4  5  1  0
  5  6  1  0
  6  7  1  0
  7  8  1  0
  8  9  2  0
  9 10  1  0
 10 11  2  0
 11 12  1  0
 11 13  1  0
 13 14  2  0
 14 15  1  0
 15 16  1  0
 16 17  1  0
 17 18  2  0
 18 19  1  0
 19 20  2  0
 20 21  1  0
 21 22  2  0
 21 23  1  0
 23 24  1  0
 23 25  1  0
 23 26  1  0
 20 27  1  0
 27 28  1  0
 28 29  1  0
 29 30  1  0
 30 31  1  0
 31 32  1  0
 13 33  1  0
 12  8  1  0
 22 17  1  0
 32 27  1  0
  1 34  1  0
  4 35  1  0
  4 36  1  0
  5 37  1  0
  5 38  1  0
  6 39  1  0
  7 40  1  0
  7 41  1  0
  9 42  1  0
 10 43  1  0
 16 44  1  0
 16 45  1  0
 18 46  1  0
 19 47  1  0
 22 48  1  0
 27 49  1  0
 28 50  1  0
 28 51  1  0
 29 52  1  0
 29 53  1  0
 30 54  1  0
 30 55  1  0
 31 56  1  0
 31 57  1  0
 32 58  1  0
 32 59  1  0
 33 60  1  0
 33 61  1  0
 33 62  1  0
M  END
>  <Ligand ID>  (1) 
LIG0005577

>  <Ligand>  (1) 
CHEMBL2336062

>  <SMILES>  (1) 
OC(=O)CCNCc1ccc(s1)/C(=N/OCc1ccc(c(c1)C(F)(F)F)C1CCCCC1)/C

>  <CID>  (1) 
57570503.0

>  <ChEMBL ID>  (1) 
nan

>  <InChiKey>  (1) 
SZEYBQSQIVXQHL-MUFRIFMGSA-N

>  <InChi>  (1) 
InChI=1S/C24H29F3N2O3S/c1-16(22-10-8-19(33-22)14-28-12-11-23(30)31)29-32-15-17-7-9-20(18-5-3-2-4-6-18)21(13-17)24(25,26)27/h7-10,13,18,28H,2-6,11-12,14-15H2,1H3,(H,30,31)/b29-16+

>  <IUPAC Name>  (1) 
3-[[5-[(E)-N-[[4-cyclohexyl-3-(trifluoromethyl)phenyl]methoxy]-C-methylcarbonimidoyl]thiophen-2-yl]methylamino]propanoic acid

$$$$
