
     RDKit          3D

 65 69  0  0  0  0  0  0  0  0999 V2000
   -1.6471    6.0035   -0.5805 C   0  0  0  0  0  0  0  0  0  0  0  0
   -1.1457    4.6845   -0.7532 O   0  0  0  0  0  0  0  0  0  0  0  0
   -1.8138    3.5536   -0.3223 C   0  0  0  0  0  0  0  0  0  0  0  0
   -2.9403    3.6960    0.2619 O   0  0  0  0  0  0  0  0  0  0  0  0
   -1.2961    2.1722   -0.4992 C   0  0  2  0  0  0  0  0  0  0  0  0
   -2.3313    1.2258    0.1105 C   0  0  0  0  0  0  0  0  0  0  0  0
   -1.8739   -0.1650   -0.1190 C   0  0  2  0  0  0  0  0  0  0  0  0
   -2.7177   -1.1805    0.2807 O   0  0  0  0  0  0  0  0  0  0  0  0
   -3.2515   -2.1548   -0.5500 C   0  0  0  0  0  0  0  0  0  0  0  0
   -2.9141   -2.0754   -1.7769 O   0  0  0  0  0  0  0  0  0  0  0  0
   -4.1366   -3.2004   -0.0658 C   0  0  0  0  0  0  0  0  0  0  0  0
   -4.5243   -3.3187    1.2553 C   0  0  0  0  0  0  0  0  0  0  0  0
   -5.3736   -4.3547    1.6132 C   0  0  0  0  0  0  0  0  0  0  0  0
   -5.8191   -5.2444    0.6701 C   0  0  0  0  0  0  0  0  0  0  0  0
   -5.4333   -5.1131   -0.6002 N   0  0  0  0  0  0  0  0  0  0  0  0
   -4.6136   -4.1222   -0.9749 C   0  0  0  0  0  0  0  0  0  0  0  0
   -0.4863   -0.2886    0.4665 C   0  0  0  0  0  0  0  0  0  0  0  0
   -0.2108   -1.1180    1.3076 O   0  0  0  0  0  0  0  0  0  0  0  0
    0.5238    0.6624   -0.0447 C   0  0  1  0  0  0  0  0  0  0  0  0
    0.0345    2.0409    0.2525 C   0  0  2  0  0  0  0  0  0  0  0  0
   -0.2895    2.2800    1.7082 C   0  0  0  0  0  0  0  0  0  0  0  0
    0.9642    3.1088   -0.2153 C   0  0  0  0  0  0  0  0  0  0  0  0
    2.4333    2.7917    0.0082 C   0  0  0  0  0  0  0  0  0  0  0  0
    2.7321    1.4248   -0.4874 C   0  0  2  0  0  0  0  0  0  0  0  0
    1.9342    0.3732    0.2982 C   0  0  1  0  0  0  0  0  0  0  0  0
    2.2773    0.3429    1.7415 C   0  0  0  0  0  0  0  0  0  0  0  0
    2.3314   -0.9497   -0.3154 C   0  0  0  0  0  0  0  0  0  0  0  0
    3.7886   -1.2351   -0.2106 C   0  0  2  0  0  0  0  0  0  0  0  0
    4.5407   -0.2132   -0.8307 O   0  0  0  0  0  0  0  0  0  0  0  0
    4.1508    1.0987   -0.5976 C   0  0  0  0  0  0  0  0  0  0  0  0
    4.9862    2.0487   -0.4731 O   0  0  0  0  0  0  0  0  0  0  0  0
    4.0154   -2.5661   -0.8650 C   0  0  0  0  0  0  0  0  0  0  0  0
    3.0745   -3.5131   -1.2225 C   0  0  0  0  0  0  0  0  0  0  0  0
    3.7656   -4.5763   -1.7952 C   0  0  0  0  0  0  0  0  0  0  0  0
    5.0550   -4.2808   -1.7812 O   0  0  0  0  0  0  0  0  0  0  0  0
    5.2369   -3.0936   -1.2352 C   0  0  0  0  0  0  0  0  0  0  0  0
   -1.3896    6.4192    0.4096 H   0  0  0  0  0  0  0  0  0  0  0  0
   -1.1570    6.6664   -1.3354 H   0  0  0  0  0  0  0  0  0  0  0  0
   -2.7584    5.9950   -0.7058 H   0  0  0  0  0  0  0  0  0  0  0  0
   -1.1537    1.9559   -1.5786 H   0  0  0  0  0  0  0  0  0  0  0  0
   -2.4932    1.5379    1.1386 H   0  0  0  0  0  0  0  0  0  0  0  0
   -3.2705    1.4592   -0.4633 H   0  0  0  0  0  0  0  0  0  0  0  0
   -1.7042   -0.2732   -1.2197 H   0  0  0  0  0  0  0  0  0  0  0  0
   -4.1451   -2.5960    1.9452 H   0  0  0  0  0  0  0  0  0  0  0  0
   -5.6883   -4.4677    2.6301 H   0  0  0  0  0  0  0  0  0  0  0  0
   -6.4831   -6.0448    0.9810 H   0  0  0  0  0  0  0  0  0  0  0  0
   -4.3297   -4.0582   -2.0168 H   0  0  0  0  0  0  0  0  0  0  0  0
    0.4599    0.5660   -1.1698 H   0  0  0  0  0  0  0  0  0  0  0  0
   -1.0547    3.1126    1.7189 H   0  0  0  0  0  0  0  0  0  0  0  0
   -0.7662    1.4414    2.2194 H   0  0  0  0  0  0  0  0  0  0  0  0
    0.5706    2.7369    2.2745 H   0  0  0  0  0  0  0  0  0  0  0  0
    0.7764    3.4430   -1.2636 H   0  0  0  0  0  0  0  0  0  0  0  0
    0.7696    4.0274    0.4126 H   0  0  0  0  0  0  0  0  0  0  0  0
    2.9842    3.5032   -0.6658 H   0  0  0  0  0  0  0  0  0  0  0  0
    2.7679    3.0036    1.0267 H   0  0  0  0  0  0  0  0  0  0  0  0
    2.3137    1.3618   -1.5323 H   0  0  0  0  0  0  0  0  0  0  0  0
    3.1138    1.0650    1.9743 H   0  0  0  0  0  0  0  0  0  0  0  0
    1.4308    0.5030    2.4438 H   0  0  0  0  0  0  0  0  0  0  0  0
    2.6876   -0.6574    2.0714 H   0  0  0  0  0  0  0  0  0  0  0  0
    1.6992   -1.7426    0.0775 H   0  0  0  0  0  0  0  0  0  0  0  0
    2.1020   -0.8619   -1.4085 H   0  0  0  0  0  0  0  0  0  0  0  0
    4.1694   -1.2994    0.8255 H   0  0  0  0  0  0  0  0  0  0  0  0
    1.9964   -3.4340   -1.0794 H   0  0  0  0  0  0  0  0  0  0  0  0
    3.3399   -5.5068   -2.1954 H   0  0  0  0  0  0  0  0  0  0  0  0
    6.1864   -2.5994   -1.0935 H   0  0  0  0  0  0  0  0  0  0  0  0
  1  2  1  0
  2  3  1  0
  3  4  2  0
  3  5  1  0
  5  6  1  0
  6  7  1  0
  7  8  1  0
  8  9  1  0
  9 10  2  0
  9 11  1  0
 11 12  2  0
 12 13  1  0
 13 14  2  0
 14 15  1  0
 15 16  2  0
  7 17  1  0
 17 18  2  0
 17 19  1  0
 19 20  1  0
 20 21  1  1
 20 22  1  0
 22 23  1  0
 23 24  1  0
 24 25  1  0
 25 26  1  1
 25 27  1  0
 27 28  1  0
 28 29  1  0
 29 30  1  0
 30 31  2  0
 28 32  1  0
 32 33  1  0
 33 34  2  0
 34 35  1  0
 35 36  1  0
 20  5  1  0
 30 24  1  0
 36 32  2  0
 16 11  1  0
 25 19  1  0
  1 37  1  0
  1 38  1  0
  1 39  1  0
  5 40  1  6
  6 41  1  0
  6 42  1  0
  7 43  1  6
 12 44  1  0
 13 45  1  0
 14 46  1  0
 16 47  1  0
 19 48  1  6
 21 49  1  0
 21 50  1  0
 21 51  1  0
 22 52  1  0
 22 53  1  0
 23 54  1  0
 23 55  1  0
 24 56  1  6
 26 57  1  0
 26 58  1  0
 26 59  1  0
 27 60  1  0
 27 61  1  0
 28 62  1  1
 33 63  1  0
 34 64  1  0
 36 65  1  0
M  END
>  <Ligand ID>  (1) 
LIG0005153

>  <Ligand>  (1) 
CHEMBL191014

>  <SMILES>  (1) 
COC(=O)[C@@H]1C[C@H](OC(=O)c2cccnc2)C(=O)[C@H]2[C@@]1(C)CC[C@@H]1[C@]2(C)C[C@H](OC1=O)c1ccoc1

>  <CID>  (1) 
44398175.0

>  <ChEMBL ID>  (1) 
nan

>  <InChiKey>  (1) 
VAQGZHWWAOIWTA-ARAVYLIXSA-N

>  <InChi>  (1) 
InChI=1S/C27H29NO8/c1-26-8-6-17-25(32)36-20(16-7-10-34-14-16)12-27(17,2)22(26)21(29)19(11-18(26)24(31)33-3)35-23(30)15-5-4-9-28-13-15/h4-5,7,9-10,13-14,17-20,22H,6,8,11-12H2,1-3H3/t17-,18-,19-,20-,22-,26-,27-/m0/s1

>  <IUPAC Name>  (1) 
[(2S,4aR,6aR,7R,9S,10aS,10bR)-2-(furan-3-yl)-7-methoxycarbonyl-6a,10b-dimethyl-4,10-dioxo-2,4a,5,6,7,8,9,10a-octahydro-1H-benzo[f]isochromen-9-yl] pyridine-3-carboxylate

$$$$
