
     RDKit          3D

 47 46  0  0  0  0  0  0  0  0999 V2000
   -2.7869    2.7775    0.9678 C   0  0  0  0  0  0  0  0  0  0  0  0
   -3.6550    2.5053   -0.2407 C   0  0  0  0  0  0  0  0  0  0  0  0
   -4.2125    1.0973   -0.2097 C   0  0  0  0  0  0  0  0  0  0  0  0
   -3.0426    0.1318   -0.2024 C   0  0  0  0  0  0  0  0  0  0  0  0
   -3.5088   -1.2886   -0.1720 C   0  0  0  0  0  0  0  0  0  0  0  0
   -2.3569   -2.2420   -0.1565 C   0  0  0  0  0  0  0  0  0  0  0  0
   -1.5215   -2.0561   -1.3790 C   0  0  0  0  0  0  0  0  0  0  0  0
   -0.3320   -3.0233   -1.4052 C   0  0  0  0  0  0  0  0  0  0  0  0
    0.5807   -2.8566   -0.2359 C   0  0  0  0  0  0  0  0  0  0  0  0
    1.1795   -1.4687   -0.1532 C   0  0  0  0  0  0  0  0  0  0  0  0
    2.0767   -1.4437    1.0636 C   0  0  0  0  0  0  0  0  0  0  0  0
    2.7500   -0.1091    1.2768 C   0  0  0  0  0  0  0  0  0  0  0  0
    3.6253    0.2984    0.1118 C   0  0  0  0  0  0  0  0  0  0  0  0
    4.1963    1.6341    0.5143 C   0  0  0  0  0  0  0  0  0  0  0  0
    3.8532    2.0890    1.6387 O   0  0  0  0  0  0  0  0  0  0  0  0
    5.0449    2.2773   -0.3457 O   0  0  0  0  0  0  0  0  0  0  0  0
    5.6698    3.5122   -0.1519 C   0  0  0  0  0  0  0  0  0  0  0  0
   -2.9014    1.9903    1.7387 H   0  0  0  0  0  0  0  0  0  0  0  0
   -3.0919    3.7395    1.4312 H   0  0  0  0  0  0  0  0  0  0  0  0
   -1.7135    2.8431    0.6500 H   0  0  0  0  0  0  0  0  0  0  0  0
   -3.0523    2.5833   -1.1915 H   0  0  0  0  0  0  0  0  0  0  0  0
   -4.4671    3.2594   -0.3262 H   0  0  0  0  0  0  0  0  0  0  0  0
   -4.8188    0.9746    0.7007 H   0  0  0  0  0  0  0  0  0  0  0  0
   -4.8378    0.9619   -1.0953 H   0  0  0  0  0  0  0  0  0  0  0  0
   -2.4915    0.3394   -1.1506 H   0  0  0  0  0  0  0  0  0  0  0  0
   -2.3750    0.3540    0.6401 H   0  0  0  0  0  0  0  0  0  0  0  0
   -4.1536   -1.4768   -1.0688 H   0  0  0  0  0  0  0  0  0  0  0  0
   -4.1682   -1.4480    0.7218 H   0  0  0  0  0  0  0  0  0  0  0  0
   -1.7216   -1.9953    0.7430 H   0  0  0  0  0  0  0  0  0  0  0  0
   -2.7407   -3.2643   -0.0281 H   0  0  0  0  0  0  0  0  0  0  0  0
   -2.0849   -2.2976   -2.3018 H   0  0  0  0  0  0  0  0  0  0  0  0
   -1.0604   -1.0513   -1.4132 H   0  0  0  0  0  0  0  0  0  0  0  0
   -0.6425   -4.0705   -1.5216 H   0  0  0  0  0  0  0  0  0  0  0  0
    0.2366   -2.7394   -2.3274 H   0  0  0  0  0  0  0  0  0  0  0  0
    1.4026   -3.5890   -0.3436 H   0  0  0  0  0  0  0  0  0  0  0  0
    0.0799   -3.1177    0.7320 H   0  0  0  0  0  0  0  0  0  0  0  0
    1.7131   -1.2218   -1.0724 H   0  0  0  0  0  0  0  0  0  0  0  0
    0.3545   -0.7203   -0.0001 H   0  0  0  0  0  0  0  0  0  0  0  0
    1.4584   -1.6245    1.9663 H   0  0  0  0  0  0  0  0  0  0  0  0
    2.8286   -2.2544    1.0010 H   0  0  0  0  0  0  0  0  0  0  0  0
    3.4524   -0.2615    2.1325 H   0  0  0  0  0  0  0  0  0  0  0  0
    2.0557    0.6795    1.5583 H   0  0  0  0  0  0  0  0  0  0  0  0
    4.4176   -0.4396   -0.0615 H   0  0  0  0  0  0  0  0  0  0  0  0
    3.0171    0.4599   -0.8062 H   0  0  0  0  0  0  0  0  0  0  0  0
    6.7651    3.2782   -0.0069 H   0  0  0  0  0  0  0  0  0  0  0  0
    5.3782    4.0562    0.7608 H   0  0  0  0  0  0  0  0  0  0  0  0
    5.6013    4.2179   -0.9881 H   0  0  0  0  0  0  0  0  0  0  0  0
  1  2  1  0
  2  3  1  0
  3  4  1  0
  4  5  1  0
  5  6  1  0
  6  7  1  0
  7  8  1  0
  8  9  1  0
  9 10  1  0
 10 11  1  0
 11 12  1  0
 12 13  1  0
 13 14  1  0
 14 15  2  0
 14 16  1  0
 16 17  1  0
  1 18  1  0
  1 19  1  0
  1 20  1  0
  2 21  1  0
  2 22  1  0
  3 23  1  0
  3 24  1  0
  4 25  1  0
  4 26  1  0
  5 27  1  0
  5 28  1  0
  6 29  1  0
  6 30  1  0
  7 31  1  0
  7 32  1  0
  8 33  1  0
  8 34  1  0
  9 35  1  0
  9 36  1  0
 10 37  1  0
 10 38  1  0
 11 39  1  0
 11 40  1  0
 12 41  1  0
 12 42  1  0
 13 43  1  0
 13 44  1  0
 17 45  1  0
 17 46  1  0
 17 47  1  0
M  END
>  <Ligand ID>  (1) 
LIG0000548

>  <Ligand>  (1) 
Methyl Tetradecanoate

>  <SMILES>  (1) 
CCCCCCCCCCCCCC(=O)OC

>  <CID>  (1) 
31284.0

>  <ChEMBL ID>  (1) 
nan

>  <InChiKey>  (1) 
ZAZKJZBWRNNLDS-UHFFFAOYSA-N

>  <InChi>  (1) 
InChI=1S/C15H30O2/c1-3-4-5-6-7-8-9-10-11-12-13-14-15(16)17-2/h3-14H2,1-2H3

>  <IUPAC Name>  (1) 
methyl tetradecanoate

$$$$
