
     RDKit          3D

 49 53  0  0  0  0  0  0  0  0999 V2000
    7.0758    3.9170   -0.3424 F   0  0  0  0  0  0  0  0  0  0  0  0
    6.0173    3.0863   -0.2795 C   0  0  0  0  0  0  0  0  0  0  0  0
    6.0729    1.7517   -0.6556 C   0  0  0  0  0  0  0  0  0  0  0  0
    4.9771    0.9161   -0.5840 C   0  0  0  0  0  0  0  0  0  0  0  0
    3.7944    1.4693   -0.1131 C   0  0  0  0  0  0  0  0  0  0  0  0
    3.7424    2.7967    0.2601 C   0  0  0  0  0  0  0  0  0  0  0  0
    4.8289    3.6127    0.1857 C   0  0  0  0  0  0  0  0  0  0  0  0
    2.5600    3.3115    0.7206 F   0  0  0  0  0  0  0  0  0  0  0  0
    2.6058    0.6993    0.0016 N   0  0  0  0  0  0  0  0  0  0  0  0
    1.4749    1.0270   -0.5981 N   0  0  0  0  0  0  0  0  0  0  0  0
    0.5327    0.1186   -0.3080 C   0  0  0  0  0  0  0  0  0  0  0  0
    1.0927   -0.8358    0.5183 C   0  0  0  0  0  0  0  0  0  0  0  0
    2.4020   -0.4364    0.6920 C   0  0  0  0  0  0  0  0  0  0  0  0
    3.1196   -1.3807    1.5656 C   0  0  2  0  0  0  0  0  0  0  0  0
    3.2969   -2.7614    1.0538 C   0  0  0  0  0  0  0  0  0  0  0  0
    2.1486   -2.4118    1.9432 C   0  0  2  0  0  0  0  0  0  0  0  0
    0.8344   -2.0840    1.2649 C   0  0  0  0  0  0  0  0  0  0  0  0
   -0.8457    0.1896   -0.8192 C   0  0  0  0  0  0  0  0  0  0  0  0
   -1.1200    1.1444   -1.5544 O   0  0  0  0  0  0  0  0  0  0  0  0
   -1.7974   -0.8006   -0.4723 N   0  0  0  0  0  0  0  0  0  0  0  0
   -3.1745   -0.8172   -0.9179 C   0  0  0  0  0  0  0  0  0  0  0  0
   -3.9949    0.2454   -0.3148 C   0  0  0  0  0  0  0  0  0  0  0  0
   -4.7167   -0.0459    0.8512 C   0  0  0  0  0  0  0  0  0  0  0  0
   -5.5282    0.9152    1.4486 C   0  0  0  0  0  0  0  0  0  0  0  0
   -5.6295    2.1660    0.8969 C   0  0  0  0  0  0  0  0  0  0  0  0
   -4.9419    2.4496   -0.2180 N   0  0  0  0  0  0  0  0  0  0  0  0
   -4.1492    1.5160   -0.8050 C   0  0  0  0  0  0  0  0  0  0  0  0
   -3.7122   -2.1410   -0.2923 C   0  0  0  0  0  0  0  0  0  0  0  0
   -3.3806   -0.9591   -2.3780 C   0  0  0  0  0  0  0  0  0  0  0  0
    7.0227    1.3592   -1.0198 H   0  0  0  0  0  0  0  0  0  0  0  0
    4.9942   -0.1260   -0.8705 H   0  0  0  0  0  0  0  0  0  0  0  0
    4.7219    4.6411    0.4929 H   0  0  0  0  0  0  0  0  0  0  0  0
    3.7827   -0.9918    2.3647 H   0  0  0  0  0  0  0  0  0  0  0  0
    3.0652   -2.9697    0.0086 H   0  0  0  0  0  0  0  0  0  0  0  0
    4.0794   -3.4127    1.4974 H   0  0  0  0  0  0  0  0  0  0  0  0
    2.0916   -2.8047    2.9599 H   0  0  0  0  0  0  0  0  0  0  0  0
    0.5137   -2.9333    0.6085 H   0  0  0  0  0  0  0  0  0  0  0  0
    0.0680   -1.9218    2.0328 H   0  0  0  0  0  0  0  0  0  0  0  0
   -1.4037   -1.5667    0.1720 H   0  0  0  0  0  0  0  0  0  0  0  0
   -4.6740   -1.0119    1.3276 H   0  0  0  0  0  0  0  0  0  0  0  0
   -6.0895    0.7016    2.3482 H   0  0  0  0  0  0  0  0  0  0  0  0
   -6.2553    2.9316    1.3446 H   0  0  0  0  0  0  0  0  0  0  0  0
   -3.6529    1.8362   -1.7062 H   0  0  0  0  0  0  0  0  0  0  0  0
   -3.3251   -2.9326   -0.9785 H   0  0  0  0  0  0  0  0  0  0  0  0
   -3.2605   -2.3310    0.6831 H   0  0  0  0  0  0  0  0  0  0  0  0
   -4.7981   -2.1584   -0.3505 H   0  0  0  0  0  0  0  0  0  0  0  0
   -3.2905   -2.0144   -2.7315 H   0  0  0  0  0  0  0  0  0  0  0  0
   -4.4249   -0.6489   -2.5944 H   0  0  0  0  0  0  0  0  0  0  0  0
   -2.7501   -0.3042   -3.0043 H   0  0  0  0  0  0  0  0  0  0  0  0
  1  2  1  0
  2  3  2  0
  3  4  1  0
  4  5  2  0
  5  6  1  0
  6  7  2  0
  6  8  1  0
  5  9  1  0
  9 10  1  0
 10 11  2  0
 11 12  1  0
 12 13  2  0
 13 14  1  0
 14 15  1  0
 15 16  1  0
 16 17  1  0
 11 18  1  0
 18 19  2  0
 18 20  1  0
 20 21  1  0
 21 22  1  0
 22 23  2  0
 23 24  1  0
 24 25  2  0
 25 26  1  0
 26 27  2  0
 21 28  1  0
 21 29  1  0
  7  2  1  0
 13  9  1  0
 16 14  1  0
 27 22  1  0
 17 12  1  0
  3 30  1  0
  4 31  1  0
  7 32  1  0
 14 33  1  1
 15 34  1  0
 15 35  1  0
 16 36  1  1
 17 37  1  0
 17 38  1  0
 20 39  1  0
 23 40  1  0
 24 41  1  0
 25 42  1  0
 27 43  1  0
 28 44  1  0
 28 45  1  0
 28 46  1  0
 29 47  1  0
 29 48  1  0
 29 49  1  0
M  END
>  <Ligand ID>  (1) 
LIG0001482

>  <Ligand>  (1) 
CHEMBL3354948

>  <SMILES>  (1) 
Fc1ccc(c(c1)F)n1nc(c2c1[C@@H]1C[C@@H]1C2)C(=O)NC(c1cccnc1)(C)C

>  <CID>  (1) 
118720561.0

>  <ChEMBL ID>  (1) 
nan

>  <InChiKey>  (1) 
BKROMADERDAIKE-IUODEOHRSA-N

>  <InChi>  (1) 
InChI=1S/C22H20F2N4O/c1-22(2,13-4-3-7-25-11-13)26-21(29)19-16-9-12-8-15(12)20(16)28(27-19)18-6-5-14(23)10-17(18)24/h3-7,10-12,15H,8-9H2,1-2H3,(H,26,29)/t12-,15-/m1/s1

>  <IUPAC Name>  (1) 
(2R,4R)-9-(2,4-difluorophenyl)-N-(2-pyridin-3-ylpropan-2-yl)-8,9-diazatricyclo[4.3.0.02,4]nona-1(6),7-diene-7-carboxamide

$$$$
