
     RDKit          3D

 62 66  0  0  0  0  0  0  0  0999 V2000
    4.1165   -3.1225    0.6539 O   0  0  0  0  0  0  0  0  0  0  0  0
    4.9688   -2.2045    0.3971 C   0  0  0  0  0  0  0  0  0  0  0  0
    6.2859   -2.3585    0.3598 N   0  0  0  0  0  0  0  0  0  0  0  0
    6.8378   -1.1699    0.0577 C   0  0  0  0  0  0  0  0  0  0  0  0
    5.7926   -0.2742   -0.0895 C   0  0  0  0  0  0  0  0  0  0  0  0
    4.6247   -0.9100    0.1200 N   0  0  0  0  0  0  0  0  0  0  0  0
    3.3308   -0.3211    0.0553 C   0  0  0  0  0  0  0  0  0  0  0  0
    3.0248    0.7081    1.1119 C   0  0  0  0  0  0  0  0  0  0  0  0
    1.6437    1.2858    0.7741 C   0  0  0  0  0  0  0  0  0  0  0  0
    0.9319    0.3609   -0.0068 N   0  0  0  0  0  0  0  0  0  0  0  0
    1.3800    0.1678   -1.3400 C   0  0  0  0  0  0  0  0  0  0  0  0
    2.9128    0.1484   -1.3252 C   0  0  0  0  0  0  0  0  0  0  0  0
   -0.3997    0.0888    0.3230 C   0  0  0  0  0  0  0  0  0  0  0  0
   -1.3691    1.2177    0.2937 C   0  0  0  0  0  0  0  0  0  0  0  0
   -2.6991    0.7981    0.8777 C   0  0  0  0  0  0  0  0  0  0  0  0
   -3.1696   -0.4722    0.4907 N   0  0  0  0  0  0  0  0  0  0  0  0
   -2.1945   -1.5122    0.3173 C   0  0  0  0  0  0  0  0  0  0  0  0
   -0.9915   -1.0490   -0.4815 C   0  0  0  0  0  0  0  0  0  0  0  0
   -4.2760   -0.5440   -0.3899 C   0  0  0  0  0  0  0  0  0  0  0  0
   -5.5432    0.0113    0.0750 C   0  0  0  0  0  0  0  0  0  0  0  0
   -5.7664    0.5436    1.3238 C   0  0  0  0  0  0  0  0  0  0  0  0
   -6.9765    1.0581    1.7359 C   0  0  0  0  0  0  0  0  0  0  0  0
   -8.0315    1.0418    0.8494 C   0  0  0  0  0  0  0  0  0  0  0  0
   -7.8260    0.5123   -0.4052 C   0  0  0  0  0  0  0  0  0  0  0  0
   -6.6171   -0.0054   -0.8269 C   0  0  0  0  0  0  0  0  0  0  0  0
   -6.4462   -0.5730   -2.2061 C   0  0  0  0  0  0  0  0  0  0  0  0
   -7.6889   -0.4436   -2.8370 F   0  0  0  0  0  0  0  0  0  0  0  0
   -6.1581   -1.9188   -2.1668 F   0  0  0  0  0  0  0  0  0  0  0  0
   -5.5551    0.1562   -2.9671 F   0  0  0  0  0  0  0  0  0  0  0  0
    6.1516    1.0303   -0.4076 C   0  0  0  0  0  0  0  0  0  0  0  0
    7.4644    1.4194   -0.5690 C   0  0  0  0  0  0  0  0  0  0  0  0
    8.4876    0.4820   -0.4110 C   0  0  0  0  0  0  0  0  0  0  0  0
    8.1515   -0.8141   -0.0960 C   0  0  0  0  0  0  0  0  0  0  0  0
    6.7642   -3.2711    0.5423 H   0  0  0  0  0  0  0  0  0  0  0  0
    2.5941   -1.1521    0.2737 H   0  0  0  0  0  0  0  0  0  0  0  0
    3.7085    1.5502    1.1677 H   0  0  0  0  0  0  0  0  0  0  0  0
    2.8904    0.1885    2.0806 H   0  0  0  0  0  0  0  0  0  0  0  0
    1.7706    2.2180    0.1474 H   0  0  0  0  0  0  0  0  0  0  0  0
    1.0830    1.5926    1.6579 H   0  0  0  0  0  0  0  0  0  0  0  0
    0.9535   -0.7430   -1.7640 H   0  0  0  0  0  0  0  0  0  0  0  0
    1.1132    1.0367   -2.0050 H   0  0  0  0  0  0  0  0  0  0  0  0
    3.3239    1.1415   -1.5848 H   0  0  0  0  0  0  0  0  0  0  0  0
    3.2382   -0.6506   -2.0425 H   0  0  0  0  0  0  0  0  0  0  0  0
   -0.4037   -0.2920    1.3878 H   0  0  0  0  0  0  0  0  0  0  0  0
   -0.9909    2.0642    0.9098 H   0  0  0  0  0  0  0  0  0  0  0  0
   -1.5603    1.5041   -0.7709 H   0  0  0  0  0  0  0  0  0  0  0  0
   -2.5903    0.8289    2.0007 H   0  0  0  0  0  0  0  0  0  0  0  0
   -3.4177    1.5826    0.5385 H   0  0  0  0  0  0  0  0  0  0  0  0
   -2.6609   -2.3398   -0.2541 H   0  0  0  0  0  0  0  0  0  0  0  0
   -1.8665   -1.9388    1.2888 H   0  0  0  0  0  0  0  0  0  0  0  0
   -1.3805   -0.6091   -1.4176 H   0  0  0  0  0  0  0  0  0  0  0  0
   -0.3132   -1.9057   -0.6102 H   0  0  0  0  0  0  0  0  0  0  0  0
   -4.3781   -1.5919   -0.7436 H   0  0  0  0  0  0  0  0  0  0  0  0
   -3.9865    0.0347   -1.3165 H   0  0  0  0  0  0  0  0  0  0  0  0
   -4.9621    0.5686    2.0443 H   0  0  0  0  0  0  0  0  0  0  0  0
   -7.1533    1.4736    2.7076 H   0  0  0  0  0  0  0  0  0  0  0  0
   -9.0230    1.4346    1.1110 H   0  0  0  0  0  0  0  0  0  0  0  0
   -8.6663    0.5044   -1.0964 H   0  0  0  0  0  0  0  0  0  0  0  0
    5.3819    1.7786   -0.5359 H   0  0  0  0  0  0  0  0  0  0  0  0
    7.6829    2.4549   -0.8179 H   0  0  0  0  0  0  0  0  0  0  0  0
    9.5343    0.7734   -0.5354 H   0  0  0  0  0  0  0  0  0  0  0  0
    8.9178   -1.5736    0.0355 H   0  0  0  0  0  0  0  0  0  0  0  0
  1  2  2  0
  2  3  1  0
  3  4  1  0
  4  5  2  0
  5  6  1  0
  6  7  1  0
  7  8  1  0
  8  9  1  0
  9 10  1  0
 10 11  1  0
 11 12  1  0
 10 13  1  0
 13 14  1  0
 14 15  1  0
 15 16  1  0
 16 17  1  0
 17 18  1  0
 16 19  1  0
 19 20  1  0
 20 21  2  0
 21 22  1  0
 22 23  2  0
 23 24  1  0
 24 25  2  0
 25 26  1  0
 26 27  1  0
 26 28  1  0
 26 29  1  0
  5 30  1  0
 30 31  2  0
 31 32  1  0
 32 33  2  0
  6  2  1  0
 12  7  1  0
 18 13  1  0
 25 20  1  0
 33  4  1  0
  3 34  1  0
  7 35  1  0
  8 36  1  0
  8 37  1  0
  9 38  1  0
  9 39  1  0
 11 40  1  0
 11 41  1  0
 12 42  1  0
 12 43  1  0
 13 44  1  0
 14 45  1  0
 14 46  1  0
 15 47  1  0
 15 48  1  0
 17 49  1  0
 17 50  1  0
 18 51  1  0
 18 52  1  0
 19 53  1  0
 19 54  1  0
 21 55  1  0
 22 56  1  0
 23 57  1  0
 24 58  1  0
 30 59  1  0
 31 60  1  0
 32 61  1  0
 33 62  1  0
M  END
>  <Ligand ID>  (1) 
LIG0000872

>  <Ligand>  (1) 
CHEMBL478662

>  <SMILES>  (1) 
O=c1[nH]c2c(n1C1CCN(CC1)C1CCN(CC1)Cc1ccccc1C(F)(F)F)cccc2

>  <CID>  (1) 
10027177.0

>  <ChEMBL ID>  (1) 
nan

>  <InChiKey>  (1) 
UKCKRTPVYWRRHT-UHFFFAOYSA-N

>  <InChi>  (1) 
InChI=1S/C25H29F3N4O/c26-25(27,28)21-6-2-1-5-18(21)17-30-13-9-19(10-14-30)31-15-11-20(12-16-31)32-23-8-4-3-7-22(23)29-24(32)33/h1-8,19-20H,9-17H2,(H,29,33)

>  <IUPAC Name>  (1) 
3-[1-[1-[[2-(trifluoromethyl)phenyl]methyl]piperidin-4-yl]piperidin-4-yl]-1H-benzimidazol-2-one

$$$$
