
     RDKit          3D

 70 73  0  0  0  0  0  0  0  0999 V2000
   -8.1926   -2.0906    0.4666 O   0  0  0  0  0  0  0  0  0  0  0  0
   -7.5695   -0.9221    0.0442 C   0  0  0  0  0  0  0  0  0  0  0  0
   -8.2735    0.1417   -0.4709 C   0  0  0  0  0  0  0  0  0  0  0  0
   -7.5868    1.2690   -0.8696 C   0  0  0  0  0  0  0  0  0  0  0  0
   -6.2160    1.3358   -0.7565 C   0  0  0  0  0  0  0  0  0  0  0  0
   -5.4794    0.2789   -0.2409 C   0  0  0  0  0  0  0  0  0  0  0  0
   -6.1956   -0.8330    0.1483 C   0  0  0  0  0  0  0  0  0  0  0  0
   -4.0023    0.3818   -0.1307 C   0  0  2  0  0  0  0  0  0  0  0  0
   -3.6931    0.9569    1.2395 C   0  0  0  0  0  0  0  0  0  0  0  0
   -3.5450    1.3960   -1.1476 C   0  0  0  0  0  0  0  0  0  0  0  0
   -2.0706    1.2896   -1.4447 C   0  0  0  0  0  0  0  0  0  0  0  0
   -1.4545    0.5326   -0.3518 N   0  0  0  0  0  0  0  0  0  0  0  0
   -1.8569   -0.8360   -0.5736 C   0  0  0  0  0  0  0  0  0  0  0  0
   -3.3349   -0.9532   -0.2920 C   0  0  2  0  0  0  0  0  0  0  0  0
   -3.9628   -1.8355   -1.3342 C   0  0  0  0  0  0  0  0  0  0  0  0
   -0.0229    0.7352   -0.4034 C   0  0  0  0  0  0  0  0  0  0  0  0
    0.6771   -0.0069    0.7131 C   0  0  2  0  0  0  0  0  0  0  0  0
    0.2212    0.4306    2.0840 C   0  0  0  0  0  0  0  0  0  0  0  0
    1.0286   -0.4253    3.0716 C   0  0  0  0  0  0  0  0  0  0  0  0
    0.5317    1.8643    2.3687 C   0  0  0  0  0  0  0  0  0  0  0  0
    2.1074    0.3205    0.5710 N   0  0  0  0  0  0  0  0  0  0  0  0
    3.0778   -0.6844    0.3082 C   0  0  0  0  0  0  0  0  0  0  0  0
    2.6416   -1.8698    0.2043 O   0  0  0  0  0  0  0  0  0  0  0  0
    4.4944   -0.3804    0.1649 C   0  0  0  0  0  0  0  0  0  0  0  0
    5.0143    0.8925    0.2688 C   0  0  0  0  0  0  0  0  0  0  0  0
    6.3628    1.1510    0.1283 C   0  0  0  0  0  0  0  0  0  0  0  0
    7.2202    0.0950   -0.1255 C   0  0  0  0  0  0  0  0  0  0  0  0
    6.7266   -1.1854   -0.2338 C   0  0  0  0  0  0  0  0  0  0  0  0
    5.3662   -1.4135   -0.0876 C   0  0  0  0  0  0  0  0  0  0  0  0
    7.6272   -2.1989   -0.4874 C   0  0  0  0  0  0  0  0  0  0  0  0
    8.9647   -1.9038   -0.6215 C   0  0  0  0  0  0  0  0  0  0  0  0
    9.4636   -0.6168   -0.5131 C   0  0  0  0  0  0  0  0  0  0  0  0
    8.5593    0.4087   -0.2573 C   0  0  0  0  0  0  0  0  0  0  0  0
   10.8264   -0.3605   -0.6557 O   0  0  0  0  0  0  0  0  0  0  0  0
   -9.1738   -2.1939    0.2407 H   0  0  0  0  0  0  0  0  0  0  0  0
   -9.3458    0.0499   -0.5430 H   0  0  0  0  0  0  0  0  0  0  0  0
   -8.1611    2.0868   -1.2689 H   0  0  0  0  0  0  0  0  0  0  0  0
   -5.7396    2.2408   -1.0843 H   0  0  0  0  0  0  0  0  0  0  0  0
   -5.6636   -1.6592    0.5473 H   0  0  0  0  0  0  0  0  0  0  0  0
   -2.8496    1.6943    1.1898 H   0  0  0  0  0  0  0  0  0  0  0  0
   -3.3790    0.1520    1.9150 H   0  0  0  0  0  0  0  0  0  0  0  0
   -4.5997    1.4315    1.7064 H   0  0  0  0  0  0  0  0  0  0  0  0
   -4.1647    1.3186   -2.0633 H   0  0  0  0  0  0  0  0  0  0  0  0
   -3.7252    2.4067   -0.7116 H   0  0  0  0  0  0  0  0  0  0  0  0
   -1.5708    2.2369   -1.6516 H   0  0  0  0  0  0  0  0  0  0  0  0
   -1.9705    0.6533   -2.3602 H   0  0  0  0  0  0  0  0  0  0  0  0
   -1.2630   -1.5827   -0.0078 H   0  0  0  0  0  0  0  0  0  0  0  0
   -1.7307   -0.9994   -1.6840 H   0  0  0  0  0  0  0  0  0  0  0  0
   -3.4303   -1.4742    0.6898 H   0  0  0  0  0  0  0  0  0  0  0  0
   -4.2235   -2.8629   -0.9450 H   0  0  0  0  0  0  0  0  0  0  0  0
   -4.8385   -1.3832   -1.8312 H   0  0  0  0  0  0  0  0  0  0  0  0
   -3.2395   -2.0563   -2.1737 H   0  0  0  0  0  0  0  0  0  0  0  0
    0.2072    1.8163   -0.4302 H   0  0  0  0  0  0  0  0  0  0  0  0
    0.4035    0.3422   -1.3735 H   0  0  0  0  0  0  0  0  0  0  0  0
    0.6065   -1.0877    0.5753 H   0  0  0  0  0  0  0  0  0  0  0  0
   -0.8458    0.2778    2.2526 H   0  0  0  0  0  0  0  0  0  0  0  0
    0.9827   -0.0019    4.0931 H   0  0  0  0  0  0  0  0  0  0  0  0
    0.6050   -1.4562    3.0652 H   0  0  0  0  0  0  0  0  0  0  0  0
    2.0889   -0.4135    2.7574 H   0  0  0  0  0  0  0  0  0  0  0  0
    1.5059    1.9397    2.9299 H   0  0  0  0  0  0  0  0  0  0  0  0
   -0.2516    2.3686    2.9711 H   0  0  0  0  0  0  0  0  0  0  0  0
    0.6829    2.4194    1.4431 H   0  0  0  0  0  0  0  0  0  0  0  0
    2.3828    1.3217    0.6708 H   0  0  0  0  0  0  0  0  0  0  0  0
    4.3720    1.7152    0.4630 H   0  0  0  0  0  0  0  0  0  0  0  0
    6.7298    2.1642    0.2169 H   0  0  0  0  0  0  0  0  0  0  0  0
    5.0426   -2.4557   -0.1860 H   0  0  0  0  0  0  0  0  0  0  0  0
    7.2781   -3.2213   -0.5797 H   0  0  0  0  0  0  0  0  0  0  0  0
    9.7188   -2.6773   -0.8238 H   0  0  0  0  0  0  0  0  0  0  0  0
    8.9336    1.4201   -0.1697 H   0  0  0  0  0  0  0  0  0  0  0  0
   11.1715    0.5051   -0.2639 H   0  0  0  0  0  0  0  0  0  0  0  0
  1  2  1  0
  2  3  2  0
  3  4  1  0
  4  5  2  0
  5  6  1  0
  6  7  2  0
  6  8  1  0
  8  9  1  1
  8 10  1  0
 10 11  1  0
 11 12  1  0
 12 13  1  0
 13 14  1  0
 14 15  1  0
 12 16  1  0
 16 17  1  0
 17 18  1  0
 18 19  1  0
 18 20  1  0
 17 21  1  0
 21 22  1  0
 22 23  2  0
 22 24  1  0
 24 25  2  0
 25 26  1  0
 26 27  2  0
 27 28  1  0
 28 29  2  0
 28 30  1  0
 30 31  2  0
 31 32  1  0
 32 33  2  0
 32 34  1  0
  7  2  1  0
 14  8  1  0
 29 24  1  0
 33 27  1  0
  1 35  1  0
  3 36  1  0
  4 37  1  0
  5 38  1  0
  7 39  1  0
  9 40  1  0
  9 41  1  0
  9 42  1  0
 10 43  1  0
 10 44  1  0
 11 45  1  0
 11 46  1  0
 13 47  1  0
 13 48  1  0
 14 49  1  1
 15 50  1  0
 15 51  1  0
 15 52  1  0
 16 53  1  0
 16 54  1  0
 17 55  1  6
 18 56  1  0
 19 57  1  0
 19 58  1  0
 19 59  1  0
 20 60  1  0
 20 61  1  0
 20 62  1  0
 21 63  1  0
 25 64  1  0
 26 65  1  0
 29 66  1  0
 30 67  1  0
 31 68  1  0
 33 69  1  0
 34 70  1  0
M  END
>  <Ligand ID>  (1) 
LIG0002307

>  <Ligand>  (1) 
CHEMBL1204084

>  <SMILES>  (1) 
Oc1cccc(c1)[C@]1(C)CCN(C[C@@H]1C)C[C@H](C(C)C)NC(=O)c1ccc2c(c1)ccc(c2)O

>  <CID>  (1) 
46867404.0

>  <ChEMBL ID>  (1) 
nan

>  <InChiKey>  (1) 
YPKQMHKJOIWRQX-FCIAUAKVSA-N

>  <InChi>  (1) 
InChI=1S/C29H36N2O3/c1-19(2)27(30-28(34)23-9-8-22-15-26(33)11-10-21(22)14-23)18-31-13-12-29(4,20(3)17-31)24-6-5-7-25(32)16-24/h5-11,14-16,19-20,27,32-33H,12-13,17-18H2,1-4H3,(H,30,34)/t20-,27+,29+/m0/s1

>  <IUPAC Name>  (1) 
6-hydroxy-N-[(2S)-1-[(3R,4R)-4-(3-hydroxyphenyl)-3,4-dimethylpiperidin-1-yl]-3-methylbutan-2-yl]naphthalene-2-carboxamide

$$$$
