
     RDKit          3D

 59 63  0  0  0  0  0  0  0  0999 V2000
    7.4161   -2.1685    3.1852 N   0  0  0  0  0  0  0  0  0  0  0  0
    6.8238   -1.5445    2.3912 C   0  0  0  0  0  0  0  0  0  0  0  0
    6.0934   -0.7677    1.4389 C   0  0  0  0  0  0  0  0  0  0  0  0
    4.7054   -0.8785    1.3493 C   0  0  0  0  0  0  0  0  0  0  0  0
    3.9664   -0.1551    0.4535 C   0  0  0  0  0  0  0  0  0  0  0  0
    4.6305    0.7098   -0.3831 C   0  0  0  0  0  0  0  0  0  0  0  0
    5.9969    0.8164   -0.2923 C   0  0  0  0  0  0  0  0  0  0  0  0
    6.7659    0.0990    0.6011 C   0  0  0  0  0  0  0  0  0  0  0  0
    8.1241    0.1832    0.7140 O   0  0  0  0  0  0  0  0  0  0  0  0
    9.0007    0.9805   -0.0171 C   0  0  0  0  0  0  0  0  0  0  0  0
    9.9086    0.0807   -0.8688 C   0  0  0  0  0  0  0  0  0  0  0  0
    9.8755    1.8568    0.8248 C   0  0  0  0  0  0  0  0  0  0  0  0
    2.5199   -0.3322    0.4209 C   0  0  0  0  0  0  0  0  0  0  0  0
    1.8910   -1.1655    1.2247 O   0  0  0  0  0  0  0  0  0  0  0  0
    0.6169   -1.1008    0.9567 N   0  0  0  0  0  0  0  0  0  0  0  0
    0.4065   -0.2070   -0.0432 C   0  0  0  0  0  0  0  0  0  0  0  0
    1.6024    0.2608   -0.3632 N   0  0  0  0  0  0  0  0  0  0  0  0
   -0.8911    0.1528   -0.6398 C   0  0  0  0  0  0  0  0  0  0  0  0
   -0.9219    1.0966   -1.6556 C   0  0  0  0  0  0  0  0  0  0  0  0
   -2.1527    1.4009   -2.1887 C   0  0  0  0  0  0  0  0  0  0  0  0
   -3.3151    0.7969   -1.7378 C   0  0  0  0  0  0  0  0  0  0  0  0
   -3.2968   -0.1527   -0.7180 C   0  0  0  0  0  0  0  0  0  0  0  0
   -2.0475   -0.4423   -0.1971 C   0  0  0  0  0  0  0  0  0  0  0  0
   -2.2476   -1.4747    0.8786 C   0  0  0  0  0  0  0  0  0  0  0  0
   -3.7123   -1.2657    1.2881 C   0  0  0  0  0  0  0  0  0  0  0  0
   -4.3469   -0.9497   -0.0461 C   0  0  1  0  0  0  0  0  0  0  0  0
   -5.6232   -0.3132    0.0361 N   0  0  0  0  0  0  0  0  0  0  0  0
   -6.7356   -0.9443   -0.5700 C   0  0  0  0  0  0  0  0  0  0  0  0
   -6.5787   -2.0553   -1.1697 O   0  0  0  0  0  0  0  0  0  0  0  0
   -8.0528   -0.4193   -0.5610 N   0  0  0  0  0  0  0  0  0  0  0  0
   -9.2916   -0.9207   -1.1210 C   0  0  0  0  0  0  0  0  0  0  0  0
   -9.7022    0.5254   -1.2978 C   0  0  0  0  0  0  0  0  0  0  0  0
   -8.7964    0.7234   -0.0735 C   0  0  0  0  0  0  0  0  0  0  0  0
  -11.0445    0.7796   -1.0682 O   0  0  0  0  0  0  0  0  0  0  0  0
    4.2549   -1.5770    2.0385 H   0  0  0  0  0  0  0  0  0  0  0  0
    4.0236    1.2700   -1.0826 H   0  0  0  0  0  0  0  0  0  0  0  0
    6.4799    1.5073   -0.9676 H   0  0  0  0  0  0  0  0  0  0  0  0
    8.4935    1.6482   -0.7699 H   0  0  0  0  0  0  0  0  0  0  0  0
    9.4180   -0.1298   -1.8488 H   0  0  0  0  0  0  0  0  0  0  0  0
   10.0947   -0.8943   -0.3921 H   0  0  0  0  0  0  0  0  0  0  0  0
   10.8494    0.6026   -1.1133 H   0  0  0  0  0  0  0  0  0  0  0  0
   10.2701    2.7330    0.2791 H   0  0  0  0  0  0  0  0  0  0  0  0
   10.7471    1.3084    1.2346 H   0  0  0  0  0  0  0  0  0  0  0  0
    9.2627    2.2365    1.6774 H   0  0  0  0  0  0  0  0  0  0  0  0
   -0.0296    1.5625   -2.0041 H   0  0  0  0  0  0  0  0  0  0  0  0
   -2.2607    2.1388   -2.9968 H   0  0  0  0  0  0  0  0  0  0  0  0
   -4.2583    1.0659   -2.1851 H   0  0  0  0  0  0  0  0  0  0  0  0
   -1.6152   -1.2888    1.7615 H   0  0  0  0  0  0  0  0  0  0  0  0
   -2.1081   -2.4487    0.3975 H   0  0  0  0  0  0  0  0  0  0  0  0
   -3.7613   -0.4338    1.9971 H   0  0  0  0  0  0  0  0  0  0  0  0
   -4.0476   -2.1975    1.7464 H   0  0  0  0  0  0  0  0  0  0  0  0
   -4.4387   -1.8953   -0.6189 H   0  0  0  0  0  0  0  0  0  0  0  0
   -5.7637    0.5994    0.5264 H   0  0  0  0  0  0  0  0  0  0  0  0
   -9.9411   -1.3720   -0.3216 H   0  0  0  0  0  0  0  0  0  0  0  0
   -9.1914   -1.5222   -2.0297 H   0  0  0  0  0  0  0  0  0  0  0  0
   -9.2635    1.0422   -2.1763 H   0  0  0  0  0  0  0  0  0  0  0  0
   -8.2658    1.6991   -0.0992 H   0  0  0  0  0  0  0  0  0  0  0  0
   -9.3521    0.5095    0.8603 H   0  0  0  0  0  0  0  0  0  0  0  0
  -11.1840    0.6308   -0.0923 H   0  0  0  0  0  0  0  0  0  0  0  0
  1  2  3  0
  2  3  1  0
  3  4  2  0
  4  5  1  0
  5  6  2  0
  6  7  1  0
  7  8  2  0
  8  9  1  0
  9 10  1  0
 10 11  1  0
 10 12  1  0
  5 13  1  0
 13 14  1  0
 14 15  1  0
 15 16  2  0
 16 17  1  0
 16 18  1  0
 18 19  2  0
 19 20  1  0
 20 21  2  0
 21 22  1  0
 22 23  2  0
 23 24  1  0
 24 25  1  0
 25 26  1  0
 26 27  1  0
 27 28  1  0
 28 29  2  0
 28 30  1  0
 30 31  1  0
 31 32  1  0
 32 33  1  0
 32 34  1  0
  8  3  1  0
 17 13  2  0
 23 18  1  0
 33 30  1  0
 26 22  1  0
  4 35  1  0
  6 36  1  0
  7 37  1  0
 10 38  1  0
 11 39  1  0
 11 40  1  0
 11 41  1  0
 12 42  1  0
 12 43  1  0
 12 44  1  0
 19 45  1  0
 20 46  1  0
 21 47  1  0
 24 48  1  0
 24 49  1  0
 25 50  1  0
 25 51  1  0
 26 52  1  6
 27 53  1  0
 31 54  1  0
 31 55  1  0
 32 56  1  0
 33 57  1  0
 33 58  1  0
 34 59  1  0
M  END
>  <Ligand ID>  (1) 
LIG0001530

>  <Ligand>  (1) 
SCHEMBL1874279

>  <SMILES>  (1) 
N#Cc1cc(ccc1OC(C)C)c1onc(n1)c1cccc2c1CC[C@H]2NC(=O)N1CC(C1)O

>  <CID>  (1) 
58344692.0

>  <ChEMBL ID>  (1) 
nan

>  <InChiKey>  (1) 
PKRZAGCYDFJIFC-OAQYLSRUSA-N

>  <InChi>  (1) 
InChI=1S/C25H25N5O4/c1-14(2)33-22-9-6-15(10-16(22)11-26)24-28-23(29-34-24)20-5-3-4-19-18(20)7-8-21(19)27-25(32)30-12-17(31)13-30/h3-6,9-10,14,17,21,31H,7-8,12-13H2,1-2H3,(H,27,32)/t21-/m1/s1

>  <IUPAC Name>  (1) 
N-[(1R)-4-[5-(3-cyano-4-propan-2-yloxyphenyl)-1,2,4-oxadiazol-3-yl]-2,3-dihydro-1H-inden-1-yl]-3-hydroxyazetidine-1-carboxamide

$$$$
