
     RDKit          3D

  6  5  0  0  0  0  0  0  0  0999 V2000
    2.0988    0.6127   -0.1852 Cl  0  0  0  0  0  0  0  0  0  0  0  0
    0.6051   -0.2791   -0.0703 C   0  0  0  0  0  0  0  0  0  0  0  0
   -0.5871    0.2951    0.0691 C   0  0  0  0  0  0  0  0  0  0  0  0
   -2.0736   -0.6605    0.1809 Cl  0  0  0  0  0  0  0  0  0  0  0  0
    0.6299   -1.3628   -0.1130 H   0  0  0  0  0  0  0  0  0  0  0  0
   -0.6731    1.3945    0.1184 H   0  0  0  0  0  0  0  0  0  0  0  0
  1  2  1  0
  2  3  2  3
  3  4  1  0
  2  5  1  0
  3  6  1  0
M  END
>  <Ligand ID>  (1) 
LIG0002083

>  <Ligand>  (1) 
1,2-dichloroethene

>  <SMILES>  (1) 
ClC=CCl

>  <CID>  (1) 
10900.0

>  <ChEMBL ID>  (1) 
nan

>  <InChiKey>  (1) 
KFUSEUYYWQURPO-UHFFFAOYSA-N

>  <InChi>  (1) 
InChI=1S/C2H2Cl2/c3-1-2-4/h1-2H

>  <IUPAC Name>  (1) 
1,2-dichloroethene

$$$$
