
     RDKit          3D

158163  0  0  0  0  0  0  0  0999 V2000
    7.3206   -3.8754    0.2675 C   0  0  0  0  0  0  0  0  0  0  0  0
    7.9188   -3.9713    1.6436 C   0  0  0  0  0  0  0  0  0  0  0  0
    8.8274   -2.8651    1.9348 C   0  0  0  0  0  0  0  0  0  0  0  0
    8.4138   -1.4587    2.0022 C   0  0  0  0  0  0  0  0  0  0  0  0
    7.8617   -0.6742    0.9403 C   0  0  2  0  0  0  0  0  0  0  0  0
    6.6508   -0.7814    0.1963 C   0  0  0  0  0  0  0  0  0  0  0  0
    6.7184   -0.7396   -1.0902 O   0  0  0  0  0  0  0  0  0  0  0  0
    5.3003   -0.9151    0.6824 N   0  0  0  0  0  0  0  0  0  0  0  0
    4.1766   -0.9214   -0.2377 C   0  0  1  0  0  0  0  0  0  0  0  0
    3.1207   -1.8912    0.0805 C   0  0  0  0  0  0  0  0  0  0  0  0
    3.3850   -3.2985   -0.2285 C   0  0  0  0  0  0  0  0  0  0  0  0
    4.2267   -3.7747   -0.9920 O   0  0  0  0  0  0  0  0  0  0  0  0
    2.5668   -4.2770    0.4363 N   0  0  0  0  0  0  0  0  0  0  0  0
    2.6420   -5.6913    0.2956 C   0  0  0  0  0  0  0  0  0  0  0  0
    2.4372   -6.2768   -1.0531 C   0  0  0  0  0  0  0  0  0  0  0  0
    1.1720   -5.7831   -1.7071 C   0  0  0  0  0  0  0  0  0  0  0  0
    0.0447   -5.8881   -0.7453 C   0  0  0  0  0  0  0  0  0  0  0  0
   -1.2811   -5.4019   -1.3342 C   0  0  2  0  0  0  0  0  0  0  0  0
   -2.2301   -5.2033   -0.2252 N   0  0  0  0  0  0  0  0  0  0  0  0
   -2.7098   -3.8750   -0.0489 C   0  0  0  0  0  0  0  0  0  0  0  0
   -2.3616   -3.0500   -0.9055 O   0  0  0  0  0  0  0  0  0  0  0  0
   -3.5763   -3.4148    1.0541 C   0  0  1  0  0  0  0  0  0  0  0  0
   -3.8919   -1.9782    0.8141 N   0  0  0  0  0  0  0  0  0  0  0  0
   -3.3636   -0.9442    1.5949 C   0  0  0  0  0  0  0  0  0  0  0  0
   -2.5408   -1.4565    2.4557 O   0  0  0  0  0  0  0  0  0  0  0  0
   -3.5206    0.4868    1.6495 C   0  0  1  0  0  0  0  0  0  0  0  0
   -2.7133    1.3009    0.7394 N   0  0  0  0  0  0  0  0  0  0  0  0
   -1.5639    2.0486    1.2143 C   0  0  0  0  0  0  0  0  0  0  0  0
   -1.2600    1.7420    2.3602 O   0  0  0  0  0  0  0  0  0  0  0  0
   -0.8196    3.0569    0.4061 C   0  0  2  0  0  0  0  0  0  0  0  0
    0.5874    3.1260    0.8105 N   0  0  0  0  0  0  0  0  0  0  0  0
    1.6449    2.8866   -0.1755 C   0  0  0  0  0  0  0  0  0  0  0  0
    1.2027    2.7047   -1.3125 O   0  0  0  0  0  0  0  0  0  0  0  0
    3.0565    2.8573    0.0872 C   0  0  1  0  0  0  0  0  0  0  0  0
    3.6423    1.5462    0.4691 N   0  0  0  0  0  0  0  0  0  0  0  0
    3.5346    0.4337   -0.3677 C   0  0  0  0  0  0  0  0  0  0  0  0
    2.7916    0.6096   -1.3373 O   0  0  0  0  0  0  0  0  0  0  0  0
    4.2866    1.4161    1.7230 C   0  0  0  0  0  0  0  0  0  0  0  0
    3.9017    3.4122   -1.0431 C   0  0  0  0  0  0  0  0  0  0  0  0
    3.6158    4.8210   -1.2753 C   0  0  0  0  0  0  0  0  0  0  0  0
    4.2262    5.5529   -2.2581 N   0  0  0  0  0  0  0  0  0  0  0  0
    3.7835    6.8185   -2.1963 C   0  0  0  0  0  0  0  0  0  0  0  0
    2.9076    6.8854   -1.1908 N   0  0  0  0  0  0  0  0  0  0  0  0
    2.7859    5.7072   -0.6205 C   0  0  0  0  0  0  0  0  0  0  0  0
   -1.5531    4.3317    0.6759 C   0  0  0  0  0  0  0  0  0  0  0  0
   -1.1265    5.5666    0.0656 C   0  0  0  0  0  0  0  0  0  0  0  0
   -0.2988    6.5122    0.6214 C   0  0  0  0  0  0  0  0  0  0  0  0
    0.0347    7.7006    0.0146 C   0  0  0  0  0  0  0  0  0  0  0  0
   -0.4984    7.9661   -1.2477 C   0  0  0  0  0  0  0  0  0  0  0  0
   -1.3357    7.0480   -1.8503 C   0  0  0  0  0  0  0  0  0  0  0  0
   -1.6368    5.8798   -1.2031 C   0  0  0  0  0  0  0  0  0  0  0  0
   -1.8883    7.3171   -3.1103 C   0  0  0  0  0  0  0  0  0  0  0  0
   -1.5999    8.4942   -3.7536 C   0  0  0  0  0  0  0  0  0  0  0  0
   -0.7562    9.4252   -3.1549 C   0  0  0  0  0  0  0  0  0  0  0  0
   -0.2015    9.1682   -1.9009 C   0  0  0  0  0  0  0  0  0  0  0  0
   -2.9400    1.4091   -0.6609 C   0  0  0  0  0  0  0  0  0  0  0  0
   -4.9156    1.0314    1.6862 C   0  0  0  0  0  0  0  0  0  0  0  0
   -4.8166    2.5465    1.7454 C   0  0  0  0  0  0  0  0  0  0  0  0
   -6.1879    3.1806    1.7863 C   0  0  0  0  0  0  0  0  0  0  0  0
   -6.9251    2.7473    2.9300 N   0  0  0  0  0  0  0  0  0  0  0  0
   -8.0883    3.3428    3.0969 C   0  0  0  0  0  0  0  0  0  0  0  0
   -8.4084    4.3160    2.1107 N   0  0  0  0  0  0  0  0  0  0  0  0
   -8.9470    3.0220    4.1825 N   0  0  0  0  0  0  0  0  0  0  0  0
   -4.6946   -1.7005   -0.3128 C   0  0  0  0  0  0  0  0  0  0  0  0
   -4.6400   -4.2636    1.5357 C   0  0  0  0  0  0  0  0  0  0  0  0
   -5.7590   -4.7417    0.7601 C   0  0  0  0  0  0  0  0  0  0  0  0
   -5.7749   -5.9875    0.1116 C   0  0  0  0  0  0  0  0  0  0  0  0
   -6.9409   -6.1481   -0.5354 N   0  0  0  0  0  0  0  0  0  0  0  0
   -7.7141   -5.0619   -0.3517 C   0  0  0  0  0  0  0  0  0  0  0  0
   -6.9940   -4.2013    0.4395 C   0  0  0  0  0  0  0  0  0  0  0  0
   -7.5923   -3.0098    0.7871 C   0  0  0  0  0  0  0  0  0  0  0  0
   -8.8517   -2.6335    0.3937 C   0  0  0  0  0  0  0  0  0  0  0  0
   -9.5599   -3.4999   -0.3968 C   0  0  0  0  0  0  0  0  0  0  0  0
   -8.9864   -4.6849   -0.7526 C   0  0  0  0  0  0  0  0  0  0  0  0
   -1.8701   -6.4496   -2.2008 C   0  0  0  0  0  0  0  0  0  0  0  0
   -1.2786   -6.8057   -3.2543 O   0  0  0  0  0  0  0  0  0  0  0  0
   -3.0955   -7.0953   -1.9078 N   0  0  0  0  0  0  0  0  0  0  0  0
    9.0106   -0.5089   -0.0495 N   0  0  0  0  0  0  0  0  0  0  0  0
    9.6238    0.7475   -0.2195 C   0  0  0  0  0  0  0  0  0  0  0  0
    9.3093    1.7974    0.3895 O   0  0  0  0  0  0  0  0  0  0  0  0
   10.7453    0.8654   -1.2056 C   0  0  0  0  0  0  0  0  0  0  0  0
    7.9142   -3.2481   -0.4206 H   0  0  0  0  0  0  0  0  0  0  0  0
    7.3237   -4.8971   -0.2218 H   0  0  0  0  0  0  0  0  0  0  0  0
    6.2995   -3.4938    0.3300 H   0  0  0  0  0  0  0  0  0  0  0  0
    8.4035   -4.9754    1.7230 H   0  0  0  0  0  0  0  0  0  0  0  0
    7.0712   -4.0366    2.4030 H   0  0  0  0  0  0  0  0  0  0  0  0
    9.7350   -2.9228    1.2375 H   0  0  0  0  0  0  0  0  0  0  0  0
    9.3401   -3.1505    2.9379 H   0  0  0  0  0  0  0  0  0  0  0  0
    7.8680   -1.2635    3.0129 H   0  0  0  0  0  0  0  0  0  0  0  0
    9.4098   -0.9108    2.2947 H   0  0  0  0  0  0  0  0  0  0  0  0
    7.8473    0.4439    1.3218 H   0  0  0  0  0  0  0  0  0  0  0  0
    5.2152   -1.0235    1.7124 H   0  0  0  0  0  0  0  0  0  0  0  0
    4.5707   -1.1254   -1.2775 H   0  0  0  0  0  0  0  0  0  0  0  0
    2.8335   -1.7615    1.1723 H   0  0  0  0  0  0  0  0  0  0  0  0
    2.1979   -1.5600   -0.5135 H   0  0  0  0  0  0  0  0  0  0  0  0
    1.8705   -3.8765    1.0762 H   0  0  0  0  0  0  0  0  0  0  0  0
    1.9125   -6.1823    1.0209 H   0  0  0  0  0  0  0  0  0  0  0  0
    3.6389   -6.0721    0.6733 H   0  0  0  0  0  0  0  0  0  0  0  0
    3.3141   -6.2161   -1.7130 H   0  0  0  0  0  0  0  0  0  0  0  0
    2.2800   -7.3863   -0.8936 H   0  0  0  0  0  0  0  0  0  0  0  0
    1.3076   -4.7583   -2.1168 H   0  0  0  0  0  0  0  0  0  0  0  0
    0.9317   -6.4421   -2.5735 H   0  0  0  0  0  0  0  0  0  0  0  0
   -0.1336   -6.9132   -0.3707 H   0  0  0  0  0  0  0  0  0  0  0  0
    0.2316   -5.2646    0.1366 H   0  0  0  0  0  0  0  0  0  0  0  0
   -1.0981   -4.5015   -1.9090 H   0  0  0  0  0  0  0  0  0  0  0  0
   -2.5716   -5.9009    0.4080 H   0  0  0  0  0  0  0  0  0  0  0  0
   -2.8178   -3.4290    1.9388 H   0  0  0  0  0  0  0  0  0  0  0  0
   -3.1255    0.7187    2.7237 H   0  0  0  0  0  0  0  0  0  0  0  0
   -0.8536    2.8131   -0.6455 H   0  0  0  0  0  0  0  0  0  0  0  0
    0.9403    3.3266    1.7348 H   0  0  0  0  0  0  0  0  0  0  0  0
    3.2732    3.5635    0.9473 H   0  0  0  0  0  0  0  0  0  0  0  0
    4.1684    2.3913    2.3142 H   0  0  0  0  0  0  0  0  0  0  0  0
    3.8085    0.6822    2.4046 H   0  0  0  0  0  0  0  0  0  0  0  0
    5.3831    1.3240    1.6323 H   0  0  0  0  0  0  0  0  0  0  0  0
    3.8581    2.7893   -1.9575 H   0  0  0  0  0  0  0  0  0  0  0  0
    4.9638    3.3608   -0.6513 H   0  0  0  0  0  0  0  0  0  0  0  0
    4.9255    5.2001   -2.9559 H   0  0  0  0  0  0  0  0  0  0  0  0
    4.0938    7.6425   -2.8563 H   0  0  0  0  0  0  0  0  0  0  0  0
    2.1878    5.3509    0.2312 H   0  0  0  0  0  0  0  0  0  0  0  0
   -1.5676    4.4316    1.8166 H   0  0  0  0  0  0  0  0  0  0  0  0
   -2.6533    4.2310    0.4553 H   0  0  0  0  0  0  0  0  0  0  0  0
    0.1115    6.2871    1.6173 H   0  0  0  0  0  0  0  0  0  0  0  0
    0.6863    8.4460    0.4584 H   0  0  0  0  0  0  0  0  0  0  0  0
   -2.3064    5.1683   -1.7065 H   0  0  0  0  0  0  0  0  0  0  0  0
   -2.5452    6.6120   -3.5949 H   0  0  0  0  0  0  0  0  0  0  0  0
   -2.0309    8.7002   -4.7308 H   0  0  0  0  0  0  0  0  0  0  0  0
   -0.4986   10.3611   -3.6166 H   0  0  0  0  0  0  0  0  0  0  0  0
    0.4542    9.9110   -1.4577 H   0  0  0  0  0  0  0  0  0  0  0  0
   -4.0021    1.1955   -0.9085 H   0  0  0  0  0  0  0  0  0  0  0  0
   -2.7956    2.4507   -0.9901 H   0  0  0  0  0  0  0  0  0  0  0  0
   -2.2239    0.8142   -1.2738 H   0  0  0  0  0  0  0  0  0  0  0  0
   -5.4435    0.7098    2.6137 H   0  0  0  0  0  0  0  0  0  0  0  0
   -5.5213    0.8507    0.7781 H   0  0  0  0  0  0  0  0  0  0  0  0
   -4.1294    2.8991    2.5039 H   0  0  0  0  0  0  0  0  0  0  0  0
   -4.3981    2.8501    0.7353 H   0  0  0  0  0  0  0  0  0  0  0  0
   -6.0216    4.2746    1.8571 H   0  0  0  0  0  0  0  0  0  0  0  0
   -6.7139    3.0139    0.8220 H   0  0  0  0  0  0  0  0  0  0  0  0
   -9.1155    4.1259    1.3618 H   0  0  0  0  0  0  0  0  0  0  0  0
   -7.9301    5.2665    2.1175 H   0  0  0  0  0  0  0  0  0  0  0  0
   -9.4890    3.7964    4.6567 H   0  0  0  0  0  0  0  0  0  0  0  0
   -9.0318    2.0109    4.4994 H   0  0  0  0  0  0  0  0  0  0  0  0
   -4.1693   -1.1239   -1.1133 H   0  0  0  0  0  0  0  0  0  0  0  0
   -5.6131   -1.1857   -0.0855 H   0  0  0  0  0  0  0  0  0  0  0  0
   -4.9085   -2.6838   -0.8740 H   0  0  0  0  0  0  0  0  0  0  0  0
   -5.0805   -3.7116    2.4487 H   0  0  0  0  0  0  0  0  0  0  0  0
   -4.1670   -5.1515    2.0660 H   0  0  0  0  0  0  0  0  0  0  0  0
   -4.9623   -6.7021    0.1392 H   0  0  0  0  0  0  0  0  0  0  0  0
   -7.2809   -6.9621   -1.1140 H   0  0  0  0  0  0  0  0  0  0  0  0
   -7.0099   -2.3465    1.4225 H   0  0  0  0  0  0  0  0  0  0  0  0
   -9.2183   -1.6744    0.7290 H   0  0  0  0  0  0  0  0  0  0  0  0
  -10.5757   -3.2059   -0.7182 H   0  0  0  0  0  0  0  0  0  0  0  0
   -9.5388   -5.3824   -1.3832 H   0  0  0  0  0  0  0  0  0  0  0  0
   -3.1129   -7.6804   -1.0305 H   0  0  0  0  0  0  0  0  0  0  0  0
   -3.9528   -6.9998   -2.5280 H   0  0  0  0  0  0  0  0  0  0  0  0
    9.3195   -1.3440   -0.5835 H   0  0  0  0  0  0  0  0  0  0  0  0
   11.6106    1.2801   -0.6102 H   0  0  0  0  0  0  0  0  0  0  0  0
   11.0744   -0.0934   -1.6020 H   0  0  0  0  0  0  0  0  0  0  0  0
   10.4671    1.6365   -1.9365 H   0  0  0  0  0  0  0  0  0  0  0  0
  1  2  1  0
  2  3  1  0
  3  4  1  0
  4  5  1  0
  5  6  1  0
  6  7  2  0
  6  8  1  0
  8  9  1  0
  9 10  1  0
 10 11  1  0
 11 12  2  0
 11 13  1  0
 13 14  1  0
 14 15  1  0
 15 16  1  0
 16 17  1  0
 17 18  1  0
 18 19  1  0
 19 20  1  0
 20 21  2  0
 20 22  1  0
 22 23  1  0
 23 24  1  0
 24 25  2  0
 24 26  1  0
 26 27  1  0
 27 28  1  0
 28 29  2  0
 28 30  1  0
 30 31  1  0
 31 32  1  0
 32 33  2  0
 32 34  1  0
 34 35  1  0
 35 36  1  0
 36 37  2  0
 35 38  1  0
 34 39  1  0
 39 40  1  0
 40 41  1  0
 41 42  1  0
 42 43  2  0
 43 44  1  0
 30 45  1  0
 45 46  1  0
 46 47  2  0
 47 48  1  0
 48 49  2  0
 49 50  1  0
 50 51  2  0
 50 52  1  0
 52 53  2  0
 53 54  1  0
 54 55  2  0
 27 56  1  0
 26 57  1  0
 57 58  1  0
 58 59  1  0
 59 60  1  0
 60 61  2  3
 61 62  1  0
 61 63  1  0
 23 64  1  0
 22 65  1  0
 65 66  1  0
 66 67  2  0
 67 68  1  0
 68 69  1  0
 69 70  2  0
 70 71  1  0
 71 72  2  0
 72 73  1  0
 73 74  2  0
 18 75  1  0
 75 76  2  0
 75 77  1  0
  5 78  1  0
 78 79  1  0
 79 80  2  0
 79 81  1  0
 36  9  1  0
 44 40  2  0
 51 46  1  0
 70 66  1  0
 55 49  1  0
 74 69  1  0
  1 82  1  0
  1 83  1  0
  1 84  1  0
  2 85  1  0
  2 86  1  0
  3 87  1  0
  3 88  1  0
  4 89  1  0
  4 90  1  0
  5 91  1  1
  8 92  1  0
  9 93  1  6
 10 94  1  0
 10 95  1  0
 13 96  1  0
 14 97  1  0
 14 98  1  0
 15 99  1  0
 15100  1  0
 16101  1  0
 16102  1  0
 17103  1  0
 17104  1  0
 18105  1  6
 19106  1  0
 22107  1  1
 26108  1  1
 30109  1  6
 31110  1  0
 34111  1  1
 38112  1  0
 38113  1  0
 38114  1  0
 39115  1  0
 39116  1  0
 41117  1  0
 42118  1  0
 44119  1  0
 45120  1  0
 45121  1  0
 47122  1  0
 48123  1  0
 51124  1  0
 52125  1  0
 53126  1  0
 54127  1  0
 55128  1  0
 56129  1  0
 56130  1  0
 56131  1  0
 57132  1  0
 57133  1  0
 58134  1  0
 58135  1  0
 59136  1  0
 59137  1  0
 62138  1  0
 62139  1  0
 63140  1  0
 63141  1  0
 64142  1  0
 64143  1  0
 64144  1  0
 65145  1  0
 65146  1  0
 67147  1  0
 68148  1  0
 71149  1  0
 72150  1  0
 73151  1  0
 74152  1  0
 77153  1  0
 77154  1  0
 78155  1  0
 81156  1  0
 81157  1  0
 81158  1  0
M  END
>  <Ligand ID>  (1) 
LIG0001818

>  <Ligand>  (1) 
CHEMBL3600921

>  <SMILES>  (1) 
CCCC[C@H](C(=O)N[C@H]1CC(=O)NCCCC[C@H](NC(=O)[C@@H](N(C(=O)[C@@H](N(C(=O)[C@H](NC(=O)[C@@H](N(C1=O)C)Cc1[nH]cnc1)Cc1ccc2c(c1)cccc2)C)CCCN=C(N)N)C)Cc1c[nH]c2c1cccc2)C(=O)N)NC(=O)C

>  <CID>  (1) 
122184640.0

>  <ChEMBL ID>  (1) 
nan

>  <InChiKey>  (1) 
JBPCVEBLPIKYKT-RTFQWTSCSA-N

>  <InChi>  (1) 
InChI=1S/C57H77N15O9/c1-6-7-18-43(66-34(2)73)51(76)68-45-30-49(74)62-24-13-12-20-42(50(58)75)67-52(77)47(28-38-31-64-41-19-11-10-17-40(38)41)72(5)56(81)46(21-14-25-63-57(59)60)70(3)54(79)44(27-35-22-23-36-15-8-9-16-37(36)26-35)69-53(78)48(71(4)55(45)80)29-39-32-61-33-65-39/h8-11,15-17,19,22-23,26,31-33,42-48,64H,6-7,12-14,18,20-21,24-25,27-30H2,1-5H3,(H2,58,75)(H,61,65)(H,62,74)(H,66,73)(H,67,77)(H,68,76)(H,69,78)(H4,59,60,63)/t42-,43+,44+,45-,46-,47-,48-/m0/s1

>  <IUPAC Name>  (1) 
(3S,6S,9R,12S,15S,23S)-15-[[(2R)-2-acetamidohexanoyl]amino]-6-[3-(diaminomethylideneamino)propyl]-12-(1H-imidazol-5-ylmethyl)-3-(1H-indol-3-ylmethyl)-4,7,13-trimethyl-9-(naphthalen-2-ylmethyl)-2,5,8,11,14,17-hexaoxo-1,4,7,10,13,18-hexazacyclotricosane-23-carboxamide

$$$$
