
     RDKit          3D

 77 79  0  0  0  0  0  0  0  0999 V2000
   -6.3211   -5.0710    2.3793 C   0  0  0  0  0  0  0  0  0  0  0  0
   -6.8117   -4.1851    1.2886 C   0  0  0  0  0  0  0  0  0  0  0  0
   -5.7541   -3.4536    0.5432 C   0  0  0  0  0  0  0  0  0  0  0  0
   -5.1610   -3.9320   -0.5992 C   0  0  0  0  0  0  0  0  0  0  0  0
   -4.2130   -3.2786   -1.3264 C   0  0  0  0  0  0  0  0  0  0  0  0
   -3.7872   -2.0093   -0.8990 C   0  0  0  0  0  0  0  0  0  0  0  0
   -4.3742   -1.5355    0.2354 C   0  0  0  0  0  0  0  0  0  0  0  0
   -5.3379   -2.2011    0.9754 C   0  0  0  0  0  0  0  0  0  0  0  0
   -3.6226    0.0840    0.4285 S   0  0  0  0  0  0  0  0  0  0  0  0
   -2.5851   -0.1197   -1.1204 C   0  0  0  0  0  0  0  0  0  0  0  0
   -2.9236   -1.2010   -1.4614 N   0  0  0  0  0  0  0  0  0  0  0  0
   -1.7451    0.9096   -1.6370 N   0  0  0  0  0  0  0  0  0  0  0  0
   -0.4263    1.1998   -1.3091 C   0  0  0  0  0  0  0  0  0  0  0  0
    0.0884    2.2290   -1.9289 O   0  0  0  0  0  0  0  0  0  0  0  0
    0.4972    0.5706   -0.4047 C   0  0  0  0  0  0  0  0  0  0  0  0
    1.1679    1.4518    0.4755 C   0  0  0  0  0  0  0  0  0  0  0  0
    2.1181    0.9236    1.3243 C   0  0  0  0  0  0  0  0  0  0  0  0
    2.4465   -0.4142    1.3588 C   0  0  0  0  0  0  0  0  0  0  0  0
    1.7832   -1.2462    0.5024 C   0  0  0  0  0  0  0  0  0  0  0  0
    0.8022   -0.7885   -0.3920 C   0  0  0  0  0  0  0  0  0  0  0  0
    3.7110   -0.9396    2.4487 S   0  0  0  0  0  0  0  0  0  0  0  0
    3.7925    0.0218    3.5817 O   0  0  0  0  0  0  0  0  0  0  0  0
    3.2438   -2.2643    3.0121 O   0  0  0  0  0  0  0  0  0  0  0  0
    5.1843   -1.2155    1.6605 N   0  0  0  0  0  0  0  0  0  0  0  0
    5.7691   -0.0703    0.9983 C   0  0  0  0  0  0  0  0  0  0  0  0
    5.6683   -0.4001   -0.5048 C   0  0  0  0  0  0  0  0  0  0  0  0
    7.0008   -0.9084   -1.0393 C   0  0  0  0  0  0  0  0  0  0  0  0
    7.9976    0.2527   -1.0581 C   0  0  0  0  0  0  0  0  0  0  0  0
    7.7886    1.0476    0.2015 C   0  0  0  0  0  0  0  0  0  0  0  0
    7.2041    0.1518    1.2802 C   0  0  0  0  0  0  0  0  0  0  0  0
    6.1260   -1.7029    2.6740 C   0  0  0  0  0  0  0  0  0  0  0  0
   -2.3508    1.6723   -2.7259 C   0  0  0  0  0  0  0  0  0  0  0  0
   -3.0043    2.9444   -2.4421 C   0  0  0  0  0  0  0  0  0  0  0  0
   -4.1208    2.9579   -1.4543 C   0  0  0  0  0  0  0  0  0  0  0  0
   -4.7635    4.2018   -1.3188 N   0  0  0  0  0  0  0  0  0  0  0  0
   -5.7998    4.2721   -0.3457 C   0  0  0  0  0  0  0  0  0  0  0  0
   -4.1014    5.4010   -1.5791 C   0  0  0  0  0  0  0  0  0  0  0  0
    0.6923    0.0000    0.0000 Cl  0  0  0  0  0  0  0  0  0  0  0  0
   -5.5442   -4.5604    2.9940 H   0  0  0  0  0  0  0  0  0  0  0  0
   -7.1935   -5.3072    3.0492 H   0  0  0  0  0  0  0  0  0  0  0  0
   -5.9178   -6.0282    2.0328 H   0  0  0  0  0  0  0  0  0  0  0  0
   -7.4426   -4.7961    0.5904 H   0  0  0  0  0  0  0  0  0  0  0  0
   -7.5239   -3.4354    1.7155 H   0  0  0  0  0  0  0  0  0  0  0  0
   -5.4846   -4.9192   -0.9379 H   0  0  0  0  0  0  0  0  0  0  0  0
   -3.8085   -3.7418   -2.2189 H   0  0  0  0  0  0  0  0  0  0  0  0
   -5.7421   -1.7388    1.8591 H   0  0  0  0  0  0  0  0  0  0  0  0
    0.9567    2.5000    0.4982 H   0  0  0  0  0  0  0  0  0  0  0  0
    2.6294    1.6098    1.9932 H   0  0  0  0  0  0  0  0  0  0  0  0
    2.0467   -2.3017    0.5409 H   0  0  0  0  0  0  0  0  0  0  0  0
    0.2908   -1.4384   -1.0563 H   0  0  0  0  0  0  0  0  0  0  0  0
    5.1782    0.8228    1.1222 H   0  0  0  0  0  0  0  0  0  0  0  0
    4.8972   -1.1626   -0.7094 H   0  0  0  0  0  0  0  0  0  0  0  0
    5.4097    0.5029   -1.0939 H   0  0  0  0  0  0  0  0  0  0  0  0
    6.8031   -1.1803   -2.0972 H   0  0  0  0  0  0  0  0  0  0  0  0
    7.3763   -1.7966   -0.5278 H   0  0  0  0  0  0  0  0  0  0  0  0
    7.8054    0.8916   -1.9366 H   0  0  0  0  0  0  0  0  0  0  0  0
    9.0175   -0.1472   -1.0544 H   0  0  0  0  0  0  0  0  0  0  0  0
    8.7542    1.4456    0.6046 H   0  0  0  0  0  0  0  0  0  0  0  0
    7.1138    1.9039    0.0093 H   0  0  0  0  0  0  0  0  0  0  0  0
    7.4094    0.6927    2.2493 H   0  0  0  0  0  0  0  0  0  0  0  0
    7.7810   -0.8259    1.2722 H   0  0  0  0  0  0  0  0  0  0  0  0
    6.5198   -0.8482    3.2704 H   0  0  0  0  0  0  0  0  0  0  0  0
    6.9036   -2.3505    2.2804 H   0  0  0  0  0  0  0  0  0  0  0  0
    5.5233   -2.3117    3.3736 H   0  0  0  0  0  0  0  0  0  0  0  0
   -1.5220    1.8384   -3.4704 H   0  0  0  0  0  0  0  0  0  0  0  0
   -3.0713    1.0170   -3.2805 H   0  0  0  0  0  0  0  0  0  0  0  0
   -2.2986    3.7760   -2.1728 H   0  0  0  0  0  0  0  0  0  0  0  0
   -3.4366    3.3164   -3.4282 H   0  0  0  0  0  0  0  0  0  0  0  0
   -3.6238    2.7749   -0.4404 H   0  0  0  0  0  0  0  0  0  0  0  0
   -4.8372    2.1690   -1.6778 H   0  0  0  0  0  0  0  0  0  0  0  0
   -5.3905    4.1155    0.6846 H   0  0  0  0  0  0  0  0  0  0  0  0
   -6.3742    5.2307   -0.3801 H   0  0  0  0  0  0  0  0  0  0  0  0
   -6.5826    3.4671   -0.4821 H   0  0  0  0  0  0  0  0  0  0  0  0
   -3.7864    5.5431   -2.6504 H   0  0  0  0  0  0  0  0  0  0  0  0
   -4.8027    6.2711   -1.4059 H   0  0  0  0  0  0  0  0  0  0  0  0
   -3.2189    5.6470   -0.9413 H   0  0  0  0  0  0  0  0  0  0  0  0
   -0.6923    0.0000    0.0000 H   0  0  0  0  0  0  0  0  0  0  0  0
  1  2  1  0
  2  3  1  0
  3  4  2  0
  4  5  1  0
  5  6  2  0
  6  7  1  0
  7  8  2  0
  7  9  1  0
  9 10  1  0
 10 11  2  0
 10 12  1  0
 12 13  1  0
 13 14  2  0
 13 15  1  0
 15 16  2  0
 16 17  1  0
 17 18  2  0
 18 19  1  0
 19 20  2  0
 18 21  1  0
 21 22  2  0
 21 23  2  0
 21 24  1  0
 24 25  1  0
 25 26  1  0
 26 27  1  0
 27 28  1  0
 28 29  1  0
 29 30  1  0
 24 31  1  0
 12 32  1  0
 32 33  1  0
 33 34  1  0
 34 35  1  0
 35 36  1  0
 35 37  1  0
  8  3  1  0
 20 15  1  0
 30 25  1  0
 11  6  1  0
  1 39  1  0
  1 40  1  0
  1 41  1  0
  2 42  1  0
  2 43  1  0
  4 44  1  0
  5 45  1  0
  8 46  1  0
 16 47  1  0
 17 48  1  0
 19 49  1  0
 20 50  1  0
 25 51  1  0
 26 52  1  0
 26 53  1  0
 27 54  1  0
 27 55  1  0
 28 56  1  0
 28 57  1  0
 29 58  1  0
 29 59  1  0
 30 60  1  0
 30 61  1  0
 31 62  1  0
 31 63  1  0
 31 64  1  0
 32 65  1  0
 32 66  1  0
 33 67  1  0
 33 68  1  0
 34 69  1  0
 34 70  1  0
 36 71  1  0
 36 72  1  0
 36 73  1  0
 37 74  1  0
 37 75  1  0
 37 76  1  0
 38 77  1  0
M  END
>  <Ligand ID>  (1) 
LIG0004121

>  <Ligand>  (1) 
MLS001239361

>  <SMILES>  (1) 
CCc1ccc2c(c1)sc(n2)N(C(=O)c1ccc(cc1)S(=O)(=O)N(C1CCCCC1)C)CCCN(C)C.Cl

>  <CID>  (1) 
24892061.0

>  <ChEMBL ID>  (1) 
nan

>  <InChiKey>  (1) 
FIZWSDFJSFVALJ-UHFFFAOYSA-N

>  <InChi>  (1) 
InChI=1S/C28H38N4O3S2.ClH/c1-5-21-12-17-25-26(20-21)36-28(29-25)32(19-9-18-30(2)3)27(33)22-13-15-24(16-14-22)37(34,35)31(4)23-10-7-6-8-11-23;/h12-17,20,23H,5-11,18-19H2,1-4H3;1H

>  <IUPAC Name>  (1) 
4-[cyclohexyl(methyl)sulfamoyl]-N-[3-(dimethylamino)propyl]-N-(6-ethyl-1,3-benzothiazol-2-yl)benzamide;hydrochloride

$$$$
