
     RDKit          3D

 86 88  0  0  0  0  0  0  0  0999 V2000
   -1.9862    7.0116   -1.3610 N   0  0  0  0  0  0  0  0  0  0  0  0
   -3.0091    5.9879   -1.4104 C   0  0  0  0  0  0  0  0  0  0  0  0
   -3.2309    5.3960   -0.2861 N   0  0  0  0  0  0  0  0  0  0  0  0
   -4.2278    4.3550   -0.2032 C   0  0  0  0  0  0  0  0  0  0  0  0
   -3.4732    3.0354   -0.3371 C   0  0  0  0  0  0  0  0  0  0  0  0
   -2.4907    2.9821    0.8206 C   0  0  0  0  0  0  0  0  0  0  0  0
   -1.6800    1.6945    0.7792 C   0  0  1  0  0  0  0  0  0  0  0  0
   -2.6062    0.5625    0.8710 C   0  0  0  0  0  0  0  0  0  0  0  0
   -3.5388    0.6683    1.7437 O   0  0  0  0  0  0  0  0  0  0  0  0
   -2.5910   -0.6262    0.1203 N   0  0  0  0  0  0  0  0  0  0  0  0
   -3.6106   -1.6632    0.3586 C   0  0  1  0  0  0  0  0  0  0  0  0
   -4.1786   -2.1418   -0.9030 C   0  0  0  0  0  0  0  0  0  0  0  0
   -3.7010   -1.6339   -1.9740 O   0  0  0  0  0  0  0  0  0  0  0  0
   -5.1968   -3.1022   -1.0595 N   0  0  0  0  0  0  0  0  0  0  0  0
   -2.9915   -2.7711    1.2190 C   0  0  0  0  0  0  0  0  0  0  0  0
   -3.9865   -3.8016    1.4639 C   0  0  0  0  0  0  0  0  0  0  0  0
   -4.3288   -4.9662    0.8465 C   0  0  0  0  0  0  0  0  0  0  0  0
   -5.3099   -5.7178    1.3524 C   0  0  0  0  0  0  0  0  0  0  0  0
   -5.9496   -5.2943    2.4852 C   0  0  0  0  0  0  0  0  0  0  0  0
   -5.1208   -3.6970    2.9049 S   0  0  0  0  0  0  0  0  0  0  0  0
   -0.7081    1.6725   -0.2654 N   0  0  0  0  0  0  0  0  0  0  0  0
    0.5863    1.1874   -0.0222 C   0  0  0  0  0  0  0  0  0  0  0  0
    0.8159    0.7386    1.1534 O   0  0  0  0  0  0  0  0  0  0  0  0
    1.7032    1.1454   -0.9697 C   0  0  1  0  0  0  0  0  0  0  0  0
    2.7715    0.3682   -0.3810 N   0  0  0  0  0  0  0  0  0  0  0  0
    3.9488    0.8438    0.1749 C   0  0  0  0  0  0  0  0  0  0  0  0
    4.2064    2.0708    0.2302 O   0  0  0  0  0  0  0  0  0  0  0  0
    4.9522   -0.0891    0.7227 C   0  0  2  0  0  0  0  0  0  0  0  0
    4.2572   -0.9429    1.8005 C   0  0  0  0  0  0  0  0  0  0  0  0
    5.1586   -1.9502    2.3701 C   0  0  0  0  0  0  0  0  0  0  0  0
    5.2659   -3.2036    1.7997 N   0  0  0  0  0  0  0  0  0  0  0  0
    6.1439   -3.9334    2.5051 C   0  0  0  0  0  0  0  0  0  0  0  0
    6.6026   -3.1862    3.5095 N   0  0  0  0  0  0  0  0  0  0  0  0
    6.0064   -1.9609    3.4428 C   0  0  0  0  0  0  0  0  0  0  0  0
    6.0951    0.6130    1.2205 N   0  0  0  0  0  0  0  0  0  0  0  0
    6.2434    1.2000    2.4914 C   0  0  0  0  0  0  0  0  0  0  0  0
    5.3623    1.2011    3.3899 O   0  0  0  0  0  0  0  0  0  0  0  0
    7.5293    1.8808    2.8358 C   0  0  0  0  0  0  0  0  0  0  0  0
    1.4833    0.9654   -2.3865 C   0  0  0  0  0  0  0  0  0  0  0  0
    0.8495   -0.2150   -2.9364 C   0  0  0  0  0  0  0  0  0  0  0  0
   -0.4809   -0.3762   -3.2353 C   0  0  0  0  0  0  0  0  0  0  0  0
   -0.9553   -1.5551   -3.7890 C   0  0  0  0  0  0  0  0  0  0  0  0
   -0.1060   -2.6071   -4.0564 C   0  0  0  0  0  0  0  0  0  0  0  0
    1.2420   -2.4812   -3.7665 C   0  0  0  0  0  0  0  0  0  0  0  0
    1.6758   -1.3054   -3.2225 C   0  0  0  0  0  0  0  0  0  0  0  0
   -3.7007    5.6769   -2.6120 N   0  0  0  0  0  0  0  0  0  0  0  0
   -1.0168    6.6842   -1.3978 H   0  0  0  0  0  0  0  0  0  0  0  0
   -2.3043    8.0041   -1.2911 H   0  0  0  0  0  0  0  0  0  0  0  0
   -4.6545    4.3709    0.8408 H   0  0  0  0  0  0  0  0  0  0  0  0
   -5.0095    4.4018   -0.9656 H   0  0  0  0  0  0  0  0  0  0  0  0
   -2.8812    3.0827   -1.2722 H   0  0  0  0  0  0  0  0  0  0  0  0
   -4.1409    2.1578   -0.2690 H   0  0  0  0  0  0  0  0  0  0  0  0
   -3.1076    2.9341    1.7583 H   0  0  0  0  0  0  0  0  0  0  0  0
   -1.8028    3.8361    0.8417 H   0  0  0  0  0  0  0  0  0  0  0  0
   -1.1429    1.6657    1.8026 H   0  0  0  0  0  0  0  0  0  0  0  0
   -1.8422   -0.7391   -0.5947 H   0  0  0  0  0  0  0  0  0  0  0  0
   -4.3669   -1.1904    1.0453 H   0  0  0  0  0  0  0  0  0  0  0  0
   -4.9899   -3.8892   -1.7411 H   0  0  0  0  0  0  0  0  0  0  0  0
   -6.1028   -3.0384   -0.5346 H   0  0  0  0  0  0  0  0  0  0  0  0
   -2.1005   -3.2176    0.7276 H   0  0  0  0  0  0  0  0  0  0  0  0
   -2.6754   -2.3265    2.1903 H   0  0  0  0  0  0  0  0  0  0  0  0
   -3.7686   -5.2706   -0.0767 H   0  0  0  0  0  0  0  0  0  0  0  0
   -5.6266   -6.6821    0.8860 H   0  0  0  0  0  0  0  0  0  0  0  0
   -6.7504   -5.6973    3.0794 H   0  0  0  0  0  0  0  0  0  0  0  0
   -0.9271    2.0126   -1.2252 H   0  0  0  0  0  0  0  0  0  0  0  0
    2.1362    2.2260   -0.8812 H   0  0  0  0  0  0  0  0  0  0  0  0
    2.6095   -0.6874   -0.3929 H   0  0  0  0  0  0  0  0  0  0  0  0
    5.2897   -0.8858   -0.0046 H   0  0  0  0  0  0  0  0  0  0  0  0
    3.8049   -0.2480    2.5338 H   0  0  0  0  0  0  0  0  0  0  0  0
    3.3982   -1.4580    1.2822 H   0  0  0  0  0  0  0  0  0  0  0  0
    4.7579   -3.5508    0.9581 H   0  0  0  0  0  0  0  0  0  0  0  0
    6.4116   -4.9621    2.2670 H   0  0  0  0  0  0  0  0  0  0  0  0
    6.2200   -1.1890    4.1549 H   0  0  0  0  0  0  0  0  0  0  0  0
    6.9203    0.7004    0.5585 H   0  0  0  0  0  0  0  0  0  0  0  0
    8.3503    1.1498    2.6908 H   0  0  0  0  0  0  0  0  0  0  0  0
    7.6782    2.7110    2.1345 H   0  0  0  0  0  0  0  0  0  0  0  0
    7.5351    2.2516    3.8707 H   0  0  0  0  0  0  0  0  0  0  0  0
    2.4468    1.2329   -2.9238 H   0  0  0  0  0  0  0  0  0  0  0  0
    0.8282    1.8398   -2.7281 H   0  0  0  0  0  0  0  0  0  0  0  0
   -1.1367    0.4457   -3.0269 H   0  0  0  0  0  0  0  0  0  0  0  0
   -1.9973   -1.7127   -4.0482 H   0  0  0  0  0  0  0  0  0  0  0  0
   -0.4669   -3.5402   -4.4925 H   0  0  0  0  0  0  0  0  0  0  0  0
    1.8804   -3.3230   -3.9885 H   0  0  0  0  0  0  0  0  0  0  0  0
    2.7441   -1.2338   -3.0039 H   0  0  0  0  0  0  0  0  0  0  0  0
   -3.2061    5.3001   -3.4709 H   0  0  0  0  0  0  0  0  0  0  0  0
   -4.7338    5.7990   -2.7277 H   0  0  0  0  0  0  0  0  0  0  0  0
  1  2  1  0
  2  3  2  3
  3  4  1  0
  4  5  1  0
  5  6  1  0
  6  7  1  0
  7  8  1  0
  8  9  2  0
  8 10  1  0
 10 11  1  0
 11 12  1  0
 12 13  2  0
 12 14  1  0
 11 15  1  0
 15 16  1  0
 16 17  2  0
 17 18  1  0
 18 19  2  0
 19 20  1  0
  7 21  1  0
 21 22  1  0
 22 23  2  0
 22 24  1  0
 24 25  1  0
 25 26  1  0
 26 27  2  0
 26 28  1  0
 28 29  1  0
 29 30  1  0
 30 31  1  0
 31 32  1  0
 32 33  2  0
 33 34  1  0
 28 35  1  0
 35 36  1  0
 36 37  2  0
 36 38  1  0
 24 39  1  0
 39 40  1  0
 40 41  2  0
 41 42  1  0
 42 43  2  0
 43 44  1  0
 44 45  2  0
  2 46  1  0
 20 16  1  0
 34 30  2  0
 45 40  1  0
  1 47  1  0
  1 48  1  0
  4 49  1  0
  4 50  1  0
  5 51  1  0
  5 52  1  0
  6 53  1  0
  6 54  1  0
  7 55  1  1
 10 56  1  0
 11 57  1  1
 14 58  1  0
 14 59  1  0
 15 60  1  0
 15 61  1  0
 17 62  1  0
 18 63  1  0
 19 64  1  0
 21 65  1  0
 24 66  1  6
 25 67  1  0
 28 68  1  6
 29 69  1  0
 29 70  1  0
 31 71  1  0
 32 72  1  0
 34 73  1  0
 35 74  1  0
 38 75  1  0
 38 76  1  0
 38 77  1  0
 39 78  1  0
 39 79  1  0
 41 80  1  0
 42 81  1  0
 43 82  1  0
 44 83  1  0
 45 84  1  0
 46 85  1  0
 46 86  1  0
M  END
>  <Ligand ID>  (1) 
LIG0001412

>  <Ligand>  (1) 
CHEMBL349795

>  <SMILES>  (1) 
NC(=NCCC[C@@H](C(=O)N[C@@H](C(=O)N)Cc1cccs1)NC(=O)[C@@H](NC(=O)[C@H](Cc1[nH]cnc1)NC(=O)C)Cc1ccccc1)N

>  <CID>  (1) 
44369140.0

>  <ChEMBL ID>  (1) 
nan

>  <InChiKey>  (1) 
GPEVQQNWXZZSBB-NDBXHCKUSA-N

>  <InChi>  (1) 
InChI=1S/C30H40N10O5S/c1-18(41)37-25(14-20-16-34-17-36-20)29(45)40-24(13-19-7-3-2-4-8-19)28(44)38-22(10-5-11-35-30(32)33)27(43)39-23(26(31)42)15-21-9-6-12-46-21/h2-4,6-9,12,16-17,22-25H,5,10-11,13-15H2,1H3,(H2,31,42)(H,34,36)(H,37,41)(H,38,44)(H,39,43)(H,40,45)(H4,32,33,35)/t22-,23+,24-,25-/m0/s1

>  <IUPAC Name>  (1) 
(2S)-2-[[(2S)-2-[[(2S)-2-acetamido-3-(1H-imidazol-5-yl)propanoyl]amino]-3-phenylpropanoyl]amino]-N-[(2R)-1-amino-1-oxo-3-thiophen-2-ylpropan-2-yl]-5-(diaminomethylideneamino)pentanamide

$$$$
