
     RDKit          3D

 23 23  0  0  0  0  0  0  0  0999 V2000
    2.7043    2.1456   -0.0565 O   0  0  0  0  0  0  0  0  0  0  0  0
    2.6621    0.7435    0.1084 C   0  0  0  0  0  0  0  0  0  0  0  0
    3.7281    0.0714   -0.0904 O   0  0  0  0  0  0  0  0  0  0  0  0
    1.3827    0.0767    0.5088 C   0  0  1  0  0  0  0  0  0  0  0  0
    0.3674    0.2947   -0.5810 C   0  0  0  0  0  0  0  0  0  0  0  0
   -0.9512   -0.3312   -0.2795 C   0  0  0  0  0  0  0  0  0  0  0  0
   -1.9514    0.1023    0.5660 C   0  0  0  0  0  0  0  0  0  0  0  0
   -1.8463    1.3697    1.3559 C   0  0  0  0  0  0  0  0  0  0  0  0
   -2.9197   -0.7543    0.5289 O   0  0  0  0  0  0  0  0  0  0  0  0
   -2.6750   -1.7450   -0.2712 N   0  0  0  0  0  0  0  0  0  0  0  0
   -1.4385   -1.5275   -0.8113 C   0  0  0  0  0  0  0  0  0  0  0  0
   -0.8581   -2.2910   -1.6453 O   0  0  0  0  0  0  0  0  0  0  0  0
    1.7470   -1.3361    0.6206 N   0  0  0  0  0  0  0  0  0  0  0  0
    3.5977    2.5879   -0.3028 H   0  0  0  0  0  0  0  0  0  0  0  0
    1.1012    0.4787    1.4810 H   0  0  0  0  0  0  0  0  0  0  0  0
    0.7951   -0.1022   -1.5306 H   0  0  0  0  0  0  0  0  0  0  0  0
    0.2190    1.3955   -0.6895 H   0  0  0  0  0  0  0  0  0  0  0  0
   -2.8067    1.5455    1.8682 H   0  0  0  0  0  0  0  0  0  0  0  0
   -1.0722    1.2263    2.1114 H   0  0  0  0  0  0  0  0  0  0  0  0
   -1.5507    2.2127    0.6741 H   0  0  0  0  0  0  0  0  0  0  0  0
   -3.3045   -2.5766   -0.4791 H   0  0  0  0  0  0  0  0  0  0  0  0
    0.9807   -1.9175    1.0100 H   0  0  0  0  0  0  0  0  0  0  0  0
    2.0891   -1.6691   -0.3060 H   0  0  0  0  0  0  0  0  0  0  0  0
  1  2  1  0
  2  3  2  0
  2  4  1  0
  4  5  1  0
  5  6  1  0
  6  7  2  0
  7  8  1  0
  7  9  1  0
  9 10  1  0
 10 11  1  0
 11 12  2  0
  4 13  1  0
 11  6  1  0
  1 14  1  0
  4 15  1  1
  5 16  1  0
  5 17  1  0
  8 18  1  0
  8 19  1  0
  8 20  1  0
 10 21  1  0
 13 22  1  0
 13 23  1  0
M  END
>  <Ligand ID>  (1) 
LIG0003602

>  <Ligand>  (1) 
(R)-AMPA

>  <SMILES>  (1) 
OC(=O)[C@@H](Cc1c(C)o[nH]c1=O)N

>  <CID>  (1) 
6604707.0

>  <ChEMBL ID>  (1) 
nan

>  <InChiKey>  (1) 
UUDAMDVQRQNNHZ-RXMQYKEDSA-N

>  <InChi>  (1) 
InChI=1S/C7H10N2O4/c1-3-4(6(10)9-13-3)2-5(8)7(11)12/h5H,2,8H2,1H3,(H,9,10)(H,11,12)/t5-/m1/s1

>  <IUPAC Name>  (1) 
(2R)-2-amino-3-(5-methyl-3-oxo-1,2-oxazol-4-yl)propanoic acid

$$$$
