
     RDKit          3D

 41 42  0  0  0  0  0  0  0  0999 V2000
    2.4676   -2.0189    1.3448 S   0  0  0  0  0  0  0  0  0  0  0  0
    1.5380   -0.8187    0.7503 C   0  0  0  0  0  0  0  0  0  0  0  0
    2.1832    0.1910   -0.0415 N   0  0  0  0  0  0  0  0  0  0  0  0
    3.5804    0.1608   -0.3036 C   0  0  0  0  0  0  0  0  0  0  0  0
    4.3814    0.8430    0.6169 C   0  0  0  0  0  0  0  0  0  0  0  0
    5.7547    0.8976    0.4914 C   0  0  0  0  0  0  0  0  0  0  0  0
    6.3285    0.2467   -0.5903 C   0  0  0  0  0  0  0  0  0  0  0  0
    5.5459   -0.4316   -1.5078 C   0  0  0  0  0  0  0  0  0  0  0  0
    4.1613   -0.4721   -1.3590 C   0  0  0  0  0  0  0  0  0  0  0  0
    6.3125   -1.2459   -2.8705 Cl  0  0  0  0  0  0  0  0  0  0  0  0
    0.1264   -0.7582    0.9995 N   0  0  0  0  0  0  0  0  0  0  0  0
   -0.6289    0.3273    0.4443 C   0  0  0  0  0  0  0  0  0  0  0  0
   -2.0840    0.2780    0.8000 C   0  0  0  0  0  0  0  0  0  0  0  0
   -2.8281   -0.8994    0.3747 C   0  0  0  0  0  0  0  0  0  0  0  0
   -3.4314   -1.0878   -0.8521 C   0  0  0  0  0  0  0  0  0  0  0  0
   -4.1273   -2.2643   -1.1567 C   0  0  0  0  0  0  0  0  0  0  0  0
   -4.2257   -3.2807   -0.2161 C   0  0  0  0  0  0  0  0  0  0  0  0
   -3.6406   -3.0834    0.9561 N   0  0  0  0  0  0  0  0  0  0  0  0
   -2.9705   -1.9631    1.2644 C   0  0  0  0  0  0  0  0  0  0  0  0
   -2.8069    1.4876    0.4979 N   0  0  0  0  0  0  0  0  0  0  0  0
   -2.4124    2.5572    1.4323 C   0  0  0  0  0  0  0  0  0  0  0  0
   -2.6639    1.9611   -0.8604 C   0  0  0  0  0  0  0  0  0  0  0  0
    1.5976    0.9822   -0.4412 H   0  0  0  0  0  0  0  0  0  0  0  0
    3.9222    1.3585    1.4745 H   0  0  0  0  0  0  0  0  0  0  0  0
    6.3484    1.4402    1.2295 H   0  0  0  0  0  0  0  0  0  0  0  0
    7.4067    0.3030   -0.6671 H   0  0  0  0  0  0  0  0  0  0  0  0
    3.5536   -0.9903   -2.0588 H   0  0  0  0  0  0  0  0  0  0  0  0
   -0.2750   -1.5254    1.5820 H   0  0  0  0  0  0  0  0  0  0  0  0
   -0.4993    0.2793   -0.6497 H   0  0  0  0  0  0  0  0  0  0  0  0
   -0.2278    1.2658    0.8956 H   0  0  0  0  0  0  0  0  0  0  0  0
   -2.1215    0.2434    1.9582 H   0  0  0  0  0  0  0  0  0  0  0  0
   -3.3950   -0.3611   -1.6180 H   0  0  0  0  0  0  0  0  0  0  0  0
   -4.5924   -2.3801   -2.1365 H   0  0  0  0  0  0  0  0  0  0  0  0
   -4.7568   -4.1996   -0.4224 H   0  0  0  0  0  0  0  0  0  0  0  0
   -2.5366   -1.9108    2.2487 H   0  0  0  0  0  0  0  0  0  0  0  0
   -3.2745    3.2537    1.4800 H   0  0  0  0  0  0  0  0  0  0  0  0
   -1.5065    3.0818    1.0950 H   0  0  0  0  0  0  0  0  0  0  0  0
   -2.1757    2.0790    2.3963 H   0  0  0  0  0  0  0  0  0  0  0  0
   -3.6559    1.9387   -1.3463 H   0  0  0  0  0  0  0  0  0  0  0  0
   -1.9423    1.4456   -1.4795 H   0  0  0  0  0  0  0  0  0  0  0  0
   -2.4293    3.0697   -0.7994 H   0  0  0  0  0  0  0  0  0  0  0  0
  1  2  2  0
  2  3  1  0
  3  4  1  0
  4  5  2  0
  5  6  1  0
  6  7  2  0
  7  8  1  0
  8  9  2  0
  8 10  1  0
  2 11  1  0
 11 12  1  0
 12 13  1  0
 13 14  1  0
 14 15  2  0
 15 16  1  0
 16 17  2  0
 17 18  1  0
 18 19  2  0
 13 20  1  0
 20 21  1  0
 20 22  1  0
  9  4  1  0
 19 14  1  0
  3 23  1  0
  5 24  1  0
  6 25  1  0
  7 26  1  0
  9 27  1  0
 11 28  1  0
 12 29  1  0
 12 30  1  0
 13 31  1  0
 15 32  1  0
 16 33  1  0
 17 34  1  0
 19 35  1  0
 21 36  1  0
 21 37  1  0
 21 38  1  0
 22 39  1  0
 22 40  1  0
 22 41  1  0
M  END
>  <Ligand ID>  (1) 
LIG0004529

>  <Ligand>  (1) 
MLS000730945

>  <SMILES>  (1) 
S=C(Nc1cccc(c1)Cl)NCC(c1cccnc1)N(C)C

>  <CID>  (1) 
5113104.0

>  <ChEMBL ID>  (1) 
nan

>  <InChiKey>  (1) 
HMFFVRVJSZPZTN-UHFFFAOYSA-N

>  <InChi>  (1) 
InChI=1S/C16H19ClN4S/c1-21(2)15(12-5-4-8-18-10-12)11-19-16(22)20-14-7-3-6-13(17)9-14/h3-10,15H,11H2,1-2H3,(H2,19,20,22)

>  <IUPAC Name>  (1) 
1-(3-chlorophenyl)-3-[2-(dimethylamino)-2-pyridin-3-ylethyl]thiourea

$$$$
