
     RDKit          3D

 34 36  0  0  0  0  0  0  0  0999 V2000
   -6.4575   -1.9186   -1.4651 Cl  0  0  0  0  0  0  0  0  0  0  0  0
   -4.9386   -1.1592   -1.0162 C   0  0  0  0  0  0  0  0  0  0  0  0
   -3.7902   -1.8830   -0.7689 C   0  0  0  0  0  0  0  0  0  0  0  0
   -2.5906   -1.2788   -0.4141 C   0  0  0  0  0  0  0  0  0  0  0  0
   -2.5554    0.0958   -0.3074 C   0  0  0  0  0  0  0  0  0  0  0  0
   -3.6789    0.8581   -0.5456 C   0  0  0  0  0  0  0  0  0  0  0  0
   -4.8427    0.2133   -0.8940 C   0  0  0  0  0  0  0  0  0  0  0  0
   -3.5943    2.1924   -0.4290 N   0  0  0  0  0  0  0  0  0  0  0  0
   -2.4584    2.8364   -0.0879 C   0  0  0  0  0  0  0  0  0  0  0  0
   -1.3122    2.1088    0.1587 C   0  0  0  0  0  0  0  0  0  0  0  0
   -1.3775    0.7197    0.0432 C   0  0  0  0  0  0  0  0  0  0  0  0
   -0.1691    0.0184    0.3077 N   0  0  0  0  0  0  0  0  0  0  0  0
   -0.1608   -0.8229    1.2567 N   0  0  0  0  0  0  0  0  0  0  0  0
    1.0296   -1.5827    1.5955 C   0  0  0  0  0  0  0  0  0  0  0  0
    2.2336   -0.9779    0.9252 C   0  0  0  0  0  0  0  0  0  0  0  0
    2.6252   -1.3904   -0.3368 C   0  0  0  0  0  0  0  0  0  0  0  0
    3.7401   -0.7812   -0.8734 C   0  0  0  0  0  0  0  0  0  0  0  0
    4.4500    0.1942   -0.2081 C   0  0  0  0  0  0  0  0  0  0  0  0
    4.0305    0.5804    1.0483 C   0  0  0  0  0  0  0  0  0  0  0  0
    2.9059   -0.0055    1.6382 C   0  0  0  0  0  0  0  0  0  0  0  0
    4.6713    1.5475    1.7970 O   0  0  0  0  0  0  0  0  0  0  0  0
    5.5647    0.7911   -0.7654 O   0  0  0  0  0  0  0  0  0  0  0  0
   -3.8413   -2.9584   -0.8584 H   0  0  0  0  0  0  0  0  0  0  0  0
   -1.6989   -1.8741   -0.2243 H   0  0  0  0  0  0  0  0  0  0  0  0
   -5.7087    0.8419   -1.0746 H   0  0  0  0  0  0  0  0  0  0  0  0
   -2.3821    3.9055    0.0078 H   0  0  0  0  0  0  0  0  0  0  0  0
   -0.3725    2.5987    0.4378 H   0  0  0  0  0  0  0  0  0  0  0  0
    0.9190   -2.6627    1.3405 H   0  0  0  0  0  0  0  0  0  0  0  0
    1.1484   -1.5317    2.6995 H   0  0  0  0  0  0  0  0  0  0  0  0
    2.0550   -2.1574   -0.8428 H   0  0  0  0  0  0  0  0  0  0  0  0
    4.0403   -1.1125   -1.8666 H   0  0  0  0  0  0  0  0  0  0  0  0
    2.5738    0.2945    2.6231 H   0  0  0  0  0  0  0  0  0  0  0  0
    4.3153    2.4886    1.7219 H   0  0  0  0  0  0  0  0  0  0  0  0
    5.6271    1.8117   -0.6220 H   0  0  0  0  0  0  0  0  0  0  0  0
  1  2  1  0
  2  3  2  0
  3  4  1  0
  4  5  2  0
  5  6  1  0
  6  7  2  0
  6  8  1  0
  8  9  2  0
  9 10  1  0
 10 11  2  0
 11 12  1  0
 12 13  2  3
 13 14  1  0
 14 15  1  0
 15 16  2  0
 16 17  1  0
 17 18  2  0
 18 19  1  0
 19 20  2  0
 19 21  1  0
 18 22  1  0
  7  2  1  0
 20 15  1  0
 11  5  1  0
  3 23  1  0
  4 24  1  0
  7 25  1  0
  9 26  1  0
 10 27  1  0
 14 28  1  0
 14 29  1  0
 16 30  1  0
 17 31  1  0
 20 32  1  0
 21 33  1  0
 22 34  1  0
M  END
>  <Ligand ID>  (1) 
LIG0001219

>  <Ligand>  (1) 
BDBM46582

>  <SMILES>  (1) 
Clc1ccc2c(c1)nccc2N=NCc1ccc(c(c1)O)O

>  <CID>  (1) 
91896687.0

>  <ChEMBL ID>  (1) 
nan

>  <InChiKey>  (1) 
NJXVUCBMPGIMQN-UHFFFAOYSA-N

>  <InChi>  (1) 
InChI=1S/C16H12ClN3O2/c17-11-2-3-12-13(5-6-18-14(12)8-11)20-19-9-10-1-4-15(21)16(22)7-10/h1-8,21-22H,9H2

>  <IUPAC Name>  (1) 
4-[[(7-chloroquinolin-4-yl)diazenyl]methyl]benzene-1,2-diol

$$$$
