
     RDKit          3D

 19 19  0  0  0  0  0  0  0  0999 V2000
    2.7147    1.1838   -0.3101 C   0  0  0  0  0  0  0  0  0  0  0  0
    2.0502   -0.0377   -0.3177 O   0  0  0  0  0  0  0  0  0  0  0  0
    0.7183   -0.2465   -0.1029 C   0  0  0  0  0  0  0  0  0  0  0  0
   -0.2067    0.7447    0.1631 C   0  0  0  0  0  0  0  0  0  0  0  0
   -1.5295    0.4018    0.3625 C   0  0  0  0  0  0  0  0  0  0  0  0
   -2.4879    1.4666    0.6419 C   0  0  0  0  0  0  0  0  0  0  0  0
   -2.1145    2.6701    0.6993 O   0  0  0  0  0  0  0  0  0  0  0  0
   -1.9889   -0.8991    0.3103 C   0  0  0  0  0  0  0  0  0  0  0  0
   -1.0594   -1.8869    0.0440 C   0  0  0  0  0  0  0  0  0  0  0  0
    0.2678   -1.5712   -0.1590 C   0  0  0  0  0  0  0  0  0  0  0  0
    1.1872   -2.6017   -0.4280 O   0  0  0  0  0  0  0  0  0  0  0  0
    3.7006    1.0849   -0.8349 H   0  0  0  0  0  0  0  0  0  0  0  0
    2.1624    1.9576   -0.9020 H   0  0  0  0  0  0  0  0  0  0  0  0
    2.8703    1.5416    0.7255 H   0  0  0  0  0  0  0  0  0  0  0  0
    0.1276    1.7640    0.2085 H   0  0  0  0  0  0  0  0  0  0  0  0
   -3.5331    1.2814    0.8083 H   0  0  0  0  0  0  0  0  0  0  0  0
   -3.0406   -1.1476    0.4714 H   0  0  0  0  0  0  0  0  0  0  0  0
   -1.3531   -2.9250   -0.0106 H   0  0  0  0  0  0  0  0  0  0  0  0
    1.5148   -2.7809   -1.3697 H   0  0  0  0  0  0  0  0  0  0  0  0
  1  2  1  0
  2  3  1  0
  3  4  2  0
  4  5  1  0
  5  6  1  0
  6  7  2  0
  5  8  2  0
  8  9  1  0
  9 10  2  0
 10 11  1  0
 10  3  1  0
  1 12  1  0
  1 13  1  0
  1 14  1  0
  4 15  1  0
  6 16  1  0
  8 17  1  0
  9 18  1  0
 11 19  1  0
M  END
>  <Ligand ID>  (1) 
LIG0000025

>  <Ligand>  (1) 
vanillin

>  <SMILES>  (1) 
COc1cc(C=O)ccc1O

>  <CID>  (1) 
1183.0

>  <ChEMBL ID>  (1) 
nan

>  <InChiKey>  (1) 
MWOOGOJBHIARFG-UHFFFAOYSA-N

>  <InChi>  (1) 
InChI=1S/C8H8O3/c1-11-8-4-6(5-9)2-3-7(8)10/h2-5,10H,1H3

>  <IUPAC Name>  (1) 
4-hydroxy-3-methoxybenzaldehyde

$$$$
