
     RDKit          3D

 76 79  0  0  0  0  0  0  0  0999 V2000
    4.7472   -3.7021    0.5139 N   0  0  0  0  0  0  0  0  0  0  0  0
    4.2466   -2.4015    0.7427 C   0  0  0  0  0  0  0  0  0  0  0  0
    4.8427   -1.6162    1.5464 O   0  0  0  0  0  0  0  0  0  0  0  0
    2.9869   -1.8926    0.0553 C   0  0  0  0  0  0  0  0  0  0  0  0
    2.4194   -0.8894    0.9831 C   0  0  0  0  0  0  0  0  0  0  0  0
    1.6882    0.1280    0.0290 C   0  0  0  0  0  0  0  0  0  0  0  0
    0.5325   -0.3548   -0.6169 C   0  0  0  0  0  0  0  0  0  0  0  0
    0.4556   -0.2925   -1.8590 O   0  0  0  0  0  0  0  0  0  0  0  0
   -0.5581   -0.7692    0.3085 N   0  0  0  0  0  0  0  0  0  0  0  0
   -1.7223   -0.8926   -0.4052 C   0  0  0  0  0  0  0  0  0  0  0  0
   -2.2626    0.4391   -0.8170 C   0  0  0  0  0  0  0  0  0  0  0  0
   -1.8857    0.7841   -1.9509 O   0  0  0  0  0  0  0  0  0  0  0  0
   -3.1088    1.1216   -0.0308 N   0  0  0  0  0  0  0  0  0  0  0  0
   -3.8127    2.3104   -0.2797 C   0  0  0  0  0  0  0  0  0  0  0  0
   -5.2500    1.9735    0.3115 C   0  0  0  0  0  0  0  0  0  0  0  0
   -5.7884    3.3491    0.3751 C   0  0  0  0  0  0  0  0  0  0  0  0
   -5.4015    3.9770    1.5737 C   0  0  0  0  0  0  0  0  0  0  0  0
   -5.5083    5.3348    1.5373 C   0  0  0  0  0  0  0  0  0  0  0  0
   -5.9950    6.0067    0.4747 C   0  0  0  0  0  0  0  0  0  0  0  0
   -6.3532    5.3535   -0.6507 C   0  0  0  0  0  0  0  0  0  0  0  0
   -6.2420    3.9486   -0.7218 C   0  0  0  0  0  0  0  0  0  0  0  0
   -2.1764   -1.9461   -1.2827 C   0  0  0  0  0  0  0  0  0  0  0  0
   -2.7069   -3.1554   -0.7409 C   0  0  0  0  0  0  0  0  0  0  0  0
   -4.1338   -3.2943   -0.7015 C   0  0  0  0  0  0  0  0  0  0  0  0
   -4.4023   -4.6290   -0.5554 N   0  0  0  0  0  0  0  0  0  0  0  0
   -3.2147   -5.3451   -0.4709 C   0  0  0  0  0  0  0  0  0  0  0  0
   -2.2291   -4.4025   -0.6112 C   0  0  0  0  0  0  0  0  0  0  0  0
   -0.9240   -4.8532   -0.3944 C   0  0  0  0  0  0  0  0  0  0  0  0
   -0.8590   -6.1616   -0.0680 C   0  0  0  0  0  0  0  0  0  0  0  0
   -1.7304   -7.1722    0.0312 C   0  0  0  0  0  0  0  0  0  0  0  0
   -3.0357   -6.6596   -0.2134 C   0  0  0  0  0  0  0  0  0  0  0  0
    2.8540    0.4642   -0.7694 N   0  0  0  0  0  0  0  0  0  0  0  0
    3.7996    1.4516   -0.3046 C   0  0  0  0  0  0  0  0  0  0  0  0
    3.4147    2.1935    0.5936 O   0  0  0  0  0  0  0  0  0  0  0  0
    5.1254    1.4122   -0.9011 C   0  0  0  0  0  0  0  0  0  0  0  0
    6.1952    2.2940   -0.2781 C   0  0  0  0  0  0  0  0  0  0  0  0
    6.0804    2.8607    0.9171 C   0  0  0  0  0  0  0  0  0  0  0  0
    6.9819    3.8310    1.3949 C   0  0  0  0  0  0  0  0  0  0  0  0
    8.0109    4.0728    0.5128 C   0  0  0  0  0  0  0  0  0  0  0  0
    8.2212    3.4874   -0.6957 C   0  0  0  0  0  0  0  0  0  0  0  0
    7.2623    2.5310   -1.1143 C   0  0  0  0  0  0  0  0  0  0  0  0
    4.2937   -4.5082    0.9243 H   0  0  0  0  0  0  0  0  0  0  0  0
    5.6172   -3.7047   -0.0718 H   0  0  0  0  0  0  0  0  0  0  0  0
    3.3747   -1.4304   -0.8680 H   0  0  0  0  0  0  0  0  0  0  0  0
    2.3674   -2.7739   -0.1275 H   0  0  0  0  0  0  0  0  0  0  0  0
    1.5453   -1.4541    1.4762 H   0  0  0  0  0  0  0  0  0  0  0  0
    2.9288   -0.4285    1.7620 H   0  0  0  0  0  0  0  0  0  0  0  0
    1.4504    0.9978    0.6400 H   0  0  0  0  0  0  0  0  0  0  0  0
   -0.4048   -0.9099    1.2814 H   0  0  0  0  0  0  0  0  0  0  0  0
   -2.5833   -1.2220    0.4838 H   0  0  0  0  0  0  0  0  0  0  0  0
   -3.1436    0.8356    1.0282 H   0  0  0  0  0  0  0  0  0  0  0  0
   -3.4519    3.2125    0.1484 H   0  0  0  0  0  0  0  0  0  0  0  0
   -3.9668    2.3717   -1.3962 H   0  0  0  0  0  0  0  0  0  0  0  0
   -5.0727    1.3849    1.1672 H   0  0  0  0  0  0  0  0  0  0  0  0
   -5.7087    1.3387   -0.5004 H   0  0  0  0  0  0  0  0  0  0  0  0
   -5.0771    3.4601    2.4367 H   0  0  0  0  0  0  0  0  0  0  0  0
   -5.2433    5.8981    2.4324 H   0  0  0  0  0  0  0  0  0  0  0  0
   -5.9344    7.1312    0.4702 H   0  0  0  0  0  0  0  0  0  0  0  0
   -6.7329    5.9019   -1.4890 H   0  0  0  0  0  0  0  0  0  0  0  0
   -6.6125    3.4269   -1.5560 H   0  0  0  0  0  0  0  0  0  0  0  0
   -1.1267   -2.3881   -1.8212 H   0  0  0  0  0  0  0  0  0  0  0  0
   -2.6363   -1.6984   -2.2208 H   0  0  0  0  0  0  0  0  0  0  0  0
   -4.8248   -2.4590   -0.7619 H   0  0  0  0  0  0  0  0  0  0  0  0
   -5.3996   -4.9791   -0.3586 H   0  0  0  0  0  0  0  0  0  0  0  0
   -0.1655   -4.1548   -0.3442 H   0  0  0  0  0  0  0  0  0  0  0  0
    0.1521   -6.4103    0.4079 H   0  0  0  0  0  0  0  0  0  0  0  0
   -1.5510   -8.1486    0.2368 H   0  0  0  0  0  0  0  0  0  0  0  0
   -3.8528   -7.3636   -0.2751 H   0  0  0  0  0  0  0  0  0  0  0  0
    2.9145    0.0883   -1.7744 H   0  0  0  0  0  0  0  0  0  0  0  0
    5.3018    1.1419   -1.8863 H   0  0  0  0  0  0  0  0  0  0  0  0
    5.5773    0.4185   -0.3032 H   0  0  0  0  0  0  0  0  0  0  0  0
    5.2966    2.6264    1.5879 H   0  0  0  0  0  0  0  0  0  0  0  0
    6.9697    4.2481    2.3676 H   0  0  0  0  0  0  0  0  0  0  0  0
    8.6569    4.9059    0.7702 H   0  0  0  0  0  0  0  0  0  0  0  0
    9.1059    3.6704   -1.2575 H   0  0  0  0  0  0  0  0  0  0  0  0
    7.3725    2.0795   -2.0523 H   0  0  0  0  0  0  0  0  0  0  0  0
  1  2  1  0
  2  3  2  0
  2  4  1  0
  4  5  1  0
  5  6  1  0
  6  7  1  0
  7  8  2  0
  7  9  1  0
  9 10  1  0
 10 11  1  0
 11 12  2  0
 11 13  1  0
 13 14  1  0
 14 15  1  0
 15 16  1  0
 16 17  2  0
 17 18  1  0
 18 19  2  0
 19 20  1  0
 20 21  2  0
 10 22  1  0
 22 23  1  0
 23 24  2  0
 24 25  1  0
 25 26  1  0
 26 27  2  0
 27 28  1  0
 28 29  2  0
 29 30  1  0
 30 31  2  0
  6 32  1  0
 32 33  1  0
 33 34  2  0
 33 35  1  0
 35 36  1  0
 36 37  2  0
 37 38  1  0
 38 39  2  0
 39 40  1  0
 40 41  2  0
 21 16  1  0
 27 23  1  0
 41 36  1  0
 31 26  1  0
  1 42  1  0
  1 43  1  0
  4 44  1  0
  4 45  1  0
  5 46  1  0
  5 47  1  0
  6 48  1  0
  9 49  1  0
 10 50  1  0
 13 51  1  0
 14 52  1  0
 14 53  1  0
 15 54  1  0
 15 55  1  0
 17 56  1  0
 18 57  1  0
 19 58  1  0
 20 59  1  0
 21 60  1  0
 22 61  1  0
 22 62  1  0
 24 63  1  0
 25 64  1  0
 28 65  1  0
 29 66  1  0
 30 67  1  0
 31 68  1  0
 32 69  1  0
 35 70  1  0
 35 71  1  0
 37 72  1  0
 38 73  1  0
 39 74  1  0
 40 75  1  0
 41 76  1  0
M  END
>  <Ligand ID>  (1) 
LIG0002684

>  <Ligand>  (1) 
CHEMBL417947

>  <SMILES>  (1) 
NC(=O)CCC(C(=O)NC(C(=O)NCCc1ccccc1)Cc1c[nH]c2c1cccc2)NC(=O)Cc1ccccc1

>  <CID>  (1) 
44300748.0

>  <ChEMBL ID>  (1) 
nan

>  <InChiKey>  (1) 
BCRZWUKUZGBBLX-UHFFFAOYSA-N

>  <InChi>  (1) 
InChI=1S/C32H35N5O4/c33-29(38)16-15-27(36-30(39)19-23-11-5-2-6-12-23)32(41)37-28(20-24-21-35-26-14-8-7-13-25(24)26)31(40)34-18-17-22-9-3-1-4-10-22/h1-14,21,27-28,35H,15-20H2,(H2,33,38)(H,34,40)(H,36,39)(H,37,41)

>  <IUPAC Name>  (1) 
N-[3-(1H-indol-3-yl)-1-oxo-1-(2-phenylethylamino)propan-2-yl]-2-[(2-phenylacetyl)amino]pentanediamide

$$$$
