
     RDKit          3D

 36 37  0  0  0  0  0  0  0  0999 V2000
   -5.4060    0.3126    0.4935 C   0  0  0  0  0  0  0  0  0  0  0  0
   -4.5981    1.5656    0.7580 C   0  0  0  0  0  0  0  0  0  0  0  0
   -3.3921    1.8579   -0.5635 S   0  0  0  0  0  0  0  0  0  0  0  0
   -2.1187    0.6174   -0.5876 C   0  0  0  0  0  0  0  0  0  0  0  0
   -0.9039    0.7989    0.0921 C   0  0  0  0  0  0  0  0  0  0  0  0
    0.0241   -0.2252    0.0209 C   0  0  0  0  0  0  0  0  0  0  0  0
    1.3703   -0.3899    0.5576 N   0  0  0  0  0  0  0  0  0  0  0  0
    1.4713   -1.8125    0.7791 C   0  0  0  0  0  0  0  0  0  0  0  0
    0.9651   -2.3054   -0.5862 C   0  0  0  0  0  0  0  0  0  0  0  0
   -0.2453   -1.4000   -0.7038 C   0  0  0  0  0  0  0  0  0  0  0  0
   -1.4467   -1.5683   -1.3684 C   0  0  0  0  0  0  0  0  0  0  0  0
   -2.3758   -0.5420   -1.2979 C   0  0  0  0  0  0  0  0  0  0  0  0
   -3.5471   -0.7455   -1.9612 F   0  0  0  0  0  0  0  0  0  0  0  0
    2.2516    0.7077    0.7117 C   0  0  0  0  0  0  0  0  0  0  0  0
    3.3541    0.8669   -0.2745 C   0  0  1  0  0  0  0  0  0  0  0  0
    4.1221    2.0569    0.1053 N   0  0  0  0  0  0  0  0  0  0  0  0
    4.3027   -0.2439   -0.4724 C   0  0  0  0  0  0  0  0  0  0  0  0
   -4.8274   -0.6079    0.6097 H   0  0  0  0  0  0  0  0  0  0  0  0
   -6.2201    0.2681    1.2453 H   0  0  0  0  0  0  0  0  0  0  0  0
   -5.9133    0.3594   -0.5032 H   0  0  0  0  0  0  0  0  0  0  0  0
   -4.1324    1.4868    1.7450 H   0  0  0  0  0  0  0  0  0  0  0  0
   -5.2924    2.4298    0.7687 H   0  0  0  0  0  0  0  0  0  0  0  0
   -0.6984    1.6896    0.6398 H   0  0  0  0  0  0  0  0  0  0  0  0
    2.4171   -2.2116    1.0841 H   0  0  0  0  0  0  0  0  0  0  0  0
    0.6372   -2.0678    1.4822 H   0  0  0  0  0  0  0  0  0  0  0  0
    1.7000   -1.9905   -1.3322 H   0  0  0  0  0  0  0  0  0  0  0  0
    0.7043   -3.3675   -0.5824 H   0  0  0  0  0  0  0  0  0  0  0  0
   -1.6287   -2.4797   -1.9159 H   0  0  0  0  0  0  0  0  0  0  0  0
    1.6845    1.6831    0.8627 H   0  0  0  0  0  0  0  0  0  0  0  0
    2.7658    0.5636    1.7188 H   0  0  0  0  0  0  0  0  0  0  0  0
    2.9091    1.1114   -1.2905 H   0  0  0  0  0  0  0  0  0  0  0  0
    3.4882    2.7814    0.4970 H   0  0  0  0  0  0  0  0  0  0  0  0
    4.6641    2.3648   -0.7203 H   0  0  0  0  0  0  0  0  0  0  0  0
    3.9910   -1.2520   -0.2481 H   0  0  0  0  0  0  0  0  0  0  0  0
    4.6494   -0.2593   -1.5571 H   0  0  0  0  0  0  0  0  0  0  0  0
    5.2744   -0.0530    0.0749 H   0  0  0  0  0  0  0  0  0  0  0  0
  1  2  1  0
  2  3  1  0
  3  4  1  0
  4  5  2  0
  5  6  1  0
  6  7  1  0
  7  8  1  0
  8  9  1  0
  9 10  1  0
 10 11  1  0
 11 12  2  0
 12 13  1  0
  7 14  1  0
 14 15  1  0
 15 16  1  0
 15 17  1  0
 12  4  1  0
 10  6  2  0
  1 18  1  0
  1 19  1  0
  1 20  1  0
  2 21  1  0
  2 22  1  0
  5 23  1  0
  8 24  1  0
  8 25  1  0
  9 26  1  0
  9 27  1  0
 11 28  1  0
 14 29  1  0
 14 30  1  0
 15 31  1  6
 16 32  1  0
 16 33  1  0
 17 34  1  0
 17 35  1  0
 17 36  1  0
M  END
>  <Ligand ID>  (1) 
LIG0004497

>  <Ligand>  (1) 
CHEMBL80731

>  <SMILES>  (1) 
CCSc1cc2N(CCc2cc1F)C[C@@H](N)C

>  <CID>  (1) 
44315697.0

>  <ChEMBL ID>  (1) 
nan

>  <InChiKey>  (1) 
KAWSTPLVSKOAGD-VIFPVBQESA-N

>  <InChi>  (1) 
InChI=1S/C13H19FN2S/c1-3-17-13-7-12-10(6-11(13)14)4-5-16(12)8-9(2)15/h6-7,9H,3-5,8,15H2,1-2H3/t9-/m0/s1

>  <IUPAC Name>  (1) 
(2S)-1-(6-ethylsulfanyl-5-fluoro-2,3-dihydroindol-1-yl)propan-2-amine

$$$$
