
     RDKit          3D

 42 43  0  0  0  0  0  0  0  0999 V2000
    1.7114    1.1656    0.8272 O   0  0  0  0  0  0  0  0  0  0  0  0
    1.1808    0.2234    0.1998 C   0  0  0  0  0  0  0  0  0  0  0  0
   -0.2097    0.3948   -0.2077 C   0  0  0  0  0  0  0  0  0  0  0  0
   -0.8545    1.5785    0.1205 C   0  0  0  0  0  0  0  0  0  0  0  0
   -2.1864    1.7874   -0.2489 C   0  0  0  0  0  0  0  0  0  0  0  0
   -2.8748    0.8259   -0.9408 C   0  0  0  0  0  0  0  0  0  0  0  0
   -2.2234   -0.3623   -1.2688 C   0  0  0  0  0  0  0  0  0  0  0  0
   -0.9163   -0.5637   -0.9046 C   0  0  0  0  0  0  0  0  0  0  0  0
   -4.2116    0.9939   -1.3312 O   0  0  0  0  0  0  0  0  0  0  0  0
   -5.2742    0.6094   -0.5272 C   0  0  0  0  0  0  0  0  0  0  0  0
   -5.8659    1.4422    0.3973 C   0  0  0  0  0  0  0  0  0  0  0  0
   -6.9169    0.9598    1.1459 C   0  0  0  0  0  0  0  0  0  0  0  0
   -7.3823   -0.3450    0.9804 C   0  0  0  0  0  0  0  0  0  0  0  0
   -6.7812   -1.1663    0.0525 C   0  0  0  0  0  0  0  0  0  0  0  0
   -5.7269   -0.7021   -0.7074 C   0  0  0  0  0  0  0  0  0  0  0  0
    1.9107   -0.9447   -0.0912 N   0  0  0  0  0  0  0  0  0  0  0  0
    3.2795   -1.0621    0.3340 C   0  0  0  0  0  0  0  0  0  0  0  0
    4.2078   -0.0331   -0.2052 C   0  0  0  0  0  0  0  0  0  0  0  0
    5.5404   -0.3288    0.3442 N   0  0  0  0  0  0  0  0  0  0  0  0
    6.3866    0.8282    0.3572 C   0  0  0  0  0  0  0  0  0  0  0  0
    6.1312   -1.3750   -0.4876 C   0  0  0  0  0  0  0  0  0  0  0  0
   -0.3513    2.3654    0.6657 H   0  0  0  0  0  0  0  0  0  0  0  0
   -2.6753    2.6946    0.0045 H   0  0  0  0  0  0  0  0  0  0  0  0
   -2.7603   -1.1279   -1.8158 H   0  0  0  0  0  0  0  0  0  0  0  0
   -0.4511   -1.4811   -1.1711 H   0  0  0  0  0  0  0  0  0  0  0  0
   -5.5003    2.4469    0.5180 H   0  0  0  0  0  0  0  0  0  0  0  0
   -7.4071    1.5793    1.8797 H   0  0  0  0  0  0  0  0  0  0  0  0
   -8.1969   -0.7352    1.5533 H   0  0  0  0  0  0  0  0  0  0  0  0
   -7.0879   -2.1906   -0.1314 H   0  0  0  0  0  0  0  0  0  0  0  0
   -5.2459   -1.3532   -1.4472 H   0  0  0  0  0  0  0  0  0  0  0  0
    1.4931   -1.7357   -0.6081 H   0  0  0  0  0  0  0  0  0  0  0  0
    3.2733   -0.9218    1.4546 H   0  0  0  0  0  0  0  0  0  0  0  0
    3.6960   -2.0719    0.1832 H   0  0  0  0  0  0  0  0  0  0  0  0
    3.9393    0.9603    0.1505 H   0  0  0  0  0  0  0  0  0  0  0  0
    4.3410   -0.0925   -1.3077 H   0  0  0  0  0  0  0  0  0  0  0  0
    5.4788   -0.7296    1.3066 H   0  0  0  0  0  0  0  0  0  0  0  0
    6.2788    1.4320   -0.5452 H   0  0  0  0  0  0  0  0  0  0  0  0
    6.1085    1.4534    1.2191 H   0  0  0  0  0  0  0  0  0  0  0  0
    7.4225    0.4734    0.5207 H   0  0  0  0  0  0  0  0  0  0  0  0
    5.7702   -2.3454   -0.1331 H   0  0  0  0  0  0  0  0  0  0  0  0
    5.7102   -1.2421   -1.5193 H   0  0  0  0  0  0  0  0  0  0  0  0
    7.2403   -1.3045   -0.5144 H   0  0  0  0  0  0  0  0  0  0  0  0
  1  2  2  0
  2  3  1  0
  3  4  2  0
  4  5  1  0
  5  6  2  0
  6  7  1  0
  7  8  2  0
  6  9  1  0
  9 10  1  0
 10 11  2  0
 11 12  1  0
 12 13  2  0
 13 14  1  0
 14 15  2  0
  2 16  1  0
 16 17  1  0
 17 18  1  0
 18 19  1  0
 19 20  1  0
 19 21  1  0
  8  3  1  0
 15 10  1  0
  4 22  1  0
  5 23  1  0
  7 24  1  0
  8 25  1  0
 11 26  1  0
 12 27  1  0
 13 28  1  0
 14 29  1  0
 15 30  1  0
 16 31  1  0
 17 32  1  0
 17 33  1  0
 18 34  1  0
 18 35  1  0
 19 36  1  0
 20 37  1  0
 20 38  1  0
 20 39  1  0
 21 40  1  0
 21 41  1  0
 21 42  1  0
M  CHG  1  19   1
M  END
>  <Ligand ID>  (1) 
LIG0005554

>  <Ligand>  (1) 
CHEMBL375469

>  <SMILES>  (1) 
O=C(c1ccc(cc1)Oc1ccccc1)NCC[NH+](C)C

>  <CID>  (1) 
91935912.0

>  <ChEMBL ID>  (1) 
nan

>  <InChiKey>  (1) 
YKGSGYMSKLXEIL-UHFFFAOYSA-O

>  <InChi>  (1) 
InChI=1S/C17H20N2O2/c1-19(2)13-12-18-17(20)14-8-10-16(11-9-14)21-15-6-4-3-5-7-15/h3-11H,12-13H2,1-2H3,(H,18,20)/p+1

>  <IUPAC Name>  (1) 
dimethyl-[2-[(4-phenoxybenzoyl)amino]ethyl]azanium

$$$$
