
     RDKit          3D

 41 42  0  0  0  0  0  0  0  0999 V2000
    0.5660    1.7058   -1.8193 O   0  0  0  0  0  0  0  0  0  0  0  0
    0.5111    0.4173   -1.2625 C   0  0  2  0  0  0  0  0  0  0  0  0
    0.2957    0.5766    0.2044 C   0  0  1  0  0  0  0  0  0  0  0  0
   -0.9799   -0.1406    0.5852 C   0  0  0  0  0  0  0  0  0  0  0  0
   -2.0993    0.3751   -0.0271 O   0  0  0  0  0  0  0  0  0  0  0  0
   -3.5163   -0.4013    0.3787 P   0  0  0  0  0  0  0  0  0  0  0  0
   -3.4063   -1.3091    1.5575 O   0  0  0  0  0  0  0  0  0  0  0  0
   -4.8871    0.7865    0.6393 C   0  0  0  0  0  0  0  0  0  0  0  0
   -6.4520   -0.0866    0.7368 P   0  0  0  0  0  0  0  0  0  0  0  0
   -7.5196    0.6255   -0.0819 O   0  0  0  0  0  0  0  0  0  0  0  0
   -6.3418   -1.6704    0.1747 O   0  0  0  0  0  0  0  0  0  0  0  0
   -7.0245   -0.1195    2.3265 O   0  0  0  0  0  0  0  0  0  0  0  0
   -4.9406    1.6042   -0.4877 F   0  0  0  0  0  0  0  0  0  0  0  0
   -4.7149    1.5417    1.7675 F   0  0  0  0  0  0  0  0  0  0  0  0
   -3.9833   -1.3210   -0.9878 O   0  0  0  0  0  0  0  0  0  0  0  0
    1.4239    0.0251    0.8475 O   0  0  0  0  0  0  0  0  0  0  0  0
    2.4316    0.4391   -0.0073 C   0  0  2  0  0  0  0  0  0  0  0  0
    1.9331   -0.1320   -1.3204 C   0  0  2  0  0  0  0  0  0  0  0  0
    2.6278    0.3721   -2.4140 O   0  0  0  0  0  0  0  0  0  0  0  0
    3.7566    0.0743    0.3378 N   0  0  0  0  0  0  0  0  0  0  0  0
    4.0866   -1.1655    0.7123 C   0  0  0  0  0  0  0  0  0  0  0  0
    5.3968   -1.4978    1.0464 C   0  0  0  0  0  0  0  0  0  0  0  0
    5.9205   -3.4559    1.6384 I   0  0  0  0  0  0  0  0  0  0  0  0
    6.3962   -0.5297    0.9943 C   0  0  0  0  0  0  0  0  0  0  0  0
    7.6019   -0.8118    1.2958 O   0  0  0  0  0  0  0  0  0  0  0  0
    6.0242    0.7022    0.6137 N   0  0  0  0  0  0  0  0  0  0  0  0
    4.7589    1.0036    0.2960 C   0  0  0  0  0  0  0  0  0  0  0  0
    4.4564    2.1900   -0.0598 O   0  0  0  0  0  0  0  0  0  0  0  0
    0.0941    2.3690   -1.2227 H   0  0  0  0  0  0  0  0  0  0  0  0
   -0.2072   -0.2285   -1.7808 H   0  0  0  0  0  0  0  0  0  0  0  0
    0.2564    1.6307    0.5481 H   0  0  0  0  0  0  0  0  0  0  0  0
   -0.8769   -1.2331    0.4772 H   0  0  0  0  0  0  0  0  0  0  0  0
   -1.1249    0.0278    1.6860 H   0  0  0  0  0  0  0  0  0  0  0  0
   -6.6361   -1.6944   -0.7687 H   0  0  0  0  0  0  0  0  0  0  0  0
   -6.3953    0.3851    2.8901 H   0  0  0  0  0  0  0  0  0  0  0  0
   -4.2641   -2.2235   -0.7573 H   0  0  0  0  0  0  0  0  0  0  0  0
    2.3601    1.5482   -0.1270 H   0  0  0  0  0  0  0  0  0  0  0  0
    1.9340   -1.2519   -1.3252 H   0  0  0  0  0  0  0  0  0  0  0  0
    2.4395    1.3634   -2.4224 H   0  0  0  0  0  0  0  0  0  0  0  0
    3.3307   -1.9367    0.7614 H   0  0  0  0  0  0  0  0  0  0  0  0
    6.7680    1.4462    0.5691 H   0  0  0  0  0  0  0  0  0  0  0  0
  1  2  1  0
  2  3  1  0
  3  4  1  0
  4  5  1  0
  5  6  1  0
  6  7  2  0
  6  8  1  0
  8  9  1  0
  9 10  2  0
  9 11  1  0
  9 12  1  0
  8 13  1  0
  8 14  1  0
  6 15  1  0
  3 16  1  0
 16 17  1  0
 17 18  1  0
 18 19  1  0
 17 20  1  0
 20 21  1  0
 21 22  2  0
 22 23  1  0
 22 24  1  0
 24 25  2  0
 24 26  1  0
 26 27  1  0
 27 28  2  0
 18  2  1  0
 27 20  1  0
  1 29  1  0
  2 30  1  6
  3 31  1  6
  4 32  1  0
  4 33  1  0
 11 34  1  0
 12 35  1  0
 15 36  1  0
 17 37  1  6
 18 38  1  1
 19 39  1  0
 21 40  1  0
 26 41  1  0
M  END
>  <Ligand ID>  (1) 
LIG0005739

>  <Ligand>  (1) 
CHEMBL566925

>  <SMILES>  (1) 
O[C@@H]1[C@@H](COP(=O)(C(P(=O)(O)O)(F)F)O)O[C@H]([C@@H]1O)n1cc(I)c(=O)[nH]c1=O

>  <CID>  (1) 
45485237.0

>  <ChEMBL ID>  (1) 
nan

>  <InChiKey>  (1) 
AVZZQPCQWAZPGG-UAKXSSHOSA-N

>  <InChi>  (1) 
InChI=1S/C10H13F2IN2O11P2/c11-10(12,27(20,21)22)28(23,24)25-2-4-5(16)6(17)8(26-4)15-1-3(13)7(18)14-9(15)19/h1,4-6,8,16-17H,2H2,(H,23,24)(H,14,18,19)(H2,20,21,22)/t4-,5-,6-,8-/m1/s1

>  <IUPAC Name>  (1) 
[[[(2R,3S,4R,5R)-3,4-dihydroxy-5-(5-iodo-2,4-dioxopyrimidin-1-yl)oxolan-2-yl]methoxy-hydroxyphosphoryl]-difluoromethyl]phosphonic acid

$$$$
