
     RDKit          3D

 96100  0  0  0  0  0  0  0  0999 V2000
    1.7753    1.2379   -1.8854 O   0  0  0  0  0  0  0  0  0  0  0  0
    2.7472    0.5295   -1.2377 C   0  0  2  0  0  0  0  0  0  0  0  0
    2.1996   -0.3477   -0.0964 C   0  0  1  0  0  0  0  0  0  0  0  0
    1.4108   -1.5106   -0.5188 C   0  0  0  0  0  0  0  0  0  0  0  0
    0.4508   -1.0441   -1.4558 O   0  0  0  0  0  0  0  0  0  0  0  0
   -1.0476   -0.7734   -0.7649 P   0  0  0  0  0  0  0  0  0  0  0  0
   -1.9882   -0.3766   -1.8745 O   0  0  0  0  0  0  0  0  0  0  0  0
   -1.6406   -2.0928    0.0969 O   0  0  0  0  0  0  0  0  0  0  0  0
   -3.1172   -2.6269   -0.4680 P   0  0  0  0  0  0  0  0  0  0  0  0
   -3.5746   -3.7666    0.4468 O   0  0  0  0  0  0  0  0  0  0  0  0
   -4.3237   -1.4831   -0.5205 O   0  0  0  0  0  0  0  0  0  0  0  0
   -4.2932   -0.3423    0.6910 P   0  0  0  0  0  0  0  0  0  0  0  0
   -3.3854   -0.6785    1.8404 O   0  0  0  0  0  0  0  0  0  0  0  0
   -5.8632   -0.2301    1.3682 O   0  0  0  0  0  0  0  0  0  0  0  0
   -6.4062    1.3532    1.4636 P   0  0  0  0  0  0  0  0  0  0  0  0
   -5.5833    2.2966    0.6198 O   0  0  0  0  0  0  0  0  0  0  0  0
   -8.0210    1.3320    0.8930 O   0  0  0  0  0  0  0  0  0  0  0  0
   -7.9787    1.3794   -0.5022 C   0  0  0  0  0  0  0  0  0  0  0  0
   -9.3615    1.1089   -1.0870 C   0  0  1  0  0  0  0  0  0  0  0  0
   -9.8195   -0.1430   -0.7047 O   0  0  0  0  0  0  0  0  0  0  0  0
  -11.1781   -0.1199   -0.9854 C   0  0  2  0  0  0  0  0  0  0  0  0
  -11.6773    1.2833   -0.7444 C   0  0  1  0  0  0  0  0  0  0  0  0
  -10.3911    2.0375   -0.4840 C   0  0  2  0  0  0  0  0  0  0  0  0
  -10.3799    3.2923   -1.0971 O   0  0  0  0  0  0  0  0  0  0  0  0
  -12.2538    1.7906   -1.9053 O   0  0  0  0  0  0  0  0  0  0  0  0
  -11.8798   -1.0834   -0.1304 N   0  0  0  0  0  0  0  0  0  0  0  0
  -11.4769   -1.0764    1.1696 C   0  0  0  0  0  0  0  0  0  0  0  0
  -12.0665   -1.9450    2.0515 C   0  0  0  0  0  0  0  0  0  0  0  0
  -13.0459   -2.7894    1.5817 C   0  0  0  0  0  0  0  0  0  0  0  0
  -13.5854   -3.5825    2.3871 O   0  0  0  0  0  0  0  0  0  0  0  0
  -13.3966   -2.7422    0.2823 N   0  0  0  0  0  0  0  0  0  0  0  0
  -12.8323   -1.9001   -0.5984 C   0  0  0  0  0  0  0  0  0  0  0  0
  -13.1517   -1.8487   -1.8109 O   0  0  0  0  0  0  0  0  0  0  0  0
   -6.3971    1.9374    3.0524 O   0  0  0  0  0  0  0  0  0  0  0  0
   -3.9052    1.1595   -0.0251 O   0  0  0  0  0  0  0  0  0  0  0  0
   -2.8663   -3.3511   -1.9915 O   0  0  0  0  0  0  0  0  0  0  0  0
   -0.9535    0.5147    0.3681 O   0  0  0  0  0  0  0  0  0  0  0  0
    3.2261   -0.4934    0.7796 O   0  0  0  0  0  0  0  0  0  0  0  0
    4.1707    0.5369    0.5718 C   0  0  2  0  0  0  0  0  0  0  0  0
    3.4965    1.4776   -0.3045 C   0  0  2  0  0  0  0  0  0  0  0  0
    2.4351    2.0430    0.4720 O   0  0  0  0  0  0  0  0  0  0  0  0
    5.3785   -0.0940    0.1756 N   0  0  0  0  0  0  0  0  0  0  0  0
    5.8151   -1.1408    0.9450 C   0  0  0  0  0  0  0  0  0  0  0  0
    6.9923   -1.8012    0.6362 C   0  0  0  0  0  0  0  0  0  0  0  0
    7.6834   -1.3588   -0.4593 C   0  0  0  0  0  0  0  0  0  0  0  0
    7.2415   -0.3302   -1.2044 N   0  0  0  0  0  0  0  0  0  0  0  0
    6.0872    0.3162   -0.9013 C   0  0  0  0  0  0  0  0  0  0  0  0
    5.7619    1.2498   -1.6470 O   0  0  0  0  0  0  0  0  0  0  0  0
    8.9429   -1.9269   -0.8816 N   0  0  0  0  0  0  0  0  0  0  0  0
    9.9323   -0.9775   -1.0043 O   0  0  0  0  0  0  0  0  0  0  0  0
    9.9042   -0.1334    0.1137 C   0  0  0  0  0  0  0  0  0  0  0  0
   10.3517    1.2308   -0.3234 C   0  0  0  0  0  0  0  0  0  0  0  0
   11.7319    1.2297   -0.8854 C   0  0  0  0  0  0  0  0  0  0  0  0
   12.7979    0.7916    0.0095 C   0  0  0  0  0  0  0  0  0  0  0  0
   13.2231   -0.5085    0.1779 C   0  0  0  0  0  0  0  0  0  0  0  0
   14.2597   -0.8189    1.0429 C   0  0  0  0  0  0  0  0  0  0  0  0
   14.8975    0.1483    1.7588 C   0  0  0  0  0  0  0  0  0  0  0  0
   14.4989    1.4597    1.6153 C   0  0  0  0  0  0  0  0  0  0  0  0
   13.4608    1.7728    0.7500 C   0  0  0  0  0  0  0  0  0  0  0  0
    1.7548    1.0144   -2.8496 H   0  0  0  0  0  0  0  0  0  0  0  0
    3.3847   -0.0857   -1.8627 H   0  0  0  0  0  0  0  0  0  0  0  0
    1.4692    0.3771    0.4185 H   0  0  0  0  0  0  0  0  0  0  0  0
    1.9939   -2.3522   -0.9337 H   0  0  0  0  0  0  0  0  0  0  0  0
    0.7964   -1.9157    0.3075 H   0  0  0  0  0  0  0  0  0  0  0  0
   -7.3047    0.5996   -0.9016 H   0  0  0  0  0  0  0  0  0  0  0  0
   -7.6398    2.3570   -0.8988 H   0  0  0  0  0  0  0  0  0  0  0  0
   -9.3109    1.1646   -2.1759 H   0  0  0  0  0  0  0  0  0  0  0  0
  -11.2802   -0.4303   -2.0574 H   0  0  0  0  0  0  0  0  0  0  0  0
  -12.3737    1.3364    0.1222 H   0  0  0  0  0  0  0  0  0  0  0  0
  -10.1994    2.1162    0.6079 H   0  0  0  0  0  0  0  0  0  0  0  0
  -10.1792    3.9569   -0.3922 H   0  0  0  0  0  0  0  0  0  0  0  0
  -11.7208    2.5241   -2.3156 H   0  0  0  0  0  0  0  0  0  0  0  0
  -10.7104   -0.4185    1.5380 H   0  0  0  0  0  0  0  0  0  0  0  0
  -11.7384   -1.9300    3.0811 H   0  0  0  0  0  0  0  0  0  0  0  0
  -14.1445   -3.4037   -0.0147 H   0  0  0  0  0  0  0  0  0  0  0  0
   -6.0130    2.8676    3.0910 H   0  0  0  0  0  0  0  0  0  0  0  0
   -4.1061    1.1563   -0.9889 H   0  0  0  0  0  0  0  0  0  0  0  0
   -1.8951   -3.6008   -2.1138 H   0  0  0  0  0  0  0  0  0  0  0  0
   -0.7756    0.1704    1.2758 H   0  0  0  0  0  0  0  0  0  0  0  0
    4.2775    1.0099    1.6036 H   0  0  0  0  0  0  0  0  0  0  0  0
    3.9715    2.3150   -0.7535 H   0  0  0  0  0  0  0  0  0  0  0  0
    2.8503    2.6198    1.1637 H   0  0  0  0  0  0  0  0  0  0  0  0
    5.2528   -1.4739    1.8074 H   0  0  0  0  0  0  0  0  0  0  0  0
    7.3703   -2.6321    1.2118 H   0  0  0  0  0  0  0  0  0  0  0  0
    9.0851   -2.9266   -1.0733 H   0  0  0  0  0  0  0  0  0  0  0  0
   10.6262   -0.5143    0.8678 H   0  0  0  0  0  0  0  0  0  0  0  0
    8.9177   -0.1266    0.5740 H   0  0  0  0  0  0  0  0  0  0  0  0
   10.1615    2.0157    0.4406 H   0  0  0  0  0  0  0  0  0  0  0  0
    9.6676    1.4993   -1.1882 H   0  0  0  0  0  0  0  0  0  0  0  0
   11.7122    0.5092   -1.7547 H   0  0  0  0  0  0  0  0  0  0  0  0
   11.9389    2.2213   -1.3537 H   0  0  0  0  0  0  0  0  0  0  0  0
   12.7091   -1.2685   -0.3975 H   0  0  0  0  0  0  0  0  0  0  0  0
   14.5946   -1.8478    1.1707 H   0  0  0  0  0  0  0  0  0  0  0  0
   15.7021   -0.0666    2.4283 H   0  0  0  0  0  0  0  0  0  0  0  0
   14.9709    2.2739    2.1580 H   0  0  0  0  0  0  0  0  0  0  0  0
   13.1528    2.8171    0.6492 H   0  0  0  0  0  0  0  0  0  0  0  0
  1  2  1  0
  2  3  1  0
  3  4  1  0
  4  5  1  0
  5  6  1  0
  6  7  2  0
  6  8  1  0
  8  9  1  0
  9 10  2  0
  9 11  1  0
 11 12  1  0
 12 13  2  0
 12 14  1  0
 14 15  1  0
 15 16  2  0
 15 17  1  0
 17 18  1  0
 18 19  1  0
 19 20  1  0
 20 21  1  0
 21 22  1  0
 22 23  1  0
 23 24  1  0
 22 25  1  0
 21 26  1  0
 26 27  1  0
 27 28  2  0
 28 29  1  0
 29 30  2  0
 29 31  1  0
 31 32  1  0
 32 33  2  0
 15 34  1  0
 12 35  1  0
  9 36  1  0
  6 37  1  0
  3 38  1  0
 38 39  1  0
 39 40  1  0
 40 41  1  0
 39 42  1  0
 42 43  1  0
 43 44  2  0
 44 45  1  0
 45 46  2  0
 46 47  1  0
 47 48  2  0
 45 49  1  0
 49 50  1  0
 50 51  1  0
 51 52  1  0
 52 53  1  0
 53 54  1  0
 54 55  2  0
 55 56  1  0
 56 57  2  0
 57 58  1  0
 58 59  2  0
 40  2  1  0
 47 42  1  0
 59 54  1  0
 23 19  1  0
 32 26  1  0
  1 60  1  0
  2 61  1  6
  3 62  1  1
  4 63  1  0
  4 64  1  0
 18 65  1  0
 18 66  1  0
 19 67  1  6
 21 68  1  6
 22 69  1  1
 23 70  1  1
 24 71  1  0
 25 72  1  0
 27 73  1  0
 28 74  1  0
 31 75  1  0
 34 76  1  0
 35 77  1  0
 36 78  1  0
 37 79  1  0
 39 80  1  1
 40 81  1  6
 41 82  1  0
 43 83  1  0
 44 84  1  0
 49 85  1  0
 51 86  1  0
 51 87  1  0
 52 88  1  0
 52 89  1  0
 53 90  1  0
 53 91  1  0
 55 92  1  0
 56 93  1  0
 57 94  1  0
 58 95  1  0
 59 96  1  0
M  END
>  <Ligand ID>  (1) 
LIG0002680

>  <Ligand>  (1) 
CHEMBL3261379

>  <SMILES>  (1) 
O[C@@H]1[C@@H](COP(=O)(OP(=O)(OP(=O)(OP(=O)(OC[C@H]2O[C@H]([C@@H]([C@@H]2O)O)n2ccc(=O)[nH]c2=O)O)O)O)O)O[C@H]([C@@H]1O)n1ccc(nc1=O)NOCCCc1ccccc1

>  <CID>  (1) 
90656231.0

>  <ChEMBL ID>  (1) 
nan

>  <InChiKey>  (1) 
FNDQFKHGGXLPEC-MQCKZRQRSA-N

>  <InChi>  (1) 
InChI=1S/C27H37N5O23P4/c33-19-9-11-32(27(39)29-19)25-23(37)21(35)17(52-25)14-50-57(42,43)54-59(46,47)55-58(44,45)53-56(40,41)49-13-16-20(34)22(36)24(51-16)31-10-8-18(28-26(31)38)30-48-12-4-7-15-5-2-1-3-6-15/h1-3,5-6,8-11,16-17,20-25,34-37H,4,7,12-14H2,(H,40,41)(H,42,43)(H,44,45)(H,46,47)(H,28,30,38)(H,29,33,39)/t16-,17-,20-,21-,22-,23-,24-,25-/m1/s1

>  <IUPAC Name>  (1) 
[[(2R,3S,4R,5R)-3,4-dihydroxy-5-[2-oxo-4-(3-phenylpropoxyamino)pyrimidin-1-yl]oxolan-2-yl]methoxy-hydroxyphosphoryl] [[[(2R,3S,4R,5R)-5-(2,4-dioxopyrimidin-1-yl)-3,4-dihydroxyoxolan-2-yl]methoxy-hydroxyphosphoryl]oxy-hydroxyphosphoryl] hydrogen phosphate

$$$$
