
     RDKit          3D

126131  0  0  0  0  0  0  0  0999 V2000
   -3.5056   -2.6268    3.1811 C   0  0  0  0  0  0  0  0  0  0  0  0
   -4.8231   -3.2686    2.9490 C   0  0  0  0  0  0  0  0  0  0  0  0
   -5.4783   -3.0646    1.6352 C   0  0  0  0  0  0  0  0  0  0  0  0
   -4.9688   -3.5685    0.3817 C   0  0  0  0  0  0  0  0  0  0  0  0
   -3.7165   -3.3615   -0.2636 C   0  0  2  0  0  0  0  0  0  0  0  0
   -2.4944   -3.8256    0.3328 N   0  0  0  0  0  0  0  0  0  0  0  0
   -1.2743   -4.0098   -0.4548 C   0  0  0  0  0  0  0  0  0  0  0  0
   -1.3906   -3.8258   -1.6498 O   0  0  0  0  0  0  0  0  0  0  0  0
   -0.0029   -4.3961    0.2635 C   0  0  0  0  0  0  0  0  0  0  0  0
    1.1188   -3.9359   -0.6396 C   0  0  0  0  0  0  0  0  0  0  0  0
    2.4107   -4.0498    0.1841 C   0  0  2  0  0  0  0  0  0  0  0  0
    3.4741   -3.3508   -0.5270 N   0  0  0  0  0  0  0  0  0  0  0  0
    3.4359   -1.8846   -0.3567 C   0  0  0  0  0  0  0  0  0  0  0  0
    2.4679   -1.5437    0.3259 O   0  0  0  0  0  0  0  0  0  0  0  0
    4.4700   -1.0307   -0.9837 C   0  0  1  0  0  0  0  0  0  0  0  0
    4.0279    0.3436   -1.2386 N   0  0  0  0  0  0  0  0  0  0  0  0
    3.0566    1.0960   -0.5995 C   0  0  0  0  0  0  0  0  0  0  0  0
    2.4984    0.6922    0.4062 O   0  0  0  0  0  0  0  0  0  0  0  0
    2.5986    2.4785   -1.0756 C   0  0  1  0  0  0  0  0  0  0  0  0
    1.4816    2.8115   -0.1640 N   0  0  0  0  0  0  0  0  0  0  0  0
    0.1918    2.5285   -0.6541 C   0  0  0  0  0  0  0  0  0  0  0  0
    0.0974    2.0681   -1.7913 O   0  0  0  0  0  0  0  0  0  0  0  0
   -1.0926    2.7401    0.1066 C   0  0  2  0  0  0  0  0  0  0  0  0
   -2.1764    2.2103   -0.7538 N   0  0  0  0  0  0  0  0  0  0  0  0
   -2.8587    0.9925   -0.3935 C   0  0  0  0  0  0  0  0  0  0  0  0
   -2.5621    0.5526    0.7227 O   0  0  0  0  0  0  0  0  0  0  0  0
   -3.8310    0.3620   -1.3363 C   0  0  1  0  0  0  0  0  0  0  0  0
   -4.3370   -0.9138   -0.8645 N   0  0  0  0  0  0  0  0  0  0  0  0
   -3.3874   -1.9316   -0.6217 C   0  0  0  0  0  0  0  0  0  0  0  0
   -2.1932   -1.5874   -0.7058 O   0  0  0  0  0  0  0  0  0  0  0  0
   -4.8322    1.2973   -1.8671 C   0  0  0  0  0  0  0  0  0  0  0  0
   -5.7283    0.5255   -2.7813 C   0  0  0  0  0  0  0  0  0  0  0  0
   -6.9123   -0.1209   -2.4154 C   0  0  0  0  0  0  0  0  0  0  0  0
   -7.3999   -0.6859   -3.5255 N   0  0  0  0  0  0  0  0  0  0  0  0
   -6.5478   -0.3984   -4.5451 C   0  0  0  0  0  0  0  0  0  0  0  0
   -5.5212    0.3453   -4.0908 N   0  0  0  0  0  0  0  0  0  0  0  0
   -1.3964    4.1655    0.3907 C   0  0  0  0  0  0  0  0  0  0  0  0
   -2.6841    4.2724    1.1519 C   0  0  0  0  0  0  0  0  0  0  0  0
   -3.8634    4.3943    0.4318 C   0  0  0  0  0  0  0  0  0  0  0  0
   -5.0894    4.4812    1.0513 C   0  0  0  0  0  0  0  0  0  0  0  0
   -5.0828    4.4405    2.4323 C   0  0  0  0  0  0  0  0  0  0  0  0
   -3.9533    4.3211    3.1978 C   0  0  0  0  0  0  0  0  0  0  0  0
   -2.7453    4.2383    2.5162 C   0  0  0  0  0  0  0  0  0  0  0  0
   -4.0372    4.2910    4.5757 C   0  0  0  0  0  0  0  0  0  0  0  0
   -5.2502    4.3778    5.2467 C   0  0  0  0  0  0  0  0  0  0  0  0
   -6.3806    4.4975    4.4573 C   0  0  0  0  0  0  0  0  0  0  0  0
   -6.2933    4.5277    3.0777 C   0  0  0  0  0  0  0  0  0  0  0  0
    3.7267    3.4257   -0.8631 C   0  0  0  0  0  0  0  0  0  0  0  0
    3.4314    4.8267   -1.2775 C   0  0  0  0  0  0  0  0  0  0  0  0
    3.0690    4.9996   -2.7260 C   0  0  0  0  0  0  0  0  0  0  0  0
    4.1456    4.5689   -3.5607 N   0  0  0  0  0  0  0  0  0  0  0  0
    5.2641    5.1646   -3.6750 C   0  0  0  0  0  0  0  0  0  0  0  0
    5.5871    6.3756   -2.9596 N   0  0  0  0  0  0  0  0  0  0  0  0
    6.2626    4.6316   -4.5479 N   0  0  0  0  0  0  0  0  0  0  0  0
    5.7471   -0.9867   -0.2000 C   0  0  0  0  0  0  0  0  0  0  0  0
    6.3669   -2.2839    0.0257 C   0  0  0  0  0  0  0  0  0  0  0  0
    7.3561   -2.9410   -0.7066 C   0  0  0  0  0  0  0  0  0  0  0  0
    7.6234   -4.1313   -0.1519 N   0  0  0  0  0  0  0  0  0  0  0  0
    6.8331   -4.2822    0.9349 C   0  0  0  0  0  0  0  0  0  0  0  0
    6.0392   -3.1447    1.0696 C   0  0  0  0  0  0  0  0  0  0  0  0
    5.1828   -3.1267    2.1401 C   0  0  0  0  0  0  0  0  0  0  0  0
    5.0666   -4.1410    3.0633 C   0  0  0  0  0  0  0  0  0  0  0  0
    5.8504   -5.2573    2.9228 C   0  0  0  0  0  0  0  0  0  0  0  0
    6.7373   -5.3291    1.8551 C   0  0  0  0  0  0  0  0  0  0  0  0
    2.7360   -5.4471    0.3719 C   0  0  0  0  0  0  0  0  0  0  0  0
    2.0559   -6.3015    1.0036 O   0  0  0  0  0  0  0  0  0  0  0  0
    3.9559   -5.9628   -0.2046 N   0  0  0  0  0  0  0  0  0  0  0  0
   -2.7506   -3.3505    3.5705 H   0  0  0  0  0  0  0  0  0  0  0  0
   -3.5873   -1.8704    4.0221 H   0  0  0  0  0  0  0  0  0  0  0  0
   -3.1301   -2.0163    2.3323 H   0  0  0  0  0  0  0  0  0  0  0  0
   -4.7221   -4.3683    3.1842 H   0  0  0  0  0  0  0  0  0  0  0  0
   -5.5090   -2.9158    3.7897 H   0  0  0  0  0  0  0  0  0  0  0  0
   -6.5575   -3.4621    1.8050 H   0  0  0  0  0  0  0  0  0  0  0  0
   -5.7178   -1.9476    1.6150 H   0  0  0  0  0  0  0  0  0  0  0  0
   -5.1096   -4.7338    0.4506 H   0  0  0  0  0  0  0  0  0  0  0  0
   -5.8435   -3.3963   -0.3869 H   0  0  0  0  0  0  0  0  0  0  0  0
   -3.7555   -3.8374   -1.3103 H   0  0  0  0  0  0  0  0  0  0  0  0
   -2.3432   -4.0944    1.3081 H   0  0  0  0  0  0  0  0  0  0  0  0
    0.0667   -3.8763    1.2323 H   0  0  0  0  0  0  0  0  0  0  0  0
    0.0097   -5.4898    0.4446 H   0  0  0  0  0  0  0  0  0  0  0  0
    1.1818   -4.6538   -1.4796 H   0  0  0  0  0  0  0  0  0  0  0  0
    0.9653   -2.9420   -1.0379 H   0  0  0  0  0  0  0  0  0  0  0  0
    2.2006   -3.5510    1.1672 H   0  0  0  0  0  0  0  0  0  0  0  0
    4.2065   -3.6893   -1.0976 H   0  0  0  0  0  0  0  0  0  0  0  0
    4.6243   -1.4708   -2.0261 H   0  0  0  0  0  0  0  0  0  0  0  0
    4.5244    0.8271   -2.0162 H   0  0  0  0  0  0  0  0  0  0  0  0
    2.2533    2.3776   -2.1130 H   0  0  0  0  0  0  0  0  0  0  0  0
    1.5674    3.2123    0.7494 H   0  0  0  0  0  0  0  0  0  0  0  0
   -0.9946    2.1659    1.0217 H   0  0  0  0  0  0  0  0  0  0  0  0
   -2.4978    2.6506   -1.6039 H   0  0  0  0  0  0  0  0  0  0  0  0
   -3.1006    0.0788   -2.2034 H   0  0  0  0  0  0  0  0  0  0  0  0
   -5.3099   -1.1543   -0.6861 H   0  0  0  0  0  0  0  0  0  0  0  0
   -5.4279    1.7143   -1.0175 H   0  0  0  0  0  0  0  0  0  0  0  0
   -4.2849    2.0985   -2.4254 H   0  0  0  0  0  0  0  0  0  0  0  0
   -7.3730   -0.1714   -1.4356 H   0  0  0  0  0  0  0  0  0  0  0  0
   -6.6982   -0.7330   -5.5652 H   0  0  0  0  0  0  0  0  0  0  0  0
   -4.6957    0.7284   -4.6201 H   0  0  0  0  0  0  0  0  0  0  0  0
   -1.5634    4.7627   -0.5561 H   0  0  0  0  0  0  0  0  0  0  0  0
   -0.5503    4.6111    0.9474 H   0  0  0  0  0  0  0  0  0  0  0  0
   -3.8585    4.4244   -0.6482 H   0  0  0  0  0  0  0  0  0  0  0  0
   -6.0290    4.5757    0.5282 H   0  0  0  0  0  0  0  0  0  0  0  0
   -1.8479    4.1462    3.1130 H   0  0  0  0  0  0  0  0  0  0  0  0
   -3.1365    4.1997    5.1466 H   0  0  0  0  0  0  0  0  0  0  0  0
   -5.3417    4.3556    6.3168 H   0  0  0  0  0  0  0  0  0  0  0  0
   -7.3573    4.5686    4.9596 H   0  0  0  0  0  0  0  0  0  0  0  0
   -7.2341    4.6237    2.5462 H   0  0  0  0  0  0  0  0  0  0  0  0
    4.6338    3.0849   -1.4091 H   0  0  0  0  0  0  0  0  0  0  0  0
    3.9468    3.4773    0.2473 H   0  0  0  0  0  0  0  0  0  0  0  0
    4.3905    5.4099   -1.1248 H   0  0  0  0  0  0  0  0  0  0  0  0
    2.7022    5.3210   -0.6010 H   0  0  0  0  0  0  0  0  0  0  0  0
    2.1349    4.4300   -2.9597 H   0  0  0  0  0  0  0  0  0  0  0  0
    2.8320    6.0667   -2.9627 H   0  0  0  0  0  0  0  0  0  0  0  0
    5.0344    7.2442   -3.1244 H   0  0  0  0  0  0  0  0  0  0  0  0
    6.3838    6.3449   -2.2832 H   0  0  0  0  0  0  0  0  0  0  0  0
    6.9809    3.9387   -4.2553 H   0  0  0  0  0  0  0  0  0  0  0  0
    6.2332    4.9857   -5.5263 H   0  0  0  0  0  0  0  0  0  0  0  0
    5.5184   -0.5266    0.7943 H   0  0  0  0  0  0  0  0  0  0  0  0
    6.5088   -0.3207   -0.6925 H   0  0  0  0  0  0  0  0  0  0  0  0
    7.8112   -2.5125   -1.5872 H   0  0  0  0  0  0  0  0  0  0  0  0
    8.3076   -4.8552   -0.4620 H   0  0  0  0  0  0  0  0  0  0  0  0
    4.5373   -2.2565    2.2927 H   0  0  0  0  0  0  0  0  0  0  0  0
    4.3546   -4.0467    3.8995 H   0  0  0  0  0  0  0  0  0  0  0  0
    5.7593   -6.0568    3.6546 H   0  0  0  0  0  0  0  0  0  0  0  0
    7.3590   -6.2026    1.7336 H   0  0  0  0  0  0  0  0  0  0  0  0
    4.6255   -6.5366    0.3086 H   0  0  0  0  0  0  0  0  0  0  0  0
    4.1170   -5.7142   -1.1968 H   0  0  0  0  0  0  0  0  0  0  0  0
  1  2  1  0
  2  3  1  0
  3  4  1  0
  4  5  1  0
  5  6  1  0
  6  7  1  0
  7  8  2  0
  7  9  1  0
  9 10  1  0
 10 11  1  0
 11 12  1  0
 12 13  1  0
 13 14  2  0
 13 15  1  0
 15 16  1  0
 16 17  1  0
 17 18  2  0
 17 19  1  0
 19 20  1  0
 20 21  1  0
 21 22  2  0
 21 23  1  0
 23 24  1  0
 24 25  1  0
 25 26  2  0
 25 27  1  0
 27 28  1  0
 28 29  1  0
 29 30  2  0
 27 31  1  0
 31 32  1  0
 32 33  2  0
 33 34  1  0
 34 35  2  0
 35 36  1  0
 23 37  1  0
 37 38  1  0
 38 39  2  0
 39 40  1  0
 40 41  2  0
 41 42  1  0
 42 43  2  0
 42 44  1  0
 44 45  2  0
 45 46  1  0
 46 47  2  0
 19 48  1  0
 48 49  1  0
 49 50  1  0
 50 51  1  0
 51 52  2  3
 52 53  1  0
 52 54  1  0
 15 55  1  0
 55 56  1  0
 56 57  2  0
 57 58  1  0
 58 59  1  0
 59 60  2  0
 60 61  1  0
 61 62  2  0
 62 63  1  0
 63 64  2  0
 11 65  1  0
 65 66  2  0
 65 67  1  0
 29  5  1  0
 36 32  1  0
 43 38  1  0
 60 56  1  0
 47 41  1  0
 64 59  1  0
  1 68  1  0
  1 69  1  0
  1 70  1  0
  2 71  1  0
  2 72  1  0
  3 73  1  0
  3 74  1  0
  4 75  1  0
  4 76  1  0
  5 77  1  6
  6 78  1  0
  9 79  1  0
  9 80  1  0
 10 81  1  0
 10 82  1  0
 11 83  1  1
 12 84  1  0
 15 85  1  6
 16 86  1  0
 19 87  1  6
 20 88  1  0
 23 89  1  1
 24 90  1  0
 27 91  1  6
 28 92  1  0
 31 93  1  0
 31 94  1  0
 33 95  1  0
 35 96  1  0
 36 97  1  0
 37 98  1  0
 37 99  1  0
 39100  1  0
 40101  1  0
 43102  1  0
 44103  1  0
 45104  1  0
 46105  1  0
 47106  1  0
 48107  1  0
 48108  1  0
 49109  1  0
 49110  1  0
 50111  1  0
 50112  1  0
 53113  1  0
 53114  1  0
 54115  1  0
 54116  1  0
 55117  1  0
 55118  1  0
 57119  1  0
 58120  1  0
 61121  1  0
 62122  1  0
 63123  1  0
 64124  1  0
 67125  1  0
 67126  1  0
M  END
>  <Ligand ID>  (1) 
LIG0001843

>  <Ligand>  (1) 
CHEMBL425591

>  <SMILES>  (1) 
CCCC[C@@H]1NC(=O)CC[C@H](NC(=O)[C@@H](NC(=O)[C@@H](NC(=O)[C@H](NC(=O)[C@@H](NC1=O)Cc1cnc[nH]1)Cc1ccc2c(c1)cccc2)CCCN=C(N)N)Cc1c[nH]c2c1cccc2)C(=O)N

>  <CID>  (1) 
11672424.0

>  <ChEMBL ID>  (1) 
nan

>  <InChiKey>  (1) 
AYKQERUAGGPJLP-WYLITWLFSA-N

>  <InChi>  (1) 
InChI=1S/C47H59N13O7/c1-2-3-12-35-42(63)60-39(23-31-25-51-26-54-31)46(67)58-37(21-27-15-16-28-9-4-5-10-29(28)20-27)44(65)57-36(14-8-19-52-47(49)50)43(64)59-38(22-30-24-53-33-13-7-6-11-32(30)33)45(66)56-34(41(48)62)17-18-40(61)55-35/h4-7,9-11,13,15-16,20,24-26,34-39,53H,2-3,8,12,14,17-19,21-23H2,1H3,(H2,48,62)(H,51,54)(H,55,61)(H,56,66)(H,57,65)(H,58,67)(H,59,64)(H,60,63)(H4,49,50,52)/t34-,35-,36-,37+,38-,39-/m0/s1

>  <IUPAC Name>  (1) 
(2S,5S,8R,11S,14S,17S)-2-butyl-11-[3-(diaminomethylideneamino)propyl]-5-(1H-imidazol-5-ylmethyl)-14-(1H-indol-3-ylmethyl)-8-(naphthalen-2-ylmethyl)-3,6,9,12,15,20-hexaoxo-1,4,7,10,13,16-hexazacycloicosane-17-carboxamide

$$$$
