
     RDKit          3D

 51 51  0  0  0  0  0  0  0  0999 V2000
    7.0859    1.0238    1.4130 C   0  0  0  0  0  0  0  0  0  0  0  0
    6.4802    0.7631    0.0383 C   0  0  0  0  0  0  0  0  0  0  0  0
    5.9152   -0.6308   -0.0317 C   0  0  0  0  0  0  0  0  0  0  0  0
    5.3472   -0.8747   -1.4050 C   0  0  0  0  0  0  0  0  0  0  0  0
    4.2670    0.1064   -1.7133 C   0  0  0  0  0  0  0  0  0  0  0  0
    3.1630    0.0483   -0.6957 C   0  0  0  0  0  0  0  0  0  0  0  0
    2.5541   -1.3167   -0.6699 C   0  0  0  0  0  0  0  0  0  0  0  0
    1.5047   -1.5143    0.1949 O   0  0  0  0  0  0  0  0  0  0  0  0
    0.2811   -0.9374    0.1791 C   0  0  0  0  0  0  0  0  0  0  0  0
   -0.2204   -0.0385   -0.7159 C   0  0  0  0  0  0  0  0  0  0  0  0
   -1.5142    0.4908   -0.6164 C   0  0  0  0  0  0  0  0  0  0  0  0
   -2.3346    0.1032    0.4182 C   0  0  0  0  0  0  0  0  0  0  0  0
   -1.8535   -0.8038    1.3352 C   0  0  0  0  0  0  0  0  0  0  0  0
   -0.5945   -1.3039    1.2191 C   0  0  0  0  0  0  0  0  0  0  0  0
   -3.7135    0.6241    0.5822 C   0  0  0  0  0  0  0  0  0  0  0  0
   -4.6858   -0.2801   -0.1667 C   0  0  0  0  0  0  0  0  0  0  0  0
   -6.0592    0.3159    0.0492 C   0  0  1  0  0  0  0  0  0  0  0  0
   -6.2702    0.2999    1.5353 C   0  0  0  0  0  0  0  0  0  0  0  0
   -6.2380   -0.7770    2.1940 O   0  0  0  0  0  0  0  0  0  0  0  0
   -6.5102    1.4584    2.2606 O   0  0  0  0  0  0  0  0  0  0  0  0
   -6.1578    1.6718   -0.3760 N   0  0  0  0  0  0  0  0  0  0  0  0
   -7.0586   -0.5183   -0.6912 C   0  0  0  0  0  0  0  0  0  0  0  0
    8.1917    1.0304    1.3344 H   0  0  0  0  0  0  0  0  0  0  0  0
    6.7294    1.9836    1.8386 H   0  0  0  0  0  0  0  0  0  0  0  0
    6.7904    0.1964    2.1038 H   0  0  0  0  0  0  0  0  0  0  0  0
    5.6206    1.4752   -0.1257 H   0  0  0  0  0  0  0  0  0  0  0  0
    7.2065    0.8917   -0.7683 H   0  0  0  0  0  0  0  0  0  0  0  0
    6.7303   -1.3935    0.1912 H   0  0  0  0  0  0  0  0  0  0  0  0
    5.1614   -0.7852    0.7728 H   0  0  0  0  0  0  0  0  0  0  0  0
    5.0164   -1.9394   -1.5340 H   0  0  0  0  0  0  0  0  0  0  0  0
    6.1847   -0.7378   -2.1660 H   0  0  0  0  0  0  0  0  0  0  0  0
    3.8462   -0.1516   -2.7441 H   0  0  0  0  0  0  0  0  0  0  0  0
    4.6762    1.1429   -1.8079 H   0  0  0  0  0  0  0  0  0  0  0  0
    2.4275    0.8652   -0.9134 H   0  0  0  0  0  0  0  0  0  0  0  0
    3.5670    0.3045    0.3390 H   0  0  0  0  0  0  0  0  0  0  0  0
    3.3751   -2.0606   -0.5335 H   0  0  0  0  0  0  0  0  0  0  0  0
    2.1767   -1.5055   -1.7227 H   0  0  0  0  0  0  0  0  0  0  0  0
    0.3448    0.2981   -1.5592 H   0  0  0  0  0  0  0  0  0  0  0  0
   -1.8922    1.2006   -1.3332 H   0  0  0  0  0  0  0  0  0  0  0  0
   -2.4924   -1.1148    2.1525 H   0  0  0  0  0  0  0  0  0  0  0  0
   -0.2716   -2.0196    1.9781 H   0  0  0  0  0  0  0  0  0  0  0  0
   -4.0161    0.7372    1.6322 H   0  0  0  0  0  0  0  0  0  0  0  0
   -3.8080    1.6217    0.0698 H   0  0  0  0  0  0  0  0  0  0  0  0
   -4.3812   -0.3215   -1.2283 H   0  0  0  0  0  0  0  0  0  0  0  0
   -4.6057   -1.2735    0.3195 H   0  0  0  0  0  0  0  0  0  0  0  0
   -6.2861    1.5877    3.2392 H   0  0  0  0  0  0  0  0  0  0  0  0
   -5.7158    2.3829    0.2144 H   0  0  0  0  0  0  0  0  0  0  0  0
   -6.1278    1.8188   -1.3966 H   0  0  0  0  0  0  0  0  0  0  0  0
   -7.1830   -1.5065   -0.2046 H   0  0  0  0  0  0  0  0  0  0  0  0
   -8.0032    0.0411   -0.7780 H   0  0  0  0  0  0  0  0  0  0  0  0
   -6.6497   -0.6785   -1.7075 H   0  0  0  0  0  0  0  0  0  0  0  0
  1  2  1  0
  2  3  1  0
  3  4  1  0
  4  5  1  0
  5  6  1  0
  6  7  1  0
  7  8  1  0
  8  9  1  0
  9 10  2  0
 10 11  1  0
 11 12  2  0
 12 13  1  0
 13 14  2  0
 12 15  1  0
 15 16  1  0
 16 17  1  0
 17 18  1  0
 18 19  2  0
 18 20  1  0
 17 21  1  6
 17 22  1  0
 14  9  1  0
  1 23  1  0
  1 24  1  0
  1 25  1  0
  2 26  1  0
  2 27  1  0
  3 28  1  0
  3 29  1  0
  4 30  1  0
  4 31  1  0
  5 32  1  0
  5 33  1  0
  6 34  1  0
  6 35  1  0
  7 36  1  0
  7 37  1  0
 10 38  1  0
 11 39  1  0
 13 40  1  0
 14 41  1  0
 15 42  1  0
 15 43  1  0
 16 44  1  0
 16 45  1  0
 20 46  1  0
 21 47  1  0
 21 48  1  0
 22 49  1  0
 22 50  1  0
 22 51  1  0
M  END
>  <Ligand ID>  (1) 
LIG0004296

>  <Ligand>  (1) 
CHEMBL1086171

>  <SMILES>  (1) 
CCCCCCCOc1ccc(cc1)CC[C@@](C(=O)O)(N)C

>  <CID>  (1) 
46866186.0

>  <ChEMBL ID>  (1) 
nan

>  <InChiKey>  (1) 
HBEUHDJEXSWDPB-SFHVURJKSA-N

>  <InChi>  (1) 
InChI=1S/C18H29NO3/c1-3-4-5-6-7-14-22-16-10-8-15(9-11-16)12-13-18(2,19)17(20)21/h8-11H,3-7,12-14,19H2,1-2H3,(H,20,21)/t18-/m0/s1

>  <IUPAC Name>  (1) 
(2S)-2-amino-4-(4-heptoxyphenyl)-2-methylbutanoic acid

$$$$
