
     RDKit          3D

 48 50  0  0  0  0  0  0  0  0999 V2000
   -6.0442   -2.6954    0.2919 O   0  0  0  0  0  0  0  0  0  0  0  0
   -6.5437   -1.7606    1.2089 C   0  0  0  0  0  0  0  0  0  0  0  0
   -6.3597   -2.0415    2.4409 O   0  0  0  0  0  0  0  0  0  0  0  0
   -7.2379   -0.5243    0.8016 C   0  0  0  0  0  0  0  0  0  0  0  0
   -6.5788    0.7130    1.3908 C   0  0  0  0  0  0  0  0  0  0  0  0
   -5.1540    0.8028    0.8975 C   0  0  0  0  0  0  0  0  0  0  0  0
   -4.1134    0.2124    1.5844 C   0  0  0  0  0  0  0  0  0  0  0  0
   -2.8289    0.3300    1.0521 C   0  0  0  0  0  0  0  0  0  0  0  0
   -2.6184    1.0264   -0.1379 C   0  0  0  0  0  0  0  0  0  0  0  0
   -3.6556    1.6230   -0.8314 C   0  0  0  0  0  0  0  0  0  0  0  0
   -4.9346    1.4960   -0.2865 C   0  0  0  0  0  0  0  0  0  0  0  0
   -3.4118    2.3665   -2.0952 C   0  0  0  0  0  0  0  0  0  0  0  0
   -1.2595    1.1094   -0.6727 C   0  0  0  0  0  0  0  0  0  0  0  0
   -0.8264    1.7307   -1.7930 N   0  0  0  0  0  0  0  0  0  0  0  0
    0.4490    1.5516   -1.9176 O   0  0  0  0  0  0  0  0  0  0  0  0
    0.8747    0.8277   -0.9096 C   0  0  0  0  0  0  0  0  0  0  0  0
   -0.1627    0.5496   -0.1377 N   0  0  0  0  0  0  0  0  0  0  0  0
    2.2613    0.4410   -0.7461 C   0  0  0  0  0  0  0  0  0  0  0  0
    3.2286    0.7905   -1.6604 C   0  0  0  0  0  0  0  0  0  0  0  0
    4.5165    0.4671   -1.5643 N   0  0  0  0  0  0  0  0  0  0  0  0
    4.9639   -0.2730   -0.4854 C   0  0  0  0  0  0  0  0  0  0  0  0
    4.0275   -0.6413    0.4511 C   0  0  0  0  0  0  0  0  0  0  0  0
    2.6748   -0.2970    0.3425 C   0  0  0  0  0  0  0  0  0  0  0  0
    4.4577   -1.5768    1.8639 Cl  0  0  0  0  0  0  0  0  0  0  0  0
    6.2810   -0.5508   -0.4803 O   0  0  0  0  0  0  0  0  0  0  0  0
    7.1911   -1.1810    0.2949 C   0  0  0  0  0  0  0  0  0  0  0  0
    8.3394   -0.2214    0.5971 C   0  0  0  0  0  0  0  0  0  0  0  0
    7.9202    0.8957    1.2545 F   0  0  0  0  0  0  0  0  0  0  0  0
    9.2649   -0.8810    1.4045 F   0  0  0  0  0  0  0  0  0  0  0  0
    8.9352    0.1312   -0.5815 F   0  0  0  0  0  0  0  0  0  0  0  0
    7.8395   -2.3848   -0.3950 C   0  0  0  0  0  0  0  0  0  0  0  0
   -5.9884   -3.6702    0.5296 H   0  0  0  0  0  0  0  0  0  0  0  0
   -7.2382   -0.5006   -0.3034 H   0  0  0  0  0  0  0  0  0  0  0  0
   -8.2836   -0.6221    1.1252 H   0  0  0  0  0  0  0  0  0  0  0  0
   -7.1383    1.5890    1.0292 H   0  0  0  0  0  0  0  0  0  0  0  0
   -6.5132    0.6225    2.4865 H   0  0  0  0  0  0  0  0  0  0  0  0
   -4.2572   -0.3264    2.5070 H   0  0  0  0  0  0  0  0  0  0  0  0
   -2.0077   -0.1273    1.5776 H   0  0  0  0  0  0  0  0  0  0  0  0
   -5.7220    1.9730   -0.8489 H   0  0  0  0  0  0  0  0  0  0  0  0
   -2.7038    3.2038   -1.9337 H   0  0  0  0  0  0  0  0  0  0  0  0
   -2.9855    1.7133   -2.8714 H   0  0  0  0  0  0  0  0  0  0  0  0
   -4.3691    2.8313   -2.4100 H   0  0  0  0  0  0  0  0  0  0  0  0
    2.8988    1.3772   -2.5244 H   0  0  0  0  0  0  0  0  0  0  0  0
    1.9528   -0.5956    1.0895 H   0  0  0  0  0  0  0  0  0  0  0  0
    6.8091   -1.4950    1.2616 H   0  0  0  0  0  0  0  0  0  0  0  0
    7.0923   -3.0286   -0.9047 H   0  0  0  0  0  0  0  0  0  0  0  0
    8.4170   -2.9266    0.3551 H   0  0  0  0  0  0  0  0  0  0  0  0
    8.5412   -2.0537   -1.1852 H   0  0  0  0  0  0  0  0  0  0  0  0
  1  2  1  0
  2  3  2  0
  2  4  1  0
  4  5  1  0
  5  6  1  0
  6  7  2  0
  7  8  1  0
  8  9  2  0
  9 10  1  0
 10 11  2  0
 10 12  1  0
  9 13  1  0
 13 14  2  0
 14 15  1  0
 15 16  1  0
 16 17  2  0
 16 18  1  0
 18 19  2  0
 19 20  1  0
 20 21  2  0
 21 22  1  0
 22 23  2  0
 22 24  1  0
 21 25  1  0
 25 26  1  0
 26 27  1  0
 27 28  1  0
 27 29  1  0
 27 30  1  0
 26 31  1  0
 11  6  1  0
 17 13  1  0
 23 18  1  0
  1 32  1  0
  4 33  1  0
  4 34  1  0
  5 35  1  0
  5 36  1  0
  7 37  1  0
  8 38  1  0
 11 39  1  0
 12 40  1  0
 12 41  1  0
 12 42  1  0
 19 43  1  0
 23 44  1  0
 26 45  1  0
 31 46  1  0
 31 47  1  0
 31 48  1  0
M  END
>  <Ligand ID>  (1) 
LIG0001688

>  <Ligand>  (1) 
CHEMBL209484

>  <SMILES>  (1) 
OC(=O)CCc1ccc(c(c1)C)c1noc(n1)c1cnc(c(c1)Cl)OC(C(F)(F)F)C

>  <CID>  (1) 
11626664.0

>  <ChEMBL ID>  (1) 
nan

>  <InChiKey>  (1) 
RZYDSGOZSVUMSW-UHFFFAOYSA-N

>  <InChi>  (1) 
InChI=1S/C20H17ClF3N3O4/c1-10-7-12(4-6-16(28)29)3-5-14(10)17-26-18(31-27-17)13-8-15(21)19(25-9-13)30-11(2)20(22,23)24/h3,5,7-9,11H,4,6H2,1-2H3,(H,28,29)

>  <IUPAC Name>  (1) 
3-[4-[5-[5-chloro-6-(1,1,1-trifluoropropan-2-yloxy)pyridin-3-yl]-1,2,4-oxadiazol-3-yl]-3-methylphenyl]propanoic acid

$$$$
