
     RDKit          3D

 31 32  0  0  0  0  0  0  0  0999 V2000
    4.0966    1.8107    0.3936 C   0  0  0  0  0  0  0  0  0  0  0  0
    4.1445    0.4031    0.3748 O   0  0  0  0  0  0  0  0  0  0  0  0
    3.0028   -0.3223    0.2499 C   0  0  0  0  0  0  0  0  0  0  0  0
    3.1126   -1.7096    0.2389 C   0  0  0  0  0  0  0  0  0  0  0  0
    2.0304   -2.5381    0.1189 C   0  0  0  0  0  0  0  0  0  0  0  0
    0.7520   -2.0385    0.0006 C   0  0  0  0  0  0  0  0  0  0  0  0
    0.6195   -0.6481    0.0093 C   0  0  0  0  0  0  0  0  0  0  0  0
    1.7273    0.1828    0.1316 C   0  0  0  0  0  0  0  0  0  0  0  0
   -0.7435   -0.4145   -0.1189 C   0  0  0  0  0  0  0  0  0  0  0  0
   -1.3709   -1.6392   -0.1985 C   0  0  0  0  0  0  0  0  0  0  0  0
   -0.4529   -2.6136   -0.1248 N   0  0  0  0  0  0  0  0  0  0  0  0
   -1.3251    0.9541   -0.1570 C   0  0  0  0  0  0  0  0  0  0  0  0
   -2.8370    0.9007   -0.1738 C   0  0  0  0  0  0  0  0  0  0  0  0
   -3.4227    2.2265   -0.2127 N   0  0  0  0  0  0  0  0  0  0  0  0
   -3.3942    0.1790    1.0187 C   0  0  0  0  0  0  0  0  0  0  0  0
    3.1760    2.1196    0.8900 H   0  0  0  0  0  0  0  0  0  0  0  0
    4.9938    2.2156    0.9327 H   0  0  0  0  0  0  0  0  0  0  0  0
    4.1283    2.2280   -0.6475 H   0  0  0  0  0  0  0  0  0  0  0  0
    4.0814   -2.1607    0.3274 H   0  0  0  0  0  0  0  0  0  0  0  0
    2.1700   -3.5984    0.1156 H   0  0  0  0  0  0  0  0  0  0  0  0
    1.5541    1.2295    0.1283 H   0  0  0  0  0  0  0  0  0  0  0  0
   -2.4173   -1.8028   -0.3031 H   0  0  0  0  0  0  0  0  0  0  0  0
   -0.6806   -3.6518   -0.1637 H   0  0  0  0  0  0  0  0  0  0  0  0
   -0.9937    1.5819    0.7039 H   0  0  0  0  0  0  0  0  0  0  0  0
   -0.9948    1.4861   -1.0765 H   0  0  0  0  0  0  0  0  0  0  0  0
   -3.1218    0.3717   -1.1086 H   0  0  0  0  0  0  0  0  0  0  0  0
   -2.8026    2.9598   -0.5636 H   0  0  0  0  0  0  0  0  0  0  0  0
   -4.3790    2.2355   -0.6289 H   0  0  0  0  0  0  0  0  0  0  0  0
   -3.8268    0.9315    1.7311 H   0  0  0  0  0  0  0  0  0  0  0  0
   -2.6242   -0.3616    1.5991 H   0  0  0  0  0  0  0  0  0  0  0  0
   -4.2025   -0.5169    0.6601 H   0  0  0  0  0  0  0  0  0  0  0  0
  1  2  1  0
  2  3  1  0
  3  4  2  0
  4  5  1  0
  5  6  2  0
  6  7  1  0
  7  8  2  0
  7  9  1  0
  9 10  2  0
 10 11  1  0
  9 12  1  0
 12 13  1  0
 13 14  1  0
 13 15  1  0
  8  3  1  0
 11  6  1  0
  1 16  1  0
  1 17  1  0
  1 18  1  0
  4 19  1  0
  5 20  1  0
  8 21  1  0
 10 22  1  0
 11 23  1  0
 12 24  1  0
 12 25  1  0
 13 26  1  0
 14 27  1  0
 14 28  1  0
 15 29  1  0
 15 30  1  0
 15 31  1  0
M  END
>  <Ligand ID>  (1) 
LIG0001550

>  <Ligand>  (1) 
5-Methoxy-alpha-methyltryptamine

>  <SMILES>  (1) 
COc1ccc2c(c1)c(c[nH]2)CC(N)C

>  <CID>  (1) 
36906.0

>  <ChEMBL ID>  (1) 
nan

>  <InChiKey>  (1) 
OGNJZVNNKBZFRM-UHFFFAOYSA-N

>  <InChi>  (1) 
InChI=1S/C12H16N2O/c1-8(13)5-9-7-14-12-4-3-10(15-2)6-11(9)12/h3-4,6-8,14H,5,13H2,1-2H3

>  <IUPAC Name>  (1) 
1-(5-methoxy-1H-indol-3-yl)propan-2-amine

$$$$
