
     RDKit          3D

 33 34  0  0  0  0  0  0  0  0999 V2000
   -3.5386   -3.0226    0.6705 C   0  0  0  0  0  0  0  0  0  0  0  0
   -3.4911   -1.5931    0.3865 N   0  0  0  0  0  0  0  0  0  0  0  0
   -2.1986   -1.0262    0.2121 C   0  0  0  0  0  0  0  0  0  0  0  0
   -1.2451   -1.8301    0.3242 O   0  0  0  0  0  0  0  0  0  0  0  0
   -2.0768    0.3917   -0.0732 C   0  0  0  0  0  0  0  0  0  0  0  0
   -3.1978    1.1802   -0.1743 C   0  0  0  0  0  0  0  0  0  0  0  0
   -3.1362    2.5505   -0.4472 C   0  0  0  0  0  0  0  0  0  0  0  0
   -1.9224    3.1675   -0.6276 C   0  0  0  0  0  0  0  0  0  0  0  0
   -0.7973    2.3877   -0.5285 C   0  0  0  0  0  0  0  0  0  0  0  0
   -0.8518    1.0140   -0.2552 C   0  0  0  0  0  0  0  0  0  0  0  0
    0.3875    0.3378   -0.1821 N   0  0  0  0  0  0  0  0  0  0  0  0
    1.6241    1.0789   -0.3880 C   0  0  0  0  0  0  0  0  0  0  0  0
    2.8120    0.1983   -0.2722 C   0  0  0  0  0  0  0  0  0  0  0  0
    3.6972   -0.0273   -1.1708 N   0  0  0  0  0  0  0  0  0  0  0  0
    4.7076   -0.9434   -0.6916 C   0  0  0  0  0  0  0  0  0  0  0  0
    4.5864   -0.7926    0.8082 C   0  0  0  0  0  0  0  0  0  0  0  0
    3.1400   -0.5440    0.9045 N   0  0  0  0  0  0  0  0  0  0  0  0
   -2.6351   -3.2938    1.2732 H   0  0  0  0  0  0  0  0  0  0  0  0
   -4.4157   -3.2705    1.3158 H   0  0  0  0  0  0  0  0  0  0  0  0
   -3.5586   -3.5514   -0.3004 H   0  0  0  0  0  0  0  0  0  0  0  0
   -4.3887   -1.0927    0.3315 H   0  0  0  0  0  0  0  0  0  0  0  0
   -4.2150    0.8090   -0.0518 H   0  0  0  0  0  0  0  0  0  0  0  0
   -4.0259    3.1554   -0.5233 H   0  0  0  0  0  0  0  0  0  0  0  0
   -1.9007    4.2270   -0.8374 H   0  0  0  0  0  0  0  0  0  0  0  0
    0.1508    2.8911   -0.6737 H   0  0  0  0  0  0  0  0  0  0  0  0
    0.5171   -0.6763    0.0115 H   0  0  0  0  0  0  0  0  0  0  0  0
    1.7286    1.9349    0.2712 H   0  0  0  0  0  0  0  0  0  0  0  0
    1.5883    1.4746   -1.4399 H   0  0  0  0  0  0  0  0  0  0  0  0
    4.4451   -2.0077   -0.9363 H   0  0  0  0  0  0  0  0  0  0  0  0
    5.7212   -0.6806   -1.0541 H   0  0  0  0  0  0  0  0  0  0  0  0
    4.8690   -1.7072    1.3531 H   0  0  0  0  0  0  0  0  0  0  0  0
    5.1305    0.1041    1.0995 H   0  0  0  0  0  0  0  0  0  0  0  0
    2.4902   -0.8433    1.6660 H   0  0  0  0  0  0  0  0  0  0  0  0
  1  2  1  0
  2  3  1  0
  3  4  2  0
  3  5  1  0
  5  6  2  0
  6  7  1  0
  7  8  2  0
  8  9  1  0
  9 10  2  0
 10 11  1  0
 11 12  1  0
 12 13  1  0
 13 14  2  0
 14 15  1  0
 15 16  1  0
 16 17  1  0
 10  5  1  0
 17 13  1  0
  1 18  1  0
  1 19  1  0
  1 20  1  0
  2 21  1  0
  6 22  1  0
  7 23  1  0
  8 24  1  0
  9 25  1  0
 11 26  1  0
 12 27  1  0
 12 28  1  0
 15 29  1  0
 15 30  1  0
 16 31  1  0
 16 32  1  0
 17 33  1  0
M  END
>  <Ligand ID>  (1) 
LIG0004652

>  <Ligand>  (1) 
CHEMBL95523

>  <SMILES>  (1) 
CNC(=O)c1ccccc1NCC1=NCCN1

>  <CID>  (1) 
10198532.0

>  <ChEMBL ID>  (1) 
nan

>  <InChiKey>  (1) 
SPDFYEGKQZMPHC-UHFFFAOYSA-N

>  <InChi>  (1) 
InChI=1S/C12H16N4O/c1-13-12(17)9-4-2-3-5-10(9)16-8-11-14-6-7-15-11/h2-5,16H,6-8H2,1H3,(H,13,17)(H,14,15)

>  <IUPAC Name>  (1) 
2-(4,5-dihydro-1H-imidazol-2-ylmethylamino)-N-methylbenzamide

$$$$
