
     RDKit          3D

 48 52  0  0  0  0  0  0  0  0999 V2000
    3.5910   -2.1509   -0.6834 O   0  0  0  0  0  0  0  0  0  0  0  0
    3.8952   -0.9390   -1.2307 C   0  0  0  0  0  0  0  0  0  0  0  0
    3.4094    0.2670   -0.4742 C   0  0  0  0  0  0  0  0  0  0  0  0
    3.9125    1.4776   -1.1958 C   0  0  0  0  0  0  0  0  0  0  0  0
    5.3324    1.6111   -0.6895 C   0  0  0  0  0  0  0  0  0  0  0  0
    5.1222    1.4436    0.7993 C   0  0  0  0  0  0  0  0  0  0  0  0
    4.0634    0.3666    0.8931 C   0  0  0  0  0  0  0  0  0  0  0  0
    1.9778    0.2371   -0.3820 N   0  0  0  0  0  0  0  0  0  0  0  0
    1.1939   -0.7125    0.2689 C   0  0  0  0  0  0  0  0  0  0  0  0
    1.6494   -1.6982    0.8874 O   0  0  0  0  0  0  0  0  0  0  0  0
   -0.2750   -0.5818    0.2504 C   0  0  0  0  0  0  0  0  0  0  0  0
   -0.9933    0.4037   -0.3561 N   0  0  0  0  0  0  0  0  0  0  0  0
   -2.2815    0.2079   -0.1710 N   0  0  0  0  0  0  0  0  0  0  0  0
   -2.4704   -0.9135    0.5645 C   0  0  0  0  0  0  0  0  0  0  0  0
   -1.2179   -1.4061    0.8274 C   0  0  0  0  0  0  0  0  0  0  0  0
   -1.3080   -2.6581    1.6431 C   0  0  0  0  0  0  0  0  0  0  0  0
   -2.7755   -2.8809    1.8208 C   0  0  2  0  0  0  0  0  0  0  0  0
   -3.4945   -1.7812    1.1732 C   0  0  1  0  0  0  0  0  0  0  0  0
   -3.5553   -1.9421    2.6610 C   0  0  0  0  0  0  0  0  0  0  0  0
   -3.3734    1.0136   -0.6441 C   0  0  0  0  0  0  0  0  0  0  0  0
   -3.5645    2.3121   -0.2444 C   0  0  0  0  0  0  0  0  0  0  0  0
   -4.6502    2.9859   -0.7680 C   0  0  0  0  0  0  0  0  0  0  0  0
   -5.5241    2.3964   -1.6612 C   0  0  0  0  0  0  0  0  0  0  0  0
   -5.3354    1.0789   -2.0706 C   0  0  0  0  0  0  0  0  0  0  0  0
   -4.2478    0.4036   -1.5462 C   0  0  0  0  0  0  0  0  0  0  0  0
   -4.0364   -0.8924   -1.9299 F   0  0  0  0  0  0  0  0  0  0  0  0
   -6.5934    3.0762   -2.1700 F   0  0  0  0  0  0  0  0  0  0  0  0
    4.2798   -2.8385   -0.7428 H   0  0  0  0  0  0  0  0  0  0  0  0
    4.9655   -0.8483   -1.5274 H   0  0  0  0  0  0  0  0  0  0  0  0
    3.3468   -0.8972   -2.2211 H   0  0  0  0  0  0  0  0  0  0  0  0
    3.9024    1.3535   -2.3030 H   0  0  0  0  0  0  0  0  0  0  0  0
    3.3948    2.4179   -0.8792 H   0  0  0  0  0  0  0  0  0  0  0  0
    6.0129    0.8266   -1.0247 H   0  0  0  0  0  0  0  0  0  0  0  0
    5.7309    2.6375   -0.9152 H   0  0  0  0  0  0  0  0  0  0  0  0
    4.7552    2.4368    1.1843 H   0  0  0  0  0  0  0  0  0  0  0  0
    6.0547    1.1502    1.3213 H   0  0  0  0  0  0  0  0  0  0  0  0
    4.5288   -0.5802    1.2065 H   0  0  0  0  0  0  0  0  0  0  0  0
    3.3384    0.6958    1.6692 H   0  0  0  0  0  0  0  0  0  0  0  0
    1.4658    1.0304   -0.8665 H   0  0  0  0  0  0  0  0  0  0  0  0
   -0.8137   -3.5164    1.1479 H   0  0  0  0  0  0  0  0  0  0  0  0
   -0.7785   -2.4420    2.6004 H   0  0  0  0  0  0  0  0  0  0  0  0
   -3.0855   -3.9453    1.7185 H   0  0  0  0  0  0  0  0  0  0  0  0
   -4.3717   -2.0575    0.5581 H   0  0  0  0  0  0  0  0  0  0  0  0
   -4.5051   -2.3470    3.0583 H   0  0  0  0  0  0  0  0  0  0  0  0
   -2.9571   -1.2063    3.2199 H   0  0  0  0  0  0  0  0  0  0  0  0
   -2.8651    2.7400    0.4520 H   0  0  0  0  0  0  0  0  0  0  0  0
   -4.8187    4.0101   -0.4659 H   0  0  0  0  0  0  0  0  0  0  0  0
   -6.0312    0.6555   -2.7625 H   0  0  0  0  0  0  0  0  0  0  0  0
  1  2  1  0
  2  3  1  0
  3  4  1  0
  4  5  1  0
  5  6  1  0
  6  7  1  0
  3  8  1  0
  8  9  1  0
  9 10  2  0
  9 11  1  0
 11 12  2  0
 12 13  1  0
 13 14  1  0
 14 15  2  0
 15 16  1  0
 16 17  1  0
 17 18  1  0
 18 19  1  0
 13 20  1  0
 20 21  2  0
 21 22  1  0
 22 23  2  0
 23 24  1  0
 24 25  2  0
 25 26  1  0
 23 27  1  0
  7  3  1  0
 15 11  1  0
 19 17  1  0
 25 20  1  0
 18 14  1  0
  1 28  1  0
  2 29  1  0
  2 30  1  0
  4 31  1  0
  4 32  1  0
  5 33  1  0
  5 34  1  0
  6 35  1  0
  6 36  1  0
  7 37  1  0
  7 38  1  0
  8 39  1  0
 16 40  1  0
 16 41  1  0
 17 42  1  6
 18 43  1  6
 19 44  1  0
 19 45  1  0
 21 46  1  0
 22 47  1  0
 24 48  1  0
M  END
>  <Ligand ID>  (1) 
LIG0001352

>  <Ligand>  (1) 
CHEMBL3354955

>  <SMILES>  (1) 
OCC1(CCCC1)NC(=O)c1nn(c2c1C[C@@H]1[C@H]2C1)c1ccc(cc1F)F

>  <CID>  (1) 
86669673.0

>  <ChEMBL ID>  (1) 
nan

>  <InChiKey>  (1) 
PBMFBAGKYCXWOV-DGCLKSJQSA-N

>  <InChi>  (1) 
InChI=1S/C20H21F2N3O2/c21-12-3-4-16(15(22)9-12)25-18-13-7-11(13)8-14(18)17(24-25)19(27)23-20(10-26)5-1-2-6-20/h3-4,9,11,13,26H,1-2,5-8,10H2,(H,23,27)/t11-,13-/m1/s1

>  <IUPAC Name>  (1) 
(2R,4R)-9-(2,4-difluorophenyl)-N-[1-(hydroxymethyl)cyclopentyl]-8,9-diazatricyclo[4.3.0.02,4]nona-1(6),7-diene-7-carboxamide

$$$$
