
     RDKit          3D

 48 52  0  0  0  0  0  0  0  0999 V2000
    2.7708   -1.7335    2.8863 O   0  0  0  0  0  0  0  0  0  0  0  0
    3.6733   -1.5322    1.8412 C   0  0  0  0  0  0  0  0  0  0  0  0
    3.2851   -0.2338    1.1493 C   0  0  1  0  0  0  0  0  0  0  0  0
    4.1953    0.1022    0.0453 C   0  0  0  0  0  0  0  0  0  0  0  0
    3.7787    1.0687   -0.8565 C   0  0  0  0  0  0  0  0  0  0  0  0
    4.5389    1.4711   -1.9315 C   0  0  0  0  0  0  0  0  0  0  0  0
    5.7687    0.8897   -2.1228 C   0  0  0  0  0  0  0  0  0  0  0  0
    6.2045   -0.0702   -1.2435 C   0  0  0  0  0  0  0  0  0  0  0  0
    5.4247   -0.4626   -0.1663 C   0  0  0  0  0  0  0  0  0  0  0  0
    1.9253   -0.3907    0.6549 N   0  0  0  0  0  0  0  0  0  0  0  0
    0.8614    0.4278    1.0866 C   0  0  0  0  0  0  0  0  0  0  0  0
    1.1099    1.3232    1.9307 O   0  0  0  0  0  0  0  0  0  0  0  0
   -0.5083    0.2894    0.6057 C   0  0  0  0  0  0  0  0  0  0  0  0
   -1.5184    1.0706    1.0192 N   0  0  0  0  0  0  0  0  0  0  0  0
   -2.6112    0.6821    0.3937 N   0  0  0  0  0  0  0  0  0  0  0  0
   -2.3336   -0.3494   -0.4302 C   0  0  0  0  0  0  0  0  0  0  0  0
   -0.9924   -0.6187   -0.3115 C   0  0  0  0  0  0  0  0  0  0  0  0
   -0.6010   -1.7494   -1.1918 C   0  0  0  0  0  0  0  0  0  0  0  0
   -1.8760   -2.1062   -1.9271 C   0  0  2  0  0  0  0  0  0  0  0  0
   -2.9756   -1.2764   -1.4055 C   0  0  1  0  0  0  0  0  0  0  0  0
   -2.9328   -2.7203   -1.0852 C   0  0  0  0  0  0  0  0  0  0  0  0
   -3.8775    1.3198    0.6151 C   0  0  0  0  0  0  0  0  0  0  0  0
   -4.6416    1.0646    1.7118 C   0  0  0  0  0  0  0  0  0  0  0  0
   -5.8688    1.7013    1.8982 C   0  0  0  0  0  0  0  0  0  0  0  0
   -6.3065    2.6007    0.9529 C   0  0  0  0  0  0  0  0  0  0  0  0
   -5.5097    2.8321   -0.1384 C   0  0  0  0  0  0  0  0  0  0  0  0
   -4.2939    2.2211   -0.3528 C   0  0  0  0  0  0  0  0  0  0  0  0
   -3.5468    2.4891   -1.4529 F   0  0  0  0  0  0  0  0  0  0  0  0
   -7.4938    3.2369    1.1029 F   0  0  0  0  0  0  0  0  0  0  0  0
    3.2285   -2.0749    3.7096 H   0  0  0  0  0  0  0  0  0  0  0  0
    3.6328   -2.3743    1.1213 H   0  0  0  0  0  0  0  0  0  0  0  0
    4.7119   -1.4874    2.2289 H   0  0  0  0  0  0  0  0  0  0  0  0
    3.2881    0.5934    1.8694 H   0  0  0  0  0  0  0  0  0  0  0  0
    2.7997    1.5483   -0.7255 H   0  0  0  0  0  0  0  0  0  0  0  0
    4.2245    2.2229   -2.6403 H   0  0  0  0  0  0  0  0  0  0  0  0
    6.3761    1.2046   -2.9734 H   0  0  0  0  0  0  0  0  0  0  0  0
    7.1909   -0.5284   -1.4070 H   0  0  0  0  0  0  0  0  0  0  0  0
    5.7725   -1.2086    0.5101 H   0  0  0  0  0  0  0  0  0  0  0  0
    1.7522   -1.1456   -0.0471 H   0  0  0  0  0  0  0  0  0  0  0  0
   -0.3144   -2.6599   -0.6112 H   0  0  0  0  0  0  0  0  0  0  0  0
    0.1960   -1.4516   -1.8997 H   0  0  0  0  0  0  0  0  0  0  0  0
   -1.8242   -2.3121   -3.0228 H   0  0  0  0  0  0  0  0  0  0  0  0
   -3.7261   -0.8858   -2.1153 H   0  0  0  0  0  0  0  0  0  0  0  0
   -2.6782   -3.0044   -0.0333 H   0  0  0  0  0  0  0  0  0  0  0  0
   -3.6813   -3.3478   -1.6030 H   0  0  0  0  0  0  0  0  0  0  0  0
   -4.2848    0.3505    2.4536 H   0  0  0  0  0  0  0  0  0  0  0  0
   -6.4198    1.4593    2.7763 H   0  0  0  0  0  0  0  0  0  0  0  0
   -5.8933    3.5549   -0.8684 H   0  0  0  0  0  0  0  0  0  0  0  0
  1  2  1  0
  2  3  1  0
  3  4  1  0
  4  5  2  0
  5  6  1  0
  6  7  2  0
  7  8  1  0
  8  9  2  0
  3 10  1  0
 10 11  1  0
 11 12  2  0
 11 13  1  0
 13 14  2  0
 14 15  1  0
 15 16  1  0
 16 17  2  0
 17 18  1  0
 18 19  1  0
 19 20  1  0
 20 21  1  0
 15 22  1  0
 22 23  2  0
 23 24  1  0
 24 25  2  0
 25 26  1  0
 26 27  2  0
 27 28  1  0
 25 29  1  0
  9  4  1  0
 17 13  1  0
 21 19  1  0
 27 22  1  0
 20 16  1  0
  1 30  1  0
  2 31  1  0
  2 32  1  0
  3 33  1  1
  5 34  1  0
  6 35  1  0
  7 36  1  0
  8 37  1  0
  9 38  1  0
 10 39  1  0
 18 40  1  0
 18 41  1  0
 19 42  1  6
 20 43  1  6
 21 44  1  0
 21 45  1  0
 23 46  1  0
 24 47  1  0
 26 48  1  0
M  END
>  <Ligand ID>  (1) 
LIG0001207

>  <Ligand>  (1) 
CHEMBL3354957

>  <SMILES>  (1) 
OC[C@@H](c1ccccc1)NC(=O)c1nn(c2c1C[C@@H]1[C@H]2C1)c1ccc(cc1F)F

>  <CID>  (1) 
118720567.0

>  <ChEMBL ID>  (1) 
nan

>  <InChiKey>  (1) 
XBBRBQCGGXLGGN-SIIHOXLZSA-N

>  <InChi>  (1) 
InChI=1S/C22H19F2N3O2/c23-14-6-7-19(17(24)10-14)27-21-15-8-13(15)9-16(21)20(26-27)22(29)25-18(11-28)12-4-2-1-3-5-12/h1-7,10,13,15,18,28H,8-9,11H2,(H,25,29)/t13-,15-,18+/m1/s1

>  <IUPAC Name>  (1) 
(2R,4R)-9-(2,4-difluorophenyl)-N-[(1R)-2-hydroxy-1-phenylethyl]-8,9-diazatricyclo[4.3.0.02,4]nona-1(6),7-diene-7-carboxamide

$$$$
