
     RDKit          3D

142147  0  0  0  0  0  0  0  0999 V2000
   12.4223    0.8873    0.2393 C   0  0  0  0  0  0  0  0  0  0  0  0
   11.9313    2.1614   -0.4135 C   0  0  0  0  0  0  0  0  0  0  0  0
   10.7008    1.8722   -1.2900 C   0  0  0  0  0  0  0  0  0  0  0  0
    9.5951    1.2926   -0.4789 C   0  0  0  0  0  0  0  0  0  0  0  0
    8.4028    1.0305   -1.4011 C   0  0  1  0  0  0  0  0  0  0  0  0
    7.2750    0.4443   -0.6531 C   0  0  0  0  0  0  0  0  0  0  0  0
    7.5429   -0.5082    0.1291 O   0  0  0  0  0  0  0  0  0  0  0  0
    5.9375    0.9331   -0.7994 N   0  0  0  0  0  0  0  0  0  0  0  0
    4.9450    0.2580    0.0462 C   0  0  1  0  0  0  0  0  0  0  0  0
    4.1202    1.3744    0.6250 C   0  0  0  0  0  0  0  0  0  0  0  0
    3.0074    0.9531    1.5090 C   0  0  0  0  0  0  0  0  0  0  0  0
    2.3987    2.1487    2.0788 N   0  0  0  0  0  0  0  0  0  0  0  0
    3.0259    3.1337    2.7138 N   0  0  0  0  0  0  0  0  0  0  0  0
    2.1525    4.0447    3.0973 N   0  0  0  0  0  0  0  0  0  0  0  0
    0.9274    3.6360    2.6992 C   0  0  0  0  0  0  0  0  0  0  0  0
    1.0863    2.4112    2.0406 C   0  0  0  0  0  0  0  0  0  0  0  0
   -0.4235    4.2628    2.8645 C   0  0  0  0  0  0  0  0  0  0  0  0
   -1.2011    3.9972    1.6368 C   0  0  0  0  0  0  0  0  0  0  0  0
   -2.6270    4.5578    1.6280 C   0  0  2  0  0  0  0  0  0  0  0  0
   -3.1241    4.1262    0.3161 N   0  0  0  0  0  0  0  0  0  0  0  0
   -4.0147    2.9848    0.2036 C   0  0  0  0  0  0  0  0  0  0  0  0
   -4.3486    2.5056    1.2958 O   0  0  0  0  0  0  0  0  0  0  0  0
   -4.4460    2.4754   -1.1238 C   0  0  1  0  0  0  0  0  0  0  0  0
   -5.0498    1.1313   -0.9516 N   0  0  0  0  0  0  0  0  0  0  0  0
   -4.1670    0.0417   -0.7965 C   0  0  0  0  0  0  0  0  0  0  0  0
   -2.9589    0.3117   -0.7227 O   0  0  0  0  0  0  0  0  0  0  0  0
   -4.6083   -1.4045   -0.7075 C   0  0  1  0  0  0  0  0  0  0  0  0
   -3.5134   -2.2104   -0.2102 N   0  0  0  0  0  0  0  0  0  0  0  0
   -2.3324   -2.5223   -0.9366 C   0  0  0  0  0  0  0  0  0  0  0  0
   -2.2505   -2.0248   -2.0638 O   0  0  0  0  0  0  0  0  0  0  0  0
   -1.2807   -3.3979   -0.3183 C   0  0  2  0  0  0  0  0  0  0  0  0
   -0.0208   -3.3256   -1.0211 N   0  0  0  0  0  0  0  0  0  0  0  0
    1.0700   -2.5648   -0.4277 C   0  0  0  0  0  0  0  0  0  0  0  0
    0.7801   -2.0063    0.6314 O   0  0  0  0  0  0  0  0  0  0  0  0
    2.4071   -2.4740   -1.0513 C   0  0  1  0  0  0  0  0  0  0  0  0
    3.2545   -1.5833   -0.2566 N   0  0  0  0  0  0  0  0  0  0  0  0
    4.1116   -0.5942   -0.8282 C   0  0  0  0  0  0  0  0  0  0  0  0
    4.0803   -0.5458   -2.0696 O   0  0  0  0  0  0  0  0  0  0  0  0
    3.1299   -3.8389   -0.9107 C   0  0  0  0  0  0  0  0  0  0  0  0
    3.3125   -4.1648    0.5115 C   0  0  0  0  0  0  0  0  0  0  0  0
    4.4163   -3.8032    1.2254 N   0  0  0  0  0  0  0  0  0  0  0  0
    4.2992   -4.2232    2.4972 C   0  0  0  0  0  0  0  0  0  0  0  0
    3.1144   -4.8586    2.6022 N   0  0  0  0  0  0  0  0  0  0  0  0
    2.5211   -4.8265    1.4208 C   0  0  0  0  0  0  0  0  0  0  0  0
   -1.8842   -4.7935   -0.3965 C   0  0  0  0  0  0  0  0  0  0  0  0
   -1.0522   -5.8671    0.1341 C   0  0  0  0  0  0  0  0  0  0  0  0
   -0.1566   -6.4747   -0.7577 C   0  0  0  0  0  0  0  0  0  0  0  0
    0.6646   -7.5113   -0.3800 C   0  0  0  0  0  0  0  0  0  0  0  0
    0.5969   -7.9587    0.9145 C   0  0  0  0  0  0  0  0  0  0  0  0
   -0.2827   -7.3731    1.8176 C   0  0  0  0  0  0  0  0  0  0  0  0
   -1.1107   -6.3314    1.4473 C   0  0  0  0  0  0  0  0  0  0  0  0
   -5.8132   -1.6262    0.1270 C   0  0  0  0  0  0  0  0  0  0  0  0
   -6.2328   -3.0819    0.2055 C   0  0  0  0  0  0  0  0  0  0  0  0
   -6.5735   -3.6720   -1.1410 C   0  0  0  0  0  0  0  0  0  0  0  0
   -6.9649   -5.0716   -1.0141 N   0  0  0  0  0  0  0  0  0  0  0  0
   -8.1168   -5.4497   -0.5948 C   0  0  0  0  0  0  0  0  0  0  0  0
   -9.1550   -4.5590   -0.2018 N   0  0  0  0  0  0  0  0  0  0  0  0
   -8.3288   -6.8674   -0.5336 N   0  0  0  0  0  0  0  0  0  0  0  0
   -5.3614    3.3695   -1.8571 C   0  0  0  0  0  0  0  0  0  0  0  0
   -6.6497    3.6213   -1.1901 C   0  0  0  0  0  0  0  0  0  0  0  0
   -7.7982    2.8767   -1.5066 C   0  0  0  0  0  0  0  0  0  0  0  0
   -8.8179    3.2927   -0.7074 N   0  0  0  0  0  0  0  0  0  0  0  0
   -8.3951    4.2655    0.1100 C   0  0  0  0  0  0  0  0  0  0  0  0
   -7.0511    4.4637   -0.1957 C   0  0  0  0  0  0  0  0  0  0  0  0
   -6.3767    5.4327    0.5065 C   0  0  0  0  0  0  0  0  0  0  0  0
   -7.0055    6.1771    1.4778 C   0  0  0  0  0  0  0  0  0  0  0  0
   -8.3376    5.9714    1.7737 C   0  0  0  0  0  0  0  0  0  0  0  0
   -9.0348    5.0105    1.0857 C   0  0  0  0  0  0  0  0  0  0  0  0
   -2.6427    6.0085    1.8251 C   0  0  0  0  0  0  0  0  0  0  0  0
   -2.2753    6.4512    2.9501 O   0  0  0  0  0  0  0  0  0  0  0  0
   -3.0335    6.9689    0.8655 N   0  0  0  0  0  0  0  0  0  0  0  0
    7.9977    2.1676   -2.1610 N   0  0  0  0  0  0  0  0  0  0  0  0
    8.0402    3.4963   -1.6038 C   0  0  0  0  0  0  0  0  0  0  0  0
    8.4175    3.7191   -0.4202 O   0  0  0  0  0  0  0  0  0  0  0  0
    7.6305    4.6903   -2.4153 C   0  0  0  0  0  0  0  0  0  0  0  0
   11.9517    0.7825    1.2416 H   0  0  0  0  0  0  0  0  0  0  0  0
   12.1811    0.0180   -0.4176 H   0  0  0  0  0  0  0  0  0  0  0  0
   13.5188    0.9336    0.4059 H   0  0  0  0  0  0  0  0  0  0  0  0
   12.7112    2.5497   -1.1227 H   0  0  0  0  0  0  0  0  0  0  0  0
   11.6990    2.9509    0.3210 H   0  0  0  0  0  0  0  0  0  0  0  0
   10.4544    2.7918   -1.8379 H   0  0  0  0  0  0  0  0  0  0  0  0
   11.0689    1.1431   -2.0589 H   0  0  0  0  0  0  0  0  0  0  0  0
    9.9174    0.2400   -0.1791 H   0  0  0  0  0  0  0  0  0  0  0  0
    9.3107    1.8020    0.4273 H   0  0  0  0  0  0  0  0  0  0  0  0
    8.8367    0.2928   -2.1390 H   0  0  0  0  0  0  0  0  0  0  0  0
    5.6999    1.6993   -1.4466 H   0  0  0  0  0  0  0  0  0  0  0  0
    5.4707   -0.3543    0.8121 H   0  0  0  0  0  0  0  0  0  0  0  0
    3.7150    1.9648   -0.2529 H   0  0  0  0  0  0  0  0  0  0  0  0
    4.7803    2.1316    1.1415 H   0  0  0  0  0  0  0  0  0  0  0  0
    3.3358    0.2180    2.2321 H   0  0  0  0  0  0  0  0  0  0  0  0
    2.2405    0.4379    0.8564 H   0  0  0  0  0  0  0  0  0  0  0  0
    0.3657    1.7755    1.5862 H   0  0  0  0  0  0  0  0  0  0  0  0
   -0.9559    3.8931    3.7460 H   0  0  0  0  0  0  0  0  0  0  0  0
   -0.2405    5.3489    3.0000 H   0  0  0  0  0  0  0  0  0  0  0  0
   -0.6885    4.5047    0.7776 H   0  0  0  0  0  0  0  0  0  0  0  0
   -1.2808    2.9391    1.3780 H   0  0  0  0  0  0  0  0  0  0  0  0
   -3.1472    4.0587    2.4573 H   0  0  0  0  0  0  0  0  0  0  0  0
   -2.9005    4.5667   -0.5655 H   0  0  0  0  0  0  0  0  0  0  0  0
   -3.5327    2.2549   -1.7473 H   0  0  0  0  0  0  0  0  0  0  0  0
   -6.0400    0.9399   -0.9322 H   0  0  0  0  0  0  0  0  0  0  0  0
   -4.8446   -1.6583   -1.7763 H   0  0  0  0  0  0  0  0  0  0  0  0
   -3.5680   -2.5976    0.7342 H   0  0  0  0  0  0  0  0  0  0  0  0
   -1.1429   -3.0466    0.6994 H   0  0  0  0  0  0  0  0  0  0  0  0
    0.2164   -3.7489   -1.9126 H   0  0  0  0  0  0  0  0  0  0  0  0
    2.3181   -2.2031   -2.0985 H   0  0  0  0  0  0  0  0  0  0  0  0
    3.2632   -1.6567    0.7546 H   0  0  0  0  0  0  0  0  0  0  0  0
    4.1196   -3.7684   -1.3954 H   0  0  0  0  0  0  0  0  0  0  0  0
    2.5276   -4.5673   -1.4844 H   0  0  0  0  0  0  0  0  0  0  0  0
    5.2380   -3.2782    0.8461 H   0  0  0  0  0  0  0  0  0  0  0  0
    5.0126   -4.0886    3.3040 H   0  0  0  0  0  0  0  0  0  0  0  0
    1.5627   -5.2511    1.1952 H   0  0  0  0  0  0  0  0  0  0  0  0
   -2.1529   -4.9554   -1.4752 H   0  0  0  0  0  0  0  0  0  0  0  0
   -2.8632   -4.8322    0.1365 H   0  0  0  0  0  0  0  0  0  0  0  0
   -0.1016   -6.1198   -1.7854 H   0  0  0  0  0  0  0  0  0  0  0  0
    1.3410   -7.9477   -1.1146 H   0  0  0  0  0  0  0  0  0  0  0  0
    1.2544   -8.7768    1.1830 H   0  0  0  0  0  0  0  0  0  0  0  0
   -0.3045   -7.7668    2.8481 H   0  0  0  0  0  0  0  0  0  0  0  0
   -1.7924   -5.8704    2.1234 H   0  0  0  0  0  0  0  0  0  0  0  0
   -6.6805   -1.0717   -0.3043 H   0  0  0  0  0  0  0  0  0  0  0  0
   -5.6442   -1.3037    1.1839 H   0  0  0  0  0  0  0  0  0  0  0  0
   -7.1585   -3.1177    0.8164 H   0  0  0  0  0  0  0  0  0  0  0  0
   -5.4627   -3.7076    0.6785 H   0  0  0  0  0  0  0  0  0  0  0  0
   -5.6855   -3.6664   -1.8295 H   0  0  0  0  0  0  0  0  0  0  0  0
   -7.4420   -3.1601   -1.5996 H   0  0  0  0  0  0  0  0  0  0  0  0
   -9.2799   -4.2104    0.7766 H   0  0  0  0  0  0  0  0  0  0  0  0
   -9.8575   -4.2117   -0.9056 H   0  0  0  0  0  0  0  0  0  0  0  0
   -9.2239   -7.2194   -0.9099 H   0  0  0  0  0  0  0  0  0  0  0  0
   -7.6124   -7.5173   -0.1278 H   0  0  0  0  0  0  0  0  0  0  0  0
   -5.5322    2.9354   -2.8720 H   0  0  0  0  0  0  0  0  0  0  0  0
   -4.8138    4.3349   -2.0480 H   0  0  0  0  0  0  0  0  0  0  0  0
   -7.8806    2.1106   -2.2476 H   0  0  0  0  0  0  0  0  0  0  0  0
   -9.7900    2.9041   -0.7338 H   0  0  0  0  0  0  0  0  0  0  0  0
   -5.3540    5.5993    0.2629 H   0  0  0  0  0  0  0  0  0  0  0  0
   -6.4445    6.9279    2.0117 H   0  0  0  0  0  0  0  0  0  0  0  0
   -8.8265    6.5656    2.5431 H   0  0  0  0  0  0  0  0  0  0  0  0
  -10.0858    4.8382    1.3061 H   0  0  0  0  0  0  0  0  0  0  0  0
   -2.5637    7.0584   -0.0713 H   0  0  0  0  0  0  0  0  0  0  0  0
   -3.8269    7.6143    1.1111 H   0  0  0  0  0  0  0  0  0  0  0  0
    7.6500    2.1252   -3.1615 H   0  0  0  0  0  0  0  0  0  0  0  0
    7.9250    4.6222   -3.4681 H   0  0  0  0  0  0  0  0  0  0  0  0
    8.0185    5.5900   -1.9199 H   0  0  0  0  0  0  0  0  0  0  0  0
    6.5191    4.7670   -2.3392 H   0  0  0  0  0  0  0  0  0  0  0  0
  1  2  1  0
  2  3  1  0
  3  4  1  0
  4  5  1  0
  5  6  1  0
  6  7  2  0
  6  8  1  0
  8  9  1  0
  9 10  1  0
 10 11  1  0
 11 12  1  0
 12 13  1  0
 13 14  2  0
 14 15  1  0
 15 16  2  0
 15 17  1  0
 17 18  1  0
 18 19  1  0
 19 20  1  0
 20 21  1  0
 21 22  2  0
 21 23  1  0
 23 24  1  0
 24 25  1  0
 25 26  2  0
 25 27  1  0
 27 28  1  0
 28 29  1  0
 29 30  2  0
 29 31  1  0
 31 32  1  0
 32 33  1  0
 33 34  2  0
 33 35  1  0
 35 36  1  0
 36 37  1  0
 37 38  2  0
 35 39  1  0
 39 40  1  0
 40 41  1  0
 41 42  1  0
 42 43  2  0
 43 44  1  0
 31 45  1  0
 45 46  1  0
 46 47  2  0
 47 48  1  0
 48 49  2  0
 49 50  1  0
 50 51  2  0
 27 52  1  0
 52 53  1  0
 53 54  1  0
 54 55  1  0
 55 56  2  3
 56 57  1  0
 56 58  1  0
 23 59  1  0
 59 60  1  0
 60 61  2  0
 61 62  1  0
 62 63  1  0
 63 64  2  0
 64 65  1  0
 65 66  2  0
 66 67  1  0
 67 68  2  0
 19 69  1  0
 69 70  2  0
 69 71  1  0
  5 72  1  0
 72 73  1  0
 73 74  2  0
 73 75  1  0
 37  9  1  0
 44 40  2  0
 51 46  1  0
 64 60  1  0
 16 12  1  0
 68 63  1  0
  1 76  1  0
  1 77  1  0
  1 78  1  0
  2 79  1  0
  2 80  1  0
  3 81  1  0
  3 82  1  0
  4 83  1  0
  4 84  1  0
  5 85  1  6
  8 86  1  0
  9 87  1  1
 10 88  1  0
 10 89  1  0
 11 90  1  0
 11 91  1  0
 16 92  1  0
 17 93  1  0
 17 94  1  0
 18 95  1  0
 18 96  1  0
 19 97  1  1
 20 98  1  0
 23 99  1  6
 24100  1  0
 27101  1  6
 28102  1  0
 31103  1  1
 32104  1  0
 35105  1  6
 36106  1  0
 39107  1  0
 39108  1  0
 41109  1  0
 42110  1  0
 44111  1  0
 45112  1  0
 45113  1  0
 47114  1  0
 48115  1  0
 49116  1  0
 50117  1  0
 51118  1  0
 52119  1  0
 52120  1  0
 53121  1  0
 53122  1  0
 54123  1  0
 54124  1  0
 57125  1  0
 57126  1  0
 58127  1  0
 58128  1  0
 59129  1  0
 59130  1  0
 61131  1  0
 62132  1  0
 65133  1  0
 66134  1  0
 67135  1  0
 68136  1  0
 71137  1  0
 71138  1  0
 72139  1  0
 75140  1  0
 75141  1  0
 75142  1  0
M  END
>  <Ligand ID>  (1) 
LIG0001795

>  <Ligand>  (1) 
CHEMBL3358552

>  <SMILES>  (1) 
CCCC[C@@H](C(=O)N[C@H]1CCn2nnc(c2)CC[C@H](NC(=O)[C@@H](NC(=O)[C@@H](NC(=O)[C@H](NC(=O)[C@@H](NC1=O)Cc1[nH]cnc1)Cc1ccccc1)CCCN=C(N)N)Cc1c[nH]c2c1cccc2)C(=O)N)NC(=O)C

>  <CID>  (1) 
118722944.0

>  <ChEMBL ID>  (1) 
nan

>  <InChiKey>  (1) 
XUYPJACQMZDKJH-PCYFNTAWSA-N

>  <InChi>  (1) 
InChI=1S/C50H67N17O8/c1-3-4-14-37(58-29(2)68)44(70)61-39-19-21-67-27-32(65-66-67)17-18-36(43(51)69)59-48(74)41(23-31-25-56-35-15-9-8-13-34(31)35)63-45(71)38(16-10-20-55-50(52)53)60-47(73)40(22-30-11-6-5-7-12-30)62-49(75)42(64-46(39)72)24-33-26-54-28-57-33/h5-9,11-13,15,25-28,36-42,56H,3-4,10,14,16-24H2,1-2H3,(H2,51,69)(H,54,57)(H,58,68)(H,59,74)(H,60,73)(H,61,70)(H,62,75)(H,63,71)(H,64,72)(H4,52,53,55)/t36-,37-,38-,39-,40+,41-,42-/m0/s1

>  <IUPAC Name>  (1) 
(4S,7S,10R,13S,16S,19S)-4-[[(2S)-2-acetamidohexanoyl]amino]-10-benzyl-13-[3-(diaminomethylideneamino)propyl]-7-(1H-imidazol-5-ylmethyl)-16-(1H-indol-3-ylmethyl)-5,8,11,14,17-pentaoxo-1,6,9,12,15,18,23,24-octazabicyclo[20.2.1]pentacosa-22(25),23-diene-19-carboxamide

$$$$
