
     RDKit          3D

 36 37  0  0  0  0  0  0  0  0999 V2000
   -3.7959   -2.1339   -0.6594 C   0  0  0  0  0  0  0  0  0  0  0  0
   -3.8538   -1.8551    0.8084 C   0  0  0  0  0  0  0  0  0  0  0  0
   -3.3603   -0.5189    1.1458 N   0  0  0  0  0  0  0  0  0  0  0  0
   -2.0081   -0.2491    0.7862 C   0  0  0  0  0  0  0  0  0  0  0  0
   -1.4114   -1.2007    0.2220 O   0  0  0  0  0  0  0  0  0  0  0  0
   -1.4273    1.0481    1.0790 C   0  0  0  0  0  0  0  0  0  0  0  0
   -2.1828    2.0163    1.7037 C   0  0  0  0  0  0  0  0  0  0  0  0
   -1.6723    3.2835    2.0092 C   0  0  0  0  0  0  0  0  0  0  0  0
   -0.3760    3.6081    1.6893 C   0  0  0  0  0  0  0  0  0  0  0  0
    0.3777    2.6420    1.0660 C   0  0  0  0  0  0  0  0  0  0  0  0
   -0.1263    1.3723    0.7574 C   0  0  0  0  0  0  0  0  0  0  0  0
    0.7580    0.4712    0.1141 N   0  0  0  0  0  0  0  0  0  0  0  0
    2.1336    0.9217   -0.1852 C   0  0  0  0  0  0  0  0  0  0  0  0
    2.9430   -0.0982   -0.8470 C   0  0  0  0  0  0  0  0  0  0  0  0
    3.5148   -0.0343   -2.0170 N   0  0  0  0  0  0  0  0  0  0  0  0
    4.2316   -1.2526   -2.3212 C   0  0  0  0  0  0  0  0  0  0  0  0
    4.3213   -2.0101   -1.0099 C   0  0  0  0  0  0  0  0  0  0  0  0
    3.2374   -1.3767   -0.2752 N   0  0  0  0  0  0  0  0  0  0  0  0
   -2.8445   -2.5846   -1.0096 H   0  0  0  0  0  0  0  0  0  0  0  0
   -4.0756   -1.2454   -1.2788 H   0  0  0  0  0  0  0  0  0  0  0  0
   -4.5976   -2.8858   -0.9212 H   0  0  0  0  0  0  0  0  0  0  0  0
   -3.1327   -2.5508    1.3217 H   0  0  0  0  0  0  0  0  0  0  0  0
   -4.8843   -1.9874    1.1848 H   0  0  0  0  0  0  0  0  0  0  0  0
   -4.0012    0.1368    1.6130 H   0  0  0  0  0  0  0  0  0  0  0  0
   -3.2168    1.8797    2.0052 H   0  0  0  0  0  0  0  0  0  0  0  0
   -2.2765    4.0323    2.4991 H   0  0  0  0  0  0  0  0  0  0  0  0
   -0.0076    4.5908    1.9356 H   0  0  0  0  0  0  0  0  0  0  0  0
    1.4022    2.9223    0.8222 H   0  0  0  0  0  0  0  0  0  0  0  0
    0.5616   -0.4855   -0.1809 H   0  0  0  0  0  0  0  0  0  0  0  0
    2.0317    1.8417   -0.7880 H   0  0  0  0  0  0  0  0  0  0  0  0
    2.5472    1.2352    0.8072 H   0  0  0  0  0  0  0  0  0  0  0  0
    3.6984   -1.8810   -3.0651 H   0  0  0  0  0  0  0  0  0  0  0  0
    5.2688   -0.9926   -2.6640 H   0  0  0  0  0  0  0  0  0  0  0  0
    4.1942   -3.1039   -1.1224 H   0  0  0  0  0  0  0  0  0  0  0  0
    5.2522   -1.7234   -0.4857 H   0  0  0  0  0  0  0  0  0  0  0  0
    2.7773   -1.8320    0.5416 H   0  0  0  0  0  0  0  0  0  0  0  0
  1  2  1  0
  2  3  1  0
  3  4  1  0
  4  5  2  0
  4  6  1  0
  6  7  2  0
  7  8  1  0
  8  9  2  0
  9 10  1  0
 10 11  2  0
 11 12  1  0
 12 13  1  0
 13 14  1  0
 14 15  2  0
 15 16  1  0
 16 17  1  0
 17 18  1  0
 11  6  1  0
 18 14  1  0
  1 19  1  0
  1 20  1  0
  1 21  1  0
  2 22  1  0
  2 23  1  0
  3 24  1  0
  7 25  1  0
  8 26  1  0
  9 27  1  0
 10 28  1  0
 12 29  1  0
 13 30  1  0
 13 31  1  0
 16 32  1  0
 16 33  1  0
 17 34  1  0
 17 35  1  0
 18 36  1  0
M  END
>  <Ligand ID>  (1) 
LIG0004414

>  <Ligand>  (1) 
CHEMBL99362

>  <SMILES>  (1) 
CCNC(=O)c1ccccc1NCC1=NCCN1

>  <CID>  (1) 
22493224.0

>  <ChEMBL ID>  (1) 
nan

>  <InChiKey>  (1) 
LQGPNFSDWYQHAY-UHFFFAOYSA-N

>  <InChi>  (1) 
InChI=1S/C13H18N4O/c1-2-14-13(18)10-5-3-4-6-11(10)17-9-12-15-7-8-16-12/h3-6,17H,2,7-9H2,1H3,(H,14,18)(H,15,16)

>  <IUPAC Name>  (1) 
2-(4,5-dihydro-1H-imidazol-2-ylmethylamino)-N-ethylbenzamide

$$$$
