
     RDKit          3D

 55 57  0  0  0  0  0  0  0  0999 V2000
   -0.2677    5.1424    1.3104 C   0  0  0  0  0  0  0  0  0  0  0  0
   -0.3904    4.3902    0.0081 C   0  0  0  0  0  0  0  0  0  0  0  0
   -0.3628    2.9978    0.1827 O   0  0  0  0  0  0  0  0  0  0  0  0
   -0.4613    2.0913   -0.8823 C   0  0  0  0  0  0  0  0  0  0  0  0
   -0.5801    2.5884   -2.0476 O   0  0  0  0  0  0  0  0  0  0  0  0
   -0.4266    0.6263   -0.6419 C   0  0  0  0  0  0  0  0  0  0  0  0
   -1.6058    0.3109    0.2705 C   0  0  0  0  0  0  0  0  0  0  0  0
   -2.9308    0.6892   -0.3195 C   0  0  0  0  0  0  0  0  0  0  0  0
   -4.0120    0.4070    0.4867 O   0  0  0  0  0  0  0  0  0  0  0  0
   -4.5070   -0.7614    0.9670 C   0  0  0  0  0  0  0  0  0  0  0  0
   -4.0305   -2.0235    0.7369 C   0  0  0  0  0  0  0  0  0  0  0  0
   -4.6136   -3.1675    1.2836 C   0  0  0  0  0  0  0  0  0  0  0  0
   -5.7203   -3.0477    2.0946 C   0  0  0  0  0  0  0  0  0  0  0  0
   -6.2094   -1.8018    2.3350 C   0  0  0  0  0  0  0  0  0  0  0  0
   -5.6338   -0.6802    1.7964 C   0  0  0  0  0  0  0  0  0  0  0  0
   -0.4487   -0.0887   -1.9433 C   0  0  0  0  0  0  0  0  0  0  0  0
    0.5580   -1.2016   -2.0594 C   0  0  0  0  0  0  0  0  0  0  0  0
    1.9142   -0.8130   -1.7245 N   0  0  0  0  0  0  0  0  0  0  0  0
    1.9766    0.2690   -0.8035 C   0  0  0  0  0  0  0  0  0  0  0  0
    0.8124    0.2811    0.1694 C   0  0  0  0  0  0  0  0  0  0  0  0
    2.5238   -1.9914   -1.1548 C   0  0  0  0  0  0  0  0  0  0  0  0
    3.9273   -1.7521   -0.7960 C   0  0  0  0  0  0  0  0  0  0  0  0
    5.0126   -1.8948   -1.6076 C   0  0  0  0  0  0  0  0  0  0  0  0
    6.1911   -1.6525   -1.1181 N   0  0  0  0  0  0  0  0  0  0  0  0
    6.3477   -1.2800    0.1215 C   0  0  0  0  0  0  0  0  0  0  0  0
    4.5787   -1.2418    0.7738 S   0  0  0  0  0  0  0  0  0  0  0  0
    7.4888   -0.9294    0.9918 C   0  0  0  0  0  0  0  0  0  0  0  0
   -0.8428    6.0900    1.2161 H   0  0  0  0  0  0  0  0  0  0  0  0
   -0.6559    4.4835    2.1334 H   0  0  0  0  0  0  0  0  0  0  0  0
    0.8109    5.3491    1.4513 H   0  0  0  0  0  0  0  0  0  0  0  0
   -1.4092    4.6324   -0.4064 H   0  0  0  0  0  0  0  0  0  0  0  0
    0.3692    4.6979   -0.7364 H   0  0  0  0  0  0  0  0  0  0  0  0
   -1.4565    1.0364    1.1399 H   0  0  0  0  0  0  0  0  0  0  0  0
   -1.5290   -0.6912    0.6774 H   0  0  0  0  0  0  0  0  0  0  0  0
   -3.0966    0.2738   -1.3396 H   0  0  0  0  0  0  0  0  0  0  0  0
   -2.9433    1.8110   -0.4985 H   0  0  0  0  0  0  0  0  0  0  0  0
   -3.1806   -2.1930    0.1046 H   0  0  0  0  0  0  0  0  0  0  0  0
   -4.1852   -4.1516    1.0624 H   0  0  0  0  0  0  0  0  0  0  0  0
   -6.1452   -3.9599    2.5008 H   0  0  0  0  0  0  0  0  0  0  0  0
   -7.0823   -1.7187    2.9756 H   0  0  0  0  0  0  0  0  0  0  0  0
   -6.0757    0.2807    2.0296 H   0  0  0  0  0  0  0  0  0  0  0  0
   -1.4389   -0.5663   -2.0956 H   0  0  0  0  0  0  0  0  0  0  0  0
   -0.3451    0.6067   -2.8268 H   0  0  0  0  0  0  0  0  0  0  0  0
    0.2258   -2.1202   -1.5356 H   0  0  0  0  0  0  0  0  0  0  0  0
    0.5890   -1.4703   -3.1499 H   0  0  0  0  0  0  0  0  0  0  0  0
    2.9019    0.3323   -0.2087 H   0  0  0  0  0  0  0  0  0  0  0  0
    1.9192    1.2166   -1.3873 H   0  0  0  0  0  0  0  0  0  0  0  0
    0.9886    1.1247    0.8705 H   0  0  0  0  0  0  0  0  0  0  0  0
    0.7198   -0.6388    0.7497 H   0  0  0  0  0  0  0  0  0  0  0  0
    1.9595   -2.3286   -0.2510 H   0  0  0  0  0  0  0  0  0  0  0  0
    2.5153   -2.8057   -1.9106 H   0  0  0  0  0  0  0  0  0  0  0  0
    4.8747   -2.2145   -2.6711 H   0  0  0  0  0  0  0  0  0  0  0  0
    7.1650   -0.4206    1.9231 H   0  0  0  0  0  0  0  0  0  0  0  0
    8.1879   -0.2751    0.4192 H   0  0  0  0  0  0  0  0  0  0  0  0
    8.0288   -1.8465    1.3341 H   0  0  0  0  0  0  0  0  0  0  0  0
  1  2  1  0
  2  3  1  0
  3  4  1  0
  4  5  2  0
  4  6  1  0
  6  7  1  0
  7  8  1  0
  8  9  1  0
  9 10  1  0
 10 11  2  0
 11 12  1  0
 12 13  2  0
 13 14  1  0
 14 15  2  0
  6 16  1  0
 16 17  1  0
 17 18  1  0
 18 19  1  0
 19 20  1  0
 18 21  1  0
 21 22  1  0
 22 23  2  0
 23 24  1  0
 24 25  2  0
 25 26  1  0
 25 27  1  0
 20  6  1  0
 26 22  1  0
 15 10  1  0
  1 28  1  0
  1 29  1  0
  1 30  1  0
  2 31  1  0
  2 32  1  0
  7 33  1  0
  7 34  1  0
  8 35  1  0
  8 36  1  0
 11 37  1  0
 12 38  1  0
 13 39  1  0
 14 40  1  0
 15 41  1  0
 16 42  1  0
 16 43  1  0
 17 44  1  0
 17 45  1  0
 19 46  1  0
 19 47  1  0
 20 48  1  0
 20 49  1  0
 21 50  1  0
 21 51  1  0
 23 52  1  0
 27 53  1  0
 27 54  1  0
 27 55  1  0
M  END
>  <Ligand ID>  (1) 
LIG0004441

>  <Ligand>  (1) 
MLS000735366

>  <SMILES>  (1) 
CCOC(=O)C1(CCOc2ccccc2)CCN(CC1)Cc1cnc(s1)C

>  <CID>  (1) 
16187535.0

>  <ChEMBL ID>  (1) 
nan

>  <InChiKey>  (1) 
AQDWISRSCBMKHV-UHFFFAOYSA-N

>  <InChi>  (1) 
InChI=1S/C21H28N2O3S/c1-3-25-20(24)21(11-14-26-18-7-5-4-6-8-18)9-12-23(13-10-21)16-19-15-22-17(2)27-19/h4-8,15H,3,9-14,16H2,1-2H3

>  <IUPAC Name>  (1) 
ethyl 1-[(2-methyl-1,3-thiazol-5-yl)methyl]-4-(2-phenoxyethyl)piperidine-4-carboxylate

$$$$
