
     RDKit          3D

 56 57  0  0  0  0  0  0  0  0999 V2000
    8.1353    0.5798    1.0355 C   0  0  0  0  0  0  0  0  0  0  0  0
    7.3610    1.0263   -0.0630 O   0  0  0  0  0  0  0  0  0  0  0  0
    5.9985    0.8145   -0.0536 C   0  0  0  0  0  0  0  0  0  0  0  0
    5.3169    0.1882    0.9647 C   0  0  0  0  0  0  0  0  0  0  0  0
    3.9525    0.0038    0.9198 C   0  0  0  0  0  0  0  0  0  0  0  0
    3.1782    0.4432   -0.1648 C   0  0  0  0  0  0  0  0  0  0  0  0
    3.8799    1.0659   -1.1696 C   0  0  0  0  0  0  0  0  0  0  0  0
    5.2581    1.2533   -1.1271 C   0  0  0  0  0  0  0  0  0  0  0  0
    1.7022    0.2494   -0.1861 C   0  0  0  0  0  0  0  0  0  0  0  0
    1.1866   -0.4086   -1.3348 N   0  0  0  0  0  0  0  0  0  0  0  0
    1.1980    0.2966   -2.5691 C   0  0  0  0  0  0  0  0  0  0  0  0
    1.6359   -1.7804   -1.4585 C   0  0  0  0  0  0  0  0  0  0  0  0
    1.3649   -0.6289    1.0017 C   0  0  0  0  0  0  0  0  0  0  0  0
   -0.0886   -0.8296    0.9758 N   0  0  0  0  0  0  0  0  0  0  0  0
   -1.0142    0.2359    1.0770 C   0  0  0  0  0  0  0  0  0  0  0  0
   -0.6965    1.4435    1.2008 O   0  0  0  0  0  0  0  0  0  0  0  0
   -2.4829   -0.0560    1.0377 C   0  0  0  0  0  0  0  0  0  0  0  0
   -2.7439   -0.7036   -0.3098 C   0  0  0  0  0  0  0  0  0  0  0  0
   -4.1534   -1.0610   -0.5214 C   0  0  0  0  0  0  0  0  0  0  0  0
   -4.9886   -0.1145   -1.1073 C   0  0  0  0  0  0  0  0  0  0  0  0
   -6.3252   -0.3581   -1.3458 C   0  0  0  0  0  0  0  0  0  0  0  0
   -6.8531   -1.5920   -0.9878 C   0  0  0  0  0  0  0  0  0  0  0  0
   -6.0350   -2.5379   -0.4065 C   0  0  0  0  0  0  0  0  0  0  0  0
   -4.6987   -2.2828   -0.1725 C   0  0  0  0  0  0  0  0  0  0  0  0
   -3.1789    1.1994    1.1596 N   0  0  0  0  0  0  0  0  0  0  0  0
   -4.0378    1.3737    2.2870 C   0  0  0  0  0  0  0  0  0  0  0  0
   -4.1577    0.4327    3.1303 O   0  0  0  0  0  0  0  0  0  0  0  0
   -4.7700    2.5807    2.4962 N   0  0  0  0  0  0  0  0  0  0  0  0
    9.2017    0.7757    0.7285 H   0  0  0  0  0  0  0  0  0  0  0  0
    7.9156    1.1981    1.9461 H   0  0  0  0  0  0  0  0  0  0  0  0
    7.9503   -0.4882    1.1998 H   0  0  0  0  0  0  0  0  0  0  0  0
    5.8948   -0.1613    1.8164 H   0  0  0  0  0  0  0  0  0  0  0  0
    3.5123   -0.5027    1.7673 H   0  0  0  0  0  0  0  0  0  0  0  0
    3.3926    1.4528   -2.0506 H   0  0  0  0  0  0  0  0  0  0  0  0
    5.7721    1.7511   -1.9447 H   0  0  0  0  0  0  0  0  0  0  0  0
    1.1935    1.2387   -0.0545 H   0  0  0  0  0  0  0  0  0  0  0  0
    0.2433   -0.0283   -3.1044 H   0  0  0  0  0  0  0  0  0  0  0  0
    1.0663    1.3724   -2.3726 H   0  0  0  0  0  0  0  0  0  0  0  0
    1.9909    0.0305   -3.2830 H   0  0  0  0  0  0  0  0  0  0  0  0
    0.9015   -2.4255   -0.9428 H   0  0  0  0  0  0  0  0  0  0  0  0
    2.6233   -1.9214   -0.9861 H   0  0  0  0  0  0  0  0  0  0  0  0
    1.6947   -1.9921   -2.5454 H   0  0  0  0  0  0  0  0  0  0  0  0
    1.5778   -0.0973    1.9637 H   0  0  0  0  0  0  0  0  0  0  0  0
    1.8955   -1.5773    0.8793 H   0  0  0  0  0  0  0  0  0  0  0  0
   -0.4886   -1.7905    0.8821 H   0  0  0  0  0  0  0  0  0  0  0  0
   -2.7185   -0.7317    1.8607 H   0  0  0  0  0  0  0  0  0  0  0  0
   -2.4448    0.0657   -1.0699 H   0  0  0  0  0  0  0  0  0  0  0  0
   -2.1063   -1.6016   -0.3777 H   0  0  0  0  0  0  0  0  0  0  0  0
   -4.6152    0.8603   -1.4011 H   0  0  0  0  0  0  0  0  0  0  0  0
   -6.9419    0.3973   -1.8009 H   0  0  0  0  0  0  0  0  0  0  0  0
   -7.9031   -1.7723   -1.1796 H   0  0  0  0  0  0  0  0  0  0  0  0
   -6.4306   -3.5185   -0.1159 H   0  0  0  0  0  0  0  0  0  0  0  0
   -4.0343   -3.0051    0.2813 H   0  0  0  0  0  0  0  0  0  0  0  0
   -3.0616    1.9508    0.4549 H   0  0  0  0  0  0  0  0  0  0  0  0
   -4.2005    3.4497    2.5935 H   0  0  0  0  0  0  0  0  0  0  0  0
   -5.8246    2.5792    2.5473 H   0  0  0  0  0  0  0  0  0  0  0  0
  1  2  1  0
  2  3  1  0
  3  4  2  0
  4  5  1  0
  5  6  2  0
  6  7  1  0
  7  8  2  0
  6  9  1  0
  9 10  1  0
 10 11  1  0
 10 12  1  0
  9 13  1  0
 13 14  1  0
 14 15  1  0
 15 16  2  0
 15 17  1  0
 17 18  1  0
 18 19  1  0
 19 20  2  0
 20 21  1  0
 21 22  2  0
 22 23  1  0
 23 24  2  0
 17 25  1  0
 25 26  1  0
 26 27  2  0
 26 28  1  0
  8  3  1  0
 24 19  1  0
  1 29  1  0
  1 30  1  0
  1 31  1  0
  4 32  1  0
  5 33  1  0
  7 34  1  0
  8 35  1  0
  9 36  1  0
 11 37  1  0
 11 38  1  0
 11 39  1  0
 12 40  1  0
 12 41  1  0
 12 42  1  0
 13 43  1  0
 13 44  1  0
 14 45  1  0
 17 46  1  0
 18 47  1  0
 18 48  1  0
 20 49  1  0
 21 50  1  0
 22 51  1  0
 23 52  1  0
 24 53  1  0
 25 54  1  0
 28 55  1  0
 28 56  1  0
M  END
>  <Ligand ID>  (1) 
LIG0004510

>  <Ligand>  (1) 
MLS001172890

>  <SMILES>  (1) 
COc1ccc(cc1)C(N(C)C)CNC(=O)C(Cc1ccccc1)NC(=O)N

>  <CID>  (1) 
4830308.0

>  <ChEMBL ID>  (1) 
nan

>  <InChiKey>  (1) 
ZRJSXSSAXYDJHP-UHFFFAOYSA-N

>  <InChi>  (1) 
InChI=1S/C21H28N4O3/c1-25(2)19(16-9-11-17(28-3)12-10-16)14-23-20(26)18(24-21(22)27)13-15-7-5-4-6-8-15/h4-12,18-19H,13-14H2,1-3H3,(H,23,26)(H3,22,24,27)

>  <IUPAC Name>  (1) 
2-(carbamoylamino)-N-[2-(dimethylamino)-2-(4-methoxyphenyl)ethyl]-3-phenylpropanamide

$$$$
