
     RDKit          3D

 50 52  0  0  0  0  0  0  0  0999 V2000
    8.3631   -1.0282   -0.3479 C   0  0  0  0  0  0  0  0  0  0  0  0
    6.8878   -0.9490   -0.0393 C   0  0  0  0  0  0  0  0  0  0  0  0
    6.3049    0.2947   -0.6364 C   0  0  0  0  0  0  0  0  0  0  0  0
    4.8629    0.4539   -0.3829 C   0  0  0  0  0  0  0  0  0  0  0  0
    3.8700   -0.0274   -1.2102 C   0  0  0  0  0  0  0  0  0  0  0  0
    2.5342    0.1908   -0.8511 C   0  0  0  0  0  0  0  0  0  0  0  0
    2.2042    0.8751    0.3094 C   0  0  0  0  0  0  0  0  0  0  0  0
    3.1945    1.3329    1.0963 N   0  0  0  0  0  0  0  0  0  0  0  0
    4.4795    1.1271    0.7581 C   0  0  0  0  0  0  0  0  0  0  0  0
    0.8217    1.1156    0.7102 C   0  0  0  0  0  0  0  0  0  0  0  0
    0.4104    1.7549    1.7890 O   0  0  0  0  0  0  0  0  0  0  0  0
   -0.8678    1.7943    1.8504 N   0  0  0  0  0  0  0  0  0  0  0  0
   -1.3687    1.1494    0.7583 C   0  0  0  0  0  0  0  0  0  0  0  0
   -0.3060    0.7442    0.0777 N   0  0  0  0  0  0  0  0  0  0  0  0
   -2.7552    0.9443    0.4077 C   0  0  0  0  0  0  0  0  0  0  0  0
   -3.0878    0.2579   -0.7561 C   0  0  0  0  0  0  0  0  0  0  0  0
   -4.4119    0.0448   -1.1189 C   0  0  0  0  0  0  0  0  0  0  0  0
   -5.4581    0.4971   -0.3517 C   0  0  0  0  0  0  0  0  0  0  0  0
   -5.1111    1.1835    0.8112 C   0  0  0  0  0  0  0  0  0  0  0  0
   -3.8044    1.3995    1.1780 C   0  0  0  0  0  0  0  0  0  0  0  0
   -3.5097    2.1396    2.4337 C   0  0  0  0  0  0  0  0  0  0  0  0
   -6.8782    0.3077   -0.6283 C   0  0  0  0  0  0  0  0  0  0  0  0
   -7.5615   -0.8107    0.0615 C   0  0  0  0  0  0  0  0  0  0  0  0
   -7.0341   -2.1472   -0.2220 C   0  0  0  0  0  0  0  0  0  0  0  0
   -7.5921   -3.1202    0.4017 O   0  0  0  0  0  0  0  0  0  0  0  0
   -6.0176   -2.4856   -1.0725 O   0  0  0  0  0  0  0  0  0  0  0  0
    6.1636   -2.2076   -0.4087 C   0  0  0  0  0  0  0  0  0  0  0  0
    8.4706   -1.7117   -1.2204 H   0  0  0  0  0  0  0  0  0  0  0  0
    8.9209   -1.4536    0.5242 H   0  0  0  0  0  0  0  0  0  0  0  0
    8.7107   -0.0011   -0.5746 H   0  0  0  0  0  0  0  0  0  0  0  0
    6.8259   -0.8372    1.0821 H   0  0  0  0  0  0  0  0  0  0  0  0
    6.8718    1.1557   -0.2445 H   0  0  0  0  0  0  0  0  0  0  0  0
    6.4909    0.3057   -1.7469 H   0  0  0  0  0  0  0  0  0  0  0  0
    4.1356   -0.5490   -2.0965 H   0  0  0  0  0  0  0  0  0  0  0  0
    1.7570   -0.1834   -1.4941 H   0  0  0  0  0  0  0  0  0  0  0  0
    5.2320    1.5301    1.4499 H   0  0  0  0  0  0  0  0  0  0  0  0
   -2.2971   -0.1185   -1.3932 H   0  0  0  0  0  0  0  0  0  0  0  0
   -4.5856   -0.4791   -2.0401 H   0  0  0  0  0  0  0  0  0  0  0  0
   -5.8829    1.5705    1.4642 H   0  0  0  0  0  0  0  0  0  0  0  0
   -2.8781    3.0187    2.1928 H   0  0  0  0  0  0  0  0  0  0  0  0
   -2.8888    1.4230    3.0477 H   0  0  0  0  0  0  0  0  0  0  0  0
   -4.4227    2.4277    2.9744 H   0  0  0  0  0  0  0  0  0  0  0  0
   -7.3993    1.2572   -0.2954 H   0  0  0  0  0  0  0  0  0  0  0  0
   -7.0733    0.2504   -1.7450 H   0  0  0  0  0  0  0  0  0  0  0  0
   -8.6544   -0.7339   -0.2352 H   0  0  0  0  0  0  0  0  0  0  0  0
   -7.5730   -0.5926    1.1613 H   0  0  0  0  0  0  0  0  0  0  0  0
   -5.9775   -3.4189   -1.4936 H   0  0  0  0  0  0  0  0  0  0  0  0
    6.8451   -3.0954   -0.3320 H   0  0  0  0  0  0  0  0  0  0  0  0
    5.3105   -2.3865    0.3031 H   0  0  0  0  0  0  0  0  0  0  0  0
    5.7292   -2.2093   -1.4246 H   0  0  0  0  0  0  0  0  0  0  0  0
  1  2  1  0
  2  3  1  0
  3  4  1  0
  4  5  2  0
  5  6  1  0
  6  7  2  0
  7  8  1  0
  8  9  2  0
  7 10  1  0
 10 11  1  0
 11 12  1  0
 12 13  2  0
 13 14  1  0
 13 15  1  0
 15 16  2  0
 16 17  1  0
 17 18  2  0
 18 19  1  0
 19 20  2  0
 20 21  1  0
 18 22  1  0
 22 23  1  0
 23 24  1  0
 24 25  2  0
 24 26  1  0
  2 27  1  0
  9  4  1  0
 14 10  2  0
 20 15  1  0
  1 28  1  0
  1 29  1  0
  1 30  1  0
  2 31  1  0
  3 32  1  0
  3 33  1  0
  5 34  1  0
  6 35  1  0
  9 36  1  0
 16 37  1  0
 17 38  1  0
 19 39  1  0
 21 40  1  0
 21 41  1  0
 21 42  1  0
 22 43  1  0
 22 44  1  0
 23 45  1  0
 23 46  1  0
 26 47  1  0
 27 48  1  0
 27 49  1  0
 27 50  1  0
M  END
>  <Ligand ID>  (1) 
LIG0001694

>  <Ligand>  (1) 
CHEMBL209566

>  <SMILES>  (1) 
CC(Cc1ccc(nc1)c1onc(n1)c1ccc(cc1C)CCC(=O)O)C

>  <CID>  (1) 
11624780.0

>  <ChEMBL ID>  (1) 
nan

>  <InChiKey>  (1) 
DNEWRWUHAVFNJE-UHFFFAOYSA-N

>  <InChi>  (1) 
InChI=1S/C21H23N3O3/c1-13(2)10-16-5-8-18(22-12-16)21-23-20(24-27-21)17-7-4-15(11-14(17)3)6-9-19(25)26/h4-5,7-8,11-13H,6,9-10H2,1-3H3,(H,25,26)

>  <IUPAC Name>  (1) 
3-[3-methyl-4-[5-[5-(2-methylpropyl)pyridin-2-yl]-1,2,4-oxadiazol-3-yl]phenyl]propanoic acid

$$$$
