
     RDKit          3D

 43 46  0  0  0  0  0  0  0  0999 V2000
    7.5545    0.2263    3.7998 F   0  0  0  0  0  0  0  0  0  0  0  0
    6.6560   -0.0175    2.8155 C   0  0  0  0  0  0  0  0  0  0  0  0
    5.5340    0.7921    2.7827 C   0  0  0  0  0  0  0  0  0  0  0  0
    4.6138    0.5448    1.7772 C   0  0  0  0  0  0  0  0  0  0  0  0
    4.7719   -0.4461    0.8404 C   0  0  0  0  0  0  0  0  0  0  0  0
    5.8852   -1.2363    0.8872 C   0  0  0  0  0  0  0  0  0  0  0  0
    6.8152   -1.0131    1.8746 C   0  0  0  0  0  0  0  0  0  0  0  0
    6.1764   -2.5136   -0.2501 Cl  0  0  0  0  0  0  0  0  0  0  0  0
    3.7604   -0.6544   -0.1965 C   0  0  0  0  0  0  0  0  0  0  0  0
    3.7645   -1.5764   -1.1832 N   0  0  0  0  0  0  0  0  0  0  0  0
    2.6908   -1.4281   -1.8873 O   0  0  0  0  0  0  0  0  0  0  0  0
    1.9571   -0.4354   -1.4113 C   0  0  0  0  0  0  0  0  0  0  0  0
    2.6345    0.0376   -0.3587 N   0  0  0  0  0  0  0  0  0  0  0  0
    0.6736   -0.0383   -2.0180 C   0  0  0  0  0  0  0  0  0  0  0  0
    0.1034    1.1172   -1.2248 C   0  0  0  0  0  0  0  0  0  0  0  0
   -0.1658    0.7681    0.2152 C   0  0  0  0  0  0  0  0  0  0  0  0
   -1.0926   -0.3100    0.4085 N   0  0  0  0  0  0  0  0  0  0  0  0
   -2.4752   -0.2922    0.1322 C   0  0  0  0  0  0  0  0  0  0  0  0
   -3.2418   -1.4503    0.3321 C   0  0  0  0  0  0  0  0  0  0  0  0
   -4.5970   -1.4759    0.0910 C   0  0  0  0  0  0  0  0  0  0  0  0
   -5.2735   -0.3629   -0.3604 C   0  0  0  0  0  0  0  0  0  0  0  0
   -4.5387    0.7859   -0.5631 C   0  0  0  0  0  0  0  0  0  0  0  0
   -3.1738    0.8036   -0.3177 C   0  0  0  0  0  0  0  0  0  0  0  0
   -5.1741    1.9438   -1.0201 C   0  0  0  0  0  0  0  0  0  0  0  0
   -6.5508    1.9072   -1.2622 C   0  0  0  0  0  0  0  0  0  0  0  0
   -7.2484    0.7356   -1.0459 C   0  0  0  0  0  0  0  0  0  0  0  0
   -6.5961   -0.3779   -0.5988 N   0  0  0  0  0  0  0  0  0  0  0  0
    5.3517    1.5825    3.4847 H   0  0  0  0  0  0  0  0  0  0  0  0
    3.7163    1.1502    1.7056 H   0  0  0  0  0  0  0  0  0  0  0  0
    7.6950   -1.6231    1.9270 H   0  0  0  0  0  0  0  0  0  0  0  0
   -0.0392   -0.8851   -2.0889 H   0  0  0  0  0  0  0  0  0  0  0  0
    0.8062    0.3302   -3.0630 H   0  0  0  0  0  0  0  0  0  0  0  0
    0.9714    1.8544   -1.1733 H   0  0  0  0  0  0  0  0  0  0  0  0
   -0.7141    1.6193   -1.7347 H   0  0  0  0  0  0  0  0  0  0  0  0
   -0.6977    1.6833    0.6367 H   0  0  0  0  0  0  0  0  0  0  0  0
    0.7271    0.6662    0.8423 H   0  0  0  0  0  0  0  0  0  0  0  0
   -0.6882   -1.2063    0.7989 H   0  0  0  0  0  0  0  0  0  0  0  0
   -2.7743   -2.3633    0.6863 H   0  0  0  0  0  0  0  0  0  0  0  0
   -5.1512   -2.3682    0.2516 H   0  0  0  0  0  0  0  0  0  0  0  0
   -2.6726    1.7344   -0.4878 H   0  0  0  0  0  0  0  0  0  0  0  0
   -4.6267    2.8662   -1.1907 H   0  0  0  0  0  0  0  0  0  0  0  0
   -7.0452    2.8095   -1.6181 H   0  0  0  0  0  0  0  0  0  0  0  0
   -8.3221    0.7080   -1.2350 H   0  0  0  0  0  0  0  0  0  0  0  0
  1  2  1  0
  2  3  2  0
  3  4  1  0
  4  5  2  0
  5  6  1  0
  6  7  2  0
  6  8  1  0
  5  9  1  0
  9 10  2  0
 10 11  1  0
 11 12  1  0
 12 13  2  0
 12 14  1  0
 14 15  1  0
 15 16  1  0
 16 17  1  0
 17 18  1  0
 18 19  2  0
 19 20  1  0
 20 21  2  0
 21 22  1  0
 22 23  2  0
 22 24  1  0
 24 25  2  0
 25 26  1  0
 26 27  2  0
  7  2  1  0
 13  9  1  0
 23 18  1  0
 27 21  1  0
  3 28  1  0
  4 29  1  0
  7 30  1  0
 14 31  1  0
 14 32  1  0
 15 33  1  0
 15 34  1  0
 16 35  1  0
 16 36  1  0
 17 37  1  0
 19 38  1  0
 20 39  1  0
 23 40  1  0
 24 41  1  0
 25 42  1  0
 26 43  1  0
M  END
>  <Ligand ID>  (1) 
LIG0002798

>  <Ligand>  (1) 
CHEMBL525019

>  <SMILES>  (1) 
Fc1ccc(c(c1)Cl)c1noc(n1)CCCNc1ccc2c(c1)cccn2

>  <CID>  (1) 
44586999.0

>  <ChEMBL ID>  (1) 
nan

>  <InChiKey>  (1) 
UBHDNCMVRICFAM-UHFFFAOYSA-N

>  <InChi>  (1) 
InChI=1S/C20H16ClFN4O/c21-17-12-14(22)5-7-16(17)20-25-19(27-26-20)4-2-9-23-15-6-8-18-13(11-15)3-1-10-24-18/h1,3,5-8,10-12,23H,2,4,9H2

>  <IUPAC Name>  (1) 
N-[3-[3-(2-chloro-4-fluorophenyl)-1,2,4-oxadiazol-5-yl]propyl]quinolin-6-amine

$$$$
