
     RDKit          3D

 24 25  0  0  0  0  0  0  0  0999 V2000
    2.8883    0.3520    1.1231 N   0  0  0  0  0  0  0  0  0  0  0  0
    2.6038    1.0373   -0.1212 C   0  0  0  0  0  0  0  0  0  0  0  0
    1.4179    0.5051   -0.8359 C   0  0  1  0  0  0  0  0  0  0  0  0
    1.2633   -0.8681   -1.3156 C   0  0  0  0  0  0  0  0  0  0  0  0
    0.6371   -0.5426   -0.0186 C   0  0  2  0  0  0  0  0  0  0  0  0
   -0.8085   -0.2909    0.1206 C   0  0  0  0  0  0  0  0  0  0  0  0
   -1.3934    0.9535    0.0063 C   0  0  0  0  0  0  0  0  0  0  0  0
   -2.7744    1.0840    0.1561 C   0  0  0  0  0  0  0  0  0  0  0  0
   -3.5272   -0.0265    0.4144 C   0  0  0  0  0  0  0  0  0  0  0  0
   -2.9823   -1.2906    0.5365 C   0  0  0  0  0  0  0  0  0  0  0  0
   -1.6108   -1.4080    0.3860 C   0  0  0  0  0  0  0  0  0  0  0  0
   -1.0669   -2.6469    0.5045 F   0  0  0  0  0  0  0  0  0  0  0  0
    3.4790   -0.4751    0.8880 H   0  0  0  0  0  0  0  0  0  0  0  0
    3.5124    1.0038    1.6771 H   0  0  0  0  0  0  0  0  0  0  0  0
    2.3808    2.0850    0.1715 H   0  0  0  0  0  0  0  0  0  0  0  0
    3.4919    1.0921   -0.7898 H   0  0  0  0  0  0  0  0  0  0  0  0
    0.8116    1.2745   -1.3664 H   0  0  0  0  0  0  0  0  0  0  0  0
    0.6219   -1.0431   -2.2032 H   0  0  0  0  0  0  0  0  0  0  0  0
    2.1513   -1.5439   -1.3452 H   0  0  0  0  0  0  0  0  0  0  0  0
    1.1440   -0.9913    0.8590 H   0  0  0  0  0  0  0  0  0  0  0  0
   -0.7687    1.8120   -0.1983 H   0  0  0  0  0  0  0  0  0  0  0  0
   -3.2555    2.0377    0.0725 H   0  0  0  0  0  0  0  0  0  0  0  0
   -4.5977    0.0454    0.5348 H   0  0  0  0  0  0  0  0  0  0  0  0
   -3.6178   -2.1553    0.7437 H   0  0  0  0  0  0  0  0  0  0  0  0
  1  2  1  0
  2  3  1  0
  3  4  1  0
  4  5  1  0
  5  6  1  0
  6  7  2  0
  7  8  1  0
  8  9  2  0
  9 10  1  0
 10 11  2  0
 11 12  1  0
  5  3  1  0
 11  6  1  0
  1 13  1  0
  1 14  1  0
  2 15  1  0
  2 16  1  0
  3 17  1  6
  4 18  1  0
  4 19  1  0
  5 20  1  1
  7 21  1  0
  8 22  1  0
  9 23  1  0
 10 24  1  0
M  END
>  <Ligand ID>  (1) 
LIG0002392

>  <Ligand>  (1) 
CHEMBL510308

>  <SMILES>  (1) 
NC[C@H]1C[C@@H]1c1ccccc1F

>  <CID>  (1) 
44572747.0

>  <ChEMBL ID>  (1) 
nan

>  <InChiKey>  (1) 
XNFQXSSYOFKEOJ-APPZFPTMSA-N

>  <InChi>  (1) 
InChI=1S/C10H12FN/c11-10-4-2-1-3-8(10)9-5-7(9)6-12/h1-4,7,9H,5-6,12H2/t7-,9+/m1/s1

>  <IUPAC Name>  (1) 
[(1S,2S)-2-(2-fluorophenyl)cyclopropyl]methanamine

$$$$
