
     RDKit          3D

 21 22  0  0  0  0  0  0  0  0999 V2000
   -1.6805    1.1885   -0.4959 N   0  0  0  0  0  0  0  0  0  0  0  0
   -2.1735    0.0647    0.2129 C   0  0  0  0  0  0  0  0  0  0  0  0
   -1.2214   -0.9754    0.6371 C   0  0  1  0  0  0  0  0  0  0  0  0
   -0.4605   -1.6234   -0.5106 C   0  0  0  0  0  0  0  0  0  0  0  0
    0.1942   -0.9965    0.7738 C   0  0  1  0  0  0  0  0  0  0  0  0
    1.2278   -0.0479    0.3957 C   0  0  0  0  0  0  0  0  0  0  0  0
    2.4718   -0.4562   -0.1222 C   0  0  0  0  0  0  0  0  0  0  0  0
    3.2323    0.6218   -0.3622 N   0  0  0  0  0  0  0  0  0  0  0  0
    2.5221    1.7060   -0.0170 C   0  0  0  0  0  0  0  0  0  0  0  0
    1.3193    1.2877    0.4371 N   0  0  0  0  0  0  0  0  0  0  0  0
   -2.3245    1.4143   -1.2844 H   0  0  0  0  0  0  0  0  0  0  0  0
   -1.7021    2.0261    0.1238 H   0  0  0  0  0  0  0  0  0  0  0  0
   -2.9982   -0.4403   -0.3838 H   0  0  0  0  0  0  0  0  0  0  0  0
   -2.7493    0.4498    1.1103 H   0  0  0  0  0  0  0  0  0  0  0  0
   -1.7666   -1.7971    1.2234 H   0  0  0  0  0  0  0  0  0  0  0  0
   -0.3902   -1.0456   -1.4439 H   0  0  0  0  0  0  0  0  0  0  0  0
   -0.4159   -2.7003   -0.6321 H   0  0  0  0  0  0  0  0  0  0  0  0
    0.6559   -1.8542    1.3840 H   0  0  0  0  0  0  0  0  0  0  0  0
    2.7897   -1.4822   -0.3077 H   0  0  0  0  0  0  0  0  0  0  0  0
    2.8687    2.7253   -0.0960 H   0  0  0  0  0  0  0  0  0  0  0  0
    0.6009    1.9350    0.7713 H   0  0  0  0  0  0  0  0  0  0  0  0
  1  2  1  0
  2  3  1  0
  3  4  1  0
  4  5  1  0
  5  6  1  0
  6  7  2  0
  7  8  1  0
  8  9  2  0
  9 10  1  0
  5  3  1  0
 10  6  1  0
  1 11  1  0
  1 12  1  0
  2 13  1  0
  2 14  1  0
  3 15  1  1
  4 16  1  0
  4 17  1  0
  5 18  1  1
  7 19  1  0
  9 20  1  0
 10 21  1  0
M  END
>  <Ligand ID>  (1) 
LIG0001184

>  <Ligand>  (1) 
CHEMBL292924

>  <SMILES>  (1) 
NC[C@H]1C[C@H]1c1cnc[nH]1

>  <CID>  (1) 
11116130.0

>  <ChEMBL ID>  (1) 
nan

>  <InChiKey>  (1) 
LMFNLINKCDGRTE-PHDIDXHHSA-N

>  <InChi>  (1) 
InChI=1S/C7H11N3/c8-2-5-1-6(5)7-3-9-4-10-7/h3-6H,1-2,8H2,(H,9,10)/t5-,6-/m1/s1

>  <IUPAC Name>  (1) 
[(1S,2R)-2-(1H-imidazol-5-yl)cyclopropyl]methanamine

$$$$
