
     RDKit          3D

 50 52  0  0  0  0  0  0  0  0999 V2000
    9.3531    1.4740   -0.7175 O   0  0  0  0  0  0  0  0  0  0  0  0
    8.0377    1.0572   -0.5543 C   0  0  0  0  0  0  0  0  0  0  0  0
    7.0764    1.2599   -1.5201 C   0  0  0  0  0  0  0  0  0  0  0  0
    5.7981    0.8081   -1.2616 C   0  0  0  0  0  0  0  0  0  0  0  0
    5.4541    0.1680   -0.0832 C   0  0  0  0  0  0  0  0  0  0  0  0
    6.4372   -0.0094    0.8405 N   0  0  0  0  0  0  0  0  0  0  0  0
    7.6950    0.4182    0.6225 C   0  0  0  0  0  0  0  0  0  0  0  0
    4.0959   -0.2965    0.1582 C   0  0  0  0  0  0  0  0  0  0  0  0
    3.6963   -1.5626    0.3865 N   0  0  0  0  0  0  0  0  0  0  0  0
    2.4255   -1.5766    0.5537 O   0  0  0  0  0  0  0  0  0  0  0  0
    1.9254   -0.3626    0.4497 C   0  0  0  0  0  0  0  0  0  0  0  0
    2.9597    0.4575    0.2009 N   0  0  0  0  0  0  0  0  0  0  0  0
    0.4699   -0.0123    0.5902 C   0  0  0  0  0  0  0  0  0  0  0  0
   -0.2739   -1.2922    0.8652 C   0  0  0  0  0  0  0  0  0  0  0  0
   -1.7770   -1.0189    1.0229 C   0  0  0  0  0  0  0  0  0  0  0  0
   -2.2315   -1.3310    2.0977 O   0  0  0  0  0  0  0  0  0  0  0  0
   -2.4278   -0.4646   -0.0432 N   0  0  0  0  0  0  0  0  0  0  0  0
   -3.6378   -0.0190   -0.4939 C   0  0  0  0  0  0  0  0  0  0  0  0
   -4.8247    0.0673   -0.0070 C   0  0  0  0  0  0  0  0  0  0  0  0
   -5.8900    0.6494   -0.9208 C   0  0  0  0  0  0  0  0  0  0  0  0
   -5.5073    1.9811   -1.4773 C   0  0  0  0  0  0  0  0  0  0  0  0
   -4.0140    1.9582   -1.7748 C   0  0  0  0  0  0  0  0  0  0  0  0
   -3.5842    0.5254   -1.9515 C   0  0  0  0  0  0  0  0  0  0  0  0
   -5.1764   -0.2949    1.3005 C   0  0  0  0  0  0  0  0  0  0  0  0
   -4.5631   -0.7189    2.2812 O   0  0  0  0  0  0  0  0  0  0  0  0
   -6.5789   -0.1578    1.6120 O   0  0  0  0  0  0  0  0  0  0  0  0
   -0.0788   -2.2387   -0.2994 C   0  0  0  0  0  0  0  0  0  0  0  0
    0.2858   -1.8912    2.1122 C   0  0  0  0  0  0  0  0  0  0  0  0
    9.7912    2.1907   -0.1526 H   0  0  0  0  0  0  0  0  0  0  0  0
    7.3311    1.7642   -2.4575 H   0  0  0  0  0  0  0  0  0  0  0  0
    5.0610    0.9845   -2.0470 H   0  0  0  0  0  0  0  0  0  0  0  0
    8.4153    0.2343    1.4145 H   0  0  0  0  0  0  0  0  0  0  0  0
    0.1771    0.3731   -0.4016 H   0  0  0  0  0  0  0  0  0  0  0  0
    0.3602    0.7167    1.3985 H   0  0  0  0  0  0  0  0  0  0  0  0
   -1.6767   -0.3202   -0.8801 H   0  0  0  0  0  0  0  0  0  0  0  0
   -6.1097   -0.0485   -1.7425 H   0  0  0  0  0  0  0  0  0  0  0  0
   -6.8248    0.7852   -0.3241 H   0  0  0  0  0  0  0  0  0  0  0  0
   -5.7229    2.7846   -0.7469 H   0  0  0  0  0  0  0  0  0  0  0  0
   -6.0547    2.2325   -2.4003 H   0  0  0  0  0  0  0  0  0  0  0  0
   -3.5231    2.3231   -0.8226 H   0  0  0  0  0  0  0  0  0  0  0  0
   -3.7130    2.6012   -2.6004 H   0  0  0  0  0  0  0  0  0  0  0  0
   -4.2919   -0.1168   -2.4839 H   0  0  0  0  0  0  0  0  0  0  0  0
   -2.5590    0.4676   -2.3189 H   0  0  0  0  0  0  0  0  0  0  0  0
   -6.9406   -0.8778    2.2789 H   0  0  0  0  0  0  0  0  0  0  0  0
    0.4236   -1.7136   -1.1398 H   0  0  0  0  0  0  0  0  0  0  0  0
    0.4957   -3.1547   -0.0002 H   0  0  0  0  0  0  0  0  0  0  0  0
   -1.0680   -2.5988   -0.6479 H   0  0  0  0  0  0  0  0  0  0  0  0
   -0.4467   -1.9165    2.9512 H   0  0  0  0  0  0  0  0  0  0  0  0
    0.5642   -2.9383    1.9232 H   0  0  0  0  0  0  0  0  0  0  0  0
    1.1673   -1.3497    2.5104 H   0  0  0  0  0  0  0  0  0  0  0  0
  1  2  1  0
  2  3  2  0
  3  4  1  0
  4  5  2  0
  5  6  1  0
  6  7  2  0
  5  8  1  0
  8  9  2  0
  9 10  1  0
 10 11  1  0
 11 12  2  0
 11 13  1  0
 13 14  1  0
 14 15  1  0
 15 16  2  0
 15 17  1  0
 17 18  1  0
 18 19  2  0
 19 20  1  0
 20 21  1  0
 21 22  1  0
 22 23  1  0
 19 24  1  0
 24 25  2  0
 24 26  1  0
 14 27  1  0
 14 28  1  0
  7  2  1  0
 12  8  1  0
 23 18  1  0
  1 29  1  0
  3 30  1  0
  4 31  1  0
  7 32  1  0
 13 33  1  0
 13 34  1  0
 17 35  1  0
 20 36  1  0
 20 37  1  0
 21 38  1  0
 21 39  1  0
 22 40  1  0
 22 41  1  0
 23 42  1  0
 23 43  1  0
 26 44  1  0
 27 45  1  0
 27 46  1  0
 27 47  1  0
 28 48  1  0
 28 49  1  0
 28 50  1  0
M  END
>  <Ligand ID>  (1) 
LIG0003403

>  <Ligand>  (1) 
MK 6892

>  <SMILES>  (1) 
Oc1ccc(nc1)c1noc(n1)CC(C(=O)NC1=C(CCCC1)C(=O)O)(C)C

>  <CID>  (1) 
135416394.0

>  <ChEMBL ID>  (1) 
nan

>  <InChiKey>  (1) 
CJHXBFSJXDUJHP-UHFFFAOYSA-N

>  <InChi>  (1) 
InChI=1S/C19H22N4O5/c1-19(2,18(27)21-13-6-4-3-5-12(13)17(25)26)9-15-22-16(23-28-15)14-8-7-11(24)10-20-14/h7-8,10,24H,3-6,9H2,1-2H3,(H,21,27)(H,25,26)

>  <IUPAC Name>  (1) 
2-[[3-[3-(5-hydroxypyridin-2-yl)-1,2,4-oxadiazol-5-yl]-2,2-dimethylpropanoyl]amino]cyclohexene-1-carboxylic acid

$$$$
