
     RDKit          3D

 35 37  0  0  0  0  0  0  0  0999 V2000
   -5.0129    0.8514   -0.0279 C   0  0  0  0  0  0  0  0  0  0  0  0
   -3.9687    0.4018    0.9280 C   0  0  0  0  0  0  0  0  0  0  0  0
   -2.6781    0.1529    0.4277 N   0  0  0  0  0  0  0  0  0  0  0  0
   -1.9060    1.2412   -0.0447 C   0  0  0  0  0  0  0  0  0  0  0  0
   -0.4313    1.0002    0.2775 C   0  0  0  0  0  0  0  0  0  0  0  0
   -0.0340   -0.4187    0.1201 C   0  0  0  0  0  0  0  0  0  0  0  0
   -0.9463   -1.3581   -0.0878 C   0  0  0  0  0  0  0  0  0  0  0  0
   -2.4072   -1.0958   -0.1803 C   0  0  0  0  0  0  0  0  0  0  0  0
    1.3522   -0.8763    0.1730 C   0  0  0  0  0  0  0  0  0  0  0  0
    1.7759   -2.1929   -0.0143 C   0  0  0  0  0  0  0  0  0  0  0  0
    3.1174   -2.2419    0.1121 N   0  0  0  0  0  0  0  0  0  0  0  0
    3.6130   -1.0294    0.3738 C   0  0  0  0  0  0  0  0  0  0  0  0
    2.5108   -0.1761    0.4122 C   0  0  0  0  0  0  0  0  0  0  0  0
    2.7838    1.1416    0.6738 C   0  0  0  0  0  0  0  0  0  0  0  0
    4.0639    1.5872    0.8836 C   0  0  0  0  0  0  0  0  0  0  0  0
    5.1592    0.7365    0.8448 C   0  0  0  0  0  0  0  0  0  0  0  0
    4.8997   -0.5868    0.5838 C   0  0  0  0  0  0  0  0  0  0  0  0
   -4.7747    0.6771   -1.1100 H   0  0  0  0  0  0  0  0  0  0  0  0
   -5.2243    1.9553    0.0955 H   0  0  0  0  0  0  0  0  0  0  0  0
   -5.9806    0.3709    0.2317 H   0  0  0  0  0  0  0  0  0  0  0  0
   -3.8879    1.1844    1.7341 H   0  0  0  0  0  0  0  0  0  0  0  0
   -4.3265   -0.4994    1.4711 H   0  0  0  0  0  0  0  0  0  0  0  0
   -2.2093    2.1522    0.5065 H   0  0  0  0  0  0  0  0  0  0  0  0
   -2.0480    1.4671   -1.1240 H   0  0  0  0  0  0  0  0  0  0  0  0
    0.1180    1.5425   -0.5419 H   0  0  0  0  0  0  0  0  0  0  0  0
   -0.1929    1.3420    1.2896 H   0  0  0  0  0  0  0  0  0  0  0  0
   -0.6728   -2.4219   -0.2085 H   0  0  0  0  0  0  0  0  0  0  0  0
   -2.8999   -1.8832    0.4585 H   0  0  0  0  0  0  0  0  0  0  0  0
   -2.8064   -1.2051   -1.2101 H   0  0  0  0  0  0  0  0  0  0  0  0
    1.1986   -3.0757   -0.2266 H   0  0  0  0  0  0  0  0  0  0  0  0
    3.7167   -3.1025    0.0221 H   0  0  0  0  0  0  0  0  0  0  0  0
    1.9932    1.8600    0.7250 H   0  0  0  0  0  0  0  0  0  0  0  0
    4.2247    2.6503    1.0889 H   0  0  0  0  0  0  0  0  0  0  0  0
    6.1482    1.1164    1.0129 H   0  0  0  0  0  0  0  0  0  0  0  0
    5.7327   -1.2672    0.5478 H   0  0  0  0  0  0  0  0  0  0  0  0
  1  2  1  0
  2  3  1  0
  3  4  1  0
  4  5  1  0
  5  6  1  0
  6  7  2  0
  7  8  1  0
  6  9  1  0
  9 10  2  0
 10 11  1  0
 11 12  1  0
 12 13  2  0
 13 14  1  0
 14 15  2  0
 15 16  1  0
 16 17  2  0
  8  3  1  0
 13  9  1  0
 17 12  1  0
  1 18  1  0
  1 19  1  0
  1 20  1  0
  2 21  1  0
  2 22  1  0
  4 23  1  0
  4 24  1  0
  5 25  1  0
  5 26  1  0
  7 27  1  0
  8 28  1  0
  8 29  1  0
 10 30  1  0
 11 31  1  0
 14 32  1  0
 15 33  1  0
 16 34  1  0
 17 35  1  0
M  END
>  <Ligand ID>  (1) 
LIG0004403

>  <Ligand>  (1) 
TCMDC-124447

>  <SMILES>  (1) 
CCN1CCC(=CC1)c1c[nH]c2c1cccc2

>  <CID>  (1) 
51703.0

>  <ChEMBL ID>  (1) 
nan

>  <InChiKey>  (1) 
AUPFODUFUNPAOB-UHFFFAOYSA-N

>  <InChi>  (1) 
InChI=1S/C15H18N2/c1-2-17-9-7-12(8-10-17)14-11-16-15-6-4-3-5-13(14)15/h3-7,11,16H,2,8-10H2,1H3

>  <IUPAC Name>  (1) 
3-(1-ethyl-3,6-dihydro-2H-pyridin-4-yl)-1H-indole

$$$$
