
     RDKit          3D

 30 29  0  0  0  0  0  0  0  0999 V2000
   -4.0230   -0.5490    1.1885 C   0  0  0  0  0  0  0  0  0  0  0  0
   -3.0337    0.3958    0.5019 C   0  0  0  0  0  0  0  0  0  0  0  0
   -2.7764   -0.1637   -0.8682 C   0  0  0  0  0  0  0  0  0  0  0  0
   -1.8118    0.6965   -1.6279 C   0  0  0  0  0  0  0  0  0  0  0  0
   -0.4922    0.7965   -0.9230 C   0  0  0  0  0  0  0  0  0  0  0  0
    0.1666   -0.5543   -0.7447 C   0  0  0  0  0  0  0  0  0  0  0  0
    1.4512   -0.3005   -0.0391 C   0  0  0  0  0  0  0  0  0  0  0  0
    1.7567    0.8783    0.2674 O   0  0  0  0  0  0  0  0  0  0  0  0
    2.3430   -1.3016    0.3048 O   0  0  0  0  0  0  0  0  0  0  0  0
    3.5600   -1.0598    0.9735 C   0  0  0  0  0  0  0  0  0  0  0  0
    4.4742   -0.1571    0.2133 C   0  0  0  0  0  0  0  0  0  0  0  0
    4.8732    1.0085    0.7486 C   0  0  0  0  0  0  0  0  0  0  0  0
   -4.5407   -1.1837    0.4388 H   0  0  0  0  0  0  0  0  0  0  0  0
   -4.7462    0.0750    1.7399 H   0  0  0  0  0  0  0  0  0  0  0  0
   -3.4590   -1.2235    1.8961 H   0  0  0  0  0  0  0  0  0  0  0  0
   -3.4702    1.3970    0.4333 H   0  0  0  0  0  0  0  0  0  0  0  0
   -2.0980    0.3843    1.0914 H   0  0  0  0  0  0  0  0  0  0  0  0
   -2.4040   -1.2071   -0.7834 H   0  0  0  0  0  0  0  0  0  0  0  0
   -3.7101   -0.2235   -1.4561 H   0  0  0  0  0  0  0  0  0  0  0  0
   -1.6688    0.3032   -2.6516 H   0  0  0  0  0  0  0  0  0  0  0  0
   -2.2358    1.7266   -1.6541 H   0  0  0  0  0  0  0  0  0  0  0  0
    0.1786    1.3741   -1.6180 H   0  0  0  0  0  0  0  0  0  0  0  0
   -0.5778    1.2676    0.0572 H   0  0  0  0  0  0  0  0  0  0  0  0
   -0.4366   -1.1917   -0.0770 H   0  0  0  0  0  0  0  0  0  0  0  0
    0.3436   -0.9893   -1.7473 H   0  0  0  0  0  0  0  0  0  0  0  0
    4.0377   -2.0725    1.1219 H   0  0  0  0  0  0  0  0  0  0  0  0
    3.4272   -0.6670    2.0028 H   0  0  0  0  0  0  0  0  0  0  0  0
    4.8200   -0.4384   -0.7743 H   0  0  0  0  0  0  0  0  0  0  0  0
    5.5280    1.6961    0.2503 H   0  0  0  0  0  0  0  0  0  0  0  0
    4.5242    1.2833    1.7350 H   0  0  0  0  0  0  0  0  0  0  0  0
  1  2  1  0
  2  3  1  0
  3  4  1  0
  4  5  1  0
  5  6  1  0
  6  7  1  0
  7  8  2  0
  7  9  1  0
  9 10  1  0
 10 11  1  0
 11 12  2  0
  1 13  1  0
  1 14  1  0
  1 15  1  0
  2 16  1  0
  2 17  1  0
  3 18  1  0
  3 19  1  0
  4 20  1  0
  4 21  1  0
  5 22  1  0
  5 23  1  0
  6 24  1  0
  6 25  1  0
 10 26  1  0
 10 27  1  0
 11 28  1  0
 12 29  1  0
 12 30  1  0
M  END
>  <Ligand ID>  (1) 
LIG0000099

>  <Ligand>  (1) 
Allyl Heptanoate

>  <SMILES>  (1) 
CCCCCCC(=O)OCC=C

>  <CID>  (1) 
8878.0

>  <ChEMBL ID>  (1) 
nan

>  <InChiKey>  (1) 
SJWKGDGUQTWDRV-UHFFFAOYSA-N

>  <InChi>  (1) 
InChI=1S/C10H18O2/c1-3-5-6-7-8-10(11)12-9-4-2/h4H,2-3,5-9H2,1H3

>  <IUPAC Name>  (1) 
prop-2-enyl heptanoate

$$$$
