
     RDKit          3D

 64 70  0  0  0  0  0  0  0  0999 V2000
   -2.3486   -2.7338   -0.4035 C   0  0  0  0  0  0  0  0  0  0  0  0
   -1.8488   -2.1265    0.6991 O   0  0  0  0  0  0  0  0  0  0  0  0
   -0.8483   -1.2179    0.6067 C   0  0  1  0  0  0  0  0  0  0  0  0
   -0.4759   -0.9527    2.1205 C   0  0  0  0  0  0  0  0  0  0  0  0
    0.6531   -0.2137    2.2866 C   0  0  0  0  0  0  0  0  0  0  0  0
    1.0655    0.4885    1.0349 C   0  0  0  0  0  0  0  0  0  0  0  0
    1.2485   -0.3944   -0.1186 C   0  0  0  0  0  0  0  0  0  0  0  0
    0.4034   -1.6043    0.0946 C   0  0  2  0  0  0  0  0  0  0  0  0
    0.8989   -2.3135   -1.0100 O   0  0  0  0  0  0  0  0  0  0  0  0
    2.2731   -2.3300   -0.7551 C   0  0  0  0  0  0  0  0  0  0  0  0
    2.5116   -1.1616   -0.0840 C   0  0  0  0  0  0  0  0  0  0  0  0
    3.6609   -0.6949    0.4102 C   0  0  0  0  0  0  0  0  0  0  0  0
    3.6062    0.5685    1.1840 C   0  0  0  0  0  0  0  0  0  0  0  0
    2.2919    1.3035    1.0770 C   0  0  0  0  0  0  0  0  0  0  0  0
    2.3143    2.0841   -0.1421 N   0  0  0  0  0  0  0  0  0  0  0  0
    2.3091    1.3488   -1.3320 C   0  0  0  0  0  0  0  0  0  0  0  0
    1.3360    0.2042   -1.4436 C   0  0  0  0  0  0  0  0  0  0  0  0
    1.8162    3.3888   -0.0919 C   0  0  0  0  0  0  0  0  0  0  0  0
    4.7830   -1.4775    0.2210 C   0  0  0  0  0  0  0  0  0  0  0  0
    4.6538   -2.7068   -0.4695 C   0  0  0  0  0  0  0  0  0  0  0  0
    3.3914   -3.1213   -0.9519 C   0  0  0  0  0  0  0  0  0  0  0  0
    3.2083   -4.3058   -1.6268 O   0  0  0  0  0  0  0  0  0  0  0  0
   -0.1897    1.2328    0.6407 C   0  0  0  0  0  0  0  0  0  0  0  0
   -1.3217    0.2059    0.4332 C   0  0  0  0  0  0  0  0  0  0  0  0
   -2.3445    0.5691    1.5130 C   0  0  0  0  0  0  0  0  0  0  0  0
   -3.6880    0.1406    0.9989 C   0  0  0  0  0  0  0  0  0  0  0  0
   -3.5813    0.6626   -0.4179 C   0  0  0  0  0  0  0  0  0  0  0  0
   -2.1458    0.5308   -0.7628 C   0  0  1  0  0  0  0  0  0  0  0  0
   -1.7830    1.8393   -1.2395 O   0  0  0  0  0  0  0  0  0  0  0  0
   -4.5642    0.0636   -1.3549 C   0  0  0  0  0  0  0  0  0  0  0  0
   -3.9758    2.1544   -0.2910 C   0  0  0  0  0  0  0  0  0  0  0  0
   -2.8066   -2.1583   -1.1889 H   0  0  0  0  0  0  0  0  0  0  0  0
   -3.1776   -3.4233   -0.0272 H   0  0  0  0  0  0  0  0  0  0  0  0
   -1.6309   -3.4640   -0.8702 H   0  0  0  0  0  0  0  0  0  0  0  0
   -1.0658   -1.3464    2.8976 H   0  0  0  0  0  0  0  0  0  0  0  0
    1.1729   -0.1556    3.2195 H   0  0  0  0  0  0  0  0  0  0  0  0
    0.8655   -2.2296    0.9058 H   0  0  0  0  0  0  0  0  0  0  0  0
    3.8940    0.4200    2.2453 H   0  0  0  0  0  0  0  0  0  0  0  0
    4.3825    1.2471    0.7603 H   0  0  0  0  0  0  0  0  0  0  0  0
    2.2357    2.0238    1.9173 H   0  0  0  0  0  0  0  0  0  0  0  0
    3.3487    0.9566   -1.5365 H   0  0  0  0  0  0  0  0  0  0  0  0
    2.1492    2.0766   -2.1770 H   0  0  0  0  0  0  0  0  0  0  0  0
    1.7818   -0.5329   -2.1782 H   0  0  0  0  0  0  0  0  0  0  0  0
    0.4743    0.5992   -1.9638 H   0  0  0  0  0  0  0  0  0  0  0  0
    2.6948    4.0908    0.0172 H   0  0  0  0  0  0  0  0  0  0  0  0
    1.3808    3.6591   -1.0844 H   0  0  0  0  0  0  0  0  0  0  0  0
    1.1542    3.6597    0.7488 H   0  0  0  0  0  0  0  0  0  0  0  0
    5.7242   -1.1381    0.6001 H   0  0  0  0  0  0  0  0  0  0  0  0
    5.5163   -3.3357   -0.6327 H   0  0  0  0  0  0  0  0  0  0  0  0
    3.1036   -5.1573   -1.1014 H   0  0  0  0  0  0  0  0  0  0  0  0
   -0.3994    1.9397    1.4647 H   0  0  0  0  0  0  0  0  0  0  0  0
   -0.0756    1.8546   -0.2708 H   0  0  0  0  0  0  0  0  0  0  0  0
   -2.3563    1.6872    1.6081 H   0  0  0  0  0  0  0  0  0  0  0  0
   -2.1761    0.1768    2.4906 H   0  0  0  0  0  0  0  0  0  0  0  0
   -3.9432   -0.9021    1.1034 H   0  0  0  0  0  0  0  0  0  0  0  0
   -4.4475    0.7152    1.5900 H   0  0  0  0  0  0  0  0  0  0  0  0
   -2.0023   -0.1012   -1.6389 H   0  0  0  0  0  0  0  0  0  0  0  0
   -2.4060    1.9896   -2.0150 H   0  0  0  0  0  0  0  0  0  0  0  0
   -4.1604    0.1435   -2.4009 H   0  0  0  0  0  0  0  0  0  0  0  0
   -5.4879    0.6755   -1.3668 H   0  0  0  0  0  0  0  0  0  0  0  0
   -4.8726   -0.9686   -1.0889 H   0  0  0  0  0  0  0  0  0  0  0  0
   -4.6825    2.2963    0.5299 H   0  0  0  0  0  0  0  0  0  0  0  0
   -3.0910    2.7866   -0.1083 H   0  0  0  0  0  0  0  0  0  0  0  0
   -4.4059    2.4840   -1.2740 H   0  0  0  0  0  0  0  0  0  0  0  0
  1  2  1  0
  3  2  1  1
  3  4  1  0
  4  5  2  0
  5  6  1  0
  6  7  1  0
  7  8  1  0
  8  9  1  0
  9 10  1  0
 10 11  2  0
 11 12  1  0
 12 13  1  0
 13 14  1  0
 14 15  1  0
 15 16  1  0
 16 17  1  0
 15 18  1  0
 12 19  2  0
 19 20  1  0
 20 21  2  0
 21 22  1  0
  6 23  1  0
 23 24  1  0
 24 25  1  0
 25 26  1  0
 26 27  1  0
 27 28  1  0
 28 29  1  0
 27 30  1  0
 27 31  1  0
  8  3  1  0
 21 10  1  0
 28 24  1  0
 24  3  1  0
 14  6  1  0
 17  7  1  0
 11  7  1  0
  1 32  1  0
  1 33  1  0
  1 34  1  0
  4 35  1  0
  5 36  1  0
  8 37  1  1
 13 38  1  0
 13 39  1  0
 14 40  1  0
 16 41  1  0
 16 42  1  0
 17 43  1  0
 17 44  1  0
 18 45  1  0
 18 46  1  0
 18 47  1  0
 19 48  1  0
 20 49  1  0
 22 50  1  0
 23 51  1  0
 23 52  1  0
 25 53  1  0
 25 54  1  0
 26 55  1  0
 26 56  1  0
 28 57  1  6
 29 58  1  0
 30 59  1  0
 30 60  1  0
 30 61  1  0
 31 62  1  0
 31 63  1  0
 31 64  1  0
M  END
>  <Ligand ID>  (1) 
LIG0003568

>  <Ligand>  (1) 
CHEMBL31605

>  <SMILES>  (1) 
CO[C@@]12C=CC3(C45[C@@H]1Oc1c5c(CC3N(CC4)C)ccc1O)CC12CCC([C@H]1O)(C)C

>  <CID>  (1) 
44279594.0

>  <ChEMBL ID>  (1) 
nan

>  <InChiKey>  (1) 
BELNGJAALXEXDR-JPTYMVJOSA-N

>  <InChi>  (1) 
InChI=1S/C26H33NO4/c1-22(2)7-8-24(20(22)29)14-23-9-10-26(24,30-4)21-25(23)11-12-27(3)17(23)13-15-5-6-16(28)19(31-21)18(15)25/h5-6,9-10,17,20-21,28-29H,7-8,11-14H2,1-4H3/t17?,20-,21+,23?,24?,25?,26+/m1/s1

>  <IUPAC Name>  (1) 
(1'R,14S,15R)-15-methoxy-5,5',5'-trimethylspiro[13-oxa-5-azahexacyclo[13.2.2.12,8.01,6.02,14.012,20]icosa-8(20),9,11,16-tetraene-19,2'-cyclopentane]-1',11-diol

$$$$
