
     RDKit          3D

 40 42  0  0  0  0  0  0  0  0999 V2000
    3.4348    1.7326   -1.3945 O   0  0  0  0  0  0  0  0  0  0  0  0
    2.2252    1.2302   -0.9487 C   0  0  0  0  0  0  0  0  0  0  0  0
    1.2178    2.1000   -0.5915 C   0  0  0  0  0  0  0  0  0  0  0  0
   -0.0096    1.6185   -0.1394 C   0  0  0  0  0  0  0  0  0  0  0  0
   -0.2919    0.3002   -0.0222 C   0  0  0  0  0  0  0  0  0  0  0  0
    0.7440   -0.5869   -0.3894 C   0  0  0  0  0  0  0  0  0  0  0  0
    1.9536   -0.1161   -0.8350 C   0  0  0  0  0  0  0  0  0  0  0  0
    2.9669   -1.0543   -1.1935 N   0  0  0  0  0  0  0  0  0  0  0  0
    4.0468   -1.5487    0.0640 S   0  0  0  0  0  0  0  0  0  0  0  0
    5.0903   -2.4949   -0.4548 O   0  0  0  0  0  0  0  0  0  0  0  0
    3.2481   -2.1809    1.1719 O   0  0  0  0  0  0  0  0  0  0  0  0
    4.9327   -0.1142    0.6570 C   0  0  0  0  0  0  0  0  0  0  0  0
    0.4181   -2.0316   -0.2530 C   0  0  0  0  0  0  0  0  0  0  0  0
   -0.8517   -2.2552   -1.0435 C   0  0  0  0  0  0  0  0  0  0  0  0
   -1.9503   -1.3306   -0.6513 C   0  0  0  0  0  0  0  0  0  0  0  0
   -1.5237   -0.3311    0.4318 C   0  0  2  0  0  0  0  0  0  0  0  0
   -2.6413    0.5493    0.7873 C   0  0  0  0  0  0  0  0  0  0  0  0
   -2.8047    1.8048    0.8052 N   0  0  0  0  0  0  0  0  0  0  0  0
   -4.0876    2.2541    1.2300 C   0  0  0  0  0  0  0  0  0  0  0  0
   -4.9343    0.9963    1.0813 C   0  0  0  0  0  0  0  0  0  0  0  0
   -3.9068   -0.0133    1.2399 N   0  0  0  0  0  0  0  0  0  0  0  0
    3.8703    1.3379   -2.2274 H   0  0  0  0  0  0  0  0  0  0  0  0
    1.3951    3.1788   -0.6679 H   0  0  0  0  0  0  0  0  0  0  0  0
   -0.7316    2.3666    0.1160 H   0  0  0  0  0  0  0  0  0  0  0  0
    3.0619   -1.4350   -2.1763 H   0  0  0  0  0  0  0  0  0  0  0  0
    4.2193    0.6105    1.0530 H   0  0  0  0  0  0  0  0  0  0  0  0
    5.5318    0.2566   -0.2006 H   0  0  0  0  0  0  0  0  0  0  0  0
    5.6649   -0.4515    1.4250 H   0  0  0  0  0  0  0  0  0  0  0  0
    0.2768   -2.2751    0.8156 H   0  0  0  0  0  0  0  0  0  0  0  0
    1.1853   -2.6742   -0.7298 H   0  0  0  0  0  0  0  0  0  0  0  0
   -1.1086   -3.3318   -0.9320 H   0  0  0  0  0  0  0  0  0  0  0  0
   -0.5693   -2.0765   -2.1187 H   0  0  0  0  0  0  0  0  0  0  0  0
   -2.2840   -0.7111   -1.5133 H   0  0  0  0  0  0  0  0  0  0  0  0
   -2.7775   -1.9167   -0.2117 H   0  0  0  0  0  0  0  0  0  0  0  0
   -1.2301   -0.9923    1.3054 H   0  0  0  0  0  0  0  0  0  0  0  0
   -4.1188    2.5726    2.2900 H   0  0  0  0  0  0  0  0  0  0  0  0
   -4.5385    3.0204    0.5737 H   0  0  0  0  0  0  0  0  0  0  0  0
   -5.6102    0.9365    1.9341 H   0  0  0  0  0  0  0  0  0  0  0  0
   -5.4402    0.9592    0.0990 H   0  0  0  0  0  0  0  0  0  0  0  0
   -4.0729   -0.9652    1.6143 H   0  0  0  0  0  0  0  0  0  0  0  0
  1  2  1  0
  2  3  2  0
  3  4  1  0
  4  5  2  0
  5  6  1  0
  6  7  2  0
  7  8  1  0
  8  9  1  0
  9 10  2  0
  9 11  2  0
  9 12  1  0
  6 13  1  0
 13 14  1  0
 14 15  1  0
 15 16  1  0
 16 17  1  0
 17 18  2  0
 18 19  1  0
 19 20  1  0
 20 21  1  0
  7  2  1  0
 21 17  1  0
 16  5  1  0
  1 22  1  0
  3 23  1  0
  4 24  1  0
  8 25  1  0
 12 26  1  0
 12 27  1  0
 12 28  1  0
 13 29  1  0
 13 30  1  0
 14 31  1  0
 14 32  1  0
 15 33  1  0
 15 34  1  0
 16 35  1  1
 19 36  1  0
 19 37  1  0
 20 38  1  0
 20 39  1  0
 21 40  1  0
M  END
>  <Ligand ID>  (1) 
LIG0002026

>  <Ligand>  (1) 
CHEMBL133451

>  <SMILES>  (1) 
Oc1ccc2c(c1NS(=O)(=O)C)CCC[C@@H]2C1=NCCN1

>  <CID>  (1) 
10804826.0

>  <ChEMBL ID>  (1) 
nan

>  <InChiKey>  (1) 
OQFCXJDXHCDLHX-NSHDSACASA-N

>  <InChi>  (1) 
InChI=1S/C14H19N3O3S/c1-21(19,20)17-13-10-3-2-4-11(14-15-7-8-16-14)9(10)5-6-12(13)18/h5-6,11,17-18H,2-4,7-8H2,1H3,(H,15,16)/t11-/m0/s1

>  <IUPAC Name>  (1) 
N-[(5S)-5-(4,5-dihydro-1H-imidazol-2-yl)-2-hydroxy-5,6,7,8-tetrahydronaphthalen-1-yl]methanesulfonamide

$$$$
