
     RDKit          3D

 40 41  0  0  0  0  0  0  0  0999 V2000
   -3.2447   -1.6259   -1.0845 C   0  0  0  0  0  0  0  0  0  0  0  0
   -3.1811   -0.6043    0.0448 C   0  0  0  0  0  0  0  0  0  0  0  0
   -1.8606    0.0732    0.0530 C   0  0  0  0  0  0  0  0  0  0  0  0
   -0.6714   -0.6012    0.2568 C   0  0  0  0  0  0  0  0  0  0  0  0
    0.5367    0.1080    0.2506 C   0  0  0  0  0  0  0  0  0  0  0  0
    1.7651   -0.6326    0.4881 C   0  0  1  0  0  0  0  0  0  0  0  0
    1.8940   -1.9899   -0.1004 C   0  0  0  0  0  0  0  0  0  0  0  0
    3.3251   -2.1662   -0.4084 N   0  0  0  0  0  0  0  0  0  0  0  0
    3.9711   -0.8850   -0.0681 C   0  0  0  0  0  0  0  0  0  0  0  0
    2.8715    0.0553   -0.3344 C   0  0  2  0  0  0  0  0  0  0  0  0
    2.9624    1.3823    0.2186 N   0  0  0  0  0  0  0  0  0  0  0  0
    1.7905    2.2118    0.0134 C   0  0  0  0  0  0  0  0  0  0  0  0
    1.8820    3.4498   -0.1680 O   0  0  0  0  0  0  0  0  0  0  0  0
    0.5097    1.4950    0.0355 C   0  0  0  0  0  0  0  0  0  0  0  0
   -0.6689    2.1771   -0.1682 C   0  0  0  0  0  0  0  0  0  0  0  0
   -1.8349    1.4348   -0.1531 C   0  0  0  0  0  0  0  0  0  0  0  0
   -0.6447    3.6453   -0.3907 C   0  0  0  0  0  0  0  0  0  0  0  0
   -3.4561   -1.3382    1.3129 C   0  0  0  0  0  0  0  0  0  0  0  0
    0.6870    0.0000    0.0000 Cl  0  0  0  0  0  0  0  0  0  0  0  0
   -3.0126   -1.1292   -2.0516 H   0  0  0  0  0  0  0  0  0  0  0  0
   -4.2931   -1.9783   -1.1737 H   0  0  0  0  0  0  0  0  0  0  0  0
   -2.5450   -2.4554   -0.9422 H   0  0  0  0  0  0  0  0  0  0  0  0
   -4.0131    0.1085   -0.1345 H   0  0  0  0  0  0  0  0  0  0  0  0
   -0.6851   -1.6846    0.4213 H   0  0  0  0  0  0  0  0  0  0  0  0
    2.0404   -0.6330    1.5641 H   0  0  0  0  0  0  0  0  0  0  0  0
    1.6345   -2.8284    0.5771 H   0  0  0  0  0  0  0  0  0  0  0  0
    1.2897   -2.0692   -1.0244 H   0  0  0  0  0  0  0  0  0  0  0  0
    3.7510   -2.9532    0.1099 H   0  0  0  0  0  0  0  0  0  0  0  0
    4.2065   -0.9695    1.0208 H   0  0  0  0  0  0  0  0  0  0  0  0
    4.8690   -0.7548   -0.7044 H   0  0  0  0  0  0  0  0  0  0  0  0
    2.5691    0.0102   -1.3889 H   0  0  0  0  0  0  0  0  0  0  0  0
    3.7648    1.7769    0.7278 H   0  0  0  0  0  0  0  0  0  0  0  0
   -2.7543    2.0157   -0.3195 H   0  0  0  0  0  0  0  0  0  0  0  0
   -1.7107    3.9435   -0.6151 H   0  0  0  0  0  0  0  0  0  0  0  0
   -0.0965    3.9162   -1.3224 H   0  0  0  0  0  0  0  0  0  0  0  0
   -0.2565    4.1317    0.5040 H   0  0  0  0  0  0  0  0  0  0  0  0
   -3.1165   -2.4119    1.2573 H   0  0  0  0  0  0  0  0  0  0  0  0
   -4.5538   -1.3804    1.4695 H   0  0  0  0  0  0  0  0  0  0  0  0
   -3.0334   -0.8443    2.2271 H   0  0  0  0  0  0  0  0  0  0  0  0
   -0.6870    0.0000    0.0000 H   0  0  0  0  0  0  0  0  0  0  0  0
  1  2  1  0
  2  3  1  0
  3  4  2  0
  4  5  1  0
  5  6  1  0
  6  7  1  0
  7  8  1  0
  8  9  1  0
  9 10  1  0
 10 11  1  0
 11 12  1  0
 12 13  2  0
 12 14  1  0
 14 15  1  0
 15 16  2  0
 15 17  1  0
  2 18  1  0
 16  3  1  0
 14  5  2  0
 10  6  1  0
  1 20  1  0
  1 21  1  0
  1 22  1  0
  2 23  1  0
  4 24  1  0
  6 25  1  1
  7 26  1  0
  7 27  1  0
  8 28  1  0
  9 29  1  0
  9 30  1  0
 10 31  1  6
 11 32  1  0
 16 33  1  0
 17 34  1  0
 17 35  1  0
 17 36  1  0
 18 37  1  0
 18 38  1  0
 18 39  1  0
 19 40  1  0
M  END
>  <Ligand ID>  (1) 
LIG0003692

>  <Ligand>  (1) 
CHEMBL2337105

>  <SMILES>  (1) 
CC(c1cc2[C@H]3CNC[C@@H]3NC(=O)c2c(c1)C)C.Cl

>  <CID>  (1) 
11644841.0

>  <ChEMBL ID>  (1) 
nan

>  <InChiKey>  (1) 
USXGHUIYZXBPPR-KZCZEQIWSA-N

>  <InChi>  (1) 
InChI=1S/C15H20N2O.ClH/c1-8(2)10-4-9(3)14-11(5-10)12-6-16-7-13(12)17-15(14)18;/h4-5,8,12-13,16H,6-7H2,1-3H3,(H,17,18);1H/t12-,13+;/m1./s1

>  <IUPAC Name>  (1) 
(3aR,9bS)-6-methyl-8-propan-2-yl-1,2,3,3a,4,9b-hexahydropyrrolo[3,4-c]isoquinolin-5-one;hydrochloride

$$$$
