
     RDKit          3D

 65 67  0  0  0  0  0  0  0  0999 V2000
   -3.4655    1.6775    0.9952 C   0  0  0  0  0  0  0  0  0  0  0  0
   -3.6336    0.1322    0.7512 C   0  0  2  0  0  0  0  0  0  0  0  0
   -3.2472   -0.0581   -0.6505 C   0  0  0  0  0  0  0  0  0  0  0  0
   -1.8482    0.4424   -0.7362 N   0  0  0  0  0  0  0  0  0  0  0  0
   -0.7724   -0.2571   -0.1428 C   0  0  0  0  0  0  0  0  0  0  0  0
   -0.8589   -1.4997    0.4313 C   0  0  0  0  0  0  0  0  0  0  0  0
    0.2085   -2.0985    1.0728 C   0  0  0  0  0  0  0  0  0  0  0  0
    1.4167   -1.4405    1.1515 C   0  0  0  0  0  0  0  0  0  0  0  0
    1.5475   -0.1686    0.5770 C   0  0  0  0  0  0  0  0  0  0  0  0
    0.4610    0.3823   -0.0499 C   0  0  0  0  0  0  0  0  0  0  0  0
    2.8561    0.4883    0.7568 C   0  0  0  0  0  0  0  0  0  0  0  0
    3.8652   -0.1452   -0.1178 C   0  0  0  0  0  0  0  0  0  0  0  0
    3.8001   -0.1340   -1.3808 O   0  0  0  0  0  0  0  0  0  0  0  0
    4.9609   -0.7959    0.5688 N   0  0  0  0  0  0  0  0  0  0  0  0
    6.2424   -1.5892   -0.2519 S   0  0  0  0  0  0  0  0  0  0  0  0
    6.7224   -2.7558    0.5819 O   0  0  0  0  0  0  0  0  0  0  0  0
    5.7359   -2.1414   -1.5497 O   0  0  0  0  0  0  0  0  0  0  0  0
    7.5973   -0.4836   -0.4946 C   0  0  0  0  0  0  0  0  0  0  0  0
    7.7447    0.2706   -1.6319 C   0  0  0  0  0  0  0  0  0  0  0  0
    8.8598    1.1059   -1.7028 C   0  0  0  0  0  0  0  0  0  0  0  0
    9.7704    1.1630   -0.6652 C   0  0  0  0  0  0  0  0  0  0  0  0
    9.6114    0.4009    0.4707 C   0  0  0  0  0  0  0  0  0  0  0  0
    8.5186   -0.4301    0.5610 C   0  0  0  0  0  0  0  0  0  0  0  0
   10.9584    2.0425   -0.7279 C   0  0  0  0  0  0  0  0  0  0  0  0
   -4.8384   -0.1806    1.3129 N   0  0  0  0  0  0  0  0  0  0  0  0
   -5.6321   -1.2950    1.2141 C   0  0  0  0  0  0  0  0  0  0  0  0
   -6.3863   -1.4805   -0.0655 C   0  0  1  0  0  0  0  0  0  0  0  0
   -7.4289   -0.4358   -0.2622 C   0  0  0  0  0  0  0  0  0  0  0  0
   -8.2402   -0.4943   -1.3701 C   0  0  0  0  0  0  0  0  0  0  0  0
   -9.2264    0.4724   -1.6042 C   0  0  0  0  0  0  0  0  0  0  0  0
   -9.4137    1.5254   -0.7156 C   0  0  0  0  0  0  0  0  0  0  0  0
   -8.6054    1.5870    0.3930 C   0  0  0  0  0  0  0  0  0  0  0  0
   -7.6268    0.6122    0.6091 C   0  0  0  0  0  0  0  0  0  0  0  0
   -8.7841    2.9023    1.5669 Cl  0  0  0  0  0  0  0  0  0  0  0  0
   -5.6685   -1.5856   -1.2200 O   0  0  0  0  0  0  0  0  0  0  0  0
   -2.6466    2.0645    0.3895 H   0  0  0  0  0  0  0  0  0  0  0  0
   -4.4115    2.0984    0.5822 H   0  0  0  0  0  0  0  0  0  0  0  0
   -3.4465    1.8869    2.0638 H   0  0  0  0  0  0  0  0  0  0  0  0
   -2.7440   -0.2457    1.3817 H   0  0  0  0  0  0  0  0  0  0  0  0
   -3.8361    0.5100   -1.3549 H   0  0  0  0  0  0  0  0  0  0  0  0
   -3.1113   -1.1241   -0.9619 H   0  0  0  0  0  0  0  0  0  0  0  0
   -1.6662    1.3336   -1.2494 H   0  0  0  0  0  0  0  0  0  0  0  0
   -1.7686   -2.0685    0.3872 H   0  0  0  0  0  0  0  0  0  0  0  0
    0.1283   -3.0933    1.5280 H   0  0  0  0  0  0  0  0  0  0  0  0
    2.2328   -1.9292    1.6580 H   0  0  0  0  0  0  0  0  0  0  0  0
    0.5861    1.3704   -0.4903 H   0  0  0  0  0  0  0  0  0  0  0  0
    2.7690    1.5584    0.4419 H   0  0  0  0  0  0  0  0  0  0  0  0
    3.1689    0.4555    1.8277 H   0  0  0  0  0  0  0  0  0  0  0  0
    5.0017   -0.7994    1.6207 H   0  0  0  0  0  0  0  0  0  0  0  0
    7.0167    0.1931   -2.4081 H   0  0  0  0  0  0  0  0  0  0  0  0
    8.9908    1.7100   -2.5962 H   0  0  0  0  0  0  0  0  0  0  0  0
   10.3369    0.4482    1.2951 H   0  0  0  0  0  0  0  0  0  0  0  0
    8.3814   -1.0401    1.4593 H   0  0  0  0  0  0  0  0  0  0  0  0
   10.9857    2.5719    0.2665 H   0  0  0  0  0  0  0  0  0  0  0  0
   10.9069    2.8253   -1.5039 H   0  0  0  0  0  0  0  0  0  0  0  0
   11.9102    1.4886   -0.7817 H   0  0  0  0  0  0  0  0  0  0  0  0
   -4.8630    0.2617    2.2976 H   0  0  0  0  0  0  0  0  0  0  0  0
   -6.4558   -1.1995    2.0061 H   0  0  0  0  0  0  0  0  0  0  0  0
   -5.1530   -2.2658    1.5431 H   0  0  0  0  0  0  0  0  0  0  0  0
   -7.0007   -2.4491   -0.0208 H   0  0  0  0  0  0  0  0  0  0  0  0
   -8.1599   -1.2871   -2.1116 H   0  0  0  0  0  0  0  0  0  0  0  0
   -9.8706    0.4521   -2.4570 H   0  0  0  0  0  0  0  0  0  0  0  0
  -10.1547    2.2828   -0.8602 H   0  0  0  0  0  0  0  0  0  0  0  0
   -7.0402    0.7072    1.4846 H   0  0  0  0  0  0  0  0  0  0  0  0
   -5.2876   -2.4520   -1.4338 H   0  0  0  0  0  0  0  0  0  0  0  0
  1  2  1  0
  2  3  1  0
  3  4  1  0
  4  5  1  0
  5  6  2  0
  6  7  1  0
  7  8  2  0
  8  9  1  0
  9 10  2  0
  9 11  1  0
 11 12  1  0
 12 13  2  0
 12 14  1  0
 14 15  1  0
 15 16  2  0
 15 17  2  0
 15 18  1  0
 18 19  2  0
 19 20  1  0
 20 21  2  0
 21 22  1  0
 22 23  2  0
 21 24  1  0
  2 25  1  0
 25 26  1  0
 26 27  1  0
 27 28  1  0
 28 29  2  0
 29 30  1  0
 30 31  2  0
 31 32  1  0
 32 33  2  0
 32 34  1  0
 27 35  1  0
 10  5  1  0
 23 18  1  0
 33 28  1  0
  1 36  1  0
  1 37  1  0
  1 38  1  0
  2 39  1  1
  3 40  1  0
  3 41  1  0
  4 42  1  0
  6 43  1  0
  7 44  1  0
  8 45  1  0
 10 46  1  0
 11 47  1  0
 11 48  1  0
 14 49  1  0
 19 50  1  0
 20 51  1  0
 22 52  1  0
 23 53  1  0
 24 54  1  0
 24 55  1  0
 24 56  1  0
 25 57  1  0
 26 58  1  0
 26 59  1  0
 27 60  1  1
 29 61  1  0
 30 62  1  0
 31 63  1  0
 33 64  1  0
 35 65  1  0
M  END
>  <Ligand ID>  (1) 
LIG0003834

>  <Ligand>  (1) 
CHEMBL347582

>  <SMILES>  (1) 
C[C@H](CNc1cccc(c1)CC(=O)NS(=O)(=O)c1ccc(cc1)C)NC[C@@H](c1cccc(c1)Cl)O

>  <CID>  (1) 
9984028.0

>  <ChEMBL ID>  (1) 
nan

>  <InChiKey>  (1) 
NKVSVXNFJOOTMR-CLOONOSVSA-N

>  <InChi>  (1) 
InChI=1S/C26H30ClN3O4S/c1-18-9-11-24(12-10-18)35(33,34)30-26(32)14-20-5-3-8-23(13-20)29-16-19(2)28-17-25(31)21-6-4-7-22(27)15-21/h3-13,15,19,25,28-29,31H,14,16-17H2,1-2H3,(H,30,32)/t19-,25+/m1/s1

>  <IUPAC Name>  (1) 
2-[3-[[(2R)-2-[[(2R)-2-(3-chlorophenyl)-2-hydroxyethyl]amino]propyl]amino]phenyl]-N-(4-methylphenyl)sulfonylacetamide

$$$$
