
     RDKit          3D

 58 61  0  0  0  0  0  0  0  0999 V2000
    4.8273   -4.1720    1.7855 C   0  0  0  0  0  0  0  0  0  0  0  0
    3.3080   -4.1503    1.5809 C   0  0  0  0  0  0  0  0  0  0  0  0
    2.9560   -2.7847    1.0761 C   0  0  0  0  0  0  0  0  0  0  0  0
    3.8962   -1.8352    0.8798 N   0  0  0  0  0  0  0  0  0  0  0  0
    3.5179   -0.6293    0.4237 C   0  0  0  0  0  0  0  0  0  0  0  0
    4.5023    0.3335    0.2324 C   0  0  0  0  0  0  0  0  0  0  0  0
    4.0871    1.5753   -0.2370 C   0  0  0  0  0  0  0  0  0  0  0  0
    5.0729    2.5454   -0.4306 O   0  0  0  0  0  0  0  0  0  0  0  0
    6.4270    2.2941   -0.1661 C   0  0  0  0  0  0  0  0  0  0  0  0
    2.7690    1.8606   -0.5062 C   0  0  0  0  0  0  0  0  0  0  0  0
    1.7898    0.9084   -0.3178 C   0  0  0  0  0  0  0  0  0  0  0  0
    2.1999   -0.3232    0.1469 C   0  0  0  0  0  0  0  0  0  0  0  0
    1.2686   -1.3151    0.3581 C   0  0  0  0  0  0  0  0  0  0  0  0
    1.6572   -2.5394    0.8223 N   0  0  0  0  0  0  0  0  0  0  0  0
   -0.1198   -1.1663    0.1051 N   0  0  0  0  0  0  0  0  0  0  0  0
   -0.6877   -0.9717   -1.2110 C   0  0  0  0  0  0  0  0  0  0  0  0
   -1.8817   -0.0482   -1.1840 C   0  0  0  0  0  0  0  0  0  0  0  0
   -2.8760   -0.5021   -0.2212 N   0  0  0  0  0  0  0  0  0  0  0  0
   -2.4719   -1.3556    0.8504 C   0  0  0  0  0  0  0  0  0  0  0  0
   -1.0369   -1.2051    1.2225 C   0  0  0  0  0  0  0  0  0  0  0  0
   -4.2464   -0.1281   -0.3090 C   0  0  0  0  0  0  0  0  0  0  0  0
   -5.1532   -1.1775   -0.4475 C   0  0  0  0  0  0  0  0  0  0  0  0
   -6.5260   -0.9162   -0.5434 C   0  0  0  0  0  0  0  0  0  0  0  0
   -6.9704    0.4086   -0.4983 C   0  0  0  0  0  0  0  0  0  0  0  0
   -6.0528    1.4578   -0.3589 C   0  0  0  0  0  0  0  0  0  0  0  0
   -4.6815    1.1804   -0.2641 C   0  0  0  0  0  0  0  0  0  0  0  0
   -3.7552    2.2064   -0.1253 O   0  0  0  0  0  0  0  0  0  0  0  0
   -4.1350    3.5764   -0.0720 C   0  0  0  0  0  0  0  0  0  0  0  0
    2.4710    3.1341   -0.9703 O   0  0  0  0  0  0  0  0  0  0  0  0
    1.1217    3.4473   -1.2526 C   0  0  0  0  0  0  0  0  0  0  0  0
    5.0833   -5.1792    2.1109 H   0  0  0  0  0  0  0  0  0  0  0  0
    5.2726   -3.9240    0.7862 H   0  0  0  0  0  0  0  0  0  0  0  0
    5.1729   -3.3958    2.4853 H   0  0  0  0  0  0  0  0  0  0  0  0
    3.0846   -4.8845    0.7873 H   0  0  0  0  0  0  0  0  0  0  0  0
    2.7804   -4.3344    2.5270 H   0  0  0  0  0  0  0  0  0  0  0  0
    5.5488    0.1261    0.4398 H   0  0  0  0  0  0  0  0  0  0  0  0
    7.0233    3.1220   -0.5962 H   0  0  0  0  0  0  0  0  0  0  0  0
    6.8037    1.3521   -0.6285 H   0  0  0  0  0  0  0  0  0  0  0  0
    6.6114    2.2145    0.9413 H   0  0  0  0  0  0  0  0  0  0  0  0
    0.7498    1.1146   -0.5182 H   0  0  0  0  0  0  0  0  0  0  0  0
    0.0288   -0.6087   -1.9626 H   0  0  0  0  0  0  0  0  0  0  0  0
   -1.0583   -1.9758   -1.5797 H   0  0  0  0  0  0  0  0  0  0  0  0
   -1.6459    0.9959   -0.9874 H   0  0  0  0  0  0  0  0  0  0  0  0
   -2.3579   -0.1161   -2.1852 H   0  0  0  0  0  0  0  0  0  0  0  0
   -2.7984   -2.4018    0.6733 H   0  0  0  0  0  0  0  0  0  0  0  0
   -3.0699   -1.0319    1.7512 H   0  0  0  0  0  0  0  0  0  0  0  0
   -0.7242   -2.0557    1.8799 H   0  0  0  0  0  0  0  0  0  0  0  0
   -0.9511   -0.2332    1.7693 H   0  0  0  0  0  0  0  0  0  0  0  0
   -4.8213   -2.1888   -0.4827 H   0  0  0  0  0  0  0  0  0  0  0  0
   -7.2433   -1.7449   -0.6530 H   0  0  0  0  0  0  0  0  0  0  0  0
   -8.0380    0.5993   -0.5738 H   0  0  0  0  0  0  0  0  0  0  0  0
   -6.4205    2.4840   -0.3260 H   0  0  0  0  0  0  0  0  0  0  0  0
   -3.2319    4.1793   -0.3021 H   0  0  0  0  0  0  0  0  0  0  0  0
   -4.5073    3.8076    0.9600 H   0  0  0  0  0  0  0  0  0  0  0  0
   -4.8989    3.8483   -0.8268 H   0  0  0  0  0  0  0  0  0  0  0  0
    1.0922    4.4304   -1.7667 H   0  0  0  0  0  0  0  0  0  0  0  0
    0.7000    2.6336   -1.8855 H   0  0  0  0  0  0  0  0  0  0  0  0
    0.5377    3.4592   -0.3099 H   0  0  0  0  0  0  0  0  0  0  0  0
  1  2  1  0
  2  3  1  0
  3  4  2  0
  4  5  1  0
  5  6  2  0
  6  7  1  0
  7  8  1  0
  8  9  1  0
  7 10  2  0
 10 11  1  0
 11 12  2  0
 12 13  1  0
 13 14  2  0
 13 15  1  0
 15 16  1  0
 16 17  1  0
 17 18  1  0
 18 19  1  0
 19 20  1  0
 18 21  1  0
 21 22  2  0
 22 23  1  0
 23 24  2  0
 24 25  1  0
 25 26  2  0
 26 27  1  0
 27 28  1  0
 10 29  1  0
 29 30  1  0
 14  3  1  0
 20 15  1  0
 26 21  1  0
 12  5  1  0
  1 31  1  0
  1 32  1  0
  1 33  1  0
  2 34  1  0
  2 35  1  0
  6 36  1  0
  9 37  1  0
  9 38  1  0
  9 39  1  0
 11 40  1  0
 16 41  1  0
 16 42  1  0
 17 43  1  0
 17 44  1  0
 19 45  1  0
 19 46  1  0
 20 47  1  0
 20 48  1  0
 22 49  1  0
 23 50  1  0
 24 51  1  0
 25 52  1  0
 28 53  1  0
 28 54  1  0
 28 55  1  0
 30 56  1  0
 30 57  1  0
 30 58  1  0
M  END
>  <Ligand ID>  (1) 
LIG0004125

>  <Ligand>  (1) 
CHEMBL2431115

>  <SMILES>  (1) 
CCc1nc2cc(OC)c(cc2c(n1)N1CCN(CC1)c1ccccc1OC)OC

>  <CID>  (1) 
56593293.0

>  <ChEMBL ID>  (1) 
nan

>  <InChiKey>  (1) 
PDEAKHQWPNWDTL-UHFFFAOYSA-N

>  <InChi>  (1) 
InChI=1S/C23H28N4O3/c1-5-22-24-17-15-21(30-4)20(29-3)14-16(17)23(25-22)27-12-10-26(11-13-27)18-8-6-7-9-19(18)28-2/h6-9,14-15H,5,10-13H2,1-4H3

>  <IUPAC Name>  (1) 
2-ethyl-6,7-dimethoxy-4-[4-(2-methoxyphenyl)piperazin-1-yl]quinazoline

$$$$
