
     RDKit          3D

 30 31  0  0  0  0  0  0  0  0999 V2000
   -3.7272   -1.0416    2.0607 C   0  0  0  0  0  0  0  0  0  0  0  0
   -2.4956    0.3093    2.1923 S   0  0  0  0  0  0  0  0  0  0  0  0
   -2.0476    0.6907    0.4844 C   0  0  0  0  0  0  0  0  0  0  0  0
   -2.7564    1.6424   -0.2160 C   0  0  0  0  0  0  0  0  0  0  0  0
   -2.4460    1.9615   -1.5194 C   0  0  0  0  0  0  0  0  0  0  0  0
   -1.3930    1.2914   -2.1062 C   0  0  0  0  0  0  0  0  0  0  0  0
   -0.6896    0.3403   -1.3969 C   0  0  0  0  0  0  0  0  0  0  0  0
   -0.9728   -0.0028   -0.0933 C   0  0  0  0  0  0  0  0  0  0  0  0
   -0.2651   -0.9809    0.6436 N   0  0  0  0  0  0  0  0  0  0  0  0
    0.8496   -1.7478    0.1703 C   0  0  0  0  0  0  0  0  0  0  0  0
    2.0332   -0.8845   -0.1364 C   0  0  0  0  0  0  0  0  0  0  0  0
    2.7078   -0.7836   -1.2280 N   0  0  0  0  0  0  0  0  0  0  0  0
    3.7787    0.1705   -1.1006 C   0  0  0  0  0  0  0  0  0  0  0  0
    3.9150    0.3644    0.3821 C   0  0  0  0  0  0  0  0  0  0  0  0
    2.5939   -0.0136    0.8420 N   0  0  0  0  0  0  0  0  0  0  0  0
   -3.2480   -1.8285    1.4406 H   0  0  0  0  0  0  0  0  0  0  0  0
   -4.5829   -0.6003    1.4708 H   0  0  0  0  0  0  0  0  0  0  0  0
   -4.0364   -1.4047    3.0478 H   0  0  0  0  0  0  0  0  0  0  0  0
   -3.5723    2.1293    0.3093 H   0  0  0  0  0  0  0  0  0  0  0  0
   -3.0236    2.7048   -2.0193 H   0  0  0  0  0  0  0  0  0  0  0  0
   -1.1364    1.5359   -3.1417 H   0  0  0  0  0  0  0  0  0  0  0  0
    0.1180   -0.1479   -1.9189 H   0  0  0  0  0  0  0  0  0  0  0  0
   -0.5989   -1.1551    1.6388 H   0  0  0  0  0  0  0  0  0  0  0  0
    1.1653   -2.4851    0.9302 H   0  0  0  0  0  0  0  0  0  0  0  0
    0.5547   -2.3171   -0.7422 H   0  0  0  0  0  0  0  0  0  0  0  0
    4.7315   -0.2836   -1.5031 H   0  0  0  0  0  0  0  0  0  0  0  0
    3.5612    1.1245   -1.6218 H   0  0  0  0  0  0  0  0  0  0  0  0
    4.1301    1.4271    0.6201 H   0  0  0  0  0  0  0  0  0  0  0  0
    4.6839   -0.3334    0.7713 H   0  0  0  0  0  0  0  0  0  0  0  0
    2.1690    0.3186    1.7395 H   0  0  0  0  0  0  0  0  0  0  0  0
  1  2  1  0
  2  3  1  0
  3  4  2  0
  4  5  1  0
  5  6  2  0
  6  7  1  0
  7  8  2  0
  8  9  1  0
  9 10  1  0
 10 11  1  0
 11 12  2  0
 12 13  1  0
 13 14  1  0
 14 15  1  0
  8  3  1  0
 15 11  1  0
  1 16  1  0
  1 17  1  0
  1 18  1  0
  4 19  1  0
  5 20  1  0
  6 21  1  0
  7 22  1  0
  9 23  1  0
 10 24  1  0
 10 25  1  0
 13 26  1  0
 13 27  1  0
 14 28  1  0
 14 29  1  0
 15 30  1  0
M  END
>  <Ligand ID>  (1) 
LIG0004960

>  <Ligand>  (1) 
CHEMBL117248

>  <SMILES>  (1) 
CSc1ccccc1NCC1=NCCN1

>  <CID>  (1) 
11108001.0

>  <ChEMBL ID>  (1) 
nan

>  <InChiKey>  (1) 
YGIWTZGEYHABOR-UHFFFAOYSA-N

>  <InChi>  (1) 
InChI=1S/C11H15N3S/c1-15-10-5-3-2-4-9(10)14-8-11-12-6-7-13-11/h2-5,14H,6-8H2,1H3,(H,12,13)

>  <IUPAC Name>  (1) 
N-(4,5-dihydro-1H-imidazol-2-ylmethyl)-2-methylsulfanylaniline

$$$$
