
     RDKit          3D

 27 28  0  0  0  0  0  0  0  0999 V2000
    3.6947    0.8303   -0.9829 N   0  0  0  0  0  0  0  0  0  0  0  0
    3.3620   -0.5349   -0.7588 C   0  0  0  0  0  0  0  0  0  0  0  0
    2.0340   -0.7730   -0.1214 C   0  0  1  0  0  0  0  0  0  0  0  0
    1.8866   -0.1324    1.2473 C   0  0  0  0  0  0  0  0  0  0  0  0
    1.0625    0.3155    0.1225 C   0  0  2  0  0  0  0  0  0  0  0  0
   -0.3907   -0.0365    0.0837 C   0  0  0  0  0  0  0  0  0  0  0  0
   -0.8434   -1.2386    0.6027 C   0  0  0  0  0  0  0  0  0  0  0  0
   -2.1776   -1.5904    0.5809 C   0  0  0  0  0  0  0  0  0  0  0  0
   -3.1121   -0.7142    0.0201 C   0  0  0  0  0  0  0  0  0  0  0  0
   -2.6893    0.4837   -0.5011 C   0  0  0  0  0  0  0  0  0  0  0  0
   -1.3391    0.8116   -0.4655 C   0  0  0  0  0  0  0  0  0  0  0  0
   -3.6775    1.4252   -1.1014 C   0  0  0  0  0  0  0  0  0  0  0  0
   -3.0650    2.4123   -1.8192 F   0  0  0  0  0  0  0  0  0  0  0  0
   -4.5224    1.9819   -0.1662 F   0  0  0  0  0  0  0  0  0  0  0  0
   -4.4625    0.6405   -1.9514 F   0  0  0  0  0  0  0  0  0  0  0  0
    2.9947    1.4237   -1.4281 H   0  0  0  0  0  0  0  0  0  0  0  0
    4.3799    1.2591   -0.3584 H   0  0  0  0  0  0  0  0  0  0  0  0
    4.1347   -0.9528   -0.0703 H   0  0  0  0  0  0  0  0  0  0  0  0
    3.4871   -1.1061   -1.7149 H   0  0  0  0  0  0  0  0  0  0  0  0
    1.6123   -1.7694   -0.3020 H   0  0  0  0  0  0  0  0  0  0  0  0
    2.6632    0.5455    1.6207 H   0  0  0  0  0  0  0  0  0  0  0  0
    1.5332   -0.8452    2.0152 H   0  0  0  0  0  0  0  0  0  0  0  0
    1.2832    1.2984   -0.3232 H   0  0  0  0  0  0  0  0  0  0  0  0
   -0.1472   -1.9614    1.0545 H   0  0  0  0  0  0  0  0  0  0  0  0
   -2.5570   -2.5209    0.9784 H   0  0  0  0  0  0  0  0  0  0  0  0
   -4.1589   -1.0089    0.0122 H   0  0  0  0  0  0  0  0  0  0  0  0
   -0.9854    1.7569   -0.8739 H   0  0  0  0  0  0  0  0  0  0  0  0
  1  2  1  0
  2  3  1  0
  3  4  1  0
  4  5  1  0
  5  6  1  0
  6  7  2  0
  7  8  1  0
  8  9  2  0
  9 10  1  0
 10 11  2  0
 10 12  1  0
 12 13  1  0
 12 14  1  0
 12 15  1  0
  5  3  1  0
 11  6  1  0
  1 16  1  0
  1 17  1  0
  2 18  1  0
  2 19  1  0
  3 20  1  1
  4 21  1  0
  4 22  1  0
  5 23  1  6
  7 24  1  0
  8 25  1  0
  9 26  1  0
 11 27  1  0
M  END
>  <Ligand ID>  (1) 
LIG0002372

>  <Ligand>  (1) 
CHEMBL490064

>  <SMILES>  (1) 
NC[C@H]1C[C@@H]1c1cccc(c1)C(F)(F)F

>  <CID>  (1) 
44572804.0

>  <ChEMBL ID>  (1) 
nan

>  <InChiKey>  (1) 
HMVDYILQOBDJFR-PSASIEDQSA-N

>  <InChi>  (1) 
InChI=1S/C11H12F3N/c12-11(13,14)9-3-1-2-7(4-9)10-5-8(10)6-15/h1-4,8,10H,5-6,15H2/t8-,10-/m1/s1

>  <IUPAC Name>  (1) 
[(1S,2S)-2-[3-(trifluoromethyl)phenyl]cyclopropyl]methanamine

$$$$
