
     RDKit          3D

 21 22  0  0  0  0  0  0  0  0999 V2000
    3.2073    0.8134   -0.4514 C   0  0  0  0  0  0  0  0  0  0  0  0
    2.7185    0.6502    0.8494 C   0  0  0  0  0  0  0  0  0  0  0  0
    1.5326   -0.0529    1.0356 C   0  0  0  0  0  0  0  0  0  0  0  0
    0.8400   -0.5877   -0.0569 C   0  0  0  0  0  0  0  0  0  0  0  0
    1.3628   -0.4000   -1.3201 C   0  0  0  0  0  0  0  0  0  0  0  0
    2.5206    0.2864   -1.5022 N   0  0  0  0  0  0  0  0  0  0  0  0
   -0.4312   -1.3385    0.1700 C   0  0  0  0  0  0  0  0  0  0  0  0
   -1.5749   -0.3826    0.1195 C   0  0  0  0  0  0  0  0  0  0  0  0
   -2.0862    0.3022    1.2210 C   0  0  0  0  0  0  0  0  0  0  0  0
   -3.1039    1.0618    0.7790 N   0  0  0  0  0  0  0  0  0  0  0  0
   -3.2590    0.8868   -0.5580 C   0  0  0  0  0  0  0  0  0  0  0  0
   -2.3116   -0.0033   -0.9452 N   0  0  0  0  0  0  0  0  0  0  0  0
    4.1300    1.3554   -0.6447 H   0  0  0  0  0  0  0  0  0  0  0  0
    3.2541    1.0641    1.6971 H   0  0  0  0  0  0  0  0  0  0  0  0
    1.1459   -0.1837    2.0487 H   0  0  0  0  0  0  0  0  0  0  0  0
    0.8165   -0.8210   -2.1743 H   0  0  0  0  0  0  0  0  0  0  0  0
   -0.3586   -1.7567    1.2048 H   0  0  0  0  0  0  0  0  0  0  0  0
   -0.5363   -2.1228   -0.6045 H   0  0  0  0  0  0  0  0  0  0  0  0
   -1.7237    0.2324    2.2551 H   0  0  0  0  0  0  0  0  0  0  0  0
   -4.0040    1.3685   -1.2064 H   0  0  0  0  0  0  0  0  0  0  0  0
   -2.1388   -0.3719   -1.9165 H   0  0  0  0  0  0  0  0  0  0  0  0
  1  2  2  0
  2  3  1  0
  3  4  2  0
  4  5  1  0
  5  6  2  0
  4  7  1  0
  7  8  1  0
  8  9  2  0
  9 10  1  0
 10 11  2  0
 11 12  1  0
  6  1  1  0
 12  8  1  0
  1 13  1  0
  2 14  1  0
  3 15  1  0
  5 16  1  0
  7 17  1  0
  7 18  1  0
  9 19  1  0
 11 20  1  0
 12 21  1  0
M  END
>  <Ligand ID>  (1) 
LIG0005975

>  <Ligand>  (1) 
CHEMBL78838

>  <SMILES>  (1) 
c1ccc(cn1)Cc1cnc[nH]1

>  <CID>  (1) 
9812843.0

>  <ChEMBL ID>  (1) 
nan

>  <InChiKey>  (1) 
IQMRECYOUIKYGG-UHFFFAOYSA-N

>  <InChi>  (1) 
InChI=1S/C9H9N3/c1-2-8(5-10-3-1)4-9-6-11-7-12-9/h1-3,5-7H,4H2,(H,11,12)

>  <IUPAC Name>  (1) 
3-(1H-imidazol-5-ylmethyl)pyridine

$$$$
