
     RDKit          3D

 57 60  0  0  0  0  0  0  0  0999 V2000
    6.7753   -0.5785    1.2029 O   0  0  0  0  0  0  0  0  0  0  0  0
    6.8349   -0.8026   -0.1444 C   0  0  0  0  0  0  0  0  0  0  0  0
    7.8185   -1.4788   -0.6001 O   0  0  0  0  0  0  0  0  0  0  0  0
    5.8541   -0.3294   -1.1398 C   0  0  0  0  0  0  0  0  0  0  0  0
    4.7622    0.4433   -0.4503 C   0  0  0  0  0  0  0  0  0  0  0  0
    4.0739   -0.4378    0.5390 C   0  0  0  0  0  0  0  0  0  0  0  0
    2.6880   -0.8463    0.0735 C   0  0  0  0  0  0  0  0  0  0  0  0
    1.7607    0.3480   -0.0042 C   0  0  0  0  0  0  0  0  0  0  0  0
    2.5590    1.4968   -0.5705 C   0  0  0  0  0  0  0  0  0  0  0  0
    3.7375    0.9802   -1.4061 C   0  0  0  0  0  0  0  0  0  0  0  0
    0.5979    0.0954   -0.9338 C   0  0  0  0  0  0  0  0  0  0  0  0
   -0.6846    0.7317   -0.4644 C   0  0  0  0  0  0  0  0  0  0  0  0
   -1.0179    0.2190    0.8667 N   0  0  0  0  0  0  0  0  0  0  0  0
    0.0954   -0.3516    1.6158 C   0  0  0  0  0  0  0  0  0  0  0  0
    1.2647    0.6176    1.4044 C   0  0  0  0  0  0  0  0  0  0  0  0
   -2.3322    0.2958    1.3402 C   0  0  0  0  0  0  0  0  0  0  0  0
   -2.6177    1.0025    2.4948 C   0  0  0  0  0  0  0  0  0  0  0  0
   -3.9096    1.0905    2.9793 C   0  0  0  0  0  0  0  0  0  0  0  0
   -4.2497    1.9974    4.4536 Cl  0  0  0  0  0  0  0  0  0  0  0  0
   -4.9553    0.4697    2.3167 C   0  0  0  0  0  0  0  0  0  0  0  0
   -4.6757   -0.2403    1.1587 C   0  0  0  0  0  0  0  0  0  0  0  0
   -3.3753   -0.3372    0.6583 C   0  0  0  0  0  0  0  0  0  0  0  0
   -3.4138   -1.1130   -0.5136 O   0  0  0  0  0  0  0  0  0  0  0  0
   -4.7152   -0.8942   -1.0459 C   0  0  0  0  0  0  0  0  0  0  0  0
   -5.5453   -1.0130    0.2169 C   0  0  0  0  0  0  0  0  0  0  0  0
   -4.8893    0.5391   -1.5177 C   0  0  0  0  0  0  0  0  0  0  0  0
   -5.1010   -1.8436   -2.1265 C   0  0  0  0  0  0  0  0  0  0  0  0
    7.6441   -0.4545    1.7414 H   0  0  0  0  0  0  0  0  0  0  0  0
    5.4561   -1.1941   -1.6705 H   0  0  0  0  0  0  0  0  0  0  0  0
    6.3652    0.3256   -1.8743 H   0  0  0  0  0  0  0  0  0  0  0  0
    5.2096    1.3058    0.1047 H   0  0  0  0  0  0  0  0  0  0  0  0
    4.6432   -1.3918    0.7007 H   0  0  0  0  0  0  0  0  0  0  0  0
    3.9448    0.0429    1.5301 H   0  0  0  0  0  0  0  0  0  0  0  0
    2.3342   -1.5900    0.8465 H   0  0  0  0  0  0  0  0  0  0  0  0
    2.7363   -1.4248   -0.8653 H   0  0  0  0  0  0  0  0  0  0  0  0
    3.0238    2.0658    0.2584 H   0  0  0  0  0  0  0  0  0  0  0  0
    1.8975    2.1661   -1.1491 H   0  0  0  0  0  0  0  0  0  0  0  0
    4.1715    1.9044   -1.8727 H   0  0  0  0  0  0  0  0  0  0  0  0
    3.4231    0.2352   -2.1582 H   0  0  0  0  0  0  0  0  0  0  0  0
    0.4419   -0.9841   -1.0484 H   0  0  0  0  0  0  0  0  0  0  0  0
    0.8152    0.5232   -1.9456 H   0  0  0  0  0  0  0  0  0  0  0  0
   -0.6581    1.8249   -0.4612 H   0  0  0  0  0  0  0  0  0  0  0  0
   -1.4802    0.3584   -1.1433 H   0  0  0  0  0  0  0  0  0  0  0  0
    0.3220   -1.3259    1.0972 H   0  0  0  0  0  0  0  0  0  0  0  0
   -0.1238   -0.5266    2.6729 H   0  0  0  0  0  0  0  0  0  0  0  0
    2.0354    0.4242    2.1691 H   0  0  0  0  0  0  0  0  0  0  0  0
    0.8868    1.6470    1.4646 H   0  0  0  0  0  0  0  0  0  0  0  0
   -1.8329    1.5118    3.0581 H   0  0  0  0  0  0  0  0  0  0  0  0
   -5.9790    0.5152    2.6636 H   0  0  0  0  0  0  0  0  0  0  0  0
   -6.5069   -0.4749    0.0279 H   0  0  0  0  0  0  0  0  0  0  0  0
   -5.6890   -2.0504    0.5553 H   0  0  0  0  0  0  0  0  0  0  0  0
   -4.2489    0.8002   -2.3795 H   0  0  0  0  0  0  0  0  0  0  0  0
   -4.5997    1.1681   -0.6277 H   0  0  0  0  0  0  0  0  0  0  0  0
   -5.9628    0.6987   -1.6710 H   0  0  0  0  0  0  0  0  0  0  0  0
   -4.4894   -2.7556   -2.1544 H   0  0  0  0  0  0  0  0  0  0  0  0
   -6.1687   -2.0823   -1.9981 H   0  0  0  0  0  0  0  0  0  0  0  0
   -4.9508   -1.3229   -3.0999 H   0  0  0  0  0  0  0  0  0  0  0  0
  1  2  1  0
  2  3  2  0
  2  4  1  0
  4  5  1  0
  5  6  1  0
  6  7  1  0
  7  8  1  0
  8  9  1  0
  9 10  1  0
  8 11  1  0
 11 12  1  0
 12 13  1  0
 13 14  1  0
 14 15  1  0
 13 16  1  0
 16 17  2  0
 17 18  1  0
 18 19  1  0
 18 20  2  0
 20 21  1  0
 21 22  2  0
 22 23  1  0
 23 24  1  0
 24 25  1  0
 24 26  1  0
 24 27  1  0
 10  5  1  0
 22 16  1  0
 15  8  1  0
 25 21  1  0
  1 28  1  0
  4 29  1  0
  4 30  1  0
  5 31  1  0
  6 32  1  0
  6 33  1  0
  7 34  1  0
  7 35  1  0
  9 36  1  0
  9 37  1  0
 10 38  1  0
 10 39  1  0
 11 40  1  0
 11 41  1  0
 12 42  1  0
 12 43  1  0
 14 44  1  0
 14 45  1  0
 15 46  1  0
 15 47  1  0
 17 48  1  0
 20 49  1  0
 25 50  1  0
 25 51  1  0
 26 52  1  0
 26 53  1  0
 26 54  1  0
 27 55  1  0
 27 56  1  0
 27 57  1  0
M  END
>  <Ligand ID>  (1) 
LIG0003563

>  <Ligand>  (1) 
CHEMBL3937916

>  <SMILES>  (1) 
OC(=O)CC1CCC2(CC1)CCN(CC2)c1cc(Cl)cc2c1OC(C2)(C)C

>  <CID>  (1) 
117886639.0

>  <ChEMBL ID>  (1) 
nan

>  <InChiKey>  (1) 
NUGWEZBZPNGBKL-UHFFFAOYSA-N

>  <InChi>  (1) 
InChI=1S/C22H30ClNO3/c1-21(2)14-16-12-17(23)13-18(20(16)27-21)24-9-7-22(8-10-24)5-3-15(4-6-22)11-19(25)26/h12-13,15H,3-11,14H2,1-2H3,(H,25,26)

>  <IUPAC Name>  (1) 
2-[3-(5-chloro-2,2-dimethyl-3H-1-benzofuran-7-yl)-3-azaspiro[5.5]undecan-9-yl]acetic acid

$$$$
