
     RDKit          3D

 83 89  0  0  0  0  0  0  0  0999 V2000
   -3.4491    1.5118    2.9196 C   0  0  0  0  0  0  0  0  0  0  0  0
   -3.0598    0.0584    2.7740 C   0  0  0  0  0  0  0  0  0  0  0  0
   -4.0082   -0.6976    1.9383 C   0  0  0  0  0  0  0  0  0  0  0  0
   -4.2168   -0.2799    0.5310 C   0  0  1  0  0  0  0  0  0  0  0  0
   -4.7223    1.0728    0.2973 C   0  0  0  0  0  0  0  0  0  0  0  0
   -5.7305    1.4508    0.9490 O   0  0  0  0  0  0  0  0  0  0  0  0
   -4.1668    2.0117   -0.6152 N   0  0  0  0  0  0  0  0  0  0  0  0
   -4.1318    3.4395   -0.6509 C   0  0  0  0  0  0  0  0  0  0  0  0
   -3.5545    3.8142   -1.9756 C   0  0  0  0  0  0  0  0  0  0  0  0
   -2.6672    2.6319   -2.2929 C   0  0  0  0  0  0  0  0  0  0  0  0
   -3.4752    1.4419   -1.7794 C   0  0  1  0  0  0  0  0  0  0  0  0
   -2.5205    0.4366   -1.2499 C   0  0  1  0  0  0  0  0  0  0  0  0
   -3.0890   -0.5101   -0.3226 N   0  0  0  0  0  0  0  0  0  0  0  0
   -2.2984   -1.7117   -0.4290 C   0  0  0  0  0  0  0  0  0  0  0  0
   -2.3178   -2.7239    0.3167 O   0  0  0  0  0  0  0  0  0  0  0  0
   -1.4398   -1.4935   -1.6311 C   0  0  1  0  0  0  0  0  0  0  0  0
   -1.9877   -0.3908   -2.2360 O   0  0  0  0  0  0  0  0  0  0  0  0
   -0.0548   -1.3239   -1.3646 N   0  0  0  0  0  0  0  0  0  0  0  0
    0.7319   -2.3134   -0.7218 C   0  0  0  0  0  0  0  0  0  0  0  0
    0.2116   -3.4000   -0.3587 O   0  0  0  0  0  0  0  0  0  0  0  0
    2.1586   -2.0429   -0.4910 C   0  0  1  0  0  0  0  0  0  0  0  0
    2.9392   -1.7942   -1.7360 C   0  0  0  0  0  0  0  0  0  0  0  0
    4.3467   -1.6977   -1.4150 N   0  0  0  0  0  0  0  0  0  0  0  0
    4.8666   -2.9167   -0.8381 C   0  0  0  0  0  0  0  0  0  0  0  0
    4.6143   -0.5368   -0.5964 C   0  0  1  0  0  0  0  0  0  0  0  0
    3.5217   -0.2205    0.3271 C   0  0  0  0  0  0  0  0  0  0  0  0
    2.3781   -0.8704    0.4220 C   0  0  0  0  0  0  0  0  0  0  0  0
    3.7213    0.9264    1.2238 C   0  0  0  0  0  0  0  0  0  0  0  0
    2.7054    1.6454    1.7854 C   0  0  0  0  0  0  0  0  0  0  0  0
    3.0437    2.7244    2.6119 C   0  0  0  0  0  0  0  0  0  0  0  0
    4.3875    3.0482    2.8493 C   0  0  0  0  0  0  0  0  0  0  0  0
    5.4042    2.3043    2.2688 C   0  0  0  0  0  0  0  0  0  0  0  0
    5.0294    1.2667    1.4747 C   0  0  0  0  0  0  0  0  0  0  0  0
    6.1123    0.5956    0.9529 C   0  0  0  0  0  0  0  0  0  0  0  0
    5.9486   -0.5771    0.0695 C   0  0  0  0  0  0  0  0  0  0  0  0
    7.2117    1.2903    1.4778 C   0  0  0  0  0  0  0  0  0  0  0  0
    6.7455    2.3112    2.2643 N   0  0  0  0  0  0  0  0  0  0  0  0
    9.0391    0.8655    1.1386 Br  0  0  0  0  0  0  0  0  0  0  0  0
   -1.7099   -2.6767   -2.5635 C   0  0  0  0  0  0  0  0  0  0  0  0
   -0.8711   -2.5260   -3.8113 C   0  0  0  0  0  0  0  0  0  0  0  0
   -3.1680   -2.7443   -2.8998 C   0  0  0  0  0  0  0  0  0  0  0  0
   -1.4481    1.1382   -0.6829 O   0  0  0  0  0  0  0  0  0  0  0  0
   -3.1536   -0.5224    4.1946 C   0  0  0  0  0  0  0  0  0  0  0  0
   -2.8117    2.0166    3.7108 H   0  0  0  0  0  0  0  0  0  0  0  0
   -3.3013    2.1213    2.0291 H   0  0  0  0  0  0  0  0  0  0  0  0
   -4.4752    1.5812    3.3726 H   0  0  0  0  0  0  0  0  0  0  0  0
   -1.9949   -0.0664    2.5090 H   0  0  0  0  0  0  0  0  0  0  0  0
   -3.7434   -1.7842    1.9101 H   0  0  0  0  0  0  0  0  0  0  0  0
   -5.0065   -0.7005    2.4695 H   0  0  0  0  0  0  0  0  0  0  0  0
   -5.0639   -0.9487    0.1654 H   0  0  0  0  0  0  0  0  0  0  0  0
   -3.4922    3.8033    0.1866 H   0  0  0  0  0  0  0  0  0  0  0  0
   -5.1643    3.8297   -0.5151 H   0  0  0  0  0  0  0  0  0  0  0  0
   -2.9224    4.7312   -1.7935 H   0  0  0  0  0  0  0  0  0  0  0  0
   -4.3186    4.0257   -2.7287 H   0  0  0  0  0  0  0  0  0  0  0  0
   -2.5071    2.6035   -3.3740 H   0  0  0  0  0  0  0  0  0  0  0  0
   -1.7264    2.7350   -1.7211 H   0  0  0  0  0  0  0  0  0  0  0  0
   -4.1595    1.1149   -2.5608 H   0  0  0  0  0  0  0  0  0  0  0  0
    0.4128   -0.4217   -1.6565 H   0  0  0  0  0  0  0  0  0  0  0  0
    2.6312   -2.9148    0.0178 H   0  0  0  0  0  0  0  0  0  0  0  0
    2.6747   -0.8238   -2.2301 H   0  0  0  0  0  0  0  0  0  0  0  0
    2.8011   -2.6140   -2.4626 H   0  0  0  0  0  0  0  0  0  0  0  0
    4.7154   -2.9778    0.2582 H   0  0  0  0  0  0  0  0  0  0  0  0
    4.2818   -3.7549   -1.2781 H   0  0  0  0  0  0  0  0  0  0  0  0
    5.9264   -3.0401   -1.1550 H   0  0  0  0  0  0  0  0  0  0  0  0
    4.6611    0.3254   -1.3253 H   0  0  0  0  0  0  0  0  0  0  0  0
    1.6175   -0.5803    1.1294 H   0  0  0  0  0  0  0  0  0  0  0  0
    1.6923    1.3645    1.5760 H   0  0  0  0  0  0  0  0  0  0  0  0
    2.2430    3.3168    3.0742 H   0  0  0  0  0  0  0  0  0  0  0  0
    4.6641    3.8820    3.4877 H   0  0  0  0  0  0  0  0  0  0  0  0
    6.7703   -0.6715   -0.6687 H   0  0  0  0  0  0  0  0  0  0  0  0
    6.0401   -1.4745    0.7452 H   0  0  0  0  0  0  0  0  0  0  0  0
    7.3043    3.0091    2.7952 H   0  0  0  0  0  0  0  0  0  0  0  0
   -1.4469   -3.5889   -1.9942 H   0  0  0  0  0  0  0  0  0  0  0  0
   -1.5304   -2.7085   -4.6917 H   0  0  0  0  0  0  0  0  0  0  0  0
   -0.4618   -1.4961   -3.8437 H   0  0  0  0  0  0  0  0  0  0  0  0
    0.0084   -3.1979   -3.7835 H   0  0  0  0  0  0  0  0  0  0  0  0
   -3.6113   -1.7760   -3.1735 H   0  0  0  0  0  0  0  0  0  0  0  0
   -3.7565   -3.1885   -2.0961 H   0  0  0  0  0  0  0  0  0  0  0  0
   -3.2436   -3.4538   -3.7743 H   0  0  0  0  0  0  0  0  0  0  0  0
   -1.8545    1.6690    0.0577 H   0  0  0  0  0  0  0  0  0  0  0  0
   -2.8260    0.2504    4.8890 H   0  0  0  0  0  0  0  0  0  0  0  0
   -2.6660   -1.5013    4.2776 H   0  0  0  0  0  0  0  0  0  0  0  0
   -4.2363   -0.7108    4.4548 H   0  0  0  0  0  0  0  0  0  0  0  0
  1  2  1  0
  2  3  1  0
  3  4  1  0
  4  5  1  0
  5  6  2  0
  5  7  1  0
  7  8  1  0
  8  9  1  0
  9 10  1  0
 10 11  1  0
 11 12  1  0
 12 13  1  0
 13 14  1  0
 14 15  2  0
 14 16  1  0
 16 17  1  0
 16 18  1  1
 18 19  1  0
 19 20  2  0
 19 21  1  0
 21 22  1  0
 22 23  1  0
 23 24  1  0
 23 25  1  0
 25 26  1  0
 26 27  2  0
 26 28  1  0
 28 29  2  0
 29 30  1  0
 30 31  2  0
 31 32  1  0
 32 33  2  0
 33 34  1  0
 34 35  1  0
 34 36  2  0
 36 37  1  0
 36 38  1  0
 16 39  1  0
 39 40  1  0
 39 41  1  0
 12 42  1  1
  2 43  1  0
 13  4  1  0
 27 21  1  0
 33 28  1  0
 11  7  1  0
 17 12  1  0
 35 25  1  0
 37 32  1  0
  1 44  1  0
  1 45  1  0
  1 46  1  0
  2 47  1  0
  3 48  1  0
  3 49  1  0
  4 50  1  6
  8 51  1  0
  8 52  1  0
  9 53  1  0
  9 54  1  0
 10 55  1  0
 10 56  1  0
 11 57  1  6
 18 58  1  0
 21 59  1  1
 22 60  1  0
 22 61  1  0
 24 62  1  0
 24 63  1  0
 24 64  1  0
 25 65  1  6
 27 66  1  0
 29 67  1  0
 30 68  1  0
 31 69  1  0
 35 70  1  0
 35 71  1  0
 37 72  1  0
 39 73  1  0
 40 74  1  0
 40 75  1  0
 40 76  1  0
 41 77  1  0
 41 78  1  0
 41 79  1  0
 42 80  1  0
 43 81  1  0
 43 82  1  0
 43 83  1  0
M  END
>  <Ligand ID>  (1) 
LIG0003453

>  <Ligand>  (1) 
bromocriptine

>  <SMILES>  (1) 
CC(C[C@H]1C(=O)N2CCC[C@H]2[C@]2(N1C(=O)[C@@](O2)(NC(=O)[C@H]1CN(C)[C@H]2C(=C1)c1cccc3c1c(C2)c([nH]3)Br)C(C)C)O)C

>  <CID>  (1) 
31101.0

>  <ChEMBL ID>  (1) 
nan

>  <InChiKey>  (1) 
OZVBMTJYIDMWIL-AYFBDAFISA-N

>  <InChi>  (1) 
InChI=1S/C32H40BrN5O5/c1-16(2)12-24-29(40)37-11-7-10-25(37)32(42)38(24)30(41)31(43-32,17(3)4)35-28(39)18-13-20-19-8-6-9-22-26(19)21(27(33)34-22)14-23(20)36(5)15-18/h6,8-9,13,16-18,23-25,34,42H,7,10-12,14-15H2,1-5H3,(H,35,39)/t18-,23-,24+,25+,31-,32+/m1/s1

>  <IUPAC Name>  (1) 
(6aR,9R)-5-bromo-N-[(1S,2S,4R,7S)-2-hydroxy-7-(2-methylpropyl)-5,8-dioxo-4-propan-2-yl-3-oxa-6,9-diazatricyclo[7.3.0.02,6]dodecan-4-yl]-7-methyl-6,6a,8,9-tetrahydro-4H-indolo[4,3-fg]quinoline-9-carboxamide

$$$$
