
     RDKit          3D

 26 27  0  0  0  0  0  0  0  0999 V2000
    4.9954   -0.1925   -0.2360 C   0  0  0  0  0  0  0  0  0  0  0  0
    3.5063   -0.1380   -0.1075 C   0  0  0  0  0  0  0  0  0  0  0  0
    2.8579   -0.7239    0.9614 C   0  0  0  0  0  0  0  0  0  0  0  0
    1.4715   -0.6495    1.0417 C   0  0  0  0  0  0  0  0  0  0  0  0
    0.7061   -0.0091    0.0904 C   0  0  0  0  0  0  0  0  0  0  0  0
    1.3833    0.5511   -0.9400 N   0  0  0  0  0  0  0  0  0  0  0  0
    2.7236    0.5007   -1.0533 C   0  0  0  0  0  0  0  0  0  0  0  0
   -0.7338    0.0933    0.1322 C   0  0  0  0  0  0  0  0  0  0  0  0
   -1.4882   -0.4500    1.1458 C   0  0  0  0  0  0  0  0  0  0  0  0
   -2.8758   -0.3527    1.1882 C   0  0  0  0  0  0  0  0  0  0  0  0
   -3.5102    0.3113    0.1785 C   0  0  0  0  0  0  0  0  0  0  0  0
   -2.7331    0.8469   -0.8256 C   0  0  0  0  0  0  0  0  0  0  0  0
   -1.4029    0.7424   -0.8477 N   0  0  0  0  0  0  0  0  0  0  0  0
   -4.9944    0.4354    0.1906 C   0  0  0  0  0  0  0  0  0  0  0  0
    5.4686    0.6751    0.2691 H   0  0  0  0  0  0  0  0  0  0  0  0
    5.4301   -1.1444    0.1205 H   0  0  0  0  0  0  0  0  0  0  0  0
    5.2497   -0.0966   -1.3076 H   0  0  0  0  0  0  0  0  0  0  0  0
    3.4680   -1.2189    1.6940 H   0  0  0  0  0  0  0  0  0  0  0  0
    0.9887   -1.1156    1.8871 H   0  0  0  0  0  0  0  0  0  0  0  0
    3.2259    0.9725   -1.9112 H   0  0  0  0  0  0  0  0  0  0  0  0
   -1.0342   -0.9831    1.9647 H   0  0  0  0  0  0  0  0  0  0  0  0
   -3.4667   -0.7788    1.9831 H   0  0  0  0  0  0  0  0  0  0  0  0
   -3.2015    1.3791   -1.6409 H   0  0  0  0  0  0  0  0  0  0  0  0
   -5.3507    0.9274    1.1167 H   0  0  0  0  0  0  0  0  0  0  0  0
   -5.2835    1.0184   -0.7082 H   0  0  0  0  0  0  0  0  0  0  0  0
   -5.4003   -0.6005    0.1205 H   0  0  0  0  0  0  0  0  0  0  0  0
  1  2  1  0
  2  3  2  0
  3  4  1  0
  4  5  2  0
  5  6  1  0
  6  7  2  0
  5  8  1  0
  8  9  2  0
  9 10  1  0
 10 11  2  0
 11 12  1  0
 12 13  2  0
 11 14  1  0
  7  2  1  0
 13  8  1  0
  1 15  1  0
  1 16  1  0
  1 17  1  0
  3 18  1  0
  4 19  1  0
  7 20  1  0
  9 21  1  0
 10 22  1  0
 12 23  1  0
 14 24  1  0
 14 25  1  0
 14 26  1  0
M  END
>  <Ligand ID>  (1) 
LIG0003906

>  <Ligand>  (1) 
5,5'-Dimethyl-2,2'-bipyridine

>  <SMILES>  (1) 
Cc1ccc(nc1)c1ccc(cn1)C

>  <CID>  (1) 
15664.0

>  <ChEMBL ID>  (1) 
nan

>  <InChiKey>  (1) 
PTRATZCAGVBFIQ-UHFFFAOYSA-N

>  <InChi>  (1) 
InChI=1S/C12H12N2/c1-9-3-5-11(13-7-9)12-6-4-10(2)8-14-12/h3-8H,1-2H3

>  <IUPAC Name>  (1) 
5-methyl-2-(5-methylpyridin-2-yl)pyridine

$$$$
