
     RDKit          3D

 44 44  0  0  0  0  0  0  0  0999 V2000
   -2.5741    0.3371    1.1423 C   0  0  0  0  0  0  0  0  0  0  0  0
   -2.7525    0.4876   -0.3268 C   0  0  0  0  0  0  0  0  0  0  0  0
   -2.5501   -0.7043   -1.1852 C   0  0  0  0  0  0  0  0  0  0  0  0
   -1.2751   -1.4558   -1.1453 C   0  0  0  0  0  0  0  0  0  0  0  0
   -1.0051   -2.2487    0.0863 C   0  0  0  0  0  0  0  0  0  0  0  0
    0.4079   -2.8737    0.0708 C   0  0  0  0  0  0  0  0  0  0  0  0
    1.3154   -1.6558   -0.0233 C   0  0  0  0  0  0  0  0  0  0  0  0
    2.7449   -1.8753    0.2756 C   0  0  0  0  0  0  0  0  0  0  0  0
    3.4948   -0.5623    0.1749 C   0  0  0  0  0  0  0  0  0  0  0  0
    2.8169    0.5769    0.9100 C   0  0  0  0  0  0  0  0  0  0  0  0
    1.7837    1.3039    0.1179 C   0  0  0  0  0  0  0  0  0  0  0  0
    0.8565    2.1929    0.9336 C   0  0  0  0  0  0  0  0  0  0  0  0
   -0.1175    2.9562    0.1002 C   0  0  0  0  0  0  0  0  0  0  0  0
   -0.9141    2.1921   -0.8724 C   0  0  0  0  0  0  0  0  0  0  0  0
   -0.2520    1.8319   -1.8905 O   0  0  0  0  0  0  0  0  0  0  0  0
   -2.2975    1.7973   -0.8650 C   0  0  0  0  0  0  0  0  0  0  0  0
   -3.1145   -0.5823    1.4760 H   0  0  0  0  0  0  0  0  0  0  0  0
   -1.5800    0.4544    1.5497 H   0  0  0  0  0  0  0  0  0  0  0  0
   -3.2403    1.1649    1.5940 H   0  0  0  0  0  0  0  0  0  0  0  0
   -3.9280    0.6161   -0.4025 H   0  0  0  0  0  0  0  0  0  0  0  0
   -3.3744   -1.4497   -0.9390 H   0  0  0  0  0  0  0  0  0  0  0  0
   -2.7992   -0.3756   -2.2321 H   0  0  0  0  0  0  0  0  0  0  0  0
   -0.4731   -0.7382   -1.3938 H   0  0  0  0  0  0  0  0  0  0  0  0
   -1.3519   -2.2379   -1.9763 H   0  0  0  0  0  0  0  0  0  0  0  0
   -1.7486   -3.0916    0.1220 H   0  0  0  0  0  0  0  0  0  0  0  0
   -1.1172   -1.6677    0.9949 H   0  0  0  0  0  0  0  0  0  0  0  0
    0.5478   -3.5703   -0.7530 H   0  0  0  0  0  0  0  0  0  0  0  0
    0.5592   -3.4121    1.0262 H   0  0  0  0  0  0  0  0  0  0  0  0
    1.2866   -1.3970   -1.1121 H   0  0  0  0  0  0  0  0  0  0  0  0
    0.9066   -0.9434    0.6797 H   0  0  0  0  0  0  0  0  0  0  0  0
    2.9336   -2.2943    1.2869 H   0  0  0  0  0  0  0  0  0  0  0  0
    3.2118   -2.5594   -0.4631 H   0  0  0  0  0  0  0  0  0  0  0  0
    3.5616   -0.3473   -0.9208 H   0  0  0  0  0  0  0  0  0  0  0  0
    4.5358   -0.7158    0.5209 H   0  0  0  0  0  0  0  0  0  0  0  0
    2.3886    0.2251    1.8872 H   0  0  0  0  0  0  0  0  0  0  0  0
    3.6529    1.2587    1.2272 H   0  0  0  0  0  0  0  0  0  0  0  0
    1.3107    0.7787   -0.6945 H   0  0  0  0  0  0  0  0  0  0  0  0
    2.4006    2.1175   -0.4660 H   0  0  0  0  0  0  0  0  0  0  0  0
    1.5624    2.9270    1.4559 H   0  0  0  0  0  0  0  0  0  0  0  0
    0.3474    1.6960    1.7494 H   0  0  0  0  0  0  0  0  0  0  0  0
   -0.8793    3.4331    0.7923 H   0  0  0  0  0  0  0  0  0  0  0  0
    0.3636    3.8649   -0.3746 H   0  0  0  0  0  0  0  0  0  0  0  0
   -2.8632    2.5797   -0.2485 H   0  0  0  0  0  0  0  0  0  0  0  0
   -2.7816    1.9666   -1.8889 H   0  0  0  0  0  0  0  0  0  0  0  0
  1  2  1  0
  2  3  1  0
  3  4  1  0
  4  5  1  0
  5  6  1  0
  6  7  1  0
  7  8  1  0
  8  9  1  0
  9 10  1  0
 10 11  1  0
 11 12  1  0
 12 13  1  0
 13 14  1  0
 14 15  2  0
 14 16  1  0
 16  2  1  0
  1 17  1  0
  1 18  1  0
  1 19  1  0
  2 20  1  0
  3 21  1  0
  3 22  1  0
  4 23  1  0
  4 24  1  0
  5 25  1  0
  5 26  1  0
  6 27  1  0
  6 28  1  0
  7 29  1  0
  7 30  1  0
  8 31  1  0
  8 32  1  0
  9 33  1  0
  9 34  1  0
 10 35  1  0
 10 36  1  0
 11 37  1  0
 11 38  1  0
 12 39  1  0
 12 40  1  0
 13 41  1  0
 13 42  1  0
 16 43  1  0
 16 44  1  0
M  END
>  <Ligand ID>  (1) 
LIG0000457

>  <Ligand>  (1) 
3-methylcyclotetradecan-1-one

>  <SMILES>  (1) 
CC1CCCCCCCCCCCC(=O)C1

>  <CID>  (1) 
11253089.0

>  <ChEMBL ID>  (1) 
nan

>  <InChiKey>  (1) 
VPQWBNWSLZYYFH-UHFFFAOYSA-N

>  <InChi>  (1) 
InChI=1S/C15H28O/c1-14-11-9-7-5-3-2-4-6-8-10-12-15(16)13-14/h14H,2-13H2,1H3

>  <IUPAC Name>  (1) 
3-methylcyclotetradecan-1-one

$$$$
