
     RDKit          3D

 49 53  0  0  0  0  0  0  0  0999 V2000
   -8.1606   -0.0009    0.8200 C   0  0  0  0  0  0  0  0  0  0  0  0
   -7.2926    1.2442    0.7926 C   0  0  0  0  0  0  0  0  0  0  0  0
   -5.9173    0.7916    0.9902 N   0  0  0  0  0  0  0  0  0  0  0  0
   -5.2738    0.6464    2.1564 N   0  0  0  0  0  0  0  0  0  0  0  0
   -4.0323    0.2129    1.9321 N   0  0  0  0  0  0  0  0  0  0  0  0
   -3.8778    0.0796    0.6240 C   0  0  0  0  0  0  0  0  0  0  0  0
   -5.0649    0.4462    0.0652 N   0  0  0  0  0  0  0  0  0  0  0  0
   -2.7212   -0.3598   -0.1604 C   0  0  1  0  0  0  0  0  0  0  0  0
   -1.5072    0.2291    0.2635 O   0  0  0  0  0  0  0  0  0  0  0  0
   -0.6614   -0.3858   -0.6878 C   0  0  2  0  0  0  0  0  0  0  0  0
   -0.9883   -1.8568   -0.6254 C   0  0  1  0  0  0  0  0  0  0  0  0
   -2.3613   -1.8251    0.0526 C   0  0  2  0  0  0  0  0  0  0  0  0
   -3.2677   -2.6773   -0.5264 O   0  0  0  0  0  0  0  0  0  0  0  0
   -1.0821   -2.4135   -1.9156 O   0  0  0  0  0  0  0  0  0  0  0  0
    0.7189   -0.0706   -0.5173 N   0  0  0  0  0  0  0  0  0  0  0  0
    1.6130   -0.8046    0.1704 C   0  0  0  0  0  0  0  0  0  0  0  0
    2.8008   -0.1776    0.0984 N   0  0  0  0  0  0  0  0  0  0  0  0
    2.6957    0.9309   -0.6114 C   0  0  0  0  0  0  0  0  0  0  0  0
    1.3571    1.0102   -1.0135 C   0  0  0  0  0  0  0  0  0  0  0  0
    0.9122    2.0222   -1.7483 N   0  0  0  0  0  0  0  0  0  0  0  0
    1.7956    2.9901   -2.1048 C   0  0  0  0  0  0  0  0  0  0  0  0
    3.0863    2.9262   -1.7246 N   0  0  0  0  0  0  0  0  0  0  0  0
    3.5866    1.9187   -0.9783 C   0  0  0  0  0  0  0  0  0  0  0  0
    4.9585    1.9050   -0.6181 N   0  0  0  0  0  0  0  0  0  0  0  0
    5.6076    0.8627    0.0652 C   0  0  0  0  0  0  0  0  0  0  0  0
    6.1852    1.0375    1.3067 C   0  0  0  0  0  0  0  0  0  0  0  0
    6.8368    0.0506    1.9962 C   0  0  0  0  0  0  0  0  0  0  0  0
    6.9314   -1.2100    1.4254 C   0  0  0  0  0  0  0  0  0  0  0  0
    6.3631   -1.4113    0.1856 C   0  0  0  0  0  0  0  0  0  0  0  0
    5.7122   -0.4076   -0.4929 C   0  0  0  0  0  0  0  0  0  0  0  0
    5.2025   -0.7124   -1.7102 F   0  0  0  0  0  0  0  0  0  0  0  0
    7.7394   -2.5428    2.2164 Cl  0  0  0  0  0  0  0  0  0  0  0  0
   -7.6342   -0.7696    0.1970 H   0  0  0  0  0  0  0  0  0  0  0  0
   -8.1193   -0.3892    1.8586 H   0  0  0  0  0  0  0  0  0  0  0  0
   -9.1794    0.1956    0.4599 H   0  0  0  0  0  0  0  0  0  0  0  0
   -7.5843    1.9883    1.5576 H   0  0  0  0  0  0  0  0  0  0  0  0
   -7.3304    1.6802   -0.2328 H   0  0  0  0  0  0  0  0  0  0  0  0
   -2.7953   -0.1204   -1.2270 H   0  0  0  0  0  0  0  0  0  0  0  0
   -1.0738   -0.0363   -1.6743 H   0  0  0  0  0  0  0  0  0  0  0  0
   -0.2764   -2.4536   -0.0443 H   0  0  0  0  0  0  0  0  0  0  0  0
   -2.2016   -1.9714    1.1359 H   0  0  0  0  0  0  0  0  0  0  0  0
   -2.8804   -3.5881   -0.4740 H   0  0  0  0  0  0  0  0  0  0  0  0
   -1.1886   -1.6402   -2.5268 H   0  0  0  0  0  0  0  0  0  0  0  0
    1.4794   -1.7336    0.7067 H   0  0  0  0  0  0  0  0  0  0  0  0
    1.4882    3.8492   -2.7096 H   0  0  0  0  0  0  0  0  0  0  0  0
    5.5451    2.7390   -0.8794 H   0  0  0  0  0  0  0  0  0  0  0  0
    6.1264    2.0257    1.7845 H   0  0  0  0  0  0  0  0  0  0  0  0
    7.2899    0.1823    2.9667 H   0  0  0  0  0  0  0  0  0  0  0  0
    6.4403   -2.4060   -0.2596 H   0  0  0  0  0  0  0  0  0  0  0  0
  1  2  1  0
  2  3  1  0
  3  4  1  0
  4  5  2  0
  5  6  1  0
  6  7  2  0
  6  8  1  0
  8  9  1  0
  9 10  1  0
 10 11  1  0
 11 12  1  0
 12 13  1  0
 11 14  1  0
 10 15  1  0
 15 16  1  0
 16 17  2  0
 17 18  1  0
 18 19  2  0
 19 20  1  0
 20 21  2  0
 21 22  1  0
 22 23  2  0
 23 24  1  0
 24 25  1  0
 25 26  2  0
 26 27  1  0
 27 28  2  0
 28 29  1  0
 29 30  2  0
 30 31  1  0
 28 32  1  0
  7  3  1  0
 12  8  1  0
 19 15  1  0
 30 25  1  0
 23 18  1  0
  1 33  1  0
  1 34  1  0
  1 35  1  0
  2 36  1  0
  2 37  1  0
  8 38  1  6
 10 39  1  6
 11 40  1  1
 12 41  1  1
 13 42  1  0
 14 43  1  0
 16 44  1  0
 21 45  1  0
 24 46  1  0
 26 47  1  0
 27 48  1  0
 29 49  1  0
M  END
>  <Ligand ID>  (1) 
LIG0001927

>  <Ligand>  (1) 
CHEMBL3414946

>  <SMILES>  (1) 
CCn1nnc(n1)[C@H]1O[C@H]([C@@H]([C@@H]1O)O)n1cnc2c1ncnc2Nc1ccc(cc1F)Cl

>  <CID>  (1) 
118732980.0

>  <ChEMBL ID>  (1) 
nan

>  <InChiKey>  (1) 
SLEKQRJDUVSCPY-MOROJQBDSA-N

>  <InChi>  (1) 
InChI=1S/C18H17ClFN9O3/c1-2-29-26-16(25-27-29)14-12(30)13(31)18(32-14)28-7-23-11-15(21-6-22-17(11)28)24-10-4-3-8(19)5-9(10)20/h3-7,12-14,18,30-31H,2H2,1H3,(H,21,22,24)/t12-,13+,14-,18+/m0/s1

>  <IUPAC Name>  (1) 
(2R,3R,4S,5R)-2-[6-(4-chloro-2-fluoroanilino)purin-9-yl]-5-(2-ethyltetrazol-5-yl)oxolane-3,4-diol

$$$$
