
     RDKit          3D

 27 29  0  0  0  0  0  0  0  0999 V2000
    0.9725    2.1091    2.3715 Br  0  0  0  0  0  0  0  0  0  0  0  0
    1.2334    0.9067    0.8943 C   0  0  0  0  0  0  0  0  0  0  0  0
    0.1224    0.3563    0.2500 C   0  0  0  0  0  0  0  0  0  0  0  0
    0.4066   -0.4937   -0.7966 C   0  0  0  0  0  0  0  0  0  0  0  0
    1.6928   -0.7968   -1.2007 C   0  0  0  0  0  0  0  0  0  0  0  0
    2.7745   -0.2403   -0.5482 C   0  0  0  0  0  0  0  0  0  0  0  0
    2.5242    0.6158    0.5052 C   0  0  0  0  0  0  0  0  0  0  0  0
    3.5588    1.1842    1.1736 N   0  0  0  0  0  0  0  0  0  0  0  0
    4.8393    0.9081    0.8028 C   0  0  0  0  0  0  0  0  0  0  0  0
    5.1131    0.0479   -0.2562 C   0  0  0  0  0  0  0  0  0  0  0  0
    4.0507   -0.4885   -0.8847 N   0  0  0  0  0  0  0  0  0  0  0  0
   -1.1863    0.6754    0.6801 N   0  0  0  0  0  0  0  0  0  0  0  0
   -2.3709    0.1878    0.0804 C   0  0  0  0  0  0  0  0  0  0  0  0
   -2.4927    0.0613   -1.2066 N   0  0  0  0  0  0  0  0  0  0  0  0
   -3.8079   -0.4584   -1.5252 C   0  0  0  0  0  0  0  0  0  0  0  0
   -4.3369   -0.9721   -0.2123 C   0  0  0  0  0  0  0  0  0  0  0  0
   -3.5409   -0.2131    0.7504 N   0  0  0  0  0  0  0  0  0  0  0  0
   -0.3913   -0.9651   -1.3485 H   0  0  0  0  0  0  0  0  0  0  0  0
    1.9139   -1.4669   -2.0258 H   0  0  0  0  0  0  0  0  0  0  0  0
    5.6169    1.3941    1.3770 H   0  0  0  0  0  0  0  0  0  0  0  0
    6.1376   -0.1569   -0.5332 H   0  0  0  0  0  0  0  0  0  0  0  0
   -1.2826    1.3269    1.5155 H   0  0  0  0  0  0  0  0  0  0  0  0
   -3.7631   -1.2580   -2.2935 H   0  0  0  0  0  0  0  0  0  0  0  0
   -4.4178    0.4108   -1.8890 H   0  0  0  0  0  0  0  0  0  0  0  0
   -4.1943   -2.0406   -0.0465 H   0  0  0  0  0  0  0  0  0  0  0  0
   -5.3896   -0.6373   -0.1019 H   0  0  0  0  0  0  0  0  0  0  0  0
   -3.7822    0.0034    1.7605 H   0  0  0  0  0  0  0  0  0  0  0  0
  1  2  1  0
  2  3  2  0
  3  4  1  0
  4  5  2  0
  5  6  1  0
  6  7  2  0
  7  8  1  0
  8  9  2  0
  9 10  1  0
 10 11  2  0
  3 12  1  0
 12 13  1  0
 13 14  2  0
 14 15  1  0
 15 16  1  0
 16 17  1  0
  7  2  1  0
 17 13  1  0
 11  6  1  0
  4 18  1  0
  5 19  1  0
  9 20  1  0
 10 21  1  0
 12 22  1  0
 15 23  1  0
 15 24  1  0
 16 25  1  0
 16 26  1  0
 17 27  1  0
M  END
>  <Ligand ID>  (1) 
LIG0000879

>  <Ligand>  (1) 
brimonidine (UK14304)

>  <SMILES>  (1) 
Brc1c(ccc2c1nccn2)NC1=NCCN1

>  <CID>  (1) 
2435.0

>  <ChEMBL ID>  (1) 
nan

>  <InChiKey>  (1) 
XYLJNLCSTIOKRM-UHFFFAOYSA-N

>  <InChi>  (1) 
InChI=1S/C11H10BrN5/c12-9-7(17-11-15-5-6-16-11)1-2-8-10(9)14-4-3-13-8/h1-4H,5-6H2,(H2,15,16,17)

>  <IUPAC Name>  (1) 
5-bromo-N-(4,5-dihydro-1H-imidazol-2-yl)quinoxalin-6-amine

$$$$
