
     RDKit          3D

 16 15  0  0  0  0  0  0  0  0999 V2000
    1.8516    0.7128    0.1907 C   0  0  0  0  0  0  0  0  0  0  0  0
    1.1978   -0.4861   -0.4294 C   0  0  0  0  0  0  0  0  0  0  0  0
   -0.1814   -0.7594    0.1114 C   0  0  0  0  0  0  0  0  0  0  0  0
   -1.1286    0.4001   -0.1222 C   0  0  0  0  0  0  0  0  0  0  0  0
   -2.3876   -0.0318    0.4533 N   0  0  0  0  0  0  0  0  0  0  0  0
    1.8781    1.5517   -0.5374 H   0  0  0  0  0  0  0  0  0  0  0  0
    2.9366    0.4862    0.4057 H   0  0  0  0  0  0  0  0  0  0  0  0
    1.4080    0.9885    1.1724 H   0  0  0  0  0  0  0  0  0  0  0  0
    1.8043   -1.3936   -0.2187 H   0  0  0  0  0  0  0  0  0  0  0  0
    1.0678   -0.3061   -1.5334 H   0  0  0  0  0  0  0  0  0  0  0  0
   -0.1878   -1.0192    1.1801 H   0  0  0  0  0  0  0  0  0  0  0  0
   -0.5950   -1.6054   -0.4920 H   0  0  0  0  0  0  0  0  0  0  0  0
   -0.7303    1.2671    0.4196 H   0  0  0  0  0  0  0  0  0  0  0  0
   -1.1956    0.6069   -1.2010 H   0  0  0  0  0  0  0  0  0  0  0  0
   -3.1714    0.6115    0.3353 H   0  0  0  0  0  0  0  0  0  0  0  0
   -2.5662   -1.0231    0.2655 H   0  0  0  0  0  0  0  0  0  0  0  0
  1  2  1  0
  2  3  1  0
  3  4  1  0
  4  5  1  0
  1  6  1  0
  1  7  1  0
  1  8  1  0
  2  9  1  0
  2 10  1  0
  3 11  1  0
  3 12  1  0
  4 13  1  0
  4 14  1  0
  5 15  1  0
  5 16  1  0
M  END
>  <Ligand ID>  (1) 
LIG0000628

>  <Ligand>  (1) 
Butylamine

>  <SMILES>  (1) 
CCCCN

>  <CID>  (1) 
8007.0

>  <ChEMBL ID>  (1) 
nan

>  <InChiKey>  (1) 
HQABUPZFAYXKJW-UHFFFAOYSA-N

>  <InChi>  (1) 
InChI=1S/C4H11N/c1-2-3-4-5/h2-5H2,1H3

>  <IUPAC Name>  (1) 
butan-1-amine

$$$$
