
     RDKit          3D

 36 39  0  0  0  0  0  0  0  0999 V2000
    4.9872    1.7691   -1.1829 C   0  0  0  0  0  0  0  0  0  0  0  0
    4.2146    0.6000   -0.8013 N   0  0  0  0  0  0  0  0  0  0  0  0
    4.6393   -0.6764   -0.7287 C   0  0  0  0  0  0  0  0  0  0  0  0
    3.5651   -1.4496   -0.3235 C   0  0  0  0  0  0  0  0  0  0  0  0
    2.4963   -0.5905   -0.1599 C   0  0  0  0  0  0  0  0  0  0  0  0
    2.9357    0.6530   -0.4621 N   0  0  0  0  0  0  0  0  0  0  0  0
    1.1548   -0.9996    0.2643 C   0  0  0  0  0  0  0  0  0  0  0  0
    0.8696   -2.3245    0.5367 C   0  0  0  0  0  0  0  0  0  0  0  0
   -0.3939   -2.7180    0.9374 C   0  0  0  0  0  0  0  0  0  0  0  0
   -1.3606   -1.7354    1.0551 C   0  0  0  0  0  0  0  0  0  0  0  0
   -1.0976   -0.4044    0.7879 C   0  0  0  0  0  0  0  0  0  0  0  0
    0.1682   -0.0308    0.3894 C   0  0  0  0  0  0  0  0  0  0  0  0
    0.2088    1.4567    0.1591 C   0  0  0  0  0  0  0  0  0  0  0  0
   -1.2827    1.7773    0.0123 C   0  0  0  0  0  0  0  0  0  0  0  0
   -2.0004    0.7735    0.8599 C   0  0  0  0  0  0  0  0  0  0  0  0
   -3.3799    0.4883    0.4182 C   0  0  0  0  0  0  0  0  0  0  0  0
   -4.3434    0.0624    1.2827 N   0  0  0  0  0  0  0  0  0  0  0  0
   -5.4776   -0.1067    0.5809 C   0  0  0  0  0  0  0  0  0  0  0  0
   -5.2300    0.2171   -0.7502 C   0  0  0  0  0  0  0  0  0  0  0  0
   -3.9349    0.5716   -0.7845 N   0  0  0  0  0  0  0  0  0  0  0  0
    5.8331    1.4515   -1.8173 H   0  0  0  0  0  0  0  0  0  0  0  0
    4.3540    2.4240   -1.8367 H   0  0  0  0  0  0  0  0  0  0  0  0
    5.3556    2.3477   -0.3210 H   0  0  0  0  0  0  0  0  0  0  0  0
    5.6514   -1.0236   -0.9522 H   0  0  0  0  0  0  0  0  0  0  0  0
    3.5770   -2.5340   -0.1671 H   0  0  0  0  0  0  0  0  0  0  0  0
    1.6372   -3.1041    0.4431 H   0  0  0  0  0  0  0  0  0  0  0  0
   -0.6433   -3.7305    1.1541 H   0  0  0  0  0  0  0  0  0  0  0  0
   -2.3591   -2.0583    1.3736 H   0  0  0  0  0  0  0  0  0  0  0  0
    0.7600    1.5996   -0.7935 H   0  0  0  0  0  0  0  0  0  0  0  0
    0.6510    1.9833    1.0085 H   0  0  0  0  0  0  0  0  0  0  0  0
   -1.4276    2.8073    0.3823 H   0  0  0  0  0  0  0  0  0  0  0  0
   -1.5497    1.7312   -1.0639 H   0  0  0  0  0  0  0  0  0  0  0  0
   -2.0023    1.1402    1.9111 H   0  0  0  0  0  0  0  0  0  0  0  0
   -4.2145   -0.1038    2.3217 H   0  0  0  0  0  0  0  0  0  0  0  0
   -6.4029   -0.4421    1.0303 H   0  0  0  0  0  0  0  0  0  0  0  0
   -5.9585    0.1786   -1.5638 H   0  0  0  0  0  0  0  0  0  0  0  0
  1  2  1  0
  2  3  1  0
  3  4  2  0
  4  5  1  0
  5  6  2  0
  5  7  1  0
  7  8  2  0
  8  9  1  0
  9 10  2  0
 10 11  1  0
 11 12  2  0
 12 13  1  0
 13 14  1  0
 14 15  1  0
 15 16  1  0
 16 17  1  0
 17 18  1  0
 18 19  2  0
 19 20  1  0
  6  2  1  0
 12  7  1  0
 20 16  2  0
 15 11  1  0
  1 21  1  0
  1 22  1  0
  1 23  1  0
  3 24  1  0
  4 25  1  0
  8 26  1  0
  9 27  1  0
 10 28  1  0
 13 29  1  0
 13 30  1  0
 14 31  1  0
 14 32  1  0
 15 33  1  0
 17 34  1  0
 18 35  1  0
 19 36  1  0
M  END
>  <Ligand ID>  (1) 
LIG0001971

>  <Ligand>  (1) 
CHEMBL260789

>  <SMILES>  (1) 
Cn1ccc(n1)c1cccc2c1CCC2c1[nH]ccn1

>  <CID>  (1) 
44449694.0

>  <ChEMBL ID>  (1) 
nan

>  <InChiKey>  (1) 
RDVMPVYUEVZOKC-UHFFFAOYSA-N

>  <InChi>  (1) 
InChI=1S/C16H16N4/c1-20-10-7-15(19-20)13-4-2-3-11-12(13)5-6-14(11)16-17-8-9-18-16/h2-4,7-10,14H,5-6H2,1H3,(H,17,18)

>  <IUPAC Name>  (1) 
3-[1-(1H-imidazol-2-yl)-2,3-dihydro-1H-inden-4-yl]-1-methylpyrazole

$$$$
