
     RDKit          3D

  6  5  0  0  0  0  0  0  0  0999 V2000
   -0.5594   -0.0268   -0.0151 C   0  0  0  0  0  0  0  0  0  0  0  0
    1.1657   -0.6101   -0.1170 S   0  0  0  0  0  0  0  0  0  0  0  0
   -0.6783    0.9779   -0.4868 H   0  0  0  0  0  0  0  0  0  0  0  0
   -1.1585   -0.8013   -0.5486 H   0  0  0  0  0  0  0  0  0  0  0  0
   -0.8391    0.0365    1.0640 H   0  0  0  0  0  0  0  0  0  0  0  0
    2.0696    0.4237    0.1035 H   0  0  0  0  0  0  0  0  0  0  0  0
  1  2  1  0
  1  3  1  0
  1  4  1  0
  1  5  1  0
  2  6  1  0
M  END
>  <Ligand ID>  (1) 
LIG0000050

>  <Ligand>  (1) 
methanethiol

>  <SMILES>  (1) 
CS

>  <CID>  (1) 
878.0

>  <ChEMBL ID>  (1) 
nan

>  <InChiKey>  (1) 
LSDPWZHWYPCBBB-UHFFFAOYSA-N

>  <InChi>  (1) 
InChI=1S/CH4S/c1-2/h2H,1H3

>  <IUPAC Name>  (1) 
methanethiol

$$$$
