
     RDKit          3D

 60 65  0  0  0  0  0  0  0  0999 V2000
    4.8282    2.4304   -0.2267 C   0  0  0  0  0  0  0  0  0  0  0  0
    3.6635    1.7026   -0.8531 C   0  0  0  0  0  0  0  0  0  0  0  0
    3.5305    0.3874   -0.3986 O   0  0  0  0  0  0  0  0  0  0  0  0
    2.4355   -0.2410   -0.9941 C   0  0  2  0  0  0  0  0  0  0  0  0
    1.5352   -0.7473    0.0793 C   0  0  2  0  0  0  0  0  0  0  0  0
    0.3023   -1.4423   -0.4389 C   0  0  0  0  0  0  0  0  0  0  0  0
   -0.7908   -1.2513    0.5887 C   0  0  0  0  0  0  0  0  0  0  0  0
   -0.2799   -1.5135    1.9482 C   0  0  0  0  0  0  0  0  0  0  0  0
    0.7436   -0.6704    2.2985 C   0  0  0  0  0  0  0  0  0  0  0  0
    1.1955    0.2523    1.1568 C   0  0  1  0  0  0  0  0  0  0  0  0
    2.3041    0.9474    1.6009 O   0  0  0  0  0  0  0  0  0  0  0  0
    2.0796    1.8756    2.5809 C   0  0  0  0  0  0  0  0  0  0  0  0
    0.0010    1.0822    0.8692 C   0  0  2  0  0  0  0  0  0  0  0  0
   -1.1911    0.1995    0.5833 C   0  0  0  0  0  0  0  0  0  0  0  0
   -2.3255    0.4691    1.4791 C   0  0  0  0  0  0  0  0  0  0  0  0
   -3.3251   -0.5912    1.6418 C   0  0  0  0  0  0  0  0  0  0  0  0
   -2.8593   -1.9217    1.4570 N   0  0  0  0  0  0  0  0  0  0  0  0
   -2.0232   -2.0503    0.2700 C   0  0  0  0  0  0  0  0  0  0  0  0
   -2.8478   -1.4933   -0.8783 C   0  0  0  0  0  0  0  0  0  0  0  0
   -2.2596   -0.3154   -1.5437 C   0  0  0  0  0  0  0  0  0  0  0  0
   -1.4025    0.4687   -0.8530 C   0  0  0  0  0  0  0  0  0  0  0  0
   -0.6954    1.5463   -1.2816 C   0  0  0  0  0  0  0  0  0  0  0  0
    0.0521    1.9944   -0.2059 O   0  0  0  0  0  0  0  0  0  0  0  0
   -0.8927    1.8890   -2.6169 C   0  0  0  0  0  0  0  0  0  0  0  0
   -0.2064    2.9804   -3.1222 O   0  0  0  0  0  0  0  0  0  0  0  0
   -1.7694    1.1284   -3.4003 C   0  0  0  0  0  0  0  0  0  0  0  0
   -2.4580    0.0245   -2.8777 C   0  0  0  0  0  0  0  0  0  0  0  0
   -3.8713   -2.9190    1.5365 C   0  0  0  0  0  0  0  0  0  0  0  0
    2.9929   -1.3831   -1.8336 C   0  0  0  0  0  0  0  0  0  0  0  0
    4.6596    3.5070   -0.1353 H   0  0  0  0  0  0  0  0  0  0  0  0
    5.0298    2.0550    0.8177 H   0  0  0  0  0  0  0  0  0  0  0  0
    5.7789    2.2715   -0.7876 H   0  0  0  0  0  0  0  0  0  0  0  0
    3.8864    1.7097   -1.9637 H   0  0  0  0  0  0  0  0  0  0  0  0
    2.7373    2.2694   -0.7283 H   0  0  0  0  0  0  0  0  0  0  0  0
    1.9482    0.5030   -1.6482 H   0  0  0  0  0  0  0  0  0  0  0  0
    2.1263   -1.5861    0.5886 H   0  0  0  0  0  0  0  0  0  0  0  0
    0.4928   -2.5378   -0.5965 H   0  0  0  0  0  0  0  0  0  0  0  0
    0.0676   -1.0512   -1.4314 H   0  0  0  0  0  0  0  0  0  0  0  0
   -0.6388   -2.2633    2.6128 H   0  0  0  0  0  0  0  0  0  0  0  0
    1.1836   -0.6522    3.2600 H   0  0  0  0  0  0  0  0  0  0  0  0
    3.0869    2.3292    2.8063 H   0  0  0  0  0  0  0  0  0  0  0  0
    1.4558    2.7396    2.2889 H   0  0  0  0  0  0  0  0  0  0  0  0
    1.7676    1.4476    3.5621 H   0  0  0  0  0  0  0  0  0  0  0  0
   -0.2290    1.7173    1.7628 H   0  0  0  0  0  0  0  0  0  0  0  0
   -2.8642    1.3989    1.1049 H   0  0  0  0  0  0  0  0  0  0  0  0
   -1.9348    0.8104    2.4765 H   0  0  0  0  0  0  0  0  0  0  0  0
   -4.2254   -0.3536    1.0033 H   0  0  0  0  0  0  0  0  0  0  0  0
   -3.6893   -0.5711    2.7325 H   0  0  0  0  0  0  0  0  0  0  0  0
   -1.7793   -3.0988    0.1000 H   0  0  0  0  0  0  0  0  0  0  0  0
   -2.8130   -2.3043   -1.6805 H   0  0  0  0  0  0  0  0  0  0  0  0
   -3.9210   -1.3924   -0.6516 H   0  0  0  0  0  0  0  0  0  0  0  0
   -0.5874    3.9041   -2.8649 H   0  0  0  0  0  0  0  0  0  0  0  0
   -1.9226    1.4041   -4.4550 H   0  0  0  0  0  0  0  0  0  0  0  0
   -3.1310   -0.5694   -3.4617 H   0  0  0  0  0  0  0  0  0  0  0  0
   -3.9385   -3.5996    0.6797 H   0  0  0  0  0  0  0  0  0  0  0  0
   -4.8459   -2.4863    1.8619 H   0  0  0  0  0  0  0  0  0  0  0  0
   -3.5804   -3.5931    2.3956 H   0  0  0  0  0  0  0  0  0  0  0  0
    3.6222   -2.0530   -1.2450 H   0  0  0  0  0  0  0  0  0  0  0  0
    2.1432   -1.8574   -2.3533 H   0  0  0  0  0  0  0  0  0  0  0  0
    3.6483   -0.9356   -2.6163 H   0  0  0  0  0  0  0  0  0  0  0  0
  1  2  1  0
  2  3  1  0
  3  4  1  0
  4  5  1  0
  5  6  1  0
  6  7  1  0
  7  8  1  0
  8  9  2  0
  9 10  1  0
 10 11  1  1
 11 12  1  0
 10 13  1  0
 13 14  1  0
 14 15  1  0
 15 16  1  0
 16 17  1  0
 17 18  1  0
 18 19  1  0
 19 20  1  0
 20 21  1  0
 21 22  2  0
 22 23  1  0
 22 24  1  0
 24 25  1  0
 24 26  2  0
 26 27  1  0
 17 28  1  0
  4 29  1  0
 10  5  1  0
 23 13  1  0
 18  7  1  0
 27 20  2  0
 14  7  1  0
 21 14  1  0
  1 30  1  0
  1 31  1  0
  1 32  1  0
  2 33  1  0
  2 34  1  0
  4 35  1  6
  5 36  1  1
  6 37  1  0
  6 38  1  0
  8 39  1  0
  9 40  1  0
 12 41  1  0
 12 42  1  0
 12 43  1  0
 13 44  1  1
 15 45  1  0
 15 46  1  0
 16 47  1  0
 16 48  1  0
 18 49  1  0
 19 50  1  0
 19 51  1  0
 25 52  1  0
 26 53  1  0
 27 54  1  0
 28 55  1  0
 28 56  1  0
 28 57  1  0
 29 58  1  0
 29 59  1  0
 29 60  1  0
M  END
>  <Ligand ID>  (1) 
LIG0004424

>  <Ligand>  (1) 
CHEMBL1169584

>  <SMILES>  (1) 
CCO[C@H]([C@@H]1CC23C=C[C@]1(OC)[C@@H]1C43CCN(C2Cc2c4c(O1)c(O)cc2)C)C

>  <CID>  (1) 
49799968.0

>  <ChEMBL ID>  (1) 
nan

>  <InChiKey>  (1) 
YLGFGFSODXCCQV-RQHHNQSQSA-N

>  <InChi>  (1) 
InChI=1S/C24H31NO4/c1-5-28-14(2)16-13-22-8-9-24(16,27-4)21-23(22)10-11-25(3)18(22)12-15-6-7-17(26)20(29-21)19(15)23/h6-9,14,16,18,21,26H,5,10-13H2,1-4H3/t14-,16-,18?,21-,22?,23?,24+/m0/s1

>  <IUPAC Name>  (1) 
(14S,15R,19S)-19-[(1S)-1-ethoxyethyl]-15-methoxy-5-methyl-13-oxa-5-azahexacyclo[13.2.2.12,8.01,6.02,14.012,20]icosa-8(20),9,11,16-tetraen-11-ol

$$$$
