
     RDKit          3D

139141  0  0  0  0  0  0  0  0999 V2000
  -10.9229   -0.2213   -0.9610 C   0  0  0  0  0  0  0  0  0  0  0  0
  -10.7098   -1.3853   -0.0298 C   0  0  0  0  0  0  0  0  0  0  0  0
   -9.8199   -1.1659    1.1275 C   0  0  1  0  0  0  0  0  0  0  0  0
   -8.4233   -0.8125    0.9538 C   0  0  2  0  0  0  0  0  0  0  0  0
   -8.0525    0.3981    0.2570 N   0  0  0  0  0  0  0  0  0  0  0  0
   -6.9798    1.1943    0.6871 C   0  0  0  0  0  0  0  0  0  0  0  0
   -6.3630    0.7119    1.7011 O   0  0  0  0  0  0  0  0  0  0  0  0
   -6.4359    2.4584    0.1759 C   0  0  1  0  0  0  0  0  0  0  0  0
   -5.0315    2.4405    0.5564 N   0  0  0  0  0  0  0  0  0  0  0  0
   -4.4917    3.0687    1.7042 C   0  0  0  0  0  0  0  0  0  0  0  0
   -5.3112    3.7080    2.3888 O   0  0  0  0  0  0  0  0  0  0  0  0
   -3.0307    2.9706    2.0736 C   0  0  1  0  0  0  0  0  0  0  0  0
   -2.8236    3.5921    3.3413 N   0  0  0  0  0  0  0  0  0  0  0  0
   -2.7071    1.5181    1.9928 C   0  0  0  0  0  0  0  0  0  0  0  0
   -1.0923    1.0072    2.5045 S   0  0  0  0  0  0  0  0  0  0  0  0
    0.5262    1.7066    1.4011 S   0  0  0  0  0  0  0  0  0  0  0  0
    0.9636    0.6638    0.0202 C   0  0  0  0  0  0  0  0  0  0  0  0
    1.3474   -0.7669    0.4304 C   0  0  2  0  0  0  0  0  0  0  0  0
    0.1314   -1.3915    1.0092 N   0  0  0  0  0  0  0  0  0  0  0  0
   -0.8405   -2.0546    0.2133 C   0  0  0  0  0  0  0  0  0  0  0  0
   -0.6334   -2.0632   -1.0011 O   0  0  0  0  0  0  0  0  0  0  0  0
   -2.0086   -2.6640    0.9040 C   0  0  1  0  0  0  0  0  0  0  0  0
   -3.0597   -3.0879   -0.0113 N   0  0  0  0  0  0  0  0  0  0  0  0
   -4.2701   -2.3639    0.0159 C   0  0  0  0  0  0  0  0  0  0  0  0
   -4.3354   -1.3879    0.7653 O   0  0  0  0  0  0  0  0  0  0  0  0
   -5.5016   -2.6757   -0.7956 C   0  0  1  0  0  0  0  0  0  0  0  0
   -6.4117   -1.6403   -0.4171 N   0  0  0  0  0  0  0  0  0  0  0  0
   -7.5114   -1.9243    0.5063 C   0  0  0  0  0  0  0  0  0  0  0  0
   -7.5911   -3.0945    0.8483 O   0  0  0  0  0  0  0  0  0  0  0  0
   -5.1108   -2.9085   -2.1743 C   0  0  0  0  0  0  0  0  0  0  0  0
   -4.4345   -1.8175   -2.9487 C   0  0  0  0  0  0  0  0  0  0  0  0
   -5.1961   -0.6194   -3.2419 C   0  0  0  0  0  0  0  0  0  0  0  0
   -6.4396   -0.4936   -3.2838 O   0  0  0  0  0  0  0  0  0  0  0  0
   -4.4506    0.5892   -3.5312 N   0  0  0  0  0  0  0  0  0  0  0  0
   -1.5419   -3.8652    1.7222 C   0  0  0  0  0  0  0  0  0  0  0  0
   -2.7019   -4.4541    2.4000 C   0  0  0  0  0  0  0  0  0  0  0  0
   -3.8800   -4.0222    2.3234 O   0  0  0  0  0  0  0  0  0  0  0  0
   -2.4936   -5.6029    3.2116 N   0  0  0  0  0  0  0  0  0  0  0  0
    2.4185   -0.7894    1.4093 C   0  0  0  0  0  0  0  0  0  0  0  0
    2.0718   -1.3233    2.5593 O   0  0  0  0  0  0  0  0  0  0  0  0
    3.7333   -0.3545    1.3685 N   0  0  0  0  0  0  0  0  0  0  0  0
    4.6046   -0.4626    2.5802 C   0  0  0  0  0  0  0  0  0  0  0  0
    5.0718    0.9839    2.6627 C   0  0  0  0  0  0  0  0  0  0  0  0
    5.2277    1.3782    1.2169 C   0  0  0  0  0  0  0  0  0  0  0  0
    4.6212    0.2416    0.4022 C   0  0  1  0  0  0  0  0  0  0  0  0
    5.7635   -0.6861    0.0865 C   0  0  0  0  0  0  0  0  0  0  0  0
    5.6831   -1.9290    0.3074 O   0  0  0  0  0  0  0  0  0  0  0  0
    6.9881   -0.2176   -0.4663 N   0  0  0  0  0  0  0  0  0  0  0  0
    8.0943   -1.1158   -0.7569 C   0  0  2  0  0  0  0  0  0  0  0  0
    8.9537   -1.2328    0.4311 C   0  0  0  0  0  0  0  0  0  0  0  0
    8.6034   -0.5060    1.4358 O   0  0  0  0  0  0  0  0  0  0  0  0
   10.0841   -2.0497    0.5798 N   0  0  0  0  0  0  0  0  0  0  0  0
   10.8792   -2.1862    1.7713 C   0  0  0  0  0  0  0  0  0  0  0  0
   11.4764   -0.9317    2.2311 C   0  0  0  0  0  0  0  0  0  0  0  0
   12.1817   -0.9986    3.3026 O   0  0  0  0  0  0  0  0  0  0  0  0
   11.3554    0.3307    1.6194 N   0  0  0  0  0  0  0  0  0  0  0  0
    8.6862   -1.0195   -2.0929 C   0  0  0  0  0  0  0  0  0  0  0  0
    9.2278    0.2729   -2.5633 C   0  0  0  0  0  0  0  0  0  0  0  0
   10.3246    0.8114   -1.6890 C   0  0  0  0  0  0  0  0  0  0  0  0
   10.7627    2.0683   -2.2665 N   0  0  0  0  0  0  0  0  0  0  0  0
   11.8043    2.7345   -1.5573 C   0  0  0  0  0  0  0  0  0  0  0  0
   11.4477    3.1399   -0.1595 C   0  0  0  0  0  0  0  0  0  0  0  0
   13.0834    1.9341   -1.5273 C   0  0  0  0  0  0  0  0  0  0  0  0
   -6.7577    2.8951   -1.1785 C   0  0  0  0  0  0  0  0  0  0  0  0
   -8.1995    3.1784   -1.3371 C   0  0  0  0  0  0  0  0  0  0  0  0
   -8.7298    3.5669   -2.5777 C   0  0  0  0  0  0  0  0  0  0  0  0
  -10.0792    3.7530   -2.3972 C   0  0  0  0  0  0  0  0  0  0  0  0
  -10.3290    3.4802   -1.0871 C   0  0  0  0  0  0  0  0  0  0  0  0
   -9.2007    3.1471   -0.5005 O   0  0  0  0  0  0  0  0  0  0  0  0
  -10.5164   -0.2043    2.0897 C   0  0  0  0  0  0  0  0  0  0  0  0
  -10.9027    0.7509   -0.4327 H   0  0  0  0  0  0  0  0  0  0  0  0
  -10.2982   -0.2387   -1.8664 H   0  0  0  0  0  0  0  0  0  0  0  0
  -11.9870   -0.2461   -1.3813 H   0  0  0  0  0  0  0  0  0  0  0  0
  -10.4859   -2.3244   -0.5969 H   0  0  0  0  0  0  0  0  0  0  0  0
  -11.7355   -1.6036    0.3987 H   0  0  0  0  0  0  0  0  0  0  0  0
   -9.8479   -2.1562    1.7063 H   0  0  0  0  0  0  0  0  0  0  0  0
   -8.0143   -0.6217    2.0217 H   0  0  0  0  0  0  0  0  0  0  0  0
   -8.5546    0.6658   -0.5713 H   0  0  0  0  0  0  0  0  0  0  0  0
   -6.9399    3.2586    0.8770 H   0  0  0  0  0  0  0  0  0  0  0  0
   -4.3821    1.9473   -0.0465 H   0  0  0  0  0  0  0  0  0  0  0  0
   -2.4315    3.5768    1.3314 H   0  0  0  0  0  0  0  0  0  0  0  0
   -3.4774    4.4162    3.4274 H   0  0  0  0  0  0  0  0  0  0  0  0
   -1.8494    3.9995    3.4325 H   0  0  0  0  0  0  0  0  0  0  0  0
   -3.5023    0.9831    2.5618 H   0  0  0  0  0  0  0  0  0  0  0  0
   -2.8313    1.2098    0.9199 H   0  0  0  0  0  0  0  0  0  0  0  0
    1.8484    1.0831   -0.4873 H   0  0  0  0  0  0  0  0  0  0  0  0
    0.1789    0.5602   -0.7496 H   0  0  0  0  0  0  0  0  0  0  0  0
    1.5952   -1.2607   -0.5028 H   0  0  0  0  0  0  0  0  0  0  0  0
   -0.0430   -1.3606    2.0096 H   0  0  0  0  0  0  0  0  0  0  0  0
   -2.4143   -1.8803    1.5767 H   0  0  0  0  0  0  0  0  0  0  0  0
   -3.0013   -3.8597   -0.6700 H   0  0  0  0  0  0  0  0  0  0  0  0
   -5.8400   -3.6773   -0.3646 H   0  0  0  0  0  0  0  0  0  0  0  0
   -6.3935   -0.6697   -0.7112 H   0  0  0  0  0  0  0  0  0  0  0  0
   -4.3336   -3.7411   -2.1446 H   0  0  0  0  0  0  0  0  0  0  0  0
   -5.9071   -3.4085   -2.8037 H   0  0  0  0  0  0  0  0  0  0  0  0
   -3.4493   -1.6076   -2.4631 H   0  0  0  0  0  0  0  0  0  0  0  0
   -4.1355   -2.2470   -3.9581 H   0  0  0  0  0  0  0  0  0  0  0  0
   -4.7865    1.2651   -4.2496 H   0  0  0  0  0  0  0  0  0  0  0  0
   -3.5571    0.7833   -3.0054 H   0  0  0  0  0  0  0  0  0  0  0  0
   -1.1762   -4.5966    0.9605 H   0  0  0  0  0  0  0  0  0  0  0  0
   -0.7357   -3.5218    2.3799 H   0  0  0  0  0  0  0  0  0  0  0  0
   -2.0122   -5.4748    4.1254 H   0  0  0  0  0  0  0  0  0  0  0  0
   -2.8358   -6.5393    2.8576 H   0  0  0  0  0  0  0  0  0  0  0  0
    4.0028   -0.6334    3.4844 H   0  0  0  0  0  0  0  0  0  0  0  0
    5.3998   -1.1823    2.4511 H   0  0  0  0  0  0  0  0  0  0  0  0
    4.2452    1.5878    3.1322 H   0  0  0  0  0  0  0  0  0  0  0  0
    6.0025    1.0646    3.2469 H   0  0  0  0  0  0  0  0  0  0  0  0
    6.3013    1.5109    1.0309 H   0  0  0  0  0  0  0  0  0  0  0  0
    4.7567    2.3562    0.9933 H   0  0  0  0  0  0  0  0  0  0  0  0
    4.1657    0.5531   -0.5324 H   0  0  0  0  0  0  0  0  0  0  0  0
    7.1173    0.7891   -0.6800 H   0  0  0  0  0  0  0  0  0  0  0  0
    7.5800   -2.1839   -0.7645 H   0  0  0  0  0  0  0  0  0  0  0  0
   10.3698   -2.6181   -0.2695 H   0  0  0  0  0  0  0  0  0  0  0  0
   11.6732   -2.9829    1.6146 H   0  0  0  0  0  0  0  0  0  0  0  0
   10.2424   -2.6597    2.5866 H   0  0  0  0  0  0  0  0  0  0  0  0
   11.8767    0.4382    0.6998 H   0  0  0  0  0  0  0  0  0  0  0  0
   10.8119    1.1350    1.9893 H   0  0  0  0  0  0  0  0  0  0  0  0
    9.5063   -1.7928   -2.1603 H   0  0  0  0  0  0  0  0  0  0  0  0
    7.9112   -1.4103   -2.8350 H   0  0  0  0  0  0  0  0  0  0  0  0
    8.4384    1.0575   -2.6891 H   0  0  0  0  0  0  0  0  0  0  0  0
    9.6194    0.1248   -3.6150 H   0  0  0  0  0  0  0  0  0  0  0  0
   11.1500    0.0736   -1.6542 H   0  0  0  0  0  0  0  0  0  0  0  0
    9.9625    0.9619   -0.6431 H   0  0  0  0  0  0  0  0  0  0  0  0
    9.9285    2.6990   -2.3031 H   0  0  0  0  0  0  0  0  0  0  0  0
   12.0357    3.6951   -2.1129 H   0  0  0  0  0  0  0  0  0  0  0  0
   12.2242    2.8057    0.5618 H   0  0  0  0  0  0  0  0  0  0  0  0
   11.3569    4.2458   -0.1011 H   0  0  0  0  0  0  0  0  0  0  0  0
   10.4637    2.7375    0.1487 H   0  0  0  0  0  0  0  0  0  0  0  0
   13.8924    2.5498   -1.9970 H   0  0  0  0  0  0  0  0  0  0  0  0
   13.0365    1.0108   -2.1303 H   0  0  0  0  0  0  0  0  0  0  0  0
   13.4339    1.7565   -0.4814 H   0  0  0  0  0  0  0  0  0  0  0  0
   -6.2378    3.8686   -1.3760 H   0  0  0  0  0  0  0  0  0  0  0  0
   -6.4840    2.1535   -1.9809 H   0  0  0  0  0  0  0  0  0  0  0  0
   -8.1968    3.6979   -3.5064 H   0  0  0  0  0  0  0  0  0  0  0  0
  -10.8004    4.0534   -3.1354 H   0  0  0  0  0  0  0  0  0  0  0  0
  -11.2968    3.5248   -0.5861 H   0  0  0  0  0  0  0  0  0  0  0  0
   -9.7711    0.1180    2.8595 H   0  0  0  0  0  0  0  0  0  0  0  0
  -10.8597    0.7172    1.5984 H   0  0  0  0  0  0  0  0  0  0  0  0
  -11.3163   -0.7407    2.6271 H   0  0  0  0  0  0  0  0  0  0  0  0
  1  2  1  0
  2  3  1  0
  3  4  1  0
  4  5  1  0
  5  6  1  0
  6  7  2  0
  6  8  1  0
  8  9  1  0
  9 10  1  0
 10 11  2  0
 10 12  1  0
 12 13  1  0
 12 14  1  0
 14 15  1  0
 15 16  1  0
 16 17  1  0
 17 18  1  0
 18 19  1  0
 19 20  1  0
 20 21  2  0
 20 22  1  0
 22 23  1  0
 23 24  1  0
 24 25  2  0
 24 26  1  0
 26 27  1  0
 27 28  1  0
 28 29  2  0
 26 30  1  0
 30 31  1  0
 31 32  1  0
 32 33  2  0
 32 34  1  0
 22 35  1  0
 35 36  1  0
 36 37  2  0
 36 38  1  0
 18 39  1  0
 39 40  2  0
 39 41  1  0
 41 42  1  0
 42 43  1  0
 43 44  1  0
 44 45  1  0
 45 46  1  0
 46 47  2  0
 46 48  1  0
 48 49  1  0
 49 50  1  0
 50 51  2  0
 50 52  1  0
 52 53  1  0
 53 54  1  0
 54 55  2  0
 54 56  1  0
 49 57  1  0
 57 58  1  0
 58 59  1  0
 59 60  1  0
 60 61  1  0
 61 62  1  0
 61 63  1  0
  8 64  1  0
 64 65  1  0
 65 66  2  0
 66 67  1  0
 67 68  2  0
 68 69  1  0
  3 70  1  0
 28  4  1  0
 45 41  1  0
 69 65  1  0
  1 71  1  0
  1 72  1  0
  1 73  1  0
  2 74  1  0
  2 75  1  0
  3 76  1  1
  4 77  1  1
  5 78  1  0
  8 79  1  1
  9 80  1  0
 12 81  1  6
 13 82  1  0
 13 83  1  0
 14 84  1  0
 14 85  1  0
 17 86  1  0
 17 87  1  0
 18 88  1  6
 19 89  1  0
 22 90  1  1
 23 91  1  0
 26 92  1  1
 27 93  1  0
 30 94  1  0
 30 95  1  0
 31 96  1  0
 31 97  1  0
 34 98  1  0
 34 99  1  0
 35100  1  0
 35101  1  0
 38102  1  0
 38103  1  0
 42104  1  0
 42105  1  0
 43106  1  0
 43107  1  0
 44108  1  0
 44109  1  0
 45110  1  6
 48111  1  0
 49112  1  6
 52113  1  0
 53114  1  0
 53115  1  0
 56116  1  0
 56117  1  0
 57118  1  0
 57119  1  0
 58120  1  0
 58121  1  0
 59122  1  0
 59123  1  0
 60124  1  0
 61125  1  0
 62126  1  0
 62127  1  0
 62128  1  0
 63129  1  0
 63130  1  0
 63131  1  0
 64132  1  0
 64133  1  0
 66134  1  0
 67135  1  0
 68136  1  0
 70137  1  0
 70138  1  0
 70139  1  0
M  END
>  <Ligand ID>  (1) 
LIG0000928

>  <Ligand>  (1) 
CHEMBL1817756

>  <SMILES>  (1) 
CC[C@@H]([C@@H]1NC(=O)[C@@H](NC(=O)[C@@H](N)CSSC[C@H](NC(=O)[C@@H](NC(=O)[C@@H](NC1=O)CCC(=O)N)CC(=O)N)C(=O)N1CCC[C@H]1C(=O)N[C@H](C(=O)NCC(=O)N)CCCNC(C)C)Cc1ccco1)C

>  <CID>  (1) 
53362671.0

>  <ChEMBL ID>  (1) 
nan

>  <InChiKey>  (1) 
KGNKNMVBIGDPEV-GHDRINTISA-N

>  <InChi>  (1) 
InChI=1S/C43H69N13O12S2/c1-5-23(4)35-42(66)51-27(12-13-32(45)57)38(62)53-29(18-33(46)58)39(63)54-30(21-70-69-20-25(44)36(60)52-28(40(64)55-35)17-24-9-8-16-68-24)43(67)56-15-7-11-31(56)41(65)50-26(10-6-14-48-22(2)3)37(61)49-19-34(47)59/h8-9,16,22-23,25-31,35,48H,5-7,10-15,17-21,44H2,1-4H3,(H2,45,57)(H2,46,58)(H2,47,59)(H,49,61)(H,50,65)(H,51,66)(H,52,60)(H,53,62)(H,54,63)(H,55,64)/t23-,25-,26-,27-,28-,29-,30-,31-,35-/m0/s1

>  <IUPAC Name>  (1) 
(2S)-1-[(4R,7S,10S,13S,16S,19R)-19-amino-7-(2-amino-2-oxoethyl)-10-(3-amino-3-oxopropyl)-13-[(2S)-butan-2-yl]-16-(furan-2-ylmethyl)-6,9,12,15,18-pentaoxo-1,2-dithia-5,8,11,14,17-pentazacycloicosane-4-carbonyl]-N-[(2S)-1-[(2-amino-2-oxoethyl)amino]-1-oxo-5-(propan-2-ylamino)pentan-2-yl]pyrrolidine-2-carboxamide

$$$$
