
     RDKit          3D

 26 25  0  0  0  0  0  0  0  0999 V2000
   -4.2308   -0.5423   -0.5685 C   0  0  0  0  0  0  0  0  0  0  0  0
   -2.8678   -0.2780    0.0645 C   0  0  0  0  0  0  0  0  0  0  0  0
   -2.1374    0.6884   -0.8124 C   0  0  0  0  0  0  0  0  0  0  0  0
   -0.7894    1.0275   -0.2580 C   0  0  0  0  0  0  0  0  0  0  0  0
    0.0678   -0.2039   -0.1369 C   0  0  0  0  0  0  0  0  0  0  0  0
    1.4074    0.2038    0.4010 C   0  0  0  0  0  0  0  0  0  0  0  0
    1.6120    1.4164    0.6554 O   0  0  0  0  0  0  0  0  0  0  0  0
    2.3394   -0.7981    0.5827 O   0  0  0  0  0  0  0  0  0  0  0  0
    3.6076   -0.4723    1.0829 C   0  0  0  0  0  0  0  0  0  0  0  0
    4.3779    0.4994    0.2254 C   0  0  0  0  0  0  0  0  0  0  0  0
   -4.0462   -1.1419   -1.4708 H   0  0  0  0  0  0  0  0  0  0  0  0
   -4.8640   -1.1005    0.1465 H   0  0  0  0  0  0  0  0  0  0  0  0
   -4.6301    0.4496   -0.8415 H   0  0  0  0  0  0  0  0  0  0  0  0
   -2.2945   -1.2376    0.0815 H   0  0  0  0  0  0  0  0  0  0  0  0
   -3.0000    0.1414    1.0632 H   0  0  0  0  0  0  0  0  0  0  0  0
   -2.0500    0.2669   -1.8563 H   0  0  0  0  0  0  0  0  0  0  0  0
   -2.7531    1.6157   -0.9722 H   0  0  0  0  0  0  0  0  0  0  0  0
   -0.2550    1.7163   -0.9486 H   0  0  0  0  0  0  0  0  0  0  0  0
   -0.8657    1.5346    0.7446 H   0  0  0  0  0  0  0  0  0  0  0  0
   -0.4192   -0.9049    0.5757 H   0  0  0  0  0  0  0  0  0  0  0  0
    0.1685   -0.7065   -1.1073 H   0  0  0  0  0  0  0  0  0  0  0  0
    3.5517   -0.1061    2.1499 H   0  0  0  0  0  0  0  0  0  0  0  0
    4.2052   -1.4104    1.1272 H   0  0  0  0  0  0  0  0  0  0  0  0
    5.2250    0.8770    0.8552 H   0  0  0  0  0  0  0  0  0  0  0  0
    4.8401   -0.0550   -0.6217 H   0  0  0  0  0  0  0  0  0  0  0  0
    3.8005    1.3372   -0.1616 H   0  0  0  0  0  0  0  0  0  0  0  0
  1  2  1  0
  2  3  1  0
  3  4  1  0
  4  5  1  0
  5  6  1  0
  6  7  2  0
  6  8  1  0
  8  9  1  0
  9 10  1  0
  1 11  1  0
  1 12  1  0
  1 13  1  0
  2 14  1  0
  2 15  1  0
  3 16  1  0
  3 17  1  0
  4 18  1  0
  4 19  1  0
  5 20  1  0
  5 21  1  0
  9 22  1  0
  9 23  1  0
 10 24  1  0
 10 25  1  0
 10 26  1  0
M  END
>  <Ligand ID>  (1) 
LIG0000347

>  <Ligand>  (1) 
Ethyl hexanoate

>  <SMILES>  (1) 
CCCCCC(=O)OCC

>  <CID>  (1) 
31265.0

>  <ChEMBL ID>  (1) 
nan

>  <InChiKey>  (1) 
SHZIWNPUGXLXDT-UHFFFAOYSA-N

>  <InChi>  (1) 
InChI=1S/C8H16O2/c1-3-5-6-7-8(9)10-4-2/h3-7H2,1-2H3

>  <IUPAC Name>  (1) 
ethyl hexanoate

$$$$
