
     RDKit          3D

 31 33  0  0  0  0  0  0  0  0999 V2000
    0.6849    3.6842   -1.0031 O   0  0  0  0  0  0  0  0  0  0  0  0
    0.4526    2.4456   -0.9440 C   0  0  0  0  0  0  0  0  0  0  0  0
   -0.6890    1.8586   -1.5729 N   0  0  0  0  0  0  0  0  0  0  0  0
   -1.2197    0.5864   -1.1795 C   0  0  0  0  0  0  0  0  0  0  0  0
   -2.1828    0.6458   -0.0219 C   0  0  0  0  0  0  0  0  0  0  0  0
   -2.2492   -0.6576    0.7355 C   0  0  0  0  0  0  0  0  0  0  0  0
   -2.2478   -1.8043   -0.1313 N   0  0  0  0  0  0  0  0  0  0  0  0
   -0.9398   -2.4805   -0.0941 C   0  0  0  0  0  0  0  0  0  0  0  0
   -0.0867   -1.7802   -1.0960 C   0  0  0  0  0  0  0  0  0  0  0  0
   -0.1378   -0.3557   -0.8521 N   0  0  0  0  0  0  0  0  0  0  0  0
    0.9985    0.1881   -0.2190 C   0  0  0  0  0  0  0  0  0  0  0  0
    1.3355    1.5218   -0.2273 C   0  0  0  0  0  0  0  0  0  0  0  0
    2.4681    1.9976    0.4151 C   0  0  0  0  0  0  0  0  0  0  0  0
    3.3133    1.1378    1.0978 C   0  0  0  0  0  0  0  0  0  0  0  0
    2.9835   -0.2178    1.1143 C   0  0  0  0  0  0  0  0  0  0  0  0
    1.8364   -0.6676    0.4583 C   0  0  0  0  0  0  0  0  0  0  0  0
   -1.1317    2.4129   -2.3529 H   0  0  0  0  0  0  0  0  0  0  0  0
   -1.7122    0.1574   -2.0838 H   0  0  0  0  0  0  0  0  0  0  0  0
   -3.1941    0.8812   -0.4011 H   0  0  0  0  0  0  0  0  0  0  0  0
   -1.8909    1.4754    0.6543 H   0  0  0  0  0  0  0  0  0  0  0  0
   -1.4331   -0.7350    1.4762 H   0  0  0  0  0  0  0  0  0  0  0  0
   -3.2178   -0.6280    1.3035 H   0  0  0  0  0  0  0  0  0  0  0  0
   -2.4218   -1.4879   -1.1111 H   0  0  0  0  0  0  0  0  0  0  0  0
   -1.1176   -3.5528   -0.3512 H   0  0  0  0  0  0  0  0  0  0  0  0
   -0.6172   -2.3940    0.9581 H   0  0  0  0  0  0  0  0  0  0  0  0
    0.8896   -2.1976   -1.3049 H   0  0  0  0  0  0  0  0  0  0  0  0
   -0.6331   -1.9053   -2.0842 H   0  0  0  0  0  0  0  0  0  0  0  0
    2.7055    3.0489    0.3906 H   0  0  0  0  0  0  0  0  0  0  0  0
    4.1963    1.4779    1.6037 H   0  0  0  0  0  0  0  0  0  0  0  0
    3.6275   -0.9284    1.6437 H   0  0  0  0  0  0  0  0  0  0  0  0
    1.6305   -1.7270    0.5052 H   0  0  0  0  0  0  0  0  0  0  0  0
  1  2  2  0
  2  3  1  0
  3  4  1  0
  4  5  1  0
  5  6  1  0
  6  7  1  0
  7  8  1  0
  8  9  1  0
  9 10  1  0
 10 11  1  0
 11 12  2  0
 12 13  1  0
 13 14  2  0
 14 15  1  0
 15 16  2  0
 12  2  1  0
 10  4  1  0
 16 11  1  0
  3 17  1  0
  4 18  1  0
  5 19  1  0
  5 20  1  0
  6 21  1  0
  6 22  1  0
  7 23  1  0
  8 24  1  0
  8 25  1  0
  9 26  1  0
  9 27  1  0
 13 28  1  0
 14 29  1  0
 15 30  1  0
 16 31  1  0
M  END
>  <Ligand ID>  (1) 
LIG0003247

>  <Ligand>  (1) 
CHEMBL590816

>  <SMILES>  (1) 
O=C1NC2CCNCCN2c2c1cccc2

>  <CID>  (1) 
46230097.0

>  <ChEMBL ID>  (1) 
nan

>  <InChiKey>  (1) 
OCAKADOGXISKBY-UHFFFAOYSA-N

>  <InChi>  (1) 
InChI=1S/C12H15N3O/c16-12-9-3-1-2-4-10(9)15-8-7-13-6-5-11(15)14-12/h1-4,11,13H,5-8H2,(H,14,16)

>  <IUPAC Name>  (1) 
2,3,4,5,5a,6-hexahydro-1H-[1,4]diazepino[1,7-a]quinazolin-7-one

$$$$
