
     RDKit          3D

132137  0  0  0  0  0  0  0  0999 V2000
   -2.7384    6.0930   -3.6767 N   0  0  0  0  0  0  0  0  0  0  0  0
   -3.1625    4.7075   -3.5215 C   0  0  0  0  0  0  0  0  0  0  0  0
   -2.2923    3.9129   -3.1114 N   0  0  0  0  0  0  0  0  0  0  0  0
   -2.4446    2.5164   -2.8757 C   0  0  0  0  0  0  0  0  0  0  0  0
   -3.7357    2.0813   -2.2645 C   0  0  0  0  0  0  0  0  0  0  0  0
   -4.1586    2.6496   -0.9824 C   0  0  0  0  0  0  0  0  0  0  0  0
   -3.3540    2.4799    0.2215 C   0  0  2  0  0  0  0  0  0  0  0  0
   -2.0098    3.0271    0.2518 N   0  0  0  0  0  0  0  0  0  0  0  0
   -1.6167    3.9572    1.3028 C   0  0  0  0  0  0  0  0  0  0  0  0
   -2.5331    4.1999    2.1059 O   0  0  0  0  0  0  0  0  0  0  0  0
   -0.3275    4.5703    1.4623 C   0  0  2  0  0  0  0  0  0  0  0  0
   -0.6120    6.0948    1.4026 C   0  0  0  0  0  0  0  0  0  0  0  0
   -0.8459    6.1898   -0.1092 C   0  0  0  0  0  0  0  0  0  0  0  0
    0.3194    5.3676   -0.6977 C   0  0  0  0  0  0  0  0  0  0  0  0
    0.6374    4.5066    0.3908 N   0  0  0  0  0  0  0  0  0  0  0  0
    1.7550    3.6227    0.5142 C   0  0  0  0  0  0  0  0  0  0  0  0
    1.6936    2.9269    1.5786 O   0  0  0  0  0  0  0  0  0  0  0  0
    2.8641    3.4437   -0.3699 C   0  0  1  0  0  0  0  0  0  0  0  0
    3.7202    4.6522   -0.6502 C   0  0  0  0  0  0  0  0  0  0  0  0
    4.3471    4.8874    0.6936 C   0  0  0  0  0  0  0  0  0  0  0  0
    4.4487    3.4619    1.2564 C   0  0  0  0  0  0  0  0  0  0  0  0
    3.9399    2.5852    0.2545 N   0  0  0  0  0  0  0  0  0  0  0  0
    4.1594    1.2807   -0.2277 C   0  0  0  0  0  0  0  0  0  0  0  0
    3.4002    0.9440   -1.1613 O   0  0  0  0  0  0  0  0  0  0  0  0
    5.1503    0.2860    0.2325 C   0  0  2  0  0  0  0  0  0  0  0  0
    6.5662    0.5342   -0.2168 C   0  0  0  0  0  0  0  0  0  0  0  0
    7.2414    1.7488    0.1283 C   0  0  0  0  0  0  0  0  0  0  0  0
    7.1284    2.8446   -0.7152 C   0  0  0  0  0  0  0  0  0  0  0  0
    7.7630    4.0540   -0.4864 C   0  0  0  0  0  0  0  0  0  0  0  0
    8.5382    4.0920    0.6764 C   0  0  0  0  0  0  0  0  0  0  0  0
    8.6731    3.0381    1.5283 C   0  0  0  0  0  0  0  0  0  0  0  0
    8.0218    1.8623    1.2532 C   0  0  0  0  0  0  0  0  0  0  0  0
    4.7833   -1.0240   -0.4058 N   0  0  0  0  0  0  0  0  0  0  0  0
    3.8559   -1.9246    0.1539 C   0  0  0  0  0  0  0  0  0  0  0  0
    3.2609   -1.5486    1.1685 O   0  0  0  0  0  0  0  0  0  0  0  0
    3.6775   -3.2305   -0.5323 C   0  0  1  0  0  0  0  0  0  0  0  0
    2.5698   -4.0169   -0.1361 N   0  0  0  0  0  0  0  0  0  0  0  0
    2.6449   -5.2193    0.6755 C   0  0  0  0  0  0  0  0  0  0  0  0
    3.7626   -5.4746    1.0907 O   0  0  0  0  0  0  0  0  0  0  0  0
    1.3833   -5.9643    0.9003 C   0  0  1  0  0  0  0  0  0  0  0  0
    0.3221   -5.4090    0.0532 N   0  0  0  0  0  0  0  0  0  0  0  0
   -0.8149   -4.7258    0.5738 C   0  0  0  0  0  0  0  0  0  0  0  0
   -0.8366   -4.6358    1.8125 O   0  0  0  0  0  0  0  0  0  0  0  0
   -1.8730   -4.1700   -0.2984 C   0  0  0  0  0  0  0  0  0  0  0  0
   -2.8192   -3.4009    0.4788 N   0  0  0  0  0  0  0  0  0  0  0  0
   -3.1183   -2.0138    0.1803 C   0  0  0  0  0  0  0  0  0  0  0  0
   -2.5469   -1.5854   -0.8241 O   0  0  0  0  0  0  0  0  0  0  0  0
   -4.0452   -1.2225    1.0471 C   0  0  1  0  0  0  0  0  0  0  0  0
   -4.2840    0.0919    0.5519 N   0  0  0  0  0  0  0  0  0  0  0  0
   -3.2304    1.0456    0.6195 C   0  0  0  0  0  0  0  0  0  0  0  0
   -2.1424    0.6323    1.0342 O   0  0  0  0  0  0  0  0  0  0  0  0
   -5.2206   -1.9961    1.5170 C   0  0  0  0  0  0  0  0  0  0  0  0
   -6.1757   -1.2546    2.3778 C   0  0  0  0  0  0  0  0  0  0  0  0
   -7.2604   -0.5847    1.8334 C   0  0  0  0  0  0  0  0  0  0  0  0
   -8.0933    0.0607    2.7172 C   0  0  0  0  0  0  0  0  0  0  0  0
   -7.9242    0.0859    4.0769 C   0  0  0  0  0  0  0  0  0  0  0  0
   -6.8362   -0.5857    4.6173 C   0  0  0  0  0  0  0  0  0  0  0  0
   -5.9780   -1.2451    3.7678 C   0  0  0  0  0  0  0  0  0  0  0  0
   -2.5137   -5.2116   -1.1119 C   0  0  0  0  0  0  0  0  0  0  0  0
   -3.5403   -4.7981   -1.9639 C   0  0  0  0  0  0  0  0  0  0  0  0
   -4.2134   -5.6835   -2.7783 C   0  0  0  0  0  0  0  0  0  0  0  0
   -3.8606   -7.0192   -2.7487 C   0  0  0  0  0  0  0  0  0  0  0  0
   -2.8550   -7.4737   -1.9236 C   0  0  0  0  0  0  0  0  0  0  0  0
   -2.2062   -6.5392   -1.1214 C   0  0  0  0  0  0  0  0  0  0  0  0
    1.4705   -7.4429    0.7954 C   0  0  0  0  0  0  0  0  0  0  0  0
    2.3862   -8.0371    1.7899 C   0  0  0  0  0  0  0  0  0  0  0  0
    3.0316   -7.3664    2.6503 O   0  0  0  0  0  0  0  0  0  0  0  0
    2.6046   -9.4516    1.8432 N   0  0  0  0  0  0  0  0  0  0  0  0
    3.6546   -2.9831   -2.0196 C   0  0  0  0  0  0  0  0  0  0  0  0
   -4.5064    4.4604   -3.8517 N   0  0  0  0  0  0  0  0  0  0  0  0
   -2.9261    6.6833   -2.8566 H   0  0  0  0  0  0  0  0  0  0  0  0
   -2.3004    6.3612   -4.5668 H   0  0  0  0  0  0  0  0  0  0  0  0
   -1.5400    2.0308   -2.4879 H   0  0  0  0  0  0  0  0  0  0  0  0
   -2.4930    2.0208   -3.9469 H   0  0  0  0  0  0  0  0  0  0  0  0
   -3.6878    0.9497   -2.2394 H   0  0  0  0  0  0  0  0  0  0  0  0
   -4.5235    2.2604   -3.0714 H   0  0  0  0  0  0  0  0  0  0  0  0
   -5.1801    2.1948   -0.7483 H   0  0  0  0  0  0  0  0  0  0  0  0
   -4.4635    3.7428   -1.1220 H   0  0  0  0  0  0  0  0  0  0  0  0
   -3.9420    2.9071    1.1094 H   0  0  0  0  0  0  0  0  0  0  0  0
   -1.2538    2.8367   -0.3965 H   0  0  0  0  0  0  0  0  0  0  0  0
    0.1433    4.3814    2.4562 H   0  0  0  0  0  0  0  0  0  0  0  0
   -1.5685    6.2991    1.8842 H   0  0  0  0  0  0  0  0  0  0  0  0
    0.2474    6.6842    1.7120 H   0  0  0  0  0  0  0  0  0  0  0  0
   -0.7656    7.2571   -0.3392 H   0  0  0  0  0  0  0  0  0  0  0  0
   -1.8173    5.8173   -0.4183 H   0  0  0  0  0  0  0  0  0  0  0  0
    1.0676    6.1546   -0.9277 H   0  0  0  0  0  0  0  0  0  0  0  0
   -0.0489    4.8605   -1.6124 H   0  0  0  0  0  0  0  0  0  0  0  0
    2.6205    2.9682   -1.3092 H   0  0  0  0  0  0  0  0  0  0  0  0
    3.2787    5.4763   -1.1602 H   0  0  0  0  0  0  0  0  0  0  0  0
    4.5651    4.2839   -1.3038 H   0  0  0  0  0  0  0  0  0  0  0  0
    5.3481    5.3356    0.5265 H   0  0  0  0  0  0  0  0  0  0  0  0
    3.7825    5.5648    1.3367 H   0  0  0  0  0  0  0  0  0  0  0  0
    3.8098    3.4884    2.1756 H   0  0  0  0  0  0  0  0  0  0  0  0
    5.5063    3.3350    1.5472 H   0  0  0  0  0  0  0  0  0  0  0  0
    5.0881    0.2213    1.3175 H   0  0  0  0  0  0  0  0  0  0  0  0
    6.5801    0.2890   -1.3119 H   0  0  0  0  0  0  0  0  0  0  0  0
    7.1720   -0.3434    0.2108 H   0  0  0  0  0  0  0  0  0  0  0  0
    6.5092    2.7754   -1.6116 H   0  0  0  0  0  0  0  0  0  0  0  0
    7.6814    4.9034   -1.1367 H   0  0  0  0  0  0  0  0  0  0  0  0
    9.0817    5.0080    0.9481 H   0  0  0  0  0  0  0  0  0  0  0  0
    9.2745    3.0649    2.4274 H   0  0  0  0  0  0  0  0  0  0  0  0
    8.1283    1.0263    1.9290 H   0  0  0  0  0  0  0  0  0  0  0  0
    5.2162   -1.2742   -1.2868 H   0  0  0  0  0  0  0  0  0  0  0  0
    4.6528   -3.7686   -0.3097 H   0  0  0  0  0  0  0  0  0  0  0  0
    1.6237   -3.7577   -0.4101 H   0  0  0  0  0  0  0  0  0  0  0  0
    1.1308   -5.7559    1.9890 H   0  0  0  0  0  0  0  0  0  0  0  0
    0.3671   -5.4821   -0.9587 H   0  0  0  0  0  0  0  0  0  0  0  0
   -1.3688   -3.4137   -0.9819 H   0  0  0  0  0  0  0  0  0  0  0  0
   -3.3307   -3.7744    1.2757 H   0  0  0  0  0  0  0  0  0  0  0  0
   -3.3701   -1.0487    1.9597 H   0  0  0  0  0  0  0  0  0  0  0  0
   -5.1552    0.4232    0.1463 H   0  0  0  0  0  0  0  0  0  0  0  0
   -4.9156   -2.8996    2.1295 H   0  0  0  0  0  0  0  0  0  0  0  0
   -5.8427   -2.3931    0.6629 H   0  0  0  0  0  0  0  0  0  0  0  0
   -7.4271   -0.5838    0.7505 H   0  0  0  0  0  0  0  0  0  0  0  0
   -8.9605    0.5951    2.3243 H   0  0  0  0  0  0  0  0  0  0  0  0
   -8.6104    0.6112    4.7566 H   0  0  0  0  0  0  0  0  0  0  0  0
   -6.7093   -0.5646    5.6988 H   0  0  0  0  0  0  0  0  0  0  0  0
   -5.1371   -1.7694    4.2030 H   0  0  0  0  0  0  0  0  0  0  0  0
   -3.8082   -3.7495   -1.9778 H   0  0  0  0  0  0  0  0  0  0  0  0
   -5.0168   -5.3189   -3.4362 H   0  0  0  0  0  0  0  0  0  0  0  0
   -4.3944   -7.7222   -3.4010 H   0  0  0  0  0  0  0  0  0  0  0  0
   -2.5784   -8.5157   -1.9002 H   0  0  0  0  0  0  0  0  0  0  0  0
   -1.4427   -6.9005   -0.4836 H   0  0  0  0  0  0  0  0  0  0  0  0
    1.8253   -7.7040   -0.2294 H   0  0  0  0  0  0  0  0  0  0  0  0
    0.4717   -7.8831    0.9988 H   0  0  0  0  0  0  0  0  0  0  0  0
    2.0119  -10.0389    2.4751 H   0  0  0  0  0  0  0  0  0  0  0  0
    3.3691   -9.8467    1.2334 H   0  0  0  0  0  0  0  0  0  0  0  0
    3.2081   -3.8875   -2.5006 H   0  0  0  0  0  0  0  0  0  0  0  0
    3.1465   -2.0448   -2.2947 H   0  0  0  0  0  0  0  0  0  0  0  0
    4.7260   -2.8897   -2.3658 H   0  0  0  0  0  0  0  0  0  0  0  0
   -4.8618    4.0266   -4.7244 H   0  0  0  0  0  0  0  0  0  0  0  0
   -5.2420    4.7357   -3.1544 H   0  0  0  0  0  0  0  0  0  0  0  0
  1  2  1  0
  2  3  2  3
  3  4  1  0
  4  5  1  0
  5  6  1  0
  6  7  1  0
  7  8  1  0
  8  9  1  0
  9 10  2  0
  9 11  1  0
 11 12  1  0
 12 13  1  0
 13 14  1  0
 14 15  1  0
 15 16  1  0
 16 17  2  0
 16 18  1  0
 18 19  1  0
 19 20  1  0
 20 21  1  0
 21 22  1  0
 22 23  1  0
 23 24  2  0
 23 25  1  0
 25 26  1  0
 26 27  1  0
 27 28  2  0
 28 29  1  0
 29 30  2  0
 30 31  1  0
 31 32  2  0
 25 33  1  0
 33 34  1  0
 34 35  2  0
 34 36  1  0
 36 37  1  0
 37 38  1  0
 38 39  2  0
 38 40  1  0
 40 41  1  0
 41 42  1  0
 42 43  2  0
 42 44  1  0
 44 45  1  0
 45 46  1  0
 46 47  2  0
 46 48  1  0
 48 49  1  0
 49 50  1  0
 50 51  2  0
 48 52  1  0
 52 53  1  0
 53 54  2  0
 54 55  1  0
 55 56  2  0
 56 57  1  0
 57 58  2  0
 44 59  1  0
 59 60  2  0
 60 61  1  0
 61 62  2  0
 62 63  1  0
 63 64  2  0
 40 65  1  0
 65 66  1  0
 66 67  2  0
 66 68  1  0
 36 69  1  0
  2 70  1  0
 50  7  1  0
 58 53  1  0
 64 59  1  0
 15 11  1  0
 22 18  1  0
 32 27  1  0
  1 71  1  0
  1 72  1  0
  4 73  1  0
  4 74  1  0
  5 75  1  0
  5 76  1  0
  6 77  1  0
  6 78  1  0
  7 79  1  1
  8 80  1  0
 11 81  1  1
 12 82  1  0
 12 83  1  0
 13 84  1  0
 13 85  1  0
 14 86  1  0
 14 87  1  0
 18 88  1  6
 19 89  1  0
 19 90  1  0
 20 91  1  0
 20 92  1  0
 21 93  1  0
 21 94  1  0
 25 95  1  1
 26 96  1  0
 26 97  1  0
 28 98  1  0
 29 99  1  0
 30100  1  0
 31101  1  0
 32102  1  0
 33103  1  0
 36104  1  6
 37105  1  0
 40106  1  1
 41107  1  0
 44108  1  0
 45109  1  0
 48110  1  1
 49111  1  0
 52112  1  0
 52113  1  0
 54114  1  0
 55115  1  0
 56116  1  0
 57117  1  0
 58118  1  0
 60119  1  0
 61120  1  0
 62121  1  0
 63122  1  0
 64123  1  0
 65124  1  0
 65125  1  0
 68126  1  0
 68127  1  0
 69128  1  0
 69129  1  0
 69130  1  0
 70131  1  0
 70132  1  0
M  END
>  <Ligand ID>  (1) 
LIG0005503

>  <Ligand>  (1) 
CHEMBL3577990

>  <SMILES>  (1) 
NC(=NCCC[C@@H]1NC(=O)[C@@H]2CCCN2C(=O)[C@H]2CCCN2C(=O)[C@H](Cc2ccccc2)NC(=O)[C@@H](NC(=O)[C@@H](NC(=O)C(NC(=O)[C@@H](NC1=O)Cc1ccccc1)c1ccccc1)CC(=O)N)C)N

>  <CID>  (1) 
122178161.0

>  <ChEMBL ID>  (1) 
nan

>  <InChiKey>  (1) 
XKBSPKDFMWAVMQ-JMUQTYQMSA-N

>  <InChi>  (1) 
InChI=1S/C49H62N12O9/c1-29-41(63)58-36(27-31-16-7-3-8-17-31)47(69)61-25-13-22-38(61)48(70)60-24-12-21-37(60)45(67)55-33(20-11-23-53-49(51)52)42(64)56-34(26-30-14-5-2-6-15-30)44(66)59-40(32-18-9-4-10-19-32)46(68)57-35(28-39(50)62)43(65)54-29/h2-10,14-19,29,33-38,40H,11-13,20-28H2,1H3,(H2,50,62)(H,54,65)(H,55,67)(H,56,64)(H,57,68)(H,58,63)(H,59,66)(H4,51,52,53)/t29-,33-,34-,35-,36-,37-,38+,40?/m0/s1

>  <IUPAC Name>  (1) 
2-[(3R,9S,12S,15S,21S,24S,27S)-9,21-dibenzyl-24-[3-(diaminomethylideneamino)propyl]-12-methyl-2,8,11,14,17,20,23,26-octaoxo-18-phenyl-1,7,10,13,16,19,22,25-octazatricyclo[25.3.0.03,7]triacontan-15-yl]acetamide

$$$$
