
     RDKit          3D

107111  0  0  0  0  0  0  0  0999 V2000
    4.6429   -5.9513    0.7543 N   0  0  0  0  0  0  0  0  0  0  0  0
    4.2025   -5.3142   -0.4599 C   0  0  0  0  0  0  0  0  0  0  0  0
    3.3514   -4.3517   -0.4331 N   0  0  0  0  0  0  0  0  0  0  0  0
    2.7743   -3.8388    0.8159 C   0  0  0  0  0  0  0  0  0  0  0  0
    3.6108   -2.7668    1.4094 C   0  0  0  0  0  0  0  0  0  0  0  0
    3.7834   -1.6117    0.5046 C   0  0  0  0  0  0  0  0  0  0  0  0
    2.5990   -0.8332    0.0824 C   0  0  1  0  0  0  0  0  0  0  0  0
    3.1014    0.2580   -0.8265 C   0  0  0  0  0  0  0  0  0  0  0  0
    2.5750    0.4341   -1.9397 O   0  0  0  0  0  0  0  0  0  0  0  0
    4.1766    1.1169   -0.4654 N   0  0  0  0  0  0  0  0  0  0  0  0
    4.5800    2.1222   -1.4083 C   0  0  2  0  0  0  0  0  0  0  0  0
    5.9564    1.6782   -1.8761 C   0  0  0  0  0  0  0  0  0  0  0  0
    6.3878    0.6160   -1.3628 O   0  0  0  0  0  0  0  0  0  0  0  0
    6.6797    2.4285   -2.8257 N   0  0  0  0  0  0  0  0  0  0  0  0
    4.7699    3.5080   -0.8655 C   0  0  0  0  0  0  0  0  0  0  0  0
    5.7752    3.6704    0.1760 C   0  0  0  0  0  0  0  0  0  0  0  0
    7.0783    4.1120   -0.0829 C   0  0  0  0  0  0  0  0  0  0  0  0
    7.7945    4.1449    1.0502 N   0  0  0  0  0  0  0  0  0  0  0  0
    7.0197    3.7412    2.0680 C   0  0  0  0  0  0  0  0  0  0  0  0
    5.7620    3.4441    1.5348 C   0  0  0  0  0  0  0  0  0  0  0  0
    4.7896    3.0176    2.3925 C   0  0  0  0  0  0  0  0  0  0  0  0
    5.0274    2.8823    3.7261 C   0  0  0  0  0  0  0  0  0  0  0  0
    6.2848    3.1811    4.2442 C   0  0  0  0  0  0  0  0  0  0  0  0
    7.3011    3.6181    3.4067 C   0  0  0  0  0  0  0  0  0  0  0  0
    1.5582   -1.5584   -0.6024 N   0  0  0  0  0  0  0  0  0  0  0  0
    0.1759   -1.4467   -0.3154 C   0  0  0  0  0  0  0  0  0  0  0  0
   -0.1193   -0.6139    0.6188 O   0  0  0  0  0  0  0  0  0  0  0  0
   -0.9124   -2.1593   -0.9444 C   0  0  1  0  0  0  0  0  0  0  0  0
   -2.2199   -1.8293   -0.3302 N   0  0  0  0  0  0  0  0  0  0  0  0
   -2.9339   -2.8060    0.4192 C   0  0  0  0  0  0  0  0  0  0  0  0
   -2.4480   -3.9660    0.5699 O   0  0  0  0  0  0  0  0  0  0  0  0
   -4.2515   -2.5567    1.0560 C   0  0  1  0  0  0  0  0  0  0  0  0
   -4.7727   -1.2427    0.8343 N   0  0  0  0  0  0  0  0  0  0  0  0
   -5.2310   -0.3429    1.8033 C   0  0  0  0  0  0  0  0  0  0  0  0
   -5.1978   -0.6824    3.0187 O   0  0  0  0  0  0  0  0  0  0  0  0
   -5.7580    0.9926    1.4844 C   0  0  0  0  0  0  0  0  0  0  0  0
   -4.7539    1.8670    0.7599 C   0  0  0  0  0  0  0  0  0  0  0  0
   -5.3532    3.1826    0.4713 C   0  0  0  0  0  0  0  0  0  0  0  0
   -6.0161    3.3426   -0.7461 C   0  0  0  0  0  0  0  0  0  0  0  0
   -6.6106    4.5330   -1.1079 C   0  0  0  0  0  0  0  0  0  0  0  0
   -6.5327    5.5740   -0.2266 C   0  0  0  0  0  0  0  0  0  0  0  0
   -5.8834    5.4428    0.9834 C   0  0  0  0  0  0  0  0  0  0  0  0
   -5.2907    4.2469    1.3382 C   0  0  0  0  0  0  0  0  0  0  0  0
   -6.1586    1.6137    2.6710 O   0  0  0  0  0  0  0  0  0  0  0  0
   -5.2368   -3.6151    0.5081 C   0  0  0  0  0  0  0  0  0  0  0  0
   -6.5688   -3.4344    1.1023 C   0  0  0  0  0  0  0  0  0  0  0  0
   -7.0280   -4.0044    2.2232 N   0  0  0  0  0  0  0  0  0  0  0  0
   -8.2892   -3.5974    2.4490 C   0  0  0  0  0  0  0  0  0  0  0  0
   -8.6330   -2.7556    1.4534 N   0  0  0  0  0  0  0  0  0  0  0  0
   -7.5651   -2.6528    0.6154 C   0  0  0  0  0  0  0  0  0  0  0  0
   -1.0244   -2.1873   -2.4209 C   0  0  0  0  0  0  0  0  0  0  0  0
   -1.1747   -0.9262   -3.1239 C   0  0  0  0  0  0  0  0  0  0  0  0
   -0.1743   -0.1895   -3.7134 C   0  0  0  0  0  0  0  0  0  0  0  0
   -0.3988    1.0139   -4.3486 C   0  0  0  0  0  0  0  0  0  0  0  0
   -1.6660    1.5509   -4.4266 C   0  0  0  0  0  0  0  0  0  0  0  0
   -2.6974    0.8267   -3.8394 C   0  0  0  0  0  0  0  0  0  0  0  0
   -2.4624   -0.3779   -3.2053 C   0  0  0  0  0  0  0  0  0  0  0  0
    4.6981   -5.7355   -1.7008 N   0  0  0  0  0  0  0  0  0  0  0  0
    3.9421   -6.4591    1.3718 H   0  0  0  0  0  0  0  0  0  0  0  0
    5.6660   -5.8989    1.0079 H   0  0  0  0  0  0  0  0  0  0  0  0
    1.7326   -3.5783    0.6016 H   0  0  0  0  0  0  0  0  0  0  0  0
    2.7741   -4.7672    1.4819 H   0  0  0  0  0  0  0  0  0  0  0  0
    3.2970   -2.4831    2.4395 H   0  0  0  0  0  0  0  0  0  0  0  0
    4.6350   -3.2273    1.5759 H   0  0  0  0  0  0  0  0  0  0  0  0
    4.3411   -1.9143   -0.4168 H   0  0  0  0  0  0  0  0  0  0  0  0
    4.4757   -0.8660    1.0179 H   0  0  0  0  0  0  0  0  0  0  0  0
    2.0997   -0.2839    0.9191 H   0  0  0  0  0  0  0  0  0  0  0  0
    4.6582    1.0155    0.4441 H   0  0  0  0  0  0  0  0  0  0  0  0
    3.9103    2.1161   -2.3031 H   0  0  0  0  0  0  0  0  0  0  0  0
    7.6911    2.1918   -2.9472 H   0  0  0  0  0  0  0  0  0  0  0  0
    6.1790    3.1757   -3.3557 H   0  0  0  0  0  0  0  0  0  0  0  0
    5.0318    4.1753   -1.7311 H   0  0  0  0  0  0  0  0  0  0  0  0
    3.7802    3.8525   -0.4717 H   0  0  0  0  0  0  0  0  0  0  0  0
    7.5046    4.4028   -1.0406 H   0  0  0  0  0  0  0  0  0  0  0  0
    8.8062    4.4351    1.1595 H   0  0  0  0  0  0  0  0  0  0  0  0
    3.8152    2.7919    1.9427 H   0  0  0  0  0  0  0  0  0  0  0  0
    4.2270    2.5413    4.3758 H   0  0  0  0  0  0  0  0  0  0  0  0
    6.5014    3.0828    5.2990 H   0  0  0  0  0  0  0  0  0  0  0  0
    8.2866    3.8492    3.8225 H   0  0  0  0  0  0  0  0  0  0  0  0
    1.8091   -2.2323   -1.3843 H   0  0  0  0  0  0  0  0  0  0  0  0
   -0.7747   -3.2523   -0.6468 H   0  0  0  0  0  0  0  0  0  0  0  0
   -2.6413   -0.8811   -0.4305 H   0  0  0  0  0  0  0  0  0  0  0  0
   -4.1695   -2.8214    2.1285 H   0  0  0  0  0  0  0  0  0  0  0  0
   -4.8162   -0.9182   -0.1770 H   0  0  0  0  0  0  0  0  0  0  0  0
   -6.6216    0.8689    0.8011 H   0  0  0  0  0  0  0  0  0  0  0  0
   -3.8937    1.9884    1.4319 H   0  0  0  0  0  0  0  0  0  0  0  0
   -4.4905    1.3849   -0.1890 H   0  0  0  0  0  0  0  0  0  0  0  0
   -6.0556    2.4805   -1.4251 H   0  0  0  0  0  0  0  0  0  0  0  0
   -7.1283    4.6320   -2.0751 H   0  0  0  0  0  0  0  0  0  0  0  0
   -7.0017    6.5245   -0.5046 H   0  0  0  0  0  0  0  0  0  0  0  0
   -5.8508    6.3070    1.6520 H   0  0  0  0  0  0  0  0  0  0  0  0
   -4.7891    4.1658    2.2850 H   0  0  0  0  0  0  0  0  0  0  0  0
   -7.1245    1.3429    2.7892 H   0  0  0  0  0  0  0  0  0  0  0  0
   -4.8274   -4.5838    0.8548 H   0  0  0  0  0  0  0  0  0  0  0  0
   -5.2187   -3.6048   -0.5997 H   0  0  0  0  0  0  0  0  0  0  0  0
   -6.4418   -4.6650    2.8002 H   0  0  0  0  0  0  0  0  0  0  0  0
   -8.8621   -3.9336    3.3038 H   0  0  0  0  0  0  0  0  0  0  0  0
   -7.6034   -2.0249   -0.2668 H   0  0  0  0  0  0  0  0  0  0  0  0
   -1.9345   -2.8123   -2.6595 H   0  0  0  0  0  0  0  0  0  0  0  0
   -0.1721   -2.8038   -2.8043 H   0  0  0  0  0  0  0  0  0  0  0  0
    0.8200   -0.6032   -3.6735 H   0  0  0  0  0  0  0  0  0  0  0  0
    0.4561    1.5420   -4.7974 H   0  0  0  0  0  0  0  0  0  0  0  0
   -1.8906    2.4807   -4.9068 H   0  0  0  0  0  0  0  0  0  0  0  0
   -3.7302    1.1886   -3.8590 H   0  0  0  0  0  0  0  0  0  0  0  0
   -3.2920   -0.9007   -2.7656 H   0  0  0  0  0  0  0  0  0  0  0  0
    5.2595   -6.6190   -1.7632 H   0  0  0  0  0  0  0  0  0  0  0  0
    4.5374   -5.2144   -2.5731 H   0  0  0  0  0  0  0  0  0  0  0  0
  1  2  1  0
  2  3  2  3
  3  4  1  0
  4  5  1  0
  5  6  1  0
  6  7  1  0
  7  8  1  0
  8  9  2  0
  8 10  1  0
 10 11  1  0
 11 12  1  0
 12 13  2  0
 12 14  1  0
 11 15  1  0
 15 16  1  0
 16 17  2  0
 17 18  1  0
 18 19  1  0
 19 20  2  0
 20 21  1  0
 21 22  2  0
 22 23  1  0
 23 24  2  0
  7 25  1  0
 25 26  1  0
 26 27  2  0
 26 28  1  0
 28 29  1  0
 29 30  1  0
 30 31  2  0
 30 32  1  0
 32 33  1  0
 33 34  1  0
 34 35  2  0
 34 36  1  0
 36 37  1  0
 37 38  1  0
 38 39  2  0
 39 40  1  0
 40 41  2  0
 41 42  1  0
 42 43  2  0
 36 44  1  0
 32 45  1  0
 45 46  1  0
 46 47  1  0
 47 48  1  0
 48 49  2  0
 49 50  1  0
 28 51  1  0
 51 52  1  0
 52 53  2  0
 53 54  1  0
 54 55  2  0
 55 56  1  0
 56 57  2  0
  2 58  1  0
 20 16  1  0
 43 38  1  0
 50 46  2  0
 57 52  1  0
 24 19  1  0
  1 59  1  0
  1 60  1  0
  4 61  1  0
  4 62  1  0
  5 63  1  0
  5 64  1  0
  6 65  1  0
  6 66  1  0
  7 67  1  1
 10 68  1  0
 11 69  1  6
 14 70  1  0
 14 71  1  0
 15 72  1  0
 15 73  1  0
 17 74  1  0
 18 75  1  0
 21 76  1  0
 22 77  1  0
 23 78  1  0
 24 79  1  0
 25 80  1  0
 28 81  1  1
 29 82  1  0
 32 83  1  1
 33 84  1  0
 36 85  1  0
 37 86  1  0
 37 87  1  0
 39 88  1  0
 40 89  1  0
 41 90  1  0
 42 91  1  0
 43 92  1  0
 44 93  1  0
 45 94  1  0
 45 95  1  0
 47 96  1  0
 48 97  1  0
 50 98  1  0
 51 99  1  0
 51100  1  0
 53101  1  0
 54102  1  0
 55103  1  0
 56104  1  0
 57105  1  0
 58106  1  0
 58107  1  0
M  END
>  <Ligand ID>  (1) 
LIG0002639

>  <Ligand>  (1) 
CHEMBL312998

>  <SMILES>  (1) 
NC(=NCCC[C@@H](C(=O)N[C@H](C(=O)N)Cc1c[nH]c2c1cccc2)NC(=O)[C@@H](NC(=O)[C@@H](NC(=O)C(Cc1ccccc1)O)Cc1[nH]cnc1)Cc1ccccc1)N

>  <CID>  (1) 
44322787.0

>  <ChEMBL ID>  (1) 
nan

>  <InChiKey>  (1) 
XVPBPJWOKGRCPR-TUJDOMBOSA-N

>  <InChi>  (1) 
InChI=1S/C41H49N11O6/c42-36(54)32(20-27-22-47-30-15-8-7-14-29(27)30)50-37(55)31(16-9-17-46-41(43)44)49-38(56)33(18-25-10-3-1-4-11-25)51-39(57)34(21-28-23-45-24-48-28)52-40(58)35(53)19-26-12-5-2-6-13-26/h1-8,10-15,22-24,31-35,47,53H,9,16-21H2,(H2,42,54)(H,45,48)(H,49,56)(H,50,55)(H,51,57)(H,52,58)(H4,43,44,46)/t31-,32-,33-,34-,35?/m0/s1

>  <IUPAC Name>  (1) 
(2S)-N-[(2S)-1-amino-3-(1H-indol-3-yl)-1-oxopropan-2-yl]-5-(diaminomethylideneamino)-2-[[(2S)-2-[[(2S)-2-[(2-hydroxy-3-phenylpropanoyl)amino]-3-(1H-imidazol-5-yl)propanoyl]amino]-3-phenylpropanoyl]amino]pentanamide

$$$$
