
     RDKit          3D

 29 31  0  0  0  0  0  0  0  0999 V2000
    1.9847    1.6936   -1.0686 C   0  0  0  0  0  0  0  0  0  0  0  0
    2.0004    0.3458   -0.4469 C   0  0  0  0  0  0  0  0  0  0  0  0
    3.2200   -0.2953   -0.2209 C   0  0  0  0  0  0  0  0  0  0  0  0
    3.2889   -1.5463    0.3527 C   0  0  0  0  0  0  0  0  0  0  0  0
    2.0924   -2.1406    0.6957 C   0  0  0  0  0  0  0  0  0  0  0  0
    0.8900   -1.5050    0.4713 C   0  0  0  0  0  0  0  0  0  0  0  0
    0.7943   -0.2473   -0.1040 C   0  0  0  0  0  0  0  0  0  0  0  0
   -0.5600    0.2151   -0.2464 C   0  0  2  0  0  0  0  0  0  0  0  0
   -0.9701    1.5544    0.1940 C   0  0  0  0  0  0  0  0  0  0  0  0
   -2.3908    1.6044    0.5794 N   0  0  0  0  0  0  0  0  0  0  0  0
   -3.1484    0.5798   -0.0995 C   0  0  0  0  0  0  0  0  0  0  0  0
   -2.7602   -0.7889    0.3879 C   0  0  0  0  0  0  0  0  0  0  0  0
   -1.3207   -0.8773    0.3207 N   0  0  0  0  0  0  0  0  0  0  0  0
   -0.4744   -1.9330    0.7546 C   0  0  0  0  0  0  0  0  0  0  0  0
   -0.7900   -3.0330    1.2820 O   0  0  0  0  0  0  0  0  0  0  0  0
    2.1616   -3.7314    1.4261 Cl  0  0  0  0  0  0  0  0  0  0  0  0
    2.9060    1.7509   -1.6917 H   0  0  0  0  0  0  0  0  0  0  0  0
    2.0721    2.5168   -0.3487 H   0  0  0  0  0  0  0  0  0  0  0  0
    1.1680    1.7988   -1.8143 H   0  0  0  0  0  0  0  0  0  0  0  0
    4.1384    0.2071   -0.5054 H   0  0  0  0  0  0  0  0  0  0  0  0
    4.2545   -1.9869    0.5007 H   0  0  0  0  0  0  0  0  0  0  0  0
   -0.7963    0.1315   -1.3524 H   0  0  0  0  0  0  0  0  0  0  0  0
   -0.8758    2.2678   -0.6524 H   0  0  0  0  0  0  0  0  0  0  0  0
   -0.4509    2.0118    1.0383 H   0  0  0  0  0  0  0  0  0  0  0  0
   -2.8181    2.5208    0.3027 H   0  0  0  0  0  0  0  0  0  0  0  0
   -3.1163    0.6381   -1.1932 H   0  0  0  0  0  0  0  0  0  0  0  0
   -4.2012    0.7369    0.2210 H   0  0  0  0  0  0  0  0  0  0  0  0
   -3.0835   -0.9119    1.4488 H   0  0  0  0  0  0  0  0  0  0  0  0
   -3.2146   -1.5765   -0.2315 H   0  0  0  0  0  0  0  0  0  0  0  0
  1  2  1  0
  2  3  2  0
  3  4  1  0
  4  5  2  0
  5  6  1  0
  6  7  2  0
  7  8  1  0
  8  9  1  0
  9 10  1  0
 10 11  1  0
 11 12  1  0
 12 13  1  0
 13 14  1  0
 14 15  2  0
  5 16  1  0
  7  2  1  0
 13  8  1  0
 14  6  1  0
  1 17  1  0
  1 18  1  0
  1 19  1  0
  3 20  1  0
  4 21  1  0
  8 22  1  6
  9 23  1  0
  9 24  1  0
 10 25  1  0
 11 26  1  0
 11 27  1  0
 12 28  1  0
 12 29  1  0
M  END
>  <Ligand ID>  (1) 
LIG0003689

>  <Ligand>  (1) 
CHEMBL223292

>  <SMILES>  (1) 
Cc1ccc(c2c1[C@@H]1CNCCN1C2=O)Cl

>  <CID>  (1) 
16115392.0

>  <ChEMBL ID>  (1) 
nan

>  <InChiKey>  (1) 
VVIBXDVSPAHSLA-VIFPVBQESA-N

>  <InChi>  (1) 
InChI=1S/C12H13ClN2O/c1-7-2-3-8(13)11-10(7)9-6-14-4-5-15(9)12(11)16/h2-3,9,14H,4-6H2,1H3/t9-/m0/s1

>  <IUPAC Name>  (1) 
(10bR)-7-chloro-10-methyl-2,3,4,10b-tetrahydro-1H-pyrazino[1,2-b]isoindol-6-one

$$$$
