
     RDKit          3D

 27 27  0  0  0  0  0  0  0  0999 V2000
    3.0942    0.9649    0.9457 N   0  0  0  0  0  0  0  0  0  0  0  0
    2.9275    0.4571   -0.3985 C   0  0  0  0  0  0  0  0  0  0  0  0
    1.6085   -0.2533   -0.6024 C   0  0  1  0  0  0  0  0  0  0  0  0
    1.3396   -1.4475    0.2557 C   0  0  0  0  0  0  0  0  0  0  0  0
    0.5883   -0.1629    0.4377 C   0  0  2  0  0  0  0  0  0  0  0  0
   -0.8374   -0.0923    0.1250 C   0  0  0  0  0  0  0  0  0  0  0  0
   -1.7246   -0.5634    1.0908 C   0  0  0  0  0  0  0  0  0  0  0  0
   -3.0772   -0.5525    0.8991 C   0  0  0  0  0  0  0  0  0  0  0  0
   -3.6388   -0.0769   -0.2561 C   0  0  0  0  0  0  0  0  0  0  0  0
   -2.7758    0.3971   -1.2311 C   0  0  0  0  0  0  0  0  0  0  0  0
   -1.3939    0.3828   -1.0274 C   0  0  0  0  0  0  0  0  0  0  0  0
   -0.6151    0.8726   -2.0452 O   0  0  0  0  0  0  0  0  0  0  0  0
    0.6911    0.0000    0.0000 Cl  0  0  0  0  0  0  0  0  0  0  0  0
    2.8495    1.9471    1.0829 H   0  0  0  0  0  0  0  0  0  0  0  0
    2.8929    0.3029    1.6992 H   0  0  0  0  0  0  0  0  0  0  0  0
    2.9582    1.3196   -1.0729 H   0  0  0  0  0  0  0  0  0  0  0  0
    3.7637   -0.2161   -0.6281 H   0  0  0  0  0  0  0  0  0  0  0  0
    1.3072   -0.2730   -1.6626 H   0  0  0  0  0  0  0  0  0  0  0  0
    2.1458   -1.7440    0.9514 H   0  0  0  0  0  0  0  0  0  0  0  0
    0.8624   -2.2939   -0.2672 H   0  0  0  0  0  0  0  0  0  0  0  0
    0.8841    0.4147    1.3623 H   0  0  0  0  0  0  0  0  0  0  0  0
   -1.3562   -0.9535    2.0270 H   0  0  0  0  0  0  0  0  0  0  0  0
   -3.7335   -0.9216    1.6605 H   0  0  0  0  0  0  0  0  0  0  0  0
   -4.7043   -0.0524   -0.4438 H   0  0  0  0  0  0  0  0  0  0  0  0
   -3.1794    0.7812   -2.1577 H   0  0  0  0  0  0  0  0  0  0  0  0
   -0.1858    1.7633   -1.9543 H   0  0  0  0  0  0  0  0  0  0  0  0
   -0.6911    0.0000    0.0000 H   0  0  0  0  0  0  0  0  0  0  0  0
  1  2  1  0
  2  3  1  0
  3  4  1  0
  4  5  1  0
  5  6  1  0
  6  7  2  0
  7  8  1  0
  8  9  2  0
  9 10  1  0
 10 11  2  0
 11 12  1  0
  5  3  1  0
 11  6  1  0
  1 14  1  0
  1 15  1  0
  2 16  1  0
  2 17  1  0
  3 18  1  6
  4 19  1  0
  4 20  1  0
  5 21  1  1
  7 22  1  0
  8 23  1  0
  9 24  1  0
 10 25  1  0
 12 26  1  0
 13 27  1  0
M  END
>  <Ligand ID>  (1) 
LIG0002395

>  <Ligand>  (1) 
CHEMBL501117

>  <SMILES>  (1) 
NC[C@H]1C[C@@H]1c1ccccc1O.Cl

>  <CID>  (1) 
44572760.0

>  <ChEMBL ID>  (1) 
nan

>  <InChiKey>  (1) 
MCWUEFGUKMGICK-JXLXBRSFSA-N

>  <InChi>  (1) 
InChI=1S/C10H13NO.ClH/c11-6-7-5-9(7)8-3-1-2-4-10(8)12;/h1-4,7,9,12H,5-6,11H2;1H/t7-,9+;/m1./s1

>  <IUPAC Name>  (1) 
2-[(1S,2S)-2-(aminomethyl)cyclopropyl]phenol;hydrochloride

$$$$
