
     RDKit          3D

 41 44  0  0  0  0  0  0  0  0999 V2000
    6.7144    2.8135   -0.0717 Cl  0  0  0  0  0  0  0  0  0  0  0  0
    5.6799    1.4165   -0.2990 C   0  0  0  0  0  0  0  0  0  0  0  0
    4.8865    1.3832   -1.4089 C   0  0  0  0  0  0  0  0  0  0  0  0
    4.0408    0.3437   -1.6877 C   0  0  0  0  0  0  0  0  0  0  0  0
    3.9922   -0.7293   -0.7912 C   0  0  0  0  0  0  0  0  0  0  0  0
    4.7953   -0.6938    0.3308 C   0  0  0  0  0  0  0  0  0  0  0  0
    5.6492    0.3660    0.6030 C   0  0  0  0  0  0  0  0  0  0  0  0
    4.7224   -2.0524    1.4491 Cl  0  0  0  0  0  0  0  0  0  0  0  0
    3.0788   -1.8664   -1.0795 C   0  0  0  0  0  0  0  0  0  0  0  0
    1.5813   -1.8187   -0.0314 S   0  0  0  0  0  0  0  0  0  0  0  0
    0.5912   -0.3884   -0.4497 C   0  0  0  0  0  0  0  0  0  0  0  0
    0.8439    0.5484   -1.3764 N   0  0  0  0  0  0  0  0  0  0  0  0
   -0.1310    1.4005   -1.3468 N   0  0  0  0  0  0  0  0  0  0  0  0
   -1.0092    1.0197   -0.4085 C   0  0  0  0  0  0  0  0  0  0  0  0
   -0.5718   -0.1094    0.1710 N   0  0  0  0  0  0  0  0  0  0  0  0
   -1.2023   -0.8870    1.2444 C   0  0  0  0  0  0  0  0  0  0  0  0
   -2.1090   -1.9112    0.6689 C   0  0  0  0  0  0  0  0  0  0  0  0
   -3.4455   -1.7159    0.3960 C   0  0  0  0  0  0  0  0  0  0  0  0
   -3.9675   -2.8868   -0.1315 C   0  0  0  0  0  0  0  0  0  0  0  0
   -2.8926   -3.7643   -0.1552 C   0  0  0  0  0  0  0  0  0  0  0  0
   -1.8532   -3.1506    0.3154 O   0  0  0  0  0  0  0  0  0  0  0  0
   -2.2676    1.6647   -0.0090 C   0  0  0  0  0  0  0  0  0  0  0  0
   -2.3303    2.2139    1.2582 C   0  0  0  0  0  0  0  0  0  0  0  0
   -3.4924    2.8181    1.6471 C   0  0  0  0  0  0  0  0  0  0  0  0
   -4.5744    2.8811    0.8041 C   0  0  0  0  0  0  0  0  0  0  0  0
   -4.4936    2.3276   -0.4567 C   0  0  0  0  0  0  0  0  0  0  0  0
   -3.3336    1.7258   -0.8420 N   0  0  0  0  0  0  0  0  0  0  0  0
    4.9028    2.2040   -2.1245 H   0  0  0  0  0  0  0  0  0  0  0  0
    3.4066    0.3240   -2.5807 H   0  0  0  0  0  0  0  0  0  0  0  0
    6.2812    0.3995    1.4813 H   0  0  0  0  0  0  0  0  0  0  0  0
    2.7642   -1.8168   -2.1416 H   0  0  0  0  0  0  0  0  0  0  0  0
    3.5882   -2.8354   -0.9549 H   0  0  0  0  0  0  0  0  0  0  0  0
   -1.7110   -0.2522    1.9793 H   0  0  0  0  0  0  0  0  0  0  0  0
   -0.4000   -1.4276    1.7972 H   0  0  0  0  0  0  0  0  0  0  0  0
   -4.0278   -0.8037    0.5563 H   0  0  0  0  0  0  0  0  0  0  0  0
   -4.9733   -3.1063   -0.4605 H   0  0  0  0  0  0  0  0  0  0  0  0
   -2.8925   -4.7994   -0.5046 H   0  0  0  0  0  0  0  0  0  0  0  0
   -1.4959    2.1677    1.9136 H   0  0  0  0  0  0  0  0  0  0  0  0
   -3.5345    3.2482    2.6460 H   0  0  0  0  0  0  0  0  0  0  0  0
   -5.4651    3.3718    1.1687 H   0  0  0  0  0  0  0  0  0  0  0  0
   -5.3446    2.3778   -1.1184 H   0  0  0  0  0  0  0  0  0  0  0  0
  1  2  1  0
  2  3  2  0
  3  4  1  0
  4  5  2  0
  5  6  1  0
  6  7  2  0
  6  8  1  0
  5  9  1  0
  9 10  1  0
 10 11  1  0
 11 12  2  0
 12 13  1  0
 13 14  2  0
 14 15  1  0
 15 16  1  0
 16 17  1  0
 17 18  2  0
 18 19  1  0
 19 20  2  0
 20 21  1  0
 14 22  1  0
 22 23  2  0
 23 24  1  0
 24 25  2  0
 25 26  1  0
 26 27  2  0
  7  2  1  0
 15 11  1  0
 21 17  1  0
 27 22  1  0
  3 28  1  0
  4 29  1  0
  7 30  1  0
  9 31  1  0
  9 32  1  0
 16 33  1  0
 16 34  1  0
 18 35  1  0
 19 36  1  0
 20 37  1  0
 23 38  1  0
 24 39  1  0
 25 40  1  0
 26 41  1  0
M  END
>  <Ligand ID>  (1) 
LIG0002761

>  <Ligand>  (1) 
SMR000043634

>  <SMILES>  (1) 
Clc1ccc(c(c1)Cl)CSc1nnc(n1Cc1ccco1)c1ccccn1

>  <CID>  (1) 
662944.0

>  <ChEMBL ID>  (1) 
nan

>  <InChiKey>  (1) 
NRHTZNKUVVSOLR-UHFFFAOYSA-N

>  <InChi>  (1) 
InChI=1S/C19H14Cl2N4OS/c20-14-7-6-13(16(21)10-14)12-27-19-24-23-18(17-5-1-2-8-22-17)25(19)11-15-4-3-9-26-15/h1-10H,11-12H2

>  <IUPAC Name>  (1) 
2-[5-[(2,4-dichlorophenyl)methylsulfanyl]-4-(furan-2-ylmethyl)-1,2,4-triazol-3-yl]pyridine

$$$$
