
     RDKit          3D

 34 36  0  0  0  0  0  0  0  0999 V2000
   -3.7309    2.8035   -1.2901 C   0  0  0  0  0  0  0  0  0  0  0  0
   -3.6817    1.6277   -2.0190 C   0  0  0  0  0  0  0  0  0  0  0  0
   -3.0392    0.4912   -1.5496 C   0  0  0  0  0  0  0  0  0  0  0  0
   -2.4418    0.5829   -0.3061 C   0  0  0  0  0  0  0  0  0  0  0  0
   -2.4881    1.7609    0.4301 C   0  0  0  0  0  0  0  0  0  0  0  0
   -3.1305    2.8517   -0.0714 N   0  0  0  0  0  0  0  0  0  0  0  0
   -1.7493   -0.5756    0.2465 C   0  0  0  0  0  0  0  0  0  0  0  0
   -2.3864   -1.7948    0.1477 C   0  0  0  0  0  0  0  0  0  0  0  0
   -1.7700   -2.9227    0.6569 C   0  0  0  0  0  0  0  0  0  0  0  0
   -0.5195   -2.8306    1.2635 C   0  0  0  0  0  0  0  0  0  0  0  0
    0.0771   -1.5707    1.3350 C   0  0  0  0  0  0  0  0  0  0  0  0
   -0.5062   -0.4387    0.8412 C   0  0  0  0  0  0  0  0  0  0  0  0
    0.0337    0.8246    0.8846 O   0  0  0  0  0  0  0  0  0  0  0  0
    1.2727    1.1494    1.4360 C   0  0  0  0  0  0  0  0  0  0  0  0
    2.4267    0.4668    0.7649 C   0  0  0  0  0  0  0  0  0  0  0  0
    2.4016   -0.2996   -0.2662 N   0  0  0  0  0  0  0  0  0  0  0  0
    3.7359   -0.7403   -0.5756 C   0  0  0  0  0  0  0  0  0  0  0  0
    4.6453    0.1333    0.2407 C   0  0  0  0  0  0  0  0  0  0  0  0
    3.7619    0.6317    1.2490 N   0  0  0  0  0  0  0  0  0  0  0  0
   -4.2414    3.6851   -1.6781 H   0  0  0  0  0  0  0  0  0  0  0  0
   -4.1529    1.5672   -2.9913 H   0  0  0  0  0  0  0  0  0  0  0  0
   -3.0092   -0.4255   -2.1344 H   0  0  0  0  0  0  0  0  0  0  0  0
   -2.0278    1.8546    1.4042 H   0  0  0  0  0  0  0  0  0  0  0  0
   -3.3578   -1.9090   -0.3158 H   0  0  0  0  0  0  0  0  0  0  0  0
   -2.2754   -3.8766    0.5760 H   0  0  0  0  0  0  0  0  0  0  0  0
   -0.0387   -3.7189    1.6623 H   0  0  0  0  0  0  0  0  0  0  0  0
    1.0416   -1.5134    1.8123 H   0  0  0  0  0  0  0  0  0  0  0  0
    1.2651    0.7879    2.5043 H   0  0  0  0  0  0  0  0  0  0  0  0
    1.4576    2.2404    1.4280 H   0  0  0  0  0  0  0  0  0  0  0  0
    3.9126   -0.6282   -1.6709 H   0  0  0  0  0  0  0  0  0  0  0  0
    3.8530   -1.8076   -0.2827 H   0  0  0  0  0  0  0  0  0  0  0  0
    5.5138   -0.4157    0.6542 H   0  0  0  0  0  0  0  0  0  0  0  0
    5.0647    0.9745   -0.3489 H   0  0  0  0  0  0  0  0  0  0  0  0
    4.0835    1.0345    2.1596 H   0  0  0  0  0  0  0  0  0  0  0  0
  1  2  2  0
  2  3  1  0
  3  4  2  0
  4  5  1  0
  5  6  2  0
  4  7  1  0
  7  8  2  0
  8  9  1  0
  9 10  2  0
 10 11  1  0
 11 12  2  0
 12 13  1  0
 13 14  1  0
 14 15  1  0
 15 16  2  0
 16 17  1  0
 17 18  1  0
 18 19  1  0
  6  1  1  0
 12  7  1  0
 19 15  1  0
  1 20  1  0
  2 21  1  0
  3 22  1  0
  5 23  1  0
  8 24  1  0
  9 25  1  0
 10 26  1  0
 11 27  1  0
 14 28  1  0
 14 29  1  0
 17 30  1  0
 17 31  1  0
 18 32  1  0
 18 33  1  0
 19 34  1  0
M  END
>  <Ligand ID>  (1) 
LIG0003197

>  <Ligand>  (1) 
CHEMBL356605

>  <SMILES>  (1) 
c1ccc(cn1)c1ccccc1OCC1=NCCN1

>  <CID>  (1) 
44362185.0

>  <ChEMBL ID>  (1) 
nan

>  <InChiKey>  (1) 
VARULOWOKPYQRB-UHFFFAOYSA-N

>  <InChi>  (1) 
InChI=1S/C15H15N3O/c1-2-6-14(19-11-15-17-8-9-18-15)13(5-1)12-4-3-7-16-10-12/h1-7,10H,8-9,11H2,(H,17,18)

>  <IUPAC Name>  (1) 
3-[2-(4,5-dihydro-1H-imidazol-2-ylmethoxy)phenyl]pyridine

$$$$
