
     RDKit          3D

201208  0  0  0  0  0  0  0  0999 V2000
    7.0254   -6.1101   -1.6186 N   0  0  0  0  0  0  0  0  0  0  0  0
    7.0733   -5.2632   -2.7870 C   0  0  0  0  0  0  0  0  0  0  0  0
    8.2186   -5.1959   -3.3679 N   0  0  0  0  0  0  0  0  0  0  0  0
    5.9114   -4.5723   -3.2353 N   0  0  0  0  0  0  0  0  0  0  0  0
    6.0577   -3.4746   -4.1196 C   0  0  0  0  0  0  0  0  0  0  0  0
    6.6970   -2.2753   -3.5847 C   0  0  0  0  0  0  0  0  0  0  0  0
    6.1129   -1.4817   -2.5119 C   0  0  0  0  0  0  0  0  0  0  0  0
    5.8883   -1.9159   -1.1274 C   0  0  2  0  0  0  0  0  0  0  0  0
    5.0138   -3.0209   -0.9438 N   0  0  0  0  0  0  0  0  0  0  0  0
    3.6052   -3.0411   -0.8587 C   0  0  0  0  0  0  0  0  0  0  0  0
    2.9808   -1.9998   -0.9233 O   0  0  0  0  0  0  0  0  0  0  0  0
    2.8007   -4.3108   -0.6801 C   0  0  1  0  0  0  0  0  0  0  0  0
    3.5824   -5.3987   -0.0540 C   0  0  0  0  0  0  0  0  0  0  0  0
    2.7573   -6.6441    0.1252 C   0  0  0  0  0  0  0  0  0  0  0  0
    2.0611   -6.8585    1.2962 C   0  0  0  0  0  0  0  0  0  0  0  0
    1.3262   -8.0187    1.4007 C   0  0  0  0  0  0  0  0  0  0  0  0
    1.2830   -8.9434    0.3694 C   0  0  0  0  0  0  0  0  0  0  0  0
    1.9903   -8.7142   -0.8065 C   0  0  0  0  0  0  0  0  0  0  0  0
    2.7369   -7.5468   -0.9275 C   0  0  0  0  0  0  0  0  0  0  0  0
    1.5013   -4.0650   -0.1282 N   0  0  0  0  0  0  0  0  0  0  0  0
    0.3281   -3.6677   -0.8488 C   0  0  0  0  0  0  0  0  0  0  0  0
    0.5167   -3.4233   -2.0406 O   0  0  0  0  0  0  0  0  0  0  0  0
   -0.9170   -3.6026   -0.0806 C   0  0  2  0  0  0  0  0  0  0  0  0
   -1.1660   -5.0209    0.5046 C   0  0  0  0  0  0  0  0  0  0  0  0
   -1.3461   -6.0391   -0.5127 C   0  0  0  0  0  0  0  0  0  0  0  0
   -1.5462   -7.3615   -0.1834 N   0  0  0  0  0  0  0  0  0  0  0  0
   -1.7091   -8.0793   -1.2812 C   0  0  0  0  0  0  0  0  0  0  0  0
   -1.6280   -7.2897   -2.3598 N   0  0  0  0  0  0  0  0  0  0  0  0
   -1.4045   -6.0332   -1.8798 C   0  0  0  0  0  0  0  0  0  0  0  0
   -2.0983   -3.2037   -0.7970 N   0  0  0  0  0  0  0  0  0  0  0  0
   -3.2352   -2.8092    0.0091 C   0  0  0  0  0  0  0  0  0  0  0  0
   -3.0355   -2.7968    1.2259 O   0  0  0  0  0  0  0  0  0  0  0  0
   -4.5415   -2.4576   -0.5649 C   0  0  1  0  0  0  0  0  0  0  0  0
   -5.5396   -2.5737    0.5364 N   0  0  0  0  0  0  0  0  0  0  0  0
   -6.5274   -3.5851    0.4357 C   0  0  0  0  0  0  0  0  0  0  0  0
   -6.5009   -4.3152   -0.5843 O   0  0  0  0  0  0  0  0  0  0  0  0
   -7.5541   -3.8137    1.4499 C   0  0  2  0  0  0  0  0  0  0  0  0
   -8.9517   -3.9636    0.9563 C   0  0  0  0  0  0  0  0  0  0  0  0
   -9.8015   -4.1939    2.1824 C   0  0  0  0  0  0  0  0  0  0  0  0
  -10.3800   -3.1601    2.8680 C   0  0  0  0  0  0  0  0  0  0  0  0
  -11.1379   -3.5021    3.9944 C   0  0  0  0  0  0  0  0  0  0  0  0
  -11.2924   -4.8134    4.3914 C   0  0  0  0  0  0  0  0  0  0  0  0
  -10.7103   -5.8549    3.7017 C   0  0  0  0  0  0  0  0  0  0  0  0
   -9.9618   -5.5249    2.5899 C   0  0  0  0  0  0  0  0  0  0  0  0
  -12.0507   -5.1287    5.5140 O   0  0  0  0  0  0  0  0  0  0  0  0
   -7.5255   -2.8756    2.5384 N   0  0  0  0  0  0  0  0  0  0  0  0
   -4.5709   -1.0189   -1.0571 C   0  0  0  0  0  0  0  0  0  0  0  0
   -4.5268   -0.0505    0.0086 C   0  0  0  0  0  0  0  0  0  0  0  0
   -3.9217   -0.2676    1.0518 O   0  0  0  0  0  0  0  0  0  0  0  0
   -5.1451    1.2577    0.0541 N   0  0  0  0  0  0  0  0  0  0  0  0
   -5.8404    1.6436   -1.1237 C   0  0  2  0  0  0  0  0  0  0  0  0
   -7.0067    0.7935   -1.3322 C   0  0  0  0  0  0  0  0  0  0  0  0
   -7.2589   -0.1475   -0.4805 O   0  0  0  0  0  0  0  0  0  0  0  0
   -7.9437    0.8672   -2.3847 N   0  0  0  0  0  0  0  0  0  0  0  0
   -5.0064    1.8396   -2.3227 C   0  0  0  0  0  0  0  0  0  0  0  0
   -5.8233    2.2135   -3.4906 C   0  0  0  0  0  0  0  0  0  0  0  0
   -6.2315    1.2995   -4.4634 C   0  0  0  0  0  0  0  0  0  0  0  0
   -7.0026    1.6868   -5.5308 C   0  0  0  0  0  0  0  0  0  0  0  0
   -7.3584    3.0136   -5.6049 C   0  0  0  0  0  0  0  0  0  0  0  0
   -6.9816    3.9572   -4.6705 C   0  0  0  0  0  0  0  0  0  0  0  0
   -6.2181    3.5524   -3.6219 C   0  0  0  0  0  0  0  0  0  0  0  0
   -8.1392    3.4675   -6.6622 O   0  0  0  0  0  0  0  0  0  0  0  0
   -5.0978    2.1271    1.1822 C   0  0  0  0  0  0  0  0  0  0  0  0
   -6.0045    3.3379    1.0338 C   0  0  0  0  0  0  0  0  0  0  0  0
   -3.8231    2.5199    1.7089 N   0  0  0  0  0  0  0  0  0  0  0  0
   -2.9686    3.5035    1.0709 C   0  0  0  0  0  0  0  0  0  0  0  0
   -3.4170    3.9772    0.0275 O   0  0  0  0  0  0  0  0  0  0  0  0
   -1.6634    3.9163    1.6158 C   0  0  1  0  0  0  0  0  0  0  0  0
   -1.0269    4.9086    0.7217 N   0  0  0  0  0  0  0  0  0  0  0  0
    0.3292    4.7533    0.3130 C   0  0  0  0  0  0  0  0  0  0  0  0
    0.8957    3.7472    0.7718 O   0  0  0  0  0  0  0  0  0  0  0  0
    1.0427    5.6957   -0.5888 C   0  0  1  0  0  0  0  0  0  0  0  0
    2.3861    5.2115   -0.8374 N   0  0  0  0  0  0  0  0  0  0  0  0
    3.5593    6.0099   -0.9559 C   0  0  0  0  0  0  0  0  0  0  0  0
    3.3767    7.2244   -0.9162 O   0  0  0  0  0  0  0  0  0  0  0  0
    4.8427    5.2928   -1.1256 C   0  0  1  0  0  0  0  0  0  0  0  0
    4.7926    3.9823   -0.5181 N   0  0  0  0  0  0  0  0  0  0  0  0
    5.7669    2.9596   -0.6106 C   0  0  0  0  0  0  0  0  0  0  0  0
    6.7471    3.1878   -1.3186 O   0  0  0  0  0  0  0  0  0  0  0  0
    5.5060    1.7079    0.1433 C   0  0  1  0  0  0  0  0  0  0  0  0
    6.1721    0.5473   -0.4066 N   0  0  0  0  0  0  0  0  0  0  0  0
    5.3971   -0.6750   -0.3769 C   0  0  0  0  0  0  0  0  0  0  0  0
    4.3711   -0.6164    0.2799 O   0  0  0  0  0  0  0  0  0  0  0  0
    5.8019    1.8677    1.6217 C   0  0  0  0  0  0  0  0  0  0  0  0
    7.1697    2.2210    1.9592 C   0  0  0  0  0  0  0  0  0  0  0  0
    7.6322    3.5260    2.0749 C   0  0  0  0  0  0  0  0  0  0  0  0
    8.9585    3.7485    2.4299 C   0  0  0  0  0  0  0  0  0  0  0  0
    9.8309    2.7112    2.6709 C   0  0  0  0  0  0  0  0  0  0  0  0
    9.3784    1.3967    2.5574 C   0  0  0  0  0  0  0  0  0  0  0  0
    8.0686    1.1885    2.2068 C   0  0  0  0  0  0  0  0  0  0  0  0
   11.2223    2.8967    3.0575 C   0  0  0  0  0  0  0  0  0  0  0  0
   11.5001    4.0269    3.8228 C   0  0  0  0  0  0  0  0  0  0  0  0
   12.8019    4.2730    4.2362 C   0  0  0  0  0  0  0  0  0  0  0  0
   13.8007    3.3974    3.8847 C   0  0  0  0  0  0  0  0  0  0  0  0
   13.5120    2.2876    3.1297 C   0  0  0  0  0  0  0  0  0  0  0  0
   12.2312    2.0231    2.7092 C   0  0  0  0  0  0  0  0  0  0  0  0
    4.9193    5.0601   -2.6794 C   0  0  0  0  0  0  0  0  0  0  0  0
    4.9315    6.3733   -3.3330 C   0  0  0  0  0  0  0  0  0  0  0  0
    4.7030    6.3982   -4.5819 O   0  0  0  0  0  0  0  0  0  0  0  0
    5.1742    7.6192   -2.7166 N   0  0  0  0  0  0  0  0  0  0  0  0
    0.2473    5.7460   -1.8951 C   0  0  0  0  0  0  0  0  0  0  0  0
   -1.8436    4.6823    2.9358 C   0  0  0  0  0  0  0  0  0  0  0  0
   -2.6392    5.9051    2.7795 C   0  0  0  0  0  0  0  0  0  0  0  0
   -1.9561    7.0671    2.4112 C   0  0  0  0  0  0  0  0  0  0  0  0
   -2.5984    8.2736    2.2403 C   0  0  0  0  0  0  0  0  0  0  0  0
   -3.9793    8.3758    2.4339 C   0  0  0  0  0  0  0  0  0  0  0  0
   -4.6382    7.2208    2.7972 C   0  0  0  0  0  0  0  0  0  0  0  0
   -3.9937    6.0112    2.9684 C   0  0  0  0  0  0  0  0  0  0  0  0
   -5.7182    1.3714    2.3301 C   0  0  0  0  0  0  0  0  0  0  0  0
   -4.9820    1.2366    3.3496 O   0  0  0  0  0  0  0  0  0  0  0  0
   -6.9649    0.8479    2.3449 O   0  0  0  0  0  0  0  0  0  0  0  0
    7.5475   -5.8783   -0.7498 H   0  0  0  0  0  0  0  0  0  0  0  0
    6.4439   -6.9987   -1.6338 H   0  0  0  0  0  0  0  0  0  0  0  0
    8.3946   -4.6264   -4.2154 H   0  0  0  0  0  0  0  0  0  0  0  0
    4.9571   -4.8698   -2.9393 H   0  0  0  0  0  0  0  0  0  0  0  0
    5.0284   -3.1431   -4.5234 H   0  0  0  0  0  0  0  0  0  0  0  0
    6.6282   -3.7974   -5.0569 H   0  0  0  0  0  0  0  0  0  0  0  0
    6.8779   -1.5779   -4.4919 H   0  0  0  0  0  0  0  0  0  0  0  0
    7.7975   -2.5186   -3.2717 H   0  0  0  0  0  0  0  0  0  0  0  0
    5.1012   -1.0199   -2.8952 H   0  0  0  0  0  0  0  0  0  0  0  0
    6.7104   -0.4882   -2.4864 H   0  0  0  0  0  0  0  0  0  0  0  0
    6.9131   -2.1412   -0.6444 H   0  0  0  0  0  0  0  0  0  0  0  0
    5.4484   -3.9554   -0.7945 H   0  0  0  0  0  0  0  0  0  0  0  0
    2.6798   -4.6146   -1.7948 H   0  0  0  0  0  0  0  0  0  0  0  0
    4.4312   -5.6473   -0.7509 H   0  0  0  0  0  0  0  0  0  0  0  0
    4.0354   -5.0627    0.8917 H   0  0  0  0  0  0  0  0  0  0  0  0
    2.0969   -6.1296    2.1051 H   0  0  0  0  0  0  0  0  0  0  0  0
    0.7696   -8.2363    2.2802 H   0  0  0  0  0  0  0  0  0  0  0  0
    0.7226   -9.8485    0.4294 H   0  0  0  0  0  0  0  0  0  0  0  0
    1.9804   -9.4086   -1.6301 H   0  0  0  0  0  0  0  0  0  0  0  0
    3.2821   -7.3867   -1.8535 H   0  0  0  0  0  0  0  0  0  0  0  0
    1.3750   -4.1732    0.8830 H   0  0  0  0  0  0  0  0  0  0  0  0
   -0.7989   -3.0123    0.8789 H   0  0  0  0  0  0  0  0  0  0  0  0
   -2.1013   -4.9206    1.1191 H   0  0  0  0  0  0  0  0  0  0  0  0
   -0.3269   -5.2401    1.1922 H   0  0  0  0  0  0  0  0  0  0  0  0
   -1.5698   -7.7701    0.7823 H   0  0  0  0  0  0  0  0  0  0  0  0
   -1.8805   -9.1316   -1.3277 H   0  0  0  0  0  0  0  0  0  0  0  0
   -1.3125   -5.2022   -2.5537 H   0  0  0  0  0  0  0  0  0  0  0  0
   -2.2557   -3.1541   -1.7930 H   0  0  0  0  0  0  0  0  0  0  0  0
   -4.8362   -3.1128   -1.3881 H   0  0  0  0  0  0  0  0  0  0  0  0
   -5.5112   -1.9303    1.3527 H   0  0  0  0  0  0  0  0  0  0  0  0
   -7.2959   -4.8134    1.9239 H   0  0  0  0  0  0  0  0  0  0  0  0
   -9.0713   -4.8524    0.3217 H   0  0  0  0  0  0  0  0  0  0  0  0
   -9.3603   -3.0423    0.4988 H   0  0  0  0  0  0  0  0  0  0  0  0
  -10.2480   -2.1479    2.5438 H   0  0  0  0  0  0  0  0  0  0  0  0
  -11.6159   -2.7087    4.5671 H   0  0  0  0  0  0  0  0  0  0  0  0
  -10.7958   -6.8876    3.9609 H   0  0  0  0  0  0  0  0  0  0  0  0
   -9.4820   -6.3301    2.0169 H   0  0  0  0  0  0  0  0  0  0  0  0
  -11.9250   -6.0111    6.0020 H   0  0  0  0  0  0  0  0  0  0  0  0
   -6.7100   -2.9358    3.1664 H   0  0  0  0  0  0  0  0  0  0  0  0
   -7.7899   -1.9076    2.2768 H   0  0  0  0  0  0  0  0  0  0  0  0
   -5.2791   -0.9803   -1.8547 H   0  0  0  0  0  0  0  0  0  0  0  0
   -3.5497   -0.9344   -1.5803 H   0  0  0  0  0  0  0  0  0  0  0  0
   -6.2701    2.7045   -0.9348 H   0  0  0  0  0  0  0  0  0  0  0  0
   -8.2036   -0.0287   -2.8856 H   0  0  0  0  0  0  0  0  0  0  0  0
   -8.3810    1.7960   -2.6575 H   0  0  0  0  0  0  0  0  0  0  0  0
   -4.2958    2.7203   -2.2086 H   0  0  0  0  0  0  0  0  0  0  0  0
   -4.4462    0.9482   -2.6130 H   0  0  0  0  0  0  0  0  0  0  0  0
   -5.8905    0.2771   -4.3026 H   0  0  0  0  0  0  0  0  0  0  0  0
   -7.2994    0.9537   -6.2628 H   0  0  0  0  0  0  0  0  0  0  0  0
   -7.2986    5.0017   -4.7850 H   0  0  0  0  0  0  0  0  0  0  0  0
   -5.9013    4.2817   -2.8631 H   0  0  0  0  0  0  0  0  0  0  0  0
   -8.9245    4.0832   -6.4980 H   0  0  0  0  0  0  0  0  0  0  0  0
   -5.6551    4.1168    0.3753 H   0  0  0  0  0  0  0  0  0  0  0  0
   -7.0585    3.0022    0.8851 H   0  0  0  0  0  0  0  0  0  0  0  0
   -6.0336    3.7730    2.0748 H   0  0  0  0  0  0  0  0  0  0  0  0
   -3.4216    2.1454    2.5590 H   0  0  0  0  0  0  0  0  0  0  0  0
   -0.9922    3.0874    1.8277 H   0  0  0  0  0  0  0  0  0  0  0  0
   -1.5010    5.7317    0.3581 H   0  0  0  0  0  0  0  0  0  0  0  0
    1.1046    6.7292   -0.2539 H   0  0  0  0  0  0  0  0  0  0  0  0
    2.4947    4.2073   -0.9641 H   0  0  0  0  0  0  0  0  0  0  0  0
    5.7022    5.9007   -0.9431 H   0  0  0  0  0  0  0  0  0  0  0  0
    3.9794    3.7587    0.0662 H   0  0  0  0  0  0  0  0  0  0  0  0
    4.3833    1.5334    0.1269 H   0  0  0  0  0  0  0  0  0  0  0  0
    7.0947    0.4726   -0.7907 H   0  0  0  0  0  0  0  0  0  0  0  0
    5.4333    0.9772    2.1478 H   0  0  0  0  0  0  0  0  0  0  0  0
    5.1418    2.7251    1.9497 H   0  0  0  0  0  0  0  0  0  0  0  0
    6.9531    4.3481    1.8856 H   0  0  0  0  0  0  0  0  0  0  0  0
    9.3511    4.7666    2.5291 H   0  0  0  0  0  0  0  0  0  0  0  0
   10.0548    0.5727    2.7433 H   0  0  0  0  0  0  0  0  0  0  0  0
    7.7323    0.1638    2.1227 H   0  0  0  0  0  0  0  0  0  0  0  0
   10.7021    4.7113    4.0944 H   0  0  0  0  0  0  0  0  0  0  0  0
   13.0286    5.1583    4.8399 H   0  0  0  0  0  0  0  0  0  0  0  0
   14.8255    3.6150    4.2253 H   0  0  0  0  0  0  0  0  0  0  0  0
   14.3566    1.6335    2.8848 H   0  0  0  0  0  0  0  0  0  0  0  0
   11.9984    1.1656    2.1255 H   0  0  0  0  0  0  0  0  0  0  0  0
    5.7712    4.4468   -2.9426 H   0  0  0  0  0  0  0  0  0  0  0  0
    3.9568    4.5715   -2.9380 H   0  0  0  0  0  0  0  0  0  0  0  0
    5.8772    7.7820   -1.9634 H   0  0  0  0  0  0  0  0  0  0  0  0
    4.6071    8.4563   -3.0385 H   0  0  0  0  0  0  0  0  0  0  0  0
   -0.5722    6.4682   -1.7183 H   0  0  0  0  0  0  0  0  0  0  0  0
   -0.2331    4.7825   -2.1081 H   0  0  0  0  0  0  0  0  0  0  0  0
    0.8696    6.1413   -2.7092 H   0  0  0  0  0  0  0  0  0  0  0  0
   -0.8442    4.9327    3.3390 H   0  0  0  0  0  0  0  0  0  0  0  0
   -2.3079    4.0195    3.6968 H   0  0  0  0  0  0  0  0  0  0  0  0
   -0.8915    7.0583    2.2517 H   0  0  0  0  0  0  0  0  0  0  0  0
   -2.0787    9.1841    1.9531 H   0  0  0  0  0  0  0  0  0  0  0  0
   -4.4550    9.3313    2.2940 H   0  0  0  0  0  0  0  0  0  0  0  0
   -5.7179    7.3147    2.9449 H   0  0  0  0  0  0  0  0  0  0  0  0
   -4.5186    5.1165    3.2587 H   0  0  0  0  0  0  0  0  0  0  0  0
   -7.4178    0.6710    3.2466 H   0  0  0  0  0  0  0  0  0  0  0  0
  1  2  1  0
  2  3  2  3
  2  4  1  0
  4  5  1  0
  5  6  1  0
  6  7  1  0
  7  8  1  0
  8  9  1  0
  9 10  1  0
 10 11  2  0
 10 12  1  0
 12 13  1  0
 13 14  1  0
 14 15  2  0
 15 16  1  0
 16 17  2  0
 17 18  1  0
 18 19  2  0
 12 20  1  0
 20 21  1  0
 21 22  2  0
 21 23  1  0
 23 24  1  0
 24 25  1  0
 25 26  1  0
 26 27  1  0
 27 28  2  0
 28 29  1  0
 23 30  1  0
 30 31  1  0
 31 32  2  0
 31 33  1  0
 33 34  1  0
 34 35  1  0
 35 36  2  0
 35 37  1  0
 37 38  1  0
 38 39  1  0
 39 40  2  0
 40 41  1  0
 41 42  2  0
 42 43  1  0
 43 44  2  0
 42 45  1  0
 37 46  1  0
 33 47  1  0
 47 48  1  0
 48 49  2  0
 48 50  1  0
 50 51  1  0
 51 52  1  0
 52 53  2  0
 52 54  1  0
 51 55  1  0
 55 56  1  0
 56 57  2  0
 57 58  1  0
 58 59  2  0
 59 60  1  0
 60 61  2  0
 59 62  1  0
 50 63  1  0
 63 64  1  0
 63 65  1  0
 65 66  1  0
 66 67  2  0
 66 68  1  0
 68 69  1  0
 69 70  1  0
 70 71  2  0
 70 72  1  0
 72 73  1  0
 73 74  1  0
 74 75  2  0
 74 76  1  0
 76 77  1  0
 77 78  1  0
 78 79  2  0
 78 80  1  0
 80 81  1  0
 81 82  1  0
 82 83  2  0
 80 84  1  0
 84 85  1  0
 85 86  2  0
 86 87  1  0
 87 88  2  0
 88 89  1  0
 89 90  2  0
 88 91  1  0
 91 92  2  0
 92 93  1  0
 93 94  2  0
 94 95  1  0
 95 96  2  0
 76 97  1  0
 97 98  1  0
 98 99  2  0
 98100  1  0
 72101  1  0
 68102  1  0
102103  1  0
103104  2  0
104105  1  0
105106  2  0
106107  1  0
107108  2  0
 63109  1  0
109110  2  0
109111  1  0
 82  8  1  0
 90 85  1  0
 96 91  1  0
108103  1  0
 19 14  1  0
 29 25  2  0
 44 39  1  0
 61 56  1  0
  1112  1  0
  1113  1  0
  3114  1  0
  4115  1  0
  5116  1  0
  5117  1  0
  6118  1  0
  6119  1  0
  7120  1  0
  7121  1  0
  8122  1  1
  9123  1  0
 12124  1  6
 13125  1  0
 13126  1  0
 15127  1  0
 16128  1  0
 17129  1  0
 18130  1  0
 19131  1  0
 20132  1  0
 23133  1  1
 24134  1  0
 24135  1  0
 26136  1  0
 27137  1  0
 29138  1  0
 30139  1  0
 33140  1  6
 34141  1  0
 37142  1  1
 38143  1  0
 38144  1  0
 40145  1  0
 41146  1  0
 43147  1  0
 44148  1  0
 45149  1  0
 46150  1  0
 46151  1  0
 47152  1  0
 47153  1  0
 51154  1  1
 54155  1  0
 54156  1  0
 55157  1  0
 55158  1  0
 57159  1  0
 58160  1  0
 60161  1  0
 61162  1  0
 62163  1  0
 64164  1  0
 64165  1  0
 64166  1  0
 65167  1  0
 68168  1  1
 69169  1  0
 72170  1  1
 73171  1  0
 76172  1  1
 77173  1  0
 80174  1  1
 81175  1  0
 84176  1  0
 84177  1  0
 86178  1  0
 87179  1  0
 89180  1  0
 90181  1  0
 92182  1  0
 93183  1  0
 94184  1  0
 95185  1  0
 96186  1  0
 97187  1  0
 97188  1  0
100189  1  0
100190  1  0
101191  1  0
101192  1  0
101193  1  0
102194  1  0
102195  1  0
104196  1  0
105197  1  0
106198  1  0
107199  1  0
108200  1  0
111201  1  0
M  END
>  <Ligand ID>  (1) 
LIG0001161

>  <Ligand>  (1) 
CHEMBL2096719

>  <SMILES>  (1) 
NC(=N)NCCC[C@@H]1NC(=O)[C@@H](Cc2ccccc2)NC(=O)[C@H](Cc2[nH]cnc2)NC(=O)[C@@H](NC(=O)[C@H](Cc2ccc(cc2)O)N)CC(=O)N([C@H](C(=O)N)Cc2ccc(cc2)O)C(C)(NC(=O)[C@@H](NC(=O)[C@@H](NC(=O)[C@@H](NC(=O)[C@@H](NC1=O)Cc1ccc(cc1)c1ccccc1)CC(=O)N)C)Cc1ccccc1)C(=O)O

>  <CID>  (1) 
91900696.0

>  <ChEMBL ID>  (1) 
nan

>  <InChiKey>  (1) 
YGTFIKMAJAIPOE-ROLYAUOSSA-N

>  <InChi>  (1) 
InChI=1S/C77H90N18O16/c1-43-66(101)88-58(35-45-15-8-4-9-16-45)74(109)94-77(2,75(110)111)95(62(65(80)100)37-48-24-30-53(97)31-25-48)64(99)40-61(89-67(102)54(78)33-46-22-28-52(96)29-23-46)73(108)92-59(38-51-41-83-42-85-51)72(107)91-56(34-44-13-6-3-7-14-44)70(105)87-55(19-12-32-84-76(81)82)68(103)90-57(71(106)93-60(39-63(79)98)69(104)86-43)36-47-20-26-50(27-21-47)49-17-10-5-11-18-49/h3-11,13-18,20-31,41-43,54-62,96-97H,12,19,32-40,78H2,1-2H3,(H2,79,98)(H2,80,100)(H,83,85)(H,86,104)(H,87,105)(H,88,101)(H,89,102)(H,90,103)(H,91,107)(H,92,108)(H,93,106)(H,94,109)(H,110,111)(H4,81,82,84)/t43-,54-,55-,56+,57-,58-,59-,60-,61-,62-,77?/m0/s1

>  <IUPAC Name>  (1) 
(5S,8S,11S,14S,17S,20R,23S,26S)-1-[(2S)-1-amino-3-(4-hydroxyphenyl)-1-oxopropan-2-yl]-26-[[(2S)-2-amino-3-(4-hydroxyphenyl)propanoyl]amino]-11-(2-amino-2-oxoethyl)-5,20-dibenzyl-17-(3-carbamimidamidopropyl)-23-(1H-imidazol-5-ylmethyl)-2,8-dimethyl-4,7,10,13,16,19,22,25,28-nonaoxo-14-[(4-phenylphenyl)methyl]-1,3,6,9,12,15,18,21,24-nonazacyclooctacosane-2-carboxylic acid

$$$$
