
     RDKit          3D

 40 41  0  0  0  0  0  0  0  0999 V2000
   -0.6554    2.4600   -1.7949 O   0  0  0  0  0  0  0  0  0  0  0  0
   -0.4339    1.8585   -0.5355 C   0  0  2  0  0  0  0  0  0  0  0  0
    0.1695    0.4863   -0.7366 C   0  0  1  0  0  0  0  0  0  0  0  0
    1.5009    0.4105    0.0237 C   0  0  0  0  0  0  0  0  0  0  0  0
    2.0750   -0.8308   -0.0873 O   0  0  0  0  0  0  0  0  0  0  0  0
    3.5406   -1.0002    0.7186 P   0  0  0  0  0  0  0  0  0  0  0  0
    3.3026   -1.9582    1.8753 O   0  0  0  0  0  0  0  0  0  0  0  0
    4.1249    0.4349    1.3410 O   0  0  0  0  0  0  0  0  0  0  0  0
    5.8188    0.4329    1.2239 P   0  0  0  0  0  0  0  0  0  0  0  0
    6.4183    1.5489    2.0792 O   0  0  0  0  0  0  0  0  0  0  0  0
    6.4526   -1.0428    1.7114 O   0  0  0  0  0  0  0  0  0  0  0  0
    6.2447    0.6880   -0.3920 O   0  0  0  0  0  0  0  0  0  0  0  0
    4.7195   -1.7048   -0.2706 O   0  0  0  0  0  0  0  0  0  0  0  0
   -0.7364   -0.4349   -0.2502 O   0  0  0  0  0  0  0  0  0  0  0  0
   -1.9680    0.1354   -0.5595 C   0  0  2  0  0  0  0  0  0  0  0  0
   -1.8017    1.5047    0.0621 C   0  0  2  0  0  0  0  0  0  0  0  0
   -2.7888    2.3907   -0.3282 O   0  0  0  0  0  0  0  0  0  0  0  0
   -3.1065   -0.5922   -0.1342 N   0  0  0  0  0  0  0  0  0  0  0  0
   -3.5917   -0.4462    1.1190 C   0  0  0  0  0  0  0  0  0  0  0  0
   -4.7033   -1.1580    1.5308 C   0  0  0  0  0  0  0  0  0  0  0  0
   -5.2979   -2.0165    0.6283 C   0  0  0  0  0  0  0  0  0  0  0  0
   -6.3118   -2.6868    0.9544 O   0  0  0  0  0  0  0  0  0  0  0  0
   -4.7830   -2.1410   -0.6302 N   0  0  0  0  0  0  0  0  0  0  0  0
   -3.6993   -1.4375   -1.0095 C   0  0  0  0  0  0  0  0  0  0  0  0
   -3.2199   -1.6201   -2.3380 N   0  0  0  0  0  0  0  0  0  0  0  0
    0.1691    2.4024   -2.3517 H   0  0  0  0  0  0  0  0  0  0  0  0
    0.1558    2.5138    0.1306 H   0  0  0  0  0  0  0  0  0  0  0  0
    0.3306    0.2316   -1.8038 H   0  0  0  0  0  0  0  0  0  0  0  0
    2.1717    1.1800   -0.4017 H   0  0  0  0  0  0  0  0  0  0  0  0
    1.3344    0.6465    1.0943 H   0  0  0  0  0  0  0  0  0  0  0  0
    6.2280   -1.3066    2.6204 H   0  0  0  0  0  0  0  0  0  0  0  0
    5.5022    0.4320   -1.0042 H   0  0  0  0  0  0  0  0  0  0  0  0
    4.3026   -2.1165   -1.0605 H   0  0  0  0  0  0  0  0  0  0  0  0
   -1.9345    0.3065   -1.6695 H   0  0  0  0  0  0  0  0  0  0  0  0
   -1.6443    1.4725    1.1611 H   0  0  0  0  0  0  0  0  0  0  0  0
   -3.5170    2.3088    0.3514 H   0  0  0  0  0  0  0  0  0  0  0  0
   -3.1257    0.2271    1.8278 H   0  0  0  0  0  0  0  0  0  0  0  0
   -5.1235   -1.0710    2.5236 H   0  0  0  0  0  0  0  0  0  0  0  0
   -2.4321   -2.2826   -2.5124 H   0  0  0  0  0  0  0  0  0  0  0  0
   -3.6872   -1.0697   -3.1066 H   0  0  0  0  0  0  0  0  0  0  0  0
  1  2  1  0
  2  3  1  0
  3  4  1  0
  4  5  1  0
  5  6  1  0
  6  7  2  0
  6  8  1  0
  8  9  1  0
  9 10  2  0
  9 11  1  0
  9 12  1  0
  6 13  1  0
  3 14  1  0
 14 15  1  0
 15 16  1  0
 16 17  1  0
 15 18  1  0
 18 19  1  0
 19 20  2  0
 20 21  1  0
 21 22  2  0
 21 23  1  0
 23 24  2  0
 24 25  1  0
 16  2  1  0
 24 18  1  0
  1 26  1  0
  2 27  1  1
  3 28  1  6
  4 29  1  0
  4 30  1  0
 11 31  1  0
 12 32  1  0
 13 33  1  0
 15 34  1  6
 16 35  1  1
 17 36  1  0
 19 37  1  0
 20 38  1  0
 25 39  1  0
 25 40  1  0
M  END
>  <Ligand ID>  (1) 
LIG0002806

>  <Ligand>  (1) 
CHEMBL1767415

>  <SMILES>  (1) 
O[C@@H]1[C@@H](COP(=O)(OP(=O)(O)O)O)O[C@H]([C@@H]1O)n1ccc(=O)nc1N

>  <CID>  (1) 
52952392.0

>  <ChEMBL ID>  (1) 
nan

>  <InChiKey>  (1) 
AFVKBBGGAGNWEE-XVFCMESISA-N

>  <InChi>  (1) 
InChI=1S/C9H15N3O11P2/c10-9-11-5(13)1-2-12(9)8-7(15)6(14)4(22-8)3-21-25(19,20)23-24(16,17)18/h1-2,4,6-8,14-15H,3H2,(H,19,20)(H2,10,11,13)(H2,16,17,18)/t4-,6-,7-,8-/m1/s1

>  <IUPAC Name>  (1) 
[(2R,3S,4R,5R)-5-(2-amino-4-oxopyrimidin-1-yl)-3,4-dihydroxyoxolan-2-yl]methyl phosphono hydrogen phosphate

$$$$
