
     RDKit          2D

163166  0  0  0  0  0  0  0  0999 V2000
   14.6516    3.8331    0.0000 C   0  0  0  0  0  0  0  0  0  0  0  0
   13.5369    2.8294    0.0000 N   0  0  0  0  0  0  0  0  0  0  0  0
   12.1103    3.2929    0.0000 C   0  0  0  0  0  0  0  0  0  0  0  0
   10.9956    2.2892    0.0000 N   0  0  0  0  0  0  0  0  0  0  0  0
    9.5690    2.7528    0.0000 C   0  0  0  0  0  0  0  0  0  0  0  0
    8.1424    3.2163    0.0000 C   0  0  0  0  0  0  0  0  0  0  0  0
    6.7158    3.6798    0.0000 C   0  0  0  0  0  0  0  0  0  0  0  0
    5.2892    4.1433    0.0000 C   0  0  0  0  0  0  0  0  0  0  0  0
    3.8627    4.6069    0.0000 C   0  0  0  0  0  0  0  0  0  0  0  0
    3.7674    5.6962    0.0000 O   0  0  0  0  0  0  0  0  0  0  0  0
    2.7479    3.6032    0.0000 N   0  0  0  0  0  0  0  0  0  0  0  0
    1.3213    4.0667    0.0000 C   0  0  0  0  0  0  0  0  0  0  0  0
    1.7849    5.4933    0.0000 C   0  0  0  0  0  0  0  0  0  0  0  0
    2.8188    5.8493    0.0000 O   0  0  0  0  0  0  0  0  0  0  0  0
    0.7812    6.6080    0.0000 N   0  0  0  0  0  0  0  0  0  0  0  0
    0.8578    2.6401    0.0000 C   0  0  0  0  0  0  0  0  0  0  0  0
    0.3943    1.2135    0.0000 C   0  0  0  0  0  0  0  0  0  0  0  0
    1.2760    0.0000    0.0000 C   0  0  0  0  0  0  0  0  0  0  0  0
    0.3943   -1.2135    0.0000 N   0  0  0  0  0  0  0  0  0  0  0  0
   -1.0323   -0.7500    0.0000 C   0  0  0  0  0  0  0  0  0  0  0  0
   -1.0323    0.7500    0.0000 C   0  0  0  0  0  0  0  0  0  0  0  0
   -2.3313    1.5000    0.0000 C   0  0  0  0  0  0  0  0  0  0  0  0
   -3.6304    0.7500    0.0000 C   0  0  0  0  0  0  0  0  0  0  0  0
   -3.6304   -0.7500    0.0000 C   0  0  0  0  0  0  0  0  0  0  0  0
   -2.3313   -1.5000    0.0000 C   0  0  0  0  0  0  0  0  0  0  0  0
    5.7528    5.5699    0.0000 N   0  0  0  0  0  0  0  0  0  0  0  0
    7.2200    5.8818    0.0000 C   0  0  0  0  0  0  0  0  0  0  0  0
    7.8885    5.3007    0.0000 O   0  0  0  0  0  0  0  0  0  0  0  0
    7.6835    7.3084    0.0000 C   0  0  0  0  0  0  0  0  0  0  0  0
    9.1101    6.8449    0.0000 N   0  0  0  0  0  0  0  0  0  0  0  0
   10.2248    7.8485    0.0000 C   0  0  0  0  0  0  0  0  0  0  0  0
   10.2592    8.8321    0.0000 O   0  0  0  0  0  0  0  0  0  0  0  0
   11.6514    7.3850    0.0000 N   0  0  0  0  0  0  0  0  0  0  0  0
   12.7661    8.3887    0.0000 N   0  0  0  0  0  0  0  0  0  0  0  0
   14.1927    7.9252    0.0000 C   0  0  0  0  0  0  0  0  0  0  0  0
   14.5046    6.4580    0.0000 O   0  0  0  0  0  0  0  0  0  0  0  0
   15.3074    8.9289    0.0000 C   0  0  0  0  0  0  0  0  0  0  0  0
   16.3111    7.8142    0.0000 N   0  0  0  0  0  0  0  0  0  0  0  0
   17.7783    8.1260    0.0000 C   0  0  0  0  0  0  0  0  0  0  0  0
   18.2419    9.5526    0.0000 O   0  0  0  0  0  0  0  0  0  0  0  0
   18.7820    7.0113    0.0000 C   0  0  0  0  0  0  0  0  0  0  0  0
   19.7857    5.8966    0.0000 C   0  0  0  0  0  0  0  0  0  0  0  0
   18.6710    4.8929    0.0000 O   0  0  0  0  0  0  0  0  0  0  0  0
   20.7894    4.7819    0.0000 C   0  0  0  0  0  0  0  0  0  0  0  0
   19.8967    8.0150    0.0000 N   0  0  0  0  0  0  0  0  0  0  0  0
   21.3233    7.5515    0.0000 C   0  0  0  0  0  0  0  0  0  0  0  0
   21.6794    6.5176    0.0000 O   0  0  0  0  0  0  0  0  0  0  0  0
   22.4380    8.5552    0.0000 C   0  0  0  0  0  0  0  0  0  0  0  0
   23.4417    7.4405    0.0000 N   0  0  0  0  0  0  0  0  0  0  0  0
   24.9090    7.7523    0.0000 C   0  0  0  0  0  0  0  0  0  0  0  0
   25.3725    9.1789    0.0000 O   0  0  0  0  0  0  0  0  0  0  0  0
   25.9127    6.6376    0.0000 C   0  0  0  0  0  0  0  0  0  0  0  0
   27.0274    7.6413    0.0000 N   0  0  0  0  0  0  0  0  0  0  0  0
   28.4540    7.1778    0.0000 C   0  0  0  0  0  0  0  0  0  0  0  0
   28.7658    5.7106    0.0000 O   0  0  0  0  0  0  0  0  0  0  0  0
   29.5687    8.1815    0.0000 C   0  0  0  0  0  0  0  0  0  0  0  0
   30.6834    9.1852    0.0000 C   0  0  0  0  0  0  0  0  0  0  0  0
   31.7981   10.1889    0.0000 C   0  0  0  0  0  0  0  0  0  0  0  0
   33.2247    9.7254    0.0000 C   0  0  0  0  0  0  0  0  0  0  0  0
   34.3394   10.7290    0.0000 C   0  0  0  0  0  0  0  0  0  0  0  0
   34.0275   12.1963    0.0000 C   0  0  0  0  0  0  0  0  0  0  0  0
   32.6010   12.6598    0.0000 C   0  0  0  0  0  0  0  0  0  0  0  0
   31.4862   11.6561    0.0000 C   0  0  0  0  0  0  0  0  0  0  0  0
   35.1423   13.2000    0.0000 O   0  0  0  0  0  0  0  0  0  0  0  0
   30.5724    7.0668    0.0000 N   0  0  0  0  0  0  0  0  0  0  0  0
   32.0396    7.3786    0.0000 C   0  0  0  0  0  0  0  0  0  0  0  0
   32.5031    8.8052    0.0000 O   0  0  0  0  0  0  0  0  0  0  0  0
   33.0433    6.2639    0.0000 C   0  0  0  0  0  0  0  0  0  0  0  0
   26.9164    5.5229    0.0000 C   0  0  0  0  0  0  0  0  0  0  0  0
   23.5528    9.5589    0.0000 C   0  0  0  0  0  0  0  0  0  0  0  0
   24.6675   10.5626    0.0000 C   0  0  0  0  0  0  0  0  0  0  0  0
   26.0941   10.0991    0.0000 O   0  0  0  0  0  0  0  0  0  0  0  0
   24.3556   12.0298    0.0000 N   0  0  0  0  0  0  0  0  0  0  0  0
   16.4221    9.9326    0.0000 C   0  0  0  0  0  0  0  0  0  0  0  0
   17.5368   10.9363    0.0000 C   0  0  0  0  0  0  0  0  0  0  0  0
   18.9634   10.4728    0.0000 C   0  0  0  0  0  0  0  0  0  0  0  0
   20.0782   11.4765    0.0000 C   0  0  0  0  0  0  0  0  0  0  0  0
   19.7663   12.9437    0.0000 C   0  0  0  0  0  0  0  0  0  0  0  0
   18.3397   13.4072    0.0000 C   0  0  0  0  0  0  0  0  0  0  0  0
   17.2250   12.4035    0.0000 C   0  0  0  0  0  0  0  0  0  0  0  0
    8.1470    8.7350    0.0000 C   0  0  0  0  0  0  0  0  0  0  0  0
    8.6106   10.1615    0.0000 C   0  0  0  0  0  0  0  0  0  0  0  0
    9.0741   11.5881    0.0000 C   0  0  0  0  0  0  0  0  0  0  0  0
   10.0371    9.6980    0.0000 C   0  0  0  0  0  0  0  0  0  0  0  0
   11.7984    4.7602    0.0000 N   0  0  0  0  0  0  0  0  0  0  0  0
   15.7663    4.8368    0.0000 H   0  0  0  0  0  0  0  0  0  0  0  0
   15.6553    2.7184    0.0000 H   0  0  0  0  0  0  0  0  0  0  0  0
   13.6479    4.9478    0.0000 H   0  0  0  0  0  0  0  0  0  0  0  0
   11.3074    0.8220    0.0000 H   0  0  0  0  0  0  0  0  0  0  0  0
    9.1055    1.3262    0.0000 H   0  0  0  0  0  0  0  0  0  0  0  0
   10.0325    4.1793    0.0000 H   0  0  0  0  0  0  0  0  0  0  0  0
    8.6559    4.3174    0.0000 H   0  0  0  0  0  0  0  0  0  0  0  0
    7.6789    1.7897    0.0000 H   0  0  0  0  0  0  0  0  0  0  0  0
    7.2953    4.6071    0.0000 H   0  0  0  0  0  0  0  0  0  0  0  0
    6.2523    2.2532    0.0000 H   0  0  0  0  0  0  0  0  0  0  0  0
    4.8257    2.7168    0.0000 H   0  0  0  0  0  0  0  0  0  0  0  0
    3.2363    2.1849    0.0000 H   0  0  0  0  0  0  0  0  0  0  0  0
   -0.1052    4.5302    0.0000 H   0  0  0  0  0  0  0  0  0  0  0  0
    1.2447    8.0346    0.0000 H   0  0  0  0  0  0  0  0  0  0  0  0
   -0.6860    6.2961    0.0000 H   0  0  0  0  0  0  0  0  0  0  0  0
    2.2173    2.0061    0.0000 H   0  0  0  0  0  0  0  0  0  0  0  0
   -0.5688    3.1036    0.0000 H   0  0  0  0  0  0  0  0  0  0  0  0
    2.7760    0.0000    0.0000 H   0  0  0  0  0  0  0  0  0  0  0  0
    0.8578   -2.6401    0.0000 H   0  0  0  0  0  0  0  0  0  0  0  0
   -2.3313    3.0000    0.0000 H   0  0  0  0  0  0  0  0  0  0  0  0
   -4.9294    1.5000    0.0000 H   0  0  0  0  0  0  0  0  0  0  0  0
   -4.9294   -1.5000    0.0000 H   0  0  0  0  0  0  0  0  0  0  0  0
   -2.3313   -3.0000    0.0000 H   0  0  0  0  0  0  0  0  0  0  0  0
    4.7491    6.6846    0.0000 H   0  0  0  0  0  0  0  0  0  0  0  0
    6.2569    7.7719    0.0000 H   0  0  0  0  0  0  0  0  0  0  0  0
    9.4220    5.3776    0.0000 H   0  0  0  0  0  0  0  0  0  0  0  0
   11.9633    5.9178    0.0000 H   0  0  0  0  0  0  0  0  0  0  0  0
   12.4542    9.8559    0.0000 H   0  0  0  0  0  0  0  0  0  0  0  0
   14.3037   10.0436    0.0000 H   0  0  0  0  0  0  0  0  0  0  0  0
   15.8476    6.3876    0.0000 H   0  0  0  0  0  0  0  0  0  0  0  0
   17.6673    6.0076    0.0000 H   0  0  0  0  0  0  0  0  0  0  0  0
   20.7513    6.4099    0.0000 H   0  0  0  0  0  0  0  0  0  0  0  0
   18.8017    3.3986    0.0000 H   0  0  0  0  0  0  0  0  0  0  0  0
   21.7931    3.6672    0.0000 H   0  0  0  0  0  0  0  0  0  0  0  0
   19.8054    3.6498    0.0000 H   0  0  0  0  0  0  0  0  0  0  0  0
   22.0182    5.6422    0.0000 H   0  0  0  0  0  0  0  0  0  0  0  0
   19.4084    9.4333    0.0000 H   0  0  0  0  0  0  0  0  0  0  0  0
   21.4344    9.6699    0.0000 H   0  0  0  0  0  0  0  0  0  0  0  0
   22.9782    6.0139    0.0000 H   0  0  0  0  0  0  0  0  0  0  0  0
   24.7979    5.6339    0.0000 H   0  0  0  0  0  0  0  0  0  0  0  0
   26.7155    9.1085    0.0000 H   0  0  0  0  0  0  0  0  0  0  0  0
   28.5650    9.2962    0.0000 H   0  0  0  0  0  0  0  0  0  0  0  0
   31.9270    8.3465    0.0000 H   0  0  0  0  0  0  0  0  0  0  0  0
   29.6797   10.2999    0.0000 H   0  0  0  0  0  0  0  0  0  0  0  0
   33.5366    8.2581    0.0000 H   0  0  0  0  0  0  0  0  0  0  0  0
   35.7660   10.2655    0.0000 H   0  0  0  0  0  0  0  0  0  0  0  0
   32.2891   14.1270    0.0000 H   0  0  0  0  0  0  0  0  0  0  0  0
   30.0597   12.1196    0.0000 H   0  0  0  0  0  0  0  0  0  0  0  0
   34.8304   14.6672    0.0000 H   0  0  0  0  0  0  0  0  0  0  0  0
   30.1088    5.6402    0.0000 H   0  0  0  0  0  0  0  0  0  0  0  0
   34.0470    5.1492    0.0000 H   0  0  0  0  0  0  0  0  0  0  0  0
   34.1580    7.2676    0.0000 H   0  0  0  0  0  0  0  0  0  0  0  0
   31.9286    5.2602    0.0000 H   0  0  0  0  0  0  0  0  0  0  0  0
   27.9201    4.4082    0.0000 H   0  0  0  0  0  0  0  0  0  0  0  0
   25.8016    4.5192    0.0000 H   0  0  0  0  0  0  0  0  0  0  0  0
   28.2408    6.2270    0.0000 H   0  0  0  0  0  0  0  0  0  0  0  0
   22.5491   10.6736    0.0000 H   0  0  0  0  0  0  0  0  0  0  0  0
   24.7964    8.7202    0.0000 H   0  0  0  0  0  0  0  0  0  0  0  0
   25.4703   13.0335    0.0000 H   0  0  0  0  0  0  0  0  0  0  0  0
   22.9290   12.4933    0.0000 H   0  0  0  0  0  0  0  0  0  0  0  0
   17.6657    9.0939    0.0000 H   0  0  0  0  0  0  0  0  0  0  0  0
   15.4184   11.0473    0.0000 H   0  0  0  0  0  0  0  0  0  0  0  0
   19.0941    8.9785    0.0000 H   0  0  0  0  0  0  0  0  0  0  0  0
   21.5047   11.0129    0.0000 H   0  0  0  0  0  0  0  0  0  0  0  0
   20.8810   13.9474    0.0000 H   0  0  0  0  0  0  0  0  0  0  0  0
   18.0278   14.8744    0.0000 H   0  0  0  0  0  0  0  0  0  0  0  0
   15.7984   12.8670    0.0000 H   0  0  0  0  0  0  0  0  0  0  0  0
    6.7204    9.1985    0.0000 H   0  0  0  0  0  0  0  0  0  0  0  0
    9.6195    8.4488    0.0000 H   0  0  0  0  0  0  0  0  0  0  0  0
    7.1840   10.6251    0.0000 H   0  0  0  0  0  0  0  0  0  0  0  0
    9.5376   13.0147    0.0000 H   0  0  0  0  0  0  0  0  0  0  0  0
    7.6475   12.0517    0.0000 H   0  0  0  0  0  0  0  0  0  0  0  0
   10.5465   11.3020    0.0000 H   0  0  0  0  0  0  0  0  0  0  0  0
   11.4637    9.2345    0.0000 H   0  0  0  0  0  0  0  0  0  0  0  0
   10.6711   11.0575    0.0000 H   0  0  0  0  0  0  0  0  0  0  0  0
    9.4032    8.3386    0.0000 H   0  0  0  0  0  0  0  0  0  0  0  0
   12.9131    5.7639    0.0000 H   0  0  0  0  0  0  0  0  0  0  0  0
   10.3718    5.2237    0.0000 H   0  0  0  0  0  0  0  0  0  0  0  0
  1  2  1  0
  2  3  2  3
  3  4  1  0
  4  5  1  0
  5  6  1  0
  6  7  1  0
  7  8  1  0
  8  9  1  0
  9 10  2  0
  9 11  1  0
 11 12  1  0
 12 13  1  0
 13 14  2  0
 13 15  1  0
 12 16  1  0
 16 17  1  0
 17 18  2  0
 18 19  1  0
 19 20  1  0
 20 21  2  0
 21 22  1  0
 22 23  2  0
 23 24  1  0
 24 25  2  0
  8 26  1  0
 26 27  1  0
 27 28  2  0
 27 29  1  0
 29 30  1  0
 30 31  1  0
 31 32  2  0
 31 33  1  0
 33 34  1  0
 34 35  1  0
 35 36  2  0
 35 37  1  0
 37 38  1  0
 38 39  1  0
 39 40  2  0
 39 41  1  0
 41 42  1  0
 42 43  1  0
 42 44  1  0
 41 45  1  0
 45 46  1  0
 46 47  2  0
 46 48  1  0
 48 49  1  0
 49 50  1  0
 50 51  2  0
 50 52  1  0
 52 53  1  0
 53 54  1  0
 54 55  2  0
 54 56  1  0
 56 57  1  0
 57 58  1  0
 58 59  2  0
 59 60  1  0
 60 61  2  0
 61 62  1  0
 62 63  2  0
 61 64  1  0
 56 65  1  0
 65 66  1  0
 66 67  2  0
 66 68  1  0
 52 69  1  0
 48 70  1  0
 70 71  1  0
 71 72  2  0
 71 73  1  0
 37 74  1  0
 74 75  1  0
 75 76  2  0
 76 77  1  0
 77 78  2  0
 78 79  1  0
 79 80  2  0
 29 81  1  0
 81 82  1  0
 82 83  1  0
 82 84  1  0
  3 85  1  0
 21 17  1  0
 63 58  1  0
 80 75  1  0
 25 20  1  0
  1 86  1  0
  1 87  1  0
  1 88  1  0
  4 89  1  0
  5 90  1  0
  5 91  1  0
  6 92  1  0
  6 93  1  0
  7 94  1  0
  7 95  1  0
  8 96  1  6
 11 97  1  0
 12 98  1  6
 15 99  1  0
 15100  1  0
 16101  1  0
 16102  1  0
 18103  1  0
 19104  1  0
 22105  1  0
 23106  1  0
 24107  1  0
 25108  1  0
 26109  1  0
 29110  1  1
 30111  1  0
 33112  1  0
 34113  1  0
 37114  1  1
 38115  1  0
 41116  1  6
 42117  1  6
 43118  1  0
 44119  1  0
 44120  1  0
 44121  1  0
 45122  1  0
 48123  1  1
 49124  1  0
 52125  1  1
 53126  1  0
 56127  1  6
 57128  1  0
 57129  1  0
 59130  1  0
 60131  1  0
 62132  1  0
 63133  1  0
 64134  1  0
 65135  1  0
 68136  1  0
 68137  1  0
 68138  1  0
 69139  1  0
 69140  1  0
 69141  1  0
 70142  1  0
 70143  1  0
 73144  1  0
 73145  1  0
 74146  1  0
 74147  1  0
 76148  1  0
 77149  1  0
 78150  1  0
 79151  1  0
 80152  1  0
 81153  1  0
 81154  1  0
 82155  1  0
 83156  1  0
 83157  1  0
 83158  1  0
 84159  1  0
 84160  1  0
 84161  1  0
 85162  1  0
 85163  1  0
M  END
>  <Ligand ID>  (1) 
LIG0005339

>  <Ligand>  (1) 
CHEMBL3904889

>  <SMILES>  (1) 
CN=C(NCCC[C@@H](C(=O)N[C@H](C(=O)N)Cc1c[nH]c2c1cccc2)NC(=O)[C@@H](NC(=O)NNC(=O)[C@@H](NC(=O)[C@H]([C@H](O)C)NC(=O)[C@@H](NC(=O)[C@H](NC(=O)[C@@H](Cc1ccc(cc1)O)NC(=O)C)C)CC(=O)N)Cc1ccccc1)CC(C)C)N

>  <CID>  (1) 
134135834.0

>  <ChEMBL ID>  (1) 
nan

>  <InChiKey>  (1) 
JXBWAELETYVLOH-HEWILHAVSA-N

>  <InChi>  (1) 
InChI=1S/C56H78N16O13/c1-29(2)23-41(51(81)65-39(17-12-22-61-55(59)60-6)49(79)66-40(47(58)77)26-35-28-62-38-16-11-10-15-37(35)38)69-56(85)72-71-53(83)43(24-33-13-8-7-9-14-33)68-54(84)46(31(4)73)70-52(82)44(27-45(57)76)67-48(78)30(3)63-50(80)42(64-32(5)74)25-34-18-20-36(75)21-19-34/h7-11,13-16,18-21,28-31,39-44,46,62,73,75H,12,17,22-27H2,1-6H3,(H2,57,76)(H2,58,77)(H,63,80)(H,64,74)(H,65,81)(H,66,79)(H,67,78)(H,68,84)(H,70,82)(H,71,83)(H3,59,60,61)(H2,69,72,85)/t30-,31-,39+,40+,41+,42-,43+,44+,46+/m1/s1

>  <IUPAC Name>  (1) 
(2S)-2-[[(2R)-2-[[(2R)-2-acetamido-3-(4-hydroxyphenyl)propanoyl]amino]propanoyl]amino]-N-[(2S,3R)-1-[[(2S)-1-[2-[[(2S)-1-[[(2S)-1-[[(2S)-1-amino-3-(1H-indol-3-yl)-1-oxopropan-2-yl]amino]-5-[(N'-methylcarbamimidoyl)amino]-1-oxopentan-2-yl]amino]-4-methyl-1-oxopentan-2-yl]carbamoyl]hydrazinyl]-1-oxo-3-phenylpropan-2-yl]amino]-3-hydroxy-1-oxobutan-2-yl]butanediamide

$$$$
