
     RDKit          3D

 27 26  0  0  0  0  0  0  0  0999 V2000
   -4.3162   -0.0374   -0.1706 C   0  0  0  0  0  0  0  0  0  0  0  0
   -2.8154   -0.0981   -0.4816 C   0  0  0  0  0  0  0  0  0  0  0  0
   -2.1014    0.0555    0.8131 C   0  0  0  0  0  0  0  0  0  0  0  0
   -0.6224    0.0232    0.7644 C   0  0  2  0  0  0  0  0  0  0  0  0
    0.0464    1.0644   -0.0608 C   0  0  0  0  0  0  0  0  0  0  0  0
    1.5279    0.8194    0.0564 C   0  0  0  0  0  0  0  0  0  0  0  0
    2.3069    1.8204    0.1685 O   0  0  0  0  0  0  0  0  0  0  0  0
    2.0792   -0.4429    0.0487 O   0  0  0  0  0  0  0  0  0  0  0  0
    3.4481   -0.7251    0.1563 C   0  0  0  0  0  0  0  0  0  0  0  0
    4.3252   -0.1523   -0.8931 C   0  0  0  0  0  0  0  0  0  0  0  0
   -0.1335   -1.2291    0.3842 O   0  0  0  0  0  0  0  0  0  0  0  0
   -4.7609   -0.9976   -0.5243 H   0  0  0  0  0  0  0  0  0  0  0  0
   -4.7903    0.8523   -0.6006 H   0  0  0  0  0  0  0  0  0  0  0  0
   -4.5091   -0.0159    0.9252 H   0  0  0  0  0  0  0  0  0  0  0  0
   -2.5844    0.7689   -1.1367 H   0  0  0  0  0  0  0  0  0  0  0  0
   -2.5577   -1.0250   -1.0289 H   0  0  0  0  0  0  0  0  0  0  0  0
   -2.4154   -0.8224    1.4523 H   0  0  0  0  0  0  0  0  0  0  0  0
   -2.4522    0.9717    1.3233 H   0  0  0  0  0  0  0  0  0  0  0  0
   -0.2668    0.1909    1.8233 H   0  0  0  0  0  0  0  0  0  0  0  0
   -0.1706    2.0982    0.2910 H   0  0  0  0  0  0  0  0  0  0  0  0
   -0.2411    1.0200   -1.1386 H   0  0  0  0  0  0  0  0  0  0  0  0
    3.8163   -0.3746    1.1653 H   0  0  0  0  0  0  0  0  0  0  0  0
    3.5521   -1.8365    0.1737 H   0  0  0  0  0  0  0  0  0  0  0  0
    3.9368   -0.1310   -1.9077 H   0  0  0  0  0  0  0  0  0  0  0  0
    5.2603   -0.7867   -0.9227 H   0  0  0  0  0  0  0  0  0  0  0  0
    4.7150    0.8388   -0.5209 H   0  0  0  0  0  0  0  0  0  0  0  0
   -0.2769   -1.8492    1.1550 H   0  0  0  0  0  0  0  0  0  0  0  0
  1  2  1  0
  2  3  1  0
  3  4  1  0
  4  5  1  0
  5  6  1  0
  6  7  2  0
  6  8  1  0
  8  9  1  0
  9 10  1  0
  4 11  1  0
  1 12  1  0
  1 13  1  0
  1 14  1  0
  2 15  1  0
  2 16  1  0
  3 17  1  0
  3 18  1  0
  4 19  1  1
  5 20  1  0
  5 21  1  0
  9 22  1  0
  9 23  1  0
 10 24  1  0
 10 25  1  0
 10 26  1  0
 11 27  1  0
M  END
>  <Ligand ID>  (1) 
LIG0000616

>  <Ligand>  (1) 
Ethyl (3R)-3-hydroxyhexanoate

>  <SMILES>  (1) 
CCC[C@H](CC(=O)OCC)O

>  <CID>  (1) 
440150.0

>  <ChEMBL ID>  (1) 
nan

>  <InChiKey>  (1) 
LYRIITRHDCNUHV-SSDOTTSWSA-N

>  <InChi>  (1) 
InChI=1S/C8H16O3/c1-3-5-7(9)6-8(10)11-4-2/h7,9H,3-6H2,1-2H3/t7-/m1/s1

>  <IUPAC Name>  (1) 
ethyl (3R)-3-hydroxyhexanoate

$$$$
