
     RDKit          3D

 52 54  0  0  0  0  0  0  0  0999 V2000
    2.4263   -3.0950    1.5144 C   0  0  0  0  0  0  0  0  0  0  0  0
    1.9188   -1.6794    1.0501 C   0  0  2  0  0  0  0  0  0  0  0  0
    0.4390   -1.7707    1.1690 C   0  0  0  0  0  0  0  0  0  0  0  0
   -0.3161   -0.5937    0.8676 N   0  0  0  0  0  0  0  0  0  0  0  0
   -1.7575   -0.7281    0.8460 C   0  0  0  0  0  0  0  0  0  0  0  0
   -2.3058   -1.9556    1.1277 C   0  0  0  0  0  0  0  0  0  0  0  0
   -3.6765   -2.0603    1.0954 C   0  0  0  0  0  0  0  0  0  0  0  0
   -4.4687   -0.9463    0.7848 C   0  0  0  0  0  0  0  0  0  0  0  0
   -3.9468    0.2792    0.5000 C   0  0  0  0  0  0  0  0  0  0  0  0
   -2.5446    0.3576    0.5418 C   0  0  0  0  0  0  0  0  0  0  0  0
   -4.6602    1.4623    0.0796 C   0  0  0  0  0  0  0  0  0  0  0  0
   -4.1321    2.6793    0.2797 O   0  0  0  0  0  0  0  0  0  0  0  0
   -4.8956    3.6221   -0.1530 C   0  0  0  0  0  0  0  0  0  0  0  0
   -6.0077    3.0126   -0.6799 C   0  0  0  0  0  0  0  0  0  0  0  0
   -5.8740    1.6212   -0.5423 C   0  0  0  0  0  0  0  0  0  0  0  0
   -6.8213    0.7005   -1.0914 C   0  0  0  0  0  0  0  0  0  0  0  0
   -7.9193    1.1936   -1.5401 O   0  0  0  0  0  0  0  0  0  0  0  0
   -6.7291   -0.6621   -1.2199 O   0  0  0  0  0  0  0  0  0  0  0  0
    2.3308   -1.5378   -0.3133 N   0  0  0  0  0  0  0  0  0  0  0  0
    1.9762   -0.3544   -1.0217 C   0  0  0  0  0  0  0  0  0  0  0  0
    2.6202    0.9094   -0.5298 C   0  0  1  0  0  0  0  0  0  0  0  0
    4.0950    0.8612   -0.5429 C   0  0  0  0  0  0  0  0  0  0  0  0
    4.8584   -0.2166   -0.8830 C   0  0  0  0  0  0  0  0  0  0  0  0
    6.2475   -0.1789   -0.8586 C   0  0  0  0  0  0  0  0  0  0  0  0
    6.8995    0.9552   -0.4883 C   0  0  0  0  0  0  0  0  0  0  0  0
    6.1498    2.0563   -0.1409 C   0  0  0  0  0  0  0  0  0  0  0  0
    4.7640    2.0159   -0.1659 C   0  0  0  0  0  0  0  0  0  0  0  0
    6.9898    3.5148    0.3346 Cl  0  0  0  0  0  0  0  0  0  0  0  0
    2.1773    2.0254   -1.2629 O   0  0  0  0  0  0  0  0  0  0  0  0
    3.5146   -3.1143    1.4513 H   0  0  0  0  0  0  0  0  0  0  0  0
    1.8911   -3.7937    0.8423 H   0  0  0  0  0  0  0  0  0  0  0  0
    2.0135   -3.2272    2.5267 H   0  0  0  0  0  0  0  0  0  0  0  0
    2.3732   -0.9080    1.6909 H   0  0  0  0  0  0  0  0  0  0  0  0
    0.0505   -2.6021    0.5086 H   0  0  0  0  0  0  0  0  0  0  0  0
    0.1214   -2.1148    2.1986 H   0  0  0  0  0  0  0  0  0  0  0  0
    0.0610    0.3547    0.6867 H   0  0  0  0  0  0  0  0  0  0  0  0
   -1.7517   -2.8411    1.3736 H   0  0  0  0  0  0  0  0  0  0  0  0
   -4.1410   -3.0033    1.3097 H   0  0  0  0  0  0  0  0  0  0  0  0
   -5.5203   -1.1118    0.8348 H   0  0  0  0  0  0  0  0  0  0  0  0
   -2.0396    1.2903    0.3313 H   0  0  0  0  0  0  0  0  0  0  0  0
   -4.6624    4.6835   -0.0911 H   0  0  0  0  0  0  0  0  0  0  0  0
   -6.8215    3.5702   -1.1164 H   0  0  0  0  0  0  0  0  0  0  0  0
   -7.0244   -1.0824   -2.1016 H   0  0  0  0  0  0  0  0  0  0  0  0
    2.1062   -2.3674   -0.9051 H   0  0  0  0  0  0  0  0  0  0  0  0
    2.4562   -0.4785   -2.0803 H   0  0  0  0  0  0  0  0  0  0  0  0
    0.9113   -0.2617   -1.2991 H   0  0  0  0  0  0  0  0  0  0  0  0
    2.3257    1.0982    0.5355 H   0  0  0  0  0  0  0  0  0  0  0  0
    4.4203   -1.1481   -1.1933 H   0  0  0  0  0  0  0  0  0  0  0  0
    6.8210   -1.0657   -1.1380 H   0  0  0  0  0  0  0  0  0  0  0  0
    7.9861    0.9451   -0.4825 H   0  0  0  0  0  0  0  0  0  0  0  0
    4.2625    2.9270    0.1244 H   0  0  0  0  0  0  0  0  0  0  0  0
    2.8092    2.7634   -1.2767 H   0  0  0  0  0  0  0  0  0  0  0  0
  1  2  1  0
  2  3  1  0
  3  4  1  0
  4  5  1  0
  5  6  2  0
  6  7  1  0
  7  8  2  0
  8  9  1  0
  9 10  2  0
  9 11  1  0
 11 12  1  0
 12 13  1  0
 13 14  2  0
 14 15  1  0
 15 16  1  0
 16 17  2  0
 16 18  1  0
  2 19  1  0
 19 20  1  0
 20 21  1  0
 21 22  1  0
 22 23  2  0
 23 24  1  0
 24 25  2  0
 25 26  1  0
 26 27  2  0
 26 28  1  0
 21 29  1  0
 10  5  1  0
 15 11  2  0
 27 22  1  0
  1 30  1  0
  1 31  1  0
  1 32  1  0
  2 33  1  1
  3 34  1  0
  3 35  1  0
  4 36  1  0
  6 37  1  0
  7 38  1  0
  8 39  1  0
 10 40  1  0
 13 41  1  0
 14 42  1  0
 18 43  1  0
 19 44  1  0
 20 45  1  0
 20 46  1  0
 21 47  1  1
 23 48  1  0
 24 49  1  0
 25 50  1  0
 27 51  1  0
 29 52  1  0
M  END
>  <Ligand ID>  (1) 
LIG0002252

>  <Ligand>  (1) 
CHEMBL245673

>  <SMILES>  (1) 
C[C@H](CNc1cccc(c1)c1occc1C(=O)O)NC[C@@H](c1cccc(c1)Cl)O

>  <CID>  (1) 
9888047.0

>  <ChEMBL ID>  (1) 
nan

>  <InChiKey>  (1) 
BQYBTKTZDVRZNT-VLIAUNLRSA-N

>  <InChi>  (1) 
InChI=1S/C22H23ClN2O4/c1-14(24-13-20(26)15-4-2-6-17(23)10-15)12-25-18-7-3-5-16(11-18)21-19(22(27)28)8-9-29-21/h2-11,14,20,24-26H,12-13H2,1H3,(H,27,28)/t14-,20+/m1/s1

>  <IUPAC Name>  (1) 
2-[3-[[(2R)-2-[[(2R)-2-(3-chlorophenyl)-2-hydroxyethyl]amino]propyl]amino]phenyl]furan-3-carboxylic acid

$$$$
