
     RDKit          3D

 62 64  0  0  0  0  0  0  0  0999 V2000
   -7.4442   -0.5032   -0.5962 C   0  0  0  0  0  0  0  0  0  0  0  0
   -6.5905   -1.3516    0.2863 C   0  0  0  0  0  0  0  0  0  0  0  0
   -5.9726   -0.6743    1.4551 C   0  0  0  0  0  0  0  0  0  0  0  0
   -5.0895    0.4636    1.1641 C   0  0  0  0  0  0  0  0  0  0  0  0
   -3.7407    0.1536    0.9407 C   0  0  0  0  0  0  0  0  0  0  0  0
   -2.8113    1.0989    0.5848 C   0  0  0  0  0  0  0  0  0  0  0  0
   -3.2151    2.4006    0.4403 C   0  0  0  0  0  0  0  0  0  0  0  0
   -4.5370    2.7037    0.6608 C   0  0  0  0  0  0  0  0  0  0  0  0
   -5.4927    1.7654    1.0229 C   0  0  0  0  0  0  0  0  0  0  0  0
   -6.8229    2.2586    1.3045 C   0  0  0  0  0  0  0  0  0  0  0  0
   -7.0984    3.4784    1.1058 O   0  0  0  0  0  0  0  0  0  0  0  0
   -7.8753    1.4983    1.7966 O   0  0  0  0  0  0  0  0  0  0  0  0
   -1.4179    0.7546    0.3572 C   0  0  0  0  0  0  0  0  0  0  0  0
   -0.4702    1.7266    0.6676 C   0  0  0  0  0  0  0  0  0  0  0  0
    0.8684    1.4866    0.4848 C   0  0  0  0  0  0  0  0  0  0  0  0
    1.2526    0.2673   -0.0109 C   0  0  0  0  0  0  0  0  0  0  0  0
    0.3651   -0.7333   -0.3371 C   0  0  0  0  0  0  0  0  0  0  0  0
   -0.9926   -0.4563   -0.1385 C   0  0  0  0  0  0  0  0  0  0  0  0
    2.7566    0.0596   -0.1827 C   0  0  0  0  0  0  0  0  0  0  0  0
    3.0562    0.5635   -1.5673 C   0  0  0  0  0  0  0  0  0  0  0  0
    4.3687    0.5247   -1.9377 N   0  0  0  0  0  0  0  0  0  0  0  0
    5.2334   -0.4751   -2.2513 C   0  0  0  0  0  0  0  0  0  0  0  0
    5.7877   -1.4764   -1.3205 C   0  0  1  0  0  0  0  0  0  0  0  0
    6.8014   -0.9419   -0.3608 C   0  0  0  0  0  0  0  0  0  0  0  0
    7.1443    0.3872   -0.2905 C   0  0  0  0  0  0  0  0  0  0  0  0
    8.0975    0.7771    0.6320 C   0  0  0  0  0  0  0  0  0  0  0  0
    8.6958   -0.1601    1.4715 C   0  0  0  0  0  0  0  0  0  0  0  0
    8.3465   -1.4953    1.3956 C   0  0  0  0  0  0  0  0  0  0  0  0
    7.3957   -1.8897    0.4765 C   0  0  0  0  0  0  0  0  0  0  0  0
    4.9146   -2.3372   -0.6996 O   0  0  0  0  0  0  0  0  0  0  0  0
   -5.5641   -2.1467   -0.5214 C   0  0  0  0  0  0  0  0  0  0  0  0
   -6.9194    0.4509   -0.8789 H   0  0  0  0  0  0  0  0  0  0  0  0
   -8.4332   -0.3315   -0.1301 H   0  0  0  0  0  0  0  0  0  0  0  0
   -7.6823   -1.0165   -1.5652 H   0  0  0  0  0  0  0  0  0  0  0  0
   -7.2822   -2.1619    0.6860 H   0  0  0  0  0  0  0  0  0  0  0  0
   -6.7959   -0.4339    2.1877 H   0  0  0  0  0  0  0  0  0  0  0  0
   -5.3629   -1.4355    2.0573 H   0  0  0  0  0  0  0  0  0  0  0  0
   -3.3889   -0.8806    1.0477 H   0  0  0  0  0  0  0  0  0  0  0  0
   -2.5008    3.1872    0.1537 H   0  0  0  0  0  0  0  0  0  0  0  0
   -4.8010    3.7663    0.5286 H   0  0  0  0  0  0  0  0  0  0  0  0
   -8.8358    1.8625    1.8109 H   0  0  0  0  0  0  0  0  0  0  0  0
   -0.7471    2.7008    1.0629 H   0  0  0  0  0  0  0  0  0  0  0  0
    1.5919    2.2643    0.7358 H   0  0  0  0  0  0  0  0  0  0  0  0
    0.7050   -1.6798   -0.7253 H   0  0  0  0  0  0  0  0  0  0  0  0
   -1.7394   -1.2055   -0.3776 H   0  0  0  0  0  0  0  0  0  0  0  0
    2.8770   -1.0241   -0.0360 H   0  0  0  0  0  0  0  0  0  0  0  0
    3.2797    0.6273    0.5955 H   0  0  0  0  0  0  0  0  0  0  0  0
    2.7046    1.6633   -1.5853 H   0  0  0  0  0  0  0  0  0  0  0  0
    2.3293    0.0991   -2.3101 H   0  0  0  0  0  0  0  0  0  0  0  0
    4.7602    1.4657   -2.2831 H   0  0  0  0  0  0  0  0  0  0  0  0
    4.7550   -1.1223   -3.0969 H   0  0  0  0  0  0  0  0  0  0  0  0
    6.1417   -0.0870   -2.8383 H   0  0  0  0  0  0  0  0  0  0  0  0
    6.4226   -2.1690   -1.9836 H   0  0  0  0  0  0  0  0  0  0  0  0
    6.6861    1.1110   -0.9361 H   0  0  0  0  0  0  0  0  0  0  0  0
    8.4211    1.8115    0.7474 H   0  0  0  0  0  0  0  0  0  0  0  0
    9.4538    0.1440    2.2072 H   0  0  0  0  0  0  0  0  0  0  0  0
    8.8005   -2.2434    2.0410 H   0  0  0  0  0  0  0  0  0  0  0  0
    7.1278   -2.9458    0.4245 H   0  0  0  0  0  0  0  0  0  0  0  0
    4.5564   -2.9901   -1.3491 H   0  0  0  0  0  0  0  0  0  0  0  0
   -6.1336   -2.6264   -1.3571 H   0  0  0  0  0  0  0  0  0  0  0  0
   -5.1684   -2.9990    0.0730 H   0  0  0  0  0  0  0  0  0  0  0  0
   -4.7713   -1.5288   -0.9396 H   0  0  0  0  0  0  0  0  0  0  0  0
  1  2  1  0
  2  3  1  0
  3  4  1  0
  4  5  2  0
  5  6  1  0
  6  7  2  0
  7  8  1  0
  8  9  2  0
  9 10  1  0
 10 11  2  0
 10 12  1  0
  6 13  1  0
 13 14  2  0
 14 15  1  0
 15 16  2  0
 16 17  1  0
 17 18  2  0
 16 19  1  0
 19 20  1  0
 20 21  1  0
 21 22  1  0
 22 23  1  0
 23 24  1  0
 24 25  2  0
 25 26  1  0
 26 27  2  0
 27 28  1  0
 28 29  2  0
 23 30  1  0
  2 31  1  0
  9  4  1  0
 18 13  1  0
 29 24  1  0
  1 32  1  0
  1 33  1  0
  1 34  1  0
  2 35  1  0
  3 36  1  0
  3 37  1  0
  5 38  1  0
  7 39  1  0
  8 40  1  0
 12 41  1  0
 14 42  1  0
 15 43  1  0
 17 44  1  0
 18 45  1  0
 19 46  1  0
 19 47  1  0
 20 48  1  0
 20 49  1  0
 21 50  1  0
 22 51  1  0
 22 52  1  0
 23 53  1  6
 25 54  1  0
 26 55  1  0
 27 56  1  0
 28 57  1  0
 29 58  1  0
 30 59  1  0
 31 60  1  0
 31 61  1  0
 31 62  1  0
M  END
>  <Ligand ID>  (1) 
LIG0001512

>  <Ligand>  (1) 
CHEMBL270026

>  <SMILES>  (1) 
CC(Cc1cc(ccc1C(=O)O)c1ccc(cc1)CCNC[C@@H](c1ccccc1)O)C

>  <CID>  (1) 
10002049.0

>  <ChEMBL ID>  (1) 
nan

>  <InChiKey>  (1) 
NCTDWZFQXDIUEY-SANMLTNESA-N

>  <InChi>  (1) 
InChI=1S/C27H31NO3/c1-19(2)16-24-17-23(12-13-25(24)27(30)31)21-10-8-20(9-11-21)14-15-28-18-26(29)22-6-4-3-5-7-22/h3-13,17,19,26,28-29H,14-16,18H2,1-2H3,(H,30,31)/t26-/m0/s1

>  <IUPAC Name>  (1) 
4-[4-[2-[[(2R)-2-hydroxy-2-phenylethyl]amino]ethyl]phenyl]-2-(2-methylpropyl)benzoic acid

$$$$
