
     RDKit          3D

 64 66  0  0  0  0  0  0  0  0999 V2000
   -8.2070    2.6451    1.7135 C   0  0  0  0  0  0  0  0  0  0  0  0
   -8.5919    2.1985    0.6651 C   0  0  0  0  0  0  0  0  0  0  0  0
   -9.0685    1.6642   -0.6090 C   0  0  0  0  0  0  0  0  0  0  0  0
   -7.8587    1.3963   -1.4797 C   0  0  0  0  0  0  0  0  0  0  0  0
   -7.0234    0.4233   -0.7710 C   0  0  0  0  0  0  0  0  0  0  0  0
   -6.3185   -0.3911   -0.1978 C   0  0  0  0  0  0  0  0  0  0  0  0
   -5.4687   -1.3464    0.4836 C   0  0  0  0  0  0  0  0  0  0  0  0
   -5.2066   -1.2601    1.8370 C   0  0  0  0  0  0  0  0  0  0  0  0
   -4.3805   -2.2285    2.3806 C   0  0  0  0  0  0  0  0  0  0  0  0
   -3.8268   -3.2478    1.6331 C   0  0  0  0  0  0  0  0  0  0  0  0
   -4.1079   -3.3074    0.2808 C   0  0  0  0  0  0  0  0  0  0  0  0
   -4.9308   -2.3566   -0.3019 C   0  0  0  0  0  0  0  0  0  0  0  0
   -3.5543   -4.3644   -0.5805 C   0  0  0  0  0  0  0  0  0  0  0  0
   -2.3243   -3.9375   -1.1038 O   0  0  0  0  0  0  0  0  0  0  0  0
   -1.4470   -3.6766   -0.1093 N   0  0  0  0  0  0  0  0  0  0  0  0
   -0.7644   -2.4122   -0.0672 C   0  0  0  0  0  0  0  0  0  0  0  0
    0.1331   -2.1371    0.9431 C   0  0  0  0  0  0  0  0  0  0  0  0
    0.7781   -0.9195    0.9675 C   0  0  0  0  0  0  0  0  0  0  0  0
    0.5287   -0.0116    0.0099 N   0  0  0  0  0  0  0  0  0  0  0  0
   -0.3566   -0.3169   -0.9632 C   0  0  0  0  0  0  0  0  0  0  0  0
   -0.6117    0.5181   -1.8781 O   0  0  0  0  0  0  0  0  0  0  0  0
   -1.0057   -1.4943   -1.0210 N   0  0  0  0  0  0  0  0  0  0  0  0
    1.1497    1.2897   -0.0562 C   0  0  2  0  0  0  0  0  0  0  0  0
    2.1278    1.2383   -1.0386 O   0  0  0  0  0  0  0  0  0  0  0  0
    3.2631    1.8466   -0.5206 C   0  0  1  0  0  0  0  0  0  0  0  0
    3.2494    1.5050    0.9541 C   0  0  2  0  0  0  0  0  0  0  0  0
    1.7589    1.7634    1.2189 C   0  0  1  0  0  0  0  0  0  0  0  0
    1.6407    3.1663    1.2804 O   0  0  0  0  0  0  0  0  0  0  0  0
    4.0685    2.3335    1.7061 O   0  0  0  0  0  0  0  0  0  0  0  0
    4.5334    1.3515   -1.1765 C   0  0  0  0  0  0  0  0  0  0  0  0
    5.6350    1.9966   -0.6175 O   0  0  0  0  0  0  0  0  0  0  0  0
    7.0600    1.4611   -1.3440 P   0  0  0  0  0  0  0  0  0  0  0  0
    6.6940    0.7533   -2.6466 O   0  0  0  0  0  0  0  0  0  0  0  0
    7.9198    0.3732   -0.3880 O   0  0  0  0  0  0  0  0  0  0  0  0
    9.5987    0.5322   -0.6770 P   0  0  0  0  0  0  0  0  0  0  0  0
    9.8721    1.5297   -1.7828 O   0  0  0  0  0  0  0  0  0  0  0  0
   10.2982    1.1165    0.7510 O   0  0  0  0  0  0  0  0  0  0  0  0
   10.2936   -0.9620   -1.0095 O   0  0  0  0  0  0  0  0  0  0  0  0
    8.0782    2.7559   -1.7378 O   0  0  0  0  0  0  0  0  0  0  0  0
   -7.8563    3.0542    2.6361 H   0  0  0  0  0  0  0  0  0  0  0  0
   -9.6746    2.4263   -1.1704 H   0  0  0  0  0  0  0  0  0  0  0  0
   -9.6871    0.7745   -0.4755 H   0  0  0  0  0  0  0  0  0  0  0  0
   -8.1560    0.9600   -2.4646 H   0  0  0  0  0  0  0  0  0  0  0  0
   -7.3080    2.3349   -1.6926 H   0  0  0  0  0  0  0  0  0  0  0  0
   -5.6445   -0.4606    2.4069 H   0  0  0  0  0  0  0  0  0  0  0  0
   -4.1655   -2.1706    3.4513 H   0  0  0  0  0  0  0  0  0  0  0  0
   -3.1751   -4.0084    2.0717 H   0  0  0  0  0  0  0  0  0  0  0  0
   -5.1422   -2.4219   -1.3800 H   0  0  0  0  0  0  0  0  0  0  0  0
   -4.2667   -4.6207   -1.3770 H   0  0  0  0  0  0  0  0  0  0  0  0
   -3.3275   -5.2726    0.0297 H   0  0  0  0  0  0  0  0  0  0  0  0
   -1.2544   -4.3786    0.6323 H   0  0  0  0  0  0  0  0  0  0  0  0
    0.3552   -2.8583    1.7362 H   0  0  0  0  0  0  0  0  0  0  0  0
    1.4696   -0.7041    1.7431 H   0  0  0  0  0  0  0  0  0  0  0  0
    0.4068    2.0674   -0.4029 H   0  0  0  0  0  0  0  0  0  0  0  0
    3.1294    2.9426   -0.6066 H   0  0  0  0  0  0  0  0  0  0  0  0
    3.4708    0.4424    1.1014 H   0  0  0  0  0  0  0  0  0  0  0  0
    1.3995    1.2857    2.1353 H   0  0  0  0  0  0  0  0  0  0  0  0
    1.1282    3.5161    0.4842 H   0  0  0  0  0  0  0  0  0  0  0  0
    4.9252    1.8621    1.9049 H   0  0  0  0  0  0  0  0  0  0  0  0
    4.5871    0.2583   -0.9578 H   0  0  0  0  0  0  0  0  0  0  0  0
    4.5119    1.4652   -2.2709 H   0  0  0  0  0  0  0  0  0  0  0  0
   11.1439    1.6253    0.5687 H   0  0  0  0  0  0  0  0  0  0  0  0
   11.1455   -0.7878   -1.5086 H   0  0  0  0  0  0  0  0  0  0  0  0
    8.3574    3.1800   -0.8724 H   0  0  0  0  0  0  0  0  0  0  0  0
  1  2  3  0
  2  3  1  0
  3  4  1  0
  4  5  1  0
  5  6  3  0
  6  7  1  0
  7  8  2  0
  8  9  1  0
  9 10  2  0
 10 11  1  0
 11 12  2  0
 11 13  1  0
 13 14  1  0
 14 15  1  0
 15 16  1  0
 16 17  1  0
 17 18  2  0
 18 19  1  0
 19 20  1  0
 20 21  2  0
 20 22  1  0
 19 23  1  0
 23 24  1  0
 24 25  1  0
 25 26  1  0
 26 27  1  0
 27 28  1  0
 26 29  1  0
 25 30  1  0
 30 31  1  0
 31 32  1  0
 32 33  2  0
 32 34  1  0
 34 35  1  0
 35 36  2  0
 35 37  1  0
 35 38  1  0
 32 39  1  0
 12  7  1  0
 22 16  2  0
 27 23  1  0
  1 40  1  0
  3 41  1  0
  3 42  1  0
  4 43  1  0
  4 44  1  0
  8 45  1  0
  9 46  1  0
 10 47  1  0
 12 48  1  0
 13 49  1  0
 13 50  1  0
 15 51  1  0
 17 52  1  0
 18 53  1  0
 23 54  1  6
 25 55  1  1
 26 56  1  6
 27 57  1  1
 28 58  1  0
 29 59  1  0
 30 60  1  0
 30 61  1  0
 37 62  1  0
 38 63  1  0
 39 64  1  0
M  END
>  <Ligand ID>  (1) 
LIG0002329

>  <Ligand>  (1) 
CHEMBL3220051

>  <SMILES>  (1) 
C#CCCC#Cc1cccc(c1)CONc1ccn(c(=O)n1)[C@@H]1O[C@@H]([C@H]([C@H]1O)O)COP(=O)(OP(=O)(O)O)O

>  <CID>  (1) 
90666794.0

>  <ChEMBL ID>  (1) 
nan

>  <InChiKey>  (1) 
HBDLPKDBEOEVAO-CWJKEVGVSA-N

>  <InChi>  (1) 
InChI=1S/C22H25N3O12P2/c1-2-3-4-5-7-15-8-6-9-16(12-15)13-34-24-18-10-11-25(22(28)23-18)21-20(27)19(26)17(36-21)14-35-39(32,33)37-38(29,30)31/h1,6,8-12,17,19-21,26-27H,3-4,13-14H2,(H,32,33)(H,23,24,28)(H2,29,30,31)/t17-,19-,20-,21-/m1/s1

>  <IUPAC Name>  (1) 
[(2R,3S,4R,5R)-5-[4-[(3-hexa-1,5-diynylphenyl)methoxyamino]-2-oxopyrimidin-1-yl]-3,4-dihydroxyoxolan-2-yl]methyl phosphono hydrogen phosphate

$$$$
