
     RDKit          3D

114118  0  0  0  0  0  0  0  0999 V2000
    2.5189   -3.2264   -4.6142 N   0  0  0  0  0  0  0  0  0  0  0  0
    3.7807   -3.5910   -4.0964 C   0  0  0  0  0  0  0  0  0  0  0  0
    4.7968   -3.8570   -4.7638 O   0  0  0  0  0  0  0  0  0  0  0  0
    3.9966   -3.6880   -2.5749 C   0  0  0  0  0  0  0  0  0  0  0  0
    2.7557   -3.3598   -1.9335 N   0  0  0  0  0  0  0  0  0  0  0  0
    1.7952   -4.4333   -1.8127 C   0  0  0  0  0  0  0  0  0  0  0  0
    1.7246   -5.2131   -0.5671 C   0  0  0  0  0  0  0  0  0  0  0  0
    1.0968   -4.5409    0.5456 N   0  0  0  0  0  0  0  0  0  0  0  0
   -0.2848   -4.2189    0.4097 C   0  0  0  0  0  0  0  0  0  0  0  0
   -0.8290   -4.5734   -0.6383 O   0  0  0  0  0  0  0  0  0  0  0  0
   -1.1022   -3.4934    1.4134 C   0  0  0  0  0  0  0  0  0  0  0  0
   -2.4629   -3.2666    0.7242 C   0  0  0  0  0  0  0  0  0  0  0  0
   -3.2307   -2.2217    1.4357 C   0  0  0  0  0  0  0  0  0  0  0  0
   -3.3710   -2.0788    2.6382 O   0  0  0  0  0  0  0  0  0  0  0  0
   -3.8935   -1.2594    0.6485 N   0  0  0  0  0  0  0  0  0  0  0  0
   -3.9788   -1.3881   -0.7419 C   0  0  0  0  0  0  0  0  0  0  0  0
   -5.1988   -2.1437   -1.1453 C   0  0  0  0  0  0  0  0  0  0  0  0
   -6.4039   -1.4613   -1.3398 C   0  0  0  0  0  0  0  0  0  0  0  0
   -7.5586   -2.1282   -1.7245 C   0  0  0  0  0  0  0  0  0  0  0  0
   -7.5531   -3.4879   -1.9275 C   0  0  0  0  0  0  0  0  0  0  0  0
   -6.3795   -4.1652   -1.7402 C   0  0  0  0  0  0  0  0  0  0  0  0
   -5.2296   -3.4933   -1.3560 C   0  0  0  0  0  0  0  0  0  0  0  0
   -4.4279    0.0234    1.2616 C   0  0  0  0  0  0  0  0  0  0  0  0
   -3.2103    0.8640    1.3353 C   0  0  0  0  0  0  0  0  0  0  0  0
   -2.1376    0.1964    1.0703 O   0  0  0  0  0  0  0  0  0  0  0  0
   -2.9229    2.1919    1.5911 N   0  0  0  0  0  0  0  0  0  0  0  0
   -1.4749    2.4643    1.8377 C   0  0  0  0  0  0  0  0  0  0  0  0
   -0.8468    2.3903    0.4939 C   0  0  0  0  0  0  0  0  0  0  0  0
   -1.4487    2.2118   -0.5718 O   0  0  0  0  0  0  0  0  0  0  0  0
    0.5862    2.5225    0.3429 N   0  0  0  0  0  0  0  0  0  0  0  0
    1.2402    2.2762   -0.9487 C   0  0  2  0  0  0  0  0  0  0  0  0
    1.9660    0.9622   -0.8136 C   0  0  0  0  0  0  0  0  0  0  0  0
    1.7959    0.3519    0.2416 O   0  0  0  0  0  0  0  0  0  0  0  0
    2.8058    0.3940   -1.7793 N   0  0  0  0  0  0  0  0  0  0  0  0
    3.5177   -0.8990   -1.6784 C   0  0  2  0  0  0  0  0  0  0  0  0
    2.5691   -1.9993   -1.5588 C   0  0  0  0  0  0  0  0  0  0  0  0
    1.4465   -1.8117   -1.1044 O   0  0  0  0  0  0  0  0  0  0  0  0
    4.6756   -0.8081   -0.7786 C   0  0  0  0  0  0  0  0  0  0  0  0
    4.5236   -0.4404    0.6239 C   0  0  0  0  0  0  0  0  0  0  0  0
    4.8461    0.8245    1.1362 C   0  0  0  0  0  0  0  0  0  0  0  0
    4.6285    0.8508    2.4611 N   0  0  0  0  0  0  0  0  0  0  0  0
    4.1731   -0.3513    2.8515 C   0  0  0  0  0  0  0  0  0  0  0  0
    4.1063   -1.1474    1.7314 C   0  0  0  0  0  0  0  0  0  0  0  0
    3.6739   -2.4412    1.8780 C   0  0  0  0  0  0  0  0  0  0  0  0
    3.3296   -2.8714    3.1439 C   0  0  0  0  0  0  0  0  0  0  0  0
    3.3968   -2.0732    4.2646 C   0  0  0  0  0  0  0  0  0  0  0  0
    3.8310   -0.7736    4.1175 C   0  0  0  0  0  0  0  0  0  0  0  0
    2.0059    3.3995   -1.4906 C   0  0  0  0  0  0  0  0  0  0  0  0
    3.1400    3.9186   -0.6670 C   0  0  0  0  0  0  0  0  0  0  0  0
    3.7793    5.0983   -1.4056 C   0  0  0  0  0  0  0  0  0  0  0  0
    4.2811    4.7137   -2.6867 N   0  0  0  0  0  0  0  0  0  0  0  0
    4.3394    5.6342   -3.6035 C   0  0  0  0  0  0  0  0  0  0  0  0
    4.8255    5.3133   -4.8851 N   0  0  0  0  0  0  0  0  0  0  0  0
    3.9234    6.9806   -3.3585 N   0  0  0  0  0  0  0  0  0  0  0  0
   -3.9315    3.1639    1.5749 C   0  0  0  0  0  0  0  0  0  0  0  0
   -4.5691    3.3824    2.9039 C   0  0  0  0  0  0  0  0  0  0  0  0
   -5.6768    2.6636    3.3000 C   0  0  0  0  0  0  0  0  0  0  0  0
   -6.2773    2.8593    4.5368 C   0  0  0  0  0  0  0  0  0  0  0  0
   -5.7548    3.8052    5.4092 C   0  0  0  0  0  0  0  0  0  0  0  0
   -4.6544    4.5285    5.0314 C   0  0  0  0  0  0  0  0  0  0  0  0
   -4.0598    4.3277    3.7949 C   0  0  0  0  0  0  0  0  0  0  0  0
    1.9643   -3.9082   -5.1852 H   0  0  0  0  0  0  0  0  0  0  0  0
    2.1553   -2.2477   -4.4076 H   0  0  0  0  0  0  0  0  0  0  0  0
    4.3157   -4.7030   -2.3452 H   0  0  0  0  0  0  0  0  0  0  0  0
    4.7476   -2.9160   -2.4153 H   0  0  0  0  0  0  0  0  0  0  0  0
    0.7630   -4.0807   -2.0728 H   0  0  0  0  0  0  0  0  0  0  0  0
    2.0059   -5.1227   -2.7037 H   0  0  0  0  0  0  0  0  0  0  0  0
    1.0783   -6.1170   -0.7988 H   0  0  0  0  0  0  0  0  0  0  0  0
    2.6872   -5.6824   -0.2593 H   0  0  0  0  0  0  0  0  0  0  0  0
    1.5185   -4.2714    1.4270 H   0  0  0  0  0  0  0  0  0  0  0  0
   -1.3215   -4.1102    2.3085 H   0  0  0  0  0  0  0  0  0  0  0  0
   -0.6569   -2.5442    1.7535 H   0  0  0  0  0  0  0  0  0  0  0  0
   -2.9705   -4.2443    0.7793 H   0  0  0  0  0  0  0  0  0  0  0  0
   -2.2262   -3.0790   -0.3127 H   0  0  0  0  0  0  0  0  0  0  0  0
   -4.1376   -0.3371   -1.1483 H   0  0  0  0  0  0  0  0  0  0  0  0
   -3.0852   -1.7269   -1.2990 H   0  0  0  0  0  0  0  0  0  0  0  0
   -6.4981   -0.3969   -1.2051 H   0  0  0  0  0  0  0  0  0  0  0  0
   -8.4899   -1.6136   -1.8765 H   0  0  0  0  0  0  0  0  0  0  0  0
   -8.4492   -4.0235   -2.2283 H   0  0  0  0  0  0  0  0  0  0  0  0
   -6.3777   -5.2321   -1.9006 H   0  0  0  0  0  0  0  0  0  0  0  0
   -4.3489   -4.0952   -1.2350 H   0  0  0  0  0  0  0  0  0  0  0  0
   -5.1280    0.4743    0.5442 H   0  0  0  0  0  0  0  0  0  0  0  0
   -4.8505   -0.2566    2.2234 H   0  0  0  0  0  0  0  0  0  0  0  0
   -1.0922    1.6882    2.5179 H   0  0  0  0  0  0  0  0  0  0  0  0
   -1.3754    3.4817    2.2247 H   0  0  0  0  0  0  0  0  0  0  0  0
    1.0723    2.7983    1.1919 H   0  0  0  0  0  0  0  0  0  0  0  0
    0.4303    2.0297   -1.7053 H   0  0  0  0  0  0  0  0  0  0  0  0
    2.9103    0.9772   -2.6375 H   0  0  0  0  0  0  0  0  0  0  0  0
    3.9742   -0.9941   -2.7366 H   0  0  0  0  0  0  0  0  0  0  0  0
    5.3078   -1.7421   -0.8502 H   0  0  0  0  0  0  0  0  0  0  0  0
    5.3853   -0.0534   -1.2928 H   0  0  0  0  0  0  0  0  0  0  0  0
    5.2253    1.6792    0.5992 H   0  0  0  0  0  0  0  0  0  0  0  0
    4.7893    1.6835    3.0980 H   0  0  0  0  0  0  0  0  0  0  0  0
    3.6245   -3.0603    0.9942 H   0  0  0  0  0  0  0  0  0  0  0  0
    2.9844   -3.8932    3.2858 H   0  0  0  0  0  0  0  0  0  0  0  0
    3.1189   -2.4449    5.2397 H   0  0  0  0  0  0  0  0  0  0  0  0
    3.8974   -0.1151    4.9761 H   0  0  0  0  0  0  0  0  0  0  0  0
    1.2852    4.2641   -1.6166 H   0  0  0  0  0  0  0  0  0  0  0  0
    2.3054    3.1589   -2.5337 H   0  0  0  0  0  0  0  0  0  0  0  0
    3.9105    3.1331   -0.6464 H   0  0  0  0  0  0  0  0  0  0  0  0
    2.8443    4.2209    0.3368 H   0  0  0  0  0  0  0  0  0  0  0  0
    4.4966    5.5990   -0.7481 H   0  0  0  0  0  0  0  0  0  0  0  0
    2.9500    5.8446   -1.5716 H   0  0  0  0  0  0  0  0  0  0  0  0
    4.3966    5.7798   -5.7053 H   0  0  0  0  0  0  0  0  0  0  0  0
    5.5857    4.6308   -4.9763 H   0  0  0  0  0  0  0  0  0  0  0  0
    4.5829    7.7905   -3.3659 H   0  0  0  0  0  0  0  0  0  0  0  0
    2.9064    7.1119   -3.1685 H   0  0  0  0  0  0  0  0  0  0  0  0
   -4.7467    2.7968    0.8784 H   0  0  0  0  0  0  0  0  0  0  0  0
   -3.5943    4.1086    1.0893 H   0  0  0  0  0  0  0  0  0  0  0  0
   -6.1245    1.9147    2.6592 H   0  0  0  0  0  0  0  0  0  0  0  0
   -7.1496    2.2690    4.8072 H   0  0  0  0  0  0  0  0  0  0  0  0
   -6.2041    3.9793    6.3823 H   0  0  0  0  0  0  0  0  0  0  0  0
   -4.2196    5.2762    5.6889 H   0  0  0  0  0  0  0  0  0  0  0  0
   -3.1752    4.9146    3.5006 H   0  0  0  0  0  0  0  0  0  0  0  0
  1  2  1  0
  2  3  2  0
  2  4  1  0
  4  5  1  0
  5  6  1  0
  6  7  1  0
  7  8  1  0
  8  9  1  0
  9 10  2  0
  9 11  1  0
 11 12  1  0
 12 13  1  0
 13 14  2  0
 13 15  1  0
 15 16  1  0
 16 17  1  0
 17 18  2  0
 18 19  1  0
 19 20  2  0
 20 21  1  0
 21 22  2  0
 15 23  1  0
 23 24  1  0
 24 25  2  0
 24 26  1  0
 26 27  1  0
 27 28  1  0
 28 29  2  0
 28 30  1  0
 30 31  1  0
 31 32  1  0
 32 33  2  0
 32 34  1  0
 34 35  1  0
 35 36  1  0
 36 37  2  0
 35 38  1  0
 38 39  1  0
 39 40  2  0
 40 41  1  0
 41 42  1  0
 42 43  2  0
 43 44  1  0
 44 45  2  0
 45 46  1  0
 46 47  2  0
 31 48  1  0
 48 49  1  0
 49 50  1  0
 50 51  1  0
 51 52  2  3
 52 53  1  0
 52 54  1  0
 26 55  1  0
 55 56  1  0
 56 57  2  0
 57 58  1  0
 58 59  2  0
 59 60  1  0
 60 61  2  0
 36  5  1  0
 43 39  1  0
 61 56  1  0
 22 17  1  0
 47 42  1  0
  1 62  1  0
  1 63  1  0
  4 64  1  0
  4 65  1  0
  6 66  1  0
  6 67  1  0
  7 68  1  0
  7 69  1  0
  8 70  1  0
 11 71  1  0
 11 72  1  0
 12 73  1  0
 12 74  1  0
 16 75  1  0
 16 76  1  0
 18 77  1  0
 19 78  1  0
 20 79  1  0
 21 80  1  0
 22 81  1  0
 23 82  1  0
 23 83  1  0
 27 84  1  0
 27 85  1  0
 30 86  1  0
 31 87  1  6
 34 88  1  0
 35 89  1  6
 38 90  1  0
 38 91  1  0
 40 92  1  0
 41 93  1  0
 44 94  1  0
 45 95  1  0
 46 96  1  0
 47 97  1  0
 48 98  1  0
 48 99  1  0
 49100  1  0
 49101  1  0
 50102  1  0
 50103  1  0
 53104  1  0
 53105  1  0
 54106  1  0
 54107  1  0
 55108  1  0
 55109  1  0
 57110  1  0
 58111  1  0
 59112  1  0
 60113  1  0
 61114  1  0
M  END
>  <Ligand ID>  (1) 
LIG0001320

>  <Ligand>  (1) 
CHEMBL602653

>  <SMILES>  (1) 
NC(=O)CN1CCNC(=O)CCC(=O)N(Cc2ccccc2)CC(=O)N(CC(=O)N[C@H](C(=O)N[C@H](C1=O)Cc1c[nH]c2c1cccc2)CCCN=C(N)N)Cc1ccccc1

>  <CID>  (1) 
46232222.0

>  <ChEMBL ID>  (1) 
nan

>  <InChiKey>  (1) 
XVDUHIYVXSMUJO-PXLJZGITSA-N

>  <InChi>  (1) 
InChI=1S/C43H53N11O7/c44-36(55)26-52-21-20-47-37(56)17-18-39(58)54(25-30-12-5-2-6-13-30)28-40(59)53(24-29-10-3-1-4-11-29)27-38(57)50-34(16-9-19-48-43(45)46)41(60)51-35(42(52)61)22-31-23-49-33-15-8-7-14-32(31)33/h1-8,10-15,23,34-35,49H,9,16-22,24-28H2,(H2,44,55)(H,47,56)(H,50,57)(H,51,60)(H4,45,46,48)/t34-,35-/m0/s1

>  <IUPAC Name>  (1) 
2-[(6S,9S)-13,16-dibenzyl-9-[3-(diaminomethylideneamino)propyl]-6-(1H-indol-3-ylmethyl)-5,8,11,14,17,20-hexaoxo-1,4,7,10,13,16-hexazacycloicos-4-yl]acetamide

$$$$
