
     RDKit          3D

 72 76  0  0  0  0  0  0  0  0999 V2000
    6.4789   -4.1163    4.3784 O   0  0  0  0  0  0  0  0  0  0  0  0
    6.4175   -3.0329    3.4887 C   0  0  0  0  0  0  0  0  0  0  0  0
    6.1562   -3.5230    2.0816 C   0  0  0  0  0  0  0  0  0  0  0  0
    6.0819   -2.4429    1.1134 N   0  0  0  0  0  0  0  0  0  0  0  0
    5.1116   -1.4115    1.2191 C   0  0  0  0  0  0  0  0  0  0  0  0
    4.2598   -1.3596    2.1453 O   0  0  0  0  0  0  0  0  0  0  0  0
    5.1201   -0.3577    0.1819 C   0  0  0  0  0  0  0  0  0  0  0  0
    4.1179    0.6150    0.3823 O   0  0  0  0  0  0  0  0  0  0  0  0
    2.7597    0.2878    0.3992 C   0  0  0  0  0  0  0  0  0  0  0  0
    1.8584    1.2618    0.5958 N   0  0  0  0  0  0  0  0  0  0  0  0
    0.5309    1.0785    0.6338 C   0  0  0  0  0  0  0  0  0  0  0  0
   -0.3619    2.1362    0.8678 N   0  0  0  0  0  0  0  0  0  0  0  0
    0.0193    3.5228    1.0575 C   0  0  0  0  0  0  0  0  0  0  0  0
    0.6026    4.1442   -0.1441 C   0  0  0  0  0  0  0  0  0  0  0  0
    1.9153    4.2424   -0.4544 C   0  0  0  0  0  0  0  0  0  0  0  0
    2.3288    4.8441   -1.6312 C   0  0  0  0  0  0  0  0  0  0  0  0
    1.4130    5.3730   -2.5421 C   0  0  0  0  0  0  0  0  0  0  0  0
    0.0817    5.2758   -2.2291 C   0  0  0  0  0  0  0  0  0  0  0  0
   -0.3078    4.6781   -1.0631 C   0  0  0  0  0  0  0  0  0  0  0  0
   -0.9804    5.8119   -3.1315 C   0  0  0  0  0  0  0  0  0  0  0  0
   -1.1996    7.1348   -2.8053 F   0  0  0  0  0  0  0  0  0  0  0  0
   -2.1503    5.1063   -3.0636 F   0  0  0  0  0  0  0  0  0  0  0  0
   -0.4725    5.7138   -4.4114 F   0  0  0  0  0  0  0  0  0  0  0  0
    0.0986   -0.2347    0.4498 C   0  0  0  0  0  0  0  0  0  0  0  0
    0.9931   -1.2644    0.2449 C   0  0  0  0  0  0  0  0  0  0  0  0
    2.3222   -0.9784    0.2236 N   0  0  0  0  0  0  0  0  0  0  0  0
    0.5848   -2.5560    0.0584 C   0  0  0  0  0  0  0  0  0  0  0  0
   -0.7589   -2.8917    0.0663 C   0  0  0  0  0  0  0  0  0  0  0  0
   -1.6557   -1.8649    0.2699 C   0  0  0  0  0  0  0  0  0  0  0  0
   -1.2385   -0.5587    0.4589 C   0  0  0  0  0  0  0  0  0  0  0  0
   -3.1242   -2.1543    0.2928 C   0  0  0  0  0  0  0  0  0  0  0  0
   -3.4992   -2.3752   -1.1282 C   0  0  0  0  0  0  0  0  0  0  0  0
   -3.2831   -1.4423   -2.1156 C   0  0  0  0  0  0  0  0  0  0  0  0
   -3.6832   -1.7332   -3.4235 C   0  0  0  0  0  0  0  0  0  0  0  0
   -4.2861   -2.9362   -3.7263 C   0  0  0  0  0  0  0  0  0  0  0  0
   -4.5089   -3.8786   -2.7512 C   0  0  0  0  0  0  0  0  0  0  0  0
   -4.1129   -3.5887   -1.4627 C   0  0  0  0  0  0  0  0  0  0  0  0
   -4.8040   -3.3379   -5.3615 Cl  0  0  0  0  0  0  0  0  0  0  0  0
   -3.9223   -1.1491    0.9900 C   0  0  0  0  0  0  0  0  0  0  0  0
   -4.7021   -0.1823    0.3992 C   0  0  0  0  0  0  0  0  0  0  0  0
   -5.4187    0.7349    1.1514 C   0  0  0  0  0  0  0  0  0  0  0  0
   -5.3888    0.7270    2.5270 C   0  0  0  0  0  0  0  0  0  0  0  0
   -4.6068   -0.2431    3.1345 C   0  0  0  0  0  0  0  0  0  0  0  0
   -3.8969   -1.1515    2.3808 C   0  0  0  0  0  0  0  0  0  0  0  0
   -6.3045    1.9015    3.4430 Cl  0  0  0  0  0  0  0  0  0  0  0  0
    6.7282   -4.9446    3.8849 H   0  0  0  0  0  0  0  0  0  0  0  0
    7.3608   -2.4491    3.4731 H   0  0  0  0  0  0  0  0  0  0  0  0
    5.6181   -2.3151    3.7902 H   0  0  0  0  0  0  0  0  0  0  0  0
    5.1859   -4.0788    2.0277 H   0  0  0  0  0  0  0  0  0  0  0  0
    6.9212   -4.2632    1.7826 H   0  0  0  0  0  0  0  0  0  0  0  0
    6.7706   -2.4384    0.3202 H   0  0  0  0  0  0  0  0  0  0  0  0
    5.0517   -0.7198   -0.8500 H   0  0  0  0  0  0  0  0  0  0  0  0
    6.0924    0.1851    0.2829 H   0  0  0  0  0  0  0  0  0  0  0  0
   -1.4088    1.9640    0.9190 H   0  0  0  0  0  0  0  0  0  0  0  0
    0.7781    3.5302    1.8975 H   0  0  0  0  0  0  0  0  0  0  0  0
   -0.8182    4.1292    1.4534 H   0  0  0  0  0  0  0  0  0  0  0  0
    2.6525    3.8546    0.2288 H   0  0  0  0  0  0  0  0  0  0  0  0
    3.3748    4.9340   -1.9009 H   0  0  0  0  0  0  0  0  0  0  0  0
    1.7025    5.8450   -3.4596 H   0  0  0  0  0  0  0  0  0  0  0  0
   -1.3723    4.6180   -0.8497 H   0  0  0  0  0  0  0  0  0  0  0  0
    1.2816   -3.3589   -0.1010 H   0  0  0  0  0  0  0  0  0  0  0  0
   -1.0626   -3.9270   -0.0845 H   0  0  0  0  0  0  0  0  0  0  0  0
   -2.0032    0.1742    0.6091 H   0  0  0  0  0  0  0  0  0  0  0  0
   -3.2151   -3.1031    0.8615 H   0  0  0  0  0  0  0  0  0  0  0  0
   -2.7978   -0.4830   -1.8987 H   0  0  0  0  0  0  0  0  0  0  0  0
   -3.5267   -1.0140   -4.2361 H   0  0  0  0  0  0  0  0  0  0  0  0
   -4.9741   -4.8375   -2.9215 H   0  0  0  0  0  0  0  0  0  0  0  0
   -4.2747   -4.3132   -0.6573 H   0  0  0  0  0  0  0  0  0  0  0  0
   -4.7692   -0.1302   -0.6577 H   0  0  0  0  0  0  0  0  0  0  0  0
   -6.0198    1.4836    0.6671 H   0  0  0  0  0  0  0  0  0  0  0  0
   -4.5542   -0.2859    4.2234 H   0  0  0  0  0  0  0  0  0  0  0  0
   -3.3068   -1.8807    2.9336 H   0  0  0  0  0  0  0  0  0  0  0  0
  1  2  1  0
  2  3  1  0
  3  4  1  0
  4  5  1  0
  5  6  2  0
  5  7  1  0
  7  8  1  0
  8  9  1  0
  9 10  2  0
 10 11  1  0
 11 12  1  0
 12 13  1  0
 13 14  1  0
 14 15  2  0
 15 16  1  0
 16 17  2  0
 17 18  1  0
 18 19  2  0
 18 20  1  0
 20 21  1  0
 20 22  1  0
 20 23  1  0
 11 24  2  0
 24 25  1  0
 25 26  2  0
 25 27  1  0
 27 28  2  0
 28 29  1  0
 29 30  2  0
 29 31  1  0
 31 32  1  0
 32 33  2  0
 33 34  1  0
 34 35  2  0
 35 36  1  0
 36 37  2  0
 35 38  1  0
 31 39  1  0
 39 40  2  0
 40 41  1  0
 41 42  2  0
 42 43  1  0
 43 44  2  0
 42 45  1  0
 26  9  1  0
 37 32  1  0
 44 39  1  0
 19 14  1  0
 30 24  1  0
  1 46  1  0
  2 47  1  0
  2 48  1  0
  3 49  1  0
  3 50  1  0
  4 51  1  0
  7 52  1  0
  7 53  1  0
 12 54  1  0
 13 55  1  0
 13 56  1  0
 15 57  1  0
 16 58  1  0
 17 59  1  0
 19 60  1  0
 27 61  1  0
 28 62  1  0
 30 63  1  0
 31 64  1  0
 33 65  1  0
 34 66  1  0
 36 67  1  0
 37 68  1  0
 40 69  1  0
 41 70  1  0
 43 71  1  0
 44 72  1  0
M  END
>  <Ligand ID>  (1) 
LIG0005804

>  <Ligand>  (1) 
SCHEMBL17557598

>  <SMILES>  (1) 
OCCNC(=O)COc1nc(NCc2cccc(c2)C(F)(F)F)c2c(n1)ccc(c2)C(c1ccc(cc1)Cl)c1ccc(cc1)Cl

>  <CID>  (1) 
118916083.0

>  <ChEMBL ID>  (1) 
nan

>  <InChiKey>  (1) 
YMRAMJXPOJXMAC-UHFFFAOYSA-N

>  <InChi>  (1) 
InChI=1S/C33H27Cl2F3N4O3/c34-25-9-4-21(5-10-25)30(22-6-11-26(35)12-7-22)23-8-13-28-27(17-23)31(42-32(41-28)45-19-29(44)39-14-15-43)40-18-20-2-1-3-24(16-20)33(36,37)38/h1-13,16-17,30,43H,14-15,18-19H2,(H,39,44)(H,40,41,42)

>  <IUPAC Name>  (1) 
2-[6-[bis(4-chlorophenyl)methyl]-4-[[3-(trifluoromethyl)phenyl]methylamino]quinazolin-2-yl]oxy-N-(2-hydroxyethyl)acetamide

$$$$
