
     RDKit          3D

 47 49  0  0  0  0  0  0  0  0999 V2000
   -2.7192   -1.2748   -3.0518 N   0  0  0  0  0  0  0  0  0  0  0  0
   -2.5662   -0.9904   -1.9228 C   0  0  0  0  0  0  0  0  0  0  0  0
   -2.3543   -0.6455   -0.5458 C   0  0  0  0  0  0  0  0  0  0  0  0
   -1.1874   -1.0268    0.1295 C   0  0  0  0  0  0  0  0  0  0  0  0
   -0.0035   -1.9623   -0.8013 S   0  0  0  0  0  0  0  0  0  0  0  0
    1.4599   -2.4111    0.1162 C   0  0  0  0  0  0  0  0  0  0  0  0
    2.3334   -1.2916    0.4998 C   0  0  0  0  0  0  0  0  0  0  0  0
    2.2625   -0.6071    1.6904 C   0  0  0  0  0  0  0  0  0  0  0  0
    3.1231    0.4342    1.9624 C   0  0  0  0  0  0  0  0  0  0  0  0
    4.0901    0.8181    1.0309 C   0  0  0  0  0  0  0  0  0  0  0  0
    4.1769    0.1383   -0.1770 C   0  0  0  0  0  0  0  0  0  0  0  0
    3.3013   -0.9005   -0.4215 C   0  0  0  0  0  0  0  0  0  0  0  0
    5.1288    0.4647   -1.1771 N   0  0  0  0  0  0  0  0  0  0  0  0
    6.7828    0.7700   -0.8266 S   0  0  0  0  0  0  0  0  0  0  0  0
    6.8983    1.8873    0.1884 O   0  0  0  0  0  0  0  0  0  0  0  0
    7.5382    1.1859   -2.0555 O   0  0  0  0  0  0  0  0  0  0  0  0
    7.5882   -0.6545   -0.0983 C   0  0  0  0  0  0  0  0  0  0  0  0
   -1.0405   -0.6759    1.4129 N   0  0  0  0  0  0  0  0  0  0  0  0
   -1.9787    0.0273    2.0608 C   0  0  0  0  0  0  0  0  0  0  0  0
   -3.1440    0.4279    1.4474 C   0  0  0  0  0  0  0  0  0  0  0  0
   -3.3266    0.0770    0.1092 C   0  0  0  0  0  0  0  0  0  0  0  0
   -4.5702    0.5125   -0.5086 C   0  0  0  0  0  0  0  0  0  0  0  0
   -5.6427   -0.3821   -0.4048 C   0  0  0  0  0  0  0  0  0  0  0  0
   -6.8665   -0.0620   -0.9549 C   0  0  0  0  0  0  0  0  0  0  0  0
   -7.0383    1.1574   -1.6180 C   0  0  0  0  0  0  0  0  0  0  0  0
   -5.9537    2.0282   -1.7062 C   0  0  0  0  0  0  0  0  0  0  0  0
   -4.7195    1.7191   -1.1580 C   0  0  0  0  0  0  0  0  0  0  0  0
   -6.1143    3.2238   -2.3536 F   0  0  0  0  0  0  0  0  0  0  0  0
   -8.2499    1.4666   -2.1581 F   0  0  0  0  0  0  0  0  0  0  0  0
   -4.1333    1.1791    2.1634 C   0  0  0  0  0  0  0  0  0  0  0  0
   -4.9288    1.7822    2.7571 N   0  0  0  0  0  0  0  0  0  0  0  0
   -1.7600    0.3679    3.4231 N   0  0  0  0  0  0  0  0  0  0  0  0
    1.1681   -3.0371    0.9975 H   0  0  0  0  0  0  0  0  0  0  0  0
    2.0408   -3.1250   -0.5362 H   0  0  0  0  0  0  0  0  0  0  0  0
    1.5297   -0.8887    2.4227 H   0  0  0  0  0  0  0  0  0  0  0  0
    3.0718    0.9725    2.8926 H   0  0  0  0  0  0  0  0  0  0  0  0
    4.7800    1.6317    1.2162 H   0  0  0  0  0  0  0  0  0  0  0  0
    3.3809   -1.4227   -1.3713 H   0  0  0  0  0  0  0  0  0  0  0  0
    4.7860    0.5147   -2.1553 H   0  0  0  0  0  0  0  0  0  0  0  0
    7.5805   -1.5261   -0.7744 H   0  0  0  0  0  0  0  0  0  0  0  0
    8.6209   -0.3688    0.1438 H   0  0  0  0  0  0  0  0  0  0  0  0
    7.0974   -0.9147    0.8576 H   0  0  0  0  0  0  0  0  0  0  0  0
   -5.5332   -1.3135    0.0944 H   0  0  0  0  0  0  0  0  0  0  0  0
   -7.7310   -0.7108   -0.9065 H   0  0  0  0  0  0  0  0  0  0  0  0
   -3.8744    2.3870   -1.2212 H   0  0  0  0  0  0  0  0  0  0  0  0
   -2.4098    0.1430    4.1982 H   0  0  0  0  0  0  0  0  0  0  0  0
   -0.8933    0.8753    3.6565 H   0  0  0  0  0  0  0  0  0  0  0  0
  1  2  3  0
  2  3  1  0
  3  4  2  0
  4  5  1  0
  5  6  1  0
  6  7  1  0
  7  8  2  0
  8  9  1  0
  9 10  2  0
 10 11  1  0
 11 12  2  0
 11 13  1  0
 13 14  1  0
 14 15  2  0
 14 16  2  0
 14 17  1  0
  4 18  1  0
 18 19  2  0
 19 20  1  0
 20 21  2  0
 21 22  1  0
 22 23  2  0
 23 24  1  0
 24 25  2  0
 25 26  1  0
 26 27  2  0
 26 28  1  0
 25 29  1  0
 20 30  1  0
 30 31  3  0
 19 32  1  0
 21  3  1  0
 27 22  1  0
 12  7  1  0
  6 33  1  0
  6 34  1  0
  8 35  1  0
  9 36  1  0
 10 37  1  0
 12 38  1  0
 13 39  1  0
 17 40  1  0
 17 41  1  0
 17 42  1  0
 23 43  1  0
 24 44  1  0
 27 45  1  0
 32 46  1  0
 32 47  1  0
M  END
>  <Ligand ID>  (1) 
LIG0004955

>  <Ligand>  (1) 
SCHEMBL3345477

>  <SMILES>  (1) 
N#Cc1c(SCc2cccc(c2)NS(=O)(=O)C)nc(c(c1c1ccc(c(c1)F)F)C#N)N

>  <CID>  (1) 
68606147.0

>  <ChEMBL ID>  (1) 
nan

>  <InChiKey>  (1) 
GJYWCDABXNMGIQ-UHFFFAOYSA-N

>  <InChi>  (1) 
InChI=1S/C21H15F2N5O2S2/c1-32(29,30)28-14-4-2-3-12(7-14)11-31-21-16(10-25)19(15(9-24)20(26)27-21)13-5-6-17(22)18(23)8-13/h2-8,28H,11H2,1H3,(H2,26,27)

>  <IUPAC Name>  (1) 
N-[3-[[6-amino-3,5-dicyano-4-(3,4-difluorophenyl)pyridin-2-yl]sulfanylmethyl]phenyl]methanesulfonamide

$$$$
