
     RDKit          3D

209215  0  0  0  0  0  0  0  0999 V2000
   15.3262    1.8726   -2.6955 N   0  0  0  0  0  0  0  0  0  0  0  0
   15.7789    1.0019   -1.6016 C   0  0  0  0  0  0  0  0  0  0  0  0
   15.3659   -0.3926   -1.9394 C   0  0  0  0  0  0  0  0  0  0  0  0
   13.9301   -0.5761   -2.0977 C   0  0  0  0  0  0  0  0  0  0  0  0
   12.8645   -0.5807   -1.1520 C   0  0  0  0  0  0  0  0  0  0  0  0
   12.4677    0.4167   -0.1282 C   0  0  1  0  0  0  0  0  0  0  0  0
   13.4679    0.5410    0.9745 C   0  0  0  0  0  0  0  0  0  0  0  0
   13.9077   -0.5602    1.3591 O   0  0  0  0  0  0  0  0  0  0  0  0
   13.9536    1.7627    1.6198 C   0  0  0  0  0  0  0  0  0  0  0  0
   14.9730    1.7524    2.5357 N   0  0  0  0  0  0  0  0  0  0  0  0
   16.3328    1.5641    2.3301 C   0  0  2  0  0  0  0  0  0  0  0  0
   16.9081    2.6191    1.4148 C   0  0  0  0  0  0  0  0  0  0  0  0
   18.0936    2.6788    1.0595 O   0  0  0  0  0  0  0  0  0  0  0  0
   16.0483    3.6512    0.8911 N   0  0  0  0  0  0  0  0  0  0  0  0
   16.7259    0.1852    1.9425 C   0  0  0  0  0  0  0  0  0  0  0  0
   18.1797   -0.0577    1.8128 C   0  0  0  0  0  0  0  0  0  0  0  0
   19.1112    0.7037    2.1119 O   0  0  0  0  0  0  0  0  0  0  0  0
   18.5474   -1.3107    1.2846 O   0  0  0  0  0  0  0  0  0  0  0  0
   12.0166    1.6129   -0.6917 N   0  0  0  0  0  0  0  0  0  0  0  0
   11.1857    2.5532   -0.1379 C   0  0  0  0  0  0  0  0  0  0  0  0
    9.7479    2.2422    0.0540 C   0  0  0  0  0  0  0  0  0  0  0  0
    9.0553    3.1343    0.5460 O   0  0  0  0  0  0  0  0  0  0  0  0
    9.0636    0.9828   -0.2858 C   0  0  2  0  0  0  0  0  0  0  0  0
    9.3640    0.4420   -1.6434 C   0  0  0  0  0  0  0  0  0  0  0  0
    8.1521    0.7514   -2.4846 C   0  0  0  0  0  0  0  0  0  0  0  0
    7.2432    1.5557   -1.5824 C   0  0  0  0  0  0  0  0  0  0  0  0
    7.6062    1.1947   -0.2222 N   0  0  0  0  0  0  0  0  0  0  0  0
    7.0155   -0.0570    0.1973 C   0  0  0  0  0  0  0  0  0  0  0  0
    5.5554    0.0168    0.3248 C   0  0  0  0  0  0  0  0  0  0  0  0
    4.9180    1.0312    0.0245 O   0  0  0  0  0  0  0  0  0  0  0  0
    4.7571   -1.1385    0.8279 C   0  0  2  0  0  0  0  0  0  0  0  0
    5.1189   -2.4454    0.2428 C   0  0  0  0  0  0  0  0  0  0  0  0
    3.7938   -3.0978   -0.0655 C   0  0  0  0  0  0  0  0  0  0  0  0
    2.9387   -1.9015   -0.4113 C   0  0  0  0  0  0  0  0  0  0  0  0
    3.3141   -0.9026    0.5662 N   0  0  0  0  0  0  0  0  0  0  0  0
    2.6252    0.1378    1.1789 C   0  0  0  0  0  0  0  0  0  0  0  0
    3.2990    0.8318    2.0478 O   0  0  0  0  0  0  0  0  0  0  0  0
    1.2387    0.6245    1.0223 C   0  0  1  0  0  0  0  0  0  0  0  0
    1.3778    1.9589    0.2707 C   0  0  0  0  0  0  0  0  0  0  0  0
    0.1348    2.7625    0.1867 C   0  0  0  0  0  0  0  0  0  0  0  0
   -0.3869    3.1488    1.5610 C   0  0  0  0  0  0  0  0  0  0  0  0
   -1.5060    4.1578    1.4846 C   0  0  0  0  0  0  0  0  0  0  0  0
   -2.6076    3.7154    0.6688 N   0  0  0  0  0  0  0  0  0  0  0  0
   -3.7135    4.6659    0.5733 C   0  0  0  0  0  0  0  0  0  0  0  0
   -3.5001    5.6928    1.2262 O   0  0  0  0  0  0  0  0  0  0  0  0
   -4.8823    4.3192   -0.2324 C   0  0  0  0  0  0  0  0  0  0  0  0
   -5.9811    5.3227   -0.2732 C   0  0  1  0  0  0  0  0  0  0  0  0
   -5.7154    6.5857   -0.9586 C   0  0  0  0  0  0  0  0  0  0  0  0
   -6.4067    6.8113   -1.9801 O   0  0  0  0  0  0  0  0  0  0  0  0
   -4.7432    7.6393   -0.6163 C   0  0  0  0  0  0  0  0  0  0  0  0
   -7.2423    4.6818   -0.7419 C   0  0  0  0  0  0  0  0  0  0  0  0
   -7.2061    3.5514   -1.2177 O   0  0  0  0  0  0  0  0  0  0  0  0
   -8.5354    5.3067   -0.6734 N   0  0  0  0  0  0  0  0  0  0  0  0
   -9.6298    4.5002   -1.1731 C   0  0  2  0  0  0  0  0  0  0  0  0
  -10.8495    5.1587   -1.6031 C   0  0  0  0  0  0  0  0  0  0  0  0
  -11.6748    5.9423   -0.6712 C   0  0  0  0  0  0  0  0  0  0  0  0
  -10.9804    7.0654   -0.0380 C   0  0  0  0  0  0  0  0  0  0  0  0
  -10.5799    7.0144    1.1791 O   0  0  0  0  0  0  0  0  0  0  0  0
  -10.7347    8.2496   -0.7694 O   0  0  0  0  0  0  0  0  0  0  0  0
   -9.8402    3.5413   -0.0180 C   0  0  0  0  0  0  0  0  0  0  0  0
   -9.1543    3.7085    0.9893 O   0  0  0  0  0  0  0  0  0  0  0  0
  -10.7603    2.4775   -0.0222 N   0  0  0  0  0  0  0  0  0  0  0  0
  -10.8114    1.5970    1.1557 C   0  0  2  0  0  0  0  0  0  0  0  0
   -9.9725    0.4455    0.7535 C   0  0  0  0  0  0  0  0  0  0  0  0
   -9.4216    0.4887   -0.3494 O   0  0  0  0  0  0  0  0  0  0  0  0
   -9.7394   -0.7160    1.5302 N   0  0  0  0  0  0  0  0  0  0  0  0
   -8.9334   -1.8452    1.1833 C   0  0  2  0  0  0  0  0  0  0  0  0
   -7.5364   -1.6859    1.7189 C   0  0  0  0  0  0  0  0  0  0  0  0
   -7.1851   -0.7373    2.4405 O   0  0  0  0  0  0  0  0  0  0  0  0
   -6.4985   -2.6231    1.4331 N   0  0  0  0  0  0  0  0  0  0  0  0
   -5.1491   -2.5549    1.9496 C   0  0  2  0  0  0  0  0  0  0  0  0
   -4.1328   -2.2152    0.9319 C   0  0  0  0  0  0  0  0  0  0  0  0
   -4.4220   -1.9361   -0.2416 O   0  0  0  0  0  0  0  0  0  0  0  0
   -2.7136   -2.1794    1.2054 N   0  0  0  0  0  0  0  0  0  0  0  0
   -1.7531   -1.7340    0.1834 C   0  0  1  0  0  0  0  0  0  0  0  0
   -0.7719   -0.8051    0.8678 C   0  0  0  0  0  0  0  0  0  0  0  0
   -0.9452   -0.5192    2.0539 O   0  0  0  0  0  0  0  0  0  0  0  0
    0.3651   -0.2239    0.2362 N   0  0  0  0  0  0  0  0  0  0  0  0
   -0.9371   -2.9186   -0.2669 C   0  0  0  0  0  0  0  0  0  0  0  0
   -1.6823   -4.0605   -0.8165 C   0  0  0  0  0  0  0  0  0  0  0  0
   -1.7616   -5.2953   -0.1470 C   0  0  0  0  0  0  0  0  0  0  0  0
   -2.4411   -6.1761   -0.8734 N   0  0  0  0  0  0  0  0  0  0  0  0
   -2.8137   -5.5640   -1.9996 C   0  0  0  0  0  0  0  0  0  0  0  0
   -2.3565   -4.2519   -1.9899 C   0  0  0  0  0  0  0  0  0  0  0  0
   -2.5990   -3.3836   -3.0252 C   0  0  0  0  0  0  0  0  0  0  0  0
   -3.3289   -3.8492   -4.1180 C   0  0  0  0  0  0  0  0  0  0  0  0
   -3.7779   -5.1518   -4.1206 C   0  0  0  0  0  0  0  0  0  0  0  0
   -3.5453   -6.0362   -3.0923 C   0  0  0  0  0  0  0  0  0  0  0  0
   -4.7842   -3.8471    2.6257 C   0  0  0  0  0  0  0  0  0  0  0  0
   -4.9095   -5.0022    1.6554 C   0  0  0  0  0  0  0  0  0  0  0  0
   -4.5090   -6.3135    2.3093 C   0  0  0  0  0  0  0  0  0  0  0  0
   -4.6438   -7.3502    1.3127 N   0  0  0  0  0  0  0  0  0  0  0  0
   -5.7113   -8.0472    1.2352 C   0  0  0  0  0  0  0  0  0  0  0  0
   -6.8425   -7.9148    2.0619 N   0  0  0  0  0  0  0  0  0  0  0  0
   -5.7586   -9.0536    0.2172 N   0  0  0  0  0  0  0  0  0  0  0  0
   -9.0048   -2.3216   -0.2203 C   0  0  0  0  0  0  0  0  0  0  0  0
  -10.3325   -2.7728   -0.6842 C   0  0  0  0  0  0  0  0  0  0  0  0
  -10.7276   -4.0778   -0.3752 C   0  0  0  0  0  0  0  0  0  0  0  0
  -11.9293   -4.6063   -0.7863 C   0  0  0  0  0  0  0  0  0  0  0  0
  -12.8148   -3.8597   -1.5376 C   0  0  0  0  0  0  0  0  0  0  0  0
  -12.4417   -2.5626   -1.8577 C   0  0  0  0  0  0  0  0  0  0  0  0
  -11.2125   -2.0391   -1.4291 C   0  0  0  0  0  0  0  0  0  0  0  0
  -12.1380    1.3319    1.7034 C   0  0  0  0  0  0  0  0  0  0  0  0
  -13.1503    0.6979    0.8713 C   0  0  0  0  0  0  0  0  0  0  0  0
  -14.0164    1.4006    0.0812 N   0  0  0  0  0  0  0  0  0  0  0  0
  -14.8522    0.5569   -0.5453 C   0  0  0  0  0  0  0  0  0  0  0  0
  -14.5320   -0.7016   -0.1647 N   0  0  0  0  0  0  0  0  0  0  0  0
  -13.4917   -0.6290    0.7026 C   0  0  0  0  0  0  0  0  0  0  0  0
   16.0746    2.0799   -3.3731 H   0  0  0  0  0  0  0  0  0  0  0  0
   14.8020    2.6838   -2.3434 H   0  0  0  0  0  0  0  0  0  0  0  0
   15.3868    1.4218   -0.6954 H   0  0  0  0  0  0  0  0  0  0  0  0
   16.9087    1.0875   -1.6172 H   0  0  0  0  0  0  0  0  0  0  0  0
   15.9004   -0.6496   -2.9119 H   0  0  0  0  0  0  0  0  0  0  0  0
   15.8181   -1.1055   -1.1661 H   0  0  0  0  0  0  0  0  0  0  0  0
   13.8184   -1.5923   -2.7043 H   0  0  0  0  0  0  0  0  0  0  0  0
   13.6706    0.1156   -3.0142 H   0  0  0  0  0  0  0  0  0  0  0  0
   13.0255   -1.5567   -0.5052 H   0  0  0  0  0  0  0  0  0  0  0  0
   11.8803   -0.9615   -1.6762 H   0  0  0  0  0  0  0  0  0  0  0  0
   11.5713   -0.0579    0.4049 H   0  0  0  0  0  0  0  0  0  0  0  0
   13.9746    2.5945    0.8576 H   0  0  0  0  0  0  0  0  0  0  0  0
   13.0150    2.1049    2.2448 H   0  0  0  0  0  0  0  0  0  0  0  0
   14.7045    1.9507    3.5457 H   0  0  0  0  0  0  0  0  0  0  0  0
   16.8507    1.7567    3.3360 H   0  0  0  0  0  0  0  0  0  0  0  0
   15.5812    4.3500    1.5038 H   0  0  0  0  0  0  0  0  0  0  0  0
   15.8729    3.7211   -0.1381 H   0  0  0  0  0  0  0  0  0  0  0  0
   16.3243   -0.5240    2.6724 H   0  0  0  0  0  0  0  0  0  0  0  0
   16.3335   -0.0791    0.9214 H   0  0  0  0  0  0  0  0  0  0  0  0
   19.5233   -1.4975    1.0512 H   0  0  0  0  0  0  0  0  0  0  0  0
   12.4957    1.9066   -1.5434 H   0  0  0  0  0  0  0  0  0  0  0  0
   11.2003    3.5341   -0.7722 H   0  0  0  0  0  0  0  0  0  0  0  0
   11.5779    2.9869    0.8385 H   0  0  0  0  0  0  0  0  0  0  0  0
    9.2896    0.2354    0.5350 H   0  0  0  0  0  0  0  0  0  0  0  0
   10.3034    0.7850   -2.0925 H   0  0  0  0  0  0  0  0  0  0  0  0
    9.4497   -0.6812   -1.5234 H   0  0  0  0  0  0  0  0  0  0  0  0
    8.3550    1.2795   -3.4135 H   0  0  0  0  0  0  0  0  0  0  0  0
    7.6148   -0.1902   -2.7592 H   0  0  0  0  0  0  0  0  0  0  0  0
    7.4341    2.6490   -1.7111 H   0  0  0  0  0  0  0  0  0  0  0  0
    6.2075    1.3749   -1.8498 H   0  0  0  0  0  0  0  0  0  0  0  0
    7.3161   -0.8927   -0.5068 H   0  0  0  0  0  0  0  0  0  0  0  0
    7.4926   -0.3370    1.1623 H   0  0  0  0  0  0  0  0  0  0  0  0
    4.9264   -1.1896    1.9252 H   0  0  0  0  0  0  0  0  0  0  0  0
    5.7252   -3.0661    0.9552 H   0  0  0  0  0  0  0  0  0  0  0  0
    5.6889   -2.3824   -0.7081 H   0  0  0  0  0  0  0  0  0  0  0  0
    3.8722   -3.7467   -0.9677 H   0  0  0  0  0  0  0  0  0  0  0  0
    3.3393   -3.6159    0.7789 H   0  0  0  0  0  0  0  0  0  0  0  0
    3.1387   -1.5450   -1.4507 H   0  0  0  0  0  0  0  0  0  0  0  0
    1.9041   -2.2380   -0.3376 H   0  0  0  0  0  0  0  0  0  0  0  0
    0.7938    0.8193    2.0125 H   0  0  0  0  0  0  0  0  0  0  0  0
    2.2196    2.5622    0.7259 H   0  0  0  0  0  0  0  0  0  0  0  0
    1.6978    1.7327   -0.7878 H   0  0  0  0  0  0  0  0  0  0  0  0
   -0.6503    2.1810   -0.3624 H   0  0  0  0  0  0  0  0  0  0  0  0
    0.3235    3.7012   -0.3530 H   0  0  0  0  0  0  0  0  0  0  0  0
   -0.8029    2.2158    2.0313 H   0  0  0  0  0  0  0  0  0  0  0  0
    0.4212    3.5503    2.1773 H   0  0  0  0  0  0  0  0  0  0  0  0
   -1.8353    4.3168    2.5538 H   0  0  0  0  0  0  0  0  0  0  0  0
   -1.1289    5.1584    1.1767 H   0  0  0  0  0  0  0  0  0  0  0  0
   -2.7311    2.8636    0.1601 H   0  0  0  0  0  0  0  0  0  0  0  0
   -5.2867    3.3597    0.1982 H   0  0  0  0  0  0  0  0  0  0  0  0
   -4.4880    4.0909   -1.2696 H   0  0  0  0  0  0  0  0  0  0  0  0
   -6.1960    5.6122    0.8133 H   0  0  0  0  0  0  0  0  0  0  0  0
   -3.7344    7.3036   -0.8822 H   0  0  0  0  0  0  0  0  0  0  0  0
   -4.8274    7.9005    0.4568 H   0  0  0  0  0  0  0  0  0  0  0  0
   -4.9959    8.6069   -1.1381 H   0  0  0  0  0  0  0  0  0  0  0  0
   -8.5382    6.2339   -0.2911 H   0  0  0  0  0  0  0  0  0  0  0  0
   -9.2268    3.8401   -1.9825 H   0  0  0  0  0  0  0  0  0  0  0  0
  -11.5337    4.4475   -2.1796 H   0  0  0  0  0  0  0  0  0  0  0  0
  -10.5741    5.8880   -2.4522 H   0  0  0  0  0  0  0  0  0  0  0  0
  -12.2470    5.3299    0.0668 H   0  0  0  0  0  0  0  0  0  0  0  0
  -12.5124    6.4092   -1.2905 H   0  0  0  0  0  0  0  0  0  0  0  0
  -10.0964    8.8967   -0.3228 H   0  0  0  0  0  0  0  0  0  0  0  0
  -11.3413    2.3745   -0.8455 H   0  0  0  0  0  0  0  0  0  0  0  0
  -10.2061    2.0830    1.9870 H   0  0  0  0  0  0  0  0  0  0  0  0
  -10.2306   -0.7104    2.4410 H   0  0  0  0  0  0  0  0  0  0  0  0
   -9.3674   -2.7228    1.8136 H   0  0  0  0  0  0  0  0  0  0  0  0
   -6.7535   -3.3895    0.8170 H   0  0  0  0  0  0  0  0  0  0  0  0
   -5.0856   -1.7514    2.7531 H   0  0  0  0  0  0  0  0  0  0  0  0
   -2.4602   -2.4828    2.1381 H   0  0  0  0  0  0  0  0  0  0  0  0
   -2.2229   -1.2848   -0.6861 H   0  0  0  0  0  0  0  0  0  0  0  0
    0.4675   -0.4492   -0.7511 H   0  0  0  0  0  0  0  0  0  0  0  0
   -0.2582   -3.2816    0.5271 H   0  0  0  0  0  0  0  0  0  0  0  0
   -0.2253   -2.5465   -1.0919 H   0  0  0  0  0  0  0  0  0  0  0  0
   -1.3372   -5.5271    0.8217 H   0  0  0  0  0  0  0  0  0  0  0  0
   -2.6651   -7.1597   -0.6511 H   0  0  0  0  0  0  0  0  0  0  0  0
   -2.2349   -2.3565   -2.9931 H   0  0  0  0  0  0  0  0  0  0  0  0
   -3.5609   -3.2335   -4.9654 H   0  0  0  0  0  0  0  0  0  0  0  0
   -4.3483   -5.5309   -4.9662 H   0  0  0  0  0  0  0  0  0  0  0  0
   -3.9093   -7.0723   -3.1161 H   0  0  0  0  0  0  0  0  0  0  0  0
   -3.7527   -3.7591    3.0144 H   0  0  0  0  0  0  0  0  0  0  0  0
   -5.4433   -3.9630    3.5141 H   0  0  0  0  0  0  0  0  0  0  0  0
   -6.0153   -5.1641    1.4093 H   0  0  0  0  0  0  0  0  0  0  0  0
   -4.3524   -4.7680    0.7486 H   0  0  0  0  0  0  0  0  0  0  0  0
   -3.4851   -6.1954    2.7082 H   0  0  0  0  0  0  0  0  0  0  0  0
   -5.2240   -6.5758    3.1322 H   0  0  0  0  0  0  0  0  0  0  0  0
   -6.8340   -8.1003    3.1104 H   0  0  0  0  0  0  0  0  0  0  0  0
   -7.7891   -7.6178    1.6937 H   0  0  0  0  0  0  0  0  0  0  0  0
   -5.2811   -9.9725    0.2920 H   0  0  0  0  0  0  0  0  0  0  0  0
   -6.2963   -8.9034   -0.6799 H   0  0  0  0  0  0  0  0  0  0  0  0
   -8.6677   -1.5220   -0.9194 H   0  0  0  0  0  0  0  0  0  0  0  0
   -8.2496   -3.1379   -0.4278 H   0  0  0  0  0  0  0  0  0  0  0  0
  -10.0841   -4.7200    0.2079 H   0  0  0  0  0  0  0  0  0  0  0  0
  -12.2459   -5.6314   -0.5375 H   0  0  0  0  0  0  0  0  0  0  0  0
  -13.7691   -4.2261   -1.8854 H   0  0  0  0  0  0  0  0  0  0  0  0
  -13.1204   -1.9463   -2.4539 H   0  0  0  0  0  0  0  0  0  0  0  0
  -11.0206   -1.0320   -1.7421 H   0  0  0  0  0  0  0  0  0  0  0  0
  -12.5935    2.2894    2.1230 H   0  0  0  0  0  0  0  0  0  0  0  0
  -11.9855    0.7266    2.6596 H   0  0  0  0  0  0  0  0  0  0  0  0
  -14.0347    2.4505   -0.0275 H   0  0  0  0  0  0  0  0  0  0  0  0
  -15.6559    0.7529   -1.2420 H   0  0  0  0  0  0  0  0  0  0  0  0
  -12.9863   -1.4475    1.2029 H   0  0  0  0  0  0  0  0  0  0  0  0
  1  2  1  0
  2  3  1  0
  3  4  1  0
  4  5  1  0
  5  6  1  0
  6  7  1  0
  7  8  2  0
  7  9  1  0
  9 10  1  0
 10 11  1  0
 11 12  1  0
 12 13  2  0
 12 14  1  0
 11 15  1  0
 15 16  1  0
 16 17  2  0
 16 18  1  0
  6 19  1  0
 19 20  1  0
 20 21  1  0
 21 22  2  0
 21 23  1  0
 23 24  1  0
 24 25  1  0
 25 26  1  0
 26 27  1  0
 27 28  1  0
 28 29  1  0
 29 30  2  0
 29 31  1  0
 31 32  1  0
 32 33  1  0
 33 34  1  0
 34 35  1  0
 35 36  1  0
 36 37  2  0
 36 38  1  0
 38 39  1  0
 39 40  1  0
 40 41  1  0
 41 42  1  0
 42 43  1  0
 43 44  1  0
 44 45  2  0
 44 46  1  0
 46 47  1  0
 47 48  1  0
 48 49  2  0
 48 50  1  0
 47 51  1  0
 51 52  2  0
 51 53  1  0
 53 54  1  0
 54 55  1  0
 55 56  1  0
 56 57  1  0
 57 58  2  0
 57 59  1  0
 54 60  1  0
 60 61  2  0
 60 62  1  0
 62 63  1  0
 63 64  1  0
 64 65  2  0
 64 66  1  0
 66 67  1  0
 67 68  1  0
 68 69  2  0
 68 70  1  0
 70 71  1  0
 71 72  1  0
 72 73  2  0
 72 74  1  0
 74 75  1  0
 75 76  1  0
 76 77  2  0
 76 78  1  0
 75 79  1  0
 79 80  1  0
 80 81  2  0
 81 82  1  0
 82 83  1  0
 83 84  2  0
 84 85  1  0
 85 86  2  0
 86 87  1  0
 87 88  2  0
 71 89  1  0
 89 90  1  0
 90 91  1  0
 91 92  1  0
 92 93  2  3
 93 94  1  0
 93 95  1  0
 67 96  1  0
 96 97  1  0
 97 98  2  0
 98 99  1  0
 99100  2  0
100101  1  0
101102  2  0
 63103  1  0
103104  1  0
104105  1  0
105106  1  0
106107  2  0
107108  1  0
 27 23  1  0
 35 31  1  0
 78 38  1  0
 84 80  1  0
102 97  1  0
108104  2  0
 88 83  1  0
  1109  1  0
  1110  1  0
  2111  1  0
  2112  1  0
  3113  1  0
  3114  1  0
  4115  1  0
  4116  1  0
  5117  1  0
  5118  1  0
  6119  1  1
  9120  1  0
  9121  1  0
 10122  1  0
 11123  1  1
 14124  1  0
 14125  1  0
 15126  1  0
 15127  1  0
 18128  1  0
 19129  1  0
 20130  1  0
 20131  1  0
 23132  1  1
 24133  1  0
 24134  1  0
 25135  1  0
 25136  1  0
 26137  1  0
 26138  1  0
 28139  1  0
 28140  1  0
 31141  1  1
 32142  1  0
 32143  1  0
 33144  1  0
 33145  1  0
 34146  1  0
 34147  1  0
 38148  1  1
 39149  1  0
 39150  1  0
 40151  1  0
 40152  1  0
 41153  1  0
 41154  1  0
 42155  1  0
 42156  1  0
 43157  1  0
 46158  1  0
 46159  1  0
 47160  1  1
 50161  1  0
 50162  1  0
 50163  1  0
 53164  1  0
 54165  1  6
 55166  1  0
 55167  1  0
 56168  1  0
 56169  1  0
 59170  1  0
 62171  1  0
 63172  1  1
 66173  1  0
 67174  1  1
 70175  1  0
 71176  1  1
 74177  1  0
 75178  1  6
 78179  1  0
 79180  1  0
 79181  1  0
 81182  1  0
 82183  1  0
 85184  1  0
 86185  1  0
 87186  1  0
 88187  1  0
 89188  1  0
 89189  1  0
 90190  1  0
 90191  1  0
 91192  1  0
 91193  1  0
 94194  1  0
 94195  1  0
 95196  1  0
 95197  1  0
 96198  1  0
 96199  1  0
 98200  1  0
 99201  1  0
100202  1  0
101203  1  0
102204  1  0
103205  1  0
103206  1  0
105207  1  0
106208  1  0
108209  1  0
M  END
>  <Ligand ID>  (1) 
LIG0003265

>  <Ligand>  (1) 
CHEMBL266235

>  <SMILES>  (1) 
NCCCC[C@@H](C(=O)CN[C@H](C(=O)N)CC(=O)O)NCC(=O)[C@@H]1CCCN1CC(=O)[C@@H]1CCCN1C(=O)[C@H]1CCCCNC(=O)C[C@@H](C(=O)C)C(=O)N[C@H](CCC(=O)O)C(=O)N[C@H](C(=O)N[C@H](C(=O)N[C@H](C(=O)N[C@@H](C(=O)N1)Cc1c[nH]c2c1cccc2)CCCN=C(N)N)Cc1ccccc1)Cc1[nH]cnc1

>  <CID>  (1) 
44348199.0

>  <ChEMBL ID>  (1) 
nan

>  <InChiKey>  (1) 
DWEMTEKQRMZOFC-FPPXIFQBSA-N

>  <InChi>  (1) 
InChI=1S/C72H101N19O17/c1-41(92)46-33-61(96)78-26-10-8-19-51(71(108)91-29-13-22-57(91)60(95)39-90-28-12-21-56(90)59(94)38-81-48(18-7-9-25-73)58(93)37-82-52(64(74)101)34-63(99)100)86-69(106)54(31-43-35-80-47-17-6-5-16-45(43)47)88-66(103)49(20-11-27-79-72(75)76)85-68(105)53(30-42-14-3-2-4-15-42)87-70(107)55(32-44-36-77-40-83-44)89-67(104)50(84-65(46)102)23-24-62(97)98/h2-6,14-17,35-36,40,46,48-57,80-82H,7-13,18-34,37-39,73H2,1H3,(H2,74,101)(H,77,83)(H,78,96)(H,84,102)(H,85,105)(H,86,106)(H,87,107)(H,88,103)(H,89,104)(H,97,98)(H,99,100)(H4,75,76,79)/t46-,48-,49-,50+,51+,52-,53-,54+,55-,56-,57-/m0/s1

>  <IUPAC Name>  (1) 
(3S)-3-[[(3S)-3-[[2-[(2S)-1-[2-[(2S)-1-[(3R,6S,9S,12S,15R,18S,26R)-18-acetyl-9-benzyl-15-(2-carboxyethyl)-6-[3-(diaminomethylideneamino)propyl]-12-(1H-imidazol-5-ylmethyl)-3-(1H-indol-3-ylmethyl)-2,5,8,11,14,17,20-heptaoxo-1,4,7,10,13,16,21-heptazacyclohexacosane-26-carbonyl]pyrrolidin-2-yl]-2-oxoethyl]pyrrolidin-2-yl]-2-oxoethyl]amino]-7-amino-2-oxoheptyl]amino]-4-amino-4-oxobutanoic acid

$$$$
