
     RDKit          3D

 74 81  0  0  0  0  0  0  0  0999 V2000
   -2.5263    3.6094    0.8343 C   0  0  0  0  0  0  0  0  0  0  0  0
   -2.5830    2.2515    0.8825 O   0  0  0  0  0  0  0  0  0  0  0  0
   -1.4704    1.5437    0.5217 C   0  0  2  0  0  0  0  0  0  0  0  0
   -1.1188    1.8685   -0.8924 C   0  0  0  0  0  0  0  0  0  0  0  0
   -0.1044    1.0855   -1.3699 C   0  0  0  0  0  0  0  0  0  0  0  0
    0.5121    0.2274   -0.3234 C   0  0  2  0  0  0  0  0  0  0  0  0
   -0.5392   -0.7238    0.1954 C   0  0  0  0  0  0  0  0  0  0  0  0
   -1.7003    0.0213    0.7019 C   0  0  2  0  0  0  0  0  0  0  0  0
   -3.0853   -0.2907    0.3386 C   0  0  2  0  0  0  0  0  0  0  0  0
   -3.5259   -1.7124    0.5146 C   0  0  0  0  0  0  0  0  0  0  0  0
   -4.8380   -2.0975    0.1804 C   0  0  0  0  0  0  0  0  0  0  0  0
   -5.2666   -3.3976    0.3391 C   0  0  0  0  0  0  0  0  0  0  0  0
   -4.4464   -4.3821    0.8275 C   0  0  0  0  0  0  0  0  0  0  0  0
   -3.1637   -4.0306    1.1606 C   0  0  0  0  0  0  0  0  0  0  0  0
   -2.7263   -2.7124    1.0010 C   0  0  0  0  0  0  0  0  0  0  0  0
   -3.6173    0.2444   -0.9714 C   0  0  0  0  0  0  0  0  0  0  0  0
   -3.0135   -0.1752   -2.2300 C   0  0  0  0  0  0  0  0  0  0  0  0
   -3.8629    0.4136    1.2738 O   0  0  0  0  0  0  0  0  0  0  0  0
    0.9481    1.1749    0.7858 C   0  0  2  0  0  0  0  0  0  0  0  0
   -0.2596    1.8788    1.3644 C   0  0  1  0  0  0  0  0  0  0  0  0
    0.1041    3.2780    1.2877 O   0  0  0  0  0  0  0  0  0  0  0  0
    1.0686    3.4814    0.3148 C   0  0  0  0  0  0  0  0  0  0  0  0
    1.5704    2.2672    0.0001 C   0  0  0  0  0  0  0  0  0  0  0  0
    2.5300    1.9426   -0.9037 C   0  0  0  0  0  0  0  0  0  0  0  0
    2.8800    0.5331   -1.0999 C   0  0  0  0  0  0  0  0  0  0  0  0
    1.7689   -0.4397   -0.7859 C   0  0  1  0  0  0  0  0  0  0  0  0
    2.1265   -1.3272    0.2938 N   0  0  0  0  0  0  0  0  0  0  0  0
    2.4797   -0.6789    1.4955 C   0  0  0  0  0  0  0  0  0  0  0  0
    1.9047    0.6518    1.7650 C   0  0  0  0  0  0  0  0  0  0  0  0
    2.7741   -2.5222   -0.0283 C   0  0  0  0  0  0  0  0  0  0  0  0
    4.1594   -2.4519   -0.5712 C   0  0  0  0  0  0  0  0  0  0  0  0
    4.7916   -3.8201   -0.8936 C   0  0  0  0  0  0  0  0  0  0  0  0
    5.3478   -2.8579    0.1703 C   0  0  0  0  0  0  0  0  0  0  0  0
    3.0776    3.0148   -1.6029 C   0  0  0  0  0  0  0  0  0  0  0  0
    2.6105    4.3091   -1.3305 C   0  0  0  0  0  0  0  0  0  0  0  0
    1.6159    4.5551   -0.3837 C   0  0  0  0  0  0  0  0  0  0  0  0
    1.1467    5.8288   -0.1073 O   0  0  0  0  0  0  0  0  0  0  0  0
   -2.2868    4.0158   -0.1937 H   0  0  0  0  0  0  0  0  0  0  0  0
   -1.9981    4.1223    1.6439 H   0  0  0  0  0  0  0  0  0  0  0  0
   -3.6064    3.9564    0.9603 H   0  0  0  0  0  0  0  0  0  0  0  0
   -1.5839    2.6171   -1.4877 H   0  0  0  0  0  0  0  0  0  0  0  0
    0.1918    1.1119   -2.4034 H   0  0  0  0  0  0  0  0  0  0  0  0
   -0.6812   -1.4717   -0.5785 H   0  0  0  0  0  0  0  0  0  0  0  0
    0.0494   -1.1872    1.0812 H   0  0  0  0  0  0  0  0  0  0  0  0
   -1.6646   -0.0605    1.8386 H   0  0  0  0  0  0  0  0  0  0  0  0
   -5.5680   -1.4052   -0.2003 H   0  0  0  0  0  0  0  0  0  0  0  0
   -6.2840   -3.6753    0.0748 H   0  0  0  0  0  0  0  0  0  0  0  0
   -4.7666   -5.4037    0.9566 H   0  0  0  0  0  0  0  0  0  0  0  0
   -2.4763   -4.7878    1.5559 H   0  0  0  0  0  0  0  0  0  0  0  0
   -1.7334   -2.5245    1.2903 H   0  0  0  0  0  0  0  0  0  0  0  0
   -4.7168    0.0925   -0.9577 H   0  0  0  0  0  0  0  0  0  0  0  0
   -3.5343    1.3671   -0.9136 H   0  0  0  0  0  0  0  0  0  0  0  0
   -2.8157    0.7141   -2.9047 H   0  0  0  0  0  0  0  0  0  0  0  0
   -2.1978   -0.8875   -2.2395 H   0  0  0  0  0  0  0  0  0  0  0  0
   -3.8288   -0.7036   -2.8309 H   0  0  0  0  0  0  0  0  0  0  0  0
   -3.4960    0.1827    2.1675 H   0  0  0  0  0  0  0  0  0  0  0  0
   -0.3588    1.5616    2.4055 H   0  0  0  0  0  0  0  0  0  0  0  0
    3.2220    0.3976   -2.1456 H   0  0  0  0  0  0  0  0  0  0  0  0
    3.7851    0.3448   -0.4809 H   0  0  0  0  0  0  0  0  0  0  0  0
    1.5591   -1.0344   -1.6766 H   0  0  0  0  0  0  0  0  0  0  0  0
    3.5974   -0.6741    1.6392 H   0  0  0  0  0  0  0  0  0  0  0  0
    2.1473   -1.3757    2.3338 H   0  0  0  0  0  0  0  0  0  0  0  0
    1.5313    0.6849    2.8262 H   0  0  0  0  0  0  0  0  0  0  0  0
    2.7822    1.3763    1.8097 H   0  0  0  0  0  0  0  0  0  0  0  0
    2.8097   -3.2064    0.8695 H   0  0  0  0  0  0  0  0  0  0  0  0
    2.1736   -3.1155   -0.7784 H   0  0  0  0  0  0  0  0  0  0  0  0
    4.3057   -1.7617   -1.4366 H   0  0  0  0  0  0  0  0  0  0  0  0
    4.2498   -4.7158   -0.5746 H   0  0  0  0  0  0  0  0  0  0  0  0
    5.4327   -3.9332   -1.7646 H   0  0  0  0  0  0  0  0  0  0  0  0
    6.3167   -2.3479   -0.0559 H   0  0  0  0  0  0  0  0  0  0  0  0
    5.3191   -3.3114    1.1775 H   0  0  0  0  0  0  0  0  0  0  0  0
    3.8370    2.8106   -2.3251 H   0  0  0  0  0  0  0  0  0  0  0  0
    3.0399    5.1633   -1.8796 H   0  0  0  0  0  0  0  0  0  0  0  0
    1.6790    6.5033    0.4426 H   0  0  0  0  0  0  0  0  0  0  0  0
  1  2  1  0
  3  2  1  1
  3  4  1  0
  4  5  2  0
  5  6  1  0
  6  7  1  1
  7  8  1  0
  8  9  1  0
  9 10  1  0
 10 11  2  0
 11 12  1  0
 12 13  2  0
 13 14  1  0
 14 15  2  0
  9 16  1  0
 16 17  1  0
  9 18  1  1
  6 19  1  0
 19 20  1  0
 20 21  1  0
 21 22  1  0
 22 23  2  0
 23 24  1  0
 24 25  1  0
 25 26  1  0
 26 27  1  0
 27 28  1  0
 28 29  1  0
 27 30  1  0
 30 31  1  0
 31 32  1  0
 32 33  1  0
 24 34  2  0
 34 35  1  0
 35 36  2  0
 36 37  1  0
  8  3  1  0
 15 10  1  0
 19 29  1  1
 33 31  1  0
 20  3  1  0
 36 22  1  0
 26  6  1  0
 23 19  1  0
  1 38  1  0
  1 39  1  0
  1 40  1  0
  4 41  1  0
  5 42  1  0
  7 43  1  0
  7 44  1  0
  8 45  1  1
 11 46  1  0
 12 47  1  0
 13 48  1  0
 14 49  1  0
 15 50  1  0
 16 51  1  0
 16 52  1  0
 17 53  1  0
 17 54  1  0
 17 55  1  0
 18 56  1  0
 20 57  1  1
 25 58  1  0
 25 59  1  0
 26 60  1  6
 28 61  1  0
 28 62  1  0
 29 63  1  0
 29 64  1  0
 30 65  1  0
 30 66  1  0
 31 67  1  0
 32 68  1  0
 32 69  1  0
 33 70  1  0
 33 71  1  0
 34 72  1  0
 35 73  1  0
 37 74  1  0
M  END
>  <Ligand ID>  (1) 
LIG0003532

>  <Ligand>  (1) 
CHEMBL3262361

>  <SMILES>  (1) 
CO[C@]12C=C[C@]3(C[C@@H]1[C@](c1ccccc1)(CC)O)[C@@]14[C@H]2Oc2c4c(C[C@H]3N(CC1)CC1CC1)ccc2O

>  <CID>  (1) 
90656664.0

>  <ChEMBL ID>  (1) 
nan

>  <InChiKey>  (1) 
GVBLCFZJLSNDQD-JGSIVOCFSA-N

>  <InChi>  (1) 
InChI=1S/C32H37NO4/c1-3-31(35,22-7-5-4-6-8-22)24-18-29-13-14-32(24,36-2)28-30(29)15-16-33(19-20-9-10-20)25(29)17-21-11-12-23(34)27(37-28)26(21)30/h4-8,11-14,20,24-25,28,34-35H,3,9-10,15-19H2,1-2H3/t24-,25-,28-,29-,30+,31-,32-/m1/s1

>  <IUPAC Name>  (1) 
(1R,2S,6R,14R,15R,19R)-5-(cyclopropylmethyl)-19-[(1S)-1-hydroxy-1-phenylpropyl]-15-methoxy-13-oxa-5-azahexacyclo[13.2.2.12,8.01,6.02,14.012,20]icosa-8(20),9,11,16-tetraen-11-ol

$$$$
