
     RDKit          3D

 29 30  0  0  0  0  0  0  0  0999 V2000
    3.1380    0.6252   -0.5316 C   0  0  0  0  0  0  0  0  0  0  0  0
    2.5519   -0.4390    0.3619 C   0  0  1  0  0  0  0  0  0  0  0  0
    1.3343   -0.0254    1.1097 C   0  0  0  0  0  0  0  0  0  0  0  0
    0.2190    0.3829    0.3131 N   0  0  0  0  0  0  0  0  0  0  0  0
    0.2020    1.6018   -0.4893 C   0  0  0  0  0  0  0  0  0  0  0  0
   -1.2233    2.0706   -0.2782 C   0  0  0  0  0  0  0  0  0  0  0  0
   -1.9410    0.7576   -0.2499 C   0  0  0  0  0  0  0  0  0  0  0  0
   -1.0478   -0.2285    0.1121 C   0  0  0  0  0  0  0  0  0  0  0  0
   -1.4387   -1.5474    0.2232 C   0  0  0  0  0  0  0  0  0  0  0  0
   -2.7577   -1.8405   -0.0420 C   0  0  0  0  0  0  0  0  0  0  0  0
   -3.4295   -3.8257    0.1109 I   0  0  0  0  0  0  0  0  0  0  0  0
   -3.6715   -0.8445   -0.4102 C   0  0  0  0  0  0  0  0  0  0  0  0
   -3.2470    0.4749   -0.5135 C   0  0  0  0  0  0  0  0  0  0  0  0
   -4.9723   -1.1325   -0.6695 F   0  0  0  0  0  0  0  0  0  0  0  0
    2.4579   -1.6759   -0.3482 N   0  0  0  0  0  0  0  0  0  0  0  0
    2.6753    0.5401   -1.5372 H   0  0  0  0  0  0  0  0  0  0  0  0
    3.1318    1.6275   -0.1082 H   0  0  0  0  0  0  0  0  0  0  0  0
    4.2112    0.3527   -0.6950 H   0  0  0  0  0  0  0  0  0  0  0  0
    3.3469   -0.6065    1.1540 H   0  0  0  0  0  0  0  0  0  0  0  0
    1.5967    0.7828    1.8483 H   0  0  0  0  0  0  0  0  0  0  0  0
    1.0813   -0.8955    1.7788 H   0  0  0  0  0  0  0  0  0  0  0  0
    0.3459    1.3757   -1.5484 H   0  0  0  0  0  0  0  0  0  0  0  0
    0.8566    2.3757   -0.0875 H   0  0  0  0  0  0  0  0  0  0  0  0
   -1.5962    2.7492   -1.0446 H   0  0  0  0  0  0  0  0  0  0  0  0
   -1.2733    2.4792    0.7558 H   0  0  0  0  0  0  0  0  0  0  0  0
   -0.7007   -2.2969    0.5097 H   0  0  0  0  0  0  0  0  0  0  0  0
   -3.9787    1.2411   -0.8042 H   0  0  0  0  0  0  0  0  0  0  0  0
    2.0358   -1.6481   -1.2781 H   0  0  0  0  0  0  0  0  0  0  0  0
    2.0932   -2.4307    0.2625 H   0  0  0  0  0  0  0  0  0  0  0  0
  1  2  1  0
  2  3  1  0
  3  4  1  0
  4  5  1  0
  5  6  1  0
  6  7  1  0
  7  8  2  0
  8  9  1  0
  9 10  2  0
 10 11  1  0
 10 12  1  0
 12 13  2  0
 12 14  1  0
  2 15  1  0
  8  4  1  0
 13  7  1  0
  1 16  1  0
  1 17  1  0
  1 18  1  0
  2 19  1  1
  3 20  1  0
  3 21  1  0
  5 22  1  0
  5 23  1  0
  6 24  1  0
  6 25  1  0
  9 26  1  0
 13 27  1  0
 15 28  1  0
 15 29  1  0
M  END
>  <Ligand ID>  (1) 
LIG0002163

>  <Ligand>  (1) 
CHEMBL76301

>  <SMILES>  (1) 
C[C@@H](CN1CCc2c1cc(I)c(c2)F)N

>  <CID>  (1) 
18735305.0

>  <ChEMBL ID>  (1) 
nan

>  <InChiKey>  (1) 
KZFPTLZBQZDFHT-ZETCQYMHSA-N

>  <InChi>  (1) 
InChI=1S/C11H14FIN2/c1-7(14)6-15-3-2-8-4-9(12)10(13)5-11(8)15/h4-5,7H,2-3,6,14H2,1H3/t7-/m0/s1

>  <IUPAC Name>  (1) 
(2S)-1-(5-fluoro-6-iodo-2,3-dihydroindol-1-yl)propan-2-amine

$$$$
