
     RDKit          3D

 47 49  0  0  0  0  0  0  0  0999 V2000
   -0.0486    1.6584   -0.9444 O   0  0  0  0  0  0  0  0  0  0  0  0
    0.1447    1.1001   -2.0414 C   0  0  0  0  0  0  0  0  0  0  0  0
   -0.8093    0.1221   -2.4495 N   0  0  0  0  0  0  0  0  0  0  0  0
   -1.8988   -0.1323   -1.5704 C   0  0  0  0  0  0  0  0  0  0  0  0
   -3.0342    0.6539   -1.7696 C   0  0  0  0  0  0  0  0  0  0  0  0
   -4.0649    0.4118   -0.9365 N   0  0  0  0  0  0  0  0  0  0  0  0
   -4.0369   -0.5211    0.0377 C   0  0  0  0  0  0  0  0  0  0  0  0
   -2.9335   -1.2776    0.2233 N   0  0  0  0  0  0  0  0  0  0  0  0
   -1.8477   -1.0953   -0.5773 C   0  0  0  0  0  0  0  0  0  0  0  0
   -5.2598   -0.6621    0.8710 C   0  0  0  0  0  0  0  0  0  0  0  0
   -6.2192   -1.6754    0.2734 C   0  0  0  0  0  0  0  0  0  0  0  0
   -4.7914   -1.1406    2.2344 C   0  0  0  0  0  0  0  0  0  0  0  0
   -5.9883    0.6273    1.0650 C   0  0  0  0  0  0  0  0  0  0  0  0
    1.2747    1.3632   -2.9545 C   0  0  0  0  0  0  0  0  0  0  0  0
    2.1871    2.3790   -2.3293 C   0  0  0  0  0  0  0  0  0  0  0  0
    2.7145    1.8429   -1.0572 C   0  0  0  0  0  0  0  0  0  0  0  0
    2.2745    1.9166    0.1685 O   0  0  0  0  0  0  0  0  0  0  0  0
    3.0647    1.2910    0.9869 N   0  0  0  0  0  0  0  0  0  0  0  0
    4.0921    0.7642    0.2963 C   0  0  0  0  0  0  0  0  0  0  0  0
    3.8666    1.1138   -0.9849 N   0  0  0  0  0  0  0  0  0  0  0  0
    5.2233   -0.0195    0.7827 C   0  0  0  0  0  0  0  0  0  0  0  0
    6.2099   -0.4964   -0.0584 C   0  0  0  0  0  0  0  0  0  0  0  0
    7.2629   -1.2336    0.4421 C   0  0  0  0  0  0  0  0  0  0  0  0
    7.3261   -1.4967    1.8129 C   0  0  0  0  0  0  0  0  0  0  0  0
    6.3516   -1.0316    2.6802 C   0  0  0  0  0  0  0  0  0  0  0  0
    5.3147   -0.2976    2.1378 C   0  0  0  0  0  0  0  0  0  0  0  0
    4.0520    0.3129    3.2136 Cl  0  0  0  0  0  0  0  0  0  0  0  0
    8.3944   -2.2353    2.2636 F   0  0  0  0  0  0  0  0  0  0  0  0
   -0.7416   -0.4034   -3.3483 H   0  0  0  0  0  0  0  0  0  0  0  0
   -3.0737    1.4100   -2.5497 H   0  0  0  0  0  0  0  0  0  0  0  0
   -0.9441   -1.6849   -0.4571 H   0  0  0  0  0  0  0  0  0  0  0  0
   -6.2024   -1.5444   -0.8468 H   0  0  0  0  0  0  0  0  0  0  0  0
   -7.2582   -1.4878    0.6150 H   0  0  0  0  0  0  0  0  0  0  0  0
   -5.8792   -2.7185    0.4387 H   0  0  0  0  0  0  0  0  0  0  0  0
   -4.1116   -2.0036    2.1042 H   0  0  0  0  0  0  0  0  0  0  0  0
   -4.2752   -0.2694    2.7065 H   0  0  0  0  0  0  0  0  0  0  0  0
   -5.7050   -1.3876    2.8114 H   0  0  0  0  0  0  0  0  0  0  0  0
   -7.0652    0.4375    1.0966 H   0  0  0  0  0  0  0  0  0  0  0  0
   -5.7316    1.1358    2.0172 H   0  0  0  0  0  0  0  0  0  0  0  0
   -5.7945    1.2963    0.1832 H   0  0  0  0  0  0  0  0  0  0  0  0
    0.8539    1.7529   -3.9071 H   0  0  0  0  0  0  0  0  0  0  0  0
    1.8872    0.4504   -3.1411 H   0  0  0  0  0  0  0  0  0  0  0  0
    3.0443    2.6174   -2.9964 H   0  0  0  0  0  0  0  0  0  0  0  0
    1.5697    3.3007   -2.1481 H   0  0  0  0  0  0  0  0  0  0  0  0
    6.1628   -0.2949   -1.1130 H   0  0  0  0  0  0  0  0  0  0  0  0
    8.0265   -1.6031   -0.2065 H   0  0  0  0  0  0  0  0  0  0  0  0
    6.4167   -1.2453    3.7408 H   0  0  0  0  0  0  0  0  0  0  0  0
  1  2  2  0
  2  3  1  0
  3  4  1  0
  4  5  2  0
  5  6  1  0
  6  7  2  0
  7  8  1  0
  8  9  2  0
  7 10  1  0
 10 11  1  0
 10 12  1  0
 10 13  1  0
  2 14  1  0
 14 15  1  0
 15 16  1  0
 16 17  1  0
 17 18  1  0
 18 19  2  0
 19 20  1  0
 19 21  1  0
 21 22  2  0
 22 23  1  0
 23 24  2  0
 24 25  1  0
 25 26  2  0
 26 27  1  0
 24 28  1  0
  9  4  1  0
 20 16  2  0
 26 21  1  0
  3 29  1  0
  5 30  1  0
  9 31  1  0
 11 32  1  0
 11 33  1  0
 11 34  1  0
 12 35  1  0
 12 36  1  0
 12 37  1  0
 13 38  1  0
 13 39  1  0
 13 40  1  0
 14 41  1  0
 14 42  1  0
 15 43  1  0
 15 44  1  0
 22 45  1  0
 23 46  1  0
 25 47  1  0
M  END
>  <Ligand ID>  (1) 
LIG0001475

>  <Ligand>  (1) 
CHEMBL499059

>  <SMILES>  (1) 
O=C(Nc1cnc(nc1)C(C)(C)C)CCc1onc(n1)c1ccc(cc1Cl)F

>  <CID>  (1) 
25034207.0

>  <ChEMBL ID>  (1) 
nan

>  <InChiKey>  (1) 
OLHXKPCTKJZNJB-UHFFFAOYSA-N

>  <InChi>  (1) 
InChI=1S/C19H19ClFN5O2/c1-19(2,3)18-22-9-12(10-23-18)24-15(27)6-7-16-25-17(26-28-16)13-5-4-11(21)8-14(13)20/h4-5,8-10H,6-7H2,1-3H3,(H,24,27)

>  <IUPAC Name>  (1) 
N-(2-tert-butylpyrimidin-5-yl)-3-[3-(2-chloro-4-fluorophenyl)-1,2,4-oxadiazol-5-yl]propanamide

$$$$
