
     RDKit          3D

 24 23  0  0  0  0  0  0  0  0999 V2000
    3.9460    0.2518   -0.3300 C   0  0  0  0  0  0  0  0  0  0  0  0
    2.5457    0.5316   -0.7469 C   0  0  0  0  0  0  0  0  0  0  0  0
    1.5271    0.0290   -0.0693 C   0  0  0  0  0  0  0  0  0  0  0  0
    0.1799    0.3434   -0.5330 C   0  0  0  0  0  0  0  0  0  0  0  0
    0.0658    1.0826   -1.5620 O   0  0  0  0  0  0  0  0  0  0  0  0
   -0.9547   -0.1357    0.1095 O   0  0  0  0  0  0  0  0  0  0  0  0
   -2.2563    0.1978   -0.3799 C   0  0  0  0  0  0  0  0  0  0  0  0
   -2.9536   -1.0585   -0.8013 C   0  0  0  0  0  0  0  0  0  0  0  0
   -3.0526    0.9120    0.6734 C   0  0  0  0  0  0  0  0  0  0  0  0
    1.7254   -0.8308    1.1289 C   0  0  0  0  0  0  0  0  0  0  0  0
    4.0635    0.0208    0.7286 H   0  0  0  0  0  0  0  0  0  0  0  0
    4.3928   -0.5861   -0.9351 H   0  0  0  0  0  0  0  0  0  0  0  0
    4.5956    1.1438   -0.5641 H   0  0  0  0  0  0  0  0  0  0  0  0
    2.4229    1.1624   -1.6255 H   0  0  0  0  0  0  0  0  0  0  0  0
   -2.0763    0.8494   -1.2814 H   0  0  0  0  0  0  0  0  0  0  0  0
   -2.2625   -1.8812   -1.0727 H   0  0  0  0  0  0  0  0  0  0  0  0
   -3.5988   -1.3791    0.0506 H   0  0  0  0  0  0  0  0  0  0  0  0
   -3.5734   -0.8238   -1.7117 H   0  0  0  0  0  0  0  0  0  0  0  0
   -2.5629    0.8502    1.6473 H   0  0  0  0  0  0  0  0  0  0  0  0
   -4.0666    0.4442    0.7919 H   0  0  0  0  0  0  0  0  0  0  0  0
   -3.2572    1.9760    0.4535 H   0  0  0  0  0  0  0  0  0  0  0  0
    1.6291   -0.1532    2.0233 H   0  0  0  0  0  0  0  0  0  0  0  0
    2.6578   -1.4045    1.1210 H   0  0  0  0  0  0  0  0  0  0  0  0
    0.8632   -1.5420    1.2572 H   0  0  0  0  0  0  0  0  0  0  0  0
  1  2  1  0
  2  3  2  0
  3  4  1  0
  4  5  2  0
  4  6  1  0
  6  7  1  0
  7  8  1  0
  7  9  1  0
  3 10  1  0
  1 11  1  0
  1 12  1  0
  1 13  1  0
  2 14  1  0
  7 15  1  0
  8 16  1  0
  8 17  1  0
  8 18  1  0
  9 19  1  0
  9 20  1  0
  9 21  1  0
 10 22  1  0
 10 23  1  0
 10 24  1  0
M  END
>  <Ligand ID>  (1) 
LIG0000522

>  <Ligand>  (1) 
Isopropyl tiglate

>  <SMILES>  (1) 
C/C=C(/C(=O)OC(C)C)\C

>  <CID>  (1) 
5367745.0

>  <ChEMBL ID>  (1) 
nan

>  <InChiKey>  (1) 
VUPBIVVRPJDWNW-FNORWQNLSA-N

>  <InChi>  (1) 
InChI=1S/C8H14O2/c1-5-7(4)8(9)10-6(2)3/h5-6H,1-4H3/b7-5+

>  <IUPAC Name>  (1) 
propan-2-yl (E)-2-methylbut-2-enoate

$$$$
