
     RDKit          3D

 45 47  0  0  0  0  0  0  0  0999 V2000
   -8.3294    3.2562    0.8285 Br  0  0  0  0  0  0  0  0  0  0  0  0
   -6.9862    1.8987    0.8064 C   0  0  0  0  0  0  0  0  0  0  0  0
   -6.0807    1.7967    1.8510 C   0  0  0  0  0  0  0  0  0  0  0  0
   -5.1038    0.8212    1.8503 C   0  0  0  0  0  0  0  0  0  0  0  0
   -5.0488   -0.0486    0.7886 C   0  0  0  0  0  0  0  0  0  0  0  0
   -5.9657    0.0631   -0.2582 C   0  0  0  0  0  0  0  0  0  0  0  0
   -6.9407    1.0296   -0.2668 C   0  0  0  0  0  0  0  0  0  0  0  0
   -4.0884   -1.0944    0.6748 N   0  0  0  0  0  0  0  0  0  0  0  0
   -2.8247   -0.8626    0.0248 C   0  0  0  0  0  0  0  0  0  0  0  0
   -2.5211    0.2544   -0.4615 O   0  0  0  0  0  0  0  0  0  0  0  0
   -1.8887   -2.0010   -0.0491 C   0  0  0  0  0  0  0  0  0  0  0  0
   -0.6678   -1.6247   -0.7243 N   0  0  0  0  0  0  0  0  0  0  0  0
   -0.6016   -1.7788   -2.0458 N   0  0  0  0  0  0  0  0  0  0  0  0
    0.5237   -1.4372   -2.7069 C   0  0  0  0  0  0  0  0  0  0  0  0
    0.6303   -1.5975   -4.1882 C   0  0  0  0  0  0  0  0  0  0  0  0
    1.6018   -0.9246   -1.9750 C   0  0  0  0  0  0  0  0  0  0  0  0
    1.5570   -0.7573   -0.6162 C   0  0  0  0  0  0  0  0  0  0  0  0
    0.3537   -1.1357   -0.0070 C   0  0  0  0  0  0  0  0  0  0  0  0
    0.1974   -1.0260    1.2424 O   0  0  0  0  0  0  0  0  0  0  0  0
    2.5873   -0.2523    0.1946 N   0  0  0  0  0  0  0  0  0  0  0  0
    3.8629    0.1802   -0.2210 C   0  0  0  0  0  0  0  0  0  0  0  0
    4.1875    0.1403   -1.4313 O   0  0  0  0  0  0  0  0  0  0  0  0
    4.8700    0.6924    0.7076 C   0  0  0  0  0  0  0  0  0  0  0  0
    4.6753    0.8014    2.0595 C   0  0  0  0  0  0  0  0  0  0  0  0
    5.6496    1.2919    2.9214 C   0  0  0  0  0  0  0  0  0  0  0  0
    6.8720    1.6946    2.4369 C   0  0  0  0  0  0  0  0  0  0  0  0
    7.0943    1.5957    1.0814 C   0  0  0  0  0  0  0  0  0  0  0  0
    6.1216    1.1083    0.2383 C   0  0  0  0  0  0  0  0  0  0  0  0
    8.2180    2.3674    3.5925 Br  0  0  0  0  0  0  0  0  0  0  0  0
   -6.1281    2.4739    2.6718 H   0  0  0  0  0  0  0  0  0  0  0  0
   -4.3778    0.7021    2.6394 H   0  0  0  0  0  0  0  0  0  0  0  0
   -5.9399   -0.6121   -1.1044 H   0  0  0  0  0  0  0  0  0  0  0  0
   -7.6620    1.1450   -1.0544 H   0  0  0  0  0  0  0  0  0  0  0  0
   -4.3378   -2.0175    1.0760 H   0  0  0  0  0  0  0  0  0  0  0  0
   -2.3980   -2.7985   -0.6458 H   0  0  0  0  0  0  0  0  0  0  0  0
   -1.7016   -2.4463    0.9479 H   0  0  0  0  0  0  0  0  0  0  0  0
    1.2568   -0.7670   -4.6125 H   0  0  0  0  0  0  0  0  0  0  0  0
   -0.3695   -1.5910   -4.6371 H   0  0  0  0  0  0  0  0  0  0  0  0
    1.1956   -2.5304   -4.3454 H   0  0  0  0  0  0  0  0  0  0  0  0
    2.4673   -0.6713   -2.5522 H   0  0  0  0  0  0  0  0  0  0  0  0
    2.3925   -0.1868    1.2267 H   0  0  0  0  0  0  0  0  0  0  0  0
    3.7476    0.5086    2.5220 H   0  0  0  0  0  0  0  0  0  0  0  0
    5.4871    1.3741    3.9853 H   0  0  0  0  0  0  0  0  0  0  0  0
    8.0520    1.9090    0.6856 H   0  0  0  0  0  0  0  0  0  0  0  0
    6.3612    1.0566   -0.8186 H   0  0  0  0  0  0  0  0  0  0  0  0
  1  2  1  0
  2  3  2  0
  3  4  1  0
  4  5  2  0
  5  6  1  0
  6  7  2  0
  5  8  1  0
  8  9  1  0
  9 10  2  0
  9 11  1  0
 11 12  1  0
 12 13  1  0
 13 14  2  0
 14 15  1  0
 14 16  1  0
 16 17  2  0
 17 18  1  0
 18 19  2  0
 17 20  1  0
 20 21  1  0
 21 22  2  0
 21 23  1  0
 23 24  2  0
 24 25  1  0
 25 26  2  0
 26 27  1  0
 27 28  2  0
 26 29  1  0
  7  2  1  0
 18 12  1  0
 28 23  1  0
  3 30  1  0
  4 31  1  0
  6 32  1  0
  7 33  1  0
  8 34  1  0
 11 35  1  0
 11 36  1  0
 15 37  1  0
 15 38  1  0
 15 39  1  0
 16 40  1  0
 20 41  1  0
 24 42  1  0
 25 43  1  0
 27 44  1  0
 28 45  1  0
M  END
>  <Ligand ID>  (1) 
LIG0003957

>  <Ligand>  (1) 
CHEMBL2391451

>  <SMILES>  (1) 
Brc1ccc(cc1)NC(=O)Cn1nc(C)cc(c1=O)NC(=O)c1ccc(cc1)Br

>  <CID>  (1) 
71699222.0

>  <ChEMBL ID>  (1) 
nan

>  <InChiKey>  (1) 
NIPQLMFTYDYKDL-UHFFFAOYSA-N

>  <InChi>  (1) 
InChI=1S/C20H16Br2N4O3/c1-12-10-17(24-19(28)13-2-4-14(21)5-3-13)20(29)26(25-12)11-18(27)23-16-8-6-15(22)7-9-16/h2-10H,11H2,1H3,(H,23,27)(H,24,28)

>  <IUPAC Name>  (1) 
4-bromo-N-[2-[2-(4-bromoanilino)-2-oxoethyl]-6-methyl-3-oxopyridazin-4-yl]benzamide

$$$$
