
     RDKit          3D

 42 44  0  0  0  0  0  0  0  0999 V2000
   -6.4757    2.5591   -0.0974 C   0  0  0  0  0  0  0  0  0  0  0  0
   -5.9131    1.1470   -0.2853 C   0  0  0  0  0  0  0  0  0  0  0  0
   -5.8855    0.4390    0.9643 N   0  0  0  0  0  0  0  0  0  0  0  0
   -5.2511   -1.1403    0.7275 S   0  0  0  0  0  0  0  0  0  0  0  0
   -6.1053   -1.7863   -0.3539 O   0  0  0  0  0  0  0  0  0  0  0  0
   -5.3650   -1.9957    1.9324 O   0  0  0  0  0  0  0  0  0  0  0  0
   -3.6225   -1.0021    0.1388 C   0  0  0  0  0  0  0  0  0  0  0  0
   -2.5895   -0.9541    1.0415 C   0  0  0  0  0  0  0  0  0  0  0  0
   -1.2738   -0.8428    0.5799 C   0  0  0  0  0  0  0  0  0  0  0  0
   -0.9379   -0.7773   -0.7309 C   0  0  0  0  0  0  0  0  0  0  0  0
   -1.9985   -0.8269   -1.6459 C   0  0  0  0  0  0  0  0  0  0  0  0
   -3.2925   -0.9362   -1.1983 C   0  0  0  0  0  0  0  0  0  0  0  0
    0.3655   -0.6648   -1.2617 N   0  0  0  0  0  0  0  0  0  0  0  0
    1.5616   -0.5993   -0.5306 C   0  0  0  0  0  0  0  0  0  0  0  0
    1.6007   -0.6346    0.6998 O   0  0  0  0  0  0  0  0  0  0  0  0
    2.8186   -0.4853   -1.2209 N   0  0  0  0  0  0  0  0  0  0  0  0
    4.0500   -0.4167   -0.5038 C   0  0  0  0  0  0  0  0  0  0  0  0
    4.7361   -1.5579   -0.1910 C   0  0  0  0  0  0  0  0  0  0  0  0
    5.9448   -1.5392    0.5093 C   0  0  0  0  0  0  0  0  0  0  0  0
    6.4521   -0.2941    0.8943 C   0  0  0  0  0  0  0  0  0  0  0  0
    5.7684    0.8631    0.5840 C   0  0  0  0  0  0  0  0  0  0  0  0
    4.5628    0.8177   -0.1164 C   0  0  0  0  0  0  0  0  0  0  0  0
    6.5149    1.9413    1.0950 O   0  0  0  0  0  0  0  0  0  0  0  0
    7.7403    1.4441    1.6168 C   0  0  0  0  0  0  0  0  0  0  0  0
    7.6057    0.0407    1.5859 O   0  0  0  0  0  0  0  0  0  0  0  0
   -6.0744    2.8984    0.8941 H   0  0  0  0  0  0  0  0  0  0  0  0
   -7.5696    2.5543   -0.0565 H   0  0  0  0  0  0  0  0  0  0  0  0
   -6.1296    3.2487   -0.8995 H   0  0  0  0  0  0  0  0  0  0  0  0
   -4.9081    1.2890   -0.6952 H   0  0  0  0  0  0  0  0  0  0  0  0
   -6.5067    0.6062   -1.0501 H   0  0  0  0  0  0  0  0  0  0  0  0
   -5.2545    0.9348    1.6212 H   0  0  0  0  0  0  0  0  0  0  0  0
   -2.8060   -1.0031    2.1042 H   0  0  0  0  0  0  0  0  0  0  0  0
   -0.5227   -0.8114    1.3464 H   0  0  0  0  0  0  0  0  0  0  0  0
   -1.8267   -0.7809   -2.7177 H   0  0  0  0  0  0  0  0  0  0  0  0
   -4.0816   -0.9713   -1.9352 H   0  0  0  0  0  0  0  0  0  0  0  0
    0.4729   -0.6240   -2.3219 H   0  0  0  0  0  0  0  0  0  0  0  0
    2.8635   -0.4493   -2.2751 H   0  0  0  0  0  0  0  0  0  0  0  0
    4.3846   -2.5619   -0.4682 H   0  0  0  0  0  0  0  0  0  0  0  0
    6.4765   -2.4653    0.7487 H   0  0  0  0  0  0  0  0  0  0  0  0
    4.0148    1.7298   -0.3663 H   0  0  0  0  0  0  0  0  0  0  0  0
    7.8708    1.7896    2.6636 H   0  0  0  0  0  0  0  0  0  0  0  0
    8.5859    1.8181    1.0163 H   0  0  0  0  0  0  0  0  0  0  0  0
  1  2  1  0
  2  3  1  0
  3  4  1  0
  4  5  2  0
  4  6  2  0
  4  7  1  0
  7  8  2  0
  8  9  1  0
  9 10  2  0
 10 11  1  0
 11 12  2  0
 10 13  1  0
 13 14  1  0
 14 15  2  0
 14 16  1  0
 16 17  1  0
 17 18  2  0
 18 19  1  0
 19 20  2  0
 20 21  1  0
 21 22  2  0
 21 23  1  0
 23 24  1  0
 24 25  1  0
 12  7  1  0
 22 17  1  0
 25 20  1  0
  1 26  1  0
  1 27  1  0
  1 28  1  0
  2 29  1  0
  2 30  1  0
  3 31  1  0
  8 32  1  0
  9 33  1  0
 11 34  1  0
 12 35  1  0
 13 36  1  0
 16 37  1  0
 18 38  1  0
 19 39  1  0
 22 40  1  0
 24 41  1  0
 24 42  1  0
M  END
>  <Ligand ID>  (1) 
LIG0004423

>  <Ligand>  (1) 
MLS001232306

>  <SMILES>  (1) 
CCNS(=O)(=O)c1ccc(cc1)NC(=O)Nc1ccc2c(c1)OCO2

>  <CID>  (1) 
2206548.0

>  <ChEMBL ID>  (1) 
nan

>  <InChiKey>  (1) 
QMEDCVHXKLSJFO-UHFFFAOYSA-N

>  <InChi>  (1) 
InChI=1S/C16H17N3O5S/c1-2-17-25(21,22)13-6-3-11(4-7-13)18-16(20)19-12-5-8-14-15(9-12)24-10-23-14/h3-9,17H,2,10H2,1H3,(H2,18,19,20)

>  <IUPAC Name>  (1) 
1-(1,3-benzodioxol-5-yl)-3-[4-(ethylsulfamoyl)phenyl]urea

$$$$
