
     RDKit          3D

 56 57  0  0  0  0  0  0  0  0999 V2000
   -7.0916   -1.8993   -0.3682 F   0  0  0  0  0  0  0  0  0  0  0  0
   -7.2012   -0.8486   -1.2797 C   0  0  0  0  0  0  0  0  0  0  0  0
   -5.9605   -0.8868   -2.1193 C   0  0  0  0  0  0  0  0  0  0  0  0
   -4.7372   -0.7477   -1.2521 C   0  0  0  0  0  0  0  0  0  0  0  0
   -4.6849    0.5197   -0.5056 C   0  0  0  0  0  0  0  0  0  0  0  0
   -3.5231    0.7662    0.3895 C   0  0  0  0  0  0  0  0  0  0  0  0
   -2.2138    0.7681   -0.3129 C   0  0  1  0  0  0  0  0  0  0  0  0
   -1.0936    1.0491    0.6664 C   0  0  0  0  0  0  0  0  0  0  0  0
    0.0515    0.3532    0.5765 C   0  0  0  0  0  0  0  0  0  0  0  0
    1.1273    0.6579    1.5555 C   0  0  1  0  0  0  0  0  0  0  0  0
    0.8321    0.0616    2.9120 C   0  0  0  0  0  0  0  0  0  0  0  0
    1.4867   -1.2068    2.9187 O   0  0  0  0  0  0  0  0  0  0  0  0
    2.5415   -1.1367    2.0015 C   0  0  0  0  0  0  0  0  0  0  0  0
    3.4956   -1.9812    1.9119 O   0  0  0  0  0  0  0  0  0  0  0  0
    2.3729    0.0383    1.1816 N   0  0  0  0  0  0  0  0  0  0  0  0
    3.3179    0.4539    0.1918 C   0  0  0  0  0  0  0  0  0  0  0  0
    3.0183   -0.1568   -1.1830 C   0  0  0  0  0  0  0  0  0  0  0  0
    4.2589    0.4127   -2.3941 S   0  0  0  0  0  0  0  0  0  0  0  0
    5.8108   -0.2731   -1.9093 C   0  0  0  0  0  0  0  0  0  0  0  0
    6.4103   -1.9381   -2.5115 S   0  0  0  0  0  0  0  0  0  0  0  0
    7.9536   -1.8220   -1.5798 C   0  0  0  0  0  0  0  0  0  0  0  0
    7.8454   -0.5695   -0.9344 C   0  0  0  0  0  0  0  0  0  0  0  0
    6.7655    0.0884   -1.1697 N   0  0  0  0  0  0  0  0  0  0  0  0
    8.9434   -0.1070   -0.0575 C   0  0  0  0  0  0  0  0  0  0  0  0
    9.9511   -0.8348    0.0979 O   0  0  0  0  0  0  0  0  0  0  0  0
    8.8818    1.1112    0.5947 O   0  0  0  0  0  0  0  0  0  0  0  0
   -1.9429   -0.4521   -0.9341 O   0  0  0  0  0  0  0  0  0  0  0  0
   -3.6938    2.1395    1.0565 C   0  0  0  0  0  0  0  0  0  0  0  0
   -3.4552   -0.2232    1.5385 C   0  0  0  0  0  0  0  0  0  0  0  0
   -8.1200   -1.0030   -1.9149 H   0  0  0  0  0  0  0  0  0  0  0  0
   -7.2543    0.0986   -0.7342 H   0  0  0  0  0  0  0  0  0  0  0  0
   -5.9819   -0.1073   -2.9199 H   0  0  0  0  0  0  0  0  0  0  0  0
   -5.9775   -1.8931   -2.6332 H   0  0  0  0  0  0  0  0  0  0  0  0
   -3.8653   -0.8336   -1.9710 H   0  0  0  0  0  0  0  0  0  0  0  0
   -4.7099   -1.6592   -0.6145 H   0  0  0  0  0  0  0  0  0  0  0  0
   -4.7711    1.3595   -1.2538 H   0  0  0  0  0  0  0  0  0  0  0  0
   -5.6290    0.6462    0.1073 H   0  0  0  0  0  0  0  0  0  0  0  0
   -2.1931    1.5586   -1.0722 H   0  0  0  0  0  0  0  0  0  0  0  0
   -1.1823    1.7926    1.4394 H   0  0  0  0  0  0  0  0  0  0  0  0
    0.1389   -0.3967   -0.2034 H   0  0  0  0  0  0  0  0  0  0  0  0
    1.2701    1.7580    1.6825 H   0  0  0  0  0  0  0  0  0  0  0  0
   -0.2701   -0.1024    2.9838 H   0  0  0  0  0  0  0  0  0  0  0  0
    1.1899    0.6695    3.7514 H   0  0  0  0  0  0  0  0  0  0  0  0
    3.3350    1.5442    0.0220 H   0  0  0  0  0  0  0  0  0  0  0  0
    4.3328    0.1761    0.5277 H   0  0  0  0  0  0  0  0  0  0  0  0
    2.0438    0.1945   -1.5411 H   0  0  0  0  0  0  0  0  0  0  0  0
    3.1198   -1.2449   -1.0829 H   0  0  0  0  0  0  0  0  0  0  0  0
    8.7216   -2.5367   -1.5518 H   0  0  0  0  0  0  0  0  0  0  0  0
    9.7008    1.5291    1.0267 H   0  0  0  0  0  0  0  0  0  0  0  0
   -1.7816   -1.1495   -0.2762 H   0  0  0  0  0  0  0  0  0  0  0  0
   -3.8857    2.0651    2.1280 H   0  0  0  0  0  0  0  0  0  0  0  0
   -2.8412    2.8099    0.8379 H   0  0  0  0  0  0  0  0  0  0  0  0
   -4.5903    2.6519    0.6163 H   0  0  0  0  0  0  0  0  0  0  0  0
   -3.1361   -1.2259    1.2486 H   0  0  0  0  0  0  0  0  0  0  0  0
   -4.4288   -0.2205    2.1057 H   0  0  0  0  0  0  0  0  0  0  0  0
   -2.7016    0.1829    2.2513 H   0  0  0  0  0  0  0  0  0  0  0  0
  1  2  1  0
  2  3  1  0
  3  4  1  0
  4  5  1  0
  5  6  1  0
  6  7  1  0
  7  8  1  0
  8  9  2  0
  9 10  1  0
 10 11  1  0
 11 12  1  0
 12 13  1  0
 13 14  2  0
 13 15  1  0
 15 16  1  0
 16 17  1  0
 17 18  1  0
 18 19  1  0
 19 20  1  0
 20 21  1  0
 21 22  2  0
 22 23  1  0
 22 24  1  0
 24 25  2  0
 24 26  1  0
  7 27  1  0
  6 28  1  0
  6 29  1  0
 15 10  1  0
 23 19  2  0
  2 30  1  0
  2 31  1  0
  3 32  1  0
  3 33  1  0
  4 34  1  0
  4 35  1  0
  5 36  1  0
  5 37  1  0
  7 38  1  6
  8 39  1  0
  9 40  1  0
 10 41  1  1
 11 42  1  0
 11 43  1  0
 16 44  1  0
 16 45  1  0
 17 46  1  0
 17 47  1  0
 21 48  1  0
 26 49  1  0
 27 50  1  0
 28 51  1  0
 28 52  1  0
 28 53  1  0
 29 54  1  0
 29 55  1  0
 29 56  1  0
M  END
>  <Ligand ID>  (1) 
LIG0003404

>  <Ligand>  (1) 
CHEMBL3752406

>  <SMILES>  (1) 
FCCCCC([C@@H](/C=C/[C@H]1COC(=O)N1CCSc1scc(n1)C(=O)O)O)(C)C

>  <CID>  (1) 
11362836.0

>  <ChEMBL ID>  (1) 
nan

>  <InChiKey>  (1) 
WYMHORLLZUTSGD-XPKDBEDXSA-N

>  <InChi>  (1) 
InChI=1S/C19H27FN2O5S2/c1-19(2,7-3-4-8-20)15(23)6-5-13-11-27-18(26)22(13)9-10-28-17-21-14(12-29-17)16(24)25/h5-6,12-13,15,23H,3-4,7-11H2,1-2H3,(H,24,25)/b6-5+/t13-,15+/m0/s1

>  <IUPAC Name>  (1) 
2-[2-[(4S)-4-[(E,3R)-8-fluoro-3-hydroxy-4,4-dimethyloct-1-enyl]-2-oxo-1,3-oxazolidin-3-yl]ethylsulfanyl]-1,3-thiazole-4-carboxylic acid

$$$$
