
     RDKit          3D

 31 32  0  0  0  0  0  0  0  0999 V2000
    3.9232    1.0394   -0.0910 C   0  0  0  0  0  0  0  0  0  0  0  0
    3.5757   -0.2646    0.3483 O   0  0  0  0  0  0  0  0  0  0  0  0
    2.2187   -0.5931    0.4561 C   0  0  0  0  0  0  0  0  0  0  0  0
    1.2340    0.3225    0.1450 C   0  0  0  0  0  0  0  0  0  0  0  0
   -0.1120    0.0534    0.2328 C   0  0  0  0  0  0  0  0  0  0  0  0
   -1.0160    1.1359   -0.1342 C   0  0  0  0  0  0  0  0  0  0  0  0
   -0.4833    2.5061   -0.1420 C   0  0  0  0  0  0  0  0  0  0  0  0
   -1.7118    0.7210   -1.4040 C   0  0  0  0  0  0  0  0  0  0  0  0
   -2.2830   -0.5674   -1.3023 N   0  0  0  0  0  0  0  0  0  0  0  0
   -2.8101   -1.0196   -0.0918 C   0  0  0  0  0  0  0  0  0  0  0  0
   -1.8660   -1.7505    0.8353 C   0  0  0  0  0  0  0  0  0  0  0  0
   -0.4655   -1.2149    0.6599 C   0  0  0  0  0  0  0  0  0  0  0  0
    0.5059   -2.1430    0.9753 C   0  0  0  0  0  0  0  0  0  0  0  0
    1.8515   -1.8546    0.8810 C   0  0  0  0  0  0  0  0  0  0  0  0
    3.0954   -3.0264    1.2793 Cl  0  0  0  0  0  0  0  0  0  0  0  0
    3.7223    1.1311   -1.1776 H   0  0  0  0  0  0  0  0  0  0  0  0
    3.3937    1.8019    0.5278 H   0  0  0  0  0  0  0  0  0  0  0  0
    5.0048    1.1694    0.1328 H   0  0  0  0  0  0  0  0  0  0  0  0
    1.5474    1.3029   -0.1863 H   0  0  0  0  0  0  0  0  0  0  0  0
   -1.8381    1.1257    0.6439 H   0  0  0  0  0  0  0  0  0  0  0  0
   -1.2834    3.2713    0.0955 H   0  0  0  0  0  0  0  0  0  0  0  0
   -0.1665    2.7673   -1.1884 H   0  0  0  0  0  0  0  0  0  0  0  0
    0.3121    2.7313    0.5643 H   0  0  0  0  0  0  0  0  0  0  0  0
   -0.9438    0.6714   -2.2312 H   0  0  0  0  0  0  0  0  0  0  0  0
   -2.4488    1.4652   -1.7180 H   0  0  0  0  0  0  0  0  0  0  0  0
   -2.2381   -1.1927   -2.0971 H   0  0  0  0  0  0  0  0  0  0  0  0
   -3.3327   -0.2533    0.4937 H   0  0  0  0  0  0  0  0  0  0  0  0
   -3.6094   -1.7805   -0.3343 H   0  0  0  0  0  0  0  0  0  0  0  0
   -2.1386   -1.5674    1.8724 H   0  0  0  0  0  0  0  0  0  0  0  0
   -1.8748   -2.8515    0.6448 H   0  0  0  0  0  0  0  0  0  0  0  0
    0.2372   -3.1361    1.3098 H   0  0  0  0  0  0  0  0  0  0  0  0
  1  2  1  0
  2  3  1  0
  3  4  2  0
  4  5  1  0
  5  6  1  0
  6  7  1  0
  6  8  1  0
  8  9  1  0
  9 10  1  0
 10 11  1  0
 11 12  1  0
 12 13  1  0
 13 14  2  0
 14 15  1  0
 14  3  1  0
 12  5  2  0
  1 16  1  0
  1 17  1  0
  1 18  1  0
  4 19  1  0
  6 20  1  0
  7 21  1  0
  7 22  1  0
  7 23  1  0
  8 24  1  0
  8 25  1  0
  9 26  1  0
 10 27  1  0
 10 28  1  0
 11 29  1  0
 11 30  1  0
 13 31  1  0
M  END
>  <Ligand ID>  (1) 
LIG0004032

>  <Ligand>  (1) 
CHEMBL399750

>  <SMILES>  (1) 
COc1cc2C(C)CNCCc2cc1Cl

>  <CID>  (1) 
24773650.0

>  <ChEMBL ID>  (1) 
nan

>  <InChiKey>  (1) 
JIFVFWNAYPDOBY-UHFFFAOYSA-N

>  <InChi>  (1) 
InChI=1S/C12H16ClNO/c1-8-7-14-4-3-9-5-11(13)12(15-2)6-10(8)9/h5-6,8,14H,3-4,7H2,1-2H3

>  <IUPAC Name>  (1) 
8-chloro-7-methoxy-5-methyl-2,3,4,5-tetrahydro-1H-3-benzazepine

$$$$
