
     RDKit          3D

 32 34  0  0  0  0  0  0  0  0999 V2000
   -1.4462    1.8365    0.6091 C   0  0  0  0  0  0  0  0  0  0  0  0
   -1.8892    0.8546   -0.4517 C   0  0  2  0  0  0  0  0  0  0  0  0
   -3.0580    0.1764    0.0125 N   0  0  0  0  0  0  0  0  0  0  0  0
   -3.1388   -1.2198   -0.2947 C   0  0  0  0  0  0  0  0  0  0  0  0
   -1.9806   -2.0485    0.1626 C   0  0  0  0  0  0  0  0  0  0  0  0
   -0.7837   -1.2777    0.0231 N   0  0  0  0  0  0  0  0  0  0  0  0
   -0.8108   -0.1163   -0.8404 C   0  0  2  0  0  0  0  0  0  0  0  0
    0.5557    0.3923   -0.7229 C   0  0  0  0  0  0  0  0  0  0  0  0
    1.1572    1.4840   -1.3077 C   0  0  0  0  0  0  0  0  0  0  0  0
    2.4750    1.8332   -1.0918 C   0  0  0  0  0  0  0  0  0  0  0  0
    3.2302    1.0670   -0.2597 C   0  0  0  0  0  0  0  0  0  0  0  0
    2.6546   -0.0288    0.3374 C   0  0  0  0  0  0  0  0  0  0  0  0
    1.3283   -0.3798    0.1198 C   0  0  0  0  0  0  0  0  0  0  0  0
    0.4939   -1.4533    0.6088 C   0  0  0  0  0  0  0  0  0  0  0  0
    0.8553   -2.3509    1.3963 O   0  0  0  0  0  0  0  0  0  0  0  0
    3.4409   -0.9072    1.2630 C   0  0  0  0  0  0  0  0  0  0  0  0
    4.7095   -0.4175    1.3582 F   0  0  0  0  0  0  0  0  0  0  0  0
    2.8519   -0.9213    2.5182 F   0  0  0  0  0  0  0  0  0  0  0  0
    3.5035   -2.1850    0.7255 F   0  0  0  0  0  0  0  0  0  0  0  0
   -0.4759    1.5589    1.0773 H   0  0  0  0  0  0  0  0  0  0  0  0
   -2.1865    1.9227    1.4519 H   0  0  0  0  0  0  0  0  0  0  0  0
   -1.3517    2.8870    0.2160 H   0  0  0  0  0  0  0  0  0  0  0  0
   -2.1695    1.4320   -1.3570 H   0  0  0  0  0  0  0  0  0  0  0  0
   -3.3316    0.4153    0.9794 H   0  0  0  0  0  0  0  0  0  0  0  0
   -3.3407   -1.4217   -1.3647 H   0  0  0  0  0  0  0  0  0  0  0  0
   -4.0372   -1.5985    0.2709 H   0  0  0  0  0  0  0  0  0  0  0  0
   -1.9842   -2.9830   -0.4664 H   0  0  0  0  0  0  0  0  0  0  0  0
   -2.1027   -2.2878    1.2464 H   0  0  0  0  0  0  0  0  0  0  0  0
   -0.9792   -0.4141   -1.8948 H   0  0  0  0  0  0  0  0  0  0  0  0
    0.6053    2.1423   -1.9879 H   0  0  0  0  0  0  0  0  0  0  0  0
    2.9453    2.6955   -1.5555 H   0  0  0  0  0  0  0  0  0  0  0  0
    4.2599    1.3134   -0.0715 H   0  0  0  0  0  0  0  0  0  0  0  0
  1  2  1  0
  2  3  1  0
  3  4  1  0
  4  5  1  0
  5  6  1  0
  6  7  1  0
  7  8  1  0
  8  9  2  0
  9 10  1  0
 10 11  2  0
 11 12  1  0
 12 13  2  0
 13 14  1  0
 14 15  2  0
 12 16  1  0
 16 17  1  0
 16 18  1  0
 16 19  1  0
  7  2  1  0
 13  8  1  0
 14  6  1  0
  1 20  1  0
  1 21  1  0
  1 22  1  0
  2 23  1  6
  3 24  1  0
  4 25  1  0
  4 26  1  0
  5 27  1  0
  5 28  1  0
  7 29  1  6
  9 30  1  0
 10 31  1  0
 11 32  1  0
M  END
>  <Ligand ID>  (1) 
LIG0002270

>  <Ligand>  (1) 
CHEMBL219837

>  <SMILES>  (1) 
C[C@@H]1NCCN2[C@@H]1c1cccc(c1C2=O)C(F)(F)F

>  <CID>  (1) 
16115381.0

>  <ChEMBL ID>  (1) 
nan

>  <InChiKey>  (1) 
NVKCCPZQJAJISN-CPCISQLKSA-N

>  <InChi>  (1) 
InChI=1S/C13H13F3N2O/c1-7-11-8-3-2-4-9(13(14,15)16)10(8)12(19)18(11)6-5-17-7/h2-4,7,11,17H,5-6H2,1H3/t7-,11-/m0/s1

>  <IUPAC Name>  (1) 
(1S,10bR)-1-methyl-7-(trifluoromethyl)-2,3,4,10b-tetrahydro-1H-pyrazino[1,2-b]isoindol-6-one

$$$$
