
     RDKit          3D

 43 46  0  0  0  0  0  0  0  0999 V2000
    4.6778    0.5902    1.2240 C   0  0  0  0  0  0  0  0  0  0  0  0
    4.6946   -0.7222    0.4186 C   0  0  0  0  0  0  0  0  0  0  0  0
    3.3494   -0.2124   -0.1516 C   0  0  0  0  0  0  0  0  0  0  0  0
    3.1462    0.4467    1.1606 C   0  0  0  0  0  0  0  0  0  0  0  0
    2.4476   -1.2875   -0.6159 C   0  0  0  0  0  0  0  0  0  0  0  0
    1.1925   -0.7364   -1.1575 C   0  0  0  0  0  0  0  0  0  0  0  0
    1.1219   -0.5827   -2.5445 C   0  0  0  0  0  0  0  0  0  0  0  0
    0.0163   -0.0636   -3.1773 C   0  0  0  0  0  0  0  0  0  0  0  0
   -1.0788    0.3256   -2.4092 C   0  0  0  0  0  0  0  0  0  0  0  0
   -1.0325    0.1820   -1.0310 C   0  0  0  0  0  0  0  0  0  0  0  0
    0.1063   -0.3494   -0.4086 C   0  0  0  0  0  0  0  0  0  0  0  0
    0.1050   -0.4959    1.0694 C   0  0  0  0  0  0  0  0  0  0  0  0
   -1.3587   -0.8229    1.4632 C   0  0  0  0  0  0  0  0  0  0  0  0
   -2.1053    0.4829    1.1860 C   0  0  0  0  0  0  0  0  0  0  0  0
   -2.1859    0.5687   -0.2545 N   0  0  0  0  0  0  0  0  0  0  0  0
   -3.3793    1.0177   -0.9251 C   0  0  0  0  0  0  0  0  0  0  0  0
   -4.6331    0.8350   -0.1036 C   0  0  0  0  0  0  0  0  0  0  0  0
   -4.4204   -0.0958    0.9930 N   0  0  0  0  0  0  0  0  0  0  0  0
   -3.4365    0.5506    1.8567 C   0  0  0  0  0  0  0  0  0  0  0  0
    5.0146    1.4394    0.5697 H   0  0  0  0  0  0  0  0  0  0  0  0
    5.1197    0.5439    2.2151 H   0  0  0  0  0  0  0  0  0  0  0  0
    4.5297   -1.5903    1.0948 H   0  0  0  0  0  0  0  0  0  0  0  0
    5.4792   -0.8007   -0.3325 H   0  0  0  0  0  0  0  0  0  0  0  0
    3.6234    0.5366   -0.9284 H   0  0  0  0  0  0  0  0  0  0  0  0
    2.8502   -0.2284    2.0049 H   0  0  0  0  0  0  0  0  0  0  0  0
    2.6503    1.4286    1.1471 H   0  0  0  0  0  0  0  0  0  0  0  0
    2.2211   -2.0331    0.1873 H   0  0  0  0  0  0  0  0  0  0  0  0
    2.9719   -1.8301   -1.4567 H   0  0  0  0  0  0  0  0  0  0  0  0
    1.9674   -0.8793   -3.1837 H   0  0  0  0  0  0  0  0  0  0  0  0
   -0.0025    0.0408   -4.2358 H   0  0  0  0  0  0  0  0  0  0  0  0
   -1.9101    0.7250   -2.9484 H   0  0  0  0  0  0  0  0  0  0  0  0
    0.3946    0.4370    1.6033 H   0  0  0  0  0  0  0  0  0  0  0  0
    0.7039   -1.3439    1.4350 H   0  0  0  0  0  0  0  0  0  0  0  0
   -1.4260   -1.1582    2.4941 H   0  0  0  0  0  0  0  0  0  0  0  0
   -1.7085   -1.5515    0.7197 H   0  0  0  0  0  0  0  0  0  0  0  0
   -1.4163    1.3010    1.5464 H   0  0  0  0  0  0  0  0  0  0  0  0
   -3.2838    2.0401   -1.3353 H   0  0  0  0  0  0  0  0  0  0  0  0
   -3.5087    0.3169   -1.8020 H   0  0  0  0  0  0  0  0  0  0  0  0
   -5.4795    0.4297   -0.6942 H   0  0  0  0  0  0  0  0  0  0  0  0
   -4.9439    1.8188    0.2997 H   0  0  0  0  0  0  0  0  0  0  0  0
   -3.9977   -0.9675    0.6009 H   0  0  0  0  0  0  0  0  0  0  0  0
   -3.3696    0.0661    2.8514 H   0  0  0  0  0  0  0  0  0  0  0  0
   -3.7063    1.6284    1.9360 H   0  0  0  0  0  0  0  0  0  0  0  0
  1  2  1  0
  2  3  1  0
  3  4  1  0
  3  5  1  0
  5  6  1  0
  6  7  2  0
  7  8  1  0
  8  9  2  0
  9 10  1  0
 10 11  2  0
 11 12  1  0
 12 13  1  0
 13 14  1  0
 14 15  1  0
 15 16  1  0
 16 17  1  0
 17 18  1  0
 18 19  1  0
  4  1  1  0
 11  6  1  0
 19 14  1  0
 15 10  1  0
  1 20  1  0
  1 21  1  0
  2 22  1  0
  2 23  1  0
  3 24  1  0
  4 25  1  0
  4 26  1  0
  5 27  1  0
  5 28  1  0
  7 29  1  0
  8 30  1  0
  9 31  1  0
 12 32  1  0
 12 33  1  0
 13 34  1  0
 13 35  1  0
 14 36  1  0
 16 37  1  0
 16 38  1  0
 17 39  1  0
 17 40  1  0
 18 41  1  0
 19 42  1  0
 19 43  1  0
M  END
>  <Ligand ID>  (1) 
LIG0002927

>  <Ligand>  (1) 
CHEMBL3912721

>  <SMILES>  (1) 
C1CC(C1)Cc1cccc2c1CCC1N2CCNC1

>  <CID>  (1) 
134142903.0

>  <ChEMBL ID>  (1) 
nan

>  <InChiKey>  (1) 
LABWPGUAXBMYED-UHFFFAOYSA-N

>  <InChi>  (1) 
InChI=1S/C17H24N2/c1-3-13(4-1)11-14-5-2-6-17-16(14)8-7-15-12-18-9-10-19(15)17/h2,5-6,13,15,18H,1,3-4,7-12H2

>  <IUPAC Name>  (1) 
7-(cyclobutylmethyl)-2,3,4,4a,5,6-hexahydro-1H-pyrazino[1,2-a]quinoline

$$$$
