
     RDKit          3D

 72 75  0  0  0  0  0  0  0  0999 V2000
    8.7112    2.9741    1.6796 O   0  0  0  0  0  0  0  0  0  0  0  0
    7.5230    2.3779    1.2743 C   0  0  0  0  0  0  0  0  0  0  0  0
    7.4461    0.9864    1.2100 C   0  0  0  0  0  0  0  0  0  0  0  0
    6.2734    0.3489    0.8031 C   0  0  0  0  0  0  0  0  0  0  0  0
    5.2091    1.1239    0.4717 C   0  0  0  0  0  0  0  0  0  0  0  0
    5.3014    2.5299    0.5415 C   0  0  0  0  0  0  0  0  0  0  0  0
    6.4283    3.1795    0.9341 C   0  0  0  0  0  0  0  0  0  0  0  0
    4.0222    3.2042    0.1142 C   0  0  0  0  0  0  0  0  0  0  0  0
    3.6648    2.7217   -1.1298 O   0  0  0  0  0  0  0  0  0  0  0  0
    3.4500    1.3714   -1.1984 C   0  0  1  0  0  0  0  0  0  0  0  0
    3.8755    0.6410    0.0331 C   0  0  0  0  0  0  0  0  0  0  0  0
    2.0180    1.0752   -1.5509 C   0  0  0  0  0  0  0  0  0  0  0  0
    1.2878    2.0333   -1.8066 O   0  0  0  0  0  0  0  0  0  0  0  0
    1.6561   -0.2965   -1.5504 N   0  0  0  0  0  0  0  0  0  0  0  0
    0.3627   -0.8219   -1.8563 C   0  0  1  0  0  0  0  0  0  0  0  0
    0.4120   -1.6650   -3.1336 C   0  0  0  0  0  0  0  0  0  0  0  0
   -0.9444   -2.2246   -3.4547 C   0  0  0  0  0  0  0  0  0  0  0  0
    1.3939   -2.8040   -3.0565 C   0  0  0  0  0  0  0  0  0  0  0  0
   -0.3457   -1.5362   -0.7829 C   0  0  0  0  0  0  0  0  0  0  0  0
   -0.6638   -0.8553    0.4192 N   0  0  0  0  0  0  0  0  0  0  0  0
   -1.3359   -1.6842    1.3943 C   0  0  0  0  0  0  0  0  0  0  0  0
   -2.7513   -1.9604    1.0598 C   0  0  0  0  0  0  0  0  0  0  0  0
   -3.5621   -0.7540    0.6722 C   0  0  1  0  0  0  0  0  0  0  0  0
   -2.7418    0.1754   -0.0719 C   0  0  2  0  0  0  0  0  0  0  0  0
   -1.3093    0.4178    0.2960 C   0  0  0  0  0  0  0  0  0  0  0  0
   -3.4432    1.4200   -0.5668 C   0  0  0  0  0  0  0  0  0  0  0  0
   -4.6709   -1.2188   -0.3031 C   0  0  0  0  0  0  0  0  0  0  0  0
   -4.2592   -0.3623    1.8992 C   0  0  0  0  0  0  0  0  0  0  0  0
   -5.4994   -0.9602    2.1924 C   0  0  0  0  0  0  0  0  0  0  0  0
   -6.2074   -0.6390    3.3275 C   0  0  0  0  0  0  0  0  0  0  0  0
   -5.7480    0.2837    4.2424 C   0  0  0  0  0  0  0  0  0  0  0  0
   -4.5362    0.8807    3.9755 C   0  0  0  0  0  0  0  0  0  0  0  0
   -3.8214    0.5484    2.8170 C   0  0  0  0  0  0  0  0  0  0  0  0
   -4.0017    1.8332    4.8665 O   0  0  0  0  0  0  0  0  0  0  0  0
    9.5725    2.8772    1.1525 H   0  0  0  0  0  0  0  0  0  0  0  0
    8.2905    0.3495    1.4692 H   0  0  0  0  0  0  0  0  0  0  0  0
    6.1845   -0.7274    0.7433 H   0  0  0  0  0  0  0  0  0  0  0  0
    6.4381    4.2429    0.9700 H   0  0  0  0  0  0  0  0  0  0  0  0
    4.1811    4.2947    0.0455 H   0  0  0  0  0  0  0  0  0  0  0  0
    3.2485    2.9848    0.8779 H   0  0  0  0  0  0  0  0  0  0  0  0
    4.0893    1.0014   -2.0664 H   0  0  0  0  0  0  0  0  0  0  0  0
    3.9775   -0.4578   -0.1571 H   0  0  0  0  0  0  0  0  0  0  0  0
    3.1253    0.8017    0.8469 H   0  0  0  0  0  0  0  0  0  0  0  0
    2.3997   -1.0253   -1.3059 H   0  0  0  0  0  0  0  0  0  0  0  0
   -0.2937    0.0313   -2.1572 H   0  0  0  0  0  0  0  0  0  0  0  0
    0.7296   -1.0071   -3.9711 H   0  0  0  0  0  0  0  0  0  0  0  0
   -1.7423   -1.4775   -3.3229 H   0  0  0  0  0  0  0  0  0  0  0  0
   -0.9158   -2.6286   -4.5038 H   0  0  0  0  0  0  0  0  0  0  0  0
   -1.1203   -3.1437   -2.8303 H   0  0  0  0  0  0  0  0  0  0  0  0
    1.3752   -3.3481   -2.1051 H   0  0  0  0  0  0  0  0  0  0  0  0
    2.4195   -2.5016   -3.3753 H   0  0  0  0  0  0  0  0  0  0  0  0
    1.0611   -3.5450   -3.8376 H   0  0  0  0  0  0  0  0  0  0  0  0
   -1.3012   -1.9140   -1.2142 H   0  0  0  0  0  0  0  0  0  0  0  0
    0.1740   -2.4880   -0.4556 H   0  0  0  0  0  0  0  0  0  0  0  0
   -0.7750   -2.6324    1.4859 H   0  0  0  0  0  0  0  0  0  0  0  0
   -1.2449   -1.1592    2.3809 H   0  0  0  0  0  0  0  0  0  0  0  0
   -3.1930   -2.5105    1.9240 H   0  0  0  0  0  0  0  0  0  0  0  0
   -2.7965   -2.7145    0.2223 H   0  0  0  0  0  0  0  0  0  0  0  0
   -2.5948   -0.3398   -1.0944 H   0  0  0  0  0  0  0  0  0  0  0  0
   -1.1074    0.9636    1.2113 H   0  0  0  0  0  0  0  0  0  0  0  0
   -0.8906    1.0258   -0.5225 H   0  0  0  0  0  0  0  0  0  0  0  0
   -2.7806    1.8656   -1.3392 H   0  0  0  0  0  0  0  0  0  0  0  0
   -4.3660    1.0923   -1.0958 H   0  0  0  0  0  0  0  0  0  0  0  0
   -3.7295    2.1515    0.1770 H   0  0  0  0  0  0  0  0  0  0  0  0
   -4.9675   -2.2615   -0.1172 H   0  0  0  0  0  0  0  0  0  0  0  0
   -4.3126   -1.1294   -1.3517 H   0  0  0  0  0  0  0  0  0  0  0  0
   -5.5425   -0.5719   -0.1011 H   0  0  0  0  0  0  0  0  0  0  0  0
   -5.9431   -1.6969    1.5420 H   0  0  0  0  0  0  0  0  0  0  0  0
   -7.1739   -1.0942    3.5676 H   0  0  0  0  0  0  0  0  0  0  0  0
   -6.3035    0.5340    5.1349 H   0  0  0  0  0  0  0  0  0  0  0  0
   -2.8982    1.0561    2.6815 H   0  0  0  0  0  0  0  0  0  0  0  0
   -4.4671    2.7581    4.9280 H   0  0  0  0  0  0  0  0  0  0  0  0
  1  2  1  0
  2  3  2  0
  3  4  1  0
  4  5  2  0
  5  6  1  0
  6  7  2  0
  6  8  1  0
  8  9  1  0
  9 10  1  0
 10 11  1  0
 10 12  1  0
 12 13  2  0
 12 14  1  0
 14 15  1  0
 15 16  1  0
 16 17  1  0
 16 18  1  0
 15 19  1  0
 19 20  1  0
 20 21  1  0
 21 22  1  0
 22 23  1  0
 23 24  1  0
 24 25  1  0
 24 26  1  0
 23 27  1  6
 23 28  1  0
 28 29  2  0
 29 30  1  0
 30 31  2  0
 31 32  1  0
 32 33  2  0
 32 34  1  0
  7  2  1  0
 25 20  1  0
 33 28  1  0
 11  5  1  0
  1 35  1  0
  3 36  1  0
  4 37  1  0
  7 38  1  0
  8 39  1  0
  8 40  1  0
 10 41  1  6
 11 42  1  0
 11 43  1  0
 14 44  1  0
 15 45  1  6
 16 46  1  0
 17 47  1  0
 17 48  1  0
 17 49  1  0
 18 50  1  0
 18 51  1  0
 18 52  1  0
 19 53  1  0
 19 54  1  0
 21 55  1  0
 21 56  1  0
 22 57  1  0
 22 58  1  0
 24 59  1  6
 25 60  1  0
 25 61  1  0
 26 62  1  0
 26 63  1  0
 26 64  1  0
 27 65  1  0
 27 66  1  0
 27 67  1  0
 29 68  1  0
 30 69  1  0
 31 70  1  0
 33 71  1  0
 34 72  1  0
M  END
>  <Ligand ID>  (1) 
LIG0002298

>  <Ligand>  (1) 
CHEMBL1084529

>  <SMILES>  (1) 
Oc1ccc2c(c1)CO[C@@H](C2)C(=O)N[C@@H](C(C)C)CN1CC[C@@]([C@H](C1)C)(C)c1cccc(c1)O

>  <CID>  (1) 
11619680.0

>  <ChEMBL ID>  (1) 
nan

>  <InChiKey>  (1) 
VUCUGZSKBWVGSF-XIFUISQJSA-N

>  <InChi>  (1) 
InChI=1S/C28H38N2O4/c1-18(2)25(29-27(33)26-13-20-8-9-24(32)12-21(20)17-34-26)16-30-11-10-28(4,19(3)15-30)22-6-5-7-23(31)14-22/h5-9,12,14,18-19,25-26,31-32H,10-11,13,15-17H2,1-4H3,(H,29,33)/t19-,25+,26-,28+/m0/s1

>  <IUPAC Name>  (1) 
(3S)-7-hydroxy-N-[(2S)-1-[(3R,4R)-4-(3-hydroxyphenyl)-3,4-dimethylpiperidin-1-yl]-3-methylbutan-2-yl]-3,4-dihydro-1H-isochromene-3-carboxamide

$$$$
