
     RDKit          3D

 76 78  0  0  0  0  0  0  0  0999 V2000
   10.5020   -1.9869   -1.6121 O   0  0  0  0  0  0  0  0  0  0  0  0
    9.5279   -1.3279   -2.3398 C   0  0  0  0  0  0  0  0  0  0  0  0
    8.3604   -1.0795   -1.4517 C   0  0  0  0  0  0  0  0  0  0  0  0
    8.1482    0.1841   -0.9440 C   0  0  0  0  0  0  0  0  0  0  0  0
    7.0679    0.4513   -0.1105 C   0  0  0  0  0  0  0  0  0  0  0  0
    6.2348   -0.5975    0.1769 C   0  0  0  0  0  0  0  0  0  0  0  0
    6.4108   -1.8707   -0.3079 C   0  0  0  0  0  0  0  0  0  0  0  0
    7.4980   -2.1059   -1.1378 C   0  0  0  0  0  0  0  0  0  0  0  0
    7.6996   -3.3685   -1.6370 O   0  0  0  0  0  0  0  0  0  0  0  0
    6.9311    1.8242    0.3927 C   0  0  2  0  0  0  0  0  0  0  0  0
    5.5759    2.1857    0.9188 C   0  0  0  0  0  0  0  0  0  0  0  0
    4.5370    2.2171   -0.0938 N   0  0  0  0  0  0  0  0  0  0  0  0
    3.2809    2.6305    0.4311 C   0  0  0  0  0  0  0  0  0  0  0  0
    2.5817    1.6973    1.3518 C   0  0  0  0  0  0  0  0  0  0  0  0
    2.1980    0.3758    0.7812 C   0  0  0  0  0  0  0  0  0  0  0  0
    1.5020   -0.4511    1.8394 C   0  0  0  0  0  0  0  0  0  0  0  0
    0.2482    0.2263    2.3630 C   0  0  0  0  0  0  0  0  0  0  0  0
   -0.7442    0.4795    1.2766 C   0  0  0  0  0  0  0  0  0  0  0  0
   -1.8567    1.1022    1.7706 O   0  0  0  0  0  0  0  0  0  0  0  0
   -2.5685    0.4320    2.7294 C   0  0  0  0  0  0  0  0  0  0  0  0
   -3.0709   -0.8629    2.1783 C   0  0  0  0  0  0  0  0  0  0  0  0
   -3.9432   -0.6182    0.9862 C   0  0  0  0  0  0  0  0  0  0  0  0
   -5.1261    0.2278    1.3773 C   0  0  0  0  0  0  0  0  0  0  0  0
   -5.9383    0.3807    0.1052 C   0  0  0  0  0  0  0  0  0  0  0  0
   -5.6447    1.4402   -0.7254 C   0  0  0  0  0  0  0  0  0  0  0  0
   -6.4002    1.5768   -1.8856 C   0  0  0  0  0  0  0  0  0  0  0  0
   -7.4128    0.6807   -2.1971 C   0  0  0  0  0  0  0  0  0  0  0  0
   -7.6644   -0.3655   -1.3259 C   0  0  0  0  0  0  0  0  0  0  0  0
   -6.9312   -0.5394   -0.1530 C   0  0  0  0  0  0  0  0  0  0  0  0
   -8.7001   -1.2973   -1.6184 N   0  0  0  0  0  0  0  0  0  0  0  0
  -10.0138   -0.9463   -1.4826 C   0  0  0  0  0  0  0  0  0  0  0  0
  -10.5218    0.2852   -1.0683 O   0  0  0  0  0  0  0  0  0  0  0  0
  -10.7533   -2.0376   -1.8313 C   0  0  0  0  0  0  0  0  0  0  0  0
   -9.8904   -3.0313   -2.1721 N   0  0  0  0  0  0  0  0  0  0  0  0
   -8.6150   -2.5713   -2.0399 C   0  0  0  0  0  0  0  0  0  0  0  0
   -7.5380   -3.1897   -2.2605 O   0  0  0  0  0  0  0  0  0  0  0  0
    7.2401    2.7974   -0.5909 O   0  0  0  0  0  0  0  0  0  0  0  0
   11.2215   -1.3452   -1.3572 H   0  0  0  0  0  0  0  0  0  0  0  0
    9.9223   -0.3675   -2.6845 H   0  0  0  0  0  0  0  0  0  0  0  0
    9.2354   -2.0097   -3.1657 H   0  0  0  0  0  0  0  0  0  0  0  0
    8.8502    0.9507   -1.2184 H   0  0  0  0  0  0  0  0  0  0  0  0
    5.3997   -0.4177    0.8215 H   0  0  0  0  0  0  0  0  0  0  0  0
    5.7054   -2.6433   -0.0322 H   0  0  0  0  0  0  0  0  0  0  0  0
    8.5744   -3.8340   -1.7807 H   0  0  0  0  0  0  0  0  0  0  0  0
    7.6545    2.0131    1.2368 H   0  0  0  0  0  0  0  0  0  0  0  0
    5.2771    1.4224    1.6661 H   0  0  0  0  0  0  0  0  0  0  0  0
    5.5693    3.1478    1.4650 H   0  0  0  0  0  0  0  0  0  0  0  0
    4.4326    1.3126   -0.5806 H   0  0  0  0  0  0  0  0  0  0  0  0
    2.6096    2.8667   -0.4239 H   0  0  0  0  0  0  0  0  0  0  0  0
    3.3823    3.6058    0.9929 H   0  0  0  0  0  0  0  0  0  0  0  0
    3.1457    1.5074    2.2860 H   0  0  0  0  0  0  0  0  0  0  0  0
    1.6365    2.2279    1.6718 H   0  0  0  0  0  0  0  0  0  0  0  0
    3.0847   -0.1942    0.4576 H   0  0  0  0  0  0  0  0  0  0  0  0
    1.5603    0.4655   -0.1337 H   0  0  0  0  0  0  0  0  0  0  0  0
    1.2202   -1.4569    1.4940 H   0  0  0  0  0  0  0  0  0  0  0  0
    2.1876   -0.5430    2.7058 H   0  0  0  0  0  0  0  0  0  0  0  0
    0.5549    1.0916    2.9517 H   0  0  0  0  0  0  0  0  0  0  0  0
   -0.2201   -0.5079    3.0588 H   0  0  0  0  0  0  0  0  0  0  0  0
   -0.3289    1.1564    0.4716 H   0  0  0  0  0  0  0  0  0  0  0  0
   -0.9218   -0.4794    0.7487 H   0  0  0  0  0  0  0  0  0  0  0  0
   -1.9750    0.2782    3.6723 H   0  0  0  0  0  0  0  0  0  0  0  0
   -3.4171    1.0606    3.0552 H   0  0  0  0  0  0  0  0  0  0  0  0
   -3.6310   -1.4494    2.9614 H   0  0  0  0  0  0  0  0  0  0  0  0
   -2.2524   -1.5457    1.8616 H   0  0  0  0  0  0  0  0  0  0  0  0
   -4.3040   -1.6312    0.6368 H   0  0  0  0  0  0  0  0  0  0  0  0
   -3.3278   -0.1376    0.1968 H   0  0  0  0  0  0  0  0  0  0  0  0
   -5.7466   -0.2502    2.1429 H   0  0  0  0  0  0  0  0  0  0  0  0
   -4.8404    1.2299    1.7359 H   0  0  0  0  0  0  0  0  0  0  0  0
   -4.8496    2.1615   -0.5007 H   0  0  0  0  0  0  0  0  0  0  0  0
   -6.1457    2.4171   -2.5159 H   0  0  0  0  0  0  0  0  0  0  0  0
   -7.9557    0.8411   -3.1026 H   0  0  0  0  0  0  0  0  0  0  0  0
   -7.1623   -1.3720    0.4979 H   0  0  0  0  0  0  0  0  0  0  0  0
  -10.7671    0.4276   -0.0879 H   0  0  0  0  0  0  0  0  0  0  0  0
  -11.8460   -2.0743   -1.8273 H   0  0  0  0  0  0  0  0  0  0  0  0
  -10.1753   -3.9892   -2.4837 H   0  0  0  0  0  0  0  0  0  0  0  0
    6.4319    3.1175   -1.0322 H   0  0  0  0  0  0  0  0  0  0  0  0
  1  2  1  0
  2  3  1  0
  3  4  2  0
  4  5  1  0
  5  6  2  0
  6  7  1  0
  7  8  2  0
  8  9  1  0
  5 10  1  0
 10 11  1  0
 11 12  1  0
 12 13  1  0
 13 14  1  0
 14 15  1  0
 15 16  1  0
 16 17  1  0
 17 18  1  0
 18 19  1  0
 19 20  1  0
 20 21  1  0
 21 22  1  0
 22 23  1  0
 23 24  1  0
 24 25  2  0
 25 26  1  0
 26 27  2  0
 27 28  1  0
 28 29  2  0
 28 30  1  0
 30 31  1  0
 31 32  1  0
 31 33  2  0
 33 34  1  0
 34 35  1  0
 35 36  2  0
 10 37  1  0
  8  3  1  0
 29 24  1  0
 35 30  1  0
  1 38  1  0
  2 39  1  0
  2 40  1  0
  4 41  1  0
  6 42  1  0
  7 43  1  0
  9 44  1  0
 10 45  1  1
 11 46  1  0
 11 47  1  0
 12 48  1  0
 13 49  1  0
 13 50  1  0
 14 51  1  0
 14 52  1  0
 15 53  1  0
 15 54  1  0
 16 55  1  0
 16 56  1  0
 17 57  1  0
 17 58  1  0
 18 59  1  0
 18 60  1  0
 20 61  1  0
 20 62  1  0
 21 63  1  0
 21 64  1  0
 22 65  1  0
 22 66  1  0
 23 67  1  0
 23 68  1  0
 25 69  1  0
 26 70  1  0
 27 71  1  0
 29 72  1  0
 32 73  1  0
 33 74  1  0
 34 75  1  0
 37 76  1  0
M  END
>  <Ligand ID>  (1) 
LIG0001225

>  <Ligand>  (1) 
BDBM50419011

>  <SMILES>  (1) 
OCc1cc(ccc1O)[C@H](CNCCCCCCOCCCCc1cccc(c1)n1c(O)c[nH]c1=O)O

>  <CID>  (1) 
91056921.0

>  <ChEMBL ID>  (1) 
nan

>  <InChiKey>  (1) 
WPIPOWLQGUKFSF-SANMLTNESA-N

>  <InChi>  (1) 
InChI=1S/C28H39N3O6/c32-20-23-17-22(11-12-25(23)33)26(34)18-29-13-4-1-2-5-14-37-15-6-3-8-21-9-7-10-24(16-21)31-27(35)19-30-28(31)36/h7,9-12,16-17,19,26,29,32-35H,1-6,8,13-15,18,20H2,(H,30,36)/t26-/m0/s1

>  <IUPAC Name>  (1) 
4-hydroxy-3-[3-[4-[6-[[(2R)-2-hydroxy-2-[4-hydroxy-3-(hydroxymethyl)phenyl]ethyl]amino]hexoxy]butyl]phenyl]-1H-imidazol-2-one

$$$$
