
     RDKit          3D

 32 34  0  0  0  0  0  0  0  0999 V2000
   -4.4326    0.4744    0.0294 C   0  0  0  0  0  0  0  0  0  0  0  0
   -3.1465    0.8006    0.6156 N   0  0  0  0  0  0  0  0  0  0  0  0
   -2.5320   -0.4068    1.0576 C   0  0  0  0  0  0  0  0  0  0  0  0
   -1.7564   -0.9598   -0.1332 C   0  0  0  0  0  0  0  0  0  0  0  0
   -0.5600   -0.0320   -0.2225 C   0  0  0  0  0  0  0  0  0  0  0  0
   -0.8971    1.2365   -0.2720 C   0  0  0  0  0  0  0  0  0  0  0  0
   -2.3517    1.6184   -0.2352 C   0  0  0  0  0  0  0  0  0  0  0  0
    0.7519   -0.6033   -0.2125 C   0  0  0  0  0  0  0  0  0  0  0  0
    0.9745   -1.9883   -0.2834 C   0  0  0  0  0  0  0  0  0  0  0  0
    2.2954   -2.2349   -0.2348 N   0  0  0  0  0  0  0  0  0  0  0  0
    2.9711   -1.0990   -0.1352 C   0  0  0  0  0  0  0  0  0  0  0  0
    2.0147   -0.0802   -0.1205 C   0  0  0  0  0  0  0  0  0  0  0  0
    2.4999    1.1912   -0.0132 C   0  0  0  0  0  0  0  0  0  0  0  0
    3.8469    1.4527    0.0734 C   0  0  0  0  0  0  0  0  0  0  0  0
    4.7779    0.4473    0.0571 C   0  0  0  0  0  0  0  0  0  0  0  0
    4.3203   -0.8475   -0.0493 C   0  0  0  0  0  0  0  0  0  0  0  0
   -5.0613   -0.0131    0.8069 H   0  0  0  0  0  0  0  0  0  0  0  0
   -4.3783   -0.2325   -0.8138 H   0  0  0  0  0  0  0  0  0  0  0  0
   -4.9552    1.4056   -0.2528 H   0  0  0  0  0  0  0  0  0  0  0  0
   -1.8161   -0.1237    1.8824 H   0  0  0  0  0  0  0  0  0  0  0  0
   -3.2696   -1.1034    1.4558 H   0  0  0  0  0  0  0  0  0  0  0  0
   -2.3493   -0.7403   -1.0474 H   0  0  0  0  0  0  0  0  0  0  0  0
   -1.4964   -2.0009   -0.0153 H   0  0  0  0  0  0  0  0  0  0  0  0
   -0.1989    2.0111   -0.3520 H   0  0  0  0  0  0  0  0  0  0  0  0
   -2.4186    2.6525    0.1580 H   0  0  0  0  0  0  0  0  0  0  0  0
   -2.7560    1.6474   -1.2709 H   0  0  0  0  0  0  0  0  0  0  0  0
    0.2558   -2.7851   -0.3675 H   0  0  0  0  0  0  0  0  0  0  0  0
    2.7450   -3.1747   -0.2690 H   0  0  0  0  0  0  0  0  0  0  0  0
    1.8300    2.0134    0.0155 H   0  0  0  0  0  0  0  0  0  0  0  0
    4.1890    2.4647    0.1562 H   0  0  0  0  0  0  0  0  0  0  0  0
    5.8392    0.6370    0.1240 H   0  0  0  0  0  0  0  0  0  0  0  0
    5.0645   -1.6276   -0.0607 H   0  0  0  0  0  0  0  0  0  0  0  0
  1  2  1  0
  2  3  1  0
  3  4  1  0
  4  5  1  0
  5  6  2  0
  6  7  1  0
  5  8  1  0
  8  9  2  0
  9 10  1  0
 10 11  1  0
 11 12  2  0
 12 13  1  0
 13 14  2  0
 14 15  1  0
 15 16  2  0
  7  2  1  0
 12  8  1  0
 16 11  1  0
  1 17  1  0
  1 18  1  0
  1 19  1  0
  3 20  1  0
  3 21  1  0
  4 22  1  0
  4 23  1  0
  6 24  1  0
  7 25  1  0
  7 26  1  0
  9 27  1  0
 10 28  1  0
 13 29  1  0
 14 30  1  0
 15 31  1  0
 16 32  1  0
M  END
>  <Ligand ID>  (1) 
LIG0004626

>  <Ligand>  (1) 
17403-03-1

>  <SMILES>  (1) 
CN1CCC(=CC1)c1c[nH]c2c1cccc2

>  <CID>  (1) 
152215.0

>  <ChEMBL ID>  (1) 
nan

>  <InChiKey>  (1) 
IUENQRYBZHHPBN-UHFFFAOYSA-N

>  <InChi>  (1) 
InChI=1S/C14H16N2/c1-16-8-6-11(7-9-16)13-10-15-14-5-3-2-4-12(13)14/h2-6,10,15H,7-9H2,1H3

>  <IUPAC Name>  (1) 
3-(1-methyl-3,6-dihydro-2H-pyridin-4-yl)-1H-indole

$$$$
