
     RDKit          3D

 52 54  0  0  0  0  0  0  0  0999 V2000
    8.2193    3.4750    0.8784 Cl  0  0  0  0  0  0  0  0  0  0  0  0
    7.3711    2.2193    0.0011 C   0  0  0  0  0  0  0  0  0  0  0  0
    7.9096    1.7800   -1.1906 C   0  0  0  0  0  0  0  0  0  0  0  0
    7.2404    0.7913   -1.8797 C   0  0  0  0  0  0  0  0  0  0  0  0
    6.0573    0.2597   -1.3780 C   0  0  0  0  0  0  0  0  0  0  0  0
    5.5001    0.6826   -0.1897 C   0  0  0  0  0  0  0  0  0  0  0  0
    6.1822    1.6803    0.4985 C   0  0  0  0  0  0  0  0  0  0  0  0
    4.2544    0.1530    0.3830 C   0  0  2  0  0  0  0  0  0  0  0  0
    3.6154   -0.8290   -0.5393 C   0  0  0  0  0  0  0  0  0  0  0  0
    2.5096   -1.5331    0.0875 N   0  0  0  0  0  0  0  0  0  0  0  0
    1.9016   -2.4810   -0.8235 C   0  0  0  0  0  0  0  0  0  0  0  0
    0.7728   -3.1994   -0.1435 C   0  0  0  0  0  0  0  0  0  0  0  0
   -0.2438   -2.2397    0.2886 C   0  0  0  0  0  0  0  0  0  0  0  0
   -1.2570   -1.9271   -0.6163 C   0  0  0  0  0  0  0  0  0  0  0  0
   -2.2590   -1.0273   -0.2748 C   0  0  0  0  0  0  0  0  0  0  0  0
   -2.3137   -0.4026    0.9511 C   0  0  0  0  0  0  0  0  0  0  0  0
   -1.2880   -0.7314    1.8408 C   0  0  0  0  0  0  0  0  0  0  0  0
   -0.2893   -1.6214    1.5137 C   0  0  0  0  0  0  0  0  0  0  0  0
   -3.3162    0.5025    1.3501 N   0  0  0  0  0  0  0  0  0  0  0  0
   -4.6306    0.5814    0.8519 C   0  0  0  0  0  0  0  0  0  0  0  0
   -5.3345    1.7878    0.9392 C   0  0  0  0  0  0  0  0  0  0  0  0
   -6.6270    1.9166    0.4865 C   0  0  0  0  0  0  0  0  0  0  0  0
   -7.2961    0.8572   -0.0787 C   0  0  0  0  0  0  0  0  0  0  0  0
   -6.6306   -0.3372   -0.1767 C   0  0  0  0  0  0  0  0  0  0  0  0
   -5.3213   -0.4652    0.2829 C   0  0  0  0  0  0  0  0  0  0  0  0
   -8.6597    0.9476   -0.5699 C   0  0  0  0  0  0  0  0  0  0  0  0
   -9.2462   -0.0542   -1.0868 O   0  0  0  0  0  0  0  0  0  0  0  0
   -9.3832    2.1273   -0.4982 O   0  0  0  0  0  0  0  0  0  0  0  0
    3.4022    1.1382    0.8428 O   0  0  0  0  0  0  0  0  0  0  0  0
    8.8283    2.1893   -1.5852 H   0  0  0  0  0  0  0  0  0  0  0  0
    7.6374    0.4267   -2.8160 H   0  0  0  0  0  0  0  0  0  0  0  0
    5.5596   -0.5138   -1.9456 H   0  0  0  0  0  0  0  0  0  0  0  0
    5.8464    2.0899    1.4338 H   0  0  0  0  0  0  0  0  0  0  0  0
    4.5515   -0.4306    1.3035 H   0  0  0  0  0  0  0  0  0  0  0  0
    3.3160   -0.3244   -1.4776 H   0  0  0  0  0  0  0  0  0  0  0  0
    4.3881   -1.6342   -0.7167 H   0  0  0  0  0  0  0  0  0  0  0  0
    1.8110   -0.8713    0.4936 H   0  0  0  0  0  0  0  0  0  0  0  0
    1.5882   -1.9888   -1.7675 H   0  0  0  0  0  0  0  0  0  0  0  0
    2.7085   -3.2167   -1.0812 H   0  0  0  0  0  0  0  0  0  0  0  0
    0.3526   -3.9585   -0.8607 H   0  0  0  0  0  0  0  0  0  0  0  0
    1.2184   -3.7678    0.7138 H   0  0  0  0  0  0  0  0  0  0  0  0
   -1.2640   -2.3946   -1.6063 H   0  0  0  0  0  0  0  0  0  0  0  0
   -2.9946   -0.8322   -1.0356 H   0  0  0  0  0  0  0  0  0  0  0  0
   -1.2682   -0.2741    2.8286 H   0  0  0  0  0  0  0  0  0  0  0  0
    0.4948   -1.8536    2.2366 H   0  0  0  0  0  0  0  0  0  0  0  0
   -3.0534    1.1987    2.1061 H   0  0  0  0  0  0  0  0  0  0  0  0
   -4.8539    2.6506    1.3751 H   0  0  0  0  0  0  0  0  0  0  0  0
   -7.1611    2.8542    0.5594 H   0  0  0  0  0  0  0  0  0  0  0  0
   -7.1445   -1.1874   -0.6216 H   0  0  0  0  0  0  0  0  0  0  0  0
   -4.8814   -1.4352    0.1796 H   0  0  0  0  0  0  0  0  0  0  0  0
  -10.4026    2.0658   -0.3570 H   0  0  0  0  0  0  0  0  0  0  0  0
    3.8834    1.9971    0.8907 H   0  0  0  0  0  0  0  0  0  0  0  0
  1  2  1  0
  2  3  2  0
  3  4  1  0
  4  5  2  0
  5  6  1  0
  6  7  2  0
  6  8  1  0
  8  9  1  0
  9 10  1  0
 10 11  1  0
 11 12  1  0
 12 13  1  0
 13 14  2  0
 14 15  1  0
 15 16  2  0
 16 17  1  0
 17 18  2  0
 16 19  1  0
 19 20  1  0
 20 21  2  0
 21 22  1  0
 22 23  2  0
 23 24  1  0
 24 25  2  0
 23 26  1  0
 26 27  2  0
 26 28  1  0
  8 29  1  0
  7  2  1  0
 18 13  1  0
 25 20  1  0
  3 30  1  0
  4 31  1  0
  5 32  1  0
  7 33  1  0
  8 34  1  1
  9 35  1  0
  9 36  1  0
 10 37  1  0
 11 38  1  0
 11 39  1  0
 12 40  1  0
 12 41  1  0
 14 42  1  0
 15 43  1  0
 17 44  1  0
 18 45  1  0
 19 46  1  0
 21 47  1  0
 22 48  1  0
 24 49  1  0
 25 50  1  0
 28 51  1  0
 29 52  1  0
M  END
>  <Ligand ID>  (1) 
LIG0005828

>  <Ligand>  (1) 
CHEMBL409827

>  <SMILES>  (1) 
Clc1cccc(c1)[C@H](CNCCc1ccc(cc1)Nc1ccc(cc1)C(=O)O)O

>  <CID>  (1) 
24823624.0

>  <ChEMBL ID>  (1) 
nan

>  <InChiKey>  (1) 
JORZYQDONOCUPN-QFIPXVFZSA-N

>  <InChi>  (1) 
InChI=1S/C23H23ClN2O3/c24-19-3-1-2-18(14-19)22(27)15-25-13-12-16-4-8-20(9-5-16)26-21-10-6-17(7-11-21)23(28)29/h1-11,14,22,25-27H,12-13,15H2,(H,28,29)/t22-/m0/s1

>  <IUPAC Name>  (1) 
4-[4-[2-[[(2R)-2-(3-chlorophenyl)-2-hydroxyethyl]amino]ethyl]anilino]benzoic acid

$$$$
