
     RDKit          3D

 61 65  0  0  0  0  0  0  0  0999 V2000
    4.6463    2.2298    3.1614 O   0  0  0  0  0  0  0  0  0  0  0  0
    5.6858    1.3806    3.4833 C   0  0  0  0  0  0  0  0  0  0  0  0
    6.5492    1.6829    4.3702 O   0  0  0  0  0  0  0  0  0  0  0  0
    5.8875    0.0489    2.8281 C   0  0  0  0  0  0  0  0  0  0  0  0
    4.8376   -0.0837    1.8934 O   0  0  0  0  0  0  0  0  0  0  0  0
    4.7802   -1.2405    1.1300 C   0  0  0  0  0  0  0  0  0  0  0  0
    5.7099   -2.2654    1.2467 C   0  0  0  0  0  0  0  0  0  0  0  0
    5.5398   -3.3780    0.4184 C   0  0  0  0  0  0  0  0  0  0  0  0
    4.4931   -3.4416   -0.4685 C   0  0  0  0  0  0  0  0  0  0  0  0
    3.5619   -2.4222   -0.5900 C   0  0  0  0  0  0  0  0  0  0  0  0
    3.7365   -1.3322    0.2281 C   0  0  0  0  0  0  0  0  0  0  0  0
    2.7320   -0.2145    0.1201 C   0  0  0  0  0  0  0  0  0  0  0  0
    1.4039   -0.9590   -0.0925 C   0  0  0  0  0  0  0  0  0  0  0  0
    1.4619   -1.4602   -1.5016 C   0  0  0  0  0  0  0  0  0  0  0  0
    2.4707   -2.5784   -1.5729 C   0  0  0  0  0  0  0  0  0  0  0  0
    0.1234   -1.9717   -1.9902 C   0  0  0  0  0  0  0  0  0  0  0  0
   -0.8900   -0.9385   -1.9523 N   0  0  0  0  0  0  0  0  0  0  0  0
   -1.5930   -0.8188   -0.8344 N   0  0  0  0  0  0  0  0  0  0  0  0
   -2.5569    0.1083   -0.6873 C   0  0  0  0  0  0  0  0  0  0  0  0
   -3.2526    0.1221    0.6018 C   0  0  0  0  0  0  0  0  0  0  0  0
   -4.6065   -0.1497    0.7167 C   0  0  0  0  0  0  0  0  0  0  0  0
   -5.2410   -0.1321    1.9374 C   0  0  0  0  0  0  0  0  0  0  0  0
   -4.4727    0.1677    3.0437 C   0  0  0  0  0  0  0  0  0  0  0  0
   -3.1234    0.4444    2.9742 C   0  0  0  0  0  0  0  0  0  0  0  0
   -2.5153    0.4177    1.7257 C   0  0  0  0  0  0  0  0  0  0  0  0
   -2.8618    0.9877   -1.7042 C   0  0  0  0  0  0  0  0  0  0  0  0
   -2.1344    0.8820   -2.8945 C   0  0  0  0  0  0  0  0  0  0  0  0
   -1.1465   -0.1068   -2.9758 C   0  0  0  0  0  0  0  0  0  0  0  0
   -0.4957   -0.2090   -4.0273 O   0  0  0  0  0  0  0  0  0  0  0  0
   -3.9068    1.9864   -1.5243 C   0  0  0  0  0  0  0  0  0  0  0  0
   -5.0519    2.0356   -2.2899 C   0  0  0  0  0  0  0  0  0  0  0  0
   -6.0275    2.9923   -2.1032 C   0  0  0  0  0  0  0  0  0  0  0  0
   -5.8127    3.9316   -1.0896 C   0  0  0  0  0  0  0  0  0  0  0  0
   -4.6719    3.8868   -0.3229 C   0  0  0  0  0  0  0  0  0  0  0  0
   -3.6819    2.9216   -0.5075 C   0  0  0  0  0  0  0  0  0  0  0  0
   -4.5412    4.8461    0.6490 F   0  0  0  0  0  0  0  0  0  0  0  0
    4.7752    3.2146    3.3017 H   0  0  0  0  0  0  0  0  0  0  0  0
    6.8711   -0.0146    2.3248 H   0  0  0  0  0  0  0  0  0  0  0  0
    5.8382   -0.7413    3.6193 H   0  0  0  0  0  0  0  0  0  0  0  0
    6.5171   -2.1824    1.9526 H   0  0  0  0  0  0  0  0  0  0  0  0
    6.2841   -4.1533    0.5402 H   0  0  0  0  0  0  0  0  0  0  0  0
    4.4374   -4.3539   -1.0787 H   0  0  0  0  0  0  0  0  0  0  0  0
    2.7068    0.4004    1.0172 H   0  0  0  0  0  0  0  0  0  0  0  0
    2.9491    0.3331   -0.8174 H   0  0  0  0  0  0  0  0  0  0  0  0
    1.4082   -1.8175    0.5966 H   0  0  0  0  0  0  0  0  0  0  0  0
    0.5456   -0.2981    0.1140 H   0  0  0  0  0  0  0  0  0  0  0  0
    1.8121   -0.6245   -2.1463 H   0  0  0  0  0  0  0  0  0  0  0  0
    1.9689   -3.5802   -1.4220 H   0  0  0  0  0  0  0  0  0  0  0  0
    2.8727   -2.6481   -2.6225 H   0  0  0  0  0  0  0  0  0  0  0  0
   -0.1768   -2.7951   -1.3173 H   0  0  0  0  0  0  0  0  0  0  0  0
    0.2791   -2.3033   -3.0340 H   0  0  0  0  0  0  0  0  0  0  0  0
   -5.1800   -0.3815   -0.1708 H   0  0  0  0  0  0  0  0  0  0  0  0
   -6.2911   -0.3362    2.0820 H   0  0  0  0  0  0  0  0  0  0  0  0
   -4.9398    0.1874    3.9961 H   0  0  0  0  0  0  0  0  0  0  0  0
   -2.5103    0.6806    3.8319 H   0  0  0  0  0  0  0  0  0  0  0  0
   -1.4605    0.6279    1.6208 H   0  0  0  0  0  0  0  0  0  0  0  0
   -2.3484    1.5538   -3.7069 H   0  0  0  0  0  0  0  0  0  0  0  0
   -5.1325    1.2570   -3.0605 H   0  0  0  0  0  0  0  0  0  0  0  0
   -6.9114    3.0079   -2.7151 H   0  0  0  0  0  0  0  0  0  0  0  0
   -6.5532    4.6955   -0.9138 H   0  0  0  0  0  0  0  0  0  0  0  0
   -2.7976    2.9017    0.1002 H   0  0  0  0  0  0  0  0  0  0  0  0
  1  2  1  0
  2  3  2  0
  2  4  1  0
  4  5  1  0
  5  6  1  0
  6  7  2  0
  7  8  1  0
  8  9  2  0
  9 10  1  0
 10 11  2  0
 11 12  1  0
 12 13  1  0
 13 14  1  0
 14 15  1  0
 14 16  1  0
 16 17  1  0
 17 18  1  0
 18 19  2  0
 19 20  1  0
 20 21  2  0
 21 22  1  0
 22 23  2  0
 23 24  1  0
 24 25  2  0
 19 26  1  0
 26 27  2  0
 27 28  1  0
 28 29  2  0
 26 30  1  0
 30 31  2  0
 31 32  1  0
 32 33  2  0
 33 34  1  0
 34 35  2  0
 34 36  1  0
 11  6  1  0
 28 17  1  0
 35 30  1  0
 15 10  1  0
 25 20  1  0
  1 37  1  0
  4 38  1  0
  4 39  1  0
  7 40  1  0
  8 41  1  0
  9 42  1  0
 12 43  1  0
 12 44  1  0
 13 45  1  0
 13 46  1  0
 14 47  1  0
 15 48  1  0
 15 49  1  0
 16 50  1  0
 16 51  1  0
 21 52  1  0
 22 53  1  0
 23 54  1  0
 24 55  1  0
 25 56  1  0
 27 57  1  0
 31 58  1  0
 32 59  1  0
 33 60  1  0
 35 61  1  0
M  END
>  <Ligand ID>  (1) 
LIG0003017

>  <Ligand>  (1) 
CHEMBL3398210

>  <SMILES>  (1) 
OC(=O)COc1cccc2c1CCC(C2)Cn1nc(c2ccccc2)c(cc1=O)c1cccc(c1)F

>  <CID>  (1) 
118727289.0

>  <ChEMBL ID>  (1) 
nan

>  <InChiKey>  (1) 
MPAUYRIIPDYWER-UHFFFAOYSA-N

>  <InChi>  (1) 
InChI=1S/C29H25FN2O4/c30-23-10-4-8-22(15-23)25-16-27(33)32(31-29(25)20-6-2-1-3-7-20)17-19-12-13-24-21(14-19)9-5-11-26(24)36-18-28(34)35/h1-11,15-16,19H,12-14,17-18H2,(H,34,35)

>  <IUPAC Name>  (1) 
2-[[6-[[4-(3-fluorophenyl)-6-oxo-3-phenylpyridazin-1-yl]methyl]-5,6,7,8-tetrahydronaphthalen-1-yl]oxy]acetic acid

$$$$
