
     RDKit          3D

 68 72  0  0  0  0  0  0  0  0999 V2000
    1.9723   -0.2528   -0.5000 O   0  0  0  0  0  0  0  0  0  0  0  0
    1.9335    0.9128    0.0259 C   0  0  0  0  0  0  0  0  0  0  0  0
    0.6238    1.2933    0.6188 C   0  0  0  0  0  0  0  0  0  0  0  0
   -0.4027    0.1927    0.4502 C   0  0  0  0  0  0  0  0  0  0  0  0
   -1.6747    0.6631    1.0667 C   0  0  0  0  0  0  0  0  0  0  0  0
   -1.7331    1.7868    1.6762 O   0  0  0  0  0  0  0  0  0  0  0  0
   -2.8266   -0.1798    0.9559 N   0  0  0  0  0  0  0  0  0  0  0  0
   -2.7471   -1.4776    0.2552 C   0  0  0  0  0  0  0  0  0  0  0  0
   -3.3714   -2.5611    1.1286 C   0  0  2  0  0  0  0  0  0  0  0  0
   -3.5608   -3.7771    0.2593 C   0  0  0  0  0  0  0  0  0  0  0  0
   -4.9928   -4.1823    0.3884 C   0  0  0  0  0  0  0  0  0  0  0  0
   -5.5944   -3.2535    1.4212 C   0  0  0  0  0  0  0  0  0  0  0  0
   -4.6547   -2.2054    1.6089 N   0  0  0  0  0  0  0  0  0  0  0  0
   -5.1158   -0.9138    1.1646 C   0  0  0  0  0  0  0  0  0  0  0  0
   -4.1103    0.1667    1.5043 C   0  0  2  0  0  0  0  0  0  0  0  0
   -4.6172    1.5330    1.2186 C   0  0  0  0  0  0  0  0  0  0  0  0
   -4.8190    1.9136   -0.1713 C   0  0  0  0  0  0  0  0  0  0  0  0
   -6.0691    1.6643   -0.7649 C   0  0  0  0  0  0  0  0  0  0  0  0
   -6.3313    1.9973   -2.0655 C   0  0  0  0  0  0  0  0  0  0  0  0
   -5.3858    2.5876   -2.8429 C   0  0  0  0  0  0  0  0  0  0  0  0
   -4.1395    2.8540   -2.3058 C   0  0  0  0  0  0  0  0  0  0  0  0
   -3.8909    2.5102   -0.9869 C   0  0  0  0  0  0  0  0  0  0  0  0
    3.0485    1.7617    0.0375 N   0  0  0  0  0  0  0  0  0  0  0  0
    4.3306    1.4070   -0.5341 C   0  0  0  0  0  0  0  0  0  0  0  0
    4.8981    0.1986    0.1322 C   0  0  0  0  0  0  0  0  0  0  0  0
    6.2130   -0.2057   -0.4240 C   0  0  0  0  0  0  0  0  0  0  0  0
    6.3872   -1.2797   -1.2754 C   0  0  0  0  0  0  0  0  0  0  0  0
    7.6643   -1.3998   -1.6076 N   0  0  0  0  0  0  0  0  0  0  0  0
    8.3535   -0.4152   -0.9869 C   0  0  0  0  0  0  0  0  0  0  0  0
    7.4600    0.3323   -0.2490 C   0  0  0  0  0  0  0  0  0  0  0  0
    7.8814    1.4130    0.4953 C   0  0  0  0  0  0  0  0  0  0  0  0
    9.2197    1.7953    0.5347 C   0  0  0  0  0  0  0  0  0  0  0  0
   10.1028    1.0430   -0.2049 C   0  0  0  0  0  0  0  0  0  0  0  0
    9.6999   -0.0517   -0.9634 C   0  0  0  0  0  0  0  0  0  0  0  0
    0.2940    2.2119    0.0963 H   0  0  0  0  0  0  0  0  0  0  0  0
    0.7768    1.5669    1.6825 H   0  0  0  0  0  0  0  0  0  0  0  0
   -0.4726   -0.0430   -0.6115 H   0  0  0  0  0  0  0  0  0  0  0  0
   -0.0575   -0.7489    0.9612 H   0  0  0  0  0  0  0  0  0  0  0  0
   -3.1591   -1.4535   -0.7476 H   0  0  0  0  0  0  0  0  0  0  0  0
   -1.6700   -1.7358    0.2435 H   0  0  0  0  0  0  0  0  0  0  0  0
   -2.6986   -2.8339    1.9679 H   0  0  0  0  0  0  0  0  0  0  0  0
   -3.3421   -3.5523   -0.8250 H   0  0  0  0  0  0  0  0  0  0  0  0
   -2.8509   -4.5922    0.5149 H   0  0  0  0  0  0  0  0  0  0  0  0
   -5.0259   -5.2505    0.6903 H   0  0  0  0  0  0  0  0  0  0  0  0
   -5.5148   -4.1128   -0.6074 H   0  0  0  0  0  0  0  0  0  0  0  0
   -6.5670   -2.9197    1.0017 H   0  0  0  0  0  0  0  0  0  0  0  0
   -5.7185   -3.8313    2.3561 H   0  0  0  0  0  0  0  0  0  0  0  0
   -6.0619   -0.6621    1.6811 H   0  0  0  0  0  0  0  0  0  0  0  0
   -5.3257   -0.9964    0.1010 H   0  0  0  0  0  0  0  0  0  0  0  0
   -4.0020    0.1139    2.6144 H   0  0  0  0  0  0  0  0  0  0  0  0
   -5.6159    1.6014    1.7267 H   0  0  0  0  0  0  0  0  0  0  0  0
   -4.0057    2.2676    1.8003 H   0  0  0  0  0  0  0  0  0  0  0  0
   -6.8397    1.1946   -0.1665 H   0  0  0  0  0  0  0  0  0  0  0  0
   -7.2961    1.7970   -2.4997 H   0  0  0  0  0  0  0  0  0  0  0  0
   -5.5617    2.8568   -3.8554 H   0  0  0  0  0  0  0  0  0  0  0  0
   -3.3765    3.3201   -2.9012 H   0  0  0  0  0  0  0  0  0  0  0  0
   -2.9288    2.7251   -0.5998 H   0  0  0  0  0  0  0  0  0  0  0  0
    2.9358    2.7020    0.4873 H   0  0  0  0  0  0  0  0  0  0  0  0
    4.1723    1.2665   -1.6288 H   0  0  0  0  0  0  0  0  0  0  0  0
    5.0481    2.2311   -0.3956 H   0  0  0  0  0  0  0  0  0  0  0  0
    4.1830   -0.6343    0.0718 H   0  0  0  0  0  0  0  0  0  0  0  0
    5.0191    0.4201    1.2104 H   0  0  0  0  0  0  0  0  0  0  0  0
    5.6049   -1.9556   -1.6432 H   0  0  0  0  0  0  0  0  0  0  0  0
    8.0664   -2.1210   -2.2330 H   0  0  0  0  0  0  0  0  0  0  0  0
    7.1565    1.9821    1.0654 H   0  0  0  0  0  0  0  0  0  0  0  0
    9.5572    2.6367    1.1123 H   0  0  0  0  0  0  0  0  0  0  0  0
   11.1540    1.3254   -0.1873 H   0  0  0  0  0  0  0  0  0  0  0  0
   10.3715   -0.6466   -1.5434 H   0  0  0  0  0  0  0  0  0  0  0  0
  1  2  2  0
  2  3  1  0
  3  4  1  0
  4  5  1  0
  5  6  2  0
  5  7  1  0
  7  8  1  0
  8  9  1  0
  9 10  1  0
 10 11  1  0
 11 12  1  0
 12 13  1  0
 13 14  1  0
 14 15  1  0
 15 16  1  0
 16 17  1  0
 17 18  2  0
 18 19  1  0
 19 20  2  0
 20 21  1  0
 21 22  2  0
  2 23  1  0
 23 24  1  0
 24 25  1  0
 25 26  1  0
 26 27  2  0
 27 28  1  0
 28 29  1  0
 29 30  2  0
 30 31  1  0
 31 32  2  0
 32 33  1  0
 33 34  2  0
 15  7  1  0
 22 17  1  0
 30 26  1  0
 13  9  1  0
 34 29  1  0
  3 35  1  0
  3 36  1  0
  4 37  1  0
  4 38  1  0
  8 39  1  0
  8 40  1  0
  9 41  1  1
 10 42  1  0
 10 43  1  0
 11 44  1  0
 11 45  1  0
 12 46  1  0
 12 47  1  0
 14 48  1  0
 14 49  1  0
 15 50  1  1
 16 51  1  0
 16 52  1  0
 18 53  1  0
 19 54  1  0
 20 55  1  0
 21 56  1  0
 22 57  1  0
 23 58  1  0
 24 59  1  0
 24 60  1  0
 25 61  1  0
 25 62  1  0
 27 63  1  0
 28 64  1  0
 31 65  1  0
 32 66  1  0
 33 67  1  0
 34 68  1  0
M  END
>  <Ligand ID>  (1) 
LIG0001308

>  <Ligand>  (1) 
CHEMBL218361

>  <SMILES>  (1) 
O=C(CCC(=O)N1C[C@@H]2CCCN2C[C@@H]1Cc1ccccc1)NCCc1c[nH]c2c1cccc2

>  <CID>  (1) 
44418437.0

>  <ChEMBL ID>  (1) 
nan

>  <InChiKey>  (1) 
PZWWUMRKSGYBFR-ZEQRLZLVSA-N

>  <InChi>  (1) 
InChI=1S/C28H34N4O2/c33-27(29-15-14-22-18-30-26-11-5-4-10-25(22)26)12-13-28(34)32-20-23-9-6-16-31(23)19-24(32)17-21-7-2-1-3-8-21/h1-5,7-8,10-11,18,23-24,30H,6,9,12-17,19-20H2,(H,29,33)/t23-,24-/m0/s1

>  <IUPAC Name>  (1) 
4-[(3S,8aS)-3-benzyl-3,4,6,7,8,8a-hexahydro-1H-pyrrolo[1,2-a]pyrazin-2-yl]-N-[2-(1H-indol-3-yl)ethyl]-4-oxobutanamide

$$$$
