
     RDKit          3D

 62 65  0  0  0  0  0  0  0  0999 V2000
   -0.5110   -4.8889   -1.4239 C   0  0  0  0  0  0  0  0  0  0  0  0
   -1.7772   -4.1082   -1.3101 C   0  0  0  0  0  0  0  0  0  0  0  0
   -1.7993   -3.3767   -0.0634 N   0  0  0  0  0  0  0  0  0  0  0  0
   -1.6999   -1.9526   -0.0354 C   0  0  0  0  0  0  0  0  0  0  0  0
   -2.7189   -1.1281   -0.2302 N   0  0  0  0  0  0  0  0  0  0  0  0
   -2.6244    0.2361   -0.1799 C   0  0  0  0  0  0  0  0  0  0  0  0
   -3.7905    0.9620   -0.4111 N   0  0  0  0  0  0  0  0  0  0  0  0
   -4.0475    2.3709   -0.3834 C   0  0  0  0  0  0  0  0  0  0  0  0
   -3.7918    2.8516    1.0133 C   0  0  0  0  0  0  0  0  0  0  0  0
   -3.1311    4.1768    0.9076 C   0  0  0  0  0  0  0  0  0  0  0  0
   -2.8487    4.4288   -0.5285 C   0  0  0  0  0  0  0  0  0  0  0  0
   -3.2310    3.2087   -1.2842 C   0  0  0  0  0  0  0  0  0  0  0  0
   -1.3754    0.7290    0.0925 C   0  0  0  0  0  0  0  0  0  0  0  0
   -0.2810   -0.1238    0.3024 C   0  0  0  0  0  0  0  0  0  0  0  0
   -0.4700   -1.4558    0.2325 N   0  0  0  0  0  0  0  0  0  0  0  0
    0.8194    0.6104    0.5511 N   0  0  0  0  0  0  0  0  0  0  0  0
    0.4338    1.8791    0.4982 C   0  0  0  0  0  0  0  0  0  0  0  0
   -0.8728    1.9441    0.2246 N   0  0  0  0  0  0  0  0  0  0  0  0
    2.1025    0.0007    0.8195 C   0  0  2  0  0  0  0  0  0  0  0  0
    3.1216    0.9433    0.8547 O   0  0  0  0  0  0  0  0  0  0  0  0
    4.2282    0.3051    0.2864 C   0  0  1  0  0  0  0  0  0  0  0  0
    3.5848   -0.2161   -0.9910 C   0  0  2  0  0  0  0  0  0  0  0  0
    2.3949   -0.9434   -0.3437 C   0  0  1  0  0  0  0  0  0  0  0  0
    2.9045   -2.1273    0.1950 O   0  0  0  0  0  0  0  0  0  0  0  0
    4.4042   -1.0532   -1.7041 O   0  0  0  0  0  0  0  0  0  0  0  0
    5.3703    1.1808    0.0802 C   0  0  0  0  0  0  0  0  0  0  0  0
    6.4157    0.6398   -0.4458 O   0  0  0  0  0  0  0  0  0  0  0  0
    5.4719    2.5413    0.3868 N   0  0  0  0  0  0  0  0  0  0  0  0
    6.7265    3.2156    0.0919 C   0  0  0  0  0  0  0  0  0  0  0  0
   -1.9127   -4.0337    1.2288 C   0  0  0  0  0  0  0  0  0  0  0  0
   -3.2457   -4.6733    1.4430 C   0  0  0  0  0  0  0  0  0  0  0  0
   -0.1546   -5.1910   -0.4219 H   0  0  0  0  0  0  0  0  0  0  0  0
    0.3151   -4.2443   -1.8401 H   0  0  0  0  0  0  0  0  0  0  0  0
   -0.6181   -5.7989   -2.0581 H   0  0  0  0  0  0  0  0  0  0  0  0
   -2.6235   -4.8308   -1.2886 H   0  0  0  0  0  0  0  0  0  0  0  0
   -1.9649   -3.4319   -2.1658 H   0  0  0  0  0  0  0  0  0  0  0  0
   -4.6617    0.3684   -0.6523 H   0  0  0  0  0  0  0  0  0  0  0  0
   -5.1657    2.5361   -0.6018 H   0  0  0  0  0  0  0  0  0  0  0  0
   -4.7718    2.9909    1.5668 H   0  0  0  0  0  0  0  0  0  0  0  0
   -3.1667    2.1270    1.5989 H   0  0  0  0  0  0  0  0  0  0  0  0
   -2.1696    4.2275    1.4889 H   0  0  0  0  0  0  0  0  0  0  0  0
   -3.7974    4.9695    1.3533 H   0  0  0  0  0  0  0  0  0  0  0  0
   -3.4235    5.3399   -0.8611 H   0  0  0  0  0  0  0  0  0  0  0  0
   -1.7640    4.6367   -0.6822 H   0  0  0  0  0  0  0  0  0  0  0  0
   -3.9254    3.5500   -2.1193 H   0  0  0  0  0  0  0  0  0  0  0  0
   -2.4147    2.7060   -1.8339 H   0  0  0  0  0  0  0  0  0  0  0  0
    1.0656    2.7265    0.6468 H   0  0  0  0  0  0  0  0  0  0  0  0
    2.1213   -0.5360    1.7872 H   0  0  0  0  0  0  0  0  0  0  0  0
    4.4518   -0.5839    0.9296 H   0  0  0  0  0  0  0  0  0  0  0  0
    3.2334    0.6632   -1.5556 H   0  0  0  0  0  0  0  0  0  0  0  0
    1.5520   -1.0783   -1.0224 H   0  0  0  0  0  0  0  0  0  0  0  0
    2.8731   -2.1414    1.1718 H   0  0  0  0  0  0  0  0  0  0  0  0
    4.9705   -1.5597   -1.1016 H   0  0  0  0  0  0  0  0  0  0  0  0
    4.6481    3.0126    0.8120 H   0  0  0  0  0  0  0  0  0  0  0  0
    7.5484    2.4821    0.2706 H   0  0  0  0  0  0  0  0  0  0  0  0
    6.8772    4.0776    0.7670 H   0  0  0  0  0  0  0  0  0  0  0  0
    6.7427    3.5373   -0.9667 H   0  0  0  0  0  0  0  0  0  0  0  0
   -1.1129   -4.8221    1.3217 H   0  0  0  0  0  0  0  0  0  0  0  0
   -1.7262   -3.3042    2.0608 H   0  0  0  0  0  0  0  0  0  0  0  0
   -3.9011   -4.5152    0.5581 H   0  0  0  0  0  0  0  0  0  0  0  0
   -3.1338   -5.7710    1.6230 H   0  0  0  0  0  0  0  0  0  0  0  0
   -3.7529   -4.2856    2.3738 H   0  0  0  0  0  0  0  0  0  0  0  0
  1  2  1  0
  2  3  1  0
  3  4  1  0
  4  5  2  0
  5  6  1  0
  6  7  1  0
  7  8  1  0
  8  9  1  0
  9 10  1  0
 10 11  1  0
 11 12  1  0
  6 13  2  0
 13 14  1  0
 14 15  2  0
 14 16  1  0
 16 17  1  0
 17 18  2  0
 16 19  1  0
 19 20  1  0
 20 21  1  0
 21 22  1  0
 22 23  1  0
 23 24  1  0
 22 25  1  0
 21 26  1  0
 26 27  2  0
 26 28  1  0
 28 29  1  0
  3 30  1  0
 30 31  1  0
 15  4  1  0
 23 19  1  0
 12  8  1  0
 18 13  1  0
  1 32  1  0
  1 33  1  0
  1 34  1  0
  2 35  1  0
  2 36  1  0
  7 37  1  0
  8 38  1  0
  9 39  1  0
  9 40  1  0
 10 41  1  0
 10 42  1  0
 11 43  1  0
 11 44  1  0
 12 45  1  0
 12 46  1  0
 17 47  1  0
 19 48  1  1
 21 49  1  1
 22 50  1  6
 23 51  1  6
 24 52  1  0
 25 53  1  0
 28 54  1  0
 29 55  1  0
 29 56  1  0
 29 57  1  0
 30 58  1  0
 30 59  1  0
 31 60  1  0
 31 61  1  0
 31 62  1  0
M  END
>  <Ligand ID>  (1) 
LIG0001911

>  <Ligand>  (1) 
CHEMBL3133152

>  <SMILES>  (1) 
CCN(c1nc(NC2CCCC2)c2c(n1)n(cn2)[C@@H]1O[C@@H]([C@H]([C@H]1O)O)C(=O)NC)CC

>  <CID>  (1) 
76332918.0

>  <ChEMBL ID>  (1) 
nan

>  <InChiKey>  (1) 
CBVUGFZCDWMPHK-QCUYGVNKSA-N

>  <InChi>  (1) 
InChI=1S/C20H31N7O4/c1-4-26(5-2)20-24-16(23-11-8-6-7-9-11)12-17(25-20)27(10-22-12)19-14(29)13(28)15(31-19)18(30)21-3/h10-11,13-15,19,28-29H,4-9H2,1-3H3,(H,21,30)(H,23,24,25)/t13-,14+,15-,19+/m0/s1

>  <IUPAC Name>  (1) 
(2S,3S,4R,5R)-5-[6-(cyclopentylamino)-2-(diethylamino)purin-9-yl]-3,4-dihydroxy-N-methyloxolane-2-carboxamide

$$$$
