
     RDKit          3D

 78 81  0  0  0  0  0  0  0  0999 V2000
   -2.0245    1.6886   -2.1837 C   0  0  0  0  0  0  0  0  0  0  0  0
   -1.7320    0.2813   -2.5184 C   0  0  0  0  0  0  0  0  0  0  0  0
   -1.9852   -0.7672   -1.5095 C   0  0  0  0  0  0  0  0  0  0  0  0
   -1.2480   -0.6555   -0.2147 C   0  0  2  0  0  0  0  0  0  0  0  0
   -1.4784    0.5146    0.5763 N   0  0  0  0  0  0  0  0  0  0  0  0
   -0.2936    1.2164    1.1274 C   0  0  0  0  0  0  0  0  0  0  0  0
    0.8116    0.2542    1.4957 C   0  0  0  0  0  0  0  0  0  0  0  0
    1.2485   -0.4468    0.2907 N   0  0  0  0  0  0  0  0  0  0  0  0
    0.1921   -0.8977   -0.5485 C   0  0  0  0  0  0  0  0  0  0  0  0
    0.5340   -1.5170   -1.5970 O   0  0  0  0  0  0  0  0  0  0  0  0
    2.6612   -0.6477   -0.0308 C   0  0  2  0  0  0  0  0  0  0  0  0
    3.2785   -1.4542    1.0445 C   0  0  0  0  0  0  0  0  0  0  0  0
    2.6512   -1.5174    2.1460 O   0  0  0  0  0  0  0  0  0  0  0  0
    4.5044   -2.1489    0.9175 N   0  0  0  0  0  0  0  0  0  0  0  0
    5.0095   -2.9098    2.0702 C   0  0  0  0  0  0  0  0  0  0  0  0
    3.3426    0.6706   -0.2178 C   0  0  0  0  0  0  0  0  0  0  0  0
    4.7546    0.5105   -0.5360 C   0  0  0  0  0  0  0  0  0  0  0  0
    5.1081    0.3354   -1.8709 C   0  0  0  0  0  0  0  0  0  0  0  0
    6.4213    0.2089   -2.2483 C   0  0  0  0  0  0  0  0  0  0  0  0
    7.3820    0.2592   -1.2744 C   0  0  0  0  0  0  0  0  0  0  0  0
    7.0401    0.4333    0.0625 C   0  0  0  0  0  0  0  0  0  0  0  0
    5.7200    0.5633    0.4665 C   0  0  0  0  0  0  0  0  0  0  0  0
    8.0726    0.4730    0.9748 C   0  0  0  0  0  0  0  0  0  0  0  0
    9.3766    0.3459    0.5793 C   0  0  0  0  0  0  0  0  0  0  0  0
    9.7203    0.1723   -0.7519 C   0  0  0  0  0  0  0  0  0  0  0  0
    8.6958    0.1323   -1.6661 C   0  0  0  0  0  0  0  0  0  0  0  0
   -2.7212    1.0906    0.9066 C   0  0  0  0  0  0  0  0  0  0  0  0
   -2.6721    2.1690    1.6386 O   0  0  0  0  0  0  0  0  0  0  0  0
   -4.0700    0.6770    0.5610 C   0  0  1  0  0  0  0  0  0  0  0  0
   -4.4211   -0.5833    1.3473 C   0  0  0  0  0  0  0  0  0  0  0  0
   -5.8169   -1.0209    1.0065 C   0  0  0  0  0  0  0  0  0  0  0  0
   -5.9938   -1.9053   -0.0455 C   0  0  0  0  0  0  0  0  0  0  0  0
   -7.2272   -2.3643   -0.4404 C   0  0  0  0  0  0  0  0  0  0  0  0
   -8.3200   -1.8867    0.2840 C   0  0  0  0  0  0  0  0  0  0  0  0
   -8.1474   -1.0086    1.3279 C   0  0  0  0  0  0  0  0  0  0  0  0
   -6.9120   -0.5540    1.7179 C   0  0  0  0  0  0  0  0  0  0  0  0
   -9.5400   -2.3415   -0.1016 F   0  0  0  0  0  0  0  0  0  0  0  0
   -5.0505    1.6719    1.1003 N   0  0  0  0  0  0  0  0  0  0  0  0
   -6.0083    2.2706    0.2394 C   0  0  0  0  0  0  0  0  0  0  0  0
   -6.0990    2.0183   -0.9896 O   0  0  0  0  0  0  0  0  0  0  0  0
   -6.9621    3.2549    0.8193 C   0  0  0  0  0  0  0  0  0  0  0  0
   -1.7446    2.2905   -3.1105 H   0  0  0  0  0  0  0  0  0  0  0  0
   -3.1029    1.8894   -2.0675 H   0  0  0  0  0  0  0  0  0  0  0  0
   -1.3859    2.1460   -1.4004 H   0  0  0  0  0  0  0  0  0  0  0  0
   -0.6887    0.2392   -2.9314 H   0  0  0  0  0  0  0  0  0  0  0  0
   -2.3681    0.0265   -3.4185 H   0  0  0  0  0  0  0  0  0  0  0  0
   -3.0496   -1.0542   -1.4239 H   0  0  0  0  0  0  0  0  0  0  0  0
   -1.5384   -1.7227   -1.9741 H   0  0  0  0  0  0  0  0  0  0  0  0
   -1.5229   -1.5485    0.4056 H   0  0  0  0  0  0  0  0  0  0  0  0
   -0.6210    1.6935    2.0658 H   0  0  0  0  0  0  0  0  0  0  0  0
    0.1112    1.9610    0.4500 H   0  0  0  0  0  0  0  0  0  0  0  0
    1.6324    0.7365    2.0450 H   0  0  0  0  0  0  0  0  0  0  0  0
    0.3663   -0.5086    2.1627 H   0  0  0  0  0  0  0  0  0  0  0  0
    2.6687   -1.1862   -1.0044 H   0  0  0  0  0  0  0  0  0  0  0  0
    5.0343   -2.1359    0.0325 H   0  0  0  0  0  0  0  0  0  0  0  0
    4.7022   -3.9712    1.9733 H   0  0  0  0  0  0  0  0  0  0  0  0
    6.1328   -2.9039    2.0436 H   0  0  0  0  0  0  0  0  0  0  0  0
    4.5975   -2.5387    3.0182 H   0  0  0  0  0  0  0  0  0  0  0  0
    3.1723    1.2908    0.6900 H   0  0  0  0  0  0  0  0  0  0  0  0
    2.8502    1.2093   -1.0515 H   0  0  0  0  0  0  0  0  0  0  0  0
    4.3359    0.2998   -2.6250 H   0  0  0  0  0  0  0  0  0  0  0  0
    6.7002    0.0732   -3.2839 H   0  0  0  0  0  0  0  0  0  0  0  0
    5.4595    0.6953    1.4882 H   0  0  0  0  0  0  0  0  0  0  0  0
    7.8440    0.6050    2.0122 H   0  0  0  0  0  0  0  0  0  0  0  0
   10.1501    0.3832    1.3389 H   0  0  0  0  0  0  0  0  0  0  0  0
   10.7684    0.0692   -1.0612 H   0  0  0  0  0  0  0  0  0  0  0  0
    8.9481   -0.0005   -2.7041 H   0  0  0  0  0  0  0  0  0  0  0  0
   -4.3228    0.6216   -0.4891 H   0  0  0  0  0  0  0  0  0  0  0  0
   -4.2766   -0.3986    2.4145 H   0  0  0  0  0  0  0  0  0  0  0  0
   -3.7138   -1.3771    1.0539 H   0  0  0  0  0  0  0  0  0  0  0  0
   -5.1370   -2.2909   -0.6238 H   0  0  0  0  0  0  0  0  0  0  0  0
   -7.3518   -3.0426   -1.2510 H   0  0  0  0  0  0  0  0  0  0  0  0
   -9.0331   -0.6634    1.8648 H   0  0  0  0  0  0  0  0  0  0  0  0
   -6.7673    0.1352    2.5363 H   0  0  0  0  0  0  0  0  0  0  0  0
   -4.9985    1.9015    2.1232 H   0  0  0  0  0  0  0  0  0  0  0  0
   -7.7997    3.4898    0.1314 H   0  0  0  0  0  0  0  0  0  0  0  0
   -7.4155    2.8230    1.7315 H   0  0  0  0  0  0  0  0  0  0  0  0
   -6.4378    4.1781    1.1344 H   0  0  0  0  0  0  0  0  0  0  0  0
  1  2  1  0
  2  3  1  0
  3  4  1  0
  4  5  1  0
  5  6  1  0
  6  7  1  0
  7  8  1  0
  8  9  1  0
  9 10  2  0
  8 11  1  0
 11 12  1  0
 12 13  2  0
 12 14  1  0
 14 15  1  0
 11 16  1  0
 16 17  1  0
 17 18  2  0
 18 19  1  0
 19 20  2  0
 20 21  1  0
 21 22  2  0
 21 23  1  0
 23 24  2  0
 24 25  1  0
 25 26  2  0
  5 27  1  0
 27 28  2  0
 27 29  1  0
 29 30  1  0
 30 31  1  0
 31 32  2  0
 32 33  1  0
 33 34  2  0
 34 35  1  0
 35 36  2  0
 34 37  1  0
 29 38  1  0
 38 39  1  0
 39 40  2  0
 39 41  1  0
  9  4  1  0
 22 17  1  0
 36 31  1  0
 26 20  1  0
  1 42  1  0
  1 43  1  0
  1 44  1  0
  2 45  1  0
  2 46  1  0
  3 47  1  0
  3 48  1  0
  4 49  1  1
  6 50  1  0
  6 51  1  0
  7 52  1  0
  7 53  1  0
 11 54  1  6
 14 55  1  0
 15 56  1  0
 15 57  1  0
 15 58  1  0
 16 59  1  0
 16 60  1  0
 18 61  1  0
 19 62  1  0
 22 63  1  0
 23 64  1  0
 24 65  1  0
 25 66  1  0
 26 67  1  0
 29 68  1  6
 30 69  1  0
 30 70  1  0
 32 71  1  0
 33 72  1  0
 35 73  1  0
 36 74  1  0
 38 75  1  0
 41 76  1  0
 41 77  1  0
 41 78  1  0
M  END
>  <Ligand ID>  (1) 
LIG0004075

>  <Ligand>  (1) 
CHEMBL466380

>  <SMILES>  (1) 
CCC[C@@H]1N(CCN(C1=O)[C@H](C(=O)NC)Cc1ccc2c(c1)cccc2)C(=O)[C@@H](Cc1ccc(cc1)F)NC(=O)C

>  <CID>  (1) 
25128749.0

>  <ChEMBL ID>  (1) 
nan

>  <InChiKey>  (1) 
HJSDVHQHZYTQEH-ULNSLHSMSA-N

>  <InChi>  (1) 
InChI=1S/C32H37FN4O4/c1-4-7-28-32(41)37(29(30(39)34-3)20-23-10-13-24-8-5-6-9-25(24)18-23)17-16-36(28)31(40)27(35-21(2)38)19-22-11-14-26(33)15-12-22/h5-6,8-15,18,27-29H,4,7,16-17,19-20H2,1-3H3,(H,34,39)(H,35,38)/t27-,28+,29+/m1/s1

>  <IUPAC Name>  (1) 
(2S)-2-[(3S)-4-[(2R)-2-acetamido-3-(4-fluorophenyl)propanoyl]-2-oxo-3-propylpiperazin-1-yl]-N-methyl-3-naphthalen-2-ylpropanamide

$$$$
