
     RDKit          3D

 83 90  0  0  0  0  0  0  0  0999 V2000
   -1.6223    6.3633    1.1900 C   0  0  0  0  0  0  0  0  0  0  0  0
   -1.2850    5.1732    0.5444 O   0  0  0  0  0  0  0  0  0  0  0  0
   -1.9283    3.9656    0.7019 C   0  0  0  0  0  0  0  0  0  0  0  0
   -3.0258    3.7993    1.5567 C   0  0  0  0  0  0  0  0  0  0  0  0
   -3.6638    2.5609    1.7014 C   0  0  0  0  0  0  0  0  0  0  0  0
   -3.1970    1.4765    0.9797 C   0  0  0  0  0  0  0  0  0  0  0  0
   -2.1330    1.7109    0.1697 C   0  0  0  0  0  0  0  0  0  0  0  0
   -1.4614    2.8772   -0.0205 C   0  0  0  0  0  0  0  0  0  0  0  0
   -0.4505    2.6029   -0.9288 O   0  0  0  0  0  0  0  0  0  0  0  0
   -0.3169    1.2043   -1.1601 C   0  0  2  0  0  0  0  0  0  0  0  0
   -1.6050    0.6084   -0.6524 C   0  0  2  0  0  0  0  0  0  0  0  0
   -2.5241    0.2845   -1.7517 C   0  0  0  0  0  0  0  0  0  0  0  0
   -3.5354   -0.7706   -1.5692 C   0  0  0  0  0  0  0  0  0  0  0  0
   -3.2520   -1.7128   -0.4962 N   0  0  0  0  0  0  0  0  0  0  0  0
   -2.7839   -0.9884    0.6847 C   0  0  2  0  0  0  0  0  0  0  0  0
   -3.7352    0.1053    1.0726 C   0  0  0  0  0  0  0  0  0  0  0  0
   -1.3982   -0.5344    0.3107 C   0  0  2  0  0  0  0  0  0  0  0  0
   -0.6257   -0.1074    1.5273 C   0  0  0  0  0  0  0  0  0  0  0  0
    0.5451    0.7182    1.0722 C   0  0  0  0  0  0  0  0  0  0  0  0
    0.7945    0.5282   -0.4168 C   0  0  2  0  0  0  0  0  0  0  0  0
    2.0606    0.9174   -0.7550 O   0  0  0  0  0  0  0  0  0  0  0  0
    2.3960    2.2251   -0.5831 C   0  0  0  0  0  0  0  0  0  0  0  0
    0.7039   -0.9540   -0.7817 C   0  0  2  0  0  0  0  0  0  0  0  0
   -0.6168   -1.5781   -0.3830 C   0  0  0  0  0  0  0  0  0  0  0  0
    1.8213   -1.7716   -0.2399 C   0  0  0  0  0  0  0  0  0  0  0  0
    3.1184   -1.3827   -0.6840 N   0  0  0  0  0  0  0  0  0  0  0  0
    3.6113   -2.1356   -2.1313 S   0  0  0  0  0  0  0  0  0  0  0  0
    4.9213   -2.8530   -2.0413 O   0  0  0  0  0  0  0  0  0  0  0  0
    2.6096   -3.2088   -2.5613 O   0  0  0  0  0  0  0  0  0  0  0  0
    3.7635   -0.9289   -3.4537 C   0  0  0  0  0  0  0  0  0  0  0  0
    4.0916   -1.6090    0.3497 C   0  0  0  0  0  0  0  0  0  0  0  0
    5.0594   -0.5162    0.5323 C   0  0  0  0  0  0  0  0  0  0  0  0
    6.2738   -0.4120   -0.0979 C   0  0  0  0  0  0  0  0  0  0  0  0
    7.1496    0.6470    0.1111 C   0  0  0  0  0  0  0  0  0  0  0  0
    6.8270    1.6648    0.9837 C   0  0  0  0  0  0  0  0  0  0  0  0
    5.6116    1.5800    1.6278 C   0  0  0  0  0  0  0  0  0  0  0  0
    4.7434    0.5227    1.4156 C   0  0  0  0  0  0  0  0  0  0  0  0
   -4.3907   -2.5312   -0.2537 C   0  0  0  0  0  0  0  0  0  0  0  0
   -4.0890   -3.6131    0.7433 C   0  0  0  0  0  0  0  0  0  0  0  0
   -5.3112   -4.5235    1.0253 C   0  0  0  0  0  0  0  0  0  0  0  0
   -4.1357   -5.0378    0.3089 C   0  0  0  0  0  0  0  0  0  0  0  0
   -2.5794    6.7947    0.7946 H   0  0  0  0  0  0  0  0  0  0  0  0
   -1.7650    6.2689    2.2860 H   0  0  0  0  0  0  0  0  0  0  0  0
   -0.7874    7.0982    1.0210 H   0  0  0  0  0  0  0  0  0  0  0  0
   -3.3939    4.6622    2.1270 H   0  0  0  0  0  0  0  0  0  0  0  0
   -4.5094    2.4207    2.3574 H   0  0  0  0  0  0  0  0  0  0  0  0
   -0.2473    0.9716   -2.2412 H   0  0  0  0  0  0  0  0  0  0  0  0
   -1.9760    0.1760   -2.7537 H   0  0  0  0  0  0  0  0  0  0  0  0
   -3.1167    1.2387   -1.9552 H   0  0  0  0  0  0  0  0  0  0  0  0
   -4.5779   -0.3970   -1.4863 H   0  0  0  0  0  0  0  0  0  0  0  0
   -3.5441   -1.4216   -2.4986 H   0  0  0  0  0  0  0  0  0  0  0  0
   -2.6549   -1.7192    1.4970 H   0  0  0  0  0  0  0  0  0  0  0  0
   -4.6501    0.0885    0.4400 H   0  0  0  0  0  0  0  0  0  0  0  0
   -4.0951   -0.1109    2.1117 H   0  0  0  0  0  0  0  0  0  0  0  0
   -1.2509    0.4051    2.2812 H   0  0  0  0  0  0  0  0  0  0  0  0
   -0.2178   -1.0282    1.9984 H   0  0  0  0  0  0  0  0  0  0  0  0
    0.3055    1.7813    1.2571 H   0  0  0  0  0  0  0  0  0  0  0  0
    1.4530    0.4638    1.6646 H   0  0  0  0  0  0  0  0  0  0  0  0
    1.7951    2.9399   -1.1675 H   0  0  0  0  0  0  0  0  0  0  0  0
    2.4577    2.5410    0.4830 H   0  0  0  0  0  0  0  0  0  0  0  0
    3.4579    2.3343   -0.9565 H   0  0  0  0  0  0  0  0  0  0  0  0
    0.7403   -0.9694   -1.8910 H   0  0  0  0  0  0  0  0  0  0  0  0
   -1.1356   -2.0421   -1.2469 H   0  0  0  0  0  0  0  0  0  0  0  0
   -0.4539   -2.4407    0.3249 H   0  0  0  0  0  0  0  0  0  0  0  0
    1.8356   -1.8196    0.8706 H   0  0  0  0  0  0  0  0  0  0  0  0
    1.6566   -2.8191   -0.6014 H   0  0  0  0  0  0  0  0  0  0  0  0
    3.0728   -1.1509   -4.2910 H   0  0  0  0  0  0  0  0  0  0  0  0
    3.5994    0.0994   -3.0406 H   0  0  0  0  0  0  0  0  0  0  0  0
    4.7851   -0.9101   -3.8818 H   0  0  0  0  0  0  0  0  0  0  0  0
    4.6785   -2.5341    0.1554 H   0  0  0  0  0  0  0  0  0  0  0  0
    3.6021   -1.7832    1.3471 H   0  0  0  0  0  0  0  0  0  0  0  0
    6.6046   -1.1646   -0.7914 H   0  0  0  0  0  0  0  0  0  0  0  0
    8.1046    0.6803   -0.4176 H   0  0  0  0  0  0  0  0  0  0  0  0
    7.5220    2.4621    1.1205 H   0  0  0  0  0  0  0  0  0  0  0  0
    5.3526    2.3841    2.3199 H   0  0  0  0  0  0  0  0  0  0  0  0
    3.8186    0.5493    1.9690 H   0  0  0  0  0  0  0  0  0  0  0  0
   -5.2386   -1.9076    0.1547 H   0  0  0  0  0  0  0  0  0  0  0  0
   -4.7836   -2.9392   -1.2084 H   0  0  0  0  0  0  0  0  0  0  0  0
   -3.4581   -3.4363    1.6327 H   0  0  0  0  0  0  0  0  0  0  0  0
   -6.2221   -4.3704    0.4218 H   0  0  0  0  0  0  0  0  0  0  0  0
   -5.5064   -4.7587    2.0854 H   0  0  0  0  0  0  0  0  0  0  0  0
   -3.5086   -5.7771    0.8358 H   0  0  0  0  0  0  0  0  0  0  0  0
   -4.1843   -5.2270   -0.7753 H   0  0  0  0  0  0  0  0  0  0  0  0
  1  2  1  0
  2  3  1  0
  3  4  2  0
  4  5  1  0
  5  6  2  0
  6  7  1  0
  7  8  2  0
  8  9  1  0
  9 10  1  0
 10 11  1  0
 11 12  1  6
 12 13  1  0
 13 14  1  0
 14 15  1  0
 15 16  1  0
 15 17  1  0
 17 18  1  1
 18 19  1  0
 19 20  1  0
 20 21  1  6
 21 22  1  0
 20 23  1  0
 23 24  1  0
 23 25  1  0
 25 26  1  0
 26 27  1  0
 27 28  2  0
 27 29  2  0
 27 30  1  0
 26 31  1  0
 31 32  1  0
 32 33  2  0
 33 34  1  0
 34 35  2  0
 35 36  1  0
 36 37  2  0
 14 38  1  0
 38 39  1  0
 39 40  1  0
 40 41  1  0
  8  3  1  0
 20 10  1  0
 37 32  1  0
 41 39  1  0
 16  6  1  0
 24 17  1  0
 11  7  1  0
 17 11  1  0
  1 42  1  0
  1 43  1  0
  1 44  1  0
  4 45  1  0
  5 46  1  0
 10 47  1  6
 12 48  1  0
 12 49  1  0
 13 50  1  0
 13 51  1  0
 15 52  1  1
 16 53  1  0
 16 54  1  0
 18 55  1  0
 18 56  1  0
 19 57  1  0
 19 58  1  0
 22 59  1  0
 22 60  1  0
 22 61  1  0
 23 62  1  6
 24 63  1  0
 24 64  1  0
 25 65  1  0
 25 66  1  0
 30 67  1  0
 30 68  1  0
 30 69  1  0
 31 70  1  0
 31 71  1  0
 33 72  1  0
 34 73  1  0
 35 74  1  0
 36 75  1  0
 37 76  1  0
 38 77  1  0
 38 78  1  0
 39 79  1  0
 40 80  1  0
 40 81  1  0
 41 82  1  0
 41 83  1  0
M  END
>  <Ligand ID>  (1) 
LIG0004769

>  <Ligand>  (1) 
SCHEMBL15485817

>  <SMILES>  (1) 
COc1ccc2c3c1O[C@@H]1[C@@]43CCN([C@H](C2)[C@@]24CC[C@@]1(OC)[C@H](C2)CN(S(=O)(=O)C)Cc1ccccc1)CC1CC1

>  <CID>  (1) 
86711654.0

>  <ChEMBL ID>  (1) 
nan

>  <InChiKey>  (1) 
DZQAFVKZCCYHNH-SROIDHQSSA-N

>  <InChi>  (1) 
InChI=1S/C33H42N2O5S/c1-38-26-12-11-24-17-27-31-13-14-33(39-2,25(18-31)21-35(41(3,36)37)20-22-7-5-4-6-8-22)30-32(31,28(24)29(26)40-30)15-16-34(27)19-23-9-10-23/h4-8,11-12,23,25,27,30H,9-10,13-21H2,1-3H3/t25-,27-,30-,31-,32+,33-/m1/s1

>  <IUPAC Name>  (1) 
N-benzyl-N-[[(1S,2S,6R,14R,15R,16R)-5-(cyclopropylmethyl)-11,15-dimethoxy-13-oxa-5-azahexacyclo[13.2.2.12,8.01,6.02,14.012,20]icosa-8(20),9,11-trien-16-yl]methyl]methanesulfonamide

$$$$
