
     RDKit          3D

 33 35  0  0  0  0  0  0  0  0999 V2000
   -3.0345   -2.9997    1.6413 O   0  0  0  0  0  0  0  0  0  0  0  0
   -3.0763   -1.7516    1.0358 C   0  0  0  0  0  0  0  0  0  0  0  0
   -4.3256   -1.1982    0.8096 C   0  0  0  0  0  0  0  0  0  0  0  0
   -4.3659    0.0442    0.2068 C   0  0  0  0  0  0  0  0  0  0  0  0
   -3.1977    0.6879   -0.1464 C   0  0  0  0  0  0  0  0  0  0  0  0
   -1.9486    0.1218    0.0859 C   0  0  0  0  0  0  0  0  0  0  0  0
   -1.9057   -1.1168    0.6868 C   0  0  0  0  0  0  0  0  0  0  0  0
   -0.7744    0.7534   -0.2615 C   0  0  0  0  0  0  0  0  0  0  0  0
   -0.9145    2.0021   -0.8640 C   0  0  0  0  0  0  0  0  0  0  0  0
   -2.1516    2.5695   -1.0974 C   0  0  0  0  0  0  0  0  0  0  0  0
   -3.3026    1.9322   -0.7480 C   0  0  0  0  0  0  0  0  0  0  0  0
    0.5143    0.2103   -0.0418 N   0  0  0  0  0  0  0  0  0  0  0  0
    1.6723    0.9856   -0.4585 C   0  0  0  0  0  0  0  0  0  0  0  0
    2.9253    0.2654   -0.1517 C   0  0  0  0  0  0  0  0  0  0  0  0
    3.8701    0.6882    0.6166 N   0  0  0  0  0  0  0  0  0  0  0  0
    4.9563   -0.2692    0.6975 C   0  0  0  0  0  0  0  0  0  0  0  0
    4.7469   -1.0790   -0.5645 C   0  0  0  0  0  0  0  0  0  0  0  0
    3.2827   -1.0170   -0.6631 N   0  0  0  0  0  0  0  0  0  0  0  0
   -2.5899   -3.8001    1.1894 H   0  0  0  0  0  0  0  0  0  0  0  0
   -5.2478   -1.6825    1.0767 H   0  0  0  0  0  0  0  0  0  0  0  0
   -5.3200    0.5017    0.0170 H   0  0  0  0  0  0  0  0  0  0  0  0
   -0.9867   -1.6113    0.8957 H   0  0  0  0  0  0  0  0  0  0  0  0
   -0.0255    2.5543   -1.1631 H   0  0  0  0  0  0  0  0  0  0  0  0
   -2.1738    3.5540   -1.5754 H   0  0  0  0  0  0  0  0  0  0  0  0
   -4.2795    2.3500   -0.9176 H   0  0  0  0  0  0  0  0  0  0  0  0
    0.7092   -0.7085    0.3983 H   0  0  0  0  0  0  0  0  0  0  0  0
    1.6396    1.9485    0.0982 H   0  0  0  0  0  0  0  0  0  0  0  0
    1.5815    1.2220   -1.5482 H   0  0  0  0  0  0  0  0  0  0  0  0
    5.9488    0.2236    0.6649 H   0  0  0  0  0  0  0  0  0  0  0  0
    4.8392   -0.9564    1.5679 H   0  0  0  0  0  0  0  0  0  0  0  0
    5.1685   -0.5239   -1.4119 H   0  0  0  0  0  0  0  0  0  0  0  0
    5.1073   -2.1227   -0.4604 H   0  0  0  0  0  0  0  0  0  0  0  0
    2.6583   -1.7775   -1.0376 H   0  0  0  0  0  0  0  0  0  0  0  0
  1  2  1  0
  2  3  2  0
  3  4  1  0
  4  5  2  0
  5  6  1  0
  6  7  2  0
  6  8  1  0
  8  9  2  0
  9 10  1  0
 10 11  2  0
  8 12  1  0
 12 13  1  0
 13 14  1  0
 14 15  2  0
 15 16  1  0
 16 17  1  0
 17 18  1  0
  7  2  1  0
 18 14  1  0
 11  5  1  0
  1 19  1  0
  3 20  1  0
  4 21  1  0
  7 22  1  0
  9 23  1  0
 10 24  1  0
 11 25  1  0
 12 26  1  0
 13 27  1  0
 13 28  1  0
 16 29  1  0
 16 30  1  0
 17 31  1  0
 17 32  1  0
 18 33  1  0
M  END
>  <Ligand ID>  (1) 
LIG0003187

>  <Ligand>  (1) 
CHEMBL114669

>  <SMILES>  (1) 
Oc1ccc2c(c1)c(ccc2)NCC1=NCCN1

>  <CID>  (1) 
44343244.0

>  <ChEMBL ID>  (1) 
nan

>  <InChiKey>  (1) 
KJAQMQNRNCMXLV-UHFFFAOYSA-N

>  <InChi>  (1) 
InChI=1S/C14H15N3O/c18-11-5-4-10-2-1-3-13(12(10)8-11)17-9-14-15-6-7-16-14/h1-5,8,17-18H,6-7,9H2,(H,15,16)

>  <IUPAC Name>  (1) 
8-(4,5-dihydro-1H-imidazol-2-ylmethylamino)naphthalen-2-ol

$$$$
