
     RDKit          3D

 68 71  0  0  0  0  0  0  0  0999 V2000
   -7.3492    2.0323    1.0107 O   0  0  0  0  0  0  0  0  0  0  0  0
   -6.5683    1.7723   -0.1108 C   0  0  2  0  0  0  0  0  0  0  0  0
   -7.3520    0.8424   -1.0710 C   0  0  0  0  0  0  0  0  0  0  0  0
   -7.6991   -0.3129   -0.5780 O   0  0  0  0  0  0  0  0  0  0  0  0
   -8.0388   -1.4503   -0.0925 C   0  0  0  0  0  0  0  0  0  0  0  0
   -7.0821   -2.3682    0.3705 C   0  0  0  0  0  0  0  0  0  0  0  0
   -7.4254   -3.5899    0.8931 C   0  0  0  0  0  0  0  0  0  0  0  0
   -8.7669   -3.8940    0.9504 C   0  0  0  0  0  0  0  0  0  0  0  0
   -9.7655   -3.0529    0.5188 C   0  0  0  0  0  0  0  0  0  0  0  0
   -9.3860   -1.8377    0.0013 C   0  0  0  0  0  0  0  0  0  0  0  0
   -5.2807    1.0983    0.2349 C   0  0  0  0  0  0  0  0  0  0  0  0
   -4.4459    1.8444    1.1163 N   0  0  0  0  0  0  0  0  0  0  0  0
   -3.8849    3.0464    0.6083 C   0  0  0  0  0  0  0  0  0  0  0  0
   -2.8630    2.9003   -0.4682 C   0  0  0  0  0  0  0  0  0  0  0  0
   -1.6830    2.1123   -0.0380 C   0  0  0  0  0  0  0  0  0  0  0  0
   -0.5984    2.7606    0.5607 C   0  0  0  0  0  0  0  0  0  0  0  0
    0.4830    1.9821    0.9380 C   0  0  0  0  0  0  0  0  0  0  0  0
    0.5191    0.6190    0.7444 C   0  0  0  0  0  0  0  0  0  0  0  0
   -0.5581   -0.0328    0.1486 C   0  0  0  0  0  0  0  0  0  0  0  0
   -1.6340    0.7444   -0.2263 C   0  0  0  0  0  0  0  0  0  0  0  0
    1.6467   -0.1460    1.1467 N   0  0  0  0  0  0  0  0  0  0  0  0
    2.7669   -0.3759    0.2673 C   0  0  0  0  0  0  0  0  0  0  0  0
    2.7771    0.1020   -0.8959 O   0  0  0  0  0  0  0  0  0  0  0  0
    3.8693   -1.1949    0.8282 C   0  0  0  0  0  0  0  0  0  0  0  0
    4.9283   -1.3164   -0.2033 C   0  0  0  0  0  0  0  0  0  0  0  0
    5.0963   -2.2170   -1.1776 N   0  0  0  0  0  0  0  0  0  0  0  0
    6.2243   -1.8981   -1.8569 C   0  0  0  0  0  0  0  0  0  0  0  0
    6.7777   -0.7819   -1.3061 N   0  0  0  0  0  0  0  0  0  0  0  0
    5.9875   -0.4036   -0.2764 C   0  0  0  0  0  0  0  0  0  0  0  0
    7.9937   -0.0955   -1.7202 C   0  0  0  0  0  0  0  0  0  0  0  0
    9.1546   -0.6707   -0.9814 C   0  0  0  0  0  0  0  0  0  0  0  0
    9.8297   -1.7440   -1.5250 C   0  0  0  0  0  0  0  0  0  0  0  0
   10.9145   -2.2708   -0.8220 C   0  0  0  0  0  0  0  0  0  0  0  0
   11.2911   -1.7220    0.3853 C   0  0  0  0  0  0  0  0  0  0  0  0
   10.6085   -0.6381    0.9337 C   0  0  0  0  0  0  0  0  0  0  0  0
    9.5258   -0.1109    0.2339 C   0  0  0  0  0  0  0  0  0  0  0  0
   -7.0623    1.3635    1.7109 H   0  0  0  0  0  0  0  0  0  0  0  0
   -6.4442    2.7200   -0.6597 H   0  0  0  0  0  0  0  0  0  0  0  0
   -8.2424    1.4134   -1.4540 H   0  0  0  0  0  0  0  0  0  0  0  0
   -6.6845    0.7718   -1.9967 H   0  0  0  0  0  0  0  0  0  0  0  0
   -6.0192   -2.1416    0.3311 H   0  0  0  0  0  0  0  0  0  0  0  0
   -6.6910   -4.3012    1.2516 H   0  0  0  0  0  0  0  0  0  0  0  0
   -9.0396   -4.8478    1.3578 H   0  0  0  0  0  0  0  0  0  0  0  0
  -10.8182   -3.3421    0.5863 H   0  0  0  0  0  0  0  0  0  0  0  0
  -10.1186   -1.1336   -0.3533 H   0  0  0  0  0  0  0  0  0  0  0  0
   -4.7973    0.7138   -0.6810 H   0  0  0  0  0  0  0  0  0  0  0  0
   -5.5632    0.1609    0.8033 H   0  0  0  0  0  0  0  0  0  0  0  0
   -3.6752    1.2177    1.4376 H   0  0  0  0  0  0  0  0  0  0  0  0
   -3.3617    3.5435    1.4794 H   0  0  0  0  0  0  0  0  0  0  0  0
   -4.6796    3.7952    0.3441 H   0  0  0  0  0  0  0  0  0  0  0  0
   -3.2476    2.4212   -1.3848 H   0  0  0  0  0  0  0  0  0  0  0  0
   -2.4621    3.8973   -0.7702 H   0  0  0  0  0  0  0  0  0  0  0  0
   -0.6290    3.8313    0.7119 H   0  0  0  0  0  0  0  0  0  0  0  0
    1.3085    2.4992    1.3972 H   0  0  0  0  0  0  0  0  0  0  0  0
   -0.5621   -1.0969   -0.0175 H   0  0  0  0  0  0  0  0  0  0  0  0
   -2.4634    0.2002   -0.6923 H   0  0  0  0  0  0  0  0  0  0  0  0
    1.6455   -0.5521    2.1284 H   0  0  0  0  0  0  0  0  0  0  0  0
    3.4728   -2.2149    1.0715 H   0  0  0  0  0  0  0  0  0  0  0  0
    4.2437   -0.6710    1.7278 H   0  0  0  0  0  0  0  0  0  0  0  0
    6.6546   -2.4290   -2.7164 H   0  0  0  0  0  0  0  0  0  0  0  0
    6.1531    0.4618    0.3769 H   0  0  0  0  0  0  0  0  0  0  0  0
    8.1604   -0.1705   -2.8343 H   0  0  0  0  0  0  0  0  0  0  0  0
    7.9029    0.9663   -1.4073 H   0  0  0  0  0  0  0  0  0  0  0  0
    9.5589   -2.1962   -2.4693 H   0  0  0  0  0  0  0  0  0  0  0  0
   11.4281   -3.1193   -1.2778 H   0  0  0  0  0  0  0  0  0  0  0  0
   12.1299   -2.1299    0.9288 H   0  0  0  0  0  0  0  0  0  0  0  0
   10.9028   -0.2136    1.8713 H   0  0  0  0  0  0  0  0  0  0  0  0
    8.9873    0.7374    0.6573 H   0  0  0  0  0  0  0  0  0  0  0  0
  1  2  1  0
  2  3  1  0
  3  4  1  0
  4  5  1  0
  5  6  2  0
  6  7  1  0
  7  8  2  0
  8  9  1  0
  9 10  2  0
  2 11  1  0
 11 12  1  0
 12 13  1  0
 13 14  1  0
 14 15  1  0
 15 16  2  0
 16 17  1  0
 17 18  2  0
 18 19  1  0
 19 20  2  0
 18 21  1  0
 21 22  1  0
 22 23  2  0
 22 24  1  0
 24 25  1  0
 25 26  1  0
 26 27  2  0
 27 28  1  0
 28 29  1  0
 28 30  1  0
 30 31  1  0
 31 32  2  0
 32 33  1  0
 33 34  2  0
 34 35  1  0
 35 36  2  0
 10  5  1  0
 20 15  1  0
 29 25  2  0
 36 31  1  0
  1 37  1  0
  2 38  1  6
  3 39  1  0
  3 40  1  0
  6 41  1  0
  7 42  1  0
  8 43  1  0
  9 44  1  0
 10 45  1  0
 11 46  1  0
 11 47  1  0
 12 48  1  0
 13 49  1  0
 13 50  1  0
 14 51  1  0
 14 52  1  0
 16 53  1  0
 17 54  1  0
 19 55  1  0
 20 56  1  0
 21 57  1  0
 24 58  1  0
 24 59  1  0
 27 60  1  0
 29 61  1  0
 30 62  1  0
 30 63  1  0
 32 64  1  0
 33 65  1  0
 34 66  1  0
 35 67  1  0
 36 68  1  0
M  END
>  <Ligand ID>  (1) 
LIG0002688

>  <Ligand>  (1) 
CHEMBL467301

>  <SMILES>  (1) 
O[C@H](COc1ccccc1)CNCCc1ccc(cc1)NC(=O)Cc1ncn(c1)Cc1ccccc1

>  <CID>  (1) 
44574826.0

>  <ChEMBL ID>  (1) 
nan

>  <InChiKey>  (1) 
UEJDWANQDHVOHZ-MHZLTWQESA-N

>  <InChi>  (1) 
InChI=1S/C29H32N4O3/c34-27(21-36-28-9-5-2-6-10-28)18-30-16-15-23-11-13-25(14-12-23)32-29(35)17-26-20-33(22-31-26)19-24-7-3-1-4-8-24/h1-14,20,22,27,30,34H,15-19,21H2,(H,32,35)/t27-/m0/s1

>  <IUPAC Name>  (1) 
2-(1-benzylimidazol-4-yl)-N-[4-[2-[[(2S)-2-hydroxy-3-phenoxypropyl]amino]ethyl]phenyl]acetamide

$$$$
