
     RDKit          3D

144148  0  0  0  0  0  0  0  0999 V2000
   -5.6462   -7.1367    2.5348 N   0  0  0  0  0  0  0  0  0  0  0  0
   -5.4580   -5.7865    2.0654 C   0  0  0  0  0  0  0  0  0  0  0  0
   -6.2533   -4.9061    2.5436 N   0  0  0  0  0  0  0  0  0  0  0  0
   -6.2274   -3.5018    2.1994 C   0  0  0  0  0  0  0  0  0  0  0  0
   -4.9234   -2.9237    2.7223 C   0  0  0  0  0  0  0  0  0  0  0  0
   -4.7802   -1.4745    2.4551 C   0  0  0  0  0  0  0  0  0  0  0  0
   -4.7854   -1.0132    1.0521 C   0  0  2  0  0  0  0  0  0  0  0  0
   -3.7466   -1.4198    0.1574 N   0  0  0  0  0  0  0  0  0  0  0  0
   -2.4827   -1.9743    0.4750 C   0  0  0  0  0  0  0  0  0  0  0  0
   -2.2013   -2.0997    1.6564 O   0  0  0  0  0  0  0  0  0  0  0  0
   -1.5071   -2.3875   -0.5833 C   0  0  2  0  0  0  0  0  0  0  0  0
   -2.0824   -3.3113   -1.5883 C   0  0  0  0  0  0  0  0  0  0  0  0
   -1.1258   -3.7419   -2.6439 C   0  0  0  0  0  0  0  0  0  0  0  0
   -0.3904   -4.8889   -2.4173 C   0  0  0  0  0  0  0  0  0  0  0  0
    0.5271   -5.3930   -3.3135 C   0  0  0  0  0  0  0  0  0  0  0  0
    0.7174   -4.7084   -4.5033 C   0  0  0  0  0  0  0  0  0  0  0  0
   -0.0142   -3.5627   -4.7344 C   0  0  0  0  0  0  0  0  0  0  0  0
   -0.9372   -3.0607   -3.8258 C   0  0  0  0  0  0  0  0  0  0  0  0
   -0.2418   -2.8101   -0.0192 N   0  0  0  0  0  0  0  0  0  0  0  0
    0.7446   -1.8391    0.2493 C   0  0  0  0  0  0  0  0  0  0  0  0
    0.4013   -0.6567   -0.0185 O   0  0  0  0  0  0  0  0  0  0  0  0
    2.1001   -2.0140    0.7886 C   0  0  2  0  0  0  0  0  0  0  0  0
    2.1535   -2.5281    2.1967 C   0  0  0  0  0  0  0  0  0  0  0  0
    1.5584   -3.8397    2.4331 C   0  0  0  0  0  0  0  0  0  0  0  0
    0.3286   -4.2544    2.8657 C   0  0  0  0  0  0  0  0  0  0  0  0
    0.2954   -5.5962    2.9670 N   0  0  0  0  0  0  0  0  0  0  0  0
    1.5198   -6.0540    2.5946 C   0  0  0  0  0  0  0  0  0  0  0  0
    2.2804   -4.9986    2.2734 N   0  0  0  0  0  0  0  0  0  0  0  0
    2.7570   -0.6772    0.7531 N   0  0  0  0  0  0  0  0  0  0  0  0
    4.0360   -0.4363    0.2286 C   0  0  0  0  0  0  0  0  0  0  0  0
    4.6747   -1.3831   -0.2124 O   0  0  0  0  0  0  0  0  0  0  0  0
    4.5258    0.9952    0.2551 C   0  0  2  0  0  0  0  0  0  0  0  0
    3.6181    1.8156   -0.6218 C   0  0  0  0  0  0  0  0  0  0  0  0
    3.8787    3.2712   -0.5809 C   0  0  0  0  0  0  0  0  0  0  0  0
    4.7822    3.8171    0.0854 O   0  0  0  0  0  0  0  0  0  0  0  0
    3.0062    4.0550   -1.3648 O   0  0  0  0  0  0  0  0  0  0  0  0
    3.0544    5.4050   -1.4332 N   0  0  0  0  0  0  0  0  0  0  0  0
    1.8117    5.8426   -2.0829 C   0  0  0  0  0  0  0  0  0  0  0  0
    0.6640    4.9812   -1.6146 C   0  0  0  0  0  0  0  0  0  0  0  0
    0.4821    4.9362   -0.1329 C   0  0  0  0  0  0  0  0  0  0  0  0
   -0.6161    3.9777    0.2694 C   0  0  0  0  0  0  0  0  0  0  0  0
   -1.9256    4.4152   -0.2169 C   0  0  1  0  0  0  0  0  0  0  0  0
   -2.9679    3.3888   -0.0199 N   0  0  0  0  0  0  0  0  0  0  0  0
   -4.2310    3.4778   -0.7224 C   0  0  0  0  0  0  0  0  0  0  0  0
   -4.3551    4.5217   -1.3795 O   0  0  0  0  0  0  0  0  0  0  0  0
   -5.2564    2.4422   -0.6484 C   0  0  2  0  0  0  0  0  0  0  0  0
   -4.8080    1.1319   -0.2685 N   0  0  0  0  0  0  0  0  0  0  0  0
   -5.3117    0.3581    0.8202 C   0  0  0  0  0  0  0  0  0  0  0  0
   -6.1780    0.9213    1.5012 O   0  0  0  0  0  0  0  0  0  0  0  0
   -6.1575    2.4472   -1.8715 C   0  0  0  0  0  0  0  0  0  0  0  0
   -7.1967    1.3676   -1.7346 C   0  0  0  0  0  0  0  0  0  0  0  0
   -7.2776    0.1514   -2.3655 C   0  0  0  0  0  0  0  0  0  0  0  0
   -8.3905   -0.5026   -1.9262 N   0  0  0  0  0  0  0  0  0  0  0  0
   -9.0270    0.2775   -1.0208 C   0  0  0  0  0  0  0  0  0  0  0  0
   -8.2971    1.4378   -0.8943 C   0  0  0  0  0  0  0  0  0  0  0  0
   -8.7800    2.3821    0.0004 C   0  0  0  0  0  0  0  0  0  0  0  0
   -9.9463    2.1612    0.7328 C   0  0  0  0  0  0  0  0  0  0  0  0
  -10.6736    0.9941    0.6022 C   0  0  0  0  0  0  0  0  0  0  0  0
  -10.1773    0.0589   -0.2983 C   0  0  0  0  0  0  0  0  0  0  0  0
   -2.4072    5.6578    0.5330 C   0  0  0  0  0  0  0  0  0  0  0  0
   -3.4620    5.6386    1.2001 O   0  0  0  0  0  0  0  0  0  0  0  0
   -1.6347    6.8695    0.4638 N   0  0  0  0  0  0  0  0  0  0  0  0
    5.8829    0.9711   -0.2276 N   0  0  0  0  0  0  0  0  0  0  0  0
    6.8988    1.3931    0.6708 C   0  0  0  0  0  0  0  0  0  0  0  0
    6.6149    1.7773    1.8601 O   0  0  0  0  0  0  0  0  0  0  0  0
    8.3409    1.4268    0.3258 C   0  0  1  0  0  0  0  0  0  0  0  0
    9.0308    1.8733    1.5171 N   0  0  0  0  0  0  0  0  0  0  0  0
    9.7030    3.1101    1.6283 C   0  0  0  0  0  0  0  0  0  0  0  0
    9.7659    3.9459    0.6957 O   0  0  0  0  0  0  0  0  0  0  0  0
   10.3753    3.4355    2.9279 C   0  0  0  0  0  0  0  0  0  0  0  0
    8.8439    0.0986   -0.1615 C   0  0  0  0  0  0  0  0  0  0  0  0
   10.3247    0.2825   -0.4723 C   0  0  0  0  0  0  0  0  0  0  0  0
   10.9329   -1.0089   -0.9810 C   0  0  0  0  0  0  0  0  0  0  0  0
   10.4922    1.3170   -1.5587 C   0  0  0  0  0  0  0  0  0  0  0  0
   -4.4276   -5.5596    1.1366 N   0  0  0  0  0  0  0  0  0  0  0  0
   -5.2205   -7.9507    2.0476 H   0  0  0  0  0  0  0  0  0  0  0  0
   -6.2144   -7.3574    3.3827 H   0  0  0  0  0  0  0  0  0  0  0  0
   -6.2844   -3.4902    1.0791 H   0  0  0  0  0  0  0  0  0  0  0  0
   -7.1032   -3.0244    2.6725 H   0  0  0  0  0  0  0  0  0  0  0  0
   -4.1370   -3.5738    2.3803 H   0  0  0  0  0  0  0  0  0  0  0  0
   -4.9895   -3.0920    3.8455 H   0  0  0  0  0  0  0  0  0  0  0  0
   -3.9194   -1.1109    3.0618 H   0  0  0  0  0  0  0  0  0  0  0  0
   -5.6673   -0.9726    2.9517 H   0  0  0  0  0  0  0  0  0  0  0  0
   -5.6841   -1.6770    0.6331 H   0  0  0  0  0  0  0  0  0  0  0  0
   -3.9174   -1.3088   -0.8581 H   0  0  0  0  0  0  0  0  0  0  0  0
   -1.2771   -1.4030   -1.1153 H   0  0  0  0  0  0  0  0  0  0  0  0
   -2.9601   -2.8464   -2.0910 H   0  0  0  0  0  0  0  0  0  0  0  0
   -2.4120   -4.2378   -1.0383 H   0  0  0  0  0  0  0  0  0  0  0  0
   -0.5179   -5.4463   -1.4844 H   0  0  0  0  0  0  0  0  0  0  0  0
    1.1026   -6.3071   -3.1198 H   0  0  0  0  0  0  0  0  0  0  0  0
    1.4436   -5.0961   -5.2355 H   0  0  0  0  0  0  0  0  0  0  0  0
    0.1451   -3.0292   -5.6769 H   0  0  0  0  0  0  0  0  0  0  0  0
   -1.5094   -2.1600   -4.0147 H   0  0  0  0  0  0  0  0  0  0  0  0
   -0.0192   -3.7733    0.1732 H   0  0  0  0  0  0  0  0  0  0  0  0
    2.7533   -2.7040    0.1955 H   0  0  0  0  0  0  0  0  0  0  0  0
    1.6671   -1.8158    2.9141 H   0  0  0  0  0  0  0  0  0  0  0  0
    3.2396   -2.5420    2.4861 H   0  0  0  0  0  0  0  0  0  0  0  0
   -0.4870   -3.5924    3.0961 H   0  0  0  0  0  0  0  0  0  0  0  0
    1.8718   -7.0778    2.5472 H   0  0  0  0  0  0  0  0  0  0  0  0
    3.2814   -5.0519    1.9472 H   0  0  0  0  0  0  0  0  0  0  0  0
    2.2373    0.1066    1.1368 H   0  0  0  0  0  0  0  0  0  0  0  0
    4.5091    1.3932    1.2624 H   0  0  0  0  0  0  0  0  0  0  0  0
    2.5754    1.6893   -0.2079 H   0  0  0  0  0  0  0  0  0  0  0  0
    3.5889    1.4234   -1.6625 H   0  0  0  0  0  0  0  0  0  0  0  0
    3.8267    5.6863   -2.0582 H   0  0  0  0  0  0  0  0  0  0  0  0
    1.9842    5.7133   -3.1777 H   0  0  0  0  0  0  0  0  0  0  0  0
    1.6914    6.9105   -1.8237 H   0  0  0  0  0  0  0  0  0  0  0  0
   -0.2534    5.4251   -2.0984 H   0  0  0  0  0  0  0  0  0  0  0  0
    0.7847    3.9677   -2.0640 H   0  0  0  0  0  0  0  0  0  0  0  0
    0.4351    5.9270    0.3130 H   0  0  0  0  0  0  0  0  0  0  0  0
    1.4461    4.4942    0.2789 H   0  0  0  0  0  0  0  0  0  0  0  0
   -0.5347    3.9073    1.3839 H   0  0  0  0  0  0  0  0  0  0  0  0
   -0.3524    3.0005   -0.2051 H   0  0  0  0  0  0  0  0  0  0  0  0
   -1.9534    4.7209   -1.2503 H   0  0  0  0  0  0  0  0  0  0  0  0
   -2.8825    2.5906    0.5940 H   0  0  0  0  0  0  0  0  0  0  0  0
   -5.9610    2.7871    0.1918 H   0  0  0  0  0  0  0  0  0  0  0  0
   -4.0591    0.6945   -0.8062 H   0  0  0  0  0  0  0  0  0  0  0  0
   -6.6194    3.4310   -1.9916 H   0  0  0  0  0  0  0  0  0  0  0  0
   -5.5847    2.2151   -2.7943 H   0  0  0  0  0  0  0  0  0  0  0  0
   -6.5640   -0.2083   -3.0881 H   0  0  0  0  0  0  0  0  0  0  0  0
   -8.7239   -1.4617   -2.2284 H   0  0  0  0  0  0  0  0  0  0  0  0
   -8.2700    3.3223    0.1554 H   0  0  0  0  0  0  0  0  0  0  0  0
  -10.3229    2.8959    1.4310 H   0  0  0  0  0  0  0  0  0  0  0  0
  -11.5763    0.8154    1.1670 H   0  0  0  0  0  0  0  0  0  0  0  0
  -10.7588   -0.8487   -0.3899 H   0  0  0  0  0  0  0  0  0  0  0  0
   -1.4856    7.2446   -0.5020 H   0  0  0  0  0  0  0  0  0  0  0  0
   -1.2488    7.3457    1.2937 H   0  0  0  0  0  0  0  0  0  0  0  0
    6.1518    0.6585   -1.2033 H   0  0  0  0  0  0  0  0  0  0  0  0
    8.4398    2.1629   -0.5021 H   0  0  0  0  0  0  0  0  0  0  0  0
    9.0298    1.2307    2.3623 H   0  0  0  0  0  0  0  0  0  0  0  0
   10.7430    2.4684    3.3450 H   0  0  0  0  0  0  0  0  0  0  0  0
    9.5822    3.8257    3.6050 H   0  0  0  0  0  0  0  0  0  0  0  0
   11.1909    4.1754    2.7835 H   0  0  0  0  0  0  0  0  0  0  0  0
    8.6863   -0.7320    0.5417 H   0  0  0  0  0  0  0  0  0  0  0  0
    8.3682   -0.1940   -1.1276 H   0  0  0  0  0  0  0  0  0  0  0  0
   10.9008    0.6007    0.4181 H   0  0  0  0  0  0  0  0  0  0  0  0
   10.7536   -1.1270   -2.0676 H   0  0  0  0  0  0  0  0  0  0  0  0
   12.0368   -0.9055   -0.8467 H   0  0  0  0  0  0  0  0  0  0  0  0
   10.5926   -1.8906   -0.4044 H   0  0  0  0  0  0  0  0  0  0  0  0
   10.8820    2.2776   -1.1933 H   0  0  0  0  0  0  0  0  0  0  0  0
   11.1963    0.9732   -2.3504 H   0  0  0  0  0  0  0  0  0  0  0  0
    9.5237    1.5093   -2.0848 H   0  0  0  0  0  0  0  0  0  0  0  0
   -3.5187   -6.0808    1.2120 H   0  0  0  0  0  0  0  0  0  0  0  0
   -4.4872   -4.8798    0.3292 H   0  0  0  0  0  0  0  0  0  0  0  0
  1  2  1  0
  2  3  2  3
  3  4  1  0
  4  5  1  0
  5  6  1  0
  6  7  1  0
  7  8  1  0
  8  9  1  0
  9 10  2  0
  9 11  1  0
 11 12  1  0
 12 13  1  0
 13 14  2  0
 14 15  1  0
 15 16  2  0
 16 17  1  0
 17 18  2  0
 11 19  1  0
 19 20  1  0
 20 21  2  0
 20 22  1  0
 22 23  1  0
 23 24  1  0
 24 25  2  0
 25 26  1  0
 26 27  2  0
 27 28  1  0
 22 29  1  0
 29 30  1  0
 30 31  2  0
 30 32  1  0
 32 33  1  0
 33 34  1  0
 34 35  2  0
 34 36  1  0
 36 37  1  0
 37 38  1  0
 38 39  1  0
 39 40  1  0
 40 41  1  0
 41 42  1  0
 42 43  1  0
 43 44  1  0
 44 45  2  0
 44 46  1  0
 46 47  1  0
 47 48  1  0
 48 49  2  0
 46 50  1  0
 50 51  1  0
 51 52  2  0
 52 53  1  0
 53 54  1  0
 54 55  2  0
 55 56  1  0
 56 57  2  0
 57 58  1  0
 58 59  2  0
 42 60  1  0
 60 61  2  0
 60 62  1  0
 32 63  1  0
 63 64  1  0
 64 65  2  0
 64 66  1  0
 66 67  1  0
 67 68  1  0
 68 69  2  0
 68 70  1  0
 66 71  1  0
 71 72  1  0
 72 73  1  0
 72 74  1  0
  2 75  1  0
 48  7  1  0
 55 51  1  0
 18 13  1  0
 28 24  1  0
 59 54  1  0
  1 76  1  0
  1 77  1  0
  4 78  1  0
  4 79  1  0
  5 80  1  0
  5 81  1  0
  6 82  1  0
  6 83  1  0
  7 84  1  6
  8 85  1  0
 11 86  1  6
 12 87  1  0
 12 88  1  0
 14 89  1  0
 15 90  1  0
 16 91  1  0
 17 92  1  0
 18 93  1  0
 19 94  1  0
 22 95  1  6
 23 96  1  0
 23 97  1  0
 25 98  1  0
 27 99  1  0
 28100  1  0
 29101  1  0
 32102  1  1
 33103  1  0
 33104  1  0
 37105  1  0
 38106  1  0
 38107  1  0
 39108  1  0
 39109  1  0
 40110  1  0
 40111  1  0
 41112  1  0
 41113  1  0
 42114  1  6
 43115  1  0
 46116  1  1
 47117  1  0
 50118  1  0
 50119  1  0
 52120  1  0
 53121  1  0
 56122  1  0
 57123  1  0
 58124  1  0
 59125  1  0
 62126  1  0
 62127  1  0
 63128  1  0
 66129  1  6
 67130  1  0
 70131  1  0
 70132  1  0
 70133  1  0
 71134  1  0
 71135  1  0
 72136  1  0
 73137  1  0
 73138  1  0
 73139  1  0
 74140  1  0
 74141  1  0
 74142  1  0
 75143  1  0
 75144  1  0
M  END
>  <Ligand ID>  (1) 
LIG0001505

>  <Ligand>  (1) 
CHEMBL216295

>  <SMILES>  (1) 
NC(=NCCC[C@@H]1NC(=O)[C@H](Cc2ccccc2)NC(=O)[C@H](Cc2cnc[nH]2)NC(=O)[C@H](CC(=O)ONCCCC[C@@H](NC(=O)[C@H](NC1=O)Cc1c[nH]c2c1cccc2)C(=O)N)NC(=O)[C@@H](NC(=O)C)CC(C)C)N

>  <CID>  (1) 
44310104.0

>  <ChEMBL ID>  (1) 
nan

>  <InChiKey>  (1) 
AQZUWHBMAIRHAI-ZVMIYURWSA-N

>  <InChi>  (1) 
InChI=1S/C50H69N15O10/c1-28(2)20-37(59-29(3)66)45(70)65-41-24-42(67)75-58-19-10-9-16-35(43(51)68)60-47(72)39(22-31-25-56-34-15-8-7-14-33(31)34)63-44(69)36(17-11-18-55-50(52)53)61-46(71)38(21-30-12-5-4-6-13-30)62-48(73)40(64-49(41)74)23-32-26-54-27-57-32/h4-8,12-15,25-28,35-41,56,58H,9-11,16-24H2,1-3H3,(H2,51,68)(H,54,57)(H,59,66)(H,60,72)(H,61,71)(H,62,73)(H,63,69)(H,64,74)(H,65,70)(H4,52,53,55)/t35-,36+,37+,38+,39-,40+,41+/m1/s1

>  <IUPAC Name>  (1) 
(7R,10R,13S,16S,19S,22S)-22-[[(2S)-2-acetamido-4-methylpentanoyl]amino]-16-benzyl-13-[3-(diaminomethylideneamino)propyl]-19-(1H-imidazol-5-ylmethyl)-10-(1H-indol-3-ylmethyl)-9,12,15,18,21,24-hexaoxo-1-oxa-2,8,11,14,17,20-hexazacyclotetracosane-7-carboxamide

$$$$
