
     RDKit          3D

 79 83  0  0  0  0  0  0  0  0999 V2000
   -5.2953    5.4468   -0.2801 C   0  0  0  0  0  0  0  0  0  0  0  0
   -4.4492    4.5456   -0.9854 O   0  0  0  0  0  0  0  0  0  0  0  0
   -3.9196    3.4411   -0.3271 C   0  0  0  0  0  0  0  0  0  0  0  0
   -4.1718    3.1611    1.0002 C   0  0  0  0  0  0  0  0  0  0  0  0
   -3.6032    2.0482    1.5587 C   0  0  0  0  0  0  0  0  0  0  0  0
   -2.7799    1.1757    0.8627 C   0  0  0  0  0  0  0  0  0  0  0  0
   -2.5414    1.4743   -0.4615 C   0  0  0  0  0  0  0  0  0  0  0  0
   -3.0975    2.5984   -1.0801 C   0  0  0  0  0  0  0  0  0  0  0  0
   -2.2342    0.0430    1.5248 N   0  0  0  0  0  0  0  0  0  0  0  0
   -2.9848   -1.1337    1.4904 N   0  0  0  0  0  0  0  0  0  0  0  0
   -2.5368   -2.1887    2.0775 C   0  0  0  0  0  0  0  0  0  0  0  0
   -3.5458   -3.6695    1.9985 S   0  0  0  0  0  0  0  0  0  0  0  0
   -5.0486   -3.3956    1.0733 C   0  0  0  0  0  0  0  0  0  0  0  0
   -6.2101   -2.9628    1.6772 C   0  0  0  0  0  0  0  0  0  0  0  0
   -7.3865   -2.7410    0.9972 C   0  0  0  0  0  0  0  0  0  0  0  0
   -7.4049   -2.9651   -0.3700 C   0  0  0  0  0  0  0  0  0  0  0  0
   -6.2544   -3.3975   -0.9903 C   0  0  0  0  0  0  0  0  0  0  0  0
   -5.0726   -3.6199   -0.3056 C   0  0  0  0  0  0  0  0  0  0  0  0
   -8.8920   -2.6894   -1.2581 Cl  0  0  0  0  0  0  0  0  0  0  0  0
   -1.2437   -2.2394    2.8097 C   0  0  0  0  0  0  0  0  0  0  0  0
   -0.2720   -1.1816    2.4169 C   0  0  0  0  0  0  0  0  0  0  0  0
   -0.9794    0.1056    2.1959 C   0  0  0  0  0  0  0  0  0  0  0  0
   -0.5238    1.2170    2.5687 O   0  0  0  0  0  0  0  0  0  0  0  0
    0.6424   -1.5705    1.2932 C   0  0  0  0  0  0  0  0  0  0  0  0
   -0.0358   -1.9176    0.0240 C   0  0  0  0  0  0  0  0  0  0  0  0
    0.9967   -2.2883   -1.0204 C   0  0  2  0  0  0  0  0  0  0  0  0
    1.9080   -1.1809   -1.2666 N   0  0  0  0  0  0  0  0  0  0  0  0
    3.3236   -1.3050   -1.1103 C   0  0  0  0  0  0  0  0  0  0  0  0
    3.7786   -2.4262   -0.7434 O   0  0  0  0  0  0  0  0  0  0  0  0
    4.1496   -0.1255   -1.3865 C   0  0  1  0  0  0  0  0  0  0  0  0
    3.9943    0.3823   -2.7984 C   0  0  0  0  0  0  0  0  0  0  0  0
    4.6913    1.6914   -2.9856 C   0  0  0  0  0  0  0  0  0  0  0  0
    4.3747    2.7069   -2.0384 N   0  0  0  0  0  0  0  0  0  0  0  0
    3.6442    2.2885   -0.8841 C   0  0  0  0  0  0  0  0  0  0  0  0
    4.0016    0.9422   -0.3467 C   0  0  2  0  0  0  0  0  0  0  0  0
    5.1549    0.9903    0.6092 C   0  0  0  0  0  0  0  0  0  0  0  0
    4.9600    0.7096    1.9665 C   0  0  0  0  0  0  0  0  0  0  0  0
    6.0014    0.7441    2.8728 C   0  0  0  0  0  0  0  0  0  0  0  0
    7.2707    1.0602    2.4514 C   0  0  0  0  0  0  0  0  0  0  0  0
    7.4764    1.3382    1.1206 C   0  0  0  0  0  0  0  0  0  0  0  0
    6.4394    1.3103    0.1827 C   0  0  0  0  0  0  0  0  0  0  0  0
    8.3305    1.1106    3.2897 F   0  0  0  0  0  0  0  0  0  0  0  0
    0.3287   -2.7473   -2.2981 C   0  0  0  0  0  0  0  0  0  0  0  0
   -5.8595    6.0905   -0.9841 H   0  0  0  0  0  0  0  0  0  0  0  0
   -6.0673    4.9088    0.3126 H   0  0  0  0  0  0  0  0  0  0  0  0
   -4.6354    6.0865    0.3433 H   0  0  0  0  0  0  0  0  0  0  0  0
   -4.8182    3.8490    1.5408 H   0  0  0  0  0  0  0  0  0  0  0  0
   -3.8028    1.8296    2.6042 H   0  0  0  0  0  0  0  0  0  0  0  0
   -1.9099    0.8335   -1.0527 H   0  0  0  0  0  0  0  0  0  0  0  0
   -2.8759    2.7799   -2.1153 H   0  0  0  0  0  0  0  0  0  0  0  0
   -6.1760   -2.7942    2.7423 H   0  0  0  0  0  0  0  0  0  0  0  0
   -8.2995   -2.4019    1.4663 H   0  0  0  0  0  0  0  0  0  0  0  0
   -6.2768   -3.5707   -2.0621 H   0  0  0  0  0  0  0  0  0  0  0  0
   -4.1847   -3.9630   -0.8396 H   0  0  0  0  0  0  0  0  0  0  0  0
   -0.8186   -3.2557    2.8346 H   0  0  0  0  0  0  0  0  0  0  0  0
   -1.5339   -2.0300    3.8822 H   0  0  0  0  0  0  0  0  0  0  0  0
    0.4097   -0.9748    3.2849 H   0  0  0  0  0  0  0  0  0  0  0  0
    1.2931   -0.6849    1.0927 H   0  0  0  0  0  0  0  0  0  0  0  0
    1.3113   -2.3851    1.6295 H   0  0  0  0  0  0  0  0  0  0  0  0
   -0.7249   -2.7820    0.0892 H   0  0  0  0  0  0  0  0  0  0  0  0
   -0.6570   -1.0778   -0.3475 H   0  0  0  0  0  0  0  0  0  0  0  0
    1.6237   -3.1436   -0.6984 H   0  0  0  0  0  0  0  0  0  0  0  0
    1.5054   -0.2641   -1.5686 H   0  0  0  0  0  0  0  0  0  0  0  0
    5.2203   -0.4784   -1.3099 H   0  0  0  0  0  0  0  0  0  0  0  0
    2.9382    0.4976   -3.1013 H   0  0  0  0  0  0  0  0  0  0  0  0
    4.4453   -0.3283   -3.5153 H   0  0  0  0  0  0  0  0  0  0  0  0
    4.3481    2.0764   -3.9909 H   0  0  0  0  0  0  0  0  0  0  0  0
    5.7894    1.5382   -3.1310 H   0  0  0  0  0  0  0  0  0  0  0  0
    3.9941    3.5671   -2.4538 H   0  0  0  0  0  0  0  0  0  0  0  0
    2.5486    2.2581   -1.1569 H   0  0  0  0  0  0  0  0  0  0  0  0
    3.7161    3.0053   -0.0379 H   0  0  0  0  0  0  0  0  0  0  0  0
    3.1298    0.6304    0.3028 H   0  0  0  0  0  0  0  0  0  0  0  0
    3.9771    0.4560    2.3463 H   0  0  0  0  0  0  0  0  0  0  0  0
    5.8763    0.5306    3.9306 H   0  0  0  0  0  0  0  0  0  0  0  0
    8.4610    1.5966    0.7207 H   0  0  0  0  0  0  0  0  0  0  0  0
    6.6411    1.5346   -0.8551 H   0  0  0  0  0  0  0  0  0  0  0  0
    1.0862   -3.2160   -2.9473 H   0  0  0  0  0  0  0  0  0  0  0  0
   -0.3879   -3.5444   -2.0099 H   0  0  0  0  0  0  0  0  0  0  0  0
   -0.2704   -1.9601   -2.7875 H   0  0  0  0  0  0  0  0  0  0  0  0
  1  2  1  0
  2  3  1  0
  3  4  2  0
  4  5  1  0
  5  6  2  0
  6  7  1  0
  7  8  2  0
  6  9  1  0
  9 10  1  0
 10 11  2  0
 11 12  1  0
 12 13  1  0
 13 14  2  0
 14 15  1  0
 15 16  2  0
 16 17  1  0
 17 18  2  0
 16 19  1  0
 11 20  1  0
 20 21  1  0
 21 22  1  0
 22 23  2  0
 21 24  1  0
 24 25  1  0
 25 26  1  0
 26 27  1  0
 27 28  1  0
 28 29  2  0
 28 30  1  0
 30 31  1  0
 31 32  1  0
 32 33  1  0
 33 34  1  0
 34 35  1  0
 35 36  1  0
 36 37  2  0
 37 38  1  0
 38 39  2  0
 39 40  1  0
 40 41  2  0
 39 42  1  0
 26 43  1  0
  8  3  1  0
 22  9  1  0
 35 30  1  0
 41 36  1  0
 18 13  1  0
  1 44  1  0
  1 45  1  0
  1 46  1  0
  4 47  1  0
  5 48  1  0
  7 49  1  0
  8 50  1  0
 14 51  1  0
 15 52  1  0
 17 53  1  0
 18 54  1  0
 20 55  1  0
 20 56  1  0
 21 57  1  0
 24 58  1  0
 24 59  1  0
 25 60  1  0
 25 61  1  0
 26 62  1  1
 27 63  1  0
 30 64  1  6
 31 65  1  0
 31 66  1  0
 32 67  1  0
 32 68  1  0
 33 69  1  0
 34 70  1  0
 34 71  1  0
 35 72  1  1
 37 73  1  0
 38 74  1  0
 40 75  1  0
 41 76  1  0
 43 77  1  0
 43 78  1  0
 43 79  1  0
M  END
>  <Ligand ID>  (1) 
LIG0002234

>  <Ligand>  (1) 
CHEMBL2113043

>  <SMILES>  (1) 
COc1ccc(cc1)N1N=C(Sc2ccc(cc2)Cl)CC(C1=O)CC[C@H](NC(=O)[C@H]1CCNC[C@@H]1c1ccc(cc1)F)C

>  <CID>  (1) 
71459938.0

>  <ChEMBL ID>  (1) 
nan

>  <InChiKey>  (1) 
HQLXQTOXHLBXLG-XUHOWKTBSA-N

>  <InChi>  (1) 
InChI=1S/C33H36ClFN4O3S/c1-21(37-32(40)29-17-18-36-20-30(29)22-5-9-25(35)10-6-22)3-4-23-19-31(43-28-15-7-24(34)8-16-28)38-39(33(23)41)26-11-13-27(42-2)14-12-26/h5-16,21,23,29-30,36H,3-4,17-20H2,1-2H3,(H,37,40)/t21-,23?,29+,30-/m1/s1

>  <IUPAC Name>  (1) 
(3S,4S)-N-[(2R)-4-[6-(4-chlorophenyl)sulfanyl-2-(4-methoxyphenyl)-3-oxo-4,5-dihydropyridazin-4-yl]butan-2-yl]-3-(4-fluorophenyl)piperidine-4-carboxamide

$$$$
