
     RDKit          3D

 17 17  0  0  0  0  0  0  0  0999 V2000
    2.5165   -0.9086   -0.1043 C   0  0  0  0  0  0  0  0  0  0  0  0
    1.5292    0.0476    0.1044 O   0  0  0  0  0  0  0  0  0  0  0  0
    0.1694   -0.1478    0.1323 C   0  0  0  0  0  0  0  0  0  0  0  0
   -0.2813   -1.4062   -0.0633 N   0  0  0  0  0  0  0  0  0  0  0  0
   -1.6172   -1.6399   -0.0430 C   0  0  0  0  0  0  0  0  0  0  0  0
   -2.4853   -0.5897    0.1765 C   0  0  0  0  0  0  0  0  0  0  0  0
   -2.0594    0.6803    0.3752 N   0  0  0  0  0  0  0  0  0  0  0  0
   -0.7194    0.8903    0.3507 C   0  0  0  0  0  0  0  0  0  0  0  0
   -0.1442    2.2452    0.5573 C   0  0  0  0  0  0  0  0  0  0  0  0
    2.2224   -1.9490    0.0312 H   0  0  0  0  0  0  0  0  0  0  0  0
    2.9918   -0.8027   -1.1114 H   0  0  0  0  0  0  0  0  0  0  0  0
    3.3734   -0.7295    0.6099 H   0  0  0  0  0  0  0  0  0  0  0  0
   -1.9610   -2.6649   -0.2034 H   0  0  0  0  0  0  0  0  0  0  0  0
   -3.5707   -0.7667    0.1951 H   0  0  0  0  0  0  0  0  0  0  0  0
   -0.8561    3.0227    0.2226 H   0  0  0  0  0  0  0  0  0  0  0  0
    0.7692    2.3794   -0.0513 H   0  0  0  0  0  0  0  0  0  0  0  0
    0.1228    2.3395    1.6256 H   0  0  0  0  0  0  0  0  0  0  0  0
  1  2  1  0
  2  3  1  0
  3  4  2  0
  4  5  1  0
  5  6  2  0
  6  7  1  0
  7  8  2  0
  8  9  1  0
  8  3  1  0
  1 10  1  0
  1 11  1  0
  1 12  1  0
  5 13  1  0
  6 14  1  0
  9 15  1  0
  9 16  1  0
  9 17  1  0
M  END
>  <Ligand ID>  (1) 
LIG0000180

>  <Ligand>  (1) 
2-Methoxy-3-Methyl-pyrazine

>  <SMILES>  (1) 
COc1nccnc1C

>  <CID>  (1) 
17898.0

>  <ChEMBL ID>  (1) 
nan

>  <InChiKey>  (1) 
VKJIAEQRKBQLLA-UHFFFAOYSA-N

>  <InChi>  (1) 
InChI=1S/C6H8N2O/c1-5-6(9-2)8-4-3-7-5/h3-4H,1-2H3

>  <IUPAC Name>  (1) 
2-methoxy-3-methylpyrazine

$$$$
