
     RDKit          3D

 44 48  0  0  0  0  0  0  0  0999 V2000
    5.4187    0.5762   -0.8226 C   0  0  0  0  0  0  0  0  0  0  0  0
    4.1787   -0.0184   -0.9336 O   0  0  0  0  0  0  0  0  0  0  0  0
    2.9574    0.4263   -0.5084 C   0  0  0  0  0  0  0  0  0  0  0  0
    2.7890    1.6412    0.1488 C   0  0  0  0  0  0  0  0  0  0  0  0
    1.5518    2.0854    0.5763 C   0  0  0  0  0  0  0  0  0  0  0  0
    0.4630    1.2941    0.3391 C   0  0  0  0  0  0  0  0  0  0  0  0
    0.6400    0.1093   -0.3039 C   0  0  0  0  0  0  0  0  0  0  0  0
    1.8499   -0.3611   -0.7406 C   0  0  0  0  0  0  0  0  0  0  0  0
    1.5924   -1.5871   -1.3355 O   0  0  0  0  0  0  0  0  0  0  0  0
    0.3581   -2.0951   -0.7935 C   0  0  2  0  0  0  0  0  0  0  0  0
   -0.4363   -0.8531   -0.6324 C   0  0  2  0  0  0  0  0  0  0  0  0
   -1.1565   -0.4906   -1.8869 C   0  0  0  0  0  0  0  0  0  0  0  0
   -2.1520    0.5992   -1.7805 C   0  0  0  0  0  0  0  0  0  0  0  0
   -2.7808    0.7312   -0.5085 N   0  0  0  0  0  0  0  0  0  0  0  0
   -1.9053    0.6027    0.6265 C   0  0  2  0  0  0  0  0  0  0  0  0
   -0.9046    1.6841    0.7608 C   0  0  0  0  0  0  0  0  0  0  0  0
   -1.3704   -0.7985    0.5401 C   0  0  1  0  0  0  0  0  0  0  0  0
   -2.4483   -1.6406    0.2650 O   0  0  0  0  0  0  0  0  0  0  0  0
   -0.7328   -1.2861    1.8159 C   0  0  0  0  0  0  0  0  0  0  0  0
   -0.4039   -2.7424    1.5567 C   0  0  0  0  0  0  0  0  0  0  0  0
    0.6585   -2.7676    0.5078 C   0  0  0  0  0  0  0  0  0  0  0  0
    1.7417   -3.3056    0.6685 O   0  0  0  0  0  0  0  0  0  0  0  0
   -3.7081    1.7939   -0.4558 C   0  0  0  0  0  0  0  0  0  0  0  0
    6.0815    0.4515   -1.7009 H   0  0  0  0  0  0  0  0  0  0  0  0
    5.9616    0.0399    0.0049 H   0  0  0  0  0  0  0  0  0  0  0  0
    5.3739    1.6398   -0.5117 H   0  0  0  0  0  0  0  0  0  0  0  0
    3.6384    2.2824    0.3462 H   0  0  0  0  0  0  0  0  0  0  0  0
    1.4078    3.0267    1.0877 H   0  0  0  0  0  0  0  0  0  0  0  0
   -0.0593   -2.7986   -1.5383 H   0  0  0  0  0  0  0  0  0  0  0  0
   -1.5553   -1.4038   -2.3833 H   0  0  0  0  0  0  0  0  0  0  0  0
   -0.3593   -0.1248   -2.5994 H   0  0  0  0  0  0  0  0  0  0  0  0
   -1.7763    1.5723   -2.1572 H   0  0  0  0  0  0  0  0  0  0  0  0
   -2.9837    0.3406   -2.5006 H   0  0  0  0  0  0  0  0  0  0  0  0
   -2.5698    0.6454    1.5231 H   0  0  0  0  0  0  0  0  0  0  0  0
   -0.8177    2.0818    1.7961 H   0  0  0  0  0  0  0  0  0  0  0  0
   -1.1769    2.5623    0.1293 H   0  0  0  0  0  0  0  0  0  0  0  0
   -2.6375   -1.7380   -0.6867 H   0  0  0  0  0  0  0  0  0  0  0  0
   -1.4586   -1.1930    2.6269 H   0  0  0  0  0  0  0  0  0  0  0  0
    0.2032   -0.7268    2.0464 H   0  0  0  0  0  0  0  0  0  0  0  0
   -0.1229   -3.2858    2.4598 H   0  0  0  0  0  0  0  0  0  0  0  0
   -1.3279   -3.1592    1.0718 H   0  0  0  0  0  0  0  0  0  0  0  0
   -3.5771    2.4563    0.4244 H   0  0  0  0  0  0  0  0  0  0  0  0
   -4.7457    1.3601   -0.3497 H   0  0  0  0  0  0  0  0  0  0  0  0
   -3.6981    2.3738   -1.4143 H   0  0  0  0  0  0  0  0  0  0  0  0
  1  2  1  0
  2  3  1  0
  3  4  2  0
  4  5  1  0
  5  6  2  0
  6  7  1  0
  7  8  2  0
  8  9  1  0
  9 10  1  0
 10 11  1  0
 11 12  1  6
 12 13  1  0
 13 14  1  0
 14 15  1  0
 15 16  1  0
 15 17  1  0
 17 18  1  6
 17 19  1  0
 19 20  1  0
 20 21  1  0
 21 22  2  0
 14 23  1  0
  8  3  1  0
 21 10  1  0
 16  6  1  0
 11  7  1  0
 17 11  1  0
  1 24  1  0
  1 25  1  0
  1 26  1  0
  4 27  1  0
  5 28  1  0
 10 29  1  6
 12 30  1  0
 12 31  1  0
 13 32  1  0
 13 33  1  0
 15 34  1  1
 16 35  1  0
 16 36  1  0
 18 37  1  0
 19 38  1  0
 19 39  1  0
 20 40  1  0
 20 41  1  0
 23 42  1  0
 23 43  1  0
 23 44  1  0
M  END
>  <Ligand ID>  (1) 
LIG0000992

>  <Ligand>  (1) 
oxycodone

>  <SMILES>  (1) 
COc1ccc2c3c1O[C@@H]1[C@@]43CCN([C@H](C2)[C@]4(O)CCC1=O)C

>  <CID>  (1) 
5284603.0

>  <ChEMBL ID>  (1) 
nan

>  <InChiKey>  (1) 
BRUQQQPBMZOVGD-XFKAJCMBSA-N

>  <InChi>  (1) 
InChI=1S/C18H21NO4/c1-19-8-7-17-14-10-3-4-12(22-2)15(14)23-16(17)11(20)5-6-18(17,21)13(19)9-10/h3-4,13,16,21H,5-9H2,1-2H3/t13-,16+,17+,18-/m1/s1

>  <IUPAC Name>  (1) 
(4R,4aS,7aR,12bS)-4a-hydroxy-9-methoxy-3-methyl-2,4,5,6,7a,13-hexahydro-1H-4,12-methanobenzofuro[3,2-e]isoquinolin-7-one

$$$$
