
     RDKit          3D

 97101  0  0  0  0  0  0  0  0999 V2000
   -1.5824    6.2537    3.2101 N   0  0  0  0  0  0  0  0  0  0  0  0
   -1.5762    5.6699    1.9183 C   0  0  0  0  0  0  0  0  0  0  0  0
   -1.3879    4.4209    1.6870 N   0  0  0  0  0  0  0  0  0  0  0  0
   -1.1615    3.4975    2.7803 C   0  0  0  0  0  0  0  0  0  0  0  0
   -0.6300    2.2239    2.1476 C   0  0  0  0  0  0  0  0  0  0  0  0
   -1.6269    1.6560    1.1593 C   0  0  0  0  0  0  0  0  0  0  0  0
   -1.1341    0.3993    0.5166 C   0  0  1  0  0  0  0  0  0  0  0  0
   -2.1447   -0.1422   -0.4691 C   0  0  0  0  0  0  0  0  0  0  0  0
   -1.8741   -0.2976   -1.6820 O   0  0  0  0  0  0  0  0  0  0  0  0
   -3.4116   -0.4505    0.1086 N   0  0  0  0  0  0  0  0  0  0  0  0
   -4.5311   -0.9864   -0.6917 C   0  0  2  0  0  0  0  0  0  0  0  0
   -5.5068    0.0916   -0.8220 C   0  0  0  0  0  0  0  0  0  0  0  0
   -5.2880    1.1676   -0.1641 O   0  0  0  0  0  0  0  0  0  0  0  0
   -6.6800    0.0703   -1.6134 N   0  0  0  0  0  0  0  0  0  0  0  0
   -4.9776   -2.2914   -0.1646 C   0  0  0  0  0  0  0  0  0  0  0  0
   -6.0974   -2.9511   -0.8057 C   0  0  0  0  0  0  0  0  0  0  0  0
   -6.0261   -3.9115   -1.8147 C   0  0  0  0  0  0  0  0  0  0  0  0
   -7.2520   -4.2812   -2.1907 N   0  0  0  0  0  0  0  0  0  0  0  0
   -8.1752   -3.5949   -1.4597 C   0  0  0  0  0  0  0  0  0  0  0  0
   -7.4758   -2.7863   -0.6176 C   0  0  0  0  0  0  0  0  0  0  0  0
   -8.2160   -1.9868    0.2539 C   0  0  0  0  0  0  0  0  0  0  0  0
   -9.5873   -1.9895    0.2865 C   0  0  0  0  0  0  0  0  0  0  0  0
  -10.2788   -2.8034   -0.5634 C   0  0  0  0  0  0  0  0  0  0  0  0
   -9.5545   -3.5981   -1.4284 C   0  0  0  0  0  0  0  0  0  0  0  0
    0.0492    0.7060   -0.2488 N   0  0  0  0  0  0  0  0  0  0  0  0
    1.2569   -0.0241   -0.0738 C   0  0  0  0  0  0  0  0  0  0  0  0
    1.2214   -0.9606    0.7777 O   0  0  0  0  0  0  0  0  0  0  0  0
    2.4399    0.3374   -0.8612 C   0  0  0  0  0  0  0  0  0  0  0  0
    2.1225    0.2619   -2.3448 C   0  0  0  0  0  0  0  0  0  0  0  0
    3.3011    0.5695   -3.1997 C   0  0  0  0  0  0  0  0  0  0  0  0
    4.3290    1.3360   -2.4913 C   0  0  0  0  0  0  0  0  0  0  0  0
    4.1635    1.9487   -1.2698 C   0  0  0  0  0  0  0  0  0  0  0  0
    2.8189    1.8094   -0.6259 C   0  0  0  0  0  0  0  0  0  0  0  0
    5.1461    2.6630   -0.6258 C   0  0  0  0  0  0  0  0  0  0  0  0
    6.3912    2.7763   -1.2457 C   0  0  0  0  0  0  0  0  0  0  0  0
    6.6089    2.1759   -2.4791 C   0  0  0  0  0  0  0  0  0  0  0  0
    5.5876    1.4738   -3.0758 C   0  0  0  0  0  0  0  0  0  0  0  0
    3.5753   -0.5190   -0.5825 N   0  0  0  0  0  0  0  0  0  0  0  0
    4.0685   -0.6030    0.7197 C   0  0  0  0  0  0  0  0  0  0  0  0
    3.4720    0.1137    1.6045 O   0  0  0  0  0  0  0  0  0  0  0  0
    5.1929   -1.4108    1.2034 C   0  0  2  0  0  0  0  0  0  0  0  0
    4.9962   -2.8985    1.1832 C   0  0  0  0  0  0  0  0  0  0  0  0
    4.7328   -3.4149   -0.1582 C   0  0  0  0  0  0  0  0  0  0  0  0
    3.5751   -3.6238   -0.8287 N   0  0  0  0  0  0  0  0  0  0  0  0
    3.8440   -4.1211   -2.0499 C   0  0  0  0  0  0  0  0  0  0  0  0
    5.1724   -4.2453   -2.1982 N   0  0  0  0  0  0  0  0  0  0  0  0
    5.7199   -3.8172   -1.0494 C   0  0  0  0  0  0  0  0  0  0  0  0
    5.5120   -1.0094    2.6035 N   0  0  0  0  0  0  0  0  0  0  0  0
    6.7755   -0.4390    2.9194 C   0  0  0  0  0  0  0  0  0  0  0  0
    7.6731   -0.2490    2.0422 O   0  0  0  0  0  0  0  0  0  0  0  0
    6.9951   -0.0701    4.3530 C   0  0  0  0  0  0  0  0  0  0  0  0
   -1.7928    6.5050    0.7803 N   0  0  0  0  0  0  0  0  0  0  0  0
   -0.9076    7.0592    3.3658 H   0  0  0  0  0  0  0  0  0  0  0  0
   -2.1864    5.9561    3.9966 H   0  0  0  0  0  0  0  0  0  0  0  0
   -0.3790    3.9169    3.4349 H   0  0  0  0  0  0  0  0  0  0  0  0
   -2.0576    3.3049    3.3832 H   0  0  0  0  0  0  0  0  0  0  0  0
   -0.3297    1.5402    2.9402 H   0  0  0  0  0  0  0  0  0  0  0  0
    0.3155    2.5271    1.6083 H   0  0  0  0  0  0  0  0  0  0  0  0
   -1.8358    2.4659    0.4497 H   0  0  0  0  0  0  0  0  0  0  0  0
   -2.5426    1.3977    1.7583 H   0  0  0  0  0  0  0  0  0  0  0  0
   -0.9585   -0.3963    1.2647 H   0  0  0  0  0  0  0  0  0  0  0  0
   -3.6130   -0.3116    1.1371 H   0  0  0  0  0  0  0  0  0  0  0  0
   -4.1585   -1.1752   -1.7466 H   0  0  0  0  0  0  0  0  0  0  0  0
   -6.6919   -0.4064   -2.5622 H   0  0  0  0  0  0  0  0  0  0  0  0
   -7.5354    0.5362   -1.2406 H   0  0  0  0  0  0  0  0  0  0  0  0
   -4.1115   -3.0176   -0.1001 H   0  0  0  0  0  0  0  0  0  0  0  0
   -5.2260   -2.1190    0.9340 H   0  0  0  0  0  0  0  0  0  0  0  0
   -5.1163   -4.3120   -2.2443 H   0  0  0  0  0  0  0  0  0  0  0  0
   -7.5603   -4.9798   -2.9207 H   0  0  0  0  0  0  0  0  0  0  0  0
   -7.6587   -1.3418    0.9269 H   0  0  0  0  0  0  0  0  0  0  0  0
  -10.0751   -1.3286    1.0040 H   0  0  0  0  0  0  0  0  0  0  0  0
  -11.3553   -2.7844   -0.5160 H   0  0  0  0  0  0  0  0  0  0  0  0
  -10.1166   -4.2346   -2.0914 H   0  0  0  0  0  0  0  0  0  0  0  0
   -0.0283    1.4937   -0.9399 H   0  0  0  0  0  0  0  0  0  0  0  0
    1.7795   -0.7730   -2.5475 H   0  0  0  0  0  0  0  0  0  0  0  0
    1.3189    1.0008   -2.5663 H   0  0  0  0  0  0  0  0  0  0  0  0
    3.6923   -0.3610   -3.6623 H   0  0  0  0  0  0  0  0  0  0  0  0
    2.9491    1.1825   -4.0756 H   0  0  0  0  0  0  0  0  0  0  0  0
    2.8837    2.0409    0.4356 H   0  0  0  0  0  0  0  0  0  0  0  0
    2.0448    2.3983   -1.1779 H   0  0  0  0  0  0  0  0  0  0  0  0
    4.9955    3.1326    0.3273 H   0  0  0  0  0  0  0  0  0  0  0  0
    7.1850    3.3468   -0.7384 H   0  0  0  0  0  0  0  0  0  0  0  0
    7.5923    2.2757   -2.9499 H   0  0  0  0  0  0  0  0  0  0  0  0
    5.8158    1.0221   -4.0482 H   0  0  0  0  0  0  0  0  0  0  0  0
    4.0374   -1.0527   -1.3421 H   0  0  0  0  0  0  0  0  0  0  0  0
    6.0938   -1.1674    0.6199 H   0  0  0  0  0  0  0  0  0  0  0  0
    4.2338   -3.2286    1.9321 H   0  0  0  0  0  0  0  0  0  0  0  0
    5.9747   -3.3378    1.5404 H   0  0  0  0  0  0  0  0  0  0  0  0
    2.6366   -3.4045   -0.3924 H   0  0  0  0  0  0  0  0  0  0  0  0
    3.1229   -4.3903   -2.8202 H   0  0  0  0  0  0  0  0  0  0  0  0
    6.7848   -3.7890   -0.8440 H   0  0  0  0  0  0  0  0  0  0  0  0
    4.7683   -1.1651    3.3467 H   0  0  0  0  0  0  0  0  0  0  0  0
    6.4611   -0.7613    5.0349 H   0  0  0  0  0  0  0  0  0  0  0  0
    8.0783   -0.0801    4.5898 H   0  0  0  0  0  0  0  0  0  0  0  0
    6.6605    0.9942    4.4834 H   0  0  0  0  0  0  0  0  0  0  0  0
   -1.0039    6.9653    0.2554 H   0  0  0  0  0  0  0  0  0  0  0  0
   -2.7489    6.7103    0.3980 H   0  0  0  0  0  0  0  0  0  0  0  0
  1  2  1  0
  2  3  2  3
  3  4  1  0
  4  5  1  0
  5  6  1  0
  6  7  1  0
  7  8  1  0
  8  9  2  0
  8 10  1  0
 10 11  1  0
 11 12  1  0
 12 13  2  0
 12 14  1  0
 11 15  1  0
 15 16  1  0
 16 17  2  0
 17 18  1  0
 18 19  1  0
 19 20  2  0
 20 21  1  0
 21 22  2  0
 22 23  1  0
 23 24  2  0
  7 25  1  0
 25 26  1  0
 26 27  2  0
 26 28  1  0
 28 29  1  0
 29 30  1  0
 30 31  1  0
 31 32  2  0
 32 33  1  0
 32 34  1  0
 34 35  2  0
 35 36  1  0
 36 37  2  0
 28 38  1  0
 38 39  1  0
 39 40  2  0
 39 41  1  0
 41 42  1  0
 42 43  1  0
 43 44  1  0
 44 45  1  0
 45 46  2  0
 46 47  1  0
 41 48  1  0
 48 49  1  0
 49 50  2  0
 49 51  1  0
  2 52  1  0
 20 16  1  0
 33 28  1  0
 47 43  2  0
 24 19  1  0
 37 31  1  0
  1 53  1  0
  1 54  1  0
  4 55  1  0
  4 56  1  0
  5 57  1  0
  5 58  1  0
  6 59  1  0
  6 60  1  0
  7 61  1  1
 10 62  1  0
 11 63  1  6
 14 64  1  0
 14 65  1  0
 15 66  1  0
 15 67  1  0
 17 68  1  0
 18 69  1  0
 21 70  1  0
 22 71  1  0
 23 72  1  0
 24 73  1  0
 25 74  1  0
 29 75  1  0
 29 76  1  0
 30 77  1  0
 30 78  1  0
 33 79  1  0
 33 80  1  0
 34 81  1  0
 35 82  1  0
 36 83  1  0
 37 84  1  0
 38 85  1  0
 41 86  1  6
 42 87  1  0
 42 88  1  0
 44 89  1  0
 45 90  1  0
 47 91  1  0
 48 92  1  0
 51 93  1  0
 51 94  1  0
 51 95  1  0
 52 96  1  0
 52 97  1  0
M  END
>  <Ligand ID>  (1) 
LIG0001446

>  <Ligand>  (1) 
CHEMBL102688

>  <SMILES>  (1) 
NC(=NCCC[C@@H](C(=O)N[C@H](C(=O)N)Cc1c[nH]c2c1cccc2)NC(=O)C1(CCc2c(C1)cccc2)NC(=O)[C@H](Cc1[nH]cnc1)NC(=O)C)N

>  <CID>  (1) 
44335147.0

>  <ChEMBL ID>  (1) 
nan

>  <InChiKey>  (1) 
MXPMNTOAZLMXKC-KUYBKGITSA-N

>  <InChi>  (1) 
InChI=1S/C36H45N11O5/c1-21(48)44-30(16-25-19-40-20-43-25)33(51)47-36(13-12-22-7-2-3-8-23(22)17-36)34(52)46-28(11-6-14-41-35(38)39)32(50)45-29(31(37)49)15-24-18-42-27-10-5-4-9-26(24)27/h2-5,7-10,18-20,28-30,42H,6,11-17H2,1H3,(H2,37,49)(H,40,43)(H,44,48)(H,45,50)(H,46,52)(H,47,51)(H4,38,39,41)/t28-,29-,30-,36?/m0/s1

>  <IUPAC Name>  (1) 
2-[[(2S)-2-acetamido-3-(1H-imidazol-5-yl)propanoyl]amino]-N-[(2S)-1-[[(2S)-1-amino-3-(1H-indol-3-yl)-1-oxopropan-2-yl]amino]-5-(diaminomethylideneamino)-1-oxopentan-2-yl]-3,4-dihydro-1H-naphthalene-2-carboxamide

$$$$
