
     RDKit          3D

 26 28  0  0  0  0  0  0  0  0999 V2000
    4.8109    2.1425    0.4968 Cl  0  0  0  0  0  0  0  0  0  0  0  0
    3.4085    1.1959    0.1481 C   0  0  0  0  0  0  0  0  0  0  0  0
    3.5523    0.0380   -0.6196 C   0  0  0  0  0  0  0  0  0  0  0  0
    2.4455   -0.7432   -0.9166 C   0  0  0  0  0  0  0  0  0  0  0  0
    1.2074   -0.3249   -0.4217 C   0  0  0  0  0  0  0  0  0  0  0  0
    1.0898    0.8311    0.3400 C   0  0  0  0  0  0  0  0  0  0  0  0
    2.1813    1.5965    0.6297 C   0  0  0  0  0  0  0  0  0  0  0  0
   -0.0365   -1.0822   -0.6783 C   0  0  0  0  0  0  0  0  0  0  0  0
   -0.9426   -0.1975   -1.5187 C   0  0  0  0  0  0  0  0  0  0  0  0
   -2.1228   -0.0080   -0.6950 N   0  0  0  0  0  0  0  0  0  0  0  0
   -2.0549   -0.6956    0.4345 C   0  0  0  0  0  0  0  0  0  0  0  0
   -0.7855   -1.4672    0.5358 C   0  0  0  0  0  0  0  0  0  0  0  0
   -3.1758   -0.4843    1.1624 N   0  0  0  0  0  0  0  0  0  0  0  0
   -3.9817    0.3666    0.4702 C   0  0  0  0  0  0  0  0  0  0  0  0
   -3.2845    0.6479   -0.7004 C   0  0  0  0  0  0  0  0  0  0  0  0
    4.5332   -0.2613   -0.9911 H   0  0  0  0  0  0  0  0  0  0  0  0
    2.5153   -1.6537   -1.5123 H   0  0  0  0  0  0  0  0  0  0  0  0
    0.1032    1.1380    0.7174 H   0  0  0  0  0  0  0  0  0  0  0  0
    2.0286    2.4852    1.2267 H   0  0  0  0  0  0  0  0  0  0  0  0
    0.1765   -1.9798   -1.2918 H   0  0  0  0  0  0  0  0  0  0  0  0
   -0.4919    0.8006   -1.7038 H   0  0  0  0  0  0  0  0  0  0  0  0
   -1.1965   -0.6596   -2.5017 H   0  0  0  0  0  0  0  0  0  0  0  0
   -0.3231   -1.1840    1.4973 H   0  0  0  0  0  0  0  0  0  0  0  0
   -1.0389   -2.5518    0.5578 H   0  0  0  0  0  0  0  0  0  0  0  0
   -4.9455    0.7357    0.7701 H   0  0  0  0  0  0  0  0  0  0  0  0
   -3.6719    1.3151   -1.4821 H   0  0  0  0  0  0  0  0  0  0  0  0
  1  2  1  0
  2  3  2  0
  3  4  1  0
  4  5  2  0
  5  6  1  0
  6  7  2  0
  5  8  1  0
  8  9  1  0
  9 10  1  0
 10 11  1  0
 11 12  1  0
 11 13  2  0
 13 14  1  0
 14 15  2  0
  7  2  1  0
 12  8  1  0
 15 10  1  0
  3 16  1  0
  4 17  1  0
  6 18  1  0
  7 19  1  0
  8 20  1  0
  9 21  1  0
  9 22  1  0
 12 23  1  0
 12 24  1  0
 14 25  1  0
 15 26  1  0
M  END
>  <Ligand ID>  (1) 
LIG0002871

>  <Ligand>  (1) 
CHEMBL467495

>  <SMILES>  (1) 
Clc1ccc(cc1)C1Cn2c(C1)ncc2

>  <CID>  (1) 
44574936.0

>  <ChEMBL ID>  (1) 
nan

>  <InChiKey>  (1) 
NMYFTUWMFYFIEY-UHFFFAOYSA-N

>  <InChi>  (1) 
InChI=1S/C12H11ClN2/c13-11-3-1-9(2-4-11)10-7-12-14-5-6-15(12)8-10/h1-6,10H,7-8H2

>  <IUPAC Name>  (1) 
6-(4-chlorophenyl)-6,7-dihydro-5H-pyrrolo[1,2-a]imidazole

$$$$
