
     RDKit          3D

 70 74  0  0  0  0  0  0  0  0999 V2000
   -2.7198   -2.7862    0.8704 O   0  0  0  0  0  0  0  0  0  0  0  0
   -2.0371   -1.7013    0.3400 C   0  0  2  0  0  0  0  0  0  0  0  0
   -2.5931   -0.4198    1.0030 C   0  0  0  0  0  0  0  0  0  0  0  0
   -3.9105   -0.1907    0.9012 O   0  0  0  0  0  0  0  0  0  0  0  0
   -5.0245   -0.7497    1.3724 C   0  0  0  0  0  0  0  0  0  0  0  0
   -5.1663   -1.8164    2.2292 C   0  0  0  0  0  0  0  0  0  0  0  0
   -6.4262   -2.2821    2.6356 C   0  0  0  0  0  0  0  0  0  0  0  0
   -7.5831   -1.6881    2.1930 C   0  0  0  0  0  0  0  0  0  0  0  0
   -7.4603   -0.6241    1.3408 C   0  0  0  0  0  0  0  0  0  0  0  0
   -6.2432   -0.1754    0.9489 C   0  0  0  0  0  0  0  0  0  0  0  0
   -6.5060    0.9041    0.0951 C   0  0  0  0  0  0  0  0  0  0  0  0
   -5.6618    1.7535   -0.6051 C   0  0  0  0  0  0  0  0  0  0  0  0
   -6.2561    2.7459   -1.3780 C   0  0  0  0  0  0  0  0  0  0  0  0
   -7.6410    2.8844   -1.4491 C   0  0  0  0  0  0  0  0  0  0  0  0
   -8.4595    2.0304   -0.7466 C   0  0  0  0  0  0  0  0  0  0  0  0
   -7.8709    1.0593    0.0099 C   0  0  0  0  0  0  0  0  0  0  0  0
   -8.4415    0.1153    0.7787 N   0  0  0  0  0  0  0  0  0  0  0  0
   -2.2958   -1.5554   -1.1388 C   0  0  0  0  0  0  0  0  0  0  0  0
   -1.5542   -0.5509   -1.7354 N   0  0  0  0  0  0  0  0  0  0  0  0
   -0.2233   -0.5762   -2.0375 C   0  0  0  0  0  0  0  0  0  0  0  0
    0.9203   -0.6006   -1.1174 C   0  0  0  0  0  0  0  0  0  0  0  0
    2.2135   -0.6337   -1.9537 C   0  0  0  0  0  0  0  0  0  0  0  0
    3.0138    0.6216   -1.8574 C   0  0  0  0  0  0  0  0  0  0  0  0
    3.3852    0.7588   -0.4616 N   0  0  0  0  0  0  0  0  0  0  0  0
    2.2692    0.8884    0.4570 C   0  0  0  0  0  0  0  0  0  0  0  0
    0.9555    0.4796   -0.0851 C   0  0  0  0  0  0  0  0  0  0  0  0
    4.7246    0.7524    0.0187 C   0  0  0  0  0  0  0  0  0  0  0  0
    4.8702    0.8990    1.2579 O   0  0  0  0  0  0  0  0  0  0  0  0
    5.8651    0.5938   -0.7969 N   0  0  0  0  0  0  0  0  0  0  0  0
    7.2096    0.5776   -0.3909 C   0  0  0  0  0  0  0  0  0  0  0  0
    8.1962    0.3603   -1.3618 C   0  0  0  0  0  0  0  0  0  0  0  0
    9.5329    0.3277   -1.0666 C   0  0  0  0  0  0  0  0  0  0  0  0
    9.9678    0.5119    0.2262 C   0  0  0  0  0  0  0  0  0  0  0  0
    9.0380    0.7269    1.2033 C   0  0  0  0  0  0  0  0  0  0  0  0
    7.6753    0.7571    0.8841 C   0  0  0  0  0  0  0  0  0  0  0  0
    9.4783    0.9263    2.5861 C   0  0  0  0  0  0  0  0  0  0  0  0
   10.7404    0.8833    2.7822 O   0  0  0  0  0  0  0  0  0  0  0  0
    8.6226    1.1487    3.6391 O   0  0  0  0  0  0  0  0  0  0  0  0
   -3.3259   -3.1911    0.1940 H   0  0  0  0  0  0  0  0  0  0  0  0
   -1.0045   -1.8010    0.6448 H   0  0  0  0  0  0  0  0  0  0  0  0
   -2.2257   -0.5149    2.0712 H   0  0  0  0  0  0  0  0  0  0  0  0
   -1.9944    0.4410    0.5901 H   0  0  0  0  0  0  0  0  0  0  0  0
   -4.3426   -2.3356    2.6700 H   0  0  0  0  0  0  0  0  0  0  0  0
   -6.4981   -3.1383    3.3204 H   0  0  0  0  0  0  0  0  0  0  0  0
   -8.5115   -2.0962    2.5442 H   0  0  0  0  0  0  0  0  0  0  0  0
   -4.5897    1.6279   -0.5353 H   0  0  0  0  0  0  0  0  0  0  0  0
   -5.6212    3.4397   -1.9478 H   0  0  0  0  0  0  0  0  0  0  0  0
   -8.0986    3.6549   -2.0477 H   0  0  0  0  0  0  0  0  0  0  0  0
   -9.5398    2.1485   -0.8096 H   0  0  0  0  0  0  0  0  0  0  0  0
   -9.4776   -0.0162    0.9139 H   0  0  0  0  0  0  0  0  0  0  0  0
   -3.3854   -1.2376   -1.1832 H   0  0  0  0  0  0  0  0  0  0  0  0
   -2.3260   -2.5379   -1.6607 H   0  0  0  0  0  0  0  0  0  0  0  0
   -2.0808    0.2746   -2.0854 H   0  0  0  0  0  0  0  0  0  0  0  0
   -0.0187    0.3125   -2.7405 H   0  0  0  0  0  0  0  0  0  0  0  0
   -0.0537   -1.4347   -2.7863 H   0  0  0  0  0  0  0  0  0  0  0  0
    0.9850   -1.5499   -0.4997 H   0  0  0  0  0  0  0  0  0  0  0  0
    2.8409   -1.4503   -1.5645 H   0  0  0  0  0  0  0  0  0  0  0  0
    1.9419   -0.8457   -3.0107 H   0  0  0  0  0  0  0  0  0  0  0  0
    2.4462    1.5319   -2.1396 H   0  0  0  0  0  0  0  0  0  0  0  0
    3.8491    0.5546   -2.5499 H   0  0  0  0  0  0  0  0  0  0  0  0
    2.4715    0.2630    1.3623 H   0  0  0  0  0  0  0  0  0  0  0  0
    2.2694    1.9432    0.8076 H   0  0  0  0  0  0  0  0  0  0  0  0
    0.4961    1.3860   -0.5662 H   0  0  0  0  0  0  0  0  0  0  0  0
    0.2906    0.2037    0.7928 H   0  0  0  0  0  0  0  0  0  0  0  0
    5.6799    0.4740   -1.8271 H   0  0  0  0  0  0  0  0  0  0  0  0
    7.9298    0.2056   -2.4104 H   0  0  0  0  0  0  0  0  0  0  0  0
   10.2571    0.1563   -1.8547 H   0  0  0  0  0  0  0  0  0  0  0  0
   11.0227    0.4782    0.4102 H   0  0  0  0  0  0  0  0  0  0  0  0
    7.0184    0.9326    1.7108 H   0  0  0  0  0  0  0  0  0  0  0  0
    8.9915    1.2131    4.5958 H   0  0  0  0  0  0  0  0  0  0  0  0
  1  2  1  0
  2  3  1  0
  3  4  1  0
  4  5  1  0
  5  6  2  0
  6  7  1  0
  7  8  2  0
  8  9  1  0
  9 10  2  0
 10 11  1  0
 11 12  2  0
 12 13  1  0
 13 14  2  0
 14 15  1  0
 15 16  2  0
 16 17  1  0
  2 18  1  0
 18 19  1  0
 19 20  1  0
 20 21  1  0
 21 22  1  0
 22 23  1  0
 23 24  1  0
 24 25  1  0
 25 26  1  0
 24 27  1  0
 27 28  2  0
 27 29  1  0
 29 30  1  0
 30 31  2  0
 31 32  1  0
 32 33  2  0
 33 34  1  0
 34 35  2  0
 34 36  1  0
 36 37  2  0
 36 38  1  0
 10  5  1  0
 16 11  1  0
 26 21  1  0
 35 30  1  0
 17  9  1  0
  1 39  1  0
  2 40  1  6
  3 41  1  0
  3 42  1  0
  6 43  1  0
  7 44  1  0
  8 45  1  0
 12 46  1  0
 13 47  1  0
 14 48  1  0
 15 49  1  0
 17 50  1  0
 18 51  1  0
 18 52  1  0
 19 53  1  0
 20 54  1  0
 20 55  1  0
 21 56  1  0
 22 57  1  0
 22 58  1  0
 23 59  1  0
 23 60  1  0
 25 61  1  0
 25 62  1  0
 26 63  1  0
 26 64  1  0
 29 65  1  0
 31 66  1  0
 32 67  1  0
 33 68  1  0
 35 69  1  0
 38 70  1  0
M  END
>  <Ligand ID>  (1) 
LIG0003138

>  <Ligand>  (1) 
CHEMBL100724

>  <SMILES>  (1) 
O[C@H](COc1cccc2c1c1ccccc1[nH]2)CNCC1CCN(CC1)C(=O)Nc1cccc(c1)C(=O)O

>  <CID>  (1) 
10301445.0

>  <ChEMBL ID>  (1) 
nan

>  <InChiKey>  (1) 
JODNVGYVQPMCKV-QFIPXVFZSA-N

>  <InChi>  (1) 
InChI=1S/C29H32N4O5/c34-22(18-38-26-10-4-9-25-27(26)23-7-1-2-8-24(23)32-25)17-30-16-19-11-13-33(14-12-19)29(37)31-21-6-3-5-20(15-21)28(35)36/h1-10,15,19,22,30,32,34H,11-14,16-18H2,(H,31,37)(H,35,36)/t22-/m0/s1

>  <IUPAC Name>  (1) 
3-[[4-[[[(2S)-3-(9H-carbazol-4-yloxy)-2-hydroxypropyl]amino]methyl]piperidine-1-carbonyl]amino]benzoic acid

$$$$
