
     RDKit          3D

 23 23  0  0  0  0  0  0  0  0999 V2000
   -4.1217    0.9334   -0.4036 C   0  0  0  0  0  0  0  0  0  0  0  0
   -2.9288    0.5818    0.1081 C   0  0  0  0  0  0  0  0  0  0  0  0
   -2.5988   -0.8588    0.1751 C   0  0  0  0  0  0  0  0  0  0  0  0
   -1.4636   -1.1362   -0.5592 O   0  0  0  0  0  0  0  0  0  0  0  0
   -0.2043   -0.6865   -0.3628 C   0  0  0  0  0  0  0  0  0  0  0  0
    0.2398    0.1421    0.6374 C   0  0  0  0  0  0  0  0  0  0  0  0
    1.5671    0.5509    0.7481 C   0  0  0  0  0  0  0  0  0  0  0  0
    2.5102    0.1289   -0.1639 C   0  0  0  0  0  0  0  0  0  0  0  0
    2.0863   -0.7041   -1.1761 C   0  0  0  0  0  0  0  0  0  0  0  0
    0.7726   -1.1024   -1.2774 C   0  0  0  0  0  0  0  0  0  0  0  0
    3.9368    0.5335   -0.0934 C   0  0  0  0  0  0  0  0  0  0  0  0
   -4.7450    0.1061   -0.7270 H   0  0  0  0  0  0  0  0  0  0  0  0
   -4.4447    1.9630   -0.4903 H   0  0  0  0  0  0  0  0  0  0  0  0
   -2.3068    1.3957    0.4286 H   0  0  0  0  0  0  0  0  0  0  0  0
   -3.4450   -1.4571   -0.2686 H   0  0  0  0  0  0  0  0  0  0  0  0
   -2.4534   -1.1810    1.2463 H   0  0  0  0  0  0  0  0  0  0  0  0
   -0.4257    0.5001    1.3921 H   0  0  0  0  0  0  0  0  0  0  0  0
    1.8893    1.1997    1.5392 H   0  0  0  0  0  0  0  0  0  0  0  0
    2.8292   -1.0397   -1.8986 H   0  0  0  0  0  0  0  0  0  0  0  0
    0.5139   -1.7577   -2.0994 H   0  0  0  0  0  0  0  0  0  0  0  0
    4.5338   -0.1504   -0.7223 H   0  0  0  0  0  0  0  0  0  0  0  0
    4.2420    0.4825    0.9758 H   0  0  0  0  0  0  0  0  0  0  0  0
    4.0169    1.5564   -0.5192 H   0  0  0  0  0  0  0  0  0  0  0  0
  1  2  2  0
  2  3  1  0
  3  4  1  0
  4  5  1  0
  5  6  2  0
  6  7  1  0
  7  8  2  0
  8  9  1  0
  9 10  2  0
  8 11  1  0
 10  5  1  0
  1 12  1  0
  1 13  1  0
  2 14  1  0
  3 15  1  0
  3 16  1  0
  6 17  1  0
  7 18  1  0
  9 19  1  0
 10 20  1  0
 11 21  1  0
 11 22  1  0
 11 23  1  0
M  END
>  <Ligand ID>  (1) 
LIG0002044

>  <Ligand>  (1) 
Allyl p-tolyl ether

>  <SMILES>  (1) 
C=CCOc1ccc(cc1)C

>  <CID>  (1) 
262070.0

>  <ChEMBL ID>  (1) 
nan

>  <InChiKey>  (1) 
AROCNZZBLCAOPH-UHFFFAOYSA-N

>  <InChi>  (1) 
InChI=1S/C10H12O/c1-3-8-11-10-6-4-9(2)5-7-10/h3-7H,1,8H2,2H3

>  <IUPAC Name>  (1) 
1-methyl-4-prop-2-enoxybenzene

$$$$
