
     RDKit          3D

 32 34  0  0  0  0  0  0  0  0999 V2000
    4.2626    0.1603    0.4795 C   0  0  0  0  0  0  0  0  0  0  0  0
    3.2733    0.1673    1.6100 C   0  0  0  0  0  0  0  0  0  0  0  0
    1.9914    0.3098    0.9594 N   0  0  0  0  0  0  0  0  0  0  0  0
    2.1071    0.6692   -0.2732 C   0  0  0  0  0  0  0  0  0  0  0  0
    3.5038    0.8059   -0.5774 N   0  0  0  0  0  0  0  0  0  0  0  0
    1.0597    0.9352   -1.2931 C   0  0  0  0  0  0  0  0  0  0  0  0
   -0.2204    0.6789   -0.8168 O   0  0  0  0  0  0  0  0  0  0  0  0
   -0.6937   -0.5399   -0.3751 C   0  0  0  0  0  0  0  0  0  0  0  0
    0.0440   -1.7003   -0.3489 C   0  0  0  0  0  0  0  0  0  0  0  0
   -0.5122   -2.8946    0.1138 C   0  0  0  0  0  0  0  0  0  0  0  0
   -1.8246   -2.9125    0.5524 C   0  0  0  0  0  0  0  0  0  0  0  0
   -2.5879   -1.7572    0.5356 C   0  0  0  0  0  0  0  0  0  0  0  0
   -2.0180   -0.5890    0.0746 C   0  0  0  0  0  0  0  0  0  0  0  0
   -2.8240    0.6730    0.0471 C   0  0  0  0  0  0  0  0  0  0  0  0
   -4.1133    0.6192   -0.4377 C   0  0  0  0  0  0  0  0  0  0  0  0
   -4.7150    2.3621   -0.2879 S   0  0  0  0  0  0  0  0  0  0  0  0
   -3.1452    2.9552    0.4144 C   0  0  0  0  0  0  0  0  0  0  0  0
   -2.3453    1.8393    0.4708 C   0  0  0  0  0  0  0  0  0  0  0  0
    5.2047    0.6926    0.6886 H   0  0  0  0  0  0  0  0  0  0  0  0
    4.3975   -0.8941    0.1670 H   0  0  0  0  0  0  0  0  0  0  0  0
    3.2530   -0.7982    2.1710 H   0  0  0  0  0  0  0  0  0  0  0  0
    3.4532    0.9653    2.3564 H   0  0  0  0  0  0  0  0  0  0  0  0
    3.9051    1.2936   -1.4261 H   0  0  0  0  0  0  0  0  0  0  0  0
    1.2049    0.3057   -2.2028 H   0  0  0  0  0  0  0  0  0  0  0  0
    1.1131    1.9822   -1.6666 H   0  0  0  0  0  0  0  0  0  0  0  0
    1.0616   -1.7046   -0.6910 H   0  0  0  0  0  0  0  0  0  0  0  0
    0.0337   -3.8160    0.1479 H   0  0  0  0  0  0  0  0  0  0  0  0
   -2.2813   -3.8216    0.9157 H   0  0  0  0  0  0  0  0  0  0  0  0
   -3.6258   -1.7401    0.8752 H   0  0  0  0  0  0  0  0  0  0  0  0
   -4.7030   -0.1595   -0.8197 H   0  0  0  0  0  0  0  0  0  0  0  0
   -2.9498    3.9585    0.6994 H   0  0  0  0  0  0  0  0  0  0  0  0
   -1.3092    1.9543    0.8755 H   0  0  0  0  0  0  0  0  0  0  0  0
  1  2  1  0
  2  3  1  0
  3  4  2  0
  4  5  1  0
  4  6  1  0
  6  7  1  0
  7  8  1  0
  8  9  2  0
  9 10  1  0
 10 11  2  0
 11 12  1  0
 12 13  2  0
 13 14  1  0
 14 15  2  0
 15 16  1  0
 16 17  1  0
 17 18  2  0
  5  1  1  0
 13  8  1  0
 18 14  1  0
  1 19  1  0
  1 20  1  0
  2 21  1  0
  2 22  1  0
  5 23  1  0
  6 24  1  0
  6 25  1  0
  9 26  1  0
 10 27  1  0
 11 28  1  0
 12 29  1  0
 15 30  1  0
 17 31  1  0
 18 32  1  0
M  END
>  <Ligand ID>  (1) 
LIG0003199

>  <Ligand>  (1) 
CHEMBL422477

>  <SMILES>  (1) 
C1CN=C(N1)COc1ccccc1c1cscc1

>  <CID>  (1) 
44362146.0

>  <ChEMBL ID>  (1) 
nan

>  <InChiKey>  (1) 
IVWFVGKPGDSCOS-UHFFFAOYSA-N

>  <InChi>  (1) 
InChI=1S/C14H14N2OS/c1-2-4-13(17-9-14-15-6-7-16-14)12(3-1)11-5-8-18-10-11/h1-5,8,10H,6-7,9H2,(H,15,16)

>  <IUPAC Name>  (1) 
2-[(2-thiophen-3-ylphenoxy)methyl]-4,5-dihydro-1H-imidazole

$$$$
