
     RDKit          3D

 44 47  0  0  0  0  0  0  0  0999 V2000
    5.9176   -0.4574   -0.8259 O   0  0  0  0  0  0  0  0  0  0  0  0
    4.5223   -0.4976   -1.0089 C   0  0  0  0  0  0  0  0  0  0  0  0
    3.9166    0.4767   -0.0442 C   0  0  0  0  0  0  0  0  0  0  0  0
    2.4713    0.5459   -0.1171 N   0  0  0  0  0  0  0  0  0  0  0  0
    1.6275   -0.5780    0.1218 C   0  0  0  0  0  0  0  0  0  0  0  0
    2.1913   -1.6679    0.4073 O   0  0  0  0  0  0  0  0  0  0  0  0
    0.1642   -0.4500    0.0340 C   0  0  0  0  0  0  0  0  0  0  0  0
   -0.5391    0.6581   -0.2612 N   0  0  0  0  0  0  0  0  0  0  0  0
   -1.8230    0.3442   -0.2353 N   0  0  0  0  0  0  0  0  0  0  0  0
   -1.9657   -0.9678    0.0762 C   0  0  0  0  0  0  0  0  0  0  0  0
   -0.6980   -1.5050    0.2554 C   0  0  0  0  0  0  0  0  0  0  0  0
   -0.7740   -2.9344    0.5979 C   0  0  0  0  0  0  0  0  0  0  0  0
   -2.2423   -3.2638    0.4557 C   0  0  2  0  0  0  0  0  0  0  0  0
   -2.9980   -2.0129    0.2886 C   0  0  1  0  0  0  0  0  0  0  0  0
   -3.0859   -2.7008    1.5848 C   0  0  0  0  0  0  0  0  0  0  0  0
   -2.9252    1.2286   -0.4920 C   0  0  0  0  0  0  0  0  0  0  0  0
   -3.7935    1.4534    0.5566 C   0  0  0  0  0  0  0  0  0  0  0  0
   -4.8744    2.2902    0.3857 C   0  0  0  0  0  0  0  0  0  0  0  0
   -5.0721    2.8908   -0.8313 C   0  0  0  0  0  0  0  0  0  0  0  0
   -4.2083    2.6688   -1.8788 C   0  0  0  0  0  0  0  0  0  0  0  0
   -3.1150    1.8278   -1.7207 C   0  0  0  0  0  0  0  0  0  0  0  0
   -2.2466    1.5900   -2.7350 F   0  0  0  0  0  0  0  0  0  0  0  0
    4.3900    0.1620    1.3709 C   0  0  0  0  0  0  0  0  0  0  0  0
    4.4552    1.8545   -0.3810 C   0  0  0  0  0  0  0  0  0  0  0  0
    6.2324    0.3875   -0.4348 H   0  0  0  0  0  0  0  0  0  0  0  0
    4.3682   -0.1314   -2.0457 H   0  0  0  0  0  0  0  0  0  0  0  0
    4.2183   -1.5411   -0.8688 H   0  0  0  0  0  0  0  0  0  0  0  0
    1.9560    1.4453   -0.3547 H   0  0  0  0  0  0  0  0  0  0  0  0
   -0.5045   -3.1137    1.6560 H   0  0  0  0  0  0  0  0  0  0  0  0
   -0.2203   -3.5784   -0.1186 H   0  0  0  0  0  0  0  0  0  0  0  0
   -2.5879   -4.1217   -0.1194 H   0  0  0  0  0  0  0  0  0  0  0  0
   -3.9089   -1.9496   -0.3359 H   0  0  0  0  0  0  0  0  0  0  0  0
   -2.5897   -2.2772    2.4713 H   0  0  0  0  0  0  0  0  0  0  0  0
   -4.0525   -3.1822    1.8432 H   0  0  0  0  0  0  0  0  0  0  0  0
   -3.6219    0.9657    1.5240 H   0  0  0  0  0  0  0  0  0  0  0  0
   -5.5226    2.4338    1.2327 H   0  0  0  0  0  0  0  0  0  0  0  0
   -5.9117    3.5456   -0.9769 H   0  0  0  0  0  0  0  0  0  0  0  0
   -4.3884    3.1556   -2.8282 H   0  0  0  0  0  0  0  0  0  0  0  0
    4.6353    1.1028    1.9132 H   0  0  0  0  0  0  0  0  0  0  0  0
    5.3226   -0.4570    1.3615 H   0  0  0  0  0  0  0  0  0  0  0  0
    3.5803   -0.3849    1.9142 H   0  0  0  0  0  0  0  0  0  0  0  0
    3.6257    2.5785   -0.6158 H   0  0  0  0  0  0  0  0  0  0  0  0
    5.0826    1.8399   -1.2891 H   0  0  0  0  0  0  0  0  0  0  0  0
    4.9921    2.3268    0.4680 H   0  0  0  0  0  0  0  0  0  0  0  0
  1  2  1  0
  2  3  1  0
  3  4  1  0
  4  5  1  0
  5  6  2  0
  5  7  1  0
  7  8  2  0
  8  9  1  0
  9 10  1  0
 10 11  2  0
 11 12  1  0
 12 13  1  0
 13 14  1  0
 14 15  1  0
  9 16  1  0
 16 17  2  0
 17 18  1  0
 18 19  2  0
 19 20  1  0
 20 21  2  0
 21 22  1  0
  3 23  1  0
  3 24  1  0
 11  7  1  0
 15 13  1  0
 21 16  1  0
 14 10  1  0
  1 25  1  0
  2 26  1  0
  2 27  1  0
  4 28  1  0
 12 29  1  0
 12 30  1  0
 13 31  1  6
 14 32  1  6
 15 33  1  0
 15 34  1  0
 17 35  1  0
 18 36  1  0
 19 37  1  0
 20 38  1  0
 23 39  1  0
 23 40  1  0
 23 41  1  0
 24 42  1  0
 24 43  1  0
 24 44  1  0
M  END
>  <Ligand ID>  (1) 
LIG0001496

>  <Ligand>  (1) 
CHEMBL3354968

>  <SMILES>  (1) 
OCC(NC(=O)c1nn(c2c1C[C@@H]1[C@H]2C1)c1ccccc1F)(C)C

>  <CID>  (1) 
118720575.0

>  <ChEMBL ID>  (1) 
nan

>  <InChiKey>  (1) 
LPNSPHDENZJFTM-GHMZBOCLSA-N

>  <InChi>  (1) 
InChI=1S/C18H20FN3O2/c1-18(2,9-23)20-17(24)15-12-8-10-7-11(10)16(12)22(21-15)14-6-4-3-5-13(14)19/h3-6,10-11,23H,7-9H2,1-2H3,(H,20,24)/t10-,11-/m1/s1

>  <IUPAC Name>  (1) 
(2R,4R)-9-(2-fluorophenyl)-N-(1-hydroxy-2-methylpropan-2-yl)-8,9-diazatricyclo[4.3.0.02,4]nona-1(6),7-diene-7-carboxamide

$$$$
