
     RDKit          3D

 33 36  0  0  0  0  0  0  0  0999 V2000
   -3.2295    1.1263   -2.6353 Cl  0  0  0  0  0  0  0  0  0  0  0  0
   -1.8037    0.8478   -1.6181 C   0  0  0  0  0  0  0  0  0  0  0  0
   -0.6368    1.4118   -2.0934 C   0  0  0  0  0  0  0  0  0  0  0  0
    0.5329    1.2950   -1.3942 C   0  0  0  0  0  0  0  0  0  0  0  0
    0.4895    0.5834   -0.1881 C   0  0  0  0  0  0  0  0  0  0  0  0
   -0.6839    0.0194    0.2801 C   0  0  0  0  0  0  0  0  0  0  0  0
   -1.8865    0.1399   -0.4357 C   0  0  0  0  0  0  0  0  0  0  0  0
   -3.1113   -0.4814    0.0430 C   0  0  0  0  0  0  0  0  0  0  0  0
   -4.2615   -0.7722   -0.6454 C   0  0  0  0  0  0  0  0  0  0  0  0
   -5.1737   -1.4236    0.2020 C   0  0  0  0  0  0  0  0  0  0  0  0
   -4.5511   -1.5052    1.3652 N   0  0  0  0  0  0  0  0  0  0  0  0
   -3.3430   -0.9609    1.2985 N   0  0  0  0  0  0  0  0  0  0  0  0
   -0.3330   -0.6853    1.5413 C   0  0  0  0  0  0  0  0  0  0  0  0
    1.1889   -0.8933    1.4496 C   0  0  0  0  0  0  0  0  0  0  0  0
    1.6112    0.3518    0.7339 C   0  0  0  0  0  0  0  0  0  0  0  0
    2.9233    0.2420    0.0556 C   0  0  0  0  0  0  0  0  0  0  0  0
    3.5301   -0.8587   -0.4235 N   0  0  0  0  0  0  0  0  0  0  0  0
    4.7047   -0.4703   -0.9540 C   0  0  0  0  0  0  0  0  0  0  0  0
    4.8207    0.9130   -0.7946 C   0  0  0  0  0  0  0  0  0  0  0  0
    3.7122    1.3333   -0.1699 N   0  0  0  0  0  0  0  0  0  0  0  0
   -0.5985    1.9631   -3.0274 H   0  0  0  0  0  0  0  0  0  0  0  0
    1.4419    1.7374   -1.7683 H   0  0  0  0  0  0  0  0  0  0  0  0
   -4.5351   -0.5930   -1.6722 H   0  0  0  0  0  0  0  0  0  0  0  0
   -6.1657   -1.7788   -0.0452 H   0  0  0  0  0  0  0  0  0  0  0  0
   -2.7292   -0.9311    2.1378 H   0  0  0  0  0  0  0  0  0  0  0  0
   -0.5103   -0.1200    2.4495 H   0  0  0  0  0  0  0  0  0  0  0  0
   -0.7023   -1.7397    1.5371 H   0  0  0  0  0  0  0  0  0  0  0  0
    1.6441   -0.9591    2.4606 H   0  0  0  0  0  0  0  0  0  0  0  0
    1.4300   -1.7651    0.8031 H   0  0  0  0  0  0  0  0  0  0  0  0
    1.6281    1.1943    1.4809 H   0  0  0  0  0  0  0  0  0  0  0  0
    5.4702   -1.0951   -1.4380 H   0  0  0  0  0  0  0  0  0  0  0  0
    5.6284    1.5383   -1.1029 H   0  0  0  0  0  0  0  0  0  0  0  0
    3.4991    2.3361    0.0954 H   0  0  0  0  0  0  0  0  0  0  0  0
  1  2  1  0
  2  3  2  0
  3  4  1  0
  4  5  2  0
  5  6  1  0
  6  7  2  0
  7  8  1  0
  8  9  2  0
  9 10  1  0
 10 11  2  0
 11 12  1  0
  6 13  1  0
 13 14  1  0
 14 15  1  0
 15 16  1  0
 16 17  2  0
 17 18  1  0
 18 19  2  0
 19 20  1  0
  7  2  1  0
 12  8  1  0
 20 16  1  0
 15  5  1  0
  3 21  1  0
  4 22  1  0
  9 23  1  0
 10 24  1  0
 12 25  1  0
 13 26  1  0
 13 27  1  0
 14 28  1  0
 14 29  1  0
 15 30  1  0
 18 31  1  0
 19 32  1  0
 20 33  1  0
M  END
>  <Ligand ID>  (1) 
LIG0001344

>  <Ligand>  (1) 
CHEMBL402003

>  <SMILES>  (1) 
Clc1ccc2c(c1c1ccn[nH]1)CCC2c1ncc[nH]1

>  <CID>  (1) 
44449337.0

>  <ChEMBL ID>  (1) 
nan

>  <InChiKey>  (1) 
QFWHXAUYMHHEEF-UHFFFAOYSA-N

>  <InChi>  (1) 
InChI=1S/C15H13ClN4/c16-12-4-3-9-10(14(12)13-5-6-19-20-13)1-2-11(9)15-17-7-8-18-15/h3-8,11H,1-2H2,(H,17,18)(H,19,20)

>  <IUPAC Name>  (1) 
2-[5-chloro-4-(1H-pyrazol-5-yl)-2,3-dihydro-1H-inden-1-yl]-1H-imidazole

$$$$
