
     RDKit          3D

 30 32  0  0  0  0  0  0  0  0999 V2000
    4.2782    1.4198   -0.7817 O   0  0  0  0  0  0  0  0  0  0  0  0
    3.7883    1.3465    0.5271 C   0  0  0  0  0  0  0  0  0  0  0  0
    2.8138    0.2390    0.5540 C   0  0  0  0  0  0  0  0  0  0  0  0
    3.1929   -1.0686    0.8493 C   0  0  0  0  0  0  0  0  0  0  0  0
    2.2831   -2.1080    0.8754 C   0  0  0  0  0  0  0  0  0  0  0  0
    0.9772   -1.8072    0.5975 C   0  0  0  0  0  0  0  0  0  0  0  0
    0.5882   -0.5023    0.3010 C   0  0  0  0  0  0  0  0  0  0  0  0
    1.5170    0.4972    0.2852 N   0  0  0  0  0  0  0  0  0  0  0  0
   -0.7404   -0.2649    0.0303 C   0  0  0  0  0  0  0  0  0  0  0  0
   -1.0863    1.0042   -0.2525 N   0  0  0  0  0  0  0  0  0  0  0  0
   -2.3693    1.2969   -0.5251 C   0  0  0  0  0  0  0  0  0  0  0  0
   -2.7001    2.7158   -0.8316 C   0  0  0  0  0  0  0  0  0  0  0  0
   -2.5649    2.8624   -2.2023 O   0  0  0  0  0  0  0  0  0  0  0  0
   -3.3673    0.3175   -0.5248 C   0  0  0  0  0  0  0  0  0  0  0  0
   -3.0322   -1.0088   -0.2338 C   0  0  0  0  0  0  0  0  0  0  0  0
   -1.7069   -1.2464    0.0364 C   0  0  0  0  0  0  0  0  0  0  0  0
   -1.2967   -2.5312    0.3330 C   0  0  0  0  0  0  0  0  0  0  0  0
    0.0188   -2.8194    0.6104 C   0  0  0  0  0  0  0  0  0  0  0  0
    3.6878    1.9549   -1.3642 H   0  0  0  0  0  0  0  0  0  0  0  0
    4.6408    1.0842    1.1829 H   0  0  0  0  0  0  0  0  0  0  0  0
    3.3507    2.3187    0.8511 H   0  0  0  0  0  0  0  0  0  0  0  0
    4.2333   -1.2505    1.0606 H   0  0  0  0  0  0  0  0  0  0  0  0
    2.5508   -3.1215    1.0998 H   0  0  0  0  0  0  0  0  0  0  0  0
   -3.7557    2.8952   -0.5098 H   0  0  0  0  0  0  0  0  0  0  0  0
   -1.9759    3.3731   -0.3283 H   0  0  0  0  0  0  0  0  0  0  0  0
   -3.4882    2.7706   -2.5898 H   0  0  0  0  0  0  0  0  0  0  0  0
   -4.3928    0.5937   -0.7500 H   0  0  0  0  0  0  0  0  0  0  0  0
   -3.7942   -1.7729   -0.2307 H   0  0  0  0  0  0  0  0  0  0  0  0
   -2.0080   -3.3667    0.3574 H   0  0  0  0  0  0  0  0  0  0  0  0
    0.3578   -3.8215    0.8450 H   0  0  0  0  0  0  0  0  0  0  0  0
  1  2  1  0
  2  3  1  0
  3  4  2  0
  4  5  1  0
  5  6  2  0
  6  7  1  0
  7  8  2  0
  7  9  1  0
  9 10  2  0
 10 11  1  0
 11 12  1  0
 12 13  1  0
 11 14  2  0
 14 15  1  0
 15 16  2  0
 16 17  1  0
 17 18  2  0
  8  3  1  0
 16  9  1  0
 18  6  1  0
  1 19  1  0
  2 20  1  0
  2 21  1  0
  4 22  1  0
  5 23  1  0
 12 24  1  0
 12 25  1  0
 13 26  1  0
 14 27  1  0
 15 28  1  0
 17 29  1  0
 18 30  1  0
M  END
>  <Ligand ID>  (1) 
LIG0002803

>  <Ligand>  (1) 
78831-36-4

>  <SMILES>  (1) 
OCc1ccc2c(n1)c1nc(CO)ccc1cc2

>  <CID>  (1) 
336912.0

>  <ChEMBL ID>  (1) 
nan

>  <InChiKey>  (1) 
IEPOQNOTFLXUPQ-UHFFFAOYSA-N

>  <InChi>  (1) 
InChI=1S/C14H12N2O2/c17-7-11-5-3-9-1-2-10-4-6-12(8-18)16-14(10)13(9)15-11/h1-6,17-18H,7-8H2

>  <IUPAC Name>  (1) 
[9-(hydroxymethyl)-1,10-phenanthrolin-2-yl]methanol

$$$$
