
     RDKit          3D

 76 80  0  0  0  0  0  0  0  0999 V2000
    4.3483   -1.7531   -1.0317 O   0  0  0  0  0  0  0  0  0  0  0  0
    5.4140   -2.1092   -0.2286 C   0  0  0  0  0  0  0  0  0  0  0  0
    5.9068   -1.0130    0.6127 C   0  0  0  0  0  0  0  0  0  0  0  0
    5.0645   -0.3748    1.6359 C   0  0  0  0  0  0  0  0  0  0  0  0
    3.9098    0.2409    1.4313 O   0  0  0  0  0  0  0  0  0  0  0  0
    2.6570    0.0121    1.0440 C   0  0  0  0  0  0  0  0  0  0  0  0
    1.8143    1.1081    1.0011 N   0  0  0  0  0  0  0  0  0  0  0  0
    0.5439    1.0437    0.6427 C   0  0  0  0  0  0  0  0  0  0  0  0
   -0.2514    2.2165    0.6258 N   0  0  0  0  0  0  0  0  0  0  0  0
    0.3529    3.4837    1.0073 C   0  0  0  0  0  0  0  0  0  0  0  0
   -0.6084    4.6158    0.9375 C   0  0  0  0  0  0  0  0  0  0  0  0
   -1.3943    5.0038    2.0033 C   0  0  0  0  0  0  0  0  0  0  0  0
   -2.2787    6.0612    1.9016 C   0  0  0  0  0  0  0  0  0  0  0  0
   -2.4008    6.7642    0.7198 C   0  0  0  0  0  0  0  0  0  0  0  0
   -1.6208    6.3779   -0.3356 C   0  0  0  0  0  0  0  0  0  0  0  0
   -0.7338    5.3281   -0.2559 C   0  0  0  0  0  0  0  0  0  0  0  0
   -1.7129    7.1048   -1.6403 C   0  0  0  0  0  0  0  0  0  0  0  0
   -2.8548    7.8631   -1.6582 F   0  0  0  0  0  0  0  0  0  0  0  0
   -0.5663    7.8669   -1.7451 F   0  0  0  0  0  0  0  0  0  0  0  0
   -1.7066    6.1379   -2.6212 F   0  0  0  0  0  0  0  0  0  0  0  0
    0.0007   -0.1633    0.2877 C   0  0  0  0  0  0  0  0  0  0  0  0
    0.8074   -1.2789    0.3174 C   0  0  0  0  0  0  0  0  0  0  0  0
    2.0662   -1.1363    0.6860 N   0  0  0  0  0  0  0  0  0  0  0  0
    0.3423   -2.5479   -0.0268 C   0  0  0  0  0  0  0  0  0  0  0  0
   -0.9925   -2.6736   -0.4131 C   0  0  0  0  0  0  0  0  0  0  0  0
   -1.8333   -1.5650   -0.4532 C   0  0  0  0  0  0  0  0  0  0  0  0
   -1.3090   -0.3357   -0.0997 C   0  0  0  0  0  0  0  0  0  0  0  0
   -3.2747   -1.7146   -0.8710 C   0  0  0  0  0  0  0  0  0  0  0  0
   -4.0705   -1.9585    0.3576 C   0  0  0  0  0  0  0  0  0  0  0  0
   -3.8348   -3.0009    1.2269 C   0  0  0  0  0  0  0  0  0  0  0  0
   -4.5892   -3.2226    2.3595 C   0  0  0  0  0  0  0  0  0  0  0  0
   -5.6388   -2.3636    2.6514 C   0  0  0  0  0  0  0  0  0  0  0  0
   -5.9053   -1.3098    1.8065 C   0  0  0  0  0  0  0  0  0  0  0  0
   -5.1345   -1.1091    0.6775 C   0  0  0  0  0  0  0  0  0  0  0  0
   -6.6078   -2.6450    4.1027 Cl  0  0  0  0  0  0  0  0  0  0  0  0
   -3.5143   -2.6935   -1.9099 C   0  0  0  0  0  0  0  0  0  0  0  0
   -4.0562   -3.9481   -1.7622 C   0  0  0  0  0  0  0  0  0  0  0  0
   -4.2433   -4.8227   -2.8119 C   0  0  0  0  0  0  0  0  0  0  0  0
   -3.8886   -4.4790   -4.0995 C   0  0  0  0  0  0  0  0  0  0  0  0
   -3.3413   -3.2218   -4.2745 C   0  0  0  0  0  0  0  0  0  0  0  0
   -3.1551   -2.3487   -3.2230 C   0  0  0  0  0  0  0  0  0  0  0  0
   -4.1102   -5.5526   -5.4378 Cl  0  0  0  0  0  0  0  0  0  0  0  0
    7.1675   -1.5431    1.3574 C   0  0  0  0  0  0  0  0  0  0  0  0
    8.1311   -1.9212    0.4470 O   0  0  0  0  0  0  0  0  0  0  0  0
    6.5286    0.0583   -0.3310 C   0  0  0  0  0  0  0  0  0  0  0  0
    7.0112    1.1224    0.4332 O   0  0  0  0  0  0  0  0  0  0  0  0
    4.6691   -1.2373   -1.8197 H   0  0  0  0  0  0  0  0  0  0  0  0
    6.2397   -2.3923   -0.9559 H   0  0  0  0  0  0  0  0  0  0  0  0
    5.2095   -3.0562    0.3319 H   0  0  0  0  0  0  0  0  0  0  0  0
    4.9461   -1.1648    2.4919 H   0  0  0  0  0  0  0  0  0  0  0  0
    5.7675    0.4040    2.1501 H   0  0  0  0  0  0  0  0  0  0  0  0
   -1.2540    2.2577    0.3590 H   0  0  0  0  0  0  0  0  0  0  0  0
    0.7051    3.4588    2.0681 H   0  0  0  0  0  0  0  0  0  0  0  0
    1.2198    3.6992    0.3688 H   0  0  0  0  0  0  0  0  0  0  0  0
   -1.3163    4.4678    2.9409 H   0  0  0  0  0  0  0  0  0  0  0  0
   -2.8883    6.3606    2.7316 H   0  0  0  0  0  0  0  0  0  0  0  0
   -3.0674    7.5858    0.5914 H   0  0  0  0  0  0  0  0  0  0  0  0
   -0.1371    5.0623   -1.1255 H   0  0  0  0  0  0  0  0  0  0  0  0
    1.0080   -3.4107    0.0076 H   0  0  0  0  0  0  0  0  0  0  0  0
   -1.3666   -3.6601   -0.6845 H   0  0  0  0  0  0  0  0  0  0  0  0
   -1.9736    0.5015   -0.1382 H   0  0  0  0  0  0  0  0  0  0  0  0
   -3.5380   -0.7042   -1.2702 H   0  0  0  0  0  0  0  0  0  0  0  0
   -3.0233   -3.6909    1.0478 H   0  0  0  0  0  0  0  0  0  0  0  0
   -4.3857   -4.0492    3.0285 H   0  0  0  0  0  0  0  0  0  0  0  0
   -6.7337   -0.6687    2.0780 H   0  0  0  0  0  0  0  0  0  0  0  0
   -5.3950   -0.2637    0.0545 H   0  0  0  0  0  0  0  0  0  0  0  0
   -4.3645   -4.2889   -0.7885 H   0  0  0  0  0  0  0  0  0  0  0  0
   -4.6803   -5.8164   -2.6475 H   0  0  0  0  0  0  0  0  0  0  0  0
   -3.0389   -2.8894   -5.2752 H   0  0  0  0  0  0  0  0  0  0  0  0
   -2.7169   -1.3664   -3.4227 H   0  0  0  0  0  0  0  0  0  0  0  0
    6.9141   -2.3691    2.0273 H   0  0  0  0  0  0  0  0  0  0  0  0
    7.5592   -0.6489    1.8976 H   0  0  0  0  0  0  0  0  0  0  0  0
    8.0753   -2.8550    0.1450 H   0  0  0  0  0  0  0  0  0  0  0  0
    5.7562    0.4673   -1.0088 H   0  0  0  0  0  0  0  0  0  0  0  0
    7.3935   -0.3889   -0.8569 H   0  0  0  0  0  0  0  0  0  0  0  0
    7.9781    1.0524    0.6299 H   0  0  0  0  0  0  0  0  0  0  0  0
  1  2  1  0
  2  3  1  0
  3  4  1  0
  4  5  1  0
  5  6  1  0
  6  7  2  0
  7  8  1  0
  8  9  1  0
  9 10  1  0
 10 11  1  0
 11 12  2  0
 12 13  1  0
 13 14  2  0
 14 15  1  0
 15 16  2  0
 15 17  1  0
 17 18  1  0
 17 19  1  0
 17 20  1  0
  8 21  2  0
 21 22  1  0
 22 23  2  0
 22 24  1  0
 24 25  2  0
 25 26  1  0
 26 27  2  0
 26 28  1  0
 28 29  1  0
 29 30  2  0
 30 31  1  0
 31 32  2  0
 32 33  1  0
 33 34  2  0
 32 35  1  0
 28 36  1  0
 36 37  2  0
 37 38  1  0
 38 39  2  0
 39 40  1  0
 40 41  2  0
 39 42  1  0
  3 43  1  0
 43 44  1  0
  3 45  1  0
 45 46  1  0
 23  6  1  0
 34 29  1  0
 41 36  1  0
 16 11  1  0
 27 21  1  0
  1 47  1  0
  2 48  1  0
  2 49  1  0
  4 50  1  0
  4 51  1  0
  9 52  1  0
 10 53  1  0
 10 54  1  0
 12 55  1  0
 13 56  1  0
 14 57  1  0
 16 58  1  0
 24 59  1  0
 25 60  1  0
 27 61  1  0
 28 62  1  0
 30 63  1  0
 31 64  1  0
 33 65  1  0
 34 66  1  0
 37 67  1  0
 38 68  1  0
 40 69  1  0
 41 70  1  0
 43 71  1  0
 43 72  1  0
 44 73  1  0
 45 74  1  0
 45 75  1  0
 46 76  1  0
M  END
>  <Ligand ID>  (1) 
LIG0005806

>  <Ligand>  (1) 
SCHEMBL17557611

>  <SMILES>  (1) 
OCC(COc1nc(NCc2cccc(c2)C(F)(F)F)c2c(n1)ccc(c2)C(c1ccc(cc1)Cl)c1ccc(cc1)Cl)(CO)CO

>  <CID>  (1) 
118916096.0

>  <ChEMBL ID>  (1) 
nan

>  <InChiKey>  (1) 
ONTYEGURWWIAAP-UHFFFAOYSA-N

>  <InChi>  (1) 
InChI=1S/C34H30Cl2F3N3O4/c35-26-9-4-22(5-10-26)30(23-6-11-27(36)12-7-23)24-8-13-29-28(15-24)31(40-16-21-2-1-3-25(14-21)34(37,38)39)42-32(41-29)46-20-33(17-43,18-44)19-45/h1-15,30,43-45H,16-20H2,(H,40,41,42)

>  <IUPAC Name>  (1) 
2-[[6-[bis(4-chlorophenyl)methyl]-4-[[3-(trifluoromethyl)phenyl]methylamino]quinazolin-2-yl]oxymethyl]-2-(hydroxymethyl)propane-1,3-diol

$$$$
