
     RDKit          3D

 27 27  0  0  0  0  0  0  0  0999 V2000
   -1.0735    1.1713    0.7419 O   0  0  0  0  0  0  0  0  0  0  0  0
   -1.5999    0.3237   -0.0483 C   0  0  0  0  0  0  0  0  0  0  0  0
   -3.0402    0.2814   -0.3228 C   0  0  0  0  0  0  0  0  0  0  0  0
   -3.6853   -1.0149    0.0465 C   0  0  0  0  0  0  0  0  0  0  0  0
   -3.6882    1.4825    0.3332 C   0  0  0  0  0  0  0  0  0  0  0  0
   -0.7172   -0.5700   -0.6424 O   0  0  0  0  0  0  0  0  0  0  0  0
    0.6328   -0.4722   -0.3369 C   0  0  0  0  0  0  0  0  0  0  0  0
    1.3930    0.3522   -1.1424 C   0  0  0  0  0  0  0  0  0  0  0  0
    2.7570    0.4892   -0.8823 C   0  0  0  0  0  0  0  0  0  0  0  0
    3.3176   -0.2101    0.1848 C   0  0  0  0  0  0  0  0  0  0  0  0
    2.5504   -1.0390    0.9938 C   0  0  0  0  0  0  0  0  0  0  0  0
    1.1985   -1.1725    0.7331 C   0  0  0  0  0  0  0  0  0  0  0  0
    4.7727   -0.0580    0.4547 C   0  0  0  0  0  0  0  0  0  0  0  0
   -3.2215    0.4130   -1.4298 H   0  0  0  0  0  0  0  0  0  0  0  0
   -3.9132   -1.1108    1.1267 H   0  0  0  0  0  0  0  0  0  0  0  0
   -2.9807   -1.8216   -0.2876 H   0  0  0  0  0  0  0  0  0  0  0  0
   -4.6250   -1.1402   -0.5032 H   0  0  0  0  0  0  0  0  0  0  0  0
   -3.5347    1.5077    1.4240 H   0  0  0  0  0  0  0  0  0  0  0  0
   -4.7476    1.6132    0.0765 H   0  0  0  0  0  0  0  0  0  0  0  0
   -3.1489    2.3798   -0.0775 H   0  0  0  0  0  0  0  0  0  0  0  0
    0.9819    0.9066   -1.9778 H   0  0  0  0  0  0  0  0  0  0  0  0
    3.3381    1.1373   -1.5209 H   0  0  0  0  0  0  0  0  0  0  0  0
    2.9979   -1.5882    1.8341 H   0  0  0  0  0  0  0  0  0  0  0  0
    0.5845   -1.8136    1.3523 H   0  0  0  0  0  0  0  0  0  0  0  0
    5.4181   -0.4728   -0.3269 H   0  0  0  0  0  0  0  0  0  0  0  0
    5.0040    1.0107    0.6306 H   0  0  0  0  0  0  0  0  0  0  0  0
    5.0294   -0.5847    1.3908 H   0  0  0  0  0  0  0  0  0  0  0  0
  1  2  2  0
  2  3  1  0
  3  4  1  0
  3  5  1  0
  2  6  1  0
  6  7  1  0
  7  8  2  0
  8  9  1  0
  9 10  2  0
 10 11  1  0
 11 12  2  0
 10 13  1  0
 12  7  1  0
  3 14  1  0
  4 15  1  0
  4 16  1  0
  4 17  1  0
  5 18  1  0
  5 19  1  0
  5 20  1  0
  8 21  1  0
  9 22  1  0
 11 23  1  0
 12 24  1  0
 13 25  1  0
 13 26  1  0
 13 27  1  0
M  END
>  <Ligand ID>  (1) 
LIG0000194

>  <Ligand>  (1) 
p-Tolyl isobutyrate

>  <SMILES>  (1) 
O=C(C(C)C)Oc1ccc(cc1)C

>  <CID>  (1) 
7685.0

>  <ChEMBL ID>  (1) 
nan

>  <InChiKey>  (1) 
UPPSFGGDKACIKP-UHFFFAOYSA-N

>  <InChi>  (1) 
InChI=1S/C11H14O2/c1-8(2)11(12)13-10-6-4-9(3)5-7-10/h4-8H,1-3H3

>  <IUPAC Name>  (1) 
(4-methylphenyl) 2-methylpropanoate

$$$$
