
     RDKit          3D

 25 27  0  0  0  0  0  0  0  0999 V2000
   -2.6534    0.3753   -0.7518 N   0  0  0  0  0  0  0  0  0  0  0  0
   -2.0211    0.1849    0.5451 C   0  0  2  0  0  0  0  0  0  0  0  0
   -1.0736    1.2833    0.8903 C   0  0  0  0  0  0  0  0  0  0  0  0
    0.2778    1.0313    0.3529 C   0  0  0  0  0  0  0  0  0  0  0  0
    1.2158    2.0409    0.1828 C   0  0  0  0  0  0  0  0  0  0  0  0
    2.4760    1.7198   -0.3330 C   0  0  0  0  0  0  0  0  0  0  0  0
    2.7996    0.4116   -0.6754 C   0  0  0  0  0  0  0  0  0  0  0  0
    1.8628   -0.5782   -0.5023 C   0  0  0  0  0  0  0  0  0  0  0  0
    0.6461   -0.2393    0.0007 C   0  0  0  0  0  0  0  0  0  0  0  0
   -0.1405   -1.3169    0.1037 N   0  0  0  0  0  0  0  0  0  0  0  0
   -1.4828   -1.2019    0.6143 C   0  0  0  0  0  0  0  0  0  0  0  0
    0.5812   -2.3622   -0.3392 C   0  0  0  0  0  0  0  0  0  0  0  0
    0.1826   -3.5640   -0.3992 O   0  0  0  0  0  0  0  0  0  0  0  0
    1.8179   -1.9180   -0.7153 N   0  0  0  0  0  0  0  0  0  0  0  0
   -3.6769    0.4833   -0.7054 H   0  0  0  0  0  0  0  0  0  0  0  0
   -2.2827   -0.2312   -1.4954 H   0  0  0  0  0  0  0  0  0  0  0  0
   -2.8632    0.2564    1.2948 H   0  0  0  0  0  0  0  0  0  0  0  0
   -1.0750    1.5524    1.9635 H   0  0  0  0  0  0  0  0  0  0  0  0
   -1.4438    2.2028    0.3568 H   0  0  0  0  0  0  0  0  0  0  0  0
    0.9586    3.0673    0.4527 H   0  0  0  0  0  0  0  0  0  0  0  0
    3.2029    2.5212   -0.4616 H   0  0  0  0  0  0  0  0  0  0  0  0
    3.7756    0.1489   -1.0773 H   0  0  0  0  0  0  0  0  0  0  0  0
   -1.4978   -1.5167    1.6958 H   0  0  0  0  0  0  0  0  0  0  0  0
   -2.1979   -1.8703    0.1045 H   0  0  0  0  0  0  0  0  0  0  0  0
    2.6118   -2.4809   -1.1021 H   0  0  0  0  0  0  0  0  0  0  0  0
  1  2  1  0
  2  3  1  0
  3  4  1  0
  4  5  2  0
  5  6  1  0
  6  7  2  0
  7  8  1  0
  8  9  2  0
  9 10  1  0
 10 11  1  0
 10 12  1  0
 12 13  2  0
 12 14  1  0
 11  2  1  0
  9  4  1  0
 14  8  1  0
  1 15  1  0
  1 16  1  0
  2 17  1  1
  3 18  1  0
  3 19  1  0
  5 20  1  0
  6 21  1  0
  7 22  1  0
 11 23  1  0
 11 24  1  0
 14 25  1  0
M  END
>  <Ligand ID>  (1) 
LIG0005723

>  <Ligand>  (1) 
CHEMBL3799271

>  <SMILES>  (1) 
N[C@@H]1Cc2cccc3c2n(C1)c(=O)[nH]3

>  <CID>  (1) 
15937765.0

>  <ChEMBL ID>  (1) 
nan

>  <InChiKey>  (1) 
WZANXVXLOKIMAM-SSDOTTSWSA-N

>  <InChi>  (1) 
InChI=1S/C10H11N3O/c11-7-4-6-2-1-3-8-9(6)13(5-7)10(14)12-8/h1-3,7H,4-5,11H2,(H,12,14)/t7-/m1/s1

>  <IUPAC Name>  (1) 
(10R)-10-amino-1,3-diazatricyclo[6.3.1.04,12]dodeca-4,6,8(12)-trien-2-one

$$$$
