
     RDKit          3D

 62 64  0  0  0  0  0  0  0  0999 V2000
    7.1459   -2.3692    1.3367 C   0  0  0  0  0  0  0  0  0  0  0  0
    6.9003   -1.3092    0.2892 C   0  0  1  0  0  0  0  0  0  0  0  0
    5.5374   -0.7400    0.4551 C   0  0  0  0  0  0  0  0  0  0  0  0
    5.3014    0.3402    1.2500 N   0  0  0  0  0  0  0  0  0  0  0  0
    3.9852    0.6082    1.1904 C   0  0  0  0  0  0  0  0  0  0  0  0
    3.3811   -0.3070    0.3527 C   0  0  0  0  0  0  0  0  0  0  0  0
    4.3703   -1.1079   -0.0704 N   0  0  0  0  0  0  0  0  0  0  0  0
    1.9570   -0.3313    0.0429 C   0  0  0  0  0  0  0  0  0  0  0  0
    1.0760    0.5832    0.5767 C   0  0  0  0  0  0  0  0  0  0  0  0
   -0.2736    0.5435    0.2700 C   0  0  0  0  0  0  0  0  0  0  0  0
   -0.8189   -0.3951   -0.5729 C   0  0  0  0  0  0  0  0  0  0  0  0
    0.1026   -1.3188   -1.1062 C   0  0  0  0  0  0  0  0  0  0  0  0
    1.4332   -1.2815   -0.8058 C   0  0  0  0  0  0  0  0  0  0  0  0
   -2.1005   -0.5388   -0.9419 O   0  0  0  0  0  0  0  0  0  0  0  0
   -3.2748    0.1352   -0.6183 C   0  0  0  0  0  0  0  0  0  0  0  0
   -3.5765   -0.0351    0.8374 C   0  0  0  0  0  0  0  0  0  0  0  0
   -4.7468    0.7175    1.2995 C   0  0  0  0  0  0  0  0  0  0  0  0
   -6.1074    0.5267    0.8204 C   0  0  0  0  0  0  0  0  0  0  0  0
   -6.5066    0.7714   -0.5777 C   0  0  0  0  0  0  0  0  0  0  0  0
   -8.0189    0.5231   -0.7055 C   0  0  0  0  0  0  0  0  0  0  0  0
   -8.4691   -0.7471   -1.0257 C   0  0  0  0  0  0  0  0  0  0  0  0
   -9.8433   -0.9226   -1.1299 C   0  0  0  0  0  0  0  0  0  0  0  0
  -10.7203    0.1252   -0.9228 C   0  0  0  0  0  0  0  0  0  0  0  0
  -10.2531    1.3784   -0.6058 C   0  0  0  0  0  0  0  0  0  0  0  0
   -8.8897    1.5757   -0.4970 C   0  0  0  0  0  0  0  0  0  0  0  0
    7.9317   -0.2146    0.4615 C   0  0  0  0  0  0  0  0  0  0  0  0
    7.7200    0.7823   -0.4778 O   0  0  0  0  0  0  0  0  0  0  0  0
    8.8587    2.0339   -0.3200 P   0  0  0  0  0  0  0  0  0  0  0  0
    8.8324    2.9119   -1.5366 O   0  0  0  0  0  0  0  0  0  0  0  0
   10.3703    1.3351   -0.1046 O   0  0  0  0  0  0  0  0  0  0  0  0
    8.5408    2.9916    1.0308 O   0  0  0  0  0  0  0  0  0  0  0  0
    6.9703   -1.9069   -1.0278 N   0  0  0  0  0  0  0  0  0  0  0  0
    6.8604   -1.9525    2.3287 H   0  0  0  0  0  0  0  0  0  0  0  0
    8.2069   -2.6207    1.3393 H   0  0  0  0  0  0  0  0  0  0  0  0
    6.5535   -3.2875    1.1344 H   0  0  0  0  0  0  0  0  0  0  0  0
    3.5029    1.4231    1.7279 H   0  0  0  0  0  0  0  0  0  0  0  0
    4.2259   -1.8963   -0.7151 H   0  0  0  0  0  0  0  0  0  0  0  0
    1.4852    1.3364    1.2482 H   0  0  0  0  0  0  0  0  0  0  0  0
   -0.8846    1.2982    0.7093 H   0  0  0  0  0  0  0  0  0  0  0  0
   -0.2391   -2.0947   -1.7817 H   0  0  0  0  0  0  0  0  0  0  0  0
    2.0979   -2.0101   -1.2392 H   0  0  0  0  0  0  0  0  0  0  0  0
   -3.3035    1.1724   -0.9596 H   0  0  0  0  0  0  0  0  0  0  0  0
   -4.0543   -0.3967   -1.2556 H   0  0  0  0  0  0  0  0  0  0  0  0
   -2.6948    0.1934    1.5094 H   0  0  0  0  0  0  0  0  0  0  0  0
   -3.6966   -1.1611    1.0583 H   0  0  0  0  0  0  0  0  0  0  0  0
   -4.5380    1.8554    1.2457 H   0  0  0  0  0  0  0  0  0  0  0  0
   -4.8053    0.6088    2.4503 H   0  0  0  0  0  0  0  0  0  0  0  0
   -6.7677    1.2249    1.4560 H   0  0  0  0  0  0  0  0  0  0  0  0
   -6.5275   -0.4885    1.1877 H   0  0  0  0  0  0  0  0  0  0  0  0
   -6.1083    0.1568   -1.3698 H   0  0  0  0  0  0  0  0  0  0  0  0
   -6.3237    1.8282   -0.8596 H   0  0  0  0  0  0  0  0  0  0  0  0
   -7.7811   -1.5822   -1.1913 H   0  0  0  0  0  0  0  0  0  0  0  0
  -10.2186   -1.8953   -1.3766 H   0  0  0  0  0  0  0  0  0  0  0  0
  -11.8039   -0.0095   -1.0041 H   0  0  0  0  0  0  0  0  0  0  0  0
  -10.8938    2.2339   -0.4333 H   0  0  0  0  0  0  0  0  0  0  0  0
   -8.4845    2.5473   -0.2492 H   0  0  0  0  0  0  0  0  0  0  0  0
    8.9393   -0.6471    0.2857 H   0  0  0  0  0  0  0  0  0  0  0  0
    7.8693    0.1867    1.4717 H   0  0  0  0  0  0  0  0  0  0  0  0
   10.5233    0.5814   -0.7006 H   0  0  0  0  0  0  0  0  0  0  0  0
    8.0740    3.8330    0.7526 H   0  0  0  0  0  0  0  0  0  0  0  0
    7.8573   -2.3944   -1.2234 H   0  0  0  0  0  0  0  0  0  0  0  0
    6.1138   -2.4012   -1.2941 H   0  0  0  0  0  0  0  0  0  0  0  0
  1  2  1  0
  2  3  1  0
  3  4  2  0
  4  5  1  0
  5  6  2  0
  6  7  1  0
  6  8  1  0
  8  9  2  0
  9 10  1  0
 10 11  2  0
 11 12  1  0
 12 13  2  0
 11 14  1  0
 14 15  1  0
 15 16  1  0
 16 17  1  0
 17 18  1  0
 18 19  1  0
 19 20  1  0
 20 21  2  0
 21 22  1  0
 22 23  2  0
 23 24  1  0
 24 25  2  0
  2 26  1  0
 26 27  1  0
 27 28  1  0
 28 29  2  0
 28 30  1  0
 28 31  1  0
  2 32  1  6
  7  3  1  0
 13  8  1  0
 25 20  1  0
  1 33  1  0
  1 34  1  0
  1 35  1  0
  5 36  1  0
  7 37  1  0
  9 38  1  0
 10 39  1  0
 12 40  1  0
 13 41  1  0
 15 42  1  0
 15 43  1  0
 16 44  1  0
 16 45  1  0
 17 46  1  0
 17 47  1  0
 18 48  1  0
 18 49  1  0
 19 50  1  0
 19 51  1  0
 21 52  1  0
 22 53  1  0
 23 54  1  0
 24 55  1  0
 25 56  1  0
 26 57  1  0
 26 58  1  0
 30 59  1  0
 31 60  1  0
 32 61  1  0
 32 62  1  0
M  END
>  <Ligand ID>  (1) 
LIG0005106

>  <Ligand>  (1) 
CHEMBL470511

>  <SMILES>  (1) 
C[C@@](c1ncc([nH]1)c1ccc(cc1)OCCCCCc1ccccc1)(COP(=O)(O)O)N

>  <CID>  (1) 
44565739.0

>  <ChEMBL ID>  (1) 
nan

>  <InChiKey>  (1) 
MJFHVHNIHASYLI-QHCPKHFHSA-N

>  <InChi>  (1) 
InChI=1S/C23H30N3O5P/c1-23(24,17-31-32(27,28)29)22-25-16-21(26-22)19-11-13-20(14-12-19)30-15-7-3-6-10-18-8-4-2-5-9-18/h2,4-5,8-9,11-14,16H,3,6-7,10,15,17,24H2,1H3,(H,25,26)(H2,27,28,29)/t23-/m0/s1

>  <IUPAC Name>  (1) 
[(2R)-2-amino-2-[5-[4-(5-phenylpentoxy)phenyl]-1H-imidazol-2-yl]propyl] dihydrogen phosphate

$$$$
