
     RDKit          3D

 46 47  0  0  0  0  0  0  0  0999 V2000
   -2.9941   -2.6376    2.2177 O   0  0  0  0  0  0  0  0  0  0  0  0
   -2.3923   -2.3464    0.9798 C   0  0  2  0  0  0  0  0  0  0  0  0
   -1.4370   -1.1987    1.2234 C   0  0  1  0  0  0  0  0  0  0  0  0
   -0.2236   -1.4282    0.3441 C   0  0  0  0  0  0  0  0  0  0  0  0
    0.6213   -0.3301    0.5143 O   0  0  0  0  0  0  0  0  0  0  0  0
    2.0214   -0.4691   -0.4222 P   0  0  0  0  0  0  0  0  0  0  0  0
    2.1284    0.7032   -1.3456 O   0  0  0  0  0  0  0  0  0  0  0  0
    3.4147   -0.5295    0.5333 O   0  0  0  0  0  0  0  0  0  0  0  0
    4.7508   -0.4949   -0.5017 P   0  0  0  0  0  0  0  0  0  0  0  0
    4.3280   -1.0418   -1.8354 O   0  0  0  0  0  0  0  0  0  0  0  0
    5.2897    1.2233   -0.6632 C   0  0  0  0  0  0  0  0  0  0  0  0
    6.6457    1.5975    0.4773 P   0  0  0  0  0  0  0  0  0  0  0  0
    6.2276    1.3398    1.9166 O   0  0  0  0  0  0  0  0  0  0  0  0
    7.0161    3.2460    0.3213 O   0  0  0  0  0  0  0  0  0  0  0  0
    7.9969    0.7128    0.0445 O   0  0  0  0  0  0  0  0  0  0  0  0
    4.2812    2.1288   -0.4396 F   0  0  0  0  0  0  0  0  0  0  0  0
    5.7719    1.4555   -1.9472 F   0  0  0  0  0  0  0  0  0  0  0  0
    5.9948   -1.4833    0.0757 O   0  0  0  0  0  0  0  0  0  0  0  0
    1.9749   -1.9556   -1.2672 O   0  0  0  0  0  0  0  0  0  0  0  0
   -2.0479   -0.0418    0.8258 O   0  0  0  0  0  0  0  0  0  0  0  0
   -3.4058   -0.2914    0.6818 C   0  0  2  0  0  0  0  0  0  0  0  0
   -3.4012   -1.6735    0.0630 C   0  0  2  0  0  0  0  0  0  0  0  0
   -4.6544   -2.2728    0.1274 O   0  0  0  0  0  0  0  0  0  0  0  0
   -4.0476    0.6816   -0.1689 N   0  0  0  0  0  0  0  0  0  0  0  0
   -4.6840    0.3191   -1.3172 C   0  0  0  0  0  0  0  0  0  0  0  0
   -5.2955    1.2825   -2.1194 C   0  0  0  0  0  0  0  0  0  0  0  0
   -5.2221    2.6027   -1.6934 C   0  0  0  0  0  0  0  0  0  0  0  0
   -5.7516    3.5249   -2.3679 O   0  0  0  0  0  0  0  0  0  0  0  0
   -4.5779    2.9384   -0.5383 N   0  0  0  0  0  0  0  0  0  0  0  0
   -3.9931    1.9690    0.2179 C   0  0  0  0  0  0  0  0  0  0  0  0
   -3.2455    2.4609    1.5820 S   0  0  0  0  0  0  0  0  0  0  0  0
   -2.9201   -1.8641    2.8347 H   0  0  0  0  0  0  0  0  0  0  0  0
   -1.9138   -3.2184    0.5251 H   0  0  0  0  0  0  0  0  0  0  0  0
   -1.0871   -1.1729    2.2784 H   0  0  0  0  0  0  0  0  0  0  0  0
   -0.5797   -1.4047   -0.7272 H   0  0  0  0  0  0  0  0  0  0  0  0
    0.2740   -2.3854    0.5034 H   0  0  0  0  0  0  0  0  0  0  0  0
    6.1966    3.7368    0.0160 H   0  0  0  0  0  0  0  0  0  0  0  0
    7.8404    0.1817   -0.7706 H   0  0  0  0  0  0  0  0  0  0  0  0
    5.9566   -1.4851    1.0651 H   0  0  0  0  0  0  0  0  0  0  0  0
    2.1661   -2.6613   -0.5701 H   0  0  0  0  0  0  0  0  0  0  0  0
   -3.8469   -0.3793    1.6891 H   0  0  0  0  0  0  0  0  0  0  0  0
   -2.9519   -1.6782   -0.9507 H   0  0  0  0  0  0  0  0  0  0  0  0
   -5.1395   -1.9157    0.9097 H   0  0  0  0  0  0  0  0  0  0  0  0
   -4.7213   -0.7189   -1.6181 H   0  0  0  0  0  0  0  0  0  0  0  0
   -5.8101    1.0276   -3.0392 H   0  0  0  0  0  0  0  0  0  0  0  0
   -4.5532    3.9465   -0.2654 H   0  0  0  0  0  0  0  0  0  0  0  0
  1  2  1  0
  2  3  1  0
  3  4  1  0
  4  5  1  0
  5  6  1  0
  6  7  2  0
  6  8  1  0
  8  9  1  0
  9 10  2  0
  9 11  1  0
 11 12  1  0
 12 13  2  0
 12 14  1  0
 12 15  1  0
 11 16  1  0
 11 17  1  0
  9 18  1  0
  6 19  1  0
  3 20  1  0
 20 21  1  0
 21 22  1  0
 22 23  1  0
 21 24  1  0
 24 25  1  0
 25 26  2  0
 26 27  1  0
 27 28  2  0
 27 29  1  0
 29 30  1  0
 30 31  2  0
 22  2  1  0
 30 24  1  0
  1 32  1  0
  2 33  1  6
  3 34  1  1
  4 35  1  0
  4 36  1  0
 14 37  1  0
 15 38  1  0
 18 39  1  0
 19 40  1  0
 21 41  1  1
 22 42  1  6
 23 43  1  0
 25 44  1  0
 26 45  1  0
 29 46  1  0
M  END
>  <Ligand ID>  (1) 
LIG0002841

>  <Ligand>  (1) 
CHEMBL484290

>  <SMILES>  (1) 
O[C@@H]1[C@@H](COP(=O)(OP(=O)(C(P(=O)(O)O)(F)F)O)O)O[C@H]([C@@H]1O)n1ccc(=O)[nH]c1=S

>  <CID>  (1) 
44585986.0

>  <ChEMBL ID>  (1) 
nan

>  <InChiKey>  (1) 
SMBXLASXMSOQPT-XVFCMESISA-N

>  <InChi>  (1) 
InChI=1S/C10H15F2N2O13P3S/c11-10(12,28(18,19)20)29(21,22)27-30(23,24)25-3-4-6(16)7(17)8(26-4)14-2-1-5(15)13-9(14)31/h1-2,4,6-8,16-17H,3H2,(H,21,22)(H,23,24)(H,13,15,31)(H2,18,19,20)/t4-,6-,7-,8-/m1/s1

>  <IUPAC Name>  (1) 
[[[[(2R,3S,4R,5R)-3,4-dihydroxy-5-(4-oxo-2-sulfanylidenepyrimidin-1-yl)oxolan-2-yl]methoxy-hydroxyphosphoryl]oxy-hydroxyphosphoryl]-difluoromethyl]phosphonic acid

$$$$
