
     RDKit          3D

 92 95  0  0  0  0  0  0  0  0999 V2000
    4.3406    6.3610   -1.4538 N   0  0  0  0  0  0  0  0  0  0  0  0
    4.9659    5.4426   -0.5911 C   0  0  0  0  0  0  0  0  0  0  0  0
    4.4348    4.3327   -0.1835 N   0  0  0  0  0  0  0  0  0  0  0  0
    3.0970    3.9973   -0.6419 C   0  0  0  0  0  0  0  0  0  0  0  0
    2.3743    3.1402    0.3581 C   0  0  0  0  0  0  0  0  0  0  0  0
    0.9934    2.7503   -0.0440 C   0  0  0  0  0  0  0  0  0  0  0  0
    0.8670    1.9088   -1.2767 C   0  0  1  0  0  0  0  0  0  0  0  0
    1.5877    0.5974   -1.1600 C   0  0  0  0  0  0  0  0  0  0  0  0
    0.9640   -0.5012   -0.9837 O   0  0  0  0  0  0  0  0  0  0  0  0
    2.9968    0.4822   -1.2372 N   0  0  0  0  0  0  0  0  0  0  0  0
    3.7038   -0.8008   -1.0926 C   0  0  1  0  0  0  0  0  0  0  0  0
    3.4580   -1.4847   -2.4321 C   0  0  0  0  0  0  0  0  0  0  0  0
    2.7640   -0.8873   -3.3228 O   0  0  0  0  0  0  0  0  0  0  0  0
    3.9799   -2.7665   -2.7103 N   0  0  0  0  0  0  0  0  0  0  0  0
    5.1278   -0.5365   -0.8649 C   0  0  0  0  0  0  0  0  0  0  0  0
    6.0120   -1.7102   -0.6622 C   0  0  0  0  0  0  0  0  0  0  0  0
    6.7684   -2.1925   -1.8045 C   0  0  0  0  0  0  0  0  0  0  0  0
    7.6877   -3.5966   -1.2246 S   0  0  0  0  0  0  0  0  0  0  0  0
    7.0399   -3.4841    0.4787 C   0  0  0  0  0  0  0  0  0  0  0  0
    6.1940   -2.4061    0.4588 C   0  0  0  0  0  0  0  0  0  0  0  0
    5.5960   -2.1450    1.7191 C   0  0  0  0  0  0  0  0  0  0  0  0
    5.8805   -2.9338    2.8057 C   0  0  0  0  0  0  0  0  0  0  0  0
    6.7409   -4.0124    2.7793 C   0  0  0  0  0  0  0  0  0  0  0  0
    7.3306   -4.2664    1.5312 C   0  0  0  0  0  0  0  0  0  0  0  0
   -0.5415    1.6369   -1.4363 N   0  0  0  0  0  0  0  0  0  0  0  0
   -1.3563    0.8014   -0.6663 C   0  0  0  0  0  0  0  0  0  0  0  0
   -1.0135    0.1366    0.3340 O   0  0  0  0  0  0  0  0  0  0  0  0
   -2.7968    0.6758   -1.0774 C   0  0  1  0  0  0  0  0  0  0  0  0
   -3.4912   -0.3375   -0.2935 N   0  0  0  0  0  0  0  0  0  0  0  0
   -3.8556   -1.5278   -1.0322 C   0  0  0  0  0  0  0  0  0  0  0  0
   -3.5617   -1.6399   -2.2592 O   0  0  0  0  0  0  0  0  0  0  0  0
   -4.5806   -2.6576   -0.4047 C   0  0  2  0  0  0  0  0  0  0  0  0
   -5.7599   -3.0866   -1.2059 C   0  0  0  0  0  0  0  0  0  0  0  0
   -6.4358   -4.2215   -0.5293 C   0  0  0  0  0  0  0  0  0  0  0  0
   -6.1111   -5.5291   -0.7462 N   0  0  0  0  0  0  0  0  0  0  0  0
   -6.9104   -6.3134   -0.0039 C   0  0  0  0  0  0  0  0  0  0  0  0
   -7.7464   -5.4887    0.6864 N   0  0  0  0  0  0  0  0  0  0  0  0
   -7.4720   -4.2131    0.3789 C   0  0  0  0  0  0  0  0  0  0  0  0
   -4.9639   -2.3975    0.9611 N   0  0  0  0  0  0  0  0  0  0  0  0
   -5.9499   -1.4459    1.2938 C   0  0  0  0  0  0  0  0  0  0  0  0
   -6.5080   -0.8074    0.3681 O   0  0  0  0  0  0  0  0  0  0  0  0
   -6.3836   -1.1379    2.6847 C   0  0  0  0  0  0  0  0  0  0  0  0
   -3.5251    1.9820   -0.9136 C   0  0  0  0  0  0  0  0  0  0  0  0
   -3.5487    2.4888    0.4824 C   0  0  0  0  0  0  0  0  0  0  0  0
   -2.5519    3.3141    0.9946 C   0  0  0  0  0  0  0  0  0  0  0  0
   -2.6142    3.7671    2.2933 C   0  0  0  0  0  0  0  0  0  0  0  0
   -3.6395    3.4417    3.1501 C   0  0  0  0  0  0  0  0  0  0  0  0
   -4.6356    2.6239    2.6583 C   0  0  0  0  0  0  0  0  0  0  0  0
   -4.5723    2.1683    1.3492 C   0  0  0  0  0  0  0  0  0  0  0  0
    6.2969    5.6823   -0.0836 N   0  0  0  0  0  0  0  0  0  0  0  0
    4.1590    7.3717   -1.2288 H   0  0  0  0  0  0  0  0  0  0  0  0
    4.0358    5.9969   -2.3993 H   0  0  0  0  0  0  0  0  0  0  0  0
    2.5590    4.9915   -0.7347 H   0  0  0  0  0  0  0  0  0  0  0  0
    3.1053    3.5962   -1.6597 H   0  0  0  0  0  0  0  0  0  0  0  0
    2.2561    3.7687    1.2926 H   0  0  0  0  0  0  0  0  0  0  0  0
    2.9842    2.2830    0.6870 H   0  0  0  0  0  0  0  0  0  0  0  0
    0.4593    2.3271    0.8022 H   0  0  0  0  0  0  0  0  0  0  0  0
    0.4748    3.7468   -0.2614 H   0  0  0  0  0  0  0  0  0  0  0  0
    1.2611    2.3631   -2.2020 H   0  0  0  0  0  0  0  0  0  0  0  0
    3.5969    1.3105   -1.4103 H   0  0  0  0  0  0  0  0  0  0  0  0
    3.1635   -1.3973   -0.3645 H   0  0  0  0  0  0  0  0  0  0  0  0
    4.3195   -2.9926   -3.6981 H   0  0  0  0  0  0  0  0  0  0  0  0
    4.0374   -3.5002   -1.9606 H   0  0  0  0  0  0  0  0  0  0  0  0
    5.1956    0.1592    0.0311 H   0  0  0  0  0  0  0  0  0  0  0  0
    5.5015    0.1109   -1.6937 H   0  0  0  0  0  0  0  0  0  0  0  0
    6.7484   -1.7445   -2.8242 H   0  0  0  0  0  0  0  0  0  0  0  0
    4.9096   -1.3282    1.8583 H   0  0  0  0  0  0  0  0  0  0  0  0
    5.4031   -2.7001    3.7508 H   0  0  0  0  0  0  0  0  0  0  0  0
    6.9440   -4.6018    3.6471 H   0  0  0  0  0  0  0  0  0  0  0  0
    8.0121   -5.0945    1.4494 H   0  0  0  0  0  0  0  0  0  0  0  0
   -1.0073    2.1434   -2.2455 H   0  0  0  0  0  0  0  0  0  0  0  0
   -2.7968    0.3921   -2.1371 H   0  0  0  0  0  0  0  0  0  0  0  0
   -3.7127   -0.2359    0.7166 H   0  0  0  0  0  0  0  0  0  0  0  0
   -3.8708   -3.5261   -0.3981 H   0  0  0  0  0  0  0  0  0  0  0  0
   -5.4662   -3.4249   -2.2397 H   0  0  0  0  0  0  0  0  0  0  0  0
   -6.5205   -2.3082   -1.3675 H   0  0  0  0  0  0  0  0  0  0  0  0
   -5.3710   -5.9175   -1.3733 H   0  0  0  0  0  0  0  0  0  0  0  0
   -6.9505   -7.3933    0.0870 H   0  0  0  0  0  0  0  0  0  0  0  0
   -7.9962   -3.3641    0.7887 H   0  0  0  0  0  0  0  0  0  0  0  0
   -4.5068   -2.9242    1.7648 H   0  0  0  0  0  0  0  0  0  0  0  0
   -6.2448   -2.0059    3.3823 H   0  0  0  0  0  0  0  0  0  0  0  0
   -5.8425   -0.2226    3.0252 H   0  0  0  0  0  0  0  0  0  0  0  0
   -7.4743   -0.8795    2.7190 H   0  0  0  0  0  0  0  0  0  0  0  0
   -4.5374    1.8756   -1.3338 H   0  0  0  0  0  0  0  0  0  0  0  0
   -2.9829    2.7037   -1.5914 H   0  0  0  0  0  0  0  0  0  0  0  0
   -1.7622    3.5688    0.3267 H   0  0  0  0  0  0  0  0  0  0  0  0
   -1.8359    4.4083    2.6813 H   0  0  0  0  0  0  0  0  0  0  0  0
   -3.6714    3.8098    4.1743 H   0  0  0  0  0  0  0  0  0  0  0  0
   -5.4428    2.3645    3.3286 H   0  0  0  0  0  0  0  0  0  0  0  0
   -5.3519    1.5426    0.9870 H   0  0  0  0  0  0  0  0  0  0  0  0
    6.9844    4.8782    0.0022 H   0  0  0  0  0  0  0  0  0  0  0  0
    6.5580    6.6453    0.1935 H   0  0  0  0  0  0  0  0  0  0  0  0
  1  2  1  0
  2  3  2  3
  3  4  1  0
  4  5  1  0
  5  6  1  0
  6  7  1  0
  7  8  1  0
  8  9  2  0
  8 10  1  0
 10 11  1  0
 11 12  1  0
 12 13  2  0
 12 14  1  0
 11 15  1  0
 15 16  1  0
 16 17  2  0
 17 18  1  0
 18 19  1  0
 19 20  2  0
 20 21  1  0
 21 22  2  0
 22 23  1  0
 23 24  2  0
  7 25  1  0
 25 26  1  0
 26 27  2  0
 26 28  1  0
 28 29  1  0
 29 30  1  0
 30 31  2  0
 30 32  1  0
 32 33  1  0
 33 34  1  0
 34 35  1  0
 35 36  1  0
 36 37  2  0
 37 38  1  0
 32 39  1  0
 39 40  1  0
 40 41  2  0
 40 42  1  0
 28 43  1  0
 43 44  1  0
 44 45  2  0
 45 46  1  0
 46 47  2  0
 47 48  1  0
 48 49  2  0
  2 50  1  0
 20 16  1  0
 38 34  2  0
 49 44  1  0
 24 19  1  0
  1 51  1  0
  1 52  1  0
  4 53  1  0
  4 54  1  0
  5 55  1  0
  5 56  1  0
  6 57  1  0
  6 58  1  0
  7 59  1  6
 10 60  1  0
 11 61  1  1
 14 62  1  0
 14 63  1  0
 15 64  1  0
 15 65  1  0
 17 66  1  0
 21 67  1  0
 22 68  1  0
 23 69  1  0
 24 70  1  0
 25 71  1  0
 28 72  1  6
 29 73  1  0
 32 74  1  1
 33 75  1  0
 33 76  1  0
 35 77  1  0
 36 78  1  0
 38 79  1  0
 39 80  1  0
 42 81  1  0
 42 82  1  0
 42 83  1  0
 43 84  1  0
 43 85  1  0
 45 86  1  0
 46 87  1  0
 47 88  1  0
 48 89  1  0
 49 90  1  0
 50 91  1  0
 50 92  1  0
M  END
>  <Ligand ID>  (1) 
LIG0001416

>  <Ligand>  (1) 
CHEMBL151906

>  <SMILES>  (1) 
NC(=NCCC[C@@H](C(=O)N[C@@H](C(=O)N)Cc1csc2c1cccc2)NC(=O)[C@@H](NC(=O)[C@H](Cc1[nH]cnc1)NC(=O)C)Cc1ccccc1)N

>  <CID>  (1) 
44369165.0

>  <ChEMBL ID>  (1) 
nan

>  <InChiKey>  (1) 
GDPLVOFFSHSVQV-PUHABZHSSA-N

>  <InChi>  (1) 
InChI=1S/C34H42N10O5S/c1-20(45)41-28(16-23-17-38-19-40-23)33(49)44-27(14-21-8-3-2-4-9-21)32(48)42-25(11-7-13-39-34(36)37)31(47)43-26(30(35)46)15-22-18-50-29-12-6-5-10-24(22)29/h2-6,8-10,12,17-19,25-28H,7,11,13-16H2,1H3,(H2,35,46)(H,38,40)(H,41,45)(H,42,48)(H,43,47)(H,44,49)(H4,36,37,39)/t25-,26+,27-,28-/m0/s1

>  <IUPAC Name>  (1) 
(2S)-2-[[(2S)-2-[[(2S)-2-acetamido-3-(1H-imidazol-5-yl)propanoyl]amino]-3-phenylpropanoyl]amino]-N-[(2R)-1-amino-3-(1-benzothiophen-3-yl)-1-oxopropan-2-yl]-5-(diaminomethylideneamino)pentanamide

$$$$
