
     RDKit          3D

172175  0  0  0  0  0  0  0  0999 V2000
  -12.5161   -4.2458    1.5604 C   0  0  0  0  0  0  0  0  0  0  0  0
  -11.3542   -4.9272    1.5344 N   0  0  0  0  0  0  0  0  0  0  0  0
  -10.4337   -5.6378    1.4396 C   0  0  0  0  0  0  0  0  0  0  0  0
   -9.1173   -5.3189    1.8853 N   0  0  0  0  0  0  0  0  0  0  0  0
   -8.7718   -4.4603    2.9433 C   0  0  0  0  0  0  0  0  0  0  0  0
   -9.0407   -2.9991    2.6710 C   0  0  0  0  0  0  0  0  0  0  0  0
   -8.3150   -2.6484    1.4156 C   0  0  0  0  0  0  0  0  0  0  0  0
   -8.2679   -1.2582    0.9798 C   0  0  1  0  0  0  0  0  0  0  0  0
   -9.4433   -0.4602    0.7181 C   0  0  0  0  0  0  0  0  0  0  0  0
   -9.3954    0.7533    1.1889 O   0  0  0  0  0  0  0  0  0  0  0  0
  -10.6185   -0.7733    0.0347 N   0  0  0  0  0  0  0  0  0  0  0  0
  -11.6148    0.2865   -0.0982 C   0  0  2  0  0  0  0  0  0  0  0  0
  -13.0005   -0.1135   -0.0227 C   0  0  0  0  0  0  0  0  0  0  0  0
  -13.8718    0.8485   -0.1259 O   0  0  0  0  0  0  0  0  0  0  0  0
  -13.5527   -1.3873    0.1449 N   0  0  0  0  0  0  0  0  0  0  0  0
  -11.3848    0.9797   -1.4538 C   0  0  0  0  0  0  0  0  0  0  0  0
  -12.3315    2.0866   -1.6730 C   0  0  0  0  0  0  0  0  0  0  0  0
  -13.4362    2.1707   -2.4958 C   0  0  0  0  0  0  0  0  0  0  0  0
  -14.0032    3.3925   -2.3946 N   0  0  0  0  0  0  0  0  0  0  0  0
  -13.2579    4.0744   -1.5087 C   0  0  0  0  0  0  0  0  0  0  0  0
  -12.2211    3.3250   -1.0342 C   0  0  0  0  0  0  0  0  0  0  0  0
  -11.3498    3.8671   -0.1142 C   0  0  0  0  0  0  0  0  0  0  0  0
  -11.4639    5.1492    0.3732 C   0  0  0  0  0  0  0  0  0  0  0  0
  -12.5284    5.9117   -0.1120 C   0  0  0  0  0  0  0  0  0  0  0  0
  -13.3976    5.3821   -1.0287 C   0  0  0  0  0  0  0  0  0  0  0  0
   -7.2205   -0.4740    1.6851 N   0  0  0  0  0  0  0  0  0  0  0  0
   -6.1886    0.1745    0.9848 C   0  0  0  0  0  0  0  0  0  0  0  0
   -6.2235    0.0711   -0.3037 O   0  0  0  0  0  0  0  0  0  0  0  0
   -5.0709    0.9521    1.5090 C   0  0  1  0  0  0  0  0  0  0  0  0
   -4.3305    1.4345    0.3019 N   0  0  0  0  0  0  0  0  0  0  0  0
   -3.1125    0.8818   -0.0734 C   0  0  0  0  0  0  0  0  0  0  0  0
   -2.5886   -0.0217    0.6307 O   0  0  0  0  0  0  0  0  0  0  0  0
   -2.4252    1.3174   -1.2675 N   0  0  0  0  0  0  0  0  0  0  0  0
   -1.1917    0.6503   -1.4771 N   0  0  0  0  0  0  0  0  0  0  0  0
   -1.2574   -0.6381   -2.0787 C   0  0  0  0  0  0  0  0  0  0  0  0
   -2.3854   -1.1017   -2.3989 O   0  0  0  0  0  0  0  0  0  0  0  0
   -0.0090   -1.4329   -2.3274 C   0  0  1  0  0  0  0  0  0  0  0  0
    1.1464   -0.7791   -1.8099 N   0  0  0  0  0  0  0  0  0  0  0  0
    1.2514   -0.5022   -0.4152 C   0  0  0  0  0  0  0  0  0  0  0  0
    0.3197   -0.8622    0.3776 O   0  0  0  0  0  0  0  0  0  0  0  0
    2.3922    0.1999    0.2029 C   0  0  2  0  0  0  0  0  0  0  0  0
    1.9652    1.5888    0.6868 C   0  0  2  0  0  0  0  0  0  0  0  0
    3.0770    2.1683    1.2795 O   0  0  0  0  0  0  0  0  0  0  0  0
    0.9641    1.3795    1.8102 C   0  0  0  0  0  0  0  0  0  0  0  0
    3.4967    0.3272   -0.7314 N   0  0  0  0  0  0  0  0  0  0  0  0
    4.7923    0.2998   -0.1422 C   0  0  0  0  0  0  0  0  0  0  0  0
    4.8003    0.2230    1.1355 O   0  0  0  0  0  0  0  0  0  0  0  0
    6.0763    0.3494   -0.8165 C   0  0  1  0  0  0  0  0  0  0  0  0
    7.0860    0.9895    0.0444 N   0  0  0  0  0  0  0  0  0  0  0  0
    8.4147    1.2442   -0.2759 C   0  0  0  0  0  0  0  0  0  0  0  0
    8.8406    0.8588   -1.4120 O   0  0  0  0  0  0  0  0  0  0  0  0
    9.3596    1.9353    0.6040 C   0  0  2  0  0  0  0  0  0  0  0  0
   10.7135    1.6649    0.1718 N   0  0  0  0  0  0  0  0  0  0  0  0
   11.6502    2.5758   -0.3545 C   0  0  0  0  0  0  0  0  0  0  0  0
   11.4277    3.7948   -0.5498 O   0  0  0  0  0  0  0  0  0  0  0  0
   12.9938    2.0008   -0.6820 C   0  0  1  0  0  0  0  0  0  0  0  0
   12.9356    0.9133   -1.7057 C   0  0  0  0  0  0  0  0  0  0  0  0
   14.3484    0.4193   -1.8684 C   0  0  0  0  0  0  0  0  0  0  0  0
   15.2332    0.9431   -2.7669 C   0  0  0  0  0  0  0  0  0  0  0  0
   16.5152    0.3838   -2.7772 C   0  0  0  0  0  0  0  0  0  0  0  0
   16.8653   -0.6445   -1.9261 C   0  0  0  0  0  0  0  0  0  0  0  0
   15.9590   -1.1827   -1.0033 C   0  0  0  0  0  0  0  0  0  0  0  0
   14.6961   -0.6243   -0.9986 C   0  0  0  0  0  0  0  0  0  0  0  0
   18.1371   -1.2284   -1.9174 O   0  0  0  0  0  0  0  0  0  0  0  0
   13.8622    3.0373   -1.1813 N   0  0  0  0  0  0  0  0  0  0  0  0
   15.0941    3.2666   -0.4626 C   0  0  0  0  0  0  0  0  0  0  0  0
   15.3811    2.5810    0.5569 O   0  0  0  0  0  0  0  0  0  0  0  0
   16.0426    4.3191   -0.9195 C   0  0  0  0  0  0  0  0  0  0  0  0
    9.1731    1.6864    2.0562 C   0  0  0  0  0  0  0  0  0  0  0  0
    9.3559    0.3165    2.5723 C   0  0  0  0  0  0  0  0  0  0  0  0
    8.5034   -0.7710    2.0488 C   0  0  0  0  0  0  0  0  0  0  0  0
    9.1138    0.3627    4.0936 C   0  0  0  0  0  0  0  0  0  0  0  0
    6.6260   -1.1227   -0.8794 C   0  0  0  0  0  0  0  0  0  0  0  0
    5.7960   -2.0513   -1.6121 C   0  0  0  0  0  0  0  0  0  0  0  0
    4.7420   -1.7843   -2.2525 O   0  0  0  0  0  0  0  0  0  0  0  0
    6.1796   -3.4286   -1.6283 N   0  0  0  0  0  0  0  0  0  0  0  0
   -0.2522   -2.8237   -1.8901 C   0  0  0  0  0  0  0  0  0  0  0  0
    0.8612   -3.7755   -2.0564 C   0  0  0  0  0  0  0  0  0  0  0  0
    0.9162   -4.4397   -3.2906 C   0  0  0  0  0  0  0  0  0  0  0  0
    1.9398   -5.3779   -3.5067 C   0  0  0  0  0  0  0  0  0  0  0  0
    2.8708   -5.6391   -2.5244 C   0  0  0  0  0  0  0  0  0  0  0  0
    2.8222   -4.9896   -1.3098 C   0  0  0  0  0  0  0  0  0  0  0  0
    1.8029   -4.0564   -1.0959 C   0  0  0  0  0  0  0  0  0  0  0  0
   -5.2002    1.9355    2.5549 C   0  0  0  0  0  0  0  0  0  0  0  0
   -6.0332    3.1428    2.4509 C   0  0  0  0  0  0  0  0  0  0  0  0
   -5.6710    4.0779    1.3343 C   0  0  0  0  0  0  0  0  0  0  0  0
   -7.5208    2.9432    2.5311 C   0  0  0  0  0  0  0  0  0  0  0  0
  -10.5490   -6.9645    0.8496 N   0  0  0  0  0  0  0  0  0  0  0  0
  -12.3711   -3.1881    1.9134 H   0  0  0  0  0  0  0  0  0  0  0  0
  -13.0788   -4.2045    0.5662 H   0  0  0  0  0  0  0  0  0  0  0  0
  -13.2460   -4.6483    2.3314 H   0  0  0  0  0  0  0  0  0  0  0  0
   -8.3266   -5.7935    1.3455 H   0  0  0  0  0  0  0  0  0  0  0  0
   -7.6598   -4.5402    3.1260 H   0  0  0  0  0  0  0  0  0  0  0  0
   -9.2472   -4.7845    3.9035 H   0  0  0  0  0  0  0  0  0  0  0  0
   -8.7313   -2.3852    3.5423 H   0  0  0  0  0  0  0  0  0  0  0  0
  -10.1398   -2.8823    2.6128 H   0  0  0  0  0  0  0  0  0  0  0  0
   -8.6598   -3.2728    0.5553 H   0  0  0  0  0  0  0  0  0  0  0  0
   -7.2380   -2.9895    1.5593 H   0  0  0  0  0  0  0  0  0  0  0  0
   -7.7763   -1.3212   -0.0870 H   0  0  0  0  0  0  0  0  0  0  0  0
  -10.7288   -1.7341   -0.3413 H   0  0  0  0  0  0  0  0  0  0  0  0
  -11.3902    1.0890    0.6373 H   0  0  0  0  0  0  0  0  0  0  0  0
  -13.5900   -2.0927   -0.6153 H   0  0  0  0  0  0  0  0  0  0  0  0
  -13.9508   -1.6108    1.1037 H   0  0  0  0  0  0  0  0  0  0  0  0
  -11.5178    0.2449   -2.2737 H   0  0  0  0  0  0  0  0  0  0  0  0
  -10.3358    1.3555   -1.4043 H   0  0  0  0  0  0  0  0  0  0  0  0
  -13.7596    1.3449   -3.1086 H   0  0  0  0  0  0  0  0  0  0  0  0
  -14.8332    3.6720   -2.9287 H   0  0  0  0  0  0  0  0  0  0  0  0
  -10.5030    3.2764    0.2772 H   0  0  0  0  0  0  0  0  0  0  0  0
  -10.7656    5.5168    1.0851 H   0  0  0  0  0  0  0  0  0  0  0  0
  -12.6161    6.9341    0.2885 H   0  0  0  0  0  0  0  0  0  0  0  0
  -14.2068    6.0140   -1.3737 H   0  0  0  0  0  0  0  0  0  0  0  0
   -7.2210   -0.3900    2.7232 H   0  0  0  0  0  0  0  0  0  0  0  0
   -4.3416    0.1572    1.9023 H   0  0  0  0  0  0  0  0  0  0  0  0
   -4.7493    2.2222   -0.2724 H   0  0  0  0  0  0  0  0  0  0  0  0
   -2.8058    2.0420   -1.8925 H   0  0  0  0  0  0  0  0  0  0  0  0
   -0.3525    1.1457   -1.1969 H   0  0  0  0  0  0  0  0  0  0  0  0
    0.0621   -1.4296   -3.4621 H   0  0  0  0  0  0  0  0  0  0  0  0
    1.9078   -0.5085   -2.4682 H   0  0  0  0  0  0  0  0  0  0  0  0
    2.6890   -0.3193    1.1283 H   0  0  0  0  0  0  0  0  0  0  0  0
    1.5949    2.2369   -0.1072 H   0  0  0  0  0  0  0  0  0  0  0  0
    3.0539    2.1974    2.2614 H   0  0  0  0  0  0  0  0  0  0  0  0
   -0.0847    1.4501    1.4705 H   0  0  0  0  0  0  0  0  0  0  0  0
    1.1104    2.2147    2.5290 H   0  0  0  0  0  0  0  0  0  0  0  0
    1.2108    0.4036    2.2937 H   0  0  0  0  0  0  0  0  0  0  0  0
    3.4164    0.4551   -1.7484 H   0  0  0  0  0  0  0  0  0  0  0  0
    6.1729    0.6951   -1.8284 H   0  0  0  0  0  0  0  0  0  0  0  0
    6.7545    1.2948    1.0079 H   0  0  0  0  0  0  0  0  0  0  0  0
    9.2017    3.0447    0.4368 H   0  0  0  0  0  0  0  0  0  0  0  0
   11.0179    0.6436    0.2752 H   0  0  0  0  0  0  0  0  0  0  0  0
   13.4584    1.5475    0.2343 H   0  0  0  0  0  0  0  0  0  0  0  0
   12.6129    1.2841   -2.7138 H   0  0  0  0  0  0  0  0  0  0  0  0
   12.2975    0.0600   -1.4276 H   0  0  0  0  0  0  0  0  0  0  0  0
   14.9515    1.7389   -3.4274 H   0  0  0  0  0  0  0  0  0  0  0  0
   17.2794    0.7385   -3.4551 H   0  0  0  0  0  0  0  0  0  0  0  0
   16.2153   -1.9847   -0.3335 H   0  0  0  0  0  0  0  0  0  0  0  0
   13.9921   -1.0389   -0.2873 H   0  0  0  0  0  0  0  0  0  0  0  0
   18.8430   -0.8366   -1.2848 H   0  0  0  0  0  0  0  0  0  0  0  0
   13.6057    3.6029   -2.0218 H   0  0  0  0  0  0  0  0  0  0  0  0
   15.4603    5.0103   -1.5853 H   0  0  0  0  0  0  0  0  0  0  0  0
   16.7743    3.8102   -1.5829 H   0  0  0  0  0  0  0  0  0  0  0  0
   16.5190    4.8629   -0.0709 H   0  0  0  0  0  0  0  0  0  0  0  0
    9.8856    2.3505    2.6321 H   0  0  0  0  0  0  0  0  0  0  0  0
    8.1620    2.0662    2.3315 H   0  0  0  0  0  0  0  0  0  0  0  0
   10.4218   -0.0301    2.4833 H   0  0  0  0  0  0  0  0  0  0  0  0
    8.7684   -1.0759    1.0175 H   0  0  0  0  0  0  0  0  0  0  0  0
    7.4472   -0.5742    2.2396 H   0  0  0  0  0  0  0  0  0  0  0  0
    8.7597   -1.6921    2.6571 H   0  0  0  0  0  0  0  0  0  0  0  0
    9.4412    1.3268    4.5012 H   0  0  0  0  0  0  0  0  0  0  0  0
    8.0096    0.2604    4.2273 H   0  0  0  0  0  0  0  0  0  0  0  0
    9.5900   -0.4911    4.5870 H   0  0  0  0  0  0  0  0  0  0  0  0
    7.6800   -1.1352   -1.0831 H   0  0  0  0  0  0  0  0  0  0  0  0
    6.4971   -1.4138    0.2182 H   0  0  0  0  0  0  0  0  0  0  0  0
    5.8433   -4.0546   -0.8363 H   0  0  0  0  0  0  0  0  0  0  0  0
    6.7739   -3.8386   -2.3940 H   0  0  0  0  0  0  0  0  0  0  0  0
   -0.6273   -2.8262   -0.8446 H   0  0  0  0  0  0  0  0  0  0  0  0
   -1.1387   -3.1943   -2.4823 H   0  0  0  0  0  0  0  0  0  0  0  0
    0.1745   -4.2245   -4.0540 H   0  0  0  0  0  0  0  0  0  0  0  0
    1.9505   -5.8843   -4.4846 H   0  0  0  0  0  0  0  0  0  0  0  0
    3.6336   -6.3813   -2.7696 H   0  0  0  0  0  0  0  0  0  0  0  0
    3.5672   -5.2346   -0.5855 H   0  0  0  0  0  0  0  0  0  0  0  0
    1.7529   -3.5469   -0.1485 H   0  0  0  0  0  0  0  0  0  0  0  0
   -5.4970    1.4352    3.5370 H   0  0  0  0  0  0  0  0  0  0  0  0
   -4.1366    2.2770    2.8250 H   0  0  0  0  0  0  0  0  0  0  0  0
   -5.7839    3.7443    3.3933 H   0  0  0  0  0  0  0  0  0  0  0  0
   -5.9264    5.1136    1.6779 H   0  0  0  0  0  0  0  0  0  0  0  0
   -6.2678    3.9380    0.4226 H   0  0  0  0  0  0  0  0  0  0  0  0
   -4.5860    4.0865    1.2075 H   0  0  0  0  0  0  0  0  0  0  0  0
   -7.8380    2.0287    3.0374 H   0  0  0  0  0  0  0  0  0  0  0  0
   -8.0211    3.7772    3.0978 H   0  0  0  0  0  0  0  0  0  0  0  0
   -7.9550    3.0642    1.4937 H   0  0  0  0  0  0  0  0  0  0  0  0
  -10.4118   -7.8258    1.4268 H   0  0  0  0  0  0  0  0  0  0  0  0
  -10.7662   -7.0873   -0.1559 H   0  0  0  0  0  0  0  0  0  0  0  0
  1  2  1  0
  2  3  2  3
  3  4  1  0
  4  5  1  0
  5  6  1  0
  6  7  1  0
  7  8  1  0
  8  9  1  0
  9 10  2  0
  9 11  1  0
 11 12  1  0
 12 13  1  0
 13 14  2  0
 13 15  1  0
 12 16  1  0
 16 17  1  0
 17 18  2  0
 18 19  1  0
 19 20  1  0
 20 21  2  0
 21 22  1  0
 22 23  2  0
 23 24  1  0
 24 25  2  0
  8 26  1  0
 26 27  1  0
 27 28  2  0
 27 29  1  0
 29 30  1  0
 30 31  1  0
 31 32  2  0
 31 33  1  0
 33 34  1  0
 34 35  1  0
 35 36  2  0
 35 37  1  0
 37 38  1  0
 38 39  1  0
 39 40  2  0
 39 41  1  0
 41 42  1  0
 42 43  1  0
 42 44  1  0
 41 45  1  0
 45 46  1  0
 46 47  2  0
 46 48  1  0
 48 49  1  0
 49 50  1  0
 50 51  2  0
 50 52  1  0
 52 53  1  0
 53 54  1  0
 54 55  2  0
 54 56  1  0
 56 57  1  0
 57 58  1  0
 58 59  2  0
 59 60  1  0
 60 61  2  0
 61 62  1  0
 62 63  2  0
 61 64  1  0
 56 65  1  0
 65 66  1  0
 66 67  2  0
 66 68  1  0
 52 69  1  0
 69 70  1  0
 70 71  1  0
 70 72  1  0
 48 73  1  0
 73 74  1  0
 74 75  2  0
 74 76  1  0
 37 77  1  0
 77 78  1  0
 78 79  2  0
 79 80  1  0
 80 81  2  0
 81 82  1  0
 82 83  2  0
 29 84  1  0
 84 85  1  0
 85 86  1  0
 85 87  1  0
  3 88  1  0
 21 17  1  0
 63 58  1  0
 83 78  1  0
 25 20  1  0
  1 89  1  0
  1 90  1  0
  1 91  1  0
  4 92  1  0
  5 93  1  0
  5 94  1  0
  6 95  1  0
  6 96  1  0
  7 97  1  0
  7 98  1  0
  8 99  1  6
 11100  1  0
 12101  1  1
 15102  1  0
 15103  1  0
 16104  1  0
 16105  1  0
 18106  1  0
 19107  1  0
 22108  1  0
 23109  1  0
 24110  1  0
 25111  1  0
 26112  1  0
 29113  1  1
 30114  1  0
 33115  1  0
 34116  1  0
 37117  1  6
 38118  1  0
 41119  1  1
 42120  1  6
 43121  1  0
 44122  1  0
 44123  1  0
 44124  1  0
 45125  1  0
 48126  1  6
 49127  1  0
 52128  1  1
 53129  1  0
 56130  1  1
 57131  1  0
 57132  1  0
 59133  1  0
 60134  1  0
 62135  1  0
 63136  1  0
 64137  1  0
 65138  1  0
 68139  1  0
 68140  1  0
 68141  1  0
 69142  1  0
 69143  1  0
 70144  1  0
 71145  1  0
 71146  1  0
 71147  1  0
 72148  1  0
 72149  1  0
 72150  1  0
 73151  1  0
 73152  1  0
 76153  1  0
 76154  1  0
 77155  1  0
 77156  1  0
 79157  1  0
 80158  1  0
 81159  1  0
 82160  1  0
 83161  1  0
 84162  1  0
 84163  1  0
 85164  1  0
 86165  1  0
 86166  1  0
 86167  1  0
 87168  1  0
 87169  1  0
 87170  1  0
 88171  1  0
 88172  1  0
M  END
>  <Ligand ID>  (1) 
LIG0005340

>  <Ligand>  (1) 
CHEMBL3976038

>  <SMILES>  (1) 
CN=C(NCCC[C@@H](C(=O)N[C@H](C(=O)N)Cc1c[nH]c2c1cccc2)NC(=O)[C@@H](NC(=O)NNC(=O)[C@@H](NC(=O)[C@H]([C@H](O)C)NC(=O)[C@@H](NC(=O)[C@H](NC(=O)[C@@H](Cc1ccc(cc1)O)NC(=O)C)CC(C)C)CC(=O)N)Cc1ccccc1)CC(C)C)N

>  <CID>  (1) 
134151953.0

>  <ChEMBL ID>  (1) 
nan

>  <InChiKey>  (1) 
GBRCDXJPSBSGKR-HITHBFEESA-N

>  <InChi>  (1) 
InChI=1S/C59H84N16O13/c1-31(2)24-43(69-54(84)45(66-34(6)77)27-36-19-21-38(78)22-20-36)52(82)70-47(29-48(60)79)55(85)73-49(33(5)76)57(87)71-46(26-35-14-9-8-10-15-35)56(86)74-75-59(88)72-44(25-32(3)4)53(83)67-41(18-13-23-64-58(62)63-7)51(81)68-42(50(61)80)28-37-30-65-40-17-12-11-16-39(37)40/h8-12,14-17,19-22,30-33,41-47,49,65,76,78H,13,18,23-29H2,1-7H3,(H2,60,79)(H2,61,80)(H,66,77)(H,67,83)(H,68,81)(H,69,84)(H,70,82)(H,71,87)(H,73,85)(H,74,86)(H3,62,63,64)(H2,72,75,88)/t33-,41+,42+,43-,44+,45-,46+,47+,49+/m1/s1

>  <IUPAC Name>  (1) 
(2S)-2-[[(2R)-2-[[(2R)-2-acetamido-3-(4-hydroxyphenyl)propanoyl]amino]-4-methylpentanoyl]amino]-N-[(2S,3R)-1-[[(2S)-1-[2-[[(2S)-1-[[(2S)-1-[[(2S)-1-amino-3-(1H-indol-3-yl)-1-oxopropan-2-yl]amino]-5-[(N'-methylcarbamimidoyl)amino]-1-oxopentan-2-yl]amino]-4-methyl-1-oxopentan-2-yl]carbamoyl]hydrazinyl]-1-oxo-3-phenylpropan-2-yl]amino]-3-hydroxy-1-oxobutan-2-yl]butanediamide

$$$$
