
     RDKit          3D

 91 94  0  0  0  0  0  0  0  0999 V2000
    4.8890   -0.0347    4.4327 C   0  0  0  0  0  0  0  0  0  0  0  0
    5.8996   -0.9031    3.7132 C   0  0  2  0  0  0  0  0  0  0  0  0
    6.9029   -0.0135    3.1508 N   0  0  0  0  0  0  0  0  0  0  0  0
    6.2298    0.9063    2.2530 C   0  0  1  0  0  0  0  0  0  0  0  0
    7.2264    1.9176    1.7074 C   0  0  0  0  0  0  0  0  0  0  0  0
    5.7543    0.0689    1.0647 C   0  0  0  0  0  0  0  0  0  0  0  0
    4.8673   -0.9690    1.4904 N   0  0  0  0  0  0  0  0  0  0  0  0
    5.2634   -1.7576    2.6562 C   0  0  0  0  0  0  0  0  0  0  0  0
    3.6321   -1.2924    0.8707 C   0  0  0  0  0  0  0  0  0  0  0  0
    2.8915   -2.2308    1.2971 O   0  0  0  0  0  0  0  0  0  0  0  0
    3.1637   -0.5805   -0.2588 N   0  0  0  0  0  0  0  0  0  0  0  0
    1.8649   -0.9272   -0.9034 C   0  0  1  0  0  0  0  0  0  0  0  0
    1.0563    0.2952   -0.8369 C   0  0  0  0  0  0  0  0  0  0  0  0
    1.6814    1.3319   -0.3735 O   0  0  0  0  0  0  0  0  0  0  0  0
   -0.2677    0.5036   -1.1900 N   0  0  0  0  0  0  0  0  0  0  0  0
   -0.7988    1.8774   -0.9950 C   0  0  0  0  0  0  0  0  0  0  0  0
   -2.0486    1.6151   -0.1389 C   0  0  0  0  0  0  0  0  0  0  0  0
   -3.1608    1.0216   -0.9526 C   0  0  0  0  0  0  0  0  0  0  0  0
   -2.5306    0.2467   -2.0822 C   0  0  0  0  0  0  0  0  0  0  0  0
   -1.2205   -0.4327   -1.7074 C   0  0  0  0  0  0  0  0  0  0  0  0
   -4.1285    1.9815   -1.4953 C   0  0  0  0  0  0  0  0  0  0  0  0
   -4.9232    2.8070   -0.5275 C   0  0  0  0  0  0  0  0  0  0  0  0
   -5.7108    3.8512   -1.3136 C   0  0  0  0  0  0  0  0  0  0  0  0
   -5.4560    3.7730   -2.7819 C   0  0  0  0  0  0  0  0  0  0  0  0
   -5.6243    2.4218   -3.3986 C   0  0  0  0  0  0  0  0  0  0  0  0
   -5.1264    1.3662   -2.4360 C   0  0  0  0  0  0  0  0  0  0  0  0
   -3.8459    0.0099   -0.0959 C   0  0  0  0  0  0  0  0  0  0  0  0
   -4.0198   -1.1860   -0.4665 O   0  0  0  0  0  0  0  0  0  0  0  0
   -4.3515    0.3275    1.2082 N   0  0  0  0  0  0  0  0  0  0  0  0
   -5.0060   -0.7149    1.9709 C   0  0  0  0  0  0  0  0  0  0  0  0
   -4.0239   -1.8201    2.2038 C   0  0  0  0  0  0  0  0  0  0  0  0
   -6.2408   -1.2241    1.2527 C   0  0  0  0  0  0  0  0  0  0  0  0
   -5.4545   -0.1122    3.2852 C   0  0  0  0  0  0  0  0  0  0  0  0
    2.2404   -1.2161   -2.3432 C   0  0  0  0  0  0  0  0  0  0  0  0
    3.2323   -2.3565   -2.3962 C   0  0  0  0  0  0  0  0  0  0  0  0
    2.7729   -3.6746   -2.5073 C   0  0  0  0  0  0  0  0  0  0  0  0
    3.6925   -4.7085   -2.5553 C   0  0  0  0  0  0  0  0  0  0  0  0
    5.0569   -4.4736   -2.4962 C   0  0  0  0  0  0  0  0  0  0  0  0
    5.4873   -3.1658   -2.3867 C   0  0  0  0  0  0  0  0  0  0  0  0
    4.5889   -2.1002   -2.3357 C   0  0  0  0  0  0  0  0  0  0  0  0
    5.9647   -5.4896   -2.5432 F   0  0  0  0  0  0  0  0  0  0  0  0
    4.5017   -0.5931    5.3159 H   0  0  0  0  0  0  0  0  0  0  0  0
    4.0494    0.2835    3.8116 H   0  0  0  0  0  0  0  0  0  0  0  0
    5.3904    0.8816    4.8094 H   0  0  0  0  0  0  0  0  0  0  0  0
    6.3798   -1.5662    4.4650 H   0  0  0  0  0  0  0  0  0  0  0  0
    7.3445    0.5235    3.9026 H   0  0  0  0  0  0  0  0  0  0  0  0
    5.3682    1.4087    2.7181 H   0  0  0  0  0  0  0  0  0  0  0  0
    7.6584    2.5073    2.5421 H   0  0  0  0  0  0  0  0  0  0  0  0
    8.0468    1.3452    1.2003 H   0  0  0  0  0  0  0  0  0  0  0  0
    6.7134    2.5678    0.9926 H   0  0  0  0  0  0  0  0  0  0  0  0
    6.6689   -0.3771    0.5969 H   0  0  0  0  0  0  0  0  0  0  0  0
    5.2945    0.7760    0.3660 H   0  0  0  0  0  0  0  0  0  0  0  0
    4.3680   -2.2470    3.1393 H   0  0  0  0  0  0  0  0  0  0  0  0
    6.0049   -2.5232    2.3340 H   0  0  0  0  0  0  0  0  0  0  0  0
    3.6803    0.2083   -0.7002 H   0  0  0  0  0  0  0  0  0  0  0  0
    1.4767   -1.7893   -0.3724 H   0  0  0  0  0  0  0  0  0  0  0  0
   -1.0447    2.3557   -1.9468 H   0  0  0  0  0  0  0  0  0  0  0  0
   -0.1155    2.4251   -0.3388 H   0  0  0  0  0  0  0  0  0  0  0  0
   -2.2988    2.5332    0.4090 H   0  0  0  0  0  0  0  0  0  0  0  0
   -1.7409    0.8647    0.6111 H   0  0  0  0  0  0  0  0  0  0  0  0
   -2.3752    0.8443   -2.9827 H   0  0  0  0  0  0  0  0  0  0  0  0
   -3.1969   -0.6197   -2.3735 H   0  0  0  0  0  0  0  0  0  0  0  0
   -1.3721   -1.3359   -1.0832 H   0  0  0  0  0  0  0  0  0  0  0  0
   -0.8344   -0.8068   -2.6907 H   0  0  0  0  0  0  0  0  0  0  0  0
   -3.5708    2.7433   -2.1296 H   0  0  0  0  0  0  0  0  0  0  0  0
   -5.6935    2.2210    0.0134 H   0  0  0  0  0  0  0  0  0  0  0  0
   -4.2225    3.3611    0.1192 H   0  0  0  0  0  0  0  0  0  0  0  0
   -5.4616    4.8841   -0.9874 H   0  0  0  0  0  0  0  0  0  0  0  0
   -6.8033    3.7535   -1.1270 H   0  0  0  0  0  0  0  0  0  0  0  0
   -4.5050    4.2876   -3.0440 H   0  0  0  0  0  0  0  0  0  0  0  0
   -6.2705    4.4138   -3.2477 H   0  0  0  0  0  0  0  0  0  0  0  0
   -6.6645    2.1846   -3.6867 H   0  0  0  0  0  0  0  0  0  0  0  0
   -4.9347    2.3775   -4.2838 H   0  0  0  0  0  0  0  0  0  0  0  0
   -4.7425    0.4806   -2.9349 H   0  0  0  0  0  0  0  0  0  0  0  0
   -5.9912    1.0396   -1.7832 H   0  0  0  0  0  0  0  0  0  0  0  0
   -4.2372    1.2903    1.5954 H   0  0  0  0  0  0  0  0  0  0  0  0
   -3.0433   -1.3437    2.4256 H   0  0  0  0  0  0  0  0  0  0  0  0
   -4.3454   -2.3332    3.1577 H   0  0  0  0  0  0  0  0  0  0  0  0
   -4.0179   -2.5605    1.4063 H   0  0  0  0  0  0  0  0  0  0  0  0
   -6.8620   -0.3712    0.9091 H   0  0  0  0  0  0  0  0  0  0  0  0
   -6.0200   -1.9618    0.4626 H   0  0  0  0  0  0  0  0  0  0  0  0
   -6.8532   -1.7705    2.0300 H   0  0  0  0  0  0  0  0  0  0  0  0
   -5.6046    0.9670    3.1320 H   0  0  0  0  0  0  0  0  0  0  0  0
   -4.6334   -0.2350    4.0239 H   0  0  0  0  0  0  0  0  0  0  0  0
   -6.4082   -0.5520    3.6471 H   0  0  0  0  0  0  0  0  0  0  0  0
    1.3333   -1.5465   -2.8787 H   0  0  0  0  0  0  0  0  0  0  0  0
    2.6316   -0.3079   -2.8000 H   0  0  0  0  0  0  0  0  0  0  0  0
    1.7107   -3.8980   -2.5562 H   0  0  0  0  0  0  0  0  0  0  0  0
    3.2996   -5.6995   -2.6410 H   0  0  0  0  0  0  0  0  0  0  0  0
    6.5435   -2.9487   -2.3385 H   0  0  0  0  0  0  0  0  0  0  0  0
    4.9793   -1.0806   -2.2485 H   0  0  0  0  0  0  0  0  0  0  0  0
  1  2  1  0
  2  3  1  0
  3  4  1  0
  4  5  1  0
  4  6  1  0
  6  7  1  0
  7  8  1  0
  7  9  1  0
  9 10  2  0
  9 11  1  0
 11 12  1  0
 12 13  1  0
 13 14  2  0
 13 15  1  0
 15 16  1  0
 16 17  1  0
 17 18  1  0
 18 19  1  0
 19 20  1  0
 18 21  1  0
 21 22  1  0
 22 23  1  0
 23 24  1  0
 24 25  1  0
 25 26  1  0
 18 27  1  0
 27 28  2  0
 27 29  1  0
 29 30  1  0
 30 31  1  0
 30 32  1  0
 30 33  1  0
 12 34  1  0
 34 35  1  0
 35 36  2  0
 36 37  1  0
 37 38  2  0
 38 39  1  0
 39 40  2  0
 38 41  1  0
  8  2  1  0
 20 15  1  0
 26 21  1  0
 40 35  1  0
  1 42  1  0
  1 43  1  0
  1 44  1  0
  2 45  1  1
  3 46  1  0
  4 47  1  1
  5 48  1  0
  5 49  1  0
  5 50  1  0
  6 51  1  0
  6 52  1  0
  8 53  1  0
  8 54  1  0
 11 55  1  0
 12 56  1  1
 16 57  1  0
 16 58  1  0
 17 59  1  0
 17 60  1  0
 19 61  1  0
 19 62  1  0
 20 63  1  0
 20 64  1  0
 21 65  1  0
 22 66  1  0
 22 67  1  0
 23 68  1  0
 23 69  1  0
 24 70  1  0
 24 71  1  0
 25 72  1  0
 25 73  1  0
 26 74  1  0
 26 75  1  0
 29 76  1  0
 31 77  1  0
 31 78  1  0
 31 79  1  0
 32 80  1  0
 32 81  1  0
 32 82  1  0
 33 83  1  0
 33 84  1  0
 33 85  1  0
 34 86  1  0
 34 87  1  0
 36 88  1  0
 37 89  1  0
 39 90  1  0
 40 91  1  0
M  END
>  <Ligand ID>  (1) 
LIG0002297

>  <Ligand>  (1) 
CHEMBL1761874

>  <SMILES>  (1) 
C[C@@H]1N[C@@H](C)CN(C1)C(=O)N[C@@H](C(=O)N1CCC(CC1)(C1CCCCC1)C(=O)NC(C)(C)C)Cc1ccc(cc1)F

>  <CID>  (1) 
54584302.0

>  <ChEMBL ID>  (1) 
nan

>  <InChiKey>  (1) 
IVOZSKOYXPHCOQ-VMODYCNZSA-N

>  <InChi>  (1) 
InChI=1S/C32H50FN5O3/c1-22-20-38(21-23(2)34-22)30(41)35-27(19-24-11-13-26(33)14-12-24)28(39)37-17-15-32(16-18-37,25-9-7-6-8-10-25)29(40)36-31(3,4)5/h11-14,22-23,25,27,34H,6-10,15-21H2,1-5H3,(H,35,41)(H,36,40)/t22-,23-,27+/m0/s1

>  <IUPAC Name>  (1) 
(3S,5S)-N-[(2R)-1-[4-(tert-butylcarbamoyl)-4-cyclohexylpiperidin-1-yl]-3-(4-fluorophenyl)-1-oxopropan-2-yl]-3,5-dimethylpiperazine-1-carboxamide

$$$$
