
     RDKit          3D

 26 25  0  0  0  0  0  0  0  0999 V2000
    4.1065    0.2633    0.3110 C   0  0  0  0  0  0  0  0  0  0  0  0
    3.2856   -0.8138   -0.3467 C   0  0  0  0  0  0  0  0  0  0  0  0
    1.8990   -0.6447   -0.1819 O   0  0  0  0  0  0  0  0  0  0  0  0
    1.2091    0.4485   -0.6190 C   0  0  0  0  0  0  0  0  0  0  0  0
    1.8158    1.3935   -1.2155 O   0  0  0  0  0  0  0  0  0  0  0  0
   -0.2341    0.5641   -0.4164 C   0  0  0  0  0  0  0  0  0  0  0  0
   -0.8506   -0.6006    0.2944 C   0  0  0  0  0  0  0  0  0  0  0  0
   -2.3437   -0.4437    0.4850 C   0  0  0  0  0  0  0  0  0  0  0  0
   -3.0698   -0.3121   -0.8352 C   0  0  0  0  0  0  0  0  0  0  0  0
   -2.7064    0.6968    1.3838 C   0  0  0  0  0  0  0  0  0  0  0  0
    4.9958   -0.2009    0.8042 H   0  0  0  0  0  0  0  0  0  0  0  0
    4.5135    0.9746   -0.4487 H   0  0  0  0  0  0  0  0  0  0  0  0
    3.5827    0.7990    1.1300 H   0  0  0  0  0  0  0  0  0  0  0  0
    3.5511   -0.8154   -1.4247 H   0  0  0  0  0  0  0  0  0  0  0  0
    3.5862   -1.8054    0.0636 H   0  0  0  0  0  0  0  0  0  0  0  0
   -0.7415    0.7256   -1.3891 H   0  0  0  0  0  0  0  0  0  0  0  0
   -0.4172    1.4975    0.1765 H   0  0  0  0  0  0  0  0  0  0  0  0
   -0.4236   -0.8213    1.2665 H   0  0  0  0  0  0  0  0  0  0  0  0
   -0.7239   -1.5022   -0.3630 H   0  0  0  0  0  0  0  0  0  0  0  0
   -2.6976   -1.3975    0.9372 H   0  0  0  0  0  0  0  0  0  0  0  0
   -2.9907   -1.2283   -1.4517 H   0  0  0  0  0  0  0  0  0  0  0  0
   -2.7755    0.5677   -1.4266 H   0  0  0  0  0  0  0  0  0  0  0  0
   -4.1570   -0.2380   -0.5784 H   0  0  0  0  0  0  0  0  0  0  0  0
   -2.8410    1.6395    0.8320 H   0  0  0  0  0  0  0  0  0  0  0  0
   -1.8820    0.7831    2.1457 H   0  0  0  0  0  0  0  0  0  0  0  0
   -3.6907    0.4707    1.8826 H   0  0  0  0  0  0  0  0  0  0  0  0
  1  2  1  0
  2  3  1  0
  3  4  1  0
  4  5  2  0
  4  6  1  0
  6  7  1  0
  7  8  1  0
  8  9  1  0
  8 10  1  0
  1 11  1  0
  1 12  1  0
  1 13  1  0
  2 14  1  0
  2 15  1  0
  6 16  1  0
  6 17  1  0
  7 18  1  0
  7 19  1  0
  8 20  1  0
  9 21  1  0
  9 22  1  0
  9 23  1  0
 10 24  1  0
 10 25  1  0
 10 26  1  0
M  END
>  <Ligand ID>  (1) 
LIG0000754

>  <Ligand>  (1) 
Ethyl 4-methylpentanoate

>  <SMILES>  (1) 
CCOC(=O)CCC(C)C

>  <CID>  (1) 
117477.0

>  <ChEMBL ID>  (1) 
nan

>  <InChiKey>  (1) 
OFQRUTMGVBMTFQ-UHFFFAOYSA-N

>  <InChi>  (1) 
InChI=1S/C8H16O2/c1-4-10-8(9)6-5-7(2)3/h7H,4-6H2,1-3H3

>  <IUPAC Name>  (1) 
ethyl 4-methylpentanoate

$$$$
