
     RDKit          3D

 44 46  0  0  0  0  0  0  0  0999 V2000
    2.0583   -0.6990    2.0475 O   0  0  0  0  0  0  0  0  0  0  0  0
    2.0781    0.3938    1.4267 C   0  0  0  0  0  0  0  0  0  0  0  0
    0.8671    1.2495    1.4086 C   0  0  0  0  0  0  0  0  0  0  0  0
    0.0040    0.8977    0.2723 N   0  0  0  0  0  0  0  0  0  0  0  0
    0.1889    1.5123   -0.8750 N   0  0  0  0  0  0  0  0  0  0  0  0
   -0.6052    1.1909   -1.9394 C   0  0  0  0  0  0  0  0  0  0  0  0
   -0.3319    1.9382   -3.2121 C   0  0  0  0  0  0  0  0  0  0  0  0
   -1.5965    0.2385   -1.8427 C   0  0  0  0  0  0  0  0  0  0  0  0
   -1.7684   -0.3978   -0.6075 C   0  0  0  0  0  0  0  0  0  0  0  0
   -0.9537   -0.0547    0.4495 C   0  0  0  0  0  0  0  0  0  0  0  0
   -1.1080   -0.6248    1.5525 O   0  0  0  0  0  0  0  0  0  0  0  0
   -2.8434   -1.4047   -0.5366 C   0  0  0  0  0  0  0  0  0  0  0  0
   -4.0765   -0.9337    0.1258 C   0  0  0  0  0  0  0  0  0  0  0  0
   -4.3036   -1.1078    1.4738 C   0  0  0  0  0  0  0  0  0  0  0  0
   -5.5046   -0.6114    1.9628 C   0  0  0  0  0  0  0  0  0  0  0  0
   -6.4261    0.0200    1.1623 C   0  0  0  0  0  0  0  0  0  0  0  0
   -6.1894    0.1896   -0.1868 C   0  0  0  0  0  0  0  0  0  0  0  0
   -5.0085   -0.2915   -0.6996 C   0  0  0  0  0  0  0  0  0  0  0  0
    3.2178    0.8599    0.7291 N   0  0  0  0  0  0  0  0  0  0  0  0
    4.4479    0.1502    0.6547 C   0  0  0  0  0  0  0  0  0  0  0  0
    4.6297   -0.7267   -0.3995 C   0  0  0  0  0  0  0  0  0  0  0  0
    5.7738   -1.4684   -0.5775 C   0  0  0  0  0  0  0  0  0  0  0  0
    6.8015   -1.3280    0.3529 C   0  0  0  0  0  0  0  0  0  0  0  0
    6.6169   -0.4474    1.4103 C   0  0  0  0  0  0  0  0  0  0  0  0
    5.4641    0.2904    1.5765 C   0  0  0  0  0  0  0  0  0  0  0  0
    8.4004   -2.3429    0.1341 Br  0  0  0  0  0  0  0  0  0  0  0  0
    0.2483    1.0821    2.3137 H   0  0  0  0  0  0  0  0  0  0  0  0
    1.0613    2.3234    1.3288 H   0  0  0  0  0  0  0  0  0  0  0  0
    0.7788    1.9433   -3.3847 H   0  0  0  0  0  0  0  0  0  0  0  0
   -0.7606    1.3333   -4.0372 H   0  0  0  0  0  0  0  0  0  0  0  0
   -0.7678    2.9593   -3.1859 H   0  0  0  0  0  0  0  0  0  0  0  0
   -2.2132    0.0005   -2.6977 H   0  0  0  0  0  0  0  0  0  0  0  0
   -3.0350   -1.9166   -1.5069 H   0  0  0  0  0  0  0  0  0  0  0  0
   -2.4352   -2.2247    0.1290 H   0  0  0  0  0  0  0  0  0  0  0  0
   -3.5949   -1.6029    2.1212 H   0  0  0  0  0  0  0  0  0  0  0  0
   -5.7033   -0.7359    3.0207 H   0  0  0  0  0  0  0  0  0  0  0  0
   -7.3466    0.3851    1.6098 H   0  0  0  0  0  0  0  0  0  0  0  0
   -6.9229    0.6904   -0.8176 H   0  0  0  0  0  0  0  0  0  0  0  0
   -4.8411   -0.1500   -1.7553 H   0  0  0  0  0  0  0  0  0  0  0  0
    3.2007    1.7875    0.2169 H   0  0  0  0  0  0  0  0  0  0  0  0
    3.8484   -0.8691   -1.1550 H   0  0  0  0  0  0  0  0  0  0  0  0
    5.9315   -2.1577   -1.3950 H   0  0  0  0  0  0  0  0  0  0  0  0
    7.4043   -0.3235    2.1462 H   0  0  0  0  0  0  0  0  0  0  0  0
    5.3147    0.9836    2.4067 H   0  0  0  0  0  0  0  0  0  0  0  0
  1  2  2  0
  2  3  1  0
  3  4  1  0
  4  5  1  0
  5  6  2  0
  6  7  1  0
  6  8  1  0
  8  9  2  0
  9 10  1  0
 10 11  2  0
  9 12  1  0
 12 13  1  0
 13 14  2  0
 14 15  1  0
 15 16  2  0
 16 17  1  0
 17 18  2  0
  2 19  1  0
 19 20  1  0
 20 21  2  0
 21 22  1  0
 22 23  2  0
 23 24  1  0
 24 25  2  0
 23 26  1  0
 10  4  1  0
 18 13  1  0
 25 20  1  0
  3 27  1  0
  3 28  1  0
  7 29  1  0
  7 30  1  0
  7 31  1  0
  8 32  1  0
 12 33  1  0
 12 34  1  0
 14 35  1  0
 15 36  1  0
 16 37  1  0
 17 38  1  0
 18 39  1  0
 19 40  1  0
 21 41  1  0
 22 42  1  0
 24 43  1  0
 25 44  1  0
M  END
>  <Ligand ID>  (1) 
LIG0003947

>  <Ligand>  (1) 
CHEMBL2391277

>  <SMILES>  (1) 
O=C(Cn1nc(C)cc(c1=O)Cc1ccccc1)Nc1ccc(cc1)Br

>  <CID>  (1) 
71698880.0

>  <ChEMBL ID>  (1) 
nan

>  <InChiKey>  (1) 
ZHQSYMDNGLAEDA-UHFFFAOYSA-N

>  <InChi>  (1) 
InChI=1S/C20H18BrN3O2/c1-14-11-16(12-15-5-3-2-4-6-15)20(26)24(23-14)13-19(25)22-18-9-7-17(21)8-10-18/h2-11H,12-13H2,1H3,(H,22,25)

>  <IUPAC Name>  (1) 
2-(5-benzyl-3-methyl-6-oxopyridazin-1-yl)-N-(4-bromophenyl)acetamide

$$$$
