
     RDKit          3D

145150  0  0  0  0  0  0  0  0999 V2000
   -4.1746   -3.2189   -4.2589 N   0  0  0  0  0  0  0  0  0  0  0  0
   -4.7693   -4.1895   -3.4097 C   0  0  0  0  0  0  0  0  0  0  0  0
   -5.4185   -3.8045   -2.3772 N   0  0  0  0  0  0  0  0  0  0  0  0
   -5.5934   -2.4154   -2.0050 C   0  0  0  0  0  0  0  0  0  0  0  0
   -5.6138   -2.3555   -0.5173 C   0  0  0  0  0  0  0  0  0  0  0  0
   -4.4101   -2.8311    0.1826 C   0  0  0  0  0  0  0  0  0  0  0  0
   -3.1171   -2.1589   -0.0539 C   0  0  2  0  0  0  0  0  0  0  0  0
   -2.0596   -2.8324    0.7526 N   0  0  0  0  0  0  0  0  0  0  0  0
   -0.8154   -3.1473    0.1568 C   0  0  0  0  0  0  0  0  0  0  0  0
   -0.7051   -2.8965   -1.0513 O   0  0  0  0  0  0  0  0  0  0  0  0
    0.3568   -3.7455    0.8492 C   0  0  1  0  0  0  0  0  0  0  0  0
    0.0031   -5.0265    1.4780 C   0  0  0  0  0  0  0  0  0  0  0  0
    1.1892   -5.6528    2.1806 C   0  0  0  0  0  0  0  0  0  0  0  0
    2.0018   -6.5270    1.4958 C   0  0  0  0  0  0  0  0  0  0  0  0
    3.0929   -7.0785    2.1605 C   0  0  0  0  0  0  0  0  0  0  0  0
    3.3376   -6.7394    3.4870 C   0  0  0  0  0  0  0  0  0  0  0  0
    2.5216   -5.8636    4.1701 C   0  0  0  0  0  0  0  0  0  0  0  0
    1.4423   -5.3213    3.5054 C   0  0  0  0  0  0  0  0  0  0  0  0
    1.4796   -3.8225   -0.1171 N   0  0  0  0  0  0  0  0  0  0  0  0
    2.3774   -2.7753   -0.1766 C   0  0  0  0  0  0  0  0  0  0  0  0
    2.1443   -1.8589    0.7194 O   0  0  0  0  0  0  0  0  0  0  0  0
    3.5380   -2.4542   -1.0178 C   0  0  2  0  0  0  0  0  0  0  0  0
    4.5639   -3.4334   -1.3364 C   0  0  0  0  0  0  0  0  0  0  0  0
    4.2534   -4.6094   -2.1311 C   0  0  0  0  0  0  0  0  0  0  0  0
    5.2340   -5.6080   -2.3507 C   0  0  0  0  0  0  0  0  0  0  0  0
    4.6931   -6.5833   -3.0853 N   0  0  0  0  0  0  0  0  0  0  0  0
    3.4352   -6.2492   -3.3352 C   0  0  0  0  0  0  0  0  0  0  0  0
    3.1848   -5.0757   -2.7644 N   0  0  0  0  0  0  0  0  0  0  0  0
    2.5214   -7.1318   -4.1476 C   0  0  0  0  0  0  0  0  0  0  0  0
    4.1058   -1.1555   -0.5673 N   0  0  0  0  0  0  0  0  0  0  0  0
    3.3163   -0.0065   -0.8314 C   0  0  0  0  0  0  0  0  0  0  0  0
    2.2208   -0.2102   -1.3723 O   0  0  0  0  0  0  0  0  0  0  0  0
    3.6897    1.3881   -0.5097 C   0  0  2  0  0  0  0  0  0  0  0  0
    3.1849    2.3555   -1.5634 C   0  0  0  0  0  0  0  0  0  0  0  0
    1.3591    2.0929   -1.5490 S   0  0  0  0  0  0  0  0  0  0  0  0
    0.6118    2.7528    0.3594 S   0  0  0  0  0  0  0  0  0  0  0  0
    0.1488    4.5130    0.1132 C   0  0  0  0  0  0  0  0  0  0  0  0
   -1.0834    4.4452   -0.8010 C   0  0  1  0  0  0  0  0  0  0  0  0
   -2.1421    3.7102   -0.1164 N   0  0  0  0  0  0  0  0  0  0  0  0
   -2.5702    2.4078   -0.5148 C   0  0  0  0  0  0  0  0  0  0  0  0
   -1.9852    1.9328   -1.4908 O   0  0  0  0  0  0  0  0  0  0  0  0
   -3.6716    1.6798    0.2359 C   0  0  2  0  0  0  0  0  0  0  0  0
   -3.8099    0.3312   -0.3051 N   0  0  0  0  0  0  0  0  0  0  0  0
   -3.1064   -0.7115    0.3312 C   0  0  0  0  0  0  0  0  0  0  0  0
   -2.4043   -0.3951    1.3046 O   0  0  0  0  0  0  0  0  0  0  0  0
   -4.8901    2.5118    0.1696 C   0  0  0  0  0  0  0  0  0  0  0  0
   -6.0643    1.9640    0.8421 C   0  0  0  0  0  0  0  0  0  0  0  0
   -7.1271    1.3624    0.1570 C   0  0  0  0  0  0  0  0  0  0  0  0
   -8.0551    0.9604    1.0436 N   0  0  0  0  0  0  0  0  0  0  0  0
   -7.6404    1.2758    2.2790 C   0  0  0  0  0  0  0  0  0  0  0  0
   -6.4234    1.8902    2.1657 C   0  0  0  0  0  0  0  0  0  0  0  0
   -5.7845    2.3163    3.2948 C   0  0  0  0  0  0  0  0  0  0  0  0
   -6.3634    2.1278    4.5361 C   0  0  0  0  0  0  0  0  0  0  0  0
   -7.6051    1.4989    4.6282 C   0  0  0  0  0  0  0  0  0  0  0  0
   -8.2737    1.0564    3.4899 C   0  0  0  0  0  0  0  0  0  0  0  0
   -1.5905    5.7924   -1.1095 C   0  0  0  0  0  0  0  0  0  0  0  0
   -0.8575    6.6336   -1.7021 O   0  0  0  0  0  0  0  0  0  0  0  0
   -2.9014    6.2257   -0.7705 N   0  0  0  0  0  0  0  0  0  0  0  0
   -3.3719    7.5728   -1.0875 C   0  0  2  0  0  0  0  0  0  0  0  0
   -3.8565    8.1955    0.1777 C   0  0  0  0  0  0  0  0  0  0  0  0
   -3.8130    7.5521    1.2799 O   0  0  0  0  0  0  0  0  0  0  0  0
   -4.3842    9.5044    0.2468 N   0  0  0  0  0  0  0  0  0  0  0  0
   -4.5599    7.4601   -2.0179 C   0  0  2  0  0  0  0  0  0  0  0  0
   -4.2444    6.8101   -3.2063 O   0  0  0  0  0  0  0  0  0  0  0  0
   -5.1459    8.7956   -2.3446 C   0  0  0  0  0  0  0  0  0  0  0  0
    5.0673    1.5202   -0.1445 N   0  0  0  0  0  0  0  0  0  0  0  0
    5.5384    1.8800    1.1455 C   0  0  0  0  0  0  0  0  0  0  0  0
    4.7361    2.1225    2.1114 O   0  0  0  0  0  0  0  0  0  0  0  0
    7.0159    1.9789    1.3869 C   0  0  2  0  0  0  0  0  0  0  0  0
    7.6901    0.6484    1.1396 C   0  0  0  0  0  0  0  0  0  0  0  0
    9.1545    0.7142    1.3728 C   0  0  0  0  0  0  0  0  0  0  0  0
   10.0740    1.0426    0.4157 C   0  0  0  0  0  0  0  0  0  0  0  0
   11.4279    1.0844    0.6848 C   0  0  0  0  0  0  0  0  0  0  0  0
   11.8967    0.7924    1.9416 C   0  0  0  0  0  0  0  0  0  0  0  0
   10.9710    0.4617    2.9060 C   0  0  0  0  0  0  0  0  0  0  0  0
    9.6188    0.4166    2.6516 C   0  0  0  0  0  0  0  0  0  0  0  0
    7.1802    2.3078    2.7905 N   0  0  0  0  0  0  0  0  0  0  0  0
   -4.6822   -5.5876   -3.6482 N   0  0  0  0  0  0  0  0  0  0  0  0
   -3.1584   -3.2021   -4.5052 H   0  0  0  0  0  0  0  0  0  0  0  0
   -4.7354   -2.4327   -4.7062 H   0  0  0  0  0  0  0  0  0  0  0  0
   -6.6231   -2.1505   -2.3534 H   0  0  0  0  0  0  0  0  0  0  0  0
   -4.9247   -1.7382   -2.5241 H   0  0  0  0  0  0  0  0  0  0  0  0
   -5.9809   -1.3780   -0.0972 H   0  0  0  0  0  0  0  0  0  0  0  0
   -6.4465   -3.0618   -0.2133 H   0  0  0  0  0  0  0  0  0  0  0  0
   -4.2651   -3.9215   -0.0538 H   0  0  0  0  0  0  0  0  0  0  0  0
   -4.6124   -2.8145    1.2767 H   0  0  0  0  0  0  0  0  0  0  0  0
   -2.7234   -2.1658   -1.0817 H   0  0  0  0  0  0  0  0  0  0  0  0
   -2.1767   -3.0884    1.7251 H   0  0  0  0  0  0  0  0  0  0  0  0
    0.5866   -2.9914    1.6550 H   0  0  0  0  0  0  0  0  0  0  0  0
   -0.3139   -5.7766    0.7253 H   0  0  0  0  0  0  0  0  0  0  0  0
   -0.8084   -4.9307    2.2361 H   0  0  0  0  0  0  0  0  0  0  0  0
    1.8277   -6.8085    0.4521 H   0  0  0  0  0  0  0  0  0  0  0  0
    3.7422   -7.7669    1.6387 H   0  0  0  0  0  0  0  0  0  0  0  0
    4.2057   -7.2095    3.9355 H   0  0  0  0  0  0  0  0  0  0  0  0
    2.7161   -5.6069    5.1924 H   0  0  0  0  0  0  0  0  0  0  0  0
    0.7721   -4.6182    4.0216 H   0  0  0  0  0  0  0  0  0  0  0  0
    1.5420   -4.6386   -0.6712 H   0  0  0  0  0  0  0  0  0  0  0  0
    3.0546   -2.1771   -2.0610 H   0  0  0  0  0  0  0  0  0  0  0  0
    5.4440   -2.8886   -1.8413 H   0  0  0  0  0  0  0  0  0  0  0  0
    5.0908   -3.7945   -0.3744 H   0  0  0  0  0  0  0  0  0  0  0  0
    6.2473   -5.6196   -2.0048 H   0  0  0  0  0  0  0  0  0  0  0  0
    2.2804   -4.5842   -2.8242 H   0  0  0  0  0  0  0  0  0  0  0  0
    1.5792   -6.6140   -4.3277 H   0  0  0  0  0  0  0  0  0  0  0  0
    3.0539   -7.2419   -5.1261 H   0  0  0  0  0  0  0  0  0  0  0  0
    2.3825   -8.1187   -3.6517 H   0  0  0  0  0  0  0  0  0  0  0  0
    4.9807   -1.0288   -0.1011 H   0  0  0  0  0  0  0  0  0  0  0  0
    3.0273    1.6530    0.4006 H   0  0  0  0  0  0  0  0  0  0  0  0
    3.5480    2.1522   -2.5754 H   0  0  0  0  0  0  0  0  0  0  0  0
    3.4351    3.3768   -1.2178 H   0  0  0  0  0  0  0  0  0  0  0  0
    0.9213    5.0819   -0.4089 H   0  0  0  0  0  0  0  0  0  0  0  0
   -0.1163    5.0046    1.0616 H   0  0  0  0  0  0  0  0  0  0  0  0
   -0.8418    3.8775   -1.7204 H   0  0  0  0  0  0  0  0  0  0  0  0
   -2.6339    4.0937    0.6947 H   0  0  0  0  0  0  0  0  0  0  0  0
   -3.3113    1.5976    1.2842 H   0  0  0  0  0  0  0  0  0  0  0  0
   -4.3757    0.0748   -1.1110 H   0  0  0  0  0  0  0  0  0  0  0  0
   -4.6549    3.4843    0.6627 H   0  0  0  0  0  0  0  0  0  0  0  0
   -5.1257    2.7466   -0.8949 H   0  0  0  0  0  0  0  0  0  0  0  0
   -7.2052    1.2331   -0.9169 H   0  0  0  0  0  0  0  0  0  0  0  0
   -8.9516    0.4773    0.7503 H   0  0  0  0  0  0  0  0  0  0  0  0
   -4.8107    2.8078    3.2018 H   0  0  0  0  0  0  0  0  0  0  0  0
   -5.8884    2.4521    5.4519 H   0  0  0  0  0  0  0  0  0  0  0  0
   -8.0859    1.3364    5.5902 H   0  0  0  0  0  0  0  0  0  0  0  0
   -9.2523    0.5604    3.5556 H   0  0  0  0  0  0  0  0  0  0  0  0
   -3.5726    5.5948   -0.2845 H   0  0  0  0  0  0  0  0  0  0  0  0
   -2.5971    8.1667   -1.5892 H   0  0  0  0  0  0  0  0  0  0  0  0
   -5.3583    9.6479    0.5646 H   0  0  0  0  0  0  0  0  0  0  0  0
   -3.7461   10.2916   -0.0343 H   0  0  0  0  0  0  0  0  0  0  0  0
   -5.3653    6.8431   -1.5357 H   0  0  0  0  0  0  0  0  0  0  0  0
   -4.2449    7.4350   -3.9699 H   0  0  0  0  0  0  0  0  0  0  0  0
   -5.9843    9.0798   -1.6781 H   0  0  0  0  0  0  0  0  0  0  0  0
   -5.5351    8.7736   -3.3809 H   0  0  0  0  0  0  0  0  0  0  0  0
   -4.3358    9.5528   -2.2976 H   0  0  0  0  0  0  0  0  0  0  0  0
    5.7823    1.3346   -0.8930 H   0  0  0  0  0  0  0  0  0  0  0  0
    7.4662    2.7840    0.8036 H   0  0  0  0  0  0  0  0  0  0  0  0
    7.4885    0.2877    0.0916 H   0  0  0  0  0  0  0  0  0  0  0  0
    7.2879   -0.1440    1.7956 H   0  0  0  0  0  0  0  0  0  0  0  0
    9.7065    1.2723   -0.5706 H   0  0  0  0  0  0  0  0  0  0  0  0
   12.1016    1.3528   -0.1233 H   0  0  0  0  0  0  0  0  0  0  0  0
   12.9528    0.8278    2.1411 H   0  0  0  0  0  0  0  0  0  0  0  0
   11.3076    0.2263    3.9061 H   0  0  0  0  0  0  0  0  0  0  0  0
    8.9004    0.1483    3.4432 H   0  0  0  0  0  0  0  0  0  0  0  0
    6.4616    3.0437    3.0004 H   0  0  0  0  0  0  0  0  0  0  0  0
    6.8542    1.4693    3.3580 H   0  0  0  0  0  0  0  0  0  0  0  0
   -4.1705   -6.1995   -2.9517 H   0  0  0  0  0  0  0  0  0  0  0  0
   -5.1086   -6.0430   -4.4949 H   0  0  0  0  0  0  0  0  0  0  0  0
  1  2  1  0
  2  3  2  3
  3  4  1  0
  4  5  1  0
  5  6  1  0
  6  7  1  0
  7  8  1  0
  8  9  1  0
  9 10  2  0
  9 11  1  0
 11 12  1  0
 12 13  1  0
 13 14  2  0
 14 15  1  0
 15 16  2  0
 16 17  1  0
 17 18  2  0
 11 19  1  0
 19 20  1  0
 20 21  2  0
 20 22  1  0
 22 23  1  0
 23 24  1  0
 24 25  2  0
 25 26  1  0
 26 27  2  0
 27 28  1  0
 27 29  1  0
 22 30  1  0
 30 31  1  0
 31 32  2  0
 31 33  1  0
 33 34  1  0
 34 35  1  0
 35 36  1  0
 36 37  1  0
 37 38  1  0
 38 39  1  0
 39 40  1  0
 40 41  2  0
 40 42  1  0
 42 43  1  0
 43 44  1  0
 44 45  2  0
 42 46  1  0
 46 47  1  0
 47 48  2  0
 48 49  1  0
 49 50  1  0
 50 51  2  0
 51 52  1  0
 52 53  2  0
 53 54  1  0
 54 55  2  0
 38 56  1  0
 56 57  2  0
 56 58  1  0
 58 59  1  0
 59 60  1  0
 60 61  2  0
 60 62  1  0
 59 63  1  0
 63 64  1  0
 63 65  1  0
 33 66  1  0
 66 67  1  0
 67 68  2  0
 67 69  1  0
 69 70  1  0
 70 71  1  0
 71 72  2  0
 72 73  1  0
 73 74  2  0
 74 75  1  0
 75 76  2  0
 69 77  1  0
  2 78  1  0
 44  7  1  0
 51 47  1  0
 76 71  1  0
 18 13  1  0
 28 24  1  0
 55 50  1  0
  1 79  1  0
  1 80  1  0
  4 81  1  0
  4 82  1  0
  5 83  1  0
  5 84  1  0
  6 85  1  0
  6 86  1  0
  7 87  1  6
  8 88  1  0
 11 89  1  1
 12 90  1  0
 12 91  1  0
 14 92  1  0
 15 93  1  0
 16 94  1  0
 17 95  1  0
 18 96  1  0
 19 97  1  0
 22 98  1  6
 23 99  1  0
 23100  1  0
 25101  1  0
 28102  1  0
 29103  1  0
 29104  1  0
 29105  1  0
 30106  1  0
 33107  1  1
 34108  1  0
 34109  1  0
 37110  1  0
 37111  1  0
 38112  1  6
 39113  1  0
 42114  1  1
 43115  1  0
 46116  1  0
 46117  1  0
 48118  1  0
 49119  1  0
 52120  1  0
 53121  1  0
 54122  1  0
 55123  1  0
 58124  1  0
 59125  1  6
 62126  1  0
 62127  1  0
 63128  1  1
 64129  1  0
 65130  1  0
 65131  1  0
 65132  1  0
 66133  1  0
 69134  1  6
 70135  1  0
 70136  1  0
 72137  1  0
 73138  1  0
 74139  1  0
 75140  1  0
 76141  1  0
 77142  1  0
 77143  1  0
 78144  1  0
 78145  1  0
M  END
>  <Ligand ID>  (1) 
LIG0000964

>  <Ligand>  (1) 
CHEMBL411378

>  <SMILES>  (1) 
NC(=NCCC[C@@H]1NC(=O)[C@@H](Cc2ccccc2)NC(=O)[C@H](Cc2cnc([nH]2)C)NC(=O)[C@H](CSSC[C@@H](NC(=O)[C@H](NC1=O)Cc1c[nH]c2c1cccc2)C(=O)N[C@H](C(=O)N)[C@H](O)C)NC(=O)[C@H](Cc1ccccc1)N)N

>  <CID>  (1) 
44285102.0

>  <ChEMBL ID>  (1) 
nan

>  <InChiKey>  (1) 
HEOQNUAQOHARQX-UCJIMMPYSA-N

>  <InChi>  (1) 
InChI=1S/C52H67N15O9S2/c1-28(68)43(44(54)69)67-51(76)42-27-78-77-26-41(65-45(70)35(53)20-30-12-5-3-6-13-30)50(75)64-40(23-33-25-58-29(2)60-33)49(74)62-38(21-31-14-7-4-8-15-31)47(72)61-37(18-11-19-57-52(55)56)46(71)63-39(48(73)66-42)22-32-24-59-36-17-10-9-16-34(32)36/h3-10,12-17,24-25,28,35,37-43,59,68H,11,18-23,26-27,53H2,1-2H3,(H2,54,69)(H,58,60)(H,61,72)(H,62,74)(H,63,71)(H,64,75)(H,65,70)(H,66,73)(H,67,76)(H4,55,56,57)/t28-,35+,37+,38-,39-,40+,41+,42-,43+/m1/s1

>  <IUPAC Name>  (1) 
(4S,7R,10S,13R,16S,19R)-N-[(2S,3R)-1-amino-3-hydroxy-1-oxobutan-2-yl]-19-[[(2S)-2-amino-3-phenylpropanoyl]amino]-13-benzyl-10-[3-(diaminomethylideneamino)propyl]-7-(1H-indol-3-ylmethyl)-16-[(2-methyl-1H-imidazol-5-yl)methyl]-6,9,12,15,18-pentaoxo-1,2-dithia-5,8,11,14,17-pentazacycloicosane-4-carboxamide

$$$$
