
     RDKit          3D

 26 27  0  0  0  0  0  0  0  0999 V2000
   -0.6801    2.2415    0.5476 C   0  0  0  0  0  0  0  0  0  0  0  0
   -0.1297    1.1069    0.0859 C   0  0  0  0  0  0  0  0  0  0  0  0
    1.2583    0.9171   -0.3848 C   0  0  1  0  0  0  0  0  0  0  0  0
    2.0258    0.1435    0.6580 C   0  0  0  0  0  0  0  0  0  0  0  0
    1.3451   -1.2222    0.5999 C   0  0  0  0  0  0  0  0  0  0  0  0
    0.3061   -1.1112   -0.4685 C   0  0  1  0  0  0  0  0  0  0  0  0
   -0.8109   -0.2139   -0.0500 C   0  0  0  0  0  0  0  0  0  0  0  0
   -1.4866   -0.6320    1.2254 C   0  0  0  0  0  0  0  0  0  0  0  0
   -1.8879   -0.1419   -1.0998 C   0  0  0  0  0  0  0  0  0  0  0  0
    1.0583   -0.1852   -1.4260 C   0  0  0  0  0  0  0  0  0  0  0  0
   -1.7231    2.2289    0.8611 H   0  0  0  0  0  0  0  0  0  0  0  0
   -0.0720    3.1275    0.5928 H   0  0  0  0  0  0  0  0  0  0  0  0
    1.7636    1.7996   -0.7712 H   0  0  0  0  0  0  0  0  0  0  0  0
    2.0022    0.5911    1.6670 H   0  0  0  0  0  0  0  0  0  0  0  0
    3.0722    0.0214    0.3008 H   0  0  0  0  0  0  0  0  0  0  0  0
    0.9849   -1.5664    1.5756 H   0  0  0  0  0  0  0  0  0  0  0  0
    2.0772   -2.0122    0.2600 H   0  0  0  0  0  0  0  0  0  0  0  0
    0.0258   -2.0568   -0.9368 H   0  0  0  0  0  0  0  0  0  0  0  0
   -1.4152    0.2033    1.9447 H   0  0  0  0  0  0  0  0  0  0  0  0
   -2.5664   -0.8648    1.1115 H   0  0  0  0  0  0  0  0  0  0  0  0
   -1.0516   -1.5279    1.7077 H   0  0  0  0  0  0  0  0  0  0  0  0
   -2.4035    0.8591   -1.0111 H   0  0  0  0  0  0  0  0  0  0  0  0
   -1.5406   -0.2997   -2.1203 H   0  0  0  0  0  0  0  0  0  0  0  0
   -2.6647   -0.9126   -0.9138 H   0  0  0  0  0  0  0  0  0  0  0  0
    2.0403   -0.6284   -1.6699 H   0  0  0  0  0  0  0  0  0  0  0  0
    0.4724    0.1353   -2.2860 H   0  0  0  0  0  0  0  0  0  0  0  0
  1  2  2  0
  2  3  1  0
  3  4  1  0
  4  5  1  0
  5  6  1  0
  6  7  1  0
  7  8  1  0
  7  9  1  0
  6 10  1  0
  7  2  1  0
 10  3  1  0
  1 11  1  0
  1 12  1  0
  3 13  1  6
  4 14  1  0
  4 15  1  0
  5 16  1  0
  5 17  1  0
  6 18  1  6
  8 19  1  0
  8 20  1  0
  8 21  1  0
  9 22  1  0
  9 23  1  0
  9 24  1  0
 10 25  1  0
 10 26  1  0
M  END
>  <Ligand ID>  (1) 
LIG0000205

>  <Ligand>  (1) 
(+)-Camphene

>  <SMILES>  (1) 
C=C1[C@H]2CC[C@@H](C1(C)C)C2

>  <CID>  (1) 
92221.0

>  <ChEMBL ID>  (1) 
nan

>  <InChiKey>  (1) 
CRPUJAZIXJMDBK-DTWKUNHWSA-N

>  <InChi>  (1) 
InChI=1S/C10H16/c1-7-8-4-5-9(6-8)10(7,2)3/h8-9H,1,4-6H2,2-3H3/t8-,9+/m0/s1

>  <IUPAC Name>  (1) 
(1R,4S)-2,2-dimethyl-3-methylidenebicyclo[2.2.1]heptane

$$$$
