
     RDKit          3D

 30 31  0  0  0  0  0  0  0  0999 V2000
   -2.5362    2.7030   -0.2094 C   0  0  0  0  0  0  0  0  0  0  0  0
   -2.1981    1.7483    1.3153 S   0  0  0  0  0  0  0  0  0  0  0  0
   -2.4558    0.0324    0.8576 C   0  0  0  0  0  0  0  0  0  0  0  0
   -3.6998   -0.5635    0.9836 C   0  0  0  0  0  0  0  0  0  0  0  0
   -3.8866   -1.8885    0.6271 C   0  0  0  0  0  0  0  0  0  0  0  0
   -2.7898   -2.5768    0.1473 C   0  0  0  0  0  0  0  0  0  0  0  0
   -1.5392   -2.0012    0.0135 C   0  0  0  0  0  0  0  0  0  0  0  0
   -1.3662   -0.6664    0.3763 C   0  0  0  0  0  0  0  0  0  0  0  0
   -0.0808   -0.0611    0.2429 N   0  0  0  0  0  0  0  0  0  0  0  0
    1.0241   -0.8152   -0.2589 C   0  0  0  0  0  0  0  0  0  0  0  0
    2.2818   -0.0299   -0.3310 C   0  0  0  0  0  0  0  0  0  0  0  0
    2.4042    1.2174    0.0176 N   0  0  0  0  0  0  0  0  0  0  0  0
    3.7683    1.6655   -0.1832 C   0  0  0  0  0  0  0  0  0  0  0  0
    4.5741    0.3775   -0.3129 C   0  0  0  0  0  0  0  0  0  0  0  0
    3.5313   -0.5339   -0.7926 N   0  0  0  0  0  0  0  0  0  0  0  0
   -3.0058   -3.8817   -0.1958 F   0  0  0  0  0  0  0  0  0  0  0  0
   -3.6174    2.5461   -0.4514 H   0  0  0  0  0  0  0  0  0  0  0  0
   -1.9945    2.2904   -1.0730 H   0  0  0  0  0  0  0  0  0  0  0  0
   -2.2855    3.7691   -0.0532 H   0  0  0  0  0  0  0  0  0  0  0  0
   -4.4902    0.0467    1.3641 H   0  0  0  0  0  0  0  0  0  0  0  0
   -4.8683   -2.3366    0.7333 H   0  0  0  0  0  0  0  0  0  0  0  0
   -0.7009   -2.5731   -0.3672 H   0  0  0  0  0  0  0  0  0  0  0  0
    0.0229    0.9380    0.5208 H   0  0  0  0  0  0  0  0  0  0  0  0
    0.7324   -1.2111   -1.2471 H   0  0  0  0  0  0  0  0  0  0  0  0
    1.2034   -1.6668    0.4428 H   0  0  0  0  0  0  0  0  0  0  0  0
    3.9000    2.2095   -1.1404 H   0  0  0  0  0  0  0  0  0  0  0  0
    4.1523    2.2013    0.6999 H   0  0  0  0  0  0  0  0  0  0  0  0
    4.9222   -0.0050    0.6756 H   0  0  0  0  0  0  0  0  0  0  0  0
    5.3797    0.4571   -1.0427 H   0  0  0  0  0  0  0  0  0  0  0  0
    3.6184   -1.3916   -1.3589 H   0  0  0  0  0  0  0  0  0  0  0  0
  1  2  1  0
  2  3  1  0
  3  4  2  0
  4  5  1  0
  5  6  2  0
  6  7  1  0
  7  8  2  0
  8  9  1  0
  9 10  1  0
 10 11  1  0
 11 12  2  0
 12 13  1  0
 13 14  1  0
 14 15  1  0
  6 16  1  0
  8  3  1  0
 15 11  1  0
  1 17  1  0
  1 18  1  0
  1 19  1  0
  4 20  1  0
  5 21  1  0
  7 22  1  0
  9 23  1  0
 10 24  1  0
 10 25  1  0
 13 26  1  0
 13 27  1  0
 14 28  1  0
 14 29  1  0
 15 30  1  0
M  END
>  <Ligand ID>  (1) 
LIG0001010

>  <Ligand>  (1) 
CHEMBL72768

>  <SMILES>  (1) 
CSc1ccc(cc1NCC1=NCCN1)F

>  <CID>  (1) 
11140347.0

>  <ChEMBL ID>  (1) 
nan

>  <InChiKey>  (1) 
BCCMUPQZPVRDCD-UHFFFAOYSA-N

>  <InChi>  (1) 
InChI=1S/C11H14FN3S/c1-16-10-3-2-8(12)6-9(10)15-7-11-13-4-5-14-11/h2-3,6,15H,4-5,7H2,1H3,(H,13,14)

>  <IUPAC Name>  (1) 
N-(4,5-dihydro-1H-imidazol-2-ylmethyl)-5-fluoro-2-methylsulfanylaniline

$$$$
