
     RDKit          3D

 40 42  0  0  0  0  0  0  0  0999 V2000
    4.2936   -0.1473   -1.4983 C   0  0  0  0  0  0  0  0  0  0  0  0
    3.4844   -0.2143   -0.1934 C   0  0  0  0  0  0  0  0  0  0  0  0
    3.8337    0.9797    0.6164 C   0  0  0  0  0  0  0  0  0  0  0  0
    3.0590    1.1218    2.1796 S   0  0  0  0  0  0  0  0  0  0  0  0
    3.5882    2.3737    2.8699 O   0  0  0  0  0  0  0  0  0  0  0  0
    3.5178   -0.0316    3.0645 O   0  0  0  0  0  0  0  0  0  0  0  0
    1.3610    1.1803    2.1545 N   0  0  0  0  0  0  0  0  0  0  0  0
    0.5070    0.1494    1.6799 C   0  0  0  0  0  0  0  0  0  0  0  0
    0.8527   -1.1851    1.6598 C   0  0  0  0  0  0  0  0  0  0  0  0
    0.0108   -2.1830    1.2172 C   0  0  0  0  0  0  0  0  0  0  0  0
   -1.2513   -1.8721    0.7628 C   0  0  0  0  0  0  0  0  0  0  0  0
   -1.6340   -0.5464    0.7676 C   0  0  0  0  0  0  0  0  0  0  0  0
   -0.7806    0.4421    1.2135 C   0  0  0  0  0  0  0  0  0  0  0  0
   -1.4254    1.7770    1.1175 C   0  0  0  0  0  0  0  0  0  0  0  0
   -2.5644    1.5640    0.1371 C   0  0  0  0  0  0  0  0  0  0  0  0
   -2.9015    0.1285    0.3532 C   0  0  0  0  0  0  0  0  0  0  0  0
   -3.4570   -0.4894   -0.8765 C   0  0  0  0  0  0  0  0  0  0  0  0
   -4.3175   -1.5102   -0.8949 N   0  0  0  0  0  0  0  0  0  0  0  0
   -4.6437   -1.8555   -2.1428 C   0  0  0  0  0  0  0  0  0  0  0  0
   -3.9405   -0.9930   -2.9718 C   0  0  0  0  0  0  0  0  0  0  0  0
   -3.2339   -0.1813   -2.1691 N   0  0  0  0  0  0  0  0  0  0  0  0
    3.6449    0.0226   -2.3734 H   0  0  0  0  0  0  0  0  0  0  0  0
    4.8155   -1.1033   -1.6473 H   0  0  0  0  0  0  0  0  0  0  0  0
    5.0665    0.6464   -1.4410 H   0  0  0  0  0  0  0  0  0  0  0  0
    2.4130   -0.2266   -0.4936 H   0  0  0  0  0  0  0  0  0  0  0  0
    3.7233   -1.1618    0.3218 H   0  0  0  0  0  0  0  0  0  0  0  0
    4.9525    0.9830    0.7604 H   0  0  0  0  0  0  0  0  0  0  0  0
    3.6367    1.8956    0.0196 H   0  0  0  0  0  0  0  0  0  0  0  0
    0.8783    2.0383    2.5137 H   0  0  0  0  0  0  0  0  0  0  0  0
    1.8473   -1.4514    2.0154 H   0  0  0  0  0  0  0  0  0  0  0  0
    0.3905   -3.2011    1.2469 H   0  0  0  0  0  0  0  0  0  0  0  0
   -1.9137   -2.6302    0.4177 H   0  0  0  0  0  0  0  0  0  0  0  0
   -0.7442    2.5746    0.7641 H   0  0  0  0  0  0  0  0  0  0  0  0
   -1.8691    2.1041    2.0747 H   0  0  0  0  0  0  0  0  0  0  0  0
   -2.1927    1.8011   -0.8597 H   0  0  0  0  0  0  0  0  0  0  0  0
   -3.4531    2.1996    0.4192 H   0  0  0  0  0  0  0  0  0  0  0  0
   -3.6526    0.0707    1.1886 H   0  0  0  0  0  0  0  0  0  0  0  0
   -5.3058   -2.6289   -2.5148 H   0  0  0  0  0  0  0  0  0  0  0  0
   -3.9903   -1.0157   -4.0586 H   0  0  0  0  0  0  0  0  0  0  0  0
   -2.6055    0.5756   -2.4973 H   0  0  0  0  0  0  0  0  0  0  0  0
  1  2  1  0
  2  3  1  0
  3  4  1  0
  4  5  2  0
  4  6  2  0
  4  7  1  0
  7  8  1  0
  8  9  2  0
  9 10  1  0
 10 11  2  0
 11 12  1  0
 12 13  2  0
 13 14  1  0
 14 15  1  0
 15 16  1  0
 16 17  1  0
 17 18  2  0
 18 19  1  0
 19 20  2  0
 20 21  1  0
 13  8  1  0
 21 17  1  0
 16 12  1  0
  1 22  1  0
  1 23  1  0
  1 24  1  0
  2 25  1  0
  2 26  1  0
  3 27  1  0
  3 28  1  0
  7 29  1  0
  9 30  1  0
 10 31  1  0
 11 32  1  0
 14 33  1  0
 14 34  1  0
 15 35  1  0
 15 36  1  0
 16 37  1  0
 19 38  1  0
 20 39  1  0
 21 40  1  0
M  END
>  <Ligand ID>  (1) 
LIG0004360

>  <Ligand>  (1) 
CHEMBL257801

>  <SMILES>  (1) 
CCCS(=O)(=O)Nc1cccc2c1CCC2c1ncc[nH]1

>  <CID>  (1) 
44449306.0

>  <ChEMBL ID>  (1) 
nan

>  <InChiKey>  (1) 
OMYKQBBXHBDIND-UHFFFAOYSA-N

>  <InChi>  (1) 
InChI=1S/C15H19N3O2S/c1-2-10-21(19,20)18-14-5-3-4-11-12(14)6-7-13(11)15-16-8-9-17-15/h3-5,8-9,13,18H,2,6-7,10H2,1H3,(H,16,17)

>  <IUPAC Name>  (1) 
N-[1-(1H-imidazol-2-yl)-2,3-dihydro-1H-inden-4-yl]propane-1-sulfonamide

$$$$
