
     RDKit          3D

 33 36  0  0  0  0  0  0  0  0999 V2000
   -0.9499   -3.6318   -0.7849 C   0  0  0  0  0  0  0  0  0  0  0  0
   -2.2777   -3.2698   -0.6677 C   0  0  0  0  0  0  0  0  0  0  0  0
   -2.5537   -1.9583   -0.4172 C   0  0  0  0  0  0  0  0  0  0  0  0
   -1.5301   -1.0101   -0.2831 C   0  0  0  0  0  0  0  0  0  0  0  0
   -0.2017   -1.3498   -0.3963 C   0  0  0  0  0  0  0  0  0  0  0  0
    0.0389   -2.7132   -0.6549 C   0  0  0  0  0  0  0  0  0  0  0  0
    0.8956   -0.4616   -0.2760 C   0  0  2  0  0  0  0  0  0  0  0  0
    1.4787   -0.2685    1.1332 C   0  0  0  0  0  0  0  0  0  0  0  0
    2.6399    0.6079    0.7123 C   0  0  0  0  0  0  0  0  0  0  0  0
    2.2536    1.3169   -0.3908 N   0  0  0  0  0  0  0  0  0  0  0  0
    0.8546    0.9433   -0.7127 C   0  0  0  0  0  0  0  0  0  0  0  0
    3.2917    2.0792   -0.7500 C   0  0  0  0  0  0  0  0  0  0  0  0
    4.3545    1.8646    0.1225 C   0  0  0  0  0  0  0  0  0  0  0  0
    3.9081    0.9447    1.0149 N   0  0  0  0  0  0  0  0  0  0  0  0
   -1.9651    0.3167   -0.0217 N   0  0  0  0  0  0  0  0  0  0  0  0
   -2.3642    1.1750   -1.0071 C   0  0  0  0  0  0  0  0  0  0  0  0
   -2.7335    2.3730   -0.4284 C   0  0  0  0  0  0  0  0  0  0  0  0
   -2.5353    2.1823    0.9318 C   0  0  0  0  0  0  0  0  0  0  0  0
   -2.0728    0.9402    1.1602 N   0  0  0  0  0  0  0  0  0  0  0  0
   -0.7197   -4.6748   -0.9844 H   0  0  0  0  0  0  0  0  0  0  0  0
   -3.0600   -3.9876   -0.7689 H   0  0  0  0  0  0  0  0  0  0  0  0
   -3.5948   -1.6707   -0.3247 H   0  0  0  0  0  0  0  0  0  0  0  0
    1.0675   -3.0545   -0.7568 H   0  0  0  0  0  0  0  0  0  0  0  0
    1.7805   -0.9182   -0.8326 H   0  0  0  0  0  0  0  0  0  0  0  0
    0.8262    0.3687    1.7423 H   0  0  0  0  0  0  0  0  0  0  0  0
    1.8101   -1.2039    1.5853 H   0  0  0  0  0  0  0  0  0  0  0  0
    0.6680    1.1235   -1.7827 H   0  0  0  0  0  0  0  0  0  0  0  0
    0.2981    1.6589   -0.0643 H   0  0  0  0  0  0  0  0  0  0  0  0
    3.2921    2.7655   -1.6053 H   0  0  0  0  0  0  0  0  0  0  0  0
    5.3248    2.3474    0.0733 H   0  0  0  0  0  0  0  0  0  0  0  0
   -2.3882    0.9550   -2.0701 H   0  0  0  0  0  0  0  0  0  0  0  0
   -3.0919    3.2454   -0.9387 H   0  0  0  0  0  0  0  0  0  0  0  0
   -2.7442    2.9647    1.6468 H   0  0  0  0  0  0  0  0  0  0  0  0
  1  2  2  0
  2  3  1  0
  3  4  2  0
  4  5  1  0
  5  6  2  0
  5  7  1  0
  7  8  1  0
  8  9  1  0
  9 10  1  0
 10 11  1  0
 10 12  1  0
 12 13  2  0
 13 14  1  0
  4 15  1  0
 15 16  1  0
 16 17  2  0
 17 18  1  0
 18 19  2  0
  6  1  1  0
 11  7  1  0
 19 15  1  0
 14  9  2  0
  1 20  1  0
  2 21  1  0
  3 22  1  0
  6 23  1  0
  7 24  1  6
  8 25  1  0
  8 26  1  0
 11 27  1  0
 11 28  1  0
 12 29  1  0
 13 30  1  0
 16 31  1  0
 17 32  1  0
 18 33  1  0
M  END
>  <Ligand ID>  (1) 
LIG0002433

>  <Ligand>  (1) 
CHEMBL448908

>  <SMILES>  (1) 
c1ccc(c(c1)[C@@H]1Cc2n(C1)ccn2)n1cccn1

>  <CID>  (1) 
44574103.0

>  <ChEMBL ID>  (1) 
nan

>  <InChiKey>  (1) 
IPPGENORPYHMGX-GFCCVEGCSA-N

>  <InChi>  (1) 
InChI=1S/C15H14N4/c1-2-5-14(19-8-3-6-17-19)13(4-1)12-10-15-16-7-9-18(15)11-12/h1-9,12H,10-11H2/t12-/m1/s1

>  <IUPAC Name>  (1) 
(6S)-6-(2-pyrazol-1-ylphenyl)-6,7-dihydro-5H-pyrrolo[1,2-a]imidazole

$$$$
