
     RDKit          3D

 22 22  0  0  0  0  0  0  0  0999 V2000
   -2.3090   -0.5732   -0.9973 N   0  0  0  0  0  0  0  0  0  0  0  0
   -1.5866   -0.5927    0.2389 C   0  0  1  0  0  0  0  0  0  0  0  0
   -0.1537   -0.2415    0.1212 C   0  0  0  0  0  0  0  0  0  0  0  0
    0.8329   -0.9891    0.7735 C   0  0  0  0  0  0  0  0  0  0  0  0
    2.1649   -0.6343    0.6431 C   0  0  0  0  0  0  0  0  0  0  0  0
    3.1347   -1.3802    1.2925 O   0  0  0  0  0  0  0  0  0  0  0  0
    2.4627    0.4629   -0.1406 C   0  0  0  0  0  0  0  0  0  0  0  0
    1.5152    1.2093   -0.7882 C   0  0  0  0  0  0  0  0  0  0  0  0
    0.1969    0.8446   -0.6491 C   0  0  0  0  0  0  0  0  0  0  0  0
    1.8848    2.2957   -1.5568 O   0  0  0  0  0  0  0  0  0  0  0  0
   -2.2529    0.3126    1.2255 C   0  0  0  0  0  0  0  0  0  0  0  0
   -3.0743    1.2054    0.8584 O   0  0  0  0  0  0  0  0  0  0  0  0
   -1.9716    0.1795    2.5772 O   0  0  0  0  0  0  0  0  0  0  0  0
   -1.9560    0.0409   -1.7330 H   0  0  0  0  0  0  0  0  0  0  0  0
   -2.4286   -1.5442   -1.4136 H   0  0  0  0  0  0  0  0  0  0  0  0
   -3.2966   -0.2501   -0.8018 H   0  0  0  0  0  0  0  0  0  0  0  0
   -1.6443   -1.6174    0.6596 H   0  0  0  0  0  0  0  0  0  0  0  0
    0.4917   -1.8221    1.3570 H   0  0  0  0  0  0  0  0  0  0  0  0
    3.4374   -2.2481    0.9097 H   0  0  0  0  0  0  0  0  0  0  0  0
    3.5191    0.7203   -0.2264 H   0  0  0  0  0  0  0  0  0  0  0  0
   -0.5693    1.4190   -1.1511 H   0  0  0  0  0  0  0  0  0  0  0  0
    1.6025    3.2028   -1.1988 H   0  0  0  0  0  0  0  0  0  0  0  0
  1  2  1  0
  2  3  1  0
  3  4  2  0
  4  5  1  0
  5  6  1  0
  5  7  2  0
  7  8  1  0
  8  9  2  0
  8 10  1  0
  2 11  1  0
 11 12  2  0
 11 13  1  0
  9  3  1  0
  1 14  1  0
  1 15  1  0
  1 16  1  0
  2 17  1  1
  4 18  1  0
  6 19  1  0
  7 20  1  0
  9 21  1  0
 10 22  1  0
M  CHG  2   1   1  13  -1
M  END
>  <Ligand ID>  (1) 
LIG0005750

>  <Ligand>  (1) 
CHEBI:75204

>  <SMILES>  (1) 
[NH3+][C@@H](c1cc(O)cc(c1)O)C(=O)[O-]

>  <CID>  (1) 
71668376.0

>  <ChEMBL ID>  (1) 
nan

>  <InChiKey>  (1) 
HOOWCUZPEFNHDT-ZETCQYMHSA-N

>  <InChi>  (1) 
InChI=1S/C8H9NO4/c9-7(8(12)13)4-1-5(10)3-6(11)2-4/h1-3,7,10-11H,9H2,(H,12,13)/t7-/m0/s1

>  <IUPAC Name>  (1) 
(2S)-2-azaniumyl-2-(3,5-dihydroxyphenyl)acetate

$$$$
