
     RDKit          3D

 67 68  0  0  0  0  0  0  0  0999 V2000
    7.8050    1.2572    0.4368 C   0  0  0  0  0  0  0  0  0  0  0  0
    6.4185    1.0470    1.0277 C   0  0  0  0  0  0  0  0  0  0  0  0
    6.0871   -0.4279    1.1232 C   0  0  0  0  0  0  0  0  0  0  0  0
    4.7206   -0.5876    1.7083 C   0  0  0  0  0  0  0  0  0  0  0  0
    3.6401    0.0830    0.8898 C   0  0  0  0  0  0  0  0  0  0  0  0
    3.6347   -0.5311   -0.4771 C   0  0  0  0  0  0  0  0  0  0  0  0
    2.6066    0.0061   -1.4155 C   0  0  0  0  0  0  0  0  0  0  0  0
    1.2381   -0.2308   -0.9175 C   0  0  0  0  0  0  0  0  0  0  0  0
    0.8894   -1.1531    0.0307 C   0  0  0  0  0  0  0  0  0  0  0  0
   -0.4082   -1.2965    0.4596 C   0  0  0  0  0  0  0  0  0  0  0  0
   -1.4590   -0.5107   -0.0442 C   0  0  0  0  0  0  0  0  0  0  0  0
   -1.0912    0.4120   -0.9979 C   0  0  0  0  0  0  0  0  0  0  0  0
    0.2279    0.5554   -1.4313 C   0  0  0  0  0  0  0  0  0  0  0  0
   -2.0172    1.2389   -1.5673 O   0  0  0  0  0  0  0  0  0  0  0  0
   -2.7981   -0.7488    0.4641 C   0  0  2  0  0  0  0  0  0  0  0  0
   -3.3922   -1.9537   -0.2143 C   0  0  0  0  0  0  0  0  0  0  0  0
   -3.8403   -1.7402   -1.6168 C   0  0  2  0  0  0  0  0  0  0  0  0
   -2.7489   -1.6172   -2.4859 O   0  0  0  0  0  0  0  0  0  0  0  0
   -4.6989   -0.5352   -1.6647 C   0  0  0  0  0  0  0  0  0  0  0  0
   -4.9469    0.1378   -0.3323 C   0  0  0  0  0  0  0  0  0  0  0  0
   -3.7954    0.3376    0.5530 C   0  0  1  0  0  0  0  0  0  0  0  0
   -4.0555    0.5402    2.0231 C   0  0  0  0  0  0  0  0  0  0  0  0
   -4.9744    1.5333    2.5338 C   0  0  0  0  0  0  0  0  0  0  0  0
   -6.4163    1.3845    2.1551 C   0  0  0  0  0  0  0  0  0  0  0  0
   -6.8923    0.1237    2.5931 O   0  0  0  0  0  0  0  0  0  0  0  0
    2.8232    1.4609   -1.7538 C   0  0  0  0  0  0  0  0  0  0  0  0
    2.7561   -0.7668   -2.7288 C   0  0  0  0  0  0  0  0  0  0  0  0
    7.9963    0.5505   -0.3724 H   0  0  0  0  0  0  0  0  0  0  0  0
    7.8595    2.3197    0.1220 H   0  0  0  0  0  0  0  0  0  0  0  0
    8.5934    1.1432    1.2136 H   0  0  0  0  0  0  0  0  0  0  0  0
    5.7335    1.6105    0.3632 H   0  0  0  0  0  0  0  0  0  0  0  0
    6.3496    1.4732    2.0326 H   0  0  0  0  0  0  0  0  0  0  0  0
    6.2622   -0.9448    0.1789 H   0  0  0  0  0  0  0  0  0  0  0  0
    6.8300   -0.8517    1.8439 H   0  0  0  0  0  0  0  0  0  0  0  0
    4.6627   -0.3323    2.7735 H   0  0  0  0  0  0  0  0  0  0  0  0
    4.4736   -1.6902    1.6554 H   0  0  0  0  0  0  0  0  0  0  0  0
    3.8002    1.1922    0.8476 H   0  0  0  0  0  0  0  0  0  0  0  0
    2.7023   -0.0433    1.4487 H   0  0  0  0  0  0  0  0  0  0  0  0
    4.6628   -0.4708   -0.9425 H   0  0  0  0  0  0  0  0  0  0  0  0
    3.4899   -1.6210   -0.3232 H   0  0  0  0  0  0  0  0  0  0  0  0
    1.6223   -1.8128    0.4606 H   0  0  0  0  0  0  0  0  0  0  0  0
   -0.6422   -2.0497    1.2235 H   0  0  0  0  0  0  0  0  0  0  0  0
    0.4678    1.3082   -2.1961 H   0  0  0  0  0  0  0  0  0  0  0  0
   -1.9848    2.2409   -1.5438 H   0  0  0  0  0  0  0  0  0  0  0  0
   -2.6252   -1.1303    1.5317 H   0  0  0  0  0  0  0  0  0  0  0  0
   -4.2606   -2.3745    0.3313 H   0  0  0  0  0  0  0  0  0  0  0  0
   -2.6662   -2.8124   -0.2484 H   0  0  0  0  0  0  0  0  0  0  0  0
   -4.3964   -2.6410   -1.9955 H   0  0  0  0  0  0  0  0  0  0  0  0
   -2.5339   -2.4512   -2.9392 H   0  0  0  0  0  0  0  0  0  0  0  0
   -5.7178   -0.8478   -2.0501 H   0  0  0  0  0  0  0  0  0  0  0  0
   -4.3323    0.1450   -2.4567 H   0  0  0  0  0  0  0  0  0  0  0  0
   -5.8005   -0.4051    0.0964 H   0  0  0  0  0  0  0  0  0  0  0  0
   -5.3779    1.1433   -0.6667 H   0  0  0  0  0  0  0  0  0  0  0  0
   -3.3534    1.3561    0.2832 H   0  0  0  0  0  0  0  0  0  0  0  0
   -3.0513    0.6571    2.5691 H   0  0  0  0  0  0  0  0  0  0  0  0
   -4.3702   -0.4606    2.4956 H   0  0  0  0  0  0  0  0  0  0  0  0
   -4.9933    1.4181    3.6730 H   0  0  0  0  0  0  0  0  0  0  0  0
   -4.6302    2.6000    2.4528 H   0  0  0  0  0  0  0  0  0  0  0  0
   -6.6985    1.4925    1.1262 H   0  0  0  0  0  0  0  0  0  0  0  0
   -7.0409    2.0941    2.8177 H   0  0  0  0  0  0  0  0  0  0  0  0
   -7.4615   -0.3032    1.9148 H   0  0  0  0  0  0  0  0  0  0  0  0
    2.3906    2.1496   -1.0028 H   0  0  0  0  0  0  0  0  0  0  0  0
    2.4112    1.6280   -2.7698 H   0  0  0  0  0  0  0  0  0  0  0  0
    3.9215    1.5909   -1.8618 H   0  0  0  0  0  0  0  0  0  0  0  0
    2.1771   -1.7074   -2.6807 H   0  0  0  0  0  0  0  0  0  0  0  0
    2.3860   -0.1681   -3.5869 H   0  0  0  0  0  0  0  0  0  0  0  0
    3.8322   -1.0128   -2.8444 H   0  0  0  0  0  0  0  0  0  0  0  0
  1  2  1  0
  2  3  1  0
  3  4  1  0
  4  5  1  0
  5  6  1  0
  6  7  1  0
  7  8  1  0
  8  9  2  0
  9 10  1  0
 10 11  2  0
 11 12  1  0
 12 13  2  0
 12 14  1  0
 11 15  1  0
 15 16  1  0
 16 17  1  0
 17 18  1  0
 17 19  1  0
 19 20  1  0
 20 21  1  0
 21 22  1  0
 22 23  1  0
 23 24  1  0
 24 25  1  0
  7 26  1  0
  7 27  1  0
 13  8  1  0
 21 15  1  0
  1 28  1  0
  1 29  1  0
  1 30  1  0
  2 31  1  0
  2 32  1  0
  3 33  1  0
  3 34  1  0
  4 35  1  0
  4 36  1  0
  5 37  1  0
  5 38  1  0
  6 39  1  0
  6 40  1  0
  9 41  1  0
 10 42  1  0
 13 43  1  0
 14 44  1  0
 15 45  1  1
 16 46  1  0
 16 47  1  0
 17 48  1  6
 18 49  1  0
 19 50  1  0
 19 51  1  0
 20 52  1  0
 20 53  1  0
 21 54  1  6
 22 55  1  0
 22 56  1  0
 23 57  1  0
 23 58  1  0
 24 59  1  0
 24 60  1  0
 25 61  1  0
 26 62  1  0
 26 63  1  0
 26 64  1  0
 27 65  1  0
 27 66  1  0
 27 67  1  0
M  END
>  <Ligand ID>  (1) 
LIG0000592

>  <Ligand>  (1) 
CP55940

>  <SMILES>  (1) 
CCCCCCC(c1ccc(c(c1)O)[C@@H]1C[C@H](O)CC[C@H]1CCCO)(C)C

>  <CID>  (1) 
104895.0

>  <ChEMBL ID>  (1) 
nan

>  <InChiKey>  (1) 
YNZFFALZMRAPHQ-SYYKKAFVSA-N

>  <InChi>  (1) 
InChI=1S/C24H40O3/c1-4-5-6-7-14-24(2,3)19-11-13-21(23(27)16-19)22-17-20(26)12-10-18(22)9-8-15-25/h11,13,16,18,20,22,25-27H,4-10,12,14-15,17H2,1-3H3/t18-,20-,22-/m1/s1

>  <IUPAC Name>  (1) 
2-[(1R,2R,5R)-5-hydroxy-2-(3-hydroxypropyl)cyclohexyl]-5-(2-methyloctan-2-yl)phenol

$$$$
