
     RDKit          3D

 49 52  0  0  0  0  0  0  0  0999 V2000
    5.1045   -0.5925   -0.6510 O   0  0  0  0  0  0  0  0  0  0  0  0
    4.1338    0.2560   -1.1801 C   0  0  1  0  0  0  0  0  0  0  0  0
    3.1658   -0.4485   -2.0688 C   0  0  0  0  0  0  0  0  0  0  0  0
    2.0913   -1.2209   -1.3817 C   0  0  0  0  0  0  0  0  0  0  0  0
    1.4842   -0.4727   -0.1863 C   0  0  1  0  0  0  0  0  0  0  0  0
    1.9940    0.9231   -0.3247 C   0  0  0  0  0  0  0  0  0  0  0  0
    1.2069    1.9553   -0.6034 C   0  0  0  0  0  0  0  0  0  0  0  0
   -0.2592    1.8506   -0.8099 C   0  0  0  0  0  0  0  0  0  0  0  0
   -0.7555    0.7090    0.0050 C   0  0  2  0  0  0  0  0  0  0  0  0
    0.0171   -0.5789   -0.1582 C   0  0  2  0  0  0  0  0  0  0  0  0
   -0.4938   -1.4944    0.9628 C   0  0  0  0  0  0  0  0  0  0  0  0
   -1.9675   -1.8184    0.7413 C   0  0  0  0  0  0  0  0  0  0  0  0
   -2.7216   -0.5170    0.8443 C   0  0  1  0  0  0  0  0  0  0  0  0
   -2.1848    0.3552   -0.2657 C   0  0  1  0  0  0  0  0  0  0  0  0
   -3.1522    1.4671   -0.2776 C   0  0  0  0  0  0  0  0  0  0  0  0
   -4.4667    0.6730   -0.3052 C   0  0  0  0  0  0  0  0  0  0  0  0
   -4.1366   -0.6177    0.4062 C   0  0  0  0  0  0  0  0  0  0  0  0
   -4.9384   -1.4977    0.5393 O   0  0  0  0  0  0  0  0  0  0  0  0
   -2.7024    0.1062    2.1952 C   0  0  0  0  0  0  0  0  0  0  0  0
    3.4759    1.1323   -0.1396 C   0  0  0  0  0  0  0  0  0  0  0  0
    2.0531   -1.1688    1.0336 C   0  0  0  0  0  0  0  0  0  0  0  0
    5.9711   -0.1170   -0.5566 H   0  0  0  0  0  0  0  0  0  0  0  0
    4.7163    0.9549   -1.8515 H   0  0  0  0  0  0  0  0  0  0  0  0
    3.7624   -1.2009   -2.6480 H   0  0  0  0  0  0  0  0  0  0  0  0
    2.7041    0.1919   -2.8312 H   0  0  0  0  0  0  0  0  0  0  0  0
    1.2853   -1.4165   -2.1360 H   0  0  0  0  0  0  0  0  0  0  0  0
    2.4678   -2.2221   -1.1052 H   0  0  0  0  0  0  0  0  0  0  0  0
    1.6705    2.9333   -0.6839 H   0  0  0  0  0  0  0  0  0  0  0  0
   -0.7613    2.7593   -0.4406 H   0  0  0  0  0  0  0  0  0  0  0  0
   -0.5201    1.7434   -1.8899 H   0  0  0  0  0  0  0  0  0  0  0  0
   -0.5917    1.0015    1.0828 H   0  0  0  0  0  0  0  0  0  0  0  0
   -0.3412   -1.0609   -1.1111 H   0  0  0  0  0  0  0  0  0  0  0  0
    0.0539   -2.4279    1.0479 H   0  0  0  0  0  0  0  0  0  0  0  0
   -0.4952   -0.8559    1.8836 H   0  0  0  0  0  0  0  0  0  0  0  0
   -2.1788   -2.2883   -0.2167 H   0  0  0  0  0  0  0  0  0  0  0  0
   -2.2559   -2.4659    1.5946 H   0  0  0  0  0  0  0  0  0  0  0  0
   -2.2624   -0.2066   -1.1988 H   0  0  0  0  0  0  0  0  0  0  0  0
   -3.1274    2.1255    0.6071 H   0  0  0  0  0  0  0  0  0  0  0  0
   -3.1545    2.1186   -1.1643 H   0  0  0  0  0  0  0  0  0  0  0  0
   -4.6553    0.3656   -1.3603 H   0  0  0  0  0  0  0  0  0  0  0  0
   -5.2867    1.2117    0.1674 H   0  0  0  0  0  0  0  0  0  0  0  0
   -2.1814   -0.5144    2.9803 H   0  0  0  0  0  0  0  0  0  0  0  0
   -3.7369    0.2267    2.6308 H   0  0  0  0  0  0  0  0  0  0  0  0
   -2.2619    1.1162    2.2497 H   0  0  0  0  0  0  0  0  0  0  0  0
    3.8129    0.9462    0.8887 H   0  0  0  0  0  0  0  0  0  0  0  0
    3.6946    2.2275   -0.3122 H   0  0  0  0  0  0  0  0  0  0  0  0
    3.1232   -0.9353    1.2171 H   0  0  0  0  0  0  0  0  0  0  0  0
    2.0656   -2.2737    0.7952 H   0  0  0  0  0  0  0  0  0  0  0  0
    1.5349   -0.9373    1.9717 H   0  0  0  0  0  0  0  0  0  0  0  0
  1  2  1  0
  2  3  1  0
  3  4  1  0
  4  5  1  0
  5  6  1  0
  6  7  2  0
  7  8  1  0
  8  9  1  0
  9 10  1  0
 10 11  1  0
 11 12  1  0
 12 13  1  0
 13 14  1  0
 14 15  1  0
 15 16  1  0
 16 17  1  0
 17 18  2  0
 13 19  1  1
  6 20  1  0
  5 21  1  1
 20  2  1  0
 10  5  1  0
 17 13  1  0
 14  9  1  0
  1 22  1  0
  2 23  1  6
  3 24  1  0
  3 25  1  0
  4 26  1  0
  4 27  1  0
  7 28  1  0
  8 29  1  0
  8 30  1  0
  9 31  1  1
 10 32  1  6
 11 33  1  0
 11 34  1  0
 12 35  1  0
 12 36  1  0
 14 37  1  6
 15 38  1  0
 15 39  1  0
 16 40  1  0
 16 41  1  0
 19 42  1  0
 19 43  1  0
 19 44  1  0
 20 45  1  0
 20 46  1  0
 21 47  1  0
 21 48  1  0
 21 49  1  0
M  END
>  <Ligand ID>  (1) 
LIG0000449

>  <Ligand>  (1) 
Dehydroepiandrosterone

>  <SMILES>  (1) 
O[C@H]1CC[C@]2(C(=CC[C@@H]3[C@@H]2CC[C@]2([C@H]3CCC2=O)C)C1)C

>  <CID>  (1) 
5881.0

>  <ChEMBL ID>  (1) 
nan

>  <InChiKey>  (1) 
FMGSKLZLMKYGDP-USOAJAOKSA-N

>  <InChi>  (1) 
InChI=1S/C19H28O2/c1-18-9-7-13(20)11-12(18)3-4-14-15-5-6-17(21)19(15,2)10-8-16(14)18/h3,13-16,20H,4-11H2,1-2H3/t13-,14-,15-,16-,18-,19-/m0/s1

>  <IUPAC Name>  (1) 
(3S,8R,9S,10R,13S,14S)-3-hydroxy-10,13-dimethyl-1,2,3,4,7,8,9,11,12,14,15,16-dodecahydrocyclopenta[a]phenanthren-17-one

$$$$
