
     RDKit          3D

 41 44  0  0  0  0  0  0  0  0999 V2000
    7.1544    2.3919    1.4544 Br  0  0  0  0  0  0  0  0  0  0  0  0
    5.9108    1.1785    0.6715 C   0  0  0  0  0  0  0  0  0  0  0  0
    5.0817    1.5283   -0.3664 C   0  0  0  0  0  0  0  0  0  0  0  0
    4.1881    0.6414   -0.9237 C   0  0  0  0  0  0  0  0  0  0  0  0
    4.0729   -0.6445   -0.4745 C   0  0  0  0  0  0  0  0  0  0  0  0
    4.9103   -1.0135    0.5806 C   0  0  0  0  0  0  0  0  0  0  0  0
    5.8111   -0.1321    1.1476 C   0  0  0  0  0  0  0  0  0  0  0  0
    3.1576   -1.6618   -0.9890 C   0  0  0  0  0  0  0  0  0  0  0  0
    1.5827   -1.7788   -0.1409 S   0  0  0  0  0  0  0  0  0  0  0  0
    0.6332   -0.3089   -0.4364 C   0  0  0  0  0  0  0  0  0  0  0  0
    0.9049    0.7890   -1.1527 N   0  0  0  0  0  0  0  0  0  0  0  0
   -0.1069    1.6309   -1.0857 N   0  0  0  0  0  0  0  0  0  0  0  0
   -1.0578    1.0642   -0.3067 C   0  0  0  0  0  0  0  0  0  0  0  0
   -0.6101   -0.1272    0.0955 N   0  0  0  0  0  0  0  0  0  0  0  0
   -1.3539   -1.0212    0.9445 C   0  0  0  0  0  0  0  0  0  0  0  0
   -2.2245   -1.9635    0.1939 C   0  0  0  0  0  0  0  0  0  0  0  0
   -3.5524   -1.7644   -0.1783 C   0  0  0  0  0  0  0  0  0  0  0  0
   -3.8957   -2.9279   -0.8483 C   0  0  0  0  0  0  0  0  0  0  0  0
   -2.8115   -3.7670   -0.8640 C   0  0  0  0  0  0  0  0  0  0  0  0
   -1.8492   -3.1452   -0.2325 O   0  0  0  0  0  0  0  0  0  0  0  0
   -2.3283    1.7090   -0.0034 C   0  0  0  0  0  0  0  0  0  0  0  0
   -2.6689    2.1662    1.2524 C   0  0  0  0  0  0  0  0  0  0  0  0
   -3.8964    2.7662    1.4418 C   0  0  0  0  0  0  0  0  0  0  0  0
   -4.7838    2.9076    0.3691 C   0  0  0  0  0  0  0  0  0  0  0  0
   -4.4082    2.4375   -0.8744 C   0  0  0  0  0  0  0  0  0  0  0  0
   -3.1928    1.8457   -1.0522 N   0  0  0  0  0  0  0  0  0  0  0  0
    5.1604    2.5437   -0.7334 H   0  0  0  0  0  0  0  0  0  0  0  0
    3.5837    0.9763   -1.7278 H   0  0  0  0  0  0  0  0  0  0  0  0
    4.8652   -2.0262    0.9827 H   0  0  0  0  0  0  0  0  0  0  0  0
    6.4525   -0.4621    1.9768 H   0  0  0  0  0  0  0  0  0  0  0  0
    3.6615   -2.6523   -0.9361 H   0  0  0  0  0  0  0  0  0  0  0  0
    3.0034   -1.4717   -2.0880 H   0  0  0  0  0  0  0  0  0  0  0  0
   -0.6285   -1.6315    1.5365 H   0  0  0  0  0  0  0  0  0  0  0  0
   -2.0241   -0.4434    1.6120 H   0  0  0  0  0  0  0  0  0  0  0  0
   -4.1227   -0.8861    0.0369 H   0  0  0  0  0  0  0  0  0  0  0  0
   -4.8636   -3.0909   -1.2647 H   0  0  0  0  0  0  0  0  0  0  0  0
   -2.7276   -4.7620   -1.3045 H   0  0  0  0  0  0  0  0  0  0  0  0
   -1.9792    2.0522    2.0642 H   0  0  0  0  0  0  0  0  0  0  0  0
   -4.2257    3.1431    2.3867 H   0  0  0  0  0  0  0  0  0  0  0  0
   -5.7638    3.3875    0.5237 H   0  0  0  0  0  0  0  0  0  0  0  0
   -5.0588    2.5232   -1.7371 H   0  0  0  0  0  0  0  0  0  0  0  0
  1  2  1  0
  2  3  2  0
  3  4  1  0
  4  5  2  0
  5  6  1  0
  6  7  2  0
  5  8  1  0
  8  9  1  0
  9 10  1  0
 10 11  2  0
 11 12  1  0
 12 13  2  0
 13 14  1  0
 14 15  1  0
 15 16  1  0
 16 17  2  0
 17 18  1  0
 18 19  2  0
 19 20  1  0
 13 21  1  0
 21 22  2  0
 22 23  1  0
 23 24  2  0
 24 25  1  0
 25 26  2  0
  7  2  1  0
 14 10  1  0
 20 16  1  0
 26 21  1  0
  3 27  1  0
  4 28  1  0
  6 29  1  0
  7 30  1  0
  8 31  1  0
  8 32  1  0
 15 33  1  0
 15 34  1  0
 17 35  1  0
 18 36  1  0
 19 37  1  0
 22 38  1  0
 23 39  1  0
 24 40  1  0
 25 41  1  0
M  END
>  <Ligand ID>  (1) 
LIG0002768

>  <Ligand>  (1) 
MLS000082430

>  <SMILES>  (1) 
Brc1ccc(cc1)CSc1nnc(n1Cc1ccco1)c1ccccn1

>  <CID>  (1) 
663290.0

>  <ChEMBL ID>  (1) 
nan

>  <InChiKey>  (1) 
LUJCSBDPIKBOMN-UHFFFAOYSA-N

>  <InChi>  (1) 
InChI=1S/C19H15BrN4OS/c20-15-8-6-14(7-9-15)13-26-19-23-22-18(17-5-1-2-10-21-17)24(19)12-16-4-3-11-25-16/h1-11H,12-13H2

>  <IUPAC Name>  (1) 
2-[5-[(4-bromophenyl)methylsulfanyl]-4-(furan-2-ylmethyl)-1,2,4-triazol-3-yl]pyridine

$$$$
