
     RDKit          3D

 44 43  0  0  0  0  0  0  0  0999 V2000
   -7.0900   -0.7973   -0.2722 C   0  0  0  0  0  0  0  0  0  0  0  0
   -5.7130   -0.4128    0.2747 C   0  0  0  0  0  0  0  0  0  0  0  0
   -4.7231   -1.3309   -0.3595 C   0  0  0  0  0  0  0  0  0  0  0  0
   -3.3245   -1.0428    0.1080 C   0  0  0  0  0  0  0  0  0  0  0  0
   -2.8589    0.3630   -0.2058 C   0  0  0  0  0  0  0  0  0  0  0  0
   -1.4493    0.4668    0.3321 C   0  0  0  0  0  0  0  0  0  0  0  0
   -0.8382    1.8164    0.0977 C   0  0  0  0  0  0  0  0  0  0  0  0
    0.5378    1.8393    0.6509 C   0  0  0  0  0  0  0  0  0  0  0  0
    1.1958    2.9049    0.5375 O   0  0  0  0  0  0  0  0  0  0  0  0
    1.0836    0.7205    1.2744 O   0  0  0  0  0  0  0  0  0  0  0  0
    2.3905    0.6823    1.8212 C   0  0  0  0  0  0  0  0  0  0  0  0
    3.4628    0.9492    0.7823 C   0  0  0  0  0  0  0  0  0  0  0  0
    3.3543   -0.1073   -0.2805 C   0  0  0  0  0  0  0  0  0  0  0  0
    4.3766    0.0535   -1.3772 C   0  0  0  0  0  0  0  0  0  0  0  0
    5.7835   -0.0150   -0.8884 C   0  0  0  0  0  0  0  0  0  0  0  0
    6.0030   -1.3530   -0.2437 C   0  0  0  0  0  0  0  0  0  0  0  0
   -7.0064   -0.9339   -1.3824 H   0  0  0  0  0  0  0  0  0  0  0  0
   -7.2964   -1.8074    0.1396 H   0  0  0  0  0  0  0  0  0  0  0  0
   -7.8602   -0.0640    0.0099 H   0  0  0  0  0  0  0  0  0  0  0  0
   -5.7384   -0.6126    1.3571 H   0  0  0  0  0  0  0  0  0  0  0  0
   -5.4921    0.6548    0.0526 H   0  0  0  0  0  0  0  0  0  0  0  0
   -4.7523   -1.3317   -1.4656 H   0  0  0  0  0  0  0  0  0  0  0  0
   -4.9579   -2.3570   -0.0264 H   0  0  0  0  0  0  0  0  0  0  0  0
   -3.2039   -1.2353    1.1902 H   0  0  0  0  0  0  0  0  0  0  0  0
   -2.6069   -1.7299   -0.3938 H   0  0  0  0  0  0  0  0  0  0  0  0
   -2.7808    0.4542   -1.3100 H   0  0  0  0  0  0  0  0  0  0  0  0
   -3.5169    1.1294    0.2338 H   0  0  0  0  0  0  0  0  0  0  0  0
   -1.5063    0.3403    1.4414 H   0  0  0  0  0  0  0  0  0  0  0  0
   -0.8512   -0.3544   -0.0639 H   0  0  0  0  0  0  0  0  0  0  0  0
   -1.4349    2.5695    0.6674 H   0  0  0  0  0  0  0  0  0  0  0  0
   -0.8798    2.1182   -0.9709 H   0  0  0  0  0  0  0  0  0  0  0  0
    2.4736    1.3800    2.6839 H   0  0  0  0  0  0  0  0  0  0  0  0
    2.5120   -0.3448    2.2232 H   0  0  0  0  0  0  0  0  0  0  0  0
    3.3349    1.9690    0.4254 H   0  0  0  0  0  0  0  0  0  0  0  0
    4.4305    0.7753    1.2999 H   0  0  0  0  0  0  0  0  0  0  0  0
    2.3480   -0.1080   -0.7467 H   0  0  0  0  0  0  0  0  0  0  0  0
    3.4571   -1.0930    0.2147 H   0  0  0  0  0  0  0  0  0  0  0  0
    4.2268   -0.8111   -2.0706 H   0  0  0  0  0  0  0  0  0  0  0  0
    4.1419    0.9600   -1.9710 H   0  0  0  0  0  0  0  0  0  0  0  0
    6.0742    0.8333   -0.2435 H   0  0  0  0  0  0  0  0  0  0  0  0
    6.4389    0.0700   -1.7887 H   0  0  0  0  0  0  0  0  0  0  0  0
    6.9924   -1.7874   -0.5653 H   0  0  0  0  0  0  0  0  0  0  0  0
    6.0199   -1.3208    0.8504 H   0  0  0  0  0  0  0  0  0  0  0  0
    5.2433   -2.0994   -0.6108 H   0  0  0  0  0  0  0  0  0  0  0  0
  1  2  1  0
  2  3  1  0
  3  4  1  0
  4  5  1  0
  5  6  1  0
  6  7  1  0
  7  8  1  0
  8  9  2  0
  8 10  1  0
 10 11  1  0
 11 12  1  0
 12 13  1  0
 13 14  1  0
 14 15  1  0
 15 16  1  0
  1 17  1  0
  1 18  1  0
  1 19  1  0
  2 20  1  0
  2 21  1  0
  3 22  1  0
  3 23  1  0
  4 24  1  0
  4 25  1  0
  5 26  1  0
  5 27  1  0
  6 28  1  0
  6 29  1  0
  7 30  1  0
  7 31  1  0
 11 32  1  0
 11 33  1  0
 12 34  1  0
 12 35  1  0
 13 36  1  0
 13 37  1  0
 14 38  1  0
 14 39  1  0
 15 40  1  0
 15 41  1  0
 16 42  1  0
 16 43  1  0
 16 44  1  0
M  END
>  <Ligand ID>  (1) 
LIG0005027

>  <Ligand>  (1) 
hexyl octanoate

>  <SMILES>  (1) 
CCCCCCCC(=O)OCCCCCC

>  <CID>  (1) 
14228.0

>  <ChEMBL ID>  (1) 
nan

>  <InChiKey>  (1) 
PBGWNXWNCSSXCO-UHFFFAOYSA-N

>  <InChi>  (1) 
InChI=1S/C14H28O2/c1-3-5-7-9-10-12-14(15)16-13-11-8-6-4-2/h3-13H2,1-2H3

>  <IUPAC Name>  (1) 
hexyl octanoate

$$$$
