
     RDKit          3D

 54 56  0  0  0  0  0  0  0  0999 V2000
   -0.5607    1.6485   -1.4318 O   0  0  0  0  0  0  0  0  0  0  0  0
   -0.0473    1.1627   -0.3784 C   0  0  0  0  0  0  0  0  0  0  0  0
    1.4019    0.8373   -0.2811 C   0  0  0  0  0  0  0  0  0  0  0  0
    1.6924   -0.5942    0.0027 C   0  0  0  0  0  0  0  0  0  0  0  0
    2.7248   -0.5593    1.0188 N   0  0  0  0  0  0  0  0  0  0  0  0
    2.5460    0.6342    1.7704 C   0  0  0  0  0  0  0  0  0  0  0  0
    2.8229    0.7606    3.0057 O   0  0  0  0  0  0  0  0  0  0  0  0
    1.9915    1.6492    0.8372 C   0  0  0  0  0  0  0  0  0  0  0  0
    3.7675   -1.5728    1.2343 C   0  0  0  0  0  0  0  0  0  0  0  0
    4.9953   -1.2825    0.4459 C   0  0  0  0  0  0  0  0  0  0  0  0
    5.9506   -0.4886    1.0882 C   0  0  0  0  0  0  0  0  0  0  0  0
    7.1182   -0.1672    0.4389 C   0  0  0  0  0  0  0  0  0  0  0  0
    7.3220   -0.6325   -0.8268 C   0  0  0  0  0  0  0  0  0  0  0  0
    6.3849   -1.4285   -1.4948 C   0  0  0  0  0  0  0  0  0  0  0  0
    5.1963   -1.7559   -0.8345 C   0  0  0  0  0  0  0  0  0  0  0  0
   -0.8394    0.9018    0.7749 N   0  0  0  0  0  0  0  0  0  0  0  0
   -2.2558    1.1791    0.7920 C   0  0  0  0  0  0  0  0  0  0  0  0
   -3.0475    0.4234   -0.2482 C   0  0  0  0  0  0  0  0  0  0  0  0
   -4.4684    0.8043   -0.1125 C   0  0  0  0  0  0  0  0  0  0  0  0
   -5.3554    0.2156    0.7542 C   0  0  0  0  0  0  0  0  0  0  0  0
   -6.6930    0.6115    0.8461 C   0  0  0  0  0  0  0  0  0  0  0  0
   -7.1799    1.6285    0.0536 C   0  0  0  0  0  0  0  0  0  0  0  0
   -6.3125    2.2267   -0.8151 C   0  0  0  0  0  0  0  0  0  0  0  0
   -5.0053    1.8362   -0.9016 C   0  0  0  0  0  0  0  0  0  0  0  0
   -2.7535   -0.9472   -0.3415 N   0  0  0  0  0  0  0  0  0  0  0  0
   -2.8140   -1.7718    0.7971 C   0  0  0  0  0  0  0  0  0  0  0  0
   -1.9201   -1.3576   -1.4197 C   0  0  0  0  0  0  0  0  0  0  0  0
    1.8591    1.1125   -1.2552 H   0  0  0  0  0  0  0  0  0  0  0  0
    2.0232   -1.1526   -0.8992 H   0  0  0  0  0  0  0  0  0  0  0  0
    0.7862   -1.0354    0.4834 H   0  0  0  0  0  0  0  0  0  0  0  0
    2.8375    2.2320    0.4377 H   0  0  0  0  0  0  0  0  0  0  0  0
    1.2414    2.2993    1.3289 H   0  0  0  0  0  0  0  0  0  0  0  0
    3.9681   -1.7022    2.3231 H   0  0  0  0  0  0  0  0  0  0  0  0
    3.3290   -2.5393    0.8820 H   0  0  0  0  0  0  0  0  0  0  0  0
    5.7904   -0.1187    2.0924 H   0  0  0  0  0  0  0  0  0  0  0  0
    7.8389    0.4543    0.9737 H   0  0  0  0  0  0  0  0  0  0  0  0
    8.2653   -0.3535   -1.3090 H   0  0  0  0  0  0  0  0  0  0  0  0
    6.5738   -1.7834   -2.4994 H   0  0  0  0  0  0  0  0  0  0  0  0
    4.4332   -2.3708   -1.3049 H   0  0  0  0  0  0  0  0  0  0  0  0
   -0.3881    0.4939    1.6481 H   0  0  0  0  0  0  0  0  0  0  0  0
   -2.6743    0.9951    1.8028 H   0  0  0  0  0  0  0  0  0  0  0  0
   -2.4653    2.2653    0.6060 H   0  0  0  0  0  0  0  0  0  0  0  0
   -2.7523    0.8559   -1.2700 H   0  0  0  0  0  0  0  0  0  0  0  0
   -5.0641   -0.5781    1.4081 H   0  0  0  0  0  0  0  0  0  0  0  0
   -7.3669    0.1118    1.5542 H   0  0  0  0  0  0  0  0  0  0  0  0
   -8.2222    1.8879    0.1717 H   0  0  0  0  0  0  0  0  0  0  0  0
   -6.7174    3.0301   -1.4342 H   0  0  0  0  0  0  0  0  0  0  0  0
   -4.3657    2.3582   -1.6187 H   0  0  0  0  0  0  0  0  0  0  0  0
   -2.8008   -1.1636    1.7285 H   0  0  0  0  0  0  0  0  0  0  0  0
   -3.7064   -2.4241    0.8480 H   0  0  0  0  0  0  0  0  0  0  0  0
   -1.9529   -2.4947    0.8560 H   0  0  0  0  0  0  0  0  0  0  0  0
   -2.2601   -2.2908   -1.9193 H   0  0  0  0  0  0  0  0  0  0  0  0
   -0.8642   -1.4943   -1.1971 H   0  0  0  0  0  0  0  0  0  0  0  0
   -2.0067   -0.5566   -2.2076 H   0  0  0  0  0  0  0  0  0  0  0  0
  1  2  2  0
  2  3  1  0
  3  4  1  0
  4  5  1  0
  5  6  1  0
  6  7  2  0
  6  8  1  0
  5  9  1  0
  9 10  1  0
 10 11  2  0
 11 12  1  0
 12 13  2  0
 13 14  1  0
 14 15  2  0
  2 16  1  0
 16 17  1  0
 17 18  1  0
 18 19  1  0
 19 20  2  0
 20 21  1  0
 21 22  2  0
 22 23  1  0
 23 24  2  0
 18 25  1  0
 25 26  1  0
 25 27  1  0
  8  3  1  0
 15 10  1  0
 24 19  1  0
  3 28  1  0
  4 29  1  0
  4 30  1  0
  8 31  1  0
  8 32  1  0
  9 33  1  0
  9 34  1  0
 11 35  1  0
 12 36  1  0
 13 37  1  0
 14 38  1  0
 15 39  1  0
 16 40  1  0
 17 41  1  0
 17 42  1  0
 18 43  1  0
 20 44  1  0
 21 45  1  0
 22 46  1  0
 23 47  1  0
 24 48  1  0
 26 49  1  0
 26 50  1  0
 26 51  1  0
 27 52  1  0
 27 53  1  0
 27 54  1  0
M  END
>  <Ligand ID>  (1) 
LIG0004521

>  <Ligand>  (1) 
MLS001161554

>  <SMILES>  (1) 
O=C(C1CN(C(=O)C1)Cc1ccccc1)NCC(c1ccccc1)N(C)C

>  <CID>  (1) 
16302261.0

>  <ChEMBL ID>  (1) 
nan

>  <InChiKey>  (1) 
NDAIWXAKSLKACX-UHFFFAOYSA-N

>  <InChi>  (1) 
InChI=1S/C22H27N3O2/c1-24(2)20(18-11-7-4-8-12-18)14-23-22(27)19-13-21(26)25(16-19)15-17-9-5-3-6-10-17/h3-12,19-20H,13-16H2,1-2H3,(H,23,27)

>  <IUPAC Name>  (1) 
1-benzyl-N-[2-(dimethylamino)-2-phenylethyl]-5-oxopyrrolidine-3-carboxamide

$$$$
