
     RDKit          3D

 35 38  0  0  0  0  0  0  0  0999 V2000
    7.8857   -1.4044    1.4691 Cl  0  0  0  0  0  0  0  0  0  0  0  0
    6.5731   -0.4612    0.7962 C   0  0  0  0  0  0  0  0  0  0  0  0
    6.8834    0.7910    0.3149 C   0  0  0  0  0  0  0  0  0  0  0  0
    5.8757    1.5670   -0.2231 C   0  0  0  0  0  0  0  0  0  0  0  0
    4.5736    1.0714   -0.2680 C   0  0  0  0  0  0  0  0  0  0  0  0
    4.2809   -0.2008    0.2256 C   0  0  0  0  0  0  0  0  0  0  0  0
    5.2749   -0.9746    0.7598 C   0  0  0  0  0  0  0  0  0  0  0  0
    2.8889   -0.6507    0.1490 C   0  0  0  0  0  0  0  0  0  0  0  0
    2.3265   -1.8405    0.5437 C   0  0  0  0  0  0  0  0  0  0  0  0
    0.9816   -1.7456    0.2463 C   0  0  0  0  0  0  0  0  0  0  0  0
    0.7661   -0.5203   -0.3119 C   0  0  0  0  0  0  0  0  0  0  0  0
    1.9378    0.0775   -0.3403 O   0  0  0  0  0  0  0  0  0  0  0  0
   -0.4433    0.1153   -0.8111 C   0  0  0  0  0  0  0  0  0  0  0  0
   -1.5980   -0.0181   -0.2330 C   0  0  0  0  0  0  0  0  0  0  0  0
   -1.9736   -0.9735    1.2533 S   0  0  0  0  0  0  0  0  0  0  0  0
   -3.7488   -0.8317    1.0621 C   0  0  0  0  0  0  0  0  0  0  0  0
   -4.6177   -1.5016    1.7327 N   0  0  0  0  0  0  0  0  0  0  0  0
   -3.9746    0.1385    0.0519 N   0  0  0  0  0  0  0  0  0  0  0  0
   -2.8621    0.5697   -0.6300 C   0  0  0  0  0  0  0  0  0  0  0  0
   -2.8952    1.4449   -1.5749 O   0  0  0  0  0  0  0  0  0  0  0  0
   -5.3363    0.6034   -0.1903 C   0  0  0  0  0  0  0  0  0  0  0  0
   -6.3987    0.3718    0.2948 N   0  0  0  0  0  0  0  0  0  0  0  0
   -7.5622    0.8698   -0.0320 C   0  0  0  0  0  0  0  0  0  0  0  0
   -7.5265    1.7714   -1.0684 C   0  0  0  0  0  0  0  0  0  0  0  0
   -5.7334    1.8154   -1.4906 S   0  0  0  0  0  0  0  0  0  0  0  0
    7.8701    1.2212    0.3257 H   0  0  0  0  0  0  0  0  0  0  0  0
    6.0608    2.5747   -0.6225 H   0  0  0  0  0  0  0  0  0  0  0  0
    3.8199    1.7161   -0.6986 H   0  0  0  0  0  0  0  0  0  0  0  0
    5.0447   -1.9598    1.1412 H   0  0  0  0  0  0  0  0  0  0  0  0
    2.8631   -2.6689    0.9953 H   0  0  0  0  0  0  0  0  0  0  0  0
    0.2203   -2.4867    0.4129 H   0  0  0  0  0  0  0  0  0  0  0  0
   -0.3522    0.7308   -1.7199 H   0  0  0  0  0  0  0  0  0  0  0  0
   -4.3157   -2.1895    2.4517 H   0  0  0  0  0  0  0  0  0  0  0  0
   -8.5100    0.6119    0.4600 H   0  0  0  0  0  0  0  0  0  0  0  0
   -8.2789    2.3661   -1.5907 H   0  0  0  0  0  0  0  0  0  0  0  0
  1  2  1  0
  2  3  2  0
  3  4  1  0
  4  5  2  0
  5  6  1  0
  6  7  2  0
  6  8  1  0
  8  9  2  0
  9 10  1  0
 10 11  2  0
 11 12  1  0
 11 13  1  0
 13 14  2  0
 14 15  1  0
 15 16  1  0
 16 17  2  3
 16 18  1  0
 18 19  1  0
 19 20  2  0
 18 21  1  0
 21 22  2  0
 22 23  1  0
 23 24  2  0
 24 25  1  0
  7  2  1  0
 12  8  1  0
 19 14  1  0
 25 21  1  0
  3 26  1  0
  4 27  1  0
  5 28  1  0
  7 29  1  0
  9 30  1  0
 10 31  1  0
 13 32  1  0
 17 33  1  0
 23 34  1  0
 24 35  1  0
M  END
>  <Ligand ID>  (1) 
LIG0005838

>  <Ligand>  (1) 
MLS000572775

>  <SMILES>  (1) 
Clc1cccc(c1)c1ccc(o1)/C=C/1\SC(=N)N(C1=O)c1nccs1

>  <CID>  (1) 
1348398.0

>  <ChEMBL ID>  (1) 
nan

>  <InChiKey>  (1) 
JKKGUXPHBANSAW-RBCZPYDQSA-N

>  <InChi>  (1) 
InChI=1S/C17H10ClN3O2S2/c18-11-3-1-2-10(8-11)13-5-4-12(23-13)9-14-15(22)21(16(19)25-14)17-20-6-7-24-17/h1-9,19H/b14-9-,19-16?

>  <IUPAC Name>  (1) 
(5Z)-5-[[5-(3-chlorophenyl)furan-2-yl]methylidene]-2-imino-3-(1,3-thiazol-2-yl)-1,3-thiazolidin-4-one

$$$$
