
     RDKit          3D

 23 23  0  0  0  0  0  0  0  0999 V2000
    4.0005    0.9019    0.3336 C   0  0  0  0  0  0  0  0  0  0  0  0
    3.3274   -0.3374    0.2657 O   0  0  0  0  0  0  0  0  0  0  0  0
    1.9650   -0.3099    0.0063 C   0  0  0  0  0  0  0  0  0  0  0  0
    1.2313    0.8192   -0.1870 C   0  0  0  0  0  0  0  0  0  0  0  0
   -0.1246    0.7871   -0.4422 C   0  0  0  0  0  0  0  0  0  0  0  0
   -0.8156   -0.4186   -0.5151 C   0  0  0  0  0  0  0  0  0  0  0  0
   -0.0708   -1.5685   -0.3188 C   0  0  0  0  0  0  0  0  0  0  0  0
    1.2857   -1.5280   -0.0638 C   0  0  0  0  0  0  0  0  0  0  0  0
   -2.2722   -0.4705   -0.7885 C   0  0  0  0  0  0  0  0  0  0  0  0
   -3.0437   -0.4224    0.4964 C   0  0  0  0  0  0  0  0  0  0  0  0
   -3.9063    0.5342    0.7621 C   0  0  0  0  0  0  0  0  0  0  0  0
    5.1028    0.7607    0.2154 H   0  0  0  0  0  0  0  0  0  0  0  0
    3.7158    1.5595   -0.5129 H   0  0  0  0  0  0  0  0  0  0  0  0
    3.7401    1.4305    1.2773 H   0  0  0  0  0  0  0  0  0  0  0  0
    1.7223    1.7795   -0.1402 H   0  0  0  0  0  0  0  0  0  0  0  0
   -0.6809    1.7122   -0.5921 H   0  0  0  0  0  0  0  0  0  0  0  0
   -0.6154   -2.5152   -0.3764 H   0  0  0  0  0  0  0  0  0  0  0  0
    1.8583   -2.4414    0.0886 H   0  0  0  0  0  0  0  0  0  0  0  0
   -2.5294   -1.4008   -1.3156 H   0  0  0  0  0  0  0  0  0  0  0  0
   -2.4966    0.4461   -1.3799 H   0  0  0  0  0  0  0  0  0  0  0  0
   -2.8648   -1.2167    1.2139 H   0  0  0  0  0  0  0  0  0  0  0  0
   -4.4732    0.5821    1.6900 H   0  0  0  0  0  0  0  0  0  0  0  0
   -4.0556    1.3165    0.0085 H   0  0  0  0  0  0  0  0  0  0  0  0
  1  2  1  0
  2  3  1  0
  3  4  2  0
  4  5  1  0
  5  6  2  0
  6  7  1  0
  7  8  2  0
  6  9  1  0
  9 10  1  0
 10 11  2  0
  8  3  1  0
  1 12  1  0
  1 13  1  0
  1 14  1  0
  4 15  1  0
  5 16  1  0
  7 17  1  0
  8 18  1  0
  9 19  1  0
  9 20  1  0
 10 21  1  0
 11 22  1  0
 11 23  1  0
M  END
>  <Ligand ID>  (1) 
LIG0000240

>  <Ligand>  (1) 
Estragole

>  <SMILES>  (1) 
COc1ccc(cc1)CC=C

>  <CID>  (1) 
8815.0

>  <ChEMBL ID>  (1) 
nan

>  <InChiKey>  (1) 
ZFMSMUAANRJZFM-UHFFFAOYSA-N

>  <InChi>  (1) 
InChI=1S/C10H12O/c1-3-4-9-5-7-10(11-2)8-6-9/h3,5-8H,1,4H2,2H3

>  <IUPAC Name>  (1) 
1-methoxy-4-prop-2-enylbenzene

$$$$
