
     RDKit          3D

 58 60  0  0  0  0  0  0  0  0999 V2000
  -10.0941   -2.0274   -0.7771 C   0  0  0  0  0  0  0  0  0  0  0  0
   -8.7989   -1.4857   -0.5841 O   0  0  0  0  0  0  0  0  0  0  0  0
   -7.6676   -1.8904   -1.2423 C   0  0  0  0  0  0  0  0  0  0  0  0
   -7.6812   -2.8072   -2.1030 O   0  0  0  0  0  0  0  0  0  0  0  0
   -6.3889   -1.2347   -0.9359 C   0  0  0  0  0  0  0  0  0  0  0  0
   -5.2085   -1.5886   -1.5566 C   0  0  0  0  0  0  0  0  0  0  0  0
   -3.9958   -0.9922   -1.2858 C   0  0  0  0  0  0  0  0  0  0  0  0
   -3.9625    0.0106   -0.3444 C   0  0  0  0  0  0  0  0  0  0  0  0
   -5.1375    0.3970    0.3050 C   0  0  0  0  0  0  0  0  0  0  0  0
   -6.3344   -0.2182    0.0125 C   0  0  0  0  0  0  0  0  0  0  0  0
   -2.7873    0.7073    0.0388 N   0  0  0  0  0  0  0  0  0  0  0  0
   -2.7366    2.0715    0.0195 C   0  0  0  0  0  0  0  0  0  0  0  0
   -3.8217    3.0134   -0.3851 C   0  0  0  0  0  0  0  0  0  0  0  0
   -1.4795    2.4088    0.4516 C   0  0  0  0  0  0  0  0  0  0  0  0
   -0.7420    1.2610    0.7418 C   0  0  0  0  0  0  0  0  0  0  0  0
   -1.6019    0.2209    0.4678 C   0  0  0  0  0  0  0  0  0  0  0  0
   -1.2829   -1.2289    0.6126 C   0  0  0  0  0  0  0  0  0  0  0  0
    0.6369    1.2150    1.2443 C   0  0  0  0  0  0  0  0  0  0  0  0
    1.1860    0.1138    1.4852 O   0  0  0  0  0  0  0  0  0  0  0  0
    1.3476    2.4944    1.4553 C   0  0  0  0  0  0  0  0  0  0  0  0
    2.4528    2.8479    0.0727 S   0  0  0  0  0  0  0  0  0  0  0  0
    3.8131    1.6927    0.0294 C   0  0  0  0  0  0  0  0  0  0  0  0
    3.8066    0.5113   -0.6446 C   0  0  0  0  0  0  0  0  0  0  0  0
    4.9224   -0.3293   -0.6164 C   0  0  0  0  0  0  0  0  0  0  0  0
    6.0685   -0.0211    0.0780 C   0  0  0  0  0  0  0  0  0  0  0  0
    6.0324    1.2076    0.7596 C   0  0  0  0  0  0  0  0  0  0  0  0
    4.9460    2.0306    0.7349 C   0  0  0  0  0  0  0  0  0  0  0  0
    7.2196   -0.8241    0.1479 N   0  0  0  0  0  0  0  0  0  0  0  0
    7.4082   -2.0800   -0.4557 C   0  0  0  0  0  0  0  0  0  0  0  0
    6.5341   -2.6844   -1.1463 O   0  0  0  0  0  0  0  0  0  0  0  0
    8.7099   -2.8085   -0.3105 C   0  0  0  0  0  0  0  0  0  0  0  0
    8.3420   -0.2950    0.9389 C   0  0  0  0  0  0  0  0  0  0  0  0
  -10.7481   -1.1854   -1.0817 H   0  0  0  0  0  0  0  0  0  0  0  0
  -10.4746   -2.3703    0.2134 H   0  0  0  0  0  0  0  0  0  0  0  0
  -10.0990   -2.8319   -1.5442 H   0  0  0  0  0  0  0  0  0  0  0  0
   -5.2599   -2.3739   -2.2868 H   0  0  0  0  0  0  0  0  0  0  0  0
   -3.0651   -1.2748   -1.7782 H   0  0  0  0  0  0  0  0  0  0  0  0
   -5.1202    1.1878    1.0491 H   0  0  0  0  0  0  0  0  0  0  0  0
   -7.2761    0.0353    0.4795 H   0  0  0  0  0  0  0  0  0  0  0  0
   -3.3285    3.7542   -1.0593 H   0  0  0  0  0  0  0  0  0  0  0  0
   -4.1840    3.5612    0.5176 H   0  0  0  0  0  0  0  0  0  0  0  0
   -4.6159    2.5256   -0.9526 H   0  0  0  0  0  0  0  0  0  0  0  0
   -1.1596    3.4490    0.5353 H   0  0  0  0  0  0  0  0  0  0  0  0
   -0.5918   -1.4100    1.4608 H   0  0  0  0  0  0  0  0  0  0  0  0
   -2.2263   -1.7504    0.8405 H   0  0  0  0  0  0  0  0  0  0  0  0
   -0.7776   -1.6164   -0.2974 H   0  0  0  0  0  0  0  0  0  0  0  0
    0.6172    3.3273    1.5236 H   0  0  0  0  0  0  0  0  0  0  0  0
    1.9521    2.4601    2.4048 H   0  0  0  0  0  0  0  0  0  0  0  0
    2.9114    0.2504   -1.2000 H   0  0  0  0  0  0  0  0  0  0  0  0
    4.8342   -1.2355   -1.1732 H   0  0  0  0  0  0  0  0  0  0  0  0
    6.8962    1.5363    1.3395 H   0  0  0  0  0  0  0  0  0  0  0  0
    4.9838    2.9685    1.2846 H   0  0  0  0  0  0  0  0  0  0  0  0
    9.5779   -2.1525   -0.5765 H   0  0  0  0  0  0  0  0  0  0  0  0
    8.8166   -3.2479    0.6890 H   0  0  0  0  0  0  0  0  0  0  0  0
    8.7570   -3.6344   -1.0558 H   0  0  0  0  0  0  0  0  0  0  0  0
    7.9834   -0.0877    1.9781 H   0  0  0  0  0  0  0  0  0  0  0  0
    9.1437   -1.0240    1.0394 H   0  0  0  0  0  0  0  0  0  0  0  0
    8.7484    0.6101    0.4426 H   0  0  0  0  0  0  0  0  0  0  0  0
  1  2  1  0
  2  3  1  0
  3  4  2  0
  3  5  1  0
  5  6  2  0
  6  7  1  0
  7  8  2  0
  8  9  1  0
  9 10  2  0
  8 11  1  0
 11 12  1  0
 12 13  1  0
 12 14  2  0
 14 15  1  0
 15 16  2  0
 16 17  1  0
 15 18  1  0
 18 19  2  0
 18 20  1  0
 20 21  1  0
 21 22  1  0
 22 23  2  0
 23 24  1  0
 24 25  2  0
 25 26  1  0
 26 27  2  0
 25 28  1  0
 28 29  1  0
 29 30  2  0
 29 31  1  0
 28 32  1  0
 10  5  1  0
 16 11  1  0
 27 22  1  0
  1 33  1  0
  1 34  1  0
  1 35  1  0
  6 36  1  0
  7 37  1  0
  9 38  1  0
 10 39  1  0
 13 40  1  0
 13 41  1  0
 13 42  1  0
 14 43  1  0
 17 44  1  0
 17 45  1  0
 17 46  1  0
 20 47  1  0
 20 48  1  0
 23 49  1  0
 24 50  1  0
 26 51  1  0
 27 52  1  0
 31 53  1  0
 31 54  1  0
 31 55  1  0
 32 56  1  0
 32 57  1  0
 32 58  1  0
M  END
>  <Ligand ID>  (1) 
LIG0003721

>  <Ligand>  (1) 
CHEMBL3561870

>  <SMILES>  (1) 
COC(=O)c1ccc(cc1)n1c(C)cc(c1C)C(=O)CSc1ccc(cc1)N(C(=O)C)C

>  <CID>  (1) 
73058504.0

>  <ChEMBL ID>  (1) 
nan

>  <InChiKey>  (1) 
NADNOPSVGHDFRP-UHFFFAOYSA-N

>  <InChi>  (1) 
InChI=1S/C25H26N2O4S/c1-16-14-23(17(2)27(16)21-8-6-19(7-9-21)25(30)31-5)24(29)15-32-22-12-10-20(11-13-22)26(4)18(3)28/h6-14H,15H2,1-5H3

>  <IUPAC Name>  (1) 
methyl 4-[3-[2-[4-[acetyl(methyl)amino]phenyl]sulfanylacetyl]-2,5-dimethylpyrrol-1-yl]benzoate

$$$$
