
     RDKit          3D

 93 99  0  0  0  0  0  0  0  0999 V2000
    3.0606    1.5243    1.2939 O   0  0  0  0  0  0  0  0  0  0  0  0
    3.4683    0.7982    0.3434 C   0  0  0  0  0  0  0  0  0  0  0  0
    4.7780    1.0584   -0.3318 C   0  0  2  0  0  0  0  0  0  0  0  0
    5.0402    0.1350   -1.3825 N   0  0  0  0  0  0  0  0  0  0  0  0
    6.2882   -0.5578   -1.3287 C   0  0  0  0  0  0  0  0  0  0  0  0
    7.4255    0.4051   -1.0760 C   0  0  0  0  0  0  0  0  0  0  0  0
    7.1736    1.3045   -0.0324 C   0  0  0  0  0  0  0  0  0  0  0  0
    5.8803    1.2113    0.6872 C   0  0  0  0  0  0  0  0  0  0  0  0
    8.1517    2.2280    0.2722 C   0  0  0  0  0  0  0  0  0  0  0  0
    9.3323    2.2255   -0.4623 C   0  0  0  0  0  0  0  0  0  0  0  0
    9.5592    1.3269   -1.4894 C   0  0  0  0  0  0  0  0  0  0  0  0
    8.5761    0.3954   -1.7990 C   0  0  0  0  0  0  0  0  0  0  0  0
    2.7131   -0.2909   -0.1277 N   0  0  0  0  0  0  0  0  0  0  0  0
    1.4144   -0.6837    0.4184 C   0  0  1  0  0  0  0  0  0  0  0  0
    0.3927   -0.7456   -0.6150 C   0  0  0  0  0  0  0  0  0  0  0  0
    0.7761   -0.5265   -1.8220 O   0  0  0  0  0  0  0  0  0  0  0  0
   -0.9863   -1.0170   -0.4655 N   0  0  0  0  0  0  0  0  0  0  0  0
   -1.7809   -1.0199   -1.6801 C   0  0  0  0  0  0  0  0  0  0  0  0
   -3.1454   -0.4427   -1.5665 C   0  0  0  0  0  0  0  0  0  0  0  0
   -3.5043    0.1203   -0.2280 C   0  0  0  0  0  0  0  0  0  0  0  0
   -3.1325   -0.9678    0.7549 C   0  0  0  0  0  0  0  0  0  0  0  0
   -1.6610   -1.2783    0.7745 C   0  0  0  0  0  0  0  0  0  0  0  0
   -4.9890    0.3320   -0.1711 C   0  0  0  0  0  0  0  0  0  0  0  0
   -5.8788   -0.7688   -0.3224 N   0  0  0  0  0  0  0  0  0  0  0  0
   -6.3809   -1.6076    0.7570 C   0  0  0  0  0  0  0  0  0  0  0  0
   -5.8931   -1.8033    1.8887 O   0  0  0  0  0  0  0  0  0  0  0  0
   -7.5785   -2.2035    0.3040 O   0  0  0  0  0  0  0  0  0  0  0  0
   -7.9772   -1.4078   -0.8306 C   0  0  0  0  0  0  0  0  0  0  0  0
   -6.5819   -1.3239   -1.4751 C   0  0  0  0  0  0  0  0  0  0  0  0
   -6.2383   -2.6830   -1.9527 C   0  0  0  0  0  0  0  0  0  0  0  0
   -6.1081   -2.0628   -3.3534 C   0  0  0  0  0  0  0  0  0  0  0  0
   -6.4686   -0.6806   -2.7806 C   0  0  0  0  0  0  0  0  0  0  0  0
   -2.7406    1.3730    0.1123 C   0  0  0  0  0  0  0  0  0  0  0  0
   -2.9592    2.4881   -0.8596 C   0  0  0  0  0  0  0  0  0  0  0  0
   -3.0427    3.8451   -0.1536 C   0  0  0  0  0  0  0  0  0  0  0  0
   -1.8062    3.9608    0.7080 C   0  0  0  0  0  0  0  0  0  0  0  0
   -1.9929    2.9871    1.8454 C   0  0  0  0  0  0  0  0  0  0  0  0
   -3.0119    1.8899    1.4990 C   0  0  0  0  0  0  0  0  0  0  0  0
    1.6071   -2.0654    1.0246 C   0  0  0  0  0  0  0  0  0  0  0  0
    2.6559   -1.9823    2.1014 C   0  0  0  0  0  0  0  0  0  0  0  0
    2.3302   -1.7184    3.4148 C   0  0  0  0  0  0  0  0  0  0  0  0
    3.3349   -1.6492    4.3704 C   0  0  0  0  0  0  0  0  0  0  0  0
    4.6623   -1.8415    4.0238 C   0  0  0  0  0  0  0  0  0  0  0  0
    5.0049   -2.1088    2.7009 C   0  0  0  0  0  0  0  0  0  0  0  0
    3.9786   -2.1738    1.7573 C   0  0  0  0  0  0  0  0  0  0  0  0
    5.9280   -1.7566    5.2085 Cl  0  0  0  0  0  0  0  0  0  0  0  0
    4.6694    2.0657   -0.8088 H   0  0  0  0  0  0  0  0  0  0  0  0
    4.8588    0.4590   -2.3345 H   0  0  0  0  0  0  0  0  0  0  0  0
    6.3332   -1.2775   -0.4891 H   0  0  0  0  0  0  0  0  0  0  0  0
    6.5135   -1.0485   -2.2811 H   0  0  0  0  0  0  0  0  0  0  0  0
    5.9132    0.3811    1.4272 H   0  0  0  0  0  0  0  0  0  0  0  0
    5.7288    2.1884    1.1938 H   0  0  0  0  0  0  0  0  0  0  0  0
    7.9834    2.9299    1.0689 H   0  0  0  0  0  0  0  0  0  0  0  0
   10.0835    2.9516   -0.2116 H   0  0  0  0  0  0  0  0  0  0  0  0
   10.4654    1.3032   -2.0745 H   0  0  0  0  0  0  0  0  0  0  0  0
    8.7025   -0.3271   -2.5898 H   0  0  0  0  0  0  0  0  0  0  0  0
    3.0573   -0.8916   -0.9188 H   0  0  0  0  0  0  0  0  0  0  0  0
    1.0804   -0.0199    1.2343 H   0  0  0  0  0  0  0  0  0  0  0  0
   -1.8085   -2.0758   -2.0186 H   0  0  0  0  0  0  0  0  0  0  0  0
   -1.2598   -0.4874   -2.5198 H   0  0  0  0  0  0  0  0  0  0  0  0
   -3.3637    0.2870   -2.4025 H   0  0  0  0  0  0  0  0  0  0  0  0
   -3.8590   -1.2668   -1.7330 H   0  0  0  0  0  0  0  0  0  0  0  0
   -3.6415   -1.8875    0.3565 H   0  0  0  0  0  0  0  0  0  0  0  0
   -3.4327   -0.7133    1.7906 H   0  0  0  0  0  0  0  0  0  0  0  0
   -1.1466   -0.8116    1.6459 H   0  0  0  0  0  0  0  0  0  0  0  0
   -1.5875   -2.3928    0.9548 H   0  0  0  0  0  0  0  0  0  0  0  0
   -5.3123    1.0644   -0.9966 H   0  0  0  0  0  0  0  0  0  0  0  0
   -5.2618    0.9711    0.7320 H   0  0  0  0  0  0  0  0  0  0  0  0
   -8.2971   -0.4053   -0.5593 H   0  0  0  0  0  0  0  0  0  0  0  0
   -8.6404   -1.9869   -1.4804 H   0  0  0  0  0  0  0  0  0  0  0  0
   -5.2978   -3.1499   -1.6591 H   0  0  0  0  0  0  0  0  0  0  0  0
   -7.0455   -3.4588   -1.9038 H   0  0  0  0  0  0  0  0  0  0  0  0
   -5.0784   -2.1268   -3.7589 H   0  0  0  0  0  0  0  0  0  0  0  0
   -6.8451   -2.5050   -4.0194 H   0  0  0  0  0  0  0  0  0  0  0  0
   -7.4561   -0.3793   -3.2382 H   0  0  0  0  0  0  0  0  0  0  0  0
   -5.6622    0.0176   -3.0070 H   0  0  0  0  0  0  0  0  0  0  0  0
   -1.6578    1.1536    0.0943 H   0  0  0  0  0  0  0  0  0  0  0  0
   -3.8709    2.4270   -1.4643 H   0  0  0  0  0  0  0  0  0  0  0  0
   -2.0792    2.6299   -1.5538 H   0  0  0  0  0  0  0  0  0  0  0  0
   -2.9275    4.6581   -0.9284 H   0  0  0  0  0  0  0  0  0  0  0  0
   -3.9754    4.0051    0.3792 H   0  0  0  0  0  0  0  0  0  0  0  0
   -1.6886    4.9954    1.1087 H   0  0  0  0  0  0  0  0  0  0  0  0
   -0.9262    3.6360    0.1424 H   0  0  0  0  0  0  0  0  0  0  0  0
   -2.4559    3.5776    2.6822 H   0  0  0  0  0  0  0  0  0  0  0  0
   -1.0555    2.5809    2.2442 H   0  0  0  0  0  0  0  0  0  0  0  0
   -4.0036    2.3377    1.5424 H   0  0  0  0  0  0  0  0  0  0  0  0
   -2.8281    1.1424    2.3068 H   0  0  0  0  0  0  0  0  0  0  0  0
    0.6786   -2.3392    1.5455 H   0  0  0  0  0  0  0  0  0  0  0  0
    1.9444   -2.7950    0.2753 H   0  0  0  0  0  0  0  0  0  0  0  0
    1.3122   -1.5661    3.7093 H   0  0  0  0  0  0  0  0  0  0  0  0
    3.1436   -1.4462    5.4149 H   0  0  0  0  0  0  0  0  0  0  0  0
    6.0321   -2.2624    2.4021 H   0  0  0  0  0  0  0  0  0  0  0  0
    4.2904   -2.3831    0.7454 H   0  0  0  0  0  0  0  0  0  0  0  0
  1  2  2  0
  2  3  1  0
  3  4  1  0
  4  5  1  0
  5  6  1  0
  6  7  2  0
  7  8  1  0
  7  9  1  0
  9 10  2  0
 10 11  1  0
 11 12  2  0
  2 13  1  0
 13 14  1  0
 14 15  1  0
 15 16  2  0
 15 17  1  0
 17 18  1  0
 18 19  1  0
 19 20  1  0
 20 21  1  0
 21 22  1  0
 20 23  1  0
 23 24  1  0
 24 25  1  0
 25 26  2  0
 25 27  1  0
 27 28  1  0
 28 29  1  0
 29 30  1  0
 30 31  1  0
 31 32  1  0
 20 33  1  0
 33 34  1  0
 34 35  1  0
 35 36  1  0
 36 37  1  0
 37 38  1  0
 14 39  1  0
 39 40  1  0
 40 41  2  0
 41 42  1  0
 42 43  2  0
 43 44  1  0
 44 45  2  0
 43 46  1  0
  8  3  1  0
 22 17  1  0
 29 24  1  0
 38 33  1  0
 45 40  1  0
 12  6  1  0
 32 29  1  0
  3 47  1  6
  4 48  1  0
  5 49  1  0
  5 50  1  0
  8 51  1  0
  8 52  1  0
  9 53  1  0
 10 54  1  0
 11 55  1  0
 12 56  1  0
 13 57  1  0
 14 58  1  1
 18 59  1  0
 18 60  1  0
 19 61  1  0
 19 62  1  0
 21 63  1  0
 21 64  1  0
 22 65  1  0
 22 66  1  0
 23 67  1  0
 23 68  1  0
 28 69  1  0
 28 70  1  0
 30 71  1  0
 30 72  1  0
 31 73  1  0
 31 74  1  0
 32 75  1  0
 32 76  1  0
 33 77  1  0
 34 78  1  0
 34 79  1  0
 35 80  1  0
 35 81  1  0
 36 82  1  0
 36 83  1  0
 37 84  1  0
 37 85  1  0
 38 86  1  0
 38 87  1  0
 39 88  1  0
 39 89  1  0
 41 90  1  0
 42 91  1  0
 44 92  1  0
 45 93  1  0
M  END
>  <Ligand ID>  (1) 
LIG0003052

>  <Ligand>  (1) 
CHEMBL380635

>  <SMILES>  (1) 
O=C([C@@H]1NCc2c(C1)cccc2)N[C@@H](C(=O)N1CCC(CC1)(CN1C(=O)OCC21CCC2)C1CCCCC1)Cc1ccc(cc1)Cl

>  <CID>  (1) 
44408388.0

>  <ChEMBL ID>  (1) 
nan

>  <InChiKey>  (1) 
KPAXZSMXFNRRAR-ROJLCIKYSA-N

>  <InChi>  (1) 
InChI=1S/C37H47ClN4O4/c38-30-13-11-26(12-14-30)21-32(40-33(43)31-22-27-7-4-5-8-28(27)23-39-31)34(44)41-19-17-36(18-20-41,29-9-2-1-3-10-29)24-42-35(45)46-25-37(42)15-6-16-37/h4-5,7-8,11-14,29,31-32,39H,1-3,6,9-10,15-25H2,(H,40,43)/t31-,32-/m1/s1

>  <IUPAC Name>  (1) 
(3R)-N-[(2R)-3-(4-chlorophenyl)-1-[4-cyclohexyl-4-[(6-oxo-7-oxa-5-azaspiro[3.4]octan-5-yl)methyl]piperidin-1-yl]-1-oxopropan-2-yl]-1,2,3,4-tetrahydroisoquinoline-3-carboxamide

$$$$
