
     RDKit          3D

 37 38  0  0  0  0  0  0  0  0999 V2000
   -3.8711   -1.7309   -0.0975 C   0  0  0  0  0  0  0  0  0  0  0  0
   -3.1980   -0.9306   -1.2071 C   0  0  0  0  0  0  0  0  0  0  0  0
   -2.0209   -0.2537   -0.5989 C   0  0  0  0  0  0  0  0  0  0  0  0
   -0.7696   -0.8270   -0.5522 C   0  0  0  0  0  0  0  0  0  0  0  0
    0.2967   -0.1691    0.0191 C   0  0  0  0  0  0  0  0  0  0  0  0
    1.5869   -0.8351    0.0712 C   0  0  1  0  0  0  0  0  0  0  0  0
    1.9862   -1.7267   -1.0317 C   0  0  0  0  0  0  0  0  0  0  0  0
    3.4336   -1.8507   -0.7934 N   0  0  0  0  0  0  0  0  0  0  0  0
    3.8650   -0.5886   -0.1724 C   0  0  0  0  0  0  0  0  0  0  0  0
    2.6504    0.2660   -0.1040 C   0  0  2  0  0  0  0  0  0  0  0  0
    2.4829    1.1045    1.0366 N   0  0  0  0  0  0  0  0  0  0  0  0
    1.2349    1.8340    1.1195 C   0  0  0  0  0  0  0  0  0  0  0  0
    1.1486    2.9681    1.6210 O   0  0  0  0  0  0  0  0  0  0  0  0
    0.0757    1.1088    0.5549 C   0  0  0  0  0  0  0  0  0  0  0  0
   -1.1517    1.7178    0.5324 C   0  0  0  0  0  0  0  0  0  0  0  0
   -2.1886    0.9986   -0.0597 C   0  0  0  0  0  0  0  0  0  0  0  0
   -1.4021    3.0394    1.1113 C   0  0  0  0  0  0  0  0  0  0  0  0
   -1.1912    3.1324    2.4734 F   0  0  0  0  0  0  0  0  0  0  0  0
   -2.7564    3.2961    0.9824 F   0  0  0  0  0  0  0  0  0  0  0  0
   -0.8305    4.0715    0.3893 F   0  0  0  0  0  0  0  0  0  0  0  0
    0.6852    0.0000    0.0000 Cl  0  0  0  0  0  0  0  0  0  0  0  0
   -4.5634   -1.0253    0.4326 H   0  0  0  0  0  0  0  0  0  0  0  0
   -3.1327   -2.0545    0.6714 H   0  0  0  0  0  0  0  0  0  0  0  0
   -4.4438   -2.5904   -0.4847 H   0  0  0  0  0  0  0  0  0  0  0  0
   -3.9334   -0.1919   -1.5665 H   0  0  0  0  0  0  0  0  0  0  0  0
   -2.8313   -1.5986   -2.0121 H   0  0  0  0  0  0  0  0  0  0  0  0
   -0.6169   -1.8179   -0.9733 H   0  0  0  0  0  0  0  0  0  0  0  0
    1.7230   -1.3381    1.0528 H   0  0  0  0  0  0  0  0  0  0  0  0
    1.5871   -2.7393   -0.8787 H   0  0  0  0  0  0  0  0  0  0  0  0
    1.8223   -1.3078   -2.0220 H   0  0  0  0  0  0  0  0  0  0  0  0
    3.6398   -2.5803   -0.0722 H   0  0  0  0  0  0  0  0  0  0  0  0
    4.5838   -0.1467   -0.9063 H   0  0  0  0  0  0  0  0  0  0  0  0
    4.3857   -0.7250    0.7733 H   0  0  0  0  0  0  0  0  0  0  0  0
    2.4066    0.7968   -1.0223 H   0  0  0  0  0  0  0  0  0  0  0  0
    3.1738    1.2411    1.8102 H   0  0  0  0  0  0  0  0  0  0  0  0
   -3.1815    1.4531   -0.0964 H   0  0  0  0  0  0  0  0  0  0  0  0
   -0.6852    0.0000    0.0000 H   0  0  0  0  0  0  0  0  0  0  0  0
  1  2  1  0
  2  3  1  0
  3  4  2  0
  4  5  1  0
  5  6  1  0
  6  7  1  0
  7  8  1  0
  8  9  1  0
  9 10  1  0
 10 11  1  0
 11 12  1  0
 12 13  2  0
 12 14  1  0
 14 15  1  0
 15 16  2  0
 15 17  1  0
 17 18  1  0
 17 19  1  0
 17 20  1  0
 16  3  1  0
 14  5  2  0
 10  6  1  0
  1 22  1  0
  1 23  1  0
  1 24  1  0
  2 25  1  0
  2 26  1  0
  4 27  1  0
  6 28  1  1
  7 29  1  0
  7 30  1  0
  8 31  1  0
  9 32  1  0
  9 33  1  0
 10 34  1  6
 11 35  1  0
 16 36  1  0
 21 37  1  0
M  END
>  <Ligand ID>  (1) 
LIG0004107

>  <Ligand>  (1) 
CHEMBL2337106

>  <SMILES>  (1) 
CCc1cc2[C@H]3CNC[C@@H]3NC(=O)c2c(c1)C(F)(F)F.Cl

>  <CID>  (1) 
11493483.0

>  <ChEMBL ID>  (1) 
nan

>  <InChiKey>  (1) 
LJYMJLUSCQDYLK-XQKZEKTMSA-N

>  <InChi>  (1) 
InChI=1S/C14H15F3N2O.ClH/c1-2-7-3-8-9-5-18-6-11(9)19-13(20)12(8)10(4-7)14(15,16)17;/h3-4,9,11,18H,2,5-6H2,1H3,(H,19,20);1H/t9-,11+;/m1./s1

>  <IUPAC Name>  (1) 
(3aR,9bS)-8-ethyl-6-(trifluoromethyl)-1,2,3,3a,4,9b-hexahydropyrrolo[3,4-c]isoquinolin-5-one;hydrochloride

$$$$
