
     RDKit          3D

 48 50  0  0  0  0  0  0  0  0999 V2000
   -0.4859   -3.1633    1.6558 C   0  0  0  0  0  0  0  0  0  0  0  0
   -0.8605   -1.7960    1.3587 N   0  0  0  0  0  0  0  0  0  0  0  0
   -2.0825   -1.2555    1.5144 C   0  0  0  0  0  0  0  0  0  0  0  0
   -3.0633   -1.9106    1.9519 O   0  0  0  0  0  0  0  0  0  0  0  0
   -2.0616    0.0533    1.1335 N   0  0  0  0  0  0  0  0  0  0  0  0
   -0.7934    0.2785    0.7463 C   0  0  0  0  0  0  0  0  0  0  0  0
   -0.0272   -0.8552    0.8768 C   0  0  0  0  0  0  0  0  0  0  0  0
    1.2979   -0.8684    0.5438 N   0  0  0  0  0  0  0  0  0  0  0  0
    1.9014    0.2377    0.0732 C   0  0  0  0  0  0  0  0  0  0  0  0
    1.1405    1.3728   -0.0589 C   0  0  0  0  0  0  0  0  0  0  0  0
   -0.2047    1.4293    0.2667 C   0  0  0  0  0  0  0  0  0  0  0  0
    3.2773    0.1514   -0.2513 N   0  0  0  0  0  0  0  0  0  0  0  0
    3.9418   -1.1218   -0.0435 C   0  0  0  0  0  0  0  0  0  0  0  0
    4.4815   -1.5671   -1.3869 C   0  0  0  0  0  0  0  0  0  0  0  0
    5.5571   -0.5393   -1.7473 C   0  0  0  0  0  0  0  0  0  0  0  0
    4.8293    0.7568   -1.9964 C   0  0  0  0  0  0  0  0  0  0  0  0
    4.0634    1.2463   -0.7751 C   0  0  0  0  0  0  0  0  0  0  0  0
   -3.2087    0.8959    1.1841 C   0  0  0  0  0  0  0  0  0  0  0  0
   -4.0626    0.9271   -0.0407 C   0  0  0  0  0  0  0  0  0  0  0  0
   -5.2481    1.8566    0.1387 C   0  0  0  0  0  0  0  0  0  0  0  0
   -3.3248    1.4395   -1.2589 C   0  0  0  0  0  0  0  0  0  0  0  0
   -4.6154   -0.4584   -0.2969 C   0  0  0  0  0  0  0  0  0  0  0  0
   -1.0006   -3.9049    1.0131 H   0  0  0  0  0  0  0  0  0  0  0  0
   -0.7427   -3.3169    2.7370 H   0  0  0  0  0  0  0  0  0  0  0  0
    0.5905   -3.3096    1.5409 H   0  0  0  0  0  0  0  0  0  0  0  0
    1.5886    2.2807   -0.4328 H   0  0  0  0  0  0  0  0  0  0  0  0
   -0.7807    2.3331    0.1543 H   0  0  0  0  0  0  0  0  0  0  0  0
    3.2590   -1.8840    0.3824 H   0  0  0  0  0  0  0  0  0  0  0  0
    4.8414   -0.9860    0.6080 H   0  0  0  0  0  0  0  0  0  0  0  0
    3.6966   -1.4369   -2.1768 H   0  0  0  0  0  0  0  0  0  0  0  0
    4.8694   -2.5967   -1.3884 H   0  0  0  0  0  0  0  0  0  0  0  0
    6.2453   -0.4788   -0.8908 H   0  0  0  0  0  0  0  0  0  0  0  0
    6.0657   -0.8123   -2.6772 H   0  0  0  0  0  0  0  0  0  0  0  0
    5.6189    1.5086   -2.2575 H   0  0  0  0  0  0  0  0  0  0  0  0
    4.1283    0.6184   -2.8322 H   0  0  0  0  0  0  0  0  0  0  0  0
    4.8587    1.5131   -0.0209 H   0  0  0  0  0  0  0  0  0  0  0  0
    3.4974    2.1217   -1.0853 H   0  0  0  0  0  0  0  0  0  0  0  0
   -2.8777    1.9528    1.3731 H   0  0  0  0  0  0  0  0  0  0  0  0
   -3.7992    0.6306    2.0837 H   0  0  0  0  0  0  0  0  0  0  0  0
   -6.0478    1.6160   -0.6187 H   0  0  0  0  0  0  0  0  0  0  0  0
   -5.6678    1.8496    1.1533 H   0  0  0  0  0  0  0  0  0  0  0  0
   -4.9169    2.8955   -0.1145 H   0  0  0  0  0  0  0  0  0  0  0  0
   -2.6279    0.6504   -1.6456 H   0  0  0  0  0  0  0  0  0  0  0  0
   -2.8358    2.4087   -1.0767 H   0  0  0  0  0  0  0  0  0  0  0  0
   -4.0242    1.6162   -2.1024 H   0  0  0  0  0  0  0  0  0  0  0  0
   -5.1772   -0.7876    0.5977 H   0  0  0  0  0  0  0  0  0  0  0  0
   -5.3722   -0.4178   -1.1131 H   0  0  0  0  0  0  0  0  0  0  0  0
   -3.8405   -1.1734   -0.6395 H   0  0  0  0  0  0  0  0  0  0  0  0
  1  2  1  0
  2  3  1  0
  3  4  2  0
  3  5  1  0
  5  6  1  0
  6  7  2  0
  7  8  1  0
  8  9  2  0
  9 10  1  0
 10 11  2  0
  9 12  1  0
 12 13  1  0
 13 14  1  0
 14 15  1  0
 15 16  1  0
 16 17  1  0
  5 18  1  0
 18 19  1  0
 19 20  1  0
 19 21  1  0
 19 22  1  0
  7  2  1  0
 17 12  1  0
 11  6  1  0
  1 23  1  0
  1 24  1  0
  1 25  1  0
 10 26  1  0
 11 27  1  0
 13 28  1  0
 13 29  1  0
 14 30  1  0
 14 31  1  0
 15 32  1  0
 15 33  1  0
 16 34  1  0
 16 35  1  0
 17 36  1  0
 17 37  1  0
 18 38  1  0
 18 39  1  0
 20 40  1  0
 20 41  1  0
 20 42  1  0
 21 43  1  0
 21 44  1  0
 21 45  1  0
 22 46  1  0
 22 47  1  0
 22 48  1  0
M  END
>  <Ligand ID>  (1) 
LIG0000906

>  <Ligand>  (1) 
CHEMBL3804903

>  <SMILES>  (1) 
Cn1c(=O)n(c2c1nc(cc2)N1CCCCC1)CC(C)(C)C

>  <CID>  (1) 
51036701.0

>  <ChEMBL ID>  (1) 
nan

>  <InChiKey>  (1) 
ZJBBCZAWPDDFJH-UHFFFAOYSA-N

>  <InChi>  (1) 
InChI=1S/C17H26N4O/c1-17(2,3)12-21-13-8-9-14(20-10-6-5-7-11-20)18-15(13)19(4)16(21)22/h8-9H,5-7,10-12H2,1-4H3

>  <IUPAC Name>  (1) 
1-(2,2-dimethylpropyl)-3-methyl-5-piperidin-1-ylimidazo[4,5-b]pyridin-2-one

$$$$
