
     RDKit          3D

 26 28  0  0  0  0  0  0  0  0999 V2000
   -0.0228    2.7482   -1.2402 O   0  0  0  0  0  0  0  0  0  0  0  0
    0.1578    1.5699   -0.8090 C   0  0  0  0  0  0  0  0  0  0  0  0
    1.3978    0.9355   -0.3745 C   0  0  0  0  0  0  0  0  0  0  0  0
    2.6807    1.4428   -0.3192 C   0  0  0  0  0  0  0  0  0  0  0  0
    3.6985    0.6022    0.1459 C   0  0  0  0  0  0  0  0  0  0  0  0
    3.3965   -0.6902    0.5302 C   0  0  0  0  0  0  0  0  0  0  0  0
    2.0876   -1.1687    0.4604 C   0  0  0  0  0  0  0  0  0  0  0  0
    1.0840   -0.3574    0.0078 C   0  0  0  0  0  0  0  0  0  0  0  0
   -0.3580   -0.5944   -0.1673 C   0  0  0  0  0  0  0  0  0  0  0  0
   -0.9052    0.6420   -0.6830 N   0  0  0  0  0  0  0  0  0  0  0  0
   -2.3292    0.6767   -0.9469 C   0  0  0  0  0  0  0  0  0  0  0  0
   -3.1379   -0.1654   -0.0153 C   0  0  0  0  0  0  0  0  0  0  0  0
   -2.4635   -1.1110    0.7781 N   0  0  0  0  0  0  0  0  0  0  0  0
   -1.0997   -0.8846    1.1043 C   0  0  0  0  0  0  0  0  0  0  0  0
    2.9341    2.4536   -0.6167 H   0  0  0  0  0  0  0  0  0  0  0  0
    4.7277    0.9681    0.2042 H   0  0  0  0  0  0  0  0  0  0  0  0
    4.1736   -1.3375    0.8871 H   0  0  0  0  0  0  0  0  0  0  0  0
    1.8606   -2.1814    0.7633 H   0  0  0  0  0  0  0  0  0  0  0  0
   -0.5567   -1.3719   -0.9428 H   0  0  0  0  0  0  0  0  0  0  0  0
   -2.7328    1.7220   -0.8907 H   0  0  0  0  0  0  0  0  0  0  0  0
   -2.4675    0.3596   -2.0021 H   0  0  0  0  0  0  0  0  0  0  0  0
   -3.9067   -0.7204   -0.6112 H   0  0  0  0  0  0  0  0  0  0  0  0
   -3.7697    0.4685    0.6757 H   0  0  0  0  0  0  0  0  0  0  0  0
   -2.7710   -2.0894    0.7016 H   0  0  0  0  0  0  0  0  0  0  0  0
   -0.7213   -1.8490    1.5488 H   0  0  0  0  0  0  0  0  0  0  0  0
   -0.9571   -0.0680    1.8115 H   0  0  0  0  0  0  0  0  0  0  0  0
  1  2  2  0
  2  3  1  0
  3  4  2  0
  4  5  1  0
  5  6  2  0
  6  7  1  0
  7  8  2  0
  8  9  1  0
  9 10  1  0
 10 11  1  0
 11 12  1  0
 12 13  1  0
 13 14  1  0
 10  2  1  0
  8  3  1  0
 14  9  1  0
  4 15  1  0
  5 16  1  0
  6 17  1  0
  7 18  1  0
  9 19  1  0
 11 20  1  0
 11 21  1  0
 12 22  1  0
 12 23  1  0
 13 24  1  0
 14 25  1  0
 14 26  1  0
M  END
>  <Ligand ID>  (1) 
LIG0003227

>  <Ligand>  (1) 
79016-59-4

>  <SMILES>  (1) 
O=C1c2ccccc2C2N1CCNC2

>  <CID>  (1) 
12901777.0

>  <ChEMBL ID>  (1) 
nan

>  <InChiKey>  (1) 
MHUTWQRLKOUUFX-UHFFFAOYSA-N

>  <InChi>  (1) 
InChI=1S/C11H12N2O/c14-11-9-4-2-1-3-8(9)10-7-12-5-6-13(10)11/h1-4,10,12H,5-7H2

>  <IUPAC Name>  (1) 
2,3,4,10b-tetrahydro-1H-pyrazino[1,2-b]isoindol-6-one

$$$$
