
     RDKit          3D

 32 33  0  0  0  0  0  0  0  0999 V2000
   -4.7001    2.4324    0.1783 C   0  0  0  0  0  0  0  0  0  0  0  0
   -3.9086    1.3077   -0.1586 O   0  0  0  0  0  0  0  0  0  0  0  0
   -2.6453    1.0974    0.4320 C   0  0  0  0  0  0  0  0  0  0  0  0
   -2.3063    1.9739    1.2546 O   0  0  0  0  0  0  0  0  0  0  0  0
   -1.8825   -0.0702    0.0479 C   0  0  0  0  0  0  0  0  0  0  0  0
   -2.4470   -0.9294   -0.9000 C   0  0  0  0  0  0  0  0  0  0  0  0
   -1.8372   -2.0612   -1.3517 C   0  0  0  0  0  0  0  0  0  0  0  0
   -0.6020   -2.3824   -0.8542 C   0  0  0  0  0  0  0  0  0  0  0  0
   -0.0321   -1.5475    0.0798 C   0  0  0  0  0  0  0  0  0  0  0  0
   -0.6421   -0.3932    0.5470 C   0  0  0  0  0  0  0  0  0  0  0  0
   -0.0047    0.4079    1.5169 N   0  0  0  0  0  0  0  0  0  0  0  0
    1.3104   -0.0040    1.9726 C   0  0  0  0  0  0  0  0  0  0  0  0
    2.3331    0.0818    0.8817 C   0  0  0  0  0  0  0  0  0  0  0  0
    2.1906    0.4949   -0.3319 N   0  0  0  0  0  0  0  0  0  0  0  0
    3.4252    0.4191   -1.0727 C   0  0  0  0  0  0  0  0  0  0  0  0
    4.3338   -0.4319   -0.2108 C   0  0  0  0  0  0  0  0  0  0  0  0
    3.6910   -0.3117    1.0844 N   0  0  0  0  0  0  0  0  0  0  0  0
   -4.6713    2.6501    1.2736 H   0  0  0  0  0  0  0  0  0  0  0  0
   -4.4246    3.3276   -0.4154 H   0  0  0  0  0  0  0  0  0  0  0  0
   -5.7625    2.1885   -0.0385 H   0  0  0  0  0  0  0  0  0  0  0  0
   -3.4323   -0.7082   -1.3218 H   0  0  0  0  0  0  0  0  0  0  0  0
   -2.3189   -2.7008   -2.0937 H   0  0  0  0  0  0  0  0  0  0  0  0
   -0.1050   -3.2746   -1.2007 H   0  0  0  0  0  0  0  0  0  0  0  0
    0.9552   -1.8692    0.4426 H   0  0  0  0  0  0  0  0  0  0  0  0
   -0.3833    1.2701    1.9430 H   0  0  0  0  0  0  0  0  0  0  0  0
    1.2210   -1.0437    2.3478 H   0  0  0  0  0  0  0  0  0  0  0  0
    1.6506    0.6789    2.7470 H   0  0  0  0  0  0  0  0  0  0  0  0
    3.3182   -0.0192   -2.0814 H   0  0  0  0  0  0  0  0  0  0  0  0
    3.8958    1.4186   -1.2041 H   0  0  0  0  0  0  0  0  0  0  0  0
    4.2618   -1.4705   -0.5975 H   0  0  0  0  0  0  0  0  0  0  0  0
    5.3695   -0.0453   -0.2079 H   0  0  0  0  0  0  0  0  0  0  0  0
    4.1496   -0.4860    2.0248 H   0  0  0  0  0  0  0  0  0  0  0  0
  1  2  1  0
  2  3  1  0
  3  4  2  0
  3  5  1  0
  5  6  2  0
  6  7  1  0
  7  8  2  0
  8  9  1  0
  9 10  2  0
 10 11  1  0
 11 12  1  0
 12 13  1  0
 13 14  2  0
 14 15  1  0
 15 16  1  0
 16 17  1  0
 10  5  1  0
 17 13  1  0
  1 18  1  0
  1 19  1  0
  1 20  1  0
  6 21  1  0
  7 22  1  0
  8 23  1  0
  9 24  1  0
 11 25  1  0
 12 26  1  0
 12 27  1  0
 15 28  1  0
 15 29  1  0
 16 30  1  0
 16 31  1  0
 17 32  1  0
M  END
>  <Ligand ID>  (1) 
LIG0004713

>  <Ligand>  (1) 
CHEMBL414185

>  <SMILES>  (1) 
COC(=O)c1ccccc1NCC1=NCCN1

>  <CID>  (1) 
44271661.0

>  <ChEMBL ID>  (1) 
nan

>  <InChiKey>  (1) 
CGAOZWXESGMCAM-UHFFFAOYSA-N

>  <InChi>  (1) 
InChI=1S/C12H15N3O2/c1-17-12(16)9-4-2-3-5-10(9)15-8-11-13-6-7-14-11/h2-5,15H,6-8H2,1H3,(H,13,14)

>  <IUPAC Name>  (1) 
methyl 2-(4,5-dihydro-1H-imidazol-2-ylmethylamino)benzoate

$$$$
