
     RDKit          3D

 41 43  0  0  0  0  0  0  0  0999 V2000
    5.2948   -0.0981    0.7234 C   0  0  0  0  0  0  0  0  0  0  0  0
    3.8762    0.4794    0.4184 C   0  0  0  0  0  0  0  0  0  0  0  0
    2.9510   -0.6079    0.5834 N   0  0  0  0  0  0  0  0  0  0  0  0
    3.3229   -1.7367    1.2297 N   0  0  0  0  0  0  0  0  0  0  0  0
    2.2811   -2.5778    1.2272 C   0  0  0  0  0  0  0  0  0  0  0  0
    1.3103   -1.9518    0.5883 N   0  0  0  0  0  0  0  0  0  0  0  0
    1.6764   -0.7306    0.1718 C   0  0  0  0  0  0  0  0  0  0  0  0
    0.8110    0.1712   -0.5635 C   0  0  0  0  0  0  0  0  0  0  0  0
    1.1697    1.4419   -0.9560 C   0  0  0  0  0  0  0  0  0  0  0  0
    0.3233    2.3151   -1.6390 C   0  0  0  0  0  0  0  0  0  0  0  0
   -0.9439    1.9177   -1.9528 C   0  0  0  0  0  0  0  0  0  0  0  0
   -1.3244    0.6549   -1.5719 C   0  0  0  0  0  0  0  0  0  0  0  0
   -0.4723   -0.2250   -0.8841 C   0  0  0  0  0  0  0  0  0  0  0  0
   -1.0404   -1.4978   -0.6059 N   0  0  0  0  0  0  0  0  0  0  0  0
   -2.4209   -1.8120   -0.9691 C   0  0  0  0  0  0  0  0  0  0  0  0
   -3.4114   -1.0198   -0.1960 C   0  0  0  0  0  0  0  0  0  0  0  0
   -3.2298   -0.1495    0.7386 N   0  0  0  0  0  0  0  0  0  0  0  0
   -4.4608    0.3956    1.2337 C   0  0  0  0  0  0  0  0  0  0  0  0
   -5.4544    0.0596    0.1389 C   0  0  0  0  0  0  0  0  0  0  0  0
   -4.8307   -1.1463   -0.4179 N   0  0  0  0  0  0  0  0  0  0  0  0
    3.7208    1.5574    1.4837 C   0  0  0  0  0  0  0  0  0  0  0  0
    5.3316   -0.2018    1.8254 H   0  0  0  0  0  0  0  0  0  0  0  0
    6.0537    0.5761    0.3241 H   0  0  0  0  0  0  0  0  0  0  0  0
    5.3350   -1.1280    0.2954 H   0  0  0  0  0  0  0  0  0  0  0  0
    4.0074    0.8526   -0.5968 H   0  0  0  0  0  0  0  0  0  0  0  0
    2.3129   -3.5612    1.6828 H   0  0  0  0  0  0  0  0  0  0  0  0
    2.1370    1.8602   -0.7542 H   0  0  0  0  0  0  0  0  0  0  0  0
    0.6370    3.3053   -1.9321 H   0  0  0  0  0  0  0  0  0  0  0  0
   -1.6254    2.5688   -2.4809 H   0  0  0  0  0  0  0  0  0  0  0  0
   -2.3297    0.3648   -1.8417 H   0  0  0  0  0  0  0  0  0  0  0  0
   -0.5434   -2.2871   -0.1425 H   0  0  0  0  0  0  0  0  0  0  0  0
   -2.5669   -2.8955   -0.8165 H   0  0  0  0  0  0  0  0  0  0  0  0
   -2.5316   -1.6369   -2.0803 H   0  0  0  0  0  0  0  0  0  0  0  0
   -4.4158    1.5205    1.3122 H   0  0  0  0  0  0  0  0  0  0  0  0
   -4.7551   -0.0011    2.2248 H   0  0  0  0  0  0  0  0  0  0  0  0
   -5.4017    0.8420   -0.6425 H   0  0  0  0  0  0  0  0  0  0  0  0
   -6.4571   -0.1493    0.5090 H   0  0  0  0  0  0  0  0  0  0  0  0
   -5.3233   -1.9542   -0.8911 H   0  0  0  0  0  0  0  0  0  0  0  0
    4.1992    2.4918    1.1983 H   0  0  0  0  0  0  0  0  0  0  0  0
    2.6240    1.7579    1.5974 H   0  0  0  0  0  0  0  0  0  0  0  0
    4.1636    1.1857    2.4282 H   0  0  0  0  0  0  0  0  0  0  0  0
  1  2  1  0
  2  3  1  0
  3  4  1  0
  4  5  2  0
  5  6  1  0
  6  7  2  0
  7  8  1  0
  8  9  2  0
  9 10  1  0
 10 11  2  0
 11 12  1  0
 12 13  2  0
 13 14  1  0
 14 15  1  0
 15 16  1  0
 16 17  2  0
 17 18  1  0
 18 19  1  0
 19 20  1  0
  2 21  1  0
  7  3  1  0
 13  8  1  0
 20 16  1  0
  1 22  1  0
  1 23  1  0
  1 24  1  0
  2 25  1  0
  5 26  1  0
  9 27  1  0
 10 28  1  0
 11 29  1  0
 12 30  1  0
 14 31  1  0
 15 32  1  0
 15 33  1  0
 18 34  1  0
 18 35  1  0
 19 36  1  0
 19 37  1  0
 20 38  1  0
 21 39  1  0
 21 40  1  0
 21 41  1  0
M  END
>  <Ligand ID>  (1) 
LIG0003482

>  <Ligand>  (1) 
CHEMBL17151

>  <SMILES>  (1) 
CC(n1ncnc1c1ccccc1NCC1=NCCN1)C

>  <CID>  (1) 
9903932.0

>  <ChEMBL ID>  (1) 
nan

>  <InChiKey>  (1) 
XAYQDNQPTLHHFC-UHFFFAOYSA-N

>  <InChi>  (1) 
InChI=1S/C15H20N6/c1-11(2)21-15(19-10-20-21)12-5-3-4-6-13(12)18-9-14-16-7-8-17-14/h3-6,10-11,18H,7-9H2,1-2H3,(H,16,17)

>  <IUPAC Name>  (1) 
N-(4,5-dihydro-1H-imidazol-2-ylmethyl)-2-(2-propan-2-yl-1,2,4-triazol-3-yl)aniline

$$$$
