
     RDKit          3D

 73 75  0  0  0  0  0  0  0  0999 V2000
    3.3509    0.8868    3.0988 O   0  0  0  0  0  0  0  0  0  0  0  0
    2.7035    1.0547    2.0500 C   0  0  0  0  0  0  0  0  0  0  0  0
    1.2366    1.0882    2.0978 C   0  0  0  0  0  0  0  0  0  0  0  0
    0.5183    1.3553    0.8786 N   0  0  0  0  0  0  0  0  0  0  0  0
   -0.9300    1.2434    0.7728 C   0  0  0  0  0  0  0  0  0  0  0  0
   -1.4477    0.9008    1.8572 O   0  0  0  0  0  0  0  0  0  0  0  0
   -1.7120    1.4957   -0.4296 C   0  0  1  0  0  0  0  0  0  0  0  0
   -1.5851    0.4404   -1.5760 C   0  0  0  0  0  0  0  0  0  0  0  0
   -0.1738    0.3308   -1.7705 C   0  0  0  0  0  0  0  0  0  0  0  0
    0.7078    0.5617   -2.7590 C   0  0  0  0  0  0  0  0  0  0  0  0
    2.0569    0.3079   -2.4251 C   0  0  0  0  0  0  0  0  0  0  0  0
    3.3440   -0.3310   -2.6309 C   0  0  1  0  0  0  0  0  0  0  0  0
    3.9329    0.0328   -1.3055 N   0  0  0  0  0  0  0  0  0  0  0  0
    4.9924    0.7715   -0.8463 C   0  0  0  0  0  0  0  0  0  0  0  0
    5.8829    1.0860   -1.5849 O   0  0  0  0  0  0  0  0  0  0  0  0
    4.9104    1.1091    0.6511 C   0  0  1  0  0  0  0  0  0  0  0  0
    3.4918    1.1913    0.8914 N   0  0  0  0  0  0  0  0  0  0  0  0
    5.4538   -0.1610    1.3863 C   0  0  0  0  0  0  0  0  0  0  0  0
    6.8394   -0.3149    0.8855 C   0  0  0  0  0  0  0  0  0  0  0  0
    7.9174    0.2913    1.5240 C   0  0  0  0  0  0  0  0  0  0  0  0
    9.1865    0.1156    1.0162 C   0  0  0  0  0  0  0  0  0  0  0  0
    9.4077   -0.6510   -0.1145 C   0  0  0  0  0  0  0  0  0  0  0  0
    8.3355   -1.2640   -0.7637 C   0  0  0  0  0  0  0  0  0  0  0  0
    7.0632   -1.0799   -0.2434 C   0  0  0  0  0  0  0  0  0  0  0  0
    3.2162   -1.8076   -2.6525 C   0  0  0  0  0  0  0  0  0  0  0  0
    2.7421   -2.4378   -3.6556 O   0  0  0  0  0  0  0  0  0  0  0  0
    3.6048   -2.6029   -1.5809 O   0  0  0  0  0  0  0  0  0  0  0  0
   -3.1402    1.4291   -0.1198 N   0  0  0  0  0  0  0  0  0  0  0  0
   -3.7543    0.3054    0.4731 C   0  0  0  0  0  0  0  0  0  0  0  0
   -3.1532   -0.7486    0.7945 O   0  0  0  0  0  0  0  0  0  0  0  0
   -5.2317    0.3237    0.7602 C   0  0  2  0  0  0  0  0  0  0  0  0
   -5.8180   -0.7633   -0.1292 C   0  0  0  0  0  0  0  0  0  0  0  0
   -7.2713   -0.9077    0.0044 C   0  0  0  0  0  0  0  0  0  0  0  0
   -8.2009   -0.2251   -0.7526 C   0  0  0  0  0  0  0  0  0  0  0  0
   -9.5659   -0.4172   -0.5657 C   0  0  0  0  0  0  0  0  0  0  0  0
  -10.0240   -1.3028    0.3895 C   0  0  0  0  0  0  0  0  0  0  0  0
   -9.0889   -1.9828    1.1436 C   0  0  0  0  0  0  0  0  0  0  0  0
   -7.7305   -1.8065    0.9740 C   0  0  0  0  0  0  0  0  0  0  0  0
  -11.3727   -1.5384    0.6238 O   0  0  0  0  0  0  0  0  0  0  0  0
   -5.8299    1.5803    0.3558 N   0  0  0  0  0  0  0  0  0  0  0  0
    0.9844    1.9492    2.7824 H   0  0  0  0  0  0  0  0  0  0  0  0
    0.8133    0.2011    2.6231 H   0  0  0  0  0  0  0  0  0  0  0  0
    0.9564    1.6937    0.0264 H   0  0  0  0  0  0  0  0  0  0  0  0
   -1.4856    2.5039   -0.7868 H   0  0  0  0  0  0  0  0  0  0  0  0
   -2.0189   -0.5154   -1.2281 H   0  0  0  0  0  0  0  0  0  0  0  0
   -2.2058    0.8330   -2.3741 H   0  0  0  0  0  0  0  0  0  0  0  0
    0.3526   -0.1534   -0.8704 H   0  0  0  0  0  0  0  0  0  0  0  0
    0.4037    0.9165   -3.7391 H   0  0  0  0  0  0  0  0  0  0  0  0
    2.4323    1.4316   -2.1707 H   0  0  0  0  0  0  0  0  0  0  0  0
    1.9776   -0.0034   -1.2169 H   0  0  0  0  0  0  0  0  0  0  0  0
    3.9468    0.0820   -3.4545 H   0  0  0  0  0  0  0  0  0  0  0  0
    3.3731   -0.4634   -0.5260 H   0  0  0  0  0  0  0  0  0  0  0  0
    5.5649    1.8612    0.9318 H   0  0  0  0  0  0  0  0  0  0  0  0
    2.9167    1.4636    0.0635 H   0  0  0  0  0  0  0  0  0  0  0  0
    4.8345   -1.0298    1.1780 H   0  0  0  0  0  0  0  0  0  0  0  0
    5.5089    0.1494    2.4407 H   0  0  0  0  0  0  0  0  0  0  0  0
    7.7621    0.9001    2.4177 H   0  0  0  0  0  0  0  0  0  0  0  0
   10.0535    0.5633    1.4730 H   0  0  0  0  0  0  0  0  0  0  0  0
   10.4013   -0.8035   -0.5331 H   0  0  0  0  0  0  0  0  0  0  0  0
    8.5253   -1.8610   -1.6478 H   0  0  0  0  0  0  0  0  0  0  0  0
    6.2499   -1.5656   -0.7653 H   0  0  0  0  0  0  0  0  0  0  0  0
    3.2990   -3.5577   -1.4319 H   0  0  0  0  0  0  0  0  0  0  0  0
   -3.7768    2.2518   -0.3395 H   0  0  0  0  0  0  0  0  0  0  0  0
   -5.4679    0.0599    1.7970 H   0  0  0  0  0  0  0  0  0  0  0  0
   -5.6221   -0.4291   -1.1887 H   0  0  0  0  0  0  0  0  0  0  0  0
   -5.2901   -1.7276   -0.0431 H   0  0  0  0  0  0  0  0  0  0  0  0
   -7.8634    0.4606   -1.4924 H   0  0  0  0  0  0  0  0  0  0  0  0
  -10.3053    0.1123   -1.1532 H   0  0  0  0  0  0  0  0  0  0  0  0
   -9.4435   -2.6722    1.8873 H   0  0  0  0  0  0  0  0  0  0  0  0
   -7.0143   -2.3572    1.5840 H   0  0  0  0  0  0  0  0  0  0  0  0
  -12.0182   -1.1574   -0.0695 H   0  0  0  0  0  0  0  0  0  0  0  0
   -5.9478    1.6487   -0.6692 H   0  0  0  0  0  0  0  0  0  0  0  0
   -6.7613    1.6559    0.7806 H   0  0  0  0  0  0  0  0  0  0  0  0
  1  2  2  0
  2  3  1  0
  3  4  1  0
  4  5  1  0
  5  6  2  0
  5  7  1  0
  7  8  1  0
  8  9  1  0
  9 10  2  0
 10 11  1  0
 11 12  1  0
 12 13  1  0
 13 14  1  0
 14 15  2  0
 14 16  1  0
 16 17  1  0
 16 18  1  0
 18 19  1  0
 19 20  2  0
 20 21  1  0
 21 22  2  0
 22 23  1  0
 23 24  2  0
 12 25  1  0
 25 26  2  0
 25 27  1  0
  7 28  1  0
 28 29  1  0
 29 30  2  0
 29 31  1  0
 31 32  1  0
 32 33  1  0
 33 34  2  0
 34 35  1  0
 35 36  2  0
 36 37  1  0
 37 38  2  0
 36 39  1  0
 31 40  1  0
 17  2  1  0
 24 19  1  0
 38 33  1  0
  3 41  1  0
  3 42  1  0
  4 43  1  0
  7 44  1  6
  8 45  1  0
  8 46  1  0
  9 47  1  0
 10 48  1  0
 11 49  1  0
 11 50  1  0
 12 51  1  6
 13 52  1  0
 16 53  1  6
 17 54  1  0
 18 55  1  0
 18 56  1  0
 20 57  1  0
 21 58  1  0
 22 59  1  0
 23 60  1  0
 24 61  1  0
 27 62  1  0
 28 63  1  0
 31 64  1  1
 32 65  1  0
 32 66  1  0
 34 67  1  0
 35 68  1  0
 37 69  1  0
 38 70  1  0
 39 71  1  0
 40 72  1  0
 40 73  1  0
M  END
>  <Ligand ID>  (1) 
LIG0005735

>  <Ligand>  (1) 
trans-H-Tyr-c[D-AllylGly-Gly-Phe-D-Allylgly]-OH

>  <SMILES>  (1) 
O=C1CNC(=O)[C@@H](C/C=C/C[C@@H](NC(=O)[C@@H](N1)Cc1ccccc1)C(=O)O)NC(=O)[C@H](Cc1ccc(cc1)O)N

>  <CID>  (1) 
16733487.0

>  <ChEMBL ID>  (1) 
nan

>  <InChiKey>  (1) 
VNZCTJLIVONUDE-KLGXLVMCSA-N

>  <InChi>  (1) 
InChI=1S/C28H33N5O7/c29-20(14-18-10-12-19(34)13-11-18)25(36)32-21-8-4-5-9-22(28(39)40)33-27(38)23(15-17-6-2-1-3-7-17)31-24(35)16-30-26(21)37/h1-7,10-13,20-23,34H,8-9,14-16,29H2,(H,30,37)(H,31,35)(H,32,36)(H,33,38)(H,39,40)/b5-4+/t20-,21+,22+,23-/m0/s1

>  <IUPAC Name>  (1) 
(5S,8R,10E,13R)-13-[[(2S)-2-amino-3-(4-hydroxyphenyl)propanoyl]amino]-5-benzyl-3,6,14-trioxo-1,4,7-triazacyclotetradec-10-ene-8-carboxylic acid

$$$$
