
     RDKit          3D

142147  0  0  0  0  0  0  0  0999 V2000
   -6.8538   -6.4413    3.1281 N   0  0  0  0  0  0  0  0  0  0  0  0
   -5.6635   -6.0482    2.4354 C   0  0  0  0  0  0  0  0  0  0  0  0
   -5.8284   -5.0880    1.5677 N   0  0  0  0  0  0  0  0  0  0  0  0
   -4.6317   -4.6278    0.8114 C   0  0  0  0  0  0  0  0  0  0  0  0
   -5.0552   -4.4425   -0.6013 C   0  0  0  0  0  0  0  0  0  0  0  0
   -4.0701   -4.0665   -1.6088 C   0  0  0  0  0  0  0  0  0  0  0  0
   -3.2646   -2.8544   -1.5894 C   0  0  2  0  0  0  0  0  0  0  0  0
   -2.4065   -2.6706   -0.4777 N   0  0  0  0  0  0  0  0  0  0  0  0
   -0.9717   -2.8767   -0.4467 C   0  0  0  0  0  0  0  0  0  0  0  0
   -0.4630   -3.2013   -1.4899 O   0  0  0  0  0  0  0  0  0  0  0  0
   -0.2280   -2.6733    0.8651 C   0  0  1  0  0  0  0  0  0  0  0  0
   -0.8337   -3.7335    1.7579 C   0  0  0  0  0  0  0  0  0  0  0  0
   -0.2987   -3.7930    3.1144 C   0  0  0  0  0  0  0  0  0  0  0  0
   -0.7586   -3.0848    4.1980 C   0  0  0  0  0  0  0  0  0  0  0  0
   -0.2007   -3.2017    5.4721 C   0  0  0  0  0  0  0  0  0  0  0  0
    0.8632   -4.0576    5.6970 C   0  0  0  0  0  0  0  0  0  0  0  0
    1.3292   -4.7715    4.6084 C   0  0  0  0  0  0  0  0  0  0  0  0
    0.7754   -4.6528    3.3553 C   0  0  0  0  0  0  0  0  0  0  0  0
    1.1998   -2.8639    0.7148 N   0  0  0  0  0  0  0  0  0  0  0  0
    2.0021   -1.7160    0.5538 C   0  0  0  0  0  0  0  0  0  0  0  0
    1.4145   -0.6467    0.4300 O   0  0  0  0  0  0  0  0  0  0  0  0
    3.5052   -1.6699    0.5074 C   0  0  1  0  0  0  0  0  0  0  0  0
    4.1073   -2.9358    0.1011 C   0  0  0  0  0  0  0  0  0  0  0  0
    3.6837   -3.4112   -1.2406 C   0  0  0  0  0  0  0  0  0  0  0  0
    2.8610   -2.8533   -2.1080 N   0  0  0  0  0  0  0  0  0  0  0  0
    2.7627   -3.6644   -3.1928 C   0  0  0  0  0  0  0  0  0  0  0  0
    3.5528   -4.7456   -2.9666 N   0  0  0  0  0  0  0  0  0  0  0  0
    4.1377   -4.6225   -1.7712 C   0  0  0  0  0  0  0  0  0  0  0  0
    3.9280   -0.4558   -0.0873 N   0  0  0  0  0  0  0  0  0  0  0  0
    3.7981    0.8724    0.4881 C   0  0  0  0  0  0  0  0  0  0  0  0
    3.2222    0.8792    1.5763 O   0  0  0  0  0  0  0  0  0  0  0  0
    4.3235    2.0804   -0.2181 C   0  0  2  0  0  0  0  0  0  0  0  0
    3.1848    2.8174   -0.8833 C   0  0  0  0  0  0  0  0  0  0  0  0
    2.0126    3.6290    0.1324 S   0  0  0  0  0  0  0  0  0  0  0  0
    0.9098    2.4555    1.4713 S   0  0  0  0  0  0  0  0  0  0  0  0
   -0.5010    1.7480    0.7193 C   0  0  0  0  0  0  0  0  0  0  0  0
   -1.5959    2.6477    0.2948 C   0  0  1  0  0  0  0  0  0  0  0  0
   -2.6180    1.7761   -0.3339 N   0  0  0  0  0  0  0  0  0  0  0  0
   -3.3375    2.0816   -1.5090 C   0  0  0  0  0  0  0  0  0  0  0  0
   -3.3198    3.2628   -1.8479 O   0  0  0  0  0  0  0  0  0  0  0  0
   -4.0362    0.9559   -2.1787 C   0  0  2  0  0  0  0  0  0  0  0  0
   -3.4250   -0.3158   -1.7968 N   0  0  0  0  0  0  0  0  0  0  0  0
   -3.9534   -1.5987   -2.0820 C   0  0  0  0  0  0  0  0  0  0  0  0
   -4.9916   -1.6274   -2.7558 O   0  0  0  0  0  0  0  0  0  0  0  0
   -3.7755    1.1481   -3.6987 C   0  0  0  0  0  0  0  0  0  0  0  0
   -4.3465    2.4635   -4.0879 C   0  0  0  0  0  0  0  0  0  0  0  0
   -3.6843    3.6458   -4.4300 C   0  0  0  0  0  0  0  0  0  0  0  0
   -4.5765    4.5933   -4.7223 N   0  0  0  0  0  0  0  0  0  0  0  0
   -5.8279    4.1173   -4.5974 C   0  0  0  0  0  0  0  0  0  0  0  0
   -5.7004    2.8015   -4.2072 C   0  0  0  0  0  0  0  0  0  0  0  0
   -6.8492    2.0526   -3.9993 C   0  0  0  0  0  0  0  0  0  0  0  0
   -8.0971    2.6437   -4.1888 C   0  0  0  0  0  0  0  0  0  0  0  0
   -8.1937    3.9752   -4.5829 C   0  0  0  0  0  0  0  0  0  0  0  0
   -7.0553    4.7219   -4.7901 C   0  0  0  0  0  0  0  0  0  0  0  0
   -2.1955    3.5622    1.2280 C   0  0  0  0  0  0  0  0  0  0  0  0
   -3.4593    3.4873    1.4431 O   0  0  0  0  0  0  0  0  0  0  0  0
   -1.4389    4.5251    1.8944 N   0  0  0  0  0  0  0  0  0  0  0  0
   -1.9305    5.5151    2.8398 C   0  0  2  0  0  0  0  0  0  0  0  0
   -1.5518    6.8713    2.4342 C   0  0  0  0  0  0  0  0  0  0  0  0
   -0.8799    6.9680    1.3381 O   0  0  0  0  0  0  0  0  0  0  0  0
   -1.8299    8.0811    3.0930 N   0  0  0  0  0  0  0  0  0  0  0  0
   -1.4255    5.2458    4.2501 C   0  0  2  0  0  0  0  0  0  0  0  0
   -1.8830    3.9851    4.6403 O   0  0  0  0  0  0  0  0  0  0  0  0
   -2.0307    6.2812    5.1903 C   0  0  0  0  0  0  0  0  0  0  0  0
    5.2368    1.7159   -1.3334 N   0  0  0  0  0  0  0  0  0  0  0  0
    6.5314    2.3611   -1.3416 C   0  0  0  0  0  0  0  0  0  0  0  0
    6.8006    3.1793   -0.4252 O   0  0  0  0  0  0  0  0  0  0  0  0
    7.5239    2.0914   -2.3785 C   0  0  1  0  0  0  0  0  0  0  0  0
    8.8756    1.8811   -1.8010 C   0  0  0  0  0  0  0  0  0  0  0  0
    9.0215    0.7724   -0.8609 C   0  0  0  0  0  0  0  0  0  0  0  0
    9.3204   -0.4896   -1.3882 C   0  0  0  0  0  0  0  0  0  0  0  0
    9.4849   -1.6007   -0.6085 C   0  0  0  0  0  0  0  0  0  0  0  0
    9.3550   -1.4979    0.7788 C   0  0  0  0  0  0  0  0  0  0  0  0
    9.0607   -0.2555    1.3003 C   0  0  0  0  0  0  0  0  0  0  0  0
    8.8972    0.8567    0.5045 C   0  0  0  0  0  0  0  0  0  0  0  0
    7.1294    1.1005   -3.3575 N   0  0  0  0  0  0  0  0  0  0  0  0
   -4.3961   -6.6391    2.6741 N   0  0  0  0  0  0  0  0  0  0  0  0
   -7.2594   -5.7768    3.8065 H   0  0  0  0  0  0  0  0  0  0  0  0
   -7.2405   -7.3664    2.9072 H   0  0  0  0  0  0  0  0  0  0  0  0
   -4.4811   -3.5982    1.2465 H   0  0  0  0  0  0  0  0  0  0  0  0
   -3.8175   -5.3193    0.9773 H   0  0  0  0  0  0  0  0  0  0  0  0
   -5.9884   -3.8268   -0.5995 H   0  0  0  0  0  0  0  0  0  0  0  0
   -5.4542   -5.4647   -0.9262 H   0  0  0  0  0  0  0  0  0  0  0  0
   -4.5843   -4.2235   -2.6275 H   0  0  0  0  0  0  0  0  0  0  0  0
   -3.3065   -4.9365   -1.6347 H   0  0  0  0  0  0  0  0  0  0  0  0
   -2.5642   -3.0243   -2.5470 H   0  0  0  0  0  0  0  0  0  0  0  0
   -2.7824   -2.3347    0.4145 H   0  0  0  0  0  0  0  0  0  0  0  0
   -0.4961   -1.6672    1.2416 H   0  0  0  0  0  0  0  0  0  0  0  0
   -1.9385   -3.4835    1.8175 H   0  0  0  0  0  0  0  0  0  0  0  0
   -0.8442   -4.7292    1.2335 H   0  0  0  0  0  0  0  0  0  0  0  0
   -1.5955   -2.4022    4.0544 H   0  0  0  0  0  0  0  0  0  0  0  0
   -0.5803   -2.6341    6.3080 H   0  0  0  0  0  0  0  0  0  0  0  0
    1.3425   -4.2097    6.6340 H   0  0  0  0  0  0  0  0  0  0  0  0
    2.1806   -5.4636    4.7366 H   0  0  0  0  0  0  0  0  0  0  0  0
    1.2104   -5.2622    2.5556 H   0  0  0  0  0  0  0  0  0  0  0  0
    1.6782   -3.7594    0.7047 H   0  0  0  0  0  0  0  0  0  0  0  0
    3.7217   -1.5206    1.6249 H   0  0  0  0  0  0  0  0  0  0  0  0
    5.2183   -2.8862    0.1686 H   0  0  0  0  0  0  0  0  0  0  0  0
    3.8122   -3.7354    0.8052 H   0  0  0  0  0  0  0  0  0  0  0  0
    2.3802   -1.9378   -1.9505 H   0  0  0  0  0  0  0  0  0  0  0  0
    2.1595   -3.4881   -4.0819 H   0  0  0  0  0  0  0  0  0  0  0  0
    4.8397   -5.3061   -1.2610 H   0  0  0  0  0  0  0  0  0  0  0  0
    4.3719   -0.4634   -1.0054 H   0  0  0  0  0  0  0  0  0  0  0  0
    4.8290    2.7648    0.4712 H   0  0  0  0  0  0  0  0  0  0  0  0
    3.6346    3.5918   -1.5773 H   0  0  0  0  0  0  0  0  0  0  0  0
    2.7057    2.1138   -1.6530 H   0  0  0  0  0  0  0  0  0  0  0  0
   -0.8751    0.8053    1.2107 H   0  0  0  0  0  0  0  0  0  0  0  0
   -0.1321    1.3262   -0.3118 H   0  0  0  0  0  0  0  0  0  0  0  0
   -1.2257    3.2938   -0.5680 H   0  0  0  0  0  0  0  0  0  0  0  0
   -2.8129    0.9122    0.1523 H   0  0  0  0  0  0  0  0  0  0  0  0
   -5.1212    0.9294   -2.0655 H   0  0  0  0  0  0  0  0  0  0  0  0
   -2.5271   -0.3301   -1.2958 H   0  0  0  0  0  0  0  0  0  0  0  0
   -4.1967    0.3040   -4.2711 H   0  0  0  0  0  0  0  0  0  0  0  0
   -2.6784    1.1420   -3.8621 H   0  0  0  0  0  0  0  0  0  0  0  0
   -2.6001    3.7424   -4.4436 H   0  0  0  0  0  0  0  0  0  0  0  0
   -4.3684    5.5876   -5.0172 H   0  0  0  0  0  0  0  0  0  0  0  0
   -6.8392    1.0174   -3.6967 H   0  0  0  0  0  0  0  0  0  0  0  0
   -9.0047    2.1105   -4.0408 H   0  0  0  0  0  0  0  0  0  0  0  0
   -9.1375    4.4446   -4.7310 H   0  0  0  0  0  0  0  0  0  0  0  0
   -7.1449    5.7730   -5.1017 H   0  0  0  0  0  0  0  0  0  0  0  0
   -0.3920    4.5716    1.7216 H   0  0  0  0  0  0  0  0  0  0  0  0
   -3.0321    5.4445    2.8976 H   0  0  0  0  0  0  0  0  0  0  0  0
   -1.1044    8.5262    3.7070 H   0  0  0  0  0  0  0  0  0  0  0  0
   -2.7495    8.6025    3.0176 H   0  0  0  0  0  0  0  0  0  0  0  0
   -0.3292    5.3188    4.3388 H   0  0  0  0  0  0  0  0  0  0  0  0
   -2.8671    3.9413    4.5420 H   0  0  0  0  0  0  0  0  0  0  0  0
   -2.4316    5.7578    6.0928 H   0  0  0  0  0  0  0  0  0  0  0  0
   -1.2708    6.9786    5.5297 H   0  0  0  0  0  0  0  0  0  0  0  0
   -2.9265    6.7783    4.7111 H   0  0  0  0  0  0  0  0  0  0  0  0
    4.9724    1.0528   -2.0727 H   0  0  0  0  0  0  0  0  0  0  0  0
    7.6228    3.0461   -3.0031 H   0  0  0  0  0  0  0  0  0  0  0  0
    9.1075    2.8224   -1.2070 H   0  0  0  0  0  0  0  0  0  0  0  0
    9.6314    1.8819   -2.6090 H   0  0  0  0  0  0  0  0  0  0  0  0
    9.4272   -0.6037   -2.4499 H   0  0  0  0  0  0  0  0  0  0  0  0
    9.7214   -2.5747   -1.0372 H   0  0  0  0  0  0  0  0  0  0  0  0
    9.4915   -2.3861    1.4070 H   0  0  0  0  0  0  0  0  0  0  0  0
    8.9583   -0.1746    2.3935 H   0  0  0  0  0  0  0  0  0  0  0  0
    8.6816    1.7918    0.9705 H   0  0  0  0  0  0  0  0  0  0  0  0
    6.4685    1.4731   -4.0763 H   0  0  0  0  0  0  0  0  0  0  0  0
    7.9743    0.7761   -3.8910 H   0  0  0  0  0  0  0  0  0  0  0  0
   -3.8869   -6.3760    3.5631 H   0  0  0  0  0  0  0  0  0  0  0  0
   -3.9319   -7.3114    2.0288 H   0  0  0  0  0  0  0  0  0  0  0  0
  1  2  1  0
  2  3  2  3
  3  4  1  0
  4  5  1  0
  5  6  1  0
  6  7  1  0
  7  8  1  0
  8  9  1  0
  9 10  2  0
  9 11  1  0
 11 12  1  0
 12 13  1  0
 13 14  2  0
 14 15  1  0
 15 16  2  0
 16 17  1  0
 17 18  2  0
 11 19  1  0
 19 20  1  0
 20 21  2  0
 20 22  1  0
 22 23  1  0
 23 24  1  0
 24 25  1  0
 25 26  1  0
 26 27  2  0
 27 28  1  0
 22 29  1  0
 29 30  1  0
 30 31  2  0
 30 32  1  0
 32 33  1  0
 33 34  1  0
 34 35  1  0
 35 36  1  0
 36 37  1  0
 37 38  1  0
 38 39  1  0
 39 40  2  0
 39 41  1  0
 41 42  1  0
 42 43  1  0
 43 44  2  0
 41 45  1  0
 45 46  1  0
 46 47  2  0
 47 48  1  0
 48 49  1  0
 49 50  2  0
 50 51  1  0
 51 52  2  0
 52 53  1  0
 53 54  2  0
 37 55  1  0
 55 56  2  0
 55 57  1  0
 57 58  1  0
 58 59  1  0
 59 60  2  0
 59 61  1  0
 58 62  1  0
 62 63  1  0
 62 64  1  0
 32 65  1  0
 65 66  1  0
 66 67  2  0
 66 68  1  0
 68 69  1  0
 69 70  1  0
 70 71  2  0
 71 72  1  0
 72 73  2  0
 73 74  1  0
 74 75  2  0
 68 76  1  0
  2 77  1  0
 43  7  1  0
 50 46  1  0
 75 70  1  0
 18 13  1  0
 28 24  2  0
 54 49  1  0
  1 78  1  0
  1 79  1  0
  4 80  1  0
  4 81  1  0
  5 82  1  0
  5 83  1  0
  6 84  1  0
  6 85  1  0
  7 86  1  6
  8 87  1  0
 11 88  1  1
 12 89  1  0
 12 90  1  0
 14 91  1  0
 15 92  1  0
 16 93  1  0
 17 94  1  0
 18 95  1  0
 19 96  1  0
 22 97  1  1
 23 98  1  0
 23 99  1  0
 25100  1  0
 26101  1  0
 28102  1  0
 29103  1  0
 32104  1  1
 33105  1  0
 33106  1  0
 36107  1  0
 36108  1  0
 37109  1  6
 38110  1  0
 41111  1  6
 42112  1  0
 45113  1  0
 45114  1  0
 47115  1  0
 48116  1  0
 51117  1  0
 52118  1  0
 53119  1  0
 54120  1  0
 57121  1  0
 58122  1  1
 61123  1  0
 61124  1  0
 62125  1  6
 63126  1  0
 64127  1  0
 64128  1  0
 64129  1  0
 65130  1  0
 68131  1  6
 69132  1  0
 69133  1  0
 71134  1  0
 72135  1  0
 73136  1  0
 74137  1  0
 75138  1  0
 76139  1  0
 76140  1  0
 77141  1  0
 77142  1  0
M  END
>  <Ligand ID>  (1) 
LIG0000803

>  <Ligand>  (1) 
CHEMBL405087

>  <SMILES>  (1) 
NC(=NCCC[C@@H]1NC(=O)[C@@H](Cc2ccccc2)NC(=O)[C@@H](Cc2[nH]cnc2)NC(=O)[C@H](CSSC[C@@H](NC(=O)[C@H](NC1=O)Cc1c[nH]c2c1cccc2)C(=O)N[C@H](C(=O)N)[C@H](O)C)NC(=O)[C@@H](Cc1ccccc1)N)N

>  <CID>  (1) 
44285237.0

>  <ChEMBL ID>  (1) 
nan

>  <InChiKey>  (1) 
HGUGDVPBNFFDAR-NVKXZJFQSA-N

>  <InChi>  (1) 
InChI=1S/C51H65N15O9S2/c1-28(67)42(43(53)68)66-50(75)41-26-77-76-25-40(64-44(69)34(52)19-29-11-4-2-5-12-29)49(74)63-39(22-32-24-56-27-59-32)48(73)61-37(20-30-13-6-3-7-14-30)46(71)60-36(17-10-18-57-51(54)55)45(70)62-38(47(72)65-41)21-31-23-58-35-16-9-8-15-33(31)35/h2-9,11-16,23-24,27-28,34,36-42,58,67H,10,17-22,25-26,52H2,1H3,(H2,53,68)(H,56,59)(H,60,71)(H,61,73)(H,62,70)(H,63,74)(H,64,69)(H,65,72)(H,66,75)(H4,54,55,57)/t28-,34-,36+,37-,38-,39-,40+,41-,42+/m1/s1

>  <IUPAC Name>  (1) 
(4S,7R,10S,13R,16R,19R)-N-[(2S,3R)-1-amino-3-hydroxy-1-oxobutan-2-yl]-19-[[(2R)-2-amino-3-phenylpropanoyl]amino]-13-benzyl-10-[3-(diaminomethylideneamino)propyl]-16-(1H-imidazol-5-ylmethyl)-7-(1H-indol-3-ylmethyl)-6,9,12,15,18-pentaoxo-1,2-dithia-5,8,11,14,17-pentazacycloicosane-4-carboxamide

$$$$
