
     RDKit          3D

 82 88  0  0  0  0  0  0  0  0999 V2000
   -3.0743   -5.7745   -1.4130 C   0  0  0  0  0  0  0  0  0  0  0  0
   -2.4588   -4.5312   -1.5985 O   0  0  0  0  0  0  0  0  0  0  0  0
   -2.8350   -3.4510   -0.8185 C   0  0  0  0  0  0  0  0  0  0  0  0
   -3.8245   -3.5513    0.1681 C   0  0  0  0  0  0  0  0  0  0  0  0
   -4.1953   -2.4503    0.9522 C   0  0  0  0  0  0  0  0  0  0  0  0
   -3.5612   -1.2240    0.7404 C   0  0  0  0  0  0  0  0  0  0  0  0
   -2.6215   -1.2134   -0.2343 C   0  0  0  0  0  0  0  0  0  0  0  0
   -2.2071   -2.2316   -1.0262 C   0  0  0  0  0  0  0  0  0  0  0  0
   -1.2108   -1.7218   -1.8534 O   0  0  0  0  0  0  0  0  0  0  0  0
   -0.7301   -0.4769   -1.4280 C   0  0  1  0  0  0  0  0  0  0  0  0
   -1.9255    0.0215   -0.6158 C   0  0  1  0  0  0  0  0  0  0  0  0
   -2.7434    0.8435   -1.5332 C   0  0  0  0  0  0  0  0  0  0  0  0
   -3.9320    1.4223   -0.8405 C   0  0  0  0  0  0  0  0  0  0  0  0
   -3.6099    1.9959    0.4060 N   0  0  0  0  0  0  0  0  0  0  0  0
   -2.8677    1.1446    1.2855 C   0  0  1  0  0  0  0  0  0  0  0  0
   -3.7963   -0.0216    1.5568 C   0  0  0  0  0  0  0  0  0  0  0  0
   -1.5713    0.6732    0.6832 C   0  0  1  0  0  0  0  0  0  0  0  0
   -0.9275   -0.4009    1.5544 C   0  0  0  0  0  0  0  0  0  0  0  0
    0.0957   -1.1655    0.7704 C   0  0  0  0  0  0  0  0  0  0  0  0
    0.4340   -0.4343   -0.5011 C   0  0  1  0  0  0  0  0  0  0  0  0
    1.6357   -0.8544   -1.0440 O   0  0  0  0  0  0  0  0  0  0  0  0
    1.6334   -2.1468   -1.4951 C   0  0  0  0  0  0  0  0  0  0  0  0
    0.6504    1.0640   -0.2071 C   0  0  1  0  0  0  0  0  0  0  0  0
   -0.4873    1.6943    0.5469 C   0  0  0  0  0  0  0  0  0  0  0  0
    1.9931    1.2375    0.4146 C   0  0  0  0  0  0  0  0  0  0  0  0
    2.9954    0.7784   -0.4779 O   0  0  0  0  0  0  0  0  0  0  0  0
    4.3574    0.8395   -0.1177 C   0  0  0  0  0  0  0  0  0  0  0  0
    4.5703    1.3240    1.0340 O   0  0  0  0  0  0  0  0  0  0  0  0
    5.4187    0.3730   -1.0240 C   0  0  1  0  0  0  0  0  0  0  0  0
    6.2274   -0.7779   -0.5138 C   0  0  0  0  0  0  0  0  0  0  0  0
    6.9361   -0.4684    0.7654 C   0  0  0  0  0  0  0  0  0  0  0  0
    7.7243   -1.7073    1.1785 C   0  0  0  0  0  0  0  0  0  0  0  0
    7.8711    0.6979    0.5187 C   0  0  0  0  0  0  0  0  0  0  0  0
    4.7684   -0.0644   -2.2698 N   0  0  0  0  0  0  0  0  0  0  0  0
   -3.4247    3.3761    0.4237 C   0  0  0  0  0  0  0  0  0  0  0  0
   -4.7266    4.1638    0.1799 C   0  0  0  0  0  0  0  0  0  0  0  0
   -5.8661    3.9867    1.1242 C   0  0  0  0  0  0  0  0  0  0  0  0
   -5.0998    5.2554    1.1300 C   0  0  0  0  0  0  0  0  0  0  0  0
   -4.0915   -5.7792   -1.8769 H   0  0  0  0  0  0  0  0  0  0  0  0
   -3.1549   -6.0589   -0.3540 H   0  0  0  0  0  0  0  0  0  0  0  0
   -2.4650   -6.5609   -1.9221 H   0  0  0  0  0  0  0  0  0  0  0  0
   -4.3099   -4.5159    0.3189 H   0  0  0  0  0  0  0  0  0  0  0  0
   -4.9516   -2.5136    1.7130 H   0  0  0  0  0  0  0  0  0  0  0  0
   -0.5821    0.1442   -2.3312 H   0  0  0  0  0  0  0  0  0  0  0  0
   -2.1708    1.7012   -1.9803 H   0  0  0  0  0  0  0  0  0  0  0  0
   -3.1161    0.2251   -2.3839 H   0  0  0  0  0  0  0  0  0  0  0  0
   -4.7993    0.7173   -0.8073 H   0  0  0  0  0  0  0  0  0  0  0  0
   -4.3123    2.2614   -1.4960 H   0  0  0  0  0  0  0  0  0  0  0  0
   -2.6701    1.6649    2.2225 H   0  0  0  0  0  0  0  0  0  0  0  0
   -4.8534    0.2935    1.3300 H   0  0  0  0  0  0  0  0  0  0  0  0
   -3.8335   -0.2568    2.6495 H   0  0  0  0  0  0  0  0  0  0  0  0
   -0.3495    0.1669    2.3482 H   0  0  0  0  0  0  0  0  0  0  0  0
   -1.6071   -1.0328    2.1039 H   0  0  0  0  0  0  0  0  0  0  0  0
   -0.3310   -2.1474    0.5036 H   0  0  0  0  0  0  0  0  0  0  0  0
    1.0510   -1.2643    1.3392 H   0  0  0  0  0  0  0  0  0  0  0  0
    2.6677   -2.3509   -1.9028 H   0  0  0  0  0  0  0  0  0  0  0  0
    1.4790   -2.9051   -0.7213 H   0  0  0  0  0  0  0  0  0  0  0  0
    0.9819   -2.2726   -2.4008 H   0  0  0  0  0  0  0  0  0  0  0  0
    0.6677    1.5592   -1.2144 H   0  0  0  0  0  0  0  0  0  0  0  0
   -0.7713    2.6742    0.1881 H   0  0  0  0  0  0  0  0  0  0  0  0
   -0.0839    1.8626    1.5932 H   0  0  0  0  0  0  0  0  0  0  0  0
    2.0795    0.5960    1.3356 H   0  0  0  0  0  0  0  0  0  0  0  0
    2.2167    2.2723    0.7127 H   0  0  0  0  0  0  0  0  0  0  0  0
    6.0652    1.2624   -1.2322 H   0  0  0  0  0  0  0  0  0  0  0  0
    6.9490   -1.0570   -1.3153 H   0  0  0  0  0  0  0  0  0  0  0  0
    5.5064   -1.6328   -0.3500 H   0  0  0  0  0  0  0  0  0  0  0  0
    6.2160   -0.2076    1.5638 H   0  0  0  0  0  0  0  0  0  0  0  0
    7.6615   -1.8390    2.2730 H   0  0  0  0  0  0  0  0  0  0  0  0
    7.3062   -2.6274    0.7338 H   0  0  0  0  0  0  0  0  0  0  0  0
    8.7733   -1.5757    0.8238 H   0  0  0  0  0  0  0  0  0  0  0  0
    7.3564    1.6420    0.8061 H   0  0  0  0  0  0  0  0  0  0  0  0
    8.7918    0.5847    1.0924 H   0  0  0  0  0  0  0  0  0  0  0  0
    8.0989    0.7612   -0.5725 H   0  0  0  0  0  0  0  0  0  0  0  0
    3.7921    0.3058   -2.3147 H   0  0  0  0  0  0  0  0  0  0  0  0
    4.6778   -1.0937   -2.2079 H   0  0  0  0  0  0  0  0  0  0  0  0
   -2.9924    3.7974    1.3346 H   0  0  0  0  0  0  0  0  0  0  0  0
   -2.8137    3.6427   -0.4947 H   0  0  0  0  0  0  0  0  0  0  0  0
   -5.0364    4.3512   -0.8757 H   0  0  0  0  0  0  0  0  0  0  0  0
   -6.9090    4.0248    0.7315 H   0  0  0  0  0  0  0  0  0  0  0  0
   -5.7749    3.2793    1.9793 H   0  0  0  0  0  0  0  0  0  0  0  0
   -4.3535    5.5092    1.8921 H   0  0  0  0  0  0  0  0  0  0  0  0
   -5.6192    6.1679    0.7444 H   0  0  0  0  0  0  0  0  0  0  0  0
  1  2  1  0
  2  3  1  0
  3  4  2  0
  4  5  1  0
  5  6  2  0
  6  7  1  0
  7  8  2  0
  8  9  1  0
  9 10  1  0
 10 11  1  0
 11 12  1  6
 12 13  1  0
 13 14  1  0
 14 15  1  0
 15 16  1  0
 15 17  1  0
 17 18  1  1
 18 19  1  0
 19 20  1  0
 20 21  1  6
 21 22  1  0
 20 23  1  0
 23 24  1  0
 23 25  1  0
 25 26  1  0
 26 27  1  0
 27 28  2  0
 27 29  1  0
 29 30  1  0
 30 31  1  0
 31 32  1  0
 31 33  1  0
 29 34  1  0
 14 35  1  0
 35 36  1  0
 36 37  1  0
 37 38  1  0
  8  3  1  0
 20 10  1  0
 38 36  1  0
 16  6  1  0
 24 17  1  0
 11  7  1  0
 17 11  1  0
  1 39  1  0
  1 40  1  0
  1 41  1  0
  4 42  1  0
  5 43  1  0
 10 44  1  6
 12 45  1  0
 12 46  1  0
 13 47  1  0
 13 48  1  0
 15 49  1  1
 16 50  1  0
 16 51  1  0
 18 52  1  0
 18 53  1  0
 19 54  1  0
 19 55  1  0
 22 56  1  0
 22 57  1  0
 22 58  1  0
 23 59  1  6
 24 60  1  0
 24 61  1  0
 25 62  1  0
 25 63  1  0
 29 64  1  6
 30 65  1  0
 30 66  1  0
 31 67  1  0
 32 68  1  0
 32 69  1  0
 32 70  1  0
 33 71  1  0
 33 72  1  0
 33 73  1  0
 34 74  1  0
 34 75  1  0
 35 76  1  0
 35 77  1  0
 36 78  1  0
 37 79  1  0
 37 80  1  0
 38 81  1  0
 38 82  1  0
M  END
>  <Ligand ID>  (1) 
LIG0003452

>  <Ligand>  (1) 
CHEMBL3944959

>  <SMILES>  (1) 
COc1ccc2c3c1O[C@H]1[C@]43CCN([C@@H](C2)[C@]24CC[C@]1(OC)[C@@H](C2)COC(=O)[C@@H](CC(C)C)N)CC1CC1

>  <CID>  (1) 
134145774.0

>  <ChEMBL ID>  (1) 
nan

>  <InChiKey>  (1) 
RMOUVFCRISRYIQ-RCFZSMBBSA-N

>  <InChi>  (1) 
InChI=1S/C31H44N2O5/c1-18(2)13-22(32)27(34)37-17-21-15-29-9-10-31(21,36-4)28-30(29)11-12-33(16-19-5-6-19)24(29)14-20-7-8-23(35-3)26(38-28)25(20)30/h7-8,18-19,21-22,24,28H,5-6,9-17,32H2,1-4H3/t21-,22+,24-,28-,29-,30+,31-/m0/s1

>  <IUPAC Name>  (1) 
[(1R,2R,6S,14S,15S,16S)-5-(cyclopropylmethyl)-11,15-dimethoxy-13-oxa-5-azahexacyclo[13.2.2.12,8.01,6.02,14.012,20]icosa-8(20),9,11-trien-16-yl]methyl (2R)-2-amino-4-methylpentanoate

$$$$
