
     RDKit          3D

 55 57  0  0  0  0  0  0  0  0999 V2000
    8.0631    1.1104   -0.6453 C   0  0  0  0  0  0  0  0  0  0  0  0
    7.4292    1.6279    0.6190 C   0  0  0  0  0  0  0  0  0  0  0  0
    6.0309    1.5890    0.4872 O   0  0  0  0  0  0  0  0  0  0  0  0
    5.4348    0.3490    0.2572 C   0  0  0  0  0  0  0  0  0  0  0  0
    6.2131   -0.6376    0.1870 O   0  0  0  0  0  0  0  0  0  0  0  0
    4.0129    0.2198    0.1106 N   0  0  0  0  0  0  0  0  0  0  0  0
    3.1226    1.3347    0.1889 C   0  0  0  0  0  0  0  0  0  0  0  0
    1.9042    1.2339   -0.6739 C   0  0  0  0  0  0  0  0  0  0  0  0
    1.2550   -0.1225   -0.6939 C   0  0  0  0  0  0  0  0  0  0  0  0
    1.9956   -1.1653    0.0996 C   0  0  0  0  0  0  0  0  0  0  0  0
    3.4870   -1.0909   -0.1230 C   0  0  0  0  0  0  0  0  0  0  0  0
   -0.1106    0.0040   -0.3866 N   0  0  0  0  0  0  0  0  0  0  0  0
   -0.4869    0.5488    0.8465 C   0  0  0  0  0  0  0  0  0  0  0  0
   -1.2156   -0.3468    1.7951 C   0  0  0  0  0  0  0  0  0  0  0  0
   -1.5059   -1.7085    1.2041 C   0  0  0  0  0  0  0  0  0  0  0  0
   -2.0484   -1.5211   -0.1989 C   0  0  2  0  0  0  0  0  0  0  0  0
   -0.9985   -0.8875   -1.0434 C   0  0  0  0  0  0  0  0  0  0  0  0
   -3.2628   -0.7360   -0.1112 N   0  0  0  0  0  0  0  0  0  0  0  0
   -4.5272   -1.2534   -0.4736 C   0  0  0  0  0  0  0  0  0  0  0  0
   -4.6048   -2.4278   -0.8843 O   0  0  0  0  0  0  0  0  0  0  0  0
   -5.7571   -0.4728   -0.3895 C   0  0  0  0  0  0  0  0  0  0  0  0
   -6.9307   -1.1053   -0.7781 C   0  0  0  0  0  0  0  0  0  0  0  0
   -8.1340   -0.3941   -0.7136 C   0  0  0  0  0  0  0  0  0  0  0  0
   -8.1589    0.9130   -0.2723 C   0  0  0  0  0  0  0  0  0  0  0  0
   -6.9916    1.5551    0.1185 C   0  0  0  0  0  0  0  0  0  0  0  0
   -5.7937    0.8345    0.0500 C   0  0  0  0  0  0  0  0  0  0  0  0
   -6.9949    2.8255    0.5505 F   0  0  0  0  0  0  0  0  0  0  0  0
   -9.3490    1.5716   -0.2237 F   0  0  0  0  0  0  0  0  0  0  0  0
    8.4534    0.0892   -0.4293 H   0  0  0  0  0  0  0  0  0  0  0  0
    7.3081    1.0456   -1.4384 H   0  0  0  0  0  0  0  0  0  0  0  0
    8.9055    1.7653   -0.9821 H   0  0  0  0  0  0  0  0  0  0  0  0
    7.6817    0.9708    1.4970 H   0  0  0  0  0  0  0  0  0  0  0  0
    7.8061    2.6319    0.8670 H   0  0  0  0  0  0  0  0  0  0  0  0
    3.6972    2.2318   -0.1468 H   0  0  0  0  0  0  0  0  0  0  0  0
    2.8639    1.5874    1.2588 H   0  0  0  0  0  0  0  0  0  0  0  0
    2.1914    1.5970   -1.6994 H   0  0  0  0  0  0  0  0  0  0  0  0
    1.1902    2.0073   -0.3083 H   0  0  0  0  0  0  0  0  0  0  0  0
    1.3144   -0.4792   -1.7660 H   0  0  0  0  0  0  0  0  0  0  0  0
    1.6866   -2.1723   -0.2493 H   0  0  0  0  0  0  0  0  0  0  0  0
    1.8219   -1.1219    1.1818 H   0  0  0  0  0  0  0  0  0  0  0  0
    3.9447   -1.7869    0.6279 H   0  0  0  0  0  0  0  0  0  0  0  0
    3.7856   -1.5086   -1.1058 H   0  0  0  0  0  0  0  0  0  0  0  0
   -1.1293    1.4406    0.6497 H   0  0  0  0  0  0  0  0  0  0  0  0
    0.4036    0.9561    1.3614 H   0  0  0  0  0  0  0  0  0  0  0  0
   -2.1853    0.0903    2.1115 H   0  0  0  0  0  0  0  0  0  0  0  0
   -0.6630   -0.5443    2.7401 H   0  0  0  0  0  0  0  0  0  0  0  0
   -0.6496   -2.3958    1.2350 H   0  0  0  0  0  0  0  0  0  0  0  0
   -2.3335   -2.1967    1.7795 H   0  0  0  0  0  0  0  0  0  0  0  0
   -2.2393   -2.5460   -0.5765 H   0  0  0  0  0  0  0  0  0  0  0  0
   -1.4757   -0.3545   -1.9087 H   0  0  0  0  0  0  0  0  0  0  0  0
   -0.3928   -1.6873   -1.5272 H   0  0  0  0  0  0  0  0  0  0  0  0
   -3.1677    0.2437    0.2358 H   0  0  0  0  0  0  0  0  0  0  0  0
   -6.9655   -2.1242   -1.1299 H   0  0  0  0  0  0  0  0  0  0  0  0
   -9.0368   -0.9113   -1.0228 H   0  0  0  0  0  0  0  0  0  0  0  0
   -4.8934    1.3241    0.3495 H   0  0  0  0  0  0  0  0  0  0  0  0
  1  2  1  0
  2  3  1  0
  3  4  1  0
  4  5  2  0
  4  6  1  0
  6  7  1  0
  7  8  1  0
  8  9  1  0
  9 10  1  0
 10 11  1  0
  9 12  1  0
 12 13  1  0
 13 14  1  0
 14 15  1  0
 15 16  1  0
 16 17  1  0
 16 18  1  0
 18 19  1  0
 19 20  2  0
 19 21  1  0
 21 22  2  0
 22 23  1  0
 23 24  2  0
 24 25  1  0
 25 26  2  0
 25 27  1  0
 24 28  1  0
 11  6  1  0
 17 12  1  0
 26 21  1  0
  1 29  1  0
  1 30  1  0
  1 31  1  0
  2 32  1  0
  2 33  1  0
  7 34  1  0
  7 35  1  0
  8 36  1  0
  8 37  1  0
  9 38  1  0
 10 39  1  0
 10 40  1  0
 11 41  1  0
 11 42  1  0
 13 43  1  0
 13 44  1  0
 14 45  1  0
 14 46  1  0
 15 47  1  0
 15 48  1  0
 16 49  1  6
 17 50  1  0
 17 51  1  0
 18 52  1  0
 22 53  1  0
 23 54  1  0
 26 55  1  0
M  END
>  <Ligand ID>  (1) 
LIG0001940

>  <Ligand>  (1) 
CHEMBL1916229

>  <SMILES>  (1) 
CCOC(=O)N1CCC(CC1)N1CCC[C@H](C1)NC(=O)c1ccc(c(c1)F)F

>  <CID>  (1) 
57394608.0

>  <ChEMBL ID>  (1) 
nan

>  <InChiKey>  (1) 
IJQXDFSCRFNWAM-OAHLLOKOSA-N

>  <InChi>  (1) 
InChI=1S/C20H27F2N3O3/c1-2-28-20(27)24-10-7-16(8-11-24)25-9-3-4-15(13-25)23-19(26)14-5-6-17(21)18(22)12-14/h5-6,12,15-16H,2-4,7-11,13H2,1H3,(H,23,26)/t15-/m1/s1

>  <IUPAC Name>  (1) 
ethyl 4-[(3R)-3-[(3,4-difluorobenzoyl)amino]piperidin-1-yl]piperidine-1-carboxylate

$$$$
