
     RDKit          3D

 53 55  0  0  0  0  0  0  0  0999 V2000
    4.9238   -3.1219    0.2212 O   0  0  0  0  0  0  0  0  0  0  0  0
    5.1837   -1.7982    0.5504 C   0  0  0  0  0  0  0  0  0  0  0  0
    4.5886   -0.8982   -0.4942 C   0  0  0  0  0  0  0  0  0  0  0  0
    5.0013    0.5294   -0.1626 C   0  0  0  0  0  0  0  0  0  0  0  0
    6.3839    0.6271   -0.0877 O   0  0  0  0  0  0  0  0  0  0  0  0
    6.8043    2.2208    0.2805 P   0  0  0  0  0  0  0  0  0  0  0  0
    5.5757    2.9818    0.7018 O   0  0  0  0  0  0  0  0  0  0  0  0
    7.9453    2.3299    1.4976 O   0  0  0  0  0  0  0  0  0  0  0  0
    7.3966    2.9172   -1.1591 O   0  0  0  0  0  0  0  0  0  0  0  0
    3.0888   -1.0011   -0.5584 C   0  0  0  0  0  0  0  0  0  0  0  0
    2.4251   -0.6344    0.7281 C   0  0  0  0  0  0  0  0  0  0  0  0
    0.9448   -0.7379    0.6603 C   0  0  0  0  0  0  0  0  0  0  0  0
    0.3120   -1.9391    0.9900 C   0  0  0  0  0  0  0  0  0  0  0  0
   -1.0796   -2.0523    0.9312 C   0  0  0  0  0  0  0  0  0  0  0  0
   -1.8000   -0.9431    0.5386 C   0  0  0  0  0  0  0  0  0  0  0  0
   -1.1815    0.2450    0.2119 C   0  0  0  0  0  0  0  0  0  0  0  0
    0.1921    0.3602    0.2689 C   0  0  0  0  0  0  0  0  0  0  0  0
   -3.2540   -1.0297    0.4673 C   0  0  0  0  0  0  0  0  0  0  0  0
   -4.0219   -2.0981    0.7467 N   0  0  0  0  0  0  0  0  0  0  0  0
   -5.3060   -1.7684    0.5579 N   0  0  0  0  0  0  0  0  0  0  0  0
   -5.3901   -0.5167    0.1641 N   0  0  0  0  0  0  0  0  0  0  0  0
   -4.1262   -0.0260    0.0972 C   0  0  0  0  0  0  0  0  0  0  0  0
   -6.5192    0.2796   -0.1590 C   0  0  0  0  0  0  0  0  0  0  0  0
   -7.5532    0.5096    0.7250 C   0  0  0  0  0  0  0  0  0  0  0  0
   -8.6192    1.3094    0.3067 C   0  0  0  0  0  0  0  0  0  0  0  0
   -8.6274    1.8583   -0.9788 C   0  0  0  0  0  0  0  0  0  0  0  0
   -7.5803    1.6208   -1.8630 C   0  0  0  0  0  0  0  0  0  0  0  0
   -6.5302    0.8295   -1.4428 C   0  0  0  0  0  0  0  0  0  0  0  0
   -9.7288    2.6880   -1.4187 C   0  0  0  0  0  0  0  0  0  0  0  0
  -10.6128    3.3575   -1.7648 N   0  0  0  0  0  0  0  0  0  0  0  0
    5.1836   -1.2139   -1.7606 N   0  0  0  0  0  0  0  0  0  0  0  0
    4.4478   -3.5934    0.9607 H   0  0  0  0  0  0  0  0  0  0  0  0
    4.8827   -1.5288    1.5809 H   0  0  0  0  0  0  0  0  0  0  0  0
    6.2862   -1.6558    0.4933 H   0  0  0  0  0  0  0  0  0  0  0  0
    4.5382    1.1990   -0.9143 H   0  0  0  0  0  0  0  0  0  0  0  0
    4.6299    0.8232    0.8560 H   0  0  0  0  0  0  0  0  0  0  0  0
    7.5105    2.4844    2.3546 H   0  0  0  0  0  0  0  0  0  0  0  0
    7.7231    2.2136   -1.7771 H   0  0  0  0  0  0  0  0  0  0  0  0
    2.8282   -2.0611   -0.7981 H   0  0  0  0  0  0  0  0  0  0  0  0
    2.7103   -0.3948   -1.3863 H   0  0  0  0  0  0  0  0  0  0  0  0
    2.6353    0.4295    0.9972 H   0  0  0  0  0  0  0  0  0  0  0  0
    2.8150   -1.2499    1.5657 H   0  0  0  0  0  0  0  0  0  0  0  0
    0.8965   -2.8117    1.3000 H   0  0  0  0  0  0  0  0  0  0  0  0
   -1.5451   -3.0022    1.1943 H   0  0  0  0  0  0  0  0  0  0  0  0
   -1.7857    1.0861   -0.0897 H   0  0  0  0  0  0  0  0  0  0  0  0
    0.7040    1.2902    0.0151 H   0  0  0  0  0  0  0  0  0  0  0  0
   -3.8203    0.9705   -0.1911 H   0  0  0  0  0  0  0  0  0  0  0  0
   -7.5237    0.0710    1.7205 H   0  0  0  0  0  0  0  0  0  0  0  0
   -9.4192    1.4872    0.9909 H   0  0  0  0  0  0  0  0  0  0  0  0
   -7.5493    2.0255   -2.8617 H   0  0  0  0  0  0  0  0  0  0  0  0
   -5.7125    0.6430   -2.1309 H   0  0  0  0  0  0  0  0  0  0  0  0
    6.1523   -1.5621   -1.6492 H   0  0  0  0  0  0  0  0  0  0  0  0
    4.5767   -1.7482   -2.3968 H   0  0  0  0  0  0  0  0  0  0  0  0
  1  2  1  0
  2  3  1  0
  3  4  1  0
  4  5  1  0
  5  6  1  0
  6  7  2  0
  6  8  1  0
  6  9  1  0
  3 10  1  0
 10 11  1  0
 11 12  1  0
 12 13  2  0
 13 14  1  0
 14 15  2  0
 15 16  1  0
 16 17  2  0
 15 18  1  0
 18 19  1  0
 19 20  2  0
 20 21  1  0
 21 22  1  0
 21 23  1  0
 23 24  2  0
 24 25  1  0
 25 26  2  0
 26 27  1  0
 27 28  2  0
 26 29  1  0
 29 30  3  0
  3 31  1  0
 17 12  1  0
 22 18  2  0
 28 23  1  0
  1 32  1  0
  2 33  1  0
  2 34  1  0
  4 35  1  0
  4 36  1  0
  8 37  1  0
  9 38  1  0
 10 39  1  0
 10 40  1  0
 11 41  1  0
 11 42  1  0
 13 43  1  0
 14 44  1  0
 16 45  1  0
 17 46  1  0
 22 47  1  0
 24 48  1  0
 25 49  1  0
 27 50  1  0
 28 51  1  0
 31 52  1  0
 31 53  1  0
M  END
>  <Ligand ID>  (1) 
LIG0005913

>  <Ligand>  (1) 
CHEMBL3342011

>  <SMILES>  (1) 
OCC(COP(=O)(O)O)(CCc1ccc(cc1)c1nnn(c1)c1ccc(cc1)C#N)N

>  <CID>  (1) 
118716186.0

>  <ChEMBL ID>  (1) 
nan

>  <InChiKey>  (1) 
TZDQEGVTJRNBPL-UHFFFAOYSA-N

>  <InChi>  (1) 
InChI=1S/C20H22N5O5P/c21-11-16-3-7-18(8-4-16)25-12-19(23-24-25)17-5-1-15(2-6-17)9-10-20(22,13-26)14-30-31(27,28)29/h1-8,12,26H,9-10,13-14,22H2,(H2,27,28,29)

>  <IUPAC Name>  (1) 
[2-amino-4-[4-[1-(4-cyanophenyl)triazol-4-yl]phenyl]-2-(hydroxymethyl)butyl] dihydrogen phosphate

$$$$
