
     RDKit          3D

 38 39  0  0  0  0  0  0  0  0999 V2000
   -1.7504   -2.8603    0.8803 C   0  0  0  0  0  0  0  0  0  0  0  0
   -1.7441   -1.5009    1.3863 N   0  0  0  0  0  0  0  0  0  0  0  0
   -2.6675   -0.5057    0.9320 C   0  0  0  0  0  0  0  0  0  0  0  0
   -3.8487   -0.3619    1.5752 N   0  0  0  0  0  0  0  0  0  0  0  0
   -4.7798    0.5474    1.2192 C   0  0  0  0  0  0  0  0  0  0  0  0
   -5.8769    0.6641    1.8348 O   0  0  0  0  0  0  0  0  0  0  0  0
   -4.4592    1.3492    0.1331 C   0  0  0  0  0  0  0  0  0  0  0  0
   -3.2486    1.1884   -0.5116 C   0  0  0  0  0  0  0  0  0  0  0  0
   -2.3411    0.2765   -0.1368 N   0  0  0  0  0  0  0  0  0  0  0  0
   -1.0712    0.0960   -0.8002 C   0  0  2  0  0  0  0  0  0  0  0  0
   -0.1475   -0.4870    0.0897 O   0  0  0  0  0  0  0  0  0  0  0  0
    1.0923   -0.3081   -0.4719 C   0  0  1  0  0  0  0  0  0  0  0  0
    1.0439    0.9043   -1.3507 C   0  0  2  0  0  0  0  0  0  0  0  0
   -0.3704    1.4075   -1.1016 C   0  0  1  0  0  0  0  0  0  0  0  0
   -0.8838    2.0366   -2.2346 O   0  0  0  0  0  0  0  0  0  0  0  0
    1.1688    0.4608   -2.6743 O   0  0  0  0  0  0  0  0  0  0  0  0
    2.2111   -0.1349    0.5300 C   0  0  0  0  0  0  0  0  0  0  0  0
    3.3779    0.0317   -0.2139 O   0  0  0  0  0  0  0  0  0  0  0  0
    4.7259    0.2389    0.7880 P   0  0  0  0  0  0  0  0  0  0  0  0
    4.7807    1.6514    1.2922 O   0  0  0  0  0  0  0  0  0  0  0  0
    4.5502   -0.8520    2.0876 O   0  0  0  0  0  0  0  0  0  0  0  0
    6.1556   -0.1659   -0.0142 O   0  0  0  0  0  0  0  0  0  0  0  0
   -2.2614   -2.9360   -0.1106 H   0  0  0  0  0  0  0  0  0  0  0  0
   -2.3818   -3.4946    1.5677 H   0  0  0  0  0  0  0  0  0  0  0  0
   -0.7254   -3.2560    0.8204 H   0  0  0  0  0  0  0  0  0  0  0  0
   -1.0176   -1.2788    2.1137 H   0  0  0  0  0  0  0  0  0  0  0  0
   -5.1902    2.0983   -0.1846 H   0  0  0  0  0  0  0  0  0  0  0  0
   -3.0420    1.8398   -1.3575 H   0  0  0  0  0  0  0  0  0  0  0  0
   -1.1307   -0.4504   -1.7550 H   0  0  0  0  0  0  0  0  0  0  0  0
    1.3136   -1.2517   -1.0402 H   0  0  0  0  0  0  0  0  0  0  0  0
    1.8087    1.6620   -1.0991 H   0  0  0  0  0  0  0  0  0  0  0  0
   -0.3411    2.0908   -0.2140 H   0  0  0  0  0  0  0  0  0  0  0  0
   -0.6463    3.0118   -2.1219 H   0  0  0  0  0  0  0  0  0  0  0  0
    1.8290   -0.2841   -2.7586 H   0  0  0  0  0  0  0  0  0  0  0  0
    2.0900    0.7716    1.1422 H   0  0  0  0  0  0  0  0  0  0  0  0
    2.3489   -1.0202    1.1813 H   0  0  0  0  0  0  0  0  0  0  0  0
    4.6223   -1.7767    1.6958 H   0  0  0  0  0  0  0  0  0  0  0  0
    6.8066    0.5980    0.0969 H   0  0  0  0  0  0  0  0  0  0  0  0
  1  2  1  0
  2  3  1  0
  3  4  2  0
  4  5  1  0
  5  6  2  0
  5  7  1  0
  7  8  2  0
  8  9  1  0
  9 10  1  0
 10 11  1  0
 11 12  1  0
 12 13  1  0
 13 14  1  0
 14 15  1  0
 13 16  1  0
 12 17  1  0
 17 18  1  0
 18 19  1  0
 19 20  2  0
 19 21  1  0
 19 22  1  0
  9  3  1  0
 14 10  1  0
  1 23  1  0
  1 24  1  0
  1 25  1  0
  2 26  1  0
  7 27  1  0
  8 28  1  0
 10 29  1  6
 12 30  1  6
 13 31  1  1
 14 32  1  1
 15 33  1  0
 16 34  1  0
 17 35  1  0
 17 36  1  0
 21 37  1  0
 22 38  1  0
M  END
>  <Ligand ID>  (1) 
LIG0004684

>  <Ligand>  (1) 
CHEMBL1767423

>  <SMILES>  (1) 
CNc1nc(=O)ccn1[C@@H]1O[C@@H]([C@H]([C@H]1O)O)COP(=O)(O)O

>  <CID>  (1) 
52952496.0

>  <ChEMBL ID>  (1) 
nan

>  <InChiKey>  (1) 
PCXZWACWCNBIAD-ZOQUXTDFSA-N

>  <InChi>  (1) 
InChI=1S/C10H16N3O8P/c1-11-10-12-6(14)2-3-13(10)9-8(16)7(15)5(21-9)4-20-22(17,18)19/h2-3,5,7-9,15-16H,4H2,1H3,(H,11,12,14)(H2,17,18,19)/t5-,7-,8-,9-/m1/s1

>  <IUPAC Name>  (1) 
[(2R,3S,4R,5R)-3,4-dihydroxy-5-[2-(methylamino)-4-oxopyrimidin-1-yl]oxolan-2-yl]methyl dihydrogen phosphate

$$$$
