
     RDKit          3D

195202  0  0  0  0  0  0  0  0999 V2000
   -8.5086   -5.2611   -1.4596 N   0  0  0  0  0  0  0  0  0  0  0  0
   -8.2900   -4.8597   -2.7988 C   0  0  0  0  0  0  0  0  0  0  0  0
   -8.9935   -3.9241   -3.3839 N   0  0  0  0  0  0  0  0  0  0  0  0
   -7.2761   -5.4552   -3.6270 N   0  0  0  0  0  0  0  0  0  0  0  0
   -6.4605   -4.7215   -4.5429 C   0  0  0  0  0  0  0  0  0  0  0  0
   -5.4417   -3.8419   -3.8945 C   0  0  0  0  0  0  0  0  0  0  0  0
   -6.0596   -2.8592   -2.9796 C   0  0  0  0  0  0  0  0  0  0  0  0
   -4.9742   -1.8772   -2.4196 C   0  0  2  0  0  0  0  0  0  0  0  0
   -3.9433   -2.5202   -1.7079 N   0  0  0  0  0  0  0  0  0  0  0  0
   -4.0183   -3.7103   -0.9074 C   0  0  0  0  0  0  0  0  0  0  0  0
   -5.1539   -4.1424   -0.7114 O   0  0  0  0  0  0  0  0  0  0  0  0
   -2.8297   -4.3824   -0.3356 C   0  0  1  0  0  0  0  0  0  0  0  0
   -2.8728   -5.8551   -0.7500 C   0  0  0  0  0  0  0  0  0  0  0  0
   -4.0304   -6.6073   -0.3155 C   0  0  0  0  0  0  0  0  0  0  0  0
   -5.1677   -6.8578   -1.0524 C   0  0  0  0  0  0  0  0  0  0  0  0
   -6.2284   -7.5788   -0.5475 C   0  0  0  0  0  0  0  0  0  0  0  0
   -6.2076   -8.0890    0.7263 C   0  0  0  0  0  0  0  0  0  0  0  0
   -5.0839   -7.8553    1.4891 C   0  0  0  0  0  0  0  0  0  0  0  0
   -4.0242   -7.1341    0.9812 C   0  0  0  0  0  0  0  0  0  0  0  0
   -1.6028   -3.8908   -0.9393 N   0  0  0  0  0  0  0  0  0  0  0  0
   -0.4090   -3.5431   -0.2831 C   0  0  0  0  0  0  0  0  0  0  0  0
   -0.4649   -3.5244    0.9608 O   0  0  0  0  0  0  0  0  0  0  0  0
    0.8744   -3.1890   -0.9342 C   0  0  2  0  0  0  0  0  0  0  0  0
    1.7850   -4.3066   -1.2590 C   0  0  0  0  0  0  0  0  0  0  0  0
    1.3993   -5.3395   -2.1908 C   0  0  0  0  0  0  0  0  0  0  0  0
    0.3770   -5.6347   -2.9745 N   0  0  0  0  0  0  0  0  0  0  0  0
    0.5753   -6.8166   -3.6370 C   0  0  0  0  0  0  0  0  0  0  0  0
    1.7561   -7.2833   -3.2643 N   0  0  0  0  0  0  0  0  0  0  0  0
    2.2931   -6.4362   -2.3993 C   0  0  0  0  0  0  0  0  0  0  0  0
    1.6479   -2.2967    0.0124 N   0  0  0  0  0  0  0  0  0  0  0  0
    1.8733   -0.9444   -0.3329 C   0  0  0  0  0  0  0  0  0  0  0  0
    1.3304   -0.5394   -1.3669 O   0  0  0  0  0  0  0  0  0  0  0  0
    2.6969    0.0247    0.4436 C   0  0  1  0  0  0  0  0  0  0  0  0
    3.4613   -0.6291    1.4743 N   0  0  0  0  0  0  0  0  0  0  0  0
    4.3175   -1.6909    1.0309 C   0  0  0  0  0  0  0  0  0  0  0  0
    4.3352   -1.9563   -0.2268 O   0  0  0  0  0  0  0  0  0  0  0  0
    5.1737   -2.5011    1.8814 C   0  0  2  0  0  0  0  0  0  0  0  0
    6.2274   -1.8143    2.6621 C   0  0  0  0  0  0  0  0  0  0  0  0
    6.9491   -2.8968    3.4283 C   0  0  0  0  0  0  0  0  0  0  0  0
    6.5548   -3.2822    4.6887 C   0  0  0  0  0  0  0  0  0  0  0  0
    7.2544   -4.2837    5.3344 C   0  0  0  0  0  0  0  0  0  0  0  0
    8.3360   -4.9062    4.7481 C   0  0  0  0  0  0  0  0  0  0  0  0
    8.7282   -4.5238    3.4955 C   0  0  0  0  0  0  0  0  0  0  0  0
    8.0479   -3.5253    2.8272 C   0  0  0  0  0  0  0  0  0  0  0  0
    9.0651   -5.9182    5.3640 O   0  0  0  0  0  0  0  0  0  0  0  0
    5.8324   -3.4883    1.0332 N   0  0  0  0  0  0  0  0  0  0  0  0
    3.5137    0.7863   -0.5741 C   0  0  0  0  0  0  0  0  0  0  0  0
    4.2497    1.9157   -0.0725 C   0  0  0  0  0  0  0  0  0  0  0  0
    4.0343    2.3031    1.0958 O   0  0  0  0  0  0  0  0  0  0  0  0
    5.2455    2.7321   -0.6741 N   0  0  0  0  0  0  0  0  0  0  0  0
    5.8124    2.2976   -1.8934 C   0  0  2  0  0  0  0  0  0  0  0  0
    4.9414    2.2343   -3.0334 C   0  0  0  0  0  0  0  0  0  0  0  0
    3.8077    2.8412   -2.9916 O   0  0  0  0  0  0  0  0  0  0  0  0
    5.1881    1.5559   -4.2584 N   0  0  0  0  0  0  0  0  0  0  0  0
    6.7424    1.1125   -1.6985 C   0  0  0  0  0  0  0  0  0  0  0  0
    7.3481    0.5650   -2.8968 C   0  0  0  0  0  0  0  0  0  0  0  0
    6.8458   -0.5502   -3.5148 C   0  0  0  0  0  0  0  0  0  0  0  0
    7.4497   -1.0331   -4.6695 C   0  0  0  0  0  0  0  0  0  0  0  0
    8.5587   -0.3605   -5.1671 C   0  0  0  0  0  0  0  0  0  0  0  0
    9.0853    0.7619   -4.5685 C   0  0  0  0  0  0  0  0  0  0  0  0
    8.4661    1.2213   -3.4211 C   0  0  0  0  0  0  0  0  0  0  0  0
    9.1245   -0.8976   -6.3331 O   0  0  0  0  0  0  0  0  0  0  0  0
    5.6179    4.0186   -0.0191 C   0  0  0  0  0  0  0  0  0  0  0  0
    6.5568    4.8170   -0.7887 C   0  0  0  0  0  0  0  0  0  0  0  0
    4.3625    4.6665    0.1922 N   0  0  0  0  0  0  0  0  0  0  0  0
    4.1649    5.9377    0.8416 C   0  0  0  0  0  0  0  0  0  0  0  0
    5.1988    6.4960    1.2156 O   0  0  0  0  0  0  0  0  0  0  0  0
    2.8094    6.5131    1.0372 C   0  0  1  0  0  0  0  0  0  0  0  0
    1.7983    5.5614    0.7179 N   0  0  0  0  0  0  0  0  0  0  0  0
    0.5260    5.8236    0.1287 C   0  0  0  0  0  0  0  0  0  0  0  0
    0.2357    7.0160   -0.0052 O   0  0  0  0  0  0  0  0  0  0  0  0
   -0.3196    4.6708   -0.2466 C   0  0  1  0  0  0  0  0  0  0  0  0
   -1.7273    4.9505   -0.3542 N   0  0  0  0  0  0  0  0  0  0  0  0
   -2.6082    3.8491   -0.0202 C   0  0  0  0  0  0  0  0  0  0  0  0
   -2.0720    2.7718    0.1732 O   0  0  0  0  0  0  0  0  0  0  0  0
   -4.0685    3.9787    0.0756 C   0  0  1  0  0  0  0  0  0  0  0  0
   -4.5828    2.5924    0.0537 N   0  0  0  0  0  0  0  0  0  0  0  0
   -5.9719    2.3346   -0.1986 C   0  0  0  0  0  0  0  0  0  0  0  0
   -6.6729    3.3562   -0.2535 O   0  0  0  0  0  0  0  0  0  0  0  0
   -6.5840    1.0265   -0.3747 C   0  0  1  0  0  0  0  0  0  0  0  0
   -5.6163   -0.0689   -0.6547 N   0  0  0  0  0  0  0  0  0  0  0  0
   -5.7052   -0.7599   -1.8814 C   0  0  0  0  0  0  0  0  0  0  0  0
   -6.6249   -0.2830   -2.6523 O   0  0  0  0  0  0  0  0  0  0  0  0
   -7.3424    0.5327    0.8209 C   0  0  0  0  0  0  0  0  0  0  0  0
   -8.4549    1.3293    1.3010 C   0  0  0  0  0  0  0  0  0  0  0  0
   -9.7886    1.0925    0.9481 C   0  0  0  0  0  0  0  0  0  0  0  0
  -10.5874    2.0020    1.5292 N   0  0  0  0  0  0  0  0  0  0  0  0
   -9.8264    2.8357    2.2563 C   0  0  0  0  0  0  0  0  0  0  0  0
   -8.5292    2.4380    2.1269 C   0  0  0  0  0  0  0  0  0  0  0  0
   -7.5632    3.1425    2.7983 C   0  0  0  0  0  0  0  0  0  0  0  0
   -7.8106    4.2316    3.5985 C   0  0  0  0  0  0  0  0  0  0  0  0
   -9.1260    4.6363    3.7290 C   0  0  0  0  0  0  0  0  0  0  0  0
  -10.1015    3.9321    3.0572 C   0  0  0  0  0  0  0  0  0  0  0  0
   -4.3988    4.5283    1.5160 C   0  0  0  0  0  0  0  0  0  0  0  0
   -3.7584    5.8445    1.7221 C   0  0  0  0  0  0  0  0  0  0  0  0
   -2.5261    5.8194    2.0497 O   0  0  0  0  0  0  0  0  0  0  0  0
   -4.4233    7.0833    1.5779 N   0  0  0  0  0  0  0  0  0  0  0  0
    0.1875    4.0839   -1.5862 C   0  0  0  0  0  0  0  0  0  0  0  0
    2.6113    7.2955    2.2727 C   0  0  0  0  0  0  0  0  0  0  0  0
    2.7668    6.7216    3.5756 C   0  0  0  0  0  0  0  0  0  0  0  0
    1.6456    6.1538    4.1952 C   0  0  0  0  0  0  0  0  0  0  0  0
    1.6683    5.5958    5.4334 C   0  0  0  0  0  0  0  0  0  0  0  0
    2.8566    5.5795    6.1353 C   0  0  0  0  0  0  0  0  0  0  0  0
    3.9910    6.1305    5.5607 C   0  0  0  0  0  0  0  0  0  0  0  0
    3.9712    6.7015    4.2947 C   0  0  0  0  0  0  0  0  0  0  0  0
    6.1988    3.7523    1.3279 C   0  0  0  0  0  0  0  0  0  0  0  0
    5.5670    4.0987    2.3723 O   0  0  0  0  0  0  0  0  0  0  0  0
    7.4337    3.1241    1.4492 O   0  0  0  0  0  0  0  0  0  0  0  0
   -9.4483   -5.6921   -1.2418 H   0  0  0  0  0  0  0  0  0  0  0  0
   -7.7704   -5.1347   -0.7266 H   0  0  0  0  0  0  0  0  0  0  0  0
   -9.7391   -3.4723   -2.8186 H   0  0  0  0  0  0  0  0  0  0  0  0
   -7.1741   -6.5116   -3.5018 H   0  0  0  0  0  0  0  0  0  0  0  0
   -5.8771   -5.4743   -5.1404 H   0  0  0  0  0  0  0  0  0  0  0  0
   -7.0846   -4.1362   -5.2779 H   0  0  0  0  0  0  0  0  0  0  0  0
   -4.8728   -3.3104   -4.7030 H   0  0  0  0  0  0  0  0  0  0  0  0
   -4.7122   -4.5237   -3.3926 H   0  0  0  0  0  0  0  0  0  0  0  0
   -6.6409   -3.2522   -2.1605 H   0  0  0  0  0  0  0  0  0  0  0  0
   -6.7161   -2.1867   -3.5663 H   0  0  0  0  0  0  0  0  0  0  0  0
   -4.5014   -1.5709   -3.4160 H   0  0  0  0  0  0  0  0  0  0  0  0
   -2.9861   -2.1147   -1.7243 H   0  0  0  0  0  0  0  0  0  0  0  0
   -2.8024   -4.3048    0.7726 H   0  0  0  0  0  0  0  0  0  0  0  0
   -1.8891   -6.3199   -0.4443 H   0  0  0  0  0  0  0  0  0  0  0  0
   -2.7766   -5.8103   -1.8763 H   0  0  0  0  0  0  0  0  0  0  0  0
   -5.2192   -6.4851   -2.0623 H   0  0  0  0  0  0  0  0  0  0  0  0
   -7.1167   -7.7620   -1.1578 H   0  0  0  0  0  0  0  0  0  0  0  0
   -7.0093   -8.6614    1.1732 H   0  0  0  0  0  0  0  0  0  0  0  0
   -5.0651   -8.2617    2.5121 H   0  0  0  0  0  0  0  0  0  0  0  0
   -3.1683   -6.9903    1.6430 H   0  0  0  0  0  0  0  0  0  0  0  0
   -1.6220   -3.7351   -1.9489 H   0  0  0  0  0  0  0  0  0  0  0  0
    0.6701   -2.5507   -1.8085 H   0  0  0  0  0  0  0  0  0  0  0  0
    2.7768   -3.8303   -1.6057 H   0  0  0  0  0  0  0  0  0  0  0  0
    2.0594   -4.8184   -0.2792 H   0  0  0  0  0  0  0  0  0  0  0  0
   -0.4694   -5.0950   -3.1326 H   0  0  0  0  0  0  0  0  0  0  0  0
   -0.1022   -7.2881   -4.3383 H   0  0  0  0  0  0  0  0  0  0  0  0
    3.2556   -6.5768   -1.9405 H   0  0  0  0  0  0  0  0  0  0  0  0
    2.0010   -2.6263    0.8938 H   0  0  0  0  0  0  0  0  0  0  0  0
    1.9755    0.7031    0.9297 H   0  0  0  0  0  0  0  0  0  0  0  0
    3.4373   -0.3964    2.4855 H   0  0  0  0  0  0  0  0  0  0  0  0
    4.5365   -3.1060    2.5948 H   0  0  0  0  0  0  0  0  0  0  0  0
    6.9674   -1.3731    1.9731 H   0  0  0  0  0  0  0  0  0  0  0  0
    5.8628   -1.1080    3.4196 H   0  0  0  0  0  0  0  0  0  0  0  0
    5.6994   -2.7950    5.1546 H   0  0  0  0  0  0  0  0  0  0  0  0
    6.9501   -4.5974    6.3367 H   0  0  0  0  0  0  0  0  0  0  0  0
    9.5761   -4.9813    2.9765 H   0  0  0  0  0  0  0  0  0  0  0  0
    8.3521   -3.2180    1.8346 H   0  0  0  0  0  0  0  0  0  0  0  0
    9.0178   -6.8723    5.0360 H   0  0  0  0  0  0  0  0  0  0  0  0
    6.3442   -2.9500    0.2730 H   0  0  0  0  0  0  0  0  0  0  0  0
    5.1052   -4.1106    0.6084 H   0  0  0  0  0  0  0  0  0  0  0  0
    2.7214    1.2469   -1.2850 H   0  0  0  0  0  0  0  0  0  0  0  0
    4.0321    0.1031   -1.2580 H   0  0  0  0  0  0  0  0  0  0  0  0
    6.5591    3.1778   -2.2157 H   0  0  0  0  0  0  0  0  0  0  0  0
    6.0088    1.8565   -4.8037 H   0  0  0  0  0  0  0  0  0  0  0  0
    4.5180    0.8038   -4.5288 H   0  0  0  0  0  0  0  0  0  0  0  0
    6.2170    0.3263   -1.1486 H   0  0  0  0  0  0  0  0  0  0  0  0
    7.5717    1.4155   -0.9768 H   0  0  0  0  0  0  0  0  0  0  0  0
    5.9919   -1.0546   -3.1082 H   0  0  0  0  0  0  0  0  0  0  0  0
    7.0671   -1.9186   -5.1726 H   0  0  0  0  0  0  0  0  0  0  0  0
    9.9377    1.2276   -5.0090 H   0  0  0  0  0  0  0  0  0  0  0  0
    8.8460    2.1118   -2.9015 H   0  0  0  0  0  0  0  0  0  0  0  0
    9.8257   -0.4012   -6.8323 H   0  0  0  0  0  0  0  0  0  0  0  0
    6.7524    5.8026   -0.3074 H   0  0  0  0  0  0  0  0  0  0  0  0
    6.1801    5.1104   -1.8050 H   0  0  0  0  0  0  0  0  0  0  0  0
    7.5638    4.3871   -0.9548 H   0  0  0  0  0  0  0  0  0  0  0  0
    3.4939    4.2392   -0.1418 H   0  0  0  0  0  0  0  0  0  0  0  0
    2.7002    7.3001    0.2194 H   0  0  0  0  0  0  0  0  0  0  0  0
    1.9652    4.5699    0.9456 H   0  0  0  0  0  0  0  0  0  0  0  0
   -0.1791    3.8294    0.4545 H   0  0  0  0  0  0  0  0  0  0  0  0
   -2.1935    5.7949   -0.6337 H   0  0  0  0  0  0  0  0  0  0  0  0
   -4.5956    4.6562   -0.5582 H   0  0  0  0  0  0  0  0  0  0  0  0
   -4.0160    1.7663    0.2142 H   0  0  0  0  0  0  0  0  0  0  0  0
   -7.2987    1.1387   -1.2338 H   0  0  0  0  0  0  0  0  0  0  0  0
   -4.8899   -0.3476   -0.0140 H   0  0  0  0  0  0  0  0  0  0  0  0
   -7.7408   -0.4857    0.5222 H   0  0  0  0  0  0  0  0  0  0  0  0
   -6.6264    0.2543    1.6600 H   0  0  0  0  0  0  0  0  0  0  0  0
  -10.1416    0.2923    0.3022 H   0  0  0  0  0  0  0  0  0  0  0  0
  -11.6289    2.1159    1.4772 H   0  0  0  0  0  0  0  0  0  0  0  0
   -6.5257    2.7975    2.6728 H   0  0  0  0  0  0  0  0  0  0  0  0
   -7.0371    4.7665    4.1093 H   0  0  0  0  0  0  0  0  0  0  0  0
   -9.3831    5.4934    4.3534 H   0  0  0  0  0  0  0  0  0  0  0  0
  -11.1242    4.2740    3.1787 H   0  0  0  0  0  0  0  0  0  0  0  0
   -5.4865    4.6738    1.6035 H   0  0  0  0  0  0  0  0  0  0  0  0
   -4.0437    3.8195    2.2770 H   0  0  0  0  0  0  0  0  0  0  0  0
   -5.4689    7.1047    1.5080 H   0  0  0  0  0  0  0  0  0  0  0  0
   -3.8979    7.9717    1.5393 H   0  0  0  0  0  0  0  0  0  0  0  0
    1.2691    3.9650   -1.4643 H   0  0  0  0  0  0  0  0  0  0  0  0
   -0.0205    4.7556   -2.4154 H   0  0  0  0  0  0  0  0  0  0  0  0
   -0.2552    3.0699   -1.6542 H   0  0  0  0  0  0  0  0  0  0  0  0
    1.6405    7.8621    2.1257 H   0  0  0  0  0  0  0  0  0  0  0  0
    3.3649    8.1444    2.2080 H   0  0  0  0  0  0  0  0  0  0  0  0
    0.6800    6.1546    3.6714 H   0  0  0  0  0  0  0  0  0  0  0  0
    0.7500    5.1702    5.8604 H   0  0  0  0  0  0  0  0  0  0  0  0
    2.8459    5.1324    7.1168 H   0  0  0  0  0  0  0  0  0  0  0  0
    4.8863    6.0928    6.1487 H   0  0  0  0  0  0  0  0  0  0  0  0
    4.8618    7.1325    3.8505 H   0  0  0  0  0  0  0  0  0  0  0  0
    7.8368    2.8302    2.3329 H   0  0  0  0  0  0  0  0  0  0  0  0
  1  2  1  0
  2  3  2  3
  2  4  1  0
  4  5  1  0
  5  6  1  0
  6  7  1  0
  7  8  1  0
  8  9  1  0
  9 10  1  0
 10 11  2  0
 10 12  1  0
 12 13  1  0
 13 14  1  0
 14 15  2  0
 15 16  1  0
 16 17  2  0
 17 18  1  0
 18 19  2  0
 12 20  1  0
 20 21  1  0
 21 22  2  0
 21 23  1  0
 23 24  1  0
 24 25  1  0
 25 26  1  0
 26 27  1  0
 27 28  2  0
 28 29  1  0
 23 30  1  0
 30 31  1  0
 31 32  2  0
 31 33  1  0
 33 34  1  0
 34 35  1  0
 35 36  2  0
 35 37  1  0
 37 38  1  0
 38 39  1  0
 39 40  2  0
 40 41  1  0
 41 42  2  0
 42 43  1  0
 43 44  2  0
 42 45  1  0
 37 46  1  0
 33 47  1  0
 47 48  1  0
 48 49  2  0
 48 50  1  0
 50 51  1  0
 51 52  1  0
 52 53  2  0
 52 54  1  0
 51 55  1  0
 55 56  1  0
 56 57  2  0
 57 58  1  0
 58 59  2  0
 59 60  1  0
 60 61  2  0
 59 62  1  0
 50 63  1  0
 63 64  1  0
 63 65  1  0
 65 66  1  0
 66 67  2  0
 66 68  1  0
 68 69  1  0
 69 70  1  0
 70 71  2  0
 70 72  1  0
 72 73  1  0
 73 74  1  0
 74 75  2  0
 74 76  1  0
 76 77  1  0
 77 78  1  0
 78 79  2  0
 78 80  1  0
 80 81  1  0
 81 82  1  0
 82 83  2  0
 80 84  1  0
 84 85  1  0
 85 86  2  0
 86 87  1  0
 87 88  1  0
 88 89  2  0
 89 90  1  0
 90 91  2  0
 91 92  1  0
 92 93  2  0
 76 94  1  0
 94 95  1  0
 95 96  2  0
 95 97  1  0
 72 98  1  0
 68 99  1  0
 99100  1  0
100101  2  0
101102  1  0
102103  2  0
103104  1  0
104105  2  0
 63106  1  0
106107  2  0
106108  1  0
 82  8  1  0
 89 85  1  0
105100  1  0
 19 14  1  0
 29 25  2  0
 44 39  1  0
 61 56  1  0
 93 88  1  0
  1109  1  0
  1110  1  0
  3111  1  0
  4112  1  0
  5113  1  0
  5114  1  0
  6115  1  0
  6116  1  0
  7117  1  0
  7118  1  0
  8119  1  6
  9120  1  0
 12121  1  1
 13122  1  0
 13123  1  0
 15124  1  0
 16125  1  0
 17126  1  0
 18127  1  0
 19128  1  0
 20129  1  0
 23130  1  6
 24131  1  0
 24132  1  0
 26133  1  0
 27134  1  0
 29135  1  0
 30136  1  0
 33137  1  1
 34138  1  0
 37139  1  1
 38140  1  0
 38141  1  0
 40142  1  0
 41143  1  0
 43144  1  0
 44145  1  0
 45146  1  0
 46147  1  0
 46148  1  0
 47149  1  0
 47150  1  0
 51151  1  6
 54152  1  0
 54153  1  0
 55154  1  0
 55155  1  0
 57156  1  0
 58157  1  0
 60158  1  0
 61159  1  0
 62160  1  0
 64161  1  0
 64162  1  0
 64163  1  0
 65164  1  0
 68165  1  6
 69166  1  0
 72167  1  1
 73168  1  0
 76169  1  6
 77170  1  0
 80171  1  6
 81172  1  0
 84173  1  0
 84174  1  0
 86175  1  0
 87176  1  0
 90177  1  0
 91178  1  0
 92179  1  0
 93180  1  0
 94181  1  0
 94182  1  0
 97183  1  0
 97184  1  0
 98185  1  0
 98186  1  0
 98187  1  0
 99188  1  0
 99189  1  0
101190  1  0
102191  1  0
103192  1  0
104193  1  0
105194  1  0
108195  1  0
M  END
>  <Ligand ID>  (1) 
LIG0001165

>  <Ligand>  (1) 
CHEMBL2096713

>  <SMILES>  (1) 
NC(=N)NCCC[C@@H]1NC(=O)[C@@H](Cc2ccccc2)NC(=O)[C@H](Cc2[nH]cnc2)NC(=O)[C@@H](NC(=O)[C@H](Cc2ccc(cc2)O)N)CC(=O)N([C@H](C(=O)N)Cc2ccc(cc2)O)C(C)(NC(=O)[C@@H](NC(=O)[C@@H](NC(=O)[C@@H](NC(=O)[C@@H](NC1=O)Cc1c[nH]c2c1cccc2)CC(=O)N)C)Cc1ccccc1)C(=O)O

>  <CID>  (1) 
91900709.0

>  <ChEMBL ID>  (1) 
nan

>  <InChiKey>  (1) 
VQYHLIUSSLKEAO-OTUSEEPMSA-N

>  <InChi>  (1) 
InChI=1S/C73H87N19O16/c1-39-62(98)85-53(30-41-14-7-4-8-15-41)70(106)91-73(2,71(107)108)92(58(61(76)97)31-43-21-25-47(94)26-22-43)60(96)35-57(86-63(99)49(74)28-42-19-23-46(93)24-20-42)69(105)89-55(33-45-37-79-38-82-45)68(104)87-52(29-40-12-5-3-6-13-40)66(102)84-51(18-11-27-80-72(77)78)64(100)88-54(32-44-36-81-50-17-10-9-16-48(44)50)67(103)90-56(34-59(75)95)65(101)83-39/h3-10,12-17,19-26,36-39,49,51-58,81,93-94H,11,18,27-35,74H2,1-2H3,(H2,75,95)(H2,76,97)(H,79,82)(H,83,101)(H,84,102)(H,85,98)(H,86,99)(H,87,104)(H,88,100)(H,89,105)(H,90,103)(H,91,106)(H,107,108)(H4,77,78,80)/t39-,49-,51-,52+,53-,54-,55-,56-,57-,58-,73?/m0/s1

>  <IUPAC Name>  (1) 
(5S,8S,11S,14S,17S,20R,23S,26S)-1-[(2S)-1-amino-3-(4-hydroxyphenyl)-1-oxopropan-2-yl]-26-[[(2S)-2-amino-3-(4-hydroxyphenyl)propanoyl]amino]-11-(2-amino-2-oxoethyl)-5,20-dibenzyl-17-(3-carbamimidamidopropyl)-23-(1H-imidazol-5-ylmethyl)-14-(1H-indol-3-ylmethyl)-2,8-dimethyl-4,7,10,13,16,19,22,25,28-nonaoxo-1,3,6,9,12,15,18,21,24-nonazacyclooctacosane-2-carboxylic acid

$$$$
