
     RDKit          3D

 31 33  0  0  0  0  0  0  0  0999 V2000
   -2.5283    3.9477   -0.7443 F   0  0  0  0  0  0  0  0  0  0  0  0
   -2.7322    2.6249   -0.5283 C   0  0  0  0  0  0  0  0  0  0  0  0
   -4.0476    2.1811   -0.4676 C   0  0  0  0  0  0  0  0  0  0  0  0
   -4.3145    0.8413   -0.2493 C   0  0  0  0  0  0  0  0  0  0  0  0
   -3.2521   -0.0400   -0.0941 C   0  0  0  0  0  0  0  0  0  0  0  0
   -1.9398    0.4213   -0.1577 C   0  0  0  0  0  0  0  0  0  0  0  0
   -1.6575    1.7702   -0.3773 C   0  0  0  0  0  0  0  0  0  0  0  0
   -0.8586   -0.5346    0.0101 C   0  0  0  0  0  0  0  0  0  0  0  0
    0.2625   -0.0846    0.5174 N   0  0  0  0  0  0  0  0  0  0  0  0
    1.3442   -0.9625    0.7034 N   0  0  0  0  0  0  0  0  0  0  0  0
    2.6649   -0.4884    0.3865 C   0  0  0  0  0  0  0  0  0  0  0  0
    2.8201    0.7985   -0.0839 C   0  0  0  0  0  0  0  0  0  0  0  0
    4.0776    1.3092   -0.4065 C   0  0  0  0  0  0  0  0  0  0  0  0
    5.1698    0.4755   -0.2372 C   0  0  0  0  0  0  0  0  0  0  0  0
    4.9403   -0.7924    0.2350 C   0  0  0  0  0  0  0  0  0  0  0  0
    3.7249   -1.2740    0.5425 N   0  0  0  0  0  0  0  0  0  0  0  0
   -1.0414   -1.9325   -0.3791 C   0  0  0  0  0  0  0  0  0  0  0  0
   -2.0468   -2.5824    0.5705 C   0  0  0  0  0  0  0  0  0  0  0  0
   -3.6371   -1.7641    0.1864 S   0  0  0  0  0  0  0  0  0  0  0  0
   -4.8968    2.8412   -0.5844 H   0  0  0  0  0  0  0  0  0  0  0  0
   -5.3370    0.4700   -0.1978 H   0  0  0  0  0  0  0  0  0  0  0  0
   -0.6216    2.1136   -0.4240 H   0  0  0  0  0  0  0  0  0  0  0  0
    1.2337   -1.9381    1.0591 H   0  0  0  0  0  0  0  0  0  0  0  0
    1.9947    1.4660   -0.2250 H   0  0  0  0  0  0  0  0  0  0  0  0
    4.2191    2.3144   -0.7762 H   0  0  0  0  0  0  0  0  0  0  0  0
    6.1872    0.7809   -0.4602 H   0  0  0  0  0  0  0  0  0  0  0  0
    5.7853   -1.4387    0.3664 H   0  0  0  0  0  0  0  0  0  0  0  0
   -1.4862   -2.0446   -1.4021 H   0  0  0  0  0  0  0  0  0  0  0  0
   -0.1319   -2.5258   -0.3379 H   0  0  0  0  0  0  0  0  0  0  0  0
   -1.7605   -2.2922    1.6029 H   0  0  0  0  0  0  0  0  0  0  0  0
   -2.1344   -3.6609    0.4050 H   0  0  0  0  0  0  0  0  0  0  0  0
  1  2  1  0
  2  3  2  0
  3  4  1  0
  4  5  2  0
  5  6  1  0
  6  7  2  0
  6  8  1  0
  8  9  2  0
  9 10  1  0
 10 11  1  0
 11 12  2  0
 12 13  1  0
 13 14  2  0
 14 15  1  0
 15 16  2  0
  8 17  1  0
 17 18  1  0
 18 19  1  0
  7  2  1  0
 16 11  1  0
 19  5  1  0
  3 20  1  0
  4 21  1  0
  7 22  1  0
 10 23  1  0
 12 24  1  0
 13 25  1  0
 14 26  1  0
 15 27  1  0
 17 28  1  0
 17 29  1  0
 18 30  1  0
 18 31  1  0
M  END
>  <Ligand ID>  (1) 
LIG0005593

>  <Ligand>  (1) 
MLS001003888

>  <SMILES>  (1) 
Fc1ccc2c(c1)/C(=N/Nc1ccccn1)/CCS2

>  <CID>  (1) 
9665691.0

>  <ChEMBL ID>  (1) 
nan

>  <InChiKey>  (1) 
TVBVWQBKHMVVAE-SFQUDFHCSA-N

>  <InChi>  (1) 
InChI=1S/C14H12FN3S/c15-10-4-5-13-11(9-10)12(6-8-19-13)17-18-14-3-1-2-7-16-14/h1-5,7,9H,6,8H2,(H,16,18)/b17-12+

>  <IUPAC Name>  (1) 
N-[(E)-(6-fluoro-2,3-dihydrothiochromen-4-ylidene)amino]pyridin-2-amine

$$$$
