
     RDKit          3D

 86 90  0  0  0  0  0  0  0  0999 V2000
   -0.2961   -5.3489   -0.9466 C   0  0  0  0  0  0  0  0  0  0  0  0
   -0.4946   -4.6213   -2.2739 C   0  0  0  0  0  0  0  0  0  0  0  0
   -1.3092   -3.3509   -1.9451 C   0  0  0  0  0  0  0  0  0  0  0  0
   -0.5420   -2.5341   -0.9933 C   0  0  2  0  0  0  0  0  0  0  0  0
   -1.1596   -1.2917   -0.5187 N   0  0  0  0  0  0  0  0  0  0  0  0
   -0.3397   -0.5632    0.4614 C   0  0  0  0  0  0  0  0  0  0  0  0
    1.0797   -1.1116    0.5413 C   0  0  0  0  0  0  0  0  0  0  0  0
    1.6294   -1.3632   -0.7670 N   0  0  0  0  0  0  0  0  0  0  0  0
    0.7130   -2.0207   -1.6808 C   0  0  0  0  0  0  0  0  0  0  0  0
    0.9270   -2.1493   -2.8956 O   0  0  0  0  0  0  0  0  0  0  0  0
    2.9285   -1.0808   -1.2548 C   0  0  2  0  0  0  0  0  0  0  0  0
    4.0482   -1.8262   -0.6498 C   0  0  0  0  0  0  0  0  0  0  0  0
    5.2034   -1.6050   -1.1556 O   0  0  0  0  0  0  0  0  0  0  0  0
    3.9853   -2.7370    0.4033 N   0  0  0  0  0  0  0  0  0  0  0  0
    5.1814   -3.3957    0.8943 C   0  0  0  0  0  0  0  0  0  0  0  0
    3.3328    0.3437   -1.4212 C   0  0  0  0  0  0  0  0  0  0  0  0
    3.3417    1.2190   -0.2544 C   0  0  0  0  0  0  0  0  0  0  0  0
    2.3038    2.0477    0.1308 C   0  0  0  0  0  0  0  0  0  0  0  0
    2.4263    2.8515    1.2461 C   0  0  0  0  0  0  0  0  0  0  0  0
    3.5672    2.8792    2.0317 C   0  0  0  0  0  0  0  0  0  0  0  0
    4.6008    2.0560    1.6507 C   0  0  0  0  0  0  0  0  0  0  0  0
    4.4900    1.2451    0.5339 C   0  0  0  0  0  0  0  0  0  0  0  0
    5.7618    2.0668    2.4263 C   0  0  0  0  0  0  0  0  0  0  0  0
    5.8597    2.8824    3.5383 C   0  0  0  0  0  0  0  0  0  0  0  0
    4.8165    3.7141    3.9233 C   0  0  0  0  0  0  0  0  0  0  0  0
    3.6656    3.6926    3.1418 C   0  0  0  0  0  0  0  0  0  0  0  0
   -2.4057   -0.8267   -0.9809 C   0  0  0  0  0  0  0  0  0  0  0  0
   -2.9334   -1.5726   -1.9070 O   0  0  0  0  0  0  0  0  0  0  0  0
   -3.1906    0.3201   -0.6088 C   0  0  2  0  0  0  0  0  0  0  0  0
   -2.7160    1.2126    0.4125 N   0  0  0  0  0  0  0  0  0  0  0  0
   -2.6625    2.6139    0.0912 C   0  0  0  0  0  0  0  0  0  0  0  0
   -3.0220    3.0071   -1.0745 O   0  0  0  0  0  0  0  0  0  0  0  0
   -2.2206    3.6543    1.0193 C   0  0  0  0  0  0  0  0  0  0  0  0
   -1.0888    4.5072    0.5649 C   0  0  0  0  0  0  0  0  0  0  0  0
   -0.7075    5.1996    1.8807 C   0  0  0  0  0  0  0  0  0  0  0  0
   -0.8389    4.0853    2.8861 C   0  0  0  0  0  0  0  0  0  0  0  0
   -0.2171    3.9738    3.9650 O   0  0  0  0  0  0  0  0  0  0  0  0
   -1.8280    3.1983    2.3257 N   0  0  0  0  0  0  0  0  0  0  0  0
   -4.6250   -0.0384   -0.1354 C   0  0  0  0  0  0  0  0  0  0  0  0
   -5.3948   -0.7327   -1.1779 C   0  0  0  0  0  0  0  0  0  0  0  0
   -5.5191   -2.0836   -1.3204 C   0  0  0  0  0  0  0  0  0  0  0  0
   -6.2584   -2.6820   -2.3423 C   0  0  0  0  0  0  0  0  0  0  0  0
   -6.8949   -1.8687   -3.2548 C   0  0  0  0  0  0  0  0  0  0  0  0
   -6.7864   -0.5006   -3.1351 C   0  0  0  0  0  0  0  0  0  0  0  0
   -6.0494    0.0622   -2.1150 C   0  0  0  0  0  0  0  0  0  0  0  0
   -7.6201   -2.3888   -4.2596 F   0  0  0  0  0  0  0  0  0  0  0  0
   -0.0618   -6.4329   -1.1098 H   0  0  0  0  0  0  0  0  0  0  0  0
   -1.1925   -5.2835   -0.3210 H   0  0  0  0  0  0  0  0  0  0  0  0
    0.5790   -4.9492   -0.3888 H   0  0  0  0  0  0  0  0  0  0  0  0
    0.4983   -4.3202   -2.6256 H   0  0  0  0  0  0  0  0  0  0  0  0
   -1.0157   -5.2421   -2.9993 H   0  0  0  0  0  0  0  0  0  0  0  0
   -1.4250   -2.8680   -2.9493 H   0  0  0  0  0  0  0  0  0  0  0  0
   -2.3051   -3.6973   -1.6145 H   0  0  0  0  0  0  0  0  0  0  0  0
   -0.2248   -3.0969   -0.0965 H   0  0  0  0  0  0  0  0  0  0  0  0
   -0.8666   -0.7740    1.4424 H   0  0  0  0  0  0  0  0  0  0  0  0
   -0.3459    0.5071    0.2876 H   0  0  0  0  0  0  0  0  0  0  0  0
    0.9487   -2.1007    1.0971 H   0  0  0  0  0  0  0  0  0  0  0  0
    1.6645   -0.4256    1.1667 H   0  0  0  0  0  0  0  0  0  0  0  0
    2.9113   -1.5293   -2.3433 H   0  0  0  0  0  0  0  0  0  0  0  0
    3.0937   -2.9605    0.8495 H   0  0  0  0  0  0  0  0  0  0  0  0
    5.3852   -4.2608    0.2201 H   0  0  0  0  0  0  0  0  0  0  0  0
    6.0394   -2.6898    0.7577 H   0  0  0  0  0  0  0  0  0  0  0  0
    5.1020   -3.7300    1.9454 H   0  0  0  0  0  0  0  0  0  0  0  0
    4.3928    0.3144   -1.8473 H   0  0  0  0  0  0  0  0  0  0  0  0
    2.7726    0.8219   -2.2942 H   0  0  0  0  0  0  0  0  0  0  0  0
    1.3985    2.0403   -0.4716 H   0  0  0  0  0  0  0  0  0  0  0  0
    1.6267    3.5048    1.5559 H   0  0  0  0  0  0  0  0  0  0  0  0
    5.3611    0.6364    0.3163 H   0  0  0  0  0  0  0  0  0  0  0  0
    6.6097    1.4365    2.1679 H   0  0  0  0  0  0  0  0  0  0  0  0
    6.7853    2.8545    4.1076 H   0  0  0  0  0  0  0  0  0  0  0  0
    4.8923    4.3591    4.7982 H   0  0  0  0  0  0  0  0  0  0  0  0
    2.8359    4.3424    3.4389 H   0  0  0  0  0  0  0  0  0  0  0  0
   -3.4042    0.9060   -1.5500 H   0  0  0  0  0  0  0  0  0  0  0  0
   -2.4172    0.9582    1.3654 H   0  0  0  0  0  0  0  0  0  0  0  0
   -3.0906    4.3514    1.2054 H   0  0  0  0  0  0  0  0  0  0  0  0
   -1.3854    5.3133   -0.1359 H   0  0  0  0  0  0  0  0  0  0  0  0
   -0.2291    3.9864    0.1516 H   0  0  0  0  0  0  0  0  0  0  0  0
    0.2972    5.6204    1.8429 H   0  0  0  0  0  0  0  0  0  0  0  0
   -1.4865    5.9341    2.1702 H   0  0  0  0  0  0  0  0  0  0  0  0
   -2.1548    2.3572    2.8757 H   0  0  0  0  0  0  0  0  0  0  0  0
   -5.1656    0.8778    0.1403 H   0  0  0  0  0  0  0  0  0  0  0  0
   -4.5299   -0.6439    0.7804 H   0  0  0  0  0  0  0  0  0  0  0  0
   -5.0200   -2.7285   -0.5961 H   0  0  0  0  0  0  0  0  0  0  0  0
   -6.3219   -3.7700   -2.4044 H   0  0  0  0  0  0  0  0  0  0  0  0
   -7.3061    0.1185   -3.8786 H   0  0  0  0  0  0  0  0  0  0  0  0
   -5.9869    1.1240   -2.0573 H   0  0  0  0  0  0  0  0  0  0  0  0
  1  2  1  0
  2  3  1  0
  3  4  1  0
  4  5  1  0
  5  6  1  0
  6  7  1  0
  7  8  1  0
  8  9  1  0
  9 10  2  0
  8 11  1  0
 11 12  1  0
 12 13  2  0
 12 14  1  0
 14 15  1  0
 11 16  1  0
 16 17  1  0
 17 18  2  0
 18 19  1  0
 19 20  2  0
 20 21  1  0
 21 22  2  0
 21 23  1  0
 23 24  2  0
 24 25  1  0
 25 26  2  0
  5 27  1  0
 27 28  2  0
 27 29  1  0
 29 30  1  0
 30 31  1  0
 31 32  2  0
 31 33  1  0
 33 34  1  0
 34 35  1  0
 35 36  1  0
 36 37  2  0
 36 38  1  0
 29 39  1  0
 39 40  1  0
 40 41  2  0
 41 42  1  0
 42 43  2  0
 43 44  1  0
 44 45  2  0
 43 46  1  0
  9  4  1  0
 22 17  1  0
 38 33  1  0
 45 40  1  0
 26 20  1  0
  1 47  1  0
  1 48  1  0
  1 49  1  0
  2 50  1  0
  2 51  1  0
  3 52  1  0
  3 53  1  0
  4 54  1  1
  6 55  1  0
  6 56  1  0
  7 57  1  0
  7 58  1  0
 11 59  1  6
 14 60  1  0
 15 61  1  0
 15 62  1  0
 15 63  1  0
 16 64  1  0
 16 65  1  0
 18 66  1  0
 19 67  1  0
 22 68  1  0
 23 69  1  0
 24 70  1  0
 25 71  1  0
 26 72  1  0
 29 73  1  6
 30 74  1  0
 33 75  1  0
 34 76  1  0
 34 77  1  0
 35 78  1  0
 35 79  1  0
 38 80  1  0
 39 81  1  0
 39 82  1  0
 41 83  1  0
 42 84  1  0
 44 85  1  0
 45 86  1  0
M  END
>  <Ligand ID>  (1) 
LIG0004083

>  <Ligand>  (1) 
CHEMBL506272

>  <SMILES>  (1) 
CCC[C@@H]1N(CCN(C1=O)[C@H](C(=O)NC)Cc1ccc2c(c1)cccc2)C(=O)[C@H](NC(=O)C1CCC(=O)N1)Cc1ccc(cc1)F

>  <CID>  (1) 
44569175.0

>  <ChEMBL ID>  (1) 
nan

>  <InChiKey>  (1) 
NSBYFZXDVSHNEF-WDSZSSPESA-N

>  <InChi>  (1) 
InChI=1S/C35H40FN5O5/c1-3-6-29-35(46)41(30(33(44)37-2)21-23-9-12-24-7-4-5-8-25(24)19-23)18-17-40(29)34(45)28(20-22-10-13-26(36)14-11-22)39-32(43)27-15-16-31(42)38-27/h4-5,7-14,19,27-30H,3,6,15-18,20-21H2,1-2H3,(H,37,44)(H,38,42)(H,39,43)/t27?,28-,29+,30+/m1/s1

>  <IUPAC Name>  (1) 
N-[(2R)-3-(4-fluorophenyl)-1-[(2S)-4-[(2S)-1-(methylamino)-3-naphthalen-2-yl-1-oxopropan-2-yl]-3-oxo-2-propylpiperazin-1-yl]-1-oxopropan-2-yl]-5-oxopyrrolidine-2-carboxamide

$$$$
