
     RDKit          3D

 65 67  0  0  0  0  0  0  0  0999 V2000
    2.5790   -2.8870    2.3348 O   0  0  0  0  0  0  0  0  0  0  0  0
    2.2566   -1.6124    1.8732 C   0  0  2  0  0  0  0  0  0  0  0  0
    3.5389   -0.8800    1.5956 C   0  0  0  0  0  0  0  0  0  0  0  0
    4.3579   -1.5055    0.6291 O   0  0  0  0  0  0  0  0  0  0  0  0
    5.5904   -0.9317    0.2534 C   0  0  0  0  0  0  0  0  0  0  0  0
    6.4162   -1.5076   -0.6789 C   0  0  0  0  0  0  0  0  0  0  0  0
    7.6268   -0.8789   -1.0035 C   0  0  0  0  0  0  0  0  0  0  0  0
    8.0158    0.2849   -0.4275 C   0  0  0  0  0  0  0  0  0  0  0  0
    7.1498    0.8451    0.5197 C   0  0  0  0  0  0  0  0  0  0  0  0
    5.9549    0.2492    0.8578 C   0  0  0  0  0  0  0  0  0  0  0  0
    9.2029    0.9979   -0.6815 N   0  0  0  0  0  0  0  0  0  0  0  0
    9.8562    1.3425   -2.2136 S   0  0  0  0  0  0  0  0  0  0  0  0
    8.9720    2.2365   -3.0362 O   0  0  0  0  0  0  0  0  0  0  0  0
   11.1565    2.1101   -2.0437 O   0  0  0  0  0  0  0  0  0  0  0  0
   10.2464   -0.1568   -3.0541 C   0  0  0  0  0  0  0  0  0  0  0  0
    1.4733   -0.9553    2.9878 C   0  0  0  0  0  0  0  0  0  0  0  0
    1.0632    0.3703    2.6974 N   0  0  0  0  0  0  0  0  0  0  0  0
    0.0686    0.5365    1.6863 C   0  0  0  0  0  0  0  0  0  0  0  0
   -1.2873   -0.0079    2.1570 C   0  0  0  0  0  0  0  0  0  0  0  0
   -2.3247    0.1646    1.1103 C   0  0  0  0  0  0  0  0  0  0  0  0
   -2.6082   -0.8060    0.1604 C   0  0  0  0  0  0  0  0  0  0  0  0
   -3.6089   -0.5354   -0.7771 C   0  0  0  0  0  0  0  0  0  0  0  0
   -4.2862    0.6626   -0.7487 C   0  0  0  0  0  0  0  0  0  0  0  0
   -4.0087    1.6388    0.1973 C   0  0  0  0  0  0  0  0  0  0  0  0
   -3.0208    1.3730    1.1239 C   0  0  0  0  0  0  0  0  0  0  0  0
   -5.3317    0.9858   -1.6767 N   0  0  0  0  0  0  0  0  0  0  0  0
   -6.6535    0.6596   -1.2567 C   0  0  0  0  0  0  0  0  0  0  0  0
   -6.7543    0.1179   -0.1027 O   0  0  0  0  0  0  0  0  0  0  0  0
   -7.8534    0.9244   -2.0900 C   0  0  0  0  0  0  0  0  0  0  0  0
   -9.0738    0.4940   -1.3264 C   0  0  0  0  0  0  0  0  0  0  0  0
   -9.6146   -0.7522   -1.4155 C   0  0  0  0  0  0  0  0  0  0  0  0
  -10.7530   -1.0557   -0.6591 C   0  0  0  0  0  0  0  0  0  0  0  0
  -11.3019   -0.0857    0.1597 C   0  0  0  0  0  0  0  0  0  0  0  0
  -10.6970    1.1708    0.2036 C   0  0  0  0  0  0  0  0  0  0  0  0
   -9.6078    1.4518   -0.5237 N   0  0  0  0  0  0  0  0  0  0  0  0
    2.6613   -3.4753    1.5495 H   0  0  0  0  0  0  0  0  0  0  0  0
    1.6782   -1.7251    0.9536 H   0  0  0  0  0  0  0  0  0  0  0  0
    3.3041    0.1450    1.2020 H   0  0  0  0  0  0  0  0  0  0  0  0
    4.1410   -0.7431    2.5203 H   0  0  0  0  0  0  0  0  0  0  0  0
    6.1340   -2.4394   -1.1586 H   0  0  0  0  0  0  0  0  0  0  0  0
    8.2866   -1.3347   -1.7423 H   0  0  0  0  0  0  0  0  0  0  0  0
    7.4132    1.7800    1.0134 H   0  0  0  0  0  0  0  0  0  0  0  0
    5.2931    0.6807    1.5845 H   0  0  0  0  0  0  0  0  0  0  0  0
    9.7216    1.3434    0.1881 H   0  0  0  0  0  0  0  0  0  0  0  0
   10.5825   -0.8944   -2.2844 H   0  0  0  0  0  0  0  0  0  0  0  0
   11.1463   -0.0095   -3.7244 H   0  0  0  0  0  0  0  0  0  0  0  0
    9.4093   -0.5101   -3.6706 H   0  0  0  0  0  0  0  0  0  0  0  0
    0.6352   -1.6432    3.2225 H   0  0  0  0  0  0  0  0  0  0  0  0
    2.1471   -0.9367    3.8668 H   0  0  0  0  0  0  0  0  0  0  0  0
    0.9838    1.0176    3.5056 H   0  0  0  0  0  0  0  0  0  0  0  0
    0.3304   -0.0066    0.7808 H   0  0  0  0  0  0  0  0  0  0  0  0
   -0.0153    1.6064    1.4392 H   0  0  0  0  0  0  0  0  0  0  0  0
   -1.5775    0.5526    3.0635 H   0  0  0  0  0  0  0  0  0  0  0  0
   -1.1666   -1.0858    2.4283 H   0  0  0  0  0  0  0  0  0  0  0  0
   -2.0579   -1.7364    0.1655 H   0  0  0  0  0  0  0  0  0  0  0  0
   -3.8604   -1.2642   -1.5342 H   0  0  0  0  0  0  0  0  0  0  0  0
   -4.5529    2.5812    0.2063 H   0  0  0  0  0  0  0  0  0  0  0  0
   -2.7919    2.1328    1.8747 H   0  0  0  0  0  0  0  0  0  0  0  0
   -5.1553    1.4298   -2.6019 H   0  0  0  0  0  0  0  0  0  0  0  0
   -7.8736    0.3197   -3.0302 H   0  0  0  0  0  0  0  0  0  0  0  0
   -7.8677    1.9891   -2.3344 H   0  0  0  0  0  0  0  0  0  0  0  0
   -9.1703   -1.4963   -2.0619 H   0  0  0  0  0  0  0  0  0  0  0  0
  -11.2230   -2.0293   -0.6923 H   0  0  0  0  0  0  0  0  0  0  0  0
  -12.1958   -0.2756    0.7733 H   0  0  0  0  0  0  0  0  0  0  0  0
  -11.0992    1.9695    0.8406 H   0  0  0  0  0  0  0  0  0  0  0  0
  1  2  1  0
  2  3  1  0
  3  4  1  0
  4  5  1  0
  5  6  2  0
  6  7  1  0
  7  8  2  0
  8  9  1  0
  9 10  2  0
  8 11  1  0
 11 12  1  0
 12 13  2  0
 12 14  2  0
 12 15  1  0
  2 16  1  0
 16 17  1  0
 17 18  1  0
 18 19  1  0
 19 20  1  0
 20 21  2  0
 21 22  1  0
 22 23  2  0
 23 24  1  0
 24 25  2  0
 23 26  1  0
 26 27  1  0
 27 28  2  0
 27 29  1  0
 29 30  1  0
 30 31  2  0
 31 32  1  0
 32 33  2  0
 33 34  1  0
 34 35  2  0
 10  5  1  0
 25 20  1  0
 35 30  1  0
  1 36  1  0
  2 37  1  6
  3 38  1  0
  3 39  1  0
  6 40  1  0
  7 41  1  0
  9 42  1  0
 10 43  1  0
 11 44  1  0
 15 45  1  0
 15 46  1  0
 15 47  1  0
 16 48  1  0
 16 49  1  0
 17 50  1  0
 18 51  1  0
 18 52  1  0
 19 53  1  0
 19 54  1  0
 21 55  1  0
 22 56  1  0
 24 57  1  0
 25 58  1  0
 26 59  1  0
 29 60  1  0
 29 61  1  0
 31 62  1  0
 32 63  1  0
 33 64  1  0
 34 65  1  0
M  END
>  <Ligand ID>  (1) 
LIG0004952

>  <Ligand>  (1) 
CHEMBL511552

>  <SMILES>  (1) 
O[C@H](COc1ccc(cc1)NS(=O)(=O)C)CNCCc1ccc(cc1)NC(=O)Cc1ccccn1

>  <CID>  (1) 
44574685.0

>  <ChEMBL ID>  (1) 
nan

>  <InChiKey>  (1) 
FVCNAFKLLLVRKV-QHCPKHFHSA-N

>  <InChi>  (1) 
InChI=1S/C25H30N4O5S/c1-35(32,33)29-21-9-11-24(12-10-21)34-18-23(30)17-26-15-13-19-5-7-20(8-6-19)28-25(31)16-22-4-2-3-14-27-22/h2-12,14,23,26,29-30H,13,15-18H2,1H3,(H,28,31)/t23-/m0/s1

>  <IUPAC Name>  (1) 
N-[4-[2-[[(2S)-2-hydroxy-3-[4-(methanesulfonamido)phenoxy]propyl]amino]ethyl]phenyl]-2-pyridin-2-ylacetamide

$$$$
