
     RDKit          3D

 73 78  0  0  0  0  0  0  0  0999 V2000
   -5.4354    1.0826   -2.1724 C   0  0  0  0  0  0  0  0  0  0  0  0
   -4.5045    1.0986   -0.9991 C   0  0  1  0  0  0  0  0  0  0  0  0
   -5.2858    0.6375    0.2411 C   0  0  0  0  0  0  0  0  0  0  0  0
   -4.4213    0.6251    1.4627 C   0  0  0  0  0  0  0  0  0  0  0  0
   -2.9725    0.5983    1.1905 C   0  0  0  0  0  0  0  0  0  0  0  0
   -2.4129    0.3815   -0.0470 C   0  0  0  0  0  0  0  0  0  0  0  0
   -3.3600    0.1513   -1.1780 C   0  0  2  0  0  0  0  0  0  0  0  0
   -2.6449    0.3664   -2.5046 C   0  0  0  0  0  0  0  0  0  0  0  0
   -3.7788   -1.2964   -1.1277 C   0  0  0  0  0  0  0  0  0  0  0  0
   -4.7245   -1.5934   -0.0125 C   0  0  0  0  0  0  0  0  0  0  0  0
   -5.8418   -0.6556   -0.1125 N   0  0  0  0  0  0  0  0  0  0  0  0
   -6.9620   -1.0699    0.6555 C   0  0  0  0  0  0  0  0  0  0  0  0
   -8.1405   -0.1616    0.4058 C   0  0  0  0  0  0  0  0  0  0  0  0
   -9.4257   -0.4764    1.1665 C   0  0  0  0  0  0  0  0  0  0  0  0
   -9.3397   -0.7231   -0.2974 C   0  0  0  0  0  0  0  0  0  0  0  0
   -1.0434    0.3796   -0.2253 C   0  0  0  0  0  0  0  0  0  0  0  0
   -0.1857    0.5947    0.8297 C   0  0  0  0  0  0  0  0  0  0  0  0
   -0.7663    0.8104    2.0659 C   0  0  0  0  0  0  0  0  0  0  0  0
   -2.1277    0.8179    2.2731 C   0  0  0  0  0  0  0  0  0  0  0  0
    1.2601    0.6148    0.7215 C   0  0  0  0  0  0  0  0  0  0  0  0
    1.9615    0.8298    1.7680 O   0  0  0  0  0  0  0  0  0  0  0  0
    1.9778    0.4098   -0.4860 N   0  0  0  0  0  0  0  0  0  0  0  0
    3.4140    0.4309   -0.5887 C   0  0  0  0  0  0  0  0  0  0  0  0
    3.9903   -0.6477    0.2782 C   0  0  0  0  0  0  0  0  0  0  0  0
    5.4825   -0.5569    0.1327 C   0  0  0  0  0  0  0  0  0  0  0  0
    6.1095    0.2819    1.0535 C   0  0  0  0  0  0  0  0  0  0  0  0
    7.4731    0.4313    1.0020 C   0  0  0  0  0  0  0  0  0  0  0  0
    8.2182   -0.2531    0.0345 C   0  0  0  0  0  0  0  0  0  0  0  0
    7.5650   -1.0738   -0.8592 C   0  0  0  0  0  0  0  0  0  0  0  0
    6.1774   -1.2471   -0.8331 C   0  0  0  0  0  0  0  0  0  0  0  0
    9.6460   -0.0342    0.0532 C   0  0  0  0  0  0  0  0  0  0  0  0
   10.1328    1.2073    0.4598 C   0  0  0  0  0  0  0  0  0  0  0  0
   11.4888    1.4823    0.5029 C   0  0  0  0  0  0  0  0  0  0  0  0
   12.3872    0.5412    0.1470 N   0  0  0  0  0  0  0  0  0  0  0  0
   11.9401   -0.6794   -0.2541 C   0  0  0  0  0  0  0  0  0  0  0  0
   10.5866   -0.9730   -0.3037 C   0  0  0  0  0  0  0  0  0  0  0  0
   -6.4812    1.3004   -1.8801 H   0  0  0  0  0  0  0  0  0  0  0  0
   -5.0725    1.7681   -2.9616 H   0  0  0  0  0  0  0  0  0  0  0  0
   -5.4077    0.0709   -2.6248 H   0  0  0  0  0  0  0  0  0  0  0  0
   -4.0848    2.1042   -0.7745 H   0  0  0  0  0  0  0  0  0  0  0  0
   -6.1000    1.3392    0.4053 H   0  0  0  0  0  0  0  0  0  0  0  0
   -4.7482   -0.1438    2.2023 H   0  0  0  0  0  0  0  0  0  0  0  0
   -4.5905    1.5981    2.0252 H   0  0  0  0  0  0  0  0  0  0  0  0
   -1.9235    1.2018   -2.4773 H   0  0  0  0  0  0  0  0  0  0  0  0
   -2.1291   -0.5844   -2.7524 H   0  0  0  0  0  0  0  0  0  0  0  0
   -3.4565    0.5049   -3.2714 H   0  0  0  0  0  0  0  0  0  0  0  0
   -4.1341   -1.6451   -2.0977 H   0  0  0  0  0  0  0  0  0  0  0  0
   -2.8299   -1.8678   -0.9132 H   0  0  0  0  0  0  0  0  0  0  0  0
   -5.1866   -2.6025   -0.2250 H   0  0  0  0  0  0  0  0  0  0  0  0
   -4.2800   -1.6653    0.9781 H   0  0  0  0  0  0  0  0  0  0  0  0
   -6.7260   -1.1065    1.7393 H   0  0  0  0  0  0  0  0  0  0  0  0
   -7.2487   -2.0897    0.2707 H   0  0  0  0  0  0  0  0  0  0  0  0
   -7.9655    0.9045    0.1839 H   0  0  0  0  0  0  0  0  0  0  0  0
   -9.3520   -1.3158    1.8613 H   0  0  0  0  0  0  0  0  0  0  0  0
   -9.9710    0.4117    1.5436 H   0  0  0  0  0  0  0  0  0  0  0  0
   -9.9649   -0.0452   -0.9118 H   0  0  0  0  0  0  0  0  0  0  0  0
   -9.3122   -1.7513   -0.7006 H   0  0  0  0  0  0  0  0  0  0  0  0
   -0.6487    0.2083   -1.2015 H   0  0  0  0  0  0  0  0  0  0  0  0
   -0.1310    0.9873    2.9441 H   0  0  0  0  0  0  0  0  0  0  0  0
   -2.5398    0.9926    3.2677 H   0  0  0  0  0  0  0  0  0  0  0  0
    1.3712    0.2328   -1.3438 H   0  0  0  0  0  0  0  0  0  0  0  0
    3.8603    1.4272   -0.3885 H   0  0  0  0  0  0  0  0  0  0  0  0
    3.6755    0.1932   -1.6604 H   0  0  0  0  0  0  0  0  0  0  0  0
    3.7117   -0.5954    1.3313 H   0  0  0  0  0  0  0  0  0  0  0  0
    3.6986   -1.6537   -0.0984 H   0  0  0  0  0  0  0  0  0  0  0  0
    5.5403    0.8215    1.8138 H   0  0  0  0  0  0  0  0  0  0  0  0
    7.9462    1.0867    1.7257 H   0  0  0  0  0  0  0  0  0  0  0  0
    8.1589   -1.5890   -1.5927 H   0  0  0  0  0  0  0  0  0  0  0  0
    5.6570   -1.8820   -1.5226 H   0  0  0  0  0  0  0  0  0  0  0  0
    9.4769    2.0171    0.7609 H   0  0  0  0  0  0  0  0  0  0  0  0
   11.8711    2.4592    0.8230 H   0  0  0  0  0  0  0  0  0  0  0  0
   12.6370   -1.4569   -0.5464 H   0  0  0  0  0  0  0  0  0  0  0  0
   10.2422   -1.9668   -0.6304 H   0  0  0  0  0  0  0  0  0  0  0  0
  1  2  1  0
  2  3  1  0
  3  4  1  0
  4  5  1  0
  5  6  2  0
  6  7  1  0
  7  8  1  6
  7  9  1  0
  9 10  1  0
 10 11  1  0
 11 12  1  0
 12 13  1  0
 13 14  1  0
 14 15  1  0
  6 16  1  0
 16 17  2  0
 17 18  1  0
 18 19  2  0
 17 20  1  0
 20 21  2  0
 20 22  1  0
 22 23  1  0
 23 24  1  0
 24 25  1  0
 25 26  2  0
 26 27  1  0
 27 28  2  0
 28 29  1  0
 29 30  2  0
 28 31  1  0
 31 32  2  0
 32 33  1  0
 33 34  2  0
 34 35  1  0
 35 36  2  0
  7  2  1  0
 15 13  1  0
 30 25  1  0
 36 31  1  0
 11  3  1  0
 19  5  1  0
  1 37  1  0
  1 38  1  0
  1 39  1  0
  2 40  1  1
  3 41  1  0
  4 42  1  0
  4 43  1  0
  8 44  1  0
  8 45  1  0
  8 46  1  0
  9 47  1  0
  9 48  1  0
 10 49  1  0
 10 50  1  0
 12 51  1  0
 12 52  1  0
 13 53  1  0
 14 54  1  0
 14 55  1  0
 15 56  1  0
 15 57  1  0
 16 58  1  0
 18 59  1  0
 19 60  1  0
 22 61  1  0
 23 62  1  0
 23 63  1  0
 24 64  1  0
 24 65  1  0
 26 66  1  0
 27 67  1  0
 29 68  1  0
 30 69  1  0
 32 70  1  0
 33 71  1  0
 35 72  1  0
 36 73  1  0
M  END
>  <Ligand ID>  (1) 
LIG0005524

>  <Ligand>  (1) 
CHEMBL2347235

>  <SMILES>  (1) 
C[C@H]1C2Cc3c([C@@]1(C)CCN2CC1CC1)cc(cc3)C(=O)NCCc1ccc(cc1)c1ccncc1

>  <CID>  (1) 
44240971.0

>  <ChEMBL ID>  (1) 
nan

>  <InChiKey>  (1) 
CHSJXCLVTANHOE-WTBOZYSNSA-N

>  <InChi>  (1) 
InChI=1S/C32H37N3O/c1-22-30-20-27-9-10-28(19-29(27)32(22,2)14-18-35(30)21-24-3-4-24)31(36)34-17-11-23-5-7-25(8-6-23)26-12-15-33-16-13-26/h5-10,12-13,15-16,19,22,24,30H,3-4,11,14,17-18,20-21H2,1-2H3,(H,34,36)/t22-,30?,32-/m0/s1

>  <IUPAC Name>  (1) 
(1S,13R)-10-(cyclopropylmethyl)-1,13-dimethyl-N-[2-(4-pyridin-4-ylphenyl)ethyl]-10-azatricyclo[7.3.1.02,7]trideca-2(7),3,5-triene-4-carboxamide

$$$$
