
     RDKit          3D

 29 29  0  0  0  0  0  0  0  0999 V2000
   -3.3455    0.3375   -0.2819 C   0  0  0  0  0  0  0  0  0  0  0  0
   -2.2178    0.2386    0.7253 C   0  0  0  0  0  0  0  0  0  0  0  0
   -1.5141   -1.0860    0.5882 C   0  0  0  0  0  0  0  0  0  0  0  0
   -0.3491   -0.9957   -0.4016 C   0  0  0  0  0  0  0  0  0  0  0  0
    0.7604   -0.3022    0.3388 C   0  0  0  0  0  0  0  0  0  0  0  0
    0.0978    0.7662    1.1382 C   0  0  0  0  0  0  0  0  0  0  0  0
    0.5350    1.1771    2.2017 O   0  0  0  0  0  0  0  0  0  0  0  0
   -1.1763    1.3269    0.5459 C   0  0  0  0  0  0  0  0  0  0  0  0
    1.8122    0.2624   -0.5898 C   0  0  0  0  0  0  0  0  0  0  0  0
    2.4630   -0.7979   -1.4285 C   0  0  0  0  0  0  0  0  0  0  0  0
    2.9266    0.8932    0.2191 C   0  0  0  0  0  0  0  0  0  0  0  0
   -3.7460   -0.7133   -0.3755 H   0  0  0  0  0  0  0  0  0  0  0  0
   -3.0083    0.6789   -1.2713 H   0  0  0  0  0  0  0  0  0  0  0  0
   -4.1643    0.9735    0.1122 H   0  0  0  0  0  0  0  0  0  0  0  0
   -2.6860    0.3582    1.7264 H   0  0  0  0  0  0  0  0  0  0  0  0
   -2.2356   -1.8634    0.3348 H   0  0  0  0  0  0  0  0  0  0  0  0
   -1.0919   -1.3221    1.5962 H   0  0  0  0  0  0  0  0  0  0  0  0
   -0.6703   -0.3222   -1.2249 H   0  0  0  0  0  0  0  0  0  0  0  0
   -0.1278   -2.0178   -0.7157 H   0  0  0  0  0  0  0  0  0  0  0  0
    1.2764   -1.0560    0.9628 H   0  0  0  0  0  0  0  0  0  0  0  0
   -1.4898    2.1938    1.1748 H   0  0  0  0  0  0  0  0  0  0  0  0
   -1.0468    1.6464   -0.5002 H   0  0  0  0  0  0  0  0  0  0  0  0
    1.3534    1.0624   -1.2076 H   0  0  0  0  0  0  0  0  0  0  0  0
    2.9677   -0.2867   -2.2884 H   0  0  0  0  0  0  0  0  0  0  0  0
    3.2063   -1.3613   -0.8184 H   0  0  0  0  0  0  0  0  0  0  0  0
    1.7243   -1.5487   -1.7621 H   0  0  0  0  0  0  0  0  0  0  0  0
    2.5868    1.4359    1.1126 H   0  0  0  0  0  0  0  0  0  0  0  0
    3.5132    1.5287   -0.4775 H   0  0  0  0  0  0  0  0  0  0  0  0
    3.6468    0.0996    0.5667 H   0  0  0  0  0  0  0  0  0  0  0  0
  1  2  1  0
  2  3  1  0
  3  4  1  0
  4  5  1  0
  5  6  1  0
  6  7  2  0
  6  8  1  0
  5  9  1  0
  9 10  1  0
  9 11  1  0
  8  2  1  0
  1 12  1  0
  1 13  1  0
  1 14  1  0
  2 15  1  0
  3 16  1  0
  3 17  1  0
  4 18  1  0
  4 19  1  0
  5 20  1  0
  8 21  1  0
  8 22  1  0
  9 23  1  0
 10 24  1  0
 10 25  1  0
 10 26  1  0
 11 27  1  0
 11 28  1  0
 11 29  1  0
M  END
>  <Ligand ID>  (1) 
LIG0000300

>  <Ligand>  (1) 
p-Menthan-3-one

>  <SMILES>  (1) 
CC1CCC(C(=O)C1)C(C)C

>  <CID>  (1) 
6986.0

>  <ChEMBL ID>  (1) 
nan

>  <InChiKey>  (1) 
NFLGAXVYCFJBMK-UHFFFAOYSA-N

>  <InChi>  (1) 
InChI=1S/C10H18O/c1-7(2)9-5-4-8(3)6-10(9)11/h7-9H,4-6H2,1-3H3

>  <IUPAC Name>  (1) 
5-methyl-2-propan-2-ylcyclohexan-1-one

$$$$
