
     RDKit          3D

 51 54  0  0  0  0  0  0  0  0999 V2000
    4.3736   -1.1587    2.7297 C   0  0  0  0  0  0  0  0  0  0  0  0
    4.0212   -0.6483    1.7018 C   0  0  0  0  0  0  0  0  0  0  0  0
    3.5736   -0.0405    0.4468 C   0  0  2  0  0  0  0  0  0  0  0  0
    4.4199   -0.4496   -0.5987 O   0  0  0  0  0  0  0  0  0  0  0  0
    3.6770    1.4714    0.4935 C   0  0  0  0  0  0  0  0  0  0  0  0
    2.4016    1.9220   -0.2356 C   0  0  0  0  0  0  0  0  0  0  0  0
    1.4427    0.9389    0.3341 C   0  0  2  0  0  0  0  0  0  0  0  0
    2.1765   -0.3795    0.0705 C   0  0  1  0  0  0  0  0  0  0  0  0
    2.0415   -0.8249   -1.3633 C   0  0  0  0  0  0  0  0  0  0  0  0
    1.5175   -1.3861    0.9542 C   0  0  0  0  0  0  0  0  0  0  0  0
    0.0435   -1.4344    0.7883 C   0  0  0  0  0  0  0  0  0  0  0  0
   -0.6674   -0.1571    0.5739 C   0  0  1  0  0  0  0  0  0  0  0  0
    0.1216    0.8026   -0.3249 C   0  0  1  0  0  0  0  0  0  0  0  0
   -0.5392    2.1269   -0.4419 C   0  0  0  0  0  0  0  0  0  0  0  0
   -1.9888    2.0955   -0.7473 C   0  0  0  0  0  0  0  0  0  0  0  0
   -2.7140    0.8922   -0.2951 C   0  0  0  0  0  0  0  0  0  0  0  0
   -4.0523    1.0002   -0.2233 C   0  0  0  0  0  0  0  0  0  0  0  0
   -4.8722   -0.1255    0.2110 C   0  0  0  0  0  0  0  0  0  0  0  0
   -6.1207   -0.1706    0.0146 O   0  0  0  0  0  0  0  0  0  0  0  0
   -4.2580   -1.2835    0.9142 C   0  0  0  0  0  0  0  0  0  0  0  0
   -2.8085   -1.0818    1.1986 C   0  0  0  0  0  0  0  0  0  0  0  0
   -2.0504   -0.3863    0.0706 C   0  0  2  0  0  0  0  0  0  0  0  0
   -2.0899   -1.3471   -1.1081 C   0  0  0  0  0  0  0  0  0  0  0  0
    4.6860   -1.6309    3.6402 H   0  0  0  0  0  0  0  0  0  0  0  0
    5.0277    0.2436   -0.9089 H   0  0  0  0  0  0  0  0  0  0  0  0
    4.5910    1.8454   -0.0100 H   0  0  0  0  0  0  0  0  0  0  0  0
    3.6416    1.8693    1.5308 H   0  0  0  0  0  0  0  0  0  0  0  0
    2.5881    1.7714   -1.3057 H   0  0  0  0  0  0  0  0  0  0  0  0
    2.1735    2.9789   -0.0303 H   0  0  0  0  0  0  0  0  0  0  0  0
    1.3187    1.0772    1.4066 H   0  0  0  0  0  0  0  0  0  0  0  0
    1.9939   -0.0160   -2.0942 H   0  0  0  0  0  0  0  0  0  0  0  0
    2.9079   -1.5028   -1.5698 H   0  0  0  0  0  0  0  0  0  0  0  0
    1.1411   -1.4603   -1.5117 H   0  0  0  0  0  0  0  0  0  0  0  0
    1.8402   -1.2499    2.0238 H   0  0  0  0  0  0  0  0  0  0  0  0
    1.9041   -2.4083    0.6826 H   0  0  0  0  0  0  0  0  0  0  0  0
   -0.3672   -1.8933    1.7328 H   0  0  0  0  0  0  0  0  0  0  0  0
   -0.2647   -2.1388   -0.0164 H   0  0  0  0  0  0  0  0  0  0  0  0
   -0.7748    0.3872    1.5545 H   0  0  0  0  0  0  0  0  0  0  0  0
    0.1366    0.3128   -1.3173 H   0  0  0  0  0  0  0  0  0  0  0  0
   -0.4054    2.6943    0.5250 H   0  0  0  0  0  0  0  0  0  0  0  0
    0.0313    2.7148   -1.1884 H   0  0  0  0  0  0  0  0  0  0  0  0
   -2.1158    2.1504   -1.8659 H   0  0  0  0  0  0  0  0  0  0  0  0
   -2.4944    3.0347   -0.3841 H   0  0  0  0  0  0  0  0  0  0  0  0
   -4.5415    1.9110   -0.4825 H   0  0  0  0  0  0  0  0  0  0  0  0
   -4.7639   -1.4153    1.9059 H   0  0  0  0  0  0  0  0  0  0  0  0
   -4.4227   -2.2407    0.3590 H   0  0  0  0  0  0  0  0  0  0  0  0
   -2.6486   -0.5179    2.1530 H   0  0  0  0  0  0  0  0  0  0  0  0
   -2.3667   -2.0840    1.3711 H   0  0  0  0  0  0  0  0  0  0  0  0
   -1.2533   -1.2111   -1.7972 H   0  0  0  0  0  0  0  0  0  0  0  0
   -3.0413   -1.1926   -1.6828 H   0  0  0  0  0  0  0  0  0  0  0  0
   -2.1701   -2.4046   -0.7259 H   0  0  0  0  0  0  0  0  0  0  0  0
  1  2  3  0
  3  2  1  1
  3  4  1  0
  3  5  1  0
  5  6  1  0
  6  7  1  0
  7  8  1  0
  8  9  1  6
  8 10  1  0
 10 11  1  0
 11 12  1  0
 12 13  1  0
 13 14  1  0
 14 15  1  0
 15 16  1  0
 16 17  2  0
 17 18  1  0
 18 19  2  0
 18 20  1  0
 20 21  1  0
 21 22  1  0
 22 23  1  6
  8  3  1  0
 22 12  1  0
 13  7  1  0
 22 16  1  0
  1 24  1  0
  4 25  1  0
  5 26  1  0
  5 27  1  0
  6 28  1  0
  6 29  1  0
  7 30  1  1
  9 31  1  0
  9 32  1  0
  9 33  1  0
 10 34  1  0
 10 35  1  0
 11 36  1  0
 11 37  1  0
 12 38  1  1
 13 39  1  6
 14 40  1  0
 14 41  1  0
 15 42  1  0
 15 43  1  0
 17 44  1  0
 20 45  1  0
 20 46  1  0
 21 47  1  0
 21 48  1  0
 23 49  1  0
 23 50  1  0
 23 51  1  0
M  END
>  <Ligand ID>  (1) 
LIG0005123

>  <Ligand>  (1) 
ethisterone

>  <SMILES>  (1) 
C#C[C@]1(O)CC[C@@H]2[C@]1(C)CC[C@H]1[C@H]2CCC2=CC(=O)CC[C@]12C

>  <CID>  (1) 
5284557.0

>  <ChEMBL ID>  (1) 
nan

>  <InChiKey>  (1) 
CHNXZKVNWQUJIB-CEGNMAFCSA-N

>  <InChi>  (1) 
InChI=1S/C21H28O2/c1-4-21(23)12-9-18-16-6-5-14-13-15(22)7-10-19(14,2)17(16)8-11-20(18,21)3/h1,13,16-18,23H,5-12H2,2-3H3/t16-,17+,18+,19+,20+,21+/m1/s1

>  <IUPAC Name>  (1) 
(8R,9S,10R,13S,14S,17R)-17-ethynyl-17-hydroxy-10,13-dimethyl-2,6,7,8,9,11,12,14,15,16-decahydro-1H-cyclopenta[a]phenanthren-3-one

$$$$
