
     RDKit          3D

 62 64  0  0  0  0  0  0  0  0999 V2000
    8.0335    1.2591    1.9082 C   0  0  0  0  0  0  0  0  0  0  0  0
    6.6171    1.0674    2.2619 C   0  0  0  0  0  0  0  0  0  0  0  0
    5.8342    0.1443    1.6198 C   0  0  0  0  0  0  0  0  0  0  0  0
    6.4782   -0.6373    0.5686 C   0  0  0  0  0  0  0  0  0  0  0  0
    6.0145   -0.6026   -0.8067 C   0  0  0  0  0  0  0  0  0  0  0  0
    4.8087   -1.1495   -1.4003 C   0  0  0  0  0  0  0  0  0  0  0  0
    3.4899   -0.8355   -0.9017 C   0  0  2  0  0  0  0  0  0  0  0  0
    3.0914   -1.3116    0.4433 C   0  0  0  0  0  0  0  0  0  0  0  0
    2.1629   -0.2819    1.0551 C   0  0  0  0  0  0  0  0  0  0  0  0
    0.9996   -0.2305    0.1004 C   0  0  0  0  0  0  0  0  0  0  0  0
    1.0862   -0.6177   -1.2090 C   0  0  0  0  0  0  0  0  0  0  0  0
    2.3307   -1.1283   -1.8477 C   0  0  0  0  0  0  0  0  0  0  0  0
   -0.0347   -0.5460   -2.0393 C   0  0  0  0  0  0  0  0  0  0  0  0
   -1.2340   -0.0785   -1.5217 C   0  0  0  0  0  0  0  0  0  0  0  0
   -1.3443    0.3123   -0.2230 C   0  0  0  0  0  0  0  0  0  0  0  0
   -0.2153    0.2299    0.5773 C   0  0  0  0  0  0  0  0  0  0  0  0
   -2.6153    0.8069    0.3227 C   0  0  1  0  0  0  0  0  0  0  0  0
   -3.1784    2.0034   -0.3750 C   0  0  0  0  0  0  0  0  0  0  0  0
   -4.6665    1.7626   -0.5249 C   0  0  0  0  0  0  0  0  0  0  0  0
   -4.8678    0.2716   -0.4075 C   0  0  2  0  0  0  0  0  0  0  0  0
   -3.6680   -0.2809    0.2914 C   0  0  0  0  0  0  0  0  0  0  0  0
   -4.9047   -0.2789   -1.7351 N   0  0  0  0  0  0  0  0  0  0  0  0
   -6.0935   -0.0677    0.3972 C   0  0  0  0  0  0  0  0  0  0  0  0
   -7.2752    0.3870   -0.1473 O   0  0  0  0  0  0  0  0  0  0  0  0
   -8.6209   -0.0118    0.7808 P   0  0  0  0  0  0  0  0  0  0  0  0
   -9.8316   -0.0321   -0.1242 O   0  0  0  0  0  0  0  0  0  0  0  0
   -8.9038    1.1165    2.0097 O   0  0  0  0  0  0  0  0  0  0  0  0
   -8.4994   -1.5327    1.4932 O   0  0  0  0  0  0  0  0  0  0  0  0
    8.4250    2.1333    2.4642 H   0  0  0  0  0  0  0  0  0  0  0  0
    8.1028    1.5279    0.8298 H   0  0  0  0  0  0  0  0  0  0  0  0
    8.6840    0.3737    2.1456 H   0  0  0  0  0  0  0  0  0  0  0  0
    6.1739    1.6802    3.0628 H   0  0  0  0  0  0  0  0  0  0  0  0
    4.8364    0.1238    1.9918 H   0  0  0  0  0  0  0  0  0  0  0  0
    7.6041   -0.4296    0.6214 H   0  0  0  0  0  0  0  0  0  0  0  0
    6.4827   -1.7478    0.9066 H   0  0  0  0  0  0  0  0  0  0  0  0
    6.1495    0.5131   -1.1915 H   0  0  0  0  0  0  0  0  0  0  0  0
    6.9266   -1.0288   -1.4317 H   0  0  0  0  0  0  0  0  0  0  0  0
    4.8366   -0.9630   -2.5477 H   0  0  0  0  0  0  0  0  0  0  0  0
    4.9288   -2.3060   -1.3518 H   0  0  0  0  0  0  0  0  0  0  0  0
    3.4438    0.3244   -0.8244 H   0  0  0  0  0  0  0  0  0  0  0  0
    3.8518   -1.7196    1.0978 H   0  0  0  0  0  0  0  0  0  0  0  0
    2.3517   -2.1906    0.2239 H   0  0  0  0  0  0  0  0  0  0  0  0
    1.8733   -0.4908    2.0831 H   0  0  0  0  0  0  0  0  0  0  0  0
    2.6796    0.7011    0.9153 H   0  0  0  0  0  0  0  0  0  0  0  0
    2.2627   -2.2246   -1.9431 H   0  0  0  0  0  0  0  0  0  0  0  0
    2.4830   -0.6951   -2.8475 H   0  0  0  0  0  0  0  0  0  0  0  0
    0.0201   -0.8475   -3.0710 H   0  0  0  0  0  0  0  0  0  0  0  0
   -2.1111   -0.0258   -2.1838 H   0  0  0  0  0  0  0  0  0  0  0  0
   -0.2958    0.5375    1.6057 H   0  0  0  0  0  0  0  0  0  0  0  0
   -2.4948    1.0754    1.4042 H   0  0  0  0  0  0  0  0  0  0  0  0
   -3.0477    2.9520    0.2182 H   0  0  0  0  0  0  0  0  0  0  0  0
   -2.6615    2.1350   -1.3568 H   0  0  0  0  0  0  0  0  0  0  0  0
   -4.9601    2.1568   -1.5207 H   0  0  0  0  0  0  0  0  0  0  0  0
   -5.2354    2.2778    0.2857 H   0  0  0  0  0  0  0  0  0  0  0  0
   -3.9295   -0.6642    1.3037 H   0  0  0  0  0  0  0  0  0  0  0  0
   -3.2464   -1.1619   -0.2491 H   0  0  0  0  0  0  0  0  0  0  0  0
   -4.3054   -1.1264   -1.8470 H   0  0  0  0  0  0  0  0  0  0  0  0
   -4.7616    0.4286   -2.4887 H   0  0  0  0  0  0  0  0  0  0  0  0
   -6.0725   -1.1549    0.6084 H   0  0  0  0  0  0  0  0  0  0  0  0
   -5.9663    0.4412    1.3915 H   0  0  0  0  0  0  0  0  0  0  0  0
   -9.8707    1.1838    2.2196 H   0  0  0  0  0  0  0  0  0  0  0  0
   -8.1511   -1.5265    2.4071 H   0  0  0  0  0  0  0  0  0  0  0  0
  1  2  1  0
  2  3  2  0
  3  4  1  0
  4  5  1  0
  5  6  1  0
  6  7  1  0
  7  8  1  0
  8  9  1  0
  9 10  1  0
 10 11  2  0
 11 12  1  0
 11 13  1  0
 13 14  2  0
 14 15  1  0
 15 16  2  0
 15 17  1  0
 17 18  1  0
 18 19  1  0
 19 20  1  0
 20 21  1  0
 20 22  1  6
 20 23  1  0
 23 24  1  0
 24 25  1  0
 25 26  2  0
 25 27  1  0
 25 28  1  0
 12  7  1  0
 21 17  1  0
 16 10  1  0
  1 29  1  0
  1 30  1  0
  1 31  1  0
  2 32  1  0
  3 33  1  0
  4 34  1  0
  4 35  1  0
  5 36  1  0
  5 37  1  0
  6 38  1  0
  6 39  1  0
  7 40  1  1
  8 41  1  0
  8 42  1  0
  9 43  1  0
  9 44  1  0
 12 45  1  0
 12 46  1  0
 13 47  1  0
 14 48  1  0
 16 49  1  0
 17 50  1  1
 18 51  1  0
 18 52  1  0
 19 53  1  0
 19 54  1  0
 21 55  1  0
 21 56  1  0
 22 57  1  0
 22 58  1  0
 23 59  1  0
 23 60  1  0
 27 61  1  0
 28 62  1  0
M  END
>  <Ligand ID>  (1) 
LIG0005589

>  <Ligand>  (1) 
BDBM65348

>  <SMILES>  (1) 
C/C=C\CCC[C@@H]1CCc2c(C1)ccc(c2)[C@H]1CC[C@](C1)(N)COP(=O)(O)O

>  <CID>  (1) 
131953779.0

>  <ChEMBL ID>  (1) 
nan

>  <InChiKey>  (1) 
SUDIYZHHZHUABB-RMJAABNJSA-N

>  <InChi>  (1) 
InChI=1S/C22H34NO4P/c1-2-3-4-5-6-17-7-8-19-14-20(10-9-18(19)13-17)21-11-12-22(23,15-21)16-27-28(24,25)26/h2-3,9-10,14,17,21H,4-8,11-13,15-16,23H2,1H3,(H2,24,25,26)/b3-2-/t17-,21+,22-/m1/s1

>  <IUPAC Name>  (1) 
[(1R,3S)-1-amino-3-[(6R)-6-[(Z)-hex-4-enyl]-5,6,7,8-tetrahydronaphthalen-2-yl]cyclopentyl]methyl dihydrogen phosphate

$$$$
