
     RDKit          3D

 18 18  0  0  0  0  0  0  0  0999 V2000
   -2.7411    1.4068    0.0239 O   0  0  0  0  0  0  0  0  0  0  0  0
   -1.7457    0.7779    0.7973 C   0  0  0  0  0  0  0  0  0  0  0  0
   -1.4400    1.4062    1.8526 O   0  0  0  0  0  0  0  0  0  0  0  0
   -1.1591   -0.4855    0.3640 C   0  0  0  0  0  0  0  0  0  0  0  0
    0.2655   -0.4378    0.0286 C   0  0  0  0  0  0  0  0  0  0  0  0
    0.8235   -0.9945   -1.1305 C   0  0  0  0  0  0  0  0  0  0  0  0
    2.1508   -0.7665   -1.1327 N   0  0  0  0  0  0  0  0  0  0  0  0
    2.4672   -0.0963   -0.0401 N   0  0  0  0  0  0  0  0  0  0  0  0
    1.3477    0.1140    0.6769 C   0  0  0  0  0  0  0  0  0  0  0  0
    1.3382    1.0329    2.3405 Br  0  0  0  0  0  0  0  0  0  0  0  0
    3.7375    0.3058    0.2838 O   0  0  0  0  0  0  0  0  0  0  0  0
   -1.8907   -0.9193   -0.8398 N   0  0  0  0  0  0  0  0  0  0  0  0
   -2.8723    2.4218    0.0851 H   0  0  0  0  0  0  0  0  0  0  0  0
   -1.3404   -1.2965    1.1074 H   0  0  0  0  0  0  0  0  0  0  0  0
    0.2979   -1.5288   -1.9174 H   0  0  0  0  0  0  0  0  0  0  0  0
    4.0378    1.2631    0.2713 H   0  0  0  0  0  0  0  0  0  0  0  0
   -1.6846   -0.3055   -1.6611 H   0  0  0  0  0  0  0  0  0  0  0  0
   -1.5923   -1.8978   -1.1097 H   0  0  0  0  0  0  0  0  0  0  0  0
  1  2  1  0
  2  3  2  0
  2  4  1  0
  4  5  1  0
  5  6  1  0
  6  7  2  0
  7  8  1  0
  8  9  1  0
  9 10  1  0
  8 11  1  0
  4 12  1  0
  9  5  2  0
  1 13  1  0
  4 14  1  0
  6 15  1  0
 11 16  1  0
 12 17  1  0
 12 18  1  0
M  END
>  <Ligand ID>  (1) 
LIG0001290

>  <Ligand>  (1) 
CHEMBL389980

>  <SMILES>  (1) 
OC(=O)C(c1cnn(c1Br)O)N

>  <CID>  (1) 
44428729.0

>  <ChEMBL ID>  (1) 
nan

>  <InChiKey>  (1) 
LLFZDKPSHLQHRI-UHFFFAOYSA-N

>  <InChi>  (1) 
InChI=1S/C5H6BrN3O3/c6-4-2(1-8-9(4)12)3(7)5(10)11/h1,3,12H,7H2,(H,10,11)

>  <IUPAC Name>  (1) 
2-amino-2-(5-bromo-1-hydroxypyrazol-4-yl)acetic acid

$$$$
