
     RDKit          3D

 47 48  0  0  0  0  0  0  0  0999 V2000
    4.6347    4.0803    0.2366 C   0  0  0  0  0  0  0  0  0  0  0  0
    3.6800    3.5379   -0.6233 O   0  0  0  0  0  0  0  0  0  0  0  0
    3.0692    2.3008   -0.4967 C   0  0  0  0  0  0  0  0  0  0  0  0
    2.1356    1.8780   -1.4194 C   0  0  0  0  0  0  0  0  0  0  0  0
    1.5269    0.6318   -1.2830 C   0  0  0  0  0  0  0  0  0  0  0  0
    1.8111   -0.2237   -0.2534 C   0  0  0  0  0  0  0  0  0  0  0  0
    2.7516    0.2040    0.6747 C   0  0  0  0  0  0  0  0  0  0  0  0
    3.3548    1.4386    0.5396 C   0  0  0  0  0  0  0  0  0  0  0  0
    1.2097   -1.5490   -0.0355 C   0  0  0  0  0  0  0  0  0  0  0  0
    2.2854   -2.4638    0.2135 N   0  0  0  0  0  0  0  0  0  0  0  0
    3.0990   -2.7730   -0.8924 C   0  0  0  0  0  0  0  0  0  0  0  0
    2.1231   -3.4109    1.2373 C   0  0  0  0  0  0  0  0  0  0  0  0
    0.2400   -2.0129   -1.0525 C   0  0  0  0  0  0  0  0  0  0  0  0
   -0.9305   -1.2315   -1.2569 N   0  0  0  0  0  0  0  0  0  0  0  0
   -1.8433   -0.9969   -0.1915 C   0  0  0  0  0  0  0  0  0  0  0  0
   -1.6922   -1.4467    0.9711 O   0  0  0  0  0  0  0  0  0  0  0  0
   -3.0808   -0.1681   -0.4111 C   0  0  0  0  0  0  0  0  0  0  0  0
   -3.8732   -0.0691    0.8545 C   0  0  0  0  0  0  0  0  0  0  0  0
   -5.0939    0.7702    0.5671 C   0  0  0  0  0  0  0  0  0  0  0  0
   -6.2630    0.1104    0.1152 C   0  0  0  0  0  0  0  0  0  0  0  0
   -7.4993    1.4594   -0.1106 S   0  0  0  0  0  0  0  0  0  0  0  0
   -6.3079    2.7637    0.4276 C   0  0  0  0  0  0  0  0  0  0  0  0
   -5.1585    2.0851    0.7084 C   0  0  0  0  0  0  0  0  0  0  0  0
    5.3247    4.7044   -0.4035 H   0  0  0  0  0  0  0  0  0  0  0  0
    4.2094    4.7642    0.9974 H   0  0  0  0  0  0  0  0  0  0  0  0
    5.2472    3.3113    0.7625 H   0  0  0  0  0  0  0  0  0  0  0  0
    1.8782    2.5197   -2.2504 H   0  0  0  0  0  0  0  0  0  0  0  0
    0.8234    0.3580   -2.0211 H   0  0  0  0  0  0  0  0  0  0  0  0
    3.0154   -0.4310    1.5090 H   0  0  0  0  0  0  0  0  0  0  0  0
    4.0757    1.7223    1.2845 H   0  0  0  0  0  0  0  0  0  0  0  0
    0.6249   -1.4801    0.9384 H   0  0  0  0  0  0  0  0  0  0  0  0
    3.0091   -1.9710   -1.6363 H   0  0  0  0  0  0  0  0  0  0  0  0
    2.8913   -3.7319   -1.3929 H   0  0  0  0  0  0  0  0  0  0  0  0
    4.1701   -2.7497   -0.5399 H   0  0  0  0  0  0  0  0  0  0  0  0
    1.4778   -4.2843    1.0279 H   0  0  0  0  0  0  0  0  0  0  0  0
    3.1527   -3.7266    1.5797 H   0  0  0  0  0  0  0  0  0  0  0  0
    1.7034   -2.8955    2.1373 H   0  0  0  0  0  0  0  0  0  0  0  0
   -0.0923   -3.0608   -0.7872 H   0  0  0  0  0  0  0  0  0  0  0  0
    0.7789   -2.1747   -2.0325 H   0  0  0  0  0  0  0  0  0  0  0  0
   -1.2108   -0.7877   -2.1836 H   0  0  0  0  0  0  0  0  0  0  0  0
   -2.8013    0.8221   -0.7999 H   0  0  0  0  0  0  0  0  0  0  0  0
   -3.7031   -0.6865   -1.1565 H   0  0  0  0  0  0  0  0  0  0  0  0
   -3.3175    0.4099    1.6896 H   0  0  0  0  0  0  0  0  0  0  0  0
   -4.1625   -1.0735    1.1955 H   0  0  0  0  0  0  0  0  0  0  0  0
   -6.4596   -0.9339   -0.0756 H   0  0  0  0  0  0  0  0  0  0  0  0
   -6.5422    3.7777    0.4781 H   0  0  0  0  0  0  0  0  0  0  0  0
   -4.2713    2.6830    1.0632 H   0  0  0  0  0  0  0  0  0  0  0  0
  1  2  1  0
  2  3  1  0
  3  4  2  0
  4  5  1  0
  5  6  2  0
  6  7  1  0
  7  8  2  0
  6  9  1  0
  9 10  1  0
 10 11  1  0
 10 12  1  0
  9 13  1  0
 13 14  1  0
 14 15  1  0
 15 16  2  0
 15 17  1  0
 17 18  1  0
 18 19  1  0
 19 20  2  0
 20 21  1  0
 21 22  1  0
 22 23  2  0
  8  3  1  0
 23 19  1  0
  1 24  1  0
  1 25  1  0
  1 26  1  0
  4 27  1  0
  5 28  1  0
  7 29  1  0
  8 30  1  0
  9 31  1  0
 11 32  1  0
 11 33  1  0
 11 34  1  0
 12 35  1  0
 12 36  1  0
 12 37  1  0
 13 38  1  0
 13 39  1  0
 14 40  1  0
 17 41  1  0
 17 42  1  0
 18 43  1  0
 18 44  1  0
 20 45  1  0
 22 46  1  0
 23 47  1  0
M  END
>  <Ligand ID>  (1) 
LIG0004524

>  <Ligand>  (1) 
MLS001175046

>  <SMILES>  (1) 
COc1ccc(cc1)C(N(C)C)CNC(=O)CCc1cscc1

>  <CID>  (1) 
16326480.0

>  <ChEMBL ID>  (1) 
nan

>  <InChiKey>  (1) 
ORJGOUMNJNMVFR-UHFFFAOYSA-N

>  <InChi>  (1) 
InChI=1S/C18H24N2O2S/c1-20(2)17(15-5-7-16(22-3)8-6-15)12-19-18(21)9-4-14-10-11-23-13-14/h5-8,10-11,13,17H,4,9,12H2,1-3H3,(H,19,21)

>  <IUPAC Name>  (1) 
N-[2-(dimethylamino)-2-(4-methoxyphenyl)ethyl]-3-thiophen-3-ylpropanamide

$$$$
