
     RDKit          3D

 33 34  0  0  0  0  0  0  0  0999 V2000
   -1.3885   -1.8133    1.7543 C   0  0  0  0  0  0  0  0  0  0  0  0
   -1.0920   -1.1633    0.3990 C   0  0  0  0  0  0  0  0  0  0  0  0
   -2.3121   -0.4171   -0.0288 C   0  0  0  0  0  0  0  0  0  0  0  0
   -3.4367   -0.2936    0.5670 N   0  0  0  0  0  0  0  0  0  0  0  0
   -4.3828    0.5035   -0.1482 C   0  0  0  0  0  0  0  0  0  0  0  0
   -3.7143    0.7984   -1.4552 C   0  0  0  0  0  0  0  0  0  0  0  0
   -2.3710    0.3053   -1.2543 N   0  0  0  0  0  0  0  0  0  0  0  0
    0.0008   -0.3247    0.5970 O   0  0  0  0  0  0  0  0  0  0  0  0
    1.2066   -0.5104   -0.0110 C   0  0  0  0  0  0  0  0  0  0  0  0
    1.5548   -1.4984   -0.8817 C   0  0  0  0  0  0  0  0  0  0  0  0
    2.8342   -1.5877   -1.4467 C   0  0  0  0  0  0  0  0  0  0  0  0
    3.8145   -0.6658   -1.1430 C   0  0  0  0  0  0  0  0  0  0  0  0
    3.4697    0.3374   -0.2623 C   0  0  0  0  0  0  0  0  0  0  0  0
    2.2094    0.4223    0.2920 C   0  0  0  0  0  0  0  0  0  0  0  0
    1.9248    1.5076    1.2103 C   0  0  0  0  0  0  0  0  0  0  0  0
    0.7945    1.6279    1.7403 O   0  0  0  0  0  0  0  0  0  0  0  0
    2.9570    2.5154    1.5576 C   0  0  0  0  0  0  0  0  0  0  0  0
   -2.0361   -2.6954    1.6164 H   0  0  0  0  0  0  0  0  0  0  0  0
   -1.9419   -1.0658    2.3623 H   0  0  0  0  0  0  0  0  0  0  0  0
   -0.4269   -2.0071    2.2334 H   0  0  0  0  0  0  0  0  0  0  0  0
   -0.8321   -1.9642   -0.2981 H   0  0  0  0  0  0  0  0  0  0  0  0
   -5.2814   -0.1529   -0.3094 H   0  0  0  0  0  0  0  0  0  0  0  0
   -4.7016    1.4065    0.4051 H   0  0  0  0  0  0  0  0  0  0  0  0
   -4.2280    0.2316   -2.2693 H   0  0  0  0  0  0  0  0  0  0  0  0
   -3.7219    1.8955   -1.6143 H   0  0  0  0  0  0  0  0  0  0  0  0
   -1.5941    0.4838   -1.9431 H   0  0  0  0  0  0  0  0  0  0  0  0
    0.8704   -2.2661   -1.1861 H   0  0  0  0  0  0  0  0  0  0  0  0
    3.0778   -2.3819   -2.1325 H   0  0  0  0  0  0  0  0  0  0  0  0
    4.7844   -0.7286   -1.5677 H   0  0  0  0  0  0  0  0  0  0  0  0
    4.2505    1.0571   -0.0312 H   0  0  0  0  0  0  0  0  0  0  0  0
    2.4845    3.4664    1.9270 H   0  0  0  0  0  0  0  0  0  0  0  0
    3.5670    2.8417    0.6826 H   0  0  0  0  0  0  0  0  0  0  0  0
    3.6607    2.1356    2.3395 H   0  0  0  0  0  0  0  0  0  0  0  0
  1  2  1  0
  2  3  1  0
  3  4  2  0
  4  5  1  0
  5  6  1  0
  6  7  1  0
  2  8  1  0
  8  9  1  0
  9 10  2  0
 10 11  1  0
 11 12  2  0
 12 13  1  0
 13 14  2  0
 14 15  1  0
 15 16  2  0
 15 17  1  0
  7  3  1  0
 14  9  1  0
  1 18  1  0
  1 19  1  0
  1 20  1  0
  2 21  1  0
  5 22  1  0
  5 23  1  0
  6 24  1  0
  6 25  1  0
  7 26  1  0
 10 27  1  0
 11 28  1  0
 12 29  1  0
 13 30  1  0
 17 31  1  0
 17 32  1  0
 17 33  1  0
M  END
>  <Ligand ID>  (1) 
LIG0003513

>  <Ligand>  (1) 
CHEMBL1956202

>  <SMILES>  (1) 
CC(C1=NCCN1)Oc1ccccc1C(=O)C

>  <CID>  (1) 
57395731.0

>  <ChEMBL ID>  (1) 
nan

>  <InChiKey>  (1) 
LHYRGWVECGKEOM-UHFFFAOYSA-N

>  <InChi>  (1) 
InChI=1S/C13H16N2O2/c1-9(16)11-5-3-4-6-12(11)17-10(2)13-14-7-8-15-13/h3-6,10H,7-8H2,1-2H3,(H,14,15)

>  <IUPAC Name>  (1) 
1-[2-[1-(4,5-dihydro-1H-imidazol-2-yl)ethoxy]phenyl]ethanone

$$$$
