
     RDKit          3D

138139  0  0  0  0  0  0  0  0999 V2000
    5.6784   -1.6401    3.0952 C   0  0  0  0  0  0  0  0  0  0  0  0
    4.8239   -1.3302    2.0083 O   0  0  0  0  0  0  0  0  0  0  0  0
    5.1369   -2.2214    1.0178 C   0  0  0  0  0  0  0  0  0  0  0  0
    4.3857   -2.1417   -0.2576 C   0  0  0  0  0  0  0  0  0  0  0  0
    4.4367   -0.9419   -1.0241 N   0  0  0  0  0  0  0  0  0  0  0  0
    3.5448    0.1448   -0.9920 C   0  0  0  0  0  0  0  0  0  0  0  0
    3.8544    1.1396   -1.7749 O   0  0  0  0  0  0  0  0  0  0  0  0
    2.3298    0.3436   -0.2311 C   0  0  2  0  0  0  0  0  0  0  0  0
    2.2925    1.7395    0.3770 C   0  0  0  0  0  0  0  0  0  0  0  0
    0.9267    2.0204    1.4752 S   0  0  0  0  0  0  0  0  0  0  0  0
   -0.7041    1.9876    0.7734 C   0  0  0  0  0  0  0  0  0  0  0  0
   -1.0679    3.0931   -0.1546 C   0  0  0  0  0  0  0  0  0  0  0  0
   -2.5035    2.9782   -0.6777 C   0  0  0  0  0  0  0  0  0  0  0  0
   -3.4812    3.0950    0.4251 C   0  0  0  0  0  0  0  0  0  0  0  0
   -3.1908    3.3642    1.6006 O   0  0  0  0  0  0  0  0  0  0  0  0
   -4.9118    2.8986    0.2249 N   0  0  0  0  0  0  0  0  0  0  0  0
   -5.8469    2.9862    1.3145 C   0  0  1  0  0  0  0  0  0  0  0  0
   -6.7944    4.1439    1.2567 C   0  0  0  0  0  0  0  0  0  0  0  0
   -7.6628    4.2409    0.0955 C   0  0  0  0  0  0  0  0  0  0  0  0
   -7.1970    5.0010   -0.9927 C   0  0  0  0  0  0  0  0  0  0  0  0
   -7.9373    5.1590   -2.1370 C   0  0  0  0  0  0  0  0  0  0  0  0
   -9.1869    4.5478   -2.2218 C   0  0  0  0  0  0  0  0  0  0  0  0
   -9.6207    3.8099   -1.1451 C   0  0  0  0  0  0  0  0  0  0  0  0
   -8.9010    3.6356    0.0113 C   0  0  0  0  0  0  0  0  0  0  0  0
   -9.9735    4.6837   -3.3718 O   0  0  0  0  0  0  0  0  0  0  0  0
   -6.4677    1.6950    1.6664 C   0  0  0  0  0  0  0  0  0  0  0  0
   -7.1617    1.5408    2.6816 O   0  0  0  0  0  0  0  0  0  0  0  0
   -6.3348    0.4929    0.8644 N   0  0  0  0  0  0  0  0  0  0  0  0
   -6.8923   -0.7629    1.3500 C   0  0  2  0  0  0  0  0  0  0  0  0
   -5.8984   -1.8602    1.2098 C   0  0  0  0  0  0  0  0  0  0  0  0
   -6.0609   -3.0135    1.6552 O   0  0  0  0  0  0  0  0  0  0  0  0
   -4.6472   -1.6817    0.5333 N   0  0  0  0  0  0  0  0  0  0  0  0
   -3.6374   -2.6951    0.3697 C   0  0  2  0  0  0  0  0  0  0  0  0
   -2.3379   -2.2756    0.9032 C   0  0  0  0  0  0  0  0  0  0  0  0
   -2.2631   -1.2219    1.5541 O   0  0  0  0  0  0  0  0  0  0  0  0
   -1.1121   -2.9807    0.7352 N   0  0  0  0  0  0  0  0  0  0  0  0
    0.0887   -2.4131    1.3353 C   0  0  2  0  0  0  0  0  0  0  0  0
    0.6829   -1.4233    0.3490 C   0  0  0  0  0  0  0  0  0  0  0  0
    0.1944   -1.2388   -0.7610 O   0  0  0  0  0  0  0  0  0  0  0  0
    1.8493   -0.6529    0.6693 N   0  0  0  0  0  0  0  0  0  0  0  0
    1.0599   -3.4395    1.7990 C   0  0  0  0  0  0  0  0  0  0  0  0
    0.4291   -4.2972    2.8157 C   0  0  0  0  0  0  0  0  0  0  0  0
   -0.7439   -4.0500    3.1584 O   0  0  0  0  0  0  0  0  0  0  0  0
    1.0963   -5.3967    3.4269 N   0  0  0  0  0  0  0  0  0  0  0  0
   -3.6324   -3.4502   -0.8864 C   0  0  0  0  0  0  0  0  0  0  0  0
   -3.4535   -2.8031   -2.1901 C   0  0  0  0  0  0  0  0  0  0  0  0
   -3.4937   -3.8302   -3.3032 C   0  0  0  0  0  0  0  0  0  0  0  0
   -3.6753   -5.0501   -3.0629 O   0  0  0  0  0  0  0  0  0  0  0  0
   -3.3261   -3.4548   -4.6636 N   0  0  0  0  0  0  0  0  0  0  0  0
   -8.1883   -1.0893    0.6369 C   0  0  2  0  0  0  0  0  0  0  0  0
   -8.7959   -2.3808    1.1286 C   0  0  0  0  0  0  0  0  0  0  0  0
   -9.0668   -2.2129    2.6210 C   0  0  0  0  0  0  0  0  0  0  0  0
   -8.0043   -1.1576   -0.8603 C   0  0  0  0  0  0  0  0  0  0  0  0
    5.5285   -0.8510   -2.0181 C   0  0  0  0  0  0  0  0  0  0  0  0
    6.7075   -0.1019   -1.5257 C   0  0  0  0  0  0  0  0  0  0  0  0
    7.6853   -0.0623   -2.3621 O   0  0  0  0  0  0  0  0  0  0  0  0
    6.7808    0.5258   -0.2576 N   0  0  0  0  0  0  0  0  0  0  0  0
    7.8419    1.2654    0.3071 C   0  0  2  0  0  0  0  0  0  0  0  0
    8.5090    2.2619   -0.6089 C   0  0  0  0  0  0  0  0  0  0  0  0
    9.6390    2.7282   -0.3106 O   0  0  0  0  0  0  0  0  0  0  0  0
    7.9188    2.7198   -1.8089 N   0  0  0  0  0  0  0  0  0  0  0  0
    8.5544    3.6758   -2.6906 C   0  0  0  0  0  0  0  0  0  0  0  0
    9.8504    3.2475   -3.2317 C   0  0  0  0  0  0  0  0  0  0  0  0
   10.4426    4.0470   -4.0120 O   0  0  0  0  0  0  0  0  0  0  0  0
   10.4946    2.0254   -2.9600 N   0  0  0  0  0  0  0  0  0  0  0  0
    8.7342    0.6206    1.2807 C   0  0  0  0  0  0  0  0  0  0  0  0
    9.5160   -0.5661    0.8738 C   0  0  0  0  0  0  0  0  0  0  0  0
   10.4867   -0.3827   -0.2428 C   0  0  0  0  0  0  0  0  0  0  0  0
   10.3661   -0.9568    2.0953 C   0  0  0  0  0  0  0  0  0  0  0  0
    5.5268   -0.9935    3.9566 H   0  0  0  0  0  0  0  0  0  0  0  0
    6.7372   -1.5806    2.7789 H   0  0  0  0  0  0  0  0  0  0  0  0
    5.5262   -2.7041    3.4074 H   0  0  0  0  0  0  0  0  0  0  0  0
    4.9176   -3.2464    1.4619 H   0  0  0  0  0  0  0  0  0  0  0  0
    6.2517   -2.2462    0.8543 H   0  0  0  0  0  0  0  0  0  0  0  0
    3.3048   -2.4733   -0.1058 H   0  0  0  0  0  0  0  0  0  0  0  0
    4.7804   -2.9816   -0.9034 H   0  0  0  0  0  0  0  0  0  0  0  0
    1.5012    0.4160   -1.0387 H   0  0  0  0  0  0  0  0  0  0  0  0
    3.2499    1.9132    0.8659 H   0  0  0  0  0  0  0  0  0  0  0  0
    2.1982    2.4612   -0.4755 H   0  0  0  0  0  0  0  0  0  0  0  0
   -0.9389    0.9911    0.2736 H   0  0  0  0  0  0  0  0  0  0  0  0
   -1.4462    1.9850    1.6271 H   0  0  0  0  0  0  0  0  0  0  0  0
   -0.4190    2.9900   -1.0625 H   0  0  0  0  0  0  0  0  0  0  0  0
   -0.9403    4.0894    0.3199 H   0  0  0  0  0  0  0  0  0  0  0  0
   -2.6136    2.0203   -1.2472 H   0  0  0  0  0  0  0  0  0  0  0  0
   -2.6387    3.8424   -1.3498 H   0  0  0  0  0  0  0  0  0  0  0  0
   -5.1489    2.7006   -0.7504 H   0  0  0  0  0  0  0  0  0  0  0  0
   -5.2065    3.2185    2.2339 H   0  0  0  0  0  0  0  0  0  0  0  0
   -6.2072    5.0794    1.3522 H   0  0  0  0  0  0  0  0  0  0  0  0
   -7.4092    4.0899    2.1809 H   0  0  0  0  0  0  0  0  0  0  0  0
   -6.2100    5.4799   -0.9125 H   0  0  0  0  0  0  0  0  0  0  0  0
   -7.5433    5.7477   -2.9446 H   0  0  0  0  0  0  0  0  0  0  0  0
  -10.6077    3.3495   -1.2560 H   0  0  0  0  0  0  0  0  0  0  0  0
   -9.2846    3.0516    0.8182 H   0  0  0  0  0  0  0  0  0  0  0  0
  -10.9116    5.0964   -3.3249 H   0  0  0  0  0  0  0  0  0  0  0  0
   -5.8513    0.6444   -0.0125 H   0  0  0  0  0  0  0  0  0  0  0  0
   -7.1557   -0.6702    2.4185 H   0  0  0  0  0  0  0  0  0  0  0  0
   -4.4851   -0.7575    0.1506 H   0  0  0  0  0  0  0  0  0  0  0  0
   -3.9856   -3.4688    1.1346 H   0  0  0  0  0  0  0  0  0  0  0  0
   -1.1681   -3.8419    0.1992 H   0  0  0  0  0  0  0  0  0  0  0  0
   -0.1997   -1.7872    2.2451 H   0  0  0  0  0  0  0  0  0  0  0  0
    2.2599   -0.8924    1.5763 H   0  0  0  0  0  0  0  0  0  0  0  0
    1.8978   -2.8847    2.3176 H   0  0  0  0  0  0  0  0  0  0  0  0
    1.5267   -4.0182    0.9756 H   0  0  0  0  0  0  0  0  0  0  0  0
    1.2811   -5.3017    4.4643 H   0  0  0  0  0  0  0  0  0  0  0  0
    1.3883   -6.2446    2.8815 H   0  0  0  0  0  0  0  0  0  0  0  0
   -2.8864   -4.2889   -0.8105 H   0  0  0  0  0  0  0  0  0  0  0  0
   -4.6117   -4.0263   -0.9353 H   0  0  0  0  0  0  0  0  0  0  0  0
   -4.2902   -2.1086   -2.4608 H   0  0  0  0  0  0  0  0  0  0  0  0
   -2.5344   -2.2417   -2.3576 H   0  0  0  0  0  0  0  0  0  0  0  0
   -4.0448   -3.8357   -5.3467 H   0  0  0  0  0  0  0  0  0  0  0  0
   -2.5374   -2.8397   -4.9632 H   0  0  0  0  0  0  0  0  0  0  0  0
   -8.9047   -0.2790    0.8754 H   0  0  0  0  0  0  0  0  0  0  0  0
   -9.8283   -2.4135    0.6693 H   0  0  0  0  0  0  0  0  0  0  0  0
   -8.2223   -3.2817    0.8940 H   0  0  0  0  0  0  0  0  0  0  0  0
   -8.2467   -2.5950    3.2415 H   0  0  0  0  0  0  0  0  0  0  0  0
   -9.2081   -1.1306    2.8342 H   0  0  0  0  0  0  0  0  0  0  0  0
   -9.9810   -2.7633    2.9244 H   0  0  0  0  0  0  0  0  0  0  0  0
   -9.0069   -1.2136   -1.3294 H   0  0  0  0  0  0  0  0  0  0  0  0
   -7.4928   -0.2790   -1.2673 H   0  0  0  0  0  0  0  0  0  0  0  0
   -7.4877   -2.1232   -1.1319 H   0  0  0  0  0  0  0  0  0  0  0  0
    5.1230   -0.3133   -2.9077 H   0  0  0  0  0  0  0  0  0  0  0  0
    5.8250   -1.8823   -2.2638 H   0  0  0  0  0  0  0  0  0  0  0  0
    5.8890    0.4241    0.3251 H   0  0  0  0  0  0  0  0  0  0  0  0
    7.2648    2.0599    0.9767 H   0  0  0  0  0  0  0  0  0  0  0  0
    6.9545    2.3988   -2.1051 H   0  0  0  0  0  0  0  0  0  0  0  0
    7.8605    4.0116   -3.4876 H   0  0  0  0  0  0  0  0  0  0  0  0
    8.7658    4.6198   -2.1043 H   0  0  0  0  0  0  0  0  0  0  0  0
   10.0285    1.1547   -3.3490 H   0  0  0  0  0  0  0  0  0  0  0  0
   11.3870    1.9778   -2.4038 H   0  0  0  0  0  0  0  0  0  0  0  0
    8.1012    0.3089    2.1544 H   0  0  0  0  0  0  0  0  0  0  0  0
    9.4041    1.4040    1.7151 H   0  0  0  0  0  0  0  0  0  0  0  0
    8.8525   -1.4472    0.7284 H   0  0  0  0  0  0  0  0  0  0  0  0
   10.0984   -0.0715   -1.2004 H   0  0  0  0  0  0  0  0  0  0  0  0
   11.3265    0.2418    0.1330 H   0  0  0  0  0  0  0  0  0  0  0  0
   10.9548   -1.3970   -0.4169 H   0  0  0  0  0  0  0  0  0  0  0  0
    9.7395   -1.0887    2.9930 H   0  0  0  0  0  0  0  0  0  0  0  0
   11.0148   -0.0773    2.2829 H   0  0  0  0  0  0  0  0  0  0  0  0
   11.0245   -1.8086    1.8558 H   0  0  0  0  0  0  0  0  0  0  0  0
  1  2  1  0
  2  3  1  0
  3  4  1  0
  4  5  1  0
  5  6  1  0
  6  7  2  0
  6  8  1  0
  8  9  1  0
  9 10  1  0
 10 11  1  0
 11 12  1  0
 12 13  1  0
 13 14  1  0
 14 15  2  0
 14 16  1  0
 16 17  1  0
 17 18  1  0
 18 19  1  0
 19 20  2  0
 20 21  1  0
 21 22  2  0
 22 23  1  0
 23 24  2  0
 22 25  1  0
 17 26  1  0
 26 27  2  0
 26 28  1  0
 28 29  1  0
 29 30  1  0
 30 31  2  0
 30 32  1  0
 32 33  1  0
 33 34  1  0
 34 35  2  0
 34 36  1  0
 36 37  1  0
 37 38  1  0
 38 39  2  0
 38 40  1  0
 37 41  1  0
 41 42  1  0
 42 43  2  0
 42 44  1  0
 33 45  1  0
 45 46  1  0
 46 47  1  0
 47 48  2  0
 47 49  1  0
 29 50  1  0
 50 51  1  0
 51 52  1  0
 50 53  1  0
  5 54  1  0
 54 55  1  0
 55 56  2  0
 55 57  1  0
 57 58  1  0
 58 59  1  0
 59 60  2  0
 59 61  1  0
 61 62  1  0
 62 63  1  0
 63 64  2  0
 63 65  1  0
 58 66  1  0
 66 67  1  0
 67 68  1  0
 67 69  1  0
 40  8  1  0
 24 19  1  0
  1 70  1  0
  1 71  1  0
  1 72  1  0
  3 73  1  0
  3 74  1  0
  4 75  1  0
  4 76  1  0
  8 77  1  6
  9 78  1  0
  9 79  1  0
 11 80  1  0
 11 81  1  0
 12 82  1  0
 12 83  1  0
 13 84  1  0
 13 85  1  0
 16 86  1  0
 17 87  1  1
 18 88  1  0
 18 89  1  0
 20 90  1  0
 21 91  1  0
 23 92  1  0
 24 93  1  0
 25 94  1  0
 28 95  1  0
 29 96  1  1
 32 97  1  0
 33 98  1  1
 36 99  1  0
 37100  1  1
 40101  1  0
 41102  1  0
 41103  1  0
 44104  1  0
 44105  1  0
 45106  1  0
 45107  1  0
 46108  1  0
 46109  1  0
 49110  1  0
 49111  1  0
 50112  1  6
 51113  1  0
 51114  1  0
 52115  1  0
 52116  1  0
 52117  1  0
 53118  1  0
 53119  1  0
 53120  1  0
 54121  1  0
 54122  1  0
 57123  1  0
 58124  1  1
 61125  1  0
 62126  1  0
 62127  1  0
 65128  1  0
 65129  1  0
 66130  1  0
 66131  1  0
 67132  1  0
 68133  1  0
 68134  1  0
 68135  1  0
 69136  1  0
 69137  1  0
 69138  1  0
M  END
>  <Ligand ID>  (1) 
LIG0001574

>  <Ligand>  (1) 
CHEMBL3354575

>  <SMILES>  (1) 
COCCN(C(=O)[C@@H]1CSCCCC(=O)N[C@@H](Cc2ccc(cc2)O)C(=O)N[C@H](C(=O)N[C@H](C(=O)N[C@H](C(=O)N1)CC(=O)N)CCC(=O)N)[C@H](CC)C)CC(=O)N[C@H](C(=O)NCC(=O)N)CC(C)C

>  <CID>  (1) 
118720264.0

>  <ChEMBL ID>  (1) 
nan

>  <InChiKey>  (1) 
DTPRPICTOMNBEJ-FRGVEXLJSA-N

>  <InChi>  (1) 
InChI=1S/C44H69N11O13S/c1-6-25(4)38-43(66)51-28(13-14-33(45)57)40(63)52-31(20-34(46)58)41(64)53-32(23-69-17-7-8-36(60)49-30(42(65)54-38)19-26-9-11-27(56)12-10-26)44(67)55(15-16-68-5)22-37(61)50-29(18-24(2)3)39(62)48-21-35(47)59/h9-12,24-25,28-32,38,56H,6-8,13-23H2,1-5H3,(H2,45,57)(H2,46,58)(H2,47,59)(H,48,62)(H,49,60)(H,50,61)(H,51,66)(H,52,63)(H,53,64)(H,54,65)/t25-,28-,29-,30-,31-,32-,38-/m0/s1

>  <IUPAC Name>  (1) 
(3R,6S,9S,12S,15S)-6-(2-amino-2-oxoethyl)-N-[2-[[(2S)-1-[(2-amino-2-oxoethyl)amino]-4-methyl-1-oxopentan-2-yl]amino]-2-oxoethyl]-9-(3-amino-3-oxopropyl)-12-[(2S)-butan-2-yl]-15-[(4-hydroxyphenyl)methyl]-N-(2-methoxyethyl)-5,8,11,14,17-pentaoxo-1-thia-4,7,10,13,16-pentazacycloicosane-3-carboxamide

$$$$
