
     RDKit          3D

 63 66  0  0  0  0  0  0  0  0999 V2000
    0.3509    1.4123    2.3509 O   0  0  0  0  0  0  0  0  0  0  0  0
    0.7081    0.5537    1.4822 C   0  0  0  0  0  0  0  0  0  0  0  0
    1.7843    0.9273    0.4993 C   0  0  2  0  0  0  0  0  0  0  0  0
    2.9590   -0.0467    0.6462 C   0  0  0  0  0  0  0  0  0  0  0  0
    4.0206    0.3247   -0.3248 C   0  0  0  0  0  0  0  0  0  0  0  0
    5.1674    0.9792    0.0811 C   0  0  0  0  0  0  0  0  0  0  0  0
    6.1795    1.3481   -0.7632 C   0  0  0  0  0  0  0  0  0  0  0  0
    7.3862    2.0547   -0.2377 C   0  0  0  0  0  0  0  0  0  0  0  0
    6.0704    1.0590   -2.1072 C   0  0  0  0  0  0  0  0  0  0  0  0
    4.9172    0.3962   -2.5419 C   0  0  0  0  0  0  0  0  0  0  0  0
    3.9123    0.0362   -1.6682 C   0  0  0  0  0  0  0  0  0  0  0  0
    2.7367   -0.6580   -2.2183 C   0  0  0  0  0  0  0  0  0  0  0  0
    7.0788    1.4177   -2.9987 O   0  0  0  0  0  0  0  0  0  0  0  0
    2.2468    2.2705    0.7287 N   0  0  0  0  0  0  0  0  0  0  0  0
    0.1063   -0.7253    1.4410 N   0  0  0  0  0  0  0  0  0  0  0  0
   -0.9153   -1.0323    2.4001 C   0  0  2  0  0  0  0  0  0  0  0  0
   -0.4876   -2.2213    3.2520 C   0  0  0  0  0  0  0  0  0  0  0  0
   -0.1978   -3.3639    2.3032 C   0  0  0  0  0  0  0  0  0  0  0  0
   -1.3397   -3.5855    1.4383 N   0  0  0  0  0  0  0  0  0  0  0  0
   -2.4180   -2.6731    1.3192 C   0  0  0  0  0  0  0  0  0  0  0  0
   -2.2174   -1.3946    1.7960 C   0  0  0  0  0  0  0  0  0  0  0  0
   -3.2351   -0.4750    1.7020 C   0  0  0  0  0  0  0  0  0  0  0  0
   -4.4638   -0.8013    1.1375 C   0  0  0  0  0  0  0  0  0  0  0  0
   -4.6634   -2.0846    0.6596 C   0  0  0  0  0  0  0  0  0  0  0  0
   -3.6402   -3.0241    0.7495 C   0  0  0  0  0  0  0  0  0  0  0  0
   -5.5073    0.2548    1.0760 C   0  0  0  0  0  0  0  0  0  0  0  0
   -5.4704    1.0484   -0.1670 C   0  0  0  0  0  0  0  0  0  0  0  0
   -4.7321    2.1958   -0.3357 C   0  0  0  0  0  0  0  0  0  0  0  0
   -4.7560    2.8872   -1.5507 C   0  0  0  0  0  0  0  0  0  0  0  0
   -5.5309    2.4238   -2.6152 C   0  0  0  0  0  0  0  0  0  0  0  0
   -6.2815    1.2556   -2.4411 C   0  0  0  0  0  0  0  0  0  0  0  0
   -6.2359    0.5970   -1.2294 C   0  0  0  0  0  0  0  0  0  0  0  0
    1.3807    0.8426   -0.5143 H   0  0  0  0  0  0  0  0  0  0  0  0
    2.6517   -1.0805    0.4792 H   0  0  0  0  0  0  0  0  0  0  0  0
    3.3609    0.1337    1.6661 H   0  0  0  0  0  0  0  0  0  0  0  0
    5.2705    1.2143    1.1316 H   0  0  0  0  0  0  0  0  0  0  0  0
    7.2312    3.1477   -0.4413 H   0  0  0  0  0  0  0  0  0  0  0  0
    7.4949    1.9424    0.8433 H   0  0  0  0  0  0  0  0  0  0  0  0
    8.2781    1.7466   -0.8184 H   0  0  0  0  0  0  0  0  0  0  0  0
    4.8668    0.1878   -3.5949 H   0  0  0  0  0  0  0  0  0  0  0  0
    2.1073    0.0008   -2.8794 H   0  0  0  0  0  0  0  0  0  0  0  0
    2.1359   -1.2168   -1.4839 H   0  0  0  0  0  0  0  0  0  0  0  0
    3.1367   -1.4257   -2.9338 H   0  0  0  0  0  0  0  0  0  0  0  0
    7.9944    1.0176   -2.8528 H   0  0  0  0  0  0  0  0  0  0  0  0
    3.1750    2.4670    0.3334 H   0  0  0  0  0  0  0  0  0  0  0  0
    1.5770    2.9734    0.3455 H   0  0  0  0  0  0  0  0  0  0  0  0
    0.4121   -1.4069    0.7263 H   0  0  0  0  0  0  0  0  0  0  0  0
   -1.0962   -0.1480    3.0784 H   0  0  0  0  0  0  0  0  0  0  0  0
    0.4480   -2.0227    3.8195 H   0  0  0  0  0  0  0  0  0  0  0  0
   -1.2864   -2.4891    3.9701 H   0  0  0  0  0  0  0  0  0  0  0  0
   -0.0850   -4.2942    2.9050 H   0  0  0  0  0  0  0  0  0  0  0  0
    0.7309   -3.1419    1.7460 H   0  0  0  0  0  0  0  0  0  0  0  0
   -1.3926   -4.4620    0.8596 H   0  0  0  0  0  0  0  0  0  0  0  0
   -3.0442    0.5107    2.0833 H   0  0  0  0  0  0  0  0  0  0  0  0
   -5.6247   -2.3419    0.2173 H   0  0  0  0  0  0  0  0  0  0  0  0
   -3.7868   -4.0376    0.3760 H   0  0  0  0  0  0  0  0  0  0  0  0
   -5.3462    0.9277    1.9603 H   0  0  0  0  0  0  0  0  0  0  0  0
   -6.5170   -0.2336    1.2081 H   0  0  0  0  0  0  0  0  0  0  0  0
   -4.1263    2.5561    0.4996 H   0  0  0  0  0  0  0  0  0  0  0  0
   -4.1694    3.8011   -1.6888 H   0  0  0  0  0  0  0  0  0  0  0  0
   -5.5831    2.9155   -3.5631 H   0  0  0  0  0  0  0  0  0  0  0  0
   -6.8976    0.8589   -3.2396 H   0  0  0  0  0  0  0  0  0  0  0  0
   -6.8287   -0.2995   -1.1351 H   0  0  0  0  0  0  0  0  0  0  0  0
  1  2  2  0
  2  3  1  0
  3  4  1  0
  4  5  1  0
  5  6  2  0
  6  7  1  0
  7  8  1  0
  7  9  2  0
  9 10  1  0
 10 11  2  0
 11 12  1  0
  9 13  1  0
  3 14  1  0
  2 15  1  0
 15 16  1  0
 16 17  1  0
 17 18  1  0
 18 19  1  0
 19 20  1  0
 20 21  2  0
 21 22  1  0
 22 23  2  0
 23 24  1  0
 24 25  2  0
 23 26  1  0
 26 27  1  0
 27 28  2  0
 28 29  1  0
 29 30  2  0
 30 31  1  0
 31 32  2  0
 11  5  1  0
 21 16  1  0
 32 27  1  0
 25 20  1  0
  3 33  1  6
  4 34  1  0
  4 35  1  0
  6 36  1  0
  8 37  1  0
  8 38  1  0
  8 39  1  0
 10 40  1  0
 12 41  1  0
 12 42  1  0
 12 43  1  0
 13 44  1  0
 14 45  1  0
 14 46  1  0
 15 47  1  0
 16 48  1  1
 17 49  1  0
 17 50  1  0
 18 51  1  0
 18 52  1  0
 19 53  1  0
 22 54  1  0
 24 55  1  0
 25 56  1  0
 26 57  1  0
 26 58  1  0
 28 59  1  0
 29 60  1  0
 30 61  1  0
 31 62  1  0
 32 63  1  0
M  END
>  <Ligand ID>  (1) 
LIG0003716

>  <Ligand>  (1) 
CHEMBL3770677

>  <SMILES>  (1) 
O=C([C@H](Cc1cc(C)c(cc1C)O)N)N[C@@H]1CCNc2c1cc(cc2)Cc1ccccc1

>  <CID>  (1) 
127028436.0

>  <ChEMBL ID>  (1) 
nan

>  <InChiKey>  (1) 
AJEOBNISERORCF-UKILVPOCSA-N

>  <InChi>  (1) 
InChI=1S/C27H31N3O2/c1-17-13-26(31)18(2)12-21(17)16-23(28)27(32)30-25-10-11-29-24-9-8-20(15-22(24)25)14-19-6-4-3-5-7-19/h3-9,12-13,15,23,25,29,31H,10-11,14,16,28H2,1-2H3,(H,30,32)/t23-,25+/m0/s1

>  <IUPAC Name>  (1) 
(2S)-2-amino-N-[(4R)-6-benzyl-1,2,3,4-tetrahydroquinolin-4-yl]-3-(4-hydroxy-2,5-dimethylphenyl)propanamide

$$$$
