
     RDKit          3D

 41 44  0  0  0  0  0  0  0  0999 V2000
    4.9598    0.6412    1.8236 C   0  0  0  0  0  0  0  0  0  0  0  0
    4.4702   -0.6142    1.5815 C   0  0  0  0  0  0  0  0  0  0  0  0
    3.9473   -0.9893    0.3665 C   0  0  0  0  0  0  0  0  0  0  0  0
    3.9085   -0.0737   -0.6569 C   0  0  0  0  0  0  0  0  0  0  0  0
    4.3960    1.2035   -0.4428 C   0  0  0  0  0  0  0  0  0  0  0  0
    4.9158    1.5583    0.7823 C   0  0  0  0  0  0  0  0  0  0  0  0
    3.3602   -0.3698   -2.0022 C   0  0  0  0  0  0  0  0  0  0  0  0
    1.6250    0.0574   -2.1400 S   0  0  0  0  0  0  0  0  0  0  0  0
    0.5660   -0.9405   -1.1229 C   0  0  0  0  0  0  0  0  0  0  0  0
    0.8481   -1.9444   -0.2805 N   0  0  0  0  0  0  0  0  0  0  0  0
   -0.2511   -2.4172    0.2797 N   0  0  0  0  0  0  0  0  0  0  0  0
   -1.2729   -1.7024   -0.2111 C   0  0  0  0  0  0  0  0  0  0  0  0
   -0.7767   -0.7820   -1.0836 N   0  0  0  0  0  0  0  0  0  0  0  0
   -1.5551    0.1837   -1.8304 C   0  0  0  0  0  0  0  0  0  0  0  0
   -1.7070    1.4520   -1.0535 C   0  0  0  0  0  0  0  0  0  0  0  0
   -0.9068    2.5388   -1.0528 C   0  0  0  0  0  0  0  0  0  0  0  0
   -1.2011    3.5929   -0.2887 C   0  0  0  0  0  0  0  0  0  0  0  0
   -2.3717    3.4671    0.4801 C   0  0  0  0  0  0  0  0  0  0  0  0
   -3.0288    1.7987    0.0717 S   0  0  0  0  0  0  0  0  0  0  0  0
   -2.6983   -1.8167    0.0794 C   0  0  0  0  0  0  0  0  0  0  0  0
   -3.0763   -1.6526    1.4093 C   0  0  0  0  0  0  0  0  0  0  0  0
   -4.4046   -1.7472    1.7572 C   0  0  0  0  0  0  0  0  0  0  0  0
   -5.3724   -2.0022    0.8100 C   0  0  0  0  0  0  0  0  0  0  0  0
   -4.9321   -2.1568   -0.5043 C   0  0  0  0  0  0  0  0  0  0  0  0
   -3.6318   -2.0639   -0.8415 N   0  0  0  0  0  0  0  0  0  0  0  0
    5.3753    0.9478    2.7815 H   0  0  0  0  0  0  0  0  0  0  0  0
    4.4932   -1.3609    2.3886 H   0  0  0  0  0  0  0  0  0  0  0  0
    3.5763   -1.9915    0.2186 H   0  0  0  0  0  0  0  0  0  0  0  0
    4.3716    1.9293   -1.2367 H   0  0  0  0  0  0  0  0  0  0  0  0
    5.2850    2.5787    0.8922 H   0  0  0  0  0  0  0  0  0  0  0  0
    3.9565    0.2006   -2.7413 H   0  0  0  0  0  0  0  0  0  0  0  0
    3.4938   -1.4457   -2.2652 H   0  0  0  0  0  0  0  0  0  0  0  0
   -2.5827   -0.1945   -2.0052 H   0  0  0  0  0  0  0  0  0  0  0  0
   -1.1024    0.3914   -2.8133 H   0  0  0  0  0  0  0  0  0  0  0  0
    0.0129    2.5459   -1.7050 H   0  0  0  0  0  0  0  0  0  0  0  0
   -0.6269    4.5223   -0.2094 H   0  0  0  0  0  0  0  0  0  0  0  0
   -2.8617    4.1729    1.2005 H   0  0  0  0  0  0  0  0  0  0  0  0
   -2.3381   -1.4534    2.1598 H   0  0  0  0  0  0  0  0  0  0  0  0
   -4.7316   -1.6253    2.7768 H   0  0  0  0  0  0  0  0  0  0  0  0
   -6.4206   -2.0828    1.0504 H   0  0  0  0  0  0  0  0  0  0  0  0
   -5.7108   -2.3558   -1.2286 H   0  0  0  0  0  0  0  0  0  0  0  0
  1  2  2  0
  2  3  1  0
  3  4  2  0
  4  5  1  0
  5  6  2  0
  4  7  1  0
  7  8  1  0
  8  9  1  0
  9 10  2  0
 10 11  1  0
 11 12  2  0
 12 13  1  0
 13 14  1  0
 14 15  1  0
 15 16  2  0
 16 17  1  0
 17 18  2  0
 18 19  1  0
 12 20  1  0
 20 21  2  0
 21 22  1  0
 22 23  2  0
 23 24  1  0
 24 25  2  0
  6  1  1  0
 13  9  1  0
 19 15  1  0
 25 20  1  0
  1 26  1  0
  2 27  1  0
  3 28  1  0
  5 29  1  0
  6 30  1  0
  7 31  1  0
  7 32  1  0
 14 33  1  0
 14 34  1  0
 16 35  1  0
 17 36  1  0
 18 37  1  0
 21 38  1  0
 22 39  1  0
 23 40  1  0
 24 41  1  0
M  END
>  <Ligand ID>  (1) 
LIG0002714

>  <Ligand>  (1) 
KSC-5-247A

>  <SMILES>  (1) 
c1ccc(cc1)CSc1nnc(n1Cc1cccs1)c1ccccn1

>  <CID>  (1) 
44601467.0

>  <ChEMBL ID>  (1) 
nan

>  <InChiKey>  (1) 
YTDFSDPAYZLWFT-UHFFFAOYSA-N

>  <InChi>  (1) 
InChI=1S/C19H16N4S2/c1-2-7-15(8-3-1)14-25-19-22-21-18(17-10-4-5-11-20-17)23(19)13-16-9-6-12-24-16/h1-12H,13-14H2

>  <IUPAC Name>  (1) 
2-[5-benzylsulfanyl-4-(thiophen-2-ylmethyl)-1,2,4-triazol-3-yl]pyridine

$$$$
