
     RDKit          3D

 17 16  0  0  0  0  0  0  0  0999 V2000
   -2.6159   -0.0166   -0.1585 C   0  0  0  0  0  0  0  0  0  0  0  0
   -1.1222    0.2355    0.0716 C   0  0  0  0  0  0  0  0  0  0  0  0
   -0.2851   -0.7667   -0.6659 C   0  0  0  0  0  0  0  0  0  0  0  0
    1.1689   -0.5641   -0.4738 C   0  0  0  0  0  0  0  0  0  0  0  0
    1.6280    0.4062    0.2738 C   0  0  0  0  0  0  0  0  0  0  0  0
    3.0544    0.6216    0.4748 C   0  0  0  0  0  0  0  0  0  0  0  0
    3.4844    1.5591    1.1968 O   0  0  0  0  0  0  0  0  0  0  0  0
   -2.7430   -0.6277   -1.0590 H   0  0  0  0  0  0  0  0  0  0  0  0
   -3.1783    0.9276   -0.3269 H   0  0  0  0  0  0  0  0  0  0  0  0
   -3.0512   -0.4926    0.7535 H   0  0  0  0  0  0  0  0  0  0  0  0
   -0.9517    1.2672   -0.2151 H   0  0  0  0  0  0  0  0  0  0  0  0
   -0.9164    0.1230    1.1561 H   0  0  0  0  0  0  0  0  0  0  0  0
   -0.5448   -1.8097   -0.4000 H   0  0  0  0  0  0  0  0  0  0  0  0
   -0.4825   -0.6672   -1.7533 H   0  0  0  0  0  0  0  0  0  0  0  0
    1.8285   -1.2563   -0.9810 H   0  0  0  0  0  0  0  0  0  0  0  0
    0.9286    1.0710    0.7592 H   0  0  0  0  0  0  0  0  0  0  0  0
    3.7985   -0.0102    0.0156 H   0  0  0  0  0  0  0  0  0  0  0  0
  1  2  1  0
  2  3  1  0
  3  4  1  0
  4  5  2  0
  5  6  1  0
  6  7  2  0
  1  8  1  0
  1  9  1  0
  1 10  1  0
  2 11  1  0
  2 12  1  0
  3 13  1  0
  3 14  1  0
  4 15  1  0
  5 16  1  0
  6 17  1  0
M  END
>  <Ligand ID>  (1) 
LIG0000239

>  <Ligand>  (1) 
2-Hexenal

>  <SMILES>  (1) 
CCC/C=C/C=O

>  <CID>  (1) 
5281168.0

>  <ChEMBL ID>  (1) 
nan

>  <InChiKey>  (1) 
MBDOYVRWFFCFHM-SNAWJCMRSA-N

>  <InChi>  (1) 
InChI=1S/C6H10O/c1-2-3-4-5-6-7/h4-6H,2-3H2,1H3/b5-4+

>  <IUPAC Name>  (1) 
(E)-hex-2-enal

$$$$
