
     RDKit          3D

 56 59  0  0  0  0  0  0  0  0999 V2000
    4.9285   -1.5996   -1.2354 O   0  0  0  0  0  0  0  0  0  0  0  0
    3.9399   -0.9837   -0.4632 C   0  0  0  0  0  0  0  0  0  0  0  0
    4.3556    0.4357   -0.1601 C   0  0  0  0  0  0  0  0  0  0  0  0
    4.9037    1.1994   -1.1976 C   0  0  0  0  0  0  0  0  0  0  0  0
    5.2951    2.5040   -0.9730 C   0  0  0  0  0  0  0  0  0  0  0  0
    5.1480    3.0760    0.2934 C   0  0  0  0  0  0  0  0  0  0  0  0
    4.5986    2.2839    1.3003 C   0  0  0  0  0  0  0  0  0  0  0  0
    4.2051    0.9866    1.0928 C   0  0  0  0  0  0  0  0  0  0  0  0
    2.6369   -0.8586   -1.2091 C   0  0  0  0  0  0  0  0  0  0  0  0
    1.6374   -0.2387   -0.4110 N   0  0  0  0  0  0  0  0  0  0  0  0
    1.1740   -1.0376    0.6935 C   0  0  0  0  0  0  0  0  0  0  0  0
    0.2596   -0.1678    1.5606 C   0  0  0  0  0  0  0  0  0  0  0  0
   -0.8189    0.2742    0.7738 N   0  0  0  0  0  0  0  0  0  0  0  0
   -0.3247    1.1014   -0.2460 C   0  0  0  0  0  0  0  0  0  0  0  0
    0.4930    0.2218   -1.1706 C   0  0  0  0  0  0  0  0  0  0  0  0
   -2.1286   -0.0178    1.0394 C   0  0  0  0  0  0  0  0  0  0  0  0
   -3.1202    0.7913    0.2256 C   0  0  0  0  0  0  0  0  0  0  0  0
   -3.0749    0.8137   -1.1515 C   0  0  0  0  0  0  0  0  0  0  0  0
   -3.9798    1.5646   -1.8719 C   0  0  0  0  0  0  0  0  0  0  0  0
   -4.9605    2.3184   -1.2480 C   0  0  0  0  0  0  0  0  0  0  0  0
   -5.0133    2.3014    0.1296 C   0  0  0  0  0  0  0  0  0  0  0  0
   -4.1030    1.5469    0.8438 C   0  0  0  0  0  0  0  0  0  0  0  0
   -2.5829   -1.4537    0.9731 C   0  0  0  0  0  0  0  0  0  0  0  0
   -1.9081   -2.5109    1.4966 C   0  0  0  0  0  0  0  0  0  0  0  0
   -2.3962   -3.8187    1.3998 C   0  0  0  0  0  0  0  0  0  0  0  0
   -3.5892   -4.0863    0.7650 C   0  0  0  0  0  0  0  0  0  0  0  0
   -4.2853   -3.0259    0.2292 C   0  0  0  0  0  0  0  0  0  0  0  0
   -3.7934   -1.7448    0.3316 C   0  0  0  0  0  0  0  0  0  0  0  0
    5.8293   -1.2339   -0.9561 H   0  0  0  0  0  0  0  0  0  0  0  0
    3.7769   -1.5047    0.4908 H   0  0  0  0  0  0  0  0  0  0  0  0
    5.0182    0.7448   -2.1952 H   0  0  0  0  0  0  0  0  0  0  0  0
    5.7215    3.1272   -1.7419 H   0  0  0  0  0  0  0  0  0  0  0  0
    5.4565    4.1019    0.4695 H   0  0  0  0  0  0  0  0  0  0  0  0
    4.5077    2.7866    2.2767 H   0  0  0  0  0  0  0  0  0  0  0  0
    3.7831    0.4023    1.8975 H   0  0  0  0  0  0  0  0  0  0  0  0
    2.3632   -1.8956   -1.5427 H   0  0  0  0  0  0  0  0  0  0  0  0
    2.8422   -0.2033   -2.0883 H   0  0  0  0  0  0  0  0  0  0  0  0
    1.9520   -1.5140    1.2951 H   0  0  0  0  0  0  0  0  0  0  0  0
    0.6023   -1.8703    0.2245 H   0  0  0  0  0  0  0  0  0  0  0  0
    0.9143    0.7720    1.7132 H   0  0  0  0  0  0  0  0  0  0  0  0
    0.1098   -0.5121    2.5654 H   0  0  0  0  0  0  0  0  0  0  0  0
    0.4833    1.7258    0.2637 H   0  0  0  0  0  0  0  0  0  0  0  0
   -0.9330    1.8533   -0.7101 H   0  0  0  0  0  0  0  0  0  0  0  0
   -0.1067   -0.6183   -1.5713 H   0  0  0  0  0  0  0  0  0  0  0  0
    0.8443    0.8579   -2.0130 H   0  0  0  0  0  0  0  0  0  0  0  0
   -2.3369    0.2750    2.0867 H   0  0  0  0  0  0  0  0  0  0  0  0
   -2.3420    0.2425   -1.7066 H   0  0  0  0  0  0  0  0  0  0  0  0
   -3.9684    1.6014   -2.9685 H   0  0  0  0  0  0  0  0  0  0  0  0
   -5.6668    2.9036   -1.7868 H   0  0  0  0  0  0  0  0  0  0  0  0
   -5.7503    2.8644    0.6844 H   0  0  0  0  0  0  0  0  0  0  0  0
   -4.1673    1.5503    1.9450 H   0  0  0  0  0  0  0  0  0  0  0  0
   -0.9755   -2.4090    2.0091 H   0  0  0  0  0  0  0  0  0  0  0  0
   -1.8546   -4.6462    1.8173 H   0  0  0  0  0  0  0  0  0  0  0  0
   -3.9953   -5.0830    0.6714 H   0  0  0  0  0  0  0  0  0  0  0  0
   -5.2039   -3.2306   -0.2597 H   0  0  0  0  0  0  0  0  0  0  0  0
   -4.4001   -0.9631   -0.1122 H   0  0  0  0  0  0  0  0  0  0  0  0
  1  2  1  0
  2  3  1  0
  3  4  2  0
  4  5  1  0
  5  6  2  0
  6  7  1  0
  7  8  2  0
  2  9  1  0
  9 10  1  0
 10 11  1  0
 11 12  1  0
 12 13  1  0
 13 14  1  0
 14 15  1  0
 13 16  1  0
 16 17  1  0
 17 18  2  0
 18 19  1  0
 19 20  2  0
 20 21  1  0
 21 22  2  0
 16 23  1  0
 23 24  2  0
 24 25  1  0
 25 26  2  0
 26 27  1  0
 27 28  2  0
  8  3  1  0
 15 10  1  0
 22 17  1  0
 28 23  1  0
  1 29  1  0
  2 30  1  0
  4 31  1  0
  5 32  1  0
  6 33  1  0
  7 34  1  0
  8 35  1  0
  9 36  1  0
  9 37  1  0
 11 38  1  0
 11 39  1  0
 12 40  1  0
 12 41  1  0
 14 42  1  0
 14 43  1  0
 15 44  1  0
 15 45  1  0
 16 46  1  0
 18 47  1  0
 19 48  1  0
 20 49  1  0
 21 50  1  0
 22 51  1  0
 24 52  1  0
 25 53  1  0
 26 54  1  0
 27 55  1  0
 28 56  1  0
M  END
>  <Ligand ID>  (1) 
LIG0003155

>  <Ligand>  (1) 
MLS001181737

>  <SMILES>  (1) 
OC(c1ccccc1)CN1CCN(CC1)C(c1ccccc1)c1ccccc1

>  <CID>  (1) 
2809776.0

>  <ChEMBL ID>  (1) 
nan

>  <InChiKey>  (1) 
QCVZMJCLXHNXEV-UHFFFAOYSA-N

>  <InChi>  (1) 
InChI=1S/C25H28N2O/c28-24(21-10-4-1-5-11-21)20-26-16-18-27(19-17-26)25(22-12-6-2-7-13-22)23-14-8-3-9-15-23/h1-15,24-25,28H,16-20H2

>  <IUPAC Name>  (1) 
2-(4-benzhydrylpiperazin-1-yl)-1-phenylethanol

$$$$
