
     RDKit          3D

 44 48  0  0  0  0  0  0  0  0999 V2000
   -2.8042    1.5539    1.9481 O   0  0  0  0  0  0  0  0  0  0  0  0
   -3.0544    0.9587    0.8651 C   0  0  0  0  0  0  0  0  0  0  0  0
   -4.3046    0.7932    0.1810 C   0  0  2  0  0  0  0  0  0  0  0  0
   -5.6284    0.6971    0.7141 C   0  0  2  0  0  0  0  0  0  0  0  0
   -6.0008   -0.5542    1.4411 C   0  0  0  0  0  0  0  0  0  0  0  0
   -6.1940   -1.5448    0.5338 C   0  0  0  0  0  0  0  0  0  0  0  0
   -5.3968   -1.0299   -0.6620 C   0  0  2  0  0  0  0  0  0  0  0  0
   -4.1252   -0.7308   -0.0799 C   0  0  1  0  0  0  0  0  0  0  0  0
   -2.8544   -0.5930   -0.7637 C   0  0  0  0  0  0  0  0  0  0  0  0
   -2.4415   -1.0969   -1.8504 O   0  0  0  0  0  0  0  0  0  0  0  0
   -2.0570    0.2841    0.0532 N   0  0  0  0  0  0  0  0  0  0  0  0
   -0.6509    0.4571    0.0721 C   0  0  0  0  0  0  0  0  0  0  0  0
    0.0613   -0.3604    0.9432 C   0  0  0  0  0  0  0  0  0  0  0  0
    1.4352   -0.2831    1.0489 C   0  0  0  0  0  0  0  0  0  0  0  0
    2.0948    0.6531    0.2440 C   0  0  0  0  0  0  0  0  0  0  0  0
    1.4088    1.4740   -0.6270 C   0  0  0  0  0  0  0  0  0  0  0  0
    0.0169    1.3740   -0.7135 C   0  0  0  0  0  0  0  0  0  0  0  0
   -0.9000    2.3929   -1.8030 Cl  0  0  0  0  0  0  0  0  0  0  0  0
    3.5129    0.6910    0.3929 N   0  0  0  0  0  0  0  0  0  0  0  0
    4.2607   -0.1806   -0.4747 C   0  0  0  0  0  0  0  0  0  0  0  0
    3.6630   -0.9236   -1.3089 O   0  0  0  0  0  0  0  0  0  0  0  0
    5.7337   -0.1861   -0.3676 C   0  0  0  0  0  0  0  0  0  0  0  0
    6.4385   -1.0258   -1.2046 C   0  0  0  0  0  0  0  0  0  0  0  0
    7.8127   -1.0821   -1.1589 C   0  0  0  0  0  0  0  0  0  0  0  0
    8.4475   -0.2664   -0.2448 C   0  0  0  0  0  0  0  0  0  0  0  0
    7.7070    0.5571    0.5722 C   0  0  0  0  0  0  0  0  0  0  0  0
    6.3541    0.6116    0.5263 N   0  0  0  0  0  0  0  0  0  0  0  0
   -6.2268    0.2798   -0.6638 C   0  0  0  0  0  0  0  0  0  0  0  0
   -4.2088    1.3151   -0.8113 H   0  0  0  0  0  0  0  0  0  0  0  0
   -6.1300    1.5860    1.1041 H   0  0  0  0  0  0  0  0  0  0  0  0
   -6.1128   -0.7010    2.5235 H   0  0  0  0  0  0  0  0  0  0  0  0
   -6.7505   -2.4454    0.6201 H   0  0  0  0  0  0  0  0  0  0  0  0
   -5.5305   -1.6115   -1.5530 H   0  0  0  0  0  0  0  0  0  0  0  0
   -3.8717   -1.1660    0.9295 H   0  0  0  0  0  0  0  0  0  0  0  0
   -0.4404   -1.0862    1.5686 H   0  0  0  0  0  0  0  0  0  0  0  0
    1.9793   -0.9258    1.7317 H   0  0  0  0  0  0  0  0  0  0  0  0
    1.9510    2.1856   -1.2336 H   0  0  0  0  0  0  0  0  0  0  0  0
    4.0054    1.3011    1.0780 H   0  0  0  0  0  0  0  0  0  0  0  0
    5.9280   -1.6629   -1.9196 H   0  0  0  0  0  0  0  0  0  0  0  0
    8.3831   -1.7363   -1.8093 H   0  0  0  0  0  0  0  0  0  0  0  0
    9.5195   -0.2508   -0.1461 H   0  0  0  0  0  0  0  0  0  0  0  0
    8.1661    1.2194    1.3101 H   0  0  0  0  0  0  0  0  0  0  0  0
   -5.9022    0.9622   -1.4567 H   0  0  0  0  0  0  0  0  0  0  0  0
   -7.2936    0.0968   -0.6035 H   0  0  0  0  0  0  0  0  0  0  0  0
  1  2  2  0
  2  3  1  0
  3  4  1  0
  4  5  1  0
  5  6  2  0
  6  7  1  0
  7  8  1  0
  8  9  1  0
  9 10  2  0
  9 11  1  0
 11 12  1  0
 12 13  2  0
 13 14  1  0
 14 15  2  0
 15 16  1  0
 16 17  2  0
 17 18  1  0
 15 19  1  0
 19 20  1  0
 20 21  2  0
 20 22  1  0
 22 23  2  0
 23 24  1  0
 24 25  2  0
 25 26  1  0
 26 27  2  0
  7 28  1  0
 11  2  1  0
 17 12  1  0
 27 22  1  0
  8  3  1  0
 28  4  1  0
  3 29  1  6
  4 30  1  1
  5 31  1  0
  6 32  1  0
  7 33  1  6
  8 34  1  1
 13 35  1  0
 14 36  1  0
 16 37  1  0
 19 38  1  0
 23 39  1  0
 24 40  1  0
 25 41  1  0
 26 42  1  0
 28 43  1  0
 28 44  1  0
M  END
>  <Ligand ID>  (1) 
LIG0000492

>  <Ligand>  (1) 
CHEMBL2373733

>  <SMILES>  (1) 
O=C1[C@@H]2[C@@H]3C=C[C@H]([C@H]2C(=O)N1c1ccc(cc1Cl)NC(=O)c1ccccn1)C3

>  <CID>  (1) 
90661779.0

>  <ChEMBL ID>  (1) 
nan

>  <InChiKey>  (1) 
LJUABYFUJVRUSJ-FVEFGIFQSA-N

>  <InChi>  (1) 
InChI=1S/C21H16ClN3O3/c22-14-10-13(24-19(26)15-3-1-2-8-23-15)6-7-16(14)25-20(27)17-11-4-5-12(9-11)18(17)21(25)28/h1-8,10-12,17-18H,9H2,(H,24,26)/t11-,12+,17-,18-/m1/s1

>  <IUPAC Name>  (1) 
N-[3-chloro-4-[(1S,2R,6R,7R)-3,5-dioxo-4-azatricyclo[5.2.1.02,6]dec-8-en-4-yl]phenyl]pyridine-2-carboxamide

$$$$
