
     RDKit          3D

 57 58  0  0  0  0  0  0  0  0999 V2000
   -6.7615    2.5256    1.1703 C   0  0  0  0  0  0  0  0  0  0  0  0
   -6.9769    1.2220    0.4552 C   0  0  0  0  0  0  0  0  0  0  0  0
   -5.7034    0.5915   -0.0105 C   0  0  0  0  0  0  0  0  0  0  0  0
   -4.7612    0.2856    1.0659 C   0  0  0  0  0  0  0  0  0  0  0  0
   -4.9651    0.5204    2.2924 O   0  0  0  0  0  0  0  0  0  0  0  0
   -3.4858   -0.3349    0.7354 C   0  0  0  0  0  0  0  0  0  0  0  0
   -3.1507   -0.6384   -0.5657 C   0  0  0  0  0  0  0  0  0  0  0  0
   -1.9535   -1.2246   -0.9104 C   0  0  0  0  0  0  0  0  0  0  0  0
   -1.0228   -1.5343    0.0837 C   0  0  0  0  0  0  0  0  0  0  0  0
   -1.3419   -1.2371    1.3937 C   0  0  0  0  0  0  0  0  0  0  0  0
   -2.5578   -0.6447    1.7179 C   0  0  0  0  0  0  0  0  0  0  0  0
   -2.8725   -0.3459    3.0595 O   0  0  0  0  0  0  0  0  0  0  0  0
   -0.3788   -1.5495    2.4956 C   0  0  0  0  0  0  0  0  0  0  0  0
    0.2052   -2.1339   -0.2570 O   0  0  0  0  0  0  0  0  0  0  0  0
    0.4536   -2.4074   -1.6357 C   0  0  0  0  0  0  0  0  0  0  0  0
    1.7885   -3.0401   -1.8522 C   0  0  0  0  0  0  0  0  0  0  0  0
    2.9335   -2.2015   -1.3852 C   0  0  0  0  0  0  0  0  0  0  0  0
    3.0155   -0.8437   -2.0903 C   0  0  0  0  0  0  0  0  0  0  0  0
    4.0207   -0.1515   -1.6716 O   0  0  0  0  0  0  0  0  0  0  0  0
    4.9963    0.5449   -1.2791 C   0  0  0  0  0  0  0  0  0  0  0  0
    5.9006    0.1038   -0.3048 C   0  0  0  0  0  0  0  0  0  0  0  0
    6.9616    0.8479    0.1294 C   0  0  0  0  0  0  0  0  0  0  0  0
    7.1551    2.0866   -0.4110 C   0  0  0  0  0  0  0  0  0  0  0  0
    6.3098    2.5917   -1.3737 C   0  0  0  0  0  0  0  0  0  0  0  0
    5.2701    1.8222   -1.7768 C   0  0  0  0  0  0  0  0  0  0  0  0
    8.2741    2.8967    0.0318 C   0  0  0  0  0  0  0  0  0  0  0  0
    8.4871    4.0432   -0.4397 O   0  0  0  0  0  0  0  0  0  0  0  0
    9.1535    2.4328    0.9959 O   0  0  0  0  0  0  0  0  0  0  0  0
   -7.6810    0.2703    1.3908 C   0  0  0  0  0  0  0  0  0  0  0  0
   -5.8546    3.0659    0.8680 H   0  0  0  0  0  0  0  0  0  0  0  0
   -6.8134    2.3679    2.2814 H   0  0  0  0  0  0  0  0  0  0  0  0
   -7.6390    3.1752    0.9514 H   0  0  0  0  0  0  0  0  0  0  0  0
   -7.6004    1.3876   -0.4661 H   0  0  0  0  0  0  0  0  0  0  0  0
   -5.9674   -0.3146   -0.5798 H   0  0  0  0  0  0  0  0  0  0  0  0
   -5.1600    1.2461   -0.7345 H   0  0  0  0  0  0  0  0  0  0  0  0
   -3.8505   -0.4120   -1.3681 H   0  0  0  0  0  0  0  0  0  0  0  0
   -1.7356   -1.4443   -1.9519 H   0  0  0  0  0  0  0  0  0  0  0  0
   -2.8371    0.6671    3.2495 H   0  0  0  0  0  0  0  0  0  0  0  0
   -0.5695   -2.5255    2.9597 H   0  0  0  0  0  0  0  0  0  0  0  0
    0.6574   -1.5844    2.0821 H   0  0  0  0  0  0  0  0  0  0  0  0
   -0.3614   -0.7143    3.2342 H   0  0  0  0  0  0  0  0  0  0  0  0
    0.4164   -1.4520   -2.1916 H   0  0  0  0  0  0  0  0  0  0  0  0
   -0.3856   -3.0704   -2.0080 H   0  0  0  0  0  0  0  0  0  0  0  0
    1.8047   -3.9707   -1.2155 H   0  0  0  0  0  0  0  0  0  0  0  0
    1.8919   -3.3232   -2.9167 H   0  0  0  0  0  0  0  0  0  0  0  0
    3.8811   -2.7127   -1.6606 H   0  0  0  0  0  0  0  0  0  0  0  0
    2.9010   -2.0300   -0.3093 H   0  0  0  0  0  0  0  0  0  0  0  0
    3.0049   -1.0289   -3.2107 H   0  0  0  0  0  0  0  0  0  0  0  0
    2.0369   -0.2954   -1.9330 H   0  0  0  0  0  0  0  0  0  0  0  0
    5.7363   -0.8787    0.1146 H   0  0  0  0  0  0  0  0  0  0  0  0
    7.6331    0.4678    0.8824 H   0  0  0  0  0  0  0  0  0  0  0  0
    6.4949    3.5607   -1.7692 H   0  0  0  0  0  0  0  0  0  0  0  0
    4.5978    2.2053   -2.5328 H   0  0  0  0  0  0  0  0  0  0  0  0
    9.9295    2.9942    1.3451 H   0  0  0  0  0  0  0  0  0  0  0  0
   -6.9694   -0.5175    1.6972 H   0  0  0  0  0  0  0  0  0  0  0  0
   -8.5783   -0.1640    0.8965 H   0  0  0  0  0  0  0  0  0  0  0  0
   -7.9760    0.8034    2.3228 H   0  0  0  0  0  0  0  0  0  0  0  0
  1  2  1  0
  2  3  1  0
  3  4  1  0
  4  5  2  0
  4  6  1  0
  6  7  2  0
  7  8  1  0
  8  9  2  0
  9 10  1  0
 10 11  2  0
 11 12  1  0
 10 13  1  0
  9 14  1  0
 14 15  1  0
 15 16  1  0
 16 17  1  0
 17 18  1  0
 18 19  1  0
 19 20  1  0
 20 21  2  0
 21 22  1  0
 22 23  2  0
 23 24  1  0
 24 25  2  0
 23 26  1  0
 26 27  2  0
 26 28  1  0
  2 29  1  0
 11  6  1  0
 25 20  1  0
  1 30  1  0
  1 31  1  0
  1 32  1  0
  2 33  1  0
  3 34  1  0
  3 35  1  0
  7 36  1  0
  8 37  1  0
 12 38  1  0
 13 39  1  0
 13 40  1  0
 13 41  1  0
 15 42  1  0
 15 43  1  0
 16 44  1  0
 16 45  1  0
 17 46  1  0
 17 47  1  0
 18 48  1  0
 18 49  1  0
 21 50  1  0
 22 51  1  0
 24 52  1  0
 25 53  1  0
 28 54  1  0
 29 55  1  0
 29 56  1  0
 29 57  1  0
M  END
>  <Ligand ID>  (1) 
LIG0003645

>  <Ligand>  (1) 
CHEMBL3287671

>  <SMILES>  (1) 
CC(CC(=O)c1ccc(c(c1O)C)OCCCCOc1ccc(cc1)C(=O)O)C

>  <CID>  (1) 
56929215.0

>  <ChEMBL ID>  (1) 
nan

>  <InChiKey>  (1) 
ULWCVJYRXWBACL-UHFFFAOYSA-N

>  <InChi>  (1) 
InChI=1S/C23H28O6/c1-15(2)14-20(24)19-10-11-21(16(3)22(19)25)29-13-5-4-12-28-18-8-6-17(7-9-18)23(26)27/h6-11,15,25H,4-5,12-14H2,1-3H3,(H,26,27)

>  <IUPAC Name>  (1) 
4-[4-[3-hydroxy-2-methyl-4-(3-methylbutanoyl)phenoxy]butoxy]benzoic acid

$$$$
