
     RDKit          3D

 34 34  0  0  0  0  0  0  0  0999 V2000
    4.6004   -1.4267    0.0101 C   0  0  0  0  0  0  0  0  0  0  0  0
    3.5298   -0.4414   -0.3961 C   0  0  0  0  0  0  0  0  0  0  0  0
    2.2570   -0.6682   -0.0599 C   0  0  0  0  0  0  0  0  0  0  0  0
    1.2814    0.3076   -0.4758 C   0  0  0  0  0  0  0  0  0  0  0  0
    1.7776    1.2919   -1.1441 O   0  0  0  0  0  0  0  0  0  0  0  0
   -0.1394    0.3328   -0.2498 C   0  0  0  0  0  0  0  0  0  0  0  0
   -0.8693    1.3559   -0.7659 C   0  0  0  0  0  0  0  0  0  0  0  0
   -0.2427    2.4492   -1.5538 C   0  0  0  0  0  0  0  0  0  0  0  0
   -2.3419    1.4219   -0.5914 C   0  0  0  0  0  0  0  0  0  0  0  0
   -2.8347    0.9618    0.7478 C   0  0  0  0  0  0  0  0  0  0  0  0
   -1.7641    0.2389    1.4984 C   0  0  0  0  0  0  0  0  0  0  0  0
   -0.9447   -0.6401    0.5120 C   0  0  0  0  0  0  0  0  0  0  0  0
   -0.2235   -1.6123    1.3728 C   0  0  0  0  0  0  0  0  0  0  0  0
   -1.8968   -1.3905   -0.4121 C   0  0  0  0  0  0  0  0  0  0  0  0
    5.4585   -1.3762   -0.6869 H   0  0  0  0  0  0  0  0  0  0  0  0
    4.1386   -2.4434   -0.1563 H   0  0  0  0  0  0  0  0  0  0  0  0
    4.8745   -1.3030    1.0752 H   0  0  0  0  0  0  0  0  0  0  0  0
    3.8754    0.4078   -0.9488 H   0  0  0  0  0  0  0  0  0  0  0  0
    2.1004   -1.5716    0.4818 H   0  0  0  0  0  0  0  0  0  0  0  0
    0.4105    3.0196   -0.8628 H   0  0  0  0  0  0  0  0  0  0  0  0
   -1.0512    3.2103   -1.8337 H   0  0  0  0  0  0  0  0  0  0  0  0
    0.2269    2.1290   -2.4905 H   0  0  0  0  0  0  0  0  0  0  0  0
   -2.6402    2.4927   -0.7724 H   0  0  0  0  0  0  0  0  0  0  0  0
   -2.7965    0.8785   -1.4432 H   0  0  0  0  0  0  0  0  0  0  0  0
   -3.0528    1.8853    1.3559 H   0  0  0  0  0  0  0  0  0  0  0  0
   -3.7990    0.4316    0.7062 H   0  0  0  0  0  0  0  0  0  0  0  0
   -2.1418   -0.3367    2.3352 H   0  0  0  0  0  0  0  0  0  0  0  0
   -1.0391    0.9848    1.8798 H   0  0  0  0  0  0  0  0  0  0  0  0
   -1.0651   -2.0557    2.0415 H   0  0  0  0  0  0  0  0  0  0  0  0
    0.5267   -1.1794    2.0293 H   0  0  0  0  0  0  0  0  0  0  0  0
    0.0660   -2.4928    0.7723 H   0  0  0  0  0  0  0  0  0  0  0  0
   -1.6178   -1.1967   -1.4657 H   0  0  0  0  0  0  0  0  0  0  0  0
   -2.9500   -1.1691   -0.2224 H   0  0  0  0  0  0  0  0  0  0  0  0
   -1.7130   -2.4960   -0.2869 H   0  0  0  0  0  0  0  0  0  0  0  0
  1  2  1  0
  2  3  2  0
  3  4  1  0
  4  5  2  0
  4  6  1  0
  6  7  2  0
  7  8  1  0
  7  9  1  0
  9 10  1  0
 10 11  1  0
 11 12  1  0
 12 13  1  0
 12 14  1  0
 12  6  1  0
  1 15  1  0
  1 16  1  0
  1 17  1  0
  2 18  1  0
  3 19  1  0
  8 20  1  0
  8 21  1  0
  8 22  1  0
  9 23  1  0
  9 24  1  0
 10 25  1  0
 10 26  1  0
 11 27  1  0
 11 28  1  0
 13 29  1  0
 13 30  1  0
 13 31  1  0
 14 32  1  0
 14 33  1  0
 14 34  1  0
M  END
>  <Ligand ID>  (1) 
LIG0000524

>  <Ligand>  (1) 
E-beta-damascone

>  <SMILES>  (1) 
C/C=C/C(=O)C1=C(C)CCCC1(C)C

>  <CID>  (1) 
5374527.0

>  <ChEMBL ID>  (1) 
nan

>  <InChiKey>  (1) 
BGTBFNDXYDYBEY-FNORWQNLSA-N

>  <InChi>  (1) 
InChI=1S/C13H20O/c1-5-7-11(14)12-10(2)8-6-9-13(12,3)4/h5,7H,6,8-9H2,1-4H3/b7-5+

>  <IUPAC Name>  (1) 
(E)-1-(2,6,6-trimethylcyclohexen-1-yl)but-2-en-1-one

$$$$
