
     RDKit          3D

 39 40  0  0  0  0  0  0  0  0999 V2000
    6.1430    1.5515    0.9679 C   0  0  0  0  0  0  0  0  0  0  0  0
    5.1109    1.2011   -0.0730 C   0  0  0  0  0  0  0  0  0  0  0  0
    3.8440    0.7121    0.5593 C   0  0  0  0  0  0  0  0  0  0  0  0
    2.8708    0.3840   -0.4936 N   0  0  0  0  0  0  0  0  0  0  0  0
    1.6109   -0.0974   -0.0228 C   0  0  0  0  0  0  0  0  0  0  0  0
    1.5158   -0.1714    1.2251 O   0  0  0  0  0  0  0  0  0  0  0  0
    0.5777   -0.4508   -0.9771 C   0  0  0  0  0  0  0  0  0  0  0  0
    0.7995   -0.2868   -2.3191 C   0  0  0  0  0  0  0  0  0  0  0  0
   -0.1565   -0.5970   -3.2943 C   0  0  0  0  0  0  0  0  0  0  0  0
   -1.3807   -1.0897   -2.9137 C   0  0  0  0  0  0  0  0  0  0  0  0
   -1.5985   -1.2527   -1.5662 C   0  0  0  0  0  0  0  0  0  0  0  0
   -0.6582   -0.9486   -0.5946 C   0  0  0  0  0  0  0  0  0  0  0  0
   -1.0169   -1.2137    0.7454 N   0  0  0  0  0  0  0  0  0  0  0  0
   -2.3147   -1.7108    1.1601 C   0  0  0  0  0  0  0  0  0  0  0  0
   -3.3797   -0.6897    1.2361 C   0  0  0  0  0  0  0  0  0  0  0  0
   -4.0667   -0.5137    2.3418 N   0  0  0  0  0  0  0  0  0  0  0  0
   -5.0488    0.5131    2.2219 C   0  0  0  0  0  0  0  0  0  0  0  0
   -5.2078    0.6815    0.7110 C   0  0  0  0  0  0  0  0  0  0  0  0
   -3.8802    0.2329    0.2996 N   0  0  0  0  0  0  0  0  0  0  0  0
    6.4142    2.6251    0.8183 H   0  0  0  0  0  0  0  0  0  0  0  0
    5.6924    1.4273    1.9545 H   0  0  0  0  0  0  0  0  0  0  0  0
    7.0330    0.8979    0.8619 H   0  0  0  0  0  0  0  0  0  0  0  0
    5.4822    0.3621   -0.7171 H   0  0  0  0  0  0  0  0  0  0  0  0
    4.8628    2.0543   -0.7172 H   0  0  0  0  0  0  0  0  0  0  0  0
    3.3989    1.4303    1.2718 H   0  0  0  0  0  0  0  0  0  0  0  0
    4.0139   -0.2431    1.1069 H   0  0  0  0  0  0  0  0  0  0  0  0
    3.1371    0.5122   -1.4733 H   0  0  0  0  0  0  0  0  0  0  0  0
    1.7309    0.0967   -2.7438 H   0  0  0  0  0  0  0  0  0  0  0  0
    0.0282   -0.4645   -4.3435 H   0  0  0  0  0  0  0  0  0  0  0  0
   -2.1266   -1.3325   -3.6598 H   0  0  0  0  0  0  0  0  0  0  0  0
   -2.5937   -1.6494   -1.3052 H   0  0  0  0  0  0  0  0  0  0  0  0
   -0.3497   -1.0686    1.5667 H   0  0  0  0  0  0  0  0  0  0  0  0
   -2.6653   -2.5462    0.4807 H   0  0  0  0  0  0  0  0  0  0  0  0
   -2.2225   -2.2559    2.1478 H   0  0  0  0  0  0  0  0  0  0  0  0
   -6.0050    0.1436    2.6444 H   0  0  0  0  0  0  0  0  0  0  0  0
   -4.7862    1.4721    2.7129 H   0  0  0  0  0  0  0  0  0  0  0  0
   -5.4142    1.7276    0.4177 H   0  0  0  0  0  0  0  0  0  0  0  0
   -5.9704   -0.0187    0.3130 H   0  0  0  0  0  0  0  0  0  0  0  0
   -3.4243    0.5757   -0.5504 H   0  0  0  0  0  0  0  0  0  0  0  0
  1  2  1  0
  2  3  1  0
  3  4  1  0
  4  5  1  0
  5  6  2  0
  5  7  1  0
  7  8  2  0
  8  9  1  0
  9 10  2  0
 10 11  1  0
 11 12  2  0
 12 13  1  0
 13 14  1  0
 14 15  1  0
 15 16  2  0
 16 17  1  0
 17 18  1  0
 18 19  1  0
 12  7  1  0
 19 15  1  0
  1 20  1  0
  1 21  1  0
  1 22  1  0
  2 23  1  0
  2 24  1  0
  3 25  1  0
  3 26  1  0
  4 27  1  0
  8 28  1  0
  9 29  1  0
 10 30  1  0
 11 31  1  0
 13 32  1  0
 14 33  1  0
 14 34  1  0
 17 35  1  0
 17 36  1  0
 18 37  1  0
 18 38  1  0
 19 39  1  0
M  END
>  <Ligand ID>  (1) 
LIG0004352

>  <Ligand>  (1) 
CHEMBL318544

>  <SMILES>  (1) 
CCCNC(=O)c1ccccc1NCC1=NCCN1

>  <CID>  (1) 
9795167.0

>  <ChEMBL ID>  (1) 
nan

>  <InChiKey>  (1) 
CGRLAWJJBVDUOY-UHFFFAOYSA-N

>  <InChi>  (1) 
InChI=1S/C14H20N4O/c1-2-7-17-14(19)11-5-3-4-6-12(11)18-10-13-15-8-9-16-13/h3-6,18H,2,7-10H2,1H3,(H,15,16)(H,17,19)

>  <IUPAC Name>  (1) 
2-(4,5-dihydro-1H-imidazol-2-ylmethylamino)-N-propylbenzamide

$$$$
