
     RDKit          3D

120123  0  0  0  0  0  0  0  0999 V2000
    6.7972   -3.7806   -1.8101 C   0  0  0  0  0  0  0  0  0  0  0  0
    7.8051   -3.2178   -0.8421 C   0  0  0  0  0  0  0  0  0  0  0  0
    7.3913   -2.0501   -0.0638 C   0  0  0  0  0  0  0  0  0  0  0  0
    6.3524   -2.0001    0.9253 C   0  0  0  0  0  0  0  0  0  0  0  0
    4.9612   -2.3111    0.8622 C   0  0  2  0  0  0  0  0  0  0  0  0
    4.5362   -3.6493    0.5889 N   0  0  0  0  0  0  0  0  0  0  0  0
    3.2093   -4.0242    1.0679 C   0  0  0  0  0  0  0  0  0  0  0  0
    2.5874   -3.1004    1.6051 O   0  0  0  0  0  0  0  0  0  0  0  0
    2.6524   -5.3896    0.9166 C   0  0  0  0  0  0  0  0  0  0  0  0
    1.1402   -5.2233    1.0481 C   0  0  0  0  0  0  0  0  0  0  0  0
    0.6479   -4.3882   -0.0662 C   0  0  2  0  0  0  0  0  0  0  0  0
   -0.7827   -4.0035    0.0405 N   0  0  0  0  0  0  0  0  0  0  0  0
   -1.1083   -2.6199   -0.0417 C   0  0  0  0  0  0  0  0  0  0  0  0
   -0.1396   -1.8454   -0.1025 O   0  0  0  0  0  0  0  0  0  0  0  0
   -2.4637   -2.0459   -0.0584 C   0  0  1  0  0  0  0  0  0  0  0  0
   -2.3034   -0.6016   -0.1301 N   0  0  0  0  0  0  0  0  0  0  0  0
   -3.2807    0.3558    0.2503 C   0  0  0  0  0  0  0  0  0  0  0  0
   -4.3654   -0.1085    0.6203 O   0  0  0  0  0  0  0  0  0  0  0  0
   -3.0002    1.8461    0.1906 C   0  0  1  0  0  0  0  0  0  0  0  0
   -1.5429    2.0435    0.0603 N   0  0  0  0  0  0  0  0  0  0  0  0
   -0.8512    2.9180    0.9861 C   0  0  0  0  0  0  0  0  0  0  0  0
   -1.6172    3.5421    1.7348 O   0  0  0  0  0  0  0  0  0  0  0  0
    0.5835    3.0981    1.0797 C   0  0  2  0  0  0  0  0  0  0  0  0
    1.3219    2.2677    0.1531 N   0  0  0  0  0  0  0  0  0  0  0  0
    2.5544    1.6292    0.3358 C   0  0  0  0  0  0  0  0  0  0  0  0
    3.1341    1.7029    1.4017 O   0  0  0  0  0  0  0  0  0  0  0  0
    3.2390    0.8054   -0.7475 C   0  0  2  0  0  0  0  0  0  0  0  0
    4.2092    0.0076    0.0408 N   0  0  0  0  0  0  0  0  0  0  0  0
    4.1076   -1.4349    0.0014 C   0  0  0  0  0  0  0  0  0  0  0  0
    3.2619   -1.8534   -0.7996 O   0  0  0  0  0  0  0  0  0  0  0  0
    3.9089    1.7891   -1.6463 C   0  0  0  0  0  0  0  0  0  0  0  0
    4.9248    2.5697   -0.8196 C   0  0  0  0  0  0  0  0  0  0  0  0
    5.6435    3.5924   -1.6393 C   0  0  0  0  0  0  0  0  0  0  0  0
    5.3020    3.8854   -2.8148 O   0  0  0  0  0  0  0  0  0  0  0  0
    6.7605    4.2278   -0.9950 N   0  0  0  0  0  0  0  0  0  0  0  0
    1.0554    2.8275    2.5382 C   0  0  0  0  0  0  0  0  0  0  0  0
    0.3814    3.7005    3.5129 C   0  0  0  0  0  0  0  0  0  0  0  0
   -0.7324    3.3310    4.2505 C   0  0  0  0  0  0  0  0  0  0  0  0
   -1.3047    4.2343    5.1307 C   0  0  0  0  0  0  0  0  0  0  0  0
   -0.8228    5.5078    5.3222 C   0  0  0  0  0  0  0  0  0  0  0  0
    0.2853    5.8770    4.5896 C   0  0  0  0  0  0  0  0  0  0  0  0
    0.8603    4.9838    3.7119 C   0  0  0  0  0  0  0  0  0  0  0  0
   -3.5520    2.2632   -1.1554 C   0  0  0  0  0  0  0  0  0  0  0  0
   -3.4210    3.7058   -1.4775 C   0  0  0  0  0  0  0  0  0  0  0  0
   -4.1259    4.6303   -0.5390 C   0  0  0  0  0  0  0  0  0  0  0  0
   -5.5414    4.3624   -0.5037 N   0  0  0  0  0  0  0  0  0  0  0  0
   -6.3611    4.5291   -1.4795 C   0  0  0  0  0  0  0  0  0  0  0  0
   -7.7430    4.2001   -1.2339 N   0  0  0  0  0  0  0  0  0  0  0  0
   -5.9971    5.0102   -2.7619 N   0  0  0  0  0  0  0  0  0  0  0  0
   -3.0506   -2.5467   -1.3970 C   0  0  0  0  0  0  0  0  0  0  0  0
   -4.4260   -2.0949   -1.6172 C   0  0  0  0  0  0  0  0  0  0  0  0
   -4.9543   -1.0974   -2.4068 C   0  0  0  0  0  0  0  0  0  0  0  0
   -6.2859   -1.0943   -2.2382 N   0  0  0  0  0  0  0  0  0  0  0  0
   -6.6726   -2.0452   -1.3713 C   0  0  0  0  0  0  0  0  0  0  0  0
   -5.5190   -2.6883   -0.9668 C   0  0  0  0  0  0  0  0  0  0  0  0
   -5.5823   -3.7467   -0.0534 C   0  0  0  0  0  0  0  0  0  0  0  0
   -6.7883   -4.1758    0.4657 C   0  0  0  0  0  0  0  0  0  0  0  0
   -7.9429   -3.5130    0.0445 C   0  0  0  0  0  0  0  0  0  0  0  0
   -7.8980   -2.4670   -0.8553 C   0  0  0  0  0  0  0  0  0  0  0  0
    0.7719   -5.1605   -1.3624 C   0  0  0  0  0  0  0  0  0  0  0  0
    1.8455   -5.5637   -1.8382 O   0  0  0  0  0  0  0  0  0  0  0  0
   -0.4104   -5.4692   -2.1249 N   0  0  0  0  0  0  0  0  0  0  0  0
    7.1412   -3.7783   -2.8702 H   0  0  0  0  0  0  0  0  0  0  0  0
    5.8560   -3.1954   -1.8002 H   0  0  0  0  0  0  0  0  0  0  0  0
    6.5861   -4.8699   -1.5973 H   0  0  0  0  0  0  0  0  0  0  0  0
    8.2657   -4.0404   -0.2187 H   0  0  0  0  0  0  0  0  0  0  0  0
    8.6863   -2.9357   -1.5050 H   0  0  0  0  0  0  0  0  0  0  0  0
    8.3513   -1.7365    0.5092 H   0  0  0  0  0  0  0  0  0  0  0  0
    7.3701   -1.1783   -0.8040 H   0  0  0  0  0  0  0  0  0  0  0  0
    6.4564   -0.9414    1.4096 H   0  0  0  0  0  0  0  0  0  0  0  0
    6.7688   -2.6036    1.8384 H   0  0  0  0  0  0  0  0  0  0  0  0
    4.5130   -2.0753    1.9035 H   0  0  0  0  0  0  0  0  0  0  0  0
    5.0048   -4.4090    0.1205 H   0  0  0  0  0  0  0  0  0  0  0  0
    2.9728   -5.9844    1.8358 H   0  0  0  0  0  0  0  0  0  0  0  0
    2.8971   -5.9131    0.0121 H   0  0  0  0  0  0  0  0  0  0  0  0
    0.8747   -4.8478    2.0565 H   0  0  0  0  0  0  0  0  0  0  0  0
    0.6576   -6.2321    0.9474 H   0  0  0  0  0  0  0  0  0  0  0  0
    1.2505   -3.5051   -0.1970 H   0  0  0  0  0  0  0  0  0  0  0  0
   -1.5460   -4.6447    0.1691 H   0  0  0  0  0  0  0  0  0  0  0  0
   -3.1569   -2.3459    0.7296 H   0  0  0  0  0  0  0  0  0  0  0  0
   -1.4285   -0.2334   -0.4838 H   0  0  0  0  0  0  0  0  0  0  0  0
   -3.3778    2.3918    1.0412 H   0  0  0  0  0  0  0  0  0  0  0  0
   -0.9590    1.6283   -0.6441 H   0  0  0  0  0  0  0  0  0  0  0  0
    0.9121    4.1363    0.9503 H   0  0  0  0  0  0  0  0  0  0  0  0
    0.9018    2.1281   -0.7844 H   0  0  0  0  0  0  0  0  0  0  0  0
    2.5391    0.1863   -1.2991 H   0  0  0  0  0  0  0  0  0  0  0  0
    4.9451    0.3745    0.6121 H   0  0  0  0  0  0  0  0  0  0  0  0
    3.1663    2.5653   -1.9747 H   0  0  0  0  0  0  0  0  0  0  0  0
    4.3632    1.3449   -2.5377 H   0  0  0  0  0  0  0  0  0  0  0  0
    4.4075    3.1082   -0.0021 H   0  0  0  0  0  0  0  0  0  0  0  0
    5.7373    1.8986   -0.4375 H   0  0  0  0  0  0  0  0  0  0  0  0
    6.7289    4.5806   -0.0203 H   0  0  0  0  0  0  0  0  0  0  0  0
    7.6225    4.3006   -1.6124 H   0  0  0  0  0  0  0  0  0  0  0  0
    2.1466    3.1045    2.5874 H   0  0  0  0  0  0  0  0  0  0  0  0
    0.9667    1.7609    2.6957 H   0  0  0  0  0  0  0  0  0  0  0  0
   -1.1383    2.3186    4.1234 H   0  0  0  0  0  0  0  0  0  0  0  0
   -2.1666    3.9146    5.6852 H   0  0  0  0  0  0  0  0  0  0  0  0
   -1.2998    6.1791    6.0173 H   0  0  0  0  0  0  0  0  0  0  0  0
    0.7229    6.8731    4.6906 H   0  0  0  0  0  0  0  0  0  0  0  0
    1.7295    5.3242    3.1608 H   0  0  0  0  0  0  0  0  0  0  0  0
   -4.6313    1.9883   -1.1904 H   0  0  0  0  0  0  0  0  0  0  0  0
   -2.9891    1.6942   -1.9399 H   0  0  0  0  0  0  0  0  0  0  0  0
   -3.9012    3.8436   -2.4843 H   0  0  0  0  0  0  0  0  0  0  0  0
   -2.3581    3.9921   -1.6510 H   0  0  0  0  0  0  0  0  0  0  0  0
   -3.7717    4.6141    0.5030 H   0  0  0  0  0  0  0  0  0  0  0  0
   -3.9378    5.6744   -0.9149 H   0  0  0  0  0  0  0  0  0  0  0  0
   -8.3812    4.9660   -0.9383 H   0  0  0  0  0  0  0  0  0  0  0  0
   -8.0264    3.2050   -1.3670 H   0  0  0  0  0  0  0  0  0  0  0  0
   -6.5056    4.5864   -3.5852 H   0  0  0  0  0  0  0  0  0  0  0  0
   -5.2865    5.7313   -2.9568 H   0  0  0  0  0  0  0  0  0  0  0  0
   -2.9701   -3.6479   -1.3326 H   0  0  0  0  0  0  0  0  0  0  0  0
   -2.3222   -2.2082   -2.1581 H   0  0  0  0  0  0  0  0  0  0  0  0
   -4.3295   -0.4627   -3.0321 H   0  0  0  0  0  0  0  0  0  0  0  0
   -6.9146   -0.4252   -2.7317 H   0  0  0  0  0  0  0  0  0  0  0  0
   -4.6667   -4.2617    0.2700 H   0  0  0  0  0  0  0  0  0  0  0  0
   -6.8192   -4.9958    1.1693 H   0  0  0  0  0  0  0  0  0  0  0  0
   -8.8707   -3.8743    0.4694 H   0  0  0  0  0  0  0  0  0  0  0  0
   -8.8167   -1.9639   -1.1700 H   0  0  0  0  0  0  0  0  0  0  0  0
   -0.4949   -6.4822   -2.4078 H   0  0  0  0  0  0  0  0  0  0  0  0
   -1.1206   -4.7552   -2.3747 H   0  0  0  0  0  0  0  0  0  0  0  0
  1  2  1  0
  2  3  1  0
  3  4  1  0
  4  5  1  0
  5  6  1  0
  6  7  1  0
  7  8  2  0
  7  9  1  0
  9 10  1  0
 10 11  1  0
 11 12  1  0
 12 13  1  0
 13 14  2  0
 13 15  1  0
 15 16  1  0
 16 17  1  0
 17 18  2  0
 17 19  1  0
 19 20  1  0
 20 21  1  0
 21 22  2  0
 21 23  1  0
 23 24  1  0
 24 25  1  0
 25 26  2  0
 25 27  1  0
 27 28  1  0
 28 29  1  0
 29 30  2  0
 27 31  1  0
 31 32  1  0
 32 33  1  0
 33 34  2  0
 33 35  1  0
 23 36  1  0
 36 37  1  0
 37 38  2  0
 38 39  1  0
 39 40  2  0
 40 41  1  0
 41 42  2  0
 19 43  1  0
 43 44  1  0
 44 45  1  0
 45 46  1  0
 46 47  2  3
 47 48  1  0
 47 49  1  0
 15 50  1  0
 50 51  1  0
 51 52  2  0
 52 53  1  0
 53 54  1  0
 54 55  2  0
 55 56  1  0
 56 57  2  0
 57 58  1  0
 58 59  2  0
 11 60  1  0
 60 61  2  0
 60 62  1  0
 29  5  1  0
 42 37  1  0
 55 51  1  0
 59 54  1  0
  1 63  1  0
  1 64  1  0
  1 65  1  0
  2 66  1  0
  2 67  1  0
  3 68  1  0
  3 69  1  0
  4 70  1  0
  4 71  1  0
  5 72  1  1
  6 73  1  0
  9 74  1  0
  9 75  1  0
 10 76  1  0
 10 77  1  0
 11 78  1  6
 12 79  1  0
 15 80  1  1
 16 81  1  0
 19 82  1  1
 20 83  1  0
 23 84  1  6
 24 85  1  0
 27 86  1  6
 28 87  1  0
 31 88  1  0
 31 89  1  0
 32 90  1  0
 32 91  1  0
 35 92  1  0
 35 93  1  0
 36 94  1  0
 36 95  1  0
 38 96  1  0
 39 97  1  0
 40 98  1  0
 41 99  1  0
 42100  1  0
 43101  1  0
 43102  1  0
 44103  1  0
 44104  1  0
 45105  1  0
 45106  1  0
 48107  1  0
 48108  1  0
 49109  1  0
 49110  1  0
 50111  1  0
 50112  1  0
 52113  1  0
 53114  1  0
 56115  1  0
 57116  1  0
 58117  1  0
 59118  1  0
 62119  1  0
 62120  1  0
M  END
>  <Ligand ID>  (1) 
LIG0001833

>  <Ligand>  (1) 
CHEMBL203602

>  <SMILES>  (1) 
CCCC[C@@H]1NC(=O)CC[C@H](NC(=O)[C@@H](NC(=O)[C@@H](NC(=O)[C@H](NC(=O)[C@H](NC1=O)CCC(=O)N)Cc1ccccc1)CCCN=C(N)N)Cc1c[nH]c2c1cccc2)C(=O)N

>  <CID>  (1) 
44408413.0

>  <ChEMBL ID>  (1) 
nan

>  <InChiKey>  (1) 
RNMRQCPIALKVBK-HSPZZYPGSA-N

>  <InChi>  (1) 
InChI=1S/C42H58N12O8/c1-2-3-13-29-37(58)52-31(16-18-34(43)55)39(60)53-32(21-24-10-5-4-6-11-24)40(61)51-30(15-9-20-47-42(45)46)38(59)54-33(22-25-23-48-27-14-8-7-12-26(25)27)41(62)50-28(36(44)57)17-19-35(56)49-29/h4-8,10-12,14,23,28-33,48H,2-3,9,13,15-22H2,1H3,(H2,43,55)(H2,44,57)(H,49,56)(H,50,62)(H,51,61)(H,52,58)(H,53,60)(H,54,59)(H4,45,46,47)/t28-,29-,30-,31+,32+,33-/m0/s1

>  <IUPAC Name>  (1) 
(2S,5R,8R,11S,14S,17S)-5-(3-amino-3-oxopropyl)-8-benzyl-2-butyl-11-[3-(diaminomethylideneamino)propyl]-14-(1H-indol-3-ylmethyl)-3,6,9,12,15,20-hexaoxo-1,4,7,10,13,16-hexazacycloicosane-17-carboxamide

$$$$
