
     RDKit          3D

 54 57  0  0  0  0  0  0  0  0999 V2000
   -5.4321    1.6709   -3.1228 N   0  0  0  0  0  0  0  0  0  0  0  0
   -5.0590    1.1822   -2.1557 C   0  0  0  0  0  0  0  0  0  0  0  0
   -4.5709    0.5670   -0.9591 C   0  0  0  0  0  0  0  0  0  0  0  0
   -3.1889    0.3977   -0.8847 C   0  0  0  0  0  0  0  0  0  0  0  0
   -2.6126   -0.1843    0.2146 C   0  0  0  0  0  0  0  0  0  0  0  0
   -1.1449   -0.3645    0.2828 C   0  0  0  0  0  0  0  0  0  0  0  0
   -0.4876    0.7446    0.8616 O   0  0  0  0  0  0  0  0  0  0  0  0
    0.9016    0.6852    0.9789 C   0  0  0  0  0  0  0  0  0  0  0  0
    1.5936    1.7555    1.5434 C   0  0  0  0  0  0  0  0  0  0  0  0
    2.9696    1.6939    1.6586 C   0  0  0  0  0  0  0  0  0  0  0  0
    3.7019    0.5990    1.2312 C   0  0  0  0  0  0  0  0  0  0  0  0
    2.9896   -0.4403    0.6788 C   0  0  0  0  0  0  0  0  0  0  0  0
    1.6210   -0.4318    0.5399 C   0  0  0  0  0  0  0  0  0  0  0  0
    3.9308   -1.4155    0.3313 C   0  0  0  0  0  0  0  0  0  0  0  0
    5.1842   -0.9383    0.6835 C   0  0  0  0  0  0  0  0  0  0  0  0
    5.0200    0.2796    1.2248 N   0  0  0  0  0  0  0  0  0  0  0  0
    6.2884    0.8525    1.6247 C   0  0  0  0  0  0  0  0  0  0  0  0
    7.2809    0.0456    0.8645 C   0  0  0  0  0  0  0  0  0  0  0  0
    6.6324   -1.2716    0.6880 C   0  0  0  0  0  0  0  0  0  0  0  0
    6.9815   -2.0290   -0.5568 C   0  0  0  0  0  0  0  0  0  0  0  0
    6.7106   -1.2874   -1.7939 C   0  0  0  0  0  0  0  0  0  0  0  0
    6.2092   -0.1100   -1.7533 O   0  0  0  0  0  0  0  0  0  0  0  0
    6.9888   -1.8396   -3.0355 O   0  0  0  0  0  0  0  0  0  0  0  0
   -3.4339   -0.5937    1.2369 C   0  0  0  0  0  0  0  0  0  0  0  0
   -4.7862   -0.4248    1.1574 C   0  0  0  0  0  0  0  0  0  0  0  0
   -5.4217    0.1683    0.0461 C   0  0  0  0  0  0  0  0  0  0  0  0
   -6.7443    0.2721    0.0947 O   0  0  0  0  0  0  0  0  0  0  0  0
   -7.8001    0.7307   -0.6176 C   0  0  0  0  0  0  0  0  0  0  0  0
   -8.7555   -0.4315   -1.0024 C   0  0  0  0  0  0  0  0  0  0  0  0
   -8.6697    1.7241    0.1855 C   0  0  0  0  0  0  0  0  0  0  0  0
   -2.5219    0.7136   -1.6780 H   0  0  0  0  0  0  0  0  0  0  0  0
   -0.6933   -0.4766   -0.7405 H   0  0  0  0  0  0  0  0  0  0  0  0
   -0.8601   -1.2847    0.8504 H   0  0  0  0  0  0  0  0  0  0  0  0
    1.0141    2.6162    1.8794 H   0  0  0  0  0  0  0  0  0  0  0  0
    3.5290    2.5085    2.0905 H   0  0  0  0  0  0  0  0  0  0  0  0
    1.0858   -1.2664    0.1004 H   0  0  0  0  0  0  0  0  0  0  0  0
    3.6811   -2.3555   -0.1264 H   0  0  0  0  0  0  0  0  0  0  0  0
    6.4290    0.8403    2.7337 H   0  0  0  0  0  0  0  0  0  0  0  0
    6.3531    1.9237    1.2669 H   0  0  0  0  0  0  0  0  0  0  0  0
    8.1744   -0.0894    1.5444 H   0  0  0  0  0  0  0  0  0  0  0  0
    7.6597    0.5350   -0.0483 H   0  0  0  0  0  0  0  0  0  0  0  0
    6.8927   -1.9139    1.5794 H   0  0  0  0  0  0  0  0  0  0  0  0
    6.4498   -3.0048   -0.5090 H   0  0  0  0  0  0  0  0  0  0  0  0
    8.0726   -2.2743   -0.5391 H   0  0  0  0  0  0  0  0  0  0  0  0
    7.1846   -1.1812   -3.7992 H   0  0  0  0  0  0  0  0  0  0  0  0
   -2.9887   -1.0566    2.1134 H   0  0  0  0  0  0  0  0  0  0  0  0
   -5.3896   -0.7725    2.0076 H   0  0  0  0  0  0  0  0  0  0  0  0
   -7.4920    1.2561   -1.5384 H   0  0  0  0  0  0  0  0  0  0  0  0
   -8.2123   -1.4100   -0.8785 H   0  0  0  0  0  0  0  0  0  0  0  0
   -9.0466   -0.2857   -2.0567 H   0  0  0  0  0  0  0  0  0  0  0  0
   -9.6189   -0.4425   -0.3114 H   0  0  0  0  0  0  0  0  0  0  0  0
   -9.6980    1.6442   -0.2067 H   0  0  0  0  0  0  0  0  0  0  0  0
   -8.2415    2.7243    0.0205 H   0  0  0  0  0  0  0  0  0  0  0  0
   -8.6600    1.4451    1.2566 H   0  0  0  0  0  0  0  0  0  0  0  0
  1  2  3  0
  2  3  1  0
  3  4  2  0
  4  5  1  0
  5  6  1  0
  6  7  1  0
  7  8  1  0
  8  9  2  0
  9 10  1  0
 10 11  2  0
 11 12  1  0
 12 13  2  0
 12 14  1  0
 14 15  2  0
 15 16  1  0
 16 17  1  0
 17 18  1  0
 18 19  1  0
 19 20  1  0
 20 21  1  0
 21 22  2  0
 21 23  1  0
  5 24  2  0
 24 25  1  0
 25 26  2  0
 26 27  1  0
 27 28  1  0
 28 29  1  0
 28 30  1  0
 26  3  1  0
 13  8  1  0
 19 15  1  0
 16 11  1  0
  4 31  1  0
  6 32  1  0
  6 33  1  0
  9 34  1  0
 10 35  1  0
 13 36  1  0
 14 37  1  0
 17 38  1  0
 17 39  1  0
 18 40  1  0
 18 41  1  0
 19 42  1  0
 20 43  1  0
 20 44  1  0
 23 45  1  0
 24 46  1  0
 25 47  1  0
 28 48  1  0
 29 49  1  0
 29 50  1  0
 29 51  1  0
 30 52  1  0
 30 53  1  0
 30 54  1  0
M  END
>  <Ligand ID>  (1) 
LIG0001536

>  <Ligand>  (1) 
CHEMBL3359520

>  <SMILES>  (1) 
N#Cc1cc(COc2ccc3c(c2)cc2n3CCC2CC(=O)O)ccc1OC(C)C

>  <CID>  (1) 
67249162.0

>  <ChEMBL ID>  (1) 
nan

>  <InChiKey>  (1) 
PLHKTXYJCYEKDM-UHFFFAOYSA-N

>  <InChi>  (1) 
InChI=1S/C24H24N2O4/c1-15(2)30-23-6-3-16(9-19(23)13-25)14-29-20-4-5-21-18(10-20)11-22-17(12-24(27)28)7-8-26(21)22/h3-6,9-11,15,17H,7-8,12,14H2,1-2H3,(H,27,28)

>  <IUPAC Name>  (1) 
2-[6-[(3-cyano-4-propan-2-yloxyphenyl)methoxy]-2,3-dihydro-1H-pyrrolo[1,2-a]indol-3-yl]acetic acid

$$$$
