
     RDKit          3D

 43 43  0  0  0  0  0  0  0  0999 V2000
    6.9658    2.3639   -0.2623 O   0  0  0  0  0  0  0  0  0  0  0  0
    6.0441    1.3720    0.0466 C   0  0  0  0  0  0  0  0  0  0  0  0
    5.6910    1.2120    1.2422 O   0  0  0  0  0  0  0  0  0  0  0  0
    5.5325    0.5557   -1.0832 C   0  0  0  0  0  0  0  0  0  0  0  0
    4.5964   -0.4069   -0.7385 O   0  0  0  0  0  0  0  0  0  0  0  0
    3.3630   -0.2280   -0.1630 C   0  0  0  0  0  0  0  0  0  0  0  0
    2.8135    0.9795    0.1817 C   0  0  0  0  0  0  0  0  0  0  0  0
    1.5644    1.1158    0.7605 C   0  0  0  0  0  0  0  0  0  0  0  0
    0.8311   -0.0112    1.0053 C   0  0  0  0  0  0  0  0  0  0  0  0
    1.3589   -1.2439    0.6683 C   0  0  0  0  0  0  0  0  0  0  0  0
    2.6066   -1.3657    0.0914 C   0  0  0  0  0  0  0  0  0  0  0  0
    3.1584   -2.7191   -0.2660 C   0  0  0  0  0  0  0  0  0  0  0  0
    2.2277   -3.6787    0.0816 F   0  0  0  0  0  0  0  0  0  0  0  0
    3.2737   -2.7413   -1.6249 F   0  0  0  0  0  0  0  0  0  0  0  0
    4.3428   -2.9860    0.3863 F   0  0  0  0  0  0  0  0  0  0  0  0
   -0.5090    0.1201    1.6250 C   0  0  0  0  0  0  0  0  0  0  0  0
   -1.8118    0.2997    0.3767 P   0  0  0  0  0  0  0  0  0  0  0  0
   -1.5884   -0.7093   -0.7357 O   0  0  0  0  0  0  0  0  0  0  0  0
   -3.3878   -0.1322    1.1520 C   0  0  0  0  0  0  0  0  0  0  0  0
   -4.2417   -0.9808    0.2527 C   0  0  0  0  0  0  0  0  0  0  0  0
   -4.5905   -0.2765   -1.0168 C   0  0  2  0  0  0  0  0  0  0  0  0
   -5.3560    0.9473   -0.7593 C   0  0  0  0  0  0  0  0  0  0  0  0
   -6.5153    1.0195   -1.2726 O   0  0  0  0  0  0  0  0  0  0  0  0
   -4.9462    2.0270   -0.0173 O   0  0  0  0  0  0  0  0  0  0  0  0
   -5.3756   -1.1848   -1.8410 N   0  0  0  0  0  0  0  0  0  0  0  0
   -1.9002    1.8587   -0.2103 O   0  0  0  0  0  0  0  0  0  0  0  0
    7.6062    2.6897    0.4621 H   0  0  0  0  0  0  0  0  0  0  0  0
    6.3460    0.1779   -1.7280 H   0  0  0  0  0  0  0  0  0  0  0  0
    4.9902    1.2990   -1.7414 H   0  0  0  0  0  0  0  0  0  0  0  0
    3.3646    1.8863   -0.0026 H   0  0  0  0  0  0  0  0  0  0  0  0
    1.1940    2.0792    1.0047 H   0  0  0  0  0  0  0  0  0  0  0  0
    0.7961   -2.1588    0.8522 H   0  0  0  0  0  0  0  0  0  0  0  0
   -0.7135   -0.8270    2.1661 H   0  0  0  0  0  0  0  0  0  0  0  0
   -0.5808    0.9369    2.3501 H   0  0  0  0  0  0  0  0  0  0  0  0
   -3.9068    0.7361    1.5961 H   0  0  0  0  0  0  0  0  0  0  0  0
   -3.1401   -0.7810    2.0475 H   0  0  0  0  0  0  0  0  0  0  0  0
   -3.6692   -1.9281    0.0655 H   0  0  0  0  0  0  0  0  0  0  0  0
   -5.1987   -1.2765    0.7344 H   0  0  0  0  0  0  0  0  0  0  0  0
   -3.6589   -0.0184   -1.5615 H   0  0  0  0  0  0  0  0  0  0  0  0
   -5.2947    2.9640   -0.1915 H   0  0  0  0  0  0  0  0  0  0  0  0
   -4.7374   -1.9037   -2.2438 H   0  0  0  0  0  0  0  0  0  0  0  0
   -6.1097   -1.6109   -1.2467 H   0  0  0  0  0  0  0  0  0  0  0  0
   -1.4349    2.5284    0.3506 H   0  0  0  0  0  0  0  0  0  0  0  0
  1  2  1  0
  2  3  2  0
  2  4  1  0
  4  5  1  0
  5  6  1  0
  6  7  2  0
  7  8  1  0
  8  9  2  0
  9 10  1  0
 10 11  2  0
 11 12  1  0
 12 13  1  0
 12 14  1  0
 12 15  1  0
  9 16  1  0
 16 17  1  0
 17 18  2  0
 17 19  1  0
 19 20  1  0
 20 21  1  0
 21 22  1  0
 22 23  2  0
 22 24  1  0
 21 25  1  0
 17 26  1  0
 11  6  1  0
  1 27  1  0
  4 28  1  0
  4 29  1  0
  7 30  1  0
  8 31  1  0
 10 32  1  0
 16 33  1  0
 16 34  1  0
 19 35  1  0
 19 36  1  0
 20 37  1  0
 20 38  1  0
 21 39  1  6
 24 40  1  0
 25 41  1  0
 25 42  1  0
 26 43  1  0
M  END
>  <Ligand ID>  (1) 
LIG0002484

>  <Ligand>  (1) 
US9212196, Derivative 33

>  <SMILES>  (1) 
OC(=O)COc1ccc(cc1C(F)(F)F)CP(=O)(CC[C@H](C(=O)O)N)O

>  <CID>  (1) 
122197963.0

>  <ChEMBL ID>  (1) 
nan

>  <InChiKey>  (1) 
DLGOTKZKHHEVES-SNVBAGLBSA-N

>  <InChi>  (1) 
InChI=1S/C14H17F3NO7P/c15-14(16,17)9-5-8(1-2-11(9)25-6-12(19)20)7-26(23,24)4-3-10(18)13(21)22/h1-2,5,10H,3-4,6-7,18H2,(H,19,20)(H,21,22)(H,23,24)/t10-/m1/s1

>  <IUPAC Name>  (1) 
(2R)-2-amino-4-[[4-(carboxymethoxy)-3-(trifluoromethyl)phenyl]methyl-hydroxyphosphoryl]butanoic acid

$$$$
