
     RDKit          3D

 21 20  0  0  0  0  0  0  0  0999 V2000
    2.9983   -0.7129    0.9635 N   0  0  0  0  0  0  0  0  0  0  0  0
    3.2676    0.4846    0.2405 C   0  0  0  0  0  0  0  0  0  0  0  0
    4.4062    1.0926    0.2822 N   0  0  0  0  0  0  0  0  0  0  0  0
    1.9020    1.1217   -0.7600 S   0  0  0  0  0  0  0  0  0  0  0  0
    0.5496   -0.0611   -0.4891 C   0  0  0  0  0  0  0  0  0  0  0  0
   -0.6556    0.4040   -1.3045 C   0  0  0  0  0  0  0  0  0  0  0  0
   -1.6989   -0.5700   -1.0526 N   0  0  0  0  0  0  0  0  0  0  0  0
   -2.5003   -0.3678   -0.0793 C   0  0  0  0  0  0  0  0  0  0  0  0
   -2.4399    0.7569    0.7826 N   0  0  0  0  0  0  0  0  0  0  0  0
   -3.5173   -1.3492    0.1400 N   0  0  0  0  0  0  0  0  0  0  0  0
    2.3881   -0.7231    1.8149 H   0  0  0  0  0  0  0  0  0  0  0  0
    3.4442   -1.5820    0.5967 H   0  0  0  0  0  0  0  0  0  0  0  0
    4.6138    1.9714   -0.2443 H   0  0  0  0  0  0  0  0  0  0  0  0
    0.8299   -1.0736   -0.7823 H   0  0  0  0  0  0  0  0  0  0  0  0
    0.3131   -0.1117    0.6064 H   0  0  0  0  0  0  0  0  0  0  0  0
   -0.3075    0.3860   -2.3614 H   0  0  0  0  0  0  0  0  0  0  0  0
   -0.9327    1.4376   -1.0391 H   0  0  0  0  0  0  0  0  0  0  0  0
   -1.5729    1.3444    0.8958 H   0  0  0  0  0  0  0  0  0  0  0  0
   -3.2819    1.0310    1.3384 H   0  0  0  0  0  0  0  0  0  0  0  0
   -3.3516   -2.3567   -0.0908 H   0  0  0  0  0  0  0  0  0  0  0  0
   -4.4543   -1.0549    0.5424 H   0  0  0  0  0  0  0  0  0  0  0  0
  1  2  1  0
  2  3  2  3
  2  4  1  0
  4  5  1  0
  5  6  1  0
  6  7  1  0
  7  8  2  3
  8  9  1  0
  8 10  1  0
  1 11  1  0
  1 12  1  0
  3 13  1  0
  5 14  1  0
  5 15  1  0
  6 16  1  0
  6 17  1  0
  9 18  1  0
  9 19  1  0
 10 20  1  0
 10 21  1  0
M  END
>  <Ligand ID>  (1) 
LIG0005083

>  <Ligand>  (1) 
VUF 8430

>  <SMILES>  (1) 
NC(=N)SCCN=C(N)N

>  <CID>  (1) 
3063228.0

>  <ChEMBL ID>  (1) 
nan

>  <InChiKey>  (1) 
GSYGTVNTZHFQQH-UHFFFAOYSA-N

>  <InChi>  (1) 
InChI=1S/C4H11N5S/c5-3(6)9-1-2-10-4(7)8/h1-2H2,(H3,7,8)(H4,5,6,9)

>  <IUPAC Name>  (1) 
2-(diaminomethylideneamino)ethyl carbamimidothioate

$$$$
