
     RDKit          3D

 38 37  0  0  0  0  0  0  0  0999 V2000
    6.6049    0.1408    2.3501 Br  0  0  0  0  0  0  0  0  0  0  0  0
    5.0123   -0.4667    1.3449 C   0  0  0  0  0  0  0  0  0  0  0  0
    5.2042   -0.0098   -0.0392 C   0  0  0  0  0  0  0  0  0  0  0  0
    4.2539   -0.3001   -1.1056 C   0  0  0  0  0  0  0  0  0  0  0  0
    2.8686    0.1593   -1.1281 C   0  0  0  0  0  0  0  0  0  0  0  0
    1.9423   -0.2799   -0.0621 C   0  0  0  0  0  0  0  0  0  0  0  0
    0.5107    0.2899   -0.3370 C   0  0  0  0  0  0  0  0  0  0  0  0
   -0.3485   -0.2027    0.7843 C   0  0  0  0  0  0  0  0  0  0  0  0
   -1.7742    0.2417    0.6986 C   0  0  0  0  0  0  0  0  0  0  0  0
   -2.4239   -0.2457   -0.5716 C   0  0  0  0  0  0  0  0  0  0  0  0
   -3.8614    0.1934   -0.6760 C   0  0  0  0  0  0  0  0  0  0  0  0
   -4.7455   -0.2833    0.4237 C   0  0  0  0  0  0  0  0  0  0  0  0
   -6.1117    0.2419    0.1564 C   0  0  0  0  0  0  0  0  0  0  0  0
   -6.8428   -0.3473   -0.7111 O   0  0  0  0  0  0  0  0  0  0  0  0
   -6.6199    1.3596    0.8248 O   0  0  0  0  0  0  0  0  0  0  0  0
    4.1251   -0.1304    1.8744 H   0  0  0  0  0  0  0  0  0  0  0  0
    5.0552   -1.5847    1.4525 H   0  0  0  0  0  0  0  0  0  0  0  0
    6.2041   -0.4697   -0.3764 H   0  0  0  0  0  0  0  0  0  0  0  0
    5.3711    1.1108   -0.0007 H   0  0  0  0  0  0  0  0  0  0  0  0
    4.7406    0.0784   -2.0721 H   0  0  0  0  0  0  0  0  0  0  0  0
    4.2108   -1.4440   -1.2576 H   0  0  0  0  0  0  0  0  0  0  0  0
    2.8784    1.3080   -1.1140 H   0  0  0  0  0  0  0  0  0  0  0  0
    2.3876   -0.0273   -2.1404 H   0  0  0  0  0  0  0  0  0  0  0  0
    1.8445   -1.3662   -0.0432 H   0  0  0  0  0  0  0  0  0  0  0  0
    2.1860    0.0866    0.9347 H   0  0  0  0  0  0  0  0  0  0  0  0
    0.5366    1.3693   -0.4517 H   0  0  0  0  0  0  0  0  0  0  0  0
    0.2034   -0.2034   -1.2809 H   0  0  0  0  0  0  0  0  0  0  0  0
    0.0573    0.1833    1.7527 H   0  0  0  0  0  0  0  0  0  0  0  0
   -0.2926   -1.3021    0.8670 H   0  0  0  0  0  0  0  0  0  0  0  0
   -2.2881   -0.1884    1.6067 H   0  0  0  0  0  0  0  0  0  0  0  0
   -1.8579    1.3300    0.7248 H   0  0  0  0  0  0  0  0  0  0  0  0
   -2.3720   -1.3272   -0.7168 H   0  0  0  0  0  0  0  0  0  0  0  0
   -1.8878    0.2445   -1.4120 H   0  0  0  0  0  0  0  0  0  0  0  0
   -4.2574   -0.2094   -1.6321 H   0  0  0  0  0  0  0  0  0  0  0  0
   -3.9605    1.2952   -0.7658 H   0  0  0  0  0  0  0  0  0  0  0  0
   -4.4611    0.0682    1.4237 H   0  0  0  0  0  0  0  0  0  0  0  0
   -4.8039   -1.3944    0.3277 H   0  0  0  0  0  0  0  0  0  0  0  0
   -7.2886    1.9765    0.3474 H   0  0  0  0  0  0  0  0  0  0  0  0
  1  2  1  0
  2  3  1  0
  3  4  1  0
  4  5  1  0
  5  6  1  0
  6  7  1  0
  7  8  1  0
  8  9  1  0
  9 10  1  0
 10 11  1  0
 11 12  1  0
 12 13  1  0
 13 14  2  0
 13 15  1  0
  2 16  1  0
  2 17  1  0
  3 18  1  0
  3 19  1  0
  4 20  1  0
  4 21  1  0
  5 22  1  0
  5 23  1  0
  6 24  1  0
  6 25  1  0
  7 26  1  0
  7 27  1  0
  8 28  1  0
  8 29  1  0
  9 30  1  0
  9 31  1  0
 10 32  1  0
 10 33  1  0
 11 34  1  0
 11 35  1  0
 12 36  1  0
 12 37  1  0
 15 38  1  0
M  END
>  <Ligand ID>  (1) 
LIG0002039

>  <Ligand>  (1) 
12-Bromo-dodecanoic acid

>  <SMILES>  (1) 
BrCCCCCCCCCCCC(=O)O

>  <CID>  (1) 
175468.0

>  <ChEMBL ID>  (1) 
nan

>  <InChiKey>  (1) 
YYKBWYBUCFHYPR-UHFFFAOYSA-N

>  <InChi>  (1) 
InChI=1S/C12H23BrO2/c13-11-9-7-5-3-1-2-4-6-8-10-12(14)15/h1-11H2,(H,14,15)

>  <IUPAC Name>  (1) 
12-bromododecanoic acid

$$$$
