
     RDKit          3D

 51 54  0  0  0  0  0  0  0  0999 V2000
    3.9812    1.1713   -2.8754 O   0  0  0  0  0  0  0  0  0  0  0  0
    3.5898    0.8314   -1.6985 C   0  0  0  0  0  0  0  0  0  0  0  0
    4.4023    0.8416   -0.5894 N   0  0  0  0  0  0  0  0  0  0  0  0
    3.8190    0.4389    0.6324 C   0  0  0  0  0  0  0  0  0  0  0  0
    4.3555    0.1083    1.7402 N   0  0  0  0  0  0  0  0  0  0  0  0
    5.7279    0.0639    2.0292 C   0  0  0  0  0  0  0  0  0  0  0  0
    6.6042   -0.5927    1.1664 C   0  0  0  0  0  0  0  0  0  0  0  0
    7.9662   -0.6348    1.4609 C   0  0  0  0  0  0  0  0  0  0  0  0
    8.4633   -0.0239    2.6150 C   0  0  0  0  0  0  0  0  0  0  0  0
    7.6111    0.6205    3.4631 C   0  0  0  0  0  0  0  0  0  0  0  0
    6.2713    0.6606    3.1721 C   0  0  0  0  0  0  0  0  0  0  0  0
    2.0299    0.4731    0.3310 S   0  0  0  0  0  0  0  0  0  0  0  0
    2.2190    0.4040   -1.4755 C   0  0  0  0  0  0  0  0  0  0  0  0
    1.3037    0.0166   -2.3271 C   0  0  0  0  0  0  0  0  0  0  0  0
   -0.0422   -0.3888   -2.0030 C   0  0  0  0  0  0  0  0  0  0  0  0
   -0.6140   -1.5547   -2.5139 C   0  0  0  0  0  0  0  0  0  0  0  0
   -1.9203   -1.6684   -2.0536 C   0  0  0  0  0  0  0  0  0  0  0  0
   -2.1545   -0.5828   -1.2650 N   0  0  0  0  0  0  0  0  0  0  0  0
   -1.0233    0.1864   -1.2364 C   0  0  0  0  0  0  0  0  0  0  0  0
   -0.9615    1.4524   -0.4923 C   0  0  0  0  0  0  0  0  0  0  0  0
   -3.3898   -0.3430   -0.6033 C   0  0  0  0  0  0  0  0  0  0  0  0
   -3.4853   -0.6162    0.7342 C   0  0  0  0  0  0  0  0  0  0  0  0
   -4.6742   -0.3957    1.4105 C   0  0  0  0  0  0  0  0  0  0  0  0
   -5.7970    0.1002    0.7804 C   0  0  0  0  0  0  0  0  0  0  0  0
   -5.7041    0.3788   -0.5769 C   0  0  0  0  0  0  0  0  0  0  0  0
   -4.5123    0.1563   -1.2488 C   0  0  0  0  0  0  0  0  0  0  0  0
   -7.3034    0.3745    1.6507 S   0  0  0  0  0  0  0  0  0  0  0  0
   -7.4946   -0.6436    2.7418 O   0  0  0  0  0  0  0  0  0  0  0  0
   -8.4250    0.3367    0.6604 O   0  0  0  0  0  0  0  0  0  0  0  0
   -7.2925    1.9846    2.3101 N   0  0  0  0  0  0  0  0  0  0  0  0
   -2.8611   -2.7798   -2.3810 C   0  0  0  0  0  0  0  0  0  0  0  0
    5.4343    1.1352   -0.6158 H   0  0  0  0  0  0  0  0  0  0  0  0
    6.2471   -1.0786    0.2564 H   0  0  0  0  0  0  0  0  0  0  0  0
    8.6336   -1.1448    0.7876 H   0  0  0  0  0  0  0  0  0  0  0  0
    9.5400   -0.0662    2.8313 H   0  0  0  0  0  0  0  0  0  0  0  0
    7.9703    1.1126    4.3812 H   0  0  0  0  0  0  0  0  0  0  0  0
    5.6298    1.1854    3.8806 H   0  0  0  0  0  0  0  0  0  0  0  0
    1.5739   -0.0084   -3.3943 H   0  0  0  0  0  0  0  0  0  0  0  0
   -0.1216   -2.2803   -3.1782 H   0  0  0  0  0  0  0  0  0  0  0  0
   -0.8811    1.2909    0.6003 H   0  0  0  0  0  0  0  0  0  0  0  0
   -0.1174    2.1018   -0.8226 H   0  0  0  0  0  0  0  0  0  0  0  0
   -1.9029    2.0619   -0.6997 H   0  0  0  0  0  0  0  0  0  0  0  0
   -2.6653   -1.0110    1.3390 H   0  0  0  0  0  0  0  0  0  0  0  0
   -4.7689   -0.6076    2.4813 H   0  0  0  0  0  0  0  0  0  0  0  0
   -6.5333    0.7666   -1.1401 H   0  0  0  0  0  0  0  0  0  0  0  0
   -4.4424    0.3737   -2.3043 H   0  0  0  0  0  0  0  0  0  0  0  0
   -6.6979    2.6199    1.7349 H   0  0  0  0  0  0  0  0  0  0  0  0
   -8.2868    2.3005    2.4014 H   0  0  0  0  0  0  0  0  0  0  0  0
   -3.4799   -2.4193   -3.2484 H   0  0  0  0  0  0  0  0  0  0  0  0
   -3.5366   -3.0239   -1.5231 H   0  0  0  0  0  0  0  0  0  0  0  0
   -2.2842   -3.6840   -2.6087 H   0  0  0  0  0  0  0  0  0  0  0  0
  1  2  2  0
  2  3  1  0
  3  4  1  0
  4  5  2  3
  5  6  1  0
  6  7  2  0
  7  8  1  0
  8  9  2  0
  9 10  1  0
 10 11  2  0
  4 12  1  0
 12 13  1  0
 13 14  2  0
 14 15  1  0
 15 16  1  0
 16 17  2  0
 17 18  1  0
 18 19  1  0
 19 20  1  0
 18 21  1  0
 21 22  2  0
 22 23  1  0
 23 24  2  0
 24 25  1  0
 25 26  2  0
 24 27  1  0
 27 28  2  0
 27 29  2  0
 27 30  1  0
 17 31  1  0
 13  2  1  0
 19 15  2  0
 26 21  1  0
 11  6  1  0
  3 32  1  0
  7 33  1  0
  8 34  1  0
  9 35  1  0
 10 36  1  0
 11 37  1  0
 14 38  1  0
 16 39  1  0
 20 40  1  0
 20 41  1  0
 20 42  1  0
 22 43  1  0
 23 44  1  0
 25 45  1  0
 26 46  1  0
 30 47  1  0
 30 48  1  0
 31 49  1  0
 31 50  1  0
 31 51  1  0
M  END
>  <Ligand ID>  (1) 
LIG0003727

>  <Ligand>  (1) 
MLS000546190

>  <SMILES>  (1) 
O=C1NC(=Nc2ccccc2)S/C/1=C\c1cc(n(c1C)c1ccc(cc1)S(=O)(=O)N)C

>  <CID>  (1) 
135510996.0

>  <ChEMBL ID>  (1) 
nan

>  <InChiKey>  (1) 
ODRSSOQWOHNABY-MOSHPQCFSA-N

>  <InChi>  (1) 
InChI=1S/C22H20N4O3S2/c1-14-12-16(15(2)26(14)18-8-10-19(11-9-18)31(23,28)29)13-20-21(27)25-22(30-20)24-17-6-4-3-5-7-17/h3-13H,1-2H3,(H2,23,28,29)(H,24,25,27)/b20-13-

>  <IUPAC Name>  (1) 
4-[2,5-dimethyl-3-[(Z)-(4-oxo-2-phenylimino-1,3-thiazolidin-5-ylidene)methyl]pyrrol-1-yl]benzenesulfonamide

$$$$
