
     RDKit          3D

 90 94  0  0  0  0  0  0  0  0999 V2000
   -1.0663   -2.9051    1.8897 C   0  0  0  0  0  0  0  0  0  0  0  0
   -0.1939   -1.9995    2.7044 C   0  0  0  0  0  0  0  0  0  0  0  0
   -0.4021   -0.5721    2.3846 C   0  0  0  0  0  0  0  0  0  0  0  0
   -0.1063   -0.0451    1.0586 C   0  0  2  0  0  0  0  0  0  0  0  0
   -0.7880   -0.5483   -0.1193 N   0  0  0  0  0  0  0  0  0  0  0  0
    0.0408   -1.2738   -1.0586 C   0  0  0  0  0  0  0  0  0  0  0  0
    1.0341   -0.2168   -1.6007 C   0  0  0  0  0  0  0  0  0  0  0  0
    1.9439    0.0200   -0.4875 N   0  0  0  0  0  0  0  0  0  0  0  0
    1.3774    0.0956    0.8086 C   0  0  0  0  0  0  0  0  0  0  0  0
    2.0697    0.2864    1.8457 O   0  0  0  0  0  0  0  0  0  0  0  0
    3.3852    0.1687   -0.6860 C   0  0  2  0  0  0  0  0  0  0  0  0
    4.0497   -0.9588   -0.0026 C   0  0  0  0  0  0  0  0  0  0  0  0
    3.4967   -1.6700    0.8785 O   0  0  0  0  0  0  0  0  0  0  0  0
    5.4058   -1.3224   -0.3162 N   0  0  0  0  0  0  0  0  0  0  0  0
    6.0292   -2.4374    0.3822 C   0  0  0  0  0  0  0  0  0  0  0  0
    3.8498    1.5166   -0.2547 C   0  0  0  0  0  0  0  0  0  0  0  0
    5.3041    1.6534   -0.4393 C   0  0  0  0  0  0  0  0  0  0  0  0
    5.9105    2.0412   -1.6098 C   0  0  0  0  0  0  0  0  0  0  0  0
    7.2808    2.1616   -1.6591 C   0  0  0  0  0  0  0  0  0  0  0  0
    8.0786    1.9027   -0.5575 C   0  0  0  0  0  0  0  0  0  0  0  0
    7.4781    1.5095    0.6335 C   0  0  0  0  0  0  0  0  0  0  0  0
    6.0979    1.3878    0.6844 C   0  0  0  0  0  0  0  0  0  0  0  0
    8.2817    1.2512    1.7359 C   0  0  0  0  0  0  0  0  0  0  0  0
    9.6619    1.3765    1.6736 C   0  0  0  0  0  0  0  0  0  0  0  0
   10.2642    1.7699    0.4819 C   0  0  0  0  0  0  0  0  0  0  0  0
    9.4641    2.0299   -0.6252 C   0  0  0  0  0  0  0  0  0  0  0  0
   -2.1486   -0.2547   -0.2530 C   0  0  0  0  0  0  0  0  0  0  0  0
   -2.6211    0.3917    0.8011 O   0  0  0  0  0  0  0  0  0  0  0  0
   -3.1283   -0.4875   -1.2698 C   0  0  2  0  0  0  0  0  0  0  0  0
   -4.3663    0.1673   -0.7687 N   0  0  0  0  0  0  0  0  0  0  0  0
   -4.8731    1.3409   -1.3289 C   0  0  0  0  0  0  0  0  0  0  0  0
   -4.3129    1.9160   -2.2919 O   0  0  0  0  0  0  0  0  0  0  0  0
   -6.1234    1.9715   -0.7973 C   0  0  1  0  0  0  0  0  0  0  0  0
   -6.0621    2.2770    0.6619 C   0  0  0  0  0  0  0  0  0  0  0  0
   -6.1456    3.7604    0.9542 C   0  0  0  0  0  0  0  0  0  0  0  0
   -7.3816    4.3824    0.3596 C   0  0  0  0  0  0  0  0  0  0  0  0
   -7.7048    3.6676   -0.9191 C   0  0  0  0  0  0  0  0  0  0  0  0
   -6.4656    3.1673   -1.5067 N   0  0  0  0  0  0  0  0  0  0  0  0
   -3.4200   -1.7651   -1.9009 C   0  0  0  0  0  0  0  0  0  0  0  0
   -3.8695   -2.8924   -1.0889 C   0  0  0  0  0  0  0  0  0  0  0  0
   -3.0645   -3.8867   -0.5795 C   0  0  0  0  0  0  0  0  0  0  0  0
   -3.5709   -4.9299    0.1904 C   0  0  0  0  0  0  0  0  0  0  0  0
   -4.9105   -5.0132    0.4783 C   0  0  0  0  0  0  0  0  0  0  0  0
   -5.7382   -4.0136   -0.0307 C   0  0  0  0  0  0  0  0  0  0  0  0
   -5.2181   -2.9840   -0.7942 C   0  0  0  0  0  0  0  0  0  0  0  0
   -5.4704   -5.9956    1.2164 F   0  0  0  0  0  0  0  0  0  0  0  0
   -0.5570   -3.2451    0.9985 H   0  0  0  0  0  0  0  0  0  0  0  0
   -2.0381   -2.4140    1.6398 H   0  0  0  0  0  0  0  0  0  0  0  0
   -1.3311   -3.8271    2.4883 H   0  0  0  0  0  0  0  0  0  0  0  0
    0.8726   -2.3200    2.6602 H   0  0  0  0  0  0  0  0  0  0  0  0
   -0.5272   -2.1486    3.7772 H   0  0  0  0  0  0  0  0  0  0  0  0
   -1.4576   -0.2853    2.6503 H   0  0  0  0  0  0  0  0  0  0  0  0
    0.2320    0.0460    3.1177 H   0  0  0  0  0  0  0  0  0  0  0  0
   -0.4219    1.0689    1.0968 H   0  0  0  0  0  0  0  0  0  0  0  0
   -0.4510   -1.7463   -1.8886 H   0  0  0  0  0  0  0  0  0  0  0  0
    0.6996   -1.9553   -0.4708 H   0  0  0  0  0  0  0  0  0  0  0  0
    0.4613    0.7366   -1.7827 H   0  0  0  0  0  0  0  0  0  0  0  0
    1.5177   -0.6206   -2.4912 H   0  0  0  0  0  0  0  0  0  0  0  0
    3.5448    0.0782   -1.8008 H   0  0  0  0  0  0  0  0  0  0  0  0
    5.9711   -0.8341   -1.0364 H   0  0  0  0  0  0  0  0  0  0  0  0
    7.0537   -2.1283    0.6587 H   0  0  0  0  0  0  0  0  0  0  0  0
    6.0257   -3.2957   -0.3240 H   0  0  0  0  0  0  0  0  0  0  0  0
    5.4203   -2.6853    1.2705 H   0  0  0  0  0  0  0  0  0  0  0  0
    3.5462    1.7578    0.7954 H   0  0  0  0  0  0  0  0  0  0  0  0
    3.3086    2.2704   -0.8910 H   0  0  0  0  0  0  0  0  0  0  0  0
    5.2749    2.2463   -2.4801 H   0  0  0  0  0  0  0  0  0  0  0  0
    7.7689    2.4662   -2.5769 H   0  0  0  0  0  0  0  0  0  0  0  0
    5.6596    1.0798    1.6265 H   0  0  0  0  0  0  0  0  0  0  0  0
    7.8218    0.9412    2.6808 H   0  0  0  0  0  0  0  0  0  0  0  0
   10.2602    1.1649    2.5578 H   0  0  0  0  0  0  0  0  0  0  0  0
   11.3408    1.8722    0.4200 H   0  0  0  0  0  0  0  0  0  0  0  0
    9.9244    2.3358   -1.5529 H   0  0  0  0  0  0  0  0  0  0  0  0
   -2.8520    0.2286   -2.1320 H   0  0  0  0  0  0  0  0  0  0  0  0
   -4.8170   -0.3287    0.0337 H   0  0  0  0  0  0  0  0  0  0  0  0
   -6.9337    1.2259   -1.0496 H   0  0  0  0  0  0  0  0  0  0  0  0
   -5.1821    1.8767    1.1769 H   0  0  0  0  0  0  0  0  0  0  0  0
   -6.9624    1.8237    1.1358 H   0  0  0  0  0  0  0  0  0  0  0  0
   -5.2735    4.3306    0.5765 H   0  0  0  0  0  0  0  0  0  0  0  0
   -6.1038    3.8446    2.0604 H   0  0  0  0  0  0  0  0  0  0  0  0
   -8.1819    4.2968    1.1193 H   0  0  0  0  0  0  0  0  0  0  0  0
   -7.2661    5.4563    0.1404 H   0  0  0  0  0  0  0  0  0  0  0  0
   -8.2569    4.3474   -1.5884 H   0  0  0  0  0  0  0  0  0  0  0  0
   -8.3908    2.8342   -0.6482 H   0  0  0  0  0  0  0  0  0  0  0  0
   -6.6613    2.9716   -2.5035 H   0  0  0  0  0  0  0  0  0  0  0  0
   -4.2025   -1.5652   -2.7380 H   0  0  0  0  0  0  0  0  0  0  0  0
   -2.5670   -2.1260   -2.5076 H   0  0  0  0  0  0  0  0  0  0  0  0
   -2.0106   -3.8187   -0.8098 H   0  0  0  0  0  0  0  0  0  0  0  0
   -2.9060   -5.6948    0.5745 H   0  0  0  0  0  0  0  0  0  0  0  0
   -6.7976   -4.0613    0.1855 H   0  0  0  0  0  0  0  0  0  0  0  0
   -5.9072   -2.2416   -1.1591 H   0  0  0  0  0  0  0  0  0  0  0  0
  1  2  1  0
  2  3  1  0
  3  4  1  0
  4  5  1  0
  5  6  1  0
  6  7  1  0
  7  8  1  0
  8  9  1  0
  9 10  2  0
  8 11  1  0
 11 12  1  0
 12 13  2  0
 12 14  1  0
 14 15  1  0
 11 16  1  0
 16 17  1  0
 17 18  2  0
 18 19  1  0
 19 20  2  0
 20 21  1  0
 21 22  2  0
 21 23  1  0
 23 24  2  0
 24 25  1  0
 25 26  2  0
  5 27  1  0
 27 28  2  0
 27 29  1  0
 29 30  1  0
 30 31  1  0
 31 32  2  0
 31 33  1  0
 33 34  1  0
 34 35  1  0
 35 36  1  0
 36 37  1  0
 37 38  1  0
 29 39  1  0
 39 40  1  0
 40 41  2  0
 41 42  1  0
 42 43  2  0
 43 44  1  0
 44 45  2  0
 43 46  1  0
  9  4  1  0
 22 17  1  0
 38 33  1  0
 45 40  1  0
 26 20  1  0
  1 47  1  0
  1 48  1  0
  1 49  1  0
  2 50  1  0
  2 51  1  0
  3 52  1  0
  3 53  1  0
  4 54  1  1
  6 55  1  0
  6 56  1  0
  7 57  1  0
  7 58  1  0
 11 59  1  6
 14 60  1  0
 15 61  1  0
 15 62  1  0
 15 63  1  0
 16 64  1  0
 16 65  1  0
 18 66  1  0
 19 67  1  0
 22 68  1  0
 23 69  1  0
 24 70  1  0
 25 71  1  0
 26 72  1  0
 29 73  1  6
 30 74  1  0
 33 75  1  1
 34 76  1  0
 34 77  1  0
 35 78  1  0
 35 79  1  0
 36 80  1  0
 36 81  1  0
 37 82  1  0
 37 83  1  0
 38 84  1  0
 39 85  1  0
 39 86  1  0
 41 87  1  0
 42 88  1  0
 44 89  1  0
 45 90  1  0
M  END
>  <Ligand ID>  (1) 
LIG0004072

>  <Ligand>  (1) 
CHEMBL448410

>  <SMILES>  (1) 
CCC[C@@H]1N(CCN(C1=O)[C@H](C(=O)NC)Cc1ccc2c(c1)cccc2)C(=O)[C@H](NC(=O)[C@H]1CCCCN1)Cc1ccc(cc1)F

>  <CID>  (1) 
44569176.0

>  <ChEMBL ID>  (1) 
nan

>  <InChiKey>  (1) 
DEMSFZJYAYNEHZ-ZRTHHSRSSA-N

>  <InChi>  (1) 
InChI=1S/C36H44FN5O4/c1-3-8-31-36(46)42(32(34(44)38-2)23-25-12-15-26-9-4-5-10-27(26)21-25)20-19-41(31)35(45)30(22-24-13-16-28(37)17-14-24)40-33(43)29-11-6-7-18-39-29/h4-5,9-10,12-17,21,29-32,39H,3,6-8,11,18-20,22-23H2,1-2H3,(H,38,44)(H,40,43)/t29-,30-,31+,32+/m1/s1

>  <IUPAC Name>  (1) 
(2R)-N-[(2R)-3-(4-fluorophenyl)-1-[(2S)-4-[(2S)-1-(methylamino)-3-naphthalen-2-yl-1-oxopropan-2-yl]-3-oxo-2-propylpiperazin-1-yl]-1-oxopropan-2-yl]piperidine-2-carboxamide

$$$$
