
     RDKit          3D

 53 58  0  0  0  0  0  0  0  0999 V2000
    2.3101    1.5864    1.5053 O   0  0  0  0  0  0  0  0  0  0  0  0
    1.4411    0.6248    1.4093 C   0  0  0  0  0  0  0  0  0  0  0  0
    2.0425   -0.6380    1.1235 N   0  0  0  0  0  0  0  0  0  0  0  0
    3.4545   -0.5813    1.0257 C   0  0  0  0  0  0  0  0  0  0  0  0
    4.1836   -0.7485    2.7781 S   0  0  0  0  0  0  0  0  0  0  0  0
    5.8718   -0.5765    2.1622 C   0  0  0  0  0  0  0  0  0  0  0  0
    5.6902   -0.4238    0.7935 C   0  0  0  0  0  0  0  0  0  0  0  0
    4.4593   -0.4482    0.3767 N   0  0  0  0  0  0  0  0  0  0  0  0
    6.8599   -0.2269   -0.0912 C   0  0  0  0  0  0  0  0  0  0  0  0
    8.1307   -0.1928    0.4227 C   0  0  0  0  0  0  0  0  0  0  0  0
    9.2404    0.0004   -0.4015 C   0  0  0  0  0  0  0  0  0  0  0  0
    9.0568    0.1622   -1.7768 C   0  0  0  0  0  0  0  0  0  0  0  0
    7.7861    0.1302   -2.3065 C   0  0  0  0  0  0  0  0  0  0  0  0
    6.7287   -0.0620   -1.4543 C   0  0  0  0  0  0  0  0  0  0  0  0
    0.0657    0.9816    1.6091 C   0  0  0  0  0  0  0  0  0  0  0  0
   -0.7699    1.8373    0.2687 S   0  0  0  0  0  0  0  0  0  0  0  0
   -1.2136    0.7432   -1.0178 C   0  0  0  0  0  0  0  0  0  0  0  0
   -0.5317    0.3653   -2.1072 N   0  0  0  0  0  0  0  0  0  0  0  0
   -1.2518   -0.4425   -2.8626 N   0  0  0  0  0  0  0  0  0  0  0  0
   -2.4412   -0.6081   -2.2627 C   0  0  0  0  0  0  0  0  0  0  0  0
   -2.4144    0.1226   -1.1268 N   0  0  0  0  0  0  0  0  0  0  0  0
   -3.5352    0.1024   -0.3597 C   0  0  0  0  0  0  0  0  0  0  0  0
   -3.6179    0.8008    0.8248 C   0  0  0  0  0  0  0  0  0  0  0  0
   -4.7472    0.7916    1.6329 C   0  0  0  0  0  0  0  0  0  0  0  0
   -4.7699    1.5059    2.8073 O   0  0  0  0  0  0  0  0  0  0  0  0
   -5.9897    1.9335    3.4185 C   0  0  0  0  0  0  0  0  0  0  0  0
   -7.1507    1.0485    3.1132 C   0  0  0  0  0  0  0  0  0  0  0  0
   -6.9461    0.0969    2.1146 O   0  0  0  0  0  0  0  0  0  0  0  0
   -5.8553    0.0633    1.2654 C   0  0  0  0  0  0  0  0  0  0  0  0
   -5.8021   -0.6448    0.0861 C   0  0  0  0  0  0  0  0  0  0  0  0
   -4.6620   -0.6288   -0.7162 C   0  0  0  0  0  0  0  0  0  0  0  0
   -4.6877   -1.3686   -1.8706 C   0  0  0  0  0  0  0  0  0  0  0  0
   -3.5359   -1.3426   -2.6487 C   0  0  0  0  0  0  0  0  0  0  0  0
   -3.5841   -2.1433   -3.9094 C   0  0  0  0  0  0  0  0  0  0  0  0
    1.4409   -1.4594    1.0134 H   0  0  0  0  0  0  0  0  0  0  0  0
    6.7569   -0.5896    2.7296 H   0  0  0  0  0  0  0  0  0  0  0  0
    8.3400   -0.3094    1.4857 H   0  0  0  0  0  0  0  0  0  0  0  0
   10.2329    0.0256    0.0455 H   0  0  0  0  0  0  0  0  0  0  0  0
    9.9131    0.3097   -2.3849 H   0  0  0  0  0  0  0  0  0  0  0  0
    7.6253    0.2525   -3.3674 H   0  0  0  0  0  0  0  0  0  0  0  0
    5.7165   -0.0930   -1.8415 H   0  0  0  0  0  0  0  0  0  0  0  0
   -0.4949    0.0072    1.8515 H   0  0  0  0  0  0  0  0  0  0  0  0
   -0.0708    1.5447    2.5892 H   0  0  0  0  0  0  0  0  0  0  0  0
   -2.7991    1.3924    1.1871 H   0  0  0  0  0  0  0  0  0  0  0  0
   -5.7799    1.9327    4.5222 H   0  0  0  0  0  0  0  0  0  0  0  0
   -6.1798    3.0057    3.1228 H   0  0  0  0  0  0  0  0  0  0  0  0
   -7.4975    0.5532    4.0564 H   0  0  0  0  0  0  0  0  0  0  0  0
   -8.0398    1.6751    2.8051 H   0  0  0  0  0  0  0  0  0  0  0  0
   -6.6767   -1.2097   -0.1916 H   0  0  0  0  0  0  0  0  0  0  0  0
   -5.5551   -1.9209   -2.1298 H   0  0  0  0  0  0  0  0  0  0  0  0
   -4.3190   -1.6551   -4.6169 H   0  0  0  0  0  0  0  0  0  0  0  0
   -3.8241   -3.2056   -3.7502 H   0  0  0  0  0  0  0  0  0  0  0  0
   -2.6044   -2.0762   -4.4274 H   0  0  0  0  0  0  0  0  0  0  0  0
  1  2  2  0
  2  3  1  0
  3  4  1  0
  4  5  1  0
  5  6  1  0
  6  7  2  0
  7  8  1  0
  7  9  1  0
  9 10  2  0
 10 11  1  0
 11 12  2  0
 12 13  1  0
 13 14  2  0
  2 15  1  0
 15 16  1  0
 16 17  1  0
 17 18  2  0
 18 19  1  0
 19 20  2  0
 20 21  1  0
 21 22  1  0
 22 23  2  0
 23 24  1  0
 24 25  1  0
 25 26  1  0
 26 27  1  0
 27 28  1  0
 28 29  1  0
 29 30  1  0
 30 31  2  0
 31 32  1  0
 32 33  2  0
 33 34  1  0
  8  4  2  0
 14  9  1  0
 21 17  1  0
 31 22  1  0
 33 20  1  0
 29 24  2  0
  3 35  1  0
  6 36  1  0
 10 37  1  0
 11 38  1  0
 12 39  1  0
 13 40  1  0
 14 41  1  0
 15 42  1  0
 15 43  1  0
 23 44  1  0
 26 45  1  0
 26 46  1  0
 27 47  1  0
 27 48  1  0
 30 49  1  0
 32 50  1  0
 34 51  1  0
 34 52  1  0
 34 53  1  0
M  END
>  <Ligand ID>  (1) 
LIG0001736

>  <Ligand>  (1) 
ASN 04482516

>  <SMILES>  (1) 
O=C(Nc1scc(n1)c1ccccc1)CSc1nnc2n1c1cc3OCCOc3cc1cc2C

>  <CID>  (1) 
1135867.0

>  <ChEMBL ID>  (1) 
nan

>  <InChiKey>  (1) 
BZWCPMNJOQACEK-UHFFFAOYSA-N

>  <InChi>  (1) 
InChI=1S/C24H19N5O3S2/c1-14-9-16-10-19-20(32-8-7-31-19)11-18(16)29-22(14)27-28-24(29)34-13-21(30)26-23-25-17(12-33-23)15-5-3-2-4-6-15/h2-6,9-12H,7-8,13H2,1H3,(H,25,26,30)

>  <IUPAC Name>  (1) 
2-[(16-methyl-4,7-dioxa-11,13,14-triazatetracyclo[8.7.0.03,8.011,15]heptadeca-1,3(8),9,12,14,16-hexaen-12-yl)sulfanyl]-N-(4-phenyl-1,3-thiazol-2-yl)acetamide

$$$$
