
     RDKit          3D

 62 66  0  0  0  0  0  0  0  0999 V2000
   -0.3454    4.0590    1.9133 C   0  0  0  0  0  0  0  0  0  0  0  0
   -1.7424    3.9003    1.7262 O   0  0  0  0  0  0  0  0  0  0  0  0
   -2.2720    2.7548    1.1655 C   0  0  0  0  0  0  0  0  0  0  0  0
   -1.4257    1.7322    0.7742 C   0  0  0  0  0  0  0  0  0  0  0  0
   -1.8945    0.5869    0.2187 C   0  0  0  0  0  0  0  0  0  0  0  0
   -3.2752    0.4736    0.0530 C   0  0  0  0  0  0  0  0  0  0  0  0
   -4.1334    1.4960    0.4431 C   0  0  0  0  0  0  0  0  0  0  0  0
   -3.6384    2.6604    1.0096 C   0  0  0  0  0  0  0  0  0  0  0  0
   -4.4235    3.7083    1.4174 O   0  0  0  0  0  0  0  0  0  0  0  0
   -5.8257    3.7428    1.3167 C   0  0  0  0  0  0  0  0  0  0  0  0
   -3.7686   -0.6516   -0.4986 N   0  0  0  0  0  0  0  0  0  0  0  0
   -2.9049   -1.6203   -0.8666 C   0  0  0  0  0  0  0  0  0  0  0  0
   -1.5794   -1.5172   -0.7099 N   0  0  0  0  0  0  0  0  0  0  0  0
   -1.0213   -0.4011   -0.1570 C   0  0  0  0  0  0  0  0  0  0  0  0
    0.3885   -0.3255    0.0034 N   0  0  0  0  0  0  0  0  0  0  0  0
    1.0636   -0.2293    1.2626 C   0  0  0  0  0  0  0  0  0  0  0  0
    2.2467    0.6872    1.0817 C   0  0  0  0  0  0  0  0  0  0  0  0
    3.2031    0.0399    0.1842 N   0  0  0  0  0  0  0  0  0  0  0  0
    2.6483   -0.6142   -0.9770 C   0  0  0  0  0  0  0  0  0  0  0  0
    1.1918   -0.3463   -1.1965 C   0  0  0  0  0  0  0  0  0  0  0  0
    4.6002    0.0469    0.4085 C   0  0  0  0  0  0  0  0  0  0  0  0
    5.1520    0.7787    1.4417 C   0  0  0  0  0  0  0  0  0  0  0  0
    6.5322    0.8069    1.6751 C   0  0  0  0  0  0  0  0  0  0  0  0
    7.4064    0.1028    0.8812 C   0  0  0  0  0  0  0  0  0  0  0  0
    6.8655   -0.6295   -0.1511 C   0  0  0  0  0  0  0  0  0  0  0  0
    5.4928   -0.6706   -0.4003 C   0  0  0  0  0  0  0  0  0  0  0  0
    5.0224   -1.4293   -1.4558 O   0  0  0  0  0  0  0  0  0  0  0  0
    5.9442   -2.1400   -2.2516 C   0  0  0  0  0  0  0  0  0  0  0  0
   -3.5185   -2.8517   -1.4765 C   0  0  0  0  0  0  0  0  0  0  0  0
   -5.0060   -2.7019   -1.5317 C   0  0  0  0  0  0  0  0  0  0  0  0
   -5.7340   -3.9000   -2.1359 C   0  0  0  0  0  0  0  0  0  0  0  0
   -5.8872   -3.6229   -0.6977 C   0  0  0  0  0  0  0  0  0  0  0  0
   -0.0661    5.0800    2.1666 H   0  0  0  0  0  0  0  0  0  0  0  0
    0.0547    3.3748    2.6807 H   0  0  0  0  0  0  0  0  0  0  0  0
    0.1019    3.8532    0.8980 H   0  0  0  0  0  0  0  0  0  0  0  0
   -0.3861    1.8735    0.9211 H   0  0  0  0  0  0  0  0  0  0  0  0
   -5.2000    1.4159    0.3185 H   0  0  0  0  0  0  0  0  0  0  0  0
   -6.3023    2.8175    1.6778 H   0  0  0  0  0  0  0  0  0  0  0  0
   -6.1612    3.8903    0.2639 H   0  0  0  0  0  0  0  0  0  0  0  0
   -6.2288    4.5704    1.9358 H   0  0  0  0  0  0  0  0  0  0  0  0
    0.4450   -0.0085    2.1226 H   0  0  0  0  0  0  0  0  0  0  0  0
    1.5115   -1.2451    1.4480 H   0  0  0  0  0  0  0  0  0  0  0  0
    2.0111    1.6623    0.6289 H   0  0  0  0  0  0  0  0  0  0  0  0
    2.6561    0.8587    2.0960 H   0  0  0  0  0  0  0  0  0  0  0  0
    2.7955   -1.6983   -0.8700 H   0  0  0  0  0  0  0  0  0  0  0  0
    3.1506   -0.1688   -1.8773 H   0  0  0  0  0  0  0  0  0  0  0  0
    0.8007   -1.1553   -1.8523 H   0  0  0  0  0  0  0  0  0  0  0  0
    1.0148    0.6099   -1.7305 H   0  0  0  0  0  0  0  0  0  0  0  0
    4.5718    1.3757    2.1325 H   0  0  0  0  0  0  0  0  0  0  0  0
    6.9562    1.3875    2.4931 H   0  0  0  0  0  0  0  0  0  0  0  0
    8.4698    0.0958    1.0236 H   0  0  0  0  0  0  0  0  0  0  0  0
    7.5389   -1.1890   -0.7852 H   0  0  0  0  0  0  0  0  0  0  0  0
    5.4435   -2.7168   -3.0478 H   0  0  0  0  0  0  0  0  0  0  0  0
    6.5441   -2.8632   -1.6485 H   0  0  0  0  0  0  0  0  0  0  0  0
    6.6672   -1.4091   -2.6927 H   0  0  0  0  0  0  0  0  0  0  0  0
   -3.2260   -3.7115   -0.8621 H   0  0  0  0  0  0  0  0  0  0  0  0
   -3.1067   -2.9291   -2.5041 H   0  0  0  0  0  0  0  0  0  0  0  0
   -5.4664   -1.7169   -1.7491 H   0  0  0  0  0  0  0  0  0  0  0  0
   -5.1358   -4.7731   -2.4564 H   0  0  0  0  0  0  0  0  0  0  0  0
   -6.5469   -3.6654   -2.8535 H   0  0  0  0  0  0  0  0  0  0  0  0
   -5.3896   -4.2962    0.0356 H   0  0  0  0  0  0  0  0  0  0  0  0
   -6.8790   -3.2446   -0.3832 H   0  0  0  0  0  0  0  0  0  0  0  0
  1  2  1  0
  2  3  1  0
  3  4  2  0
  4  5  1  0
  5  6  2  0
  6  7  1  0
  7  8  2  0
  8  9  1  0
  9 10  1  0
  6 11  1  0
 11 12  2  0
 12 13  1  0
 13 14  2  0
 14 15  1  0
 15 16  1  0
 16 17  1  0
 17 18  1  0
 18 19  1  0
 19 20  1  0
 18 21  1  0
 21 22  2  0
 22 23  1  0
 23 24  2  0
 24 25  1  0
 25 26  2  0
 26 27  1  0
 27 28  1  0
 12 29  1  0
 29 30  1  0
 30 31  1  0
 31 32  1  0
  8  3  1  0
 20 15  1  0
 26 21  1  0
 32 30  1  0
 14  5  1  0
  1 33  1  0
  1 34  1  0
  1 35  1  0
  4 36  1  0
  7 37  1  0
 10 38  1  0
 10 39  1  0
 10 40  1  0
 16 41  1  0
 16 42  1  0
 17 43  1  0
 17 44  1  0
 19 45  1  0
 19 46  1  0
 20 47  1  0
 20 48  1  0
 22 49  1  0
 23 50  1  0
 24 51  1  0
 25 52  1  0
 28 53  1  0
 28 54  1  0
 28 55  1  0
 29 56  1  0
 29 57  1  0
 30 58  1  0
 31 59  1  0
 31 60  1  0
 32 61  1  0
 32 62  1  0
M  END
>  <Ligand ID>  (1) 
LIG0004868

>  <Ligand>  (1) 
CHEMBL2431122

>  <SMILES>  (1) 
COc1cc2c(cc1OC)nc(nc2N1CCN(CC1)c1ccccc1OC)CC1CC1

>  <CID>  (1) 
56593284.0

>  <ChEMBL ID>  (1) 
nan

>  <InChiKey>  (1) 
PHMXYMYAVOVEDU-UHFFFAOYSA-N

>  <InChi>  (1) 
InChI=1S/C25H30N4O3/c1-30-21-7-5-4-6-20(21)28-10-12-29(13-11-28)25-18-15-22(31-2)23(32-3)16-19(18)26-24(27-25)14-17-8-9-17/h4-7,15-17H,8-14H2,1-3H3

>  <IUPAC Name>  (1) 
2-(cyclopropylmethyl)-6,7-dimethoxy-4-[4-(2-methoxyphenyl)piperazin-1-yl]quinazoline

$$$$
