
     RDKit          3D

 88 91  0  0  0  0  0  0  0  0999 V2000
    7.8114    2.0968    0.3006 C   0  0  0  0  0  0  0  0  0  0  0  0
    7.8349    0.8074    0.9673 N   0  0  0  0  0  0  0  0  0  0  0  0
    8.3165    0.8923    2.3130 C   0  0  0  0  0  0  0  0  0  0  0  0
    7.5257   -0.0585    3.1802 C   0  0  0  0  0  0  0  0  0  0  0  0
    6.1826    0.4950    3.2973 N   0  0  0  0  0  0  0  0  0  0  0  0
    5.5953    0.6867    1.9857 C   0  0  1  0  0  0  0  0  0  0  0  0
    6.5293    0.2287    0.8862 C   0  0  0  0  0  0  0  0  0  0  0  0
    4.3247   -0.0689    1.8397 C   0  0  0  0  0  0  0  0  0  0  0  0
    3.8994   -0.7531    2.7943 O   0  0  0  0  0  0  0  0  0  0  0  0
    3.6165    0.0028    0.6114 N   0  0  0  0  0  0  0  0  0  0  0  0
    2.3658   -0.7475    0.4851 C   0  0  1  0  0  0  0  0  0  0  0  0
    1.3238    0.2376    0.0931 C   0  0  0  0  0  0  0  0  0  0  0  0
    1.7641    1.4281   -0.1060 O   0  0  0  0  0  0  0  0  0  0  0  0
   -0.0371   -0.0406   -0.0629 N   0  0  0  0  0  0  0  0  0  0  0  0
   -0.6511   -1.3441    0.1507 C   0  0  0  0  0  0  0  0  0  0  0  0
   -2.0119   -1.0836    0.7800 C   0  0  0  0  0  0  0  0  0  0  0  0
   -2.9601   -0.3797   -0.1432 C   0  0  0  0  0  0  0  0  0  0  0  0
   -2.1006    0.3475   -1.1707 C   0  0  0  0  0  0  0  0  0  0  0  0
   -0.9261    1.0289   -0.4702 C   0  0  0  0  0  0  0  0  0  0  0  0
   -3.9906   -1.2224   -0.7893 C   0  0  0  0  0  0  0  0  0  0  0  0
   -4.8636   -1.8625    0.2687 C   0  0  0  0  0  0  0  0  0  0  0  0
   -6.1224   -2.4487   -0.3474 C   0  0  0  0  0  0  0  0  0  0  0  0
   -5.9750   -2.5401   -1.8519 C   0  0  0  0  0  0  0  0  0  0  0  0
   -4.6378   -3.1552   -2.1557 C   0  0  0  0  0  0  0  0  0  0  0  0
   -3.4678   -2.3048   -1.7032 C   0  0  0  0  0  0  0  0  0  0  0  0
   -3.7060    0.6412    0.6822 C   0  0  0  0  0  0  0  0  0  0  0  0
   -3.4082    0.6962    1.9040 O   0  0  0  0  0  0  0  0  0  0  0  0
   -4.6893    1.4906    0.1048 N   0  0  0  0  0  0  0  0  0  0  0  0
   -5.4146    2.4761    0.8822 C   0  0  0  0  0  0  0  0  0  0  0  0
   -6.3942    3.2437    0.0380 C   0  0  0  0  0  0  0  0  0  0  0  0
   -6.2558    1.7559    1.9439 C   0  0  0  0  0  0  0  0  0  0  0  0
   -4.4723    3.4638    1.5129 C   0  0  0  0  0  0  0  0  0  0  0  0
    2.4826   -1.7573   -0.6417 C   0  0  0  0  0  0  0  0  0  0  0  0
    2.7558   -1.1560   -1.9493 C   0  0  0  0  0  0  0  0  0  0  0  0
    4.0837   -0.9749   -2.3102 C   0  0  0  0  0  0  0  0  0  0  0  0
    4.4572   -0.4206   -3.5169 C   0  0  0  0  0  0  0  0  0  0  0  0
    3.4933   -0.0173   -4.4291 C   0  0  0  0  0  0  0  0  0  0  0  0
    2.1714   -0.1988   -4.0673 C   0  0  0  0  0  0  0  0  0  0  0  0
    1.7980   -0.7561   -2.8541 C   0  0  0  0  0  0  0  0  0  0  0  0
    3.8432    0.5294   -5.6181 F   0  0  0  0  0  0  0  0  0  0  0  0
    7.5799    1.9118   -0.7669 H   0  0  0  0  0  0  0  0  0  0  0  0
    8.7240    2.6952    0.4458 H   0  0  0  0  0  0  0  0  0  0  0  0
    6.9214    2.6556    0.7058 H   0  0  0  0  0  0  0  0  0  0  0  0
    9.3855    0.5603    2.2983 H   0  0  0  0  0  0  0  0  0  0  0  0
    8.2490    1.9148    2.7362 H   0  0  0  0  0  0  0  0  0  0  0  0
    7.4633   -1.0563    2.6666 H   0  0  0  0  0  0  0  0  0  0  0  0
    7.9657   -0.1857    4.1722 H   0  0  0  0  0  0  0  0  0  0  0  0
    5.5714   -0.0428    3.9352 H   0  0  0  0  0  0  0  0  0  0  0  0
    5.3702    1.7640    1.8756 H   0  0  0  0  0  0  0  0  0  0  0  0
    6.0260    0.5379   -0.0700 H   0  0  0  0  0  0  0  0  0  0  0  0
    6.5022   -0.8779    0.8778 H   0  0  0  0  0  0  0  0  0  0  0  0
    3.9241    0.5560   -0.2152 H   0  0  0  0  0  0  0  0  0  0  0  0
    2.1011   -1.2970    1.4059 H   0  0  0  0  0  0  0  0  0  0  0  0
   -0.7184   -1.8373   -0.8144 H   0  0  0  0  0  0  0  0  0  0  0  0
   -0.0894   -1.9459    0.8918 H   0  0  0  0  0  0  0  0  0  0  0  0
   -1.7758   -0.3971    1.6492 H   0  0  0  0  0  0  0  0  0  0  0  0
   -2.4216   -1.9838    1.2592 H   0  0  0  0  0  0  0  0  0  0  0  0
   -1.7219   -0.3754   -1.9018 H   0  0  0  0  0  0  0  0  0  0  0  0
   -2.6441    1.1339   -1.6936 H   0  0  0  0  0  0  0  0  0  0  0  0
   -0.4836    1.7472   -1.1672 H   0  0  0  0  0  0  0  0  0  0  0  0
   -1.2870    1.5322    0.4543 H   0  0  0  0  0  0  0  0  0  0  0  0
   -4.6278   -0.5676   -1.4550 H   0  0  0  0  0  0  0  0  0  0  0  0
   -4.2494   -2.6603    0.7526 H   0  0  0  0  0  0  0  0  0  0  0  0
   -5.1907   -1.0819    0.9845 H   0  0  0  0  0  0  0  0  0  0  0  0
   -6.2138   -3.4860    0.0335 H   0  0  0  0  0  0  0  0  0  0  0  0
   -7.0217   -1.8628   -0.0839 H   0  0  0  0  0  0  0  0  0  0  0  0
   -6.7343   -3.2744   -2.1924 H   0  0  0  0  0  0  0  0  0  0  0  0
   -6.1513   -1.5837   -2.3591 H   0  0  0  0  0  0  0  0  0  0  0  0
   -4.6181   -3.3099   -3.2674 H   0  0  0  0  0  0  0  0  0  0  0  0
   -4.6265   -4.1695   -1.7083 H   0  0  0  0  0  0  0  0  0  0  0  0
   -2.7736   -2.9929   -1.2056 H   0  0  0  0  0  0  0  0  0  0  0  0
   -3.0687   -1.8050   -2.6095 H   0  0  0  0  0  0  0  0  0  0  0  0
   -4.9159    1.4228   -0.9128 H   0  0  0  0  0  0  0  0  0  0  0  0
   -5.9801    3.4773   -0.9561 H   0  0  0  0  0  0  0  0  0  0  0  0
   -6.6243    4.2136    0.5308 H   0  0  0  0  0  0  0  0  0  0  0  0
   -7.3377    2.6459   -0.0698 H   0  0  0  0  0  0  0  0  0  0  0  0
   -6.6944    0.8758    1.4570 H   0  0  0  0  0  0  0  0  0  0  0  0
   -7.0557    2.4518    2.3130 H   0  0  0  0  0  0  0  0  0  0  0  0
   -5.6482    1.4842    2.8304 H   0  0  0  0  0  0  0  0  0  0  0  0
   -4.8616    3.8109    2.4948 H   0  0  0  0  0  0  0  0  0  0  0  0
   -3.4724    3.0226    1.6803 H   0  0  0  0  0  0  0  0  0  0  0  0
   -4.3074    4.3618    0.8645 H   0  0  0  0  0  0  0  0  0  0  0  0
    3.3176   -2.4787   -0.3859 H   0  0  0  0  0  0  0  0  0  0  0  0
    1.5926   -2.4021   -0.7204 H   0  0  0  0  0  0  0  0  0  0  0  0
    4.8922   -1.2668   -1.6476 H   0  0  0  0  0  0  0  0  0  0  0  0
    5.5189   -0.2962   -3.7614 H   0  0  0  0  0  0  0  0  0  0  0  0
    1.3632    0.0894   -4.7226 H   0  0  0  0  0  0  0  0  0  0  0  0
    0.7569   -0.8861   -2.6007 H   0  0  0  0  0  0  0  0  0  0  0  0
  1  2  1  0
  2  3  1  0
  3  4  1  0
  4  5  1  0
  5  6  1  0
  6  7  1  0
  6  8  1  0
  8  9  2  0
  8 10  1  0
 10 11  1  0
 11 12  1  0
 12 13  2  0
 12 14  1  0
 14 15  1  0
 15 16  1  0
 16 17  1  0
 17 18  1  0
 18 19  1  0
 17 20  1  0
 20 21  1  0
 21 22  1  0
 22 23  1  0
 23 24  1  0
 24 25  1  0
 17 26  1  0
 26 27  2  0
 26 28  1  0
 28 29  1  0
 29 30  1  0
 29 31  1  0
 29 32  1  0
 11 33  1  0
 33 34  1  0
 34 35  2  0
 35 36  1  0
 36 37  2  0
 37 38  1  0
 38 39  2  0
 37 40  1  0
  7  2  1  0
 19 14  1  0
 25 20  1  0
 39 34  1  0
  1 41  1  0
  1 42  1  0
  1 43  1  0
  3 44  1  0
  3 45  1  0
  4 46  1  0
  4 47  1  0
  5 48  1  0
  6 49  1  6
  7 50  1  0
  7 51  1  0
 10 52  1  0
 11 53  1  1
 15 54  1  0
 15 55  1  0
 16 56  1  0
 16 57  1  0
 18 58  1  0
 18 59  1  0
 19 60  1  0
 19 61  1  0
 20 62  1  0
 21 63  1  0
 21 64  1  0
 22 65  1  0
 22 66  1  0
 23 67  1  0
 23 68  1  0
 24 69  1  0
 24 70  1  0
 25 71  1  0
 25 72  1  0
 28 73  1  0
 30 74  1  0
 30 75  1  0
 30 76  1  0
 31 77  1  0
 31 78  1  0
 31 79  1  0
 32 80  1  0
 32 81  1  0
 32 82  1  0
 33 83  1  0
 33 84  1  0
 35 85  1  0
 36 86  1  0
 38 87  1  0
 39 88  1  0
M  END
>  <Ligand ID>  (1) 
LIG0001477

>  <Ligand>  (1) 
CHEMBL368876

>  <SMILES>  (1) 
CN1CCN[C@@H](C1)C(=O)N[C@@H](C(=O)N1CCC(CC1)(C1CCCCC1)C(=O)NC(C)(C)C)Cc1ccc(cc1)F

>  <CID>  (1) 
6918813.0

>  <ChEMBL ID>  (1) 
nan

>  <InChiKey>  (1) 
YDGSHFJUSTYFRE-FTJBHMTQSA-N

>  <InChi>  (1) 
InChI=1S/C31H48FN5O3/c1-30(2,3)35-29(40)31(23-8-6-5-7-9-23)14-17-37(18-15-31)28(39)25(20-22-10-12-24(32)13-11-22)34-27(38)26-21-36(4)19-16-33-26/h10-13,23,25-26,33H,5-9,14-21H2,1-4H3,(H,34,38)(H,35,40)/t25-,26+/m1/s1

>  <IUPAC Name>  (1) 
(2S)-N-[(2R)-1-[4-(tert-butylcarbamoyl)-4-cyclohexylpiperidin-1-yl]-3-(4-fluorophenyl)-1-oxopropan-2-yl]-4-methylpiperazine-2-carboxamide

$$$$
