
     RDKit          3D

 88 92  0  0  0  0  0  0  0  0999 V2000
    0.3314    7.4880   -1.2285 N   0  0  0  0  0  0  0  0  0  0  0  0
    1.0656    7.5122   -0.0252 C   0  0  0  0  0  0  0  0  0  0  0  0
    1.4114    6.5192    0.6811 N   0  0  0  0  0  0  0  0  0  0  0  0
    1.1377    5.1656    0.4200 C   0  0  0  0  0  0  0  0  0  0  0  0
    1.1141    4.7182   -1.0026 C   0  0  0  0  0  0  0  0  0  0  0  0
    0.8295    3.2733   -0.9847 N   0  0  0  0  0  0  0  0  0  0  0  0
    0.7523    2.6144   -2.2125 C   0  0  0  0  0  0  0  0  0  0  0  0
    0.9454    3.3727   -3.2505 O   0  0  0  0  0  0  0  0  0  0  0  0
    0.4905    1.2188   -2.4972 C   0  0  1  0  0  0  0  0  0  0  0  0
    1.7937    0.5872   -3.0358 C   0  0  0  0  0  0  0  0  0  0  0  0
    2.5077    0.0566   -1.8383 C   0  0  2  0  0  0  0  0  0  0  0  0
    1.4806   -0.0227   -0.7394 C   0  0  0  0  0  0  0  0  0  0  0  0
    0.2439    0.3197   -1.4047 N   0  0  0  0  0  0  0  0  0  0  0  0
   -1.0832   -0.1800   -1.0897 C   0  0  0  0  0  0  0  0  0  0  0  0
   -2.0920    0.1606   -1.7317 O   0  0  0  0  0  0  0  0  0  0  0  0
   -1.2048   -1.1343    0.0386 C   0  0  2  0  0  0  0  0  0  0  0  0
   -2.5555   -1.7520   -0.0418 N   0  0  0  0  0  0  0  0  0  0  0  0
   -2.6551   -3.1615   -0.0356 C   0  0  0  0  0  0  0  0  0  0  0  0
   -1.5850   -3.8434    0.0388 O   0  0  0  0  0  0  0  0  0  0  0  0
   -3.9168   -3.9190   -0.1090 C   0  0  2  0  0  0  0  0  0  0  0  0
   -3.8315   -4.9104   -1.2497 C   0  0  0  0  0  0  0  0  0  0  0  0
   -5.0739   -5.7739   -1.3209 C   0  0  0  0  0  0  0  0  0  0  0  0
   -6.1378   -5.2521   -0.3682 C   0  0  0  0  0  0  0  0  0  0  0  0
   -6.2594   -3.7662   -0.5946 C   0  0  0  0  0  0  0  0  0  0  0  0
   -5.0525   -3.0582   -0.2072 N   0  0  0  0  0  0  0  0  0  0  0  0
   -1.1812   -0.2947    1.3246 C   0  0  0  0  0  0  0  0  0  0  0  0
   -2.3312    0.6201    1.3426 C   0  0  0  0  0  0  0  0  0  0  0  0
   -3.4929    0.1582    1.9626 C   0  0  0  0  0  0  0  0  0  0  0  0
   -4.6382    0.9187    2.0394 C   0  0  0  0  0  0  0  0  0  0  0  0
   -4.6860    2.1988    1.4939 C   0  0  0  0  0  0  0  0  0  0  0  0
   -3.5366    2.6600    0.8787 C   0  0  0  0  0  0  0  0  0  0  0  0
   -2.3850    1.8762    0.8097 C   0  0  0  0  0  0  0  0  0  0  0  0
    3.5488    0.8313   -1.4136 O   0  0  0  0  0  0  0  0  0  0  0  0
    4.7788    0.2646   -1.3026 C   0  0  0  0  0  0  0  0  0  0  0  0
    4.8965   -0.8653   -0.3538 C   0  0  0  0  0  0  0  0  0  0  0  0
    4.7715   -2.1890   -0.6995 C   0  0  0  0  0  0  0  0  0  0  0  0
    4.8849   -3.1579    0.2711 C   0  0  0  0  0  0  0  0  0  0  0  0
    5.1239   -2.8648    1.6075 C   0  0  0  0  0  0  0  0  0  0  0  0
    5.2470   -1.5293    1.9356 C   0  0  0  0  0  0  0  0  0  0  0  0
    5.1357   -0.5436    0.9733 C   0  0  0  0  0  0  0  0  0  0  0  0
    5.4869   -1.1800    3.2695 C   0  0  0  0  0  0  0  0  0  0  0  0
    5.5936   -2.1540    4.2122 C   0  0  0  0  0  0  0  0  0  0  0  0
    5.4732   -3.5094    3.9073 C   0  0  0  0  0  0  0  0  0  0  0  0
    5.2344   -3.8437    2.5748 C   0  0  0  0  0  0  0  0  0  0  0  0
    1.4612    8.8103    0.4497 N   0  0  0  0  0  0  0  0  0  0  0  0
    0.8870    7.4587   -2.1197 H   0  0  0  0  0  0  0  0  0  0  0  0
   -0.6958    7.4967   -1.3165 H   0  0  0  0  0  0  0  0  0  0  0  0
    1.9067    4.5099    0.9330 H   0  0  0  0  0  0  0  0  0  0  0  0
    0.1556    4.8643    0.8990 H   0  0  0  0  0  0  0  0  0  0  0  0
    2.0356    4.9551   -1.5311 H   0  0  0  0  0  0  0  0  0  0  0  0
    0.2512    5.2004   -1.5300 H   0  0  0  0  0  0  0  0  0  0  0  0
    0.6947    2.7679   -0.1164 H   0  0  0  0  0  0  0  0  0  0  0  0
   -0.2684    1.0815   -3.3127 H   0  0  0  0  0  0  0  0  0  0  0  0
    1.5181   -0.2275   -3.7441 H   0  0  0  0  0  0  0  0  0  0  0  0
    2.2996    1.3847   -3.5829 H   0  0  0  0  0  0  0  0  0  0  0  0
    2.8240   -0.9876   -2.0538 H   0  0  0  0  0  0  0  0  0  0  0  0
    1.4276   -1.0595   -0.3076 H   0  0  0  0  0  0  0  0  0  0  0  0
    1.6987    0.7191    0.0232 H   0  0  0  0  0  0  0  0  0  0  0  0
   -0.4885   -1.9298    0.0355 H   0  0  0  0  0  0  0  0  0  0  0  0
   -3.4112   -1.1638   -0.1031 H   0  0  0  0  0  0  0  0  0  0  0  0
   -4.0015   -4.5266    0.8155 H   0  0  0  0  0  0  0  0  0  0  0  0
   -3.6367   -4.4313   -2.2332 H   0  0  0  0  0  0  0  0  0  0  0  0
   -2.9769   -5.5858   -1.0341 H   0  0  0  0  0  0  0  0  0  0  0  0
   -4.8667   -6.8274   -1.0444 H   0  0  0  0  0  0  0  0  0  0  0  0
   -5.4929   -5.7461   -2.3367 H   0  0  0  0  0  0  0  0  0  0  0  0
   -7.0981   -5.7102   -0.6384 H   0  0  0  0  0  0  0  0  0  0  0  0
   -5.8796   -5.4391    0.7015 H   0  0  0  0  0  0  0  0  0  0  0  0
   -6.3885   -3.6159   -1.7049 H   0  0  0  0  0  0  0  0  0  0  0  0
   -7.1246   -3.3392   -0.0543 H   0  0  0  0  0  0  0  0  0  0  0  0
   -4.8138   -2.3405   -0.9565 H   0  0  0  0  0  0  0  0  0  0  0  0
   -1.2011   -0.9288    2.2211 H   0  0  0  0  0  0  0  0  0  0  0  0
   -0.2253    0.2498    1.3423 H   0  0  0  0  0  0  0  0  0  0  0  0
   -3.5265   -0.8262    2.4079 H   0  0  0  0  0  0  0  0  0  0  0  0
   -5.5541    0.5784    2.5167 H   0  0  0  0  0  0  0  0  0  0  0  0
   -5.5870    2.7768    1.5637 H   0  0  0  0  0  0  0  0  0  0  0  0
   -3.5835    3.6516    0.4599 H   0  0  0  0  0  0  0  0  0  0  0  0
   -1.5245    2.2661    0.3259 H   0  0  0  0  0  0  0  0  0  0  0  0
    5.1981   -0.0853   -2.2891 H   0  0  0  0  0  0  0  0  0  0  0  0
    5.4893    1.0998   -1.0219 H   0  0  0  0  0  0  0  0  0  0  0  0
    4.5956   -2.4832   -1.7046 H   0  0  0  0  0  0  0  0  0  0  0  0
    4.7929   -4.2320    0.0491 H   0  0  0  0  0  0  0  0  0  0  0  0
    5.2393    0.4976    1.2712 H   0  0  0  0  0  0  0  0  0  0  0  0
    5.5758   -0.1106    3.4733 H   0  0  0  0  0  0  0  0  0  0  0  0
    5.7786   -1.8741    5.2398 H   0  0  0  0  0  0  0  0  0  0  0  0
    5.5592   -4.2798    4.6648 H   0  0  0  0  0  0  0  0  0  0  0  0
    5.1289   -4.8588    2.2533 H   0  0  0  0  0  0  0  0  0  0  0  0
    2.2593    8.9288    1.1324 H   0  0  0  0  0  0  0  0  0  0  0  0
    0.9880    9.6826    0.1487 H   0  0  0  0  0  0  0  0  0  0  0  0
  1  2  1  0
  2  3  2  3
  3  4  1  0
  4  5  1  0
  5  6  1  0
  6  7  1  0
  7  8  2  0
  7  9  1  0
  9 10  1  0
 10 11  1  0
 11 12  1  0
 12 13  1  0
 13 14  1  0
 14 15  2  0
 14 16  1  0
 16 17  1  0
 17 18  1  0
 18 19  2  0
 18 20  1  0
 20 21  1  0
 21 22  1  0
 22 23  1  0
 23 24  1  0
 24 25  1  0
 16 26  1  0
 26 27  1  0
 27 28  2  0
 28 29  1  0
 29 30  2  0
 30 31  1  0
 31 32  2  0
 11 33  1  0
 33 34  1  0
 34 35  1  0
 35 36  2  0
 36 37  1  0
 37 38  2  0
 38 39  1  0
 39 40  2  0
 39 41  1  0
 41 42  2  0
 42 43  1  0
 43 44  2  0
  2 45  1  0
 13  9  1  0
 25 20  1  0
 32 27  1  0
 40 35  1  0
 44 38  1  0
  1 46  1  0
  1 47  1  0
  4 48  1  0
  4 49  1  0
  5 50  1  0
  5 51  1  0
  6 52  1  0
  9 53  1  6
 10 54  1  0
 10 55  1  0
 11 56  1  6
 12 57  1  0
 12 58  1  0
 16 59  1  1
 17 60  1  0
 20 61  1  1
 21 62  1  0
 21 63  1  0
 22 64  1  0
 22 65  1  0
 23 66  1  0
 23 67  1  0
 24 68  1  0
 24 69  1  0
 25 70  1  0
 26 71  1  0
 26 72  1  0
 28 73  1  0
 29 74  1  0
 30 75  1  0
 31 76  1  0
 32 77  1  0
 34 78  1  0
 34 79  1  0
 36 80  1  0
 37 81  1  0
 40 82  1  0
 41 83  1  0
 42 84  1  0
 43 85  1  0
 44 86  1  0
 45 87  1  0
 45 88  1  0
M  END
>  <Ligand ID>  (1) 
LIG0003101

>  <Ligand>  (1) 
CHEMBL211798

>  <SMILES>  (1) 
NC(=NCCNC(=O)[C@H]1C[C@H](CN1C(=O)[C@H](NC(=O)[C@@H]1CCCCN1)Cc1ccccc1)OCc1ccc2c(c1)cccc2)N

>  <CID>  (1) 
11847312.0

>  <ChEMBL ID>  (1) 
nan

>  <InChiKey>  (1) 
LKXMYEXGCGGDSC-GOGZTAQTSA-N

>  <InChi>  (1) 
InChI=1S/C34H43N7O4/c35-34(36)39-17-16-38-32(43)30-20-27(45-22-24-13-14-25-10-4-5-11-26(25)18-24)21-41(30)33(44)29(19-23-8-2-1-3-9-23)40-31(42)28-12-6-7-15-37-28/h1-5,8-11,13-14,18,27-30,37H,6-7,12,15-17,19-22H2,(H,38,43)(H,40,42)(H4,35,36,39)/t27-,28+,29-,30-/m1/s1

>  <IUPAC Name>  (1) 
(2S)-N-[(2R)-1-[(2R,4R)-2-[2-(diaminomethylideneamino)ethylcarbamoyl]-4-(naphthalen-2-ylmethoxy)pyrrolidin-1-yl]-1-oxo-3-phenylpropan-2-yl]piperidine-2-carboxamide

$$$$
