
     RDKit          3D

 45 45  0  0  0  0  0  0  0  0999 V2000
    3.5238   -2.5104   -1.4455 C   0  0  0  0  0  0  0  0  0  0  0  0
    3.7786   -1.5716   -0.4466 O   0  0  0  0  0  0  0  0  0  0  0  0
    2.8719   -0.6423    0.0108 C   0  0  0  0  0  0  0  0  0  0  0  0
    1.6203   -0.6318   -0.5532 C   0  0  0  0  0  0  0  0  0  0  0  0
    0.6563    0.2652   -0.1524 C   0  0  0  0  0  0  0  0  0  0  0  0
    0.9995    1.1532    0.8413 C   0  0  0  0  0  0  0  0  0  0  0  0
    2.2759    1.1409    1.4168 C   0  0  0  0  0  0  0  0  0  0  0  0
    3.2492    0.2532    1.0252 C   0  0  0  0  0  0  0  0  0  0  0  0
    4.5040    0.1436    1.5019 O   0  0  0  0  0  0  0  0  0  0  0  0
    5.7434    0.5438    1.1192 C   0  0  0  0  0  0  0  0  0  0  0  0
    6.0667    1.9515    0.8883 C   0  0  0  0  0  0  0  0  0  0  0  0
    5.3215    2.9400    0.9317 O   0  0  0  0  0  0  0  0  0  0  0  0
    7.4210    2.2281    0.5697 O   0  0  0  0  0  0  0  0  0  0  0  0
    2.5826    2.4975    2.9975 I   0  0  0  0  0  0  0  0  0  0  0  0
   -0.7014    0.2873   -0.7560 C   0  0  0  0  0  0  0  0  0  0  0  0
   -1.6281   -1.0992   -0.0881 P   0  0  0  0  0  0  0  0  0  0  0  0
   -1.2348   -2.3575   -0.8044 O   0  0  0  0  0  0  0  0  0  0  0  0
   -3.4091   -0.8425   -0.1285 C   0  0  0  0  0  0  0  0  0  0  0  0
   -3.8313    0.4727   -0.7103 C   0  0  0  0  0  0  0  0  0  0  0  0
   -5.3527    0.5226   -0.6676 C   0  0  2  0  0  0  0  0  0  0  0  0
   -5.8098    0.4031    0.7586 C   0  0  0  0  0  0  0  0  0  0  0  0
   -6.6137   -0.5248    1.0984 O   0  0  0  0  0  0  0  0  0  0  0  0
   -5.3281    1.3304    1.6773 O   0  0  0  0  0  0  0  0  0  0  0  0
   -5.9761   -0.5302   -1.4110 N   0  0  0  0  0  0  0  0  0  0  0  0
   -1.1755   -1.3095    1.5382 O   0  0  0  0  0  0  0  0  0  0  0  0
   -0.5399    0.1900   -2.1374 O   0  0  0  0  0  0  0  0  0  0  0  0
    3.0055   -3.4363   -1.0614 H   0  0  0  0  0  0  0  0  0  0  0  0
    4.5222   -2.8066   -1.8800 H   0  0  0  0  0  0  0  0  0  0  0  0
    2.9757   -2.0622   -2.2946 H   0  0  0  0  0  0  0  0  0  0  0  0
    1.3310   -1.3262   -1.3383 H   0  0  0  0  0  0  0  0  0  0  0  0
    0.2425    1.8618    1.1602 H   0  0  0  0  0  0  0  0  0  0  0  0
    6.0160   -0.0189    0.1541 H   0  0  0  0  0  0  0  0  0  0  0  0
    6.5011    0.0780    1.8416 H   0  0  0  0  0  0  0  0  0  0  0  0
    7.7490    3.1633    0.7657 H   0  0  0  0  0  0  0  0  0  0  0  0
   -1.1532    1.2635   -0.5216 H   0  0  0  0  0  0  0  0  0  0  0  0
   -3.8548   -1.6359   -0.7970 H   0  0  0  0  0  0  0  0  0  0  0  0
   -3.8931   -0.9362    0.8605 H   0  0  0  0  0  0  0  0  0  0  0  0
   -3.4939    1.3246   -0.0593 H   0  0  0  0  0  0  0  0  0  0  0  0
   -3.5548    0.6031   -1.7635 H   0  0  0  0  0  0  0  0  0  0  0  0
   -5.7383    1.4991   -1.0250 H   0  0  0  0  0  0  0  0  0  0  0  0
   -5.4787    1.1876    2.6725 H   0  0  0  0  0  0  0  0  0  0  0  0
   -5.8820   -1.4593   -0.9902 H   0  0  0  0  0  0  0  0  0  0  0  0
   -5.9183   -0.4662   -2.4330 H   0  0  0  0  0  0  0  0  0  0  0  0
   -1.3636   -0.5102    2.0782 H   0  0  0  0  0  0  0  0  0  0  0  0
   -1.0267   -0.6263   -2.4432 H   0  0  0  0  0  0  0  0  0  0  0  0
  1  2  1  0
  2  3  1  0
  3  4  2  0
  4  5  1  0
  5  6  2  0
  6  7  1  0
  7  8  2  0
  8  9  1  0
  9 10  1  0
 10 11  1  0
 11 12  2  0
 11 13  1  0
  7 14  1  0
  5 15  1  0
 15 16  1  0
 16 17  2  0
 16 18  1  0
 18 19  1  0
 19 20  1  0
 20 21  1  0
 21 22  2  0
 21 23  1  0
 20 24  1  0
 16 25  1  0
 15 26  1  0
  8  3  1  0
  1 27  1  0
  1 28  1  0
  1 29  1  0
  4 30  1  0
  6 31  1  0
 10 32  1  0
 10 33  1  0
 13 34  1  0
 15 35  1  0
 18 36  1  0
 18 37  1  0
 19 38  1  0
 19 39  1  0
 20 40  1  6
 23 41  1  0
 24 42  1  0
 24 43  1  0
 25 44  1  0
 26 45  1  0
M  END
>  <Ligand ID>  (1) 
LIG0004726

>  <Ligand>  (1) 
US9212196, Derivative 8

>  <SMILES>  (1) 
COc1cc(cc(c1OCC(=O)O)I)C(P(=O)(CC[C@H](C(=O)O)N)O)O

>  <CID>  (1) 
122197940.0

>  <ChEMBL ID>  (1) 
nan

>  <InChiKey>  (1) 
ZSCCFTCROHWQGM-UCWRFOARSA-N

>  <InChi>  (1) 
InChI=1S/C14H19INO9P/c1-24-10-5-7(4-8(15)12(10)25-6-11(17)18)14(21)26(22,23)3-2-9(16)13(19)20/h4-5,9,14,21H,2-3,6,16H2,1H3,(H,17,18)(H,19,20)(H,22,23)/t9-,14?/m1/s1

>  <IUPAC Name>  (1) 
(2R)-2-amino-4-[[[4-(carboxymethoxy)-3-iodo-5-methoxyphenyl]-hydroxymethyl]-hydroxyphosphoryl]butanoic acid

$$$$
