
     RDKit          3D

 81 81  0  0  0  0  0  0  0  0999 V2000
   -0.9842   -0.0314    0.0682 C   0  0  0  0  0  0  0  0  0  0  0  0
    0.4536    0.2667   -0.1319 C   0  0  0  0  0  0  0  0  0  0  0  0
    0.8246    1.3091   -0.7717 O   0  0  0  0  0  0  0  0  0  0  0  0
    1.4340   -0.5994    0.3831 O   0  0  0  0  0  0  0  0  0  0  0  0
  -11.1457   -0.2501    0.4226 O   0  0  0  0  0  0  0  0  0  0  0  0
  -10.1899    0.3449    1.2698 C   0  0  0  0  0  0  0  0  0  0  0  0
   -9.0304    0.6921    0.3696 C   0  0  0  0  0  0  0  0  0  0  0  0
   -7.8819   -0.0661    0.3830 C   0  0  0  0  0  0  0  0  0  0  0  0
   -6.8664    0.3135   -0.4589 C   0  0  0  0  0  0  0  0  0  0  0  0
   -6.9428    1.4060   -1.3079 C   0  0  0  0  0  0  0  0  0  0  0  0
   -8.1005    2.1657   -1.3178 C   0  0  0  0  0  0  0  0  0  0  0  0
   -9.1436    1.8030   -0.4751 C   0  0  0  0  0  0  0  0  0  0  0  0
  -10.3369    2.5535   -0.4599 O   0  0  0  0  0  0  0  0  0  0  0  0
   -5.5509   -0.4403   -0.5157 C   0  0  2  0  0  0  0  0  0  0  0  0
   -4.4896    0.3179    0.2027 C   0  0  0  0  0  0  0  0  0  0  0  0
   -3.2228   -0.3443    0.0678 N   0  0  0  0  0  0  0  0  0  0  0  0
   -3.1985   -1.5959    0.7792 C   0  0  0  0  0  0  0  0  0  0  0  0
   -1.8177   -2.2371    0.8002 C   0  0  0  0  0  0  0  0  0  0  0  0
   -0.8034   -1.3500    1.4948 C   0  0  0  0  0  0  0  0  0  0  0  0
   -0.5981   -0.0228    0.8420 C   0  0  0  0  0  0  0  0  0  0  0  0
   -0.0628   -0.1248   -0.5612 C   0  0  0  0  0  0  0  0  0  0  0  0
    1.3729   -0.7608   -0.4611 C   0  0  0  0  0  0  0  0  0  0  0  0
    2.1170    0.0465    0.2702 O   0  0  0  0  0  0  0  0  0  0  0  0
    3.3460   -0.0108    0.7010 C   0  0  0  0  0  0  0  0  0  0  0  0
    4.5082   -0.1226   -0.2480 C   0  0  0  0  0  0  0  0  0  0  0  0
    4.6237   -1.3567   -1.0479 C   0  0  0  0  0  0  0  0  0  0  0  0
    5.8413   -1.2608   -1.9623 C   0  0  0  0  0  0  0  0  0  0  0  0
    7.0367   -1.0416   -1.1221 C   0  0  0  0  0  0  0  0  0  0  0  0
    7.7517   -2.0457   -0.5141 C   0  0  0  0  0  0  0  0  0  0  0  0
    8.8816   -1.6858    0.2242 C   0  0  0  0  0  0  0  0  0  0  0  0
    9.2911   -0.3791    0.3563 C   0  0  0  0  0  0  0  0  0  0  0  0
    8.5850    0.6159   -0.2451 C   0  0  0  0  0  0  0  0  0  0  0  0
    7.4614    0.2749   -0.9803 C   0  0  0  0  0  0  0  0  0  0  0  0
    8.9358    2.0010   -0.1681 N   0  0  0  0  0  0  0  0  0  0  0  0
    8.4101    2.8228    0.8704 C   0  0  0  0  0  0  0  0  0  0  0  0
    7.6376    2.3618    1.7346 O   0  0  0  0  0  0  0  0  0  0  0  0
    8.8041    4.2020    0.8807 N   0  0  0  0  0  0  0  0  0  0  0  0
   -5.2459   -0.5539   -1.8735 O   0  0  0  0  0  0  0  0  0  0  0  0
   -1.1183   -1.1198    0.2124 H   0  0  0  0  0  0  0  0  0  0  0  0
   -1.6104    0.2729   -0.7914 H   0  0  0  0  0  0  0  0  0  0  0  0
   -1.3757    0.4358    1.0094 H   0  0  0  0  0  0  0  0  0  0  0  0
    2.3764   -0.5339    0.0220 H   0  0  0  0  0  0  0  0  0  0  0  0
  -10.6983   -0.7168   -0.3458 H   0  0  0  0  0  0  0  0  0  0  0  0
  -10.5760    1.2444    1.7482 H   0  0  0  0  0  0  0  0  0  0  0  0
   -9.8385   -0.4302    1.9747 H   0  0  0  0  0  0  0  0  0  0  0  0
   -7.7687   -0.9354    1.0313 H   0  0  0  0  0  0  0  0  0  0  0  0
   -6.1333    1.7007   -1.9703 H   0  0  0  0  0  0  0  0  0  0  0  0
   -8.1749    3.0318   -1.9837 H   0  0  0  0  0  0  0  0  0  0  0  0
  -10.6298    2.9657   -1.3336 H   0  0  0  0  0  0  0  0  0  0  0  0
   -5.7446   -1.4293   -0.0742 H   0  0  0  0  0  0  0  0  0  0  0  0
   -4.7285    0.4574    1.2807 H   0  0  0  0  0  0  0  0  0  0  0  0
   -4.3835    1.3255   -0.2745 H   0  0  0  0  0  0  0  0  0  0  0  0
   -3.0372   -0.5200   -0.9646 H   0  0  0  0  0  0  0  0  0  0  0  0
   -3.8909   -2.3493    0.3186 H   0  0  0  0  0  0  0  0  0  0  0  0
   -3.5623   -1.4593    1.8162 H   0  0  0  0  0  0  0  0  0  0  0  0
   -1.8745   -3.1818    1.3728 H   0  0  0  0  0  0  0  0  0  0  0  0
   -1.4994   -2.4799   -0.2335 H   0  0  0  0  0  0  0  0  0  0  0  0
   -1.2078   -1.1520    2.5142 H   0  0  0  0  0  0  0  0  0  0  0  0
    0.1395   -1.8901    1.5699 H   0  0  0  0  0  0  0  0  0  0  0  0
    0.2656    0.4489    1.4368 H   0  0  0  0  0  0  0  0  0  0  0  0
   -1.4064    0.6923    0.9322 H   0  0  0  0  0  0  0  0  0  0  0  0
    0.0298    0.8491   -1.0343 H   0  0  0  0  0  0  0  0  0  0  0  0
   -0.6953   -0.7894   -1.1436 H   0  0  0  0  0  0  0  0  0  0  0  0
    1.2099   -1.7914   -0.1538 H   0  0  0  0  0  0  0  0  0  0  0  0
    1.7292   -0.8230   -1.5347 H   0  0  0  0  0  0  0  0  0  0  0  0
    3.4758   -0.8499    1.4911 H   0  0  0  0  0  0  0  0  0  0  0  0
    3.5530    0.9098    1.3474 H   0  0  0  0  0  0  0  0  0  0  0  0
    4.5064    0.7951   -0.9130 H   0  0  0  0  0  0  0  0  0  0  0  0
    5.4731   -0.0135    0.3370 H   0  0  0  0  0  0  0  0  0  0  0  0
    3.7914   -1.6348   -1.6951 H   0  0  0  0  0  0  0  0  0  0  0  0
    4.7760   -2.2190   -0.3200 H   0  0  0  0  0  0  0  0  0  0  0  0
    5.9123   -2.2064   -2.5694 H   0  0  0  0  0  0  0  0  0  0  0  0
    5.6420   -0.4128   -2.6474 H   0  0  0  0  0  0  0  0  0  0  0  0
    7.4218   -3.0589   -0.6226 H   0  0  0  0  0  0  0  0  0  0  0  0
    9.4687   -2.4555    0.7219 H   0  0  0  0  0  0  0  0  0  0  0  0
   10.1697   -0.1015    0.9335 H   0  0  0  0  0  0  0  0  0  0  0  0
    6.9089    1.0764   -1.4552 H   0  0  0  0  0  0  0  0  0  0  0  0
    9.5863    2.4042   -0.8885 H   0  0  0  0  0  0  0  0  0  0  0  0
    9.7474    4.5246    0.5757 H   0  0  0  0  0  0  0  0  0  0  0  0
    8.1482    4.9653    1.2001 H   0  0  0  0  0  0  0  0  0  0  0  0
   -6.0819   -0.7636   -2.3625 H   0  0  0  0  0  0  0  0  0  0  0  0
  1  2  1  0
  2  3  2  0
  2  4  1  0
  5  6  1  0
  6  7  1  0
  7  8  2  0
  8  9  1  0
  9 10  2  0
 10 11  1  0
 11 12  2  0
 12 13  1  0
  9 14  1  0
 14 15  1  0
 15 16  1  0
 16 17  1  0
 17 18  1  0
 18 19  1  0
 19 20  1  0
 20 21  1  0
 21 22  1  0
 22 23  1  0
 23 24  1  0
 24 25  1  0
 25 26  1  0
 26 27  1  0
 27 28  1  0
 28 29  2  0
 29 30  1  0
 30 31  2  0
 31 32  1  0
 32 33  2  0
 32 34  1  0
 34 35  1  0
 35 36  2  0
 35 37  1  0
 14 38  1  0
 12  7  1  0
 33 28  1  0
  1 39  1  0
  1 40  1  0
  1 41  1  0
  4 42  1  0
  5 43  1  0
  6 44  1  0
  6 45  1  0
  8 46  1  0
 10 47  1  0
 11 48  1  0
 13 49  1  0
 14 50  1  1
 15 51  1  0
 15 52  1  0
 16 53  1  0
 17 54  1  0
 17 55  1  0
 18 56  1  0
 18 57  1  0
 19 58  1  0
 19 59  1  0
 20 60  1  0
 20 61  1  0
 21 62  1  0
 21 63  1  0
 22 64  1  0
 22 65  1  0
 24 66  1  0
 24 67  1  0
 25 68  1  0
 25 69  1  0
 26 70  1  0
 26 71  1  0
 27 72  1  0
 27 73  1  0
 29 74  1  0
 30 75  1  0
 31 76  1  0
 33 77  1  0
 34 78  1  0
 37 79  1  0
 37 80  1  0
 38 81  1  0
M  END
>  <Ligand ID>  (1) 
LIG0001465

>  <Ligand>  (1) 
CHEMBL1835853

>  <SMILES>  (1) 
CC(=O)O.OCc1cc(ccc1O)[C@H](CNCCCCCCOCCCCc1cccc(c1)NC(=O)N)O

>  <CID>  (1) 
56661894.0

>  <ChEMBL ID>  (1) 
nan

>  <InChiKey>  (1) 
QASZJZYYUMSAOE-UQIIZPHYSA-N

>  <InChi>  (1) 
InChI=1S/C26H39N3O5.C2H4O2/c27-26(33)29-23-10-7-9-20(16-23)8-3-6-15-34-14-5-2-1-4-13-28-18-25(32)21-11-12-24(31)22(17-21)19-30;1-2(3)4/h7,9-12,16-17,25,28,30-32H,1-6,8,13-15,18-19H2,(H3,27,29,33);1H3,(H,3,4)/t25-;/m0./s1

>  <IUPAC Name>  (1) 
acetic acid;[3-[4-[6-[[(2R)-2-hydroxy-2-[4-hydroxy-3-(hydroxymethyl)phenyl]ethyl]amino]hexoxy]butyl]phenyl]urea

$$$$
