
     RDKit          3D

 62 66  0  0  0  0  0  0  0  0999 V2000
   -2.8711   -3.9940   -1.1307 C   0  0  0  0  0  0  0  0  0  0  0  0
   -3.9542   -3.1107   -0.9687 O   0  0  0  0  0  0  0  0  0  0  0  0
   -3.8195   -1.8258   -0.5355 C   0  0  0  0  0  0  0  0  0  0  0  0
   -2.6374   -1.2063   -0.1983 C   0  0  0  0  0  0  0  0  0  0  0  0
   -2.5725    0.0979    0.2336 C   0  0  0  0  0  0  0  0  0  0  0  0
   -3.7437    0.8231    0.3354 C   0  0  0  0  0  0  0  0  0  0  0  0
   -4.9579    0.2510    0.0096 C   0  0  0  0  0  0  0  0  0  0  0  0
   -4.9739   -1.0601   -0.4191 C   0  0  0  0  0  0  0  0  0  0  0  0
   -6.2078   -1.6476   -0.7524 O   0  0  0  0  0  0  0  0  0  0  0  0
   -7.4223   -0.9804   -0.6743 C   0  0  0  0  0  0  0  0  0  0  0  0
   -3.6680    2.0974    0.7637 N   0  0  0  0  0  0  0  0  0  0  0  0
   -2.4782    2.6628    1.0892 C   0  0  0  0  0  0  0  0  0  0  0  0
   -1.3421    1.9458    0.9857 N   0  0  0  0  0  0  0  0  0  0  0  0
   -1.3597    0.6516    0.5571 C   0  0  0  0  0  0  0  0  0  0  0  0
   -0.1135   -0.0048    0.4735 N   0  0  0  0  0  0  0  0  0  0  0  0
    0.4864   -0.4860   -0.7550 C   0  0  0  0  0  0  0  0  0  0  0  0
    1.9440    0.0183   -0.6944 C   0  0  0  0  0  0  0  0  0  0  0  0
    2.6096   -0.6650    0.3597 N   0  0  0  0  0  0  0  0  0  0  0  0
    1.7427   -1.1958    1.3717 C   0  0  0  0  0  0  0  0  0  0  0  0
    0.6404   -0.2143    1.6957 C   0  0  0  0  0  0  0  0  0  0  0  0
    3.7792   -0.0088    0.8623 C   0  0  0  0  0  0  0  0  0  0  0  0
    4.7808    0.1630   -0.2230 C   0  0  0  0  0  0  0  0  0  0  0  0
    4.9506    1.4127   -0.7810 C   0  0  0  0  0  0  0  0  0  0  0  0
    5.8603    1.6605   -1.7922 C   0  0  0  0  0  0  0  0  0  0  0  0
    6.6230    0.5890   -2.2473 C   0  0  0  0  0  0  0  0  0  0  0  0
    6.4514   -0.6783   -1.6822 C   0  0  0  0  0  0  0  0  0  0  0  0
    5.5447   -0.9076   -0.6799 C   0  0  0  0  0  0  0  0  0  0  0  0
    5.3259   -2.1247   -0.0819 O   0  0  0  0  0  0  0  0  0  0  0  0
    6.0652   -3.2541   -0.4959 C   0  0  0  0  0  0  0  0  0  0  0  0
   -2.5179    4.0667    1.5498 C   0  0  0  0  0  0  0  0  0  0  0  0
   -3.6751    4.4655    2.4703 C   0  0  0  0  0  0  0  0  0  0  0  0
   -3.5652    5.0136    1.0934 C   0  0  0  0  0  0  0  0  0  0  0  0
   -1.9983   -3.7483   -0.5004 H   0  0  0  0  0  0  0  0  0  0  0  0
   -3.1784   -5.0507   -0.9415 H   0  0  0  0  0  0  0  0  0  0  0  0
   -2.5099   -4.0137   -2.1963 H   0  0  0  0  0  0  0  0  0  0  0  0
   -1.7315   -1.7613   -0.2724 H   0  0  0  0  0  0  0  0  0  0  0  0
   -5.8452    0.8636    0.1069 H   0  0  0  0  0  0  0  0  0  0  0  0
   -7.6390   -0.3619   -1.5653 H   0  0  0  0  0  0  0  0  0  0  0  0
   -7.4482   -0.3869    0.2745 H   0  0  0  0  0  0  0  0  0  0  0  0
   -8.2047   -1.7743   -0.5150 H   0  0  0  0  0  0  0  0  0  0  0  0
    0.5369   -1.5740   -0.8536 H   0  0  0  0  0  0  0  0  0  0  0  0
    0.0504   -0.0413   -1.6593 H   0  0  0  0  0  0  0  0  0  0  0  0
    2.4004   -0.1618   -1.6901 H   0  0  0  0  0  0  0  0  0  0  0  0
    1.9353    1.1160   -0.5298 H   0  0  0  0  0  0  0  0  0  0  0  0
    1.2432   -2.1127    0.9578 H   0  0  0  0  0  0  0  0  0  0  0  0
    2.2933   -1.5167    2.2819 H   0  0  0  0  0  0  0  0  0  0  0  0
    0.0119   -0.5607    2.5466 H   0  0  0  0  0  0  0  0  0  0  0  0
    1.0820    0.7590    2.0605 H   0  0  0  0  0  0  0  0  0  0  0  0
    3.5783    0.9643    1.3549 H   0  0  0  0  0  0  0  0  0  0  0  0
    4.2084   -0.6782    1.6600 H   0  0  0  0  0  0  0  0  0  0  0  0
    4.3603    2.2436   -0.4299 H   0  0  0  0  0  0  0  0  0  0  0  0
    5.9639    2.6624   -2.2045 H   0  0  0  0  0  0  0  0  0  0  0  0
    7.3492    0.7525   -3.0453 H   0  0  0  0  0  0  0  0  0  0  0  0
    7.0476   -1.4815   -2.0461 H   0  0  0  0  0  0  0  0  0  0  0  0
    7.0309   -3.2773    0.0686 H   0  0  0  0  0  0  0  0  0  0  0  0
    6.2064   -3.2796   -1.5966 H   0  0  0  0  0  0  0  0  0  0  0  0
    5.5018   -4.1838   -0.2458 H   0  0  0  0  0  0  0  0  0  0  0  0
   -1.5528    4.5377    1.8138 H   0  0  0  0  0  0  0  0  0  0  0  0
   -3.4631    5.0444    3.3687 H   0  0  0  0  0  0  0  0  0  0  0  0
   -4.4406    3.6597    2.6301 H   0  0  0  0  0  0  0  0  0  0  0  0
   -3.3461    6.0904    1.0484 H   0  0  0  0  0  0  0  0  0  0  0  0
   -4.3668    4.7162    0.3804 H   0  0  0  0  0  0  0  0  0  0  0  0
  1  2  1  0
  2  3  1  0
  3  4  2  0
  4  5  1  0
  5  6  2  0
  6  7  1  0
  7  8  2  0
  8  9  1  0
  9 10  1  0
  6 11  1  0
 11 12  2  0
 12 13  1  0
 13 14  2  0
 14 15  1  0
 15 16  1  0
 16 17  1  0
 17 18  1  0
 18 19  1  0
 19 20  1  0
 18 21  1  0
 21 22  1  0
 22 23  2  0
 23 24  1  0
 24 25  2  0
 25 26  1  0
 26 27  2  0
 27 28  1  0
 28 29  1  0
 12 30  1  0
 30 31  1  0
 31 32  1  0
  8  3  1  0
 20 15  1  0
 27 22  1  0
 32 30  1  0
 14  5  1  0
  1 33  1  0
  1 34  1  0
  1 35  1  0
  4 36  1  0
  7 37  1  0
 10 38  1  0
 10 39  1  0
 10 40  1  0
 16 41  1  0
 16 42  1  0
 17 43  1  0
 17 44  1  0
 19 45  1  0
 19 46  1  0
 20 47  1  0
 20 48  1  0
 21 49  1  0
 21 50  1  0
 23 51  1  0
 24 52  1  0
 25 53  1  0
 26 54  1  0
 29 55  1  0
 29 56  1  0
 29 57  1  0
 30 58  1  0
 31 59  1  0
 31 60  1  0
 32 61  1  0
 32 62  1  0
M  END
>  <Ligand ID>  (1) 
LIG0004862

>  <Ligand>  (1) 
CHEMBL2431107

>  <SMILES>  (1) 
COc1cc2c(cc1OC)nc(nc2N1CCN(CC1)Cc1ccccc1OC)C1CC1

>  <CID>  (1) 
56593288.0

>  <ChEMBL ID>  (1) 
nan

>  <InChiKey>  (1) 
UEXZCLTYAROOFY-UHFFFAOYSA-N

>  <InChi>  (1) 
InChI=1S/C25H30N4O3/c1-30-21-7-5-4-6-18(21)16-28-10-12-29(13-11-28)25-19-14-22(31-2)23(32-3)15-20(19)26-24(27-25)17-8-9-17/h4-7,14-15,17H,8-13,16H2,1-3H3

>  <IUPAC Name>  (1) 
2-cyclopropyl-6,7-dimethoxy-4-[4-[(2-methoxyphenyl)methyl]piperazin-1-yl]quinazoline

$$$$
