
     RDKit          3D

 24 24  0  0  0  0  0  0  0  0999 V2000
    2.1022   -1.3226    0.2066 C   0  0  0  0  0  0  0  0  0  0  0  0
    1.8732   -0.0307   -0.5435 C   0  0  0  0  0  0  0  0  0  0  0  0
    0.8048    0.8137    0.1522 C   0  0  2  0  0  0  0  0  0  0  0  0
   -0.4789    0.1066    0.2285 C   0  0  0  0  0  0  0  0  0  0  0  0
   -1.1226   -0.1930   -0.9640 C   0  0  0  0  0  0  0  0  0  0  0  0
   -2.3374   -0.8590   -0.9628 C   0  0  0  0  0  0  0  0  0  0  0  0
   -2.8723   -1.2067    0.2595 C   0  0  0  0  0  0  0  0  0  0  0  0
   -2.2601   -0.9247    1.4617 C   0  0  0  0  0  0  0  0  0  0  0  0
   -1.0365   -0.2535    1.4496 C   0  0  0  0  0  0  0  0  0  0  0  0
    0.6863    2.1411   -0.5025 C   0  0  0  0  0  0  0  0  0  0  0  0
   -0.4298    2.5151   -0.9058 O   0  0  0  0  0  0  0  0  0  0  0  0
    1.8192    2.9187   -0.6428 O   0  0  0  0  0  0  0  0  0  0  0  0
    1.8015   -1.1970    1.2691 H   0  0  0  0  0  0  0  0  0  0  0  0
    3.2044   -1.5653    0.2069 H   0  0  0  0  0  0  0  0  0  0  0  0
    1.5506   -2.1646   -0.2427 H   0  0  0  0  0  0  0  0  0  0  0  0
    2.8052    0.5687   -0.5873 H   0  0  0  0  0  0  0  0  0  0  0  0
    1.6045   -0.2713   -1.5790 H   0  0  0  0  0  0  0  0  0  0  0  0
    1.2010    0.9865    1.1755 H   0  0  0  0  0  0  0  0  0  0  0  0
   -0.7219    0.0699   -1.9338 H   0  0  0  0  0  0  0  0  0  0  0  0
   -2.8529   -1.1005   -1.8817 H   0  0  0  0  0  0  0  0  0  0  0  0
   -3.8149   -1.7238    0.2696 H   0  0  0  0  0  0  0  0  0  0  0  0
   -2.7247   -1.2211    2.3972 H   0  0  0  0  0  0  0  0  0  0  0  0
   -0.5337   -0.0202    2.3982 H   0  0  0  0  0  0  0  0  0  0  0  0
    1.7330    3.9337   -0.7288 H   0  0  0  0  0  0  0  0  0  0  0  0
  1  2  1  0
  2  3  1  0
  3  4  1  0
  4  5  2  0
  5  6  1  0
  6  7  2  0
  7  8  1  0
  8  9  2  0
  3 10  1  0
 10 11  2  0
 10 12  1  0
  9  4  1  0
  1 13  1  0
  1 14  1  0
  1 15  1  0
  2 16  1  0
  2 17  1  0
  3 18  1  1
  5 19  1  0
  6 20  1  0
  7 21  1  0
  8 22  1  0
  9 23  1  0
 12 24  1  0
M  END
>  <Ligand ID>  (1) 
LIG0000134

>  <Ligand>  (1) 
(R)-(-)-2-Phenylbutyric acid

>  <SMILES>  (1) 
CC[C@H](c1ccccc1)C(=O)O

>  <CID>  (1) 
785330.0

>  <ChEMBL ID>  (1) 
nan

>  <InChiKey>  (1) 
OFJWFSNDPCAWDK-SECBINFHSA-N

>  <InChi>  (1) 
InChI=1S/C10H12O2/c1-2-9(10(11)12)8-6-4-3-5-7-8/h3-7,9H,2H2,1H3,(H,11,12)/t9-/m1/s1

>  <IUPAC Name>  (1) 
(2R)-2-phenylbutanoic acid

$$$$
