
     RDKit          3D

 20 20  0  0  0  0  0  0  0  0999 V2000
   -2.1836    0.6424   -1.1839 N   0  0  0  0  0  0  0  0  0  0  0  0
   -2.2754   -0.1278    0.0366 C   0  0  0  0  0  0  0  0  0  0  0  0
   -1.1666   -1.1282    0.1755 C   0  0  0  0  0  0  0  0  0  0  0  0
    0.1760   -0.4999    0.1895 C   0  0  0  0  0  0  0  0  0  0  0  0
    0.7446   -0.1062    1.3883 C   0  0  0  0  0  0  0  0  0  0  0  0
    1.9912    0.4748    1.3792 C   0  0  0  0  0  0  0  0  0  0  0  0
    2.7162    0.6885    0.2134 C   0  0  0  0  0  0  0  0  0  0  0  0
    2.1417    0.2908   -0.9977 C   0  0  0  0  0  0  0  0  0  0  0  0
    0.8825   -0.2949   -0.9779 C   0  0  0  0  0  0  0  0  0  0  0  0
   -3.0739    1.0613   -1.4672 H   0  0  0  0  0  0  0  0  0  0  0  0
   -1.3450    1.2222   -1.2783 H   0  0  0  0  0  0  0  0  0  0  0  0
   -3.2183   -0.7247   -0.0407 H   0  0  0  0  0  0  0  0  0  0  0  0
   -2.2929    0.5166    0.9167 H   0  0  0  0  0  0  0  0  0  0  0  0
   -1.2090   -1.9026   -0.6181 H   0  0  0  0  0  0  0  0  0  0  0  0
   -1.3022   -1.6126    1.1742 H   0  0  0  0  0  0  0  0  0  0  0  0
    0.2198   -0.2499    2.3360 H   0  0  0  0  0  0  0  0  0  0  0  0
    2.3984    0.7684    2.3470 H   0  0  0  0  0  0  0  0  0  0  0  0
    3.6974    1.1512    0.2565 H   0  0  0  0  0  0  0  0  0  0  0  0
    2.6797    0.4426   -1.9272 H   0  0  0  0  0  0  0  0  0  0  0  0
    0.4193   -0.6121   -1.9218 H   0  0  0  0  0  0  0  0  0  0  0  0
  1  2  1  0
  2  3  1  0
  3  4  1  0
  4  5  2  0
  5  6  1  0
  6  7  2  0
  7  8  1  0
  8  9  2  0
  9  4  1  0
  1 10  1  0
  1 11  1  0
  2 12  1  0
  2 13  1  0
  3 14  1  0
  3 15  1  0
  5 16  1  0
  6 17  1  0
  7 18  1  0
  8 19  1  0
  9 20  1  0
M  END
>  <Ligand ID>  (1) 
LIG0000325

>  <Ligand>  (1) 
beta;-phenylethylamine

>  <SMILES>  (1) 
NCCc1ccccc1

>  <CID>  (1) 
1001.0

>  <ChEMBL ID>  (1) 
nan

>  <InChiKey>  (1) 
BHHGXPLMPWCGHP-UHFFFAOYSA-N

>  <InChi>  (1) 
InChI=1S/C8H11N/c9-7-6-8-4-2-1-3-5-8/h1-5H,6-7,9H2

>  <IUPAC Name>  (1) 
2-phenylethanamine

$$$$
