
     RDKit          3D

 26 27  0  0  0  0  0  0  0  0999 V2000
   -0.7938   -0.9073    2.0065 C   0  0  0  0  0  0  0  0  0  0  0  0
   -0.2186   -0.5894    0.8504 C   0  0  0  0  0  0  0  0  0  0  0  0
    1.1957   -0.8803    0.5197 C   0  0  2  0  0  0  0  0  0  0  0  0
    1.9859    0.3743    0.8203 C   0  0  0  0  0  0  0  0  0  0  0  0
    1.3058    1.3638   -0.1393 C   0  0  0  0  0  0  0  0  0  0  0  0
    0.4350    0.5413   -1.0483 C   0  0  2  0  0  0  0  0  0  0  0  0
   -0.8109    0.0969   -0.3331 C   0  0  0  0  0  0  0  0  0  0  0  0
   -1.7415    1.2159    0.0359 C   0  0  0  0  0  0  0  0  0  0  0  0
   -1.5832   -0.9167   -1.1201 C   0  0  0  0  0  0  0  0  0  0  0  0
    1.1979   -0.7855   -1.0151 C   0  0  0  0  0  0  0  0  0  0  0  0
   -0.1779   -1.4102    2.7437 H   0  0  0  0  0  0  0  0  0  0  0  0
   -1.8376   -0.6511    2.1531 H   0  0  0  0  0  0  0  0  0  0  0  0
    1.6053   -1.8055    0.8915 H   0  0  0  0  0  0  0  0  0  0  0  0
    1.9271    0.7000    1.8689 H   0  0  0  0  0  0  0  0  0  0  0  0
    3.0231    0.1655    0.4857 H   0  0  0  0  0  0  0  0  0  0  0  0
    0.7165    2.0488    0.5178 H   0  0  0  0  0  0  0  0  0  0  0  0
    2.0595    1.9489   -0.7164 H   0  0  0  0  0  0  0  0  0  0  0  0
    0.3022    0.9296   -2.0460 H   0  0  0  0  0  0  0  0  0  0  0  0
   -2.0193    1.7380   -0.8836 H   0  0  0  0  0  0  0  0  0  0  0  0
   -1.3076    1.9356    0.7512 H   0  0  0  0  0  0  0  0  0  0  0  0
   -2.6668    0.7412    0.4215 H   0  0  0  0  0  0  0  0  0  0  0  0
   -1.3256   -1.9652   -0.8463 H   0  0  0  0  0  0  0  0  0  0  0  0
   -1.4668   -0.7464   -2.2098 H   0  0  0  0  0  0  0  0  0  0  0  0
   -2.6853   -0.8456   -0.8954 H   0  0  0  0  0  0  0  0  0  0  0  0
    0.6372   -1.6144   -1.4636 H   0  0  0  0  0  0  0  0  0  0  0  0
    2.2438   -0.6823   -1.3491 H   0  0  0  0  0  0  0  0  0  0  0  0
  1  2  2  0
  2  3  1  0
  3  4  1  0
  4  5  1  0
  5  6  1  0
  6  7  1  0
  7  8  1  0
  7  9  1  0
  6 10  1  0
  7  2  1  0
 10  3  1  0
  1 11  1  0
  1 12  1  0
  3 13  1  6
  4 14  1  0
  4 15  1  0
  5 16  1  0
  5 17  1  0
  6 18  1  6
  8 19  1  0
  8 20  1  0
  8 21  1  0
  9 22  1  0
  9 23  1  0
  9 24  1  0
 10 25  1  0
 10 26  1  0
M  END
>  <Ligand ID>  (1) 
LIG0000204

>  <Ligand>  (1) 
(-)-Camphene

>  <SMILES>  (1) 
C=C1[C@@H]2CC[C@H](C1(C)C)C2

>  <CID>  (1) 
440966.0

>  <ChEMBL ID>  (1) 
nan

>  <InChiKey>  (1) 
CRPUJAZIXJMDBK-BDAKNGLRSA-N

>  <InChi>  (1) 
InChI=1S/C10H16/c1-7-8-4-5-9(6-8)10(7,2)3/h8-9H,1,4-6H2,2-3H3/t8-,9+/m1/s1

>  <IUPAC Name>  (1) 
(1S,4R)-2,2-dimethyl-3-methylidenebicyclo[2.2.1]heptane

$$$$
