
     RDKit          3D

155160  0  0  0  0  0  0  0  0999 V2000
   10.7944    0.2843   -2.3672 C   0  0  0  0  0  0  0  0  0  0  0  0
   10.1814    1.3968   -3.1337 C   0  0  0  0  0  0  0  0  0  0  0  0
    8.9922    2.0677   -2.5622 C   0  0  0  0  0  0  0  0  0  0  0  0
    7.7652    1.2785   -2.3295 C   0  0  0  0  0  0  0  0  0  0  0  0
    7.7897    0.1575   -1.3719 C   0  0  2  0  0  0  0  0  0  0  0  0
    6.4140   -0.5188   -1.3040 C   0  0  0  0  0  0  0  0  0  0  0  0
    5.9571   -1.0112   -2.3731 O   0  0  0  0  0  0  0  0  0  0  0  0
    5.7013   -0.5825   -0.0783 N   0  0  0  0  0  0  0  0  0  0  0  0
    4.3957   -1.2590   -0.0361 C   0  0  1  0  0  0  0  0  0  0  0  0
    4.5602   -2.5439    0.7105 C   0  0  0  0  0  0  0  0  0  0  0  0
    3.3488   -3.4221    0.5904 C   0  0  0  0  0  0  0  0  0  0  0  0
    2.3625   -3.1249   -0.0951 O   0  0  0  0  0  0  0  0  0  0  0  0
    3.2556   -4.6810    1.2639 N   0  0  0  0  0  0  0  0  0  0  0  0
    2.1165   -5.5754    1.1422 C   0  0  0  0  0  0  0  0  0  0  0  0
    1.9597   -6.0294   -0.2707 C   0  0  0  0  0  0  0  0  0  0  0  0
    0.8705   -7.0023   -0.5075 C   0  0  0  0  0  0  0  0  0  0  0  0
   -0.5208   -6.5697   -0.2419 C   0  0  0  0  0  0  0  0  0  0  0  0
   -0.9963   -5.3870   -1.0483 C   0  0  2  0  0  0  0  0  0  0  0  0
   -2.3986   -5.1677   -0.6755 N   0  0  0  0  0  0  0  0  0  0  0  0
   -2.8182   -3.9165   -0.0870 C   0  0  0  0  0  0  0  0  0  0  0  0
   -1.8880   -3.1095    0.0689 O   0  0  0  0  0  0  0  0  0  0  0  0
   -4.2219   -3.6391    0.2896 C   0  0  1  0  0  0  0  0  0  0  0  0
   -4.3690   -2.3691    0.9421 N   0  0  0  0  0  0  0  0  0  0  0  0
   -3.9524   -1.1141    0.3699 C   0  0  0  0  0  0  0  0  0  0  0  0
   -3.5262   -1.2517   -0.7710 O   0  0  0  0  0  0  0  0  0  0  0  0
   -4.0204    0.1754    1.0655 C   0  0  1  0  0  0  0  0  0  0  0  0
   -3.2779    1.1973    0.2840 N   0  0  0  0  0  0  0  0  0  0  0  0
   -1.9866    1.5157    0.7352 C   0  0  0  0  0  0  0  0  0  0  0  0
   -1.5615    0.9182    1.7282 O   0  0  0  0  0  0  0  0  0  0  0  0
   -1.0766    2.5458    0.0787 C   0  0  2  0  0  0  0  0  0  0  0  0
    0.1108    2.5270    0.9631 N   0  0  0  0  0  0  0  0  0  0  0  0
    1.3551    1.9911    0.5116 C   0  0  0  0  0  0  0  0  0  0  0  0
    1.3251    1.6158   -0.6525 O   0  0  0  0  0  0  0  0  0  0  0  0
    2.5774    1.8941    1.3982 C   0  0  1  0  0  0  0  0  0  0  0  0
    3.5788    1.0635    0.6952 N   0  0  0  0  0  0  0  0  0  0  0  0
    3.3739   -0.3686    0.5677 C   0  0  0  0  0  0  0  0  0  0  0  0
    2.2718   -0.7430    1.0016 O   0  0  0  0  0  0  0  0  0  0  0  0
    3.1558    3.1800    1.8172 C   0  0  0  0  0  0  0  0  0  0  0  0
    4.3659    2.9870    2.7110 C   0  0  0  0  0  0  0  0  0  0  0  0
    4.3655    2.8876    4.0562 N   0  0  0  0  0  0  0  0  0  0  0  0
    5.6286    2.7294    4.4890 C   0  0  0  0  0  0  0  0  0  0  0  0
    6.4534    2.7264    3.4197 N   0  0  0  0  0  0  0  0  0  0  0  0
    5.6831    2.8837    2.3319 C   0  0  0  0  0  0  0  0  0  0  0  0
    0.0694    2.9768    2.3059 C   0  0  0  0  0  0  0  0  0  0  0  0
   -1.8459    3.8005    0.0581 C   0  0  0  0  0  0  0  0  0  0  0  0
   -1.2449    4.9820   -0.5574 C   0  0  0  0  0  0  0  0  0  0  0  0
   -0.5130    5.9573    0.0540 C   0  0  0  0  0  0  0  0  0  0  0  0
    0.0026    7.0414   -0.6329 C   0  0  0  0  0  0  0  0  0  0  0  0
   -0.1938    7.2087   -1.9970 C   0  0  0  0  0  0  0  0  0  0  0  0
   -0.9380    6.2203   -2.6253 C   0  0  0  0  0  0  0  0  0  0  0  0
   -1.4480    5.1427   -1.9378 C   0  0  0  0  0  0  0  0  0  0  0  0
   -1.1401    6.3905   -3.9923 C   0  0  0  0  0  0  0  0  0  0  0  0
   -0.6367    7.4710   -4.6874 C   0  0  0  0  0  0  0  0  0  0  0  0
    0.0989    8.4358   -4.0297 C   0  0  0  0  0  0  0  0  0  0  0  0
    0.3186    8.2957   -2.6687 C   0  0  0  0  0  0  0  0  0  0  0  0
   -5.3445    0.7717    1.3376 C   0  0  0  0  0  0  0  0  0  0  0  0
   -6.1887    1.0856    0.1307 C   0  0  0  0  0  0  0  0  0  0  0  0
   -7.4883    1.6841    0.6969 C   0  0  0  0  0  0  0  0  0  0  0  0
   -7.2103    2.8729    1.4580 N   0  0  0  0  0  0  0  0  0  0  0  0
   -7.6600    4.0185    1.0808 C   0  0  0  0  0  0  0  0  0  0  0  0
   -7.3660    5.1718    1.8567 N   0  0  0  0  0  0  0  0  0  0  0  0
   -8.4503    4.2006   -0.0877 N   0  0  0  0  0  0  0  0  0  0  0  0
   -4.9341   -2.2585    2.2467 C   0  0  0  0  0  0  0  0  0  0  0  0
   -5.0469   -3.7562   -0.9590 C   0  0  0  0  0  0  0  0  0  0  0  0
   -6.4801   -3.5190   -0.7984 C   0  0  0  0  0  0  0  0  0  0  0  0
   -7.2054   -2.4532   -1.2798 C   0  0  0  0  0  0  0  0  0  0  0  0
   -8.5058   -2.5834   -0.9664 N   0  0  0  0  0  0  0  0  0  0  0  0
   -8.6432   -3.7408   -0.2747 C   0  0  0  0  0  0  0  0  0  0  0  0
   -7.4001   -4.3282   -0.1642 C   0  0  0  0  0  0  0  0  0  0  0  0
   -7.3312   -5.5361    0.5237 C   0  0  0  0  0  0  0  0  0  0  0  0
   -8.4471   -6.1303    1.0746 C   0  0  0  0  0  0  0  0  0  0  0  0
   -9.6967   -5.5315    0.9582 C   0  0  0  0  0  0  0  0  0  0  0  0
   -9.7482   -4.3445    0.2794 C   0  0  0  0  0  0  0  0  0  0  0  0
   -0.8533   -5.6813   -2.4756 C   0  0  0  0  0  0  0  0  0  0  0  0
    0.2078   -5.9158   -3.0840 O   0  0  0  0  0  0  0  0  0  0  0  0
   -2.0576   -5.7034   -3.2659 N   0  0  0  0  0  0  0  0  0  0  0  0
    8.0515    0.6328   -0.0271 N   0  0  0  0  0  0  0  0  0  0  0  0
    8.8878   -0.0021    0.9075 C   0  0  0  0  0  0  0  0  0  0  0  0
    9.4927   -1.0741    0.6376 O   0  0  0  0  0  0  0  0  0  0  0  0
    9.0674    0.5983    2.2434 C   0  0  0  0  0  0  0  0  0  0  0  0
   10.6399    0.4395   -1.3028 H   0  0  0  0  0  0  0  0  0  0  0  0
   10.5756   -0.7335   -2.7559 H   0  0  0  0  0  0  0  0  0  0  0  0
   11.9252    0.3593   -2.5055 H   0  0  0  0  0  0  0  0  0  0  0  0
   10.9798    2.1879   -3.2939 H   0  0  0  0  0  0  0  0  0  0  0  0
    9.9767    1.0641   -4.2046 H   0  0  0  0  0  0  0  0  0  0  0  0
    9.3182    2.6234   -1.6434 H   0  0  0  0  0  0  0  0  0  0  0  0
    8.7283    2.9060   -3.2830 H   0  0  0  0  0  0  0  0  0  0  0  0
    6.9599    1.9927   -1.9504 H   0  0  0  0  0  0  0  0  0  0  0  0
    7.3240    0.9541   -3.3308 H   0  0  0  0  0  0  0  0  0  0  0  0
    8.5287   -0.6005   -1.6536 H   0  0  0  0  0  0  0  0  0  0  0  0
    6.0716   -0.1653    0.8008 H   0  0  0  0  0  0  0  0  0  0  0  0
    4.0826   -1.5396   -1.0721 H   0  0  0  0  0  0  0  0  0  0  0  0
    4.8891   -2.4307    1.7451 H   0  0  0  0  0  0  0  0  0  0  0  0
    5.3737   -3.1108    0.1788 H   0  0  0  0  0  0  0  0  0  0  0  0
    4.0620   -4.9094    1.8515 H   0  0  0  0  0  0  0  0  0  0  0  0
    2.3063   -6.4569    1.7846 H   0  0  0  0  0  0  0  0  0  0  0  0
    1.2045   -5.0855    1.5466 H   0  0  0  0  0  0  0  0  0  0  0  0
    1.7890   -5.1683   -0.9695 H   0  0  0  0  0  0  0  0  0  0  0  0
    2.9300   -6.5427   -0.5386 H   0  0  0  0  0  0  0  0  0  0  0  0
    0.8978   -7.4702   -1.5165 H   0  0  0  0  0  0  0  0  0  0  0  0
    1.0478   -7.8873    0.1851 H   0  0  0  0  0  0  0  0  0  0  0  0
   -1.1877   -7.4418   -0.4865 H   0  0  0  0  0  0  0  0  0  0  0  0
   -0.7311   -6.3787    0.8399 H   0  0  0  0  0  0  0  0  0  0  0  0
   -0.3946   -4.4754   -0.8403 H   0  0  0  0  0  0  0  0  0  0  0  0
   -3.1452   -5.8438   -0.7937 H   0  0  0  0  0  0  0  0  0  0  0  0
   -4.5901   -4.4375    0.9780 H   0  0  0  0  0  0  0  0  0  0  0  0
   -3.4978    0.1037    2.0745 H   0  0  0  0  0  0  0  0  0  0  0  0
   -3.6296    1.6696   -0.5301 H   0  0  0  0  0  0  0  0  0  0  0  0
   -0.8145    2.1209   -0.9066 H   0  0  0  0  0  0  0  0  0  0  0  0
    2.2435    1.2659    2.2473 H   0  0  0  0  0  0  0  0  0  0  0  0
    4.4259    1.4065    0.2720 H   0  0  0  0  0  0  0  0  0  0  0  0
    3.5514    3.7858    0.9534 H   0  0  0  0  0  0  0  0  0  0  0  0
    2.5249    3.8753    2.3806 H   0  0  0  0  0  0  0  0  0  0  0  0
    3.5231    2.9265    4.6729 H   0  0  0  0  0  0  0  0  0  0  0  0
    5.9212    2.6193    5.5452 H   0  0  0  0  0  0  0  0  0  0  0  0
    5.9724    2.9355    1.2752 H   0  0  0  0  0  0  0  0  0  0  0  0
    0.7791    2.4562    2.9852 H   0  0  0  0  0  0  0  0  0  0  0  0
   -0.9315    2.7939    2.7701 H   0  0  0  0  0  0  0  0  0  0  0  0
    0.2420    4.0595    2.3294 H   0  0  0  0  0  0  0  0  0  0  0  0
   -2.1519    4.0080    1.1345 H   0  0  0  0  0  0  0  0  0  0  0  0
   -2.8468    3.5510   -0.4093 H   0  0  0  0  0  0  0  0  0  0  0  0
   -0.3196    5.9205    1.1077 H   0  0  0  0  0  0  0  0  0  0  0  0
    0.5861    7.8173   -0.1417 H   0  0  0  0  0  0  0  0  0  0  0  0
   -2.0234    4.4082   -2.5064 H   0  0  0  0  0  0  0  0  0  0  0  0
   -1.7030    5.6683   -4.5344 H   0  0  0  0  0  0  0  0  0  0  0  0
   -0.8048    7.5971   -5.7679 H   0  0  0  0  0  0  0  0  0  0  0  0
    0.4856    9.2744   -4.5986 H   0  0  0  0  0  0  0  0  0  0  0  0
    0.8925    9.0323   -2.1261 H   0  0  0  0  0  0  0  0  0  0  0  0
   -5.1314    1.7883    1.7984 H   0  0  0  0  0  0  0  0  0  0  0  0
   -5.9263    0.2617    2.1331 H   0  0  0  0  0  0  0  0  0  0  0  0
   -5.7319    1.8314   -0.5330 H   0  0  0  0  0  0  0  0  0  0  0  0
   -6.4892    0.1559   -0.3458 H   0  0  0  0  0  0  0  0  0  0  0  0
   -8.2426    1.7894   -0.0873 H   0  0  0  0  0  0  0  0  0  0  0  0
   -7.8643    0.9254    1.4465 H   0  0  0  0  0  0  0  0  0  0  0  0
   -8.0550    5.9300    2.0612 H   0  0  0  0  0  0  0  0  0  0  0  0
   -6.3780    5.2244    2.2330 H   0  0  0  0  0  0  0  0  0  0  0  0
   -9.4813    3.9990   -0.1044 H   0  0  0  0  0  0  0  0  0  0  0  0
   -8.0088    4.5502   -0.9862 H   0  0  0  0  0  0  0  0  0  0  0  0
   -4.7019   -3.1877    2.8520 H   0  0  0  0  0  0  0  0  0  0  0  0
   -6.0358   -2.1877    2.2462 H   0  0  0  0  0  0  0  0  0  0  0  0
   -4.4672   -1.4585    2.8793 H   0  0  0  0  0  0  0  0  0  0  0  0
   -4.9263   -4.7775   -1.4171 H   0  0  0  0  0  0  0  0  0  0  0  0
   -4.6499   -3.0563   -1.7280 H   0  0  0  0  0  0  0  0  0  0  0  0
   -6.7528   -1.6508   -1.8339 H   0  0  0  0  0  0  0  0  0  0  0  0
   -9.2378   -1.8878   -1.2341 H   0  0  0  0  0  0  0  0  0  0  0  0
   -6.3801   -5.9998    0.6189 H   0  0  0  0  0  0  0  0  0  0  0  0
   -8.4198   -7.0741    1.6182 H   0  0  0  0  0  0  0  0  0  0  0  0
  -10.5842   -5.9971    1.3929 H   0  0  0  0  0  0  0  0  0  0  0  0
  -10.7070   -3.8552    0.1729 H   0  0  0  0  0  0  0  0  0  0  0  0
   -2.8110   -4.9803   -3.1033 H   0  0  0  0  0  0  0  0  0  0  0  0
   -2.2301   -6.4069   -4.0046 H   0  0  0  0  0  0  0  0  0  0  0  0
    7.5788    1.5141    0.2523 H   0  0  0  0  0  0  0  0  0  0  0  0
    9.1855    1.7017    2.1258 H   0  0  0  0  0  0  0  0  0  0  0  0
    9.9990    0.1949    2.6987 H   0  0  0  0  0  0  0  0  0  0  0  0
    8.1886    0.4722    2.8977 H   0  0  0  0  0  0  0  0  0  0  0  0
  1  2  1  0
  2  3  1  0
  3  4  1  0
  4  5  1  0
  5  6  1  0
  6  7  2  0
  6  8  1  0
  8  9  1  0
  9 10  1  0
 10 11  1  0
 11 12  2  0
 11 13  1  0
 13 14  1  0
 14 15  1  0
 15 16  1  0
 16 17  1  0
 17 18  1  0
 18 19  1  0
 19 20  1  0
 20 21  2  0
 20 22  1  0
 22 23  1  0
 23 24  1  0
 24 25  2  0
 24 26  1  0
 26 27  1  0
 27 28  1  0
 28 29  2  0
 28 30  1  0
 30 31  1  0
 31 32  1  0
 32 33  2  0
 32 34  1  0
 34 35  1  0
 35 36  1  0
 36 37  2  0
 34 38  1  0
 38 39  1  0
 39 40  1  0
 40 41  1  0
 41 42  2  0
 42 43  1  0
 31 44  1  0
 30 45  1  0
 45 46  1  0
 46 47  2  0
 47 48  1  0
 48 49  2  0
 49 50  1  0
 50 51  2  0
 50 52  1  0
 52 53  2  0
 53 54  1  0
 54 55  2  0
 26 56  1  0
 56 57  1  0
 57 58  1  0
 58 59  1  0
 59 60  2  3
 60 61  1  0
 60 62  1  0
 23 63  1  0
 22 64  1  0
 64 65  1  0
 65 66  2  0
 66 67  1  0
 67 68  1  0
 68 69  2  0
 69 70  1  0
 70 71  2  0
 71 72  1  0
 72 73  2  0
 18 74  1  0
 74 75  2  0
 74 76  1  0
  5 77  1  0
 77 78  1  0
 78 79  2  0
 78 80  1  0
 36  9  1  0
 43 39  2  0
 51 46  1  0
 69 65  1  0
 55 49  1  0
 73 68  1  0
  1 81  1  0
  1 82  1  0
  1 83  1  0
  2 84  1  0
  2 85  1  0
  3 86  1  0
  3 87  1  0
  4 88  1  0
  4 89  1  0
  5 90  1  6
  8 91  1  0
  9 92  1  6
 10 93  1  0
 10 94  1  0
 13 95  1  0
 14 96  1  0
 14 97  1  0
 15 98  1  0
 15 99  1  0
 16100  1  0
 16101  1  0
 17102  1  0
 17103  1  0
 18104  1  1
 19105  1  0
 22106  1  1
 26107  1  1
 27108  1  0
 30109  1  6
 34110  1  1
 35111  1  0
 38112  1  0
 38113  1  0
 40114  1  0
 41115  1  0
 43116  1  0
 44117  1  0
 44118  1  0
 44119  1  0
 45120  1  0
 45121  1  0
 47122  1  0
 48123  1  0
 51124  1  0
 52125  1  0
 53126  1  0
 54127  1  0
 55128  1  0
 56129  1  0
 56130  1  0
 57131  1  0
 57132  1  0
 58133  1  0
 58134  1  0
 61135  1  0
 61136  1  0
 62137  1  0
 62138  1  0
 63139  1  0
 63140  1  0
 63141  1  0
 64142  1  0
 64143  1  0
 66144  1  0
 67145  1  0
 70146  1  0
 71147  1  0
 72148  1  0
 73149  1  0
 76150  1  0
 76151  1  0
 77152  1  0
 80153  1  0
 80154  1  0
 80155  1  0
M  END
>  <Ligand ID>  (1) 
LIG0001821

>  <Ligand>  (1) 
CHEMBL3600841

>  <SMILES>  (1) 
CCCC[C@H](C(=O)N[C@H]1CC(=O)NCCCC[C@H](NC(=O)[C@@H](N(C(=O)[C@@H](NC(=O)[C@H](N(C(=O)[C@@H](NC1=O)Cc1[nH]cnc1)C)Cc1ccc2c(c1)cccc2)CCCN=C(N)N)C)Cc1c[nH]c2c1cccc2)C(=O)N)NC(=O)C

>  <CID>  (1) 
122184580.0

>  <ChEMBL ID>  (1) 
nan

>  <InChiKey>  (1) 
WLYFDIRUCOZYRB-YAHXOJCFSA-N

>  <InChi>  (1) 
InChI=1S/C56H75N15O9/c1-5-6-17-42(65-33(2)72)50(75)68-44-29-48(73)61-23-12-11-19-41(49(57)74)66-53(78)47(27-37-30-63-40-18-10-9-16-39(37)40)71(4)54(79)43(20-13-24-62-56(58)59)67-52(77)46(26-34-21-22-35-14-7-8-15-36(35)25-34)70(3)55(80)45(69-51(44)76)28-38-31-60-32-64-38/h7-10,14-16,18,21-22,25,30-32,41-47,63H,5-6,11-13,17,19-20,23-24,26-29H2,1-4H3,(H2,57,74)(H,60,64)(H,61,73)(H,65,72)(H,66,78)(H,67,77)(H,68,75)(H,69,76)(H4,58,59,62)/t41-,42+,43-,44-,45-,46+,47-/m0/s1

>  <IUPAC Name>  (1) 
(3S,6S,9R,12S,15S,23S)-15-[[(2R)-2-acetamidohexanoyl]amino]-6-[3-(diaminomethylideneamino)propyl]-12-(1H-imidazol-5-ylmethyl)-3-(1H-indol-3-ylmethyl)-4,10-dimethyl-9-(naphthalen-2-ylmethyl)-2,5,8,11,14,17-hexaoxo-1,4,7,10,13,18-hexazacyclotricosane-23-carboxamide

$$$$
