
     RDKit          3D

182189  0  0  0  0  0  0  0  0999 V2000
  -11.6515   -2.4372    1.3243 O   0  0  0  0  0  0  0  0  0  0  0  0
  -10.2646   -2.4054    1.3552 C   0  0  0  0  0  0  0  0  0  0  0  0
   -9.5101   -3.4968    1.7125 C   0  0  0  0  0  0  0  0  0  0  0  0
   -8.1115   -3.4731    1.7444 C   0  0  0  0  0  0  0  0  0  0  0  0
   -7.4679   -2.3115    1.4043 C   0  0  0  0  0  0  0  0  0  0  0  0
   -8.2096   -1.1958    1.0414 C   0  0  0  0  0  0  0  0  0  0  0  0
   -9.5802   -1.2374    1.0152 C   0  0  0  0  0  0  0  0  0  0  0  0
   -5.9840   -2.2012    1.4071 C   0  0  0  0  0  0  0  0  0  0  0  0
   -5.4012   -2.7164    0.1172 C   0  0  2  0  0  0  0  0  0  0  0  0
   -4.0065   -2.5509    0.1030 N   0  0  0  0  0  0  0  0  0  0  0  0
   -3.5673   -1.1750   -0.0670 C   0  0  0  0  0  0  0  0  0  0  0  0
   -2.3510   -1.0895   -0.0315 O   0  0  0  0  0  0  0  0  0  0  0  0
   -4.4825   -0.0405   -0.2479 C   0  0  0  0  0  0  0  0  0  0  0  0
   -4.0865    1.1575    0.6036 C   0  0  2  0  0  0  0  0  0  0  0  0
   -5.1755    2.1444    0.6151 N   0  0  0  0  0  0  0  0  0  0  0  0
   -6.0359    2.3288    1.7066 C   0  0  0  0  0  0  0  0  0  0  0  0
   -5.8231    1.5863    2.7253 O   0  0  0  0  0  0  0  0  0  0  0  0
   -7.1592    3.3280    1.7203 C   0  0  2  0  0  0  0  0  0  0  0  0
   -8.3948    2.4718    1.3871 C   0  0  0  0  0  0  0  0  0  0  0  0
   -9.5704    3.3623    1.3851 C   0  0  0  0  0  0  0  0  0  0  0  0
   -9.9544    4.0327    0.2544 C   0  0  0  0  0  0  0  0  0  0  0  0
  -11.0496    4.8646    0.1771 C   0  0  0  0  0  0  0  0  0  0  0  0
  -11.7965    5.0177    1.3405 C   0  0  0  0  0  0  0  0  0  0  0  0
  -11.4091    4.3413    2.4752 C   0  0  0  0  0  0  0  0  0  0  0  0
  -10.3212    3.5172    2.5423 C   0  0  0  0  0  0  0  0  0  0  0  0
  -12.8960    5.8497    1.2670 O   0  0  0  0  0  0  0  0  0  0  0  0
   -7.0025    4.2043    0.5814 N   0  0  0  0  0  0  0  0  0  0  0  0
   -2.9283    1.9004    0.0546 C   0  0  0  0  0  0  0  0  0  0  0  0
   -1.8885    1.4124   -0.3942 O   0  0  0  0  0  0  0  0  0  0  0  0
   -2.9312    3.3678    0.0165 N   0  0  0  0  0  0  0  0  0  0  0  0
   -1.8786    4.0943   -0.6505 C   0  0  1  0  0  0  0  0  0  0  0  0
   -2.3144    5.3737   -1.2480 C   0  0  0  0  0  0  0  0  0  0  0  0
   -3.3812    5.1868   -2.2637 C   0  0  0  0  0  0  0  0  0  0  0  0
   -3.9371    6.2399   -2.9346 N   0  0  0  0  0  0  0  0  0  0  0  0
   -4.8737    5.7917   -3.7794 C   0  0  0  0  0  0  0  0  0  0  0  0
   -4.9252    4.4504   -3.6580 N   0  0  0  0  0  0  0  0  0  0  0  0
   -4.0074    4.0535   -2.7219 C   0  0  0  0  0  0  0  0  0  0  0  0
   -0.6506    4.2752    0.1803 C   0  0  0  0  0  0  0  0  0  0  0  0
   -0.5407    3.9296    1.3604 O   0  0  0  0  0  0  0  0  0  0  0  0
    0.4553    4.8767   -0.4280 N   0  0  0  0  0  0  0  0  0  0  0  0
    1.7828    5.0838    0.2330 C   0  0  2  0  0  0  0  0  0  0  0  0
    2.2089    6.4773    0.0640 C   0  0  0  0  0  0  0  0  0  0  0  0
    3.4973    6.8897    0.6237 C   0  0  0  0  0  0  0  0  0  0  0  0
    4.6259    6.9606   -0.2150 C   0  0  0  0  0  0  0  0  0  0  0  0
    5.8593    7.3593    0.2853 C   0  0  0  0  0  0  0  0  0  0  0  0
    5.9846    7.6924    1.6321 C   0  0  0  0  0  0  0  0  0  0  0  0
    4.8760    7.6186    2.4352 C   0  0  0  0  0  0  0  0  0  0  0  0
    3.6481    7.2279    1.9594 C   0  0  0  0  0  0  0  0  0  0  0  0
    2.6533    3.9777   -0.1312 C   0  0  0  0  0  0  0  0  0  0  0  0
    2.0963    3.0478   -0.8284 O   0  0  0  0  0  0  0  0  0  0  0  0
    4.0066    3.7326    0.1412 N   0  0  0  0  0  0  0  0  0  0  0  0
    4.5916    2.5065   -0.3555 C   0  0  1  0  0  0  0  0  0  0  0  0
    4.7637    2.7948   -1.9197 C   0  0  0  0  0  0  0  0  0  0  0  0
    5.9862    2.2526    0.0319 C   0  0  0  0  0  0  0  0  0  0  0  0
    6.7739    3.0654    0.5360 O   0  0  0  0  0  0  0  0  0  0  0  0
    6.5020    0.9517   -0.1765 N   0  0  0  0  0  0  0  0  0  0  0  0
    7.8918    0.5652   -0.0861 C   0  0  2  0  0  0  0  0  0  0  0  0
    8.1155   -0.7015   -0.8566 C   0  0  0  0  0  0  0  0  0  0  0  0
    8.9275   -0.8707   -1.7576 O   0  0  0  0  0  0  0  0  0  0  0  0
    7.3153   -1.8065   -0.4817 N   0  0  0  0  0  0  0  0  0  0  0  0
    7.2123   -3.0752   -1.1754 C   0  0  2  0  0  0  0  0  0  0  0  0
    6.0199   -3.8123   -0.6797 C   0  0  0  0  0  0  0  0  0  0  0  0
    6.0421   -4.3187    0.4475 O   0  0  0  0  0  0  0  0  0  0  0  0
    4.8127   -3.9753   -1.4203 N   0  0  0  0  0  0  0  0  0  0  0  0
    3.7103   -4.7224   -0.8147 C   0  0  2  0  0  0  0  0  0  0  0  0
    2.4658   -4.5318   -1.5462 C   0  0  0  0  0  0  0  0  0  0  0  0
    2.4236   -3.7898   -2.5391 O   0  0  0  0  0  0  0  0  0  0  0  0
    1.2304   -5.1524   -1.2029 N   0  0  0  0  0  0  0  0  0  0  0  0
   -0.0139   -4.7497   -1.9231 C   0  0  2  0  0  0  0  0  0  0  0  0
   -0.9807   -4.5187   -0.8610 C   0  0  0  0  0  0  0  0  0  0  0  0
   -0.7826   -5.0110    0.2649 O   0  0  0  0  0  0  0  0  0  0  0  0
   -2.1897   -3.7501   -0.9476 N   0  0  0  0  0  0  0  0  0  0  0  0
   -3.0084   -3.6352    0.2366 C   0  0  0  0  0  0  0  0  0  0  0  0
   -2.1082   -3.1184    1.3850 C   0  0  0  0  0  0  0  0  0  0  0  0
   -3.5746   -4.8995    0.6730 C   0  0  0  0  0  0  0  0  0  0  0  0
   -3.3257   -5.9398   -0.0252 O   0  0  0  0  0  0  0  0  0  0  0  0
   -4.3666   -5.1123    1.7804 O   0  0  0  0  0  0  0  0  0  0  0  0
   -0.3291   -5.7993   -2.9350 C   0  0  0  0  0  0  0  0  0  0  0  0
   -0.5353   -7.1435   -2.3727 C   0  0  0  0  0  0  0  0  0  0  0  0
    0.6190   -7.8863   -2.0986 C   0  0  0  0  0  0  0  0  0  0  0  0
    0.5847   -9.1670   -1.6056 C   0  0  0  0  0  0  0  0  0  0  0  0
   -0.6359   -9.7775   -1.3568 C   0  0  0  0  0  0  0  0  0  0  0  0
   -1.7776   -9.0457   -1.6267 C   0  0  0  0  0  0  0  0  0  0  0  0
   -1.7237   -7.7498   -2.1274 C   0  0  0  0  0  0  0  0  0  0  0  0
    3.5116   -4.1286    0.6268 C   0  0  0  0  0  0  0  0  0  0  0  0
    8.4829   -3.9279   -0.8397 C   0  0  0  0  0  0  0  0  0  0  0  0
    8.4110   -5.2230   -1.5178 C   0  0  0  0  0  0  0  0  0  0  0  0
    7.4649   -5.5737   -2.2628 O   0  0  0  0  0  0  0  0  0  0  0  0
    9.4797   -6.1445   -1.3196 N   0  0  0  0  0  0  0  0  0  0  0  0
    8.2488    0.2565    1.3986 C   0  0  0  0  0  0  0  0  0  0  0  0
    9.6821   -0.1652    1.4282 C   0  0  0  0  0  0  0  0  0  0  0  0
   10.0399   -1.5112    1.5402 C   0  0  0  0  0  0  0  0  0  0  0  0
   11.3884   -1.5084    1.5008 N   0  0  0  0  0  0  0  0  0  0  0  0
   11.8845   -0.2876    1.3752 C   0  0  0  0  0  0  0  0  0  0  0  0
   10.8222    0.5864    1.3286 C   0  0  0  0  0  0  0  0  0  0  0  0
   10.9570    1.9503    1.2007 C   0  0  0  0  0  0  0  0  0  0  0  0
   12.2348    2.4515    1.1134 C   0  0  0  0  0  0  0  0  0  0  0  0
   13.3275    1.6031    1.1559 C   0  0  0  0  0  0  0  0  0  0  0  0
   13.1436    0.2527    1.2849 C   0  0  0  0  0  0  0  0  0  0  0  0
   -6.1213   -2.3759   -1.1014 C   0  0  0  0  0  0  0  0  0  0  0  0
   -7.3663   -2.3400   -1.2394 O   0  0  0  0  0  0  0  0  0  0  0  0
   -5.3542   -2.0457   -2.2836 N   0  0  0  0  0  0  0  0  0  0  0  0
  -12.1040   -2.6782    0.4362 H   0  0  0  0  0  0  0  0  0  0  0  0
   -9.9849   -4.4504    1.9907 H   0  0  0  0  0  0  0  0  0  0  0  0
   -7.5342   -4.3492    2.0287 H   0  0  0  0  0  0  0  0  0  0  0  0
   -7.7345   -0.2665    0.7664 H   0  0  0  0  0  0  0  0  0  0  0  0
  -10.2088   -0.4018    0.7439 H   0  0  0  0  0  0  0  0  0  0  0  0
   -5.7045   -1.1927    1.7176 H   0  0  0  0  0  0  0  0  0  0  0  0
   -5.6740   -2.8533    2.2733 H   0  0  0  0  0  0  0  0  0  0  0  0
   -5.6076   -3.8688    0.2279 H   0  0  0  0  0  0  0  0  0  0  0  0
   -5.5338   -0.1892   -0.1994 H   0  0  0  0  0  0  0  0  0  0  0  0
   -4.3068    0.3557   -1.3118 H   0  0  0  0  0  0  0  0  0  0  0  0
   -3.8555    0.7645    1.5918 H   0  0  0  0  0  0  0  0  0  0  0  0
   -5.2791    2.7256   -0.2640 H   0  0  0  0  0  0  0  0  0  0  0  0
   -7.1931    3.7909    2.6895 H   0  0  0  0  0  0  0  0  0  0  0  0
   -8.5427    1.6633    2.1291 H   0  0  0  0  0  0  0  0  0  0  0  0
   -8.2601    2.0449    0.3644 H   0  0  0  0  0  0  0  0  0  0  0  0
   -9.3769    3.9342   -0.6852 H   0  0  0  0  0  0  0  0  0  0  0  0
  -11.3331    5.3897   -0.7363 H   0  0  0  0  0  0  0  0  0  0  0  0
  -12.0226    4.4808    3.3617 H   0  0  0  0  0  0  0  0  0  0  0  0
  -10.0456    2.9981    3.4665 H   0  0  0  0  0  0  0  0  0  0  0  0
  -12.7910    6.8433    1.2166 H   0  0  0  0  0  0  0  0  0  0  0  0
   -6.0194    4.5439    0.4982 H   0  0  0  0  0  0  0  0  0  0  0  0
   -7.6885    4.9770    0.6268 H   0  0  0  0  0  0  0  0  0  0  0  0
   -3.7278    3.7726    0.5072 H   0  0  0  0  0  0  0  0  0  0  0  0
   -1.5135    3.3961   -1.4598 H   0  0  0  0  0  0  0  0  0  0  0  0
   -1.4862    6.0028   -1.6323 H   0  0  0  0  0  0  0  0  0  0  0  0
   -2.8159    5.9837   -0.4363 H   0  0  0  0  0  0  0  0  0  0  0  0
   -3.6661    7.2580   -2.8022 H   0  0  0  0  0  0  0  0  0  0  0  0
   -5.4769    6.4372   -4.4365 H   0  0  0  0  0  0  0  0  0  0  0  0
   -3.8219    3.0545   -2.4197 H   0  0  0  0  0  0  0  0  0  0  0  0
    0.3641    5.2116   -1.3803 H   0  0  0  0  0  0  0  0  0  0  0  0
    1.5050    4.9124    1.3203 H   0  0  0  0  0  0  0  0  0  0  0  0
    2.1952    6.8175   -1.0100 H   0  0  0  0  0  0  0  0  0  0  0  0
    1.4411    7.1183    0.6211 H   0  0  0  0  0  0  0  0  0  0  0  0
    4.5598    6.7071   -1.2703 H   0  0  0  0  0  0  0  0  0  0  0  0
    6.7389    7.4173   -0.3509 H   0  0  0  0  0  0  0  0  0  0  0  0
    6.9747    8.0051    1.9964 H   0  0  0  0  0  0  0  0  0  0  0  0
    4.9937    7.8845    3.4891 H   0  0  0  0  0  0  0  0  0  0  0  0
    2.8100    7.1947    2.6296 H   0  0  0  0  0  0  0  0  0  0  0  0
    4.5296    4.3877    0.6802 H   0  0  0  0  0  0  0  0  0  0  0  0
    3.9644    1.6338   -0.3650 H   0  0  0  0  0  0  0  0  0  0  0  0
    5.4117    1.9890   -2.2542 H   0  0  0  0  0  0  0  0  0  0  0  0
    5.2640    3.7607   -1.9911 H   0  0  0  0  0  0  0  0  0  0  0  0
    3.7745    2.8218   -2.3857 H   0  0  0  0  0  0  0  0  0  0  0  0
    5.8213    0.2236   -0.4000 H   0  0  0  0  0  0  0  0  0  0  0  0
    8.5174    1.4078   -0.3162 H   0  0  0  0  0  0  0  0  0  0  0  0
    6.7669   -1.7015    0.3796 H   0  0  0  0  0  0  0  0  0  0  0  0
    7.2632   -3.0310   -2.2596 H   0  0  0  0  0  0  0  0  0  0  0  0
    4.7994   -3.5433   -2.3396 H   0  0  0  0  0  0  0  0  0  0  0  0
    4.0195   -5.7517   -0.6964 H   0  0  0  0  0  0  0  0  0  0  0  0
    1.2661   -5.8508   -0.4749 H   0  0  0  0  0  0  0  0  0  0  0  0
    0.2243   -3.8050   -2.4795 H   0  0  0  0  0  0  0  0  0  0  0  0
   -2.3662   -3.3468   -1.8635 H   0  0  0  0  0  0  0  0  0  0  0  0
   -1.8709   -3.9629    2.0886 H   0  0  0  0  0  0  0  0  0  0  0  0
   -1.1441   -2.7472    1.0122 H   0  0  0  0  0  0  0  0  0  0  0  0
   -2.5719   -2.3275    1.9618 H   0  0  0  0  0  0  0  0  0  0  0  0
   -4.8679   -5.9785    1.9416 H   0  0  0  0  0  0  0  0  0  0  0  0
    0.5208   -5.8028   -3.6778 H   0  0  0  0  0  0  0  0  0  0  0  0
   -1.2318   -5.5369   -3.5367 H   0  0  0  0  0  0  0  0  0  0  0  0
    1.5793   -7.4353   -2.2837 H   0  0  0  0  0  0  0  0  0  0  0  0
    1.5293   -9.6524   -1.4266 H   0  0  0  0  0  0  0  0  0  0  0  0
   -0.6507  -10.7873   -0.9687 H   0  0  0  0  0  0  0  0  0  0  0  0
   -2.7697   -9.4914   -1.4463 H   0  0  0  0  0  0  0  0  0  0  0  0
   -2.6299   -7.1860   -2.3391 H   0  0  0  0  0  0  0  0  0  0  0  0
    3.9808   -3.1438    0.6025 H   0  0  0  0  0  0  0  0  0  0  0  0
    3.9569   -4.8593    1.3045 H   0  0  0  0  0  0  0  0  0  0  0  0
    2.4149   -4.1082    0.7576 H   0  0  0  0  0  0  0  0  0  0  0  0
    8.4248   -4.0565    0.2566 H   0  0  0  0  0  0  0  0  0  0  0  0
    9.3903   -3.3894   -1.1179 H   0  0  0  0  0  0  0  0  0  0  0  0
    9.8103   -6.6507   -2.1708 H   0  0  0  0  0  0  0  0  0  0  0  0
    9.8979   -6.2962   -0.3783 H   0  0  0  0  0  0  0  0  0  0  0  0
    8.1682    1.2227    1.9281 H   0  0  0  0  0  0  0  0  0  0  0  0
    7.5611   -0.4648    1.8287 H   0  0  0  0  0  0  0  0  0  0  0  0
    9.3786   -2.3509    1.6366 H   0  0  0  0  0  0  0  0  0  0  0  0
   12.0149   -2.3702    1.5545 H   0  0  0  0  0  0  0  0  0  0  0  0
   10.0677    2.5954    1.1764 H   0  0  0  0  0  0  0  0  0  0  0  0
   12.3087    3.5329    1.0207 H   0  0  0  0  0  0  0  0  0  0  0  0
   14.2916    2.0553    1.0819 H   0  0  0  0  0  0  0  0  0  0  0  0
   14.0022   -0.4382    1.3147 H   0  0  0  0  0  0  0  0  0  0  0  0
   -5.8276   -1.8103   -3.1929 H   0  0  0  0  0  0  0  0  0  0  0  0
   -4.3119   -2.0297   -2.2901 H   0  0  0  0  0  0  0  0  0  0  0  0
  1  2  1  0
  2  3  2  0
  3  4  1  0
  4  5  2  0
  5  6  1  0
  6  7  2  0
  5  8  1  0
  8  9  1  0
  9 10  1  0
 10 11  1  0
 11 12  2  0
 11 13  1  0
 13 14  1  0
 14 15  1  0
 15 16  1  0
 16 17  2  0
 16 18  1  0
 18 19  1  0
 19 20  1  0
 20 21  2  0
 21 22  1  0
 22 23  2  0
 23 24  1  0
 24 25  2  0
 23 26  1  0
 18 27  1  0
 14 28  1  0
 28 29  2  0
 28 30  1  0
 30 31  1  0
 31 32  1  0
 32 33  1  0
 33 34  1  0
 34 35  1  0
 35 36  2  0
 36 37  1  0
 31 38  1  0
 38 39  2  0
 38 40  1  0
 40 41  1  0
 41 42  1  0
 42 43  1  0
 43 44  2  0
 44 45  1  0
 45 46  2  0
 46 47  1  0
 47 48  2  0
 41 49  1  0
 49 50  2  0
 49 51  1  0
 51 52  1  0
 52 53  1  0
 52 54  1  0
 54 55  2  0
 54 56  1  0
 56 57  1  0
 57 58  1  0
 58 59  2  0
 58 60  1  0
 60 61  1  0
 61 62  1  0
 62 63  2  0
 62 64  1  0
 64 65  1  0
 65 66  1  0
 66 67  2  0
 66 68  1  0
 68 69  1  0
 69 70  1  0
 70 71  2  0
 70 72  1  0
 72 73  1  0
 73 74  1  0
 73 75  1  0
 75 76  2  0
 75 77  1  0
 69 78  1  0
 78 79  1  0
 79 80  2  0
 80 81  1  0
 81 82  2  0
 82 83  1  0
 83 84  2  0
 65 85  1  0
 61 86  1  0
 86 87  1  0
 87 88  2  0
 87 89  1  0
 57 90  1  0
 90 91  1  0
 91 92  2  0
 92 93  1  0
 93 94  1  0
 94 95  2  0
 95 96  1  0
 96 97  2  0
 97 98  1  0
 98 99  2  0
  9100  1  0
100101  2  0
100102  1  0
  7  2  1  0
 73 10  1  0
 84 79  1  0
 95 91  1  0
 25 20  1  0
 37 33  2  0
 48 43  1  0
 99 94  1  0
  1103  1  0
  3104  1  0
  4105  1  0
  6106  1  0
  7107  1  0
  8108  1  0
  8109  1  0
  9110  1  1
 13111  1  0
 13112  1  0
 14113  1  1
 15114  1  0
 18115  1  1
 19116  1  0
 19117  1  0
 21118  1  0
 22119  1  0
 24120  1  0
 25121  1  0
 26122  1  0
 27123  1  0
 27124  1  0
 30125  1  0
 31126  1  6
 32127  1  0
 32128  1  0
 34129  1  0
 35130  1  0
 37131  1  0
 40132  1  0
 41133  1  1
 42134  1  0
 42135  1  0
 44136  1  0
 45137  1  0
 46138  1  0
 47139  1  0
 48140  1  0
 51141  1  0
 52142  1  6
 53143  1  0
 53144  1  0
 53145  1  0
 56146  1  0
 57147  1  6
 60148  1  0
 61149  1  6
 64150  1  0
 65151  1  1
 68152  1  0
 69153  1  6
 72154  1  0
 74155  1  0
 74156  1  0
 74157  1  0
 77158  1  0
 78159  1  0
 78160  1  0
 80161  1  0
 81162  1  0
 82163  1  0
 83164  1  0
 84165  1  0
 85166  1  0
 85167  1  0
 85168  1  0
 86169  1  0
 86170  1  0
 89171  1  0
 89172  1  0
 90173  1  0
 90174  1  0
 92175  1  0
 93176  1  0
 96177  1  0
 97178  1  0
 98179  1  0
 99180  1  0
102181  1  0
102182  1  0
M  END
>  <Ligand ID>  (1) 
LIG0001156

>  <Ligand>  (1) 
CHEMBL2096723

>  <SMILES>  (1) 
Oc1ccc(cc1)C[C@H](N1C(=O)C[C@H](NC(=O)[C@H](Cc2ccc(cc2)O)N)C(=O)N[C@@H](Cc2[nH]cnc2)C(=O)N[C@H](Cc2ccccc2)C(=O)N[C@@H](C)C(=O)N[C@H](C(=O)N[C@H](C(=O)N[C@H](C(=O)N[C@H](C(=O)NC1(C)C(=O)O)Cc1ccccc1)C)CC(=O)N)Cc1c[nH]c2c1cccc2)C(=O)N

>  <CID>  (1) 
91900707.0

>  <ChEMBL ID>  (1) 
nan

>  <InChiKey>  (1) 
IJMHIZWJFPYSHW-XFTWKXAVSA-N

>  <InChi>  (1) 
InChI=1S/C70H80N16O16/c1-37-60(92)79-51(28-40-14-8-5-9-15-40)68(100)85-70(3,69(101)102)86(56(59(73)91)29-42-20-24-46(88)25-21-42)58(90)33-55(81-62(94)48(71)26-41-18-22-45(87)23-19-41)67(99)83-53(31-44-35-74-36-76-44)66(98)82-50(27-39-12-6-4-7-13-39)63(95)77-38(2)61(93)80-52(30-43-34-75-49-17-11-10-16-47(43)49)65(97)84-54(32-57(72)89)64(96)78-37/h4-25,34-38,48,50-56,75,87-88H,26-33,71H2,1-3H3,(H2,72,89)(H2,73,91)(H,74,76)(H,77,95)(H,78,96)(H,79,92)(H,80,93)(H,81,94)(H,82,98)(H,83,99)(H,84,97)(H,85,100)(H,101,102)/t37-,38-,48-,50+,51-,52-,53-,54-,55-,56-,70?/m0/s1

>  <IUPAC Name>  (1) 
(5S,8S,11S,14S,17S,20R,23S,26S)-1-[(2S)-1-amino-3-(4-hydroxyphenyl)-1-oxopropan-2-yl]-26-[[(2S)-2-amino-3-(4-hydroxyphenyl)propanoyl]amino]-11-(2-amino-2-oxoethyl)-5,20-dibenzyl-23-(1H-imidazol-5-ylmethyl)-14-(1H-indol-3-ylmethyl)-2,8,17-trimethyl-4,7,10,13,16,19,22,25,28-nonaoxo-1,3,6,9,12,15,18,21,24-nonazacyclooctacosane-2-carboxylic acid

$$$$
