
     RDKit          3D

 34 35  0  0  0  0  0  0  0  0999 V2000
    3.2930   -1.6722    0.0135 C   0  0  0  0  0  0  0  0  0  0  0  0
    1.7760   -1.4457   -0.1471 C   0  0  0  0  0  0  0  0  0  0  0  0
    1.4546   -0.0175   -0.0136 C   0  0  0  0  0  0  0  0  0  0  0  0
    2.5125    0.8642    0.2490 C   0  0  0  0  0  0  0  0  0  0  0  0
    2.3340    2.2054    0.3887 C   0  0  0  0  0  0  0  0  0  0  0  0
    1.0523    2.7009    0.2637 C   0  0  0  0  0  0  0  0  0  0  0  0
   -0.0043    1.8682    0.0075 C   0  0  0  0  0  0  0  0  0  0  0  0
    0.1479    0.4819   -0.1417 C   0  0  0  0  0  0  0  0  0  0  0  0
   -0.9384   -0.3856   -0.4180 C   0  0  1  0  0  0  0  0  0  0  0  0
   -1.1078   -1.7400    0.0823 C   0  0  0  0  0  0  0  0  0  0  0  0
   -2.5518   -2.0350   -0.0958 N   0  0  0  0  0  0  0  0  0  0  0  0
   -3.2221   -0.7656   -0.2403 C   0  0  0  0  0  0  0  0  0  0  0  0
   -2.2191    0.2479    0.1622 C   0  0  2  0  0  0  0  0  0  0  0  0
   -2.4094    1.5739   -0.3616 N   0  0  0  0  0  0  0  0  0  0  0  0
   -1.3285    2.4973   -0.0995 C   0  0  0  0  0  0  0  0  0  0  0  0
   -1.5176    3.7296    0.0239 O   0  0  0  0  0  0  0  0  0  0  0  0
    0.8114    4.4294    0.4418 Cl  0  0  0  0  0  0  0  0  0  0  0  0
    0.6892    0.0000    0.0000 Cl  0  0  0  0  0  0  0  0  0  0  0  0
    3.6100   -1.4783    1.0452 H   0  0  0  0  0  0  0  0  0  0  0  0
    3.8759   -1.1853   -0.7662 H   0  0  0  0  0  0  0  0  0  0  0  0
    3.4115   -2.7845   -0.1313 H   0  0  0  0  0  0  0  0  0  0  0  0
    1.6042   -1.8498   -1.1592 H   0  0  0  0  0  0  0  0  0  0  0  0
    1.3777   -2.0757    0.6802 H   0  0  0  0  0  0  0  0  0  0  0  0
    3.5339    0.4870    0.3509 H   0  0  0  0  0  0  0  0  0  0  0  0
    3.1444    2.8850    0.5903 H   0  0  0  0  0  0  0  0  0  0  0  0
   -1.1248   -0.3963   -1.5288 H   0  0  0  0  0  0  0  0  0  0  0  0
   -0.6419   -2.4695   -0.6111 H   0  0  0  0  0  0  0  0  0  0  0  0
   -0.9527   -1.9194    1.1434 H   0  0  0  0  0  0  0  0  0  0  0  0
   -2.9360   -2.6325    0.6370 H   0  0  0  0  0  0  0  0  0  0  0  0
   -4.0768   -0.7250    0.4941 H   0  0  0  0  0  0  0  0  0  0  0  0
   -3.6241   -0.5568   -1.2322 H   0  0  0  0  0  0  0  0  0  0  0  0
   -2.0504    0.2583    1.2644 H   0  0  0  0  0  0  0  0  0  0  0  0
   -3.2335    1.9056   -0.8915 H   0  0  0  0  0  0  0  0  0  0  0  0
   -0.6892    0.0000    0.0000 H   0  0  0  0  0  0  0  0  0  0  0  0
  1  2  1  0
  2  3  1  0
  3  4  2  0
  4  5  1  0
  5  6  2  0
  6  7  1  0
  7  8  2  0
  8  9  1  0
  9 10  1  0
 10 11  1  0
 11 12  1  0
 12 13  1  0
 13 14  1  0
 14 15  1  0
 15 16  2  0
  6 17  1  0
  8  3  1  0
 13  9  1  0
 15  7  1  0
  1 19  1  0
  1 20  1  0
  1 21  1  0
  2 22  1  0
  2 23  1  0
  4 24  1  0
  5 25  1  0
  9 26  1  6
 10 27  1  0
 10 28  1  0
 11 29  1  0
 12 30  1  0
 12 31  1  0
 13 32  1  1
 14 33  1  0
 18 34  1  0
M  END
>  <Ligand ID>  (1) 
LIG0004097

>  <Ligand>  (1) 
CHEMBL2337499

>  <SMILES>  (1) 
CCc1ccc(c2c1[C@H]1CNC[C@@H]1NC2=O)Cl.Cl

>  <CID>  (1) 
11630622.0

>  <ChEMBL ID>  (1) 
nan

>  <InChiKey>  (1) 
TVRYULRVVKKIMV-GNAZCLTHSA-N

>  <InChi>  (1) 
InChI=1S/C13H15ClN2O.ClH/c1-2-7-3-4-9(14)12-11(7)8-5-15-6-10(8)16-13(12)17;/h3-4,8,10,15H,2,5-6H2,1H3,(H,16,17);1H/t8-,10-;/m0./s1

>  <IUPAC Name>  (1) 
(3aR,9bS)-6-chloro-9-ethyl-1,2,3,3a,4,9b-hexahydropyrrolo[3,4-c]isoquinolin-5-one;hydrochloride

$$$$
