
     RDKit          3D

 50 53  0  0  0  0  0  0  0  0999 V2000
   -6.4330    1.7461   -2.3558 O   0  0  0  0  0  0  0  0  0  0  0  0
   -6.5230    0.4157   -2.0233 C   0  0  0  0  0  0  0  0  0  0  0  0
   -5.6613    0.0780   -0.8271 C   0  0  1  0  0  0  0  0  0  0  0  0
   -4.3327    0.3383   -1.0403 O   0  0  0  0  0  0  0  0  0  0  0  0
   -3.7259    0.5672    0.1861 C   0  0  0  0  0  0  0  0  0  0  0  0
   -4.7760    0.8886    1.1871 C   0  0  1  0  0  0  0  0  0  0  0  0
   -6.0109    1.0614    0.2970 C   0  0  2  0  0  0  0  0  0  0  0  0
   -7.1574    0.6068    0.9190 O   0  0  0  0  0  0  0  0  0  0  0  0
   -5.0643   -0.0942    2.1003 O   0  0  0  0  0  0  0  0  0  0  0  0
   -2.9148   -0.5783    0.4758 N   0  0  0  0  0  0  0  0  0  0  0  0
   -3.3518   -1.7898    0.9210 C   0  0  0  0  0  0  0  0  0  0  0  0
   -2.2755   -2.6101    1.0753 N   0  0  0  0  0  0  0  0  0  0  0  0
   -1.1575   -1.9492    0.7382 C   0  0  0  0  0  0  0  0  0  0  0  0
   -1.5738   -0.6885    0.3683 C   0  0  0  0  0  0  0  0  0  0  0  0
   -0.6756    0.2316   -0.0305 N   0  0  0  0  0  0  0  0  0  0  0  0
    0.6273   -0.0607   -0.0740 C   0  0  0  0  0  0  0  0  0  0  0  0
    1.5519    0.9332   -0.4999 N   0  0  0  0  0  0  0  0  0  0  0  0
    2.9313    0.7134   -0.5756 N   0  0  0  0  0  0  0  0  0  0  0  0
    3.7811    1.1776    0.2630 C   0  0  0  0  0  0  0  0  0  0  0  0
    5.1820    0.8731    0.0661 C   0  0  0  0  0  0  0  0  0  0  0  0
    5.5425    0.0926   -1.0212 C   0  0  0  0  0  0  0  0  0  0  0  0
    6.8775   -0.1836   -1.1881 C   0  0  0  0  0  0  0  0  0  0  0  0
    7.8684    0.2669   -0.3443 C   0  0  0  0  0  0  0  0  0  0  0  0
    7.4869    1.0441    0.7343 C   0  0  0  0  0  0  0  0  0  0  0  0
    6.1492    1.3425    0.9335 C   0  0  0  0  0  0  0  0  0  0  0  0
    9.3057   -0.0718   -0.5852 C   0  0  0  0  0  0  0  0  0  0  0  0
    1.0895   -1.2702    0.2741 N   0  0  0  0  0  0  0  0  0  0  0  0
    0.1893   -2.2090    0.6792 C   0  0  0  0  0  0  0  0  0  0  0  0
    0.6228   -3.5268    1.0660 N   0  0  0  0  0  0  0  0  0  0  0  0
   -7.1771    2.2883   -2.0202 H   0  0  0  0  0  0  0  0  0  0  0  0
   -6.2216   -0.2088   -2.8918 H   0  0  0  0  0  0  0  0  0  0  0  0
   -7.5770    0.1955   -1.7501 H   0  0  0  0  0  0  0  0  0  0  0  0
   -5.8197   -0.9344   -0.4582 H   0  0  0  0  0  0  0  0  0  0  0  0
   -3.0413    1.4475    0.0479 H   0  0  0  0  0  0  0  0  0  0  0  0
   -4.5743    1.8780    1.6442 H   0  0  0  0  0  0  0  0  0  0  0  0
   -6.0799    2.0881   -0.0860 H   0  0  0  0  0  0  0  0  0  0  0  0
   -7.9444    1.0163    0.5092 H   0  0  0  0  0  0  0  0  0  0  0  0
   -5.9631   -0.4864    1.9826 H   0  0  0  0  0  0  0  0  0  0  0  0
   -4.3650   -2.1038    1.1328 H   0  0  0  0  0  0  0  0  0  0  0  0
    1.2236    1.8896   -0.7790 H   0  0  0  0  0  0  0  0  0  0  0  0
    3.4320    1.7812    1.0912 H   0  0  0  0  0  0  0  0  0  0  0  0
    4.8125   -0.2839   -1.7087 H   0  0  0  0  0  0  0  0  0  0  0  0
    7.1438   -0.7987   -2.0482 H   0  0  0  0  0  0  0  0  0  0  0  0
    8.2605    1.4055    1.4074 H   0  0  0  0  0  0  0  0  0  0  0  0
    5.8668    1.9578    1.7910 H   0  0  0  0  0  0  0  0  0  0  0  0
    9.5373    0.0651   -1.6742 H   0  0  0  0  0  0  0  0  0  0  0  0
    9.9093    0.5952    0.0437 H   0  0  0  0  0  0  0  0  0  0  0  0
    9.4517   -1.1273   -0.3369 H   0  0  0  0  0  0  0  0  0  0  0  0
    0.4702   -4.3358    0.4035 H   0  0  0  0  0  0  0  0  0  0  0  0
    1.0838   -3.6737    1.9963 H   0  0  0  0  0  0  0  0  0  0  0  0
  1  2  1  0
  2  3  1  0
  3  4  1  0
  4  5  1  0
  5  6  1  0
  6  7  1  0
  7  8  1  0
  6  9  1  0
  5 10  1  0
 10 11  1  0
 11 12  2  0
 12 13  1  0
 13 14  2  0
 14 15  1  0
 15 16  2  0
 16 17  1  0
 17 18  1  0
 18 19  2  0
 19 20  1  0
 20 21  2  0
 21 22  1  0
 22 23  2  0
 23 24  1  0
 24 25  2  0
 23 26  1  0
 16 27  1  0
 27 28  2  0
 28 29  1  0
  7  3  1  0
 14 10  1  0
 25 20  1  0
 28 13  1  0
  1 30  1  0
  2 31  1  0
  2 32  1  0
  3 33  1  1
  5 34  1  0
  6 35  1  1
  7 36  1  6
  8 37  1  0
  9 38  1  0
 11 39  1  0
 17 40  1  0
 19 41  1  0
 21 42  1  0
 22 43  1  0
 24 44  1  0
 25 45  1  0
 26 46  1  0
 26 47  1  0
 26 48  1  0
 29 49  1  0
 29 50  1  0
M  END
>  <Ligand ID>  (1) 
LIG0003798

>  <Ligand>  (1) 
CID 46876053

>  <SMILES>  (1) 
OC[C@H]1OC([C@@H]([C@@H]1O)O)n1cnc2c1nc(N/N=C/c1ccc(cc1)C)nc2N

>  <CID>  (1) 
46876053.0

>  <ChEMBL ID>  (1) 
nan

>  <InChiKey>  (1) 
DUVUQYFYWUDDPW-UKDPARRBSA-N

>  <InChi>  (1) 
InChI=1S/C18H21N7O4/c1-9-2-4-10(5-3-9)6-21-24-18-22-15(19)12-16(23-18)25(8-20-12)17-14(28)13(27)11(7-26)29-17/h2-6,8,11,13-14,17,26-28H,7H2,1H3,(H3,19,22,23,24)/b21-6+/t11-,13-,14-,17?/m1/s1

>  <IUPAC Name>  (1) 
(3R,4S,5R)-2-[6-amino-2-[(2E)-2-[(4-methylphenyl)methylidene]hydrazinyl]purin-9-yl]-5-(hydroxymethyl)oxolane-3,4-diol

$$$$
