
     RDKit          3D

 25 25  0  0  0  0  0  0  0  0999 V2000
   -4.0249   -0.1130   -1.5356 O   0  0  0  0  0  0  0  0  0  0  0  0
   -2.9890    0.6694   -1.0546 C   0  0  0  0  0  0  0  0  0  0  0  0
   -2.5817    1.6080   -1.8053 O   0  0  0  0  0  0  0  0  0  0  0  0
   -2.3567    0.4471    0.2815 C   0  0  0  0  0  0  0  0  0  0  0  0
   -0.9134    0.2149    0.1611 C   0  0  0  0  0  0  0  0  0  0  0  0
   -0.4516   -0.9937   -0.3142 C   0  0  0  0  0  0  0  0  0  0  0  0
    0.9248   -1.2002   -0.4233 C   0  0  0  0  0  0  0  0  0  0  0  0
    1.7688   -0.1792   -0.0483 C   0  0  0  0  0  0  0  0  0  0  0  0
    1.3279    1.0380    0.4298 C   0  0  0  0  0  0  0  0  0  0  0  0
   -0.0358    1.2158    0.5276 C   0  0  0  0  0  0  0  0  0  0  0  0
    3.5342   -0.4411   -0.1871 P   0  0  0  0  0  0  0  0  0  0  0  0
    3.9134   -0.9595   -1.5722 O   0  0  0  0  0  0  0  0  0  0  0  0
    4.3814    1.0066    0.0018 O   0  0  0  0  0  0  0  0  0  0  0  0
    4.0770   -1.5407    0.9938 O   0  0  0  0  0  0  0  0  0  0  0  0
   -3.0409   -0.6863    0.8820 N   0  0  0  0  0  0  0  0  0  0  0  0
   -4.7460    0.3364   -2.1193 H   0  0  0  0  0  0  0  0  0  0  0  0
   -2.5858    1.3572    0.8780 H   0  0  0  0  0  0  0  0  0  0  0  0
   -1.0940   -1.8102   -0.6148 H   0  0  0  0  0  0  0  0  0  0  0  0
    1.3179   -2.1435   -0.7950 H   0  0  0  0  0  0  0  0  0  0  0  0
    2.0119    1.8239    0.7177 H   0  0  0  0  0  0  0  0  0  0  0  0
   -0.3896    2.1702    0.9027 H   0  0  0  0  0  0  0  0  0  0  0  0
    3.7951    1.7488   -0.3071 H   0  0  0  0  0  0  0  0  0  0  0  0
    5.0717   -1.5800    0.8547 H   0  0  0  0  0  0  0  0  0  0  0  0
   -4.0246   -0.4557    1.0632 H   0  0  0  0  0  0  0  0  0  0  0  0
   -2.8902   -1.5331    0.3114 H   0  0  0  0  0  0  0  0  0  0  0  0
  1  2  1  0
  2  3  2  0
  2  4  1  0
  4  5  1  0
  5  6  2  0
  6  7  1  0
  7  8  2  0
  8  9  1  0
  9 10  2  0
  8 11  1  0
 11 12  2  0
 11 13  1  0
 11 14  1  0
  4 15  1  0
 10  5  1  0
  1 16  1  0
  4 17  1  0
  6 18  1  0
  7 19  1  0
  9 20  1  0
 10 21  1  0
 13 22  1  0
 14 23  1  0
 15 24  1  0
 15 25  1  0
M  END
>  <Ligand ID>  (1) 
LIG0000324

>  <Ligand>  (1) 
(R,S)-4-PPG

>  <SMILES>  (1) 
OC(=O)C(c1ccc(cc1)P(=O)(O)O)N

>  <CID>  (1) 
4545574.0

>  <ChEMBL ID>  (1) 
nan

>  <InChiKey>  (1) 
JRQRKFDFHAPMGQ-UHFFFAOYSA-N

>  <InChi>  (1) 
InChI=1S/C8H10NO5P/c9-7(8(10)11)5-1-3-6(4-2-5)15(12,13)14/h1-4,7H,9H2,(H,10,11)(H2,12,13,14)

>  <IUPAC Name>  (1) 
2-amino-2-(4-phosphonophenyl)acetic acid

$$$$
