
     RDKit          3D

 75 78  0  0  0  0  0  0  0  0999 V2000
   -5.9416    3.7380   -1.8280 O   0  0  0  0  0  0  0  0  0  0  0  0
   -5.6157    2.5725   -1.4010 C   0  0  0  0  0  0  0  0  0  0  0  0
   -4.2195    2.2696   -1.1811 C   0  0  0  0  0  0  0  0  0  0  0  0
   -3.3099    3.2840   -1.4727 C   0  0  0  0  0  0  0  0  0  0  0  0
   -1.9540    3.1424   -1.3239 C   0  0  0  0  0  0  0  0  0  0  0  0
   -1.4437    1.9539   -0.8676 C   0  0  0  0  0  0  0  0  0  0  0  0
   -2.3229    0.9396   -0.5734 C   0  0  0  0  0  0  0  0  0  0  0  0
   -3.7089    1.0776   -0.7225 C   0  0  0  0  0  0  0  0  0  0  0  0
   -4.5681    0.0669   -0.4251 O   0  0  0  0  0  0  0  0  0  0  0  0
   -4.2947   -1.1927    0.0820 C   0  0  0  0  0  0  0  0  0  0  0  0
   -4.5952   -2.3121   -0.9157 C   0  0  0  0  0  0  0  0  0  0  0  0
   -4.9028   -3.5588   -0.1179 C   0  0  0  0  0  0  0  0  0  0  0  0
   -6.3013   -3.3859    0.4696 C   0  0  0  0  0  0  0  0  0  0  0  0
   -6.3900   -2.0463    1.1394 C   0  0  0  0  0  0  0  0  0  0  0  0
   -5.0254   -1.4578    1.3924 C   0  0  0  0  0  0  0  0  0  0  0  0
    0.0013    1.8490   -0.7327 C   0  0  0  0  0  0  0  0  0  0  0  0
    0.7485    2.9537   -0.3980 C   0  0  0  0  0  0  0  0  0  0  0  0
    2.1215    2.9142   -0.2760 C   0  0  0  0  0  0  0  0  0  0  0  0
    2.8038    1.7119   -0.4974 C   0  0  0  0  0  0  0  0  0  0  0  0
    2.0669    0.5745   -0.8384 C   0  0  0  0  0  0  0  0  0  0  0  0
    0.6849    0.6634   -0.9492 C   0  0  0  0  0  0  0  0  0  0  0  0
    4.2835    1.6819   -0.3654 C   0  0  0  0  0  0  0  0  0  0  0  0
    4.7436    1.3158    1.0138 C   0  0  0  0  0  0  0  0  0  0  0  0
    6.1539    1.2876    1.1805 N   0  0  0  0  0  0  0  0  0  0  0  0
    6.8843    0.2783    0.5046 C   0  0  0  0  0  0  0  0  0  0  0  0
    6.6373   -1.1323    1.0112 C   0  0  1  0  0  0  0  0  0  0  0  0
    7.4621   -2.1194    0.2579 C   0  0  0  0  0  0  0  0  0  0  0  0
    7.0331   -2.7232   -0.9054 C   0  0  0  0  0  0  0  0  0  0  0  0
    7.8237   -3.6104   -1.5519 N   0  0  0  0  0  0  0  0  0  0  0  0
    9.0372   -3.9351   -1.0976 C   0  0  0  0  0  0  0  0  0  0  0  0
    9.5406   -3.3647    0.0750 C   0  0  0  0  0  0  0  0  0  0  0  0
    8.7231   -2.4539    0.7344 C   0  0  0  0  0  0  0  0  0  0  0  0
    9.1849   -1.8357    1.9440 N   0  0  0  0  0  0  0  0  0  0  0  0
    6.9828   -1.2444    2.3485 O   0  0  0  0  0  0  0  0  0  0  0  0
   -6.7002    1.6963   -1.1896 N   0  0  0  0  0  0  0  0  0  0  0  0
   -8.2998    2.2893   -1.5231 S   0  0  0  0  0  0  0  0  0  0  0  0
   -8.2331    3.3771   -2.5456 O   0  0  0  0  0  0  0  0  0  0  0  0
   -9.1782    1.1531   -1.9030 O   0  0  0  0  0  0  0  0  0  0  0  0
   -8.9364    2.9994   -0.0033 C   0  0  0  0  0  0  0  0  0  0  0  0
   -3.6452    4.2607   -1.8417 H   0  0  0  0  0  0  0  0  0  0  0  0
   -1.2968    3.9509   -1.5615 H   0  0  0  0  0  0  0  0  0  0  0  0
   -1.8748    0.0178   -0.2168 H   0  0  0  0  0  0  0  0  0  0  0  0
   -3.2271   -1.2973    0.3145 H   0  0  0  0  0  0  0  0  0  0  0  0
   -3.6823   -2.4935   -1.5505 H   0  0  0  0  0  0  0  0  0  0  0  0
   -5.3988   -2.0045   -1.5961 H   0  0  0  0  0  0  0  0  0  0  0  0
   -4.8766   -4.4610   -0.7306 H   0  0  0  0  0  0  0  0  0  0  0  0
   -4.1768   -3.6210    0.7110 H   0  0  0  0  0  0  0  0  0  0  0  0
   -6.4754   -4.1783    1.2522 H   0  0  0  0  0  0  0  0  0  0  0  0
   -7.0034   -3.4583   -0.3796 H   0  0  0  0  0  0  0  0  0  0  0  0
   -6.8930   -2.1491    2.1374 H   0  0  0  0  0  0  0  0  0  0  0  0
   -6.9847   -1.3343    0.5421 H   0  0  0  0  0  0  0  0  0  0  0  0
   -5.2190   -0.4436    1.8466 H   0  0  0  0  0  0  0  0  0  0  0  0
   -4.4167   -2.0371    2.0882 H   0  0  0  0  0  0  0  0  0  0  0  0
    0.2898    3.9351   -0.2083 H   0  0  0  0  0  0  0  0  0  0  0  0
    2.7087    3.7873   -0.0101 H   0  0  0  0  0  0  0  0  0  0  0  0
    2.5859   -0.3609   -1.0111 H   0  0  0  0  0  0  0  0  0  0  0  0
    0.0973   -0.2171   -1.2151 H   0  0  0  0  0  0  0  0  0  0  0  0
    4.6326    2.6764   -0.6925 H   0  0  0  0  0  0  0  0  0  0  0  0
    4.6168    0.8717   -1.0540 H   0  0  0  0  0  0  0  0  0  0  0  0
    4.3131    0.3414    1.3229 H   0  0  0  0  0  0  0  0  0  0  0  0
    4.3407    2.0709    1.7202 H   0  0  0  0  0  0  0  0  0  0  0  0
    6.5228    1.4541    2.1170 H   0  0  0  0  0  0  0  0  0  0  0  0
    7.9618    0.4706    0.6934 H   0  0  0  0  0  0  0  0  0  0  0  0
    6.7683    0.3241   -0.6091 H   0  0  0  0  0  0  0  0  0  0  0  0
    5.5713   -1.3572    0.8035 H   0  0  0  0  0  0  0  0  0  0  0  0
    6.0400   -2.4816   -1.3103 H   0  0  0  0  0  0  0  0  0  0  0  0
    9.6475   -4.6577   -1.6494 H   0  0  0  0  0  0  0  0  0  0  0  0
   10.4994   -3.5932    0.4749 H   0  0  0  0  0  0  0  0  0  0  0  0
    9.0388   -2.3927    2.8153 H   0  0  0  0  0  0  0  0  0  0  0  0
    9.6405   -0.8821    1.9382 H   0  0  0  0  0  0  0  0  0  0  0  0
    6.6235   -0.4482    2.8170 H   0  0  0  0  0  0  0  0  0  0  0  0
   -6.5754    0.7432   -0.8553 H   0  0  0  0  0  0  0  0  0  0  0  0
   -9.0152    2.2358    0.7879 H   0  0  0  0  0  0  0  0  0  0  0  0
   -9.8911    3.5381   -0.2023 H   0  0  0  0  0  0  0  0  0  0  0  0
   -8.2220    3.7732    0.3794 H   0  0  0  0  0  0  0  0  0  0  0  0
  1  2  2  0
  2  3  1  0
  3  4  2  0
  4  5  1  0
  5  6  2  0
  6  7  1  0
  7  8  2  0
  8  9  1  0
  9 10  1  0
 10 11  1  0
 11 12  1  0
 12 13  1  0
 13 14  1  0
 14 15  1  0
  6 16  1  0
 16 17  2  0
 17 18  1  0
 18 19  2  0
 19 20  1  0
 20 21  2  0
 19 22  1  0
 22 23  1  0
 23 24  1  0
 24 25  1  0
 25 26  1  0
 26 27  1  0
 27 28  2  0
 28 29  1  0
 29 30  2  0
 30 31  1  0
 31 32  2  0
 32 33  1  0
 26 34  1  0
  2 35  1  0
 35 36  1  0
 36 37  2  0
 36 38  2  0
 36 39  1  0
  8  3  1  0
 15 10  1  0
 21 16  1  0
 32 27  1  0
  4 40  1  0
  5 41  1  0
  7 42  1  0
 10 43  1  0
 11 44  1  0
 11 45  1  0
 12 46  1  0
 12 47  1  0
 13 48  1  0
 13 49  1  0
 14 50  1  0
 14 51  1  0
 15 52  1  0
 15 53  1  0
 17 54  1  0
 18 55  1  0
 20 56  1  0
 21 57  1  0
 22 58  1  0
 22 59  1  0
 23 60  1  0
 23 61  1  0
 24 62  1  0
 25 63  1  0
 25 64  1  0
 26 65  1  1
 28 66  1  0
 30 67  1  0
 31 68  1  0
 33 69  1  0
 33 70  1  0
 34 71  1  0
 35 72  1  0
 39 73  1  0
 39 74  1  0
 39 75  1  0
M  END
>  <Ligand ID>  (1) 
LIG0002022

>  <Ligand>  (1) 
CHEMBL446806

>  <SMILES>  (1) 
O=C(c1ccc(cc1OC1CCCCC1)c1ccc(cc1)CCNC[C@@H](c1cnccc1N)O)NS(=O)(=O)C

>  <CID>  (1) 
44565931.0

>  <ChEMBL ID>  (1) 
nan

>  <InChiKey>  (1) 
KIBRFGHODPOHEM-MHZLTWQESA-N

>  <InChi>  (1) 
InChI=1S/C29H36N4O5S/c1-39(36,37)33-29(35)24-12-11-22(17-28(24)38-23-5-3-2-4-6-23)21-9-7-20(8-10-21)13-15-32-19-27(34)25-18-31-16-14-26(25)30/h7-12,14,16-18,23,27,32,34H,2-6,13,15,19H2,1H3,(H2,30,31)(H,33,35)/t27-/m0/s1

>  <IUPAC Name>  (1) 
4-[4-[2-[[(2R)-2-(4-aminopyridin-3-yl)-2-hydroxyethyl]amino]ethyl]phenyl]-2-cyclohexyloxy-N-methylsulfonylbenzamide

$$$$
