
     RDKit          3D

 42 43  0  0  0  0  0  0  0  0999 V2000
   -7.4627   -0.0949   -0.3248 C   0  0  0  0  0  0  0  0  0  0  0  0
   -6.7343    1.2197   -0.3321 C   0  0  0  0  0  0  0  0  0  0  0  0
   -5.3745    1.1010   -0.6218 O   0  0  0  0  0  0  0  0  0  0  0  0
   -4.4576    0.3840    0.0981 C   0  0  0  0  0  0  0  0  0  0  0  0
   -4.7710   -0.3417    1.2467 C   0  0  0  0  0  0  0  0  0  0  0  0
   -3.7998   -1.0461    1.9300 C   0  0  0  0  0  0  0  0  0  0  0  0
   -2.4759   -1.0570    1.4976 C   0  0  0  0  0  0  0  0  0  0  0  0
   -2.1774   -0.3260    0.3464 C   0  0  0  0  0  0  0  0  0  0  0  0
   -3.1484    0.3808   -0.3405 C   0  0  0  0  0  0  0  0  0  0  0  0
   -0.8034   -0.2970   -0.1603 C   0  0  0  0  0  0  0  0  0  0  0  0
   -0.5193   -0.4596   -1.4984 C   0  0  0  0  0  0  0  0  0  0  0  0
    0.7955   -0.4202   -1.8984 C   0  0  0  0  0  0  0  0  0  0  0  0
    1.8402   -0.2223   -0.9980 C   0  0  0  0  0  0  0  0  0  0  0  0
    1.5235   -0.0624    0.3372 C   0  0  0  0  0  0  0  0  0  0  0  0
    0.2034   -0.0983    0.7655 C   0  0  0  0  0  0  0  0  0  0  0  0
    3.1502   -0.1932   -1.4710 O   0  0  0  0  0  0  0  0  0  0  0  0
    4.1732    0.0087   -0.5299 C   0  0  0  0  0  0  0  0  0  0  0  0
    5.5527    0.0239   -1.1418 C   0  0  0  0  0  0  0  0  0  0  0  0
    6.5236    0.2525    0.0221 C   0  0  0  0  0  0  0  0  0  0  0  0
    7.9179    0.2758   -0.5386 C   0  0  0  0  0  0  0  0  0  0  0  0
    8.0693    0.1159   -1.7880 O   0  0  0  0  0  0  0  0  0  0  0  0
    8.9895    0.4689    0.3138 O   0  0  0  0  0  0  0  0  0  0  0  0
   -1.5281   -1.7506    2.1734 F   0  0  0  0  0  0  0  0  0  0  0  0
   -8.0031   -0.2528    0.6419 H   0  0  0  0  0  0  0  0  0  0  0  0
   -8.2724   -0.0093   -1.1022 H   0  0  0  0  0  0  0  0  0  0  0  0
   -6.8166   -0.9548   -0.5844 H   0  0  0  0  0  0  0  0  0  0  0  0
   -7.1993    1.9738   -0.9786 H   0  0  0  0  0  0  0  0  0  0  0  0
   -6.7914    1.6486    0.7088 H   0  0  0  0  0  0  0  0  0  0  0  0
   -5.7913   -0.3473    1.6001 H   0  0  0  0  0  0  0  0  0  0  0  0
   -4.0018   -1.6184    2.8207 H   0  0  0  0  0  0  0  0  0  0  0  0
   -2.8833    0.9422   -1.2367 H   0  0  0  0  0  0  0  0  0  0  0  0
   -1.3316   -0.6141   -2.2028 H   0  0  0  0  0  0  0  0  0  0  0  0
    0.9756   -0.5535   -2.9674 H   0  0  0  0  0  0  0  0  0  0  0  0
    2.3531    0.0895    1.0135 H   0  0  0  0  0  0  0  0  0  0  0  0
   -0.0191    0.0289    1.8119 H   0  0  0  0  0  0  0  0  0  0  0  0
    4.1603   -0.7748    0.2372 H   0  0  0  0  0  0  0  0  0  0  0  0
    4.0469    1.0287   -0.0722 H   0  0  0  0  0  0  0  0  0  0  0  0
    5.6986    0.8292   -1.8754 H   0  0  0  0  0  0  0  0  0  0  0  0
    5.8311   -0.9306   -1.6287 H   0  0  0  0  0  0  0  0  0  0  0  0
    6.3078    1.2149    0.5287 H   0  0  0  0  0  0  0  0  0  0  0  0
    6.4569   -0.5429    0.7681 H   0  0  0  0  0  0  0  0  0  0  0  0
    9.7932    0.9808   -0.0562 H   0  0  0  0  0  0  0  0  0  0  0  0
  1  2  1  0
  2  3  1  0
  3  4  1  0
  4  5  2  0
  5  6  1  0
  6  7  2  0
  7  8  1  0
  8  9  2  0
  8 10  1  0
 10 11  2  0
 11 12  1  0
 12 13  2  0
 13 14  1  0
 14 15  2  0
 13 16  1  0
 16 17  1  0
 17 18  1  0
 18 19  1  0
 19 20  1  0
 20 21  2  0
 20 22  1  0
  7 23  1  0
  9  4  1  0
 15 10  1  0
  1 24  1  0
  1 25  1  0
  1 26  1  0
  2 27  1  0
  2 28  1  0
  5 29  1  0
  6 30  1  0
  9 31  1  0
 11 32  1  0
 12 33  1  0
 14 34  1  0
 15 35  1  0
 17 36  1  0
 17 37  1  0
 18 38  1  0
 18 39  1  0
 19 40  1  0
 19 41  1  0
 22 42  1  0
M  END
>  <Ligand ID>  (1) 
LIG0004478

>  <Ligand>  (1) 
CHEMBL3896714

>  <SMILES>  (1) 
CCOc1ccc(c(c1)c1ccc(cc1)OCCCC(=O)O)F

>  <CID>  (1) 
134133675.0

>  <ChEMBL ID>  (1) 
nan

>  <InChiKey>  (1) 
LWCNQNBJWIHKEA-UHFFFAOYSA-N

>  <InChi>  (1) 
InChI=1S/C18H19FO4/c1-2-22-15-9-10-17(19)16(12-15)13-5-7-14(8-6-13)23-11-3-4-18(20)21/h5-10,12H,2-4,11H2,1H3,(H,20,21)

>  <IUPAC Name>  (1) 
4-[4-(5-ethoxy-2-fluorophenyl)phenoxy]butanoic acid

$$$$
