
     RDKit          3D

 51 52  0  0  0  0  0  0  0  0999 V2000
    1.9465    1.7819    1.1853 C   0  0  0  0  0  0  0  0  0  0  0  0
    1.1462    1.4147   -0.0345 C   0  0  2  0  0  0  0  0  0  0  0  0
   -0.1557    0.7643    0.4101 C   0  0  0  0  0  0  0  0  0  0  0  0
   -0.9801    0.3849   -0.7053 N   0  0  0  0  0  0  0  0  0  0  0  0
   -2.2595   -0.2184   -0.5738 C   0  0  0  0  0  0  0  0  0  0  0  0
   -2.7831   -0.4738    0.6741 C   0  0  0  0  0  0  0  0  0  0  0  0
   -4.0280   -1.0550    0.7365 C   0  0  0  0  0  0  0  0  0  0  0  0
   -4.7735   -1.3923   -0.3730 C   0  0  0  0  0  0  0  0  0  0  0  0
   -4.2394   -1.1320   -1.6349 C   0  0  0  0  0  0  0  0  0  0  0  0
   -2.9828   -0.5457   -1.7006 C   0  0  0  0  0  0  0  0  0  0  0  0
   -6.1138   -2.0156   -0.3054 C   0  0  0  0  0  0  0  0  0  0  0  0
   -7.2348   -0.9996   -0.2689 C   0  0  0  0  0  0  0  0  0  0  0  0
   -7.1487   -0.1045    0.8889 C   0  0  0  0  0  0  0  0  0  0  0  0
   -7.5696   -0.4405    2.0406 O   0  0  0  0  0  0  0  0  0  0  0  0
   -6.5966    1.1680    0.7767 O   0  0  0  0  0  0  0  0  0  0  0  0
    1.9084    0.6329   -0.9043 N   0  0  0  0  0  0  0  0  0  0  0  0
    3.0457    1.1114   -1.5383 C   0  0  0  0  0  0  0  0  0  0  0  0
    4.2741    1.4055   -0.7744 C   0  0  1  0  0  0  0  0  0  0  0  0
    4.9529    0.2231   -0.1825 C   0  0  0  0  0  0  0  0  0  0  0  0
    4.3775   -0.9863    0.0339 C   0  0  0  0  0  0  0  0  0  0  0  0
    5.1271   -2.0058    0.5938 C   0  0  0  0  0  0  0  0  0  0  0  0
    6.4518   -1.8548    0.9498 C   0  0  0  0  0  0  0  0  0  0  0  0
    7.0396   -0.6229    0.7301 C   0  0  0  0  0  0  0  0  0  0  0  0
    6.2906    0.3974    0.1702 C   0  0  0  0  0  0  0  0  0  0  0  0
    8.7298   -0.3171    1.1471 Cl  0  0  0  0  0  0  0  0  0  0  0  0
    5.2211    1.8908   -1.7297 O   0  0  0  0  0  0  0  0  0  0  0  0
    2.7227    1.0392    1.4441 H   0  0  0  0  0  0  0  0  0  0  0  0
    1.2290    1.7396    2.0673 H   0  0  0  0  0  0  0  0  0  0  0  0
    2.3057    2.8340    1.1555 H   0  0  0  0  0  0  0  0  0  0  0  0
    0.8018    2.3378   -0.5876 H   0  0  0  0  0  0  0  0  0  0  0  0
    0.0620   -0.0461    1.1081 H   0  0  0  0  0  0  0  0  0  0  0  0
   -0.7500    1.5212    0.9818 H   0  0  0  0  0  0  0  0  0  0  0  0
   -0.5875    0.5759   -1.6664 H   0  0  0  0  0  0  0  0  0  0  0  0
   -2.2221   -0.2199    1.5744 H   0  0  0  0  0  0  0  0  0  0  0  0
   -4.4374   -1.2540    1.7182 H   0  0  0  0  0  0  0  0  0  0  0  0
   -4.8059   -1.3884   -2.5188 H   0  0  0  0  0  0  0  0  0  0  0  0
   -2.6067   -0.3614   -2.7112 H   0  0  0  0  0  0  0  0  0  0  0  0
   -6.1508   -2.5525    0.6740 H   0  0  0  0  0  0  0  0  0  0  0  0
   -6.2518   -2.7552   -1.0912 H   0  0  0  0  0  0  0  0  0  0  0  0
   -8.1791   -1.5853   -0.1889 H   0  0  0  0  0  0  0  0  0  0  0  0
   -7.3149   -0.3827   -1.1690 H   0  0  0  0  0  0  0  0  0  0  0  0
   -6.8497    1.9441    1.3884 H   0  0  0  0  0  0  0  0  0  0  0  0
    1.4433   -0.2016   -1.3167 H   0  0  0  0  0  0  0  0  0  0  0  0
    3.3397    0.3573   -2.3347 H   0  0  0  0  0  0  0  0  0  0  0  0
    2.7696    2.0224   -2.1577 H   0  0  0  0  0  0  0  0  0  0  0  0
    4.2365    2.1798   -0.0130 H   0  0  0  0  0  0  0  0  0  0  0  0
    3.3452   -1.1386   -0.2309 H   0  0  0  0  0  0  0  0  0  0  0  0
    4.6812   -2.9803    0.7731 H   0  0  0  0  0  0  0  0  0  0  0  0
    7.0328   -2.6724    1.3934 H   0  0  0  0  0  0  0  0  0  0  0  0
    6.7768    1.3681    0.0064 H   0  0  0  0  0  0  0  0  0  0  0  0
    5.7638    2.6085   -1.3608 H   0  0  0  0  0  0  0  0  0  0  0  0
  1  2  1  0
  2  3  1  0
  3  4  1  0
  4  5  1  0
  5  6  2  0
  6  7  1  0
  7  8  2  0
  8  9  1  0
  9 10  2  0
  8 11  1  0
 11 12  1  0
 12 13  1  0
 13 14  2  0
 13 15  1  0
  2 16  1  0
 16 17  1  0
 17 18  1  0
 18 19  1  0
 19 20  2  0
 20 21  1  0
 21 22  2  0
 22 23  1  0
 23 24  2  0
 23 25  1  0
 18 26  1  0
 10  5  1  0
 24 19  1  0
  1 27  1  0
  1 28  1  0
  1 29  1  0
  2 30  1  6
  3 31  1  0
  3 32  1  0
  4 33  1  0
  6 34  1  0
  7 35  1  0
  9 36  1  0
 10 37  1  0
 11 38  1  0
 11 39  1  0
 12 40  1  0
 12 41  1  0
 15 42  1  0
 16 43  1  0
 17 44  1  0
 17 45  1  0
 18 46  1  1
 20 47  1  0
 21 48  1  0
 22 49  1  0
 24 50  1  0
 26 51  1  0
M  END
>  <Ligand ID>  (1) 
LIG0002246

>  <Ligand>  (1) 
CHEMBL153558

>  <SMILES>  (1) 
C[C@H](CNc1ccc(cc1)CCC(=O)O)NC[C@@H](c1cccc(c1)Cl)O

>  <CID>  (1) 
11003341.0

>  <ChEMBL ID>  (1) 
nan

>  <InChiKey>  (1) 
PBYLYDVMGVRMLG-KUHUBIRLSA-N

>  <InChi>  (1) 
InChI=1S/C20H25ClN2O3/c1-14(22-13-19(24)16-3-2-4-17(21)11-16)12-23-18-8-5-15(6-9-18)7-10-20(25)26/h2-6,8-9,11,14,19,22-24H,7,10,12-13H2,1H3,(H,25,26)/t14-,19+/m1/s1

>  <IUPAC Name>  (1) 
3-[4-[[(2R)-2-[[(2R)-2-(3-chlorophenyl)-2-hydroxyethyl]amino]propyl]amino]phenyl]propanoic acid

$$$$
