
     RDKit          3D

 17 17  0  0  0  0  0  0  0  0999 V2000
    3.0282   -0.1782   -0.1020 C   0  0  0  0  0  0  0  0  0  0  0  0
    1.9803   -0.9199    0.1959 C   0  0  0  0  0  0  0  0  0  0  0  0
    0.6282   -0.4209    0.0073 C   0  0  0  0  0  0  0  0  0  0  0  0
    0.3289    0.8235   -0.4807 C   0  0  0  0  0  0  0  0  0  0  0  0
   -0.9802    1.2760   -0.6512 C   0  0  0  0  0  0  0  0  0  0  0  0
   -2.0403    0.4567   -0.3226 C   0  0  0  0  0  0  0  0  0  0  0  0
   -1.7655   -0.8000    0.1704 C   0  0  0  0  0  0  0  0  0  0  0  0
   -0.4653   -1.2310    0.3325 C   0  0  0  0  0  0  0  0  0  0  0  0
   -3.3541    0.8755   -0.4798 O   0  0  0  0  0  0  0  0  0  0  0  0
    2.9930    0.8119   -0.4915 H   0  0  0  0  0  0  0  0  0  0  0  0
    4.0385   -0.5896    0.0540 H   0  0  0  0  0  0  0  0  0  0  0  0
    2.1207   -1.9127    0.5858 H   0  0  0  0  0  0  0  0  0  0  0  0
    1.1020    1.4976   -0.7504 H   0  0  0  0  0  0  0  0  0  0  0  0
   -1.1520    2.2775   -1.0444 H   0  0  0  0  0  0  0  0  0  0  0  0
   -2.6173   -1.4435    0.4286 H   0  0  0  0  0  0  0  0  0  0  0  0
   -0.2795   -2.2391    0.7282 H   0  0  0  0  0  0  0  0  0  0  0  0
   -3.5655    1.7163   -1.0085 H   0  0  0  0  0  0  0  0  0  0  0  0
  1  2  2  0
  2  3  1  0
  3  4  2  0
  4  5  1  0
  5  6  2  0
  6  7  1  0
  7  8  2  0
  6  9  1  0
  8  3  1  0
  1 10  1  0
  1 11  1  0
  2 12  1  0
  4 13  1  0
  5 14  1  0
  7 15  1  0
  8 16  1  0
  9 17  1  0
M  END
>  <Ligand ID>  (1) 
LIG0000527

>  <Ligand>  (1) 
4-Vinylphenol

>  <SMILES>  (1) 
C=Cc1ccc(cc1)O

>  <CID>  (1) 
62453.0

>  <ChEMBL ID>  (1) 
nan

>  <InChiKey>  (1) 
FUGYGGDSWSUORM-UHFFFAOYSA-N

>  <InChi>  (1) 
InChI=1S/C8H8O/c1-2-7-3-5-8(9)6-4-7/h2-6,9H,1H2

>  <IUPAC Name>  (1) 
4-ethenylphenol

$$$$
