
     RDKit          3D

 71 75  0  0  0  0  0  0  0  0999 V2000
    6.6010   -3.4337    3.0124 O   0  0  0  0  0  0  0  0  0  0  0  0
    6.0758   -3.9932    1.8412 C   0  0  0  0  0  0  0  0  0  0  0  0
    4.5701   -3.8899    1.8955 C   0  0  0  0  0  0  0  0  0  0  0  0
    3.9872   -4.4920    0.6598 C   0  0  0  0  0  0  0  0  0  0  0  0
    4.4225   -3.8283   -0.6193 C   0  0  0  0  0  0  0  0  0  0  0  0
    4.0874   -2.4637   -0.6840 O   0  0  0  0  0  0  0  0  0  0  0  0
    2.7640   -2.0570   -0.6166 C   0  0  0  0  0  0  0  0  0  0  0  0
    2.4672   -0.7473   -0.6796 N   0  0  0  0  0  0  0  0  0  0  0  0
    1.2061   -0.2531   -0.6224 C   0  0  0  0  0  0  0  0  0  0  0  0
    1.0107    1.1525   -0.7001 N   0  0  0  0  0  0  0  0  0  0  0  0
    2.1722    2.0281   -0.8366 C   0  0  0  0  0  0  0  0  0  0  0  0
    1.8377    3.4556   -0.9112 C   0  0  0  0  0  0  0  0  0  0  0  0
    1.7553    4.1814    0.2687 C   0  0  0  0  0  0  0  0  0  0  0  0
    1.4490    5.5383    0.2728 C   0  0  0  0  0  0  0  0  0  0  0  0
    1.2174    6.2042   -0.9053 C   0  0  0  0  0  0  0  0  0  0  0  0
    1.2960    5.4987   -2.0707 C   0  0  0  0  0  0  0  0  0  0  0  0
    1.6010    4.1443   -2.0833 C   0  0  0  0  0  0  0  0  0  0  0  0
    0.8941    7.6589   -0.8715 C   0  0  0  0  0  0  0  0  0  0  0  0
   -0.0235    7.9601   -1.8638 F   0  0  0  0  0  0  0  0  0  0  0  0
    2.0569    8.3815   -1.1640 F   0  0  0  0  0  0  0  0  0  0  0  0
    0.4267    8.0633    0.3558 F   0  0  0  0  0  0  0  0  0  0  0  0
    0.1932   -1.1550   -0.4929 C   0  0  0  0  0  0  0  0  0  0  0  0
    0.4801   -2.5012   -0.4270 C   0  0  0  0  0  0  0  0  0  0  0  0
    1.7539   -2.9247   -0.4898 N   0  0  0  0  0  0  0  0  0  0  0  0
   -0.4903   -3.4741   -0.2965 C   0  0  0  0  0  0  0  0  0  0  0  0
   -1.8032   -3.0580   -0.2302 C   0  0  0  0  0  0  0  0  0  0  0  0
   -2.0873   -1.7051   -0.2966 C   0  0  0  0  0  0  0  0  0  0  0  0
   -1.0950   -0.7511   -0.4278 C   0  0  0  0  0  0  0  0  0  0  0  0
   -3.5230   -1.3257   -0.2209 C   0  0  0  0  0  0  0  0  0  0  0  0
   -3.9536   -1.1186    1.1785 C   0  0  0  0  0  0  0  0  0  0  0  0
   -4.8922   -1.9519    1.8043 C   0  0  0  0  0  0  0  0  0  0  0  0
   -5.2609   -1.7312    3.1308 C   0  0  0  0  0  0  0  0  0  0  0  0
   -4.7334   -0.7084    3.8714 C   0  0  0  0  0  0  0  0  0  0  0  0
   -3.8155    0.1126    3.2700 C   0  0  0  0  0  0  0  0  0  0  0  0
   -3.4405   -0.0920    1.9611 C   0  0  0  0  0  0  0  0  0  0  0  0
   -5.1638   -0.3834    5.5366 Cl  0  0  0  0  0  0  0  0  0  0  0  0
   -3.8007   -0.1889   -1.1202 C   0  0  0  0  0  0  0  0  0  0  0  0
   -4.3452    1.0096   -0.7284 C   0  0  0  0  0  0  0  0  0  0  0  0
   -4.5656    2.0474   -1.6456 C   0  0  0  0  0  0  0  0  0  0  0  0
   -4.2157    1.8249   -2.9593 C   0  0  0  0  0  0  0  0  0  0  0  0
   -3.6615    0.6268   -3.3984 C   0  0  0  0  0  0  0  0  0  0  0  0
   -3.4621   -0.3668   -2.4631 C   0  0  0  0  0  0  0  0  0  0  0  0
   -4.4842    3.1121   -4.1250 Cl  0  0  0  0  0  0  0  0  0  0  0  0
    6.4943   -4.1241    3.7204 H   0  0  0  0  0  0  0  0  0  0  0  0
    6.4480   -3.4458    0.9426 H   0  0  0  0  0  0  0  0  0  0  0  0
    6.4194   -5.0309    1.7562 H   0  0  0  0  0  0  0  0  0  0  0  0
    4.2866   -2.8145    2.0046 H   0  0  0  0  0  0  0  0  0  0  0  0
    4.1947   -4.4030    2.7904 H   0  0  0  0  0  0  0  0  0  0  0  0
    4.3227   -5.5615    0.5929 H   0  0  0  0  0  0  0  0  0  0  0  0
    2.8978   -4.5486    0.8004 H   0  0  0  0  0  0  0  0  0  0  0  0
    3.9070   -4.4047   -1.4506 H   0  0  0  0  0  0  0  0  0  0  0  0
    5.4978   -3.9861   -0.7472 H   0  0  0  0  0  0  0  0  0  0  0  0
    0.0905    1.6291   -0.6680 H   0  0  0  0  0  0  0  0  0  0  0  0
    2.8516    1.7980    0.0188 H   0  0  0  0  0  0  0  0  0  0  0  0
    2.7161    1.6573   -1.7300 H   0  0  0  0  0  0  0  0  0  0  0  0
    1.9389    3.6588    1.2214 H   0  0  0  0  0  0  0  0  0  0  0  0
    1.3907    6.0782    1.2073 H   0  0  0  0  0  0  0  0  0  0  0  0
    1.1161    6.0079   -3.0173 H   0  0  0  0  0  0  0  0  0  0  0  0
    1.6633    3.5807   -3.0287 H   0  0  0  0  0  0  0  0  0  0  0  0
   -0.2046   -4.5185   -0.2491 H   0  0  0  0  0  0  0  0  0  0  0  0
   -2.6045   -3.7988   -0.1260 H   0  0  0  0  0  0  0  0  0  0  0  0
   -1.3534    0.2723   -0.4739 H   0  0  0  0  0  0  0  0  0  0  0  0
   -4.1558   -2.1778   -0.6186 H   0  0  0  0  0  0  0  0  0  0  0  0
   -5.3256   -2.7719    1.2331 H   0  0  0  0  0  0  0  0  0  0  0  0
   -5.9910   -2.3736    3.6316 H   0  0  0  0  0  0  0  0  0  0  0  0
   -3.3661    0.9350    3.8098 H   0  0  0  0  0  0  0  0  0  0  0  0
   -2.6965    0.5967    1.5368 H   0  0  0  0  0  0  0  0  0  0  0  0
   -4.6289    1.1968    0.2845 H   0  0  0  0  0  0  0  0  0  0  0  0
   -4.9999    2.9814   -1.2954 H   0  0  0  0  0  0  0  0  0  0  0  0
   -3.3880    0.4563   -4.4375 H   0  0  0  0  0  0  0  0  0  0  0  0
   -3.0297   -1.2946   -2.8168 H   0  0  0  0  0  0  0  0  0  0  0  0
  1  2  1  0
  2  3  1  0
  3  4  1  0
  4  5  1  0
  5  6  1  0
  6  7  1  0
  7  8  2  0
  8  9  1  0
  9 10  1  0
 10 11  1  0
 11 12  1  0
 12 13  2  0
 13 14  1  0
 14 15  2  0
 15 16  1  0
 16 17  2  0
 15 18  1  0
 18 19  1  0
 18 20  1  0
 18 21  1  0
  9 22  2  0
 22 23  1  0
 23 24  2  0
 23 25  1  0
 25 26  2  0
 26 27  1  0
 27 28  2  0
 27 29  1  0
 29 30  1  0
 30 31  2  0
 31 32  1  0
 32 33  2  0
 33 34  1  0
 34 35  2  0
 33 36  1  0
 29 37  1  0
 37 38  2  0
 38 39  1  0
 39 40  2  0
 40 41  1  0
 41 42  2  0
 40 43  1  0
 24  7  1  0
 35 30  1  0
 42 37  1  0
 17 12  1  0
 28 22  1  0
  1 44  1  0
  2 45  1  0
  2 46  1  0
  3 47  1  0
  3 48  1  0
  4 49  1  0
  4 50  1  0
  5 51  1  0
  5 52  1  0
 10 53  1  0
 11 54  1  0
 11 55  1  0
 13 56  1  0
 14 57  1  0
 16 58  1  0
 17 59  1  0
 25 60  1  0
 26 61  1  0
 28 62  1  0
 29 63  1  0
 31 64  1  0
 32 65  1  0
 34 66  1  0
 35 67  1  0
 38 68  1  0
 39 69  1  0
 41 70  1  0
 42 71  1  0
M  END
>  <Ligand ID>  (1) 
LIG0005949

>  <Ligand>  (1) 
SCHEMBL17557672

>  <SMILES>  (1) 
OCCCCOc1nc(NCc2ccc(cc2)C(F)(F)F)c2c(n1)ccc(c2)C(c1ccc(cc1)Cl)c1ccc(cc1)Cl

>  <CID>  (1) 
118916152.0

>  <ChEMBL ID>  (1) 
nan

>  <InChiKey>  (1) 
VKHICDBOFHQORG-UHFFFAOYSA-N

>  <InChi>  (1) 
InChI=1S/C33H28Cl2F3N3O2/c34-26-12-5-22(6-13-26)30(23-7-14-27(35)15-8-23)24-9-16-29-28(19-24)31(41-32(40-29)43-18-2-1-17-42)39-20-21-3-10-25(11-4-21)33(36,37)38/h3-16,19,30,42H,1-2,17-18,20H2,(H,39,40,41)

>  <IUPAC Name>  (1) 
4-[6-[bis(4-chlorophenyl)methyl]-4-[[4-(trifluoromethyl)phenyl]methylamino]quinazolin-2-yl]oxybutan-1-ol

$$$$
