
     RDKit          3D

 57 59  0  0  0  0  0  0  0  0999 V2000
    1.7189   -2.7383   -1.0210 C   0  0  0  0  0  0  0  0  0  0  0  0
    0.5533   -1.9473   -0.6308 C   0  0  0  0  0  0  0  0  0  0  0  0
    0.6611   -0.7547    0.2852 C   0  0  0  0  0  0  0  0  0  0  0  0
    1.4705    0.2396   -0.2562 N   0  0  0  0  0  0  0  0  0  0  0  0
    2.8686    0.2726   -0.5111 C   0  0  0  0  0  0  0  0  0  0  0  0
    3.3137    1.3719   -1.0872 O   0  0  0  0  0  0  0  0  0  0  0  0
    3.9048   -0.6624   -0.2572 C   0  0  0  0  0  0  0  0  0  0  0  0
    4.7011   -1.0526   -1.3496 C   0  0  0  0  0  0  0  0  0  0  0  0
    5.7454   -1.9311   -1.2210 C   0  0  0  0  0  0  0  0  0  0  0  0
    6.0593   -2.4746    0.0073 C   0  0  0  0  0  0  0  0  0  0  0  0
    5.2592   -2.0745    1.0705 C   0  0  0  0  0  0  0  0  0  0  0  0
    4.2435   -1.2128    0.9147 N   0  0  0  0  0  0  0  0  0  0  0  0
    0.7921    1.5203   -0.6261 C   0  0  0  0  0  0  0  0  0  0  0  0
    0.7635    2.4939    0.4482 C   0  0  0  0  0  0  0  0  0  0  0  0
    1.6403    3.4626    0.8916 C   0  0  0  0  0  0  0  0  0  0  0  0
    1.3161    4.2416    1.9083 C   0  0  0  0  0  0  0  0  0  0  0  0
    0.0932    4.0796    2.5244 C   0  0  0  0  0  0  0  0  0  0  0  0
   -0.7040    2.7043    1.6076 S   0  0  0  0  0  0  0  0  0  0  0  0
   -0.7626   -0.5104    0.5916 C   0  0  0  0  0  0  0  0  0  0  0  0
   -1.2204   -0.4950    1.7882 O   0  0  0  0  0  0  0  0  0  0  0  0
   -1.7566   -0.2766   -0.4176 N   0  0  0  0  0  0  0  0  0  0  0  0
   -3.1379   -0.0333   -0.0602 C   0  0  0  0  0  0  0  0  0  0  0  0
   -3.5371    1.3240   -0.5978 C   0  0  0  0  0  0  0  0  0  0  0  0
   -4.8213    1.7312    0.0407 C   0  0  0  0  0  0  0  0  0  0  0  0
   -5.8181    0.6228    0.0234 C   0  0  0  0  0  0  0  0  0  0  0  0
   -5.4642   -0.5033   -0.8895 C   0  0  0  0  0  0  0  0  0  0  0  0
   -4.0763   -1.0448   -0.6703 C   0  0  0  0  0  0  0  0  0  0  0  0
    1.2694   -1.2407    1.5935 C   0  0  0  0  0  0  0  0  0  0  0  0
    2.4702   -2.9891   -0.2822 H   0  0  0  0  0  0  0  0  0  0  0  0
    2.2015   -2.2355   -1.8801 H   0  0  0  0  0  0  0  0  0  0  0  0
    1.3520   -3.7050   -1.5297 H   0  0  0  0  0  0  0  0  0  0  0  0
   -0.0451   -1.6751   -1.5525 H   0  0  0  0  0  0  0  0  0  0  0  0
   -0.1662   -2.7235   -0.1739 H   0  0  0  0  0  0  0  0  0  0  0  0
    4.4943   -0.6521   -2.3415 H   0  0  0  0  0  0  0  0  0  0  0  0
    6.3182   -2.1904   -2.1002 H   0  0  0  0  0  0  0  0  0  0  0  0
    6.8821   -3.1698    0.1240 H   0  0  0  0  0  0  0  0  0  0  0  0
    5.4563   -2.4642    2.0486 H   0  0  0  0  0  0  0  0  0  0  0  0
    1.4341    1.9785   -1.4422 H   0  0  0  0  0  0  0  0  0  0  0  0
   -0.1444    1.4329   -1.1179 H   0  0  0  0  0  0  0  0  0  0  0  0
    2.6211    3.5558    0.3548 H   0  0  0  0  0  0  0  0  0  0  0  0
    1.9932    5.0408    2.3033 H   0  0  0  0  0  0  0  0  0  0  0  0
   -0.3844    4.5945    3.3648 H   0  0  0  0  0  0  0  0  0  0  0  0
   -1.5398   -0.2953   -1.4358 H   0  0  0  0  0  0  0  0  0  0  0  0
   -3.2780   -0.0337    1.0222 H   0  0  0  0  0  0  0  0  0  0  0  0
   -2.7435    2.0760   -0.4985 H   0  0  0  0  0  0  0  0  0  0  0  0
   -3.6601    1.1776   -1.7042 H   0  0  0  0  0  0  0  0  0  0  0  0
   -5.2128    2.6917   -0.4054 H   0  0  0  0  0  0  0  0  0  0  0  0
   -4.5897    2.0097    1.1046 H   0  0  0  0  0  0  0  0  0  0  0  0
   -6.7752    1.0585   -0.3855 H   0  0  0  0  0  0  0  0  0  0  0  0
   -6.0825    0.2991    1.0515 H   0  0  0  0  0  0  0  0  0  0  0  0
   -6.2437   -1.3009   -0.7365 H   0  0  0  0  0  0  0  0  0  0  0  0
   -5.6208   -0.1620   -1.9417 H   0  0  0  0  0  0  0  0  0  0  0  0
   -4.1737   -1.9804   -0.0853 H   0  0  0  0  0  0  0  0  0  0  0  0
   -3.7033   -1.3302   -1.6978 H   0  0  0  0  0  0  0  0  0  0  0  0
    1.8695   -0.4601    2.0867 H   0  0  0  0  0  0  0  0  0  0  0  0
    0.4476   -1.4567    2.3256 H   0  0  0  0  0  0  0  0  0  0  0  0
    1.7479   -2.2029    1.4255 H   0  0  0  0  0  0  0  0  0  0  0  0
  1  2  1  0
  2  3  1  0
  3  4  1  0
  4  5  1  0
  5  6  2  0
  5  7  1  0
  7  8  2  0
  8  9  1  0
  9 10  2  0
 10 11  1  0
 11 12  2  0
  4 13  1  0
 13 14  1  0
 14 15  2  0
 15 16  1  0
 16 17  2  0
 17 18  1  0
  3 19  1  0
 19 20  2  0
 19 21  1  0
 21 22  1  0
 22 23  1  0
 23 24  1  0
 24 25  1  0
 25 26  1  0
 26 27  1  0
  3 28  1  0
 12  7  1  0
 18 14  1  0
 27 22  1  0
  1 29  1  0
  1 30  1  0
  1 31  1  0
  2 32  1  0
  2 33  1  0
  8 34  1  0
  9 35  1  0
 10 36  1  0
 11 37  1  0
 13 38  1  0
 13 39  1  0
 15 40  1  0
 16 41  1  0
 17 42  1  0
 21 43  1  0
 22 44  1  0
 23 45  1  0
 23 46  1  0
 24 47  1  0
 24 48  1  0
 25 49  1  0
 25 50  1  0
 26 51  1  0
 26 52  1  0
 27 53  1  0
 27 54  1  0
 28 55  1  0
 28 56  1  0
 28 57  1  0
M  END
>  <Ligand ID>  (1) 
LIG0004049

>  <Ligand>  (1) 
MLS000729770

>  <SMILES>  (1) 
CCC(N(C(=O)c1ccccn1)Cc1cccs1)(C(=O)NC1CCCCC1)C

>  <CID>  (1) 
4307489.0

>  <ChEMBL ID>  (1) 
nan

>  <InChiKey>  (1) 
MIZTUAPMVLLWBI-UHFFFAOYSA-N

>  <InChi>  (1) 
InChI=1S/C22H29N3O2S/c1-3-22(2,21(27)24-17-10-5-4-6-11-17)25(16-18-12-9-15-28-18)20(26)19-13-7-8-14-23-19/h7-9,12-15,17H,3-6,10-11,16H2,1-2H3,(H,24,27)

>  <IUPAC Name>  (1) 
N-[1-(cyclohexylamino)-2-methyl-1-oxobutan-2-yl]-N-(thiophen-2-ylmethyl)pyridine-2-carboxamide

$$$$
