
     RDKit          3D

 46 48  0  0  0  0  0  0  0  0999 V2000
    8.2895    3.1171    1.3193 Cl  0  0  0  0  0  0  0  0  0  0  0  0
    7.1542    2.0268    0.5342 C   0  0  0  0  0  0  0  0  0  0  0  0
    5.8139    2.1347    0.7718 C   0  0  0  0  0  0  0  0  0  0  0  0
    4.9262    1.2668    0.1434 C   0  0  0  0  0  0  0  0  0  0  0  0
    5.3223    0.2810   -0.7243 C   0  0  0  0  0  0  0  0  0  0  0  0
    6.7045    0.2017   -0.9421 C   0  0  0  0  0  0  0  0  0  0  0  0
    7.5966    1.0465   -0.3341 C   0  0  0  0  0  0  0  0  0  0  0  0
    7.3715   -1.0156   -2.0337 Cl  0  0  0  0  0  0  0  0  0  0  0  0
    4.4762   -0.6224   -1.3823 N   0  0  0  0  0  0  0  0  0  0  0  0
    3.0779   -0.6990   -1.3006 C   0  0  0  0  0  0  0  0  0  0  0  0
    2.2845    0.0919   -0.5737 N   0  0  0  0  0  0  0  0  0  0  0  0
    0.9513    0.0028   -0.5082 C   0  0  0  0  0  0  0  0  0  0  0  0
    0.3215   -0.9780   -1.2420 C   0  0  0  0  0  0  0  0  0  0  0  0
    1.1015   -1.8166   -2.0065 C   0  0  0  0  0  0  0  0  0  0  0  0
    2.4349   -1.6638   -2.0202 N   0  0  0  0  0  0  0  0  0  0  0  0
    0.4345   -2.8892   -2.8202 C   0  0  0  0  0  0  0  0  0  0  0  0
   -0.2950   -3.7589   -2.0428 F   0  0  0  0  0  0  0  0  0  0  0  0
    1.4807   -3.6677   -3.3388 F   0  0  0  0  0  0  0  0  0  0  0  0
   -0.2311   -2.4095   -3.9069 F   0  0  0  0  0  0  0  0  0  0  0  0
   -1.1311   -1.0788   -1.1637 C   0  0  0  0  0  0  0  0  0  0  0  0
   -1.8336   -1.6607   -2.0400 O   0  0  0  0  0  0  0  0  0  0  0  0
   -1.8620   -0.5147   -0.0681 N   0  0  0  0  0  0  0  0  0  0  0  0
   -3.2950   -0.6770   -0.0958 C   0  0  0  0  0  0  0  0  0  0  0  0
   -4.0027   -0.0628    1.0770 C   0  0  0  0  0  0  0  0  0  0  0  0
   -3.8057    1.3990    1.2196 C   0  0  0  0  0  0  0  0  0  0  0  0
   -5.1491    2.0482    1.4527 C   0  0  0  0  0  0  0  0  0  0  0  0
   -5.9076    1.4007    2.4159 O   0  0  0  0  0  0  0  0  0  0  0  0
   -6.1561    0.0754    2.1797 C   0  0  0  0  0  0  0  0  0  0  0  0
   -5.4754   -0.3584    0.9126 C   0  0  0  0  0  0  0  0  0  0  0  0
    5.4530    2.9112    1.4601 H   0  0  0  0  0  0  0  0  0  0  0  0
    3.8884    1.4131    0.3804 H   0  0  0  0  0  0  0  0  0  0  0  0
    8.6616    0.9589   -0.5256 H   0  0  0  0  0  0  0  0  0  0  0  0
    4.9493   -1.3301   -2.0145 H   0  0  0  0  0  0  0  0  0  0  0  0
    0.4304    0.7179    0.1257 H   0  0  0  0  0  0  0  0  0  0  0  0
   -1.3776   -0.0127    0.7085 H   0  0  0  0  0  0  0  0  0  0  0  0
   -3.7640   -0.3562   -1.0496 H   0  0  0  0  0  0  0  0  0  0  0  0
   -3.4797   -1.7837   -0.0334 H   0  0  0  0  0  0  0  0  0  0  0  0
   -3.6855   -0.5429    2.0268 H   0  0  0  0  0  0  0  0  0  0  0  0
   -3.1801    1.6540    2.1242 H   0  0  0  0  0  0  0  0  0  0  0  0
   -3.3783    1.8918    0.3211 H   0  0  0  0  0  0  0  0  0  0  0  0
   -5.0301    3.0953    1.8313 H   0  0  0  0  0  0  0  0  0  0  0  0
   -5.7146    2.1753    0.4901 H   0  0  0  0  0  0  0  0  0  0  0  0
   -7.2223   -0.2067    2.1108 H   0  0  0  0  0  0  0  0  0  0  0  0
   -5.7095   -0.5650    2.9968 H   0  0  0  0  0  0  0  0  0  0  0  0
   -5.8404    0.2139    0.0345 H   0  0  0  0  0  0  0  0  0  0  0  0
   -5.5977   -1.4537    0.7289 H   0  0  0  0  0  0  0  0  0  0  0  0
  1  2  1  0
  2  3  2  0
  3  4  1  0
  4  5  2  0
  5  6  1  0
  6  7  2  0
  6  8  1  0
  5  9  1  0
  9 10  1  0
 10 11  2  0
 11 12  1  0
 12 13  2  0
 13 14  1  0
 14 15  2  0
 14 16  1  0
 16 17  1  0
 16 18  1  0
 16 19  1  0
 13 20  1  0
 20 21  2  0
 20 22  1  0
 22 23  1  0
 23 24  1  0
 24 25  1  0
 25 26  1  0
 26 27  1  0
 27 28  1  0
 28 29  1  0
  7  2  1  0
 15 10  1  0
 29 24  1  0
  3 30  1  0
  4 31  1  0
  7 32  1  0
  9 33  1  0
 12 34  1  0
 22 35  1  0
 23 36  1  0
 23 37  1  0
 24 38  1  0
 25 39  1  0
 25 40  1  0
 26 41  1  0
 26 42  1  0
 28 43  1  0
 28 44  1  0
 29 45  1  0
 29 46  1  0
M  END
>  <Ligand ID>  (1) 
LIG0003248

>  <Ligand>  (1) 
GW842166

>  <SMILES>  (1) 
Clc1ccc(c(c1)Cl)Nc1ncc(c(n1)C(F)(F)F)C(=O)NCC1CCOCC1

>  <CID>  (1) 
10253143.0

>  <ChEMBL ID>  (1) 
nan

>  <InChiKey>  (1) 
TWQYWUXBZHPIIV-UHFFFAOYSA-N

>  <InChi>  (1) 
InChI=1S/C18H17Cl2F3N4O2/c19-11-1-2-14(13(20)7-11)26-17-25-9-12(15(27-17)18(21,22)23)16(28)24-8-10-3-5-29-6-4-10/h1-2,7,9-10H,3-6,8H2,(H,24,28)(H,25,26,27)

>  <IUPAC Name>  (1) 
2-(2,4-dichloroanilino)-N-(oxan-4-ylmethyl)-4-(trifluoromethyl)pyrimidine-5-carboxamide

$$$$
