
     RDKit          3D

 58 64  0  0  0  0  0  0  0  0999 V2000
    3.0854    2.5704   -0.0514 C   0  0  0  0  0  0  0  0  0  0  0  0
    2.5954    1.7763    0.9184 O   0  0  0  0  0  0  0  0  0  0  0  0
    1.5166    0.9792    0.7138 C   0  0  1  0  0  0  0  0  0  0  0  0
    1.1613    0.3582    2.1283 C   0  0  0  0  0  0  0  0  0  0  0  0
   -0.0046   -0.3359    2.1327 C   0  0  0  0  0  0  0  0  0  0  0  0
   -0.4609   -0.7007    0.7574 C   0  0  0  0  0  0  0  0  0  0  0  0
   -0.6437    0.4592   -0.1250 C   0  0  0  0  0  0  0  0  0  0  0  0
    0.2767    1.5236    0.3501 C   0  0  2  0  0  0  0  0  0  0  0  0
   -0.2132    2.5364   -0.4893 O   0  0  0  0  0  0  0  0  0  0  0  0
   -1.5806    2.5327   -0.2058 C   0  0  0  0  0  0  0  0  0  0  0  0
   -1.8550    1.2325    0.1278 C   0  0  0  0  0  0  0  0  0  0  0  0
   -3.0173    0.6924    0.5032 C   0  0  0  0  0  0  0  0  0  0  0  0
   -3.0038   -0.7408    0.8965 C   0  0  0  0  0  0  0  0  0  0  0  0
   -1.7199   -1.4558    0.6293 C   0  0  0  0  0  0  0  0  0  0  0  0
   -1.6823   -1.9383   -0.7537 N   0  0  0  0  0  0  0  0  0  0  0  0
   -1.8568   -0.8726   -1.6953 C   0  0  0  0  0  0  0  0  0  0  0  0
   -0.7902    0.1954   -1.5627 C   0  0  0  0  0  0  0  0  0  0  0  0
   -2.3614   -3.1268   -1.0209 C   0  0  0  0  0  0  0  0  0  0  0  0
   -4.1089    1.5331    0.5617 C   0  0  0  0  0  0  0  0  0  0  0  0
   -3.9412    2.8993    0.2295 C   0  0  0  0  0  0  0  0  0  0  0  0
   -2.6690    3.3843   -0.1520 C   0  0  0  0  0  0  0  0  0  0  0  0
   -2.4488    4.7026   -0.4833 O   0  0  0  0  0  0  0  0  0  0  0  0
    0.7539   -1.3672    0.1380 C   0  0  0  0  0  0  0  0  0  0  0  0
    1.9110   -0.3944    0.1762 C   0  0  0  0  0  0  0  0  0  0  0  0
    2.8664   -1.0151    1.2404 C   0  0  0  0  0  0  0  0  0  0  0  0
    3.4632   -2.2338    0.5703 C   0  0  0  0  0  0  0  0  0  0  0  0
    3.1958   -2.0046   -0.8840 C   0  0  0  0  0  0  0  0  0  0  0  0
    2.8924   -0.4809   -0.8882 C   0  0  1  0  0  0  0  0  0  0  0  0
    2.6970   -0.0593   -2.1440 O   0  0  0  0  0  0  0  0  0  0  0  0
    3.9803    3.1371    0.3805 H   0  0  0  0  0  0  0  0  0  0  0  0
    2.3389    3.3799   -0.3576 H   0  0  0  0  0  0  0  0  0  0  0  0
    3.4474    2.1723   -0.9824 H   0  0  0  0  0  0  0  0  0  0  0  0
    1.8003    0.5035    2.9372 H   0  0  0  0  0  0  0  0  0  0  0  0
   -0.5263   -0.5857    3.0324 H   0  0  0  0  0  0  0  0  0  0  0  0
   -0.1548    1.9369    1.3266 H   0  0  0  0  0  0  0  0  0  0  0  0
   -3.3369   -0.8267    1.9514 H   0  0  0  0  0  0  0  0  0  0  0  0
   -3.8173   -1.2210    0.3004 H   0  0  0  0  0  0  0  0  0  0  0  0
   -1.6852   -2.3606    1.2624 H   0  0  0  0  0  0  0  0  0  0  0  0
   -1.7243   -1.3240   -2.7014 H   0  0  0  0  0  0  0  0  0  0  0  0
   -2.8886   -0.4715   -1.6829 H   0  0  0  0  0  0  0  0  0  0  0  0
    0.0731   -0.0725   -2.1610 H   0  0  0  0  0  0  0  0  0  0  0  0
   -1.2022    1.1040   -2.0951 H   0  0  0  0  0  0  0  0  0  0  0  0
   -2.5688   -3.6451   -0.0475 H   0  0  0  0  0  0  0  0  0  0  0  0
   -3.2965   -3.0294   -1.6084 H   0  0  0  0  0  0  0  0  0  0  0  0
   -1.7123   -3.8189   -1.5969 H   0  0  0  0  0  0  0  0  0  0  0  0
   -5.0610    1.1373    0.8571 H   0  0  0  0  0  0  0  0  0  0  0  0
   -4.7798    3.5782    0.2649 H   0  0  0  0  0  0  0  0  0  0  0  0
   -1.7019    5.2729   -0.1071 H   0  0  0  0  0  0  0  0  0  0  0  0
    0.9133   -2.2943    0.7242 H   0  0  0  0  0  0  0  0  0  0  0  0
    0.5460   -1.7360   -0.8860 H   0  0  0  0  0  0  0  0  0  0  0  0
    3.5989   -0.2450    1.4942 H   0  0  0  0  0  0  0  0  0  0  0  0
    2.2257   -1.2986    2.0842 H   0  0  0  0  0  0  0  0  0  0  0  0
    2.9940   -3.1543    0.9587 H   0  0  0  0  0  0  0  0  0  0  0  0
    4.5556   -2.2131    0.7880 H   0  0  0  0  0  0  0  0  0  0  0  0
    4.1522   -2.1516   -1.4322 H   0  0  0  0  0  0  0  0  0  0  0  0
    2.3549   -2.5891   -1.2504 H   0  0  0  0  0  0  0  0  0  0  0  0
    3.8706   -0.0633   -0.5111 H   0  0  0  0  0  0  0  0  0  0  0  0
    3.5472    0.2292   -2.5606 H   0  0  0  0  0  0  0  0  0  0  0  0
  1  2  1  0
  3  2  1  1
  3  4  1  0
  4  5  2  0
  5  6  1  0
  6  7  1  0
  7  8  1  0
  8  9  1  0
  9 10  1  0
 10 11  2  0
 11 12  1  0
 12 13  1  0
 13 14  1  0
 14 15  1  0
 15 16  1  0
 16 17  1  0
 15 18  1  0
 12 19  2  0
 19 20  1  0
 20 21  2  0
 21 22  1  0
  6 23  1  0
 23 24  1  0
 24 25  1  0
 25 26  1  0
 26 27  1  0
 27 28  1  0
 28 29  1  0
  8  3  1  0
 21 10  1  0
 28 24  1  0
 24  3  1  0
 14  6  1  0
 17  7  1  0
 11  7  1  0
  1 30  1  0
  1 31  1  0
  1 32  1  0
  4 33  1  0
  5 34  1  0
  8 35  1  1
 13 36  1  0
 13 37  1  0
 14 38  1  0
 16 39  1  0
 16 40  1  0
 17 41  1  0
 17 42  1  0
 18 43  1  0
 18 44  1  0
 18 45  1  0
 19 46  1  0
 20 47  1  0
 22 48  1  0
 23 49  1  0
 23 50  1  0
 25 51  1  0
 25 52  1  0
 26 53  1  0
 26 54  1  0
 27 55  1  0
 27 56  1  0
 28 57  1  1
 29 58  1  0
M  END
>  <Ligand ID>  (1) 
LIG0004627

>  <Ligand>  (1) 
CHEMBL416765

>  <SMILES>  (1) 
CO[C@@]12C=CC3(C45[C@@H]1Oc1c5c(CC3N(CC4)C)ccc1O)CC12CCC[C@H]1O

>  <CID>  (1) 
44279592.0

>  <ChEMBL ID>  (1) 
nan

>  <InChiKey>  (1) 
VAGUZCYSBGOWIA-RQLPUAOISA-N

>  <InChi>  (1) 
InChI=1S/C24H29NO4/c1-25-11-10-23-18-14-5-6-15(26)19(18)29-20(23)24(28-2)9-8-21(23,16(25)12-14)13-22(24)7-3-4-17(22)27/h5-6,8-9,16-17,20,26-27H,3-4,7,10-13H2,1-2H3/t16?,17-,20+,21?,22?,23?,24+/m1/s1

>  <IUPAC Name>  (1) 
(1'R,14S,15R)-15-methoxy-5-methylspiro[13-oxa-5-azahexacyclo[13.2.2.12,8.01,6.02,14.012,20]icosa-8(20),9,11,16-tetraene-19,2'-cyclopentane]-1',11-diol

$$$$
