
     RDKit          3D

 50 52  0  0  0  0  0  0  0  0999 V2000
    6.9995    1.3248   -0.2724 O   0  0  0  0  0  0  0  0  0  0  0  0
    6.2997    0.1865    0.1683 C   0  0  0  0  0  0  0  0  0  0  0  0
    6.9036   -0.7109    0.8433 O   0  0  0  0  0  0  0  0  0  0  0  0
    4.8663    0.0825   -0.1798 C   0  0  0  0  0  0  0  0  0  0  0  0
    4.3445   -1.2236    0.4054 C   0  0  0  0  0  0  0  0  0  0  0  0
    2.8999   -1.4685   -0.0265 C   0  0  0  0  0  0  0  0  0  0  0  0
    2.3318   -0.0924   -0.3150 C   0  0  0  0  0  0  0  0  0  0  0  0
    2.7729    0.8003    0.7971 C   0  0  0  0  0  0  0  0  0  0  0  0
    4.1759    1.2903    0.4155 C   0  0  0  0  0  0  0  0  0  0  0  0
    0.8487   -0.1809   -0.4165 C   0  0  0  0  0  0  0  0  0  0  0  0
    0.1744    1.1347   -0.7217 C   0  0  0  0  0  0  0  0  0  0  0  0
   -1.2658    0.9722   -0.2990 C   0  0  0  0  0  0  0  0  0  0  0  0
   -1.8330   -0.2668   -0.7689 N   0  0  0  0  0  0  0  0  0  0  0  0
   -1.1120   -1.3485   -1.3560 C   0  0  0  0  0  0  0  0  0  0  0  0
    0.3768   -1.1416   -1.4622 C   0  0  0  0  0  0  0  0  0  0  0  0
   -3.2644   -0.3969   -0.6136 C   0  0  0  0  0  0  0  0  0  0  0  0
   -4.0014    0.6239   -0.0027 C   0  0  0  0  0  0  0  0  0  0  0  0
   -5.3617    0.5516    0.1734 C   0  0  0  0  0  0  0  0  0  0  0  0
   -6.0540   -0.5390   -0.2495 C   0  0  0  0  0  0  0  0  0  0  0  0
   -5.3554   -1.5590   -0.8541 C   0  0  0  0  0  0  0  0  0  0  0  0
   -3.9665   -1.4833   -1.0330 C   0  0  0  0  0  0  0  0  0  0  0  0
   -3.3913   -2.5261   -1.6310 F   0  0  0  0  0  0  0  0  0  0  0  0
   -6.0611    1.5855    0.7849 O   0  0  0  0  0  0  0  0  0  0  0  0
   -6.3085    1.6899    2.1560 C   0  0  0  0  0  0  0  0  0  0  0  0
   -7.0316    0.6086    2.6171 F   0  0  0  0  0  0  0  0  0  0  0  0
   -7.0999    2.8141    2.3508 F   0  0  0  0  0  0  0  0  0  0  0  0
   -5.1315    1.8675    2.8937 F   0  0  0  0  0  0  0  0  0  0  0  0
    8.0002    1.4242   -0.1317 H   0  0  0  0  0  0  0  0  0  0  0  0
    4.7845    0.0233   -1.2815 H   0  0  0  0  0  0  0  0  0  0  0  0
    4.4904   -1.2794    1.4892 H   0  0  0  0  0  0  0  0  0  0  0  0
    4.9896   -2.0173   -0.0560 H   0  0  0  0  0  0  0  0  0  0  0  0
    2.3535   -1.9449    0.8124 H   0  0  0  0  0  0  0  0  0  0  0  0
    2.8609   -2.1222   -0.8998 H   0  0  0  0  0  0  0  0  0  0  0  0
    2.7607    0.2812   -1.2659 H   0  0  0  0  0  0  0  0  0  0  0  0
    2.8875    0.2283    1.7629 H   0  0  0  0  0  0  0  0  0  0  0  0
    2.1327    1.6443    1.0345 H   0  0  0  0  0  0  0  0  0  0  0  0
    4.7035    1.6929    1.2957 H   0  0  0  0  0  0  0  0  0  0  0  0
    4.0512    2.0757   -0.3637 H   0  0  0  0  0  0  0  0  0  0  0  0
    0.4373   -0.5563    0.5659 H   0  0  0  0  0  0  0  0  0  0  0  0
    0.6310    2.0103   -0.2690 H   0  0  0  0  0  0  0  0  0  0  0  0
    0.2453    1.2757   -1.8382 H   0  0  0  0  0  0  0  0  0  0  0  0
   -1.3083    0.9783    0.7938 H   0  0  0  0  0  0  0  0  0  0  0  0
   -1.8251    1.8384   -0.7084 H   0  0  0  0  0  0  0  0  0  0  0  0
   -1.5342   -1.5050   -2.3932 H   0  0  0  0  0  0  0  0  0  0  0  0
   -1.3153   -2.2954   -0.8082 H   0  0  0  0  0  0  0  0  0  0  0  0
    0.8775   -2.1274   -1.4142 H   0  0  0  0  0  0  0  0  0  0  0  0
    0.5667   -0.6851   -2.4686 H   0  0  0  0  0  0  0  0  0  0  0  0
   -3.5190    1.5306    0.3644 H   0  0  0  0  0  0  0  0  0  0  0  0
   -7.1234   -0.6213   -0.1234 H   0  0  0  0  0  0  0  0  0  0  0  0
   -5.9029   -2.4437   -1.1993 H   0  0  0  0  0  0  0  0  0  0  0  0
  1  2  1  0
  2  3  2  0
  2  4  1  0
  4  5  1  0
  5  6  1  0
  6  7  1  0
  7  8  1  0
  8  9  1  0
  7 10  1  0
 10 11  1  0
 11 12  1  0
 12 13  1  0
 13 14  1  0
 14 15  1  0
 13 16  1  0
 16 17  2  0
 17 18  1  0
 18 19  2  0
 19 20  1  0
 20 21  2  0
 21 22  1  0
 18 23  1  0
 23 24  1  0
 24 25  1  0
 24 26  1  0
 24 27  1  0
  9  4  1  0
 15 10  1  0
 21 16  1  0
  1 28  1  0
  4 29  1  0
  5 30  1  0
  5 31  1  0
  6 32  1  0
  6 33  1  0
  7 34  1  0
  8 35  1  0
  8 36  1  0
  9 37  1  0
  9 38  1  0
 10 39  1  0
 11 40  1  0
 11 41  1  0
 12 42  1  0
 12 43  1  0
 14 44  1  0
 14 45  1  0
 15 46  1  0
 15 47  1  0
 17 48  1  0
 19 49  1  0
 20 50  1  0
M  END
>  <Ligand ID>  (1) 
LIG0002938

>  <Ligand>  (1) 
CHEMBL3906716

>  <SMILES>  (1) 
OC(=O)C1CCC(CC1)C1CCN(CC1)c1cc(ccc1F)OC(F)(F)F

>  <CID>  (1) 
134135468.0

>  <ChEMBL ID>  (1) 
nan

>  <InChiKey>  (1) 
QGWKREOBRUYESR-UHFFFAOYSA-N

>  <InChi>  (1) 
InChI=1S/C19H23F4NO3/c20-16-6-5-15(27-19(21,22)23)11-17(16)24-9-7-13(8-10-24)12-1-3-14(4-2-12)18(25)26/h5-6,11-14H,1-4,7-10H2,(H,25,26)

>  <IUPAC Name>  (1) 
4-[1-[2-fluoro-5-(trifluoromethoxy)phenyl]piperidin-4-yl]cyclohexane-1-carboxylic acid

$$$$
