
     RDKit          3D

 50 53  0  0  0  0  0  0  0  0999 V2000
    5.1534   -1.7204   -1.1108 C   0  0  0  0  0  0  0  0  0  0  0  0
    5.4224   -0.3647   -0.4852 C   0  0  0  0  0  0  0  0  0  0  0  0
    4.2458    0.0907    0.2951 C   0  0  0  0  0  0  0  0  0  0  0  0
    3.0549    0.3772   -0.3252 C   0  0  0  0  0  0  0  0  0  0  0  0
    1.9316    0.8028    0.3572 C   0  0  0  0  0  0  0  0  0  0  0  0
    2.0068    0.9500    1.7455 C   0  0  0  0  0  0  0  0  0  0  0  0
    3.1880    0.6697    2.3932 C   0  0  0  0  0  0  0  0  0  0  0  0
    4.2848    0.2485    1.6807 C   0  0  0  0  0  0  0  0  0  0  0  0
    0.7960    1.4130    2.5158 C   0  0  0  0  0  0  0  0  0  0  0  0
   -0.2173    0.0248    3.0388 S   0  0  0  0  0  0  0  0  0  0  0  0
   -0.9618   -0.8362    1.6759 C   0  0  0  0  0  0  0  0  0  0  0  0
   -0.3505   -1.8735    1.0373 N   0  0  0  0  0  0  0  0  0  0  0  0
   -1.1292   -2.3086    0.0868 N   0  0  0  0  0  0  0  0  0  0  0  0
   -2.2393   -1.5497    0.1171 C   0  0  0  0  0  0  0  0  0  0  0  0
   -2.1543   -0.6388    1.0880 N   0  0  0  0  0  0  0  0  0  0  0  0
   -3.1326    0.3525    1.4471 C   0  0  0  0  0  0  0  0  0  0  0  0
   -3.0111    1.6352    0.7521 C   0  0  0  0  0  0  0  0  0  0  0  0
   -3.5848    2.0212   -0.4575 C   0  0  0  0  0  0  0  0  0  0  0  0
   -3.2046    3.3294   -0.7456 C   0  0  0  0  0  0  0  0  0  0  0  0
   -2.3948    3.6796    0.3386 C   0  0  0  0  0  0  0  0  0  0  0  0
   -2.3271    2.6741    1.1500 O   0  0  0  0  0  0  0  0  0  0  0  0
   -3.3452   -1.7635   -0.8265 C   0  0  0  0  0  0  0  0  0  0  0  0
   -4.3010   -2.6828   -0.4611 C   0  0  0  0  0  0  0  0  0  0  0  0
   -5.3667   -2.9211   -1.3176 C   0  0  0  0  0  0  0  0  0  0  0  0
   -5.4344   -2.2230   -2.5180 C   0  0  0  0  0  0  0  0  0  0  0  0
   -4.4533   -1.3034   -2.8546 C   0  0  0  0  0  0  0  0  0  0  0  0
   -3.4340   -1.1004   -1.9954 N   0  0  0  0  0  0  0  0  0  0  0  0
    5.7720    0.6299   -1.5408 C   0  0  0  0  0  0  0  0  0  0  0  0
    4.2689   -1.6760   -1.7652 H   0  0  0  0  0  0  0  0  0  0  0  0
    4.9669   -2.4902   -0.3449 H   0  0  0  0  0  0  0  0  0  0  0  0
    6.0564   -2.0024   -1.6949 H   0  0  0  0  0  0  0  0  0  0  0  0
    6.2588   -0.4967    0.2366 H   0  0  0  0  0  0  0  0  0  0  0  0
    3.0284    0.2532   -1.4038 H   0  0  0  0  0  0  0  0  0  0  0  0
    0.9949    1.0285   -0.1283 H   0  0  0  0  0  0  0  0  0  0  0  0
    3.2771    0.7734    3.4621 H   0  0  0  0  0  0  0  0  0  0  0  0
    5.2181    0.0307    2.2241 H   0  0  0  0  0  0  0  0  0  0  0  0
    1.2057    1.8938    3.4284 H   0  0  0  0  0  0  0  0  0  0  0  0
    0.2521    2.1122    1.8830 H   0  0  0  0  0  0  0  0  0  0  0  0
   -4.1346   -0.1253    1.2417 H   0  0  0  0  0  0  0  0  0  0  0  0
   -3.0835    0.4537    2.5587 H   0  0  0  0  0  0  0  0  0  0  0  0
   -4.2230    1.4267   -1.0895 H   0  0  0  0  0  0  0  0  0  0  0  0
   -3.4692    3.9382   -1.6038 H   0  0  0  0  0  0  0  0  0  0  0  0
   -1.8991    4.6413    0.4816 H   0  0  0  0  0  0  0  0  0  0  0  0
   -4.2798   -3.2442    0.4658 H   0  0  0  0  0  0  0  0  0  0  0  0
   -6.1212   -3.6496   -1.0247 H   0  0  0  0  0  0  0  0  0  0  0  0
   -6.2774   -2.4211   -3.1802 H   0  0  0  0  0  0  0  0  0  0  0  0
   -4.5191   -0.7645   -3.7968 H   0  0  0  0  0  0  0  0  0  0  0  0
    5.4207    1.6227   -1.1819 H   0  0  0  0  0  0  0  0  0  0  0  0
    5.3650    0.3613   -2.5239 H   0  0  0  0  0  0  0  0  0  0  0  0
    6.8805    0.7216   -1.6746 H   0  0  0  0  0  0  0  0  0  0  0  0
  1  2  1  0
  2  3  1  0
  3  4  2  0
  4  5  1  0
  5  6  2  0
  6  7  1  0
  7  8  2  0
  6  9  1  0
  9 10  1  0
 10 11  1  0
 11 12  2  0
 12 13  1  0
 13 14  2  0
 14 15  1  0
 15 16  1  0
 16 17  1  0
 17 18  2  0
 18 19  1  0
 19 20  2  0
 20 21  1  0
 14 22  1  0
 22 23  2  0
 23 24  1  0
 24 25  2  0
 25 26  1  0
 26 27  2  0
  2 28  1  0
  8  3  1  0
 15 11  1  0
 21 17  1  0
 27 22  1  0
  1 29  1  0
  1 30  1  0
  1 31  1  0
  2 32  1  0
  4 33  1  0
  5 34  1  0
  7 35  1  0
  8 36  1  0
  9 37  1  0
  9 38  1  0
 16 39  1  0
 16 40  1  0
 18 41  1  0
 19 42  1  0
 20 43  1  0
 23 44  1  0
 24 45  1  0
 25 46  1  0
 26 47  1  0
 28 48  1  0
 28 49  1  0
 28 50  1  0
M  END
>  <Ligand ID>  (1) 
LIG0003456

>  <Ligand>  (1) 
KUC104181N

>  <SMILES>  (1) 
CC(c1ccc(cc1)CSc1nnc(n1Cc1ccco1)c1ccccn1)C

>  <CID>  (1) 
44620920.0

>  <ChEMBL ID>  (1) 
nan

>  <InChiKey>  (1) 
JSMCOFKNTOJQKQ-UHFFFAOYSA-N

>  <InChi>  (1) 
InChI=1S/C22H22N4OS/c1-16(2)18-10-8-17(9-11-18)15-28-22-25-24-21(20-7-3-4-12-23-20)26(22)14-19-6-5-13-27-19/h3-13,16H,14-15H2,1-2H3

>  <IUPAC Name>  (1) 
2-[4-(furan-2-ylmethyl)-5-[(4-propan-2-ylphenyl)methylsulfanyl]-1,2,4-triazol-3-yl]pyridine

$$$$
