
     RDKit          3D

 57 61  0  0  0  0  0  0  0  0999 V2000
   -5.9739   -2.6539   -4.2138 Cl  0  0  0  0  0  0  0  0  0  0  0  0
   -4.9281   -1.8411   -3.0802 C   0  0  0  0  0  0  0  0  0  0  0  0
   -3.5939   -1.7690   -3.3529 C   0  0  0  0  0  0  0  0  0  0  0  0
   -2.7650   -1.1403   -2.4818 C   0  0  0  0  0  0  0  0  0  0  0  0
   -3.1727   -0.5480   -1.3040 C   0  0  0  0  0  0  0  0  0  0  0  0
   -4.5331   -0.6210   -1.0250 C   0  0  0  0  0  0  0  0  0  0  0  0
   -5.3958   -1.2613   -1.9065 C   0  0  0  0  0  0  0  0  0  0  0  0
   -2.2366    0.1343   -0.3699 C   0  0  0  0  0  0  0  0  0  0  0  0
   -1.6904   -0.8146    0.6354 C   0  0  0  0  0  0  0  0  0  0  0  0
   -2.5429   -1.4990    1.4885 C   0  0  0  0  0  0  0  0  0  0  0  0
   -2.0616   -2.3807    2.4427 C   0  0  0  0  0  0  0  0  0  0  0  0
   -0.7139   -2.5543    2.5170 C   0  0  0  0  0  0  0  0  0  0  0  0
    0.1921   -1.8940    1.6905 C   0  0  0  0  0  0  0  0  0  0  0  0
   -0.3358   -1.0393    0.7661 C   0  0  0  0  0  0  0  0  0  0  0  0
    1.5372   -2.0909    1.7302 C   0  0  0  0  0  0  0  0  0  0  0  0
    1.9528   -3.0496    2.6931 C   0  0  0  0  0  0  0  0  0  0  0  0
    1.0497   -3.6934    3.4968 C   0  0  0  0  0  0  0  0  0  0  0  0
   -0.2575   -3.4598    3.4223 N   0  0  0  0  0  0  0  0  0  0  0  0
    2.5855   -1.3704    1.0836 C   0  0  0  0  0  0  0  0  0  0  0  0
    2.6460   -0.1686    0.6059 C   0  0  0  0  0  0  0  0  0  0  0  0
    3.8400    0.4122   -0.0494 C   0  0  0  0  0  0  0  0  0  0  0  0
    3.8143    1.7141   -0.5365 C   0  0  0  0  0  0  0  0  0  0  0  0
    4.8880    2.3081   -1.1528 C   0  0  0  0  0  0  0  0  0  0  0  0
    6.0601    1.6136   -1.3135 C   0  0  0  0  0  0  0  0  0  0  0  0
    6.1112    0.3221   -0.8395 C   0  0  0  0  0  0  0  0  0  0  0  0
    5.0127   -0.2784   -0.2117 C   0  0  0  0  0  0  0  0  0  0  0  0
    7.2467    2.1995   -1.9677 C   0  0  0  0  0  0  0  0  0  0  0  0
    8.3660    1.7645   -1.2632 F   0  0  0  0  0  0  0  0  0  0  0  0
    7.3190    1.7370   -3.2514 F   0  0  0  0  0  0  0  0  0  0  0  0
    7.1820    3.5817   -1.9809 F   0  0  0  0  0  0  0  0  0  0  0  0
   -2.7061    1.4083    0.1561 C   0  0  0  0  0  0  0  0  0  0  0  0
   -3.2135    1.6341    1.4135 C   0  0  0  0  0  0  0  0  0  0  0  0
   -3.6446    2.8771    1.8295 C   0  0  0  0  0  0  0  0  0  0  0  0
   -3.5800    3.9646    0.9773 C   0  0  0  0  0  0  0  0  0  0  0  0
   -3.0773    3.7679   -0.2847 C   0  0  0  0  0  0  0  0  0  0  0  0
   -2.6570    2.5370   -0.6787 C   0  0  0  0  0  0  0  0  0  0  0  0
   -4.1344    5.5261    1.5352 Cl  0  0  0  0  0  0  0  0  0  0  0  0
   -3.1415   -2.1977   -4.2527 H   0  0  0  0  0  0  0  0  0  0  0  0
   -1.6916   -1.0770   -2.6918 H   0  0  0  0  0  0  0  0  0  0  0  0
   -4.9533   -0.1985   -0.1460 H   0  0  0  0  0  0  0  0  0  0  0  0
   -6.4622   -1.3358   -1.7186 H   0  0  0  0  0  0  0  0  0  0  0  0
   -1.3513    0.4038   -1.0340 H   0  0  0  0  0  0  0  0  0  0  0  0
   -3.6231   -1.3940    1.4542 H   0  0  0  0  0  0  0  0  0  0  0  0
   -2.7350   -2.9159    3.1092 H   0  0  0  0  0  0  0  0  0  0  0  0
    0.2980   -0.5486    0.0583 H   0  0  0  0  0  0  0  0  0  0  0  0
    2.9963   -3.2929    2.8136 H   0  0  0  0  0  0  0  0  0  0  0  0
    1.3840   -4.4245    4.2287 H   0  0  0  0  0  0  0  0  0  0  0  0
    3.5351   -1.9524    0.9449 H   0  0  0  0  0  0  0  0  0  0  0  0
    1.8303    0.5119    0.7188 H   0  0  0  0  0  0  0  0  0  0  0  0
    2.9122    2.3192   -0.4398 H   0  0  0  0  0  0  0  0  0  0  0  0
    4.8237    3.3260   -1.5177 H   0  0  0  0  0  0  0  0  0  0  0  0
    7.0388   -0.2233   -0.9682 H   0  0  0  0  0  0  0  0  0  0  0  0
    5.1640   -1.2817    0.1162 H   0  0  0  0  0  0  0  0  0  0  0  0
   -3.2837    0.8323    2.1179 H   0  0  0  0  0  0  0  0  0  0  0  0
   -4.0441    3.0125    2.8454 H   0  0  0  0  0  0  0  0  0  0  0  0
   -3.0203    4.6114   -0.9642 H   0  0  0  0  0  0  0  0  0  0  0  0
   -2.2657    2.4505   -1.7022 H   0  0  0  0  0  0  0  0  0  0  0  0
  1  2  1  0
  2  3  2  0
  3  4  1  0
  4  5  2  0
  5  6  1  0
  6  7  2  0
  5  8  1  0
  8  9  1  0
  9 10  2  0
 10 11  1  0
 11 12  2  0
 12 13  1  0
 13 14  2  0
 13 15  1  0
 15 16  2  0
 16 17  1  0
 17 18  2  0
 15 19  1  0
 19 20  2  0
 20 21  1  0
 21 22  2  0
 22 23  1  0
 23 24  2  0
 24 25  1  0
 25 26  2  0
 24 27  1  0
 27 28  1  0
 27 29  1  0
 27 30  1  0
  8 31  1  0
 31 32  2  0
 32 33  1  0
 33 34  2  0
 34 35  1  0
 35 36  2  0
 34 37  1  0
  7  2  1  0
 14  9  1  0
 26 21  1  0
 36 31  1  0
 18 12  1  0
  3 38  1  0
  4 39  1  0
  6 40  1  0
  7 41  1  0
  8 42  1  0
 10 43  1  0
 11 44  1  0
 14 45  1  0
 16 46  1  0
 17 47  1  0
 19 48  1  0
 20 49  1  0
 22 50  1  0
 23 51  1  0
 25 52  1  0
 26 53  1  0
 32 54  1  0
 33 55  1  0
 35 56  1  0
 36 57  1  0
M  END
>  <Ligand ID>  (1) 
LIG0005876

>  <Ligand>  (1) 
CHEMBL3975021

>  <SMILES>  (1) 
Clc1ccc(cc1)C(c1ccc2c(c1)c(ccn2)/C=C/c1ccc(cc1)C(F)(F)F)c1ccc(cc1)Cl

>  <CID>  (1) 
118329957.0

>  <ChEMBL ID>  (1) 
nan

>  <InChiKey>  (1) 
XJVPJOOEBRWFRK-DAFODLJHSA-N

>  <InChi>  (1) 
InChI=1S/C31H20Cl2F3N/c32-26-12-5-22(6-13-26)30(23-7-14-27(33)15-8-23)24-9-16-29-28(19-24)21(17-18-37-29)4-1-20-2-10-25(11-3-20)31(34,35)36/h1-19,30H/b4-1+

>  <IUPAC Name>  (1) 
6-[bis(4-chlorophenyl)methyl]-4-[(E)-2-[4-(trifluoromethyl)phenyl]ethenyl]quinoline

$$$$
