
     RDKit          3D

 29 28  0  0  0  0  0  0  0  0999 V2000
    1.0718   -2.4028   -0.7704 C   0  0  0  0  0  0  0  0  0  0  0  0
    0.6007   -1.1642    0.0060 C   0  0  0  0  0  0  0  0  0  0  0  0
   -0.8100   -0.9393   -0.4187 C   0  0  0  0  0  0  0  0  0  0  0  0
   -1.4275    0.2537    0.0880 N   0  0  0  0  0  0  0  0  0  0  0  0
   -1.1055    1.3955   -0.7308 C   0  0  0  0  0  0  0  0  0  0  0  0
   -1.1426    0.5151    1.4651 C   0  0  0  0  0  0  0  0  0  0  0  0
   -2.8804    0.0553   -0.0221 C   0  0  0  0  0  0  0  0  0  0  0  0
    1.4588   -0.1247   -0.3974 O   0  0  0  0  0  0  0  0  0  0  0  0
    2.3596    0.4915    0.4334 C   0  0  0  0  0  0  0  0  0  0  0  0
    2.4425    0.1226    1.6334 O   0  0  0  0  0  0  0  0  0  0  0  0
    3.2602    1.5947   -0.0226 C   0  0  0  0  0  0  0  0  0  0  0  0
    1.9865   -2.8275   -0.3156 H   0  0  0  0  0  0  0  0  0  0  0  0
    1.2076   -2.0946   -1.8229 H   0  0  0  0  0  0  0  0  0  0  0  0
    0.2562   -3.1468   -0.6264 H   0  0  0  0  0  0  0  0  0  0  0  0
    0.7450   -1.4182    1.0704 H   0  0  0  0  0  0  0  0  0  0  0  0
   -0.8178   -0.9287   -1.5279 H   0  0  0  0  0  0  0  0  0  0  0  0
   -1.3913   -1.8472   -0.0989 H   0  0  0  0  0  0  0  0  0  0  0  0
   -1.8344    2.1959   -0.4228 H   0  0  0  0  0  0  0  0  0  0  0  0
   -1.3341    1.1467   -1.8060 H   0  0  0  0  0  0  0  0  0  0  0  0
   -0.0626    1.7006   -0.6062 H   0  0  0  0  0  0  0  0  0  0  0  0
   -1.0938   -0.4200    2.0628 H   0  0  0  0  0  0  0  0  0  0  0  0
   -1.9736    1.1216    1.8763 H   0  0  0  0  0  0  0  0  0  0  0  0
   -0.2390    1.1351    1.5487 H   0  0  0  0  0  0  0  0  0  0  0  0
   -3.4363    0.9938    0.1241 H   0  0  0  0  0  0  0  0  0  0  0  0
   -3.0928   -0.3279   -1.0556 H   0  0  0  0  0  0  0  0  0  0  0  0
   -3.1420   -0.7609    0.6695 H   0  0  0  0  0  0  0  0  0  0  0  0
    2.9708    1.8873   -1.0393 H   0  0  0  0  0  0  0  0  0  0  0  0
    3.0921    2.4606    0.6529 H   0  0  0  0  0  0  0  0  0  0  0  0
    4.3322    1.3328    0.0529 H   0  0  0  0  0  0  0  0  0  0  0  0
  1  2  1  0
  2  3  1  0
  3  4  1  0
  4  5  1  0
  4  6  1  0
  4  7  1  0
  2  8  1  0
  8  9  1  0
  9 10  2  0
  9 11  1  0
  1 12  1  0
  1 13  1  0
  1 14  1  0
  2 15  1  0
  3 16  1  0
  3 17  1  0
  5 18  1  0
  5 19  1  0
  5 20  1  0
  6 21  1  0
  6 22  1  0
  6 23  1  0
  7 24  1  0
  7 25  1  0
  7 26  1  0
 11 27  1  0
 11 28  1  0
 11 29  1  0
M  CHG  1   4   1
M  END
>  <Ligand ID>  (1) 
LIG0001545

>  <Ligand>  (1) 
methacholine

>  <SMILES>  (1) 
CC(C[N+](C)(C)C)OC(=O)C

>  <CID>  (1) 
1993.0

>  <ChEMBL ID>  (1) 
nan

>  <InChiKey>  (1) 
NZWOPGCLSHLLPA-UHFFFAOYSA-N

>  <InChi>  (1) 
InChI=1S/C8H18NO2/c1-7(11-8(2)10)6-9(3,4)5/h7H,6H2,1-5H3/q+1

>  <IUPAC Name>  (1) 
2-acetyloxypropyl(trimethyl)azanium

$$$$
