
     RDKit          3D

 58 60  0  0  0  0  0  0  0  0999 V2000
   -8.0543   -0.0864   -1.7932 O   0  0  0  0  0  0  0  0  0  0  0  0
   -6.7663   -0.6214   -1.6467 C   0  0  0  0  0  0  0  0  0  0  0  0
   -5.9250   -0.3408   -2.5167 O   0  0  0  0  0  0  0  0  0  0  0  0
   -6.4703   -1.4964   -0.4611 C   0  0  0  0  0  0  0  0  0  0  0  0
   -5.8001   -0.6700    0.5879 C   0  0  0  0  0  0  0  0  0  0  0  0
   -4.5037   -0.0515    0.1379 C   0  0  2  0  0  0  0  0  0  0  0  0
   -3.5101   -1.0760   -0.2533 C   0  0  0  0  0  0  0  0  0  0  0  0
   -2.2105   -0.9855    0.5201 C   0  0  0  0  0  0  0  0  0  0  0  0
   -1.3628    0.0831   -0.1380 C   0  0  1  0  0  0  0  0  0  0  0  0
   -2.2697    1.3205   -0.2027 C   0  0  1  0  0  0  0  0  0  0  0  0
   -2.8461    1.4598    1.0279 O   0  0  0  0  0  0  0  0  0  0  0  0
   -4.0507    0.8691    1.2345 C   0  0  0  0  0  0  0  0  0  0  0  0
   -1.1903    2.4063   -0.2823 C   0  0  0  0  0  0  0  0  0  0  0  0
   -0.3785    2.0339    0.9410 C   0  0  2  0  0  0  0  0  0  0  0  0
   -0.2394    0.5340    0.7679 C   0  0  2  0  0  0  0  0  0  0  0  0
    1.1144    0.2829    0.2023 C   0  0  0  0  0  0  0  0  0  0  0  0
    1.9794   -0.4944    0.8380 C   0  0  0  0  0  0  0  0  0  0  0  0
    3.3452   -0.7741    0.3110 C   0  0  2  0  0  0  0  0  0  0  0  0
    3.6884    0.0360   -0.8804 C   0  0  0  0  0  0  0  0  0  0  0  0
    4.9571   -0.2414   -1.3478 O   0  0  0  0  0  0  0  0  0  0  0  0
    6.2010   -0.1148   -0.8570 C   0  0  0  0  0  0  0  0  0  0  0  0
    7.2541   -0.5567   -1.6827 C   0  0  0  0  0  0  0  0  0  0  0  0
    8.5658   -0.4777   -1.2939 C   0  0  0  0  0  0  0  0  0  0  0  0
    8.9159    0.0397   -0.0725 C   0  0  0  0  0  0  0  0  0  0  0  0
    7.9148    0.4815    0.7605 C   0  0  0  0  0  0  0  0  0  0  0  0
    6.5892    0.3968    0.3558 C   0  0  0  0  0  0  0  0  0  0  0  0
    3.4009   -2.1309   -0.0112 O   0  0  0  0  0  0  0  0  0  0  0  0
   -1.1129    2.2622    2.0910 O   0  0  0  0  0  0  0  0  0  0  0  0
   -8.1672    0.8899   -2.0919 H   0  0  0  0  0  0  0  0  0  0  0  0
   -7.4128   -1.9468   -0.0741 H   0  0  0  0  0  0  0  0  0  0  0  0
   -5.8175   -2.3339   -0.7400 H   0  0  0  0  0  0  0  0  0  0  0  0
   -6.5246    0.1295    0.9254 H   0  0  0  0  0  0  0  0  0  0  0  0
   -5.6428   -1.2719    1.5246 H   0  0  0  0  0  0  0  0  0  0  0  0
   -4.7892    0.6205   -0.7267 H   0  0  0  0  0  0  0  0  0  0  0  0
   -3.2306   -0.8909   -1.3326 H   0  0  0  0  0  0  0  0  0  0  0  0
   -3.9061   -2.1118   -0.2269 H   0  0  0  0  0  0  0  0  0  0  0  0
   -2.4671   -0.7112    1.5630 H   0  0  0  0  0  0  0  0  0  0  0  0
   -1.7235   -1.9827    0.4547 H   0  0  0  0  0  0  0  0  0  0  0  0
   -1.0300   -0.2578   -1.1155 H   0  0  0  0  0  0  0  0  0  0  0  0
   -2.9160    1.3214   -1.0715 H   0  0  0  0  0  0  0  0  0  0  0  0
   -4.8180    1.6872    1.2858 H   0  0  0  0  0  0  0  0  0  0  0  0
   -4.0590    0.3743    2.2263 H   0  0  0  0  0  0  0  0  0  0  0  0
   -0.5753    2.2867   -1.1962 H   0  0  0  0  0  0  0  0  0  0  0  0
   -1.6533    3.3865   -0.1603 H   0  0  0  0  0  0  0  0  0  0  0  0
    0.6123    2.5296    0.9469 H   0  0  0  0  0  0  0  0  0  0  0  0
   -0.3030    0.0364    1.7731 H   0  0  0  0  0  0  0  0  0  0  0  0
    1.3701    0.7452   -0.7280 H   0  0  0  0  0  0  0  0  0  0  0  0
    1.7365   -0.9791    1.7943 H   0  0  0  0  0  0  0  0  0  0  0  0
    4.0359   -0.5814    1.1390 H   0  0  0  0  0  0  0  0  0  0  0  0
    2.9477   -0.1924   -1.6945 H   0  0  0  0  0  0  0  0  0  0  0  0
    3.6644    1.1329   -0.6500 H   0  0  0  0  0  0  0  0  0  0  0  0
    7.0552   -0.9767   -2.6620 H   0  0  0  0  0  0  0  0  0  0  0  0
    9.3559   -0.8301   -1.9611 H   0  0  0  0  0  0  0  0  0  0  0  0
    9.9577    0.0822    0.1916 H   0  0  0  0  0  0  0  0  0  0  0  0
    8.1916    0.8895    1.7243 H   0  0  0  0  0  0  0  0  0  0  0  0
    5.8630    0.7717    1.0414 H   0  0  0  0  0  0  0  0  0  0  0  0
    3.8197   -2.6255    0.7328 H   0  0  0  0  0  0  0  0  0  0  0  0
   -0.8094    1.6063    2.7723 H   0  0  0  0  0  0  0  0  0  0  0  0
  1  2  1  0
  2  3  2  0
  2  4  1  0
  4  5  1  0
  5  6  1  0
  6  7  1  0
  7  8  1  0
  8  9  1  0
  9 10  1  0
 10 11  1  0
 11 12  1  0
 10 13  1  0
 13 14  1  0
 14 15  1  0
 15 16  1  0
 16 17  2  0
 17 18  1  0
 18 19  1  0
 19 20  1  0
 20 21  1  0
 21 22  2  0
 22 23  1  0
 23 24  2  0
 24 25  1  0
 25 26  2  0
 18 27  1  0
 14 28  1  0
 12  6  1  0
 26 21  1  0
 15  9  1  0
  1 29  1  0
  4 30  1  0
  4 31  1  0
  5 32  1  0
  5 33  1  0
  6 34  1  6
  7 35  1  0
  7 36  1  0
  8 37  1  0
  8 38  1  0
  9 39  1  6
 10 40  1  6
 12 41  1  0
 12 42  1  0
 13 43  1  0
 13 44  1  0
 14 45  1  1
 15 46  1  1
 16 47  1  0
 17 48  1  0
 18 49  1  1
 19 50  1  0
 19 51  1  0
 22 52  1  0
 23 53  1  0
 24 54  1  0
 25 55  1  0
 26 56  1  0
 27 57  1  0
 28 58  1  0
M  END
>  <Ligand ID>  (1) 
LIG0002904

>  <Ligand>  (1) 
CHEMBL3984438

>  <SMILES>  (1) 
OC(=O)CC[C@@H]1CC[C@H]2[C@@H](OC1)C[C@H]([C@@H]2/C=C/[C@H](COc1ccccc1)O)O

>  <CID>  (1) 
134157766.0

>  <ChEMBL ID>  (1) 
nan

>  <InChiKey>  (1) 
IYVIISGTDLLJJD-UWXHIMLYSA-N

>  <InChi>  (1) 
InChI=1S/C22H30O6/c23-16(14-27-17-4-2-1-3-5-17)8-10-18-19-9-6-15(7-11-22(25)26)13-28-21(19)12-20(18)24/h1-5,8,10,15-16,18-21,23-24H,6-7,9,11-14H2,(H,25,26)/b10-8+/t15-,16+,18+,19+,20+,21-/m0/s1

>  <IUPAC Name>  (1) 
3-[(3S,5aR,6R,7R,8aS)-7-hydroxy-6-[(E,3R)-3-hydroxy-4-phenoxybut-1-enyl]-3,4,5,5a,6,7,8,8a-octahydro-2H-cyclopenta[b]oxepin-3-yl]propanoic acid

$$$$
