
     RDKit          3D

 68 68  0  0  0  0  0  0  0  0999 V2000
    1.4888   -0.3357    0.5810 O   0  0  0  0  0  0  0  0  0  0  0  0
    0.4778    0.3236   -0.1067 C   0  0  0  0  0  0  0  0  0  0  0  0
    0.7479    1.2997   -0.8636 O   0  0  0  0  0  0  0  0  0  0  0  0
   -0.9618   -0.1066    0.0318 C   0  0  0  0  0  0  0  0  0  0  0  0
   -1.7327    0.7124   -0.7510 F   0  0  0  0  0  0  0  0  0  0  0  0
   -1.2827   -0.0195    1.3829 F   0  0  0  0  0  0  0  0  0  0  0  0
   -1.1085   -1.4100   -0.3617 F   0  0  0  0  0  0  0  0  0  0  0  0
    6.2078    3.0190   -0.2010 C   0  0  0  0  0  0  0  0  0  0  0  0
    7.3646    2.0513   -0.0669 C   0  0  0  0  0  0  0  0  0  0  0  0
    6.8316    0.6795    0.3178 C   0  0  0  0  0  0  0  0  0  0  0  0
    5.9011    0.2284   -0.7599 C   0  0  0  0  0  0  0  0  0  0  0  0
    5.3398   -1.1314   -0.4387 C   0  0  0  0  0  0  0  0  0  0  0  0
    4.5634   -1.1946    0.8398 C   0  0  0  0  0  0  0  0  0  0  0  0
    4.0396   -2.5660    1.0723 C   0  0  0  0  0  0  0  0  0  0  0  0
    3.0965   -3.1026    0.0544 C   0  0  0  0  0  0  0  0  0  0  0  0
    1.8510   -2.3431   -0.1199 C   0  0  0  0  0  0  0  0  0  0  0  0
    0.7702   -2.6883    0.6836 C   0  0  0  0  0  0  0  0  0  0  0  0
   -0.4432   -2.0167    0.5738 C   0  0  0  0  0  0  0  0  0  0  0  0
   -0.6208   -0.9886   -0.3305 C   0  0  0  0  0  0  0  0  0  0  0  0
    0.4539   -0.6479   -1.1272 C   0  0  0  0  0  0  0  0  0  0  0  0
    1.6591   -1.3190   -1.0143 C   0  0  0  0  0  0  0  0  0  0  0  0
   -1.8896   -0.2782   -0.4531 C   0  0  0  0  0  0  0  0  0  0  0  0
   -2.1522    0.7420   -1.3126 C   0  0  0  0  0  0  0  0  0  0  0  0
   -3.4342    1.1170   -1.1090 N   0  0  0  0  0  0  0  0  0  0  0  0
   -3.9469    0.3405   -0.1425 C   0  0  0  0  0  0  0  0  0  0  0  0
   -2.9968   -0.5147    0.2581 N   0  0  0  0  0  0  0  0  0  0  0  0
   -5.3106    0.3714    0.4259 C   0  0  0  0  0  0  0  0  0  0  0  0
   -6.1630    1.4387   -0.2199 C   0  0  0  0  0  0  0  0  0  0  0  0
   -7.3976    1.3892    0.4662 O   0  0  0  0  0  0  0  0  0  0  0  0
   -8.4932    2.5295   -0.1286 P   0  0  0  0  0  0  0  0  0  0  0  0
   -7.5676    3.8243   -0.8081 S   0  0  0  0  0  0  0  0  0  0  0  0
   -9.4466    1.8044   -1.3440 O   0  0  0  0  0  0  0  0  0  0  0  0
   -9.5588    3.0866    1.0380 O   0  0  0  0  0  0  0  0  0  0  0  0
   -5.1986    0.7447    1.8386 N   0  0  0  0  0  0  0  0  0  0  0  0
   -6.0168   -0.9436    0.2588 C   0  0  0  0  0  0  0  0  0  0  0  0
    2.3713   -0.4638    0.0873 H   0  0  0  0  0  0  0  0  0  0  0  0
    5.4631    2.7791    0.5888 H   0  0  0  0  0  0  0  0  0  0  0  0
    5.7649    2.9780   -1.1969 H   0  0  0  0  0  0  0  0  0  0  0  0
    6.5351    4.0747   -0.0212 H   0  0  0  0  0  0  0  0  0  0  0  0
    8.0920    2.3450    0.7087 H   0  0  0  0  0  0  0  0  0  0  0  0
    7.9037    1.9390   -1.0295 H   0  0  0  0  0  0  0  0  0  0  0  0
    6.2601    0.7408    1.2733 H   0  0  0  0  0  0  0  0  0  0  0  0
    7.6600   -0.0239    0.4264 H   0  0  0  0  0  0  0  0  0  0  0  0
    5.0710    0.9552   -0.8970 H   0  0  0  0  0  0  0  0  0  0  0  0
    6.4136    0.1663   -1.7234 H   0  0  0  0  0  0  0  0  0  0  0  0
    6.2322   -1.8197   -0.4039 H   0  0  0  0  0  0  0  0  0  0  0  0
    4.7163   -1.5348   -1.2554 H   0  0  0  0  0  0  0  0  0  0  0  0
    5.2904   -0.9945    1.6755 H   0  0  0  0  0  0  0  0  0  0  0  0
    3.7571   -0.4596    0.8971 H   0  0  0  0  0  0  0  0  0  0  0  0
    3.6477   -2.6977    2.1207 H   0  0  0  0  0  0  0  0  0  0  0  0
    4.9343   -3.2552    1.0558 H   0  0  0  0  0  0  0  0  0  0  0  0
    3.6635   -3.2307   -0.9067 H   0  0  0  0  0  0  0  0  0  0  0  0
    2.8942   -4.1726    0.3620 H   0  0  0  0  0  0  0  0  0  0  0  0
    0.8659   -3.4969    1.4143 H   0  0  0  0  0  0  0  0  0  0  0  0
   -1.2866   -2.2834    1.1983 H   0  0  0  0  0  0  0  0  0  0  0  0
    0.3494    0.1592   -1.8524 H   0  0  0  0  0  0  0  0  0  0  0  0
    2.4495   -1.0107   -1.6583 H   0  0  0  0  0  0  0  0  0  0  0  0
   -1.4976    1.2178   -2.0542 H   0  0  0  0  0  0  0  0  0  0  0  0
   -3.0642   -1.2603    1.0000 H   0  0  0  0  0  0  0  0  0  0  0  0
   -6.3773    1.1625   -1.2719 H   0  0  0  0  0  0  0  0  0  0  0  0
   -5.7500    2.4396   -0.1050 H   0  0  0  0  0  0  0  0  0  0  0  0
   -9.7812    0.9464   -0.9677 H   0  0  0  0  0  0  0  0  0  0  0  0
   -9.6609    2.4809    1.8175 H   0  0  0  0  0  0  0  0  0  0  0  0
   -5.1051    1.7854    1.8524 H   0  0  0  0  0  0  0  0  0  0  0  0
   -4.3148    0.3794    2.2529 H   0  0  0  0  0  0  0  0  0  0  0  0
   -5.3569   -1.6910   -0.2409 H   0  0  0  0  0  0  0  0  0  0  0  0
   -6.9281   -0.8962   -0.3728 H   0  0  0  0  0  0  0  0  0  0  0  0
   -6.2836   -1.3542    1.2539 H   0  0  0  0  0  0  0  0  0  0  0  0
  1  2  1  0
  2  3  2  0
  2  4  1  0
  4  5  1  0
  4  6  1  0
  4  7  1  0
  8  9  1  0
  9 10  1  0
 10 11  1  0
 11 12  1  0
 12 13  1  0
 13 14  1  0
 14 15  1  0
 15 16  1  0
 16 17  2  0
 17 18  1  0
 18 19  2  0
 19 20  1  0
 20 21  2  0
 19 22  1  0
 22 23  2  0
 23 24  1  0
 24 25  2  0
 25 26  1  0
 25 27  1  0
 27 28  1  0
 28 29  1  0
 29 30  1  0
 30 31  2  0
 30 32  1  0
 30 33  1  0
 27 34  1  0
 27 35  1  0
 21 16  1  0
 26 22  1  0
  1 36  1  0
  8 37  1  0
  8 38  1  0
  8 39  1  0
  9 40  1  0
  9 41  1  0
 10 42  1  0
 10 43  1  0
 11 44  1  0
 11 45  1  0
 12 46  1  0
 12 47  1  0
 13 48  1  0
 13 49  1  0
 14 50  1  0
 14 51  1  0
 15 52  1  0
 15 53  1  0
 17 54  1  0
 18 55  1  0
 20 56  1  0
 21 57  1  0
 23 58  1  0
 26 59  1  0
 28 60  1  0
 28 61  1  0
 32 62  1  0
 33 63  1  0
 34 64  1  0
 34 65  1  0
 35 66  1  0
 35 67  1  0
 35 68  1  0
M  END
>  <Ligand ID>  (1) 
LIG0004246

>  <Ligand>  (1) 
CHEMBL364950

>  <SMILES>  (1) 
OC(=O)C(F)(F)F.CCCCCCCCc1ccc(cc1)c1cnc([nH]1)C(COP(=S)(O)O)(N)C

>  <CID>  (1) 
44398011.0

>  <ChEMBL ID>  (1) 
nan

>  <InChiKey>  (1) 
KRHFSHRDGASLLY-UHFFFAOYSA-N

>  <InChi>  (1) 
InChI=1S/C20H32N3O3PS.C2HF3O2/c1-3-4-5-6-7-8-9-16-10-12-17(13-11-16)18-14-22-19(23-18)20(2,21)15-26-27(24,25)28;3-2(4,5)1(6)7/h10-14H,3-9,15,21H2,1-2H3,(H,22,23)(H2,24,25,28);(H,6,7)

>  <IUPAC Name>  (1) 
1-dihydroxyphosphinothioyloxy-2-[5-(4-octylphenyl)-1H-imidazol-2-yl]propan-2-amine;2,2,2-trifluoroacetic acid

$$$$
