
     RDKit          3D

 83 83  0  0  0  0  0  0  0  0999 V2000
   -0.9888   -0.0958    0.0555 C   0  0  0  0  0  0  0  0  0  0  0  0
    0.4518    0.2779   -0.0990 C   0  0  0  0  0  0  0  0  0  0  0  0
    0.7225    1.4995    0.0564 O   0  0  0  0  0  0  0  0  0  0  0  0
    1.4248   -0.6704   -0.3957 O   0  0  0  0  0  0  0  0  0  0  0  0
  -10.0000   -0.5550    3.3469 O   0  0  0  0  0  0  0  0  0  0  0  0
  -10.2044   -1.2205    2.1566 C   0  0  0  0  0  0  0  0  0  0  0  0
   -9.5766   -0.4389    1.0425 C   0  0  0  0  0  0  0  0  0  0  0  0
   -8.3823   -0.8377    0.4776 C   0  0  0  0  0  0  0  0  0  0  0  0
   -7.8079   -0.1161   -0.5475 C   0  0  0  0  0  0  0  0  0  0  0  0
   -8.4111    1.0376   -1.0477 C   0  0  0  0  0  0  0  0  0  0  0  0
   -9.6046    1.4452   -0.4907 C   0  0  0  0  0  0  0  0  0  0  0  0
  -10.1728    0.7058    0.5444 C   0  0  0  0  0  0  0  0  0  0  0  0
  -11.3856    1.1627    1.0748 O   0  0  0  0  0  0  0  0  0  0  0  0
   -6.5147   -0.5284   -1.1742 C   0  0  2  0  0  0  0  0  0  0  0  0
   -5.5113    0.5374   -0.7150 C   0  0  0  0  0  0  0  0  0  0  0  0
   -4.2144    0.3284   -1.3168 N   0  0  0  0  0  0  0  0  0  0  0  0
   -3.2316    1.2808   -0.9453 C   0  0  0  0  0  0  0  0  0  0  0  0
   -2.7868    1.2316    0.4722 C   0  0  0  0  0  0  0  0  0  0  0  0
   -2.1769   -0.0483    0.9098 C   0  0  0  0  0  0  0  0  0  0  0  0
   -0.9471   -0.4350    0.1328 C   0  0  0  0  0  0  0  0  0  0  0  0
    0.0934    0.6525    0.2996 C   0  0  0  0  0  0  0  0  0  0  0  0
    1.3015    0.2029   -0.5045 C   0  0  0  0  0  0  0  0  0  0  0  0
    2.3133    1.1258   -0.4233 O   0  0  0  0  0  0  0  0  0  0  0  0
    2.7795    1.3710    0.8552 C   0  0  0  0  0  0  0  0  0  0  0  0
    3.3073    0.1039    1.4462 C   0  0  0  0  0  0  0  0  0  0  0  0
    4.4286   -0.4537    0.6157 C   0  0  0  0  0  0  0  0  0  0  0  0
    5.5557    0.5152    0.5443 C   0  0  0  0  0  0  0  0  0  0  0  0
    6.7040   -0.0319   -0.2751 C   0  0  0  0  0  0  0  0  0  0  0  0
    6.7516    0.2092   -1.6527 C   0  0  0  0  0  0  0  0  0  0  0  0
    7.8036   -0.2927   -2.3932 C   0  0  0  0  0  0  0  0  0  0  0  0
    8.8096   -1.0348   -1.7653 C   0  0  0  0  0  0  0  0  0  0  0  0
    8.7601   -1.2705   -0.4082 C   0  0  0  0  0  0  0  0  0  0  0  0
    7.7058   -0.7691    0.3414 C   0  0  0  0  0  0  0  0  0  0  0  0
    9.9803   -2.1840    0.4490 S   0  0  0  0  0  0  0  0  0  0  0  0
    9.4148   -3.0451    1.5108 O   0  0  0  0  0  0  0  0  0  0  0  0
   10.6884   -3.0141   -0.6126 O   0  0  0  0  0  0  0  0  0  0  0  0
   11.1727   -1.0911    1.0544 N   0  0  0  0  0  0  0  0  0  0  0  0
   11.8380   -0.3771   -0.0131 C   0  0  0  0  0  0  0  0  0  0  0  0
   -6.6312   -0.4482   -2.5616 O   0  0  0  0  0  0  0  0  0  0  0  0
   -1.5446    0.5466   -0.6558 H   0  0  0  0  0  0  0  0  0  0  0  0
   -1.1619   -1.1631   -0.1489 H   0  0  0  0  0  0  0  0  0  0  0  0
   -1.2377    0.1342    1.1243 H   0  0  0  0  0  0  0  0  0  0  0  0
    2.3339   -0.5289    0.0632 H   0  0  0  0  0  0  0  0  0  0  0  0
   -9.1680   -0.8784    3.7603 H   0  0  0  0  0  0  0  0  0  0  0  0
  -11.2793   -1.3591    1.9186 H   0  0  0  0  0  0  0  0  0  0  0  0
   -9.6730   -2.1917    2.2078 H   0  0  0  0  0  0  0  0  0  0  0  0
   -7.8921   -1.7410    0.8556 H   0  0  0  0  0  0  0  0  0  0  0  0
   -7.9747    1.6151   -1.8506 H   0  0  0  0  0  0  0  0  0  0  0  0
  -10.1108    2.3404   -0.8501 H   0  0  0  0  0  0  0  0  0  0  0  0
  -12.1184    1.3448    0.3894 H   0  0  0  0  0  0  0  0  0  0  0  0
   -6.2147   -1.5068   -0.7961 H   0  0  0  0  0  0  0  0  0  0  0  0
   -5.3943    0.3804    0.3747 H   0  0  0  0  0  0  0  0  0  0  0  0
   -5.9363    1.4943   -1.0108 H   0  0  0  0  0  0  0  0  0  0  0  0
   -3.8344   -0.6211   -1.1065 H   0  0  0  0  0  0  0  0  0  0  0  0
   -3.5874    2.2950   -1.2049 H   0  0  0  0  0  0  0  0  0  0  0  0
   -2.3381    1.1041   -1.5905 H   0  0  0  0  0  0  0  0  0  0  0  0
   -2.1084    2.0716    0.7167 H   0  0  0  0  0  0  0  0  0  0  0  0
   -3.6888    1.3896    1.1298 H   0  0  0  0  0  0  0  0  0  0  0  0
   -2.8910   -0.8871    1.0453 H   0  0  0  0  0  0  0  0  0  0  0  0
   -1.7994    0.1368    1.9602 H   0  0  0  0  0  0  0  0  0  0  0  0
   -0.5328   -1.3310    0.6660 H   0  0  0  0  0  0  0  0  0  0  0  0
   -1.1206   -0.7422   -0.8966 H   0  0  0  0  0  0  0  0  0  0  0  0
    0.3139    0.6830    1.3881 H   0  0  0  0  0  0  0  0  0  0  0  0
   -0.2157    1.6263   -0.1201 H   0  0  0  0  0  0  0  0  0  0  0  0
    1.5990   -0.8459   -0.2908 H   0  0  0  0  0  0  0  0  0  0  0  0
    0.9577    0.1852   -1.5710 H   0  0  0  0  0  0  0  0  0  0  0  0
    1.9877    1.8249    1.5060 H   0  0  0  0  0  0  0  0  0  0  0  0
    3.5641    2.1396    0.7988 H   0  0  0  0  0  0  0  0  0  0  0  0
    2.5236   -0.6771    1.5168 H   0  0  0  0  0  0  0  0  0  0  0  0
    3.6739    0.2699    2.4868 H   0  0  0  0  0  0  0  0  0  0  0  0
    4.0535   -0.6061   -0.4404 H   0  0  0  0  0  0  0  0  0  0  0  0
    4.8036   -1.4198    1.0025 H   0  0  0  0  0  0  0  0  0  0  0  0
    5.9746    0.7816    1.5299 H   0  0  0  0  0  0  0  0  0  0  0  0
    5.2765    1.4795    0.0407 H   0  0  0  0  0  0  0  0  0  0  0  0
    5.9795    0.7823   -2.1523 H   0  0  0  0  0  0  0  0  0  0  0  0
    7.8267   -0.0977   -3.4574 H   0  0  0  0  0  0  0  0  0  0  0  0
    9.6288   -1.4260   -2.3508 H   0  0  0  0  0  0  0  0  0  0  0  0
    7.6237   -0.9244    1.3892 H   0  0  0  0  0  0  0  0  0  0  0  0
   10.6735   -0.3996    1.6419 H   0  0  0  0  0  0  0  0  0  0  0  0
   11.9687    0.6776    0.3206 H   0  0  0  0  0  0  0  0  0  0  0  0
   11.2002   -0.3367   -0.9187 H   0  0  0  0  0  0  0  0  0  0  0  0
   12.8272   -0.8377   -0.2258 H   0  0  0  0  0  0  0  0  0  0  0  0
   -6.4270    0.4890   -2.8082 H   0  0  0  0  0  0  0  0  0  0  0  0
  1  2  1  0
  2  3  2  0
  2  4  1  0
  5  6  1  0
  6  7  1  0
  7  8  2  0
  8  9  1  0
  9 10  2  0
 10 11  1  0
 11 12  2  0
 12 13  1  0
  9 14  1  0
 14 15  1  0
 15 16  1  0
 16 17  1  0
 17 18  1  0
 18 19  1  0
 19 20  1  0
 20 21  1  0
 21 22  1  0
 22 23  1  0
 23 24  1  0
 24 25  1  0
 25 26  1  0
 26 27  1  0
 27 28  1  0
 28 29  2  0
 29 30  1  0
 30 31  2  0
 31 32  1  0
 32 33  2  0
 32 34  1  0
 34 35  2  0
 34 36  2  0
 34 37  1  0
 37 38  1  0
 14 39  1  0
 12  7  1  0
 33 28  1  0
  1 40  1  0
  1 41  1  0
  1 42  1  0
  4 43  1  0
  5 44  1  0
  6 45  1  0
  6 46  1  0
  8 47  1  0
 10 48  1  0
 11 49  1  0
 13 50  1  0
 14 51  1  6
 15 52  1  0
 15 53  1  0
 16 54  1  0
 17 55  1  0
 17 56  1  0
 18 57  1  0
 18 58  1  0
 19 59  1  0
 19 60  1  0
 20 61  1  0
 20 62  1  0
 21 63  1  0
 21 64  1  0
 22 65  1  0
 22 66  1  0
 24 67  1  0
 24 68  1  0
 25 69  1  0
 25 70  1  0
 26 71  1  0
 26 72  1  0
 27 73  1  0
 27 74  1  0
 29 75  1  0
 30 76  1  0
 31 77  1  0
 33 78  1  0
 37 79  1  0
 38 80  1  0
 38 81  1  0
 38 82  1  0
 39 83  1  0
M  END
>  <Ligand ID>  (1) 
LIG0003361

>  <Ligand>  (1) 
CHEMBL516056

>  <SMILES>  (1) 
CC(=O)O.OCc1cc(ccc1O)[C@H](CNCCCCCCOCCCCc1cccc(c1)S(=O)(=O)NC)O

>  <CID>  (1) 
42625514.0

>  <ChEMBL ID>  (1) 
nan

>  <InChiKey>  (1) 
ABPYSEKSOMBXAZ-SNYZSRNZSA-N

>  <InChi>  (1) 
InChI=1S/C26H40N2O6S.C2H4O2/c1-27-35(32,33)24-11-8-10-21(17-24)9-4-7-16-34-15-6-3-2-5-14-28-19-26(31)22-12-13-25(30)23(18-22)20-29;1-2(3)4/h8,10-13,17-18,26-31H,2-7,9,14-16,19-20H2,1H3;1H3,(H,3,4)/t26-;/m0./s1

>  <IUPAC Name>  (1) 
acetic acid;3-[4-[6-[[(2R)-2-hydroxy-2-[4-hydroxy-3-(hydroxymethyl)phenyl]ethyl]amino]hexoxy]butyl]-N-methylbenzenesulfonamide

$$$$
