
     RDKit          3D

 50 54  0  0  0  0  0  0  0  0999 V2000
   -5.9633    2.3213    2.9655 Cl  0  0  0  0  0  0  0  0  0  0  0  0
   -5.0950    1.5546    1.6434 C   0  0  0  0  0  0  0  0  0  0  0  0
   -4.1811    0.5346    1.9034 C   0  0  0  0  0  0  0  0  0  0  0  0
   -3.5124   -0.0516    0.8431 C   0  0  0  0  0  0  0  0  0  0  0  0
   -3.7873    0.4089   -0.4298 C   0  0  0  0  0  0  0  0  0  0  0  0
   -4.6905    1.4166   -0.6849 C   0  0  0  0  0  0  0  0  0  0  0  0
   -5.3607    2.0039    0.3760 C   0  0  0  0  0  0  0  0  0  0  0  0
   -3.1024   -0.1786   -1.6393 C   0  0  0  0  0  0  0  0  0  0  0  0
   -1.8901    0.5972   -1.8822 C   0  0  0  0  0  0  0  0  0  0  0  0
   -1.9704    1.6122   -2.8456 C   0  0  0  0  0  0  0  0  0  0  0  0
   -0.8886    2.4081   -3.1533 C   0  0  0  0  0  0  0  0  0  0  0  0
    0.2896    2.1781   -2.4809 C   0  0  0  0  0  0  0  0  0  0  0  0
    0.4233    1.1837   -1.5157 C   0  0  0  0  0  0  0  0  0  0  0  0
   -0.6801    0.4235   -1.2492 C   0  0  0  0  0  0  0  0  0  0  0  0
    1.6508    0.9989   -0.8658 C   0  0  0  0  0  0  0  0  0  0  0  0
    2.6305    1.8307   -1.2473 N   0  0  0  0  0  0  0  0  0  0  0  0
    2.5027    2.7847   -2.1738 C   0  0  0  0  0  0  0  0  0  0  0  0
    1.3309    2.9748   -2.8059 N   0  0  0  0  0  0  0  0  0  0  0  0
    1.8060    0.0077    0.1330 N   0  0  0  0  0  0  0  0  0  0  0  0
    3.0261   -0.2957    0.7969 C   0  0  0  0  0  0  0  0  0  0  0  0
    2.9903   -1.0273    1.9803 C   0  0  0  0  0  0  0  0  0  0  0  0
    4.1145   -1.3768    2.6865 C   0  0  0  0  0  0  0  0  0  0  0  0
    5.3511   -0.9947    2.2186 C   0  0  0  0  0  0  0  0  0  0  0  0
    5.4140   -0.2714    1.0516 C   0  0  0  0  0  0  0  0  0  0  0  0
    4.2669    0.0746    0.3485 C   0  0  0  0  0  0  0  0  0  0  0  0
    6.5821   -1.3481    2.9459 C   0  0  0  0  0  0  0  0  0  0  0  0
    7.5211   -1.7237    2.0026 F   0  0  0  0  0  0  0  0  0  0  0  0
    6.3215   -2.3474    3.8467 F   0  0  0  0  0  0  0  0  0  0  0  0
    7.0905   -0.2490    3.6315 F   0  0  0  0  0  0  0  0  0  0  0  0
   -2.7209   -1.6229   -1.3400 C   0  0  0  0  0  0  0  0  0  0  0  0
   -1.9419   -2.2563   -0.8542 N   0  0  0  0  0  0  0  0  0  0  0  0
   -1.7963   -3.5647   -0.7029 C   0  0  0  0  0  0  0  0  0  0  0  0
   -2.8562   -4.2626   -1.2849 C   0  0  0  0  0  0  0  0  0  0  0  0
   -3.9558   -2.9513   -1.9922 S   0  0  0  0  0  0  0  0  0  0  0  0
   -4.0125    0.2217    2.9190 H   0  0  0  0  0  0  0  0  0  0  0  0
   -2.7903   -0.8512    0.9946 H   0  0  0  0  0  0  0  0  0  0  0  0
   -4.8966    1.7705   -1.7013 H   0  0  0  0  0  0  0  0  0  0  0  0
   -6.0644    2.7933    0.1489 H   0  0  0  0  0  0  0  0  0  0  0  0
   -3.7973   -0.1534   -2.5134 H   0  0  0  0  0  0  0  0  0  0  0  0
   -2.8885    1.8087   -3.3840 H   0  0  0  0  0  0  0  0  0  0  0  0
   -0.9846    3.1766   -3.8968 H   0  0  0  0  0  0  0  0  0  0  0  0
   -0.6226   -0.3468   -0.5193 H   0  0  0  0  0  0  0  0  0  0  0  0
    3.3787    3.3976   -2.3956 H   0  0  0  0  0  0  0  0  0  0  0  0
    0.9825   -0.5606    0.4281 H   0  0  0  0  0  0  0  0  0  0  0  0
    2.0249   -1.3441    2.3728 H   0  0  0  0  0  0  0  0  0  0  0  0
    3.9953   -1.9493    3.6003 H   0  0  0  0  0  0  0  0  0  0  0  0
    6.3973    0.0168    0.7067 H   0  0  0  0  0  0  0  0  0  0  0  0
    4.4266    0.6337   -0.5548 H   0  0  0  0  0  0  0  0  0  0  0  0
   -0.9827   -4.0671   -0.2022 H   0  0  0  0  0  0  0  0  0  0  0  0
   -3.0848   -5.3387   -1.3637 H   0  0  0  0  0  0  0  0  0  0  0  0
  1  2  1  0
  2  3  2  0
  3  4  1  0
  4  5  2  0
  5  6  1  0
  6  7  2  0
  5  8  1  0
  8  9  1  0
  9 10  2  0
 10 11  1  0
 11 12  2  0
 12 13  1  0
 13 14  2  0
 13 15  1  0
 15 16  2  0
 16 17  1  0
 17 18  2  0
 15 19  1  0
 19 20  1  0
 20 21  2  0
 21 22  1  0
 22 23  2  0
 23 24  1  0
 24 25  2  0
 23 26  1  0
 26 27  1  0
 26 28  1  0
 26 29  1  0
  8 30  1  0
 30 31  2  0
 31 32  1  0
 32 33  2  0
 33 34  1  0
  7  2  1  0
 14  9  1  0
 25 20  1  0
 34 30  1  0
 18 12  1  0
  3 35  1  0
  4 36  1  0
  6 37  1  0
  7 38  1  0
  8 39  1  0
 10 40  1  0
 11 41  1  0
 14 42  1  0
 17 43  1  0
 19 44  1  0
 21 45  1  0
 22 46  1  0
 24 47  1  0
 25 48  1  0
 32 49  1  0
 33 50  1  0
M  END
>  <Ligand ID>  (1) 
LIG0005903

>  <Ligand>  (1) 
SCHEMBL17557552

>  <SMILES>  (1) 
Clc1ccc(cc1)C(c1ccc2c(c1)c(ncn2)Nc1ccc(cc1)C(F)(F)F)c1nccs1

>  <CID>  (1) 
118916038.0

>  <ChEMBL ID>  (1) 
nan

>  <InChiKey>  (1) 
HSFAGMRJNWROFQ-UHFFFAOYSA-N

>  <InChi>  (1) 
InChI=1S/C25H16ClF3N4S/c26-18-6-1-15(2-7-18)22(24-30-11-12-34-24)16-3-10-21-20(13-16)23(32-14-31-21)33-19-8-4-17(5-9-19)25(27,28)29/h1-14,22H,(H,31,32,33)

>  <IUPAC Name>  (1) 
6-[(4-chlorophenyl)-(1,3-thiazol-2-yl)methyl]-N-[4-(trifluoromethyl)phenyl]quinazolin-4-amine

$$$$
