
     RDKit          3D

 43 46  0  0  0  0  0  0  0  0999 V2000
   -4.6971   -0.7430    1.8668 Cl  0  0  0  0  0  0  0  0  0  0  0  0
   -4.5120    0.6118    0.7712 C   0  0  0  0  0  0  0  0  0  0  0  0
   -5.3520    1.6943    0.9264 C   0  0  0  0  0  0  0  0  0  0  0  0
   -5.2630    2.7952    0.1003 C   0  0  0  0  0  0  0  0  0  0  0  0
   -4.3039    2.7807   -0.8907 C   0  0  0  0  0  0  0  0  0  0  0  0
   -3.4581    1.6761   -1.0372 C   0  0  0  0  0  0  0  0  0  0  0  0
   -3.5308    0.5754   -0.2282 C   0  0  0  0  0  0  0  0  0  0  0  0
   -2.7565   -0.5455   -0.2894 O   0  0  0  0  0  0  0  0  0  0  0  0
   -1.7453   -0.6961   -1.2440 C   0  0  2  0  0  0  0  0  0  0  0  0
   -1.9749   -1.9968   -2.0373 C   0  0  0  0  0  0  0  0  0  0  0  0
   -1.7602   -2.9804   -0.8794 C   0  0  0  0  0  0  0  0  0  0  0  0
   -0.4573   -2.4558   -0.3732 C   0  0  0  0  0  0  0  0  0  0  0  0
   -0.4367   -1.0777   -0.5879 C   0  0  0  0  0  0  0  0  0  0  0  0
    0.6296   -0.3225   -0.2267 N   0  0  0  0  0  0  0  0  0  0  0  0
    1.7195   -0.8547    0.3546 C   0  0  0  0  0  0  0  0  0  0  0  0
    1.7225   -2.2076    0.5759 C   0  0  0  0  0  0  0  0  0  0  0  0
    0.6583   -3.0070    0.2228 C   0  0  0  0  0  0  0  0  0  0  0  0
    2.7951    0.0096    0.7024 N   0  0  0  0  0  0  0  0  0  0  0  0
    2.6410    1.4191    0.4042 C   0  0  0  0  0  0  0  0  0  0  0  0
    3.9468    1.9799   -0.1169 C   0  0  0  0  0  0  0  0  0  0  0  0
    4.9215    1.7571    0.9542 N   0  0  0  0  0  0  0  0  0  0  0  0
    5.2322    0.3607    0.9274 C   0  0  0  0  0  0  0  0  0  0  0  0
    4.0071   -0.4248    1.3223 C   0  0  0  0  0  0  0  0  0  0  0  0
   -6.1094    1.6820    1.7249 H   0  0  0  0  0  0  0  0  0  0  0  0
   -5.9274    3.6327    0.2356 H   0  0  0  0  0  0  0  0  0  0  0  0
   -4.2374    3.6304   -1.5261 H   0  0  0  0  0  0  0  0  0  0  0  0
   -2.7425    1.7450   -1.8298 H   0  0  0  0  0  0  0  0  0  0  0  0
   -1.6171    0.1329   -1.9298 H   0  0  0  0  0  0  0  0  0  0  0  0
   -2.9792   -2.0531   -2.4678 H   0  0  0  0  0  0  0  0  0  0  0  0
   -1.1359   -2.0906   -2.7254 H   0  0  0  0  0  0  0  0  0  0  0  0
   -1.6963   -4.0211   -1.2189 H   0  0  0  0  0  0  0  0  0  0  0  0
   -2.5123   -2.7746   -0.1151 H   0  0  0  0  0  0  0  0  0  0  0  0
    2.5685   -2.6682    1.0349 H   0  0  0  0  0  0  0  0  0  0  0  0
    0.6480   -4.0864    0.3936 H   0  0  0  0  0  0  0  0  0  0  0  0
    1.7956    1.6243   -0.2706 H   0  0  0  0  0  0  0  0  0  0  0  0
    2.4498    1.9279    1.3888 H   0  0  0  0  0  0  0  0  0  0  0  0
    4.2422    1.3553   -1.0082 H   0  0  0  0  0  0  0  0  0  0  0  0
    3.8551    3.0306   -0.3841 H   0  0  0  0  0  0  0  0  0  0  0  0
    5.7448    2.3737    0.8553 H   0  0  0  0  0  0  0  0  0  0  0  0
    5.5124    0.0129   -0.0884 H   0  0  0  0  0  0  0  0  0  0  0  0
    6.0399    0.0832    1.6426 H   0  0  0  0  0  0  0  0  0  0  0  0
    3.8477   -0.4027    2.4281 H   0  0  0  0  0  0  0  0  0  0  0  0
    4.2278   -1.4823    1.0574 H   0  0  0  0  0  0  0  0  0  0  0  0
  1  2  1  0
  2  3  2  0
  3  4  1  0
  4  5  2  0
  5  6  1  0
  6  7  2  0
  7  8  1  0
  8  9  1  0
  9 10  1  0
 10 11  1  0
 11 12  1  0
 12 13  2  0
 13 14  1  0
 14 15  2  0
 15 16  1  0
 16 17  2  0
 15 18  1  0
 18 19  1  0
 19 20  1  0
 20 21  1  0
 21 22  1  0
 22 23  1  0
  7  2  1  0
 13  9  1  0
 23 18  1  0
 17 12  1  0
  3 24  1  0
  4 25  1  0
  5 26  1  0
  6 27  1  0
  9 28  1  6
 10 29  1  0
 10 30  1  0
 11 31  1  0
 11 32  1  0
 16 33  1  0
 17 34  1  0
 19 35  1  0
 19 36  1  0
 20 37  1  0
 20 38  1  0
 21 39  1  0
 22 40  1  0
 22 41  1  0
 23 42  1  0
 23 43  1  0
M  END
>  <Ligand ID>  (1) 
LIG0002985

>  <Ligand>  (1) 
CHEMBL595553

>  <SMILES>  (1) 
Clc1ccccc1O[C@@H]1CCc2c1nc(cc2)N1CCNCC1

>  <CID>  (1) 
46228422.0

>  <ChEMBL ID>  (1) 
nan

>  <InChiKey>  (1) 
HUUPVTVQRVHGPI-MRXNPFEDSA-N

>  <InChi>  (1) 
InChI=1S/C18H20ClN3O/c19-14-3-1-2-4-15(14)23-16-7-5-13-6-8-17(21-18(13)16)22-11-9-20-10-12-22/h1-4,6,8,16,20H,5,7,9-12H2/t16-/m1/s1

>  <IUPAC Name>  (1) 
(7R)-7-(2-chlorophenoxy)-2-piperazin-1-yl-6,7-dihydro-5H-cyclopenta[b]pyridine

$$$$
