
     RDKit          3D

 21 20  0  0  0  0  0  0  0  0999 V2000
    3.8544   -0.5402   -0.2711 C   0  0  0  0  0  0  0  0  0  0  0  0
    2.7461    0.2596    0.3343 C   0  0  0  0  0  0  0  0  0  0  0  0
    2.9359    1.0454    1.3022 O   0  0  0  0  0  0  0  0  0  0  0  0
    1.4583    0.1645   -0.1517 O   0  0  0  0  0  0  0  0  0  0  0  0
    0.3592    0.8887    0.3686 C   0  0  0  0  0  0  0  0  0  0  0  0
   -0.8270    0.4895   -0.4409 C   0  0  0  0  0  0  0  0  0  0  0  0
   -1.8988   -0.0805    0.0939 C   0  0  0  0  0  0  0  0  0  0  0  0
   -1.9494   -0.3418    1.5366 C   0  0  0  0  0  0  0  0  0  0  0  0
   -3.0276   -0.4408   -0.7942 C   0  0  0  0  0  0  0  0  0  0  0  0
    4.1383    0.0104   -1.1928 H   0  0  0  0  0  0  0  0  0  0  0  0
    4.6983   -0.6877    0.4214 H   0  0  0  0  0  0  0  0  0  0  0  0
    3.5018   -1.5391   -0.6294 H   0  0  0  0  0  0  0  0  0  0  0  0
    0.2137    0.6801    1.4460 H   0  0  0  0  0  0  0  0  0  0  0  0
    0.4556    1.9838    0.2437 H   0  0  0  0  0  0  0  0  0  0  0  0
   -0.7585    0.6978   -1.5142 H   0  0  0  0  0  0  0  0  0  0  0  0
   -1.1778   -1.0662    1.8946 H   0  0  0  0  0  0  0  0  0  0  0  0
   -2.9785   -0.6754    1.8096 H   0  0  0  0  0  0  0  0  0  0  0  0
   -1.7260    0.6250    2.0753 H   0  0  0  0  0  0  0  0  0  0  0  0
   -3.0841   -1.5275   -0.9968 H   0  0  0  0  0  0  0  0  0  0  0  0
   -2.9644    0.1344   -1.7455 H   0  0  0  0  0  0  0  0  0  0  0  0
   -3.9696   -0.0800   -0.3051 H   0  0  0  0  0  0  0  0  0  0  0  0
  1  2  1  0
  2  3  2  0
  2  4  1  0
  4  5  1  0
  5  6  1  0
  6  7  2  3
  7  8  1  0
  7  9  1  0
  1 10  1  0
  1 11  1  0
  1 12  1  0
  5 13  1  0
  5 14  1  0
  6 15  1  0
  8 16  1  0
  8 17  1  0
  8 18  1  0
  9 19  1  0
  9 20  1  0
  9 21  1  0
M  END
>  <Ligand ID>  (1) 
LIG0000098

>  <Ligand>  (1) 
Prenyl acetate

>  <SMILES>  (1) 
CC(=O)OCC=C(C)C

>  <CID>  (1) 
14489.0

>  <ChEMBL ID>  (1) 
nan

>  <InChiKey>  (1) 
XXIKYCPRDXIMQM-UHFFFAOYSA-N

>  <InChi>  (1) 
InChI=1S/C7H12O2/c1-6(2)4-5-9-7(3)8/h4H,5H2,1-3H3

>  <IUPAC Name>  (1) 
3-methylbut-2-enyl acetate

$$$$
