
     RDKit          3D

 32 34  0  0  0  0  0  0  0  0999 V2000
    4.0709   -0.2402   -0.4173 C   0  0  0  0  0  0  0  0  0  0  0  0
    2.8026    0.4318   -0.2163 N   0  0  0  0  0  0  0  0  0  0  0  0
    2.1490    0.8211   -1.4255 C   0  0  0  0  0  0  0  0  0  0  0  0
    1.3752   -0.4152   -1.9073 C   0  0  0  0  0  0  0  0  0  0  0  0
    0.2749   -0.4974   -0.9638 N   0  0  0  0  0  0  0  0  0  0  0  0
    0.5670   -0.4443    0.4351 C   0  0  1  0  0  0  0  0  0  0  0  0
    1.9794   -0.1446    0.7818 C   0  0  0  0  0  0  0  0  0  0  0  0
   -0.3836    0.4355    1.2112 C   0  0  0  0  0  0  0  0  0  0  0  0
   -1.7814    0.2968    0.7760 C   0  0  0  0  0  0  0  0  0  0  0  0
   -2.1451   -0.2155   -0.4722 C   0  0  0  0  0  0  0  0  0  0  0  0
   -1.0729   -0.6276   -1.3746 C   0  0  0  0  0  0  0  0  0  0  0  0
   -1.3102   -1.1057   -2.5320 O   0  0  0  0  0  0  0  0  0  0  0  0
   -3.4646   -0.3354   -0.8566 C   0  0  0  0  0  0  0  0  0  0  0  0
   -4.4626    0.0595    0.0105 C   0  0  0  0  0  0  0  0  0  0  0  0
   -4.1380    0.5641    1.2373 C   0  0  0  0  0  0  0  0  0  0  0  0
   -2.7994    0.6832    1.6213 C   0  0  0  0  0  0  0  0  0  0  0  0
    4.4318   -0.1767   -1.4628 H   0  0  0  0  0  0  0  0  0  0  0  0
    4.0542   -1.3147   -0.1466 H   0  0  0  0  0  0  0  0  0  0  0  0
    4.8521    0.2093    0.2599 H   0  0  0  0  0  0  0  0  0  0  0  0
    1.4236    1.6178   -1.1820 H   0  0  0  0  0  0  0  0  0  0  0  0
    2.8691    1.1520   -2.1673 H   0  0  0  0  0  0  0  0  0  0  0  0
    2.0003   -1.3348   -1.7990 H   0  0  0  0  0  0  0  0  0  0  0  0
    1.0480   -0.3131   -2.9573 H   0  0  0  0  0  0  0  0  0  0  0  0
    0.3518   -1.4824    0.8159 H   0  0  0  0  0  0  0  0  0  0  0  0
    1.9904    0.5708    1.6563 H   0  0  0  0  0  0  0  0  0  0  0  0
    2.5323   -1.0493    1.1717 H   0  0  0  0  0  0  0  0  0  0  0  0
   -0.1085    1.5101    1.1995 H   0  0  0  0  0  0  0  0  0  0  0  0
   -0.3694    0.1307    2.2905 H   0  0  0  0  0  0  0  0  0  0  0  0
   -3.6994   -0.7370   -1.8315 H   0  0  0  0  0  0  0  0  0  0  0  0
   -5.5055   -0.0159   -0.2471 H   0  0  0  0  0  0  0  0  0  0  0  0
   -4.9218    0.8717    1.9122 H   0  0  0  0  0  0  0  0  0  0  0  0
   -2.6104    1.0957    2.6185 H   0  0  0  0  0  0  0  0  0  0  0  0
  1  2  1  0
  2  3  1  0
  3  4  1  0
  4  5  1  0
  5  6  1  0
  6  7  1  0
  6  8  1  0
  8  9  1  0
  9 10  2  0
 10 11  1  0
 11 12  2  0
 10 13  1  0
 13 14  2  0
 14 15  1  0
 15 16  2  0
  7  2  1  0
 16  9  1  0
 11  5  1  0
  1 17  1  0
  1 18  1  0
  1 19  1  0
  3 20  1  0
  3 21  1  0
  4 22  1  0
  4 23  1  0
  6 24  1  1
  7 25  1  0
  7 26  1  0
  8 27  1  0
  8 28  1  0
 13 29  1  0
 14 30  1  0
 15 31  1  0
 16 32  1  0
M  END
>  <Ligand ID>  (1) 
LIG0004640

>  <Ligand>  (1) 
CHEMBL2397884

>  <SMILES>  (1) 
CN1CCN2[C@@H](C1)Cc1c(C2=O)cccc1

>  <CID>  (1) 
71681898.0

>  <ChEMBL ID>  (1) 
nan

>  <InChiKey>  (1) 
QDYRRVYBEFMEOR-LLVKDONJSA-N

>  <InChi>  (1) 
InChI=1S/C13H16N2O/c1-14-6-7-15-11(9-14)8-10-4-2-3-5-12(10)13(15)16/h2-5,11H,6-9H2,1H3/t11-/m1/s1

>  <IUPAC Name>  (1) 
(11aR)-2-methyl-3,4,11,11a-tetrahydro-1H-pyrazino[1,2-b]isoquinolin-6-one

$$$$
