
     RDKit          3D

 24 25  0  0  0  0  0  0  0  0999 V2000
   -3.6693    0.5794   -0.5106 N   0  0  0  0  0  0  0  0  0  0  0  0
   -2.9780   -0.6312   -0.0460 C   0  0  0  0  0  0  0  0  0  0  0  0
   -1.5612   -0.2706    0.3453 C   0  0  1  0  0  0  0  0  0  0  0  0
   -0.8019   -1.4916    0.8343 C   0  0  0  0  0  0  0  0  0  0  0  0
   -0.4067   -0.7040   -0.4282 C   0  0  2  0  0  0  0  0  0  0  0  0
    0.8986   -0.0293   -0.2895 C   0  0  0  0  0  0  0  0  0  0  0  0
    2.0339   -0.7988   -0.5004 C   0  0  0  0  0  0  0  0  0  0  0  0
    3.3113   -0.2847   -0.3913 C   0  0  0  0  0  0  0  0  0  0  0  0
    3.4751    1.0486   -0.0594 C   0  0  0  0  0  0  0  0  0  0  0  0
    2.3573    1.8321    0.1545 C   0  0  0  0  0  0  0  0  0  0  0  0
    1.0824    1.2879    0.0377 C   0  0  0  0  0  0  0  0  0  0  0  0
    0.0481    2.1084    0.2500 F   0  0  0  0  0  0  0  0  0  0  0  0
    2.5144    3.1569    0.4844 F   0  0  0  0  0  0  0  0  0  0  0  0
   -2.9446    1.1618   -1.0005 H   0  0  0  0  0  0  0  0  0  0  0  0
   -3.9257    1.0976    0.3816 H   0  0  0  0  0  0  0  0  0  0  0  0
   -3.0481   -1.3727   -0.8455 H   0  0  0  0  0  0  0  0  0  0  0  0
   -3.5711   -1.0013    0.8161 H   0  0  0  0  0  0  0  0  0  0  0  0
   -1.4950    0.6541    0.9375 H   0  0  0  0  0  0  0  0  0  0  0  0
   -0.2295   -1.3215    1.7610 H   0  0  0  0  0  0  0  0  0  0  0  0
   -1.1962   -2.4967    0.7109 H   0  0  0  0  0  0  0  0  0  0  0  0
   -0.4994   -1.3022   -1.3652 H   0  0  0  0  0  0  0  0  0  0  0  0
    1.9406   -1.8521   -0.7632 H   0  0  0  0  0  0  0  0  0  0  0  0
    4.2062   -0.8813   -0.5550 H   0  0  0  0  0  0  0  0  0  0  0  0
    4.4589    1.5113    0.0414 H   0  0  0  0  0  0  0  0  0  0  0  0
  1  2  1  0
  2  3  1  0
  3  4  1  0
  4  5  1  0
  5  6  1  0
  6  7  2  0
  7  8  1  0
  8  9  2  0
  9 10  1  0
 10 11  2  0
 11 12  1  0
 10 13  1  0
  5  3  1  0
 11  6  1  0
  1 14  1  0
  1 15  1  0
  2 16  1  0
  2 17  1  0
  3 18  1  1
  4 19  1  0
  4 20  1  0
  5 21  1  6
  7 22  1  0
  8 23  1  0
  9 24  1  0
M  END
>  <Ligand ID>  (1) 
LIG0002354

>  <Ligand>  (1) 
CHEMBL492305

>  <SMILES>  (1) 
NC[C@H]1C[C@@H]1c1cccc(c1F)F

>  <CID>  (1) 
44573012.0

>  <ChEMBL ID>  (1) 
nan

>  <InChiKey>  (1) 
DFXWKQBTFXSQPU-SVRRBLITSA-N

>  <InChi>  (1) 
InChI=1S/C10H11F2N/c11-9-3-1-2-7(10(9)12)8-4-6(8)5-13/h1-3,6,8H,4-5,13H2/t6-,8+/m1/s1

>  <IUPAC Name>  (1) 
[(1S,2S)-2-(2,3-difluorophenyl)cyclopropyl]methanamine

$$$$
