
     RDKit          3D

 26 26  0  0  0  0  0  0  0  0999 V2000
    3.4576    0.9070   -0.0119 C   0  0  0  0  0  0  0  0  0  0  0  0
    1.9976    0.5264    0.0457 C   0  0  0  0  0  0  0  0  0  0  0  0
    1.2433    0.9779    1.0497 C   0  0  0  0  0  0  0  0  0  0  0  0
   -0.1981    0.6315    1.1508 C   0  0  0  0  0  0  0  0  0  0  0  0
   -0.8710    0.4065   -0.1627 C   0  0  0  0  0  0  0  0  0  0  0  0
   -0.0351   -0.1441   -1.2536 C   0  0  0  0  0  0  0  0  0  0  0  0
    1.4147   -0.3304   -0.9906 C   0  0  0  0  0  0  0  0  0  0  0  0
   -2.1168   -0.3779    0.0763 C   0  0  0  0  0  0  0  0  0  0  0  0
   -3.3377    0.1364   -0.0349 C   0  0  0  0  0  0  0  0  0  0  0  0
   -1.9855   -1.8256    0.4630 C   0  0  0  0  0  0  0  0  0  0  0  0
    4.0923    0.0699   -0.3478 H   0  0  0  0  0  0  0  0  0  0  0  0
    3.5063    1.6803   -0.8095 H   0  0  0  0  0  0  0  0  0  0  0  0
    3.7923    1.3589    0.9325 H   0  0  0  0  0  0  0  0  0  0  0  0
    1.7335    1.6082    1.7856 H   0  0  0  0  0  0  0  0  0  0  0  0
   -0.6785    1.4523    1.7244 H   0  0  0  0  0  0  0  0  0  0  0  0
   -0.2526   -0.2693    1.8032 H   0  0  0  0  0  0  0  0  0  0  0  0
   -1.2262    1.4021   -0.5056 H   0  0  0  0  0  0  0  0  0  0  0  0
   -0.1493    0.3999   -2.2196 H   0  0  0  0  0  0  0  0  0  0  0  0
   -0.4559   -1.1676   -1.4917 H   0  0  0  0  0  0  0  0  0  0  0  0
    2.0213   -0.1573   -1.9223 H   0  0  0  0  0  0  0  0  0  0  0  0
    1.6520   -1.3999   -0.7205 H   0  0  0  0  0  0  0  0  0  0  0  0
   -4.2356   -0.4407    0.1404 H   0  0  0  0  0  0  0  0  0  0  0  0
   -3.3889    1.2020   -0.3206 H   0  0  0  0  0  0  0  0  0  0  0  0
   -1.0068   -2.2308    0.1932 H   0  0  0  0  0  0  0  0  0  0  0  0
   -2.2215   -1.9974    1.5344 H   0  0  0  0  0  0  0  0  0  0  0  0
   -2.7516   -2.4183   -0.1080 H   0  0  0  0  0  0  0  0  0  0  0  0
  1  2  1  0
  2  3  2  0
  3  4  1  0
  4  5  1  0
  5  6  1  0
  6  7  1  0
  5  8  1  0
  8  9  2  0
  8 10  1  0
  7  2  1  0
  1 11  1  0
  1 12  1  0
  1 13  1  0
  3 14  1  0
  4 15  1  0
  4 16  1  0
  5 17  1  0
  6 18  1  0
  6 19  1  0
  7 20  1  0
  7 21  1  0
  9 22  1  0
  9 23  1  0
 10 24  1  0
 10 25  1  0
 10 26  1  0
M  END
>  <Ligand ID>  (1) 
LIG0000532

>  <Ligand>  (1) 
Limonene, (+/-)-

>  <SMILES>  (1) 
CC1=CCC(CC1)C(=C)C

>  <CID>  (1) 
22311.0

>  <ChEMBL ID>  (1) 
nan

>  <InChiKey>  (1) 
XMGQYMWWDOXHJM-UHFFFAOYSA-N

>  <InChi>  (1) 
InChI=1S/C10H16/c1-8(2)10-6-4-9(3)5-7-10/h4,10H,1,5-7H2,2-3H3

>  <IUPAC Name>  (1) 
1-methyl-4-prop-1-en-2-ylcyclohexene

$$$$
