
     RDKit          3D

 60 62  0  0  0  0  0  0  0  0999 V2000
   -7.4129   -1.5238   -2.0626 C   0  0  0  0  0  0  0  0  0  0  0  0
   -7.6046   -0.5618   -0.8640 C   0  0  0  0  0  0  0  0  0  0  0  0
   -6.5910   -0.5176   -0.0758 O   0  0  0  0  0  0  0  0  0  0  0  0
   -5.5978   -0.4743    0.6977 C   0  0  0  0  0  0  0  0  0  0  0  0
   -4.2982   -0.2385    0.2015 C   0  0  0  0  0  0  0  0  0  0  0  0
   -3.1902   -0.1803    0.9819 C   0  0  0  0  0  0  0  0  0  0  0  0
   -3.3322   -0.3602    2.3364 C   0  0  0  0  0  0  0  0  0  0  0  0
   -4.5604   -0.5933    2.8923 C   0  0  0  0  0  0  0  0  0  0  0  0
   -5.6855   -0.6512    2.0886 C   0  0  0  0  0  0  0  0  0  0  0  0
   -6.9510   -0.9021    2.7539 C   0  0  0  0  0  0  0  0  0  0  0  0
   -8.0585   -0.9842    2.1767 O   0  0  0  0  0  0  0  0  0  0  0  0
   -6.9946   -1.0739    4.1514 O   0  0  0  0  0  0  0  0  0  0  0  0
   -1.8516    0.0651    0.4460 C   0  0  0  0  0  0  0  0  0  0  0  0
   -0.7805   -0.5237    1.1214 C   0  0  0  0  0  0  0  0  0  0  0  0
    0.4916   -0.3006    0.6309 C   0  0  0  0  0  0  0  0  0  0  0  0
    0.7481    0.4697   -0.4845 C   0  0  0  0  0  0  0  0  0  0  0  0
   -0.3198    1.0455   -1.1425 C   0  0  0  0  0  0  0  0  0  0  0  0
   -1.6220    0.8402   -0.6726 C   0  0  0  0  0  0  0  0  0  0  0  0
    2.1565    0.6287   -0.8997 C   0  0  0  0  0  0  0  0  0  0  0  0
    2.8134    1.8267   -0.2521 C   0  0  0  0  0  0  0  0  0  0  0  0
    4.1758    1.9502   -0.6740 N   0  0  0  0  0  0  0  0  0  0  0  0
    5.0384    0.8950   -0.1853 C   0  0  0  0  0  0  0  0  0  0  0  0
    6.4413    1.1773   -0.7126 C   0  0  1  0  0  0  0  0  0  0  0  0
    7.3924    0.1418   -0.2714 C   0  0  0  0  0  0  0  0  0  0  0  0
    8.2946    0.4815    0.7251 C   0  0  0  0  0  0  0  0  0  0  0  0
    9.2178   -0.4530    1.1871 C   0  0  0  0  0  0  0  0  0  0  0  0
    9.1824   -1.7023    0.6103 C   0  0  0  0  0  0  0  0  0  0  0  0
    8.2852   -2.0297   -0.3762 C   0  0  0  0  0  0  0  0  0  0  0  0
    7.3643   -1.1147   -0.8447 C   0  0  0  0  0  0  0  0  0  0  0  0
    8.2438   -3.6344   -1.1126 Cl  0  0  0  0  0  0  0  0  0  0  0  0
    6.3838    1.1789   -2.1032 O   0  0  0  0  0  0  0  0  0  0  0  0
   -7.8232    0.8181   -1.5506 C   0  0  0  0  0  0  0  0  0  0  0  0
   -6.9867   -2.4747   -1.7006 H   0  0  0  0  0  0  0  0  0  0  0  0
   -6.7325   -1.0252   -2.7751 H   0  0  0  0  0  0  0  0  0  0  0  0
   -8.4019   -1.6904   -2.5072 H   0  0  0  0  0  0  0  0  0  0  0  0
   -8.6231   -0.8221   -0.4339 H   0  0  0  0  0  0  0  0  0  0  0  0
   -4.1761   -0.0947   -0.8749 H   0  0  0  0  0  0  0  0  0  0  0  0
   -2.4822   -0.3219    2.9982 H   0  0  0  0  0  0  0  0  0  0  0  0
   -4.6292   -0.7315    3.9797 H   0  0  0  0  0  0  0  0  0  0  0  0
   -7.8282   -1.2197    4.6693 H   0  0  0  0  0  0  0  0  0  0  0  0
   -0.9106   -1.1369    1.9970 H   0  0  0  0  0  0  0  0  0  0  0  0
    1.3149   -0.7627    1.1636 H   0  0  0  0  0  0  0  0  0  0  0  0
   -0.1181    1.6497   -2.0170 H   0  0  0  0  0  0  0  0  0  0  0  0
   -2.4426    1.2928   -1.1921 H   0  0  0  0  0  0  0  0  0  0  0  0
    2.1540    0.6999   -1.9977 H   0  0  0  0  0  0  0  0  0  0  0  0
    2.7244   -0.2705   -0.5815 H   0  0  0  0  0  0  0  0  0  0  0  0
    2.2966    2.7743   -0.5103 H   0  0  0  0  0  0  0  0  0  0  0  0
    2.7662    1.7439    0.8543 H   0  0  0  0  0  0  0  0  0  0  0  0
    4.5496    2.8901   -0.5189 H   0  0  0  0  0  0  0  0  0  0  0  0
    4.7515   -0.0880   -0.6041 H   0  0  0  0  0  0  0  0  0  0  0  0
    5.0758    0.8255    0.9115 H   0  0  0  0  0  0  0  0  0  0  0  0
    6.7662    2.1997   -0.3921 H   0  0  0  0  0  0  0  0  0  0  0  0
    8.3089    1.4753    1.1704 H   0  0  0  0  0  0  0  0  0  0  0  0
    9.8963   -0.1529    1.9562 H   0  0  0  0  0  0  0  0  0  0  0  0
    9.8902   -2.4390    0.9562 H   0  0  0  0  0  0  0  0  0  0  0  0
    6.6423   -1.3469   -1.6253 H   0  0  0  0  0  0  0  0  0  0  0  0
    6.2731    2.1199   -2.4493 H   0  0  0  0  0  0  0  0  0  0  0  0
   -8.7987    0.7282   -2.0567 H   0  0  0  0  0  0  0  0  0  0  0  0
   -7.7899    1.6037   -0.7948 H   0  0  0  0  0  0  0  0  0  0  0  0
   -7.0459    0.8754   -2.3272 H   0  0  0  0  0  0  0  0  0  0  0  0
  1  2  1  0
  2  3  1  0
  3  4  1  0
  4  5  2  0
  5  6  1  0
  6  7  2  0
  7  8  1  0
  8  9  2  0
  9 10  1  0
 10 11  2  0
 10 12  1  0
  6 13  1  0
 13 14  2  0
 14 15  1  0
 15 16  2  0
 16 17  1  0
 17 18  2  0
 16 19  1  0
 19 20  1  0
 20 21  1  0
 21 22  1  0
 22 23  1  0
 23 24  1  0
 24 25  2  0
 25 26  1  0
 26 27  2  0
 27 28  1  0
 28 29  2  0
 28 30  1  0
 23 31  1  0
  2 32  1  0
  9  4  1  0
 18 13  1  0
 29 24  1  0
  1 33  1  0
  1 34  1  0
  1 35  1  0
  2 36  1  0
  5 37  1  0
  7 38  1  0
  8 39  1  0
 12 40  1  0
 14 41  1  0
 15 42  1  0
 17 43  1  0
 18 44  1  0
 19 45  1  0
 19 46  1  0
 20 47  1  0
 20 48  1  0
 21 49  1  0
 22 50  1  0
 22 51  1  0
 23 52  1  1
 25 53  1  0
 26 54  1  0
 27 55  1  0
 29 56  1  0
 31 57  1  0
 32 58  1  0
 32 59  1  0
 32 60  1  0
M  END
>  <Ligand ID>  (1) 
LIG0001539

>  <Ligand>  (1) 
CHEMBL272584

>  <SMILES>  (1) 
CC(Oc1cc(ccc1C(=O)O)c1ccc(cc1)CCNC[C@@H](c1cccc(c1)Cl)O)C

>  <CID>  (1) 
24823127.0

>  <ChEMBL ID>  (1) 
nan

>  <InChiKey>  (1) 
FILCWTJCNLYKQZ-DEOSSOPVSA-N

>  <InChi>  (1) 
InChI=1S/C26H28ClNO4/c1-17(2)32-25-15-20(10-11-23(25)26(30)31)19-8-6-18(7-9-19)12-13-28-16-24(29)21-4-3-5-22(27)14-21/h3-11,14-15,17,24,28-29H,12-13,16H2,1-2H3,(H,30,31)/t24-/m0/s1

>  <IUPAC Name>  (1) 
4-[4-[2-[[(2R)-2-(3-chlorophenyl)-2-hydroxyethyl]amino]ethyl]phenyl]-2-propan-2-yloxybenzoic acid

$$$$
