
     RDKit          3D

 43 46  0  0  0  0  0  0  0  0999 V2000
    7.6905   -2.1734   -0.5602 O   0  0  0  0  0  0  0  0  0  0  0  0
    6.4119   -2.6330   -0.3188 N   0  0  0  0  0  0  0  0  0  0  0  0
    6.0586   -3.8072   -0.5503 O   0  0  0  0  0  0  0  0  0  0  0  0
    5.4148   -1.7523    0.2226 C   0  0  0  0  0  0  0  0  0  0  0  0
    5.7537   -0.4373    0.4988 C   0  0  0  0  0  0  0  0  0  0  0  0
    4.8013    0.4144    1.0193 C   0  0  0  0  0  0  0  0  0  0  0  0
    3.4997   -0.0060    1.2787 C   0  0  0  0  0  0  0  0  0  0  0  0
    3.1631   -1.3076    1.0055 C   0  0  0  0  0  0  0  0  0  0  0  0
    4.1289   -2.1576    0.4817 C   0  0  0  0  0  0  0  0  0  0  0  0
    2.4957    0.9112    1.8334 C   0  0  0  0  0  0  0  0  0  0  0  0
    1.5517    1.8040    0.5935 S   0  0  0  0  0  0  0  0  0  0  0  0
    0.5057    0.7864   -0.3947 C   0  0  0  0  0  0  0  0  0  0  0  0
    0.8835    0.1943   -1.5573 N   0  0  0  0  0  0  0  0  0  0  0  0
   -0.1212   -0.4933   -2.0485 N   0  0  0  0  0  0  0  0  0  0  0  0
   -1.1674   -0.3592   -1.2135 C   0  0  0  0  0  0  0  0  0  0  0  0
   -0.7687    0.4330   -0.1962 N   0  0  0  0  0  0  0  0  0  0  0  0
   -1.6014    0.8157    0.9076 C   0  0  0  0  0  0  0  0  0  0  0  0
   -2.3575    2.0460    0.6974 C   0  0  0  0  0  0  0  0  0  0  0  0
   -3.5970    2.2992    0.1697 C   0  0  0  0  0  0  0  0  0  0  0  0
   -4.0427    3.5496    0.1033 C   0  0  0  0  0  0  0  0  0  0  0  0
   -3.2930    4.5850    0.5491 C   0  0  0  0  0  0  0  0  0  0  0  0
   -1.7297    3.6954    1.1539 S   0  0  0  0  0  0  0  0  0  0  0  0
   -2.4622   -0.9889   -1.4408 C   0  0  0  0  0  0  0  0  0  0  0  0
   -3.2813   -0.6660   -2.5073 C   0  0  0  0  0  0  0  0  0  0  0  0
   -4.5142   -1.2915   -2.6906 C   0  0  0  0  0  0  0  0  0  0  0  0
   -4.9415   -2.2657   -1.7854 C   0  0  0  0  0  0  0  0  0  0  0  0
   -4.0946   -2.5487   -0.7477 C   0  0  0  0  0  0  0  0  0  0  0  0
   -2.9023   -1.9435   -0.5706 N   0  0  0  0  0  0  0  0  0  0  0  0
    6.7626   -0.0771    0.3073 H   0  0  0  0  0  0  0  0  0  0  0  0
    5.0717    1.4555    1.2379 H   0  0  0  0  0  0  0  0  0  0  0  0
    2.1676   -1.6657    1.1933 H   0  0  0  0  0  0  0  0  0  0  0  0
    3.8631   -3.1912    0.2643 H   0  0  0  0  0  0  0  0  0  0  0  0
    3.0361    1.6905    2.4373 H   0  0  0  0  0  0  0  0  0  0  0  0
    1.8172    0.3854    2.5146 H   0  0  0  0  0  0  0  0  0  0  0  0
   -2.2713   -0.0347    1.1691 H   0  0  0  0  0  0  0  0  0  0  0  0
   -0.9147    0.8986    1.7976 H   0  0  0  0  0  0  0  0  0  0  0  0
   -4.2016    1.4264   -0.1941 H   0  0  0  0  0  0  0  0  0  0  0  0
   -5.0627    3.7811   -0.3284 H   0  0  0  0  0  0  0  0  0  0  0  0
   -3.3669    5.6133    0.6254 H   0  0  0  0  0  0  0  0  0  0  0  0
   -2.9459    0.0971   -3.2157 H   0  0  0  0  0  0  0  0  0  0  0  0
   -5.1497   -1.0379   -3.5220 H   0  0  0  0  0  0  0  0  0  0  0  0
   -5.8958   -2.7458   -1.9329 H   0  0  0  0  0  0  0  0  0  0  0  0
   -4.3942   -3.2986   -0.0276 H   0  0  0  0  0  0  0  0  0  0  0  0
  1  2  1  0
  2  3  2  0
  2  4  1  0
  4  5  2  0
  5  6  1  0
  6  7  2  0
  7  8  1  0
  8  9  2  0
  7 10  1  0
 10 11  1  0
 11 12  1  0
 12 13  2  0
 13 14  1  0
 14 15  2  0
 15 16  1  0
 16 17  1  0
 17 18  1  0
 18 19  2  0
 19 20  1  0
 20 21  2  0
 21 22  1  0
 15 23  1  0
 23 24  2  0
 24 25  1  0
 25 26  2  0
 26 27  1  0
 27 28  2  0
  9  4  1  0
 16 12  1  0
 22 18  1  0
 28 23  1  0
  5 29  1  0
  6 30  1  0
  8 31  1  0
  9 32  1  0
 10 33  1  0
 10 34  1  0
 17 35  1  0
 17 36  1  0
 19 37  1  0
 20 38  1  0
 21 39  1  0
 24 40  1  0
 25 41  1  0
 26 42  1  0
 27 43  1  0
M  CHG  2   1  -1   2   1
M  END
>  <Ligand ID>  (1) 
LIG0002778

>  <Ligand>  (1) 
KUC104192N

>  <SMILES>  (1) 
[O-][N+](=O)c1ccc(cc1)CSc1nnc(n1Cc1cccs1)c1ccccn1

>  <CID>  (1) 
44620924.0

>  <ChEMBL ID>  (1) 
nan

>  <InChiKey>  (1) 
PAAOHDUQBULJGM-UHFFFAOYSA-N

>  <InChi>  (1) 
InChI=1S/C19H15N5O2S2/c25-24(26)15-8-6-14(7-9-15)13-28-19-22-21-18(17-5-1-2-10-20-17)23(19)12-16-4-3-11-27-16/h1-11H,12-13H2

>  <IUPAC Name>  (1) 
2-[5-[(4-nitrophenyl)methylsulfanyl]-4-(thiophen-2-ylmethyl)-1,2,4-triazol-3-yl]pyridine

$$$$
