
     RDKit          3D

 29 29  0  0  0  0  0  0  0  0999 V2000
    4.1626    1.0586   -0.7335 N   0  0  0  0  0  0  0  0  0  0  0  0
    3.0463    1.1483    0.1567 C   0  0  0  0  0  0  0  0  0  0  0  0
    1.7777    0.5573   -0.3715 C   0  0  1  0  0  0  0  0  0  0  0  0
    1.6427   -0.8510   -0.7526 C   0  0  0  0  0  0  0  0  0  0  0  0
    1.0562   -0.3505    0.5593 C   0  0  2  0  0  0  0  0  0  0  0  0
   -0.4038   -0.4074    0.6452 C   0  0  0  0  0  0  0  0  0  0  0  0
   -0.9661   -0.8892    1.8275 C   0  0  0  0  0  0  0  0  0  0  0  0
   -2.3578   -0.9582    1.9462 C   0  0  0  0  0  0  0  0  0  0  0  0
   -3.1464   -0.5400    0.8706 C   0  0  0  0  0  0  0  0  0  0  0  0
   -2.5654   -0.0628   -0.2994 C   0  0  0  0  0  0  0  0  0  0  0  0
   -1.1914   -0.0030   -0.3960 C   0  0  0  0  0  0  0  0  0  0  0  0
   -3.4432    0.3761   -1.4301 C   0  0  0  0  0  0  0  0  0  0  0  0
    0.6926    0.0000    0.0000 Cl  0  0  0  0  0  0  0  0  0  0  0  0
    5.0789    1.0302   -0.2797 H   0  0  0  0  0  0  0  0  0  0  0  0
    4.0385    0.4833   -1.5703 H   0  0  0  0  0  0  0  0  0  0  0  0
    3.3330    0.6905    1.1464 H   0  0  0  0  0  0  0  0  0  0  0  0
    2.8631    2.2432    0.3529 H   0  0  0  0  0  0  0  0  0  0  0  0
    1.1165    1.2608   -0.9568 H   0  0  0  0  0  0  0  0  0  0  0  0
    2.5271   -1.5443   -0.6713 H   0  0  0  0  0  0  0  0  0  0  0  0
    0.9506   -1.1720   -1.5372 H   0  0  0  0  0  0  0  0  0  0  0  0
    1.5774   -0.7098    1.4779 H   0  0  0  0  0  0  0  0  0  0  0  0
   -0.3578   -1.2148    2.6648 H   0  0  0  0  0  0  0  0  0  0  0  0
   -2.8083   -1.3339    2.8678 H   0  0  0  0  0  0  0  0  0  0  0  0
   -4.2245   -0.5783    0.9248 H   0  0  0  0  0  0  0  0  0  0  0  0
   -0.7870    0.3793   -1.3357 H   0  0  0  0  0  0  0  0  0  0  0  0
   -3.9028    1.3497   -1.1670 H   0  0  0  0  0  0  0  0  0  0  0  0
   -4.2048   -0.4179   -1.6147 H   0  0  0  0  0  0  0  0  0  0  0  0
   -2.8115    0.4559   -2.3244 H   0  0  0  0  0  0  0  0  0  0  0  0
   -0.6926    0.0000    0.0000 H   0  0  0  0  0  0  0  0  0  0  0  0
  1  2  1  0
  2  3  1  0
  3  4  1  0
  4  5  1  0
  5  6  1  0
  6  7  2  0
  7  8  1  0
  8  9  2  0
  9 10  1  0
 10 11  2  0
 10 12  1  0
  5  3  1  0
 11  6  1  0
  1 14  1  0
  1 15  1  0
  2 16  1  0
  2 17  1  0
  3 18  1  6
  4 19  1  0
  4 20  1  0
  5 21  1  1
  7 22  1  0
  8 23  1  0
  9 24  1  0
 11 25  1  0
 12 26  1  0
 12 27  1  0
 12 28  1  0
 13 29  1  0
M  END
>  <Ligand ID>  (1) 
LIG0003846

>  <Ligand>  (1) 
CHEMBL445747

>  <SMILES>  (1) 
NC[C@H]1C[C@@H]1c1cccc(c1)C.Cl

>  <CID>  (1) 
44572801.0

>  <ChEMBL ID>  (1) 
nan

>  <InChiKey>  (1) 
KNMQSIXWQIRNCP-NDXYWBNTSA-N

>  <InChi>  (1) 
InChI=1S/C11H15N.ClH/c1-8-3-2-4-9(5-8)11-6-10(11)7-12;/h2-5,10-11H,6-7,12H2,1H3;1H/t10-,11-;/m1./s1

>  <IUPAC Name>  (1) 
[(1S,2S)-2-(3-methylphenyl)cyclopropyl]methanamine;hydrochloride

$$$$
