
     RDKit          3D

 62 65  0  0  0  0  0  0  0  0999 V2000
    2.2633    4.3355   -1.0314 C   0  0  0  0  0  0  0  0  0  0  0  0
    0.8994    4.5407   -0.4598 C   0  0  0  0  0  0  0  0  0  0  0  0
    0.0708    3.2579   -0.4116 C   0  0  0  0  0  0  0  0  0  0  0  0
    0.7482    2.2088    0.4392 C   0  0  0  0  0  0  0  0  0  0  0  0
   -0.0279    0.9438    0.5120 C   0  0  0  0  0  0  0  0  0  0  0  0
    0.5673   -0.1414    1.3340 C   0  0  0  0  0  0  0  0  0  0  0  0
    1.8962   -0.5929    0.8843 C   0  0  0  0  0  0  0  0  0  0  0  0
    2.0707   -1.6201   -0.0314 C   0  0  0  0  0  0  0  0  0  0  0  0
    3.3554   -1.9742   -0.3941 C   0  0  0  0  0  0  0  0  0  0  0  0
    4.4698   -1.3434    0.1212 C   0  0  0  0  0  0  0  0  0  0  0  0
    4.2775   -0.3227    1.0319 C   0  0  0  0  0  0  0  0  0  0  0  0
    3.0044    0.0589    1.4185 C   0  0  0  0  0  0  0  0  0  0  0  0
    5.3810    0.3750    1.6066 N   0  0  0  0  0  0  0  0  0  0  0  0
    5.3369    0.9161    2.7236 O   0  0  0  0  0  0  0  0  0  0  0  0
    6.5894    0.4848    0.9251 O   0  0  0  0  0  0  0  0  0  0  0  0
    5.7665   -1.6708   -0.2184 O   0  0  0  0  0  0  0  0  0  0  0  0
    6.1584   -2.6685   -1.1164 C   0  0  0  0  0  0  0  0  0  0  0  0
   -1.3658    1.2800    1.1017 C   0  0  0  0  0  0  0  0  0  0  0  0
   -1.6795    2.2240    1.8607 O   0  0  0  0  0  0  0  0  0  0  0  0
   -2.2338    0.2578    0.5943 N   0  0  0  0  0  0  0  0  0  0  0  0
   -1.7304   -0.2827   -0.5806 N   0  0  0  0  0  0  0  0  0  0  0  0
   -0.4996    0.4350   -0.8133 C   0  0  0  0  0  0  0  0  0  0  0  0
    0.1187    0.6418   -1.8654 O   0  0  0  0  0  0  0  0  0  0  0  0
   -2.2291   -1.3109   -1.4202 C   0  0  0  0  0  0  0  0  0  0  0  0
   -1.4974   -1.7016   -2.5252 C   0  0  0  0  0  0  0  0  0  0  0  0
   -1.9586   -2.7112   -3.3814 C   0  0  0  0  0  0  0  0  0  0  0  0
   -3.1564   -3.3548   -3.1587 C   0  0  0  0  0  0  0  0  0  0  0  0
   -3.8831   -2.9734   -2.0690 C   0  0  0  0  0  0  0  0  0  0  0  0
   -3.4209   -1.9698   -1.2212 C   0  0  0  0  0  0  0  0  0  0  0  0
   -3.4391   -0.0733    1.3016 C   0  0  0  0  0  0  0  0  0  0  0  0
   -4.5930    0.6364    0.9954 C   0  0  0  0  0  0  0  0  0  0  0  0
   -5.7567    0.3463    1.6775 C   0  0  0  0  0  0  0  0  0  0  0  0
   -5.7544   -0.6441    2.6524 C   0  0  0  0  0  0  0  0  0  0  0  0
   -4.6125   -1.3585    2.9674 C   0  0  0  0  0  0  0  0  0  0  0  0
   -3.4401   -1.0699    2.2839 C   0  0  0  0  0  0  0  0  0  0  0  0
    2.4330    5.1419   -1.8020 H   0  0  0  0  0  0  0  0  0  0  0  0
    3.0047    4.5860   -0.2218 H   0  0  0  0  0  0  0  0  0  0  0  0
    2.4379    3.3481   -1.4748 H   0  0  0  0  0  0  0  0  0  0  0  0
    0.9237    4.9093    0.5815 H   0  0  0  0  0  0  0  0  0  0  0  0
    0.2973    5.2390   -1.0802 H   0  0  0  0  0  0  0  0  0  0  0  0
   -0.1264    2.9053   -1.4197 H   0  0  0  0  0  0  0  0  0  0  0  0
   -0.8665    3.5692    0.1318 H   0  0  0  0  0  0  0  0  0  0  0  0
    1.8077    2.0582    0.1042 H   0  0  0  0  0  0  0  0  0  0  0  0
    0.8508    2.6653    1.4487 H   0  0  0  0  0  0  0  0  0  0  0  0
    0.5436    0.0898    2.4195 H   0  0  0  0  0  0  0  0  0  0  0  0
   -0.1147   -1.0275    1.2337 H   0  0  0  0  0  0  0  0  0  0  0  0
    1.1853   -2.0940   -0.4166 H   0  0  0  0  0  0  0  0  0  0  0  0
    3.5113   -2.7667   -1.1012 H   0  0  0  0  0  0  0  0  0  0  0  0
    2.8851    0.8609    2.1330 H   0  0  0  0  0  0  0  0  0  0  0  0
    6.4349   -3.6278   -0.6393 H   0  0  0  0  0  0  0  0  0  0  0  0
    5.4554   -2.8575   -1.9404 H   0  0  0  0  0  0  0  0  0  0  0  0
    7.0977   -2.3018   -1.6238 H   0  0  0  0  0  0  0  0  0  0  0  0
   -0.5458   -1.2817   -2.8074 H   0  0  0  0  0  0  0  0  0  0  0  0
   -1.3803   -3.0046   -4.2361 H   0  0  0  0  0  0  0  0  0  0  0  0
   -3.5506   -4.1372   -3.7905 H   0  0  0  0  0  0  0  0  0  0  0  0
   -4.8344   -3.4683   -1.8721 H   0  0  0  0  0  0  0  0  0  0  0  0
   -4.0420   -1.7330   -0.3985 H   0  0  0  0  0  0  0  0  0  0  0  0
   -4.6016    1.4111    0.2352 H   0  0  0  0  0  0  0  0  0  0  0  0
   -6.6835    0.8956    1.4517 H   0  0  0  0  0  0  0  0  0  0  0  0
   -6.6959   -0.8438    3.1696 H   0  0  0  0  0  0  0  0  0  0  0  0
   -4.6115   -2.1239    3.7210 H   0  0  0  0  0  0  0  0  0  0  0  0
   -2.5109   -1.5709    2.4612 H   0  0  0  0  0  0  0  0  0  0  0  0
  1  2  1  0
  2  3  1  0
  3  4  1  0
  4  5  1  0
  5  6  1  0
  6  7  1  0
  7  8  2  0
  8  9  1  0
  9 10  2  0
 10 11  1  0
 11 12  2  0
 11 13  1  0
 13 14  2  0
 13 15  1  0
 10 16  1  0
 16 17  1  0
  5 18  1  0
 18 19  2  0
 18 20  1  0
 20 21  1  0
 21 22  1  0
 22 23  2  0
 21 24  1  0
 24 25  2  0
 25 26  1  0
 26 27  2  0
 27 28  1  0
 28 29  2  0
 20 30  1  0
 30 31  2  0
 31 32  1  0
 32 33  2  0
 33 34  1  0
 34 35  2  0
 22  5  1  0
 29 24  1  0
 35 30  1  0
 12  7  1  0
  1 36  1  0
  1 37  1  0
  1 38  1  0
  2 39  1  0
  2 40  1  0
  3 41  1  0
  3 42  1  0
  4 43  1  0
  4 44  1  0
  6 45  1  0
  6 46  1  0
  8 47  1  0
  9 48  1  0
 12 49  1  0
 17 50  1  0
 17 51  1  0
 17 52  1  0
 25 53  1  0
 26 54  1  0
 27 55  1  0
 28 56  1  0
 29 57  1  0
 31 58  1  0
 32 59  1  0
 33 60  1  0
 34 61  1  0
 35 62  1  0
M  CHG  2  13   1  15  -1
M  END
>  <Ligand ID>  (1) 
LIG0004197

>  <Ligand>  (1) 
MLS000575649

>  <SMILES>  (1) 
CCCCC1(Cc2ccc(c(c2)[N+](=O)[O-])OC)C(=O)N(N(C1=O)c1ccccc1)c1ccccc1

>  <CID>  (1) 
2918948.0

>  <ChEMBL ID>  (1) 
nan

>  <InChiKey>  (1) 
UVOSTMRTZMGJDE-UHFFFAOYSA-N

>  <InChi>  (1) 
InChI=1S/C27H27N3O5/c1-3-4-17-27(19-20-15-16-24(35-2)23(18-20)30(33)34)25(31)28(21-11-7-5-8-12-21)29(26(27)32)22-13-9-6-10-14-22/h5-16,18H,3-4,17,19H2,1-2H3

>  <IUPAC Name>  (1) 
4-butyl-4-[(4-methoxy-3-nitrophenyl)methyl]-1,2-diphenylpyrazolidine-3,5-dione

$$$$
