
     RDKit          3D

209217  0  0  0  0  0  0  0  0999 V2000
  -12.4626   -0.0452    0.4105 N   0  0  0  0  0  0  0  0  0  0  0  0
  -11.5019    0.9888    0.6336 C   0  0  0  0  0  0  0  0  0  0  0  0
  -11.7732    1.9606    1.4254 N   0  0  0  0  0  0  0  0  0  0  0  0
  -10.2386    0.9360   -0.0228 N   0  0  0  0  0  0  0  0  0  0  0  0
   -9.3029    2.0332    0.0971 C   0  0  0  0  0  0  0  0  0  0  0  0
   -8.0075    1.7295   -0.6316 C   0  0  0  0  0  0  0  0  0  0  0  0
   -7.3635    0.4549   -0.0564 C   0  0  0  0  0  0  0  0  0  0  0  0
   -7.0617    0.5683    1.3620 C   0  0  2  0  0  0  0  0  0  0  0  0
   -6.0959    1.5573    1.7701 N   0  0  0  0  0  0  0  0  0  0  0  0
   -4.9739    2.0041    0.9932 C   0  0  0  0  0  0  0  0  0  0  0  0
   -4.7482    1.6541   -0.1579 O   0  0  0  0  0  0  0  0  0  0  0  0
   -4.0855    2.9756    1.7694 C   0  0  1  0  0  0  0  0  0  0  0  0
   -3.6651    2.3146    3.0504 C   0  0  0  0  0  0  0  0  0  0  0  0
   -2.5248    0.9677    2.9709 S   0  0  0  0  0  0  0  0  0  0  0  0
   -2.9933   -0.3613    1.7752 C   0  0  0  0  0  0  0  0  0  0  0  0
   -4.3625   -0.6548    2.0652 C   0  0  0  0  0  0  0  0  0  0  0  0
   -4.7382   -0.1159    3.2035 O   0  0  0  0  0  0  0  0  0  0  0  0
   -5.4693   -1.3351    1.5777 N   0  0  0  0  0  0  0  0  0  0  0  0
   -6.7637   -0.6897    2.0831 C   0  0  0  0  0  0  0  0  0  0  0  0
   -5.6414   -2.4360    0.7462 C   0  0  1  0  0  0  0  0  0  0  0  0
   -4.9094   -2.6523   -0.5167 C   0  0  0  0  0  0  0  0  0  0  0  0
   -5.0307   -1.7725   -1.6653 C   0  0  0  0  0  0  0  0  0  0  0  0
   -4.2250   -0.7943   -2.1965 C   0  0  0  0  0  0  0  0  0  0  0  0
   -4.7974   -0.2800   -3.2936 N   0  0  0  0  0  0  0  0  0  0  0  0
   -5.9866   -0.8859   -3.5286 C   0  0  0  0  0  0  0  0  0  0  0  0
   -6.1463   -1.8142   -2.5284 C   0  0  0  0  0  0  0  0  0  0  0  0
   -7.3017   -2.6039   -2.5048 C   0  0  0  0  0  0  0  0  0  0  0  0
   -8.2864   -2.4663   -3.4733 C   0  0  0  0  0  0  0  0  0  0  0  0
   -8.1083   -1.5379   -4.4593 C   0  0  0  0  0  0  0  0  0  0  0  0
   -6.9676   -0.7314   -4.5144 C   0  0  0  0  0  0  0  0  0  0  0  0
   -5.3802   -3.7256    1.5820 C   0  0  0  0  0  0  0  0  0  0  0  0
   -5.0484   -3.6085    2.7832 O   0  0  0  0  0  0  0  0  0  0  0  0
   -5.5043   -5.0018    1.0410 N   0  0  0  0  0  0  0  0  0  0  0  0
   -5.2331   -6.2146    1.8628 C   0  0  1  0  0  0  0  0  0  0  0  0
   -6.3352   -7.1999    1.6858 C   0  0  0  0  0  0  0  0  0  0  0  0
   -6.2173   -8.4455    2.4664 C   0  0  0  0  0  0  0  0  0  0  0  0
   -5.3140   -8.7389    3.2729 O   0  0  0  0  0  0  0  0  0  0  0  0
   -7.2561   -9.4235    2.2740 N   0  0  0  0  0  0  0  0  0  0  0  0
   -3.8793   -6.7177    1.4982 C   0  0  0  0  0  0  0  0  0  0  0  0
   -3.3881   -7.7964    1.8967 O   0  0  0  0  0  0  0  0  0  0  0  0
   -3.0830   -5.9222    0.6465 N   0  0  0  0  0  0  0  0  0  0  0  0
   -1.7522   -6.2544    0.1907 C   0  0  1  0  0  0  0  0  0  0  0  0
   -1.5380   -6.0087   -1.2600 C   0  0  0  0  0  0  0  0  0  0  0  0
   -0.7752   -5.4987    1.0684 C   0  0  0  0  0  0  0  0  0  0  0  0
   -1.2335   -4.7791    2.0270 O   0  0  0  0  0  0  0  0  0  0  0  0
    0.6054   -5.5588    0.8674 N   0  0  0  0  0  0  0  0  0  0  0  0
    1.5923   -4.8745    1.7200 C   0  0  1  0  0  0  0  0  0  0  0  0
    2.3557   -5.8478    2.5283 C   0  0  0  0  0  0  0  0  0  0  0  0
    3.1208   -6.8736    1.8163 C   0  0  0  0  0  0  0  0  0  0  0  0
    2.4067   -7.9789    1.3396 C   0  0  0  0  0  0  0  0  0  0  0  0
    3.0267   -9.0247    0.6840 C   0  0  0  0  0  0  0  0  0  0  0  0
    4.3853   -9.0191    0.4727 C   0  0  0  0  0  0  0  0  0  0  0  0
    5.1007   -7.9251    0.9436 C   0  0  0  0  0  0  0  0  0  0  0  0
    4.4689   -6.8892    1.5964 C   0  0  0  0  0  0  0  0  0  0  0  0
    2.2535   -3.7545    1.0819 C   0  0  0  0  0  0  0  0  0  0  0  0
    1.8320   -3.4166   -0.0899 O   0  0  0  0  0  0  0  0  0  0  0  0
    3.3140   -2.9767    1.5807 N   0  0  0  0  0  0  0  0  0  0  0  0
    3.8485   -1.7861    0.8967 C   0  0  1  0  0  0  0  0  0  0  0  0
    4.1382   -0.7931    1.9560 C   0  0  0  0  0  0  0  0  0  0  0  0
    4.4446    0.8863    1.5307 S   0  0  0  0  0  0  0  0  0  0  0  0
    6.0224    1.3617    0.2725 S   0  0  0  0  0  0  0  0  0  0  0  0
    5.5438    1.4992   -1.4440 C   0  0  0  0  0  0  0  0  0  0  0  0
    4.6718    2.6998   -1.7509 C   0  0  1  0  0  0  0  0  0  0  0  0
    3.4429    2.7734   -0.9461 C   0  0  0  0  0  0  0  0  0  0  0  0
    2.8296    1.6890   -0.6936 O   0  0  0  0  0  0  0  0  0  0  0  0
    2.8740    3.9549   -0.4261 N   0  0  0  0  0  0  0  0  0  0  0  0
    1.6959    3.9435    0.3832 C   0  0  2  0  0  0  0  0  0  0  0  0
    0.5551    4.5305   -0.4117 C   0  0  0  0  0  0  0  0  0  0  0  0
    0.6738    4.8324   -1.6251 O   0  0  0  0  0  0  0  0  0  0  0  0
   -0.6809    4.7580    0.2090 N   0  0  0  0  0  0  0  0  0  0  0  0
   -1.8821    5.2849   -0.4302 C   0  0  1  0  0  0  0  0  0  0  0  0
   -3.0721    4.6574    0.1647 C   0  0  0  0  0  0  0  0  0  0  0  0
   -4.2612    5.0689   -0.0386 O   0  0  0  0  0  0  0  0  0  0  0  0
   -3.0045    3.5042    1.0303 N   0  0  0  0  0  0  0  0  0  0  0  0
   -1.8727    6.7710   -0.0984 C   0  0  0  0  0  0  0  0  0  0  0  0
   -2.9959    7.5299   -0.6390 C   0  0  0  0  0  0  0  0  0  0  0  0
   -4.1660    7.8193    0.0421 C   0  0  0  0  0  0  0  0  0  0  0  0
   -5.1840    8.5423   -0.5851 C   0  0  0  0  0  0  0  0  0  0  0  0
   -5.0235    8.9764   -1.8999 C   0  0  0  0  0  0  0  0  0  0  0  0
   -3.8655    8.6973   -2.5881 C   0  0  0  0  0  0  0  0  0  0  0  0
   -2.8745    7.9852   -1.9610 C   0  0  0  0  0  0  0  0  0  0  0  0
    1.8952    4.7835    1.6060 C   0  0  0  0  0  0  0  0  0  0  0  0
    2.1887    6.1830    1.2476 C   0  0  0  0  0  0  0  0  0  0  0  0
    3.3891    6.8219    1.0185 C   0  0  0  0  0  0  0  0  0  0  0  0
    3.1747    8.1127    0.7272 N   0  0  0  0  0  0  0  0  0  0  0  0
    1.8366    8.2901    0.7735 C   0  0  0  0  0  0  0  0  0  0  0  0
    1.2551    7.1304    1.0849 N   0  0  0  0  0  0  0  0  0  0  0  0
    5.3997    3.9411   -1.8703 N   0  0  0  0  0  0  0  0  0  0  0  0
    5.9537    4.6391   -0.7572 C   0  0  0  0  0  0  0  0  0  0  0  0
    5.8200    4.1748    0.4070 O   0  0  0  0  0  0  0  0  0  0  0  0
    6.6999    5.9145   -0.8844 C   0  0  2  0  0  0  0  0  0  0  0  0
    7.9180    5.7912   -1.7782 C   0  0  0  0  0  0  0  0  0  0  0  0
    8.5417    7.1659   -1.7842 C   0  0  0  0  0  0  0  0  0  0  0  0
    8.1436    8.0850   -2.7355 C   0  0  0  0  0  0  0  0  0  0  0  0
    8.7259    9.3342   -2.7280 C   0  0  0  0  0  0  0  0  0  0  0  0
    9.6925    9.7063   -1.8082 C   0  0  0  0  0  0  0  0  0  0  0  0
   10.0770    8.7757   -0.8666 C   0  0  0  0  0  0  0  0  0  0  0  0
    9.4998    7.5113   -0.8596 C   0  0  0  0  0  0  0  0  0  0  0  0
   10.2529   10.9588   -1.8261 O   0  0  0  0  0  0  0  0  0  0  0  0
    7.0811    6.3739    0.4309 N   0  0  0  0  0  0  0  0  0  0  0  0
    5.1331   -2.1885    0.2197 C   0  0  0  0  0  0  0  0  0  0  0  0
    5.9230   -1.4033   -0.3180 O   0  0  0  0  0  0  0  0  0  0  0  0
    5.5028   -3.5883    0.1724 N   0  0  0  0  0  0  0  0  0  0  0  0
    6.7435   -3.9465   -0.4766 C   0  0  2  0  0  0  0  0  0  0  0  0
    6.6223   -4.9863   -1.4998 C   0  0  0  0  0  0  0  0  0  0  0  0
    7.5778   -5.4291   -2.1825 O   0  0  0  0  0  0  0  0  0  0  0  0
    5.3124   -5.5327   -1.7325 N   0  0  0  0  0  0  0  0  0  0  0  0
    7.6753   -4.3663    0.6768 C   0  0  0  0  0  0  0  0  0  0  0  0
    9.0119   -4.7699    0.1885 C   0  0  0  0  0  0  0  0  0  0  0  0
    9.3321   -6.0735   -0.1468 C   0  0  0  0  0  0  0  0  0  0  0  0
   10.6116   -6.3564   -0.5955 C   0  0  0  0  0  0  0  0  0  0  0  0
   11.5357   -5.3450   -0.6994 C   0  0  0  0  0  0  0  0  0  0  0  0
   11.2533   -4.0477   -0.3768 C   0  0  0  0  0  0  0  0  0  0  0  0
    9.9633   -3.7648    0.0745 C   0  0  0  0  0  0  0  0  0  0  0  0
   12.8305   -5.6203   -1.1551 O   0  0  0  0  0  0  0  0  0  0  0  0
  -12.6615   -0.7157    1.1903 H   0  0  0  0  0  0  0  0  0  0  0  0
  -12.9663   -0.1471   -0.5079 H   0  0  0  0  0  0  0  0  0  0  0  0
  -11.1328    2.7529    1.6446 H   0  0  0  0  0  0  0  0  0  0  0  0
  -10.0475    0.0665   -0.5837 H   0  0  0  0  0  0  0  0  0  0  0  0
   -9.1893    2.4501    1.0904 H   0  0  0  0  0  0  0  0  0  0  0  0
   -9.7694    2.8632   -0.5186 H   0  0  0  0  0  0  0  0  0  0  0  0
   -7.2708    2.5387   -0.5172 H   0  0  0  0  0  0  0  0  0  0  0  0
   -8.2564    1.6396   -1.7005 H   0  0  0  0  0  0  0  0  0  0  0  0
   -6.4683    0.2217   -0.6787 H   0  0  0  0  0  0  0  0  0  0  0  0
   -8.0816   -0.3505   -0.2392 H   0  0  0  0  0  0  0  0  0  0  0  0
   -8.0902    0.9071    1.8063 H   0  0  0  0  0  0  0  0  0  0  0  0
   -6.2922    1.9828    2.7366 H   0  0  0  0  0  0  0  0  0  0  0  0
   -4.7917    3.7965    1.9907 H   0  0  0  0  0  0  0  0  0  0  0  0
   -3.1269    3.1510    3.6211 H   0  0  0  0  0  0  0  0  0  0  0  0
   -4.5590    2.1406    3.6854 H   0  0  0  0  0  0  0  0  0  0  0  0
   -2.3325   -1.2144    2.1214 H   0  0  0  0  0  0  0  0  0  0  0  0
   -2.6672   -0.0984    0.7779 H   0  0  0  0  0  0  0  0  0  0  0  0
   -7.6214   -1.3821    1.7985 H   0  0  0  0  0  0  0  0  0  0  0  0
   -6.7956   -0.6749    3.1619 H   0  0  0  0  0  0  0  0  0  0  0  0
   -6.7509   -2.6589    0.5421 H   0  0  0  0  0  0  0  0  0  0  0  0
   -3.7638   -2.7102   -0.2807 H   0  0  0  0  0  0  0  0  0  0  0  0
   -5.0686   -3.6931   -0.8992 H   0  0  0  0  0  0  0  0  0  0  0  0
   -3.2848   -0.5173   -1.7628 H   0  0  0  0  0  0  0  0  0  0  0  0
   -4.4395    0.4795   -3.9413 H   0  0  0  0  0  0  0  0  0  0  0  0
   -7.4462   -3.3521   -1.7187 H   0  0  0  0  0  0  0  0  0  0  0  0
   -9.1821   -3.0873   -3.4416 H   0  0  0  0  0  0  0  0  0  0  0  0
   -8.8782   -1.4087   -5.2388 H   0  0  0  0  0  0  0  0  0  0  0  0
   -6.8480    0.0011   -5.3102 H   0  0  0  0  0  0  0  0  0  0  0  0
   -5.7929   -5.2439    0.0608 H   0  0  0  0  0  0  0  0  0  0  0  0
   -5.1851   -5.8664    2.8989 H   0  0  0  0  0  0  0  0  0  0  0  0
   -6.5257   -7.4455    0.6118 H   0  0  0  0  0  0  0  0  0  0  0  0
   -7.3216   -6.7446    2.0147 H   0  0  0  0  0  0  0  0  0  0  0  0
   -8.2426   -9.2063    2.6094 H   0  0  0  0  0  0  0  0  0  0  0  0
   -7.1070  -10.3400    1.8247 H   0  0  0  0  0  0  0  0  0  0  0  0
   -3.4593   -4.9973    0.2885 H   0  0  0  0  0  0  0  0  0  0  0  0
   -1.5300   -7.3291    0.4549 H   0  0  0  0  0  0  0  0  0  0  0  0
   -0.6145   -5.4579   -1.4918 H   0  0  0  0  0  0  0  0  0  0  0  0
   -1.4507   -7.0140   -1.7701 H   0  0  0  0  0  0  0  0  0  0  0  0
   -2.3690   -5.4602   -1.7470 H   0  0  0  0  0  0  0  0  0  0  0  0
    0.9751   -6.1223    0.0717 H   0  0  0  0  0  0  0  0  0  0  0  0
    0.8900   -4.3650    2.5052 H   0  0  0  0  0  0  0  0  0  0  0  0
    1.6408   -6.4004    3.2003 H   0  0  0  0  0  0  0  0  0  0  0  0
    3.0896   -5.2798    3.1594 H   0  0  0  0  0  0  0  0  0  0  0  0
    1.3370   -8.0485    1.4734 H   0  0  0  0  0  0  0  0  0  0  0  0
    2.4566   -9.8657    0.3265 H   0  0  0  0  0  0  0  0  0  0  0  0
    4.8703   -9.8362   -0.0439 H   0  0  0  0  0  0  0  0  0  0  0  0
    6.1699   -7.9048    0.7865 H   0  0  0  0  0  0  0  0  0  0  0  0
    5.0598   -6.0867    1.9518 H   0  0  0  0  0  0  0  0  0  0  0  0
    3.7780   -3.2303    2.4852 H   0  0  0  0  0  0  0  0  0  0  0  0
    3.1534   -1.4812    0.1320 H   0  0  0  0  0  0  0  0  0  0  0  0
    3.3523   -0.8045    2.7702 H   0  0  0  0  0  0  0  0  0  0  0  0
    5.0551   -1.1533    2.5549 H   0  0  0  0  0  0  0  0  0  0  0  0
    6.4911    1.6316   -2.0468 H   0  0  0  0  0  0  0  0  0  0  0  0
    5.0109    0.6112   -1.8117 H   0  0  0  0  0  0  0  0  0  0  0  0
    4.2878    2.5002   -2.8071 H   0  0  0  0  0  0  0  0  0  0  0  0
    3.3663    4.8538   -0.6640 H   0  0  0  0  0  0  0  0  0  0  0  0
    1.4308    2.8814    0.6397 H   0  0  0  0  0  0  0  0  0  0  0  0
   -0.7879    4.5406    1.2369 H   0  0  0  0  0  0  0  0  0  0  0  0
   -1.8722    5.1449   -1.5323 H   0  0  0  0  0  0  0  0  0  0  0  0
   -2.0718    3.0280    1.0977 H   0  0  0  0  0  0  0  0  0  0  0  0
   -0.9294    7.1874   -0.5695 H   0  0  0  0  0  0  0  0  0  0  0  0
   -1.7428    6.8445    0.9834 H   0  0  0  0  0  0  0  0  0  0  0  0
   -4.2907    7.4999    1.0740 H   0  0  0  0  0  0  0  0  0  0  0  0
   -6.1019    8.7724   -0.0717 H   0  0  0  0  0  0  0  0  0  0  0  0
   -5.7817    9.5416   -2.4240 H   0  0  0  0  0  0  0  0  0  0  0  0
   -3.6990    9.0180   -3.6136 H   0  0  0  0  0  0  0  0  0  0  0  0
   -1.9581    7.7740   -2.5203 H   0  0  0  0  0  0  0  0  0  0  0  0
    2.7534    4.4103    2.2257 H   0  0  0  0  0  0  0  0  0  0  0  0
    0.9623    4.7382    2.2314 H   0  0  0  0  0  0  0  0  0  0  0  0
    4.3662    6.3752    1.0598 H   0  0  0  0  0  0  0  0  0  0  0  0
    3.9273    8.8071    0.5105 H   0  0  0  0  0  0  0  0  0  0  0  0
    1.3559    9.2373    0.5831 H   0  0  0  0  0  0  0  0  0  0  0  0
    5.5721    4.4198   -2.8087 H   0  0  0  0  0  0  0  0  0  0  0  0
    6.0277    6.6700   -1.3300 H   0  0  0  0  0  0  0  0  0  0  0  0
    8.6494    5.0876   -1.3620 H   0  0  0  0  0  0  0  0  0  0  0  0
    7.6259    5.5970   -2.8244 H   0  0  0  0  0  0  0  0  0  0  0  0
    7.3960    7.8838   -3.4914 H   0  0  0  0  0  0  0  0  0  0  0  0
    8.4509   10.1074   -3.4527 H   0  0  0  0  0  0  0  0  0  0  0  0
   10.8200    9.0459   -0.1536 H   0  0  0  0  0  0  0  0  0  0  0  0
    9.8450    6.8336   -0.0990 H   0  0  0  0  0  0  0  0  0  0  0  0
   10.3717   11.4534   -0.9341 H   0  0  0  0  0  0  0  0  0  0  0  0
    6.6177    7.2894    0.6526 H   0  0  0  0  0  0  0  0  0  0  0  0
    6.7437    5.7067    1.1535 H   0  0  0  0  0  0  0  0  0  0  0  0
    4.8349   -4.2313    0.5996 H   0  0  0  0  0  0  0  0  0  0  0  0
    7.2546   -3.0509   -0.9105 H   0  0  0  0  0  0  0  0  0  0  0  0
    4.5686   -4.9068   -2.0656 H   0  0  0  0  0  0  0  0  0  0  0  0
    5.0769   -6.5253   -1.5809 H   0  0  0  0  0  0  0  0  0  0  0  0
    7.7633   -3.4861    1.3242 H   0  0  0  0  0  0  0  0  0  0  0  0
    7.1597   -5.1923    1.2325 H   0  0  0  0  0  0  0  0  0  0  0  0
    8.6187   -6.8541   -0.0670 H   0  0  0  0  0  0  0  0  0  0  0  0
   10.8584   -7.3707   -0.8558 H   0  0  0  0  0  0  0  0  0  0  0  0
   11.9805   -3.2306   -0.4580 H   0  0  0  0  0  0  0  0  0  0  0  0
    9.7636   -2.7373    0.3240 H   0  0  0  0  0  0  0  0  0  0  0  0
   13.4147   -6.1576   -0.5303 H   0  0  0  0  0  0  0  0  0  0  0  0
  1  2  1  0
  2  3  2  3
  2  4  1  0
  4  5  1  0
  5  6  1  0
  6  7  1  0
  7  8  1  0
  8  9  1  0
  9 10  1  0
 10 11  2  0
 10 12  1  0
 12 13  1  0
 13 14  1  0
 14 15  1  0
 15 16  1  0
 16 17  2  0
 16 18  1  0
 18 19  1  0
 18 20  1  0
 20 21  1  0
 21 22  1  0
 22 23  2  0
 23 24  1  0
 24 25  1  0
 25 26  2  0
 26 27  1  0
 27 28  2  0
 28 29  1  0
 29 30  2  0
 20 31  1  0
 31 32  2  0
 31 33  1  0
 33 34  1  0
 34 35  1  0
 35 36  1  0
 36 37  2  0
 36 38  1  0
 34 39  1  0
 39 40  2  0
 39 41  1  0
 41 42  1  0
 42 43  1  0
 42 44  1  0
 44 45  2  0
 44 46  1  0
 46 47  1  0
 47 48  1  0
 48 49  1  0
 49 50  2  0
 50 51  1  0
 51 52  2  0
 52 53  1  0
 53 54  2  0
 47 55  1  0
 55 56  2  0
 55 57  1  0
 57 58  1  0
 58 59  1  0
 59 60  1  0
 60 61  1  0
 61 62  1  0
 62 63  1  0
 63 64  1  0
 64 65  2  0
 64 66  1  0
 66 67  1  0
 67 68  1  0
 68 69  2  0
 68 70  1  0
 70 71  1  0
 71 72  1  0
 72 73  2  0
 72 74  1  0
 71 75  1  0
 75 76  1  0
 76 77  2  0
 77 78  1  0
 78 79  2  0
 79 80  1  0
 80 81  2  0
 67 82  1  0
 82 83  1  0
 83 84  2  0
 84 85  1  0
 85 86  1  0
 86 87  2  0
 63 88  1  0
 88 89  1  0
 89 90  2  0
 89 91  1  0
 91 92  1  0
 92 93  1  0
 93 94  2  0
 94 95  1  0
 95 96  2  0
 96 97  1  0
 97 98  2  0
 96 99  1  0
 91100  1  0
 58101  1  0
101102  2  0
101103  1  0
103104  1  0
104105  1  0
105106  2  0
105107  1  0
104108  1  0
108109  1  0
109110  2  0
110111  1  0
111112  2  0
112113  1  0
113114  2  0
112115  1  0
 19  8  1  0
 26 22  1  0
 54 49  1  0
 81 76  1  0
 87 83  1  0
 98 93  1  0
114109  1  0
 74 12  1  0
 30 25  1  0
  1116  1  0
  1117  1  0
  3118  1  0
  4119  1  0
  5120  1  0
  5121  1  0
  6122  1  0
  6123  1  0
  7124  1  0
  7125  1  0
  8126  1  1
  9127  1  0
 12128  1  1
 13129  1  0
 13130  1  0
 15131  1  0
 15132  1  0
 19133  1  0
 19134  1  0
 20135  1  6
 21136  1  0
 21137  1  0
 23138  1  0
 24139  1  0
 27140  1  0
 28141  1  0
 29142  1  0
 30143  1  0
 33144  1  0
 34145  1  1
 35146  1  0
 35147  1  0
 38148  1  0
 38149  1  0
 41150  1  0
 42151  1  6
 43152  1  0
 43153  1  0
 43154  1  0
 46155  1  0
 47156  1  1
 48157  1  0
 48158  1  0
 50159  1  0
 51160  1  0
 52161  1  0
 53162  1  0
 54163  1  0
 57164  1  0
 58165  1  6
 59166  1  0
 59167  1  0
 62168  1  0
 62169  1  0
 63170  1  6
 66171  1  0
 67172  1  1
 70173  1  0
 71174  1  6
 74175  1  0
 75176  1  0
 75177  1  0
 77178  1  0
 78179  1  0
 79180  1  0
 80181  1  0
 81182  1  0
 82183  1  0
 82184  1  0
 84185  1  0
 85186  1  0
 86187  1  0
 88188  1  0
 91189  1  6
 92190  1  0
 92191  1  0
 94192  1  0
 95193  1  0
 97194  1  0
 98195  1  0
 99196  1  0
100197  1  0
100198  1  0
103199  1  0
104200  1  6
107201  1  0
107202  1  0
108203  1  0
108204  1  0
110205  1  0
111206  1  0
113207  1  0
114208  1  0
115209  1  0
M  END
>  <Ligand ID>  (1) 
LIG0001145

>  <Ligand>  (1) 
CID 51351277

>  <SMILES>  (1) 
NC(=N)NCCC[C@@H]1NC(=O)[C@H]2CSCC(=O)N(C1)[C@@H](Cc1c[nH]c3c1cccc3)C(=O)N[C@@H](CC(=O)N)C(=O)N[C@@H](C)C(=O)N[C@@H](Cc1ccccc1)C(=O)N[C@@H](CSSC[C@@H](C(=O)N[C@H](C(=O)N[C@@H](C(=O)N2)Cc1ccccc1)Cc1c[nH]cn1)NC(=O)[C@H](Cc1ccc(cc1)O)N)C(=O)N[C@H](C(=O)N)Cc1ccc(cc1)O

>  <CID>  (1) 
51351277.0

>  <ChEMBL ID>  (1) 
nan

>  <InChiKey>  (1) 
SAUMKWJPJZDAEN-FHILOCCJSA-N

>  <InChi>  (1) 
InChI=1S/C77H94N20O15S3/c1-42-67(103)90-56(29-43-11-4-2-5-12-43)70(106)96-62(74(110)89-55(66(80)102)28-46-20-24-51(99)25-21-46)39-115-114-38-61(94-68(104)53(78)27-45-18-22-50(98)23-19-45)75(111)92-58(32-49-35-83-41-86-49)72(108)91-57(30-44-13-6-3-7-14-44)71(107)95-60-37-113-40-65(101)97(36-48(88-73(60)109)15-10-26-84-77(81)82)63(31-47-34-85-54-17-9-8-16-52(47)54)76(112)93-59(33-64(79)100)69(105)87-42/h2-9,11-14,16-25,34-35,41-42,48,53,55-63,85,98-99H,10,15,26-33,36-40,78H2,1H3,(H2,79,100)(H2,80,102)(H,83,86)(H,87,105)(H,88,109)(H,89,110)(H,90,103)(H,91,108)(H,92,111)(H,93,112)(H,94,104)(H,95,107)(H,96,106)(H4,81,82,84)/t42-,48-,53-,55-,56-,57+,58-,59-,60+,61-,62-,63-/m0/s1

>  <IUPAC Name>  (1) 
(2S,5S,8S,11S,14R,19R,22S,25R,28S,34S)-N-[(2S)-1-amino-3-(4-hydroxyphenyl)-1-oxopropan-2-yl]-19-[[(2S)-2-amino-3-(4-hydroxyphenyl)propanoyl]amino]-5-(2-amino-2-oxoethyl)-11,25-dibenzyl-34-(3-carbamimidamidopropyl)-22-(1H-imidazol-4-ylmethyl)-2-(1H-indol-3-ylmethyl)-8-methyl-3,6,9,12,20,23,26,32,36-nonaoxo-16,17,30-trithia-1,4,7,10,13,21,24,27,35-nonazabicyclo[26.4.4]hexatriacontane-14-carboxamide

$$$$
