
     RDKit          3D

 28 29  0  0  0  0  0  0  0  0999 V2000
    0.7786   -1.9854    0.8902 C   0  0  0  0  0  0  0  0  0  0  0  0
    0.8431   -0.7086    0.5198 C   0  0  0  0  0  0  0  0  0  0  0  0
    2.1247   -0.1589    0.0872 C   0  0  0  0  0  0  0  0  0  0  0  0
    2.4292    1.0856   -0.3241 N   0  0  0  0  0  0  0  0  0  0  0  0
    3.7372    1.1547   -0.6299 C   0  0  0  0  0  0  0  0  0  0  0  0
    4.3014   -0.0498   -0.4201 N   0  0  0  0  0  0  0  0  0  0  0  0
    3.3321   -0.8516    0.0143 C   0  0  0  0  0  0  0  0  0  0  0  0
   -0.3478    0.1756    0.5316 C   0  0  0  0  0  0  0  0  0  0  0  0
   -0.6162    0.8493   -0.7869 C   0  0  0  0  0  0  0  0  0  0  0  0
   -1.9880    0.4864   -1.3119 C   0  0  0  0  0  0  0  0  0  0  0  0
   -3.0326    0.8085   -0.3676 N   0  0  0  0  0  0  0  0  0  0  0  0
   -2.8228    0.2158    0.9315 C   0  0  0  0  0  0  0  0  0  0  0  0
   -1.5601   -0.5955    1.0079 C   0  0  0  0  0  0  0  0  0  0  0  0
   -0.1331   -2.4630    1.2223 H   0  0  0  0  0  0  0  0  0  0  0  0
    1.6596   -2.5974    0.8690 H   0  0  0  0  0  0  0  0  0  0  0  0
    1.7851    1.8755   -0.4012 H   0  0  0  0  0  0  0  0  0  0  0  0
    4.2828    2.0282   -0.9913 H   0  0  0  0  0  0  0  0  0  0  0  0
    3.4901   -1.8962    0.2688 H   0  0  0  0  0  0  0  0  0  0  0  0
   -0.1185    0.9577    1.3009 H   0  0  0  0  0  0  0  0  0  0  0  0
   -0.5921    1.9697   -0.6638 H   0  0  0  0  0  0  0  0  0  0  0  0
    0.1184    0.5885   -1.5741 H   0  0  0  0  0  0  0  0  0  0  0  0
   -1.9555   -0.5731   -1.5979 H   0  0  0  0  0  0  0  0  0  0  0  0
   -2.1675    1.0967   -2.2215 H   0  0  0  0  0  0  0  0  0  0  0  0
   -3.9252    0.4721   -0.8202 H   0  0  0  0  0  0  0  0  0  0  0  0
   -3.6724   -0.4700    1.1302 H   0  0  0  0  0  0  0  0  0  0  0  0
   -2.8500    1.0027    1.7021 H   0  0  0  0  0  0  0  0  0  0  0  0
   -1.4284   -0.9372    2.0442 H   0  0  0  0  0  0  0  0  0  0  0  0
   -1.6721   -1.4803    0.3394 H   0  0  0  0  0  0  0  0  0  0  0  0
  1  2  2  0
  2  3  1  0
  3  4  1  0
  4  5  1  0
  5  6  2  0
  6  7  1  0
  2  8  1  0
  8  9  1  0
  9 10  1  0
 10 11  1  0
 11 12  1  0
 12 13  1  0
  7  3  2  0
 13  8  1  0
  1 14  1  0
  1 15  1  0
  4 16  1  0
  5 17  1  0
  7 18  1  0
  8 19  1  0
  9 20  1  0
  9 21  1  0
 10 22  1  0
 10 23  1  0
 11 24  1  0
 12 25  1  0
 12 26  1  0
 13 27  1  0
 13 28  1  0
M  END
>  <Ligand ID>  (1) 
LIG0005609

>  <Ligand>  (1) 
769118-15-2

>  <SMILES>  (1) 
C=C(c1[nH]cnc1)C1CCNCC1

>  <CID>  (1) 
11275349.0

>  <ChEMBL ID>  (1) 
nan

>  <InChiKey>  (1) 
SHLFGPWXEGNEBK-UHFFFAOYSA-N

>  <InChi>  (1) 
InChI=1S/C10H15N3/c1-8(10-6-12-7-13-10)9-2-4-11-5-3-9/h6-7,9,11H,1-5H2,(H,12,13)

>  <IUPAC Name>  (1) 
4-[1-(1H-imidazol-5-yl)ethenyl]piperidine

$$$$
