
     RDKit          3D

155160  0  0  0  0  0  0  0  0999 V2000
  -10.2407   -0.4532    4.4739 C   0  0  0  0  0  0  0  0  0  0  0  0
  -10.5495   -0.4701    3.0080 C   0  0  0  0  0  0  0  0  0  0  0  0
   -9.4858   -1.3326    2.3148 C   0  0  0  0  0  0  0  0  0  0  0  0
   -9.7684   -1.3550    0.8360 C   0  0  0  0  0  0  0  0  0  0  0  0
   -8.7864   -2.1860    0.0751 C   0  0  2  0  0  0  0  0  0  0  0  0
   -7.3813   -1.7508    0.1862 C   0  0  0  0  0  0  0  0  0  0  0  0
   -6.7486   -1.5646    1.2303 O   0  0  0  0  0  0  0  0  0  0  0  0
   -6.6643   -1.5147   -1.0434 N   0  0  0  0  0  0  0  0  0  0  0  0
   -5.3305   -1.0976   -0.9705 C   0  0  1  0  0  0  0  0  0  0  0  0
   -4.4792   -2.2573   -1.4936 C   0  0  0  0  0  0  0  0  0  0  0  0
   -3.9744   -3.1700   -0.4487 C   0  0  0  0  0  0  0  0  0  0  0  0
   -3.9778   -2.9678    0.7671 O   0  0  0  0  0  0  0  0  0  0  0  0
   -3.4179   -4.3982   -0.8801 N   0  0  0  0  0  0  0  0  0  0  0  0
   -2.7848   -5.3887   -0.0052 C   0  0  0  0  0  0  0  0  0  0  0  0
   -1.5421   -4.7244    0.5879 C   0  0  0  0  0  0  0  0  0  0  0  0
   -0.5565   -5.7476    1.1642 C   0  0  0  0  0  0  0  0  0  0  0  0
    0.6902   -4.9214    1.4534 C   0  0  0  0  0  0  0  0  0  0  0  0
    1.8778   -5.7453    1.5814 C   0  0  1  0  0  0  0  0  0  0  0  0
    2.0953   -6.3742    0.1262 C   0  0  0  0  0  0  0  0  0  0  0  0
    1.3920   -7.3138   -0.2382 O   0  0  0  0  0  0  0  0  0  0  0  0
    3.0933   -5.8283   -0.7030 N   0  0  0  0  0  0  0  0  0  0  0  0
    3.1728   -5.0469    1.6673 N   0  0  0  0  0  0  0  0  0  0  0  0
    4.2548   -5.7527    2.2467 C   0  0  0  0  0  0  0  0  0  0  0  0
    3.3696   -3.7110    1.2755 C   0  0  0  0  0  0  0  0  0  0  0  0
    2.2938   -3.0651    1.3217 O   0  0  0  0  0  0  0  0  0  0  0  0
    4.5651   -2.9889    0.8745 C   0  0  1  0  0  0  0  0  0  0  0  0
    4.4826   -1.5529    1.1146 N   0  0  0  0  0  0  0  0  0  0  0  0
    3.5827   -0.6240    0.5554 C   0  0  0  0  0  0  0  0  0  0  0  0
    2.6993   -1.0778   -0.1751 O   0  0  0  0  0  0  0  0  0  0  0  0
    3.6742    0.8648    0.8413 C   0  0  1  0  0  0  0  0  0  0  0  0
    2.3760    1.4343    0.6895 N   0  0  0  0  0  0  0  0  0  0  0  0
    1.7575    2.0029   -0.4689 C   0  0  0  0  0  0  0  0  0  0  0  0
    2.3838    1.8919   -1.5116 O   0  0  0  0  0  0  0  0  0  0  0  0
    0.4387    2.6419   -0.2566 C   0  0  2  0  0  0  0  0  0  0  0  0
   -0.4951    2.6117   -1.3144 N   0  0  0  0  0  0  0  0  0  0  0  0
   -1.7226    1.9240   -1.1309 C   0  0  0  0  0  0  0  0  0  0  0  0
   -1.7410    1.2986   -0.0283 O   0  0  0  0  0  0  0  0  0  0  0  0
   -2.9324    1.7779   -1.9297 C   0  0  1  0  0  0  0  0  0  0  0  0
   -3.6264    0.6456   -1.2522 N   0  0  0  0  0  0  0  0  0  0  0  0
   -4.8457    0.0702   -1.7205 C   0  0  0  0  0  0  0  0  0  0  0  0
   -5.3672    0.6121   -2.6898 O   0  0  0  0  0  0  0  0  0  0  0  0
   -3.9095    2.9818   -1.7490 C   0  0  0  0  0  0  0  0  0  0  0  0
   -3.3770    4.2697   -2.1529 C   0  0  0  0  0  0  0  0  0  0  0  0
   -2.7126    5.2334   -1.4835 N   0  0  0  0  0  0  0  0  0  0  0  0
   -2.4622    6.2612   -2.3237 C   0  0  0  0  0  0  0  0  0  0  0  0
   -2.9487    5.9805   -3.5212 N   0  0  0  0  0  0  0  0  0  0  0  0
   -3.5116    4.7744   -3.4480 C   0  0  0  0  0  0  0  0  0  0  0  0
   -0.3130    3.1740   -2.6168 C   0  0  0  0  0  0  0  0  0  0  0  0
    0.7560    3.9508    0.4088 C   0  0  0  0  0  0  0  0  0  0  0  0
    1.6153    4.8930   -0.3105 C   0  0  0  0  0  0  0  0  0  0  0  0
    3.0140    4.7947   -0.2540 C   0  0  0  0  0  0  0  0  0  0  0  0
    3.8521    5.6737   -0.8568 C   0  0  0  0  0  0  0  0  0  0  0  0
    3.3771    6.7355   -1.5744 C   0  0  0  0  0  0  0  0  0  0  0  0
    1.9942    6.8783   -1.6632 C   0  0  0  0  0  0  0  0  0  0  0  0
    1.1548    5.9786   -1.0466 C   0  0  0  0  0  0  0  0  0  0  0  0
    1.5508    7.9621   -2.3880 C   0  0  0  0  0  0  0  0  0  0  0  0
    2.4371    8.8497   -2.9876 C   0  0  0  0  0  0  0  0  0  0  0  0
    3.8044    8.6806   -2.8821 C   0  0  0  0  0  0  0  0  0  0  0  0
    4.2598    7.6093   -2.1659 C   0  0  0  0  0  0  0  0  0  0  0  0
    4.2445    1.0430    2.2132 C   0  0  0  0  0  0  0  0  0  0  0  0
    4.3013    2.5299    2.5733 C   0  0  0  0  0  0  0  0  0  0  0  0
    4.8749    2.6306    3.9686 C   0  0  0  0  0  0  0  0  0  0  0  0
    6.2188    2.1060    4.0333 N   0  0  0  0  0  0  0  0  0  0  0  0
    7.1905    2.9520    3.8248 C   0  0  0  0  0  0  0  0  0  0  0  0
    8.5634    2.5262    3.8686 N   0  0  0  0  0  0  0  0  0  0  0  0
    6.9762    4.3247    3.5455 N   0  0  0  0  0  0  0  0  0  0  0  0
    5.9038   -3.5431    1.1105 C   0  0  0  0  0  0  0  0  0  0  0  0
    6.9006   -2.5494    0.5292 C   0  0  0  0  0  0  0  0  0  0  0  0
    7.6529   -1.6172    1.1893 C   0  0  0  0  0  0  0  0  0  0  0  0
    8.3637   -0.9770    0.2395 N   0  0  0  0  0  0  0  0  0  0  0  0
    8.0862   -1.4713   -0.9802 C   0  0  0  0  0  0  0  0  0  0  0  0
    7.1493   -2.4859   -0.8496 C   0  0  0  0  0  0  0  0  0  0  0  0
    6.6967   -3.1632   -1.9453 C   0  0  0  0  0  0  0  0  0  0  0  0
    7.1209   -2.9021   -3.2350 C   0  0  0  0  0  0  0  0  0  0  0  0
    8.0655   -1.8814   -3.3767 C   0  0  0  0  0  0  0  0  0  0  0  0
    8.5311   -1.1884   -2.2746 C   0  0  0  0  0  0  0  0  0  0  0  0
   -9.1805   -2.2958   -1.3385 N   0  0  0  0  0  0  0  0  0  0  0  0
   -9.4099   -3.5192   -1.9899 C   0  0  0  0  0  0  0  0  0  0  0  0
   -9.2971   -4.6224   -1.4198 O   0  0  0  0  0  0  0  0  0  0  0  0
   -9.8066   -3.4623   -3.4307 C   0  0  0  0  0  0  0  0  0  0  0  0
   -9.1672   -0.1437    4.6005 H   0  0  0  0  0  0  0  0  0  0  0  0
  -10.9088    0.2645    5.0179 H   0  0  0  0  0  0  0  0  0  0  0  0
  -10.3689   -1.4429    4.9067 H   0  0  0  0  0  0  0  0  0  0  0  0
  -11.5200   -0.9491    2.8128 H   0  0  0  0  0  0  0  0  0  0  0  0
  -10.4790    0.5472    2.6270 H   0  0  0  0  0  0  0  0  0  0  0  0
   -9.5694   -2.3430    2.7638 H   0  0  0  0  0  0  0  0  0  0  0  0
   -8.4822   -0.8765    2.5131 H   0  0  0  0  0  0  0  0  0  0  0  0
   -9.8060   -0.3142    0.4712 H   0  0  0  0  0  0  0  0  0  0  0  0
  -10.8031   -1.7690    0.7253 H   0  0  0  0  0  0  0  0  0  0  0  0
   -8.8029   -3.2453    0.4370 H   0  0  0  0  0  0  0  0  0  0  0  0
   -7.1491   -1.6610   -1.9553 H   0  0  0  0  0  0  0  0  0  0  0  0
   -4.9997   -0.9485    0.0997 H   0  0  0  0  0  0  0  0  0  0  0  0
   -5.1390   -2.8883   -2.1600 H   0  0  0  0  0  0  0  0  0  0  0  0
   -3.6726   -1.9179   -2.1810 H   0  0  0  0  0  0  0  0  0  0  0  0
   -3.4703   -4.5965   -1.8809 H   0  0  0  0  0  0  0  0  0  0  0  0
   -3.5102   -5.6603    0.7619 H   0  0  0  0  0  0  0  0  0  0  0  0
   -2.4382   -6.2212   -0.6088 H   0  0  0  0  0  0  0  0  0  0  0  0
   -1.9002   -4.0188    1.3580 H   0  0  0  0  0  0  0  0  0  0  0  0
   -0.9994   -4.1515   -0.1835 H   0  0  0  0  0  0  0  0  0  0  0  0
   -0.4561   -6.6152    0.5597 H   0  0  0  0  0  0  0  0  0  0  0  0
   -1.0136   -6.0287    2.1495 H   0  0  0  0  0  0  0  0  0  0  0  0
    0.4709   -4.3431    2.3517 H   0  0  0  0  0  0  0  0  0  0  0  0
    0.7457   -4.2743    0.5160 H   0  0  0  0  0  0  0  0  0  0  0  0
    1.8173   -6.6821    2.0941 H   0  0  0  0  0  0  0  0  0  0  0  0
    2.9452   -4.9346   -1.2147 H   0  0  0  0  0  0  0  0  0  0  0  0
    4.0292   -6.3045   -0.8366 H   0  0  0  0  0  0  0  0  0  0  0  0
    4.7891   -5.1992    3.0483 H   0  0  0  0  0  0  0  0  0  0  0  0
    3.8144   -6.6324    2.8316 H   0  0  0  0  0  0  0  0  0  0  0  0
    4.8688   -6.2087    1.4795 H   0  0  0  0  0  0  0  0  0  0  0  0
    4.4352   -3.0038   -0.2975 H   0  0  0  0  0  0  0  0  0  0  0  0
    5.1653   -1.1787    1.7791 H   0  0  0  0  0  0  0  0  0  0  0  0
    4.3917    1.2818    0.0636 H   0  0  0  0  0  0  0  0  0  0  0  0
    1.7657    1.4409    1.5319 H   0  0  0  0  0  0  0  0  0  0  0  0
   -0.0239    2.0426    0.6142 H   0  0  0  0  0  0  0  0  0  0  0  0
   -2.8955    1.6602   -2.9947 H   0  0  0  0  0  0  0  0  0  0  0  0
   -3.2537    0.2204   -0.3960 H   0  0  0  0  0  0  0  0  0  0  0  0
   -4.9094    2.7534   -2.1085 H   0  0  0  0  0  0  0  0  0  0  0  0
   -4.0197    3.0250   -0.6197 H   0  0  0  0  0  0  0  0  0  0  0  0
   -2.4541    5.1523   -0.4733 H   0  0  0  0  0  0  0  0  0  0  0  0
   -1.9437    7.1650   -2.0357 H   0  0  0  0  0  0  0  0  0  0  0  0
   -3.9989    4.2846   -4.2970 H   0  0  0  0  0  0  0  0  0  0  0  0
   -1.1448    2.7848   -3.2816 H   0  0  0  0  0  0  0  0  0  0  0  0
    0.5918    2.7529   -3.1156 H   0  0  0  0  0  0  0  0  0  0  0  0
   -0.4224    4.2497   -2.6514 H   0  0  0  0  0  0  0  0  0  0  0  0
    1.3444    3.6560    1.3331 H   0  0  0  0  0  0  0  0  0  0  0  0
   -0.1307    4.4369    0.8681 H   0  0  0  0  0  0  0  0  0  0  0  0
    3.4418    3.9739    0.2958 H   0  0  0  0  0  0  0  0  0  0  0  0
    4.9298    5.5238   -0.7664 H   0  0  0  0  0  0  0  0  0  0  0  0
    0.1078    6.1032   -1.1159 H   0  0  0  0  0  0  0  0  0  0  0  0
    0.4740    8.1220   -2.4943 H   0  0  0  0  0  0  0  0  0  0  0  0
    2.1121    9.7080   -3.5610 H   0  0  0  0  0  0  0  0  0  0  0  0
    4.5117    9.3370   -3.3262 H   0  0  0  0  0  0  0  0  0  0  0  0
    5.3249    7.4040   -2.0293 H   0  0  0  0  0  0  0  0  0  0  0  0
    5.2678    0.6068    2.3442 H   0  0  0  0  0  0  0  0  0  0  0  0
    3.5894    0.5642    2.9580 H   0  0  0  0  0  0  0  0  0  0  0  0
    4.9940    3.0111    1.8408 H   0  0  0  0  0  0  0  0  0  0  0  0
    3.2791    2.9206    2.5228 H   0  0  0  0  0  0  0  0  0  0  0  0
    4.2469    1.9514    4.6209 H   0  0  0  0  0  0  0  0  0  0  0  0
    4.7725    3.6341    4.4066 H   0  0  0  0  0  0  0  0  0  0  0  0
    9.1233    2.5739    2.9933 H   0  0  0  0  0  0  0  0  0  0  0  0
    8.9403    2.1876    4.7740 H   0  0  0  0  0  0  0  0  0  0  0  0
    6.2499    4.9202    3.9790 H   0  0  0  0  0  0  0  0  0  0  0  0
    7.5943    4.7986    2.8449 H   0  0  0  0  0  0  0  0  0  0  0  0
    6.2183   -3.6376    2.1558 H   0  0  0  0  0  0  0  0  0  0  0  0
    6.0530   -4.4569    0.5064 H   0  0  0  0  0  0  0  0  0  0  0  0
    7.6611   -1.4450    2.2615 H   0  0  0  0  0  0  0  0  0  0  0  0
    9.0450   -0.2027    0.3936 H   0  0  0  0  0  0  0  0  0  0  0  0
    5.9625   -3.9630   -1.8386 H   0  0  0  0  0  0  0  0  0  0  0  0
    6.7381   -3.4588   -4.0742 H   0  0  0  0  0  0  0  0  0  0  0  0
    8.3910   -1.6874   -4.3891 H   0  0  0  0  0  0  0  0  0  0  0  0
    9.2642   -0.4066   -2.4400 H   0  0  0  0  0  0  0  0  0  0  0  0
   -9.2828   -1.3851   -1.8383 H   0  0  0  0  0  0  0  0  0  0  0  0
  -10.9242   -3.4253   -3.5010 H   0  0  0  0  0  0  0  0  0  0  0  0
   -9.4997   -4.3642   -3.9612 H   0  0  0  0  0  0  0  0  0  0  0  0
   -9.4157   -2.5824   -3.9564 H   0  0  0  0  0  0  0  0  0  0  0  0
  1  2  1  0
  2  3  1  0
  3  4  1  0
  4  5  1  0
  5  6  1  0
  6  7  2  0
  6  8  1  0
  8  9  1  0
  9 10  1  0
 10 11  1  0
 11 12  2  0
 11 13  1  0
 13 14  1  0
 14 15  1  0
 15 16  1  0
 16 17  1  0
 17 18  1  0
 18 19  1  0
 19 20  2  0
 19 21  1  0
 18 22  1  0
 22 23  1  0
 22 24  1  0
 24 25  2  0
 24 26  1  0
 26 27  1  0
 27 28  1  0
 28 29  2  0
 28 30  1  0
 30 31  1  0
 31 32  1  0
 32 33  2  0
 32 34  1  0
 34 35  1  0
 35 36  1  0
 36 37  2  0
 36 38  1  0
 38 39  1  0
 39 40  1  0
 40 41  2  0
 38 42  1  0
 42 43  1  0
 43 44  1  0
 44 45  1  0
 45 46  2  0
 46 47  1  0
 35 48  1  0
 34 49  1  0
 49 50  1  0
 50 51  2  0
 51 52  1  0
 52 53  2  0
 53 54  1  0
 54 55  2  0
 54 56  1  0
 56 57  2  0
 57 58  1  0
 58 59  2  0
 30 60  1  0
 60 61  1  0
 61 62  1  0
 62 63  1  0
 63 64  2  3
 64 65  1  0
 64 66  1  0
 26 67  1  0
 67 68  1  0
 68 69  2  0
 69 70  1  0
 70 71  1  0
 71 72  2  0
 72 73  1  0
 73 74  2  0
 74 75  1  0
 75 76  2  0
  5 77  1  0
 77 78  1  0
 78 79  2  0
 78 80  1  0
 40  9  1  0
 47 43  2  0
 55 50  1  0
 72 68  1  0
 59 53  1  0
 76 71  1  0
  1 81  1  0
  1 82  1  0
  1 83  1  0
  2 84  1  0
  2 85  1  0
  3 86  1  0
  3 87  1  0
  4 88  1  0
  4 89  1  0
  5 90  1  1
  8 91  1  0
  9 92  1  1
 10 93  1  0
 10 94  1  0
 13 95  1  0
 14 96  1  0
 14 97  1  0
 15 98  1  0
 15 99  1  0
 16100  1  0
 16101  1  0
 17102  1  0
 17103  1  0
 18104  1  1
 21105  1  0
 21106  1  0
 23107  1  0
 23108  1  0
 23109  1  0
 26110  1  6
 27111  1  0
 30112  1  6
 31113  1  0
 34114  1  1
 38115  1  6
 39116  1  0
 42117  1  0
 42118  1  0
 44119  1  0
 45120  1  0
 47121  1  0
 48122  1  0
 48123  1  0
 48124  1  0
 49125  1  0
 49126  1  0
 51127  1  0
 52128  1  0
 55129  1  0
 56130  1  0
 57131  1  0
 58132  1  0
 59133  1  0
 60134  1  0
 60135  1  0
 61136  1  0
 61137  1  0
 62138  1  0
 62139  1  0
 65140  1  0
 65141  1  0
 66142  1  0
 66143  1  0
 67144  1  0
 67145  1  0
 69146  1  0
 70147  1  0
 73148  1  0
 74149  1  0
 75150  1  0
 76151  1  0
 77152  1  0
 80153  1  0
 80154  1  0
 80155  1  0
M  END
>  <Ligand ID>  (1) 
LIG0001813

>  <Ligand>  (1) 
CHEMBL3600838

>  <SMILES>  (1) 
CCCC[C@H](C(=O)N[C@H]1CC(=O)NCCCC[C@@H](C(=O)N)N(C)C(=O)[C@@H](NC(=O)[C@@H](NC(=O)[C@H](N(C(=O)[C@@H](NC1=O)Cc1[nH]cnc1)C)Cc1ccc2c(c1)cccc2)CCCN=C(N)N)Cc1c[nH]c2c1cccc2)NC(=O)C

>  <CID>  (1) 
122184577.0

>  <ChEMBL ID>  (1) 
nan

>  <InChiKey>  (1) 
AWLXWEMCGRJJAO-ABFVQYSZSA-N

>  <InChi>  (1) 
InChI=1S/C56H75N15O9/c1-5-6-17-41(65-33(2)72)50(75)67-43-29-48(73)61-23-12-11-20-46(49(57)74)70(3)54(79)44(27-37-30-63-40-18-10-9-16-39(37)40)68-51(76)42(19-13-24-62-56(58)59)66-53(78)47(26-34-21-22-35-14-7-8-15-36(35)25-34)71(4)55(80)45(69-52(43)77)28-38-31-60-32-64-38/h7-10,14-16,18,21-22,25,30-32,41-47,63H,5-6,11-13,17,19-20,23-24,26-29H2,1-4H3,(H2,57,74)(H,60,64)(H,61,73)(H,65,72)(H,66,78)(H,67,75)(H,68,76)(H,69,77)(H4,58,59,62)/t41-,42+,43+,44+,45+,46+,47-/m1/s1

>  <IUPAC Name>  (1) 
(3S,6S,9R,12S,15S,23S)-15-[[(2R)-2-acetamidohexanoyl]amino]-6-[3-(diaminomethylideneamino)propyl]-12-(1H-imidazol-5-ylmethyl)-3-(1H-indol-3-ylmethyl)-1,10-dimethyl-9-(naphthalen-2-ylmethyl)-2,5,8,11,14,17-hexaoxo-1,4,7,10,13,18-hexazacyclotricosane-23-carboxamide

$$$$
