
     RDKit          3D

 46 48  0  0  0  0  0  0  0  0999 V2000
   -6.1664    1.6090    0.9908 O   0  0  0  0  0  0  0  0  0  0  0  0
   -5.2448    1.4156   -0.0313 C   0  0  0  0  0  0  0  0  0  0  0  0
   -4.8496    2.4708   -0.6282 O   0  0  0  0  0  0  0  0  0  0  0  0
   -4.7352    0.0750   -0.4252 C   0  0  0  0  0  0  0  0  0  0  0  0
   -3.3790   -0.2064    0.1682 C   0  0  0  0  0  0  0  0  0  0  0  0
   -2.3618    0.8182   -0.2903 C   0  0  0  0  0  0  0  0  0  0  0  0
   -1.0643    0.5531    0.4299 C   0  0  0  0  0  0  0  0  0  0  0  0
   -0.5557   -0.8467    0.3041 C   0  0  0  0  0  0  0  0  0  0  0  0
   -1.6181   -1.9079    0.3375 C   0  0  0  0  0  0  0  0  0  0  0  0
   -2.8964   -1.5347   -0.3427 C   0  0  0  0  0  0  0  0  0  0  0  0
    0.1820   -0.9938   -1.0168 C   0  0  0  0  0  0  0  0  0  0  0  0
    1.3182   -0.0446   -1.1515 C   0  0  0  0  0  0  0  0  0  0  0  0
    2.1184   -0.0623    0.0484 N   0  0  0  0  0  0  0  0  0  0  0  0
    1.6748   -0.4013    1.3589 C   0  0  0  0  0  0  0  0  0  0  0  0
    0.3688   -1.0879    1.4757 C   0  0  0  0  0  0  0  0  0  0  0  0
    3.5081    0.3041   -0.0973 C   0  0  0  0  0  0  0  0  0  0  0  0
    3.8810    1.4320    0.6407 C   0  0  0  0  0  0  0  0  0  0  0  0
    5.1836    1.8667    0.5697 C   0  0  0  0  0  0  0  0  0  0  0  0
    5.5960    2.9588    1.2669 F   0  0  0  0  0  0  0  0  0  0  0  0
    6.0891    1.1823   -0.2248 C   0  0  0  0  0  0  0  0  0  0  0  0
    5.6901    0.0755   -0.9386 C   0  0  0  0  0  0  0  0  0  0  0  0
    4.3792   -0.3875   -0.8870 C   0  0  0  0  0  0  0  0  0  0  0  0
    3.9649   -1.4748   -1.5786 F   0  0  0  0  0  0  0  0  0  0  0  0
    6.8701   -0.7482   -1.9215 Cl  0  0  0  0  0  0  0  0  0  0  0  0
   -6.0099    2.3653    1.6594 H   0  0  0  0  0  0  0  0  0  0  0  0
   -4.7109    0.0545   -1.5352 H   0  0  0  0  0  0  0  0  0  0  0  0
   -5.4916   -0.6547   -0.0750 H   0  0  0  0  0  0  0  0  0  0  0  0
   -3.4558   -0.2460    1.2539 H   0  0  0  0  0  0  0  0  0  0  0  0
   -2.2800    0.8184   -1.3783 H   0  0  0  0  0  0  0  0  0  0  0  0
   -2.7177    1.8130    0.0515 H   0  0  0  0  0  0  0  0  0  0  0  0
   -1.2370    0.7487    1.5064 H   0  0  0  0  0  0  0  0  0  0  0  0
   -0.3110    1.2661    0.0768 H   0  0  0  0  0  0  0  0  0  0  0  0
   -1.2176   -2.7980   -0.2162 H   0  0  0  0  0  0  0  0  0  0  0  0
   -1.8202   -2.2902    1.3578 H   0  0  0  0  0  0  0  0  0  0  0  0
   -2.7909   -1.5032   -1.4460 H   0  0  0  0  0  0  0  0  0  0  0  0
   -3.6595   -2.2798   -0.0888 H   0  0  0  0  0  0  0  0  0  0  0  0
   -0.6045   -0.8355   -1.8018 H   0  0  0  0  0  0  0  0  0  0  0  0
    0.5549   -2.0258   -1.1711 H   0  0  0  0  0  0  0  0  0  0  0  0
    1.0110    0.9820   -1.4434 H   0  0  0  0  0  0  0  0  0  0  0  0
    1.9733   -0.4268   -1.9774 H   0  0  0  0  0  0  0  0  0  0  0  0
    2.4545   -1.1067    1.7736 H   0  0  0  0  0  0  0  0  0  0  0  0
    1.7661    0.4946    2.0400 H   0  0  0  0  0  0  0  0  0  0  0  0
    0.4680   -2.2024    1.6148 H   0  0  0  0  0  0  0  0  0  0  0  0
   -0.1572   -0.7269    2.3854 H   0  0  0  0  0  0  0  0  0  0  0  0
    3.1621    1.9665    1.2640 H   0  0  0  0  0  0  0  0  0  0  0  0
    7.1211    1.5221   -0.2843 H   0  0  0  0  0  0  0  0  0  0  0  0
  1  2  1  0
  2  3  2  0
  2  4  1  0
  4  5  1  0
  5  6  1  0
  6  7  1  0
  7  8  1  0
  8  9  1  0
  9 10  1  0
  8 11  1  0
 11 12  1  0
 12 13  1  0
 13 14  1  0
 14 15  1  0
 13 16  1  0
 16 17  2  0
 17 18  1  0
 18 19  1  0
 18 20  2  0
 20 21  1  0
 21 22  2  0
 22 23  1  0
 21 24  1  0
 10  5  1  0
 22 16  1  0
 15  8  1  0
  1 25  1  0
  4 26  1  0
  4 27  1  0
  5 28  1  0
  6 29  1  0
  6 30  1  0
  7 31  1  0
  7 32  1  0
  9 33  1  0
  9 34  1  0
 10 35  1  0
 10 36  1  0
 11 37  1  0
 11 38  1  0
 12 39  1  0
 12 40  1  0
 14 41  1  0
 14 42  1  0
 15 43  1  0
 15 44  1  0
 17 45  1  0
 20 46  1  0
M  END
>  <Ligand ID>  (1) 
LIG0002982

>  <Ligand>  (1) 
CHEMBL3901994

>  <SMILES>  (1) 
OC(=O)CC1CCC2(CC1)CCN(CC2)c1cc(F)cc(c1F)Cl

>  <CID>  (1) 
73777175.0

>  <ChEMBL ID>  (1) 
nan

>  <InChiKey>  (1) 
GVMZIQCXQRZWJK-UHFFFAOYSA-N

>  <InChi>  (1) 
InChI=1S/C18H22ClF2NO2/c19-14-10-13(20)11-15(17(14)21)22-7-5-18(6-8-22)3-1-12(2-4-18)9-16(23)24/h10-12H,1-9H2,(H,23,24)

>  <IUPAC Name>  (1) 
2-[3-(3-chloro-2,5-difluorophenyl)-3-azaspiro[5.5]undecan-9-yl]acetic acid

$$$$
