
     RDKit          3D

 53 57  0  0  0  0  0  0  0  0999 V2000
   -6.9289   -2.4795   -0.6605 C   0  0  0  0  0  0  0  0  0  0  0  0
   -6.6098   -1.1808   -1.3926 C   0  0  0  0  0  0  0  0  0  0  0  0
   -5.8805   -0.2619   -0.5328 N   0  0  0  0  0  0  0  0  0  0  0  0
   -4.5464   -0.2265   -0.4445 C   0  0  0  0  0  0  0  0  0  0  0  0
   -3.5531   -0.9590   -1.0635 C   0  0  0  0  0  0  0  0  0  0  0  0
   -2.2065   -0.7106   -0.7826 C   0  0  0  0  0  0  0  0  0  0  0  0
   -1.8036    0.2549    0.1054 C   0  0  0  0  0  0  0  0  0  0  0  0
   -2.8097    0.9825    0.7194 C   0  0  0  0  0  0  0  0  0  0  0  0
   -4.1372    0.7407    0.4453 C   0  0  0  0  0  0  0  0  0  0  0  0
   -5.2848    1.3289    0.9276 C   0  0  0  0  0  0  0  0  0  0  0  0
   -6.3487    0.6809    0.2981 C   0  0  0  0  0  0  0  0  0  0  0  0
   -7.6451    1.0471    0.5738 C   0  0  0  0  0  0  0  0  0  0  0  0
   -7.8540    2.0597    1.4786 C   0  0  0  0  0  0  0  0  0  0  0  0
   -6.7949    2.7046    2.1051 C   0  0  0  0  0  0  0  0  0  0  0  0
   -5.4884    2.3348    1.8266 C   0  0  0  0  0  0  0  0  0  0  0  0
   -0.4692    0.5612    0.4380 N   0  0  0  0  0  0  0  0  0  0  0  0
    0.6837   -0.0540   -0.0684 C   0  0  0  0  0  0  0  0  0  0  0  0
    0.6530   -0.9818   -0.9067 O   0  0  0  0  0  0  0  0  0  0  0  0
    2.0351    0.3881    0.3874 C   0  0  0  0  0  0  0  0  0  0  0  0
    3.1270   -0.4109   -0.2874 C   0  0  0  0  0  0  0  0  0  0  0  0
    4.4702   -0.0015    0.1384 C   0  0  0  0  0  0  0  0  0  0  0  0
    4.7898    0.9330    0.9949 O   0  0  0  0  0  0  0  0  0  0  0  0
    6.0839    0.9899    1.1006 N   0  0  0  0  0  0  0  0  0  0  0  0
    6.6515    0.0724    0.2969 C   0  0  0  0  0  0  0  0  0  0  0  0
    5.6063   -0.5464   -0.3053 N   0  0  0  0  0  0  0  0  0  0  0  0
    8.0607   -0.2326    0.0810 C   0  0  0  0  0  0  0  0  0  0  0  0
    8.4726   -1.2332   -0.8040 C   0  0  0  0  0  0  0  0  0  0  0  0
    9.7848   -1.5336   -1.0198 C   0  0  0  0  0  0  0  0  0  0  0  0
   10.7442   -0.8172   -0.3335 C   0  0  0  0  0  0  0  0  0  0  0  0
   10.3551    0.1886    0.5571 C   0  0  0  0  0  0  0  0  0  0  0  0
    9.0156    0.4852    0.7684 C   0  0  0  0  0  0  0  0  0  0  0  0
    8.5911    1.7637    1.9034 Cl  0  0  0  0  0  0  0  0  0  0  0  0
   12.0436   -1.1197   -0.5517 F   0  0  0  0  0  0  0  0  0  0  0  0
   -7.8736   -2.3892   -0.1100 H   0  0  0  0  0  0  0  0  0  0  0  0
   -6.1141   -2.7608    0.0198 H   0  0  0  0  0  0  0  0  0  0  0  0
   -7.0581   -3.2574   -1.4470 H   0  0  0  0  0  0  0  0  0  0  0  0
   -5.9748   -1.4513   -2.2596 H   0  0  0  0  0  0  0  0  0  0  0  0
   -7.5393   -0.7412   -1.7693 H   0  0  0  0  0  0  0  0  0  0  0  0
   -3.8303   -1.7292   -1.7701 H   0  0  0  0  0  0  0  0  0  0  0  0
   -1.5048   -1.3121   -1.2958 H   0  0  0  0  0  0  0  0  0  0  0  0
   -2.5847    1.7710    1.4403 H   0  0  0  0  0  0  0  0  0  0  0  0
   -8.4881    0.5638    0.1022 H   0  0  0  0  0  0  0  0  0  0  0  0
   -8.8733    2.3564    1.7034 H   0  0  0  0  0  0  0  0  0  0  0  0
   -7.0449    3.4859    2.7995 H   0  0  0  0  0  0  0  0  0  0  0  0
   -4.6739    2.8509    2.3265 H   0  0  0  0  0  0  0  0  0  0  0  0
   -0.3031    1.3396    1.1473 H   0  0  0  0  0  0  0  0  0  0  0  0
    2.0676    0.2430    1.4845 H   0  0  0  0  0  0  0  0  0  0  0  0
    2.1930    1.4519    0.1684 H   0  0  0  0  0  0  0  0  0  0  0  0
    2.9765   -0.3367   -1.3940 H   0  0  0  0  0  0  0  0  0  0  0  0
    2.9620   -1.4764   -0.0262 H   0  0  0  0  0  0  0  0  0  0  0  0
    7.6545   -1.7526   -1.3067 H   0  0  0  0  0  0  0  0  0  0  0  0
   10.0408   -2.3234   -1.7213 H   0  0  0  0  0  0  0  0  0  0  0  0
   11.1611    0.7008    1.0529 H   0  0  0  0  0  0  0  0  0  0  0  0
  1  2  1  0
  2  3  1  0
  3  4  1  0
  4  5  2  0
  5  6  1  0
  6  7  2  0
  7  8  1  0
  8  9  2  0
  9 10  1  0
 10 11  2  0
 11 12  1  0
 12 13  2  0
 13 14  1  0
 14 15  2  0
  7 16  1  0
 16 17  1  0
 17 18  2  0
 17 19  1  0
 19 20  1  0
 20 21  1  0
 21 22  1  0
 22 23  1  0
 23 24  2  0
 24 25  1  0
 24 26  1  0
 26 27  2  0
 27 28  1  0
 28 29  2  0
 29 30  1  0
 30 31  2  0
 31 32  1  0
 29 33  1  0
 11  3  1  0
 25 21  2  0
 31 26  1  0
  9  4  1  0
 15 10  1  0
  1 34  1  0
  1 35  1  0
  1 36  1  0
  2 37  1  0
  2 38  1  0
  5 39  1  0
  6 40  1  0
  8 41  1  0
 12 42  1  0
 13 43  1  0
 14 44  1  0
 15 45  1  0
 16 46  1  0
 19 47  1  0
 19 48  1  0
 20 49  1  0
 20 50  1  0
 27 51  1  0
 28 52  1  0
 30 53  1  0
M  END
>  <Ligand ID>  (1) 
LIG0004395

>  <Ligand>  (1) 
CHEMBL527095

>  <SMILES>  (1) 
CCn1c2ccc(cc2c2c1cccc2)NC(=O)CCc1onc(n1)c1ccc(cc1Cl)F

>  <CID>  (1) 
25033876.0

>  <ChEMBL ID>  (1) 
nan

>  <InChiKey>  (1) 
VXLOUNWARGZFRH-UHFFFAOYSA-N

>  <InChi>  (1) 
InChI=1S/C25H20ClFN4O2/c1-2-31-21-6-4-3-5-17(21)19-14-16(8-10-22(19)31)28-23(32)11-12-24-29-25(30-33-24)18-9-7-15(27)13-20(18)26/h3-10,13-14H,2,11-12H2,1H3,(H,28,32)

>  <IUPAC Name>  (1) 
3-[3-(2-chloro-4-fluorophenyl)-1,2,4-oxadiazol-5-yl]-N-(9-ethylcarbazol-3-yl)propanamide

$$$$
