
     RDKit          3D

 68 71  0  0  0  0  0  0  0  0999 V2000
    2.6394   -2.7832   -0.5099 C   0  0  0  0  0  0  0  0  0  0  0  0
    1.9298   -2.0452   -1.6016 C   0  0  2  0  0  0  0  0  0  0  0  0
    2.8356   -1.2421   -2.4927 C   0  0  0  0  0  0  0  0  0  0  0  0
    3.5826   -0.2316   -1.7288 C   0  0  0  0  0  0  0  0  0  0  0  0
    3.1679    1.0905   -1.5701 C   0  0  0  0  0  0  0  0  0  0  0  0
    4.0578    1.7490   -0.7842 N   0  0  0  0  0  0  0  0  0  0  0  0
    5.0391    0.9049   -0.4248 C   0  0  0  0  0  0  0  0  0  0  0  0
    4.7496   -0.3128   -1.0045 C   0  0  0  0  0  0  0  0  0  0  0  0
    5.6368   -1.3365   -0.7892 C   0  0  0  0  0  0  0  0  0  0  0  0
    6.7797   -1.2012   -0.0338 C   0  0  0  0  0  0  0  0  0  0  0  0
    7.0687    0.0142    0.5457 C   0  0  0  0  0  0  0  0  0  0  0  0
    6.1739    1.0707    0.3364 C   0  0  0  0  0  0  0  0  0  0  0  0
    6.5224    2.2695    0.9464 O   0  0  0  0  0  0  0  0  0  0  0  0
    7.4428    3.4627    0.1658 S   0  0  0  0  0  0  0  0  0  0  0  0
    6.7158    4.7712    0.2993 O   0  0  0  0  0  0  0  0  0  0  0  0
    7.5347    3.0963   -1.2832 O   0  0  0  0  0  0  0  0  0  0  0  0
    9.0477    3.5339    0.9238 C   0  0  0  0  0  0  0  0  0  0  0  0
    1.0097   -1.0873   -0.9958 N   0  0  0  0  0  0  0  0  0  0  0  0
   -0.0251   -1.6861   -0.2057 C   0  0  0  0  0  0  0  0  0  0  0  0
   -0.9184   -0.5302    0.2606 C   0  0  1  0  0  0  0  0  0  0  0  0
   -2.0981   -1.1388    0.9190 C   0  0  0  0  0  0  0  0  0  0  0  0
   -2.0999   -1.5425    2.2365 C   0  0  0  0  0  0  0  0  0  0  0  0
   -3.2436   -2.1112    2.8053 C   0  0  0  0  0  0  0  0  0  0  0  0
   -4.4053   -2.2825    2.0553 C   0  0  0  0  0  0  0  0  0  0  0  0
   -4.4070   -1.8801    0.7379 C   0  0  0  0  0  0  0  0  0  0  0  0
   -3.2677   -1.3145    0.1744 C   0  0  0  0  0  0  0  0  0  0  0  0
   -5.5285   -2.0096   -0.1244 N   0  0  0  0  0  0  0  0  0  0  0  0
   -7.1331   -1.5742    0.3310 S   0  0  0  0  0  0  0  0  0  0  0  0
   -7.5710   -2.3098    1.5692 O   0  0  0  0  0  0  0  0  0  0  0  0
   -8.0556   -1.8808   -0.7992 O   0  0  0  0  0  0  0  0  0  0  0  0
   -7.1625    0.1422    0.6943 C   0  0  0  0  0  0  0  0  0  0  0  0
   -6.9331    0.6231    1.9601 C   0  0  0  0  0  0  0  0  0  0  0  0
   -6.9687    1.9802    2.1913 C   0  0  0  0  0  0  0  0  0  0  0  0
   -7.2339    2.8549    1.1548 C   0  0  0  0  0  0  0  0  0  0  0  0
   -7.4669    2.3793   -0.1274 C   0  0  0  0  0  0  0  0  0  0  0  0
   -7.4335    1.0044   -0.3743 C   0  0  0  0  0  0  0  0  0  0  0  0
   -7.7438    3.2766   -1.2113 N   0  0  0  0  0  0  0  0  0  0  0  0
   -0.2501    0.3972    1.0168 O   0  0  0  0  0  0  0  0  0  0  0  0
    3.4477   -3.4352   -0.8957 H   0  0  0  0  0  0  0  0  0  0  0  0
    3.0835   -2.1091    0.2431 H   0  0  0  0  0  0  0  0  0  0  0  0
    1.8952   -3.3962    0.0801 H   0  0  0  0  0  0  0  0  0  0  0  0
    1.3182   -2.7715   -2.2326 H   0  0  0  0  0  0  0  0  0  0  0  0
    3.5580   -1.8902   -3.0400 H   0  0  0  0  0  0  0  0  0  0  0  0
    2.1506   -0.7320   -3.2337 H   0  0  0  0  0  0  0  0  0  0  0  0
    2.2638    1.5456   -2.0044 H   0  0  0  0  0  0  0  0  0  0  0  0
    4.0063    2.7498   -0.4936 H   0  0  0  0  0  0  0  0  0  0  0  0
    5.4406   -2.2775   -1.2332 H   0  0  0  0  0  0  0  0  0  0  0  0
    7.4526   -2.0324    0.1103 H   0  0  0  0  0  0  0  0  0  0  0  0
    7.9690    0.1594    1.1542 H   0  0  0  0  0  0  0  0  0  0  0  0
    9.4023    4.5915    0.8693 H   0  0  0  0  0  0  0  0  0  0  0  0
    9.7313    2.8788    0.3428 H   0  0  0  0  0  0  0  0  0  0  0  0
    9.0131    3.2907    2.0060 H   0  0  0  0  0  0  0  0  0  0  0  0
    1.5259   -0.3441   -0.4763 H   0  0  0  0  0  0  0  0  0  0  0  0
   -0.6180   -2.4148   -0.7748 H   0  0  0  0  0  0  0  0  0  0  0  0
    0.4168   -2.1939    0.6979 H   0  0  0  0  0  0  0  0  0  0  0  0
   -1.2724   -0.0255   -0.6781 H   0  0  0  0  0  0  0  0  0  0  0  0
   -1.2024   -1.4179    2.8423 H   0  0  0  0  0  0  0  0  0  0  0  0
   -3.2675   -2.4367    3.8401 H   0  0  0  0  0  0  0  0  0  0  0  0
   -5.3034   -2.7194    2.4729 H   0  0  0  0  0  0  0  0  0  0  0  0
   -3.2651   -0.9974   -0.8592 H   0  0  0  0  0  0  0  0  0  0  0  0
   -5.3219   -2.4006   -1.0913 H   0  0  0  0  0  0  0  0  0  0  0  0
   -6.7282   -0.0936    2.7496 H   0  0  0  0  0  0  0  0  0  0  0  0
   -6.7842    2.3315    3.2014 H   0  0  0  0  0  0  0  0  0  0  0  0
   -7.2668    3.9099    1.3066 H   0  0  0  0  0  0  0  0  0  0  0  0
   -7.6139    0.6460   -1.3643 H   0  0  0  0  0  0  0  0  0  0  0  0
   -8.2272    4.1817   -1.0598 H   0  0  0  0  0  0  0  0  0  0  0  0
   -7.4683    3.0505   -2.1905 H   0  0  0  0  0  0  0  0  0  0  0  0
   -0.3232    0.2322    1.9752 H   0  0  0  0  0  0  0  0  0  0  0  0
  1  2  1  0
  2  3  1  0
  3  4  1  0
  4  5  2  0
  5  6  1  0
  6  7  1  0
  7  8  2  0
  8  9  1  0
  9 10  2  0
 10 11  1  0
 11 12  2  0
 12 13  1  0
 13 14  1  0
 14 15  2  0
 14 16  2  0
 14 17  1  0
  2 18  1  0
 18 19  1  0
 19 20  1  0
 20 21  1  0
 21 22  2  0
 22 23  1  0
 23 24  2  0
 24 25  1  0
 25 26  2  0
 25 27  1  0
 27 28  1  0
 28 29  2  0
 28 30  2  0
 28 31  1  0
 31 32  2  0
 32 33  1  0
 33 34  2  0
 34 35  1  0
 35 36  2  0
 35 37  1  0
 20 38  1  0
  8  4  1  0
 26 21  1  0
 36 31  1  0
 12  7  1  0
  1 39  1  0
  1 40  1  0
  1 41  1  0
  2 42  1  6
  3 43  1  0
  3 44  1  0
  5 45  1  0
  6 46  1  0
  9 47  1  0
 10 48  1  0
 11 49  1  0
 17 50  1  0
 17 51  1  0
 17 52  1  0
 18 53  1  0
 19 54  1  0
 19 55  1  0
 20 56  1  6
 22 57  1  0
 23 58  1  0
 24 59  1  0
 26 60  1  0
 27 61  1  0
 32 62  1  0
 33 63  1  0
 34 64  1  0
 36 65  1  0
 37 66  1  0
 37 67  1  0
 38 68  1  0
M  END
>  <Ligand ID>  (1) 
LIG0002221

>  <Ligand>  (1) 
CHEMBL2260985

>  <SMILES>  (1) 
C[C@H](Cc1c[nH]c2c1cccc2OS(=O)(=O)C)NC[C@@H](c1cccc(c1)NS(=O)(=O)c1cccc(c1)N)O

>  <CID>  (1) 
76333795.0

>  <ChEMBL ID>  (1) 
nan

>  <InChiKey>  (1) 
DJQIFFIREHYQCT-OSPHWJPCSA-N

>  <InChi>  (1) 
InChI=1S/C26H30N4O6S2/c1-17(12-19-15-29-26-23(19)10-5-11-25(26)36-37(2,32)33)28-16-24(31)18-6-3-8-21(13-18)30-38(34,35)22-9-4-7-20(27)14-22/h3-11,13-15,17,24,28-31H,12,16,27H2,1-2H3/t17-,24+/m1/s1

>  <IUPAC Name>  (1) 
[3-[(2R)-2-[[(2R)-2-[3-[(3-aminophenyl)sulfonylamino]phenyl]-2-hydroxyethyl]amino]propyl]-1H-indol-7-yl] methanesulfonate

$$$$
