
     RDKit          3D

 55 58  0  0  0  0  0  0  0  0999 V2000
    1.6219    2.9745   -1.6168 C   0  0  0  0  0  0  0  0  0  0  0  0
    2.7913    2.5608   -0.9629 O   0  0  0  0  0  0  0  0  0  0  0  0
    2.9399    1.3211   -0.3628 C   0  0  0  0  0  0  0  0  0  0  0  0
    1.9432    0.3696   -0.3524 C   0  0  0  0  0  0  0  0  0  0  0  0
    2.1751   -0.8389    0.2676 C   0  0  0  0  0  0  0  0  0  0  0  0
    3.3678   -1.1502    0.8868 C   0  0  0  0  0  0  0  0  0  0  0  0
    4.3611   -0.1955    0.8736 C   0  0  0  0  0  0  0  0  0  0  0  0
    4.1341    1.0233    0.2508 C   0  0  0  0  0  0  0  0  0  0  0  0
    5.1373    1.9608    0.2489 O   0  0  0  0  0  0  0  0  0  0  0  0
    6.3976    1.7430    0.8545 C   0  0  0  0  0  0  0  0  0  0  0  0
    3.5513   -2.3588    1.4925 N   0  0  0  0  0  0  0  0  0  0  0  0
    2.5680   -3.2888    1.5038 C   0  0  0  0  0  0  0  0  0  0  0  0
    1.3914   -3.0035    0.9022 N   0  0  0  0  0  0  0  0  0  0  0  0
    1.1896   -1.7997    0.2908 C   0  0  0  0  0  0  0  0  0  0  0  0
   -0.0872   -1.6343   -0.3198 N   0  0  0  0  0  0  0  0  0  0  0  0
   -0.2640   -1.5113   -1.7583 C   0  0  0  0  0  0  0  0  0  0  0  0
   -1.3236   -0.5081   -2.1454 C   0  0  0  0  0  0  0  0  0  0  0  0
   -2.3824   -0.4596   -1.1107 N   0  0  0  0  0  0  0  0  0  0  0  0
   -2.4662   -1.5967   -0.2562 C   0  0  0  0  0  0  0  0  0  0  0  0
   -1.2262   -1.5911    0.6053 C   0  0  0  0  0  0  0  0  0  0  0  0
   -3.1883    0.6854   -1.0944 C   0  0  0  0  0  0  0  0  0  0  0  0
   -3.1546    1.6021   -2.1347 C   0  0  0  0  0  0  0  0  0  0  0  0
   -3.9406    2.7337   -2.1723 C   0  0  0  0  0  0  0  0  0  0  0  0
   -4.8234    3.0224   -1.1543 C   0  0  0  0  0  0  0  0  0  0  0  0
   -4.8769    2.1282   -0.1082 C   0  0  0  0  0  0  0  0  0  0  0  0
   -4.0884    0.9924   -0.0693 C   0  0  0  0  0  0  0  0  0  0  0  0
   -4.2039    0.1519    1.0159 O   0  0  0  0  0  0  0  0  0  0  0  0
   -5.1092    0.4521    2.0561 C   0  0  0  0  0  0  0  0  0  0  0  0
    2.8303   -4.5864    2.1810 C   0  0  0  0  0  0  0  0  0  0  0  0
    1.6423    4.1002   -1.6920 H   0  0  0  0  0  0  0  0  0  0  0  0
    1.6125    2.5633   -2.6472 H   0  0  0  0  0  0  0  0  0  0  0  0
    0.7111    2.7233   -1.0509 H   0  0  0  0  0  0  0  0  0  0  0  0
    1.0022    0.5806   -0.8191 H   0  0  0  0  0  0  0  0  0  0  0  0
    5.3185   -0.3960    1.3490 H   0  0  0  0  0  0  0  0  0  0  0  0
    6.3045    1.3921    1.9102 H   0  0  0  0  0  0  0  0  0  0  0  0
    6.9278    0.9712    0.2601 H   0  0  0  0  0  0  0  0  0  0  0  0
    6.9650    2.6962    0.8784 H   0  0  0  0  0  0  0  0  0  0  0  0
    0.6786   -1.2728   -2.2546 H   0  0  0  0  0  0  0  0  0  0  0  0
   -0.6541   -2.5234   -2.0819 H   0  0  0  0  0  0  0  0  0  0  0  0
   -0.9017    0.4925   -2.2752 H   0  0  0  0  0  0  0  0  0  0  0  0
   -1.8302   -0.8737   -3.0581 H   0  0  0  0  0  0  0  0  0  0  0  0
   -2.3163   -2.4971   -0.9392 H   0  0  0  0  0  0  0  0  0  0  0  0
   -3.3980   -1.7992    0.2476 H   0  0  0  0  0  0  0  0  0  0  0  0
   -1.1962   -2.4269    1.3295 H   0  0  0  0  0  0  0  0  0  0  0  0
   -1.2101   -0.6529    1.1939 H   0  0  0  0  0  0  0  0  0  0  0  0
   -2.4912    1.4723   -3.0021 H   0  0  0  0  0  0  0  0  0  0  0  0
   -3.8958    3.4346   -2.9962 H   0  0  0  0  0  0  0  0  0  0  0  0
   -5.4615    3.8805   -1.1197 H   0  0  0  0  0  0  0  0  0  0  0  0
   -5.5696    2.3280    0.7194 H   0  0  0  0  0  0  0  0  0  0  0  0
   -4.9088   -0.3196    2.8467 H   0  0  0  0  0  0  0  0  0  0  0  0
   -4.9345    1.4287    2.5408 H   0  0  0  0  0  0  0  0  0  0  0  0
   -6.1709    0.3549    1.7302 H   0  0  0  0  0  0  0  0  0  0  0  0
    1.8535   -5.1437    2.2476 H   0  0  0  0  0  0  0  0  0  0  0  0
    3.1752   -4.4545    3.2249 H   0  0  0  0  0  0  0  0  0  0  0  0
    3.4829   -5.2568    1.5806 H   0  0  0  0  0  0  0  0  0  0  0  0
  1  2  1  0
  2  3  1  0
  3  4  2  0
  4  5  1  0
  5  6  2  0
  6  7  1  0
  7  8  2  0
  8  9  1  0
  9 10  1  0
  6 11  1  0
 11 12  2  0
 12 13  1  0
 13 14  2  0
 14 15  1  0
 15 16  1  0
 16 17  1  0
 17 18  1  0
 18 19  1  0
 19 20  1  0
 18 21  1  0
 21 22  2  0
 22 23  1  0
 23 24  2  0
 24 25  1  0
 25 26  2  0
 26 27  1  0
 27 28  1  0
 12 29  1  0
  8  3  1  0
 20 15  1  0
 26 21  1  0
 14  5  1  0
  1 30  1  0
  1 31  1  0
  1 32  1  0
  4 33  1  0
  7 34  1  0
 10 35  1  0
 10 36  1  0
 10 37  1  0
 16 38  1  0
 16 39  1  0
 17 40  1  0
 17 41  1  0
 19 42  1  0
 19 43  1  0
 20 44  1  0
 20 45  1  0
 22 46  1  0
 23 47  1  0
 24 48  1  0
 25 49  1  0
 28 50  1  0
 28 51  1  0
 28 52  1  0
 29 53  1  0
 29 54  1  0
 29 55  1  0
M  END
>  <Ligand ID>  (1) 
LIG0003932

>  <Ligand>  (1) 
CHEMBL2431113

>  <SMILES>  (1) 
COc1cc2c(cc1OC)nc(nc2N1CCN(CC1)c1ccccc1OC)C

>  <CID>  (1) 
52914826.0

>  <ChEMBL ID>  (1) 
nan

>  <InChiKey>  (1) 
CCQPDXZIANCXGP-UHFFFAOYSA-N

>  <InChi>  (1) 
InChI=1S/C22H26N4O3/c1-15-23-17-14-21(29-4)20(28-3)13-16(17)22(24-15)26-11-9-25(10-12-26)18-7-5-6-8-19(18)27-2/h5-8,13-14H,9-12H2,1-4H3

>  <IUPAC Name>  (1) 
6,7-dimethoxy-4-[4-(2-methoxyphenyl)piperazin-1-yl]-2-methylquinazoline

$$$$
