
     RDKit          3D

 31 32  0  0  0  0  0  0  0  0999 V2000
    4.4263    1.0248    0.3214 C   0  0  0  0  0  0  0  0  0  0  0  0
    3.7908   -0.2399    0.3802 O   0  0  0  0  0  0  0  0  0  0  0  0
    2.4427   -0.3535    0.1769 C   0  0  0  0  0  0  0  0  0  0  0  0
    1.5920    0.6943   -0.0942 C   0  0  0  0  0  0  0  0  0  0  0  0
    0.2233    0.5148   -0.2923 C   0  0  0  0  0  0  0  0  0  0  0  0
   -0.4262    1.7975   -0.5609 C   0  0  0  0  0  0  0  0  0  0  0  0
   -1.8332    1.9382   -0.1119 C   0  0  0  0  0  0  0  0  0  0  0  0
   -2.4126    0.8067    0.5341 N   0  0  0  0  0  0  0  0  0  0  0  0
   -2.7209   -0.1735   -0.4776 C   0  0  0  0  0  0  0  0  0  0  0  0
   -1.6794   -1.2414   -0.3756 C   0  0  0  0  0  0  0  0  0  0  0  0
   -0.3067   -0.7354   -0.2184 C   0  0  0  0  0  0  0  0  0  0  0  0
    0.5365   -1.8111    0.0551 C   0  0  0  0  0  0  0  0  0  0  0  0
    1.8828   -1.6183    0.2479 C   0  0  0  0  0  0  0  0  0  0  0  0
    2.9024   -2.9989    0.5887 Cl  0  0  0  0  0  0  0  0  0  0  0  0
   -1.9743   -2.0554    0.8883 C   0  0  0  0  0  0  0  0  0  0  0  0
    4.0270    1.6658   -0.4760 H   0  0  0  0  0  0  0  0  0  0  0  0
    4.3525    1.4591    1.3438 H   0  0  0  0  0  0  0  0  0  0  0  0
    5.4899    0.8243    0.0538 H   0  0  0  0  0  0  0  0  0  0  0  0
    2.0079    1.6921   -0.1543 H   0  0  0  0  0  0  0  0  0  0  0  0
   -0.3138    2.0585   -1.6536 H   0  0  0  0  0  0  0  0  0  0  0  0
    0.1656    2.5879   -0.0116 H   0  0  0  0  0  0  0  0  0  0  0  0
   -2.4751    2.1483   -1.0180 H   0  0  0  0  0  0  0  0  0  0  0  0
   -2.0010    2.8261    0.5651 H   0  0  0  0  0  0  0  0  0  0  0  0
   -3.3154    1.1171    0.9576 H   0  0  0  0  0  0  0  0  0  0  0  0
   -2.8235    0.2265   -1.4932 H   0  0  0  0  0  0  0  0  0  0  0  0
   -3.7062   -0.6584   -0.2366 H   0  0  0  0  0  0  0  0  0  0  0  0
   -1.7976   -1.9470   -1.2255 H   0  0  0  0  0  0  0  0  0  0  0  0
    0.1347   -2.8190    0.1188 H   0  0  0  0  0  0  0  0  0  0  0  0
   -3.0500   -1.9234    1.1644 H   0  0  0  0  0  0  0  0  0  0  0  0
   -1.3362   -1.6883    1.7381 H   0  0  0  0  0  0  0  0  0  0  0  0
   -1.8019   -3.1188    0.7007 H   0  0  0  0  0  0  0  0  0  0  0  0
  1  2  1  0
  2  3  1  0
  3  4  2  0
  4  5  1  0
  5  6  1  0
  6  7  1  0
  7  8  1  0
  8  9  1  0
  9 10  1  0
 10 11  1  0
 11 12  1  0
 12 13  2  0
 13 14  1  0
 10 15  1  0
 13  3  1  0
 11  5  2  0
  1 16  1  0
  1 17  1  0
  1 18  1  0
  4 19  1  0
  6 20  1  0
  6 21  1  0
  7 22  1  0
  7 23  1  0
  8 24  1  0
  9 25  1  0
  9 26  1  0
 10 27  1  0
 12 28  1  0
 15 29  1  0
 15 30  1  0
 15 31  1  0
M  END
>  <Ligand ID>  (1) 
LIG0004030

>  <Ligand>  (1) 
CHEMBL181787

>  <SMILES>  (1) 
COc1cc2CCNCC(c2cc1Cl)C

>  <CID>  (1) 
10036629.0

>  <ChEMBL ID>  (1) 
nan

>  <InChiKey>  (1) 
SJJIKXOJEDKQRJ-UHFFFAOYSA-N

>  <InChi>  (1) 
InChI=1S/C12H16ClNO/c1-8-7-14-4-3-9-5-12(15-2)11(13)6-10(8)9/h5-6,8,14H,3-4,7H2,1-2H3

>  <IUPAC Name>  (1) 
7-chloro-8-methoxy-5-methyl-2,3,4,5-tetrahydro-1H-3-benzazepine

$$$$
