
     RDKit          3D

 38 39  0  0  0  0  0  0  0  0999 V2000
   -5.6622    1.6587   -0.6420 O   0  0  0  0  0  0  0  0  0  0  0  0
   -4.9934    0.5110   -0.2747 C   0  0  0  0  0  0  0  0  0  0  0  0
   -4.2805   -0.0857   -1.1426 O   0  0  0  0  0  0  0  0  0  0  0  0
   -5.0528   -0.0784    1.0816 C   0  0  0  0  0  0  0  0  0  0  0  0
   -3.7884    0.2444    1.8391 C   0  0  0  0  0  0  0  0  0  0  0  0
   -2.5827   -0.2925    1.1580 C   0  0  0  0  0  0  0  0  0  0  0  0
   -2.0890   -1.5472    1.4148 C   0  0  0  0  0  0  0  0  0  0  0  0
   -0.9744   -2.0012    0.7636 C   0  0  0  0  0  0  0  0  0  0  0  0
   -0.2865   -1.2132   -0.1913 C   0  0  0  0  0  0  0  0  0  0  0  0
   -0.8308    0.0274   -0.4013 C   0  0  0  0  0  0  0  0  0  0  0  0
   -1.9518    0.5057    0.2427 C   0  0  0  0  0  0  0  0  0  0  0  0
    0.7840   -1.7740   -0.7547 O   0  0  0  0  0  0  0  0  0  0  0  0
    1.7104   -1.4112   -1.6599 C   0  0  0  0  0  0  0  0  0  0  0  0
    2.5344   -0.2613   -1.2442 C   0  0  0  0  0  0  0  0  0  0  0  0
    2.3671    1.0425   -1.6022 C   0  0  0  0  0  0  0  0  0  0  0  0
    3.2144    2.0464   -1.1249 C   0  0  0  0  0  0  0  0  0  0  0  0
    4.2609    1.7565   -0.2674 C   0  0  0  0  0  0  0  0  0  0  0  0
    4.4327    0.4505    0.0942 C   0  0  0  0  0  0  0  0  0  0  0  0
    3.5965   -0.5395   -0.3766 C   0  0  0  0  0  0  0  0  0  0  0  0
    5.5465    0.0477    1.0244 C   0  0  0  0  0  0  0  0  0  0  0  0
    4.9590   -0.8411    1.9288 F   0  0  0  0  0  0  0  0  0  0  0  0
    6.4623   -0.6838    0.2862 F   0  0  0  0  0  0  0  0  0  0  0  0
    6.0960    1.1195    1.6599 F   0  0  0  0  0  0  0  0  0  0  0  0
   -5.8335    1.9298   -1.6072 H   0  0  0  0  0  0  0  0  0  0  0  0
   -5.3125   -1.1547    1.0907 H   0  0  0  0  0  0  0  0  0  0  0  0
   -5.8832    0.4544    1.6107 H   0  0  0  0  0  0  0  0  0  0  0  0
   -3.8764   -0.1089    2.8765 H   0  0  0  0  0  0  0  0  0  0  0  0
   -3.7466    1.3573    1.8954 H   0  0  0  0  0  0  0  0  0  0  0  0
   -2.6043   -2.1659    2.1440 H   0  0  0  0  0  0  0  0  0  0  0  0
   -0.6304   -2.9968    1.0065 H   0  0  0  0  0  0  0  0  0  0  0  0
   -0.3766    0.6830   -1.1199 H   0  0  0  0  0  0  0  0  0  0  0  0
   -2.3249    1.5137    0.0166 H   0  0  0  0  0  0  0  0  0  0  0  0
    1.2926   -1.2212   -2.6937 H   0  0  0  0  0  0  0  0  0  0  0  0
    2.4581   -2.2525   -1.8706 H   0  0  0  0  0  0  0  0  0  0  0  0
    1.5666    1.2897   -2.2758 H   0  0  0  0  0  0  0  0  0  0  0  0
    3.0820    3.0738   -1.4071 H   0  0  0  0  0  0  0  0  0  0  0  0
    4.9359    2.4882    0.1262 H   0  0  0  0  0  0  0  0  0  0  0  0
    3.7814   -1.5709   -0.0532 H   0  0  0  0  0  0  0  0  0  0  0  0
  1  2  1  0
  2  3  2  0
  2  4  1  0
  4  5  1  0
  5  6  1  0
  6  7  2  0
  7  8  1  0
  8  9  2  0
  9 10  1  0
 10 11  2  0
  9 12  1  0
 12 13  1  0
 13 14  1  0
 14 15  2  0
 15 16  1  0
 16 17  2  0
 17 18  1  0
 18 19  2  0
 18 20  1  0
 20 21  1  0
 20 22  1  0
 20 23  1  0
 11  6  1  0
 19 14  1  0
  1 24  1  0
  4 25  1  0
  4 26  1  0
  5 27  1  0
  5 28  1  0
  7 29  1  0
  8 30  1  0
 10 31  1  0
 11 32  1  0
 13 33  1  0
 13 34  1  0
 15 35  1  0
 16 36  1  0
 17 37  1  0
 19 38  1  0
M  END
>  <Ligand ID>  (1) 
LIG0005814

>  <Ligand>  (1) 
CHEMBL1773257

>  <SMILES>  (1) 
OC(=O)CCc1ccc(cc1)OCc1cccc(c1)C(F)(F)F

>  <CID>  (1) 
54586011.0

>  <ChEMBL ID>  (1) 
nan

>  <InChiKey>  (1) 
CRICRAIMRZEPOA-UHFFFAOYSA-N

>  <InChi>  (1) 
InChI=1S/C17H15F3O3/c18-17(19,20)14-3-1-2-13(10-14)11-23-15-7-4-12(5-8-15)6-9-16(21)22/h1-5,7-8,10H,6,9,11H2,(H,21,22)

>  <IUPAC Name>  (1) 
3-[4-[[3-(trifluoromethyl)phenyl]methoxy]phenyl]propanoic acid

$$$$
