
     RDKit          3D

 20 20  0  0  0  0  0  0  0  0999 V2000
    2.6629   -1.4489   -0.7145 C   0  0  0  0  0  0  0  0  0  0  0  0
    1.3443   -1.4686   -0.1964 O   0  0  0  0  0  0  0  0  0  0  0  0
    0.6560   -0.2457   -0.2093 C   0  0  0  0  0  0  0  0  0  0  0  0
    1.2348    0.9079   -0.6997 C   0  0  0  0  0  0  0  0  0  0  0  0
    0.5557    2.1233   -0.7144 C   0  0  0  0  0  0  0  0  0  0  0  0
   -0.7325    2.1757   -0.2247 C   0  0  0  0  0  0  0  0  0  0  0  0
   -1.3387    1.0391    0.2726 C   0  0  0  0  0  0  0  0  0  0  0  0
   -0.6485   -0.1579    0.2787 C   0  0  0  0  0  0  0  0  0  0  0  0
   -1.1902   -1.3427    0.7619 O   0  0  0  0  0  0  0  0  0  0  0  0
   -2.5113   -1.3282    1.2732 C   0  0  0  0  0  0  0  0  0  0  0  0
    3.3053   -0.8082   -0.0475 H   0  0  0  0  0  0  0  0  0  0  0  0
    2.7017   -1.0364   -1.7435 H   0  0  0  0  0  0  0  0  0  0  0  0
    3.0739   -2.4712   -0.6345 H   0  0  0  0  0  0  0  0  0  0  0  0
    2.2312    0.8420   -1.0727 H   0  0  0  0  0  0  0  0  0  0  0  0
    1.0017    3.0136   -1.0926 H   0  0  0  0  0  0  0  0  0  0  0  0
   -1.3046    3.0843   -0.2105 H   0  0  0  0  0  0  0  0  0  0  0  0
   -2.3506    1.0782    0.6577 H   0  0  0  0  0  0  0  0  0  0  0  0
   -3.2809   -1.2622    0.4588 H   0  0  0  0  0  0  0  0  0  0  0  0
   -2.7124   -0.4660    1.9421 H   0  0  0  0  0  0  0  0  0  0  0  0
   -2.6977   -2.2280    1.9152 H   0  0  0  0  0  0  0  0  0  0  0  0
  1  2  1  0
  2  3  1  0
  3  4  2  0
  4  5  1  0
  5  6  2  0
  6  7  1  0
  7  8  2  0
  8  9  1  0
  9 10  1  0
  8  3  1  0
  1 11  1  0
  1 12  1  0
  1 13  1  0
  4 14  1  0
  5 15  1  0
  6 16  1  0
  7 17  1  0
 10 18  1  0
 10 19  1  0
 10 20  1  0
M  END
>  <Ligand ID>  (1) 
LIG0000320

>  <Ligand>  (1) 
1,2-dimethoxybenzene

>  <SMILES>  (1) 
COc1ccccc1OC

>  <CID>  (1) 
7043.0

>  <ChEMBL ID>  (1) 
nan

>  <InChiKey>  (1) 
ABDKAPXRBAPSQN-UHFFFAOYSA-N

>  <InChi>  (1) 
InChI=1S/C8H10O2/c1-9-7-5-3-4-6-8(7)10-2/h3-6H,1-2H3

>  <IUPAC Name>  (1) 
1,2-dimethoxybenzene

$$$$
