
     RDKit          3D

 70 74  0  0  0  0  0  0  0  0999 V2000
   -1.4427    5.6179   -4.0736 N   0  0  0  0  0  0  0  0  0  0  0  0
   -0.9038    4.3607   -3.6600 C   0  0  0  0  0  0  0  0  0  0  0  0
    0.3493    4.2298   -3.5025 O   0  0  0  0  0  0  0  0  0  0  0  0
   -1.7834    3.1757   -3.4030 C   0  0  0  0  0  0  0  0  0  0  0  0
   -0.9566    1.9949   -2.9866 C   0  0  0  0  0  0  0  0  0  0  0  0
   -1.8084    0.8176   -2.7260 C   0  0  0  0  0  0  0  0  0  0  0  0
   -3.0525    0.7903   -2.8745 O   0  0  0  0  0  0  0  0  0  0  0  0
   -1.1737   -0.3675   -2.2749 N   0  0  0  0  0  0  0  0  0  0  0  0
   -1.9169   -1.5999   -1.9798 C   0  0  0  0  0  0  0  0  0  0  0  0
   -1.8150   -1.7662   -0.4928 C   0  0  0  0  0  0  0  0  0  0  0  0
   -2.8090   -2.2318    0.2409 C   0  0  0  0  0  0  0  0  0  0  0  0
   -4.1077   -2.6348   -0.3276 C   0  0  0  0  0  0  0  0  0  0  0  0
   -5.2669   -2.2224    0.3411 C   0  0  0  0  0  0  0  0  0  0  0  0
   -6.5123   -2.5910   -0.1398 C   0  0  0  0  0  0  0  0  0  0  0  0
   -6.6364   -3.3678   -1.2813 C   0  0  0  0  0  0  0  0  0  0  0  0
   -5.4769   -3.7482   -1.9024 C   0  0  0  0  0  0  0  0  0  0  0  0
   -4.2150   -3.4063   -1.4613 C   0  0  0  0  0  0  0  0  0  0  0  0
   -7.8312   -3.7332   -1.7594 F   0  0  0  0  0  0  0  0  0  0  0  0
   -0.5371   -1.3931    0.1278 C   0  0  0  0  0  0  0  0  0  0  0  0
    0.4769   -0.7705   -0.6006 C   0  0  0  0  0  0  0  0  0  0  0  0
    0.2718   -0.4589   -2.0604 C   0  0  0  0  0  0  0  0  0  0  0  0
    1.5598   -0.5362    0.2133 C   0  0  0  0  0  0  0  0  0  0  0  0
    1.2007   -1.0127    1.4196 N   0  0  0  0  0  0  0  0  0  0  0  0
   -0.0477   -1.5203    1.3587 N   0  0  0  0  0  0  0  0  0  0  0  0
   -0.6315   -2.0868    2.5355 C   0  0  0  0  0  0  0  0  0  0  0  0
   -0.5404   -3.4715    2.7360 C   0  0  0  0  0  0  0  0  0  0  0  0
   -1.0941   -4.0192    3.8900 C   0  0  0  0  0  0  0  0  0  0  0  0
   -1.7221   -3.2278    4.8250 C   0  0  0  0  0  0  0  0  0  0  0  0
   -1.8184   -1.8514    4.6363 C   0  0  0  0  0  0  0  0  0  0  0  0
   -1.2711   -1.2802    3.4875 C   0  0  0  0  0  0  0  0  0  0  0  0
   -1.3768    0.4468    3.2210 Cl  0  0  0  0  0  0  0  0  0  0  0  0
   -2.3835   -3.9957    6.2347 Cl  0  0  0  0  0  0  0  0  0  0  0  0
    2.8102    0.0939   -0.1952 C   0  0  0  0  0  0  0  0  0  0  0  0
    2.9383    0.4605   -1.3912 O   0  0  0  0  0  0  0  0  0  0  0  0
    3.8582    0.2915    0.7242 N   0  0  0  0  0  0  0  0  0  0  0  0
    5.0927    0.9107    0.3203 C   0  0  1  0  0  0  0  0  0  0  0  0
    5.3158    2.2096    1.0482 C   0  0  0  0  0  0  0  0  0  0  0  0
    5.0934    2.3016    2.4202 C   0  0  0  0  0  0  0  0  0  0  0  0
    5.3062    3.5124    3.0873 C   0  0  0  0  0  0  0  0  0  0  0  0
    5.7372    4.5866    2.3376 C   0  0  0  0  0  0  0  0  0  0  0  0
    5.9608    4.5014    0.9689 C   0  0  0  0  0  0  0  0  0  0  0  0
    5.7421    3.3149    0.3719 N   0  0  0  0  0  0  0  0  0  0  0  0
    6.2390   -0.0257    0.6018 C   0  0  0  0  0  0  0  0  0  0  0  0
   -0.9032    6.4680   -3.7497 H   0  0  0  0  0  0  0  0  0  0  0  0
   -2.3022    5.7120   -4.6512 H   0  0  0  0  0  0  0  0  0  0  0  0
   -2.4195    3.0062   -4.2854 H   0  0  0  0  0  0  0  0  0  0  0  0
   -2.4414    3.4759   -2.5454 H   0  0  0  0  0  0  0  0  0  0  0  0
   -0.2049    1.8040   -3.7798 H   0  0  0  0  0  0  0  0  0  0  0  0
   -0.4267    2.2705   -2.0571 H   0  0  0  0  0  0  0  0  0  0  0  0
   -2.9689   -1.4519   -2.2811 H   0  0  0  0  0  0  0  0  0  0  0  0
   -1.4748   -2.4075   -2.5523 H   0  0  0  0  0  0  0  0  0  0  0  0
   -2.7156   -2.3359    1.2920 H   0  0  0  0  0  0  0  0  0  0  0  0
   -5.1926   -1.6138    1.2366 H   0  0  0  0  0  0  0  0  0  0  0  0
   -7.4388   -2.3016    0.3353 H   0  0  0  0  0  0  0  0  0  0  0  0
   -5.5451   -4.3576   -2.7992 H   0  0  0  0  0  0  0  0  0  0  0  0
   -3.3523   -3.7581   -2.0062 H   0  0  0  0  0  0  0  0  0  0  0  0
    0.7070    0.5161   -2.2970 H   0  0  0  0  0  0  0  0  0  0  0  0
    0.7057   -1.2294   -2.7004 H   0  0  0  0  0  0  0  0  0  0  0  0
   -0.0436   -4.1105    2.0003 H   0  0  0  0  0  0  0  0  0  0  0  0
   -0.9945   -5.1047    3.9962 H   0  0  0  0  0  0  0  0  0  0  0  0
   -2.3221   -1.2434    5.3929 H   0  0  0  0  0  0  0  0  0  0  0  0
    3.7837   -0.0012    1.7297 H   0  0  0  0  0  0  0  0  0  0  0  0
    5.0627    1.1733   -0.7763 H   0  0  0  0  0  0  0  0  0  0  0  0
    4.7513    1.4367    2.9953 H   0  0  0  0  0  0  0  0  0  0  0  0
    5.1453    3.6215    4.1464 H   0  0  0  0  0  0  0  0  0  0  0  0
    5.9218    5.5552    2.7923 H   0  0  0  0  0  0  0  0  0  0  0  0
    6.2983    5.3686    0.4222 H   0  0  0  0  0  0  0  0  0  0  0  0
    6.9486    0.4881    1.2803 H   0  0  0  0  0  0  0  0  0  0  0  0
    5.8559   -0.9153    1.1328 H   0  0  0  0  0  0  0  0  0  0  0  0
    6.7443   -0.3631   -0.3262 H   0  0  0  0  0  0  0  0  0  0  0  0
  1  2  1  0
  2  3  2  0
  2  4  1  0
  4  5  1  0
  5  6  1  0
  6  7  2  0
  6  8  1  0
  8  9  1  0
  9 10  1  0
 10 11  2  0
 11 12  1  0
 12 13  2  0
 13 14  1  0
 14 15  2  0
 15 16  1  0
 16 17  2  0
 15 18  1  0
 10 19  1  0
 19 20  2  0
 20 21  1  0
 20 22  1  0
 22 23  2  0
 23 24  1  0
 24 25  1  0
 25 26  2  0
 26 27  1  0
 27 28  2  0
 28 29  1  0
 29 30  2  0
 30 31  1  0
 28 32  1  0
 22 33  1  0
 33 34  2  0
 33 35  1  0
 35 36  1  0
 36 37  1  0
 37 38  2  0
 38 39  1  0
 39 40  2  0
 40 41  1  0
 41 42  2  0
 36 43  1  0
 21  8  1  0
 30 25  1  0
 42 37  1  0
 17 12  1  0
 24 19  1  0
  1 44  1  0
  1 45  1  0
  4 46  1  0
  4 47  1  0
  5 48  1  0
  5 49  1  0
  9 50  1  0
  9 51  1  0
 11 52  1  0
 13 53  1  0
 14 54  1  0
 16 55  1  0
 17 56  1  0
 21 57  1  0
 21 58  1  0
 26 59  1  0
 27 60  1  0
 29 61  1  0
 35 62  1  0
 36 63  1  6
 38 64  1  0
 39 65  1  0
 40 66  1  0
 41 67  1  0
 43 68  1  0
 43 69  1  0
 43 70  1  0
M  END
>  <Ligand ID>  (1) 
LIG0005436

>  <Ligand>  (1) 
CHEMBL3933518

>  <SMILES>  (1) 
NC(=O)CCC(=O)N1C/C(=C\c2ccc(cc2)F)/c2c(C1)c(nn2c1ccc(cc1Cl)Cl)C(=O)N[C@@H](c1ccccn1)C

>  <CID>  (1) 
134138518.0

>  <ChEMBL ID>  (1) 
nan

>  <InChiKey>  (1) 
NMAQFBQMZAVAOA-SQVRNEIYSA-N

>  <InChi>  (1) 
InChI=1S/C31H27Cl2FN6O3/c1-18(25-4-2-3-13-36-25)37-31(43)29-23-17-39(28(42)12-11-27(35)41)16-20(14-19-5-8-22(34)9-6-19)30(23)40(38-29)26-10-7-21(32)15-24(26)33/h2-10,13-15,18H,11-12,16-17H2,1H3,(H2,35,41)(H,37,43)/b20-14+/t18-/m1/s1

>  <IUPAC Name>  (1) 
(7E)-5-(4-amino-4-oxobutanoyl)-1-(2,4-dichlorophenyl)-7-[(4-fluorophenyl)methylidene]-N-[(1R)-1-pyridin-2-ylethyl]-4,6-dihydropyrazolo[4,3-c]pyridine-3-carboxamide

$$$$
