
     RDKit          3D

 39 42  0  0  0  0  0  0  0  0999 V2000
    6.1511    1.5307    0.1637 C   0  0  0  0  0  0  0  0  0  0  0  0
    4.7835    0.9479    0.1458 C   0  0  0  0  0  0  0  0  0  0  0  0
    4.4797   -0.2325    0.7558 C   0  0  0  0  0  0  0  0  0  0  0  0
    3.2063   -0.7558    0.7278 C   0  0  0  0  0  0  0  0  0  0  0  0
    2.2048   -0.0505    0.0533 C   0  0  0  0  0  0  0  0  0  0  0  0
    2.4863    1.1577   -0.5788 C   0  0  0  0  0  0  0  0  0  0  0  0
    3.7850    1.6220   -0.5097 C   0  0  0  0  0  0  0  0  0  0  0  0
    0.8839   -0.5759    0.0141 N   0  0  0  0  0  0  0  0  0  0  0  0
    0.6431   -1.8828   -0.1470 N   0  0  0  0  0  0  0  0  0  0  0  0
   -0.6689   -2.0880   -0.1457 C   0  0  0  0  0  0  0  0  0  0  0  0
   -1.2670   -0.8550    0.0236 C   0  0  0  0  0  0  0  0  0  0  0  0
   -0.2795    0.0898    0.1229 C   0  0  0  0  0  0  0  0  0  0  0  0
   -2.6309   -0.7523    0.0638 C   0  0  0  0  0  0  0  0  0  0  0  0
   -3.3472   -1.9016   -0.0688 N   0  0  0  0  0  0  0  0  0  0  0  0
   -2.7835   -3.0842   -0.2310 N   0  0  0  0  0  0  0  0  0  0  0  0
   -1.4501   -3.2089   -0.2733 C   0  0  0  0  0  0  0  0  0  0  0  0
   -0.7515   -4.5099   -0.4533 C   0  0  0  0  0  0  0  0  0  0  0  0
   -3.3544    0.5009    0.2365 C   0  0  0  0  0  0  0  0  0  0  0  0
   -3.0207    1.4480    1.1812 C   0  0  0  0  0  0  0  0  0  0  0  0
   -3.7513    2.6266    1.2927 C   0  0  0  0  0  0  0  0  0  0  0  0
   -4.8361    2.8706    0.4490 C   0  0  0  0  0  0  0  0  0  0  0  0
   -5.1770    1.9223   -0.5030 C   0  0  0  0  0  0  0  0  0  0  0  0
   -4.4428    0.7615   -0.5993 C   0  0  0  0  0  0  0  0  0  0  0  0
   -5.7638    4.3293    0.5652 Cl  0  0  0  0  0  0  0  0  0  0  0  0
    6.7347    1.1169   -0.6814 H   0  0  0  0  0  0  0  0  0  0  0  0
    6.6326    1.1889    1.1051 H   0  0  0  0  0  0  0  0  0  0  0  0
    6.1228    2.6334    0.0510 H   0  0  0  0  0  0  0  0  0  0  0  0
    5.2755   -0.7613    1.2733 H   0  0  0  0  0  0  0  0  0  0  0  0
    3.0077   -1.6964    1.2253 H   0  0  0  0  0  0  0  0  0  0  0  0
    1.6975    1.6948   -1.0993 H   0  0  0  0  0  0  0  0  0  0  0  0
    3.9801    2.5693   -1.0120 H   0  0  0  0  0  0  0  0  0  0  0  0
   -0.4122    1.1509    0.2592 H   0  0  0  0  0  0  0  0  0  0  0  0
   -1.4766   -5.2603   -0.8476 H   0  0  0  0  0  0  0  0  0  0  0  0
    0.0831   -4.4502   -1.1781 H   0  0  0  0  0  0  0  0  0  0  0  0
   -0.3147   -4.8687    0.5143 H   0  0  0  0  0  0  0  0  0  0  0  0
   -2.1969    1.2832    1.8391 H   0  0  0  0  0  0  0  0  0  0  0  0
   -3.4559    3.3557    2.0556 H   0  0  0  0  0  0  0  0  0  0  0  0
   -6.0241    2.0822   -1.1823 H   0  0  0  0  0  0  0  0  0  0  0  0
   -4.7527    0.0517   -1.3628 H   0  0  0  0  0  0  0  0  0  0  0  0
  1  2  1  0
  2  3  2  0
  3  4  1  0
  4  5  2  0
  5  6  1  0
  6  7  2  0
  5  8  1  0
  8  9  1  0
  9 10  2  0
 10 11  1  0
 11 12  2  0
 11 13  1  0
 13 14  2  0
 14 15  1  0
 15 16  2  0
 16 17  1  0
 13 18  1  0
 18 19  2  0
 19 20  1  0
 20 21  2  0
 21 22  1  0
 22 23  2  0
 21 24  1  0
  7  2  1  0
 12  8  1  0
 23 18  1  0
 16 10  1  0
  1 25  1  0
  1 26  1  0
  1 27  1  0
  3 28  1  0
  4 29  1  0
  6 30  1  0
  7 31  1  0
 12 32  1  0
 17 33  1  0
 17 34  1  0
 17 35  1  0
 19 36  1  0
 20 37  1  0
 22 38  1  0
 23 39  1  0
M  END
>  <Ligand ID>  (1) 
LIG0003827

>  <Ligand>  (1) 
4-(4-chlorophenyl)-7-methyl-2-(4-methylphenyl)pyrazolo[3,4-d]pyridazine

>  <SMILES>  (1) 
Cc1ccc(cc1)n1nc2c(c1)c(nnc2C)c1ccc(cc1)Cl

>  <CID>  (1) 
5188035.0

>  <ChEMBL ID>  (1) 
nan

>  <InChiKey>  (1) 
LPFIHJGBLGVTNU-UHFFFAOYSA-N

>  <InChi>  (1) 
InChI=1S/C19H15ClN4/c1-12-3-9-16(10-4-12)24-11-17-18(23-24)13(2)21-22-19(17)14-5-7-15(20)8-6-14/h3-11H,1-2H3

>  <IUPAC Name>  (1) 
4-(4-chlorophenyl)-7-methyl-2-(4-methylphenyl)pyrazolo[3,4-d]pyridazine

$$$$
