
     RDKit          3D

 99102  0  0  0  0  0  0  0  0999 V2000
   -6.5757   -3.2048    2.2187 C   0  0  0  0  0  0  0  0  0  0  0  0
   -6.0603   -1.8112    2.0386 C   0  0  0  0  0  0  0  0  0  0  0  0
   -6.7811   -0.8319    2.2987 O   0  0  0  0  0  0  0  0  0  0  0  0
   -4.7465   -1.6261    1.5693 N   0  0  0  0  0  0  0  0  0  0  0  0
   -4.1421   -0.3037    1.3566 C   0  0  2  0  0  0  0  0  0  0  0  0
   -3.6159   -0.3319   -0.0300 C   0  0  0  0  0  0  0  0  0  0  0  0
   -3.8333   -1.4186   -0.6705 O   0  0  0  0  0  0  0  0  0  0  0  0
   -2.9166    0.7378   -0.6462 N   0  0  0  0  0  0  0  0  0  0  0  0
   -2.4691    0.5385   -2.0072 C   0  0  2  0  0  0  0  0  0  0  0  0
   -0.9743    0.5005   -2.1167 C   0  0  0  0  0  0  0  0  0  0  0  0
   -0.5234    0.2236   -3.2763 O   0  0  0  0  0  0  0  0  0  0  0  0
   -0.1203    0.7548   -1.0079 N   0  0  0  0  0  0  0  0  0  0  0  0
    1.2967    0.6800   -1.2223 C   0  0  2  0  0  0  0  0  0  0  0  0
    2.0150    0.0490   -0.0922 C   0  0  0  0  0  0  0  0  0  0  0  0
    1.3098   -0.2709    0.9192 O   0  0  0  0  0  0  0  0  0  0  0  0
    3.4141   -0.1806   -0.1476 N   0  0  0  0  0  0  0  0  0  0  0  0
    4.1614   -0.7938    0.9500 C   0  0  1  0  0  0  0  0  0  0  0  0
    4.5050   -2.2165    0.6733 C   0  0  0  0  0  0  0  0  0  0  0  0
    5.2707   -2.8084    1.7874 C   0  0  0  0  0  0  0  0  0  0  0  0
    6.5704   -3.2753    1.6036 C   0  0  0  0  0  0  0  0  0  0  0  0
    7.2442   -3.8202    2.7034 C   0  0  0  0  0  0  0  0  0  0  0  0
    6.6383   -3.8935    3.9384 C   0  0  0  0  0  0  0  0  0  0  0  0
    5.3492   -3.4218    4.0878 C   0  0  0  0  0  0  0  0  0  0  0  0
    4.6426   -2.8746    3.0289 C   0  0  0  0  0  0  0  0  0  0  0  0
    5.1608   -2.5069   -0.6011 C   0  0  0  0  0  0  0  0  0  0  0  0
    6.1811   -1.7825   -1.1668 C   0  0  0  0  0  0  0  0  0  0  0  0
    6.7338   -2.1240   -2.3762 C   0  0  0  0  0  0  0  0  0  0  0  0
    6.2852   -3.2183   -3.0828 C   0  0  0  0  0  0  0  0  0  0  0  0
    5.2663   -3.9646   -2.5441 C   0  0  0  0  0  0  0  0  0  0  0  0
    4.7128   -3.6187   -1.3284 C   0  0  0  0  0  0  0  0  0  0  0  0
    5.3018    0.0882    1.2541 C   0  0  0  0  0  0  0  0  0  0  0  0
    6.1025   -0.2695    2.1581 O   0  0  0  0  0  0  0  0  0  0  0  0
    5.5359    1.3340    0.5653 N   0  0  0  0  0  0  0  0  0  0  0  0
    1.9306    1.9264   -1.7070 C   0  0  0  0  0  0  0  0  0  0  0  0
    1.8763    3.1638   -0.9215 C   0  0  0  0  0  0  0  0  0  0  0  0
    0.5232    3.7598   -0.6495 C   0  0  0  0  0  0  0  0  0  0  0  0
   -0.1887    4.0705   -1.8731 N   0  0  0  0  0  0  0  0  0  0  0  0
   -0.9349    5.1129   -2.0039 C   0  0  0  0  0  0  0  0  0  0  0  0
   -1.1336    6.0605   -0.9619 N   0  0  0  0  0  0  0  0  0  0  0  0
   -1.5900    5.3340   -3.2488 N   0  0  0  0  0  0  0  0  0  0  0  0
   -3.0510    1.5708   -2.9459 C   0  0  0  0  0  0  0  0  0  0  0  0
   -4.5316    1.5260   -2.9716 C   0  0  0  0  0  0  0  0  0  0  0  0
   -5.2158    0.7098   -3.8821 C   0  0  0  0  0  0  0  0  0  0  0  0
   -6.6187    0.7047   -3.8647 C   0  0  0  0  0  0  0  0  0  0  0  0
   -7.3328    1.4813   -2.9771 C   0  0  0  0  0  0  0  0  0  0  0  0
   -6.6307    2.2647   -2.1045 C   0  0  0  0  0  0  0  0  0  0  0  0
   -5.2562    2.3111   -2.0737 C   0  0  0  0  0  0  0  0  0  0  0  0
   -2.9556   -0.2806    2.3332 C   0  0  0  0  0  0  0  0  0  0  0  0
   -3.4291   -0.4599    3.7274 C   0  0  0  0  0  0  0  0  0  0  0  0
   -3.5572   -1.7281    4.2993 C   0  0  0  0  0  0  0  0  0  0  0  0
   -4.0139   -1.5277    5.5587 N   0  0  0  0  0  0  0  0  0  0  0  0
   -4.1655   -0.2008    5.7692 C   0  0  0  0  0  0  0  0  0  0  0  0
   -3.8019    0.4622    4.6304 N   0  0  0  0  0  0  0  0  0  0  0  0
   -7.5103   -3.3876    1.6529 H   0  0  0  0  0  0  0  0  0  0  0  0
   -5.7934   -3.9316    1.9108 H   0  0  0  0  0  0  0  0  0  0  0  0
   -6.7424   -3.4145    3.3094 H   0  0  0  0  0  0  0  0  0  0  0  0
   -4.0937   -2.4307    1.3331 H   0  0  0  0  0  0  0  0  0  0  0  0
   -4.8091    0.5237    1.5791 H   0  0  0  0  0  0  0  0  0  0  0  0
   -2.7565    1.6113   -0.0979 H   0  0  0  0  0  0  0  0  0  0  0  0
   -2.8503   -0.4533   -2.3435 H   0  0  0  0  0  0  0  0  0  0  0  0
   -0.5910    0.9586   -0.1059 H   0  0  0  0  0  0  0  0  0  0  0  0
    1.4028   -0.0369   -2.1103 H   0  0  0  0  0  0  0  0  0  0  0  0
    3.9834    0.0799   -0.9829 H   0  0  0  0  0  0  0  0  0  0  0  0
    3.4833   -0.8415    1.8702 H   0  0  0  0  0  0  0  0  0  0  0  0
    3.4914   -2.7657    0.7134 H   0  0  0  0  0  0  0  0  0  0  0  0
    7.0451   -3.2183    0.6275 H   0  0  0  0  0  0  0  0  0  0  0  0
    8.2715   -4.1943    2.5640 H   0  0  0  0  0  0  0  0  0  0  0  0
    7.1458   -4.3164    4.8110 H   0  0  0  0  0  0  0  0  0  0  0  0
    4.8311   -3.4613    5.0600 H   0  0  0  0  0  0  0  0  0  0  0  0
    3.6295   -2.5144    3.1880 H   0  0  0  0  0  0  0  0  0  0  0  0
    6.5622   -0.9324   -0.6573 H   0  0  0  0  0  0  0  0  0  0  0  0
    7.5474   -1.5607   -2.8476 H   0  0  0  0  0  0  0  0  0  0  0  0
    6.7316   -3.4731   -4.0347 H   0  0  0  0  0  0  0  0  0  0  0  0
    4.9345   -4.8204   -3.1232 H   0  0  0  0  0  0  0  0  0  0  0  0
    3.9077   -4.2430   -0.9466 H   0  0  0  0  0  0  0  0  0  0  0  0
    5.1613    2.1879    1.0680 H   0  0  0  0  0  0  0  0  0  0  0  0
    6.0327    1.3796   -0.3486 H   0  0  0  0  0  0  0  0  0  0  0  0
    1.5289    2.1468   -2.7344 H   0  0  0  0  0  0  0  0  0  0  0  0
    3.0365    1.6784   -1.8362 H   0  0  0  0  0  0  0  0  0  0  0  0
    2.4157    3.9554   -1.5388 H   0  0  0  0  0  0  0  0  0  0  0  0
    2.5023    3.1409    0.0115 H   0  0  0  0  0  0  0  0  0  0  0  0
    0.6922    4.7922   -0.1786 H   0  0  0  0  0  0  0  0  0  0  0  0
   -0.1227    3.1669   -0.0041 H   0  0  0  0  0  0  0  0  0  0  0  0
   -1.5592    5.7025   -0.0815 H   0  0  0  0  0  0  0  0  0  0  0  0
   -0.8512    7.0513   -1.1202 H   0  0  0  0  0  0  0  0  0  0  0  0
   -1.0799    5.3548   -4.1728 H   0  0  0  0  0  0  0  0  0  0  0  0
   -2.6294    5.4902   -3.3302 H   0  0  0  0  0  0  0  0  0  0  0  0
   -2.7096    2.5675   -2.5379 H   0  0  0  0  0  0  0  0  0  0  0  0
   -2.5786    1.5160   -3.9435 H   0  0  0  0  0  0  0  0  0  0  0  0
   -4.6480    0.1054   -4.5739 H   0  0  0  0  0  0  0  0  0  0  0  0
   -7.1627    0.0637   -4.5778 H   0  0  0  0  0  0  0  0  0  0  0  0
   -8.4326    1.4497   -2.9966 H   0  0  0  0  0  0  0  0  0  0  0  0
   -7.2272    2.8710   -1.4117 H   0  0  0  0  0  0  0  0  0  0  0  0
   -4.7509    2.9485   -1.3624 H   0  0  0  0  0  0  0  0  0  0  0  0
   -2.2370   -1.0784    2.0836 H   0  0  0  0  0  0  0  0  0  0  0  0
   -2.4025    0.6940    2.2567 H   0  0  0  0  0  0  0  0  0  0  0  0
   -3.3414   -2.6883    3.8451 H   0  0  0  0  0  0  0  0  0  0  0  0
   -4.5181    0.2385    6.6915 H   0  0  0  0  0  0  0  0  0  0  0  0
   -3.8009    1.4891    4.4557 H   0  0  0  0  0  0  0  0  0  0  0  0
  1  2  1  0
  2  3  2  0
  2  4  1  0
  4  5  1  0
  5  6  1  0
  6  7  2  0
  6  8  1  0
  8  9  1  0
  9 10  1  0
 10 11  2  0
 10 12  1  0
 12 13  1  0
 13 14  1  0
 14 15  2  0
 14 16  1  0
 16 17  1  0
 17 18  1  0
 18 19  1  0
 19 20  2  0
 20 21  1  0
 21 22  2  0
 22 23  1  0
 23 24  2  0
 18 25  1  0
 25 26  2  0
 26 27  1  0
 27 28  2  0
 28 29  1  0
 29 30  2  0
 17 31  1  0
 31 32  2  0
 31 33  1  0
 13 34  1  0
 34 35  1  0
 35 36  1  0
 36 37  1  0
 37 38  2  3
 38 39  1  0
 38 40  1  0
  9 41  1  0
 41 42  1  0
 42 43  2  0
 43 44  1  0
 44 45  2  0
 45 46  1  0
 46 47  2  0
  5 48  1  0
 48 49  1  0
 49 50  2  0
 50 51  1  0
 51 52  2  0
 52 53  1  0
 24 19  1  0
 30 25  1  0
 47 42  1  0
 53 49  1  0
  1 54  1  0
  1 55  1  0
  1 56  1  0
  4 57  1  0
  5 58  1  6
  8 59  1  0
  9 60  1  6
 12 61  1  0
 13 62  1  6
 16 63  1  0
 17 64  1  1
 18 65  1  0
 20 66  1  0
 21 67  1  0
 22 68  1  0
 23 69  1  0
 24 70  1  0
 26 71  1  0
 27 72  1  0
 28 73  1  0
 29 74  1  0
 30 75  1  0
 33 76  1  0
 33 77  1  0
 34 78  1  0
 34 79  1  0
 35 80  1  0
 35 81  1  0
 36 82  1  0
 36 83  1  0
 39 84  1  0
 39 85  1  0
 40 86  1  0
 40 87  1  0
 41 88  1  0
 41 89  1  0
 43 90  1  0
 44 91  1  0
 45 92  1  0
 46 93  1  0
 47 94  1  0
 48 95  1  0
 48 96  1  0
 50 97  1  0
 52 98  1  0
 53 99  1  0
M  END
>  <Ligand ID>  (1) 
LIG0001404

>  <Ligand>  (1) 
CHEMBL358833

>  <SMILES>  (1) 
CC(=O)N[C@H](C(=O)N[C@H](C(=O)N[C@H](C(=O)N[C@@H](C(c1ccccc1)c1ccccc1)C(=O)N)CCCN=C(N)N)Cc1ccccc1)Cc1cnc[nH]1

>  <CID>  (1) 
44369215.0

>  <ChEMBL ID>  (1) 
nan

>  <InChiKey>  (1) 
NHKOQCMKWPGYPI-QUUJSONZSA-N

>  <InChi>  (1) 
InChI=1S/C38H46N10O5/c1-24(49)45-31(21-28-22-42-23-44-28)37(53)47-30(20-25-12-5-2-6-13-25)36(52)46-29(18-11-19-43-38(40)41)35(51)48-33(34(39)50)32(26-14-7-3-8-15-26)27-16-9-4-10-17-27/h2-10,12-17,22-23,29-33H,11,18-21H2,1H3,(H2,39,50)(H,42,44)(H,45,49)(H,46,52)(H,47,53)(H,48,51)(H4,40,41,43)/t29-,30-,31-,33-/m0/s1

>  <IUPAC Name>  (1) 
(2S)-2-[[(2S)-2-[[(2S)-2-acetamido-3-(1H-imidazol-5-yl)propanoyl]amino]-3-phenylpropanoyl]amino]-N-[(2S)-1-amino-1-oxo-3,3-diphenylpropan-2-yl]-5-(diaminomethylideneamino)pentanamide

$$$$
