
     RDKit          3D

 57 57  0  0  0  0  0  0  0  0999 V2000
    8.0146   -1.3640    1.3419 C   0  0  0  0  0  0  0  0  0  0  0  0
    7.6377   -0.7369    0.0405 C   0  0  0  0  0  0  0  0  0  0  0  0
    6.1954   -0.2125    0.0353 C   0  0  0  0  0  0  0  0  0  0  0  0
    5.2178   -1.2972    0.2843 C   0  0  0  0  0  0  0  0  0  0  0  0
    3.7840   -0.8828    0.2493 C   0  0  0  0  0  0  0  0  0  0  0  0
    3.4369    0.1412    1.2610 C   0  0  2  0  0  0  0  0  0  0  0  0
    1.9686    0.5031    1.2142 C   0  0  0  0  0  0  0  0  0  0  0  0
    1.2549    0.4618    0.1175 C   0  0  0  0  0  0  0  0  0  0  0  0
   -0.2045    0.8187    0.0572 C   0  0  1  0  0  0  0  0  0  0  0  0
   -0.2861    1.8540   -1.0642 C   0  0  2  0  0  0  0  0  0  0  0  0
   -1.4452    2.6072   -1.0154 O   0  0  0  0  0  0  0  0  0  0  0  0
   -0.3736    0.9641   -2.2856 C   0  0  0  0  0  0  0  0  0  0  0  0
   -1.3766   -0.0546   -1.8170 C   0  0  0  0  0  0  0  0  0  0  0  0
   -2.2576   -0.4961   -2.5155 O   0  0  0  0  0  0  0  0  0  0  0  0
   -1.0215   -0.3350   -0.4129 C   0  0  2  0  0  0  0  0  0  0  0  0
   -2.2121   -0.6735    0.4405 C   0  0  0  0  0  0  0  0  0  0  0  0
   -3.1850    0.4079    0.5670 C   0  0  0  0  0  0  0  0  0  0  0  0
   -4.4511    0.4085    0.2158 C   0  0  0  0  0  0  0  0  0  0  0  0
   -5.2024   -0.7006   -0.3997 C   0  0  0  0  0  0  0  0  0  0  0  0
   -6.3742   -1.1360    0.4548 C   0  0  0  0  0  0  0  0  0  0  0  0
   -7.3809   -0.0555    0.7128 C   0  0  0  0  0  0  0  0  0  0  0  0
   -8.0245    0.4703   -0.5038 C   0  0  0  0  0  0  0  0  0  0  0  0
   -7.8311    0.0716   -1.6705 O   0  0  0  0  0  0  0  0  0  0  0  0
   -8.9375    1.5133   -0.3390 O   0  0  0  0  0  0  0  0  0  0  0  0
    4.1507    1.3384    1.0416 O   0  0  0  0  0  0  0  0  0  0  0  0
    9.0082   -1.0306    1.6875 H   0  0  0  0  0  0  0  0  0  0  0  0
    7.2898   -1.0896    2.1371 H   0  0  0  0  0  0  0  0  0  0  0  0
    8.0632   -2.4833    1.2037 H   0  0  0  0  0  0  0  0  0  0  0  0
    8.3073    0.1361   -0.1356 H   0  0  0  0  0  0  0  0  0  0  0  0
    7.7800   -1.4196   -0.8213 H   0  0  0  0  0  0  0  0  0  0  0  0
    6.1859    0.5810    0.8374 H   0  0  0  0  0  0  0  0  0  0  0  0
    6.0315    0.3108   -0.9211 H   0  0  0  0  0  0  0  0  0  0  0  0
    5.3569   -2.0527   -0.5520 H   0  0  0  0  0  0  0  0  0  0  0  0
    5.4618   -1.8227    1.2580 H   0  0  0  0  0  0  0  0  0  0  0  0
    3.1285   -1.7898    0.3592 H   0  0  0  0  0  0  0  0  0  0  0  0
    3.5896   -0.5456   -0.8013 H   0  0  0  0  0  0  0  0  0  0  0  0
    3.6541   -0.2488    2.2699 H   0  0  0  0  0  0  0  0  0  0  0  0
    1.4601    0.8169    2.1293 H   0  0  0  0  0  0  0  0  0  0  0  0
    1.6976    0.1598   -0.8238 H   0  0  0  0  0  0  0  0  0  0  0  0
   -0.5564    1.2928    0.9911 H   0  0  0  0  0  0  0  0  0  0  0  0
    0.6288    2.4841   -1.0807 H   0  0  0  0  0  0  0  0  0  0  0  0
   -1.1820    3.4899   -0.6665 H   0  0  0  0  0  0  0  0  0  0  0  0
    0.5569    0.4074   -2.4951 H   0  0  0  0  0  0  0  0  0  0  0  0
   -0.7524    1.5109   -3.1729 H   0  0  0  0  0  0  0  0  0  0  0  0
   -0.3680   -1.2313   -0.4206 H   0  0  0  0  0  0  0  0  0  0  0  0
   -2.6756   -1.5630   -0.0112 H   0  0  0  0  0  0  0  0  0  0  0  0
   -1.8368   -0.9028    1.4614 H   0  0  0  0  0  0  0  0  0  0  0  0
   -2.8117    1.3538    1.0177 H   0  0  0  0  0  0  0  0  0  0  0  0
   -5.0370    1.3358    0.3936 H   0  0  0  0  0  0  0  0  0  0  0  0
   -4.5433   -1.5402   -0.6521 H   0  0  0  0  0  0  0  0  0  0  0  0
   -5.6228   -0.3642   -1.3791 H   0  0  0  0  0  0  0  0  0  0  0  0
   -6.9381   -1.9540   -0.0716 H   0  0  0  0  0  0  0  0  0  0  0  0
   -5.9452   -1.5253    1.3867 H   0  0  0  0  0  0  0  0  0  0  0  0
   -6.9601    0.7889    1.3033 H   0  0  0  0  0  0  0  0  0  0  0  0
   -8.2014   -0.5446    1.3221 H   0  0  0  0  0  0  0  0  0  0  0  0
   -9.5136    1.7905   -1.1250 H   0  0  0  0  0  0  0  0  0  0  0  0
    3.6474    2.0341    1.5346 H   0  0  0  0  0  0  0  0  0  0  0  0
  1  2  1  0
  2  3  1  0
  3  4  1  0
  4  5  1  0
  5  6  1  0
  6  7  1  0
  7  8  2  0
  8  9  1  0
  9 10  1  0
 10 11  1  0
 10 12  1  0
 12 13  1  0
 13 14  2  0
 13 15  1  0
 15 16  1  0
 16 17  1  0
 17 18  2  0
 18 19  1  0
 19 20  1  0
 20 21  1  0
 21 22  1  0
 22 23  2  0
 22 24  1  0
  6 25  1  0
 15  9  1  0
  1 26  1  0
  1 27  1  0
  1 28  1  0
  2 29  1  0
  2 30  1  0
  3 31  1  0
  3 32  1  0
  4 33  1  0
  4 34  1  0
  5 35  1  0
  5 36  1  0
  6 37  1  1
  7 38  1  0
  8 39  1  0
  9 40  1  1
 10 41  1  6
 11 42  1  0
 12 43  1  0
 12 44  1  0
 15 45  1  6
 16 46  1  0
 16 47  1  0
 17 48  1  0
 18 49  1  0
 19 50  1  0
 19 51  1  0
 20 52  1  0
 20 53  1  0
 21 54  1  0
 21 55  1  0
 24 56  1  0
 25 57  1  0
M  END
>  <Ligand ID>  (1) 
LIG0001862

>  <Ligand>  (1) 
15(R)-Prostaglandin E2

>  <SMILES>  (1) 
CCCCC[C@H](/C=C/[C@H]1[C@H](O)CC(=O)[C@@H]1C/C=C\CCCC(=O)O)O

>  <CID>  (1) 
5283086.0

>  <ChEMBL ID>  (1) 
nan

>  <InChiKey>  (1) 
XEYBRNLFEZDVAW-GKEZHNTDSA-N

>  <InChi>  (1) 
InChI=1S/C20H32O5/c1-2-3-6-9-15(21)12-13-17-16(18(22)14-19(17)23)10-7-4-5-8-11-20(24)25/h4,7,12-13,15-17,19,21,23H,2-3,5-6,8-11,14H2,1H3,(H,24,25)/b7-4-,13-12+/t15-,16-,17-,19-/m1/s1

>  <IUPAC Name>  (1) 
(Z)-7-[(1R,2R,3R)-3-hydroxy-2-[(E,3R)-3-hydroxyoct-1-enyl]-5-oxocyclopentyl]hept-5-enoic acid

$$$$
