
     RDKit          3D

 44 47  0  0  0  0  0  0  0  0999 V2000
    8.0121    0.6934    0.0624 F   0  0  0  0  0  0  0  0  0  0  0  0
    6.6947    0.5037    0.1569 C   0  0  0  0  0  0  0  0  0  0  0  0
    6.0470    0.9060    1.3180 C   0  0  0  0  0  0  0  0  0  0  0  0
    4.6974    0.7397    1.4658 C   0  0  0  0  0  0  0  0  0  0  0  0
    3.8821    0.1570    0.4671 C   0  0  0  0  0  0  0  0  0  0  0  0
    4.5291   -0.2315   -0.6633 C   0  0  0  0  0  0  0  0  0  0  0  0
    5.9004   -0.0619   -0.8118 C   0  0  0  0  0  0  0  0  0  0  0  0
    3.7512   -0.7829   -1.7901 C   0  0  0  0  0  0  0  0  0  0  0  0
    2.8762    0.2138   -2.2764 F   0  0  0  0  0  0  0  0  0  0  0  0
    3.1062   -1.9590   -1.5293 F   0  0  0  0  0  0  0  0  0  0  0  0
    4.5963   -1.0105   -2.8810 F   0  0  0  0  0  0  0  0  0  0  0  0
    2.4700    0.0087    0.8149 C   0  0  0  0  0  0  0  0  0  0  0  0
    1.2814    1.0249   -0.0306 S   0  0  0  0  0  0  0  0  0  0  0  0
    0.0469    0.1057   -0.9313 C   0  0  0  0  0  0  0  0  0  0  0  0
   -0.0152   -0.3812   -2.1638 N   0  0  0  0  0  0  0  0  0  0  0  0
   -1.2000   -0.9915   -2.3531 N   0  0  0  0  0  0  0  0  0  0  0  0
   -1.9133   -0.8918   -1.2128 C   0  0  0  0  0  0  0  0  0  0  0  0
   -1.1581   -0.2166   -0.3212 N   0  0  0  0  0  0  0  0  0  0  0  0
   -1.4908    0.1626    1.0394 C   0  0  0  0  0  0  0  0  0  0  0  0
   -2.1192    1.5112    1.1151 C   0  0  0  0  0  0  0  0  0  0  0  0
   -2.7796    2.0616    2.1948 C   0  0  0  0  0  0  0  0  0  0  0  0
   -3.2195    3.3369    1.8629 C   0  0  0  0  0  0  0  0  0  0  0  0
   -2.7828    3.4954    0.5418 C   0  0  0  0  0  0  0  0  0  0  0  0
   -2.1506    2.4092    0.1582 O   0  0  0  0  0  0  0  0  0  0  0  0
   -3.2608   -1.3918   -0.9163 C   0  0  0  0  0  0  0  0  0  0  0  0
   -3.7397   -2.5818   -1.4199 C   0  0  0  0  0  0  0  0  0  0  0  0
   -4.9970   -3.0760   -1.1577 C   0  0  0  0  0  0  0  0  0  0  0  0
   -5.8366   -2.3208   -0.3267 C   0  0  0  0  0  0  0  0  0  0  0  0
   -5.3203   -1.1187    0.1667 C   0  0  0  0  0  0  0  0  0  0  0  0
   -4.0873   -0.6869   -0.1236 N   0  0  0  0  0  0  0  0  0  0  0  0
    6.6158    1.3660    2.1439 H   0  0  0  0  0  0  0  0  0  0  0  0
    4.2607    1.0830    2.4032 H   0  0  0  0  0  0  0  0  0  0  0  0
    6.4027   -0.3824   -1.7332 H   0  0  0  0  0  0  0  0  0  0  0  0
    2.1692   -1.1009    0.7862 H   0  0  0  0  0  0  0  0  0  0  0  0
    2.3272    0.2164    1.9234 H   0  0  0  0  0  0  0  0  0  0  0  0
   -0.5503    0.2044    1.6171 H   0  0  0  0  0  0  0  0  0  0  0  0
   -2.1301   -0.5711    1.5689 H   0  0  0  0  0  0  0  0  0  0  0  0
   -2.9162    1.5527    3.1406 H   0  0  0  0  0  0  0  0  0  0  0  0
   -3.7694    4.0451    2.4735 H   0  0  0  0  0  0  0  0  0  0  0  0
   -2.9266    4.3692   -0.0911 H   0  0  0  0  0  0  0  0  0  0  0  0
   -3.1137   -3.1907   -2.0706 H   0  0  0  0  0  0  0  0  0  0  0  0
   -5.3756   -4.0093   -1.5487 H   0  0  0  0  0  0  0  0  0  0  0  0
   -6.8405   -2.6629   -0.0815 H   0  0  0  0  0  0  0  0  0  0  0  0
   -5.9731   -0.5461    0.8028 H   0  0  0  0  0  0  0  0  0  0  0  0
  1  2  1  0
  2  3  2  0
  3  4  1  0
  4  5  2  0
  5  6  1  0
  6  7  2  0
  6  8  1  0
  8  9  1  0
  8 10  1  0
  8 11  1  0
  5 12  1  0
 12 13  1  0
 13 14  1  0
 14 15  2  0
 15 16  1  0
 16 17  2  0
 17 18  1  0
 18 19  1  0
 19 20  1  0
 20 21  2  0
 21 22  1  0
 22 23  2  0
 23 24  1  0
 17 25  1  0
 25 26  2  0
 26 27  1  0
 27 28  2  0
 28 29  1  0
 29 30  2  0
  7  2  1  0
 18 14  1  0
 24 20  1  0
 30 25  1  0
  3 31  1  0
  4 32  1  0
  7 33  1  0
 12 34  1  0
 12 35  1  0
 19 36  1  0
 19 37  1  0
 21 38  1  0
 22 39  1  0
 23 40  1  0
 26 41  1  0
 27 42  1  0
 28 43  1  0
 29 44  1  0
M  END
>  <Ligand ID>  (1) 
LIG0002762

>  <Ligand>  (1) 
KUC104189N

>  <SMILES>  (1) 
Fc1ccc(c(c1)C(F)(F)F)CSc1nnc(n1Cc1ccco1)c1ccccn1

>  <CID>  (1) 
44620935.0

>  <ChEMBL ID>  (1) 
nan

>  <InChiKey>  (1) 
PLECZAQOIHPFBA-UHFFFAOYSA-N

>  <InChi>  (1) 
InChI=1S/C20H14F4N4OS/c21-14-7-6-13(16(10-14)20(22,23)24)12-30-19-27-26-18(17-5-1-2-8-25-17)28(19)11-15-4-3-9-29-15/h1-10H,11-12H2

>  <IUPAC Name>  (1) 
2-[5-[[4-fluoro-2-(trifluoromethyl)phenyl]methylsulfanyl]-4-(furan-2-ylmethyl)-1,2,4-triazol-3-yl]pyridine

$$$$
