
     RDKit          3D

 48 49  0  0  0  0  0  0  0  0999 V2000
    0.9471   -1.2991    0.3689 S   0  0  0  0  0  0  0  0  0  0  0  0
    0.9241    0.2456    0.9052 C   0  0  0  0  0  0  0  0  0  0  0  0
    2.1297    0.9912    0.7509 N   0  0  0  0  0  0  0  0  0  0  0  0
    3.2976    0.4760    0.1497 C   0  0  0  0  0  0  0  0  0  0  0  0
    4.4093    0.2693    0.9268 C   0  0  0  0  0  0  0  0  0  0  0  0
    5.6026   -0.2427    0.4044 C   0  0  0  0  0  0  0  0  0  0  0  0
    6.7784   -0.4358    1.2881 C   0  0  0  0  0  0  0  0  0  0  0  0
    5.6047   -0.5330   -0.9443 C   0  0  0  0  0  0  0  0  0  0  0  0
    4.4837   -0.3311   -1.7532 C   0  0  0  0  0  0  0  0  0  0  0  0
    3.3220    0.1754   -1.2124 C   0  0  0  0  0  0  0  0  0  0  0  0
    2.1400    0.3816   -2.0755 C   0  0  0  0  0  0  0  0  0  0  0  0
   -0.2089    0.8381    1.5226 N   0  0  0  0  0  0  0  0  0  0  0  0
   -1.4490    0.0469    1.6450 C   0  0  0  0  0  0  0  0  0  0  0  0
   -1.9714   -0.0534    0.2101 C   0  0  0  0  0  0  0  0  0  0  0  0
   -3.2375   -0.8258    0.1733 C   0  0  0  0  0  0  0  0  0  0  0  0
   -4.2006   -0.6906   -0.8019 C   0  0  0  0  0  0  0  0  0  0  0  0
   -5.3779   -1.4510   -0.8069 C   0  0  0  0  0  0  0  0  0  0  0  0
   -5.6190   -2.3808    0.1837 C   0  0  0  0  0  0  0  0  0  0  0  0
   -4.6765   -2.5278    1.1551 C   0  0  0  0  0  0  0  0  0  0  0  0
   -3.5080   -1.7738    1.1621 C   0  0  0  0  0  0  0  0  0  0  0  0
   -2.1473    1.3252   -0.1902 N   0  0  0  0  0  0  0  0  0  0  0  0
   -2.2528    1.5792   -1.5828 C   0  0  0  0  0  0  0  0  0  0  0  0
   -3.1706    1.9892    0.5956 C   0  0  0  0  0  0  0  0  0  0  0  0
    2.1971    1.9973    1.0941 H   0  0  0  0  0  0  0  0  0  0  0  0
    4.3834    0.5054    1.9862 H   0  0  0  0  0  0  0  0  0  0  0  0
    7.3727   -1.3215    1.0631 H   0  0  0  0  0  0  0  0  0  0  0  0
    6.4285   -0.4092    2.3399 H   0  0  0  0  0  0  0  0  0  0  0  0
    7.4325    0.4497    1.0993 H   0  0  0  0  0  0  0  0  0  0  0  0
    6.5045   -0.9260   -1.3815 H   0  0  0  0  0  0  0  0  0  0  0  0
    4.5141   -0.5692   -2.7981 H   0  0  0  0  0  0  0  0  0  0  0  0
    2.3736    0.9671   -3.0095 H   0  0  0  0  0  0  0  0  0  0  0  0
    1.6650   -0.5475   -2.4289 H   0  0  0  0  0  0  0  0  0  0  0  0
    1.3439    0.9797   -1.5586 H   0  0  0  0  0  0  0  0  0  0  0  0
   -0.1414    1.8164    1.8736 H   0  0  0  0  0  0  0  0  0  0  0  0
   -2.1159    0.6358    2.2887 H   0  0  0  0  0  0  0  0  0  0  0  0
   -1.2464   -0.9088    2.1187 H   0  0  0  0  0  0  0  0  0  0  0  0
   -1.2667   -0.5236   -0.4801 H   0  0  0  0  0  0  0  0  0  0  0  0
   -4.1044   -0.0007   -1.5999 H   0  0  0  0  0  0  0  0  0  0  0  0
   -6.1111   -1.3106   -1.5949 H   0  0  0  0  0  0  0  0  0  0  0  0
   -6.5194   -2.9838    0.2051 H   0  0  0  0  0  0  0  0  0  0  0  0
   -4.8617   -3.2529    1.9310 H   0  0  0  0  0  0  0  0  0  0  0  0
   -2.8394   -1.9813    1.9803 H   0  0  0  0  0  0  0  0  0  0  0  0
   -2.0050    0.7444   -2.2601 H   0  0  0  0  0  0  0  0  0  0  0  0
   -1.4266    2.3403   -1.8090 H   0  0  0  0  0  0  0  0  0  0  0  0
   -3.1701    2.1281   -1.8141 H   0  0  0  0  0  0  0  0  0  0  0  0
   -3.7183    1.1781    1.1545 H   0  0  0  0  0  0  0  0  0  0  0  0
   -3.8527    2.6241    0.0256 H   0  0  0  0  0  0  0  0  0  0  0  0
   -2.6558    2.5956    1.3629 H   0  0  0  0  0  0  0  0  0  0  0  0
  1  2  2  0
  2  3  1  0
  3  4  1  0
  4  5  2  0
  5  6  1  0
  6  7  1  0
  6  8  2  0
  8  9  1  0
  9 10  2  0
 10 11  1  0
  2 12  1  0
 12 13  1  0
 13 14  1  0
 14 15  1  0
 15 16  2  0
 16 17  1  0
 17 18  2  0
 18 19  1  0
 19 20  2  0
 14 21  1  0
 21 22  1  0
 21 23  1  0
 10  4  1  0
 20 15  1  0
  3 24  1  0
  5 25  1  0
  7 26  1  0
  7 27  1  0
  7 28  1  0
  8 29  1  0
  9 30  1  0
 11 31  1  0
 11 32  1  0
 11 33  1  0
 12 34  1  0
 13 35  1  0
 13 36  1  0
 14 37  1  0
 16 38  1  0
 17 39  1  0
 18 40  1  0
 19 41  1  0
 20 42  1  0
 22 43  1  0
 22 44  1  0
 22 45  1  0
 23 46  1  0
 23 47  1  0
 23 48  1  0
M  END
>  <Ligand ID>  (1) 
LIG0003709

>  <Ligand>  (1) 
MLS000770841

>  <SMILES>  (1) 
S=C(Nc1cc(C)ccc1C)NCC(c1ccccc1)N(C)C

>  <CID>  (1) 
3556099.0

>  <ChEMBL ID>  (1) 
nan

>  <InChiKey>  (1) 
LAHWQRXEXXAMKI-UHFFFAOYSA-N

>  <InChi>  (1) 
InChI=1S/C19H25N3S/c1-14-10-11-15(2)17(12-14)21-19(23)20-13-18(22(3)4)16-8-6-5-7-9-16/h5-12,18H,13H2,1-4H3,(H2,20,21,23)

>  <IUPAC Name>  (1) 
1-[2-(dimethylamino)-2-phenylethyl]-3-(2,5-dimethylphenyl)thiourea

$$$$
