
     RDKit          3D

 59 63  0  0  0  0  0  0  0  0999 V2000
    7.9617    2.9404   -2.9318 O   0  0  0  0  0  0  0  0  0  0  0  0
    6.7523    2.4917   -2.4057 C   0  0  0  0  0  0  0  0  0  0  0  0
    5.7391    3.2470   -2.3455 O   0  0  0  0  0  0  0  0  0  0  0  0
    6.7266    1.0798   -1.9228 C   0  0  0  0  0  0  0  0  0  0  0  0
    5.3999    0.7097   -1.3868 C   0  0  0  0  0  0  0  0  0  0  0  0
    4.4627    0.1750   -2.2371 C   0  0  0  0  0  0  0  0  0  0  0  0
    3.2233   -0.1721   -1.7403 C   0  0  0  0  0  0  0  0  0  0  0  0
    2.8690   -0.0081   -0.4127 C   0  0  0  0  0  0  0  0  0  0  0  0
    3.8136    0.5269    0.4229 C   0  0  0  0  0  0  0  0  0  0  0  0
    5.0661    0.8803   -0.0659 C   0  0  0  0  0  0  0  0  0  0  0  0
    1.5540   -0.3730   -0.0072 N   0  0  0  0  0  0  0  0  0  0  0  0
    1.2665   -1.1429    1.1484 C   0  0  0  0  0  0  0  0  0  0  0  0
    2.2525   -1.6714    1.9506 C   0  0  0  0  0  0  0  0  0  0  0  0
    1.9665   -2.4126    3.0985 C   0  0  0  0  0  0  0  0  0  0  0  0
    2.8791   -2.8798    3.8082 O   0  0  0  0  0  0  0  0  0  0  0  0
    0.6881   -2.6289    3.4484 N   0  0  0  0  0  0  0  0  0  0  0  0
   -0.2875   -2.1228    2.6794 C   0  0  0  0  0  0  0  0  0  0  0  0
   -0.0371   -1.3804    1.5308 C   0  0  0  0  0  0  0  0  0  0  0  0
   -1.1263   -0.9157    0.8282 C   0  0  0  0  0  0  0  0  0  0  0  0
   -2.4385   -1.1652    1.2302 C   0  0  0  0  0  0  0  0  0  0  0  0
   -2.6650   -1.9114    2.3844 C   0  0  0  0  0  0  0  0  0  0  0  0
   -1.5907   -2.3870    3.1040 C   0  0  0  0  0  0  0  0  0  0  0  0
   -3.5595   -0.6253    0.4157 C   0  0  0  0  0  0  0  0  0  0  0  0
   -3.9587    0.6849    0.9667 C   0  0  0  0  0  0  0  0  0  0  0  0
   -3.0812    1.7597    1.0379 C   0  0  0  0  0  0  0  0  0  0  0  0
   -3.4467    2.9899    1.5391 C   0  0  0  0  0  0  0  0  0  0  0  0
   -4.7230    3.2204    2.0036 C   0  0  0  0  0  0  0  0  0  0  0  0
   -5.6136    2.1722    1.9453 C   0  0  0  0  0  0  0  0  0  0  0  0
   -5.2466    0.9431    1.4437 C   0  0  0  0  0  0  0  0  0  0  0  0
   -5.2529    4.7498    2.6500 Cl  0  0  0  0  0  0  0  0  0  0  0  0
   -3.3818   -0.6947   -1.0220 C   0  0  0  0  0  0  0  0  0  0  0  0
   -3.0367    0.3344   -1.8637 C   0  0  0  0  0  0  0  0  0  0  0  0
   -2.8781    0.1911   -3.2267 C   0  0  0  0  0  0  0  0  0  0  0  0
   -3.0677   -1.0344   -3.8119 C   0  0  0  0  0  0  0  0  0  0  0  0
   -3.4123   -2.0862   -3.0126 C   0  0  0  0  0  0  0  0  0  0  0  0
   -3.5712   -1.9396   -1.6412 C   0  0  0  0  0  0  0  0  0  0  0  0
   -2.8587   -1.1738   -5.5307 Cl  0  0  0  0  0  0  0  0  0  0  0  0
    7.9946    3.8515   -3.3874 H   0  0  0  0  0  0  0  0  0  0  0  0
    7.0762    0.4120   -2.7427 H   0  0  0  0  0  0  0  0  0  0  0  0
    7.4973    1.0484   -1.1065 H   0  0  0  0  0  0  0  0  0  0  0  0
    4.6975    0.0277   -3.2907 H   0  0  0  0  0  0  0  0  0  0  0  0
    2.5163   -0.5928   -2.4598 H   0  0  0  0  0  0  0  0  0  0  0  0
    3.6302    0.7061    1.4509 H   0  0  0  0  0  0  0  0  0  0  0  0
    5.8116    1.3038    0.6025 H   0  0  0  0  0  0  0  0  0  0  0  0
    0.7934   -0.0194   -0.6499 H   0  0  0  0  0  0  0  0  0  0  0  0
    3.3011   -1.5561    1.7308 H   0  0  0  0  0  0  0  0  0  0  0  0
    0.5042   -3.1808    4.3029 H   0  0  0  0  0  0  0  0  0  0  0  0
   -1.0041   -0.3448   -0.0545 H   0  0  0  0  0  0  0  0  0  0  0  0
   -3.6763   -2.1144    2.7107 H   0  0  0  0  0  0  0  0  0  0  0  0
   -1.8095   -2.9597    3.9905 H   0  0  0  0  0  0  0  0  0  0  0  0
   -4.4288   -1.3146    0.6666 H   0  0  0  0  0  0  0  0  0  0  0  0
   -2.0464    1.6740    0.7045 H   0  0  0  0  0  0  0  0  0  0  0  0
   -2.7366    3.8186    1.5834 H   0  0  0  0  0  0  0  0  0  0  0  0
   -6.6516    2.2523    2.2893 H   0  0  0  0  0  0  0  0  0  0  0  0
   -5.9611    0.1266    1.4046 H   0  0  0  0  0  0  0  0  0  0  0  0
   -2.8795    1.3211   -1.4610 H   0  0  0  0  0  0  0  0  0  0  0  0
   -2.6081    1.0307   -3.8291 H   0  0  0  0  0  0  0  0  0  0  0  0
   -3.5589   -3.0491   -3.4898 H   0  0  0  0  0  0  0  0  0  0  0  0
   -3.8488   -2.8120   -1.0372 H   0  0  0  0  0  0  0  0  0  0  0  0
  1  2  1  0
  2  3  2  0
  2  4  1  0
  4  5  1  0
  5  6  2  0
  6  7  1  0
  7  8  2  0
  8  9  1  0
  9 10  2  0
  8 11  1  0
 11 12  1  0
 12 13  2  0
 13 14  1  0
 14 15  2  0
 14 16  1  0
 16 17  1  0
 17 18  2  0
 18 19  1  0
 19 20  2  0
 20 21  1  0
 21 22  2  0
 20 23  1  0
 23 24  1  0
 24 25  2  0
 25 26  1  0
 26 27  2  0
 27 28  1  0
 28 29  2  0
 27 30  1  0
 23 31  1  0
 31 32  2  0
 32 33  1  0
 33 34  2  0
 34 35  1  0
 35 36  2  0
 34 37  1  0
 10  5  1  0
 18 12  1  0
 29 24  1  0
 36 31  1  0
 22 17  1  0
  1 38  1  0
  4 39  1  0
  4 40  1  0
  6 41  1  0
  7 42  1  0
  9 43  1  0
 10 44  1  0
 11 45  1  0
 13 46  1  0
 16 47  1  0
 19 48  1  0
 21 49  1  0
 22 50  1  0
 23 51  1  0
 25 52  1  0
 26 53  1  0
 28 54  1  0
 29 55  1  0
 32 56  1  0
 33 57  1  0
 35 58  1  0
 36 59  1  0
M  END
>  <Ligand ID>  (1) 
LIG0005907

>  <Ligand>  (1) 
CHEMBL3896734

>  <SMILES>  (1) 
OC(=O)Cc1ccc(cc1)Nc1cc(=O)[nH]c2c1cc(cc2)C(c1ccc(cc1)Cl)c1ccc(cc1)Cl

>  <CID>  (1) 
118324083.0

>  <ChEMBL ID>  (1) 
nan

>  <InChiKey>  (1) 
ZPJDPNRYHNPEJJ-UHFFFAOYSA-N

>  <InChi>  (1) 
InChI=1S/C30H22Cl2N2O3/c31-22-8-3-19(4-9-22)30(20-5-10-23(32)11-6-20)21-7-14-26-25(16-21)27(17-28(35)34-26)33-24-12-1-18(2-13-24)15-29(36)37/h1-14,16-17,30H,15H2,(H,36,37)(H2,33,34,35)

>  <IUPAC Name>  (1) 
2-[4-[[6-[bis(4-chlorophenyl)methyl]-2-oxo-1H-quinolin-4-yl]amino]phenyl]acetic acid

$$$$
