
     RDKit          3D

 32 34  0  0  0  0  0  0  0  0999 V2000
   -0.8710   -2.8588   -0.2287 O   0  0  0  0  0  0  0  0  0  0  0  0
   -0.5890   -1.6208   -0.1537 C   0  0  0  0  0  0  0  0  0  0  0  0
   -1.6042   -0.6232   -0.1095 N   0  0  0  0  0  0  0  0  0  0  0  0
   -2.8659   -0.9498    0.5155 C   0  0  0  0  0  0  0  0  0  0  0  0
   -3.8831    0.1488    0.3322 C   0  0  0  0  0  0  0  0  0  0  0  0
   -3.2329    1.4620    0.4739 N   0  0  0  0  0  0  0  0  0  0  0  0
   -2.4513    1.6187   -0.7314 C   0  0  0  0  0  0  0  0  0  0  0  0
   -1.2906    0.6568   -0.7044 C   0  0  1  0  0  0  0  0  0  0  0  0
   -0.1060    1.2110    0.0417 C   0  0  0  0  0  0  0  0  0  0  0  0
    0.9856    0.2156   -0.0243 C   0  0  0  0  0  0  0  0  0  0  0  0
    0.7979   -1.1441   -0.1074 C   0  0  0  0  0  0  0  0  0  0  0  0
    1.8347   -2.0561   -0.1575 C   0  0  0  0  0  0  0  0  0  0  0  0
    3.1441   -1.5650   -0.1220 C   0  0  0  0  0  0  0  0  0  0  0  0
    3.3459   -0.1892   -0.0383 C   0  0  0  0  0  0  0  0  0  0  0  0
    2.2815    0.6865    0.0097 C   0  0  0  0  0  0  0  0  0  0  0  0
    4.7295    0.3730    0.0017 C   0  0  0  0  0  0  0  0  0  0  0  0
    4.9540    0.9450    1.2224 F   0  0  0  0  0  0  0  0  0  0  0  0
    4.8425    1.3189   -0.9914 F   0  0  0  0  0  0  0  0  0  0  0  0
    5.6429   -0.6334   -0.2831 F   0  0  0  0  0  0  0  0  0  0  0  0
   -3.2966   -1.8918    0.1116 H   0  0  0  0  0  0  0  0  0  0  0  0
   -2.7516   -1.0489    1.6343 H   0  0  0  0  0  0  0  0  0  0  0  0
   -4.7006    0.0665    1.0507 H   0  0  0  0  0  0  0  0  0  0  0  0
   -4.2196    0.1026   -0.7241 H   0  0  0  0  0  0  0  0  0  0  0  0
   -2.5846    1.4084    1.2745 H   0  0  0  0  0  0  0  0  0  0  0  0
   -3.0567    1.3856   -1.6242 H   0  0  0  0  0  0  0  0  0  0  0  0
   -2.0031    2.6295   -0.8300 H   0  0  0  0  0  0  0  0  0  0  0  0
   -0.9960    0.4831   -1.7839 H   0  0  0  0  0  0  0  0  0  0  0  0
    0.2048    2.2069   -0.3283 H   0  0  0  0  0  0  0  0  0  0  0  0
   -0.3908    1.2699    1.1270 H   0  0  0  0  0  0  0  0  0  0  0  0
    1.6532   -3.1120   -0.2219 H   0  0  0  0  0  0  0  0  0  0  0  0
    3.9871   -2.2581   -0.1598 H   0  0  0  0  0  0  0  0  0  0  0  0
    2.4900    1.7622    0.0754 H   0  0  0  0  0  0  0  0  0  0  0  0
  1  2  2  0
  2  3  1  0
  3  4  1  0
  4  5  1  0
  5  6  1  0
  6  7  1  0
  7  8  1  0
  8  9  1  0
  9 10  1  0
 10 11  2  0
 11 12  1  0
 12 13  2  0
 13 14  1  0
 14 15  2  0
 14 16  1  0
 16 17  1  0
 16 18  1  0
 16 19  1  0
 11  2  1  0
  8  3  1  0
 15 10  1  0
  4 20  1  0
  4 21  1  0
  5 22  1  0
  5 23  1  0
  6 24  1  0
  7 25  1  0
  7 26  1  0
  8 27  1  6
  9 28  1  0
  9 29  1  0
 12 30  1  0
 13 31  1  0
 15 32  1  0
M  END
>  <Ligand ID>  (1) 
LIG0003215

>  <Ligand>  (1) 
SCHEMBL3554649

>  <SMILES>  (1) 
O=C1N2CCNC[C@H]2Cc2c1ccc(c2)C(F)(F)F

>  <CID>  (1) 
11361103.0

>  <ChEMBL ID>  (1) 
nan

>  <InChiKey>  (1) 
UNIHDWQKCZLGDT-SNVBAGLBSA-N

>  <InChi>  (1) 
InChI=1S/C13H13F3N2O/c14-13(15,16)9-1-2-11-8(5-9)6-10-7-17-3-4-18(10)12(11)19/h1-2,5,10,17H,3-4,6-7H2/t10-/m1/s1

>  <IUPAC Name>  (1) 
(11aR)-9-(trifluoromethyl)-1,2,3,4,11,11a-hexahydropyrazino[1,2-b]isoquinolin-6-one

$$$$
