
     RDKit          3D

 18 17  0  0  0  0  0  0  0  0999 V2000
   -2.0537    0.9988   -0.5053 C   0  0  0  0  0  0  0  0  0  0  0  0
   -1.9234   -0.4363   -0.0453 C   0  0  0  0  0  0  0  0  0  0  0  0
   -0.8804   -0.4826    1.0401 C   0  0  0  0  0  0  0  0  0  0  0  0
    0.4474   -0.0068    0.5706 C   0  0  0  0  0  0  0  0  0  0  0  0
    1.5229   -0.7741    0.5942 C   0  0  0  0  0  0  0  0  0  0  0  0
    2.8344   -0.3595    0.1499 C   0  0  0  0  0  0  0  0  0  0  0  0
    3.8462   -1.1394    0.1925 O   0  0  0  0  0  0  0  0  0  0  0  0
    3.0862    0.9102   -0.3525 O   0  0  0  0  0  0  0  0  0  0  0  0
   -2.9442    1.1240   -1.1463 H   0  0  0  0  0  0  0  0  0  0  0  0
   -1.1025    1.3211   -0.9918 H   0  0  0  0  0  0  0  0  0  0  0  0
   -2.2228    1.5817    0.4434 H   0  0  0  0  0  0  0  0  0  0  0  0
   -1.7844   -1.1708   -0.8289 H   0  0  0  0  0  0  0  0  0  0  0  0
   -2.8983   -0.6828    0.4655 H   0  0  0  0  0  0  0  0  0  0  0  0
   -1.1819    0.1098    1.9270 H   0  0  0  0  0  0  0  0  0  0  0  0
   -0.7376   -1.5196    1.4313 H   0  0  0  0  0  0  0  0  0  0  0  0
    0.5646    1.0122    0.1868 H   0  0  0  0  0  0  0  0  0  0  0  0
    1.4098   -1.7797    0.9724 H   0  0  0  0  0  0  0  0  0  0  0  0
    4.0177    1.2938   -0.4653 H   0  0  0  0  0  0  0  0  0  0  0  0
  1  2  1  0
  2  3  1  0
  3  4  1  0
  4  5  2  0
  5  6  1  0
  6  7  2  0
  6  8  1  0
  1  9  1  0
  1 10  1  0
  1 11  1  0
  2 12  1  0
  2 13  1  0
  3 14  1  0
  3 15  1  0
  4 16  1  0
  5 17  1  0
  8 18  1  0
M  END
>  <Ligand ID>  (1) 
LIG0001040

>  <Ligand>  (1) 
(E)-hex-2-enoic acid

>  <SMILES>  (1) 
CCC/C=C/C(=O)O

>  <CID>  (1) 
5282707.0

>  <ChEMBL ID>  (1) 
nan

>  <InChiKey>  (1) 
NIONDZDPPYHYKY-SNAWJCMRSA-N

>  <InChi>  (1) 
InChI=1S/C6H10O2/c1-2-3-4-5-6(7)8/h4-5H,2-3H2,1H3,(H,7,8)/b5-4+

>  <IUPAC Name>  (1) 
(E)-hex-2-enoic acid

$$$$
