
     RDKit          3D

 20 20  0  0  0  0  0  0  0  0999 V2000
   -3.0498   -0.3651    0.7766 O   0  0  0  0  0  0  0  0  0  0  0  0
   -2.1716    0.3192   -0.0856 C   0  0  0  0  0  0  0  0  0  0  0  0
   -2.5461    1.4677   -0.4316 O   0  0  0  0  0  0  0  0  0  0  0  0
   -0.9116   -0.3162   -0.5214 C   0  0  0  0  0  0  0  0  0  0  0  0
    0.2958    0.4807   -0.3217 C   0  0  0  0  0  0  0  0  0  0  0  0
    1.5226    0.0587    0.2070 C   0  0  0  0  0  0  0  0  0  0  0  0
    1.8348   -1.3081    0.6772 C   0  0  0  0  0  0  0  0  0  0  0  0
    2.3501    1.1035    0.2092 O   0  0  0  0  0  0  0  0  0  0  0  0
    1.7657    2.1551   -0.2693 N   0  0  0  0  0  0  0  0  0  0  0  0
    0.4932    1.8124   -0.6097 C   0  0  0  0  0  0  0  0  0  0  0  0
   -0.3008    2.6403   -1.0999 O   0  0  0  0  0  0  0  0  0  0  0  0
   -0.8190   -1.6423    0.0615 N   0  0  0  0  0  0  0  0  0  0  0  0
   -3.5875    0.2119    1.4224 H   0  0  0  0  0  0  0  0  0  0  0  0
   -1.0242   -0.4700   -1.6327 H   0  0  0  0  0  0  0  0  0  0  0  0
    1.1170   -1.6964    1.4417 H   0  0  0  0  0  0  0  0  0  0  0  0
    2.8101   -1.2634    1.2444 H   0  0  0  0  0  0  0  0  0  0  0  0
    2.0650   -2.0291   -0.1269 H   0  0  0  0  0  0  0  0  0  0  0  0
    2.2234    3.1001   -0.3659 H   0  0  0  0  0  0  0  0  0  0  0  0
   -1.7908   -2.0295    0.0361 H   0  0  0  0  0  0  0  0  0  0  0  0
   -0.2761   -2.2296   -0.6113 H   0  0  0  0  0  0  0  0  0  0  0  0
  1  2  1  0
  2  3  2  0
  2  4  1  0
  4  5  1  0
  5  6  2  0
  6  7  1  0
  6  8  1  0
  8  9  1  0
  9 10  1  0
 10 11  2  0
  4 12  1  0
 10  5  1  0
  1 13  1  0
  4 14  1  0
  7 15  1  0
  7 16  1  0
  7 17  1  0
  9 18  1  0
 12 19  1  0
 12 20  1  0
M  END
>  <Ligand ID>  (1) 
LIG0000933

>  <Ligand>  (1) 
CHEMBL280585

>  <SMILES>  (1) 
OC(=O)C(c1c(C)o[nH]c1=O)N

>  <CID>  (1) 
173564.0

>  <ChEMBL ID>  (1) 
nan

>  <InChiKey>  (1) 
XIHYCWZNHQMZSX-UHFFFAOYSA-N

>  <InChi>  (1) 
InChI=1S/C6H8N2O4/c1-2-3(4(7)6(10)11)5(9)8-12-2/h4H,7H2,1H3,(H,8,9)(H,10,11)

>  <IUPAC Name>  (1) 
2-amino-2-(5-methyl-3-oxo-1,2-oxazol-4-yl)acetic acid

$$$$
