
     RDKit          3D

 29 30  0  0  0  0  0  0  0  0999 V2000
    4.4161   -0.3945    0.2065 C   0  0  0  0  0  0  0  0  0  0  0  0
    3.2951   -1.2550    0.2230 O   0  0  0  0  0  0  0  0  0  0  0  0
    2.0032   -0.7647    0.3681 N   0  0  0  0  0  0  0  0  0  0  0  0
    1.4626   -0.0264   -0.5419 C   0  0  0  0  0  0  0  0  0  0  0  0
    0.0915    0.5262   -0.4464 C   0  0  1  0  0  0  0  0  0  0  0  0
   -0.7984    0.0451   -1.5946 C   0  0  0  0  0  0  0  0  0  0  0  0
   -2.1809    0.0767   -1.1663 N   0  0  0  0  0  0  0  0  0  0  0  0
   -2.4912   -1.0998   -0.3437 C   0  0  0  0  0  0  0  0  0  0  0  0
   -1.3220   -1.2361    0.6131 C   0  0  0  0  0  0  0  0  0  0  0  0
   -0.6153    0.1104    0.8108 C   0  0  0  0  0  0  0  0  0  0  0  0
   -1.7170    1.1483    1.0122 C   0  0  0  0  0  0  0  0  0  0  0  0
   -2.4724    1.2148   -0.3006 C   0  0  0  0  0  0  0  0  0  0  0  0
    2.2163    0.2893   -1.7224 C   0  0  0  0  0  0  0  0  0  0  0  0
    2.8167    0.5517   -2.7005 N   0  0  0  0  0  0  0  0  0  0  0  0
    5.2491   -0.8019   -0.3690 H   0  0  0  0  0  0  0  0  0  0  0  0
    4.7523   -0.2737    1.2585 H   0  0  0  0  0  0  0  0  0  0  0  0
    4.1726    0.6195   -0.1811 H   0  0  0  0  0  0  0  0  0  0  0  0
    0.1822    1.6334   -0.4326 H   0  0  0  0  0  0  0  0  0  0  0  0
   -0.5407   -1.0089   -1.7748 H   0  0  0  0  0  0  0  0  0  0  0  0
   -0.6737    0.7239   -2.4394 H   0  0  0  0  0  0  0  0  0  0  0  0
   -3.4298   -0.8471    0.2029 H   0  0  0  0  0  0  0  0  0  0  0  0
   -2.6706   -1.9826   -0.9632 H   0  0  0  0  0  0  0  0  0  0  0  0
   -0.6436   -2.0096    0.2394 H   0  0  0  0  0  0  0  0  0  0  0  0
   -1.7225   -1.5547    1.5863 H   0  0  0  0  0  0  0  0  0  0  0  0
    0.0261    0.0572    1.6938 H   0  0  0  0  0  0  0  0  0  0  0  0
   -2.3427    0.9172    1.8818 H   0  0  0  0  0  0  0  0  0  0  0  0
   -1.1855    2.1142    1.1514 H   0  0  0  0  0  0  0  0  0  0  0  0
   -2.3277    2.1496   -0.8398 H   0  0  0  0  0  0  0  0  0  0  0  0
   -3.5499    1.0773   -0.0207 H   0  0  0  0  0  0  0  0  0  0  0  0
  1  2  1  0
  2  3  1  0
  3  4  2  0
  4  5  1  0
  5  6  1  0
  6  7  1  0
  7  8  1  0
  8  9  1  0
  9 10  1  0
 10 11  1  0
 11 12  1  0
  4 13  1  0
 13 14  3  0
 10  5  1  0
 12  7  1  0
  1 15  1  0
  1 16  1  0
  1 17  1  0
  5 18  1  1
  6 19  1  0
  6 20  1  0
  8 21  1  0
  8 22  1  0
  9 23  1  0
  9 24  1  0
 10 25  1  0
 11 26  1  0
 11 27  1  0
 12 28  1  0
 12 29  1  0
M  END
>  <Ligand ID>  (1) 
LIG0000994

>  <Ligand>  (1) 
Sabcomeline

>  <SMILES>  (1) 
CO/N=C(/[C@H]1CN2CCC1CC2)\C#N

>  <CID>  (1) 
9577995.0

>  <ChEMBL ID>  (1) 
nan

>  <InChiKey>  (1) 
IQWCBYSUUOFOMF-QTLFRQQHSA-N

>  <InChi>  (1) 
InChI=1S/C10H15N3O/c1-14-12-10(6-11)9-7-13-4-2-8(9)3-5-13/h8-9H,2-5,7H2,1H3/b12-10+/t9-/m0/s1

>  <IUPAC Name>  (1) 
(3Z,3R)-N-methoxy-1-azabicyclo[2.2.2]octane-3-carboximidoyl cyanide

$$$$
