
     RDKit          3D

 39 40  0  0  0  0  0  0  0  0999 V2000
    0.5301   -2.6473    0.8160 O   0  0  0  0  0  0  0  0  0  0  0  0
    0.3675   -1.7322   -0.0462 C   0  0  0  0  0  0  0  0  0  0  0  0
    1.1829   -0.5950   -0.1448 N   0  0  0  0  0  0  0  0  0  0  0  0
    2.2784   -0.3260    0.6954 N   0  0  0  0  0  0  0  0  0  0  0  0
    3.4934   -0.5045    0.2969 C   0  0  0  0  0  0  0  0  0  0  0  0
    4.6744   -0.2540    1.0900 C   0  0  0  0  0  0  0  0  0  0  0  0
    4.8510   -0.7146    2.8544 S   0  0  0  0  0  0  0  0  0  0  0  0
    6.5423   -0.0379    2.9167 C   0  0  0  0  0  0  0  0  0  0  0  0
    6.8004    0.4485    1.6596 C   0  0  0  0  0  0  0  0  0  0  0  0
    5.8204    0.3234    0.7411 C   0  0  0  0  0  0  0  0  0  0  0  0
    6.0313    0.8430   -0.6896 C   0  0  0  0  0  0  0  0  0  0  0  0
   -0.7681   -1.8835   -1.0200 C   0  0  0  0  0  0  0  0  0  0  0  0
   -0.9740   -0.4622   -2.0856 S   0  0  0  0  0  0  0  0  0  0  0  0
   -1.5877    0.9512   -1.1109 C   0  0  0  0  0  0  0  0  0  0  0  0
   -2.9867    0.6969   -0.6470 C   0  0  0  0  0  0  0  0  0  0  0  0
   -3.2642    0.0909    0.5611 C   0  0  0  0  0  0  0  0  0  0  0  0
   -4.6172   -0.0918    0.8745 C   0  0  0  0  0  0  0  0  0  0  0  0
   -5.6080    0.3196    0.0069 C   0  0  0  0  0  0  0  0  0  0  0  0
   -5.3164    0.9292   -1.2070 C   0  0  0  0  0  0  0  0  0  0  0  0
   -3.9878    1.1125   -1.5226 C   0  0  0  0  0  0  0  0  0  0  0  0
   -7.0647    0.1335    0.3189 C   0  0  0  0  0  0  0  0  0  0  0  0
    1.0197    0.1479   -0.8899 H   0  0  0  0  0  0  0  0  0  0  0  0
    3.5994   -0.8748   -0.7248 H   0  0  0  0  0  0  0  0  0  0  0  0
    7.1584   -0.0509    3.7938 H   0  0  0  0  0  0  0  0  0  0  0  0
    7.7886    0.9168    1.4535 H   0  0  0  0  0  0  0  0  0  0  0  0
    5.6639    1.8773   -0.7359 H   0  0  0  0  0  0  0  0  0  0  0  0
    7.1050    0.7847   -0.9611 H   0  0  0  0  0  0  0  0  0  0  0  0
    5.5157    0.1689   -1.3970 H   0  0  0  0  0  0  0  0  0  0  0  0
   -0.5843   -2.8090   -1.5914 H   0  0  0  0  0  0  0  0  0  0  0  0
   -1.7037   -2.0209   -0.4415 H   0  0  0  0  0  0  0  0  0  0  0  0
   -1.5579    1.8597   -1.7405 H   0  0  0  0  0  0  0  0  0  0  0  0
   -1.0084    1.0842   -0.1561 H   0  0  0  0  0  0  0  0  0  0  0  0
   -2.4795   -0.2200    1.2183 H   0  0  0  0  0  0  0  0  0  0  0  0
   -4.9099   -0.5624    1.8066 H   0  0  0  0  0  0  0  0  0  0  0  0
   -6.0748    1.2579   -1.9011 H   0  0  0  0  0  0  0  0  0  0  0  0
   -3.7527    1.5820   -2.4580 H   0  0  0  0  0  0  0  0  0  0  0  0
   -7.5745   -0.1406   -0.6401 H   0  0  0  0  0  0  0  0  0  0  0  0
   -7.4284    1.0903    0.7122 H   0  0  0  0  0  0  0  0  0  0  0  0
   -7.1738   -0.6911    1.0470 H   0  0  0  0  0  0  0  0  0  0  0  0
  1  2  2  0
  2  3  1  0
  3  4  1  0
  4  5  2  0
  5  6  1  0
  6  7  1  0
  7  8  1  0
  8  9  2  0
  9 10  1  0
 10 11  1  0
  2 12  1  0
 12 13  1  0
 13 14  1  0
 14 15  1  0
 15 16  2  0
 16 17  1  0
 17 18  2  0
 18 19  1  0
 19 20  2  0
 18 21  1  0
 10  6  2  0
 20 15  1  0
  3 22  1  0
  5 23  1  0
  8 24  1  0
  9 25  1  0
 11 26  1  0
 11 27  1  0
 11 28  1  0
 12 29  1  0
 12 30  1  0
 14 31  1  0
 14 32  1  0
 16 33  1  0
 17 34  1  0
 19 35  1  0
 20 36  1  0
 21 37  1  0
 21 38  1  0
 21 39  1  0
M  END
>  <Ligand ID>  (1) 
LIG0003822

>  <Ligand>  (1) 
MLS000324755

>  <SMILES>  (1) 
O=C(N/N=C/c1sccc1C)CSCc1ccc(cc1)C

>  <CID>  (1) 
6876912.0

>  <ChEMBL ID>  (1) 
nan

>  <InChiKey>  (1) 
HZEUBQRRTOFTQI-RQZCQDPDSA-N

>  <InChi>  (1) 
InChI=1S/C16H18N2OS2/c1-12-3-5-14(6-4-12)10-20-11-16(19)18-17-9-15-13(2)7-8-21-15/h3-9H,10-11H2,1-2H3,(H,18,19)/b17-9+

>  <IUPAC Name>  (1) 
2-[(4-methylphenyl)methylsulfanyl]-N-[(E)-(3-methylthiophen-2-yl)methylideneamino]acetamide

$$$$
