
     RDKit          3D

 70 73  0  0  0  0  0  0  0  0999 V2000
   -4.7269   -1.2630   -2.2550 O   0  0  0  0  0  0  0  0  0  0  0  0
   -5.1769   -0.1130   -1.5675 C   0  0  2  0  0  0  0  0  0  0  0  0
   -4.8428   -0.2504   -0.1188 C   0  0  1  0  0  0  0  0  0  0  0  0
   -4.0590    0.9707    0.3119 C   0  0  0  0  0  0  0  0  0  0  0  0
   -2.8566    1.0751   -0.3441 O   0  0  0  0  0  0  0  0  0  0  0  0
   -1.9789    2.4399    0.1379 P   0  0  0  0  0  0  0  0  0  0  0  0
   -1.8048    2.3490    1.6517 O   0  0  0  0  0  0  0  0  0  0  0  0
   -0.4288    2.4318   -0.5354 O   0  0  0  0  0  0  0  0  0  0  0  0
    0.6487    1.7251    0.5413 P   0  0  0  0  0  0  0  0  0  0  0  0
    1.1119    2.7320    1.5968 O   0  0  0  0  0  0  0  0  0  0  0  0
    2.0751    1.1947   -0.2188 O   0  0  0  0  0  0  0  0  0  0  0  0
    2.0157   -0.4316   -0.6232 P   0  0  0  0  0  0  0  0  0  0  0  0
    1.6765   -0.5440   -2.0995 O   0  0  0  0  0  0  0  0  0  0  0  0
    3.4679   -1.2411   -0.3840 O   0  0  0  0  0  0  0  0  0  0  0  0
    4.2967   -0.6709    0.5485 C   0  0  0  0  0  0  0  0  0  0  0  0
    5.5690   -1.4741    0.6927 C   0  0  1  0  0  0  0  0  0  0  0  0
    6.2995   -1.5809   -0.4561 O   0  0  0  0  0  0  0  0  0  0  0  0
    7.6426   -1.5450   -0.1410 C   0  0  2  0  0  0  0  0  0  0  0  0
    7.7690   -1.5970    1.3493 C   0  0  1  0  0  0  0  0  0  0  0  0
    6.4821   -0.8757    1.7513 C   0  0  2  0  0  0  0  0  0  0  0  0
    6.0873   -1.1506    3.0381 O   0  0  0  0  0  0  0  0  0  0  0  0
    7.6180   -2.9195    1.7639 O   0  0  0  0  0  0  0  0  0  0  0  0
    8.1894   -0.3326   -0.7263 N   0  0  0  0  0  0  0  0  0  0  0  0
    9.4326    0.0120   -0.3620 C   0  0  0  0  0  0  0  0  0  0  0  0
   10.0586    1.1453   -0.8523 C   0  0  0  0  0  0  0  0  0  0  0  0
    9.3398    1.9275   -1.7517 C   0  0  0  0  0  0  0  0  0  0  0  0
    9.8790    2.9705   -2.2207 O   0  0  0  0  0  0  0  0  0  0  0  0
    8.0856    1.5607   -2.1059 N   0  0  0  0  0  0  0  0  0  0  0  0
    7.5087    0.4347   -1.5968 C   0  0  0  0  0  0  0  0  0  0  0  0
    6.3480    0.1114   -1.9356 O   0  0  0  0  0  0  0  0  0  0  0  0
    0.7423   -1.1467    0.2228 O   0  0  0  0  0  0  0  0  0  0  0  0
   -0.1419    0.4828    1.3510 O   0  0  0  0  0  0  0  0  0  0  0  0
   -2.8002    3.8807   -0.1653 O   0  0  0  0  0  0  0  0  0  0  0  0
   -6.0351   -0.2784    0.5873 O   0  0  0  0  0  0  0  0  0  0  0  0
   -6.9856   -0.8423   -0.2619 C   0  0  2  0  0  0  0  0  0  0  0  0
   -6.6931   -0.1349   -1.5683 C   0  0  2  0  0  0  0  0  0  0  0  0
   -7.2105   -0.8195   -2.6664 O   0  0  0  0  0  0  0  0  0  0  0  0
   -8.3209   -0.5800    0.1744 N   0  0  0  0  0  0  0  0  0  0  0  0
   -8.6394    0.3421    1.1214 C   0  0  0  0  0  0  0  0  0  0  0  0
   -9.9669    0.5395    1.4935 C   0  0  0  0  0  0  0  0  0  0  0  0
  -10.9295   -0.2262    0.8720 C   0  0  0  0  0  0  0  0  0  0  0  0
  -12.1511   -0.0668    1.1924 O   0  0  0  0  0  0  0  0  0  0  0  0
  -10.6128   -1.1359   -0.0626 N   0  0  0  0  0  0  0  0  0  0  0  0
   -9.3205   -1.2936   -0.3910 C   0  0  0  0  0  0  0  0  0  0  0  0
   -9.0585   -2.1612   -1.2770 O   0  0  0  0  0  0  0  0  0  0  0  0
   -3.7609   -1.4017   -2.0429 H   0  0  0  0  0  0  0  0  0  0  0  0
   -4.7585    0.7951   -2.0474 H   0  0  0  0  0  0  0  0  0  0  0  0
   -4.1949   -1.1234    0.1026 H   0  0  0  0  0  0  0  0  0  0  0  0
   -4.6695    1.8928    0.1833 H   0  0  0  0  0  0  0  0  0  0  0  0
   -3.8266    0.8970    1.4060 H   0  0  0  0  0  0  0  0  0  0  0  0
    3.8501   -0.4936    1.5309 H   0  0  0  0  0  0  0  0  0  0  0  0
    4.5794    0.3365    0.1569 H   0  0  0  0  0  0  0  0  0  0  0  0
    5.3104   -2.4962    1.0383 H   0  0  0  0  0  0  0  0  0  0  0  0
    8.1271   -2.4538   -0.5521 H   0  0  0  0  0  0  0  0  0  0  0  0
    8.6556   -1.1075    1.7528 H   0  0  0  0  0  0  0  0  0  0  0  0
    6.5731    0.2095    1.5129 H   0  0  0  0  0  0  0  0  0  0  0  0
    5.4525   -0.4261    3.3015 H   0  0  0  0  0  0  0  0  0  0  0  0
    6.8190   -3.0918    2.2910 H   0  0  0  0  0  0  0  0  0  0  0  0
   10.0303   -0.5768    0.3426 H   0  0  0  0  0  0  0  0  0  0  0  0
   11.0571    1.4228   -0.5603 H   0  0  0  0  0  0  0  0  0  0  0  0
    7.6011    2.1811   -2.7774 H   0  0  0  0  0  0  0  0  0  0  0  0
    1.0280   -1.5361    1.0860 H   0  0  0  0  0  0  0  0  0  0  0  0
   -0.9956    0.2689    0.9227 H   0  0  0  0  0  0  0  0  0  0  0  0
   -3.7819    3.7336   -0.2489 H   0  0  0  0  0  0  0  0  0  0  0  0
   -6.8505   -1.9332   -0.4078 H   0  0  0  0  0  0  0  0  0  0  0  0
   -7.0908    0.9151   -1.5245 H   0  0  0  0  0  0  0  0  0  0  0  0
   -7.3400   -0.1606   -3.3730 H   0  0  0  0  0  0  0  0  0  0  0  0
   -7.8343    0.9068    1.5673 H   0  0  0  0  0  0  0  0  0  0  0  0
  -10.2004    1.2803    2.2512 H   0  0  0  0  0  0  0  0  0  0  0  0
  -11.3833   -1.6894   -0.5017 H   0  0  0  0  0  0  0  0  0  0  0  0
  1  2  1  0
  2  3  1  0
  3  4  1  0
  4  5  1  0
  5  6  1  0
  6  7  2  0
  6  8  1  0
  8  9  1  0
  9 10  2  0
  9 11  1  0
 11 12  1  0
 12 13  2  0
 12 14  1  0
 14 15  1  0
 15 16  1  0
 16 17  1  0
 17 18  1  0
 18 19  1  0
 19 20  1  0
 20 21  1  0
 19 22  1  0
 18 23  1  0
 23 24  1  0
 24 25  2  0
 25 26  1  0
 26 27  2  0
 26 28  1  0
 28 29  1  0
 29 30  2  0
 12 31  1  0
  9 32  1  0
  6 33  1  0
  3 34  1  0
 34 35  1  0
 35 36  1  0
 36 37  1  0
 35 38  1  0
 38 39  1  0
 39 40  2  0
 40 41  1  0
 41 42  2  0
 41 43  1  0
 43 44  1  0
 44 45  2  0
 36  2  1  0
 44 38  1  0
 20 16  1  0
 29 23  1  0
  1 46  1  0
  2 47  1  6
  3 48  1  6
  4 49  1  0
  4 50  1  0
 15 51  1  0
 15 52  1  0
 16 53  1  1
 18 54  1  6
 19 55  1  6
 20 56  1  1
 21 57  1  0
 22 58  1  0
 24 59  1  0
 25 60  1  0
 28 61  1  0
 31 62  1  0
 32 63  1  0
 33 64  1  0
 35 65  1  6
 36 66  1  1
 37 67  1  0
 39 68  1  0
 40 69  1  0
 43 70  1  0
M  END
>  <Ligand ID>  (1) 
LIG0002817

>  <Ligand>  (1) 
CHEMBL239151

>  <SMILES>  (1) 
O[C@@H]1[C@@H](COP(=O)(OP(=O)(OP(=O)(OC[C@H]2O[C@H]([C@@H]([C@@H]2O)O)n2ccc(=O)[nH]c2=O)O)O)O)O[C@H]([C@@H]1O)n1ccc(=O)[nH]c1=O

>  <CID>  (1) 
9875011.0

>  <ChEMBL ID>  (1) 
nan

>  <InChiKey>  (1) 
JPNWHMPVXHYIKN-NCOIDOBVSA-N

>  <InChi>  (1) 
InChI=1S/C18H25N4O20P3/c23-9-1-3-21(17(29)19-9)15-13(27)11(25)7(39-15)5-37-43(31,32)41-45(35,36)42-44(33,34)38-6-8-12(26)14(28)16(40-8)22-4-2-10(24)20-18(22)30/h1-4,7-8,11-16,25-28H,5-6H2,(H,31,32)(H,33,34)(H,35,36)(H,19,23,29)(H,20,24,30)/t7-,8-,11-,12-,13-,14-,15-,16-/m1/s1

>  <IUPAC Name>  (1) 
bis[[(2R,3S,4R,5R)-5-(2,4-dioxopyrimidin-1-yl)-3,4-dihydroxyoxolan-2-yl]methoxy-hydroxyphosphoryl] hydrogen phosphate

$$$$
