
     RDKit          3D

 11 10  0  0  0  0  0  0  0  0999 V2000
   -1.3923   -0.3111    0.1031 C   0  0  0  0  0  0  0  0  0  0  0  0
   -0.2306    0.6426   -0.0233 C   0  0  0  0  0  0  0  0  0  0  0  0
    1.0169   -0.1571   -0.1608 C   0  0  0  0  0  0  0  0  0  0  0  0
    0.9261   -1.4132   -0.1520 O   0  0  0  0  0  0  0  0  0  0  0  0
    2.2716    0.4113   -0.2977 O   0  0  0  0  0  0  0  0  0  0  0  0
   -1.8864   -0.2271    1.0961 H   0  0  0  0  0  0  0  0  0  0  0  0
   -2.1631   -0.1497   -0.6892 H   0  0  0  0  0  0  0  0  0  0  0  0
   -1.0595   -1.3765    0.0141 H   0  0  0  0  0  0  0  0  0  0  0  0
   -0.3582    1.2208   -0.9605 H   0  0  0  0  0  0  0  0  0  0  0  0
   -0.1730    1.3545    0.8273 H   0  0  0  0  0  0  0  0  0  0  0  0
    3.0485    0.0056    0.2431 H   0  0  0  0  0  0  0  0  0  0  0  0
  1  2  1  0
  2  3  1  0
  3  4  2  0
  3  5  1  0
  1  6  1  0
  1  7  1  0
  1  8  1  0
  2  9  1  0
  2 10  1  0
  5 11  1  0
M  END
>  <Ligand ID>  (1) 
LIG0000070

>  <Ligand>  (1) 
propanoic acid

>  <SMILES>  (1) 
CCC(=O)O

>  <CID>  (1) 
1032.0

>  <ChEMBL ID>  (1) 
nan

>  <InChiKey>  (1) 
XBDQKXXYIPTUBI-UHFFFAOYSA-N

>  <InChi>  (1) 
InChI=1S/C3H6O2/c1-2-3(4)5/h2H2,1H3,(H,4,5)

>  <IUPAC Name>  (1) 
propanoic acid

$$$$
