
     RDKit          3D

 25 25  0  0  0  0  0  0  0  0999 V2000
    4.6374    0.4519    0.5040 C   0  0  0  0  0  0  0  0  0  0  0  0
    4.1492   -0.9716    0.3531 C   0  0  0  0  0  0  0  0  0  0  0  0
    2.7643   -1.0307    0.6180 O   0  0  0  0  0  0  0  0  0  0  0  0
    1.8431   -0.3128   -0.1245 C   0  0  0  0  0  0  0  0  0  0  0  0
    2.1997    0.4296   -1.0752 O   0  0  0  0  0  0  0  0  0  0  0  0
    0.4090   -0.4163    0.2012 C   0  0  0  0  0  0  0  0  0  0  0  0
   -0.4745    0.2673   -0.5051 C   0  0  0  0  0  0  0  0  0  0  0  0
   -1.9090    0.2297   -0.2593 C   0  0  0  0  0  0  0  0  0  0  0  0
   -2.4944   -0.5216    0.7344 C   0  0  0  0  0  0  0  0  0  0  0  0
   -3.8626   -0.5466    0.9555 C   0  0  0  0  0  0  0  0  0  0  0  0
   -4.6969    0.2064    0.1578 C   0  0  0  0  0  0  0  0  0  0  0  0
   -4.1183    0.9568   -0.8340 C   0  0  0  0  0  0  0  0  0  0  0  0
   -2.7557    0.9796   -1.0516 C   0  0  0  0  0  0  0  0  0  0  0  0
    5.5286    0.4831    1.1961 H   0  0  0  0  0  0  0  0  0  0  0  0
    4.9826    0.8029   -0.4924 H   0  0  0  0  0  0  0  0  0  0  0  0
    3.8571    1.1028    0.9581 H   0  0  0  0  0  0  0  0  0  0  0  0
    4.6851   -1.6146    1.0746 H   0  0  0  0  0  0  0  0  0  0  0  0
    4.3571   -1.3627   -0.6623 H   0  0  0  0  0  0  0  0  0  0  0  0
    0.0885   -1.0499    1.0149 H   0  0  0  0  0  0  0  0  0  0  0  0
   -0.0863    0.8788   -1.3015 H   0  0  0  0  0  0  0  0  0  0  0  0
   -1.8947   -1.1299    1.3892 H   0  0  0  0  0  0  0  0  0  0  0  0
   -4.2769   -1.1669    1.7664 H   0  0  0  0  0  0  0  0  0  0  0  0
   -5.7588    0.1661    0.3547 H   0  0  0  0  0  0  0  0  0  0  0  0
   -4.7721    1.5587   -1.4735 H   0  0  0  0  0  0  0  0  0  0  0  0
   -2.4018    1.6098   -1.8660 H   0  0  0  0  0  0  0  0  0  0  0  0
  1  2  1  0
  2  3  1  0
  3  4  1  0
  4  5  2  0
  4  6  1  0
  6  7  2  0
  7  8  1  0
  8  9  2  0
  9 10  1  0
 10 11  2  0
 11 12  1  0
 12 13  2  0
 13  8  1  0
  1 14  1  0
  1 15  1  0
  1 16  1  0
  2 17  1  0
  2 18  1  0
  6 19  1  0
  7 20  1  0
  9 21  1  0
 10 22  1  0
 11 23  1  0
 12 24  1  0
 13 25  1  0
M  END
>  <Ligand ID>  (1) 
LIG0000471

>  <Ligand>  (1) 
Ethyl cinnamate

>  <SMILES>  (1) 
CCOC(=O)/C=C/c1ccccc1

>  <CID>  (1) 
637758.0

>  <ChEMBL ID>  (1) 
nan

>  <InChiKey>  (1) 
KBEBGUQPQBELIU-CMDGGOBGSA-N

>  <InChi>  (1) 
InChI=1S/C11H12O2/c1-2-13-11(12)9-8-10-6-4-3-5-7-10/h3-9H,2H2,1H3/b9-8+

>  <IUPAC Name>  (1) 
ethyl (E)-3-phenylprop-2-enoate

$$$$
