
     RDKit          3D

 48 50  0  0  0  0  0  0  0  0999 V2000
    1.9507    0.6046    0.4425 O   0  0  0  0  0  0  0  0  0  0  0  0
    2.1285   -0.0544   -0.6235 C   0  0  0  0  0  0  0  0  0  0  0  0
    1.0125   -0.5811   -1.3549 N   0  0  0  0  0  0  0  0  0  0  0  0
   -0.3163   -0.3457   -0.8528 C   0  0  0  0  0  0  0  0  0  0  0  0
   -1.0213   -1.1655    0.0353 C   0  0  0  0  0  0  0  0  0  0  0  0
   -0.5212   -2.4154    0.6104 C   0  0  0  0  0  0  0  0  0  0  0  0
   -0.8663   -3.6228   -0.2579 C   0  0  0  0  0  0  0  0  0  0  0  0
   -0.9555   -2.6997    2.0190 C   0  0  0  0  0  0  0  0  0  0  0  0
   -2.2010   -0.5414    0.2079 N   0  0  0  0  0  0  0  0  0  0  0  0
   -2.2423    0.5793   -0.5091 N   0  0  0  0  0  0  0  0  0  0  0  0
   -1.0863    0.7260   -1.1772 C   0  0  0  0  0  0  0  0  0  0  0  0
   -0.7393    1.6565   -1.9611 O   0  0  0  0  0  0  0  0  0  0  0  0
   -3.3089    1.5123   -0.5956 C   0  0  0  0  0  0  0  0  0  0  0  0
   -3.8324    1.9579   -1.7912 C   0  0  0  0  0  0  0  0  0  0  0  0
   -4.8710    2.8672   -1.7885 C   0  0  0  0  0  0  0  0  0  0  0  0
   -5.3728    3.3192   -0.5867 C   0  0  0  0  0  0  0  0  0  0  0  0
   -4.8755    2.8968    0.6313 C   0  0  0  0  0  0  0  0  0  0  0  0
   -3.8352    1.9856    0.5962 C   0  0  0  0  0  0  0  0  0  0  0  0
   -3.2805   -1.0034    1.0457 C   0  0  0  0  0  0  0  0  0  0  0  0
    3.4153   -0.3054   -1.1465 N   0  0  0  0  0  0  0  0  0  0  0  0
    4.6191    0.1581   -0.5242 C   0  0  0  0  0  0  0  0  0  0  0  0
    5.0607    1.4155   -0.9304 C   0  0  0  0  0  0  0  0  0  0  0  0
    6.2272    1.9513   -0.3780 C   0  0  0  0  0  0  0  0  0  0  0  0
    6.9220    1.2197    0.5642 C   0  0  0  0  0  0  0  0  0  0  0  0
    6.4463   -0.0324    0.9421 C   0  0  0  0  0  0  0  0  0  0  0  0
    5.3074   -0.5700    0.4111 C   0  0  0  0  0  0  0  0  0  0  0  0
    8.3936    1.8865    1.2665 Cl  0  0  0  0  0  0  0  0  0  0  0  0
    1.1463   -1.1240   -2.2318 H   0  0  0  0  0  0  0  0  0  0  0  0
    0.5879   -2.3651    0.6380 H   0  0  0  0  0  0  0  0  0  0  0  0
    0.0227   -4.2876   -0.4020 H   0  0  0  0  0  0  0  0  0  0  0  0
   -1.1432   -3.2782   -1.2738 H   0  0  0  0  0  0  0  0  0  0  0  0
   -1.6654   -4.2449    0.1700 H   0  0  0  0  0  0  0  0  0  0  0  0
   -1.1074   -1.8312    2.6551 H   0  0  0  0  0  0  0  0  0  0  0  0
   -1.8292   -3.4045    1.9655 H   0  0  0  0  0  0  0  0  0  0  0  0
   -0.1687   -3.3176    2.5436 H   0  0  0  0  0  0  0  0  0  0  0  0
   -3.4241    1.5905   -2.7203 H   0  0  0  0  0  0  0  0  0  0  0  0
   -5.3170    3.2481   -2.6953 H   0  0  0  0  0  0  0  0  0  0  0  0
   -6.1976    4.0420   -0.5322 H   0  0  0  0  0  0  0  0  0  0  0  0
   -5.2641    3.2471    1.5807 H   0  0  0  0  0  0  0  0  0  0  0  0
   -3.4456    1.6546    1.5474 H   0  0  0  0  0  0  0  0  0  0  0  0
   -4.2443   -0.4862    0.7579 H   0  0  0  0  0  0  0  0  0  0  0  0
   -3.5098   -2.0743    0.8856 H   0  0  0  0  0  0  0  0  0  0  0  0
   -3.1657   -0.7204    2.1165 H   0  0  0  0  0  0  0  0  0  0  0  0
    3.5255   -0.8548   -2.0315 H   0  0  0  0  0  0  0  0  0  0  0  0
    4.5125    1.9800   -1.6664 H   0  0  0  0  0  0  0  0  0  0  0  0
    6.5622    2.9287   -0.6998 H   0  0  0  0  0  0  0  0  0  0  0  0
    7.0270   -0.5664    1.6844 H   0  0  0  0  0  0  0  0  0  0  0  0
    4.9407   -1.5348    0.7022 H   0  0  0  0  0  0  0  0  0  0  0  0
  1  2  2  0
  2  3  1  0
  3  4  1  0
  4  5  2  0
  5  6  1  0
  6  7  1  0
  6  8  1  0
  5  9  1  0
  9 10  1  0
 10 11  1  0
 11 12  2  0
 10 13  1  0
 13 14  2  0
 14 15  1  0
 15 16  2  0
 16 17  1  0
 17 18  2  0
  9 19  1  0
  2 20  1  0
 20 21  1  0
 21 22  2  0
 22 23  1  0
 23 24  2  0
 24 25  1  0
 25 26  2  0
 24 27  1  0
 11  4  1  0
 18 13  1  0
 26 21  1  0
  3 28  1  0
  6 29  1  0
  7 30  1  0
  7 31  1  0
  7 32  1  0
  8 33  1  0
  8 34  1  0
  8 35  1  0
 14 36  1  0
 15 37  1  0
 16 38  1  0
 17 39  1  0
 18 40  1  0
 19 41  1  0
 19 42  1  0
 19 43  1  0
 20 44  1  0
 22 45  1  0
 23 46  1  0
 25 47  1  0
 26 48  1  0
M  END
>  <Ligand ID>  (1) 
LIG0003454

>  <Ligand>  (1) 
pyrazolone, 1

>  <SMILES>  (1) 
O=C(Nc1c(C(C)C)n(n(c1=O)c1ccccc1)C)Nc1ccc(cc1)Cl

>  <CID>  (1) 
24776341.0

>  <ChEMBL ID>  (1) 
nan

>  <InChiKey>  (1) 
PAEBEUZTAPIOIO-UHFFFAOYSA-N

>  <InChi>  (1) 
InChI=1S/C20H21ClN4O2/c1-13(2)18-17(23-20(27)22-15-11-9-14(21)10-12-15)19(26)25(24(18)3)16-7-5-4-6-8-16/h4-13H,1-3H3,(H2,22,23,27)

>  <IUPAC Name>  (1) 
1-(4-chlorophenyl)-3-(1-methyl-3-oxo-2-phenyl-5-propan-2-ylpyrazol-4-yl)urea

$$$$
