
     RDKit          3D

 78 82  0  0  0  0  0  0  0  0999 V2000
   -5.7630    1.3361    0.6270 O   0  0  0  0  0  0  0  0  0  0  0  0
   -5.7778    1.0379   -0.7362 C   0  0  2  0  0  0  0  0  0  0  0  0
   -6.6750   -0.0901   -1.0446 C   0  0  0  0  0  0  0  0  0  0  0  0
   -6.3520   -1.1505   -1.8587 C   0  0  0  0  0  0  0  0  0  0  0  0
   -7.2527   -2.1640   -2.0947 C   0  0  0  0  0  0  0  0  0  0  0  0
   -8.5059   -2.1418   -1.5187 C   0  0  0  0  0  0  0  0  0  0  0  0
   -8.8606   -1.0923   -0.6972 C   0  0  0  0  0  0  0  0  0  0  0  0
   -7.9385   -0.0992   -0.4838 C   0  0  0  0  0  0  0  0  0  0  0  0
  -10.1498   -1.0620   -0.0992 N   0  0  0  0  0  0  0  0  0  0  0  0
  -10.5651    0.2764    0.9389 S   0  0  0  0  0  0  0  0  0  0  0  0
  -10.4192    1.5802    0.1853 O   0  0  0  0  0  0  0  0  0  0  0  0
  -11.9696    0.1055    1.4470 O   0  0  0  0  0  0  0  0  0  0  0  0
   -9.4726    0.3192    2.3292 C   0  0  0  0  0  0  0  0  0  0  0  0
   -9.3718   -3.1931   -1.7938 O   0  0  0  0  0  0  0  0  0  0  0  0
   -4.3855    0.7071   -1.2148 C   0  0  0  0  0  0  0  0  0  0  0  0
   -3.4683    1.8072   -0.9998 N   0  0  0  0  0  0  0  0  0  0  0  0
   -2.1729    1.4350   -1.4912 C   0  0  0  0  0  0  0  0  0  0  0  0
   -1.4917    0.3488   -0.6946 C   0  0  0  0  0  0  0  0  0  0  0  0
   -0.1532    0.1046   -1.3664 C   0  0  0  0  0  0  0  0  0  0  0  0
    0.6822   -0.8840   -0.5806 C   0  0  0  0  0  0  0  0  0  0  0  0
    0.6675   -0.6192    0.8008 N   0  0  0  0  0  0  0  0  0  0  0  0
   -0.0010    0.5137    1.2905 C   0  0  0  0  0  0  0  0  0  0  0  0
   -1.3885    0.7207    0.7480 C   0  0  0  0  0  0  0  0  0  0  0  0
    1.8123   -1.3763    1.7739 S   0  0  0  0  0  0  0  0  0  0  0  0
    1.7369   -2.8860    1.6026 O   0  0  0  0  0  0  0  0  0  0  0  0
    1.6036   -1.1356    3.2418 O   0  0  0  0  0  0  0  0  0  0  0  0
    3.4147   -0.8847    1.2698 C   0  0  0  0  0  0  0  0  0  0  0  0
    4.0528    0.2290    1.8204 C   0  0  0  0  0  0  0  0  0  0  0  0
    5.3211    0.5348    1.3539 C   0  0  0  0  0  0  0  0  0  0  0  0
    5.9656   -0.2011    0.3875 C   0  0  0  0  0  0  0  0  0  0  0  0
    5.3077   -1.2937   -0.1346 C   0  0  0  0  0  0  0  0  0  0  0  0
    4.0565   -1.6461    0.2841 C   0  0  0  0  0  0  0  0  0  0  0  0
    7.2676    0.1030   -0.0988 N   0  0  0  0  0  0  0  0  0  0  0  0
    7.5585    0.2500   -1.4058 C   0  0  0  0  0  0  0  0  0  0  0  0
    8.9172    0.5393   -1.4880 C   0  0  0  0  0  0  0  0  0  0  0  0
    9.4579    0.5677   -0.2028 C   0  0  0  0  0  0  0  0  0  0  0  0
    8.3997    0.2921    0.6267 C   0  0  0  0  0  0  0  0  0  0  0  0
    8.6115    0.2457    2.0041 C   0  0  0  0  0  0  0  0  0  0  0  0
    9.8958    0.4812    2.5055 C   0  0  0  0  0  0  0  0  0  0  0  0
   10.9477    0.7587    1.6314 C   0  0  0  0  0  0  0  0  0  0  0  0
   10.7266    0.8012    0.2821 C   0  0  0  0  0  0  0  0  0  0  0  0
   11.8324    1.0908   -0.6142 C   0  0  0  0  0  0  0  0  0  0  0  0
   11.6868    1.1414   -1.8705 O   0  0  0  0  0  0  0  0  0  0  0  0
   13.1043    1.3259   -0.1260 O   0  0  0  0  0  0  0  0  0  0  0  0
   -5.7713    0.5009    1.1809 H   0  0  0  0  0  0  0  0  0  0  0  0
   -6.1035    1.9665   -1.2724 H   0  0  0  0  0  0  0  0  0  0  0  0
   -5.3867   -1.2096   -2.3262 H   0  0  0  0  0  0  0  0  0  0  0  0
   -6.9631   -2.9810   -2.7401 H   0  0  0  0  0  0  0  0  0  0  0  0
   -8.2325    0.7158    0.1624 H   0  0  0  0  0  0  0  0  0  0  0  0
  -10.8263   -1.8305   -0.2842 H   0  0  0  0  0  0  0  0  0  0  0  0
  -10.0260    0.2071    3.2735 H   0  0  0  0  0  0  0  0  0  0  0  0
   -8.6597   -0.4484    2.2653 H   0  0  0  0  0  0  0  0  0  0  0  0
   -8.9308    1.2948    2.3816 H   0  0  0  0  0  0  0  0  0  0  0  0
   -9.7654   -3.3908   -2.6978 H   0  0  0  0  0  0  0  0  0  0  0  0
   -4.0846   -0.2069   -0.6694 H   0  0  0  0  0  0  0  0  0  0  0  0
   -4.4166    0.5458   -2.3318 H   0  0  0  0  0  0  0  0  0  0  0  0
   -3.5013    2.1971   -0.0528 H   0  0  0  0  0  0  0  0  0  0  0  0
   -2.3472    1.0477   -2.5383 H   0  0  0  0  0  0  0  0  0  0  0  0
   -1.4820    2.3067   -1.5827 H   0  0  0  0  0  0  0  0  0  0  0  0
   -2.1094   -0.5780   -0.7600 H   0  0  0  0  0  0  0  0  0  0  0  0
    0.3873    1.0508   -1.5391 H   0  0  0  0  0  0  0  0  0  0  0  0
   -0.3620   -0.3463   -2.3534 H   0  0  0  0  0  0  0  0  0  0  0  0
    0.4416   -1.9293   -0.8864 H   0  0  0  0  0  0  0  0  0  0  0  0
    1.7327   -0.7272   -0.9519 H   0  0  0  0  0  0  0  0  0  0  0  0
   -0.0594    0.4378    2.3983 H   0  0  0  0  0  0  0  0  0  0  0  0
    0.5873    1.4413    1.0507 H   0  0  0  0  0  0  0  0  0  0  0  0
   -1.6329    1.8084    0.8887 H   0  0  0  0  0  0  0  0  0  0  0  0
   -2.1515    0.1761    1.3655 H   0  0  0  0  0  0  0  0  0  0  0  0
    3.5516    0.8173    2.5846 H   0  0  0  0  0  0  0  0  0  0  0  0
    5.8456    1.3888    1.7557 H   0  0  0  0  0  0  0  0  0  0  0  0
    5.7708   -1.9153   -0.9049 H   0  0  0  0  0  0  0  0  0  0  0  0
    3.5412   -2.5124   -0.1336 H   0  0  0  0  0  0  0  0  0  0  0  0
    6.8960    0.1661   -2.2394 H   0  0  0  0  0  0  0  0  0  0  0  0
    9.4554    0.7123   -2.4113 H   0  0  0  0  0  0  0  0  0  0  0  0
    7.7817    0.0276    2.6741 H   0  0  0  0  0  0  0  0  0  0  0  0
   10.0939    0.4515    3.5828 H   0  0  0  0  0  0  0  0  0  0  0  0
   11.9453    0.9421    2.0089 H   0  0  0  0  0  0  0  0  0  0  0  0
   13.8892    1.1397   -0.7290 H   0  0  0  0  0  0  0  0  0  0  0  0
  1  2  1  0
  2  3  1  0
  3  4  2  0
  4  5  1  0
  5  6  2  0
  6  7  1  0
  7  8  2  0
  7  9  1  0
  9 10  1  0
 10 11  2  0
 10 12  2  0
 10 13  1  0
  6 14  1  0
  2 15  1  0
 15 16  1  0
 16 17  1  0
 17 18  1  0
 18 19  1  0
 19 20  1  0
 20 21  1  0
 21 22  1  0
 22 23  1  0
 21 24  1  0
 24 25  2  0
 24 26  2  0
 24 27  1  0
 27 28  2  0
 28 29  1  0
 29 30  2  0
 30 31  1  0
 31 32  2  0
 30 33  1  0
 33 34  1  0
 34 35  2  0
 35 36  1  0
 36 37  2  0
 37 38  1  0
 38 39  2  0
 39 40  1  0
 40 41  2  0
 41 42  1  0
 42 43  2  0
 42 44  1  0
  8  3  1  0
 23 18  1  0
 32 27  1  0
 37 33  1  0
 41 36  1  0
  1 45  1  0
  2 46  1  6
  4 47  1  0
  5 48  1  0
  8 49  1  0
  9 50  1  0
 13 51  1  0
 13 52  1  0
 13 53  1  0
 14 54  1  0
 15 55  1  0
 15 56  1  0
 16 57  1  0
 17 58  1  0
 17 59  1  0
 18 60  1  0
 19 61  1  0
 19 62  1  0
 20 63  1  0
 20 64  1  0
 22 65  1  0
 22 66  1  0
 23 67  1  0
 23 68  1  0
 28 69  1  0
 29 70  1  0
 31 71  1  0
 32 72  1  0
 34 73  1  0
 35 74  1  0
 38 75  1  0
 39 76  1  0
 40 77  1  0
 44 78  1  0
M  END
>  <Ligand ID>  (1) 
LIG0004946

>  <Ligand>  (1) 
CHEMBL100351

>  <SMILES>  (1) 
O[C@H](c1ccc(c(c1)NS(=O)(=O)C)O)CNCC1CCN(CC1)S(=O)(=O)c1ccc(cc1)n1ccc2c1cccc2C(=O)O

>  <CID>  (1) 
10233153.0

>  <ChEMBL ID>  (1) 
nan

>  <InChiKey>  (1) 
ANBDOUDERJFOEE-LJAQVGFWSA-N

>  <InChi>  (1) 
InChI=1S/C30H34N4O8S2/c1-43(39,40)32-26-17-21(5-10-28(26)35)29(36)19-31-18-20-11-14-33(15-12-20)44(41,42)23-8-6-22(7-9-23)34-16-13-24-25(30(37)38)3-2-4-27(24)34/h2-10,13,16-17,20,29,31-32,35-36H,11-12,14-15,18-19H2,1H3,(H,37,38)/t29-/m0/s1

>  <IUPAC Name>  (1) 
1-[4-[4-[[[(2R)-2-hydroxy-2-[4-hydroxy-3-(methanesulfonamido)phenyl]ethyl]amino]methyl]piperidin-1-yl]sulfonylphenyl]indole-4-carboxylic acid

$$$$
