
     RDKit          3D

 60 63  0  0  0  0  0  0  0  0999 V2000
   -2.3071   -0.9682   -2.7374 O   0  0  0  0  0  0  0  0  0  0  0  0
   -3.0742   -0.8734   -1.7559 C   0  0  0  0  0  0  0  0  0  0  0  0
   -4.4519   -1.4472   -1.8782 C   0  0  0  0  0  0  0  0  0  0  0  0
   -5.4962   -0.4857   -1.3825 C   0  0  0  0  0  0  0  0  0  0  0  0
   -5.6371    0.5975   -2.4555 C   0  0  0  0  0  0  0  0  0  0  0  0
   -5.0705    0.1647   -0.1155 C   0  0  0  0  0  0  0  0  0  0  0  0
   -3.7453    0.2713    0.2690 C   0  0  0  0  0  0  0  0  0  0  0  0
   -2.6818   -0.2363   -0.5208 N   0  0  0  0  0  0  0  0  0  0  0  0
   -1.3007   -0.1789   -0.2207 C   0  0  0  0  0  0  0  0  0  0  0  0
   -0.5049    0.6092   -1.2647 C   0  0  0  0  0  0  0  0  0  0  0  0
    0.8274    0.9884   -0.6012 C   0  0  0  0  0  0  0  0  0  0  0  0
    1.2765   -0.0943    0.2793 N   0  0  0  0  0  0  0  0  0  0  0  0
    0.8669   -1.3150   -0.4337 C   0  0  0  0  0  0  0  0  0  0  0  0
   -0.6280   -1.5403   -0.2201 C   0  0  0  0  0  0  0  0  0  0  0  0
    2.7320   -0.0500    0.3142 C   0  0  0  0  0  0  0  0  0  0  0  0
    3.3623   -1.0861    1.1777 C   0  0  0  0  0  0  0  0  0  0  0  0
    4.5730   -1.7262    0.6194 C   0  0  0  0  0  0  0  0  0  0  0  0
    5.2977   -1.0413   -0.4779 C   0  0  0  0  0  0  0  0  0  0  0  0
    5.8448    0.3119   -0.2034 C   0  0  0  0  0  0  0  0  0  0  0  0
    5.6878    0.8049    1.1841 C   0  0  0  0  0  0  0  0  0  0  0  0
    4.3972    1.4761    1.4896 C   0  0  0  0  0  0  0  0  0  0  0  0
    3.2832    1.3060    0.5261 C   0  0  0  0  0  0  0  0  0  0  0  0
   -3.4482    0.8903    1.4584 C   0  0  0  0  0  0  0  0  0  0  0  0
   -4.4872    1.3822    2.2240 C   0  0  0  0  0  0  0  0  0  0  0  0
   -5.8079    1.2926    1.8716 C   0  0  0  0  0  0  0  0  0  0  0  0
   -6.1059    0.6715    0.6783 C   0  0  0  0  0  0  0  0  0  0  0  0
   -4.6878   -1.6766   -2.9232 H   0  0  0  0  0  0  0  0  0  0  0  0
   -4.4918   -2.3924   -1.2911 H   0  0  0  0  0  0  0  0  0  0  0  0
   -6.4450   -1.0053   -1.2231 H   0  0  0  0  0  0  0  0  0  0  0  0
   -6.6423    1.0381   -2.4910 H   0  0  0  0  0  0  0  0  0  0  0  0
   -5.3364    0.2363   -3.4405 H   0  0  0  0  0  0  0  0  0  0  0  0
   -4.9331    1.4435   -2.2176 H   0  0  0  0  0  0  0  0  0  0  0  0
   -1.0686    0.3144    0.7310 H   0  0  0  0  0  0  0  0  0  0  0  0
   -0.2894    0.0459   -2.1713 H   0  0  0  0  0  0  0  0  0  0  0  0
   -1.0261    1.5360   -1.5441 H   0  0  0  0  0  0  0  0  0  0  0  0
    1.5207    1.1706   -1.4449 H   0  0  0  0  0  0  0  0  0  0  0  0
    0.5956    1.9030   -0.0218 H   0  0  0  0  0  0  0  0  0  0  0  0
    1.3487   -2.2208   -0.0707 H   0  0  0  0  0  0  0  0  0  0  0  0
    1.1336   -1.2616   -1.5204 H   0  0  0  0  0  0  0  0  0  0  0  0
   -0.7649   -2.1008    0.7035 H   0  0  0  0  0  0  0  0  0  0  0  0
   -0.9900   -2.1567   -1.0684 H   0  0  0  0  0  0  0  0  0  0  0  0
    2.9900   -0.3344   -0.7503 H   0  0  0  0  0  0  0  0  0  0  0  0
    2.6454   -1.8967    1.4654 H   0  0  0  0  0  0  0  0  0  0  0  0
    3.5858   -0.6389    2.1929 H   0  0  0  0  0  0  0  0  0  0  0  0
    5.3350   -1.9820    1.4045 H   0  0  0  0  0  0  0  0  0  0  0  0
    4.3101   -2.7450    0.2043 H   0  0  0  0  0  0  0  0  0  0  0  0
    6.1726   -1.7239   -0.7023 H   0  0  0  0  0  0  0  0  0  0  0  0
    4.7745   -1.0164   -1.4617 H   0  0  0  0  0  0  0  0  0  0  0  0
    6.9149    0.3862   -0.4929 H   0  0  0  0  0  0  0  0  0  0  0  0
    5.3544    1.0828   -0.8703 H   0  0  0  0  0  0  0  0  0  0  0  0
    5.8945   -0.0753    1.8625 H   0  0  0  0  0  0  0  0  0  0  0  0
    6.5406    1.4791    1.4178 H   0  0  0  0  0  0  0  0  0  0  0  0
    4.5892    2.5925    1.5021 H   0  0  0  0  0  0  0  0  0  0  0  0
    4.0466    1.3145    2.5518 H   0  0  0  0  0  0  0  0  0  0  0  0
    2.4456    1.9318    0.9566 H   0  0  0  0  0  0  0  0  0  0  0  0
    3.5170    1.8505   -0.4282 H   0  0  0  0  0  0  0  0  0  0  0  0
   -2.4643    1.0146    1.8275 H   0  0  0  0  0  0  0  0  0  0  0  0
   -4.2622    1.8717    3.1630 H   0  0  0  0  0  0  0  0  0  0  0  0
   -6.5763    1.6961    2.5113 H   0  0  0  0  0  0  0  0  0  0  0  0
   -7.1386    0.5956    0.3919 H   0  0  0  0  0  0  0  0  0  0  0  0
  1  2  2  0
  2  3  1  0
  3  4  1  0
  4  5  1  0
  4  6  1  0
  6  7  2  0
  7  8  1  0
  8  9  1  0
  9 10  1  0
 10 11  1  0
 11 12  1  0
 12 13  1  0
 13 14  1  0
 12 15  1  0
 15 16  1  0
 16 17  1  0
 17 18  1  0
 18 19  1  0
 19 20  1  0
 20 21  1  0
 21 22  1  0
  7 23  1  0
 23 24  2  0
 24 25  1  0
 25 26  2  0
  8  2  1  0
 14  9  1  0
 22 15  1  0
 26  6  1  0
  3 27  1  0
  3 28  1  0
  4 29  1  0
  5 30  1  0
  5 31  1  0
  5 32  1  0
  9 33  1  0
 10 34  1  0
 10 35  1  0
 11 36  1  0
 11 37  1  0
 13 38  1  0
 13 39  1  0
 14 40  1  0
 14 41  1  0
 15 42  1  0
 16 43  1  0
 16 44  1  0
 17 45  1  0
 17 46  1  0
 18 47  1  0
 18 48  1  0
 19 49  1  0
 19 50  1  0
 20 51  1  0
 20 52  1  0
 21 53  1  0
 21 54  1  0
 22 55  1  0
 22 56  1  0
 23 57  1  0
 24 58  1  0
 25 59  1  0
 26 60  1  0
M  END
>  <Ligand ID>  (1) 
LIG0004000

>  <Ligand>  (1) 
CHEMBL2387200

>  <SMILES>  (1) 
O=C1CC(C)c2c(N1C1CCN(CC1)C1CCCCCCC1)cccc2

>  <CID>  (1) 
71624389.0

>  <ChEMBL ID>  (1) 
nan

>  <InChiKey>  (1) 
OOLFHBYKMZMHBX-UHFFFAOYSA-N

>  <InChi>  (1) 
InChI=1S/C23H34N2O/c1-18-17-23(26)25(22-12-8-7-11-21(18)22)20-13-15-24(16-14-20)19-9-5-3-2-4-6-10-19/h7-8,11-12,18-20H,2-6,9-10,13-17H2,1H3

>  <IUPAC Name>  (1) 
1-(1-cyclooctylpiperidin-4-yl)-4-methyl-3,4-dihydroquinolin-2-one

$$$$
