
     RDKit          3D

 47 49  0  0  0  0  0  0  0  0999 V2000
    7.7234    0.4787    2.2939 O   0  0  0  0  0  0  0  0  0  0  0  0
    6.7011    0.9445    1.4787 C   0  0  0  0  0  0  0  0  0  0  0  0
    5.5359    1.0861    1.8964 O   0  0  0  0  0  0  0  0  0  0  0  0
    7.0626    1.2704    0.0716 C   0  0  0  0  0  0  0  0  0  0  0  0
    6.6178    0.1450   -0.8635 C   0  0  0  0  0  0  0  0  0  0  0  0
    5.1347   -0.0133   -0.7567 C   0  0  0  0  0  0  0  0  0  0  0  0
    4.3430    0.7358   -1.6277 C   0  0  0  0  0  0  0  0  0  0  0  0
    2.9788    0.6221   -1.5710 C   0  0  0  0  0  0  0  0  0  0  0  0
    2.3266   -0.2207   -0.6691 C   0  0  0  0  0  0  0  0  0  0  0  0
    3.1321   -0.9640    0.1966 C   0  0  0  0  0  0  0  0  0  0  0  0
    4.5267   -0.8485    0.1393 C   0  0  0  0  0  0  0  0  0  0  0  0
    0.9018   -0.3228   -0.6331 N   0  0  0  0  0  0  0  0  0  0  0  0
    0.2247   -1.2137    0.3205 C   0  0  0  0  0  0  0  0  0  0  0  0
   -1.2359   -1.0891    0.0813 C   0  0  0  0  0  0  0  0  0  0  0  0
   -1.8412   -1.9350   -0.8295 C   0  0  0  0  0  0  0  0  0  0  0  0
   -3.1904   -1.8942   -1.1166 C   0  0  0  0  0  0  0  0  0  0  0  0
   -3.9692   -0.9537   -0.4529 C   0  0  0  0  0  0  0  0  0  0  0  0
   -3.3940   -0.0864    0.4702 C   0  0  0  0  0  0  0  0  0  0  0  0
   -2.0309   -0.1606    0.7305 C   0  0  0  0  0  0  0  0  0  0  0  0
   -4.2113    0.8320    1.1045 O   0  0  0  0  0  0  0  0  0  0  0  0
   -5.5662    0.8167    0.7808 C   0  0  0  0  0  0  0  0  0  0  0  0
   -6.0178    1.5862   -0.2709 C   0  0  0  0  0  0  0  0  0  0  0  0
   -7.3624    1.5954   -0.6218 C   0  0  0  0  0  0  0  0  0  0  0  0
   -8.2516    0.8103    0.1102 C   0  0  0  0  0  0  0  0  0  0  0  0
   -7.7813    0.0336    1.1754 C   0  0  0  0  0  0  0  0  0  0  0  0
   -6.4330    0.0349    1.5145 C   0  0  0  0  0  0  0  0  0  0  0  0
    7.5297    0.1852    3.2429 H   0  0  0  0  0  0  0  0  0  0  0  0
    6.5039    2.2007   -0.1833 H   0  0  0  0  0  0  0  0  0  0  0  0
    8.1191    1.5160   -0.0556 H   0  0  0  0  0  0  0  0  0  0  0  0
    6.8949    0.3908   -1.8887 H   0  0  0  0  0  0  0  0  0  0  0  0
    7.1078   -0.7917   -0.5584 H   0  0  0  0  0  0  0  0  0  0  0  0
    4.7633    1.4142   -2.3570 H   0  0  0  0  0  0  0  0  0  0  0  0
    2.3642    1.2062   -2.2527 H   0  0  0  0  0  0  0  0  0  0  0  0
    2.6795   -1.6379    0.9220 H   0  0  0  0  0  0  0  0  0  0  0  0
    5.1612   -1.4322    0.8187 H   0  0  0  0  0  0  0  0  0  0  0  0
    0.3715    0.2637   -1.3146 H   0  0  0  0  0  0  0  0  0  0  0  0
    0.5073   -2.2559    0.0998 H   0  0  0  0  0  0  0  0  0  0  0  0
    0.4972   -0.9461    1.3665 H   0  0  0  0  0  0  0  0  0  0  0  0
   -1.2472   -2.6865   -1.3672 H   0  0  0  0  0  0  0  0  0  0  0  0
   -3.6583   -2.5611   -1.8312 H   0  0  0  0  0  0  0  0  0  0  0  0
   -5.0245   -0.9310   -0.6878 H   0  0  0  0  0  0  0  0  0  0  0  0
   -1.5787    0.4995    1.4351 H   0  0  0  0  0  0  0  0  0  0  0  0
   -5.3164    2.2003   -0.8411 H   0  0  0  0  0  0  0  0  0  0  0  0
   -7.7441    2.1919   -1.4461 H   0  0  0  0  0  0  0  0  0  0  0  0
   -9.3142    0.8050   -0.1508 H   0  0  0  0  0  0  0  0  0  0  0  0
   -8.4663   -0.5888    1.7612 H   0  0  0  0  0  0  0  0  0  0  0  0
   -6.0744   -0.5658    2.3369 H   0  0  0  0  0  0  0  0  0  0  0  0
  1  2  1  0
  2  3  2  0
  2  4  1  0
  4  5  1  0
  5  6  1  0
  6  7  2  0
  7  8  1  0
  8  9  2  0
  9 10  1  0
 10 11  2  0
  9 12  1  0
 12 13  1  0
 13 14  1  0
 14 15  2  0
 15 16  1  0
 16 17  2  0
 17 18  1  0
 18 19  2  0
 18 20  1  0
 20 21  1  0
 21 22  2  0
 22 23  1  0
 23 24  2  0
 24 25  1  0
 25 26  2  0
 11  6  1  0
 19 14  1  0
 26 21  1  0
  1 27  1  0
  4 28  1  0
  4 29  1  0
  5 30  1  0
  5 31  1  0
  7 32  1  0
  8 33  1  0
 10 34  1  0
 11 35  1  0
 12 36  1  0
 13 37  1  0
 13 38  1  0
 15 39  1  0
 16 40  1  0
 17 41  1  0
 19 42  1  0
 22 43  1  0
 23 44  1  0
 24 45  1  0
 25 46  1  0
 26 47  1  0
M  END
>  <Ligand ID>  (1) 
LIG0000661

>  <Ligand>  (1) 
GW9508

>  <SMILES>  (1) 
OC(=O)CCc1ccc(cc1)NCc1cccc(c1)Oc1ccccc1

>  <CID>  (1) 
11595431.0

>  <ChEMBL ID>  (1) 
nan

>  <InChiKey>  (1) 
DGENZVKCTGIDRZ-UHFFFAOYSA-N

>  <InChi>  (1) 
InChI=1S/C22H21NO3/c24-22(25)14-11-17-9-12-19(13-10-17)23-16-18-5-4-8-21(15-18)26-20-6-2-1-3-7-20/h1-10,12-13,15,23H,11,14,16H2,(H,24,25)

>  <IUPAC Name>  (1) 
3-[4-[(3-phenoxyphenyl)methylamino]phenyl]propanoic acid

$$$$
