
     RDKit          3D

 58 61  0  0  0  0  0  0  0  0999 V2000
    4.8003    2.9403   -2.5799 C   0  0  0  0  0  0  0  0  0  0  0  0
    5.6031    2.1680   -1.6822 O   0  0  0  0  0  0  0  0  0  0  0  0
    5.0241    1.2008   -0.8961 C   0  0  0  0  0  0  0  0  0  0  0  0
    3.6490    0.9494   -0.9562 C   0  0  0  0  0  0  0  0  0  0  0  0
    3.0837   -0.0198   -0.1645 C   0  0  0  0  0  0  0  0  0  0  0  0
    3.9029   -0.7331    0.6853 C   0  0  0  0  0  0  0  0  0  0  0  0
    5.2556   -0.5216    0.7782 C   0  0  0  0  0  0  0  0  0  0  0  0
    5.8091    0.4641   -0.0319 C   0  0  0  0  0  0  0  0  0  0  0  0
    7.1879    0.7429    0.0033 O   0  0  0  0  0  0  0  0  0  0  0  0
    7.9823   -0.0023   -0.9039 C   0  0  0  0  0  0  0  0  0  0  0  0
    6.1049   -1.2122    1.6136 O   0  0  0  0  0  0  0  0  0  0  0  0
    5.6649   -2.2253    2.4749 C   0  0  0  0  0  0  0  0  0  0  0  0
    1.6528   -0.3338   -0.1811 C   0  0  0  0  0  0  0  0  0  0  0  0
    0.9639   -0.1870   -1.3666 C   0  0  0  0  0  0  0  0  0  0  0  0
   -0.4001   -0.4823   -1.3938 C   0  0  0  0  0  0  0  0  0  0  0  0
   -1.0715   -0.9161   -0.2647 C   0  0  0  0  0  0  0  0  0  0  0  0
   -0.3806   -1.0616    0.9174 C   0  0  0  0  0  0  0  0  0  0  0  0
    0.9802   -0.7665    0.9423 C   0  0  0  0  0  0  0  0  0  0  0  0
   -2.5131   -1.2026   -0.4038 C   0  0  0  0  0  0  0  0  0  0  0  0
   -3.2934    0.0285   -0.1252 C   0  0  0  0  0  0  0  0  0  0  0  0
   -3.0582    0.5106    1.1954 N   0  0  0  0  0  0  0  0  0  0  0  0
   -3.8360    1.6261    1.6135 C   0  0  0  0  0  0  0  0  0  0  0  0
   -4.9042    2.0845    0.6813 C   0  0  0  0  0  0  0  0  0  0  0  0
   -5.5786    0.9003    0.0802 C   0  0  0  0  0  0  0  0  0  0  0  0
   -4.7533   -0.1349   -0.3240 C   0  0  0  0  0  0  0  0  0  0  0  0
   -5.3241   -1.2522   -0.8857 C   0  0  0  0  0  0  0  0  0  0  0  0
   -6.6857   -1.3683   -1.0559 C   0  0  0  0  0  0  0  0  0  0  0  0
   -7.1725   -2.5480   -1.6387 O   0  0  0  0  0  0  0  0  0  0  0  0
   -7.5170   -0.3443   -0.6574 C   0  0  0  0  0  0  0  0  0  0  0  0
   -6.9268    0.7884   -0.0870 C   0  0  0  0  0  0  0  0  0  0  0  0
   -8.8656   -0.4836   -0.8368 O   0  0  0  0  0  0  0  0  0  0  0  0
    4.3167    2.2361   -3.2837 H   0  0  0  0  0  0  0  0  0  0  0  0
    5.4463    3.6643   -3.1069 H   0  0  0  0  0  0  0  0  0  0  0  0
    3.9975    3.4283   -1.9843 H   0  0  0  0  0  0  0  0  0  0  0  0
    3.0019    1.5151   -1.6303 H   0  0  0  0  0  0  0  0  0  0  0  0
    3.4669   -1.4938    1.3084 H   0  0  0  0  0  0  0  0  0  0  0  0
    7.7087    0.3202   -1.9234 H   0  0  0  0  0  0  0  0  0  0  0  0
    7.7866   -1.0790   -0.7529 H   0  0  0  0  0  0  0  0  0  0  0  0
    9.0638    0.2217   -0.7777 H   0  0  0  0  0  0  0  0  0  0  0  0
    6.3732   -2.3297    3.3469 H   0  0  0  0  0  0  0  0  0  0  0  0
    5.6253   -3.2149    1.9452 H   0  0  0  0  0  0  0  0  0  0  0  0
    4.6752   -1.9390    2.8867 H   0  0  0  0  0  0  0  0  0  0  0  0
    1.4638    0.1530   -2.2760 H   0  0  0  0  0  0  0  0  0  0  0  0
   -0.9131   -0.3586   -2.3300 H   0  0  0  0  0  0  0  0  0  0  0  0
   -0.9051   -1.4028    1.8099 H   0  0  0  0  0  0  0  0  0  0  0  0
    1.5211   -0.8862    1.8887 H   0  0  0  0  0  0  0  0  0  0  0  0
   -2.7289   -1.5363   -1.4511 H   0  0  0  0  0  0  0  0  0  0  0  0
   -2.8037   -2.0652    0.2292 H   0  0  0  0  0  0  0  0  0  0  0  0
   -2.9715    0.8026   -0.8632 H   0  0  0  0  0  0  0  0  0  0  0  0
   -3.1560   -0.2633    1.8919 H   0  0  0  0  0  0  0  0  0  0  0  0
   -4.3185    1.4428    2.6182 H   0  0  0  0  0  0  0  0  0  0  0  0
   -3.1623    2.5083    1.8248 H   0  0  0  0  0  0  0  0  0  0  0  0
   -4.5671    2.7906   -0.0995 H   0  0  0  0  0  0  0  0  0  0  0  0
   -5.7043    2.6041    1.2742 H   0  0  0  0  0  0  0  0  0  0  0  0
   -4.6872   -2.0681   -1.2053 H   0  0  0  0  0  0  0  0  0  0  0  0
   -6.8670   -3.4642   -1.3047 H   0  0  0  0  0  0  0  0  0  0  0  0
   -7.5627    1.5883    0.2250 H   0  0  0  0  0  0  0  0  0  0  0  0
   -9.4835    0.2176   -1.2234 H   0  0  0  0  0  0  0  0  0  0  0  0
  1  2  1  0
  2  3  1  0
  3  4  2  0
  4  5  1  0
  5  6  2  0
  6  7  1  0
  7  8  2  0
  8  9  1  0
  9 10  1  0
  7 11  1  0
 11 12  1  0
  5 13  1  0
 13 14  2  0
 14 15  1  0
 15 16  2  0
 16 17  1  0
 17 18  2  0
 16 19  1  0
 19 20  1  0
 20 21  1  0
 21 22  1  0
 22 23  1  0
 23 24  1  0
 24 25  2  0
 25 26  1  0
 26 27  2  0
 27 28  1  0
 27 29  1  0
 29 30  2  0
 29 31  1  0
  8  3  1  0
 18 13  1  0
 25 20  1  0
 30 24  1  0
  1 32  1  0
  1 33  1  0
  1 34  1  0
  4 35  1  0
  6 36  1  0
 10 37  1  0
 10 38  1  0
 10 39  1  0
 12 40  1  0
 12 41  1  0
 12 42  1  0
 14 43  1  0
 15 44  1  0
 17 45  1  0
 18 46  1  0
 19 47  1  0
 19 48  1  0
 20 49  1  0
 21 50  1  0
 22 51  1  0
 22 52  1  0
 23 53  1  0
 23 54  1  0
 26 55  1  0
 28 56  1  0
 30 57  1  0
 31 58  1  0
M  END
>  <Ligand ID>  (1) 
LIG0004793

>  <Ligand>  (1) 
CHEMBL421871

>  <SMILES>  (1) 
COc1cc(cc(c1OC)OC)c1ccc(cc1)CC1NCCc2c1cc(O)c(c2)O

>  <CID>  (1) 
44312924.0

>  <ChEMBL ID>  (1) 
nan

>  <InChiKey>  (1) 
UFPJRJORSDHDFB-UHFFFAOYSA-N

>  <InChi>  (1) 
InChI=1S/C25H27NO5/c1-29-23-12-18(13-24(30-2)25(23)31-3)16-6-4-15(5-7-16)10-20-19-14-22(28)21(27)11-17(19)8-9-26-20/h4-7,11-14,20,26-28H,8-10H2,1-3H3

>  <IUPAC Name>  (1) 
1-[[4-(3,4,5-trimethoxyphenyl)phenyl]methyl]-1,2,3,4-tetrahydroisoquinoline-6,7-diol

$$$$
