
     RDKit          3D

 64 66  0  0  0  0  0  0  0  0999 V2000
    9.0903    2.6344    0.1929 O   0  0  0  0  0  0  0  0  0  0  0  0
    8.3695    1.5023   -0.2588 C   0  0  0  0  0  0  0  0  0  0  0  0
    7.6944    1.6732   -1.2829 O   0  0  0  0  0  0  0  0  0  0  0  0
    8.5123    0.2864    0.5345 C   0  0  0  0  0  0  0  0  0  0  0  0
    7.7300   -0.8884    0.0582 C   0  0  0  0  0  0  0  0  0  0  0  0
    6.2705   -0.6723    0.0343 C   0  0  0  0  0  0  0  0  0  0  0  0
    5.5964   -0.8458    1.2403 C   0  0  0  0  0  0  0  0  0  0  0  0
    4.2274   -0.6928    1.3286 C   0  0  0  0  0  0  0  0  0  0  0  0
    3.4450   -0.3573    0.2182 C   0  0  0  0  0  0  0  0  0  0  0  0
    4.1361   -0.1919   -0.9628 C   0  0  0  0  0  0  0  0  0  0  0  0
    5.5211   -0.3471   -1.0507 C   0  0  0  0  0  0  0  0  0  0  0  0
    2.0499   -0.2056    0.2765 N   0  0  0  0  0  0  0  0  0  0  0  0
    1.2592    0.4267   -0.7903 C   0  0  0  0  0  0  0  0  0  0  0  0
    0.2057   -0.4719   -1.3498 C   0  0  0  0  0  0  0  0  0  0  0  0
   -0.5762   -1.1650   -0.2444 C   0  0  0  0  0  0  0  0  0  0  0  0
    0.3070   -1.7149    0.8119 C   0  0  0  0  0  0  0  0  0  0  0  0
    1.2369   -0.6779    1.4116 C   0  0  0  0  0  0  0  0  0  0  0  0
   -1.5004   -0.2238    0.2746 N   0  0  0  0  0  0  0  0  0  0  0  0
   -2.3654   -0.7119    1.2874 C   0  0  0  0  0  0  0  0  0  0  0  0
   -3.2860    0.4501    1.6744 C   0  0  1  0  0  0  0  0  0  0  0  0
   -3.9537    0.9828    0.4779 C   0  0  0  0  0  0  0  0  0  0  0  0
   -3.5281    2.1647   -0.1341 C   0  0  0  0  0  0  0  0  0  0  0  0
   -4.1406    2.6711   -1.2458 C   0  0  0  0  0  0  0  0  0  0  0  0
   -5.2097    2.0083   -1.7897 C   0  0  0  0  0  0  0  0  0  0  0  0
   -5.6802    0.8222   -1.2218 C   0  0  0  0  0  0  0  0  0  0  0  0
   -5.0456    0.3343   -0.1034 C   0  0  0  0  0  0  0  0  0  0  0  0
   -6.7908    0.1492   -1.7991 N   0  0  0  0  0  0  0  0  0  0  0  0
   -7.3732   -1.3166   -1.0639 S   0  0  0  0  0  0  0  0  0  0  0  0
   -6.2105   -2.2615   -0.9802 O   0  0  0  0  0  0  0  0  0  0  0  0
   -8.4994   -1.8941   -1.8716 O   0  0  0  0  0  0  0  0  0  0  0  0
   -7.9004   -0.8946    0.5789 C   0  0  0  0  0  0  0  0  0  0  0  0
   -5.7977    2.5632   -2.9182 O   0  0  0  0  0  0  0  0  0  0  0  0
   -4.1442    0.0158    2.6574 O   0  0  0  0  0  0  0  0  0  0  0  0
    9.2837    3.3525   -0.4852 H   0  0  0  0  0  0  0  0  0  0  0  0
    8.1800    0.5331    1.5861 H   0  0  0  0  0  0  0  0  0  0  0  0
    9.5889   -0.0486    0.5597 H   0  0  0  0  0  0  0  0  0  0  0  0
    7.9297   -1.8093    0.6602 H   0  0  0  0  0  0  0  0  0  0  0  0
    8.0817   -1.1653   -0.9764 H   0  0  0  0  0  0  0  0  0  0  0  0
    6.1545   -1.1081    2.1367 H   0  0  0  0  0  0  0  0  0  0  0  0
    3.7835   -0.8377    2.2871 H   0  0  0  0  0  0  0  0  0  0  0  0
    3.6533    0.0659   -1.9042 H   0  0  0  0  0  0  0  0  0  0  0  0
    5.9996   -0.2216   -2.0067 H   0  0  0  0  0  0  0  0  0  0  0  0
    0.7004    1.2476   -0.2442 H   0  0  0  0  0  0  0  0  0  0  0  0
    1.8792    0.8735   -1.5538 H   0  0  0  0  0  0  0  0  0  0  0  0
    0.5577   -1.1831   -2.1163 H   0  0  0  0  0  0  0  0  0  0  0  0
   -0.5276    0.1928   -1.8738 H   0  0  0  0  0  0  0  0  0  0  0  0
   -1.1114   -2.0202   -0.7110 H   0  0  0  0  0  0  0  0  0  0  0  0
   -0.2901   -2.1401    1.6286 H   0  0  0  0  0  0  0  0  0  0  0  0
    0.9373   -2.5740    0.4471 H   0  0  0  0  0  0  0  0  0  0  0  0
    0.6759    0.1282    1.8875 H   0  0  0  0  0  0  0  0  0  0  0  0
    1.8438   -1.1911    2.1537 H   0  0  0  0  0  0  0  0  0  0  0  0
   -1.1235    0.7283    0.4457 H   0  0  0  0  0  0  0  0  0  0  0  0
   -3.0187   -1.4917    0.8105 H   0  0  0  0  0  0  0  0  0  0  0  0
   -1.9164   -1.1706    2.1655 H   0  0  0  0  0  0  0  0  0  0  0  0
   -2.6494    1.2813    2.0904 H   0  0  0  0  0  0  0  0  0  0  0  0
   -2.6740    2.6618    0.3294 H   0  0  0  0  0  0  0  0  0  0  0  0
   -3.7682    3.5946   -1.6821 H   0  0  0  0  0  0  0  0  0  0  0  0
   -5.3559   -0.5741    0.3848 H   0  0  0  0  0  0  0  0  0  0  0  0
   -7.2396    0.5431   -2.6536 H   0  0  0  0  0  0  0  0  0  0  0  0
   -9.0076   -0.9183    0.6415 H   0  0  0  0  0  0  0  0  0  0  0  0
   -7.5955    0.1301    0.8637 H   0  0  0  0  0  0  0  0  0  0  0  0
   -7.4507   -1.5637    1.3393 H   0  0  0  0  0  0  0  0  0  0  0  0
   -5.4689    2.2116   -3.8186 H   0  0  0  0  0  0  0  0  0  0  0  0
   -3.7013   -0.6782    3.2155 H   0  0  0  0  0  0  0  0  0  0  0  0
  1  2  1  0
  2  3  2  0
  2  4  1  0
  4  5  1  0
  5  6  1  0
  6  7  2  0
  7  8  1  0
  8  9  2  0
  9 10  1  0
 10 11  2  0
  9 12  1  0
 12 13  1  0
 13 14  1  0
 14 15  1  0
 15 16  1  0
 16 17  1  0
 15 18  1  0
 18 19  1  0
 19 20  1  0
 20 21  1  0
 21 22  2  0
 22 23  1  0
 23 24  2  0
 24 25  1  0
 25 26  2  0
 25 27  1  0
 27 28  1  0
 28 29  2  0
 28 30  2  0
 28 31  1  0
 24 32  1  0
 20 33  1  0
 11  6  1  0
 17 12  1  0
 26 21  1  0
  1 34  1  0
  4 35  1  0
  4 36  1  0
  5 37  1  0
  5 38  1  0
  7 39  1  0
  8 40  1  0
 10 41  1  0
 11 42  1  0
 13 43  1  0
 13 44  1  0
 14 45  1  0
 14 46  1  0
 15 47  1  0
 16 48  1  0
 16 49  1  0
 17 50  1  0
 17 51  1  0
 18 52  1  0
 19 53  1  0
 19 54  1  0
 20 55  1  1
 22 56  1  0
 23 57  1  0
 26 58  1  0
 27 59  1  0
 31 60  1  0
 31 61  1  0
 31 62  1  0
 32 63  1  0
 33 64  1  0
M  END
>  <Ligand ID>  (1) 
LIG0004939

>  <Ligand>  (1) 
CHEMBL284788

>  <SMILES>  (1) 
OC(=O)CCc1ccc(cc1)N1CCC(CC1)NC[C@@H](c1ccc(c(c1)NS(=O)(=O)C)O)O

>  <CID>  (1) 
10648298.0

>  <ChEMBL ID>  (1) 
nan

>  <InChiKey>  (1) 
OUYNWHQLXWQJIX-QFIPXVFZSA-N

>  <InChi>  (1) 
InChI=1S/C23H31N3O6S/c1-33(31,32)25-20-14-17(5-8-21(20)27)22(28)15-24-18-10-12-26(13-11-18)19-6-2-16(3-7-19)4-9-23(29)30/h2-3,5-8,14,18,22,24-25,27-28H,4,9-13,15H2,1H3,(H,29,30)/t22-/m0/s1

>  <IUPAC Name>  (1) 
3-[4-[4-[[(2R)-2-hydroxy-2-[4-hydroxy-3-(methanesulfonamido)phenyl]ethyl]amino]piperidin-1-yl]phenyl]propanoic acid

$$$$
