
     RDKit          3D

 27 28  0  0  0  0  0  0  0  0999 V2000
    1.9955   -0.6601    1.9641 O   0  0  0  0  0  0  0  0  0  0  0  0
    1.0668   -0.1572    1.3574 C   0  0  0  0  0  0  0  0  0  0  0  0
   -0.0116    0.7502    1.8768 C   0  0  0  0  0  0  0  0  0  0  0  0
   -0.7270    1.1134    0.6091 C   0  0  2  0  0  0  0  0  0  0  0  0
   -0.6957   -0.2195   -0.1277 C   0  0  0  0  0  0  0  0  0  0  0  0
    0.8145   -0.3622   -0.1001 C   0  0  2  0  0  0  0  0  0  0  0  0
    1.3244   -1.6319   -0.6452 C   0  0  0  0  0  0  0  0  0  0  0  0
    1.2063    0.8811   -0.8370 C   0  0  0  0  0  0  0  0  0  0  0  0
    0.2462    1.9034   -0.2280 C   0  0  0  0  0  0  0  0  0  0  0  0
   -1.2422   -0.0578   -1.5121 C   0  0  0  0  0  0  0  0  0  0  0  0
   -1.3946   -1.3101    0.6243 C   0  0  0  0  0  0  0  0  0  0  0  0
    0.5032    1.6177    2.3494 H   0  0  0  0  0  0  0  0  0  0  0  0
   -0.6428    0.2614    2.6315 H   0  0  0  0  0  0  0  0  0  0  0  0
   -1.7120    1.5448    0.7197 H   0  0  0  0  0  0  0  0  0  0  0  0
    2.4030   -1.5281   -0.8401 H   0  0  0  0  0  0  0  0  0  0  0  0
    1.2332   -2.4150    0.1413 H   0  0  0  0  0  0  0  0  0  0  0  0
    0.7402   -1.9908   -1.5060 H   0  0  0  0  0  0  0  0  0  0  0  0
    0.9254    0.7932   -1.9077 H   0  0  0  0  0  0  0  0  0  0  0  0
    2.2577    1.1762   -0.7237 H   0  0  0  0  0  0  0  0  0  0  0  0
    0.8825    2.5374    0.4394 H   0  0  0  0  0  0  0  0  0  0  0  0
   -0.2201    2.5485   -0.9802 H   0  0  0  0  0  0  0  0  0  0  0  0
   -1.1065    0.9736   -1.9264 H   0  0  0  0  0  0  0  0  0  0  0  0
   -0.8288   -0.7957   -2.2344 H   0  0  0  0  0  0  0  0  0  0  0  0
   -2.3454   -0.1922   -1.4453 H   0  0  0  0  0  0  0  0  0  0  0  0
   -1.2713   -2.2337    0.0421 H   0  0  0  0  0  0  0  0  0  0  0  0
   -0.9359   -1.4770    1.6049 H   0  0  0  0  0  0  0  0  0  0  0  0
   -2.4651   -1.0696    0.6540 H   0  0  0  0  0  0  0  0  0  0  0  0
  1  2  2  0
  2  3  1  0
  3  4  1  0
  4  5  1  0
  5  6  1  0
  6  7  1  6
  6  8  1  0
  8  9  1  0
  5 10  1  0
  5 11  1  0
  6  2  1  0
  9  4  1  0
  3 12  1  0
  3 13  1  0
  4 14  1  1
  7 15  1  0
  7 16  1  0
  7 17  1  0
  8 18  1  0
  8 19  1  0
  9 20  1  0
  9 21  1  0
 10 22  1  0
 10 23  1  0
 10 24  1  0
 11 25  1  0
 11 26  1  0
 11 27  1  0
M  END
>  <Ligand ID>  (1) 
LIG0000126

>  <Ligand>  (1) 
Camphor (synthetic)

>  <SMILES>  (1) 
O=C1C[C@@H]2C([C@@]1(C)CC2)(C)C

>  <CID>  (1) 
159055.0

>  <ChEMBL ID>  (1) 
nan

>  <InChiKey>  (1) 
DSSYKIVIOFKYAU-XCBNKYQSSA-N

>  <InChi>  (1) 
InChI=1S/C10H16O/c1-9(2)7-4-5-10(9,3)8(11)6-7/h7H,4-6H2,1-3H3/t7-,10+/m1/s1

>  <IUPAC Name>  (1) 
(1R,4R)-1,7,7-trimethylbicyclo[2.2.1]heptan-2-one

$$$$
