
     RDKit          3D

 38 40  0  0  0  0  0  0  0  0999 V2000
    7.1371    1.0116    0.3039 Cl  0  0  0  0  0  0  0  0  0  0  0  0
    5.6613    1.2855   -0.6257 C   0  0  0  0  0  0  0  0  0  0  0  0
    5.7434    2.0174   -1.7953 C   0  0  0  0  0  0  0  0  0  0  0  0
    4.6123    2.2470   -2.5392 C   0  0  0  0  0  0  0  0  0  0  0  0
    3.4257    1.7336   -2.0867 C   0  0  0  0  0  0  0  0  0  0  0  0
    3.3077    0.9992   -0.9247 C   0  0  0  0  0  0  0  0  0  0  0  0
    4.4452    0.7680   -0.1762 C   0  0  0  0  0  0  0  0  0  0  0  0
    1.9986    0.4671   -0.4817 C   0  0  0  0  0  0  0  0  0  0  0  0
    1.7098   -0.8090   -0.9655 O   0  0  0  0  0  0  0  0  0  0  0  0
    0.5358   -1.5006   -0.6757 C   0  0  0  0  0  0  0  0  0  0  0  0
    0.2815   -2.7714   -1.1748 C   0  0  0  0  0  0  0  0  0  0  0  0
   -0.8677   -3.4132   -0.8731 N   0  0  0  0  0  0  0  0  0  0  0  0
   -1.7650   -2.7967   -0.0773 C   0  0  0  0  0  0  0  0  0  0  0  0
   -1.5558   -1.5383    0.4401 C   0  0  0  0  0  0  0  0  0  0  0  0
   -0.3985   -0.9335    0.1154 N   0  0  0  0  0  0  0  0  0  0  0  0
   -2.4696   -0.8568    1.2785 N   0  0  0  0  0  0  0  0  0  0  0  0
   -2.1577    0.4952    1.7798 C   0  0  0  0  0  0  0  0  0  0  0  0
   -3.3914    1.1192    2.3922 C   0  0  0  0  0  0  0  0  0  0  0  0
   -4.5983    0.8602    1.6960 N   0  0  0  0  0  0  0  0  0  0  0  0
   -4.7779   -0.4273    1.1329 C   0  0  0  0  0  0  0  0  0  0  0  0
   -3.7444   -1.3929    1.7078 C   0  0  0  0  0  0  0  0  0  0  0  0
    6.6983    2.4073   -2.1219 H   0  0  0  0  0  0  0  0  0  0  0  0
    4.7129    2.8274   -3.4552 H   0  0  0  0  0  0  0  0  0  0  0  0
    2.5150    1.8946   -2.6465 H   0  0  0  0  0  0  0  0  0  0  0  0
    4.4311    0.1944    0.7573 H   0  0  0  0  0  0  0  0  0  0  0  0
    1.1714    1.1595   -0.7874 H   0  0  0  0  0  0  0  0  0  0  0  0
    1.9305    0.4429    0.6392 H   0  0  0  0  0  0  0  0  0  0  0  0
    1.0104   -3.2594   -1.8145 H   0  0  0  0  0  0  0  0  0  0  0  0
   -2.6685   -3.3235    0.1489 H   0  0  0  0  0  0  0  0  0  0  0  0
   -1.4161    0.3400    2.6084 H   0  0  0  0  0  0  0  0  0  0  0  0
   -1.6663    1.1201    1.0253 H   0  0  0  0  0  0  0  0  0  0  0  0
   -3.2253    2.2040    2.4577 H   0  0  0  0  0  0  0  0  0  0  0  0
   -3.5152    0.7384    3.4307 H   0  0  0  0  0  0  0  0  0  0  0  0
   -5.0045    1.6447    1.1467 H   0  0  0  0  0  0  0  0  0  0  0  0
   -4.5552   -0.4193    0.0296 H   0  0  0  0  0  0  0  0  0  0  0  0
   -5.8056   -0.8350    1.2558 H   0  0  0  0  0  0  0  0  0  0  0  0
   -3.7759   -1.3005    2.8145 H   0  0  0  0  0  0  0  0  0  0  0  0
   -3.9690   -2.3996    1.3779 H   0  0  0  0  0  0  0  0  0  0  0  0
  1  2  1  0
  2  3  2  0
  3  4  1  0
  4  5  2  0
  5  6  1  0
  6  7  2  0
  6  8  1  0
  8  9  1  0
  9 10  1  0
 10 11  2  0
 11 12  1  0
 12 13  2  0
 13 14  1  0
 14 15  2  0
 14 16  1  0
 16 17  1  0
 17 18  1  0
 18 19  1  0
 19 20  1  0
 20 21  1  0
  7  2  1  0
 15 10  1  0
 21 16  1  0
  3 22  1  0
  4 23  1  0
  5 24  1  0
  7 25  1  0
  8 26  1  0
  8 27  1  0
 11 28  1  0
 13 29  1  0
 17 30  1  0
 17 31  1  0
 18 32  1  0
 18 33  1  0
 19 34  1  0
 20 35  1  0
 20 36  1  0
 21 37  1  0
 21 38  1  0
M  END
>  <Ligand ID>  (1) 
LIG0003149

>  <Ligand>  (1) 
CP-809101

>  <SMILES>  (1) 
Clc1cccc(c1)COc1cncc(n1)N1CCNCC1

>  <CID>  (1) 
9901086.0

>  <ChEMBL ID>  (1) 
nan

>  <InChiKey>  (1) 
PCWGGOVOEWHPMG-UHFFFAOYSA-N

>  <InChi>  (1) 
InChI=1S/C15H17ClN4O/c16-13-3-1-2-12(8-13)11-21-15-10-18-9-14(19-15)20-6-4-17-5-7-20/h1-3,8-10,17H,4-7,11H2

>  <IUPAC Name>  (1) 
2-[(3-chlorophenyl)methoxy]-6-piperazin-1-ylpyrazine

$$$$
