
     RDKit          3D

 44 46  0  0  0  0  0  0  0  0999 V2000
    4.5769   -0.0873    4.1137 Cl  0  0  0  0  0  0  0  0  0  0  0  0
    4.2021    0.2654    2.4163 C   0  0  0  0  0  0  0  0  0  0  0  0
    5.1148    0.8960    1.5933 C   0  0  0  0  0  0  0  0  0  0  0  0
    4.7707    1.1408    0.2800 C   0  0  0  0  0  0  0  0  0  0  0  0
    3.5345    0.7595   -0.1966 C   0  0  0  0  0  0  0  0  0  0  0  0
    2.6326    0.1324    0.6263 C   0  0  0  0  0  0  0  0  0  0  0  0
    2.9507   -0.1284    1.9585 C   0  0  0  0  0  0  0  0  0  0  0  0
    1.3441   -0.3079    0.2033 N   0  0  0  0  0  0  0  0  0  0  0  0
    0.2756    0.5811   -0.1021 C   0  0  0  0  0  0  0  0  0  0  0  0
    0.5968    2.1767    0.0382 S   0  0  0  0  0  0  0  0  0  0  0  0
   -1.0197    0.1006   -0.5226 N   0  0  0  0  0  0  0  0  0  0  0  0
   -1.1887   -1.3074   -0.6305 C   0  0  0  0  0  0  0  0  0  0  0  0
   -2.6394   -1.7575   -0.8041 C   0  0  0  0  0  0  0  0  0  0  0  0
   -2.3697   -3.2766   -0.8505 C   0  0  0  0  0  0  0  0  0  0  0  0
   -1.1798   -3.3540   -1.7870 C   0  0  0  0  0  0  0  0  0  0  0  0
   -0.6490   -1.9162   -1.9197 C   0  0  0  0  0  0  0  0  0  0  0  0
   -2.1084    0.9760   -0.8323 C   0  0  0  0  0  0  0  0  0  0  0  0
   -2.5623    1.8571    0.2481 C   0  0  0  0  0  0  0  0  0  0  0  0
   -3.4720    1.6068    1.2003 C   0  0  0  0  0  0  0  0  0  0  0  0
   -3.7594    2.5591    2.0992 C   0  0  0  0  0  0  0  0  0  0  0  0
   -3.0992    3.7543    1.9963 C   0  0  0  0  0  0  0  0  0  0  0  0
   -2.0189    3.5406    0.5682 S   0  0  0  0  0  0  0  0  0  0  0  0
    3.1786    1.0573   -1.6142 C   0  0  0  0  0  0  0  0  0  0  0  0
    6.0651    1.1750    2.0158 H   0  0  0  0  0  0  0  0  0  0  0  0
    5.4607    1.6334   -0.3938 H   0  0  0  0  0  0  0  0  0  0  0  0
    2.2546   -0.6139    2.6038 H   0  0  0  0  0  0  0  0  0  0  0  0
    1.2449   -1.3656    0.1487 H   0  0  0  0  0  0  0  0  0  0  0  0
   -0.7758   -1.8741    0.1974 H   0  0  0  0  0  0  0  0  0  0  0  0
   -2.9870   -1.4699   -1.8089 H   0  0  0  0  0  0  0  0  0  0  0  0
   -3.2650   -1.4665    0.0337 H   0  0  0  0  0  0  0  0  0  0  0  0
   -1.9733   -3.5512    0.1719 H   0  0  0  0  0  0  0  0  0  0  0  0
   -3.2369   -3.8513   -1.1639 H   0  0  0  0  0  0  0  0  0  0  0  0
   -0.3866   -3.9968   -1.3741 H   0  0  0  0  0  0  0  0  0  0  0  0
   -1.5289   -3.6732   -2.7665 H   0  0  0  0  0  0  0  0  0  0  0  0
    0.4214   -1.8910   -1.9491 H   0  0  0  0  0  0  0  0  0  0  0  0
   -1.1231   -1.4296   -2.8196 H   0  0  0  0  0  0  0  0  0  0  0  0
   -1.8506    1.6643   -1.6970 H   0  0  0  0  0  0  0  0  0  0  0  0
   -2.9843    0.4217   -1.1843 H   0  0  0  0  0  0  0  0  0  0  0  0
   -3.9882    0.6070    1.2409 H   0  0  0  0  0  0  0  0  0  0  0  0
   -4.5052    2.4185    2.9162 H   0  0  0  0  0  0  0  0  0  0  0  0
   -3.1645    4.6513    2.5918 H   0  0  0  0  0  0  0  0  0  0  0  0
    3.0575    2.1605   -1.7137 H   0  0  0  0  0  0  0  0  0  0  0  0
    3.9321    0.6279   -2.3100 H   0  0  0  0  0  0  0  0  0  0  0  0
    2.2221    0.5550   -1.8827 H   0  0  0  0  0  0  0  0  0  0  0  0
  1  2  1  0
  2  3  2  0
  3  4  1  0
  4  5  2  0
  5  6  1  0
  6  7  2  0
  6  8  1  0
  8  9  1  0
  9 10  2  0
  9 11  1  0
 11 12  1  0
 12 13  1  0
 13 14  1  0
 14 15  1  0
 15 16  1  0
 11 17  1  0
 17 18  1  0
 18 19  2  0
 19 20  1  0
 20 21  2  0
 21 22  1  0
  5 23  1  0
  7  2  1  0
 16 12  1  0
 22 18  1  0
  3 24  1  0
  4 25  1  0
  7 26  1  0
  8 27  1  0
 12 28  1  0
 13 29  1  0
 13 30  1  0
 14 31  1  0
 14 32  1  0
 15 33  1  0
 15 34  1  0
 16 35  1  0
 16 36  1  0
 17 37  1  0
 17 38  1  0
 19 39  1  0
 20 40  1  0
 21 41  1  0
 23 42  1  0
 23 43  1  0
 23 44  1  0
M  END
>  <Ligand ID>  (1) 
LIG0003614

>  <Ligand>  (1) 
MLS000729642

>  <SMILES>  (1) 
Clc1ccc(c(c1)NC(=S)N(C1CCCC1)Cc1cccs1)C

>  <CID>  (1) 
3600301.0

>  <ChEMBL ID>  (1) 
nan

>  <InChiKey>  (1) 
CJGAHDGWPONGMN-UHFFFAOYSA-N

>  <InChi>  (1) 
InChI=1S/C18H21ClN2S2/c1-13-8-9-14(19)11-17(13)20-18(22)21(15-5-2-3-6-15)12-16-7-4-10-23-16/h4,7-11,15H,2-3,5-6,12H2,1H3,(H,20,22)

>  <IUPAC Name>  (1) 
3-(5-chloro-2-methylphenyl)-1-cyclopentyl-1-(thiophen-2-ylmethyl)thiourea

$$$$
