
     RDKit          3D

 24 23  0  0  0  0  0  0  0  0999 V2000
   -3.2493    0.9552   -0.7172 C   0  0  0  0  0  0  0  0  0  0  0  0
   -2.0675    0.3053   -0.0454 C   0  0  0  0  0  0  0  0  0  0  0  0
   -2.1042   -1.1876   -0.1031 C   0  0  0  0  0  0  0  0  0  0  0  0
   -0.8511   -1.6898    0.6137 C   0  0  0  0  0  0  0  0  0  0  0  0
    0.3605   -1.1601   -0.0819 C   0  0  0  0  0  0  0  0  0  0  0  0
    1.2166   -0.3929    0.5825 C   0  0  0  0  0  0  0  0  0  0  0  0
    2.4205    0.1638   -0.0195 C   0  0  0  0  0  0  0  0  0  0  0  0
    3.2466    0.9239    0.6800 C   0  0  0  0  0  0  0  0  0  0  0  0
    4.4542    1.4860    0.0871 C   0  0  0  0  0  0  0  0  0  0  0  0
    5.2221    2.2146    0.8019 O   0  0  0  0  0  0  0  0  0  0  0  0
   -3.0475    2.0622   -0.6864 H   0  0  0  0  0  0  0  0  0  0  0  0
   -3.3604    0.6812   -1.7697 H   0  0  0  0  0  0  0  0  0  0  0  0
   -4.1491    0.7092   -0.1176 H   0  0  0  0  0  0  0  0  0  0  0  0
   -1.1204    0.7151   -0.4432 H   0  0  0  0  0  0  0  0  0  0  0  0
   -2.0996    0.6193    1.0176 H   0  0  0  0  0  0  0  0  0  0  0  0
   -2.9730   -1.5581    0.4830 H   0  0  0  0  0  0  0  0  0  0  0  0
   -2.0674   -1.5734   -1.1298 H   0  0  0  0  0  0  0  0  0  0  0  0
   -0.8293   -2.7856    0.7016 H   0  0  0  0  0  0  0  0  0  0  0  0
   -0.8976   -1.2840    1.6473 H   0  0  0  0  0  0  0  0  0  0  0  0
    0.5410   -1.3950   -1.1084 H   0  0  0  0  0  0  0  0  0  0  0  0
    1.0003   -0.1769    1.6203 H   0  0  0  0  0  0  0  0  0  0  0  0
    2.6439   -0.0486   -1.0597 H   0  0  0  0  0  0  0  0  0  0  0  0
    3.0063    1.1223    1.7105 H   0  0  0  0  0  0  0  0  0  0  0  0
    4.7043    1.2938   -0.9435 H   0  0  0  0  0  0  0  0  0  0  0  0
  1  2  1  0
  2  3  1  0
  3  4  1  0
  4  5  1  0
  5  6  2  0
  6  7  1  0
  7  8  2  0
  8  9  1  0
  9 10  2  0
  1 11  1  0
  1 12  1  0
  1 13  1  0
  2 14  1  0
  2 15  1  0
  3 16  1  0
  3 17  1  0
  4 18  1  0
  4 19  1  0
  5 20  1  0
  6 21  1  0
  7 22  1  0
  8 23  1  0
  9 24  1  0
M  END
>  <Ligand ID>  (1) 
LIG0000265

>  <Ligand>  (1) 
trans,trans-2,4-Nonadienal

>  <SMILES>  (1) 
CCCC/C=C/C=C/C=O

>  <CID>  (1) 
5283339.0

>  <ChEMBL ID>  (1) 
nan

>  <InChiKey>  (1) 
ZHHYXNZJDGDGPJ-BSWSSELBSA-N

>  <InChi>  (1) 
InChI=1S/C9H14O/c1-2-3-4-5-6-7-8-9-10/h5-9H,2-4H2,1H3/b6-5+,8-7+

>  <IUPAC Name>  (1) 
(2E,4E)-nona-2,4-dienal

$$$$
