
     RDKit          3D

 49 53  0  0  0  0  0  0  0  0999 V2000
    6.8846    2.9157    3.0699 N   0  0  0  0  0  0  0  0  0  0  0  0
    6.7161    2.0732    2.3055 C   0  0  0  0  0  0  0  0  0  0  0  0
    6.4881    1.0283    1.3453 C   0  0  0  0  0  0  0  0  0  0  0  0
    7.5616    0.3718    0.7704 C   0  0  0  0  0  0  0  0  0  0  0  0
    7.3303   -0.6442   -0.1634 C   0  0  0  0  0  0  0  0  0  0  0  0
    6.0466   -1.0087   -0.5267 C   0  0  0  0  0  0  0  0  0  0  0  0
    4.9850   -0.3518    0.0489 C   0  0  0  0  0  0  0  0  0  0  0  0
    5.2164    0.6497    0.9696 C   0  0  0  0  0  0  0  0  0  0  0  0
    3.6163   -0.7090   -0.3090 C   0  0  0  0  0  0  0  0  0  0  0  0
    3.2246   -1.6283   -1.1561 O   0  0  0  0  0  0  0  0  0  0  0  0
    1.9079   -1.6521   -1.2086 N   0  0  0  0  0  0  0  0  0  0  0  0
    1.4044   -0.7232   -0.3736 C   0  0  0  0  0  0  0  0  0  0  0  0
    2.4974   -0.1396    0.1839 N   0  0  0  0  0  0  0  0  0  0  0  0
    0.0109   -0.3850   -0.0979 C   0  0  0  0  0  0  0  0  0  0  0  0
   -0.3533    0.1639    1.1160 C   0  0  0  0  0  0  0  0  0  0  0  0
   -1.6827    0.4952    1.4030 C   0  0  0  0  0  0  0  0  0  0  0  0
   -2.6790    0.2808    0.4710 C   0  0  0  0  0  0  0  0  0  0  0  0
   -2.3229   -0.2683   -0.7466 C   0  0  0  0  0  0  0  0  0  0  0  0
   -0.9996   -0.5913   -1.0155 C   0  0  0  0  0  0  0  0  0  0  0  0
   -3.4896   -0.3684   -1.4633 C   0  0  0  0  0  0  0  0  0  0  0  0
   -4.5441    0.1105   -0.7005 C   0  0  0  0  0  0  0  0  0  0  0  0
   -4.0124    0.4973    0.4718 N   0  0  0  0  0  0  0  0  0  0  0  0
   -5.0750    1.0143    1.3258 C   0  0  0  0  0  0  0  0  0  0  0  0
   -6.1126    1.4713    0.3062 C   0  0  0  0  0  0  0  0  0  0  0  0
   -6.0119    0.3441   -0.7113 C   0  0  0  0  0  0  0  0  0  0  0  0
   -6.7691   -0.8878   -0.2353 C   0  0  0  0  0  0  0  0  0  0  0  0
   -8.2269   -0.6623   -0.2438 C   0  0  0  0  0  0  0  0  0  0  0  0
   -8.8822   -0.6973   -1.3152 O   0  0  0  0  0  0  0  0  0  0  0  0
   -8.9662   -0.3991    0.9164 O   0  0  0  0  0  0  0  0  0  0  0  0
    8.4664   -1.2454   -0.6857 O   0  0  0  0  0  0  0  0  0  0  0  0
    9.0931   -0.7461   -1.8610 C   0  0  0  0  0  0  0  0  0  0  0  0
    9.5202    0.5492   -1.7299 F   0  0  0  0  0  0  0  0  0  0  0  0
   10.2143   -1.5127   -2.1222 F   0  0  0  0  0  0  0  0  0  0  0  0
    8.1575   -0.7877   -2.8702 F   0  0  0  0  0  0  0  0  0  0  0  0
    8.5909    0.6484    1.0468 H   0  0  0  0  0  0  0  0  0  0  0  0
    5.9452   -1.7890   -1.2421 H   0  0  0  0  0  0  0  0  0  0  0  0
    4.3652    1.1696    1.4247 H   0  0  0  0  0  0  0  0  0  0  0  0
    0.4116    0.3404    1.8613 H   0  0  0  0  0  0  0  0  0  0  0  0
   -1.9689    0.9239    2.3522 H   0  0  0  0  0  0  0  0  0  0  0  0
   -0.7890   -1.0098   -1.9706 H   0  0  0  0  0  0  0  0  0  0  0  0
   -3.6156   -0.7488   -2.4559 H   0  0  0  0  0  0  0  0  0  0  0  0
   -4.7275    1.8875    1.9105 H   0  0  0  0  0  0  0  0  0  0  0  0
   -5.4813    0.1987    1.9394 H   0  0  0  0  0  0  0  0  0  0  0  0
   -7.1031    1.5945    0.7436 H   0  0  0  0  0  0  0  0  0  0  0  0
   -5.6791    2.3751   -0.1656 H   0  0  0  0  0  0  0  0  0  0  0  0
   -6.3537    0.6310   -1.7057 H   0  0  0  0  0  0  0  0  0  0  0  0
   -6.3984   -1.2400    0.7344 H   0  0  0  0  0  0  0  0  0  0  0  0
   -6.5809   -1.6642   -1.0216 H   0  0  0  0  0  0  0  0  0  0  0  0
   -9.8295    0.1257    0.8219 H   0  0  0  0  0  0  0  0  0  0  0  0
  1  2  3  0
  2  3  1  0
  3  4  2  0
  4  5  1  0
  5  6  2  0
  6  7  1  0
  7  8  2  0
  7  9  1  0
  9 10  1  0
 10 11  1  0
 11 12  2  0
 12 13  1  0
 12 14  1  0
 14 15  2  0
 15 16  1  0
 16 17  2  0
 17 18  1  0
 18 19  2  0
 18 20  1  0
 20 21  2  0
 21 22  1  0
 22 23  1  0
 23 24  1  0
 24 25  1  0
 25 26  1  0
 26 27  1  0
 27 28  2  0
 27 29  1  0
  5 30  1  0
 30 31  1  0
 31 32  1  0
 31 33  1  0
 31 34  1  0
  8  3  1  0
 13  9  2  0
 19 14  1  0
 25 21  1  0
 22 17  1  0
  4 35  1  0
  6 36  1  0
  8 37  1  0
 15 38  1  0
 16 39  1  0
 19 40  1  0
 20 41  1  0
 23 42  1  0
 23 43  1  0
 24 44  1  0
 24 45  1  0
 25 46  1  0
 26 47  1  0
 26 48  1  0
 29 49  1  0
M  END
>  <Ligand ID>  (1) 
LIG0000681

>  <Ligand>  (1) 
CHEMBL2048293

>  <SMILES>  (1) 
N#Cc1cc(cc(c1)c1onc(n1)c1ccc2c(c1)cc1n2CCC1CC(=O)O)OC(F)(F)F

>  <CID>  (1) 
44138103.0

>  <ChEMBL ID>  (1) 
nan

>  <InChiKey>  (1) 
HHVPFOZVFPAJBT-UHFFFAOYSA-N

>  <InChi>  (1) 
InChI=1S/C23H15F3N4O4/c24-23(25,26)33-17-6-12(11-27)5-16(8-17)22-28-21(29-34-22)14-1-2-18-15(7-14)9-19-13(10-20(31)32)3-4-30(18)19/h1-2,5-9,13H,3-4,10H2,(H,31,32)

>  <IUPAC Name>  (1) 
2-[6-[5-[3-cyano-5-(trifluoromethoxy)phenyl]-1,2,4-oxadiazol-3-yl]-2,3-dihydro-1H-pyrrolo[1,2-a]indol-3-yl]acetic acid

$$$$
