
     RDKit          3D

 56 60  0  0  0  0  0  0  0  0999 V2000
   -2.2515   -4.6110   -0.5920 C   0  0  0  0  0  0  0  0  0  0  0  0
   -2.7187   -3.3720   -0.0418 O   0  0  0  0  0  0  0  0  0  0  0  0
   -1.8557   -2.2841   -0.1126 C   0  0  0  0  0  0  0  0  0  0  0  0
   -0.5958   -2.3638   -0.6830 C   0  0  0  0  0  0  0  0  0  0  0  0
    0.1970   -1.2450   -0.7193 C   0  0  0  0  0  0  0  0  0  0  0  0
    1.5946   -1.5638   -1.2019 C   0  0  0  0  0  0  0  0  0  0  0  0
    2.3608   -0.4604   -1.3925 O   0  0  0  0  0  0  0  0  0  0  0  0
    2.6738    0.1537   -0.1443 C   0  0  0  0  0  0  0  0  0  0  0  0
    2.4223   -0.8723    0.8636 C   0  0  1  0  0  0  0  0  0  0  0  0
    2.2259   -2.1661    0.1030 C   0  0  2  0  0  0  0  0  0  0  0  0
    3.4740   -2.9012   -0.2147 C   0  0  0  0  0  0  0  0  0  0  0  0
    3.7075   -1.0399    1.6806 C   0  0  0  0  0  0  0  0  0  0  0  0
    1.7385    1.3637   -0.0824 C   0  0  0  0  0  0  0  0  0  0  0  0
    0.3845    1.2136   -0.2846 C   0  0  0  0  0  0  0  0  0  0  0  0
   -0.3113   -0.0869   -0.1846 C   0  0  0  0  0  0  0  0  0  0  0  0
   -1.5426    0.0640    0.4056 C   0  0  0  0  0  0  0  0  0  0  0  0
   -2.3416   -1.0884    0.4335 C   0  0  0  0  0  0  0  0  0  0  0  0
   -3.6059   -1.0122    1.0078 O   0  0  0  0  0  0  0  0  0  0  0  0
   -4.6504   -0.6599    0.1090 C   0  0  0  0  0  0  0  0  0  0  0  0
   -2.0099    1.2469    0.9780 O   0  0  0  0  0  0  0  0  0  0  0  0
   -1.7845    1.5145    2.3704 C   0  0  0  0  0  0  0  0  0  0  0  0
   -0.4866    2.2643   -0.4757 C   0  0  0  0  0  0  0  0  0  0  0  0
   -1.8479    2.1148   -0.7231 O   0  0  0  0  0  0  0  0  0  0  0  0
   -2.3545    2.0176   -2.0521 C   0  0  0  0  0  0  0  0  0  0  0  0
    0.1175    3.5349   -0.4280 C   0  0  0  0  0  0  0  0  0  0  0  0
    1.4789    3.6800   -0.2133 C   0  0  0  0  0  0  0  0  0  0  0  0
    2.3201    2.5630   -0.0366 C   0  0  0  0  0  0  0  0  0  0  0  0
    1.7296    5.0438   -0.2227 O   0  0  0  0  0  0  0  0  0  0  0  0
    0.4775    5.7144   -0.0118 C   0  0  0  0  0  0  0  0  0  0  0  0
   -0.4337    4.7842   -0.5664 O   0  0  0  0  0  0  0  0  0  0  0  0
   -1.4430   -5.0565    0.0269 H   0  0  0  0  0  0  0  0  0  0  0  0
   -3.0943   -5.3557   -0.5979 H   0  0  0  0  0  0  0  0  0  0  0  0
   -1.8307   -4.4803   -1.6134 H   0  0  0  0  0  0  0  0  0  0  0  0
   -0.2479   -3.3027   -1.0937 H   0  0  0  0  0  0  0  0  0  0  0  0
    1.5760   -2.2792   -2.0044 H   0  0  0  0  0  0  0  0  0  0  0  0
    3.6837    0.5318   -0.1587 H   0  0  0  0  0  0  0  0  0  0  0  0
    1.5863   -0.6677    1.5610 H   0  0  0  0  0  0  0  0  0  0  0  0
    1.5233   -2.7957    0.6302 H   0  0  0  0  0  0  0  0  0  0  0  0
    3.1828   -3.9399   -0.4966 H   0  0  0  0  0  0  0  0  0  0  0  0
    4.0979   -3.0003    0.6769 H   0  0  0  0  0  0  0  0  0  0  0  0
    4.0208   -2.5109   -1.0966 H   0  0  0  0  0  0  0  0  0  0  0  0
    3.6874   -1.9035    2.3462 H   0  0  0  0  0  0  0  0  0  0  0  0
    4.5656   -1.0376    0.9724 H   0  0  0  0  0  0  0  0  0  0  0  0
    3.8240   -0.0694    2.2410 H   0  0  0  0  0  0  0  0  0  0  0  0
   -4.6597   -1.3744   -0.7634 H   0  0  0  0  0  0  0  0  0  0  0  0
   -4.4610    0.3223   -0.3409 H   0  0  0  0  0  0  0  0  0  0  0  0
   -5.6469   -0.7511    0.5720 H   0  0  0  0  0  0  0  0  0  0  0  0
   -2.7769    1.7100    2.8191 H   0  0  0  0  0  0  0  0  0  0  0  0
   -1.2476    0.6985    2.8559 H   0  0  0  0  0  0  0  0  0  0  0  0
   -1.2243    2.4863    2.3666 H   0  0  0  0  0  0  0  0  0  0  0  0
   -3.4073    2.3666   -2.1027 H   0  0  0  0  0  0  0  0  0  0  0  0
   -2.1958    1.0105   -2.4672 H   0  0  0  0  0  0  0  0  0  0  0  0
   -1.7819    2.7662   -2.6507 H   0  0  0  0  0  0  0  0  0  0  0  0
    3.3713    2.6550    0.1258 H   0  0  0  0  0  0  0  0  0  0  0  0
    0.4615    6.7014   -0.4690 H   0  0  0  0  0  0  0  0  0  0  0  0
    0.3248    5.7296    1.0929 H   0  0  0  0  0  0  0  0  0  0  0  0
  1  2  1  0
  2  3  1  0
  3  4  2  0
  4  5  1  0
  5  6  1  0
  6  7  1  0
  7  8  1  0
  8  9  1  0
  9 10  1  0
 10 11  1  0
  9 12  1  0
  8 13  1  0
 13 14  2  0
 14 15  1  0
 15 16  1  0
 16 17  2  0
 17 18  1  0
 18 19  1  0
 16 20  1  0
 20 21  1  0
 14 22  1  0
 22 23  1  0
 23 24  1  0
 22 25  2  0
 25 26  1  0
 26 27  2  0
 26 28  1  0
 28 29  1  0
 29 30  1  0
 17  3  1  0
 30 25  1  0
 15  5  2  0
 10  6  1  0
 27 13  1  0
  1 31  1  0
  1 32  1  0
  1 33  1  0
  4 34  1  0
  6 35  1  0
  8 36  1  0
  9 37  1  1
 10 38  1  1
 11 39  1  0
 11 40  1  0
 11 41  1  0
 12 42  1  0
 12 43  1  0
 12 44  1  0
 19 45  1  0
 19 46  1  0
 19 47  1  0
 21 48  1  0
 21 49  1  0
 21 50  1  0
 24 51  1  0
 24 52  1  0
 24 53  1  0
 27 54  1  0
 29 55  1  0
 29 56  1  0
M  END
>  <Ligand ID>  (1) 
LIG0005229

>  <Ligand>  (1) 
Neokadsuranin

>  <SMILES>  (1) 
COc1cc2C3OC([C@@H]([C@@H]3C)C)c3c(c2c(c1OC)OC)c(OC)c1c(c3)OCO1

>  <CID>  (1) 
16745509.0

>  <ChEMBL ID>  (1) 
nan

>  <InChiKey>  (1) 
RNIZTMIJCBCDBR-QSMDCUAPSA-N

>  <InChi>  (1) 
InChI=1S/C23H26O7/c1-10-11(2)19-13-8-15-21(29-9-28-15)23(27-6)17(13)16-12(18(10)30-19)7-14(24-3)20(25-4)22(16)26-5/h7-8,10-11,18-19H,9H2,1-6H3/t10-,11+,18?,19?/m0/s1

>  <IUPAC Name>  (1) 
(18S,19R)-9,12,13,14-tetramethoxy-18,19-dimethyl-5,7,20-trioxapentacyclo[15.2.1.02,10.04,8.011,16]icosa-2,4(8),9,11,13,15-hexaene

$$$$
