
     RDKit          3D

 32 34  0  0  0  0  0  0  0  0999 V2000
    1.5560   -0.3476    1.5088 O   0  0  0  0  0  0  0  0  0  0  0  0
    1.9146    0.1245    0.4097 C   0  0  0  0  0  0  0  0  0  0  0  0
    3.3219    0.1490    0.0276 C   0  0  0  0  0  0  0  0  0  0  0  0
    4.2247   -0.3683    0.9287 C   0  0  0  0  0  0  0  0  0  0  0  0
    5.5719   -0.3522    0.5788 C   0  0  0  0  0  0  0  0  0  0  0  0
    5.9823    0.1665   -0.6327 C   0  0  0  0  0  0  0  0  0  0  0  0
    5.0608    0.6837   -1.5290 C   0  0  0  0  0  0  0  0  0  0  0  0
    3.7198    0.6661   -1.1776 C   0  0  0  0  0  0  0  0  0  0  0  0
    0.9637    0.6233   -0.4404 O   0  0  0  0  0  0  0  0  0  0  0  0
   -0.4000    0.6351   -0.1467 C   0  0  0  0  0  0  0  0  0  0  0  0
   -1.0002    1.6989    0.4991 C   0  0  0  0  0  0  0  0  0  0  0  0
   -2.3597    1.6133    0.7444 C   0  0  0  0  0  0  0  0  0  0  0  0
   -3.0964    0.5003    0.3569 C   0  0  0  0  0  0  0  0  0  0  0  0
   -2.4797   -0.5672   -0.2941 C   0  0  0  0  0  0  0  0  0  0  0  0
   -1.1210   -0.4893   -0.5430 C   0  0  0  0  0  0  0  0  0  0  0  0
   -3.2412   -1.6706   -0.6717 O   0  0  0  0  0  0  0  0  0  0  0  0
   -4.4539   -1.9914    0.0150 C   0  0  0  0  0  0  0  0  0  0  0  0
   -5.3024   -0.7239   -0.0021 C   0  0  0  0  0  0  0  0  0  0  0  0
   -4.5277    0.3923    0.6065 C   0  0  0  0  0  0  0  0  0  0  0  0
   -5.0709    1.2687    1.3462 O   0  0  0  0  0  0  0  0  0  0  0  0
    3.9495   -0.7852    1.8895 H   0  0  0  0  0  0  0  0  0  0  0  0
    6.3221   -0.7526    1.2643 H   0  0  0  0  0  0  0  0  0  0  0  0
    7.0462    0.1587   -0.8648 H   0  0  0  0  0  0  0  0  0  0  0  0
    5.3972    1.0955   -2.4933 H   0  0  0  0  0  0  0  0  0  0  0  0
    2.9824    1.0629   -1.8581 H   0  0  0  0  0  0  0  0  0  0  0  0
   -0.4108    2.5607    0.7951 H   0  0  0  0  0  0  0  0  0  0  0  0
   -2.8615    2.4199    1.2439 H   0  0  0  0  0  0  0  0  0  0  0  0
   -0.6393   -1.3221   -1.0510 H   0  0  0  0  0  0  0  0  0  0  0  0
   -4.9899   -2.7606   -0.5920 H   0  0  0  0  0  0  0  0  0  0  0  0
   -4.2914   -2.3235    1.0493 H   0  0  0  0  0  0  0  0  0  0  0  0
   -6.2678   -0.8626    0.5141 H   0  0  0  0  0  0  0  0  0  0  0  0
   -5.4991   -0.5026   -1.0803 H   0  0  0  0  0  0  0  0  0  0  0  0
  1  2  2  0
  2  3  1  0
  3  4  2  0
  4  5  1  0
  5  6  2  0
  6  7  1  0
  7  8  2  0
  2  9  1  0
  9 10  1  0
 10 11  2  0
 11 12  1  0
 12 13  2  0
 13 14  1  0
 14 15  2  0
 14 16  1  0
 16 17  1  0
 17 18  1  0
 18 19  1  0
 19 20  2  0
  8  3  1  0
 15 10  1  0
 19 13  1  0
  4 21  1  0
  5 22  1  0
  6 23  1  0
  7 24  1  0
  8 25  1  0
 11 26  1  0
 12 27  1  0
 15 28  1  0
 17 29  1  0
 17 30  1  0
 18 31  1  0
 18 32  1  0
M  END
>  <Ligand ID>  (1) 
LIG0001389

>  <Ligand>  (1) 
CHEMBL1682821

>  <SMILES>  (1) 
O=C(c1ccccc1)Oc1ccc2c(c1)OCCC2=O

>  <CID>  (1) 
53322382.0

>  <ChEMBL ID>  (1) 
nan

>  <InChiKey>  (1) 
NBOAWMUWUXJPTE-UHFFFAOYSA-N

>  <InChi>  (1) 
InChI=1S/C16H12O4/c17-14-8-9-19-15-10-12(6-7-13(14)15)20-16(18)11-4-2-1-3-5-11/h1-7,10H,8-9H2

>  <IUPAC Name>  (1) 
(4-oxo-2,3-dihydrochromen-7-yl) benzoate

$$$$
