
     RDKit          3D

 42 43  0  0  0  0  0  0  0  0999 V2000
   -5.4100   -1.7132   -2.0231 C   0  0  0  0  0  0  0  0  0  0  0  0
   -3.9065   -0.8424   -1.5788 S   0  0  0  0  0  0  0  0  0  0  0  0
   -3.9666   -0.3224    0.1361 C   0  0  0  0  0  0  0  0  0  0  0  0
   -5.0421   -0.6009    0.8940 N   0  0  0  0  0  0  0  0  0  0  0  0
   -5.1427   -0.2363    2.1853 C   0  0  0  0  0  0  0  0  0  0  0  0
   -6.1652   -0.5257    2.8288 O   0  0  0  0  0  0  0  0  0  0  0  0
   -4.0617    0.4575    2.7159 C   0  0  0  0  0  0  0  0  0  0  0  0
   -2.9721    0.7296    1.9166 C   0  0  0  0  0  0  0  0  0  0  0  0
   -2.8907    0.3561    0.6269 N   0  0  0  0  0  0  0  0  0  0  0  0
   -1.7741    0.6226   -0.2305 C   0  0  2  0  0  0  0  0  0  0  0  0
   -0.8968   -0.4350   -0.3413 O   0  0  0  0  0  0  0  0  0  0  0  0
    0.3679    0.1232   -0.5962 C   0  0  1  0  0  0  0  0  0  0  0  0
    0.3706    1.2416    0.4274 C   0  0  2  0  0  0  0  0  0  0  0  0
   -0.9965    1.8551    0.0925 C   0  0  1  0  0  0  0  0  0  0  0  0
   -0.7468    2.6223   -1.0657 O   0  0  0  0  0  0  0  0  0  0  0  0
    1.3882    2.1558    0.1611 O   0  0  0  0  0  0  0  0  0  0  0  0
    1.4683   -0.8586   -0.3792 C   0  0  0  0  0  0  0  0  0  0  0  0
    2.6926   -0.2600   -0.6433 O   0  0  0  0  0  0  0  0  0  0  0  0
    3.9931   -1.3123   -0.4192 P   0  0  0  0  0  0  0  0  0  0  0  0
    5.0235   -1.1096   -1.5271 O   0  0  0  0  0  0  0  0  0  0  0  0
    4.7387   -0.9195    1.0387 O   0  0  0  0  0  0  0  0  0  0  0  0
    6.2218   -0.1740    0.8302 P   0  0  0  0  0  0  0  0  0  0  0  0
    7.3492   -1.0749    1.2850 O   0  0  0  0  0  0  0  0  0  0  0  0
    6.2733    1.2630    1.7485 O   0  0  0  0  0  0  0  0  0  0  0  0
    6.4760    0.3225   -0.7868 O   0  0  0  0  0  0  0  0  0  0  0  0
    3.5429   -2.9334   -0.4675 O   0  0  0  0  0  0  0  0  0  0  0  0
   -5.2102   -2.6351   -2.6251 H   0  0  0  0  0  0  0  0  0  0  0  0
   -6.1038   -1.1175   -2.6601 H   0  0  0  0  0  0  0  0  0  0  0  0
   -5.9902   -1.9795   -1.1145 H   0  0  0  0  0  0  0  0  0  0  0  0
   -4.1291    0.7579    3.7564 H   0  0  0  0  0  0  0  0  0  0  0  0
   -2.1597    1.2632    2.3538 H   0  0  0  0  0  0  0  0  0  0  0  0
   -2.2039    0.7699   -1.2609 H   0  0  0  0  0  0  0  0  0  0  0  0
    0.4103    0.6075   -1.5933 H   0  0  0  0  0  0  0  0  0  0  0  0
    0.4060    0.8531    1.4609 H   0  0  0  0  0  0  0  0  0  0  0  0
   -1.3823    2.4761    0.9027 H   0  0  0  0  0  0  0  0  0  0  0  0
   -0.9741    2.1438   -1.8939 H   0  0  0  0  0  0  0  0  0  0  0  0
    1.4540    2.7353    0.9672 H   0  0  0  0  0  0  0  0  0  0  0  0
    1.3328   -1.6667   -1.1297 H   0  0  0  0  0  0  0  0  0  0  0  0
    1.4157   -1.2374    0.6529 H   0  0  0  0  0  0  0  0  0  0  0  0
    5.6014    1.8603    1.3607 H   0  0  0  0  0  0  0  0  0  0  0  0
    7.4353    0.2261   -1.0332 H   0  0  0  0  0  0  0  0  0  0  0  0
    4.1635   -3.4881   -1.0363 H   0  0  0  0  0  0  0  0  0  0  0  0
  1  2  1  0
  2  3  1  0
  3  4  2  0
  4  5  1  0
  5  6  2  0
  5  7  1  0
  7  8  2  0
  8  9  1  0
  9 10  1  0
 10 11  1  0
 11 12  1  0
 12 13  1  0
 13 14  1  0
 14 15  1  0
 13 16  1  0
 12 17  1  0
 17 18  1  0
 18 19  1  0
 19 20  2  0
 19 21  1  0
 21 22  1  0
 22 23  2  0
 22 24  1  0
 22 25  1  0
 19 26  1  0
  9  3  1  0
 14 10  1  0
  1 27  1  0
  1 28  1  0
  1 29  1  0
  7 30  1  0
  8 31  1  0
 10 32  1  6
 12 33  1  6
 13 34  1  1
 14 35  1  1
 15 36  1  0
 16 37  1  0
 17 38  1  0
 17 39  1  0
 24 40  1  0
 25 41  1  0
 26 42  1  0
M  END
>  <Ligand ID>  (1) 
LIG0004964

>  <Ligand>  (1) 
CHEMBL1767410

>  <SMILES>  (1) 
CSc1nc(=O)ccn1[C@@H]1O[C@@H]([C@H]([C@H]1O)O)COP(=O)(OP(=O)(O)O)O

>  <CID>  (1) 
52952280.0

>  <ChEMBL ID>  (1) 
nan

>  <InChiKey>  (1) 
QJLQRMYFIFRKMR-ZOQUXTDFSA-N

>  <InChi>  (1) 
InChI=1S/C10H16N2O11P2S/c1-26-10-11-6(13)2-3-12(10)9-8(15)7(14)5(22-9)4-21-25(19,20)23-24(16,17)18/h2-3,5,7-9,14-15H,4H2,1H3,(H,19,20)(H2,16,17,18)/t5-,7-,8-,9-/m1/s1

>  <IUPAC Name>  (1) 
[(2R,3S,4R,5R)-3,4-dihydroxy-5-(2-methylsulfanyl-4-oxopyrimidin-1-yl)oxolan-2-yl]methyl phosphono hydrogen phosphate

$$$$
