
     RDKit          3D

 65 67  0  0  0  0  0  0  0  0999 V2000
    3.1863   -0.7415    1.1920 O   0  0  0  0  0  0  0  0  0  0  0  0
    2.9958   -0.1368    0.1142 C   0  0  0  0  0  0  0  0  0  0  0  0
    4.0336    0.4418   -0.6258 O   0  0  0  0  0  0  0  0  0  0  0  0
    5.3511    0.3986   -0.2378 C   0  0  0  0  0  0  0  0  0  0  0  0
    5.9143    1.3737    0.5559 C   0  0  0  0  0  0  0  0  0  0  0  0
    7.2320    1.3206    0.9377 C   0  0  0  0  0  0  0  0  0  0  0  0
    8.0876    0.2844    0.5525 C   0  0  0  0  0  0  0  0  0  0  0  0
    7.5086   -0.6817   -0.2403 C   0  0  0  0  0  0  0  0  0  0  0  0
    6.1768   -0.6358   -0.6311 C   0  0  0  0  0  0  0  0  0  0  0  0
    5.6012   -1.6089   -1.4274 C   0  0  0  0  0  0  0  0  0  0  0  0
    6.3574   -2.6793   -1.8654 C   0  0  0  0  0  0  0  0  0  0  0  0
    7.6768   -2.7035   -1.4647 C   0  0  0  0  0  0  0  0  0  0  0  0
    8.2577   -1.7445   -0.6757 C   0  0  0  0  0  0  0  0  0  0  0  0
    9.4557    0.2963    0.9915 C   0  0  0  0  0  0  0  0  0  0  0  0
   10.3627   -0.5215    0.7572 O   0  0  0  0  0  0  0  0  0  0  0  0
    9.8577    1.4093    1.8261 N   0  0  0  0  0  0  0  0  0  0  0  0
    1.6775   -0.0124   -0.4131 N   0  0  0  0  0  0  0  0  0  0  0  0
    0.5195   -0.5783    0.2759 C   0  0  0  0  0  0  0  0  0  0  0  0
   -0.7216   -0.2903   -0.5138 C   0  0  0  0  0  0  0  0  0  0  0  0
   -1.9772   -0.8441    0.1285 C   0  0  0  0  0  0  0  0  0  0  0  0
   -3.1294   -0.4726   -0.7844 C   0  0  0  0  0  0  0  0  0  0  0  0
   -3.2366    0.9464   -0.9290 N   0  0  0  0  0  0  0  0  0  0  0  0
   -4.3392    1.2584   -1.8278 C   0  0  0  0  0  0  0  0  0  0  0  0
   -5.5865    1.6859   -1.1175 C   0  0  0  0  0  0  0  0  0  0  0  0
   -5.7574    1.0146    0.1645 N   0  0  0  0  0  0  0  0  0  0  0  0
   -4.6422    1.0998    1.0888 C   0  0  0  0  0  0  0  0  0  0  0  0
   -3.4313    1.6436    0.3236 C   0  0  0  0  0  0  0  0  0  0  0  0
   -6.9615    0.3313    0.4436 C   0  0  0  0  0  0  0  0  0  0  0  0
   -6.9592   -1.0206    0.7230 C   0  0  0  0  0  0  0  0  0  0  0  0
   -8.1358   -1.7052    0.9987 C   0  0  0  0  0  0  0  0  0  0  0  0
   -9.3468   -1.0711    1.0057 C   0  0  0  0  0  0  0  0  0  0  0  0
   -9.3652    0.2788    0.7286 C   0  0  0  0  0  0  0  0  0  0  0  0
   -8.1943    0.9640    0.4534 C   0  0  0  0  0  0  0  0  0  0  0  0
   -8.2666    2.6765    0.1074 Cl  0  0  0  0  0  0  0  0  0  0  0  0
  -10.9326    1.0718    0.7431 Cl  0  0  0  0  0  0  0  0  0  0  0  0
    0.6899    0.0000    0.0000 Cl  0  0  0  0  0  0  0  0  0  0  0  0
    5.2845    2.1837    0.8693 H   0  0  0  0  0  0  0  0  0  0  0  0
    7.5817    2.1422    1.5669 H   0  0  0  0  0  0  0  0  0  0  0  0
    4.5698   -1.5468   -1.7132 H   0  0  0  0  0  0  0  0  0  0  0  0
    5.8987   -3.4318   -2.4855 H   0  0  0  0  0  0  0  0  0  0  0  0
    8.2594   -3.5598   -1.8219 H   0  0  0  0  0  0  0  0  0  0  0  0
    9.2898   -1.8676   -0.4281 H   0  0  0  0  0  0  0  0  0  0  0  0
    9.9164    2.3798    1.4283 H   0  0  0  0  0  0  0  0  0  0  0  0
   10.0938    1.2649    2.8306 H   0  0  0  0  0  0  0  0  0  0  0  0
    1.5379    0.5060   -1.3307 H   0  0  0  0  0  0  0  0  0  0  0  0
    0.5150   -0.1023    1.2763 H   0  0  0  0  0  0  0  0  0  0  0  0
    0.7134   -1.6652    0.3838 H   0  0  0  0  0  0  0  0  0  0  0  0
   -0.8112    0.8014   -0.6432 H   0  0  0  0  0  0  0  0  0  0  0  0
   -0.6215   -0.8087   -1.4933 H   0  0  0  0  0  0  0  0  0  0  0  0
   -1.8636   -1.9430    0.2155 H   0  0  0  0  0  0  0  0  0  0  0  0
   -2.1236   -0.4577    1.1545 H   0  0  0  0  0  0  0  0  0  0  0  0
   -2.9811   -0.8982   -1.7953 H   0  0  0  0  0  0  0  0  0  0  0  0
   -4.0418   -0.9394   -0.3716 H   0  0  0  0  0  0  0  0  0  0  0  0
   -4.5651    0.3765   -2.4700 H   0  0  0  0  0  0  0  0  0  0  0  0
   -3.9565    2.0585   -2.4951 H   0  0  0  0  0  0  0  0  0  0  0  0
   -6.4677    1.4907   -1.7586 H   0  0  0  0  0  0  0  0  0  0  0  0
   -5.5961    2.7830   -0.9049 H   0  0  0  0  0  0  0  0  0  0  0  0
   -4.9168    1.8548    1.8571 H   0  0  0  0  0  0  0  0  0  0  0  0
   -4.4266    0.1005    1.5012 H   0  0  0  0  0  0  0  0  0  0  0  0
   -3.5878    2.7073    0.0836 H   0  0  0  0  0  0  0  0  0  0  0  0
   -2.5296    1.5278    0.9535 H   0  0  0  0  0  0  0  0  0  0  0  0
   -6.0567   -1.6156    0.7429 H   0  0  0  0  0  0  0  0  0  0  0  0
   -8.1195   -2.7763    1.2183 H   0  0  0  0  0  0  0  0  0  0  0  0
  -10.2641   -1.6123    1.2219 H   0  0  0  0  0  0  0  0  0  0  0  0
   -0.6899    0.0000    0.0000 H   0  0  0  0  0  0  0  0  0  0  0  0
  1  2  2  0
  2  3  1  0
  3  4  1  0
  4  5  2  0
  5  6  1  0
  6  7  2  0
  7  8  1  0
  8  9  2  0
  9 10  1  0
 10 11  2  0
 11 12  1  0
 12 13  2  0
  7 14  1  0
 14 15  2  0
 14 16  1  0
  2 17  1  0
 17 18  1  0
 18 19  1  0
 19 20  1  0
 20 21  1  0
 21 22  1  0
 22 23  1  0
 23 24  1  0
 24 25  1  0
 25 26  1  0
 26 27  1  0
 25 28  1  0
 28 29  2  0
 29 30  1  0
 30 31  2  0
 31 32  1  0
 32 33  2  0
 33 34  1  0
 32 35  1  0
  9  4  1  0
 27 22  1  0
 33 28  1  0
 13  8  1  0
  5 37  1  0
  6 38  1  0
 10 39  1  0
 11 40  1  0
 12 41  1  0
 13 42  1  0
 16 43  1  0
 16 44  1  0
 17 45  1  0
 18 46  1  0
 18 47  1  0
 19 48  1  0
 19 49  1  0
 20 50  1  0
 20 51  1  0
 21 52  1  0
 21 53  1  0
 23 54  1  0
 23 55  1  0
 24 56  1  0
 24 57  1  0
 26 58  1  0
 26 59  1  0
 27 60  1  0
 27 61  1  0
 29 62  1  0
 30 63  1  0
 31 64  1  0
 36 65  1  0
M  END
>  <Ligand ID>  (1) 
LIG0003163

>  <Ligand>  (1) 
CHEMBL3798211

>  <SMILES>  (1) 
O=C(Oc1ccc(c2c1cccc2)C(=O)N)NCCCCN1CCN(CC1)c1cccc(c1Cl)Cl.Cl

>  <CID>  (1) 
127047318.0

>  <ChEMBL ID>  (1) 
nan

>  <InChiKey>  (1) 
MELPQKYOKCNEFX-UHFFFAOYSA-N

>  <InChi>  (1) 
InChI=1S/C26H28Cl2N4O3.ClH/c27-21-8-5-9-22(24(21)28)32-16-14-31(15-17-32)13-4-3-12-30-26(34)35-23-11-10-20(25(29)33)18-6-1-2-7-19(18)23;/h1-2,5-11H,3-4,12-17H2,(H2,29,33)(H,30,34);1H

>  <IUPAC Name>  (1) 
(4-carbamoylnaphthalen-1-yl) N-[4-[4-(2,3-dichlorophenyl)piperazin-1-yl]butyl]carbamate;hydrochloride

$$$$
