
     RDKit          3D

 34 36  0  0  0  0  0  0  0  0999 V2000
    4.7267    1.4316   -1.4725 O   0  0  0  0  0  0  0  0  0  0  0  0
    3.8206    1.9419   -0.5226 C   0  0  0  0  0  0  0  0  0  0  0  0
    4.1471    2.9958    0.0930 O   0  0  0  0  0  0  0  0  0  0  0  0
    2.5309    1.3043   -0.2259 C   0  0  1  0  0  0  0  0  0  0  0  0
    1.7650    0.5375   -1.2252 C   0  0  1  0  0  0  0  0  0  0  0  0
    2.5954   -0.2135   -0.2533 C   0  0  2  0  0  0  0  0  0  0  0  0
    1.7028   -0.8693    0.7612 C   0  0  2  0  0  0  0  0  0  0  0  0
    0.3645   -0.1831    0.5941 C   0  0  0  0  0  0  0  0  0  0  0  0
    0.3696    0.1403   -0.8684 C   0  0  1  0  0  0  0  0  0  0  0  0
   -0.8769    1.4080   -1.1576 S   0  0  0  0  0  0  0  0  0  0  0  0
   -2.4521    0.7173   -0.6640 C   0  0  0  0  0  0  0  0  0  0  0  0
   -2.6374   -0.5230   -0.1716 N   0  0  0  0  0  0  0  0  0  0  0  0
   -3.9120   -0.7536    0.1048 N   0  0  0  0  0  0  0  0  0  0  0  0
   -4.5517    0.3822   -0.2254 C   0  0  0  0  0  0  0  0  0  0  0  0
   -3.6719    1.2889   -0.6963 N   0  0  0  0  0  0  0  0  0  0  0  0
   -6.0160    0.5801   -0.0813 C   0  0  0  0  0  0  0  0  0  0  0  0
   -6.2196    1.8061    0.5309 F   0  0  0  0  0  0  0  0  0  0  0  0
   -6.6463    0.5312   -1.3064 F   0  0  0  0  0  0  0  0  0  0  0  0
   -6.5624   -0.3858    0.7297 F   0  0  0  0  0  0  0  0  0  0  0  0
    2.2071   -0.5204    2.0774 N   0  0  0  0  0  0  0  0  0  0  0  0
    1.5831   -2.3298    0.5682 C   0  0  0  0  0  0  0  0  0  0  0  0
    1.1558   -2.7943   -0.5322 O   0  0  0  0  0  0  0  0  0  0  0  0
    1.9291   -3.2436    1.5711 O   0  0  0  0  0  0  0  0  0  0  0  0
    5.7269    1.6776   -1.4133 H   0  0  0  0  0  0  0  0  0  0  0  0
    1.9444    1.8228    0.5347 H   0  0  0  0  0  0  0  0  0  0  0  0
    2.0389    0.5797   -2.2847 H   0  0  0  0  0  0  0  0  0  0  0  0
    3.4909   -0.7123   -0.6227 H   0  0  0  0  0  0  0  0  0  0  0  0
   -0.4095   -0.9304    0.8606 H   0  0  0  0  0  0  0  0  0  0  0  0
    0.2892    0.7665    1.1612 H   0  0  0  0  0  0  0  0  0  0  0  0
    0.1212   -0.7593   -1.4996 H   0  0  0  0  0  0  0  0  0  0  0  0
   -4.2848   -1.6472    0.4951 H   0  0  0  0  0  0  0  0  0  0  0  0
    1.4607   -0.2181    2.7316 H   0  0  0  0  0  0  0  0  0  0  0  0
    2.9138    0.2571    2.0513 H   0  0  0  0  0  0  0  0  0  0  0  0
    1.3568   -4.0851    1.6382 H   0  0  0  0  0  0  0  0  0  0  0  0
  1  2  1  0
  2  3  2  0
  2  4  1  0
  4  5  1  0
  5  6  1  0
  6  7  1  0
  7  8  1  0
  8  9  1  0
  9 10  1  0
 10 11  1  0
 11 12  2  0
 12 13  1  0
 13 14  1  0
 14 15  2  0
 14 16  1  0
 16 17  1  0
 16 18  1  0
 16 19  1  0
  7 20  1  1
  7 21  1  0
 21 22  2  0
 21 23  1  0
  6  4  1  0
 15 11  1  0
  9  5  1  0
  1 24  1  0
  4 25  1  1
  5 26  1  6
  6 27  1  6
  8 28  1  0
  8 29  1  0
  9 30  1  6
 13 31  1  0
 20 32  1  0
 20 33  1  0
 23 34  1  0
M  END
>  <Ligand ID>  (1) 
LIG0005721

>  <Ligand>  (1) 
CHEMBL3616849

>  <SMILES>  (1) 
OC(=O)[C@H]1[C@H]2[C@@H]1[C@](C[C@H]2Sc1n[nH]c(n1)C(F)(F)F)(N)C(=O)O

>  <CID>  (1) 
71137010.0

>  <ChEMBL ID>  (1) 
nan

>  <InChiKey>  (1) 
HHUBIRLCPJRLDB-UESLGPDASA-N

>  <InChi>  (1) 
InChI=1S/C11H11F3N4O4S/c12-11(13,14)7-16-9(18-17-7)23-2-1-10(15,8(21)22)5-3(2)4(5)6(19)20/h2-5H,1,15H2,(H,19,20)(H,21,22)(H,16,17,18)/t2-,3+,4+,5+,10+/m1/s1

>  <IUPAC Name>  (1) 
(1R,2S,4R,5R,6R)-2-amino-4-[[5-(trifluoromethyl)-1H-1,2,4-triazol-3-yl]sulfanyl]bicyclo[3.1.0]hexane-2,6-dicarboxylic acid

$$$$
