
     RDKit          3D

 93 96  0  0  0  0  0  0  0  0999 V2000
   -0.4133    7.2020   -1.8894 N   0  0  0  0  0  0  0  0  0  0  0  0
    0.3635    6.1160   -1.3496 C   0  0  0  0  0  0  0  0  0  0  0  0
    1.3518    5.7220   -2.0560 N   0  0  0  0  0  0  0  0  0  0  0  0
    2.2048    4.6514   -1.6332 C   0  0  0  0  0  0  0  0  0  0  0  0
    1.4520    3.3639   -1.4335 C   0  0  0  0  0  0  0  0  0  0  0  0
    2.4759    2.3330   -0.9992 C   0  0  0  0  0  0  0  0  0  0  0  0
    1.8909    0.9691   -0.7503 C   0  0  1  0  0  0  0  0  0  0  0  0
    3.0014    0.0654   -0.3371 C   0  0  0  0  0  0  0  0  0  0  0  0
    2.9312   -0.4672    0.8109 O   0  0  0  0  0  0  0  0  0  0  0  0
    4.0858   -0.1670   -1.2273 N   0  0  0  0  0  0  0  0  0  0  0  0
    5.1331   -1.0681   -0.7397 C   0  0  2  0  0  0  0  0  0  0  0  0
    6.4396   -0.4189   -0.7692 C   0  0  0  0  0  0  0  0  0  0  0  0
    7.4593   -1.0601   -0.3711 O   0  0  0  0  0  0  0  0  0  0  0  0
    6.5982    0.9346   -1.2408 N   0  0  0  0  0  0  0  0  0  0  0  0
    5.1068   -2.2819   -1.6487 C   0  0  0  0  0  0  0  0  0  0  0  0
    6.1450   -3.2343   -1.2081 C   0  0  0  0  0  0  0  0  0  0  0  0
    7.3725   -3.4691   -1.8066 C   0  0  0  0  0  0  0  0  0  0  0  0
    8.0172   -4.4192   -1.0799 N   0  0  0  0  0  0  0  0  0  0  0  0
    7.2695   -4.8098   -0.0427 C   0  0  0  0  0  0  0  0  0  0  0  0
    6.0837   -4.0715   -0.1088 C   0  0  0  0  0  0  0  0  0  0  0  0
    5.0711   -4.2098    0.8005 C   0  0  0  0  0  0  0  0  0  0  0  0
    5.2566   -5.1320    1.8247 C   0  0  0  0  0  0  0  0  0  0  0  0
    6.4033   -5.8860    1.9389 C   0  0  0  0  0  0  0  0  0  0  0  0
    7.4027   -5.7183    1.0021 C   0  0  0  0  0  0  0  0  0  0  0  0
    0.8773    1.0751    0.2772 N   0  0  0  0  0  0  0  0  0  0  0  0
   -0.4549    0.6840    0.0414 C   0  0  0  0  0  0  0  0  0  0  0  0
   -0.7122    0.2336   -1.1296 O   0  0  0  0  0  0  0  0  0  0  0  0
   -1.5560    0.7422    0.9959 C   0  0  2  0  0  0  0  0  0  0  0  0
   -2.8051    0.2483    0.4659 N   0  0  0  0  0  0  0  0  0  0  0  0
   -3.3988   -0.8926    1.0909 C   0  0  0  0  0  0  0  0  0  0  0  0
   -2.8980   -1.4841    2.0692 O   0  0  0  0  0  0  0  0  0  0  0  0
   -4.7013   -1.4205    0.5471 C   0  0  2  0  0  0  0  0  0  0  0  0
   -4.5655   -2.8677    0.1631 C   0  0  0  0  0  0  0  0  0  0  0  0
   -5.8916   -3.3166   -0.3655 C   0  0  0  0  0  0  0  0  0  0  0  0
   -6.2836   -3.2546   -1.6685 N   0  0  0  0  0  0  0  0  0  0  0  0
   -7.5199   -3.7458   -1.7461 C   0  0  0  0  0  0  0  0  0  0  0  0
   -7.9684   -4.1370   -0.5248 N   0  0  0  0  0  0  0  0  0  0  0  0
   -6.9506   -3.8700    0.3453 C   0  0  0  0  0  0  0  0  0  0  0  0
   -5.1151   -0.5933   -0.5899 N   0  0  0  0  0  0  0  0  0  0  0  0
   -6.2877    0.2065   -0.5483 C   0  0  0  0  0  0  0  0  0  0  0  0
   -6.9943    0.1970    0.5174 O   0  0  0  0  0  0  0  0  0  0  0  0
   -6.6875    1.0387   -1.7191 C   0  0  0  0  0  0  0  0  0  0  0  0
   -1.8274    2.1078    1.5820 C   0  0  0  0  0  0  0  0  0  0  0  0
   -2.9796    2.0415    2.5491 C   0  0  0  0  0  0  0  0  0  0  0  0
   -2.7685    1.7836    3.8872 C   0  0  0  0  0  0  0  0  0  0  0  0
   -3.7862    1.7105    4.8158 C   0  0  0  0  0  0  0  0  0  0  0  0
   -5.0852    1.9017    4.4082 C   0  0  0  0  0  0  0  0  0  0  0  0
   -5.3053    2.1595    3.0745 C   0  0  0  0  0  0  0  0  0  0  0  0
   -4.2833    2.2331    2.1399 C   0  0  0  0  0  0  0  0  0  0  0  0
   -6.5285    1.8117    5.6502 Br  0  0  0  0  0  0  0  0  0  0  0  0
   -0.0245    5.5826   -0.1011 N   0  0  0  0  0  0  0  0  0  0  0  0
   -0.1200    8.1960   -1.7267 H   0  0  0  0  0  0  0  0  0  0  0  0
   -1.2855    7.0223   -2.4524 H   0  0  0  0  0  0  0  0  0  0  0  0
    2.9950    4.4637   -2.4084 H   0  0  0  0  0  0  0  0  0  0  0  0
    2.7495    4.8771   -0.6819 H   0  0  0  0  0  0  0  0  0  0  0  0
    1.0505    3.0336   -2.4116 H   0  0  0  0  0  0  0  0  0  0  0  0
    0.6917    3.3939   -0.6482 H   0  0  0  0  0  0  0  0  0  0  0  0
    3.0239    2.6700   -0.0715 H   0  0  0  0  0  0  0  0  0  0  0  0
    3.2834    2.2562   -1.7826 H   0  0  0  0  0  0  0  0  0  0  0  0
    1.4096    0.6218   -1.6838 H   0  0  0  0  0  0  0  0  0  0  0  0
    4.1519    0.2668   -2.1740 H   0  0  0  0  0  0  0  0  0  0  0  0
    4.8695   -1.3954    0.2767 H   0  0  0  0  0  0  0  0  0  0  0  0
    7.2214    1.5513   -0.6810 H   0  0  0  0  0  0  0  0  0  0  0  0
    6.0952    1.2515   -2.1124 H   0  0  0  0  0  0  0  0  0  0  0  0
    5.3103   -2.0008   -2.7021 H   0  0  0  0  0  0  0  0  0  0  0  0
    4.1264   -2.7987   -1.5901 H   0  0  0  0  0  0  0  0  0  0  0  0
    7.7043   -2.9540   -2.6969 H   0  0  0  0  0  0  0  0  0  0  0  0
    8.9497   -4.7870   -1.2970 H   0  0  0  0  0  0  0  0  0  0  0  0
    4.1438   -3.6577    0.7792 H   0  0  0  0  0  0  0  0  0  0  0  0
    4.4886   -5.2827    2.5710 H   0  0  0  0  0  0  0  0  0  0  0  0
    6.5308   -6.5994    2.7434 H   0  0  0  0  0  0  0  0  0  0  0  0
    8.3205   -6.2736    1.0338 H   0  0  0  0  0  0  0  0  0  0  0  0
    1.1087    1.4484    1.2314 H   0  0  0  0  0  0  0  0  0  0  0  0
   -1.2917    0.0765    1.8628 H   0  0  0  0  0  0  0  0  0  0  0  0
   -3.2858    0.6981   -0.3580 H   0  0  0  0  0  0  0  0  0  0  0  0
   -5.4513   -1.2725    1.3424 H   0  0  0  0  0  0  0  0  0  0  0  0
   -3.8114   -2.9068   -0.6534 H   0  0  0  0  0  0  0  0  0  0  0  0
   -4.2889   -3.4386    1.0489 H   0  0  0  0  0  0  0  0  0  0  0  0
   -5.7273   -2.8875   -2.4852 H   0  0  0  0  0  0  0  0  0  0  0  0
   -8.1224   -3.8386   -2.6423 H   0  0  0  0  0  0  0  0  0  0  0  0
   -6.9291   -4.0420    1.4029 H   0  0  0  0  0  0  0  0  0  0  0  0
   -4.5454   -0.5705   -1.4782 H   0  0  0  0  0  0  0  0  0  0  0  0
   -7.3761    1.8521   -1.4287 H   0  0  0  0  0  0  0  0  0  0  0  0
   -5.7582    1.4994   -2.1330 H   0  0  0  0  0  0  0  0  0  0  0  0
   -7.1903    0.4534   -2.5150 H   0  0  0  0  0  0  0  0  0  0  0  0
   -2.1365    2.7685    0.7506 H   0  0  0  0  0  0  0  0  0  0  0  0
   -0.9639    2.5565    2.0911 H   0  0  0  0  0  0  0  0  0  0  0  0
   -1.7643    1.6344    4.2098 H   0  0  0  0  0  0  0  0  0  0  0  0
   -3.6110    1.5066    5.8679 H   0  0  0  0  0  0  0  0  0  0  0  0
   -6.3122    2.3165    2.7081 H   0  0  0  0  0  0  0  0  0  0  0  0
   -4.4474    2.4349    1.0958 H   0  0  0  0  0  0  0  0  0  0  0  0
   -0.9560    5.1044   -0.0608 H   0  0  0  0  0  0  0  0  0  0  0  0
    0.5490    5.6328    0.7703 H   0  0  0  0  0  0  0  0  0  0  0  0
  1  2  1  0
  2  3  2  3
  3  4  1  0
  4  5  1  0
  5  6  1  0
  6  7  1  0
  7  8  1  0
  8  9  2  0
  8 10  1  0
 10 11  1  0
 11 12  1  0
 12 13  2  0
 12 14  1  0
 11 15  1  0
 15 16  1  0
 16 17  2  0
 17 18  1  0
 18 19  1  0
 19 20  2  0
 20 21  1  0
 21 22  2  0
 22 23  1  0
 23 24  2  0
  7 25  1  0
 25 26  1  0
 26 27  2  0
 26 28  1  0
 28 29  1  0
 29 30  1  0
 30 31  2  0
 30 32  1  0
 32 33  1  0
 33 34  1  0
 34 35  1  0
 35 36  1  0
 36 37  2  0
 37 38  1  0
 32 39  1  0
 39 40  1  0
 40 41  2  0
 40 42  1  0
 28 43  1  0
 43 44  1  0
 44 45  2  0
 45 46  1  0
 46 47  2  0
 47 48  1  0
 48 49  2  0
 47 50  1  0
  2 51  1  0
 20 16  1  0
 38 34  2  0
 49 44  1  0
 24 19  1  0
  1 52  1  0
  1 53  1  0
  4 54  1  0
  4 55  1  0
  5 56  1  0
  5 57  1  0
  6 58  1  0
  6 59  1  0
  7 60  1  6
 10 61  1  0
 11 62  1  1
 14 63  1  0
 14 64  1  0
 15 65  1  0
 15 66  1  0
 17 67  1  0
 18 68  1  0
 21 69  1  0
 22 70  1  0
 23 71  1  0
 24 72  1  0
 25 73  1  0
 28 74  1  1
 29 75  1  0
 32 76  1  1
 33 77  1  0
 33 78  1  0
 35 79  1  0
 36 80  1  0
 38 81  1  0
 39 82  1  0
 42 83  1  0
 42 84  1  0
 42 85  1  0
 43 86  1  0
 43 87  1  0
 45 88  1  0
 46 89  1  0
 48 90  1  0
 49 91  1  0
 51 92  1  0
 51 93  1  0
M  END
>  <Ligand ID>  (1) 
LIG0003299

>  <Ligand>  (1) 
CHEMBL502093

>  <SMILES>  (1) 
NC(=NCCC[C@@H](C(=O)N[C@H](C(=O)N)Cc1c[nH]c2c1cccc2)NC(=O)[C@H](NC(=O)[C@H](Cc1[nH]cnc1)NC(=O)C)Cc1ccc(cc1)Br)N

>  <CID>  (1) 
25108216.0

>  <ChEMBL ID>  (1) 
nan

>  <InChiKey>  (1) 
UDLFTFKLQRVSSE-FKWFRFQNSA-N

>  <InChi>  (1) 
InChI=1S/C34H42BrN11O5/c1-19(47)43-29(15-23-17-39-18-42-23)33(51)46-28(13-20-8-10-22(35)11-9-20)32(50)44-26(7-4-12-40-34(37)38)31(49)45-27(30(36)48)14-21-16-41-25-6-3-2-5-24(21)25/h2-3,5-6,8-11,16-18,26-29,41H,4,7,12-15H2,1H3,(H2,36,48)(H,39,42)(H,43,47)(H,44,50)(H,45,49)(H,46,51)(H4,37,38,40)/t26-,27-,28+,29-/m0/s1

>  <IUPAC Name>  (1) 
(2S)-2-[[(2R)-2-[[(2S)-2-acetamido-3-(1H-imidazol-5-yl)propanoyl]amino]-3-(4-bromophenyl)propanoyl]amino]-N-[(2S)-1-amino-3-(1H-indol-3-yl)-1-oxopropan-2-yl]-5-(diaminomethylideneamino)pentanamide

$$$$
