
     RDKit          3D

 24 25  0  0  0  0  0  0  0  0999 V2000
    3.9043    0.3354   -0.2049 N   0  0  0  0  0  0  0  0  0  0  0  0
    2.7069    0.4992    0.5971 C   0  0  0  0  0  0  0  0  0  0  0  0
    1.4492    0.2454   -0.2352 C   0  0  1  0  0  0  0  0  0  0  0  0
    1.2567   -1.0751   -0.8709 C   0  0  0  0  0  0  0  0  0  0  0  0
    0.4773   -0.7706    0.3342 C   0  0  2  0  0  0  0  0  0  0  0  0
   -0.9601   -0.3639    0.2383 C   0  0  0  0  0  0  0  0  0  0  0  0
   -1.4252    0.2141   -0.9468 C   0  0  0  0  0  0  0  0  0  0  0  0
   -2.7314    0.6021   -1.0813 C   0  0  0  0  0  0  0  0  0  0  0  0
   -3.5882    0.4019    0.0059 C   0  0  0  0  0  0  0  0  0  0  0  0
   -3.1344   -0.1695    1.1812 C   0  0  0  0  0  0  0  0  0  0  0  0
   -1.8293   -0.5558    1.3123 C   0  0  0  0  0  0  0  0  0  0  0  0
   -5.4275    0.9105   -0.0863 Br  0  0  0  0  0  0  0  0  0  0  0  0
    4.6802    0.9523    0.1408 H   0  0  0  0  0  0  0  0  0  0  0  0
    3.7351    0.4338   -1.2337 H   0  0  0  0  0  0  0  0  0  0  0  0
    2.7264   -0.2127    1.4584 H   0  0  0  0  0  0  0  0  0  0  0  0
    2.6940    1.5181    0.9962 H   0  0  0  0  0  0  0  0  0  0  0  0
    1.0291    1.1472   -0.7130 H   0  0  0  0  0  0  0  0  0  0  0  0
    0.7487   -1.1082   -1.8665 H   0  0  0  0  0  0  0  0  0  0  0  0
    2.0517   -1.8661   -0.8247 H   0  0  0  0  0  0  0  0  0  0  0  0
    0.7663   -1.2235    1.3130 H   0  0  0  0  0  0  0  0  0  0  0  0
   -0.7616    0.3725   -1.7972 H   0  0  0  0  0  0  0  0  0  0  0  0
   -3.1035    1.0561   -2.0077 H   0  0  0  0  0  0  0  0  0  0  0  0
   -3.7868   -0.3351    2.0432 H   0  0  0  0  0  0  0  0  0  0  0  0
   -1.4781   -1.0079    2.2474 H   0  0  0  0  0  0  0  0  0  0  0  0
  1  2  1  0
  2  3  1  0
  3  4  1  0
  4  5  1  0
  5  6  1  0
  6  7  2  0
  7  8  1  0
  8  9  2  0
  9 10  1  0
 10 11  2  0
  9 12  1  0
  5  3  1  0
 11  6  1  0
  1 13  1  0
  1 14  1  0
  2 15  1  0
  2 16  1  0
  3 17  1  6
  4 18  1  0
  4 19  1  0
  5 20  1  1
  7 21  1  0
  8 22  1  0
 10 23  1  0
 11 24  1  0
M  END
>  <Ligand ID>  (1) 
LIG0002380

>  <Ligand>  (1) 
CHEMBL501854

>  <SMILES>  (1) 
NC[C@H]1C[C@@H]1c1ccc(cc1)Br

>  <CID>  (1) 
44573002.0

>  <ChEMBL ID>  (1) 
nan

>  <InChiKey>  (1) 
JDPOCUFHXPTLJW-PSASIEDQSA-N

>  <InChi>  (1) 
InChI=1S/C10H12BrN/c11-9-3-1-7(2-4-9)10-5-8(10)6-12/h1-4,8,10H,5-6,12H2/t8-,10-/m1/s1

>  <IUPAC Name>  (1) 
[(1S,2S)-2-(4-bromophenyl)cyclopropyl]methanamine

$$$$
