
     RDKit          3D

 69 77  0  0  0  0  0  0  0  0999 V2000
    2.0757    2.8749    0.8560 O   0  0  0  0  0  0  0  0  0  0  0  0
    1.6951    1.7035    1.0337 C   0  0  0  0  0  0  0  0  0  0  0  0
    0.3350    1.2573    1.3756 C   0  0  1  0  0  0  0  0  0  0  0  0
   -0.5764    1.6530    0.4324 O   0  0  0  0  0  0  0  0  0  0  0  0
   -0.8378    0.5661   -0.3977 C   0  0  1  0  0  0  0  0  0  0  0  0
   -0.8898   -0.5399    0.6460 C   0  0  2  0  0  0  0  0  0  0  0  0
    0.4170   -0.2828    1.3283 C   0  0  1  0  0  0  0  0  0  0  0  0
    1.6379   -0.6076    0.5398 C   0  0  1  0  0  0  0  0  0  0  0  0
    2.4987    0.5392    0.9436 N   0  0  0  0  0  0  0  0  0  0  0  0
    3.9386    0.4726    1.2031 C   0  0  0  0  0  0  0  0  0  0  0  0
    4.7604    0.7134    0.0162 C   0  0  0  0  0  0  0  0  0  0  0  0
    5.1486    2.0166   -0.2975 C   0  0  0  0  0  0  0  0  0  0  0  0
    5.9216    2.2991   -1.3983 C   0  0  0  0  0  0  0  0  0  0  0  0
    6.3470    1.2960   -2.2426 C   0  0  0  0  0  0  0  0  0  0  0  0
    5.9742   -0.0064   -1.9520 C   0  0  0  0  0  0  0  0  0  0  0  0
    5.1991   -0.2812   -0.8465 C   0  0  0  0  0  0  0  0  0  0  0  0
    2.2666   -1.6846    0.9565 O   0  0  0  0  0  0  0  0  0  0  0  0
    1.8506   -2.6780    1.7153 C   0  0  0  0  0  0  0  0  0  0  0  0
    0.7290   -3.3630    1.1325 O   0  0  0  0  0  0  0  0  0  0  0  0
   -0.2305   -3.0251    0.1510 C   0  0  0  0  0  0  0  0  0  0  0  0
   -0.9346   -1.8329   -0.0983 C   0  0  0  0  0  0  0  0  0  0  0  0
   -1.8140   -1.8564   -1.1803 C   0  0  0  0  0  0  0  0  0  0  0  0
   -2.6088   -0.6783   -1.6024 C   0  0  0  0  0  0  0  0  0  0  0  0
   -2.2001    0.6260   -1.0126 C   0  0  1  0  0  0  0  0  0  0  0  0
   -3.2021    1.0058   -0.0426 N   0  0  0  0  0  0  0  0  0  0  0  0
   -3.2903    0.1519    1.0683 C   0  0  0  0  0  0  0  0  0  0  0  0
   -1.9921   -0.3389    1.6139 C   0  0  0  0  0  0  0  0  0  0  0  0
   -3.4581    2.3787    0.0938 C   0  0  0  0  0  0  0  0  0  0  0  0
   -4.5162    2.5954    1.1501 C   0  0  0  0  0  0  0  0  0  0  0  0
   -5.8290    1.9530    0.9023 C   0  0  0  0  0  0  0  0  0  0  0  0
   -5.6734    3.4858    0.8723 C   0  0  0  0  0  0  0  0  0  0  0  0
   -1.9758   -3.0042   -1.9564 C   0  0  0  0  0  0  0  0  0  0  0  0
   -1.2808   -4.1618   -1.6964 C   0  0  0  0  0  0  0  0  0  0  0  0
   -0.4092   -4.1479   -0.6321 C   0  0  0  0  0  0  0  0  0  0  0  0
    0.3049   -5.3117   -0.3530 O   0  0  0  0  0  0  0  0  0  0  0  0
    1.4345   -0.4255   -0.9339 C   0  0  0  0  0  0  0  0  0  0  0  0
    0.2819    0.4249   -1.3379 C   0  0  0  0  0  0  0  0  0  0  0  0
    0.0428    1.5904    2.3923 H   0  0  0  0  0  0  0  0  0  0  0  0
    0.4600   -0.6793    2.3563 H   0  0  0  0  0  0  0  0  0  0  0  0
    4.2716    1.1444    2.0040 H   0  0  0  0  0  0  0  0  0  0  0  0
    4.0997   -0.5651    1.6220 H   0  0  0  0  0  0  0  0  0  0  0  0
    4.8129    2.8100    0.3693 H   0  0  0  0  0  0  0  0  0  0  0  0
    6.2082    3.3025   -1.6216 H   0  0  0  0  0  0  0  0  0  0  0  0
    6.9539    1.5598   -3.0979 H   0  0  0  0  0  0  0  0  0  0  0  0
    6.3234   -0.7899   -2.6370 H   0  0  0  0  0  0  0  0  0  0  0  0
    4.9128   -1.2953   -0.6262 H   0  0  0  0  0  0  0  0  0  0  0  0
    2.6352   -3.4312    1.9990 H   0  0  0  0  0  0  0  0  0  0  0  0
    1.4876   -2.3188    2.7020 H   0  0  0  0  0  0  0  0  0  0  0  0
   -2.7059   -0.6346   -2.7183 H   0  0  0  0  0  0  0  0  0  0  0  0
   -3.6653   -0.9048   -1.2707 H   0  0  0  0  0  0  0  0  0  0  0  0
   -2.1909    1.3888   -1.7998 H   0  0  0  0  0  0  0  0  0  0  0  0
   -3.8723    0.5861    1.8970 H   0  0  0  0  0  0  0  0  0  0  0  0
   -3.8875   -0.7559    0.7507 H   0  0  0  0  0  0  0  0  0  0  0  0
   -2.1859   -1.3449    2.0935 H   0  0  0  0  0  0  0  0  0  0  0  0
   -1.6275    0.3009    2.4617 H   0  0  0  0  0  0  0  0  0  0  0  0
   -3.7335    2.8538   -0.8679 H   0  0  0  0  0  0  0  0  0  0  0  0
   -2.5505    2.9426    0.4602 H   0  0  0  0  0  0  0  0  0  0  0  0
   -4.1202    2.5494    2.1894 H   0  0  0  0  0  0  0  0  0  0  0  0
   -6.3872    1.5297    1.7656 H   0  0  0  0  0  0  0  0  0  0  0  0
   -6.0409    1.4328   -0.0573 H   0  0  0  0  0  0  0  0  0  0  0  0
   -5.7797    3.9689   -0.1074 H   0  0  0  0  0  0  0  0  0  0  0  0
   -6.0703    4.0311    1.7626 H   0  0  0  0  0  0  0  0  0  0  0  0
   -2.6601   -3.0158   -2.7934 H   0  0  0  0  0  0  0  0  0  0  0  0
   -1.3884   -5.0611   -2.2802 H   0  0  0  0  0  0  0  0  0  0  0  0
    1.3166   -5.2274   -0.4606 H   0  0  0  0  0  0  0  0  0  0  0  0
    2.3684    0.0695   -1.3360 H   0  0  0  0  0  0  0  0  0  0  0  0
    1.3928   -1.3627   -1.5261 H   0  0  0  0  0  0  0  0  0  0  0  0
    0.6318    1.4697   -1.5967 H   0  0  0  0  0  0  0  0  0  0  0  0
   -0.1491    0.0693   -2.3206 H   0  0  0  0  0  0  0  0  0  0  0  0
  1  2  2  0
  2  3  1  0
  3  4  1  0
  5  4  1  1
  5  6  1  0
  6  7  1  0
  7  8  1  0
  8  9  1  0
  9 10  1  0
 10 11  1  0
 11 12  2  0
 12 13  1  0
 13 14  2  0
 14 15  1  0
 15 16  2  0
  8 17  1  6
 17 18  1  0
 18 19  1  0
 19 20  1  0
 20 21  2  0
 21 22  1  0
 22 23  1  0
 23 24  1  0
 24 25  1  0
 25 26  1  0
 26 27  1  0
 25 28  1  0
 28 29  1  0
 29 30  1  0
 30 31  1  0
 22 32  2  0
 32 33  1  0
 33 34  2  0
 34 35  1  0
  8 36  1  0
 36 37  1  0
  9  2  1  0
 16 11  1  0
 34 20  1  0
  7  3  1  0
 31 29  1  0
 37  5  1  0
 24  5  1  0
  6 27  1  1
 21  6  1  0
  3 38  1  1
  7 39  1  1
 10 40  1  0
 10 41  1  0
 12 42  1  0
 13 43  1  0
 14 44  1  0
 15 45  1  0
 16 46  1  0
 18 47  1  0
 18 48  1  0
 23 49  1  0
 23 50  1  0
 24 51  1  6
 26 52  1  0
 26 53  1  0
 27 54  1  0
 27 55  1  0
 28 56  1  0
 28 57  1  0
 29 58  1  0
 30 59  1  0
 30 60  1  0
 31 61  1  0
 31 62  1  0
 32 63  1  0
 33 64  1  0
 35 65  1  0
 36 66  1  0
 36 67  1  0
 37 68  1  0
 37 69  1  0
M  END
>  <Ligand ID>  (1) 
LIG0002953

>  <Ligand>  (1) 
CHEMBL3264742

>  <SMILES>  (1) 
O=C1[C@H]2O[C@]34[C@@]56[C@H]2[C@@](N1Cc1ccccc1)(OCOc1c6c(C[C@H]4N(CC5)CC2CC2)ccc1O)CC3

>  <CID>  (1) 
56589659.0

>  <ChEMBL ID>  (1) 
nan

>  <InChiKey>  (1) 
XATNEAMXYXBFBX-HJGLZJKISA-N

>  <InChi>  (1) 
InChI=1S/C30H32N2O5/c33-21-9-8-20-14-22-29-10-11-30-26(25(37-29)27(34)32(30)16-18-4-2-1-3-5-18)28(29,23(20)24(21)35-17-36-30)12-13-31(22)15-19-6-7-19/h1-5,8-9,19,22,25-26,33H,6-7,10-17H2/t22-,25+,26+,28+,29-,30+/m1/s1

>  <IUPAC Name>  (1) 
(1S,11R,15R,16R,17S,19S)-22-benzyl-12-(cyclopropylmethyl)-6-hydroxy-2,4,18-trioxa-12,22-diazaheptacyclo[15.4.2.15,9.01,16.011,19.015,19.015,24]tetracosa-5,7,9(24)-trien-23-one

$$$$
