
     RDKit          3D

 61 66  0  0  0  0  0  0  0  0999 V2000
   -7.4722    0.6518   -1.1945 C   0  0  0  0  0  0  0  0  0  0  0  0
   -6.1743    0.1088   -1.3053 O   0  0  0  0  0  0  0  0  0  0  0  0
   -5.1351    0.5306   -0.5015 C   0  0  0  0  0  0  0  0  0  0  0  0
   -5.2888    1.5180    0.4737 C   0  0  0  0  0  0  0  0  0  0  0  0
   -4.2106    1.9196    1.2694 C   0  0  0  0  0  0  0  0  0  0  0  0
   -2.9743    1.3189    1.0767 C   0  0  0  0  0  0  0  0  0  0  0  0
   -2.8809    0.3684    0.1210 C   0  0  0  0  0  0  0  0  0  0  0  0
   -3.8908   -0.0587   -0.6794 C   0  0  0  0  0  0  0  0  0  0  0  0
   -3.3783   -1.0424   -1.5294 O   0  0  0  0  0  0  0  0  0  0  0  0
   -1.9721   -0.7491   -1.6571 C   0  0  2  0  0  0  0  0  0  0  0  0
   -1.6793   -0.3952   -0.2184 C   0  0  2  0  0  0  0  0  0  0  0  0
   -1.6287   -1.6261    0.6211 C   0  0  0  0  0  0  0  0  0  0  0  0
   -1.2691   -1.3451    2.0368 C   0  0  0  0  0  0  0  0  0  0  0  0
   -0.4149   -0.2604    2.3005 N   0  0  0  0  0  0  0  0  0  0  0  0
   -0.5716    0.8895    1.4495 C   0  0  0  0  0  0  0  0  0  0  0  0
   -1.7643    1.6905    1.8421 C   0  0  0  0  0  0  0  0  0  0  0  0
   -0.5070    0.5226   -0.0177 C   0  0  2  0  0  0  0  0  0  0  0  0
   -0.6583    1.7116   -0.8967 C   0  0  0  0  0  0  0  0  0  0  0  0
   -0.6391    1.2921   -2.3569 C   0  0  0  0  0  0  0  0  0  0  0  0
   -1.8584    0.4188   -2.5507 C   0  0  0  0  0  0  0  0  0  0  0  0
   -2.6926    0.6852   -3.4083 O   0  0  0  0  0  0  0  0  0  0  0  0
    0.7187   -0.2130   -0.2751 N   0  0  0  0  0  0  0  0  0  0  0  0
    2.0156    0.2912   -0.0801 C   0  0  0  0  0  0  0  0  0  0  0  0
    2.2146    1.4581    0.3448 O   0  0  0  0  0  0  0  0  0  0  0  0
    3.2115   -0.5375   -0.3690 C   0  0  0  0  0  0  0  0  0  0  0  0
    4.4286   -0.0871   -0.1942 C   0  0  0  0  0  0  0  0  0  0  0  0
    5.6778   -0.7457   -0.4210 C   0  0  0  0  0  0  0  0  0  0  0  0
    6.8437   -0.0133   -0.1443 C   0  0  0  0  0  0  0  0  0  0  0  0
    8.0997   -0.5409   -0.3236 C   0  0  0  0  0  0  0  0  0  0  0  0
    8.2926   -1.8166   -0.7843 C   0  0  0  0  0  0  0  0  0  0  0  0
    7.1667   -2.5576   -1.0637 C   0  0  0  0  0  0  0  0  0  0  0  0
    5.8820   -2.0183   -0.8805 C   0  0  0  0  0  0  0  0  0  0  0  0
    4.5644   -3.0856   -1.2801 Cl  0  0  0  0  0  0  0  0  0  0  0  0
    0.9051   -0.5692    2.7106 C   0  0  0  0  0  0  0  0  0  0  0  0
   -7.8591    0.6258   -0.1736 H   0  0  0  0  0  0  0  0  0  0  0  0
   -8.1352    0.1225   -1.9066 H   0  0  0  0  0  0  0  0  0  0  0  0
   -7.4434    1.7111   -1.5298 H   0  0  0  0  0  0  0  0  0  0  0  0
   -6.2685    1.9785    0.6107 H   0  0  0  0  0  0  0  0  0  0  0  0
   -4.3133    2.6756    2.0208 H   0  0  0  0  0  0  0  0  0  0  0  0
   -1.3918   -1.5882   -2.0337 H   0  0  0  0  0  0  0  0  0  0  0  0
   -2.6741   -2.0449    0.6115 H   0  0  0  0  0  0  0  0  0  0  0  0
   -1.0213   -2.4443    0.1661 H   0  0  0  0  0  0  0  0  0  0  0  0
   -2.1949   -1.3126    2.6850 H   0  0  0  0  0  0  0  0  0  0  0  0
   -0.7470   -2.2753    2.4131 H   0  0  0  0  0  0  0  0  0  0  0  0
    0.3231    1.5355    1.6556 H   0  0  0  0  0  0  0  0  0  0  0  0
   -1.9387    1.5054    2.9251 H   0  0  0  0  0  0  0  0  0  0  0  0
   -1.5466    2.7845    1.7690 H   0  0  0  0  0  0  0  0  0  0  0  0
    0.0702    2.5206   -0.6916 H   0  0  0  0  0  0  0  0  0  0  0  0
   -1.6497    2.1681   -0.7423 H   0  0  0  0  0  0  0  0  0  0  0  0
    0.2252    0.6496   -2.6161 H   0  0  0  0  0  0  0  0  0  0  0  0
   -0.7075    2.2213   -2.9559 H   0  0  0  0  0  0  0  0  0  0  0  0
    0.6585   -1.2124   -0.6401 H   0  0  0  0  0  0  0  0  0  0  0  0
    3.0497   -1.5008   -0.7197 H   0  0  0  0  0  0  0  0  0  0  0  0
    4.4666    0.9524    0.1829 H   0  0  0  0  0  0  0  0  0  0  0  0
    6.8000    1.0062    0.2250 H   0  0  0  0  0  0  0  0  0  0  0  0
    8.9623    0.0577   -0.0982 H   0  0  0  0  0  0  0  0  0  0  0  0
    9.2628   -2.2357   -0.9270 H   0  0  0  0  0  0  0  0  0  0  0  0
    7.3111   -3.5603   -1.4259 H   0  0  0  0  0  0  0  0  0  0  0  0
    0.8316   -0.9401    3.7763 H   0  0  0  0  0  0  0  0  0  0  0  0
    1.3935   -1.4181    2.1737 H   0  0  0  0  0  0  0  0  0  0  0  0
    1.5759    0.3044    2.7808 H   0  0  0  0  0  0  0  0  0  0  0  0
  1  2  1  0
  2  3  1  0
  3  4  2  0
  4  5  1  0
  5  6  2  0
  6  7  1  0
  7  8  2  0
  8  9  1  0
  9 10  1  0
 10 11  1  0
 11 12  1  1
 12 13  1  0
 13 14  1  0
 14 15  1  0
 15 16  1  0
 15 17  1  0
 17 18  1  0
 18 19  1  0
 19 20  1  0
 20 21  2  0
 17 22  1  1
 22 23  1  0
 23 24  2  0
 23 25  1  0
 25 26  2  0
 26 27  1  0
 27 28  2  0
 28 29  1  0
 29 30  2  0
 30 31  1  0
 31 32  2  0
 32 33  1  0
 14 34  1  0
  8  3  1  0
 20 10  1  0
 32 27  1  0
 16  6  1  0
 11  7  1  0
 17 11  1  0
  1 35  1  0
  1 36  1  0
  1 37  1  0
  4 38  1  0
  5 39  1  0
 10 40  1  6
 12 41  1  0
 12 42  1  0
 13 43  1  0
 13 44  1  0
 15 45  1  0
 16 46  1  0
 16 47  1  0
 18 48  1  0
 18 49  1  0
 19 50  1  0
 19 51  1  0
 22 52  1  0
 25 53  1  0
 26 54  1  0
 28 55  1  0
 29 56  1  0
 30 57  1  0
 31 58  1  0
 34 59  1  0
 34 60  1  0
 34 61  1  0
M  END
>  <Ligand ID>  (1) 
LIG0004601

>  <Ligand>  (1) 
BDBM50193547

>  <SMILES>  (1) 
COc1ccc2c3c1O[C@@H]1[C@@]43CCN(C(C2)[C@@]4(CCC1=O)NC(=O)/C=C/c1ccccc1Cl)C

>  <CID>  (1) 
44415060.0

>  <ChEMBL ID>  (1) 
nan

>  <InChiKey>  (1) 
CEMNPQJBUQZWJA-LPCDZLESSA-N

>  <InChi>  (1) 
InChI=1S/C27H27ClN2O4/c1-30-14-13-26-23-17-7-9-20(33-2)24(23)34-25(26)19(31)11-12-27(26,21(30)15-17)29-22(32)10-8-16-5-3-4-6-18(16)28/h3-10,21,25H,11-15H2,1-2H3,(H,29,32)/b10-8+/t21?,25-,26-,27+/m0/s1

>  <IUPAC Name>  (1) 
(E)-N-[(4aS,7aR,12bR)-9-methoxy-3-methyl-7-oxo-2,4,5,6,7a,13-hexahydro-1H-4,12-methanobenzofuro[3,2-e]isoquinolin-4a-yl]-3-(2-chlorophenyl)prop-2-enamide

$$$$
