
     RDKit          3D

 62 61  0  0  0  0  0  0  0  0999 V2000
   -8.7467   -0.9926    1.3924 C   0  0  0  0  0  0  0  0  0  0  0  0
   -7.4249   -0.7417    2.0406 C   0  0  0  0  0  0  0  0  0  0  0  0
   -6.2847   -1.5071    1.4189 C   0  0  0  0  0  0  0  0  0  0  0  0
   -6.0860   -1.1725   -0.0389 C   0  0  0  0  0  0  0  0  0  0  0  0
   -5.7798    0.3168   -0.2202 C   0  0  0  0  0  0  0  0  0  0  0  0
   -5.5824    0.6702   -1.6243 C   0  0  0  0  0  0  0  0  0  0  0  0
   -4.4805    1.1927   -2.1471 C   0  0  0  0  0  0  0  0  0  0  0  0
   -3.2566    1.5034   -1.3683 C   0  0  0  0  0  0  0  0  0  0  0  0
   -2.1616    0.7096   -1.9464 C   0  0  0  0  0  0  0  0  0  0  0  0
   -1.4433   -0.1986   -1.3045 C   0  0  0  0  0  0  0  0  0  0  0  0
   -1.5842   -0.5976    0.0897 C   0  0  0  0  0  0  0  0  0  0  0  0
   -0.5107   -0.4105    1.0442 C   0  0  0  0  0  0  0  0  0  0  0  0
    0.6584    0.1365    0.9229 C   0  0  0  0  0  0  0  0  0  0  0  0
    1.2511    0.7576   -0.2750 C   0  0  0  0  0  0  0  0  0  0  0  0
    2.4752    0.0514   -0.7161 C   0  0  0  0  0  0  0  0  0  0  0  0
    3.6136    0.7046   -0.7880 C   0  0  0  0  0  0  0  0  0  0  0  0
    3.8142    2.0894   -0.4763 C   0  0  0  0  0  0  0  0  0  0  0  0
    4.7121    2.4366    0.6707 C   0  0  0  0  0  0  0  0  0  0  0  0
    6.1041    1.9135    0.6250 C   0  0  0  0  0  0  0  0  0  0  0  0
    6.1329    0.4503    0.7842 C   0  0  0  0  0  0  0  0  0  0  0  0
    5.2073   -0.2633    1.2221 O   0  0  0  0  0  0  0  0  0  0  0  0
    7.3377   -0.2391    0.4027 N   0  0  0  0  0  0  0  0  0  0  0  0
    7.3865   -1.6801    0.5516 C   0  0  0  0  0  0  0  0  0  0  0  0
    8.7616   -2.1381    0.0779 C   0  0  0  0  0  0  0  0  0  0  0  0
    8.8494   -3.5106    0.2039 O   0  0  0  0  0  0  0  0  0  0  0  0
   -8.6868   -1.3252    0.3438 H   0  0  0  0  0  0  0  0  0  0  0  0
   -9.4077   -1.6852    1.9682 H   0  0  0  0  0  0  0  0  0  0  0  0
   -9.3034   -0.0119    1.3645 H   0  0  0  0  0  0  0  0  0  0  0  0
   -7.5157   -1.1380    3.0873 H   0  0  0  0  0  0  0  0  0  0  0  0
   -7.1965    0.3384    2.1760 H   0  0  0  0  0  0  0  0  0  0  0  0
   -5.3618   -1.2393    1.9479 H   0  0  0  0  0  0  0  0  0  0  0  0
   -6.5013   -2.5741    1.4860 H   0  0  0  0  0  0  0  0  0  0  0  0
   -5.2072   -1.7596   -0.3802 H   0  0  0  0  0  0  0  0  0  0  0  0
   -6.9315   -1.4867   -0.6846 H   0  0  0  0  0  0  0  0  0  0  0  0
   -6.6970    0.8848    0.1162 H   0  0  0  0  0  0  0  0  0  0  0  0
   -5.0012    0.5886    0.4786 H   0  0  0  0  0  0  0  0  0  0  0  0
   -6.4043    0.4957   -2.3184 H   0  0  0  0  0  0  0  0  0  0  0  0
   -4.4383    1.4214   -3.2189 H   0  0  0  0  0  0  0  0  0  0  0  0
   -3.0026    2.5789   -1.6273 H   0  0  0  0  0  0  0  0  0  0  0  0
   -3.3564    1.5002   -0.2932 H   0  0  0  0  0  0  0  0  0  0  0  0
   -1.9317    0.9010   -3.0107 H   0  0  0  0  0  0  0  0  0  0  0  0
   -0.6802   -0.7329   -1.9066 H   0  0  0  0  0  0  0  0  0  0  0  0
   -2.5266   -0.1341    0.5396 H   0  0  0  0  0  0  0  0  0  0  0  0
   -1.8761   -1.7191    0.1343 H   0  0  0  0  0  0  0  0  0  0  0  0
   -0.7350   -0.8142    2.0768 H   0  0  0  0  0  0  0  0  0  0  0  0
    1.3057    0.1470    1.8224 H   0  0  0  0  0  0  0  0  0  0  0  0
    1.5294    1.8200    0.0620 H   0  0  0  0  0  0  0  0  0  0  0  0
    0.5902    0.9160   -1.1142 H   0  0  0  0  0  0  0  0  0  0  0  0
    2.3785   -0.9976   -0.9666 H   0  0  0  0  0  0  0  0  0  0  0  0
    4.4694    0.1129   -1.1710 H   0  0  0  0  0  0  0  0  0  0  0  0
    4.4338    2.4952   -1.3925 H   0  0  0  0  0  0  0  0  0  0  0  0
    2.9470    2.7836   -0.5237 H   0  0  0  0  0  0  0  0  0  0  0  0
    4.1874    2.1039    1.6226 H   0  0  0  0  0  0  0  0  0  0  0  0
    4.7895    3.5493    0.7751 H   0  0  0  0  0  0  0  0  0  0  0  0
    6.6168    2.2285   -0.3339 H   0  0  0  0  0  0  0  0  0  0  0  0
    6.7282    2.3535    1.4564 H   0  0  0  0  0  0  0  0  0  0  0  0
    8.1442    0.3198    0.0285 H   0  0  0  0  0  0  0  0  0  0  0  0
    7.2622   -1.9040    1.6292 H   0  0  0  0  0  0  0  0  0  0  0  0
    6.5721   -2.1437   -0.0474 H   0  0  0  0  0  0  0  0  0  0  0  0
    9.4918   -1.6171    0.7422 H   0  0  0  0  0  0  0  0  0  0  0  0
    8.8826   -1.8178   -0.9830 H   0  0  0  0  0  0  0  0  0  0  0  0
    9.4698   -3.9193   -0.4412 H   0  0  0  0  0  0  0  0  0  0  0  0
  1  2  1  0
  2  3  1  0
  3  4  1  0
  4  5  1  0
  5  6  1  0
  6  7  2  0
  7  8  1  0
  8  9  1  0
  9 10  2  0
 10 11  1  0
 11 12  1  0
 12 13  2  0
 13 14  1  0
 14 15  1  0
 15 16  2  0
 16 17  1  0
 17 18  1  0
 18 19  1  0
 19 20  1  0
 20 21  2  0
 20 22  1  0
 22 23  1  0
 23 24  1  0
 24 25  1  0
  1 26  1  0
  1 27  1  0
  1 28  1  0
  2 29  1  0
  2 30  1  0
  3 31  1  0
  3 32  1  0
  4 33  1  0
  4 34  1  0
  5 35  1  0
  5 36  1  0
  6 37  1  0
  7 38  1  0
  8 39  1  0
  8 40  1  0
  9 41  1  0
 10 42  1  0
 11 43  1  0
 11 44  1  0
 12 45  1  0
 13 46  1  0
 14 47  1  0
 14 48  1  0
 15 49  1  0
 16 50  1  0
 17 51  1  0
 17 52  1  0
 18 53  1  0
 18 54  1  0
 19 55  1  0
 19 56  1  0
 22 57  1  0
 23 58  1  0
 23 59  1  0
 24 60  1  0
 24 61  1  0
 25 62  1  0
M  END
>  <Ligand ID>  (1) 
LIG0001863

>  <Ligand>  (1) 
anandamide

>  <SMILES>  (1) 
CCCCC/C=C\C/C=C\C/C=C\C/C=C\CCCC(=O)NCCO

>  <CID>  (1) 
5281969.0

>  <ChEMBL ID>  (1) 
nan

>  <InChiKey>  (1) 
LGEQQWMQCRIYKG-DOFZRALJSA-N

>  <InChi>  (1) 
InChI=1S/C22H37NO2/c1-2-3-4-5-6-7-8-9-10-11-12-13-14-15-16-17-18-19-22(25)23-20-21-24/h6-7,9-10,12-13,15-16,24H,2-5,8,11,14,17-21H2,1H3,(H,23,25)/b7-6-,10-9-,13-12-,16-15-

>  <IUPAC Name>  (1) 
(5Z,8Z,11Z,14Z)-N-(2-hydroxyethyl)icosa-5,8,11,14-tetraenamide

$$$$
