
     RDKit          3D

 46 48  0  0  0  0  0  0  0  0999 V2000
    7.8094   -0.3915    1.6240 C   0  0  0  0  0  0  0  0  0  0  0  0
    7.3950   -1.0293    0.3376 C   0  0  0  0  0  0  0  0  0  0  0  0
    6.0566   -0.5266   -0.1562 C   0  0  0  0  0  0  0  0  0  0  0  0
    4.9536   -0.8112    0.8562 C   0  0  0  0  0  0  0  0  0  0  0  0
    3.6557   -0.3088    0.3472 C   0  0  0  0  0  0  0  0  0  0  0  0
    2.6062    0.1061   -0.0837 C   0  0  0  0  0  0  0  0  0  0  0  0
    1.3689    0.6083   -0.6167 C   0  0  0  0  0  0  0  0  0  0  0  0
    1.4368    1.6574   -1.4557 N   0  0  0  0  0  0  0  0  0  0  0  0
    0.3361    2.2136   -2.0181 C   0  0  0  0  0  0  0  0  0  0  0  0
    0.4334    3.3219   -2.9018 N   0  0  0  0  0  0  0  0  0  0  0  0
   -0.8749    1.6475   -1.6869 C   0  0  0  0  0  0  0  0  0  0  0  0
   -0.9738    0.5656   -0.8246 C   0  0  0  0  0  0  0  0  0  0  0  0
    0.1697    0.0476   -0.2887 N   0  0  0  0  0  0  0  0  0  0  0  0
   -2.2748    0.2336   -0.6915 N   0  0  0  0  0  0  0  0  0  0  0  0
   -2.9628    1.0845   -1.4489 C   0  0  0  0  0  0  0  0  0  0  0  0
   -2.1184    1.9517   -2.0609 N   0  0  0  0  0  0  0  0  0  0  0  0
   -2.8350   -0.8442    0.1197 C   0  0  2  0  0  0  0  0  0  0  0  0
   -3.9979   -1.3191   -0.4581 O   0  0  0  0  0  0  0  0  0  0  0  0
   -5.0510   -1.1239    0.4131 C   0  0  1  0  0  0  0  0  0  0  0  0
   -4.6653    0.0151    1.3246 C   0  0  2  0  0  0  0  0  0  0  0  0
   -3.1762   -0.2367    1.4562 C   0  0  1  0  0  0  0  0  0  0  0  0
   -2.8524   -1.0540    2.5145 O   0  0  0  0  0  0  0  0  0  0  0  0
   -5.3016   -0.0300    2.5542 O   0  0  0  0  0  0  0  0  0  0  0  0
   -6.2879   -0.7301   -0.3546 C   0  0  0  0  0  0  0  0  0  0  0  0
   -6.6285   -1.7460   -1.2655 O   0  0  0  0  0  0  0  0  0  0  0  0
    7.0642    0.3693    1.9433 H   0  0  0  0  0  0  0  0  0  0  0  0
    8.7640    0.2000    1.5036 H   0  0  0  0  0  0  0  0  0  0  0  0
    8.0240   -1.1623    2.3921 H   0  0  0  0  0  0  0  0  0  0  0  0
    8.1416   -0.7629   -0.4378 H   0  0  0  0  0  0  0  0  0  0  0  0
    7.3187   -2.1288    0.3953 H   0  0  0  0  0  0  0  0  0  0  0  0
    6.1073    0.5763   -0.2645 H   0  0  0  0  0  0  0  0  0  0  0  0
    5.8107   -0.9540   -1.1264 H   0  0  0  0  0  0  0  0  0  0  0  0
    5.1805   -0.4076    1.8424 H   0  0  0  0  0  0  0  0  0  0  0  0
    4.8728   -1.9122    0.9412 H   0  0  0  0  0  0  0  0  0  0  0  0
    0.8812    3.1408   -3.8267 H   0  0  0  0  0  0  0  0  0  0  0  0
    0.0657    4.2744   -2.6209 H   0  0  0  0  0  0  0  0  0  0  0  0
   -4.0413    1.1368   -1.6026 H   0  0  0  0  0  0  0  0  0  0  0  0
   -2.0425   -1.5875    0.2456 H   0  0  0  0  0  0  0  0  0  0  0  0
   -5.3032   -2.0009    1.0388 H   0  0  0  0  0  0  0  0  0  0  0  0
   -4.8417    0.9650    0.7708 H   0  0  0  0  0  0  0  0  0  0  0  0
   -2.6890    0.7545    1.6167 H   0  0  0  0  0  0  0  0  0  0  0  0
   -2.6782   -0.5819    3.3520 H   0  0  0  0  0  0  0  0  0  0  0  0
   -6.2244   -0.4161    2.5075 H   0  0  0  0  0  0  0  0  0  0  0  0
   -7.1296   -0.6747    0.3675 H   0  0  0  0  0  0  0  0  0  0  0  0
   -6.1534    0.1808   -0.9466 H   0  0  0  0  0  0  0  0  0  0  0  0
   -7.3483   -2.3107   -0.9322 H   0  0  0  0  0  0  0  0  0  0  0  0
  1  2  1  0
  2  3  1  0
  3  4  1  0
  4  5  1  0
  5  6  3  0
  6  7  1  0
  7  8  2  0
  8  9  1  0
  9 10  1  0
  9 11  2  0
 11 12  1  0
 12 13  2  0
 12 14  1  0
 14 15  1  0
 15 16  2  0
 14 17  1  0
 17 18  1  0
 18 19  1  0
 19 20  1  0
 20 21  1  0
 21 22  1  0
 20 23  1  0
 19 24  1  0
 24 25  1  0
 13  7  1  0
 21 17  1  0
 16 11  1  0
  1 26  1  0
  1 27  1  0
  1 28  1  0
  2 29  1  0
  2 30  1  0
  3 31  1  0
  3 32  1  0
  4 33  1  0
  4 34  1  0
 10 35  1  0
 10 36  1  0
 15 37  1  0
 17 38  1  1
 19 39  1  1
 20 40  1  6
 21 41  1  1
 22 42  1  0
 23 43  1  0
 24 44  1  0
 24 45  1  0
 25 46  1  0
M  END
>  <Ligand ID>  (1) 
LIG0004196

>  <Ligand>  (1) 
2-(1-hexynyl)adenosine

>  <SMILES>  (1) 
CCCCC#Cc1nc(N)c2c(n1)n(cn2)[C@@H]1O[C@@H]([C@H]([C@H]1O)O)CO

>  <CID>  (1) 
10020580.0

>  <ChEMBL ID>  (1) 
nan

>  <InChiKey>  (1) 
AHJRSKVOELIMOX-RVXWVPLUSA-N

>  <InChi>  (1) 
InChI=1S/C16H21N5O4/c1-2-3-4-5-6-10-19-14(17)11-15(20-10)21(8-18-11)16-13(24)12(23)9(7-22)25-16/h8-9,12-13,16,22-24H,2-4,7H2,1H3,(H2,17,19,20)/t9-,12-,13-,16-/m1/s1

>  <IUPAC Name>  (1) 
(2R,3R,4S,5R)-2-(6-amino-2-hex-1-ynylpurin-9-yl)-5-(hydroxymethyl)oxolane-3,4-diol

$$$$
