
     RDKit          3D

 29 31  0  0  0  0  0  0  0  0999 V2000
    4.9268   -0.2850    2.0556 Cl  0  0  0  0  0  0  0  0  0  0  0  0
    3.7846    0.0837    0.7704 C   0  0  0  0  0  0  0  0  0  0  0  0
    4.1777    0.6410   -0.4282 C   0  0  0  0  0  0  0  0  0  0  0  0
    3.2258    0.9024   -1.3895 C   0  0  0  0  0  0  0  0  0  0  0  0
    1.8934    0.6137   -1.1648 C   0  0  0  0  0  0  0  0  0  0  0  0
    1.4776    0.0558    0.0273 C   0  0  0  0  0  0  0  0  0  0  0  0
    2.4543   -0.2047    0.9950 C   0  0  0  0  0  0  0  0  0  0  0  0
    0.0734   -0.2752    0.3281 C   0  0  0  0  0  0  0  0  0  0  0  0
   -0.4744   -1.3152   -0.6482 C   0  0  0  0  0  0  0  0  0  0  0  0
   -1.7015   -1.8993    0.0612 C   0  0  0  0  0  0  0  0  0  0  0  0
   -2.6692   -0.7667    0.1840 C   0  0  0  0  0  0  0  0  0  0  0  0
   -2.2428    0.5500    0.2370 C   0  0  0  0  0  0  0  0  0  0  0  0
   -0.8152    0.9430    0.1776 C   0  0  0  0  0  0  0  0  0  0  0  0
   -3.3596    1.2889    0.3452 N   0  0  0  0  0  0  0  0  0  0  0  0
   -4.4552    0.5070    0.3625 C   0  0  0  0  0  0  0  0  0  0  0  0
   -4.0224   -0.7829    0.2614 N   0  0  0  0  0  0  0  0  0  0  0  0
    5.2362    0.8584   -0.5780 H   0  0  0  0  0  0  0  0  0  0  0  0
    3.5087    1.3420   -2.3446 H   0  0  0  0  0  0  0  0  0  0  0  0
    1.1454    0.8284   -1.9425 H   0  0  0  0  0  0  0  0  0  0  0  0
    2.1568   -0.6474    1.9523 H   0  0  0  0  0  0  0  0  0  0  0  0
   -0.0233   -0.7110    1.3396 H   0  0  0  0  0  0  0  0  0  0  0  0
   -0.8615   -0.8193   -1.5632 H   0  0  0  0  0  0  0  0  0  0  0  0
    0.2458   -2.0921   -0.9099 H   0  0  0  0  0  0  0  0  0  0  0  0
   -1.3901   -2.2794    1.0691 H   0  0  0  0  0  0  0  0  0  0  0  0
   -2.1397   -2.7207   -0.5421 H   0  0  0  0  0  0  0  0  0  0  0  0
   -0.6570    1.3677   -0.8352 H   0  0  0  0  0  0  0  0  0  0  0  0
   -0.5794    1.6986    0.9689 H   0  0  0  0  0  0  0  0  0  0  0  0
   -3.4121    2.3381    0.4102 H   0  0  0  0  0  0  0  0  0  0  0  0
   -5.5031    0.7802    0.4392 H   0  0  0  0  0  0  0  0  0  0  0  0
  1  2  1  0
  2  3  2  0
  3  4  1  0
  4  5  2  0
  5  6  1  0
  6  7  2  0
  6  8  1  0
  8  9  1  0
  9 10  1  0
 10 11  1  0
 11 12  2  0
 12 13  1  0
 12 14  1  0
 14 15  1  0
 15 16  2  0
  7  2  1  0
 13  8  1  0
 16 11  1  0
  3 17  1  0
  4 18  1  0
  5 19  1  0
  7 20  1  0
  8 21  1  0
  9 22  1  0
  9 23  1  0
 10 24  1  0
 10 25  1  0
 13 26  1  0
 13 27  1  0
 14 28  1  0
 15 29  1  0
M  END
>  <Ligand ID>  (1) 
LIG0003008

>  <Ligand>  (1) 
CHEMBL503269

>  <SMILES>  (1) 
Clc1cccc(c1)C1CCc2c(C1)[nH]cn2

>  <CID>  (1) 
44574875.0

>  <ChEMBL ID>  (1) 
nan

>  <InChiKey>  (1) 
SNFFBYPCULSUGT-UHFFFAOYSA-N

>  <InChi>  (1) 
InChI=1S/C13H13ClN2/c14-11-3-1-2-9(6-11)10-4-5-12-13(7-10)16-8-15-12/h1-3,6,8,10H,4-5,7H2,(H,15,16)

>  <IUPAC Name>  (1) 
6-(3-chlorophenyl)-4,5,6,7-tetrahydro-1H-benzimidazole

$$$$
