
     RDKit          3D

 41 43  0  0  0  0  0  0  0  0999 V2000
    2.2863    2.1892    2.1351 O   0  0  0  0  0  0  0  0  0  0  0  0
    1.5702    1.6497    1.2329 C   0  0  0  0  0  0  0  0  0  0  0  0
    0.2098    2.1775    0.9277 C   0  0  0  0  0  0  0  0  0  0  0  0
   -0.4333    1.4156   -0.1290 N   0  0  0  0  0  0  0  0  0  0  0  0
   -0.3087    1.7264   -1.4130 N   0  0  0  0  0  0  0  0  0  0  0  0
   -0.9131    1.0035   -2.3675 C   0  0  0  0  0  0  0  0  0  0  0  0
   -0.7080    1.4366   -3.7754 C   0  0  0  0  0  0  0  0  0  0  0  0
   -1.7011   -0.1068   -2.0736 C   0  0  0  0  0  0  0  0  0  0  0  0
   -1.8346   -0.4371   -0.7205 C   0  0  0  0  0  0  0  0  0  0  0  0
   -1.1932    0.3377    0.2201 C   0  0  0  0  0  0  0  0  0  0  0  0
   -1.2973    0.0627    1.4259 O   0  0  0  0  0  0  0  0  0  0  0  0
   -2.6719   -1.6156   -0.3875 C   0  0  0  0  0  0  0  0  0  0  0  0
   -4.0315   -1.1938    0.1462 C   0  0  0  0  0  0  0  0  0  0  0  0
   -5.0479   -0.9418   -0.7725 C   0  0  0  0  0  0  0  0  0  0  0  0
   -6.4955   -0.4791    0.2474 S   0  0  0  0  0  0  0  0  0  0  0  0
   -5.5855   -0.6712    1.8246 C   0  0  0  0  0  0  0  0  0  0  0  0
   -4.3087   -1.0567    1.4318 C   0  0  0  0  0  0  0  0  0  0  0  0
    2.0237    0.5277    0.4762 N   0  0  0  0  0  0  0  0  0  0  0  0
    3.2893   -0.0767    0.6570 C   0  0  0  0  0  0  0  0  0  0  0  0
    3.4504   -1.1190    1.5617 C   0  0  0  0  0  0  0  0  0  0  0  0
    4.7126   -1.6829    1.7064 C   0  0  0  0  0  0  0  0  0  0  0  0
    5.7747   -1.1973    0.9513 C   0  0  0  0  0  0  0  0  0  0  0  0
    5.6063   -0.1525    0.0465 C   0  0  0  0  0  0  0  0  0  0  0  0
    4.3535    0.3985   -0.0891 C   0  0  0  0  0  0  0  0  0  0  0  0
    7.5314   -1.9386    1.1127 Br  0  0  0  0  0  0  0  0  0  0  0  0
   -0.4212    2.1305    1.8293 H   0  0  0  0  0  0  0  0  0  0  0  0
    0.3422    3.2442    0.6307 H   0  0  0  0  0  0  0  0  0  0  0  0
    0.3558    1.6022   -4.0157 H   0  0  0  0  0  0  0  0  0  0  0  0
   -1.2447    2.3887   -3.9604 H   0  0  0  0  0  0  0  0  0  0  0  0
   -1.0594    0.6309   -4.4616 H   0  0  0  0  0  0  0  0  0  0  0  0
   -2.1770   -0.6750   -2.8342 H   0  0  0  0  0  0  0  0  0  0  0  0
   -2.8094   -2.2516   -1.2704 H   0  0  0  0  0  0  0  0  0  0  0  0
   -2.1355   -2.1633    0.4258 H   0  0  0  0  0  0  0  0  0  0  0  0
   -5.0622   -0.9877   -1.8918 H   0  0  0  0  0  0  0  0  0  0  0  0
   -6.0213   -0.5025    2.7996 H   0  0  0  0  0  0  0  0  0  0  0  0
   -3.5622   -1.2379    2.2415 H   0  0  0  0  0  0  0  0  0  0  0  0
    1.4032    0.1122   -0.2583 H   0  0  0  0  0  0  0  0  0  0  0  0
    2.6249   -1.4968    2.1486 H   0  0  0  0  0  0  0  0  0  0  0  0
    4.8683   -2.4959    2.4030 H   0  0  0  0  0  0  0  0  0  0  0  0
    6.4159    0.2351   -0.5450 H   0  0  0  0  0  0  0  0  0  0  0  0
    4.2051    1.2107   -0.7873 H   0  0  0  0  0  0  0  0  0  0  0  0
  1  2  2  0
  2  3  1  0
  3  4  1  0
  4  5  1  0
  5  6  2  0
  6  7  1  0
  6  8  1  0
  8  9  2  0
  9 10  1  0
 10 11  2  0
  9 12  1  0
 12 13  1  0
 13 14  2  0
 14 15  1  0
 15 16  1  0
 16 17  2  0
  2 18  1  0
 18 19  1  0
 19 20  2  0
 20 21  1  0
 21 22  2  0
 22 23  1  0
 23 24  2  0
 22 25  1  0
 10  4  1  0
 17 13  1  0
 24 19  1  0
  3 26  1  0
  3 27  1  0
  7 28  1  0
  7 29  1  0
  7 30  1  0
  8 31  1  0
 12 32  1  0
 12 33  1  0
 14 34  1  0
 16 35  1  0
 17 36  1  0
 18 37  1  0
 20 38  1  0
 21 39  1  0
 23 40  1  0
 24 41  1  0
M  END
>  <Ligand ID>  (1) 
LIG0003954

>  <Ligand>  (1) 
CHEMBL2391286

>  <SMILES>  (1) 
O=C(Cn1nc(C)cc(c1=O)Cc1cscc1)Nc1ccc(cc1)Br

>  <CID>  (1) 
71699059.0

>  <ChEMBL ID>  (1) 
nan

>  <InChiKey>  (1) 
CCHQYZAAGWDVKT-UHFFFAOYSA-N

>  <InChi>  (1) 
InChI=1S/C18H16BrN3O2S/c1-12-8-14(9-13-6-7-25-11-13)18(24)22(21-12)10-17(23)20-16-4-2-15(19)3-5-16/h2-8,11H,9-10H2,1H3,(H,20,23)

>  <IUPAC Name>  (1) 
N-(4-bromophenyl)-2-[3-methyl-6-oxo-5-(thiophen-3-ylmethyl)pyridazin-1-yl]acetamide

$$$$
