
     RDKit          3D

 50 53  0  0  0  0  0  0  0  0999 V2000
   -2.0575   -0.9182    2.6176 O   0  0  0  0  0  0  0  0  0  0  0  0
   -1.5368   -0.2193    1.5554 C   0  0  1  0  0  0  0  0  0  0  0  0
   -2.3101    1.0392    1.2170 C   0  0  2  0  0  0  0  0  0  0  0  0
   -3.6011    0.7911    0.6427 N   0  0  0  0  0  0  0  0  0  0  0  0
   -4.6648    1.6168    0.8584 C   0  0  0  0  0  0  0  0  0  0  0  0
   -5.7397    1.1330    0.1949 N   0  0  0  0  0  0  0  0  0  0  0  0
   -5.3715    0.0151   -0.4362 C   0  0  0  0  0  0  0  0  0  0  0  0
   -4.0344   -0.1909   -0.1511 C   0  0  0  0  0  0  0  0  0  0  0  0
   -3.4031   -1.2561   -0.6637 N   0  0  0  0  0  0  0  0  0  0  0  0
   -4.0744   -2.1255   -1.4574 C   0  0  0  0  0  0  0  0  0  0  0  0
   -5.3768   -1.9424   -1.7469 N   0  0  0  0  0  0  0  0  0  0  0  0
   -6.0487   -0.8849   -1.2522 C   0  0  0  0  0  0  0  0  0  0  0  0
   -7.4225   -0.6381   -1.5217 N   0  0  0  0  0  0  0  0  0  0  0  0
   -1.3545    1.7013    0.2493 C   0  0  2  0  0  0  0  0  0  0  0  0
   -0.0315    1.4072    0.7857 C   0  0  2  0  0  0  0  0  0  0  0  0
   -0.1837    0.4188    1.9033 C   0  0  1  0  0  0  0  0  0  0  0  0
   -0.2783    1.1024    3.1038 O   0  0  0  0  0  0  0  0  0  0  0  0
   -0.5227    2.8057    0.9100 C   0  0  0  0  0  0  0  0  0  0  0  0
    1.1848    1.2143   -0.0718 C   0  0  0  0  0  0  0  0  0  0  0  0
    1.1156    0.1862   -0.9774 O   0  0  0  0  0  0  0  0  0  0  0  0
    2.5810    0.1558   -1.8250 P   0  0  0  0  0  0  0  0  0  0  0  0
    2.5136    0.9626   -3.1003 O   0  0  0  0  0  0  0  0  0  0  0  0
    3.7773    0.7662   -0.8187 O   0  0  0  0  0  0  0  0  0  0  0  0
    4.7212   -0.4356   -0.0984 P   0  0  0  0  0  0  0  0  0  0  0  0
    3.9026   -1.5509    0.4952 O   0  0  0  0  0  0  0  0  0  0  0  0
    5.7479   -1.0377   -1.2695 O   0  0  0  0  0  0  0  0  0  0  0  0
    7.2419   -1.4263   -0.6054 P   0  0  0  0  0  0  0  0  0  0  0  0
    8.3330   -0.7508   -1.4172 O   0  0  0  0  0  0  0  0  0  0  0  0
    7.3935   -0.9193    1.0007 O   0  0  0  0  0  0  0  0  0  0  0  0
    7.5574   -3.0869   -0.6623 O   0  0  0  0  0  0  0  0  0  0  0  0
    5.6028    0.2995    1.1294 O   0  0  0  0  0  0  0  0  0  0  0  0
    2.9229   -1.4841   -2.1472 O   0  0  0  0  0  0  0  0  0  0  0  0
   -2.4295   -1.8077    2.3994 H   0  0  0  0  0  0  0  0  0  0  0  0
   -1.3310   -0.8500    0.6684 H   0  0  0  0  0  0  0  0  0  0  0  0
   -2.3888    1.5930    2.1900 H   0  0  0  0  0  0  0  0  0  0  0  0
   -4.6661    2.5158    1.4592 H   0  0  0  0  0  0  0  0  0  0  0  0
   -3.5369   -2.9930   -1.8675 H   0  0  0  0  0  0  0  0  0  0  0  0
   -7.6265    0.2918   -1.9953 H   0  0  0  0  0  0  0  0  0  0  0  0
   -8.1910   -1.2970   -1.2856 H   0  0  0  0  0  0  0  0  0  0  0  0
   -1.6208    1.8028   -0.8069 H   0  0  0  0  0  0  0  0  0  0  0  0
    0.6221   -0.3575    1.8934 H   0  0  0  0  0  0  0  0  0  0  0  0
   -0.1156    0.4317    3.8362 H   0  0  0  0  0  0  0  0  0  0  0  0
   -0.1331    3.5479    0.2116 H   0  0  0  0  0  0  0  0  0  0  0  0
   -0.7569    3.1156    1.9418 H   0  0  0  0  0  0  0  0  0  0  0  0
    2.0805    1.0415    0.5593 H   0  0  0  0  0  0  0  0  0  0  0  0
    1.4047    2.1549   -0.6565 H   0  0  0  0  0  0  0  0  0  0  0  0
    7.2002   -1.6517    1.6174 H   0  0  0  0  0  0  0  0  0  0  0  0
    6.9945   -3.5460    0.0218 H   0  0  0  0  0  0  0  0  0  0  0  0
    5.8588    1.2332    0.9260 H   0  0  0  0  0  0  0  0  0  0  0  0
    2.0522   -1.9736   -2.2564 H   0  0  0  0  0  0  0  0  0  0  0  0
  1  2  1  0
  2  3  1  0
  3  4  1  0
  4  5  1  0
  5  6  2  0
  6  7  1  0
  7  8  2  0
  8  9  1  0
  9 10  2  0
 10 11  1  0
 11 12  2  0
 12 13  1  0
  3 14  1  0
 14 15  1  0
 15 16  1  0
 16 17  1  0
 15 18  1  0
 15 19  1  6
 19 20  1  0
 20 21  1  0
 21 22  2  0
 21 23  1  0
 23 24  1  0
 24 25  2  0
 24 26  1  0
 26 27  1  0
 27 28  2  0
 27 29  1  0
 27 30  1  0
 24 31  1  0
 21 32  1  0
 16  2  1  0
  8  4  1  0
 18 14  1  0
 12  7  1  0
  1 33  1  0
  2 34  1  6
  3 35  1  1
  5 36  1  0
 10 37  1  0
 13 38  1  0
 13 39  1  0
 14 40  1  6
 16 41  1  1
 17 42  1  0
 18 43  1  0
 18 44  1  0
 19 45  1  0
 19 46  1  0
 29 47  1  0
 30 48  1  0
 31 49  1  0
 32 50  1  0
M  END
>  <Ligand ID>  (1) 
LIG0005731

>  <Ligand>  (1) 
CHEMBL2111533

>  <SMILES>  (1) 
O[C@H]1[C@H](n2cnc3c2ncnc3N)[C@@H]2[C@]([C@H]1O)(C2)COP(=O)(OP(=O)(OP(=O)(O)O)O)O

>  <CID>  (1) 
10994891.0

>  <ChEMBL ID>  (1) 
nan

>  <InChiKey>  (1) 
WOSUREDDZAHDRQ-PHPBVZTRSA-N

>  <InChi>  (1) 
InChI=1S/C12H18N5O12P3/c13-10-6-11(15-3-14-10)17(4-16-6)7-5-1-12(5,9(19)8(7)18)2-27-31(23,24)29-32(25,26)28-30(20,21)22/h3-5,7-9,18-19H,1-2H2,(H,23,24)(H,25,26)(H2,13,14,15)(H2,20,21,22)/t5-,7-,8+,9+,12+/m1/s1

>  <IUPAC Name>  (1) 
[[(1R,2R,3S,4R,5S)-4-(6-aminopurin-9-yl)-2,3-dihydroxy-1-bicyclo[3.1.0]hexanyl]methoxy-hydroxyphosphoryl] phosphono hydrogen phosphate

$$$$
