
     RDKit          3D

107109  0  0  0  0  0  0  0  0999 V2000
    9.1954    4.8607   -2.9157 C   0  0  0  0  0  0  0  0  0  0  0  0
    8.6775    4.3440   -1.2627 S   0  0  0  0  0  0  0  0  0  0  0  0
    7.6974    2.8135   -1.3755 C   0  0  0  0  0  0  0  0  0  0  0  0
    8.6292    1.7192   -1.8624 C   0  0  0  0  0  0  0  0  0  0  0  0
    7.8178    0.4212   -1.9646 C   0  0  1  0  0  0  0  0  0  0  0  0
    8.7080   -0.6630   -2.4367 C   0  0  0  0  0  0  0  0  0  0  0  0
    9.1626   -0.5745   -3.6102 O   0  0  0  0  0  0  0  0  0  0  0  0
    9.0827   -1.7844   -1.6700 N   0  0  0  0  0  0  0  0  0  0  0  0
    7.4252    0.1114   -0.6007 N   0  0  0  0  0  0  0  0  0  0  0  0
    6.0561    0.0280   -0.2859 C   0  0  0  0  0  0  0  0  0  0  0  0
    5.2364    0.2379   -1.2399 O   0  0  0  0  0  0  0  0  0  0  0  0
    5.4770   -0.2731    1.0341 C   0  0  1  0  0  0  0  0  0  0  0  0
    4.0557    0.1301    0.9117 N   0  0  0  0  0  0  0  0  0  0  0  0
    3.3893    1.2043    1.6555 C   0  0  0  0  0  0  0  0  0  0  0  0
    2.3755    1.7422    0.6529 C   0  0  0  0  0  0  0  0  0  0  0  0
    1.8842    0.4661   -0.0548 C   0  0  0  0  0  0  0  0  0  0  0  0
    3.0692   -0.4187    0.0556 C   0  0  0  0  0  0  0  0  0  0  0  0
    3.2473   -1.5472   -0.5190 O   0  0  0  0  0  0  0  0  0  0  0  0
    0.7718    0.0078    0.7726 N   0  0  0  0  0  0  0  0  0  0  0  0
   -0.5018   -0.1933    0.1776 C   0  0  0  0  0  0  0  0  0  0  0  0
   -0.6247    0.0291   -1.0741 O   0  0  0  0  0  0  0  0  0  0  0  0
   -1.6551   -0.6408    0.9606 C   0  0  2  0  0  0  0  0  0  0  0  0
   -1.3500   -1.9755    1.5879 C   0  0  0  0  0  0  0  0  0  0  0  0
   -1.0513   -3.0431    0.6155 C   0  0  0  0  0  0  0  0  0  0  0  0
    0.2096   -3.3492    0.1558 C   0  0  0  0  0  0  0  0  0  0  0  0
    0.4636   -4.3535   -0.7561 C   0  0  0  0  0  0  0  0  0  0  0  0
   -0.5815   -5.1091   -1.2525 C   0  0  0  0  0  0  0  0  0  0  0  0
   -1.8595   -4.8306   -0.8143 C   0  0  0  0  0  0  0  0  0  0  0  0
   -2.0977   -3.8123    0.1072 C   0  0  0  0  0  0  0  0  0  0  0  0
   -2.8547   -0.7884    0.1626 N   0  0  0  0  0  0  0  0  0  0  0  0
   -3.9520    0.0311    0.4587 C   0  0  0  0  0  0  0  0  0  0  0  0
   -3.9172    0.8921    1.3990 O   0  0  0  0  0  0  0  0  0  0  0  0
   -5.2427   -0.0312   -0.2923 C   0  0  2  0  0  0  0  0  0  0  0  0
   -4.9629    0.2010   -1.7570 C   0  0  0  0  0  0  0  0  0  0  0  0
   -6.1850    0.1525   -2.5980 C   0  0  0  0  0  0  0  0  0  0  0  0
   -6.5324   -1.0890   -3.1112 C   0  0  0  0  0  0  0  0  0  0  0  0
   -7.6555   -1.2410   -3.9105 C   0  0  0  0  0  0  0  0  0  0  0  0
   -8.4460   -0.1393   -4.2040 C   0  0  0  0  0  0  0  0  0  0  0  0
   -8.0915    1.0941   -3.6878 C   0  0  0  0  0  0  0  0  0  0  0  0
   -6.9617    1.2539   -2.8822 C   0  0  0  0  0  0  0  0  0  0  0  0
   -6.1778    0.9538    0.2124 N   0  0  0  0  0  0  0  0  0  0  0  0
   -7.4333    0.6287    0.7916 C   0  0  0  0  0  0  0  0  0  0  0  0
   -7.8634   -0.5421    0.9253 O   0  0  0  0  0  0  0  0  0  0  0  0
   -8.2489    1.8234    1.2556 C   0  0  0  0  0  0  0  0  0  0  0  0
   -9.5157    1.3484    1.9093 C   0  0  0  0  0  0  0  0  0  0  0  0
  -10.3202    2.5095    2.4019 C   0  0  0  0  0  0  0  0  0  0  0  0
  -10.7132    3.3978    1.2575 C   0  0  0  0  0  0  0  0  0  0  0  0
  -11.5269    4.5302    1.7308 N   0  0  0  0  0  0  0  0  0  0  0  0
    5.5614   -1.6936    1.4713 C   0  0  0  0  0  0  0  0  0  0  0  0
    6.9671   -2.2024    1.5821 C   0  0  0  0  0  0  0  0  0  0  0  0
    7.7967   -1.4309    2.5786 C   0  0  0  0  0  0  0  0  0  0  0  0
    6.9237   -3.6419    2.1000 C   0  0  0  0  0  0  0  0  0  0  0  0
    9.8717    4.1404   -3.3942 H   0  0  0  0  0  0  0  0  0  0  0  0
    9.7137    5.8278   -2.8434 H   0  0  0  0  0  0  0  0  0  0  0  0
    8.2656    5.0303   -3.4987 H   0  0  0  0  0  0  0  0  0  0  0  0
    6.8650    2.9269   -2.1019 H   0  0  0  0  0  0  0  0  0  0  0  0
    7.2578    2.5477   -0.4036 H   0  0  0  0  0  0  0  0  0  0  0  0
    9.0690    1.9689   -2.8258 H   0  0  0  0  0  0  0  0  0  0  0  0
    9.3901    1.5589   -1.0765 H   0  0  0  0  0  0  0  0  0  0  0  0
    6.9395    0.5657   -2.6181 H   0  0  0  0  0  0  0  0  0  0  0  0
    9.6798   -1.6840   -0.8149 H   0  0  0  0  0  0  0  0  0  0  0  0
    8.7352   -2.7294   -1.9957 H   0  0  0  0  0  0  0  0  0  0  0  0
    8.1608   -0.0287    0.1126 H   0  0  0  0  0  0  0  0  0  0  0  0
    5.8992    0.3875    1.8206 H   0  0  0  0  0  0  0  0  0  0  0  0
    4.1533    1.9950    1.8020 H   0  0  0  0  0  0  0  0  0  0  0  0
    2.9234    0.8695    2.5803 H   0  0  0  0  0  0  0  0  0  0  0  0
    1.5319    2.2312    1.1787 H   0  0  0  0  0  0  0  0  0  0  0  0
    2.8067    2.4686   -0.0437 H   0  0  0  0  0  0  0  0  0  0  0  0
    1.5718    0.6413   -1.0830 H   0  0  0  0  0  0  0  0  0  0  0  0
    0.9508   -0.1592    1.7881 H   0  0  0  0  0  0  0  0  0  0  0  0
   -1.8514    0.0931    1.7711 H   0  0  0  0  0  0  0  0  0  0  0  0
   -0.5196   -1.8304    2.3123 H   0  0  0  0  0  0  0  0  0  0  0  0
   -2.2965   -2.2713    2.1253 H   0  0  0  0  0  0  0  0  0  0  0  0
    1.0298   -2.7619    0.5433 H   0  0  0  0  0  0  0  0  0  0  0  0
    1.4698   -4.5856   -1.1121 H   0  0  0  0  0  0  0  0  0  0  0  0
   -0.3727   -5.8917   -1.9652 H   0  0  0  0  0  0  0  0  0  0  0  0
   -2.6668   -5.4338   -1.2144 H   0  0  0  0  0  0  0  0  0  0  0  0
   -3.1134   -3.6579    0.3966 H   0  0  0  0  0  0  0  0  0  0  0  0
   -2.9158   -1.4772   -0.6098 H   0  0  0  0  0  0  0  0  0  0  0  0
   -5.7068   -1.0399   -0.1969 H   0  0  0  0  0  0  0  0  0  0  0  0
   -4.1918   -0.5003   -2.1129 H   0  0  0  0  0  0  0  0  0  0  0  0
   -4.5267    1.2157   -1.8746 H   0  0  0  0  0  0  0  0  0  0  0  0
   -5.9276   -1.9576   -2.8926 H   0  0  0  0  0  0  0  0  0  0  0  0
   -7.8740   -2.2328   -4.2810 H   0  0  0  0  0  0  0  0  0  0  0  0
   -9.3209   -0.2903   -4.8334 H   0  0  0  0  0  0  0  0  0  0  0  0
   -8.7122    1.9427   -3.9226 H   0  0  0  0  0  0  0  0  0  0  0  0
   -6.6730    2.2098   -2.4723 H   0  0  0  0  0  0  0  0  0  0  0  0
   -5.8563    1.9646    0.1201 H   0  0  0  0  0  0  0  0  0  0  0  0
   -8.3939    2.5072    0.4105 H   0  0  0  0  0  0  0  0  0  0  0  0
   -7.6302    2.3270    2.0219 H   0  0  0  0  0  0  0  0  0  0  0  0
  -10.0882    0.8112    1.0978 H   0  0  0  0  0  0  0  0  0  0  0  0
   -9.3175    0.5934    2.7007 H   0  0  0  0  0  0  0  0  0  0  0  0
   -9.6939    3.1475    3.0944 H   0  0  0  0  0  0  0  0  0  0  0  0
  -11.2015    2.1960    3.0047 H   0  0  0  0  0  0  0  0  0  0  0  0
   -9.7634    3.8161    0.8115 H   0  0  0  0  0  0  0  0  0  0  0  0
  -11.2230    2.8617    0.4334 H   0  0  0  0  0  0  0  0  0  0  0  0
  -10.9195    5.0077    2.4520 H   0  0  0  0  0  0  0  0  0  0  0  0
  -11.6159    5.1742    0.9185 H   0  0  0  0  0  0  0  0  0  0  0  0
    5.1238   -1.8013    2.5081 H   0  0  0  0  0  0  0  0  0  0  0  0
    4.9468   -2.3839    0.8560 H   0  0  0  0  0  0  0  0  0  0  0  0
    7.5261   -2.2148    0.6169 H   0  0  0  0  0  0  0  0  0  0  0  0
    7.6820   -0.3424    2.4363 H   0  0  0  0  0  0  0  0  0  0  0  0
    7.5624   -1.7484    3.6160 H   0  0  0  0  0  0  0  0  0  0  0  0
    8.8854   -1.6340    2.3541 H   0  0  0  0  0  0  0  0  0  0  0  0
    7.8663   -4.1638    1.7954 H   0  0  0  0  0  0  0  0  0  0  0  0
    6.1034   -4.1726    1.6074 H   0  0  0  0  0  0  0  0  0  0  0  0
    6.8340   -3.5987    3.1934 H   0  0  0  0  0  0  0  0  0  0  0  0
  1  2  1  0
  2  3  1  0
  3  4  1  0
  4  5  1  0
  5  6  1  0
  6  7  2  0
  6  8  1  0
  5  9  1  0
  9 10  1  0
 10 11  2  0
 10 12  1  0
 12 13  1  0
 13 14  1  0
 14 15  1  0
 15 16  1  0
 16 17  1  0
 17 18  2  0
 16 19  1  0
 19 20  1  0
 20 21  2  0
 20 22  1  0
 22 23  1  0
 23 24  1  0
 24 25  2  0
 25 26  1  0
 26 27  2  0
 27 28  1  0
 28 29  2  0
 22 30  1  0
 30 31  1  0
 31 32  2  0
 31 33  1  0
 33 34  1  0
 34 35  1  0
 35 36  2  0
 36 37  1  0
 37 38  2  0
 38 39  1  0
 39 40  2  0
 33 41  1  0
 41 42  1  0
 42 43  2  0
 42 44  1  0
 44 45  1  0
 45 46  1  0
 46 47  1  0
 47 48  1  0
 12 49  1  0
 49 50  1  0
 50 51  1  0
 50 52  1  0
 17 13  1  0
 29 24  1  0
 40 35  1  0
  1 53  1  0
  1 54  1  0
  1 55  1  0
  3 56  1  0
  3 57  1  0
  4 58  1  0
  4 59  1  0
  5 60  1  6
  8 61  1  0
  8 62  1  0
  9 63  1  0
 12 64  1  1
 14 65  1  0
 14 66  1  0
 15 67  1  0
 15 68  1  0
 16 69  1  0
 19 70  1  0
 22 71  1  1
 23 72  1  0
 23 73  1  0
 25 74  1  0
 26 75  1  0
 27 76  1  0
 28 77  1  0
 29 78  1  0
 30 79  1  0
 33 80  1  6
 34 81  1  0
 34 82  1  0
 36 83  1  0
 37 84  1  0
 38 85  1  0
 39 86  1  0
 40 87  1  0
 41 88  1  0
 44 89  1  0
 44 90  1  0
 45 91  1  0
 45 92  1  0
 46 93  1  0
 46 94  1  0
 47 95  1  0
 47 96  1  0
 48 97  1  0
 48 98  1  0
 49 99  1  0
 49100  1  0
 50101  1  0
 51102  1  0
 51103  1  0
 51104  1  0
 52105  1  0
 52106  1  0
 52107  1  0
M  END
>  <Ligand ID>  (1) 
LIG0003427

>  <Ligand>  (1) 
CHEMBL135186

>  <SMILES>  (1) 
CSCC[C@@H](C(=O)N)NC(=O)[C@@H](N1CCC(C1=O)NC(=O)[C@H](Cc1ccccc1)NC(=O)[C@H](Cc1ccccc1)NC(=O)CCCCN)CC(C)C

>  <CID>  (1) 
44355368.0

>  <ChEMBL ID>  (1) 
nan

>  <InChiKey>  (1) 
YHTHZLNINQWFCI-YGTOZAMFSA-N

>  <InChi>  (1) 
InChI=1S/C38H55N7O6S/c1-25(2)22-32(37(50)42-28(34(40)47)18-21-52-3)45-20-17-29(38(45)51)43-36(49)31(24-27-14-8-5-9-15-27)44-35(48)30(23-26-12-6-4-7-13-26)41-33(46)16-10-11-19-39/h4-9,12-15,25,28-32H,10-11,16-24,39H2,1-3H3,(H2,40,47)(H,41,46)(H,42,50)(H,43,49)(H,44,48)/t28-,29?,30-,31-,32-/m0/s1

>  <IUPAC Name>  (1) 
(2S)-N-[(2S)-1-amino-4-methylsulfanyl-1-oxobutan-2-yl]-2-[3-[[(2S)-2-[[(2S)-2-(5-aminopentanoylamino)-3-phenylpropanoyl]amino]-3-phenylpropanoyl]amino]-2-oxopyrrolidin-1-yl]-4-methylpentanamide

$$$$
