
     RDKit          3D

 47 51  0  0  0  0  0  0  0  0999 V2000
   -5.2569    1.2700    1.3897 O   0  0  0  0  0  0  0  0  0  0  0  0
   -4.3349    0.8652    2.3330 C   0  0  0  0  0  0  0  0  0  0  0  0
   -3.6680   -0.4130    2.0166 C   0  0  2  0  0  0  0  0  0  0  0  0
   -4.5076   -1.6574    2.1856 C   0  0  0  0  0  0  0  0  0  0  0  0
   -3.5532   -2.7217    2.5469 N   0  0  0  0  0  0  0  0  0  0  0  0
   -2.2746   -2.1015    2.2439 C   0  0  2  0  0  0  0  0  0  0  0  0
   -2.5230   -0.7577    2.9520 C   0  0  2  0  0  0  0  0  0  0  0  0
   -2.9396   -0.9794    4.2553 O   0  0  0  0  0  0  0  0  0  0  0  0
   -2.3246   -1.6609    0.8226 C   0  0  1  0  0  0  0  0  0  0  0  0
   -2.9531   -0.4039    0.8095 O   0  0  0  0  0  0  0  0  0  0  0  0
   -1.0781   -1.6501    0.1214 N   0  0  0  0  0  0  0  0  0  0  0  0
   -0.1941   -2.6647    0.1473 C   0  0  0  0  0  0  0  0  0  0  0  0
    0.8552   -2.3148   -0.6178 N   0  0  0  0  0  0  0  0  0  0  0  0
    0.6526   -1.1086   -1.1221 C   0  0  0  0  0  0  0  0  0  0  0  0
   -0.5647   -0.6767   -0.6635 C   0  0  0  0  0  0  0  0  0  0  0  0
   -1.0008    0.5270   -1.0363 N   0  0  0  0  0  0  0  0  0  0  0  0
   -0.2462    1.3030   -1.8550 C   0  0  0  0  0  0  0  0  0  0  0  0
    0.9460    0.8669   -2.2975 N   0  0  0  0  0  0  0  0  0  0  0  0
    1.4554   -0.3302   -1.9690 C   0  0  0  0  0  0  0  0  0  0  0  0
    2.7012   -0.8224   -2.4142 N   0  0  0  0  0  0  0  0  0  0  0  0
    3.6167   -0.1261   -3.2813 C   0  0  0  0  0  0  0  0  0  0  0  0
    4.1336    1.1418   -2.7738 C   0  0  0  0  0  0  0  0  0  0  0  0
    3.6013    2.3859   -3.0210 C   0  0  0  0  0  0  0  0  0  0  0  0
    4.1160    3.5569   -2.5142 C   0  0  0  0  0  0  0  0  0  0  0  0
    5.2329    3.5169   -1.7062 C   0  0  0  0  0  0  0  0  0  0  0  0
    5.7755    2.2762   -1.4515 C   0  0  0  0  0  0  0  0  0  0  0  0
    5.2624    1.1015   -1.9573 C   0  0  0  0  0  0  0  0  0  0  0  0
    7.4849    2.1406   -0.2246 I   0  0  0  0  0  0  0  0  0  0  0  0
   -5.2586    2.2361    1.2224 H   0  0  0  0  0  0  0  0  0  0  0  0
   -4.8832    0.7371    3.2888 H   0  0  0  0  0  0  0  0  0  0  0  0
   -3.5969    1.6505    2.4924 H   0  0  0  0  0  0  0  0  0  0  0  0
   -5.2581   -1.4849    2.9560 H   0  0  0  0  0  0  0  0  0  0  0  0
   -4.9071   -1.9257    1.1837 H   0  0  0  0  0  0  0  0  0  0  0  0
   -3.5850   -2.9097    3.5791 H   0  0  0  0  0  0  0  0  0  0  0  0
   -1.3989   -2.6163    2.5713 H   0  0  0  0  0  0  0  0  0  0  0  0
   -1.6704   -0.0812    2.8541 H   0  0  0  0  0  0  0  0  0  0  0  0
   -2.2296   -1.5303    4.6803 H   0  0  0  0  0  0  0  0  0  0  0  0
   -3.0369   -2.3202    0.2467 H   0  0  0  0  0  0  0  0  0  0  0  0
   -0.2580   -3.6170    0.6704 H   0  0  0  0  0  0  0  0  0  0  0  0
   -0.5615    2.2857   -2.1822 H   0  0  0  0  0  0  0  0  0  0  0  0
    2.9941   -1.7826   -2.0873 H   0  0  0  0  0  0  0  0  0  0  0  0
    3.0515    0.0317   -4.2505 H   0  0  0  0  0  0  0  0  0  0  0  0
    4.4589   -0.8038   -3.6069 H   0  0  0  0  0  0  0  0  0  0  0  0
    2.7310    2.4718   -3.6542 H   0  0  0  0  0  0  0  0  0  0  0  0
    3.6296    4.5102   -2.7607 H   0  0  0  0  0  0  0  0  0  0  0  0
    5.6335    4.4396   -1.3105 H   0  0  0  0  0  0  0  0  0  0  0  0
    5.7308    0.1465   -1.7245 H   0  0  0  0  0  0  0  0  0  0  0  0
  1  2  1  0
  3  2  1  1
  3  4  1  0
  4  5  1  0
  5  6  1  0
  6  7  1  0
  7  8  1  0
  6  9  1  0
  9 10  1  0
  9 11  1  0
 11 12  1  0
 12 13  2  0
 13 14  1  0
 14 15  2  0
 15 16  1  0
 16 17  2  0
 17 18  1  0
 18 19  2  0
 19 20  1  0
 20 21  1  0
 21 22  1  0
 22 23  2  0
 23 24  1  0
 24 25  2  0
 25 26  1  0
 26 27  2  0
 26 28  1  0
 10  3  1  0
 15 11  1  0
 27 22  1  0
  7  3  1  0
 19 14  1  0
  1 29  1  0
  2 30  1  0
  2 31  1  0
  4 32  1  0
  4 33  1  0
  5 34  1  0
  6 35  1  1
  7 36  1  1
  8 37  1  0
  9 38  1  6
 12 39  1  0
 17 40  1  0
 20 41  1  0
 21 42  1  0
 21 43  1  0
 23 44  1  0
 24 45  1  0
 25 46  1  0
 27 47  1  0
M  END
>  <Ligand ID>  (1) 
LIG0005660

>  <Ligand>  (1) 
CHEMBL235543

>  <SMILES>  (1) 
OC[C@@]12CN[C@H]([C@@H]2O)[C@@H](O1)n1cnc2c1ncnc2NCc1cccc(c1)I

>  <CID>  (1) 
23653582.0

>  <ChEMBL ID>  (1) 
nan

>  <InChiKey>  (1) 
JIAPKIWZYOTZQP-KBEZCGTCSA-N

>  <InChi>  (1) 
InChI=1S/C18H19IN6O3/c19-11-3-1-2-10(4-11)5-20-15-13-16(23-8-22-15)25(9-24-13)17-12-14(27)18(7-26,28-17)6-21-12/h1-4,8-9,12,14,17,21,26-27H,5-7H2,(H,20,22,23)/t12-,14+,17-,18-/m1/s1

>  <IUPAC Name>  (1) 
(1R,3R,4R,7S)-1-(hydroxymethyl)-3-[6-[(3-iodophenyl)methylamino]purin-9-yl]-2-oxa-5-azabicyclo[2.2.1]heptan-7-ol

$$$$
