
     RDKit          3D

 39 40  0  0  0  0  0  0  0  0999 V2000
   -3.6142    1.0012    1.4289 C   0  0  0  0  0  0  0  0  0  0  0  0
   -2.5629    0.0601    1.5515 O   0  0  0  0  0  0  0  0  0  0  0  0
   -2.5489   -1.0531    0.8922 N   0  0  0  0  0  0  0  0  0  0  0  0
   -1.8230   -1.5809    0.0148 C   0  0  0  0  0  0  0  0  0  0  0  0
   -0.6272   -1.0944   -0.6278 C   0  0  0  0  0  0  0  0  0  0  0  0
   -0.0984   -1.9167   -1.6094 C   0  0  0  0  0  0  0  0  0  0  0  0
    0.9905   -1.5132   -2.3370 C   0  0  0  0  0  0  0  0  0  0  0  0
    1.6297   -0.3150   -2.1694 C   0  0  0  0  0  0  0  0  0  0  0  0
    1.1250    0.5071   -1.2001 C   0  0  0  0  0  0  0  0  0  0  0  0
    0.0054    0.1007   -0.4393 C   0  0  0  0  0  0  0  0  0  0  0  0
   -0.2142    0.9146    0.6854 N   0  0  0  0  0  0  0  0  0  0  0  0
    0.3573    2.2145    0.9173 C   0  0  0  0  0  0  0  0  0  0  0  0
    1.8061    2.1808    1.2787 C   0  0  0  0  0  0  0  0  0  0  0  0
    2.7883    2.8827    0.8483 N   0  0  0  0  0  0  0  0  0  0  0  0
    4.0151    2.5072    1.4778 C   0  0  0  0  0  0  0  0  0  0  0  0
    3.7108    1.1735    2.1056 C   0  0  0  0  0  0  0  0  0  0  0  0
    2.2752    1.2614    2.2939 N   0  0  0  0  0  0  0  0  0  0  0  0
   -2.3561   -2.9270   -0.4470 C   0  0  0  0  0  0  0  0  0  0  0  0
   -2.8639   -2.8846   -1.8489 C   0  0  0  0  0  0  0  0  0  0  0  0
   -4.5965    0.5601    1.6615 H   0  0  0  0  0  0  0  0  0  0  0  0
   -3.5313    1.4487    0.4381 H   0  0  0  0  0  0  0  0  0  0  0  0
   -3.3625    1.8264    2.1468 H   0  0  0  0  0  0  0  0  0  0  0  0
   -0.4794   -2.9004   -1.8462 H   0  0  0  0  0  0  0  0  0  0  0  0
    1.3592   -2.1815   -3.0839 H   0  0  0  0  0  0  0  0  0  0  0  0
    2.4790   -0.0789   -2.7916 H   0  0  0  0  0  0  0  0  0  0  0  0
    1.5959    1.4571   -1.0578 H   0  0  0  0  0  0  0  0  0  0  0  0
   -0.7370    0.5233    1.4784 H   0  0  0  0  0  0  0  0  0  0  0  0
    0.2281    2.8474    0.0044 H   0  0  0  0  0  0  0  0  0  0  0  0
   -0.2185    2.7101    1.7249 H   0  0  0  0  0  0  0  0  0  0  0  0
    4.2687    3.2831    2.2380 H   0  0  0  0  0  0  0  0  0  0  0  0
    4.8842    2.4706    0.7843 H   0  0  0  0  0  0  0  0  0  0  0  0
    3.9854    0.3265    1.4446 H   0  0  0  0  0  0  0  0  0  0  0  0
    4.2474    1.0792    3.0852 H   0  0  0  0  0  0  0  0  0  0  0  0
    1.6839    0.7659    3.0145 H   0  0  0  0  0  0  0  0  0  0  0  0
   -3.1280   -3.2783    0.2459 H   0  0  0  0  0  0  0  0  0  0  0  0
   -1.5271   -3.6795   -0.3483 H   0  0  0  0  0  0  0  0  0  0  0  0
   -3.9920   -2.9353   -1.7770 H   0  0  0  0  0  0  0  0  0  0  0  0
   -2.5892   -3.7923   -2.4122 H   0  0  0  0  0  0  0  0  0  0  0  0
   -2.5650   -1.9712   -2.4186 H   0  0  0  0  0  0  0  0  0  0  0  0
  1  2  1  0
  2  3  1  0
  3  4  2  0
  4  5  1  0
  5  6  2  0
  6  7  1  0
  7  8  2  0
  8  9  1  0
  9 10  2  0
 10 11  1  0
 11 12  1  0
 12 13  1  0
 13 14  2  0
 14 15  1  0
 15 16  1  0
 16 17  1  0
  4 18  1  0
 18 19  1  0
 10  5  1  0
 17 13  1  0
  1 20  1  0
  1 21  1  0
  1 22  1  0
  6 23  1  0
  7 24  1  0
  8 25  1  0
  9 26  1  0
 11 27  1  0
 12 28  1  0
 12 29  1  0
 15 30  1  0
 15 31  1  0
 16 32  1  0
 16 33  1  0
 17 34  1  0
 18 35  1  0
 18 36  1  0
 19 37  1  0
 19 38  1  0
 19 39  1  0
M  END
>  <Ligand ID>  (1) 
LIG0003547

>  <Ligand>  (1) 
CHEMBL439822

>  <SMILES>  (1) 
CO/N=C(\c1ccccc1NCC1=NCCN1)/CC

>  <CID>  (1) 
22493254.0

>  <ChEMBL ID>  (1) 
nan

>  <InChiKey>  (1) 
VNALJYKFTZMOJJ-PDGQHHTCSA-N

>  <InChi>  (1) 
InChI=1S/C14H20N4O/c1-3-12(18-19-2)11-6-4-5-7-13(11)17-10-14-15-8-9-16-14/h4-7,17H,3,8-10H2,1-2H3,(H,15,16)/b18-12-

>  <IUPAC Name>  (1) 
N-(4,5-dihydro-1H-imidazol-2-ylmethyl)-2-[(Z)-C-ethyl-N-methoxycarbonimidoyl]aniline

$$$$
