
     RDKit          3D

 81 83  0  0  0  0  0  0  0  0999 V2000
   13.8711    2.4619   -0.0454 C   0  0  0  0  0  0  0  0  0  0  0  0
   12.9991    2.7250   -0.8463 C   0  0  0  0  0  0  0  0  0  0  0  0
   11.9974    3.0399   -1.7991 C   0  0  0  0  0  0  0  0  0  0  0  0
   10.6370    3.3598   -1.3013 C   0  0  0  0  0  0  0  0  0  0  0  0
    9.9175    2.3526   -0.6009 N   0  0  0  0  0  0  0  0  0  0  0  0
   10.1964    1.7336    0.6190 C   0  0  0  0  0  0  0  0  0  0  0  0
   11.1789    2.0142    1.3050 O   0  0  0  0  0  0  0  0  0  0  0  0
    9.2878    0.6607    1.1782 C   0  0  0  0  0  0  0  0  0  0  0  0
    8.2430    0.4790    0.2778 O   0  0  0  0  0  0  0  0  0  0  0  0
    7.2048   -0.4430    0.4805 C   0  0  0  0  0  0  0  0  0  0  0  0
    6.1789   -0.6066   -0.4255 C   0  0  0  0  0  0  0  0  0  0  0  0
    5.1637   -1.5389   -0.1804 C   0  0  0  0  0  0  0  0  0  0  0  0
    5.1889   -2.2942    0.9674 C   0  0  0  0  0  0  0  0  0  0  0  0
    6.2418   -2.1063    1.8675 C   0  0  0  0  0  0  0  0  0  0  0  0
    7.2465   -1.1906    1.6349 C   0  0  0  0  0  0  0  0  0  0  0  0
    4.1801   -3.3001    1.3338 C   0  0  0  0  0  0  0  0  0  0  0  0
    3.0677   -2.6629    2.1429 C   0  0  0  0  0  0  0  0  0  0  0  0
    2.3690   -1.5736    1.3658 C   0  0  0  0  0  0  0  0  0  0  0  0
    1.3450   -0.9816    2.1008 O   0  0  0  0  0  0  0  0  0  0  0  0
    0.6297   -0.1151    1.3435 N   0  0  0  0  0  0  0  0  0  0  0  0
   -0.5238   -0.6307    0.6797 C   0  0  0  0  0  0  0  0  0  0  0  0
   -1.3404    0.1417   -0.1207 C   0  0  0  0  0  0  0  0  0  0  0  0
   -2.4637   -0.4024   -0.7578 C   0  0  0  0  0  0  0  0  0  0  0  0
   -2.7763   -1.7004   -0.6038 N   0  0  0  0  0  0  0  0  0  0  0  0
   -1.9613   -2.4544    0.1902 C   0  0  0  0  0  0  0  0  0  0  0  0
   -2.1895   -3.6835    0.3836 O   0  0  0  0  0  0  0  0  0  0  0  0
   -0.8840   -1.9360    0.8022 N   0  0  0  0  0  0  0  0  0  0  0  0
   -3.8894   -2.3636   -1.2002 C   0  0  2  0  0  0  0  0  0  0  0  0
   -4.4821   -1.5617   -2.1362 O   0  0  0  0  0  0  0  0  0  0  0  0
   -5.8299   -1.4814   -1.9674 C   0  0  1  0  0  0  0  0  0  0  0  0
   -6.1896   -2.6995   -1.1514 C   0  0  2  0  0  0  0  0  0  0  0  0
   -4.9694   -2.7759   -0.2196 C   0  0  1  0  0  0  0  0  0  0  0  0
   -4.7965   -4.0805    0.1930 O   0  0  0  0  0  0  0  0  0  0  0  0
   -6.1073   -3.8008   -2.0015 O   0  0  0  0  0  0  0  0  0  0  0  0
   -6.2101   -0.1943   -1.2611 C   0  0  0  0  0  0  0  0  0  0  0  0
   -7.5922   -0.1173   -1.0909 O   0  0  0  0  0  0  0  0  0  0  0  0
   -8.0958    1.3201   -0.4071 P   0  0  0  0  0  0  0  0  0  0  0  0
   -6.9555    2.2578   -0.0851 O   0  0  0  0  0  0  0  0  0  0  0  0
   -8.9165    1.0142    1.0404 O   0  0  0  0  0  0  0  0  0  0  0  0
  -10.2115    2.0494    1.2389 P   0  0  0  0  0  0  0  0  0  0  0  0
  -10.6213    2.0525    2.7114 O   0  0  0  0  0  0  0  0  0  0  0  0
   -9.8929    3.6404    0.7893 O   0  0  0  0  0  0  0  0  0  0  0  0
  -11.3542    4.2970    0.2274 P   0  0  0  0  0  0  0  0  0  0  0  0
  -12.1033    3.3160   -0.6670 O   0  0  0  0  0  0  0  0  0  0  0  0
  -11.0234    5.6995   -0.6623 O   0  0  0  0  0  0  0  0  0  0  0  0
  -12.3517    4.6927    1.5118 O   0  0  0  0  0  0  0  0  0  0  0  0
  -11.5411    1.4363    0.3527 O   0  0  0  0  0  0  0  0  0  0  0  0
   -9.1833    2.0560   -1.4911 O   0  0  0  0  0  0  0  0  0  0  0  0
   14.6368    2.2346    0.6482 H   0  0  0  0  0  0  0  0  0  0  0  0
   11.8656    2.1506   -2.5061 H   0  0  0  0  0  0  0  0  0  0  0  0
   12.2928    3.9279   -2.4559 H   0  0  0  0  0  0  0  0  0  0  0  0
   10.6825    4.3140   -0.6786 H   0  0  0  0  0  0  0  0  0  0  0  0
   10.0006    3.6764   -2.1810 H   0  0  0  0  0  0  0  0  0  0  0  0
    9.0161    2.0071   -1.0798 H   0  0  0  0  0  0  0  0  0  0  0  0
    9.8611   -0.2579    1.4277 H   0  0  0  0  0  0  0  0  0  0  0  0
    8.9152    1.0413    2.1568 H   0  0  0  0  0  0  0  0  0  0  0  0
    6.1752   -0.0113   -1.3114 H   0  0  0  0  0  0  0  0  0  0  0  0
    4.3488   -1.6852   -0.8773 H   0  0  0  0  0  0  0  0  0  0  0  0
    6.3049   -2.6775    2.7853 H   0  0  0  0  0  0  0  0  0  0  0  0
    8.0500   -1.0660    2.3499 H   0  0  0  0  0  0  0  0  0  0  0  0
    3.7313   -3.7901    0.4451 H   0  0  0  0  0  0  0  0  0  0  0  0
    4.6340   -4.0812    1.9928 H   0  0  0  0  0  0  0  0  0  0  0  0
    3.4622   -2.2178    3.0669 H   0  0  0  0  0  0  0  0  0  0  0  0
    2.3854   -3.4795    2.4499 H   0  0  0  0  0  0  0  0  0  0  0  0
    3.1344   -0.7848    1.1848 H   0  0  0  0  0  0  0  0  0  0  0  0
    1.9992   -1.8720    0.3842 H   0  0  0  0  0  0  0  0  0  0  0  0
    0.8646    0.8861    1.2169 H   0  0  0  0  0  0  0  0  0  0  0  0
   -1.1071    1.1889   -0.2574 H   0  0  0  0  0  0  0  0  0  0  0  0
   -3.1103    0.1945   -1.3878 H   0  0  0  0  0  0  0  0  0  0  0  0
   -3.4835   -3.2525   -1.7476 H   0  0  0  0  0  0  0  0  0  0  0  0
   -6.3323   -1.5029   -2.9646 H   0  0  0  0  0  0  0  0  0  0  0  0
   -7.1333   -2.6384   -0.6119 H   0  0  0  0  0  0  0  0  0  0  0  0
   -5.1333   -2.0445    0.5694 H   0  0  0  0  0  0  0  0  0  0  0  0
   -5.0406   -4.7033   -0.5664 H   0  0  0  0  0  0  0  0  0  0  0  0
   -6.9693   -4.2974   -1.9519 H   0  0  0  0  0  0  0  0  0  0  0  0
   -5.7453   -0.1267   -0.2793 H   0  0  0  0  0  0  0  0  0  0  0  0
   -5.8473    0.6508   -1.8830 H   0  0  0  0  0  0  0  0  0  0  0  0
  -10.1302    5.6811   -1.0904 H   0  0  0  0  0  0  0  0  0  0  0  0
  -13.3044    4.4334    1.3740 H   0  0  0  0  0  0  0  0  0  0  0  0
  -11.7822    0.5770    0.8232 H   0  0  0  0  0  0  0  0  0  0  0  0
   -9.9297    1.4200   -1.6181 H   0  0  0  0  0  0  0  0  0  0  0  0
  1  2  3  0
  2  3  1  0
  3  4  1  0
  4  5  1  0
  5  6  1  0
  6  7  2  0
  6  8  1  0
  8  9  1  0
  9 10  1  0
 10 11  2  0
 11 12  1  0
 12 13  2  0
 13 14  1  0
 14 15  2  0
 13 16  1  0
 16 17  1  0
 17 18  1  0
 18 19  1  0
 19 20  1  0
 20 21  1  0
 21 22  1  0
 22 23  2  0
 23 24  1  0
 24 25  1  0
 25 26  2  0
 25 27  1  0
 24 28  1  0
 28 29  1  0
 29 30  1  0
 30 31  1  0
 31 32  1  0
 32 33  1  0
 31 34  1  0
 30 35  1  0
 35 36  1  0
 36 37  1  0
 37 38  2  0
 37 39  1  0
 39 40  1  0
 40 41  2  0
 40 42  1  0
 42 43  1  0
 43 44  2  0
 43 45  1  0
 43 46  1  0
 40 47  1  0
 37 48  1  0
 15 10  1  0
 27 21  2  0
 32 28  1  0
  1 49  1  0
  3 50  1  0
  3 51  1  0
  4 52  1  0
  4 53  1  0
  5 54  1  0
  8 55  1  0
  8 56  1  0
 11 57  1  0
 12 58  1  0
 14 59  1  0
 15 60  1  0
 16 61  1  0
 16 62  1  0
 17 63  1  0
 17 64  1  0
 18 65  1  0
 18 66  1  0
 20 67  1  0
 22 68  1  0
 23 69  1  0
 28 70  1  6
 30 71  1  6
 31 72  1  1
 32 73  1  1
 33 74  1  0
 34 75  1  0
 35 76  1  0
 35 77  1  0
 45 78  1  0
 46 79  1  0
 47 80  1  0
 48 81  1  0
M  END
>  <Ligand ID>  (1) 
LIG0002331

>  <Ligand>  (1) 
CHEMBL3261376

>  <SMILES>  (1) 
C#CCCNC(=O)COc1ccc(cc1)CCCONc1ccn(c(=O)n1)[C@@H]1O[C@@H]([C@H]([C@H]1O)O)COP(=O)(OP(=O)(OP(=O)(O)O)O)O

>  <CID>  (1) 
90656227.0

>  <ChEMBL ID>  (1) 
nan

>  <InChiKey>  (1) 
XFDQWGJBBWWSOY-RLLPEYFOSA-N

>  <InChi>  (1) 
InChI=1S/C24H33N4O17P3/c1-2-3-11-25-20(29)15-40-17-8-6-16(7-9-17)5-4-13-41-27-19-10-12-28(24(32)26-19)23-22(31)21(30)18(43-23)14-42-47(36,37)45-48(38,39)44-46(33,34)35/h1,6-10,12,18,21-23,30-31H,3-5,11,13-15H2,(H,25,29)(H,36,37)(H,38,39)(H,26,27,32)(H2,33,34,35)/t18-,21-,22-,23-/m1/s1

>  <IUPAC Name>  (1) 
[[(2R,3S,4R,5R)-5-[4-[3-[4-[2-(but-3-ynylamino)-2-oxoethoxy]phenyl]propoxyamino]-2-oxopyrimidin-1-yl]-3,4-dihydroxyoxolan-2-yl]methoxy-hydroxyphosphoryl] phosphono hydrogen phosphate

$$$$
