
     RDKit          3D

 56 58  0  0  0  0  0  0  0  0999 V2000
    8.0481   -0.5454    1.5659 O   0  0  0  0  0  0  0  0  0  0  0  0
    7.4509   -1.1768    0.4843 C   0  0  0  0  0  0  0  0  0  0  0  0
    8.1094   -2.1316   -0.0380 O   0  0  0  0  0  0  0  0  0  0  0  0
    6.1121   -0.7682   -0.0458 C   0  0  0  0  0  0  0  0  0  0  0  0
    5.5967    0.3867    0.7863 C   0  0  0  0  0  0  0  0  0  0  0  0
    4.2730    0.7772    0.2490 C   0  0  0  0  0  0  0  0  0  0  0  0
    3.2670    0.6878    1.0961 C   0  0  0  0  0  0  0  0  0  0  0  0
    1.8394    0.9616    0.9955 C   0  0  0  0  0  0  0  0  0  0  0  0
    1.1760    0.6992   -0.3112 C   0  0  1  0  0  0  0  0  0  0  0  0
    2.0389    0.7593   -1.5130 C   0  0  1  0  0  0  0  0  0  0  0  0
    3.0393    1.6933   -1.5023 O   0  0  0  0  0  0  0  0  0  0  0  0
    4.2744    1.2083   -1.1537 C   0  0  0  0  0  0  0  0  0  0  0  0
    2.5041   -0.6501   -1.7123 C   0  0  0  0  0  0  0  0  0  0  0  0
    1.1351   -1.3491   -1.5924 C   0  0  2  0  0  0  0  0  0  0  0  0
    0.6685   -0.7127   -0.2871 C   0  0  2  0  0  0  0  0  0  0  0  0
   -0.7406   -0.9133    0.0010 C   0  0  0  0  0  0  0  0  0  0  0  0
   -1.6566   -0.0066    0.2592 C   0  0  0  0  0  0  0  0  0  0  0  0
   -3.0996   -0.3662    0.5430 C   0  0  2  0  0  0  0  0  0  0  0  0
   -3.9366    0.0081   -0.6400 C   0  0  0  0  0  0  0  0  0  0  0  0
   -5.2618   -0.2203   -0.6213 O   0  0  0  0  0  0  0  0  0  0  0  0
   -6.3789    0.1185    0.0192 C   0  0  0  0  0  0  0  0  0  0  0  0
   -6.5227    1.0096    1.0654 C   0  0  0  0  0  0  0  0  0  0  0  0
   -7.7366    1.2876    1.6638 C   0  0  0  0  0  0  0  0  0  0  0  0
   -8.8790    0.6677    1.2242 C   0  0  0  0  0  0  0  0  0  0  0  0
   -8.7831   -0.2270    0.1842 C   0  0  0  0  0  0  0  0  0  0  0  0
   -7.5712   -0.4916   -0.3981 C   0  0  0  0  0  0  0  0  0  0  0  0
   -3.4091    0.2446    1.7338 O   0  0  0  0  0  0  0  0  0  0  0  0
    1.2447   -2.7145   -1.5042 O   0  0  0  0  0  0  0  0  0  0  0  0
    9.0480   -0.3632    1.6081 H   0  0  0  0  0  0  0  0  0  0  0  0
    5.4102   -1.6171    0.0227 H   0  0  0  0  0  0  0  0  0  0  0  0
    6.2651   -0.4678   -1.1111 H   0  0  0  0  0  0  0  0  0  0  0  0
    5.4910   -0.0168    1.8302 H   0  0  0  0  0  0  0  0  0  0  0  0
    6.3090    1.2269    0.7554 H   0  0  0  0  0  0  0  0  0  0  0  0
    3.5740    0.3282    2.0950 H   0  0  0  0  0  0  0  0  0  0  0  0
    1.2639    0.4075    1.7951 H   0  0  0  0  0  0  0  0  0  0  0  0
    1.6793    2.0386    1.2395 H   0  0  0  0  0  0  0  0  0  0  0  0
    0.3261    1.3903   -0.4507 H   0  0  0  0  0  0  0  0  0  0  0  0
    1.3961    0.9978   -2.3867 H   0  0  0  0  0  0  0  0  0  0  0  0
    4.6132    0.4440   -1.8821 H   0  0  0  0  0  0  0  0  0  0  0  0
    4.9967    2.0683   -1.2378 H   0  0  0  0  0  0  0  0  0  0  0  0
    3.0965   -1.0645   -0.8864 H   0  0  0  0  0  0  0  0  0  0  0  0
    2.9521   -0.8264   -2.7067 H   0  0  0  0  0  0  0  0  0  0  0  0
    0.4933   -1.0019   -2.4282 H   0  0  0  0  0  0  0  0  0  0  0  0
    1.2343   -1.3253    0.4961 H   0  0  0  0  0  0  0  0  0  0  0  0
   -1.1044   -1.9622    0.0072 H   0  0  0  0  0  0  0  0  0  0  0  0
   -1.4351    1.0462    0.2881 H   0  0  0  0  0  0  0  0  0  0  0  0
   -3.1480   -1.4774    0.7501 H   0  0  0  0  0  0  0  0  0  0  0  0
   -3.6347    1.0657   -0.8866 H   0  0  0  0  0  0  0  0  0  0  0  0
   -3.5056   -0.5576   -1.5370 H   0  0  0  0  0  0  0  0  0  0  0  0
   -5.6729    1.5370    1.4440 H   0  0  0  0  0  0  0  0  0  0  0  0
   -7.7854    2.0004    2.4860 H   0  0  0  0  0  0  0  0  0  0  0  0
   -9.7994    0.9220    1.7276 H   0  0  0  0  0  0  0  0  0  0  0  0
   -9.6957   -0.6986   -0.1405 H   0  0  0  0  0  0  0  0  0  0  0  0
   -7.5597   -1.2060   -1.2135 H   0  0  0  0  0  0  0  0  0  0  0  0
   -2.6852    0.7675    2.1396 H   0  0  0  0  0  0  0  0  0  0  0  0
    1.0752   -3.1236   -2.3687 H   0  0  0  0  0  0  0  0  0  0  0  0
  1  2  1  0
  2  3  2  0
  2  4  1  0
  4  5  1  0
  5  6  1  0
  6  7  2  0
  7  8  1  0
  8  9  1  0
  9 10  1  0
 10 11  1  0
 11 12  1  0
 10 13  1  0
 13 14  1  0
 14 15  1  0
 15 16  1  0
 16 17  2  0
 17 18  1  0
 18 19  1  0
 19 20  1  0
 20 21  1  0
 21 22  2  0
 22 23  1  0
 23 24  2  0
 24 25  1  0
 25 26  2  0
 18 27  1  0
 14 28  1  0
 12  6  1  0
 26 21  1  0
 15  9  1  0
  1 29  1  0
  4 30  1  0
  4 31  1  0
  5 32  1  0
  5 33  1  0
  7 34  1  0
  8 35  1  0
  8 36  1  0
  9 37  1  6
 10 38  1  6
 12 39  1  0
 12 40  1  0
 13 41  1  0
 13 42  1  0
 14 43  1  6
 15 44  1  1
 16 45  1  0
 17 46  1  0
 18 47  1  1
 19 48  1  0
 19 49  1  0
 22 50  1  0
 23 51  1  0
 24 52  1  0
 25 53  1  0
 26 54  1  0
 27 55  1  0
 28 56  1  0
M  END
>  <Ligand ID>  (1) 
LIG0002909

>  <Ligand>  (1) 
CHEMBL3916674

>  <SMILES>  (1) 
OC(=O)CCC1=CC[C@H]2[C@@H](OC1)C[C@H]([C@@H]2/C=C/[C@H](COc1ccccc1)O)O

>  <CID>  (1) 
68747456.0

>  <ChEMBL ID>  (1) 
nan

>  <InChiKey>  (1) 
HTUHVPVHRIFBLU-DCFAJTMGSA-N

>  <InChi>  (1) 
InChI=1S/C22H28O6/c23-16(14-27-17-4-2-1-3-5-17)8-10-18-19-9-6-15(7-11-22(25)26)13-28-21(19)12-20(18)24/h1-6,8,10,16,18-21,23-24H,7,9,11-14H2,(H,25,26)/b10-8+/t16-,18-,19-,20-,21+/m1/s1

>  <IUPAC Name>  (1) 
3-[(5aR,6R,7R,8aS)-7-hydroxy-6-[(E,3R)-3-hydroxy-4-phenoxybut-1-enyl]-5,5a,6,7,8,8a-hexahydro-2H-cyclopenta[b]oxepin-3-yl]propanoic acid

$$$$
