
     RDKit          3D

 81 80  0  0  0  0  0  0  0  0999 V2000
  -11.3435   -1.9708   -0.1092 C   0  0  0  0  0  0  0  0  0  0  0  0
  -10.0671   -2.8119   -0.0255 C   0  0  0  0  0  0  0  0  0  0  0  0
   -9.0364   -2.0888   -0.8628 C   0  0  0  0  0  0  0  0  0  0  0  0
   -8.7788   -0.7190   -0.3585 C   0  0  0  0  0  0  0  0  0  0  0  0
   -8.2687   -0.6520    1.0519 C   0  0  0  0  0  0  0  0  0  0  0  0
   -6.9802   -1.3729    1.2713 C   0  0  0  0  0  0  0  0  0  0  0  0
   -5.8623   -0.8283    0.4118 C   0  0  0  0  0  0  0  0  0  0  0  0
   -5.6156    0.6363    0.7133 C   0  0  0  0  0  0  0  0  0  0  0  0
   -4.5136    1.0809   -0.1626 C   0  0  0  0  0  0  0  0  0  0  0  0
   -3.3528    1.5670    0.1976 C   0  0  0  0  0  0  0  0  0  0  0  0
   -2.8546    1.7925    1.5647 C   0  0  0  0  0  0  0  0  0  0  0  0
   -1.6145    1.0031    1.8704 C   0  0  0  0  0  0  0  0  0  0  0  0
   -0.5095    1.3613    0.9141 C   0  0  0  0  0  0  0  0  0  0  0  0
   -0.1917    2.8169    1.0251 C   0  0  0  0  0  0  0  0  0  0  0  0
    0.9706    3.1488    0.0892 C   0  0  0  0  0  0  0  0  0  0  0  0
    0.5830    2.8410   -1.3095 C   0  0  0  0  0  0  0  0  0  0  0  0
    1.6844    3.1908   -2.2565 C   0  0  0  0  0  0  0  0  0  0  0  0
    2.9254    2.4337   -2.0301 C   0  0  0  0  0  0  0  0  0  0  0  0
    3.9188    2.7779   -2.7625 O   0  0  0  0  0  0  0  0  0  0  0  0
    3.0720    1.4399   -1.1373 O   0  0  0  0  0  0  0  0  0  0  0  0
    4.1625    0.6398   -0.8328 C   0  0  0  0  0  0  0  0  0  0  0  0
    4.5347   -0.2406   -1.9855 C   0  0  2  0  0  0  0  0  0  0  0  0
    5.7511   -1.1188   -1.6638 C   0  0  0  0  0  0  0  0  0  0  0  0
    6.8176   -0.2939   -1.3930 O   0  0  0  0  0  0  0  0  0  0  0  0
    8.2794   -1.1125   -1.3206 P   0  0  0  0  0  0  0  0  0  0  0  0
    8.2322   -2.4439   -2.0376 O   0  0  0  0  0  0  0  0  0  0  0  0
    8.7404   -1.3971    0.2769 O   0  0  0  0  0  0  0  0  0  0  0  0
   10.0435   -1.9429    0.2884 C   0  0  0  0  0  0  0  0  0  0  0  0
   10.4075   -2.2267    1.7085 C   0  0  1  0  0  0  0  0  0  0  0  0
   10.3481   -0.9860    2.4990 C   0  0  0  0  0  0  0  0  0  0  0  0
    9.5251   -0.9586    3.4648 O   0  0  0  0  0  0  0  0  0  0  0  0
   11.1605    0.0754    2.1789 O   0  0  0  0  0  0  0  0  0  0  0  0
    9.4434   -3.1796    2.2532 N   0  0  0  0  0  0  0  0  0  0  0  0
    9.4334   -0.1578   -2.1362 O   0  0  0  0  0  0  0  0  0  0  0  0
    4.8927    0.5139   -3.0830 O   0  0  0  0  0  0  0  0  0  0  0  0
  -11.4055   -1.3797   -1.0385 H   0  0  0  0  0  0  0  0  0  0  0  0
  -12.2535   -2.6296   -0.0984 H   0  0  0  0  0  0  0  0  0  0  0  0
  -11.4391   -1.3074    0.8005 H   0  0  0  0  0  0  0  0  0  0  0  0
  -10.2968   -3.7848   -0.5154 H   0  0  0  0  0  0  0  0  0  0  0  0
   -9.8200   -2.9095    1.0306 H   0  0  0  0  0  0  0  0  0  0  0  0
   -9.4985   -1.9856   -1.8736 H   0  0  0  0  0  0  0  0  0  0  0  0
   -8.1287   -2.6954   -1.0365 H   0  0  0  0  0  0  0  0  0  0  0  0
   -9.7316   -0.1534   -0.4461 H   0  0  0  0  0  0  0  0  0  0  0  0
   -8.0593   -0.1754   -1.0060 H   0  0  0  0  0  0  0  0  0  0  0  0
   -8.1243    0.4081    1.3532 H   0  0  0  0  0  0  0  0  0  0  0  0
   -9.0633   -1.0543    1.7137 H   0  0  0  0  0  0  0  0  0  0  0  0
   -7.0356   -2.4632    1.2040 H   0  0  0  0  0  0  0  0  0  0  0  0
   -6.6757   -1.1489    2.3382 H   0  0  0  0  0  0  0  0  0  0  0  0
   -4.9316   -1.3768    0.6143 H   0  0  0  0  0  0  0  0  0  0  0  0
   -6.0842   -0.9065   -0.6700 H   0  0  0  0  0  0  0  0  0  0  0  0
   -6.5094    1.2571    0.3990 H   0  0  0  0  0  0  0  0  0  0  0  0
   -5.3868    0.7971    1.7762 H   0  0  0  0  0  0  0  0  0  0  0  0
   -4.7110    0.9836   -1.2522 H   0  0  0  0  0  0  0  0  0  0  0  0
   -2.6681    1.8502   -0.6224 H   0  0  0  0  0  0  0  0  0  0  0  0
   -3.6489    1.5324    2.3173 H   0  0  0  0  0  0  0  0  0  0  0  0
   -2.6078    2.8845    1.7288 H   0  0  0  0  0  0  0  0  0  0  0  0
   -1.2821    1.2306    2.9086 H   0  0  0  0  0  0  0  0  0  0  0  0
   -1.8463   -0.0903    1.7772 H   0  0  0  0  0  0  0  0  0  0  0  0
   -0.8897    1.1335   -0.1243 H   0  0  0  0  0  0  0  0  0  0  0  0
    0.3997    0.7277    1.0953 H   0  0  0  0  0  0  0  0  0  0  0  0
   -1.0519    3.4361    0.6757 H   0  0  0  0  0  0  0  0  0  0  0  0
    0.1318    3.0601    2.0419 H   0  0  0  0  0  0  0  0  0  0  0  0
    1.8048    2.5183    0.4084 H   0  0  0  0  0  0  0  0  0  0  0  0
    1.2503    4.2224    0.2178 H   0  0  0  0  0  0  0  0  0  0  0  0
   -0.3609    3.3317   -1.5990 H   0  0  0  0  0  0  0  0  0  0  0  0
    0.4623    1.7152   -1.3812 H   0  0  0  0  0  0  0  0  0  0  0  0
    1.8981    4.2823   -2.1694 H   0  0  0  0  0  0  0  0  0  0  0  0
    1.2890    3.0536   -3.2890 H   0  0  0  0  0  0  0  0  0  0  0  0
    4.0023    0.0481    0.1060 H   0  0  0  0  0  0  0  0  0  0  0  0
    5.0559    1.3302   -0.6790 H   0  0  0  0  0  0  0  0  0  0  0  0
    3.6620   -0.9202   -2.2506 H   0  0  0  0  0  0  0  0  0  0  0  0
    5.4994   -1.8188   -0.8373 H   0  0  0  0  0  0  0  0  0  0  0  0
    5.8947   -1.7513   -2.5770 H   0  0  0  0  0  0  0  0  0  0  0  0
   10.1029   -2.8698   -0.3311 H   0  0  0  0  0  0  0  0  0  0  0  0
   10.7226   -1.2138   -0.1558 H   0  0  0  0  0  0  0  0  0  0  0  0
   11.4322   -2.6677    1.7152 H   0  0  0  0  0  0  0  0  0  0  0  0
   11.3814    0.7364    2.9358 H   0  0  0  0  0  0  0  0  0  0  0  0
    8.5136   -2.6934    2.2480 H   0  0  0  0  0  0  0  0  0  0  0  0
    9.3556   -3.9404    1.5184 H   0  0  0  0  0  0  0  0  0  0  0  0
    9.5814    0.7092   -1.6824 H   0  0  0  0  0  0  0  0  0  0  0  0
    5.1335   -0.1289   -3.8198 H   0  0  0  0  0  0  0  0  0  0  0  0
  1  2  1  0
  2  3  1  0
  3  4  1  0
  4  5  1  0
  5  6  1  0
  6  7  1  0
  7  8  1  0
  8  9  1  0
  9 10  2  0
 10 11  1  0
 11 12  1  0
 12 13  1  0
 13 14  1  0
 14 15  1  0
 15 16  1  0
 16 17  1  0
 17 18  1  0
 18 19  2  0
 18 20  1  0
 20 21  1  0
 21 22  1  0
 22 23  1  0
 23 24  1  0
 24 25  1  0
 25 26  2  0
 25 27  1  0
 27 28  1  0
 28 29  1  0
 29 30  1  0
 30 31  2  0
 30 32  1  0
 29 33  1  0
 25 34  1  0
 22 35  1  0
  1 36  1  0
  1 37  1  0
  1 38  1  0
  2 39  1  0
  2 40  1  0
  3 41  1  0
  3 42  1  0
  4 43  1  0
  4 44  1  0
  5 45  1  0
  5 46  1  0
  6 47  1  0
  6 48  1  0
  7 49  1  0
  7 50  1  0
  8 51  1  0
  8 52  1  0
  9 53  1  0
 10 54  1  0
 11 55  1  0
 11 56  1  0
 12 57  1  0
 12 58  1  0
 13 59  1  0
 13 60  1  0
 14 61  1  0
 14 62  1  0
 15 63  1  0
 15 64  1  0
 16 65  1  0
 16 66  1  0
 17 67  1  0
 17 68  1  0
 21 69  1  0
 21 70  1  0
 22 71  1  6
 23 72  1  0
 23 73  1  0
 28 74  1  0
 28 75  1  0
 29 76  1  6
 32 77  1  0
 33 78  1  0
 33 79  1  0
 34 80  1  0
 35 81  1  0
M  END
>  <Ligand ID>  (1) 
LIG0000976

>  <Ligand>  (1) 
CHEBI:52649

>  <SMILES>  (1) 
CCCCCCCC/C=C\CCCCCCCC(=O)OC[C@H](COP(=O)(OC[C@@H](C(=O)O)N)O)O

>  <CID>  (1) 
9547099.0

>  <ChEMBL ID>  (1) 
nan

>  <InChiKey>  (1) 
JZWNYZVVZXZRRH-YFKVPUFHSA-N

>  <InChi>  (1) 
InChI=1S/C24H46NO9P/c1-2-3-4-5-6-7-8-9-10-11-12-13-14-15-16-17-23(27)32-18-21(26)19-33-35(30,31)34-20-22(25)24(28)29/h9-10,21-22,26H,2-8,11-20,25H2,1H3,(H,28,29)(H,30,31)/b10-9-/t21-,22+/m1/s1

>  <IUPAC Name>  (1) 
(2S)-2-amino-3-[hydroxy-[(2R)-2-hydroxy-3-[(Z)-octadec-9-enoyl]oxypropoxy]phosphoryl]oxypropanoic acid

$$$$
