
     RDKit          3D

 56 55  0  0  0  0  0  0  0  0999 V2000
   -7.7670   -0.4774    1.6984 C   0  0  0  0  0  0  0  0  0  0  0  0
   -6.9748   -1.6924    1.3366 C   0  0  0  0  0  0  0  0  0  0  0  0
   -6.0039   -1.4237    0.1953 C   0  0  0  0  0  0  0  0  0  0  0  0
   -5.0506   -0.3327    0.6261 C   0  0  0  0  0  0  0  0  0  0  0  0
   -4.0862   -0.0792   -0.5122 C   0  0  0  0  0  0  0  0  0  0  0  0
   -3.0895    1.0102   -0.1594 C   0  0  0  0  0  0  0  0  0  0  0  0
   -2.1122    1.2793   -1.2726 C   0  0  0  0  0  0  0  0  0  0  0  0
   -1.1520    2.3573   -0.8960 C   0  0  0  0  0  0  0  0  0  0  0  0
   -0.3718    1.9843    0.3181 C   0  0  0  0  0  0  0  0  0  0  0  0
    0.4396    0.7215    0.1343 C   0  0  0  0  0  0  0  0  0  0  0  0
    1.4447    0.8345   -0.9677 C   0  0  0  0  0  0  0  0  0  0  0  0
    2.2595   -0.4533   -1.1483 C   0  0  0  0  0  0  0  0  0  0  0  0
    3.0068   -0.7963    0.1220 C   0  0  0  0  0  0  0  0  0  0  0  0
    3.8076   -2.0625   -0.0730 C   0  0  0  0  0  0  0  0  0  0  0  0
    4.8330   -1.9221   -1.1860 C   0  0  0  0  0  0  0  0  0  0  0  0
    5.7471   -0.8146   -0.8011 C   0  0  0  0  0  0  0  0  0  0  0  0
    5.4349    0.3879   -1.0068 O   0  0  0  0  0  0  0  0  0  0  0  0
    6.9849   -1.0300   -0.1987 O   0  0  0  0  0  0  0  0  0  0  0  0
    7.8378    0.0415    0.1623 C   0  0  0  0  0  0  0  0  0  0  0  0
    7.2116    0.9703    1.1470 C   0  0  0  0  0  0  0  0  0  0  0  0
   -8.7539   -0.7250    2.1375 H   0  0  0  0  0  0  0  0  0  0  0  0
   -7.2560    0.1523    2.4755 H   0  0  0  0  0  0  0  0  0  0  0  0
   -7.9310    0.1511    0.8079 H   0  0  0  0  0  0  0  0  0  0  0  0
   -7.6998   -2.4792    1.0441 H   0  0  0  0  0  0  0  0  0  0  0  0
   -6.4105   -2.0312    2.2198 H   0  0  0  0  0  0  0  0  0  0  0  0
   -5.4950   -2.3465   -0.1290 H   0  0  0  0  0  0  0  0  0  0  0  0
   -6.6427   -1.0973   -0.6559 H   0  0  0  0  0  0  0  0  0  0  0  0
   -5.6814    0.5533    0.8540 H   0  0  0  0  0  0  0  0  0  0  0  0
   -4.5296   -0.7127    1.5308 H   0  0  0  0  0  0  0  0  0  0  0  0
   -4.6741    0.3159   -1.3566 H   0  0  0  0  0  0  0  0  0  0  0  0
   -3.5979   -1.0218   -0.7684 H   0  0  0  0  0  0  0  0  0  0  0  0
   -3.6369    1.9350    0.0860 H   0  0  0  0  0  0  0  0  0  0  0  0
   -2.5750    0.6990    0.7754 H   0  0  0  0  0  0  0  0  0  0  0  0
   -2.6894    1.6324   -2.1693 H   0  0  0  0  0  0  0  0  0  0  0  0
   -1.5694    0.3652   -1.5715 H   0  0  0  0  0  0  0  0  0  0  0  0
   -1.6896    3.2967   -0.7212 H   0  0  0  0  0  0  0  0  0  0  0  0
   -0.4249    2.5222   -1.7265 H   0  0  0  0  0  0  0  0  0  0  0  0
    0.3475    2.8051    0.5721 H   0  0  0  0  0  0  0  0  0  0  0  0
   -0.9820    1.8587    1.2299 H   0  0  0  0  0  0  0  0  0  0  0  0
    1.0137    0.6078    1.0981 H   0  0  0  0  0  0  0  0  0  0  0  0
   -0.1882   -0.1682    0.0233 H   0  0  0  0  0  0  0  0  0  0  0  0
    0.8972    0.9511   -1.9326 H   0  0  0  0  0  0  0  0  0  0  0  0
    2.0978    1.7064   -0.8871 H   0  0  0  0  0  0  0  0  0  0  0  0
    2.9280   -0.2972   -2.0002 H   0  0  0  0  0  0  0  0  0  0  0  0
    1.5279   -1.2549   -1.3306 H   0  0  0  0  0  0  0  0  0  0  0  0
    2.2600   -0.9933    0.9254 H   0  0  0  0  0  0  0  0  0  0  0  0
    3.6431    0.0326    0.4274 H   0  0  0  0  0  0  0  0  0  0  0  0
    4.2914   -2.3188    0.8906 H   0  0  0  0  0  0  0  0  0  0  0  0
    3.1012   -2.9046   -0.2776 H   0  0  0  0  0  0  0  0  0  0  0  0
    4.3765   -1.8214   -2.1681 H   0  0  0  0  0  0  0  0  0  0  0  0
    5.4282   -2.8702   -1.1863 H   0  0  0  0  0  0  0  0  0  0  0  0
    8.1730    0.6288   -0.7176 H   0  0  0  0  0  0  0  0  0  0  0  0
    8.7403   -0.4128    0.6148 H   0  0  0  0  0  0  0  0  0  0  0  0
    6.9684    1.9800    0.7568 H   0  0  0  0  0  0  0  0  0  0  0  0
    6.3161    0.4872    1.6281 H   0  0  0  0  0  0  0  0  0  0  0  0
    7.9177    1.1413    1.9830 H   0  0  0  0  0  0  0  0  0  0  0  0
  1  2  1  0
  2  3  1  0
  3  4  1  0
  4  5  1  0
  5  6  1  0
  6  7  1  0
  7  8  1  0
  8  9  1  0
  9 10  1  0
 10 11  1  0
 11 12  1  0
 12 13  1  0
 13 14  1  0
 14 15  1  0
 15 16  1  0
 16 17  2  0
 16 18  1  0
 18 19  1  0
 19 20  1  0
  1 21  1  0
  1 22  1  0
  1 23  1  0
  2 24  1  0
  2 25  1  0
  3 26  1  0
  3 27  1  0
  4 28  1  0
  4 29  1  0
  5 30  1  0
  5 31  1  0
  6 32  1  0
  6 33  1  0
  7 34  1  0
  7 35  1  0
  8 36  1  0
  8 37  1  0
  9 38  1  0
  9 39  1  0
 10 40  1  0
 10 41  1  0
 11 42  1  0
 11 43  1  0
 12 44  1  0
 12 45  1  0
 13 46  1  0
 13 47  1  0
 14 48  1  0
 14 49  1  0
 15 50  1  0
 15 51  1  0
 19 52  1  0
 19 53  1  0
 20 54  1  0
 20 55  1  0
 20 56  1  0
M  END
>  <Ligand ID>  (1) 
LIG0000551

>  <Ligand>  (1) 
Ethyl palmitate

>  <SMILES>  (1) 
CCCCCCCCCCCCCCCC(=O)OCC

>  <CID>  (1) 
12366.0

>  <ChEMBL ID>  (1) 
nan

>  <InChiKey>  (1) 
XIRNKXNNONJFQO-UHFFFAOYSA-N

>  <InChi>  (1) 
InChI=1S/C18H36O2/c1-3-5-6-7-8-9-10-11-12-13-14-15-16-17-18(19)20-4-2/h3-17H2,1-2H3

>  <IUPAC Name>  (1) 
ethyl hexadecanoate

$$$$
