
     RDKit          3D

 45 47  0  0  0  0  0  0  0  0999 V2000
    3.5646   -2.5515   -1.6200 Cl  0  0  0  0  0  0  0  0  0  0  0  0
    4.3899   -1.3409   -0.6461 C   0  0  0  0  0  0  0  0  0  0  0  0
    5.5387   -1.7120   -0.0188 C   0  0  0  0  0  0  0  0  0  0  0  0
    6.2226   -0.8056    0.7540 C   0  0  0  0  0  0  0  0  0  0  0  0
    5.7422    0.4724    0.8891 C   0  0  0  0  0  0  0  0  0  0  0  0
    4.5770    0.8205    0.2426 C   0  0  0  0  0  0  0  0  0  0  0  0
    3.8458   -0.0433   -0.5457 C   0  0  0  0  0  0  0  0  0  0  0  0
    2.7226    0.1981   -1.2038 O   0  0  0  0  0  0  0  0  0  0  0  0
    1.7930    1.1195   -1.4811 C   0  0  0  0  0  0  0  0  0  0  0  0
    0.9405    1.6990   -0.3831 C   0  0  1  0  0  0  0  0  0  0  0  0
    0.1716    0.6838    0.2968 N   0  0  0  0  0  0  0  0  0  0  0  0
   -1.0567    0.3798   -0.1524 N   0  0  0  0  0  0  0  0  0  0  0  0
   -1.8298   -0.5494    0.4196 C   0  0  0  0  0  0  0  0  0  0  0  0
   -1.4312   -1.2768    1.5224 C   0  0  0  0  0  0  0  0  0  0  0  0
   -0.1583   -0.9766    2.0051 C   0  0  0  0  0  0  0  0  0  0  0  0
    0.5897   -0.0010    1.3629 C   0  0  0  0  0  0  0  0  0  0  0  0
    1.7370    0.2066    1.8703 O   0  0  0  0  0  0  0  0  0  0  0  0
   -3.1090   -0.7872   -0.1397 N   0  0  0  0  0  0  0  0  0  0  0  0
   -3.5409   -0.0216   -1.3084 C   0  0  0  0  0  0  0  0  0  0  0  0
   -4.8071    0.7050   -0.9955 C   0  0  0  0  0  0  0  0  0  0  0  0
   -5.7109   -0.0110   -0.1523 N   0  0  0  0  0  0  0  0  0  0  0  0
   -5.4553   -1.4230   -0.0452 C   0  0  0  0  0  0  0  0  0  0  0  0
   -4.0476   -1.7598    0.3749 C   0  0  0  0  0  0  0  0  0  0  0  0
    1.5732    2.7129    0.4870 C   0  0  0  0  0  0  0  0  0  0  0  0
    5.9489   -2.7093   -0.1013 H   0  0  0  0  0  0  0  0  0  0  0  0
    7.1345   -1.0473    1.2708 H   0  0  0  0  0  0  0  0  0  0  0  0
    6.2792    1.1929    1.4990 H   0  0  0  0  0  0  0  0  0  0  0  0
    4.2448    1.8368    0.3677 H   0  0  0  0  0  0  0  0  0  0  0  0
    2.1739    1.9708   -2.1454 H   0  0  0  0  0  0  0  0  0  0  0  0
    1.0310    0.6362   -2.1901 H   0  0  0  0  0  0  0  0  0  0  0  0
    0.1388    2.2885   -0.9743 H   0  0  0  0  0  0  0  0  0  0  0  0
   -2.0153   -2.0222    2.0049 H   0  0  0  0  0  0  0  0  0  0  0  0
    0.1886   -1.5219    2.8632 H   0  0  0  0  0  0  0  0  0  0  0  0
   -3.6900   -0.7032   -2.1754 H   0  0  0  0  0  0  0  0  0  0  0  0
   -2.7720    0.6932   -1.6157 H   0  0  0  0  0  0  0  0  0  0  0  0
   -4.5916    1.7021   -0.5444 H   0  0  0  0  0  0  0  0  0  0  0  0
   -5.3181    0.9446   -1.9645 H   0  0  0  0  0  0  0  0  0  0  0  0
   -6.7062    0.0981   -0.3982 H   0  0  0  0  0  0  0  0  0  0  0  0
   -6.1211   -1.8055    0.7689 H   0  0  0  0  0  0  0  0  0  0  0  0
   -5.6819   -1.9855   -0.9531 H   0  0  0  0  0  0  0  0  0  0  0  0
   -3.7907   -2.7609    0.0204 H   0  0  0  0  0  0  0  0  0  0  0  0
   -3.9701   -1.7302    1.4856 H   0  0  0  0  0  0  0  0  0  0  0  0
    2.3021    3.3173   -0.1242 H   0  0  0  0  0  0  0  0  0  0  0  0
    0.8075    3.4966    0.7792 H   0  0  0  0  0  0  0  0  0  0  0  0
    2.1460    2.3709    1.3471 H   0  0  0  0  0  0  0  0  0  0  0  0
  1  2  1  0
  2  3  2  0
  3  4  1  0
  4  5  2  0
  5  6  1  0
  6  7  2  0
  7  8  1  0
  8  9  1  0
  9 10  1  0
 10 11  1  0
 11 12  1  0
 12 13  2  0
 13 14  1  0
 14 15  2  0
 15 16  1  0
 16 17  2  0
 13 18  1  0
 18 19  1  0
 19 20  1  0
 20 21  1  0
 21 22  1  0
 22 23  1  0
 10 24  1  0
  7  2  1  0
 16 11  1  0
 23 18  1  0
  3 25  1  0
  4 26  1  0
  5 27  1  0
  6 28  1  0
  9 29  1  0
  9 30  1  0
 10 31  1  6
 14 32  1  0
 15 33  1  0
 19 34  1  0
 19 35  1  0
 20 36  1  0
 20 37  1  0
 21 38  1  0
 22 39  1  0
 22 40  1  0
 23 41  1  0
 23 42  1  0
 24 43  1  0
 24 44  1  0
 24 45  1  0
M  END
>  <Ligand ID>  (1) 
LIG0002165

>  <Ligand>  (1) 
CHEMBL572252

>  <SMILES>  (1) 
Clc1ccccc1OC[C@@H](n1nc(ccc1=O)N1CCNCC1)C

>  <CID>  (1) 
45485725.0

>  <ChEMBL ID>  (1) 
nan

>  <InChiKey>  (1) 
CANDRMATFQVMGD-ZDUSSCGKSA-N

>  <InChi>  (1) 
InChI=1S/C17H21ClN4O2/c1-13(12-24-15-5-3-2-4-14(15)18)22-17(23)7-6-16(20-22)21-10-8-19-9-11-21/h2-7,13,19H,8-12H2,1H3/t13-/m0/s1

>  <IUPAC Name>  (1) 
2-[(2S)-1-(2-chlorophenoxy)propan-2-yl]-6-piperazin-1-ylpyridazin-3-one

$$$$
