
     RDKit          3D

 74 77  0  0  0  0  0  0  0  0999 V2000
   -9.6035    1.0882   -0.0965 O   0  0  0  0  0  0  0  0  0  0  0  0
   -8.3526    0.6551    0.3671 C   0  0  0  0  0  0  0  0  0  0  0  0
   -8.2203   -0.5680    0.9892 C   0  0  0  0  0  0  0  0  0  0  0  0
   -6.9727   -0.9600    1.4307 C   0  0  0  0  0  0  0  0  0  0  0  0
   -5.8550   -0.1752    1.2745 C   0  0  0  0  0  0  0  0  0  0  0  0
   -5.9784    1.0454    0.6560 C   0  0  0  0  0  0  0  0  0  0  0  0
   -7.2267    1.4694    0.1979 C   0  0  0  0  0  0  0  0  0  0  0  0
   -4.8512    1.9812    0.4288 C   0  0  0  0  0  0  0  0  0  0  0  0
   -3.7322    1.5930    1.3601 C   0  0  0  0  0  0  0  0  0  0  0  0
   -3.3769    0.1508    1.3697 C   0  0  1  0  0  0  0  0  0  0  0  0
   -4.5691   -0.6866    1.7760 C   0  0  0  0  0  0  0  0  0  0  0  0
   -2.7364   -0.3595    0.1429 C   0  0  0  0  0  0  0  0  0  0  0  0
   -3.3621   -1.2674   -0.4881 O   0  0  0  0  0  0  0  0  0  0  0  0
   -1.4871    0.1003   -0.3515 N   0  0  0  0  0  0  0  0  0  0  0  0
   -0.8936   -0.4598   -1.5857 C   0  0  1  0  0  0  0  0  0  0  0  0
   -0.8035    0.5627   -2.6496 C   0  0  0  0  0  0  0  0  0  0  0  0
   -0.2009    0.1155   -3.9585 C   0  0  0  0  0  0  0  0  0  0  0  0
   -2.2761    0.8939   -3.0264 C   0  0  0  0  0  0  0  0  0  0  0  0
    0.2995   -1.2846   -1.2706 C   0  0  0  0  0  0  0  0  0  0  0  0
    1.3953   -0.6854   -0.6348 N   0  0  0  0  0  0  0  0  0  0  0  0
    2.2211    0.2260   -1.2738 C   0  0  0  0  0  0  0  0  0  0  0  0
    3.3428    0.6678   -0.3197 C   0  0  0  0  0  0  0  0  0  0  0  0
    4.2759   -0.5155   -0.2124 C   0  0  1  0  0  0  0  0  0  0  0  0
    3.4687   -1.6545    0.3420 C   0  0  2  0  0  0  0  0  0  0  0  0
    1.9968   -1.4140    0.4177 C   0  0  0  0  0  0  0  0  0  0  0  0
    3.9458   -1.8844    1.7732 C   0  0  0  0  0  0  0  0  0  0  0  0
    4.7249   -0.8629   -1.6384 C   0  0  0  0  0  0  0  0  0  0  0  0
    5.4836   -0.1897    0.5908 C   0  0  0  0  0  0  0  0  0  0  0  0
    6.5026   -1.1057    0.7650 C   0  0  0  0  0  0  0  0  0  0  0  0
    7.6135   -0.7684    1.5243 C   0  0  0  0  0  0  0  0  0  0  0  0
    7.7184    0.4743    2.1124 C   0  0  0  0  0  0  0  0  0  0  0  0
    6.7120    1.4005    1.9498 C   0  0  0  0  0  0  0  0  0  0  0  0
    5.6184    1.0426    1.1912 C   0  0  0  0  0  0  0  0  0  0  0  0
    6.8094    2.6465    2.5365 O   0  0  0  0  0  0  0  0  0  0  0  0
   -9.9396    1.9587    0.3357 H   0  0  0  0  0  0  0  0  0  0  0  0
   -9.0925   -1.1831    1.1127 H   0  0  0  0  0  0  0  0  0  0  0  0
   -6.8810   -1.9102    1.9116 H   0  0  0  0  0  0  0  0  0  0  0  0
   -7.3429    2.4106   -0.2831 H   0  0  0  0  0  0  0  0  0  0  0  0
   -5.1682    3.0140    0.7030 H   0  0  0  0  0  0  0  0  0  0  0  0
   -4.4997    1.9539   -0.6077 H   0  0  0  0  0  0  0  0  0  0  0  0
   -2.8499    2.2147    1.0770 H   0  0  0  0  0  0  0  0  0  0  0  0
   -3.9959    1.9286    2.3888 H   0  0  0  0  0  0  0  0  0  0  0  0
   -2.6142    0.0099    2.1927 H   0  0  0  0  0  0  0  0  0  0  0  0
   -4.4584   -1.7209    1.3254 H   0  0  0  0  0  0  0  0  0  0  0  0
   -4.6273   -0.7962    2.8874 H   0  0  0  0  0  0  0  0  0  0  0  0
   -1.0049    0.8462    0.1918 H   0  0  0  0  0  0  0  0  0  0  0  0
   -1.6922   -1.1936   -1.9160 H   0  0  0  0  0  0  0  0  0  0  0  0
   -0.4202    1.5595   -2.3266 H   0  0  0  0  0  0  0  0  0  0  0  0
    0.5282   -0.6842   -3.7533 H   0  0  0  0  0  0  0  0  0  0  0  0
    0.4087    0.9744   -4.3336 H   0  0  0  0  0  0  0  0  0  0  0  0
   -0.9513   -0.1948   -4.7162 H   0  0  0  0  0  0  0  0  0  0  0  0
   -2.2931    1.6514   -3.8161 H   0  0  0  0  0  0  0  0  0  0  0  0
   -2.8846    1.1020   -2.1524 H   0  0  0  0  0  0  0  0  0  0  0  0
   -2.6261   -0.0670   -3.4846 H   0  0  0  0  0  0  0  0  0  0  0  0
    0.7037   -1.8407   -2.1699 H   0  0  0  0  0  0  0  0  0  0  0  0
   -0.0816   -2.1683   -0.6430 H   0  0  0  0  0  0  0  0  0  0  0  0
    1.7864    1.1889   -1.6207 H   0  0  0  0  0  0  0  0  0  0  0  0
    2.6806   -0.2929   -2.1757 H   0  0  0  0  0  0  0  0  0  0  0  0
    3.8736    1.5347   -0.7661 H   0  0  0  0  0  0  0  0  0  0  0  0
    2.8771    0.9388    0.6272 H   0  0  0  0  0  0  0  0  0  0  0  0
    3.7077   -2.6020   -0.2122 H   0  0  0  0  0  0  0  0  0  0  0  0
    1.5398   -2.4577    0.4642 H   0  0  0  0  0  0  0  0  0  0  0  0
    1.7502   -1.0106    1.4334 H   0  0  0  0  0  0  0  0  0  0  0  0
    4.4683   -0.9825    2.1482 H   0  0  0  0  0  0  0  0  0  0  0  0
    4.6862   -2.7103    1.7888 H   0  0  0  0  0  0  0  0  0  0  0  0
    3.0839   -2.1646    2.4134 H   0  0  0  0  0  0  0  0  0  0  0  0
    5.8202   -1.1460   -1.5903 H   0  0  0  0  0  0  0  0  0  0  0  0
    4.1457   -1.6924   -2.0723 H   0  0  0  0  0  0  0  0  0  0  0  0
    4.6814   -0.0080   -2.3152 H   0  0  0  0  0  0  0  0  0  0  0  0
    6.4603   -2.1008    0.3127 H   0  0  0  0  0  0  0  0  0  0  0  0
    8.3766   -1.5214    1.6280 H   0  0  0  0  0  0  0  0  0  0  0  0
    8.5947    0.6844    2.6864 H   0  0  0  0  0  0  0  0  0  0  0  0
    4.8017    1.7511    1.0414 H   0  0  0  0  0  0  0  0  0  0  0  0
    6.8181    3.4545    1.8992 H   0  0  0  0  0  0  0  0  0  0  0  0
  1  2  1  0
  2  3  2  0
  3  4  1  0
  4  5  2  0
  5  6  1  0
  6  7  2  0
  6  8  1  0
  8  9  1  0
  9 10  1  0
 10 11  1  0
 10 12  1  0
 12 13  2  0
 12 14  1  0
 14 15  1  0
 15 16  1  0
 16 17  1  0
 16 18  1  0
 15 19  1  0
 19 20  1  0
 20 21  1  0
 21 22  1  0
 22 23  1  0
 23 24  1  0
 24 25  1  0
 24 26  1  0
 23 27  1  6
 23 28  1  0
 28 29  2  0
 29 30  1  0
 30 31  2  0
 31 32  1  0
 32 33  2  0
 32 34  1  0
  7  2  1  0
 25 20  1  0
 33 28  1  0
 11  5  1  0
  1 35  1  0
  3 36  1  0
  4 37  1  0
  7 38  1  0
  8 39  1  0
  8 40  1  0
  9 41  1  0
  9 42  1  0
 10 43  1  1
 11 44  1  0
 11 45  1  0
 14 46  1  0
 15 47  1  6
 16 48  1  0
 17 49  1  0
 17 50  1  0
 17 51  1  0
 18 52  1  0
 18 53  1  0
 18 54  1  0
 19 55  1  0
 19 56  1  0
 21 57  1  0
 21 58  1  0
 22 59  1  0
 22 60  1  0
 24 61  1  6
 25 62  1  0
 25 63  1  0
 26 64  1  0
 26 65  1  0
 26 66  1  0
 27 67  1  0
 27 68  1  0
 27 69  1  0
 29 70  1  0
 30 71  1  0
 31 72  1  0
 33 73  1  0
 34 74  1  0
M  END
>  <Ligand ID>  (1) 
LIG0002306

>  <Ligand>  (1) 
CHEMBL1085024

>  <SMILES>  (1) 
Oc1ccc2c(c1)CC[C@@H](C2)C(=O)N[C@@H](C(C)C)CN1CC[C@@]([C@H](C1)C)(C)c1cccc(c1)O

>  <CID>  (1) 
11496383.0

>  <ChEMBL ID>  (1) 
nan

>  <InChiKey>  (1) 
WXGDFQBKLWJZDU-SHJHSYIFSA-N

>  <InChi>  (1) 
InChI=1S/C29H40N2O3/c1-19(2)27(30-28(34)23-9-8-22-15-26(33)11-10-21(22)14-23)18-31-13-12-29(4,20(3)17-31)24-6-5-7-25(32)16-24/h5-7,10-11,15-16,19-20,23,27,32-33H,8-9,12-14,17-18H2,1-4H3,(H,30,34)/t20-,23-,27+,29+/m0/s1

>  <IUPAC Name>  (1) 
(2S)-6-hydroxy-N-[(2S)-1-[(3R,4R)-4-(3-hydroxyphenyl)-3,4-dimethylpiperidin-1-yl]-3-methylbutan-2-yl]-1,2,3,4-tetrahydronaphthalene-2-carboxamide

$$$$
