
     RDKit          3D

 37 38  0  0  0  0  0  0  0  0999 V2000
   -3.2598   -2.8376   -1.0592 C   0  0  0  0  0  0  0  0  0  0  0  0
   -3.0027   -1.3362   -0.9671 C   0  0  0  0  0  0  0  0  0  0  0  0
   -1.5903   -1.1660   -0.4504 C   0  0  0  0  0  0  0  0  0  0  0  0
   -1.2061    0.2848   -0.3115 C   0  0  1  0  0  0  0  0  0  0  0  0
   -2.1354    0.9949    0.6540 C   0  0  0  0  0  0  0  0  0  0  0  0
   -1.6702    2.3492    1.0400 C   0  0  0  0  0  0  0  0  0  0  0  0
   -0.2099    2.4068    1.4229 C   0  0  0  0  0  0  0  0  0  0  0  0
    0.5576    1.8597    0.2399 C   0  0  0  0  0  0  0  0  0  0  0  0
    0.2289    0.3816    0.1528 C   0  0  0  0  0  0  0  0  0  0  0  0
    1.1065   -0.3228   -0.7214 N   0  0  0  0  0  0  0  0  0  0  0  0
    2.5069   -0.3360   -0.3815 C   0  0  0  0  0  0  0  0  0  0  0  0
    2.9990   -0.1392    0.7916 N   0  0  0  0  0  0  0  0  0  0  0  0
    4.4400   -0.2177    0.8016 C   0  0  0  0  0  0  0  0  0  0  0  0
    4.7493   -0.8700   -0.5250 C   0  0  0  0  0  0  0  0  0  0  0  0
    3.5702   -0.5660   -1.2744 O   0  0  0  0  0  0  0  0  0  0  0  0
   -3.0451   -3.2152   -2.0813 H   0  0  0  0  0  0  0  0  0  0  0  0
   -2.5746   -3.3828   -0.3828 H   0  0  0  0  0  0  0  0  0  0  0  0
   -4.3169   -3.0635   -0.7742 H   0  0  0  0  0  0  0  0  0  0  0  0
   -3.0896   -0.9564   -2.0072 H   0  0  0  0  0  0  0  0  0  0  0  0
   -3.7729   -0.9204   -0.3164 H   0  0  0  0  0  0  0  0  0  0  0  0
   -0.9464   -1.6128   -1.2325 H   0  0  0  0  0  0  0  0  0  0  0  0
   -1.5069   -1.6419    0.5396 H   0  0  0  0  0  0  0  0  0  0  0  0
   -1.2985    0.8029   -1.2862 H   0  0  0  0  0  0  0  0  0  0  0  0
   -3.0956    1.1435    0.0808 H   0  0  0  0  0  0  0  0  0  0  0  0
   -2.2907    0.3977    1.5746 H   0  0  0  0  0  0  0  0  0  0  0  0
   -1.8764    3.0968    0.2547 H   0  0  0  0  0  0  0  0  0  0  0  0
   -2.2267    2.6730    1.9437 H   0  0  0  0  0  0  0  0  0  0  0  0
    0.0307    3.4601    1.6399 H   0  0  0  0  0  0  0  0  0  0  0  0
   -0.0360    1.7535    2.2928 H   0  0  0  0  0  0  0  0  0  0  0  0
    1.6165    2.0654    0.3801 H   0  0  0  0  0  0  0  0  0  0  0  0
    0.1977    2.4068   -0.6661 H   0  0  0  0  0  0  0  0  0  0  0  0
    0.2514   -0.0070    1.2040 H   0  0  0  0  0  0  0  0  0  0  0  0
    0.8582   -0.8333   -1.5896 H   0  0  0  0  0  0  0  0  0  0  0  0
    4.7284   -0.9485    1.5991 H   0  0  0  0  0  0  0  0  0  0  0  0
    4.9311    0.7534    0.9200 H   0  0  0  0  0  0  0  0  0  0  0  0
    4.7563   -1.9851   -0.4630 H   0  0  0  0  0  0  0  0  0  0  0  0
    5.6220   -0.4715   -1.0424 H   0  0  0  0  0  0  0  0  0  0  0  0
  1  2  1  0
  2  3  1  0
  3  4  1  0
  4  5  1  0
  5  6  1  0
  6  7  1  0
  7  8  1  0
  8  9  1  0
  9 10  1  0
 10 11  1  0
 11 12  2  0
 12 13  1  0
 13 14  1  0
 14 15  1  0
  9  4  1  0
 15 11  1  0
  1 16  1  0
  1 17  1  0
  1 18  1  0
  2 19  1  0
  2 20  1  0
  3 21  1  0
  3 22  1  0
  4 23  1  6
  5 24  1  0
  5 25  1  0
  6 26  1  0
  6 27  1  0
  7 28  1  0
  7 29  1  0
  8 30  1  0
  8 31  1  0
  9 32  1  0
 10 33  1  0
 13 34  1  0
 13 35  1  0
 14 36  1  0
 14 37  1  0
M  END
>  <Ligand ID>  (1) 
LIG0004088

>  <Ligand>  (1) 
CHEMBL310335

>  <SMILES>  (1) 
CCC[C@H]1CCCCC1NC1=NCCO1

>  <CID>  (1) 
44314198.0

>  <ChEMBL ID>  (1) 
nan

>  <InChiKey>  (1) 
WDSZUSABLKNHCZ-VUWPPUDQSA-N

>  <InChi>  (1) 
InChI=1S/C12H22N2O/c1-2-5-10-6-3-4-7-11(10)14-12-13-8-9-15-12/h10-11H,2-9H2,1H3,(H,13,14)/t10-,11?/m0/s1

>  <IUPAC Name>  (1) 
N-[(2S)-2-propylcyclohexyl]-4,5-dihydro-1,3-oxazol-2-amine

$$$$
