
     RDKit          3D

 73 77  0  0  0  0  0  0  0  0999 V2000
    7.2432   -2.8286    1.6302 O   0  0  0  0  0  0  0  0  0  0  0  0
    6.4735   -2.6757    0.4735 C   0  0  0  0  0  0  0  0  0  0  0  0
    5.2525   -3.5444    0.4867 C   0  0  0  0  0  0  0  0  0  0  0  0
    4.5055   -3.3694   -0.6607 O   0  0  0  0  0  0  0  0  0  0  0  0
    3.8509   -2.2448   -1.0266 C   0  0  0  0  0  0  0  0  0  0  0  0
    3.1902   -2.2876   -2.2723 C   0  0  0  0  0  0  0  0  0  0  0  0
    2.4877   -1.2291   -2.7670 C   0  0  0  0  0  0  0  0  0  0  0  0
    2.3883   -0.0554   -2.0672 C   0  0  0  0  0  0  0  0  0  0  0  0
    3.0173    0.0312   -0.8450 C   0  0  0  0  0  0  0  0  0  0  0  0
    3.7356   -1.0643   -0.3479 C   0  0  0  0  0  0  0  0  0  0  0  0
    2.9440    1.2701   -0.0699 C   0  0  0  0  0  0  0  0  0  0  0  0
    4.0718    2.0035    0.1625 N   0  0  0  0  0  0  0  0  0  0  0  0
    3.7238    3.0608    0.8779 C   0  0  0  0  0  0  0  0  0  0  0  0
    2.3867    2.9891    1.0916 C   0  0  0  0  0  0  0  0  0  0  0  0
    1.8805    1.8613    0.4977 N   0  0  0  0  0  0  0  0  0  0  0  0
    0.5012    1.4911    0.5345 C   0  0  0  0  0  0  0  0  0  0  0  0
   -0.3245    2.2208   -0.5138 C   0  0  0  0  0  0  0  0  0  0  0  0
   -1.7770    1.8203   -0.1689 C   0  0  0  0  0  0  0  0  0  0  0  0
   -1.9100    0.5499   -0.7601 N   0  0  0  0  0  0  0  0  0  0  0  0
   -0.8920   -0.3888   -0.4467 C   0  0  0  0  0  0  0  0  0  0  0  0
    0.1514    0.0666    0.5450 C   0  0  0  0  0  0  0  0  0  0  0  0
   -3.2720   -0.0010   -0.8399 C   0  0  0  0  0  0  0  0  0  0  0  0
   -3.9993    1.1801   -1.5138 C   0  0  0  0  0  0  0  0  0  0  0  0
   -3.6951   -0.0761    0.5536 C   0  0  0  0  0  0  0  0  0  0  0  0
   -5.0582   -0.4008    0.9972 C   0  0  0  0  0  0  0  0  0  0  0  0
   -5.5196   -1.7798    1.3527 C   0  0  0  0  0  0  0  0  0  0  0  0
   -5.7139   -2.7149    0.1139 C   0  0  0  0  0  0  0  0  0  0  0  0
   -4.7023   -2.1986   -0.7355 C   0  0  0  0  0  0  0  0  0  0  0  0
   -4.0911   -2.1697   -2.0093 C   0  0  0  0  0  0  0  0  0  0  0  0
   -3.0479   -1.0470   -1.8343 C   0  0  0  0  0  0  0  0  0  0  0  0
    1.7402    3.9833    1.8258 C   0  0  0  0  0  0  0  0  0  0  0  0
    2.4520    5.0416    2.3375 C   0  0  0  0  0  0  0  0  0  0  0  0
    3.8134    5.1089    2.1164 C   0  0  0  0  0  0  0  0  0  0  0  0
    4.4684    4.1254    1.3871 C   0  0  0  0  0  0  0  0  0  0  0  0
    7.8862   -2.0719    1.6569 H   0  0  0  0  0  0  0  0  0  0  0  0
    7.1276   -3.0769   -0.3732 H   0  0  0  0  0  0  0  0  0  0  0  0
    6.2193   -1.6366    0.2817 H   0  0  0  0  0  0  0  0  0  0  0  0
    4.6131   -3.1449    1.3399 H   0  0  0  0  0  0  0  0  0  0  0  0
    5.5037   -4.6154    0.6925 H   0  0  0  0  0  0  0  0  0  0  0  0
    3.2300   -3.1965   -2.8823 H   0  0  0  0  0  0  0  0  0  0  0  0
    1.9936   -1.3199   -3.7428 H   0  0  0  0  0  0  0  0  0  0  0  0
    1.8212    0.7479   -2.5113 H   0  0  0  0  0  0  0  0  0  0  0  0
    4.1666   -0.9128    0.6266 H   0  0  0  0  0  0  0  0  0  0  0  0
    0.1049    1.9244    1.5155 H   0  0  0  0  0  0  0  0  0  0  0  0
   -0.0400    1.8319   -1.4917 H   0  0  0  0  0  0  0  0  0  0  0  0
   -0.2046    3.3226   -0.4234 H   0  0  0  0  0  0  0  0  0  0  0  0
   -2.3797    2.6286   -0.6050 H   0  0  0  0  0  0  0  0  0  0  0  0
   -1.8046    1.8932    0.9323 H   0  0  0  0  0  0  0  0  0  0  0  0
   -0.3531   -0.6418   -1.3825 H   0  0  0  0  0  0  0  0  0  0  0  0
   -1.2716   -1.3623   -0.0435 H   0  0  0  0  0  0  0  0  0  0  0  0
   -0.2358   -0.2439    1.5667 H   0  0  0  0  0  0  0  0  0  0  0  0
    1.0139   -0.6473    0.4121 H   0  0  0  0  0  0  0  0  0  0  0  0
   -4.9314    0.8653   -2.0091 H   0  0  0  0  0  0  0  0  0  0  0  0
   -3.3399    1.5001   -2.3430 H   0  0  0  0  0  0  0  0  0  0  0  0
   -4.2727    1.9665   -0.8143 H   0  0  0  0  0  0  0  0  0  0  0  0
   -2.9622   -0.4993    1.2749 H   0  0  0  0  0  0  0  0  0  0  0  0
   -3.5997    1.0248    0.8584 H   0  0  0  0  0  0  0  0  0  0  0  0
   -5.2052    0.0891    2.0201 H   0  0  0  0  0  0  0  0  0  0  0  0
   -5.8374    0.1942    0.4325 H   0  0  0  0  0  0  0  0  0  0  0  0
   -4.7613   -2.2200    2.0053 H   0  0  0  0  0  0  0  0  0  0  0  0
   -6.5165   -1.6922    1.7680 H   0  0  0  0  0  0  0  0  0  0  0  0
   -5.5138   -3.7427    0.5249 H   0  0  0  0  0  0  0  0  0  0  0  0
   -6.7487   -2.7047   -0.2296 H   0  0  0  0  0  0  0  0  0  0  0  0
   -3.8311   -2.3876   -0.1226 H   0  0  0  0  0  0  0  0  0  0  0  0
   -5.1974   -1.2241   -0.8816 H   0  0  0  0  0  0  0  0  0  0  0  0
   -3.5800   -3.1542   -2.2240 H   0  0  0  0  0  0  0  0  0  0  0  0
   -4.7201   -2.0133   -2.9117 H   0  0  0  0  0  0  0  0  0  0  0  0
   -2.0708   -1.5698   -1.8412 H   0  0  0  0  0  0  0  0  0  0  0  0
   -3.0552   -0.5264   -2.8398 H   0  0  0  0  0  0  0  0  0  0  0  0
    0.6679    3.9443    2.0085 H   0  0  0  0  0  0  0  0  0  0  0  0
    1.9238    5.8066    2.9084 H   0  0  0  0  0  0  0  0  0  0  0  0
    4.3458    5.9589    2.5349 H   0  0  0  0  0  0  0  0  0  0  0  0
    5.5398    4.1785    1.2132 H   0  0  0  0  0  0  0  0  0  0  0  0
  1  2  1  0
  2  3  1  0
  3  4  1  0
  4  5  1  0
  5  6  2  0
  6  7  1  0
  7  8  2  0
  8  9  1  0
  9 10  2  0
  9 11  1  0
 11 12  2  0
 12 13  1  0
 13 14  2  0
 14 15  1  0
 15 16  1  0
 16 17  1  0
 17 18  1  0
 18 19  1  0
 19 20  1  0
 20 21  1  0
 19 22  1  0
 22 23  1  0
 22 24  1  0
 24 25  1  0
 25 26  1  0
 26 27  1  0
 27 28  1  0
 28 29  1  0
 29 30  1  0
 14 31  1  0
 31 32  2  0
 32 33  1  0
 33 34  2  0
 10  5  1  0
 15 11  1  0
 21 16  1  0
 30 22  1  0
 34 13  1  0
  1 35  1  0
  2 36  1  0
  2 37  1  0
  3 38  1  0
  3 39  1  0
  6 40  1  0
  7 41  1  0
  8 42  1  0
 10 43  1  0
 16 44  1  0
 17 45  1  0
 17 46  1  0
 18 47  1  0
 18 48  1  0
 20 49  1  0
 20 50  1  0
 21 51  1  0
 21 52  1  0
 23 53  1  0
 23 54  1  0
 23 55  1  0
 24 56  1  0
 24 57  1  0
 25 58  1  0
 25 59  1  0
 26 60  1  0
 26 61  1  0
 27 62  1  0
 27 63  1  0
 28 64  1  0
 28 65  1  0
 29 66  1  0
 29 67  1  0
 30 68  1  0
 30 69  1  0
 31 70  1  0
 32 71  1  0
 33 72  1  0
 34 73  1  0
M  END
>  <Ligand ID>  (1) 
LIG0003572

>  <Ligand>  (1) 
CHEMBL480425

>  <SMILES>  (1) 
OCCOc1cccc(c1)c1nc2c(n1C1CCN(CC1)C1(C)CCCCCCC1)cccc2

>  <CID>  (1) 
25207948.0

>  <ChEMBL ID>  (1) 
nan

>  <InChiKey>  (1) 
LQDNZHDYOIKMCY-UHFFFAOYSA-N

>  <InChi>  (1) 
InChI=1S/C29H39N3O2/c1-29(16-7-3-2-4-8-17-29)31-18-14-24(15-19-31)32-27-13-6-5-12-26(27)30-28(32)23-10-9-11-25(22-23)34-21-20-33/h5-6,9-13,22,24,33H,2-4,7-8,14-21H2,1H3

>  <IUPAC Name>  (1) 
2-[3-[1-[1-(1-methylcyclooctyl)piperidin-4-yl]benzimidazol-2-yl]phenoxy]ethanol

$$$$
