
     RDKit          3D

 43 46  0  0  0  0  0  0  0  0999 V2000
   -4.3641    5.2887   -0.5019 F   0  0  0  0  0  0  0  0  0  0  0  0
   -3.3015    4.4380   -0.4169 C   0  0  0  0  0  0  0  0  0  0  0  0
   -2.0535    4.9940   -0.5956 C   0  0  0  0  0  0  0  0  0  0  0  0
   -0.9407    4.1493   -0.5148 C   0  0  0  0  0  0  0  0  0  0  0  0
   -1.1579    2.8104   -0.2613 C   0  0  0  0  0  0  0  0  0  0  0  0
   -2.4094    2.2645   -0.0842 C   0  0  0  0  0  0  0  0  0  0  0  0
   -3.5087    3.0978   -0.1637 C   0  0  0  0  0  0  0  0  0  0  0  0
   -2.5126    0.9097    0.1650 C   0  0  0  0  0  0  0  0  0  0  0  0
   -3.6683    0.4270    0.3247 O   0  0  0  0  0  0  0  0  0  0  0  0
   -1.3955    0.1295    0.2339 N   0  0  0  0  0  0  0  0  0  0  0  0
   -0.1793    0.6801    0.0582 C   0  0  0  0  0  0  0  0  0  0  0  0
   -0.0866    2.0004   -0.1841 N   0  0  0  0  0  0  0  0  0  0  0  0
    1.0531   -0.1192    0.1233 C   0  0  0  0  0  0  0  0  0  0  0  0
    2.2356    0.4554   -0.0547 C   0  0  0  0  0  0  0  0  0  0  0  0
    3.4947   -0.2715   -0.0043 C   0  0  0  0  0  0  0  0  0  0  0  0
    4.6966    0.3780   -0.1971 C   0  0  0  0  0  0  0  0  0  0  0  0
    5.9185   -0.2571   -0.1607 C   0  0  0  0  0  0  0  0  0  0  0  0
    5.9151   -1.6164    0.0834 C   0  0  0  0  0  0  0  0  0  0  0  0
    4.6968   -2.2482    0.2741 C   0  0  0  0  0  0  0  0  0  0  0  0
    3.5232   -1.5964    0.2316 N   0  0  0  0  0  0  0  0  0  0  0  0
   -1.5260   -1.2634    0.4916 C   0  0  0  0  0  0  0  0  0  0  0  0
   -1.2196   -1.8390    1.7091 C   0  0  0  0  0  0  0  0  0  0  0  0
   -1.3738   -3.2091    1.8832 C   0  0  0  0  0  0  0  0  0  0  0  0
   -1.8274   -4.0368    0.8767 C   0  0  0  0  0  0  0  0  0  0  0  0
   -2.1326   -3.4584   -0.3385 C   0  0  0  0  0  0  0  0  0  0  0  0
   -1.9813   -2.1087   -0.5117 C   0  0  0  0  0  0  0  0  0  0  0  0
   -2.3298   -1.5508   -1.8504 C   0  0  0  0  0  0  0  0  0  0  0  0
   -1.8555    6.0199   -0.7918 H   0  0  0  0  0  0  0  0  0  0  0  0
    0.0659    4.5432   -0.6492 H   0  0  0  0  0  0  0  0  0  0  0  0
   -4.5074    2.6768   -0.0250 H   0  0  0  0  0  0  0  0  0  0  0  0
    1.0015   -1.1805    0.3169 H   0  0  0  0  0  0  0  0  0  0  0  0
    2.2344    1.5123   -0.2441 H   0  0  0  0  0  0  0  0  0  0  0  0
    4.6608    1.4424   -0.3858 H   0  0  0  0  0  0  0  0  0  0  0  0
    6.8362    0.3095   -0.3207 H   0  0  0  0  0  0  0  0  0  0  0  0
    6.8561   -2.1274    0.1153 H   0  0  0  0  0  0  0  0  0  0  0  0
    4.7638   -3.3311    0.4641 H   0  0  0  0  0  0  0  0  0  0  0  0
   -0.8617   -1.2202    2.5195 H   0  0  0  0  0  0  0  0  0  0  0  0
   -1.1289   -3.6338    2.8397 H   0  0  0  0  0  0  0  0  0  0  0  0
   -1.9588   -5.0975    0.9742 H   0  0  0  0  0  0  0  0  0  0  0  0
   -2.4942   -4.0967   -1.1510 H   0  0  0  0  0  0  0  0  0  0  0  0
   -1.5810   -0.7482   -2.1126 H   0  0  0  0  0  0  0  0  0  0  0  0
   -3.3724   -1.1771   -1.8932 H   0  0  0  0  0  0  0  0  0  0  0  0
   -2.2237   -2.3394   -2.6365 H   0  0  0  0  0  0  0  0  0  0  0  0
  1  2  1  0
  2  3  2  0
  3  4  1  0
  4  5  2  0
  5  6  1  0
  6  7  2  0
  6  8  1  0
  8  9  2  0
  8 10  1  0
 10 11  1  0
 11 12  2  0
 11 13  1  0
 13 14  2  0
 14 15  1  0
 15 16  2  0
 16 17  1  0
 17 18  2  0
 18 19  1  0
 19 20  2  0
 10 21  1  0
 21 22  2  0
 22 23  1  0
 23 24  2  0
 24 25  1  0
 25 26  2  0
 26 27  1  0
  7  2  1  0
 20 15  1  0
 26 21  1  0
 12  5  1  0
  3 28  1  0
  4 29  1  0
  7 30  1  0
 13 31  1  0
 14 32  1  0
 16 33  1  0
 17 34  1  0
 18 35  1  0
 19 36  1  0
 22 37  1  0
 23 38  1  0
 24 39  1  0
 25 40  1  0
 27 41  1  0
 27 42  1  0
 27 43  1  0
M  END
>  <Ligand ID>  (1) 
LIG0003870

>  <Ligand>  (1) 
CHEMBL422227

>  <SMILES>  (1) 
Fc1ccc2c(c1)c(=O)n(c(n2)/C=C/c1ccccn1)c1ccccc1C

>  <CID>  (1) 
44295970.0

>  <ChEMBL ID>  (1) 
nan

>  <InChiKey>  (1) 
RYKLJXQBRBGNBO-ZRDIBKRKSA-N

>  <InChi>  (1) 
InChI=1S/C22H16FN3O/c1-15-6-2-3-8-20(15)26-21(12-10-17-7-4-5-13-24-17)25-19-11-9-16(23)14-18(19)22(26)27/h2-14H,1H3/b12-10+

>  <IUPAC Name>  (1) 
6-fluoro-3-(2-methylphenyl)-2-[(E)-2-pyridin-2-ylethenyl]quinazolin-4-one

$$$$
