
     RDKit          3D

 54 55  0  0  0  0  0  0  0  0999 V2000
   -4.4073   -3.5553    0.7517 O   0  0  0  0  0  0  0  0  0  0  0  0
   -4.1306   -2.3374    0.1510 C   0  0  2  0  0  0  0  0  0  0  0  0
   -3.2233   -1.4506    0.9779 C   0  0  1  0  0  0  0  0  0  0  0  0
   -1.7793   -1.8726    0.8720 C   0  0  0  0  0  0  0  0  0  0  0  0
   -0.8981   -0.9798    1.4062 O   0  0  0  0  0  0  0  0  0  0  0  0
    0.7112   -1.4336    1.2966 P   0  0  0  0  0  0  0  0  0  0  0  0
    0.7853   -2.9456    1.4484 O   0  0  0  0  0  0  0  0  0  0  0  0
    1.2361   -1.1097   -0.2805 O   0  0  0  0  0  0  0  0  0  0  0  0
    1.8580    0.4301   -0.4490 P   0  0  0  0  0  0  0  0  0  0  0  0
    2.1466    1.0077    0.9180 O   0  0  0  0  0  0  0  0  0  0  0  0
    3.3058    0.3844   -1.3273 O   0  0  0  0  0  0  0  0  0  0  0  0
    4.5292   -0.3847   -0.4610 P   0  0  0  0  0  0  0  0  0  0  0  0
    3.8999   -1.5379    0.3062 O   0  0  0  0  0  0  0  0  0  0  0  0
    5.3710    0.6759    0.5200 O   0  0  0  0  0  0  0  0  0  0  0  0
    6.8591    1.1214   -0.1527 P   0  0  0  0  0  0  0  0  0  0  0  0
    7.5218   -0.0563   -0.8398 O   0  0  0  0  0  0  0  0  0  0  0  0
    7.8813    1.7795    1.0191 O   0  0  0  0  0  0  0  0  0  0  0  0
    9.3561    0.9754    1.0646 P   0  0  0  0  0  0  0  0  0  0  0  0
   10.4597    1.8830    1.5580 O   0  0  0  0  0  0  0  0  0  0  0  0
    9.7916    0.4026   -0.4470 O   0  0  0  0  0  0  0  0  0  0  0  0
    9.1930   -0.3366    2.1218 O   0  0  0  0  0  0  0  0  0  0  0  0
    6.6056    2.2881   -1.3417 O   0  0  0  0  0  0  0  0  0  0  0  0
    5.6188   -1.0131   -1.6077 O   0  0  0  0  0  0  0  0  0  0  0  0
    0.7810    1.4788   -1.2256 O   0  0  0  0  0  0  0  0  0  0  0  0
    1.6864   -0.7275    2.4461 O   0  0  0  0  0  0  0  0  0  0  0  0
   -3.4353   -0.2243    0.3038 O   0  0  0  0  0  0  0  0  0  0  0  0
   -4.8075   -0.1237    0.4190 C   0  0  2  0  0  0  0  0  0  0  0  0
   -5.3904   -1.4638    0.1054 C   0  0  2  0  0  0  0  0  0  0  0  0
   -6.2437   -1.9187    1.1163 O   0  0  0  0  0  0  0  0  0  0  0  0
   -5.3897    0.9794   -0.2904 N   0  0  0  0  0  0  0  0  0  0  0  0
   -6.0126    2.0202    0.3277 C   0  0  0  0  0  0  0  0  0  0  0  0
   -6.5633    3.0678   -0.3827 C   0  0  0  0  0  0  0  0  0  0  0  0
   -6.4988    3.0942   -1.7722 C   0  0  0  0  0  0  0  0  0  0  0  0
   -6.9788    4.0143   -2.4619 O   0  0  0  0  0  0  0  0  0  0  0  0
   -5.8739    2.0459   -2.3502 N   0  0  0  0  0  0  0  0  0  0  0  0
   -5.3433    1.0340   -1.6396 C   0  0  0  0  0  0  0  0  0  0  0  0
   -4.6191   -0.1594   -2.5234 S   0  0  0  0  0  0  0  0  0  0  0  0
   -3.8876   -4.2854    0.3548 H   0  0  0  0  0  0  0  0  0  0  0  0
   -3.6722   -2.4751   -0.8327 H   0  0  0  0  0  0  0  0  0  0  0  0
   -3.5741   -1.4440    2.0093 H   0  0  0  0  0  0  0  0  0  0  0  0
   -1.5279   -2.1648   -0.1702 H   0  0  0  0  0  0  0  0  0  0  0  0
   -1.6927   -2.8086    1.4758 H   0  0  0  0  0  0  0  0  0  0  0  0
   10.2542    1.1566   -0.9281 H   0  0  0  0  0  0  0  0  0  0  0  0
    8.2619   -0.6679    2.0874 H   0  0  0  0  0  0  0  0  0  0  0  0
    5.6809    2.6476   -1.2710 H   0  0  0  0  0  0  0  0  0  0  0  0
    5.2647   -1.8032   -2.0794 H   0  0  0  0  0  0  0  0  0  0  0  0
    1.2751    2.2487   -1.6079 H   0  0  0  0  0  0  0  0  0  0  0  0
    1.2636   -0.0396    3.0035 H   0  0  0  0  0  0  0  0  0  0  0  0
   -5.0091    0.0590    1.5150 H   0  0  0  0  0  0  0  0  0  0  0  0
   -5.9365   -1.5443   -0.8333 H   0  0  0  0  0  0  0  0  0  0  0  0
   -5.7623   -1.8824    1.9919 H   0  0  0  0  0  0  0  0  0  0  0  0
   -6.0550    1.9869    1.3978 H   0  0  0  0  0  0  0  0  0  0  0  0
   -7.0556    3.8889    0.1207 H   0  0  0  0  0  0  0  0  0  0  0  0
   -5.8303    2.0758   -3.4084 H   0  0  0  0  0  0  0  0  0  0  0  0
  1  2  1  0
  2  3  1  0
  3  4  1  0
  4  5  1  0
  5  6  1  0
  6  7  2  0
  6  8  1  0
  8  9  1  0
  9 10  2  0
  9 11  1  0
 11 12  1  0
 12 13  2  0
 12 14  1  0
 14 15  1  0
 15 16  2  0
 15 17  1  0
 17 18  1  0
 18 19  2  0
 18 20  1  0
 18 21  1  0
 15 22  1  0
 12 23  1  0
  9 24  1  0
  6 25  1  0
  3 26  1  0
 26 27  1  0
 27 28  1  0
 28 29  1  0
 27 30  1  0
 30 31  1  0
 31 32  2  0
 32 33  1  0
 33 34  2  0
 33 35  1  0
 35 36  1  0
 36 37  2  0
 28  2  1  0
 36 30  1  0
  1 38  1  0
  2 39  1  6
  3 40  1  1
  4 41  1  0
  4 42  1  0
 20 43  1  0
 21 44  1  0
 22 45  1  0
 23 46  1  0
 24 47  1  0
 25 48  1  0
 27 49  1  1
 28 50  1  6
 29 51  1  0
 31 52  1  0
 32 53  1  0
 35 54  1  0
M  END
>  <Ligand ID>  (1) 
LIG0002844

>  <Ligand>  (1) 
CHEMBL482683

>  <SMILES>  (1) 
O[C@@H]1[C@@H](COP(=O)(OP(=O)(OP(=O)(OP(=O)(OP(=O)(O)O)O)O)O)O)O[C@H]([C@@H]1O)n1ccc(=O)[nH]c1=S

>  <CID>  (1) 
44586027.0

>  <ChEMBL ID>  (1) 
nan

>  <InChiKey>  (1) 
HBRMVVAUYWZZGM-XVFCMESISA-N

>  <InChi>  (1) 
InChI=1S/C9H17N2O20P5S/c12-5-1-2-11(9(37)10-5)8-7(14)6(13)4(27-8)3-26-33(18,19)29-35(22,23)31-36(24,25)30-34(20,21)28-32(15,16)17/h1-2,4,6-8,13-14H,3H2,(H,18,19)(H,20,21)(H,22,23)(H,24,25)(H,10,12,37)(H2,15,16,17)/t4-,6-,7-,8-/m1/s1

>  <IUPAC Name>  (1) 
[[(2R,3S,4R,5R)-3,4-dihydroxy-5-(4-oxo-2-sulfanylidenepyrimidin-1-yl)oxolan-2-yl]methoxy-hydroxyphosphoryl] [hydroxy-[hydroxy(phosphonooxy)phosphoryl]oxyphosphoryl] hydrogen phosphate

$$$$
