
     RDKit          3D

 50 52  0  0  0  0  0  0  0  0999 V2000
   -4.1047    2.9276   -0.6300 C   0  0  0  0  0  0  0  0  0  0  0  0
   -3.1516    2.4240    0.4437 C   0  0  1  0  0  0  0  0  0  0  0  0
   -3.5601    2.9427    1.8095 C   0  0  0  0  0  0  0  0  0  0  0  0
   -2.7092    2.4992    2.8050 F   0  0  0  0  0  0  0  0  0  0  0  0
   -3.4935    4.3192    1.7595 F   0  0  0  0  0  0  0  0  0  0  0  0
   -4.8137    2.4889    2.1256 F   0  0  0  0  0  0  0  0  0  0  0  0
   -3.2153    1.0327    0.4499 O   0  0  0  0  0  0  0  0  0  0  0  0
   -2.1814    0.1543    0.2142 C   0  0  0  0  0  0  0  0  0  0  0  0
   -0.8910    0.5176   -0.0717 C   0  0  0  0  0  0  0  0  0  0  0  0
    0.0848   -0.4001   -0.2947 C   0  0  0  0  0  0  0  0  0  0  0  0
   -0.2735   -1.7122   -0.2222 N   0  0  0  0  0  0  0  0  0  0  0  0
   -1.5098   -2.1342    0.0513 C   0  0  0  0  0  0  0  0  0  0  0  0
   -2.5041   -1.2072    0.2785 C   0  0  0  0  0  0  0  0  0  0  0  0
   -3.8529   -1.6448    0.5771 C   0  0  0  0  0  0  0  0  0  0  0  0
   -4.3663   -0.9474    1.6674 F   0  0  0  0  0  0  0  0  0  0  0  0
   -4.2103   -3.0680    0.6486 C   0  0  0  0  0  0  0  0  0  0  0  0
   -5.2930   -2.7925   -0.2185 O   0  0  0  0  0  0  0  0  0  0  0  0
   -4.7538   -1.5652   -0.6482 C   0  0  0  0  0  0  0  0  0  0  0  0
    1.4808   -0.0252   -0.6041 C   0  0  0  0  0  0  0  0  0  0  0  0
    1.7190    1.2031   -0.6503 O   0  0  0  0  0  0  0  0  0  0  0  0
    2.4743   -1.0330   -0.8316 N   0  0  0  0  0  0  0  0  0  0  0  0
    3.8389   -0.7788   -1.1174 C   0  0  0  0  0  0  0  0  0  0  0  0
    4.0015    0.2058   -2.2316 C   0  0  0  0  0  0  0  0  0  0  0  0
    4.1275    0.9978   -3.0968 N   0  0  0  0  0  0  0  0  0  0  0  0
    4.8785   -0.7371   -0.1275 C   0  0  0  0  0  0  0  0  0  0  0  0
    4.9637    0.1498    1.0226 C   0  0  0  0  0  0  0  0  0  0  0  0
    4.9676    1.6345    0.6942 C   0  0  0  0  0  0  0  0  0  0  0  0
    4.0376    1.0137    1.7031 C   0  0  0  0  0  0  0  0  0  0  0  0
    4.2116   -2.1063   -1.9343 C   0  0  0  0  0  0  0  0  0  0  0  0
   -5.1658    2.8491   -0.3144 H   0  0  0  0  0  0  0  0  0  0  0  0
   -3.9003    2.3540   -1.5606 H   0  0  0  0  0  0  0  0  0  0  0  0
   -3.9178    3.9953   -0.8292 H   0  0  0  0  0  0  0  0  0  0  0  0
   -2.1711    2.8534    0.2274 H   0  0  0  0  0  0  0  0  0  0  0  0
   -0.6401    1.5587   -0.1218 H   0  0  0  0  0  0  0  0  0  0  0  0
   -1.6688   -3.2044    0.0807 H   0  0  0  0  0  0  0  0  0  0  0  0
   -3.6022   -3.8412    0.1950 H   0  0  0  0  0  0  0  0  0  0  0  0
   -4.5770   -3.4165    1.6508 H   0  0  0  0  0  0  0  0  0  0  0  0
   -4.2062   -1.6398   -1.6076 H   0  0  0  0  0  0  0  0  0  0  0  0
   -5.4379   -0.7085   -0.5379 H   0  0  0  0  0  0  0  0  0  0  0  0
    2.0753   -2.0283   -0.7573 H   0  0  0  0  0  0  0  0  0  0  0  0
    5.8619   -0.5753   -0.7057 H   0  0  0  0  0  0  0  0  0  0  0  0
    5.0692   -1.8320    0.2066 H   0  0  0  0  0  0  0  0  0  0  0  0
    5.8935   -0.1320    1.6577 H   0  0  0  0  0  0  0  0  0  0  0  0
    5.8424    2.2312    0.9976 H   0  0  0  0  0  0  0  0  0  0  0  0
    4.5608    1.9719   -0.2788 H   0  0  0  0  0  0  0  0  0  0  0  0
    2.9573    1.0488    1.6372 H   0  0  0  0  0  0  0  0  0  0  0  0
    4.3409    1.3474    2.7570 H   0  0  0  0  0  0  0  0  0  0  0  0
    3.4406   -2.2291   -2.7168 H   0  0  0  0  0  0  0  0  0  0  0  0
    4.1188   -2.9560   -1.2353 H   0  0  0  0  0  0  0  0  0  0  0  0
    5.2251   -2.0057   -2.3158 H   0  0  0  0  0  0  0  0  0  0  0  0
  1  2  1  0
  2  3  1  0
  3  4  1  0
  3  5  1  0
  3  6  1  0
  2  7  1  0
  7  8  1  0
  8  9  2  0
  9 10  1  0
 10 11  2  0
 11 12  1  0
 12 13  2  0
 13 14  1  0
 14 15  1  0
 14 16  1  0
 16 17  1  0
 17 18  1  0
 10 19  1  0
 19 20  2  0
 19 21  1  0
 21 22  1  0
 22 23  1  0
 23 24  3  0
 22 25  1  0
 25 26  1  0
 26 27  1  0
 27 28  1  0
 22 29  1  0
 13  8  1  0
 18 14  1  0
 28 26  1  0
  1 30  1  0
  1 31  1  0
  1 32  1  0
  2 33  1  6
  9 34  1  0
 12 35  1  0
 16 36  1  0
 16 37  1  0
 18 38  1  0
 18 39  1  0
 21 40  1  0
 25 41  1  0
 25 42  1  0
 26 43  1  0
 27 44  1  0
 27 45  1  0
 28 46  1  0
 28 47  1  0
 29 48  1  0
 29 49  1  0
 29 50  1  0
M  END
>  <Ligand ID>  (1) 
LIG0005177

>  <Ligand>  (1) 
CHEMBL3922110

>  <SMILES>  (1) 
C[C@@H](C(F)(F)F)Oc1cc(ncc1C1(F)COC1)C(=O)NC(C#N)(CC1CC1)C

>  <CID>  (1) 
90203420.0

>  <ChEMBL ID>  (1) 
nan

>  <InChiKey>  (1) 
FUBOFIXTYZTJCN-PIJUOJQZSA-N

>  <InChi>  (1) 
InChI=1S/C19H21F4N3O3/c1-11(19(21,22)23)29-15-5-14(25-7-13(15)18(20)9-28-10-18)16(27)26-17(2,8-24)6-12-3-4-12/h5,7,11-12H,3-4,6,9-10H2,1-2H3,(H,26,27)/t11-,17?/m0/s1

>  <IUPAC Name>  (1) 
N-(2-cyano-1-cyclopropylpropan-2-yl)-5-(3-fluorooxetan-3-yl)-4-[(2S)-1,1,1-trifluoropropan-2-yl]oxypyridine-2-carboxamide

$$$$
