
     RDKit          3D

  8  7  0  0  0  0  0  0  0  0999 V2000
   -1.9404    0.9237   -0.0141 Cl  0  0  0  0  0  0  0  0  0  0  0  0
   -0.6781   -0.3295   -0.0497 C   0  0  0  0  0  0  0  0  0  0  0  0
    0.6869    0.3323    0.0522 C   0  0  0  0  0  0  0  0  0  0  0  0
    1.9432   -0.9261    0.0160 Cl  0  0  0  0  0  0  0  0  0  0  0  0
   -0.8108   -0.9889    0.8506 H   0  0  0  0  0  0  0  0  0  0  0  0
   -0.7060   -0.8739   -0.9990 H   0  0  0  0  0  0  0  0  0  0  0  0
    0.6572    0.9068    0.9887 H   0  0  0  0  0  0  0  0  0  0  0  0
    0.8480    0.9556   -0.8447 H   0  0  0  0  0  0  0  0  0  0  0  0
  1  2  1  0
  2  3  1  0
  3  4  1  0
  2  5  1  0
  2  6  1  0
  3  7  1  0
  3  8  1  0
M  END
>  <Ligand ID>  (1) 
LIG0000128

>  <Ligand>  (1) 
1,2-dichloroethane

>  <SMILES>  (1) 
ClCCCl

>  <CID>  (1) 
11.0

>  <ChEMBL ID>  (1) 
nan

>  <InChiKey>  (1) 
WSLDOOZREJYCGB-UHFFFAOYSA-N

>  <InChi>  (1) 
InChI=1S/C2H4Cl2/c3-1-2-4/h1-2H2

>  <IUPAC Name>  (1) 
1,2-dichloroethane

$$$$
