
     RDKit          3D

 65 69  0  0  0  0  0  0  0  0999 V2000
   -6.2323   -1.2044   -0.3920 O   0  0  0  0  0  0  0  0  0  0  0  0
   -4.8665   -1.2533   -0.5883 C   0  0  0  0  0  0  0  0  0  0  0  0
   -4.1462    0.0393   -0.4442 C   0  0  1  0  0  0  0  0  0  0  0  0
   -2.7123   -0.1410   -0.6669 N   0  0  0  0  0  0  0  0  0  0  0  0
   -1.9085   -0.9787    0.1486 C   0  0  0  0  0  0  0  0  0  0  0  0
   -2.4143   -1.6522    1.1873 N   0  0  0  0  0  0  0  0  0  0  0  0
   -1.6836   -2.4543    1.9811 C   0  0  0  0  0  0  0  0  0  0  0  0
   -2.2839   -3.1399    3.0668 N   0  0  0  0  0  0  0  0  0  0  0  0
   -0.3249   -2.6065    1.7258 C   0  0  0  0  0  0  0  0  0  0  0  0
    0.1698   -1.9006    0.6489 C   0  0  0  0  0  0  0  0  0  0  0  0
   -0.6096   -1.1111   -0.1123 N   0  0  0  0  0  0  0  0  0  0  0  0
    1.4900   -2.2038    0.6018 N   0  0  0  0  0  0  0  0  0  0  0  0
    1.7819   -3.0493    1.5976 C   0  0  0  0  0  0  0  0  0  0  0  0
    0.6597   -3.3107    2.3086 N   0  0  0  0  0  0  0  0  0  0  0  0
    2.4603   -1.7196   -0.3467 C   0  0  2  0  0  0  0  0  0  0  0  0
    3.6254   -0.9969    0.3025 C   0  0  0  0  0  0  0  0  0  0  0  0
    4.3491   -0.5359   -0.9623 C   0  0  1  0  0  0  0  0  0  0  0  0
    3.2105   -0.0220   -1.8045 C   0  0  2  0  0  0  0  0  0  0  0  0
    1.9339   -0.6576   -1.2511 C   0  0  1  0  0  0  0  0  0  0  0  0
    1.1013   -1.1307   -2.2615 O   0  0  0  0  0  0  0  0  0  0  0  0
    3.3895   -0.5195   -3.1112 O   0  0  0  0  0  0  0  0  0  0  0  0
    5.3544    0.4525   -0.7060 N   0  0  0  0  0  0  0  0  0  0  0  0
    5.6140    1.4960   -1.4948 N   0  0  0  0  0  0  0  0  0  0  0  0
    6.6091    2.2159   -0.9609 C   0  0  0  0  0  0  0  0  0  0  0  0
    6.9796    1.5867    0.2110 C   0  0  0  0  0  0  0  0  0  0  0  0
    6.1764    0.4668    0.3644 C   0  0  0  0  0  0  0  0  0  0  0  0
    8.0515    2.0387    1.1368 C   0  0  0  0  0  0  0  0  0  0  0  0
    7.5417    2.9777    2.2014 C   0  0  0  0  0  0  0  0  0  0  0  0
   -4.6534    1.1623   -1.2784 C   0  0  0  0  0  0  0  0  0  0  0  0
   -6.0386    1.5608   -1.0634 C   0  0  0  0  0  0  0  0  0  0  0  0
   -7.0926    1.0167   -1.8046 C   0  0  0  0  0  0  0  0  0  0  0  0
   -8.4034    1.4112   -1.5749 C   0  0  0  0  0  0  0  0  0  0  0  0
   -8.6931    2.3507   -0.6080 C   0  0  0  0  0  0  0  0  0  0  0  0
   -7.6571    2.9080    0.1444 C   0  0  0  0  0  0  0  0  0  0  0  0
   -6.3457    2.4964   -0.1036 C   0  0  0  0  0  0  0  0  0  0  0  0
   -6.6162   -2.0512   -0.6908 H   0  0  0  0  0  0  0  0  0  0  0  0
   -4.7269   -1.6873   -1.6199 H   0  0  0  0  0  0  0  0  0  0  0  0
   -4.4759   -2.0274    0.0967 H   0  0  0  0  0  0  0  0  0  0  0  0
   -4.2134    0.3448    0.6411 H   0  0  0  0  0  0  0  0  0  0  0  0
   -2.2674    0.3787   -1.4709 H   0  0  0  0  0  0  0  0  0  0  0  0
   -2.0204   -4.1220    3.2993 H   0  0  0  0  0  0  0  0  0  0  0  0
   -3.0004   -2.6314    3.6295 H   0  0  0  0  0  0  0  0  0  0  0  0
    2.7633   -3.4698    1.8147 H   0  0  0  0  0  0  0  0  0  0  0  0
    2.9089   -2.5182   -0.9605 H   0  0  0  0  0  0  0  0  0  0  0  0
    4.2293   -1.6974    0.9088 H   0  0  0  0  0  0  0  0  0  0  0  0
    3.2462   -0.1292    0.8832 H   0  0  0  0  0  0  0  0  0  0  0  0
    4.7502   -1.4604   -1.4177 H   0  0  0  0  0  0  0  0  0  0  0  0
    3.1390    1.0639   -1.8721 H   0  0  0  0  0  0  0  0  0  0  0  0
    1.4383    0.1243   -0.6518 H   0  0  0  0  0  0  0  0  0  0  0  0
    1.6281   -1.6852   -2.8893 H   0  0  0  0  0  0  0  0  0  0  0  0
    3.6544   -1.4863   -3.0194 H   0  0  0  0  0  0  0  0  0  0  0  0
    7.0860    3.1213   -1.3127 H   0  0  0  0  0  0  0  0  0  0  0  0
    6.1782   -0.2512    1.1454 H   0  0  0  0  0  0  0  0  0  0  0  0
    8.9167    2.4674    0.5808 H   0  0  0  0  0  0  0  0  0  0  0  0
    8.4356    1.1166    1.6433 H   0  0  0  0  0  0  0  0  0  0  0  0
    8.4074    3.2114    2.8522 H   0  0  0  0  0  0  0  0  0  0  0  0
    7.1468    3.9038    1.7723 H   0  0  0  0  0  0  0  0  0  0  0  0
    6.8051    2.4180    2.8132 H   0  0  0  0  0  0  0  0  0  0  0  0
   -4.0003    2.0488   -1.0786 H   0  0  0  0  0  0  0  0  0  0  0  0
   -4.5021    0.9328   -2.3644 H   0  0  0  0  0  0  0  0  0  0  0  0
   -6.9182    0.2806   -2.5758 H   0  0  0  0  0  0  0  0  0  0  0  0
   -9.2037    0.9603   -2.1780 H   0  0  0  0  0  0  0  0  0  0  0  0
   -9.7369    2.6492   -0.4419 H   0  0  0  0  0  0  0  0  0  0  0  0
   -7.8955    3.6453    0.9014 H   0  0  0  0  0  0  0  0  0  0  0  0
   -5.5878    2.9584    0.5053 H   0  0  0  0  0  0  0  0  0  0  0  0
  1  2  1  0
  2  3  1  0
  3  4  1  0
  4  5  1  0
  5  6  2  0
  6  7  1  0
  7  8  1  0
  7  9  2  0
  9 10  1  0
 10 11  2  0
 10 12  1  0
 12 13  1  0
 13 14  2  0
 12 15  1  0
 15 16  1  0
 16 17  1  0
 17 18  1  0
 18 19  1  0
 19 20  1  0
 18 21  1  0
 17 22  1  0
 22 23  1  0
 23 24  2  0
 24 25  1  0
 25 26  2  0
 25 27  1  0
 27 28  1  0
  3 29  1  0
 29 30  1  0
 30 31  2  0
 31 32  1  0
 32 33  2  0
 33 34  1  0
 34 35  2  0
 11  5  1  0
 19 15  1  0
 26 22  1  0
 35 30  1  0
 14  9  1  0
  1 36  1  0
  2 37  1  0
  2 38  1  0
  3 39  1  1
  4 40  1  0
  8 41  1  0
  8 42  1  0
 13 43  1  0
 15 44  1  6
 16 45  1  0
 16 46  1  0
 17 47  1  6
 18 48  1  6
 19 49  1  1
 20 50  1  0
 21 51  1  0
 24 52  1  0
 26 53  1  0
 27 54  1  0
 27 55  1  0
 28 56  1  0
 28 57  1  0
 28 58  1  0
 29 59  1  0
 29 60  1  0
 31 61  1  0
 32 62  1  0
 33 63  1  0
 34 64  1  0
 35 65  1  0
M  END
>  <Ligand ID>  (1) 
LIG0004124

>  <Ligand>  (1) 
CHEMBL599387

>  <SMILES>  (1) 
OC[C@@H](Nc1nc(N)c2c(n1)n(cn2)[C@@H]1C[C@@H]([C@H]([C@H]1O)O)n1ncc(c1)CC)Cc1ccccc1

>  <CID>  (1) 
11662965.0

>  <ChEMBL ID>  (1) 
nan

>  <InChiKey>  (1) 
AWTFOQMQANRSHW-WRJHFWDFSA-N

>  <InChi>  (1) 
InChI=1S/C24H30N8O3/c1-2-14-10-27-32(11-14)18-9-17(20(34)21(18)35)31-13-26-19-22(25)29-24(30-23(19)31)28-16(12-33)8-15-6-4-3-5-7-15/h3-7,10-11,13,16-18,20-21,33-35H,2,8-9,12H2,1H3,(H3,25,28,29,30)/t16-,17+,18-,20-,21+/m0/s1

>  <IUPAC Name>  (1) 
(1R,2S,3R,5S)-3-[6-amino-2-[[(2S)-1-hydroxy-3-phenylpropan-2-yl]amino]purin-9-yl]-5-(4-ethylpyrazol-1-yl)cyclopentane-1,2-diol

$$$$
