
     RDKit          3D

 60 63  0  0  0  0  0  0  0  0999 V2000
    9.6648    1.7352    0.4524 C   0  0  0  0  0  0  0  0  0  0  0  0
    9.2183    0.8674    1.4223 O   0  0  0  0  0  0  0  0  0  0  0  0
    8.6187   -0.2395    0.8656 C   0  0  0  0  0  0  0  0  0  0  0  0
    7.4196    0.0985    0.0135 C   0  0  0  0  0  0  0  0  0  0  0  0
    6.7290   -1.4339   -0.6309 S   0  0  0  0  0  0  0  0  0  0  0  0
    7.7564   -2.2206   -1.3697 O   0  0  0  0  0  0  0  0  0  0  0  0
    6.3128   -2.2190    0.5807 O   0  0  0  0  0  0  0  0  0  0  0  0
    5.3338   -1.0911   -1.6268 N   0  0  0  0  0  0  0  0  0  0  0  0
    4.3713   -0.4532   -0.7601 C   0  0  1  0  0  0  0  0  0  0  0  0
    3.8548    0.8581   -1.2497 C   0  0  0  0  0  0  0  0  0  0  0  0
    2.5200    0.9764   -0.5073 C   0  0  0  0  0  0  0  0  0  0  0  0
    2.0261   -0.4098   -0.5115 C   0  0  0  0  0  0  0  0  0  0  0  0
    3.1064   -1.2608   -0.6597 C   0  0  0  0  0  0  0  0  0  0  0  0
    2.9737   -2.6381   -0.7016 C   0  0  0  0  0  0  0  0  0  0  0  0
    1.7290   -3.2251   -0.5943 C   0  0  0  0  0  0  0  0  0  0  0  0
    0.6538   -2.3718   -0.4465 C   0  0  0  0  0  0  0  0  0  0  0  0
    0.7861   -0.9979   -0.4047 C   0  0  0  0  0  0  0  0  0  0  0  0
   -0.3825   -0.1397   -0.2468 C   0  0  0  0  0  0  0  0  0  0  0  0
   -0.4695    1.1967   -0.1835 N   0  0  0  0  0  0  0  0  0  0  0  0
   -1.7328    1.5488   -0.0360 O   0  0  0  0  0  0  0  0  0  0  0  0
   -2.4844    0.4871    0.0004 C   0  0  0  0  0  0  0  0  0  0  0  0
   -1.6712   -0.5752   -0.1284 N   0  0  0  0  0  0  0  0  0  0  0  0
   -3.9348    0.4386    0.1514 C   0  0  0  0  0  0  0  0  0  0  0  0
   -4.6576    1.6071    0.2750 C   0  0  0  0  0  0  0  0  0  0  0  0
   -6.0418    1.5431    0.4185 C   0  0  0  0  0  0  0  0  0  0  0  0
   -6.7221    0.3548    0.4422 C   0  0  0  0  0  0  0  0  0  0  0  0
   -5.9576   -0.8092    0.3145 C   0  0  0  0  0  0  0  0  0  0  0  0
   -4.5894   -0.7756    0.1714 C   0  0  0  0  0  0  0  0  0  0  0  0
   -6.6077   -2.1098    0.3305 C   0  0  0  0  0  0  0  0  0  0  0  0
   -7.1110   -3.1496    0.3447 N   0  0  0  0  0  0  0  0  0  0  0  0
   -8.0740    0.1933    0.5784 O   0  0  0  0  0  0  0  0  0  0  0  0
   -8.9687    1.2559    0.7158 C   0  0  0  0  0  0  0  0  0  0  0  0
   -9.6584    1.0554    2.0665 C   0  0  0  0  0  0  0  0  0  0  0  0
  -10.0241    1.1682   -0.3742 C   0  0  0  0  0  0  0  0  0  0  0  0
   10.1697    2.6240    0.9343 H   0  0  0  0  0  0  0  0  0  0  0  0
   10.2943    1.2724   -0.3149 H   0  0  0  0  0  0  0  0  0  0  0  0
    8.7710    2.1785   -0.0718 H   0  0  0  0  0  0  0  0  0  0  0  0
    8.3428   -0.9129    1.7123 H   0  0  0  0  0  0  0  0  0  0  0  0
    9.3758   -0.8268    0.2798 H   0  0  0  0  0  0  0  0  0  0  0  0
    7.7094    0.6942   -0.8674 H   0  0  0  0  0  0  0  0  0  0  0  0
    6.6511    0.5590    0.6503 H   0  0  0  0  0  0  0  0  0  0  0  0
    5.6053   -0.4989   -2.4173 H   0  0  0  0  0  0  0  0  0  0  0  0
    4.7314   -0.3373    0.2877 H   0  0  0  0  0  0  0  0  0  0  0  0
    4.5128    1.7157   -1.0645 H   0  0  0  0  0  0  0  0  0  0  0  0
    3.5939    0.7499   -2.3301 H   0  0  0  0  0  0  0  0  0  0  0  0
    2.6764    1.2770    0.5463 H   0  0  0  0  0  0  0  0  0  0  0  0
    1.8553    1.6920   -1.0338 H   0  0  0  0  0  0  0  0  0  0  0  0
    3.8246   -3.3089   -0.8184 H   0  0  0  0  0  0  0  0  0  0  0  0
    1.5954   -4.2938   -0.6236 H   0  0  0  0  0  0  0  0  0  0  0  0
   -0.3263   -2.8385   -0.3622 H   0  0  0  0  0  0  0  0  0  0  0  0
   -4.1465    2.5793    0.2603 H   0  0  0  0  0  0  0  0  0  0  0  0
   -6.5533    2.4704    0.5099 H   0  0  0  0  0  0  0  0  0  0  0  0
   -3.9814   -1.6675    0.0712 H   0  0  0  0  0  0  0  0  0  0  0  0
   -8.5221    2.2631    0.7094 H   0  0  0  0  0  0  0  0  0  0  0  0
   -8.8606    1.2099    2.8445 H   0  0  0  0  0  0  0  0  0  0  0  0
  -10.4702    1.7894    2.2149 H   0  0  0  0  0  0  0  0  0  0  0  0
  -10.0287    0.0155    2.1221 H   0  0  0  0  0  0  0  0  0  0  0  0
   -9.5727    1.4880   -1.3422 H   0  0  0  0  0  0  0  0  0  0  0  0
  -10.3274    0.0929   -0.5087 H   0  0  0  0  0  0  0  0  0  0  0  0
  -10.9069    1.7522   -0.1003 H   0  0  0  0  0  0  0  0  0  0  0  0
  1  2  1  0
  2  3  1  0
  3  4  1  0
  4  5  1  0
  5  6  2  0
  5  7  2  0
  5  8  1  0
  8  9  1  0
  9 10  1  0
 10 11  1  0
 11 12  1  0
 12 13  2  0
 13 14  1  0
 14 15  2  0
 15 16  1  0
 16 17  2  0
 17 18  1  0
 18 19  2  0
 19 20  1  0
 20 21  1  0
 21 22  2  0
 21 23  1  0
 23 24  2  0
 24 25  1  0
 25 26  2  0
 26 27  1  0
 27 28  2  0
 27 29  1  0
 29 30  3  0
 26 31  1  0
 31 32  1  0
 32 33  1  0
 32 34  1  0
 13  9  1  0
 22 18  1  0
 28 23  1  0
 17 12  1  0
  1 35  1  0
  1 36  1  0
  1 37  1  0
  3 38  1  0
  3 39  1  0
  4 40  1  0
  4 41  1  0
  8 42  1  0
  9 43  1  1
 10 44  1  0
 10 45  1  0
 11 46  1  0
 11 47  1  0
 14 48  1  0
 15 49  1  0
 16 50  1  0
 24 51  1  0
 25 52  1  0
 28 53  1  0
 32 54  1  0
 33 55  1  0
 33 56  1  0
 33 57  1  0
 34 58  1  0
 34 59  1  0
 34 60  1  0
M  END
>  <Ligand ID>  (1) 
LIG0001528

>  <Ligand>  (1) 
SCHEMBL2192987

>  <SMILES>  (1) 
COCCS(=O)(=O)N[C@H]1CCc2c1cccc2c1noc(n1)c1ccc(c(c1)C#N)OC(C)C

>  <CID>  (1) 
52938055.0

>  <ChEMBL ID>  (1) 
nan

>  <InChiKey>  (1) 
CCEAKDWEXPIAPE-NRFANRHFSA-N

>  <InChi>  (1) 
InChI=1S/C24H26N4O5S/c1-15(2)32-22-10-7-16(13-17(22)14-25)24-26-23(27-33-24)20-6-4-5-19-18(20)8-9-21(19)28-34(29,30)12-11-31-3/h4-7,10,13,15,21,28H,8-9,11-12H2,1-3H3/t21-/m0/s1

>  <IUPAC Name>  (1) 
N-[(1S)-4-[5-(3-cyano-4-propan-2-yloxyphenyl)-1,2,4-oxadiazol-3-yl]-2,3-dihydro-1H-inden-1-yl]-2-methoxyethanesulfonamide

$$$$
