
     RDKit          3D

 39 41  0  0  0  0  0  0  0  0999 V2000
   -0.9003    1.7580    2.6545 O   0  0  0  0  0  0  0  0  0  0  0  0
   -0.5412    1.0006    1.6869 C   0  0  0  0  0  0  0  0  0  0  0  0
    0.8713    0.7804    1.5358 C   0  0  0  0  0  0  0  0  0  0  0  0
    1.7675    1.0780    2.5237 N   0  0  0  0  0  0  0  0  0  0  0  0
    2.9671    0.7827    2.1156 O   0  0  0  0  0  0  0  0  0  0  0  0
    2.9598    0.2957    0.8980 C   0  0  0  0  0  0  0  0  0  0  0  0
    1.6367    0.2875    0.5123 C   0  0  0  0  0  0  0  0  0  0  0  0
    4.1414   -0.1305    0.1600 C   0  0  0  0  0  0  0  0  0  0  0  0
    4.0043   -0.6697   -1.1284 C   0  0  0  0  0  0  0  0  0  0  0  0
    5.1811   -1.0370   -1.7380 C   0  0  0  0  0  0  0  0  0  0  0  0
    6.4272   -0.9254   -1.2130 C   0  0  0  0  0  0  0  0  0  0  0  0
    6.5423   -0.3898    0.0595 C   0  0  0  0  0  0  0  0  0  0  0  0
    5.4010    0.0012    0.7324 C   0  0  0  0  0  0  0  0  0  0  0  0
   -1.5757    0.4837    0.8958 N   0  0  0  0  0  0  0  0  0  0  0  0
   -2.9456    0.8705    1.2682 C   0  0  0  0  0  0  0  0  0  0  0  0
   -3.6347    1.2272   -0.0545 C   0  0  0  0  0  0  0  0  0  0  0  0
   -3.8416   -0.0493   -0.8488 C   0  0  0  0  0  0  0  0  0  0  0  0
   -2.7767   -1.0549   -0.5722 C   0  0  0  0  0  0  0  0  0  0  0  0
   -1.4370   -0.3877   -0.2415 C   0  0  0  0  0  0  0  0  0  0  0  0
   -5.1755   -0.5849   -0.4333 C   0  0  0  0  0  0  0  0  0  0  0  0
   -5.8975   -0.0308    0.4290 O   0  0  0  0  0  0  0  0  0  0  0  0
   -5.6917   -1.7955   -1.0290 N   0  0  0  0  0  0  0  0  0  0  0  0
    1.2868   -0.0489   -0.4411 H   0  0  0  0  0  0  0  0  0  0  0  0
    3.0319   -0.7733   -1.5825 H   0  0  0  0  0  0  0  0  0  0  0  0
    5.0738   -1.4641   -2.7488 H   0  0  0  0  0  0  0  0  0  0  0  0
    7.2900   -1.2497   -1.8004 H   0  0  0  0  0  0  0  0  0  0  0  0
    7.5374   -0.3081    0.4617 H   0  0  0  0  0  0  0  0  0  0  0  0
    5.5314    0.4160    1.7229 H   0  0  0  0  0  0  0  0  0  0  0  0
   -2.9778    1.7288    1.9417 H   0  0  0  0  0  0  0  0  0  0  0  0
   -3.4814   -0.0171    1.6413 H   0  0  0  0  0  0  0  0  0  0  0  0
   -4.5896    1.7269    0.1574 H   0  0  0  0  0  0  0  0  0  0  0  0
   -3.0155    1.8944   -0.6779 H   0  0  0  0  0  0  0  0  0  0  0  0
   -3.9058    0.1424   -1.9446 H   0  0  0  0  0  0  0  0  0  0  0  0
   -3.0379   -1.7644    0.2425 H   0  0  0  0  0  0  0  0  0  0  0  0
   -2.6056   -1.6455   -1.4929 H   0  0  0  0  0  0  0  0  0  0  0  0
   -0.7067   -1.2134   -0.0432 H   0  0  0  0  0  0  0  0  0  0  0  0
   -1.1397    0.1752   -1.1482 H   0  0  0  0  0  0  0  0  0  0  0  0
   -6.4046   -1.6354   -1.7833 H   0  0  0  0  0  0  0  0  0  0  0  0
   -5.3689   -2.7365   -0.7175 H   0  0  0  0  0  0  0  0  0  0  0  0
  1  2  2  0
  2  3  1  0
  3  4  2  0
  4  5  1  0
  5  6  1  0
  6  7  2  0
  6  8  1  0
  8  9  2  0
  9 10  1  0
 10 11  2  0
 11 12  1  0
 12 13  2  0
  2 14  1  0
 14 15  1  0
 15 16  1  0
 16 17  1  0
 17 18  1  0
 18 19  1  0
 17 20  1  0
 20 21  2  0
 20 22  1  0
  7  3  1  0
 13  8  1  0
 19 14  1  0
  7 23  1  0
  9 24  1  0
 10 25  1  0
 11 26  1  0
 12 27  1  0
 13 28  1  0
 15 29  1  0
 15 30  1  0
 16 31  1  0
 16 32  1  0
 17 33  1  0
 18 34  1  0
 18 35  1  0
 19 36  1  0
 19 37  1  0
 22 38  1  0
 22 39  1  0
M  END
>  <Ligand ID>  (1) 
LIG0003133

>  <Ligand>  (1) 
BAS 09529732

>  <SMILES>  (1) 
O=C(c1noc(c1)c1ccccc1)N1CCC(CC1)C(=O)N

>  <CID>  (1) 
1093757.0

>  <ChEMBL ID>  (1) 
nan

>  <InChiKey>  (1) 
AZIDAIPMLWSEPN-UHFFFAOYSA-N

>  <InChi>  (1) 
InChI=1S/C16H17N3O3/c17-15(20)12-6-8-19(9-7-12)16(21)13-10-14(22-18-13)11-4-2-1-3-5-11/h1-5,10,12H,6-9H2,(H2,17,20)

>  <IUPAC Name>  (1) 
1-(5-phenyl-1,2-oxazole-3-carbonyl)piperidine-4-carboxamide

$$$$
