
     RDKit          3D

 54 56  0  0  0  0  0  0  0  0999 V2000
   -9.6206    0.9119   -0.3264 C   0  0  0  0  0  0  0  0  0  0  0  0
   -8.4775    1.0902    0.6282 C   0  0  0  0  0  0  0  0  0  0  0  0
   -7.1838    0.5467    0.1204 C   0  0  0  0  0  0  0  0  0  0  0  0
   -6.1169    0.7871    1.1691 C   0  0  0  0  0  0  0  0  0  0  0  0
   -4.8726    0.2223    0.5901 C   0  0  0  0  0  0  0  0  0  0  0  0
   -3.8604   -0.2577    0.1248 C   0  0  0  0  0  0  0  0  0  0  0  0
   -2.6717   -0.8489   -0.4250 C   0  0  0  0  0  0  0  0  0  0  0  0
   -2.8247   -1.9803   -1.1639 N   0  0  0  0  0  0  0  0  0  0  0  0
   -1.7606   -2.6018   -1.7177 C   0  0  0  0  0  0  0  0  0  0  0  0
   -1.8769   -3.7865   -2.4970 N   0  0  0  0  0  0  0  0  0  0  0  0
   -0.5164   -2.0401   -1.5014 C   0  0  0  0  0  0  0  0  0  0  0  0
   -0.3294   -0.8936   -0.7568 C   0  0  0  0  0  0  0  0  0  0  0  0
   -1.4391   -0.3087   -0.2216 N   0  0  0  0  0  0  0  0  0  0  0  0
    0.9871   -0.6015   -0.7305 N   0  0  0  0  0  0  0  0  0  0  0  0
    1.6385   -1.5433   -1.4459 C   0  0  0  0  0  0  0  0  0  0  0  0
    0.7158   -2.4248   -1.9181 N   0  0  0  0  0  0  0  0  0  0  0  0
    1.6021    0.5227   -0.0560 C   0  0  2  0  0  0  0  0  0  0  0  0
    2.9380    0.8828   -0.6613 C   0  0  0  0  0  0  0  0  0  0  0  0
    3.9492    0.6851    0.4225 C   0  0  1  0  0  0  0  0  0  0  0  0
    3.2934   -0.3209    1.3282 C   0  0  2  0  0  0  0  0  0  0  0  0
    1.8663    0.2292    1.4034 C   0  0  1  0  0  0  0  0  0  0  0  0
    1.9508    1.4635    2.0505 O   0  0  0  0  0  0  0  0  0  0  0  0
    3.8767   -0.3924    2.5890 O   0  0  0  0  0  0  0  0  0  0  0  0
    5.2283    0.2272   -0.0758 N   0  0  0  0  0  0  0  0  0  0  0  0
    6.4552    0.8902    0.1662 C   0  0  0  0  0  0  0  0  0  0  0  0
    6.5361    1.9507    0.8463 O   0  0  0  0  0  0  0  0  0  0  0  0
    7.6852    0.2769   -0.4259 C   0  0  0  0  0  0  0  0  0  0  0  0
    8.9062    1.0870   -0.0867 C   0  0  0  0  0  0  0  0  0  0  0  0
   -9.2276    0.8862   -1.3650 H   0  0  0  0  0  0  0  0  0  0  0  0
  -10.2075    0.0312   -0.0580 H   0  0  0  0  0  0  0  0  0  0  0  0
  -10.2974    1.8059   -0.1914 H   0  0  0  0  0  0  0  0  0  0  0  0
   -8.7211    0.5337    1.5598 H   0  0  0  0  0  0  0  0  0  0  0  0
   -8.3815    2.1585    0.9662 H   0  0  0  0  0  0  0  0  0  0  0  0
   -7.2930   -0.5690    0.0683 H   0  0  0  0  0  0  0  0  0  0  0  0
   -6.8809    0.8604   -0.8758 H   0  0  0  0  0  0  0  0  0  0  0  0
   -6.3642    0.2891    2.1239 H   0  0  0  0  0  0  0  0  0  0  0  0
   -5.9363    1.8620    1.3744 H   0  0  0  0  0  0  0  0  0  0  0  0
   -2.4518   -4.6094   -2.2023 H   0  0  0  0  0  0  0  0  0  0  0  0
   -1.3794   -3.8616   -3.4009 H   0  0  0  0  0  0  0  0  0  0  0  0
    2.6924   -1.6503   -1.6534 H   0  0  0  0  0  0  0  0  0  0  0  0
    0.9343    1.4062   -0.1417 H   0  0  0  0  0  0  0  0  0  0  0  0
    2.9855    1.9739   -0.9381 H   0  0  0  0  0  0  0  0  0  0  0  0
    3.1685    0.3322   -1.5929 H   0  0  0  0  0  0  0  0  0  0  0  0
    4.0858    1.6105    1.0056 H   0  0  0  0  0  0  0  0  0  0  0  0
    3.2138   -1.3230    0.8716 H   0  0  0  0  0  0  0  0  0  0  0  0
    1.1616   -0.4647    1.8643 H   0  0  0  0  0  0  0  0  0  0  0  0
    1.1550    2.0352    1.8888 H   0  0  0  0  0  0  0  0  0  0  0  0
    3.3803    0.2533    3.1715 H   0  0  0  0  0  0  0  0  0  0  0  0
    5.1985   -0.6636   -0.6530 H   0  0  0  0  0  0  0  0  0  0  0  0
    7.5327    0.2541   -1.5376 H   0  0  0  0  0  0  0  0  0  0  0  0
    7.7514   -0.7712   -0.0769 H   0  0  0  0  0  0  0  0  0  0  0  0
    9.4676    0.6348    0.7819 H   0  0  0  0  0  0  0  0  0  0  0  0
    8.6702    2.1516    0.0790 H   0  0  0  0  0  0  0  0  0  0  0  0
    9.6654    1.0613   -0.9205 H   0  0  0  0  0  0  0  0  0  0  0  0
  1  2  1  0
  2  3  1  0
  3  4  1  0
  4  5  1  0
  5  6  3  0
  6  7  1  0
  7  8  2  0
  8  9  1  0
  9 10  1  0
  9 11  2  0
 11 12  1  0
 12 13  2  0
 12 14  1  0
 14 15  1  0
 15 16  2  0
 14 17  1  0
 17 18  1  0
 18 19  1  0
 19 20  1  0
 20 21  1  0
 21 22  1  0
 20 23  1  0
 19 24  1  0
 24 25  1  0
 25 26  2  0
 25 27  1  0
 27 28  1  0
 13  7  1  0
 21 17  1  0
 16 11  1  0
  1 29  1  0
  1 30  1  0
  1 31  1  0
  2 32  1  0
  2 33  1  0
  3 34  1  0
  3 35  1  0
  4 36  1  0
  4 37  1  0
 10 38  1  0
 10 39  1  0
 15 40  1  0
 17 41  1  1
 18 42  1  0
 18 43  1  0
 19 44  1  1
 20 45  1  6
 21 46  1  1
 22 47  1  0
 23 48  1  0
 24 49  1  0
 27 50  1  0
 27 51  1  0
 28 52  1  0
 28 53  1  0
 28 54  1  0
M  END
>  <Ligand ID>  (1) 
LIG0004195

>  <Ligand>  (1) 
CHEMBL591999

>  <SMILES>  (1) 
CCCCC#Cc1nc(N)c2c(n1)n(cn2)[C@@H]1C[C@@H]([C@H]([C@H]1O)O)NC(=O)CC

>  <CID>  (1) 
11574573.0

>  <ChEMBL ID>  (1) 
nan

>  <InChiKey>  (1) 
MOWBUOOHZBNNQZ-SONRMIBWSA-N

>  <InChi>  (1) 
InChI=1S/C19H26N6O3/c1-3-5-6-7-8-13-23-18(20)15-19(24-13)25(10-21-15)12-9-11(16(27)17(12)28)22-14(26)4-2/h10-12,16-17,27-28H,3-6,9H2,1-2H3,(H,22,26)(H2,20,23,24)/t11-,12+,16+,17-/m0/s1

>  <IUPAC Name>  (1) 
N-[(1S,2R,3S,4R)-4-(6-amino-2-hex-1-ynylpurin-9-yl)-2,3-dihydroxycyclopentyl]propanamide

$$$$
