
     RDKit          3D

 43 46  0  0  0  0  0  0  0  0999 V2000
    5.7304    1.9916   -1.8908 C   0  0  0  0  0  0  0  0  0  0  0  0
    5.0897    1.1257   -0.9387 N   0  0  0  0  0  0  0  0  0  0  0  0
    3.7342    0.7587   -1.1568 C   0  0  0  0  0  0  0  0  0  0  0  0
    3.1937    1.2424   -2.2039 O   0  0  0  0  0  0  0  0  0  0  0  0
    3.0055   -0.1141   -0.2446 C   0  0  0  0  0  0  0  0  0  0  0  0
    3.5608   -0.6533    0.8962 C   0  0  0  0  0  0  0  0  0  0  0  0
    2.8649   -1.4783    1.7542 C   0  0  0  0  0  0  0  0  0  0  0  0
    1.5543   -1.7543    1.4233 C   0  0  0  0  0  0  0  0  0  0  0  0
    0.9563   -1.2249    0.2737 C   0  0  0  0  0  0  0  0  0  0  0  0
    1.6781   -0.4064   -0.5611 C   0  0  0  0  0  0  0  0  0  0  0  0
   -0.4244   -1.6234    0.0407 C   0  0  0  0  0  0  0  0  0  0  0  0
   -0.6339   -3.0079   -0.0517 C   0  0  0  0  0  0  0  0  0  0  0  0
   -1.8767   -3.5449   -0.2991 C   0  0  0  0  0  0  0  0  0  0  0  0
   -2.9218   -2.6598   -0.4548 C   0  0  0  0  0  0  0  0  0  0  0  0
   -2.7309   -1.2755   -0.3652 C   0  0  0  0  0  0  0  0  0  0  0  0
   -1.4647   -0.7453   -0.1132 C   0  0  0  0  0  0  0  0  0  0  0  0
   -1.3244    0.7043    0.0056 C   0  0  2  0  0  0  0  0  0  0  0  0
   -1.6613    1.0786    1.4524 C   0  0  0  0  0  0  0  0  0  0  0  0
   -3.0889    1.4585    1.3651 C   0  0  0  0  0  0  0  0  0  0  0  0
   -3.4827    1.6080    0.0951 N   0  0  0  0  0  0  0  0  0  0  0  0
   -2.4161    1.3594   -0.8194 C   0  0  0  0  0  0  0  0  0  0  0  0
   -4.7827    1.9497    0.1336 C   0  0  0  0  0  0  0  0  0  0  0  0
   -5.1953    2.0113    1.4475 C   0  0  0  0  0  0  0  0  0  0  0  0
   -4.1325    1.7043    2.1875 N   0  0  0  0  0  0  0  0  0  0  0  0
    6.2967    1.4577   -2.6664 H   0  0  0  0  0  0  0  0  0  0  0  0
    4.9943    2.6425   -2.4283 H   0  0  0  0  0  0  0  0  0  0  0  0
    6.4238    2.6899   -1.3512 H   0  0  0  0  0  0  0  0  0  0  0  0
    5.6151    0.7816   -0.1129 H   0  0  0  0  0  0  0  0  0  0  0  0
    4.5827   -0.4349    1.1498 H   0  0  0  0  0  0  0  0  0  0  0  0
    3.3415   -1.8809    2.6411 H   0  0  0  0  0  0  0  0  0  0  0  0
    0.9999   -2.4002    2.0897 H   0  0  0  0  0  0  0  0  0  0  0  0
    1.2615   -0.0013   -1.4468 H   0  0  0  0  0  0  0  0  0  0  0  0
    0.1804   -3.7118    0.0690 H   0  0  0  0  0  0  0  0  0  0  0  0
   -2.0042   -4.6098   -0.3641 H   0  0  0  0  0  0  0  0  0  0  0  0
   -3.9006   -3.0876   -0.6503 H   0  0  0  0  0  0  0  0  0  0  0  0
   -3.6068   -0.6817   -0.4997 H   0  0  0  0  0  0  0  0  0  0  0  0
   -0.3891    1.1503   -0.3156 H   0  0  0  0  0  0  0  0  0  0  0  0
   -1.5953    0.1894    2.1142 H   0  0  0  0  0  0  0  0  0  0  0  0
   -0.9897    1.9029    1.7257 H   0  0  0  0  0  0  0  0  0  0  0  0
   -2.0574    2.3186   -1.2690 H   0  0  0  0  0  0  0  0  0  0  0  0
   -2.7768    0.7585   -1.6536 H   0  0  0  0  0  0  0  0  0  0  0  0
   -5.4124    2.1474   -0.7440 H   0  0  0  0  0  0  0  0  0  0  0  0
   -6.1952    2.2648    1.7369 H   0  0  0  0  0  0  0  0  0  0  0  0
  1  2  1  0
  2  3  1  0
  3  4  2  0
  3  5  1  0
  5  6  2  0
  6  7  1  0
  7  8  2  0
  8  9  1  0
  9 10  2  0
  9 11  1  0
 11 12  2  0
 12 13  1  0
 13 14  2  0
 14 15  1  0
 15 16  2  0
 16 17  1  0
 17 18  1  0
 18 19  1  0
 19 20  1  0
 20 21  1  0
 20 22  1  0
 22 23  2  0
 23 24  1  0
 10  5  1  0
 16 11  1  0
 21 17  1  0
 24 19  2  0
  1 25  1  0
  1 26  1  0
  1 27  1  0
  2 28  1  0
  6 29  1  0
  7 30  1  0
  8 31  1  0
 10 32  1  0
 12 33  1  0
 13 34  1  0
 14 35  1  0
 15 36  1  0
 17 37  1  6
 18 38  1  0
 18 39  1  0
 21 40  1  0
 21 41  1  0
 22 42  1  0
 23 43  1  0
M  END
>  <Ligand ID>  (1) 
LIG0004651

>  <Ligand>  (1) 
CHEMBL466012

>  <SMILES>  (1) 
CNC(=O)c1cccc(c1)c1ccccc1[C@@H]1Cc2n(C1)ccn2

>  <CID>  (1) 
44574106.0

>  <ChEMBL ID>  (1) 
nan

>  <InChiKey>  (1) 
PIDATBLWKGYAEW-MRXNPFEDSA-N

>  <InChi>  (1) 
InChI=1S/C20H19N3O/c1-21-20(24)15-6-4-5-14(11-15)17-7-2-3-8-18(17)16-12-19-22-9-10-23(19)13-16/h2-11,16H,12-13H2,1H3,(H,21,24)/t16-/m1/s1

>  <IUPAC Name>  (1) 
3-[2-[(6S)-6,7-dihydro-5H-pyrrolo[1,2-a]imidazol-6-yl]phenyl]-N-methylbenzamide

$$$$
