
     RDKit          3D

 23 22  0  0  0  0  0  0  0  0999 V2000
   -2.3502    0.7166    1.0981 C   0  0  0  0  0  0  0  0  0  0  0  0
   -2.2187   -0.7277    0.6636 C   0  0  0  0  0  0  0  0  0  0  0  0
   -1.7738   -0.8469   -0.7606 C   0  0  0  0  0  0  0  0  0  0  0  0
   -0.4300   -0.2015   -1.0048 C   0  0  0  0  0  0  0  0  0  0  0  0
    0.6634   -0.8073   -0.1757 C   0  0  0  0  0  0  0  0  0  0  0  0
    1.9337   -0.1008   -0.4942 C   0  0  0  0  0  0  0  0  0  0  0  0
    2.6401    0.5558    0.4216 C   0  0  0  0  0  0  0  0  0  0  0  0
    3.8753    1.2203    0.0186 C   0  0  0  0  0  0  0  0  0  0  0  0
    4.2221    1.1409   -1.1971 O   0  0  0  0  0  0  0  0  0  0  0  0
   -1.3642    1.1465    1.4208 H   0  0  0  0  0  0  0  0  0  0  0  0
   -2.7540    1.3367    0.2737 H   0  0  0  0  0  0  0  0  0  0  0  0
   -3.0031    0.7892    1.9786 H   0  0  0  0  0  0  0  0  0  0  0  0
   -1.5346   -1.2090    1.3772 H   0  0  0  0  0  0  0  0  0  0  0  0
   -3.2250   -1.1881    0.7382 H   0  0  0  0  0  0  0  0  0  0  0  0
   -2.5143   -0.2934   -1.3882 H   0  0  0  0  0  0  0  0  0  0  0  0
   -1.8047   -1.8931   -1.0559 H   0  0  0  0  0  0  0  0  0  0  0  0
   -0.4938    0.8704   -0.7223 H   0  0  0  0  0  0  0  0  0  0  0  0
   -0.1633   -0.2100   -2.0650 H   0  0  0  0  0  0  0  0  0  0  0  0
    0.8065   -1.8888   -0.3711 H   0  0  0  0  0  0  0  0  0  0  0  0
    0.4572   -0.6084    0.9037 H   0  0  0  0  0  0  0  0  0  0  0  0
    2.2773   -0.1413   -1.5402 H   0  0  0  0  0  0  0  0  0  0  0  0
    2.2839    0.5805    1.4344 H   0  0  0  0  0  0  0  0  0  0  0  0
    4.4702    1.7593    0.7320 H   0  0  0  0  0  0  0  0  0  0  0  0
  1  2  1  0
  2  3  1  0
  3  4  1  0
  4  5  1  0
  5  6  1  0
  6  7  2  0
  7  8  1  0
  8  9  2  0
  1 10  1  0
  1 11  1  0
  1 12  1  0
  2 13  1  0
  2 14  1  0
  3 15  1  0
  3 16  1  0
  4 17  1  0
  4 18  1  0
  5 19  1  0
  5 20  1  0
  6 21  1  0
  7 22  1  0
  8 23  1  0
M  END
>  <Ligand ID>  (1) 
LIG0000346

>  <Ligand>  (1) 
2-Octenal

>  <SMILES>  (1) 
CCCCC/C=C/C=O

>  <CID>  (1) 
5283324.0

>  <ChEMBL ID>  (1) 
nan

>  <InChiKey>  (1) 
LVBXEMGDVWVTGY-VOTSOKGWSA-N

>  <InChi>  (1) 
InChI=1S/C8H14O/c1-2-3-4-5-6-7-8-9/h6-8H,2-5H2,1H3/b7-6+

>  <IUPAC Name>  (1) 
(E)-oct-2-enal

$$$$
