
     RDKit          3D

 27 26  0  0  0  0  0  0  0  0999 V2000
   -3.2392    2.4003   -0.6495 O   0  0  0  0  0  0  0  0  0  0  0  0
   -2.5239    1.4020    0.0380 C   0  0  0  0  0  0  0  0  0  0  0  0
   -1.9379    1.8189    1.0946 O   0  0  0  0  0  0  0  0  0  0  0  0
   -2.4611    0.0119   -0.4220 C   0  0  2  0  0  0  0  0  0  0  0  0
   -1.0870   -0.5011   -0.7184 C   0  0  0  0  0  0  0  0  0  0  0  0
   -0.1337   -0.4833    0.4346 C   0  0  0  0  0  0  0  0  0  0  0  0
    1.4459   -1.1499   -0.1856 P   0  0  0  0  0  0  0  0  0  0  0  0
    1.2856   -1.8055   -1.5429 O   0  0  0  0  0  0  0  0  0  0  0  0
    2.7000    0.1202   -0.3644 C   0  0  0  0  0  0  0  0  0  0  0  0
    2.9103    0.9485    0.8346 C   0  0  0  0  0  0  0  0  0  0  0  0
    4.0679    0.8829    1.3730 O   0  0  0  0  0  0  0  0  0  0  0  0
    1.9211    1.7682    1.3753 O   0  0  0  0  0  0  0  0  0  0  0  0
    3.9108   -0.5636   -0.6076 O   0  0  0  0  0  0  0  0  0  0  0  0
    2.0113   -2.3729    0.8643 O   0  0  0  0  0  0  0  0  0  0  0  0
   -3.2322   -0.1388   -1.6535 N   0  0  0  0  0  0  0  0  0  0  0  0
   -3.7988    3.0943   -0.1741 H   0  0  0  0  0  0  0  0  0  0  0  0
   -3.0012   -0.6262    0.3237 H   0  0  0  0  0  0  0  0  0  0  0  0
   -0.6778    0.0720   -1.5660 H   0  0  0  0  0  0  0  0  0  0  0  0
   -1.2075   -1.5637   -1.0218 H   0  0  0  0  0  0  0  0  0  0  0  0
    0.0028    0.5386    0.8533 H   0  0  0  0  0  0  0  0  0  0  0  0
   -0.5008   -1.0978    1.2727 H   0  0  0  0  0  0  0  0  0  0  0  0
    2.5248    0.7214   -1.2738 H   0  0  0  0  0  0  0  0  0  0  0  0
    2.2388    2.3496    2.1647 H   0  0  0  0  0  0  0  0  0  0  0  0
    3.9090   -1.3070    0.0743 H   0  0  0  0  0  0  0  0  0  0  0  0
    1.7879   -3.2651    0.5280 H   0  0  0  0  0  0  0  0  0  0  0  0
   -4.1726   -0.5370   -1.5029 H   0  0  0  0  0  0  0  0  0  0  0  0
   -2.7427   -0.7169   -2.3682 H   0  0  0  0  0  0  0  0  0  0  0  0
  1  2  1  0
  2  3  2  0
  2  4  1  0
  4  5  1  0
  5  6  1  0
  6  7  1  0
  7  8  2  0
  7  9  1  0
  9 10  1  0
 10 11  2  0
 10 12  1  0
  9 13  1  0
  7 14  1  0
  4 15  1  0
  1 16  1  0
  4 17  1  1
  5 18  1  0
  5 19  1  0
  6 20  1  0
  6 21  1  0
  9 22  1  0
 12 23  1  0
 13 24  1  0
 14 25  1  0
 15 26  1  0
 15 27  1  0
M  END
>  <Ligand ID>  (1) 
LIG0005078

>  <Ligand>  (1) 
CID 46197879

>  <SMILES>  (1) 
OC(=O)[C@H](CCP(=O)(C(C(=O)O)O)O)N

>  <CID>  (1) 
46197879.0

>  <ChEMBL ID>  (1) 
nan

>  <InChiKey>  (1) 
SOZDQFDBWAJREO-FWRGRRDFSA-N

>  <InChi>  (1) 
InChI=1S/C6H12NO7P/c7-3(4(8)9)1-2-15(13,14)6(12)5(10)11/h3,6,12H,1-2,7H2,(H,8,9)(H,10,11)(H,13,14)/t3-,6?/m0/s1

>  <IUPAC Name>  (1) 
(2S)-2-amino-4-[[carboxy(hydroxy)methyl]-hydroxyphosphoryl]butanoic acid

$$$$
