
     RDKit          3D

 76 82  0  0  0  0  0  0  0  0999 V2000
   -7.2939    5.3098   -1.4429 O   0  0  0  0  0  0  0  0  0  0  0  0
   -6.1091    4.6642   -1.7220 C   0  0  0  0  0  0  0  0  0  0  0  0
   -5.9343    3.3925   -0.9110 C   0  0  0  0  0  0  0  0  0  0  0  0
   -4.6986    2.7977   -1.2585 O   0  0  0  0  0  0  0  0  0  0  0  0
   -4.3344    1.6202   -0.6341 C   0  0  0  0  0  0  0  0  0  0  0  0
   -5.1396    0.9963    0.3262 C   0  0  0  0  0  0  0  0  0  0  0  0
   -4.7541   -0.1972    0.9496 C   0  0  0  0  0  0  0  0  0  0  0  0
   -3.5496   -0.7770    0.6104 C   0  0  0  0  0  0  0  0  0  0  0  0
   -2.8169   -0.1118   -0.3368 C   0  0  0  0  0  0  0  0  0  0  0  0
   -3.1157    1.0295   -0.9740 C   0  0  0  0  0  0  0  0  0  0  0  0
   -2.0617    1.3045   -1.8299 O   0  0  0  0  0  0  0  0  0  0  0  0
   -0.9747    0.3916   -1.6127 C   0  0  2  0  0  0  0  0  0  0  0  0
   -1.5260   -0.7055   -0.7499 C   0  0  2  0  0  0  0  0  0  0  0  0
   -1.7560   -1.9845   -1.4684 C   0  0  0  0  0  0  0  0  0  0  0  0
   -1.2864   -3.2331   -0.8404 C   0  0  0  0  0  0  0  0  0  0  0  0
   -1.0158   -3.1730    0.5438 N   0  0  0  0  0  0  0  0  0  0  0  0
   -1.4547   -2.0115    1.2395 C   0  0  2  0  0  0  0  0  0  0  0  0
   -2.9776   -1.9982    1.1879 C   0  0  0  0  0  0  0  0  0  0  0  0
   -0.7992   -0.8464    0.5799 C   0  0  2  0  0  0  0  0  0  0  0  0
   -0.9419    0.4393    1.3560 C   0  0  0  0  0  0  0  0  0  0  0  0
   -0.4243    1.5561    0.4792 C   0  0  0  0  0  0  0  0  0  0  0  0
    0.1295    1.0405   -0.8258 C   0  0  2  0  0  0  0  0  0  0  0  0
    0.6444    2.1253   -1.5030 O   0  0  0  0  0  0  0  0  0  0  0  0
    1.1706    1.8136   -2.7370 C   0  0  0  0  0  0  0  0  0  0  0  0
    1.2007   -0.0076   -0.5432 C   0  0  2  0  0  0  0  0  0  0  0  0
    0.6629   -1.0640    0.4039 C   0  0  0  0  0  0  0  0  0  0  0  0
    2.3547    0.7319    0.1294 C   0  0  0  0  0  0  0  0  0  0  0  0
    3.4136   -0.1483    0.4358 O   0  0  0  0  0  0  0  0  0  0  0  0
    4.3758    0.6840    1.0541 C   0  0  0  0  0  0  0  0  0  0  0  0
    5.5250   -0.1656    1.4083 C   0  0  0  0  0  0  0  0  0  0  0  0
    5.7901   -0.6097    2.6863 C   0  0  0  0  0  0  0  0  0  0  0  0
    6.8916   -1.4177    2.9729 C   0  0  0  0  0  0  0  0  0  0  0  0
    7.7621   -1.7980    1.9502 C   0  0  0  0  0  0  0  0  0  0  0  0
    7.4744   -1.3405    0.6821 C   0  0  0  0  0  0  0  0  0  0  0  0
    6.3860   -0.5424    0.3994 C   0  0  0  0  0  0  0  0  0  0  0  0
    6.1347   -0.0801   -0.9944 C   0  0  0  0  0  0  0  0  0  0  0  0
   -1.0045   -4.3831    1.2554 C   0  0  0  0  0  0  0  0  0  0  0  0
   -7.1842    6.3092   -1.5209 H   0  0  0  0  0  0  0  0  0  0  0  0
   -6.1035    4.3715   -2.8027 H   0  0  0  0  0  0  0  0  0  0  0  0
   -5.2686    5.3361   -1.5341 H   0  0  0  0  0  0  0  0  0  0  0  0
   -5.9586    3.6392    0.1857 H   0  0  0  0  0  0  0  0  0  0  0  0
   -6.7565    2.6899   -1.0936 H   0  0  0  0  0  0  0  0  0  0  0  0
   -6.1021    1.4601    0.5961 H   0  0  0  0  0  0  0  0  0  0  0  0
   -5.3619   -0.6881    1.6903 H   0  0  0  0  0  0  0  0  0  0  0  0
   -0.6086   -0.0115   -2.5774 H   0  0  0  0  0  0  0  0  0  0  0  0
   -1.2790   -1.8537   -2.4842 H   0  0  0  0  0  0  0  0  0  0  0  0
   -2.8486   -2.0994   -1.7330 H   0  0  0  0  0  0  0  0  0  0  0  0
   -2.0493   -4.0600   -0.9628 H   0  0  0  0  0  0  0  0  0  0  0  0
   -0.3929   -3.6106   -1.3822 H   0  0  0  0  0  0  0  0  0  0  0  0
   -1.1766   -2.1548    2.3051 H   0  0  0  0  0  0  0  0  0  0  0  0
   -3.4265   -2.1513    2.2068 H   0  0  0  0  0  0  0  0  0  0  0  0
   -3.3729   -2.8461    0.5915 H   0  0  0  0  0  0  0  0  0  0  0  0
   -1.9181    0.6287    1.7876 H   0  0  0  0  0  0  0  0  0  0  0  0
   -0.2309    0.3861    2.2323 H   0  0  0  0  0  0  0  0  0  0  0  0
    0.3106    2.2142    0.9858 H   0  0  0  0  0  0  0  0  0  0  0  0
   -1.3092    2.1972    0.2021 H   0  0  0  0  0  0  0  0  0  0  0  0
    1.9989    1.0882   -2.7324 H   0  0  0  0  0  0  0  0  0  0  0  0
    0.4371    1.4771   -3.4919 H   0  0  0  0  0  0  0  0  0  0  0  0
    1.6220    2.7474   -3.1869 H   0  0  0  0  0  0  0  0  0  0  0  0
    1.5060   -0.5310   -1.4597 H   0  0  0  0  0  0  0  0  0  0  0  0
    1.1674   -0.9417    1.3893 H   0  0  0  0  0  0  0  0  0  0  0  0
    0.9310   -2.0866    0.0769 H   0  0  0  0  0  0  0  0  0  0  0  0
    2.7690    1.5175   -0.5073 H   0  0  0  0  0  0  0  0  0  0  0  0
    2.0142    1.1259    1.0891 H   0  0  0  0  0  0  0  0  0  0  0  0
    3.9025    1.1612    1.9319 H   0  0  0  0  0  0  0  0  0  0  0  0
    4.6183    1.4741    0.3126 H   0  0  0  0  0  0  0  0  0  0  0  0
    5.1174   -0.3176    3.4839 H   0  0  0  0  0  0  0  0  0  0  0  0
    7.0634   -1.7464    3.9979 H   0  0  0  0  0  0  0  0  0  0  0  0
    8.6280   -2.4262    2.1417 H   0  0  0  0  0  0  0  0  0  0  0  0
    8.1098   -1.6000   -0.1517 H   0  0  0  0  0  0  0  0  0  0  0  0
    6.9242   -0.4793   -1.6586 H   0  0  0  0  0  0  0  0  0  0  0  0
    6.1706    1.0353   -1.0599 H   0  0  0  0  0  0  0  0  0  0  0  0
    5.1586   -0.4040   -1.3976 H   0  0  0  0  0  0  0  0  0  0  0  0
   -0.0740   -4.9488    1.0718 H   0  0  0  0  0  0  0  0  0  0  0  0
   -1.1395   -4.1829    2.3304 H   0  0  0  0  0  0  0  0  0  0  0  0
   -1.8348   -5.0206    0.8619 H   0  0  0  0  0  0  0  0  0  0  0  0
  1  2  1  0
  2  3  1  0
  3  4  1  0
  4  5  1  0
  5  6  2  0
  6  7  1  0
  7  8  2  0
  8  9  1  0
  9 10  2  0
 10 11  1  0
 11 12  1  0
 12 13  1  0
 13 14  1  6
 14 15  1  0
 15 16  1  0
 16 17  1  0
 17 18  1  0
 17 19  1  0
 19 20  1  1
 20 21  1  0
 21 22  1  0
 22 23  1  6
 23 24  1  0
 22 25  1  0
 25 26  1  0
 25 27  1  0
 27 28  1  0
 28 29  1  0
 29 30  1  0
 30 31  2  0
 31 32  1  0
 32 33  2  0
 33 34  1  0
 34 35  2  0
 35 36  1  0
 16 37  1  0
 10  5  1  0
 22 12  1  0
 35 30  1  0
 18  8  1  0
 26 19  1  0
 13  9  1  0
 19 13  1  0
  1 38  1  0
  2 39  1  0
  2 40  1  0
  3 41  1  0
  3 42  1  0
  6 43  1  0
  7 44  1  0
 12 45  1  6
 14 46  1  0
 14 47  1  0
 15 48  1  0
 15 49  1  0
 17 50  1  1
 18 51  1  0
 18 52  1  0
 20 53  1  0
 20 54  1  0
 21 55  1  0
 21 56  1  0
 24 57  1  0
 24 58  1  0
 24 59  1  0
 25 60  1  6
 26 61  1  0
 26 62  1  0
 27 63  1  0
 27 64  1  0
 29 65  1  0
 29 66  1  0
 31 67  1  0
 32 68  1  0
 33 69  1  0
 34 70  1  0
 36 71  1  0
 36 72  1  0
 36 73  1  0
 37 74  1  0
 37 75  1  0
 37 76  1  0
M  END
>  <Ligand ID>  (1) 
LIG0003866

>  <Ligand>  (1) 
SCHEMBL15485892

>  <SMILES>  (1) 
OCCOc1ccc2c3c1O[C@@H]1[C@@]43CCN([C@H](C2)[C@@]24CC[C@@]1(OC)[C@H](C2)COCc1ccccc1C)C

>  <CID>  (1) 
89978695.0

>  <ChEMBL ID>  (1) 
nan

>  <InChiKey>  (1) 
FAHOTOBTELSIEH-VTPACTEHSA-N

>  <InChi>  (1) 
InChI=1S/C31H39NO5/c1-20-6-4-5-7-22(20)18-35-19-23-17-29-10-11-31(23,34-3)28-30(29)12-13-32(2)25(29)16-21-8-9-24(36-15-14-33)27(37-28)26(21)30/h4-9,23,25,28,33H,10-19H2,1-3H3/t23-,25-,28-,29-,30+,31-/m1/s1

>  <IUPAC Name>  (1) 
2-[[(1S,2S,6R,14R,15R,16R)-15-methoxy-5-methyl-16-[(2-methylphenyl)methoxymethyl]-13-oxa-5-azahexacyclo[13.2.2.12,8.01,6.02,14.012,20]icosa-8(20),9,11-trien-11-yl]oxy]ethanol

$$$$
