
     RDKit          3D

 37 37  0  0  0  0  0  0  0  0999 V2000
    3.6651    0.2113    0.0631 C   0  0  0  0  0  0  0  0  0  0  0  0
    2.2063    0.1076    0.0330 C   0  0  0  0  0  0  0  0  0  0  0  0
    1.3968    1.2026    0.1960 C   0  0  0  0  0  0  0  0  0  0  0  0
    2.0673    2.5116    0.4064 C   0  0  0  0  0  0  0  0  0  0  0  0
   -0.0120    1.1050    0.1675 C   0  0  0  0  0  0  0  0  0  0  0  0
   -0.6555    2.3525    0.3234 N   0  0  0  0  0  0  0  0  0  0  0  0
   -0.6858    3.0845   -0.7179 O   0  0  0  0  0  0  0  0  0  0  0  0
   -1.2322    2.8699    1.4318 O   0  0  0  0  0  0  0  0  0  0  0  0
   -0.6408   -0.1150   -0.0275 C   0  0  0  0  0  0  0  0  0  0  0  0
    0.1759   -1.2085   -0.1908 C   0  0  0  0  0  0  0  0  0  0  0  0
    1.5836   -1.0998   -0.1611 C   0  0  0  0  0  0  0  0  0  0  0  0
    2.4527   -2.2916   -0.3393 C   0  0  0  0  0  0  0  0  0  0  0  0
   -0.2687   -2.5392   -0.4096 N   0  0  0  0  0  0  0  0  0  0  0  0
   -0.7208   -3.2907    0.4704 O   0  0  0  0  0  0  0  0  0  0  0  0
   -0.1220   -3.0015   -1.7280 O   0  0  0  0  0  0  0  0  0  0  0  0
   -2.1067   -0.1347   -0.0210 C   0  0  0  0  0  0  0  0  0  0  0  0
   -2.6744    0.8077   -1.0826 C   0  0  0  0  0  0  0  0  0  0  0  0
   -2.7776   -1.4456   -0.2878 C   0  0  0  0  0  0  0  0  0  0  0  0
   -2.6100    0.3144    1.3243 C   0  0  0  0  0  0  0  0  0  0  0  0
    4.1659   -0.4095   -0.7225 H   0  0  0  0  0  0  0  0  0  0  0  0
    4.0572   -0.1922    1.0430 H   0  0  0  0  0  0  0  0  0  0  0  0
    4.0571    1.2250   -0.0034 H   0  0  0  0  0  0  0  0  0  0  0  0
    1.3520    3.3422    0.5213 H   0  0  0  0  0  0  0  0  0  0  0  0
    2.6329    2.7330   -0.5248 H   0  0  0  0  0  0  0  0  0  0  0  0
    2.7588    2.5327    1.2471 H   0  0  0  0  0  0  0  0  0  0  0  0
    3.3176   -2.1740    0.3749 H   0  0  0  0  0  0  0  0  0  0  0  0
    2.8560   -2.2348   -1.3677 H   0  0  0  0  0  0  0  0  0  0  0  0
    1.9795   -3.2379   -0.0873 H   0  0  0  0  0  0  0  0  0  0  0  0
   -3.5885    0.3488   -1.5008 H   0  0  0  0  0  0  0  0  0  0  0  0
   -3.0532    1.7454   -0.5940 H   0  0  0  0  0  0  0  0  0  0  0  0
   -1.9823    0.9786   -1.9117 H   0  0  0  0  0  0  0  0  0  0  0  0
   -2.9713   -1.9919    0.6597 H   0  0  0  0  0  0  0  0  0  0  0  0
   -2.4808   -2.0040   -1.1526 H   0  0  0  0  0  0  0  0  0  0  0  0
   -3.8595   -1.1319   -0.5564 H   0  0  0  0  0  0  0  0  0  0  0  0
   -1.7978    0.3930    2.0980 H   0  0  0  0  0  0  0  0  0  0  0  0
   -3.2754    1.2038    1.2868 H   0  0  0  0  0  0  0  0  0  0  0  0
   -3.2094   -0.5669    1.7400 H   0  0  0  0  0  0  0  0  0  0  0  0
  1  2  1  0
  2  3  2  0
  3  4  1  0
  3  5  1  0
  5  6  1  0
  6  7  2  0
  6  8  1  0
  5  9  2  0
  9 10  1  0
 10 11  2  0
 11 12  1  0
 10 13  1  0
 13 14  2  0
 13 15  1  0
  9 16  1  0
 16 17  1  0
 16 18  1  0
 16 19  1  0
 11  2  1  0
  1 20  1  0
  1 21  1  0
  1 22  1  0
  4 23  1  0
  4 24  1  0
  4 25  1  0
 12 26  1  0
 12 27  1  0
 12 28  1  0
 17 29  1  0
 17 30  1  0
 17 31  1  0
 18 32  1  0
 18 33  1  0
 18 34  1  0
 19 35  1  0
 19 36  1  0
 19 37  1  0
M  CHG  4   6   1   8  -1  13   1  15  -1
M  END
>  <Ligand ID>  (1) 
LIG0000736

>  <Ligand>  (1) 
Musk tibetine

>  <SMILES>  (1) 
Cc1c(C)c([N+](=O)[O-])c(c(c1C)[N+](=O)[O-])C(C)(C)C

>  <CID>  (1) 
67350.0

>  <ChEMBL ID>  (1) 
nan

>  <InChiKey>  (1) 
MINYPECWDZURGR-UHFFFAOYSA-N

>  <InChi>  (1) 
InChI=1S/C13H18N2O4/c1-7-8(2)11(14(16)17)10(13(4,5)6)12(9(7)3)15(18)19/h1-6H3

>  <IUPAC Name>  (1) 
1-tert-butyl-3,4,5-trimethyl-2,6-dinitrobenzene

$$$$
