
     RDKit          3D

 86 91  0  0  0  0  0  0  0  0999 V2000
   -3.0211    5.3294    1.4309 C   0  0  0  0  0  0  0  0  0  0  0  0
   -1.8212    5.5219    0.7321 O   0  0  0  0  0  0  0  0  0  0  0  0
   -1.1262    4.5133    0.0984 C   0  0  0  0  0  0  0  0  0  0  0  0
   -1.5978    3.2331    0.1320 C   0  0  0  0  0  0  0  0  0  0  0  0
   -0.9094    2.2245   -0.4985 C   0  0  0  0  0  0  0  0  0  0  0  0
    0.2709    2.5446   -1.1659 C   0  0  0  0  0  0  0  0  0  0  0  0
    0.7471    3.8436   -1.1988 C   0  0  0  0  0  0  0  0  0  0  0  0
    0.0461    4.8552   -0.5596 C   0  0  0  0  0  0  0  0  0  0  0  0
    0.4839    6.1722   -0.5653 O   0  0  0  0  0  0  0  0  0  0  0  0
    1.6726    6.5208   -1.2322 C   0  0  0  0  0  0  0  0  0  0  0  0
    0.9237    1.5265   -1.7841 N   0  0  0  0  0  0  0  0  0  0  0  0
    0.4932    0.2519   -1.7821 C   0  0  0  0  0  0  0  0  0  0  0  0
   -0.6668    0.0041   -1.1117 N   0  0  0  0  0  0  0  0  0  0  0  0
   -1.3825    0.9372   -0.4724 C   0  0  0  0  0  0  0  0  0  0  0  0
   -2.5721    0.5227    0.1732 N   0  0  0  0  0  0  0  0  0  0  0  0
   -2.5095   -0.5076    1.2135 C   0  0  0  0  0  0  0  0  0  0  0  0
   -3.8786   -0.8647    1.6961 C   0  0  0  0  0  0  0  0  0  0  0  0
   -4.7092   -1.1678    0.5476 N   0  0  0  0  0  0  0  0  0  0  0  0
   -4.8411   -0.1172   -0.4498 C   0  0  0  0  0  0  0  0  0  0  0  0
   -3.8934    1.0294   -0.1376 C   0  0  0  0  0  0  0  0  0  0  0  0
   -5.3920   -2.3919    0.3553 C   0  0  0  0  0  0  0  0  0  0  0  0
   -5.0397   -3.2779   -0.6652 C   0  0  0  0  0  0  0  0  0  0  0  0
   -5.7257   -4.4469   -0.8060 C   0  0  0  0  0  0  0  0  0  0  0  0
   -6.7771   -4.8185    0.0216 C   0  0  0  0  0  0  0  0  0  0  0  0
   -7.1316   -3.9461    1.0343 C   0  0  0  0  0  0  0  0  0  0  0  0
   -6.4504   -2.7791    1.1792 C   0  0  0  0  0  0  0  0  0  0  0  0
   -6.7923   -1.8985    2.1841 O   0  0  0  0  0  0  0  0  0  0  0  0
   -7.8395   -2.1473    3.0923 C   0  0  0  0  0  0  0  0  0  0  0  0
    1.2042   -0.7852   -2.5283 C   0  0  0  0  0  0  0  0  0  0  0  0
    2.3148   -1.5250   -1.9224 C   0  0  0  0  0  0  0  0  0  0  0  0
    2.0439   -2.2380   -0.7226 N   0  0  0  0  0  0  0  0  0  0  0  0
    3.1697   -3.1945   -0.5209 C   0  0  0  0  0  0  0  0  0  0  0  0
    4.4281   -2.5361   -0.1075 C   0  0  0  0  0  0  0  0  0  0  0  0
    4.3602   -1.1341    0.1651 N   0  0  0  0  0  0  0  0  0  0  0  0
    3.1483   -0.4377    0.5801 C   0  0  0  0  0  0  0  0  0  0  0  0
    2.0084   -1.4052    0.4828 C   0  0  0  0  0  0  0  0  0  0  0  0
    5.5816   -0.3838    0.0014 C   0  0  0  0  0  0  0  0  0  0  0  0
    5.5916    0.6590   -0.8976 C   0  0  0  0  0  0  0  0  0  0  0  0
    6.7351    1.4037   -1.0991 C   0  0  0  0  0  0  0  0  0  0  0  0
    7.8882    1.0864   -0.3763 C   0  0  0  0  0  0  0  0  0  0  0  0
    7.8748    0.0340    0.5309 C   0  0  0  0  0  0  0  0  0  0  0  0
    6.7230   -0.7189    0.7355 C   0  0  0  0  0  0  0  0  0  0  0  0
    6.6893   -1.7804    1.6418 O   0  0  0  0  0  0  0  0  0  0  0  0
    7.8724   -2.0796    2.3617 C   0  0  0  0  0  0  0  0  0  0  0  0
   -3.7216    4.6820    0.8350 H   0  0  0  0  0  0  0  0  0  0  0  0
   -3.4719    6.3459    1.5460 H   0  0  0  0  0  0  0  0  0  0  0  0
   -2.8920    4.8674    2.4137 H   0  0  0  0  0  0  0  0  0  0  0  0
   -2.4949    3.0069    0.6428 H   0  0  0  0  0  0  0  0  0  0  0  0
    1.6749    4.0853   -1.7260 H   0  0  0  0  0  0  0  0  0  0  0  0
    1.6066    6.4246   -2.3156 H   0  0  0  0  0  0  0  0  0  0  0  0
    2.5294    5.9126   -0.8515 H   0  0  0  0  0  0  0  0  0  0  0  0
    1.9202    7.5779   -1.0047 H   0  0  0  0  0  0  0  0  0  0  0  0
   -2.0798   -1.4635    0.7889 H   0  0  0  0  0  0  0  0  0  0  0  0
   -1.8572   -0.2188    2.0530 H   0  0  0  0  0  0  0  0  0  0  0  0
   -3.8004   -1.7758    2.3202 H   0  0  0  0  0  0  0  0  0  0  0  0
   -4.3452   -0.0412    2.2788 H   0  0  0  0  0  0  0  0  0  0  0  0
   -5.8834    0.2433   -0.4158 H   0  0  0  0  0  0  0  0  0  0  0  0
   -4.6493   -0.5400   -1.4436 H   0  0  0  0  0  0  0  0  0  0  0  0
   -3.9076    1.7164   -0.9939 H   0  0  0  0  0  0  0  0  0  0  0  0
   -4.3170    1.5555    0.7381 H   0  0  0  0  0  0  0  0  0  0  0  0
   -4.2192   -3.0300   -1.3408 H   0  0  0  0  0  0  0  0  0  0  0  0
   -5.4908   -5.1839   -1.5926 H   0  0  0  0  0  0  0  0  0  0  0  0
   -7.3110   -5.7673   -0.1180 H   0  0  0  0  0  0  0  0  0  0  0  0
   -7.9570   -4.2621    1.6643 H   0  0  0  0  0  0  0  0  0  0  0  0
   -8.1437   -1.1392    3.4749 H   0  0  0  0  0  0  0  0  0  0  0  0
   -7.5560   -2.8352    3.9077 H   0  0  0  0  0  0  0  0  0  0  0  0
   -8.6937   -2.5603    2.5152 H   0  0  0  0  0  0  0  0  0  0  0  0
    1.4890   -0.3026   -3.5103 H   0  0  0  0  0  0  0  0  0  0  0  0
    0.4103   -1.5598   -2.8211 H   0  0  0  0  0  0  0  0  0  0  0  0
    3.2628   -0.9197   -1.8471 H   0  0  0  0  0  0  0  0  0  0  0  0
    2.6256   -2.3129   -2.6982 H   0  0  0  0  0  0  0  0  0  0  0  0
    3.2774   -3.7977   -1.4413 H   0  0  0  0  0  0  0  0  0  0  0  0
    2.8145   -3.9072    0.2583 H   0  0  0  0  0  0  0  0  0  0  0  0
    4.8365   -3.0939    0.7653 H   0  0  0  0  0  0  0  0  0  0  0  0
    5.1694   -2.6799   -0.9505 H   0  0  0  0  0  0  0  0  0  0  0  0
    3.2781   -0.1981    1.6712 H   0  0  0  0  0  0  0  0  0  0  0  0
    2.9994    0.4728   -0.0171 H   0  0  0  0  0  0  0  0  0  0  0  0
    1.0279   -1.0077    0.6269 H   0  0  0  0  0  0  0  0  0  0  0  0
    2.1502   -2.1620    1.3166 H   0  0  0  0  0  0  0  0  0  0  0  0
    4.7103    0.9480   -1.4860 H   0  0  0  0  0  0  0  0  0  0  0  0
    6.7161    2.2227   -1.8159 H   0  0  0  0  0  0  0  0  0  0  0  0
    8.7782    1.6907   -0.5554 H   0  0  0  0  0  0  0  0  0  0  0  0
    8.7732   -0.1794    1.0643 H   0  0  0  0  0  0  0  0  0  0  0  0
    7.7540   -3.0184    2.9419 H   0  0  0  0  0  0  0  0  0  0  0  0
    8.6752   -2.1831    1.5806 H   0  0  0  0  0  0  0  0  0  0  0  0
    8.1184   -1.2441    3.0315 H   0  0  0  0  0  0  0  0  0  0  0  0
  1  2  1  0
  2  3  1  0
  3  4  2  0
  4  5  1  0
  5  6  2  0
  6  7  1  0
  7  8  2  0
  8  9  1  0
  9 10  1  0
  6 11  1  0
 11 12  2  0
 12 13  1  0
 13 14  2  0
 14 15  1  0
 15 16  1  0
 16 17  1  0
 17 18  1  0
 18 19  1  0
 19 20  1  0
 18 21  1  0
 21 22  2  0
 22 23  1  0
 23 24  2  0
 24 25  1  0
 25 26  2  0
 26 27  1  0
 27 28  1  0
 12 29  1  0
 29 30  1  0
 30 31  1  0
 31 32  1  0
 32 33  1  0
 33 34  1  0
 34 35  1  0
 35 36  1  0
 34 37  1  0
 37 38  2  0
 38 39  1  0
 39 40  2  0
 40 41  1  0
 41 42  2  0
 42 43  1  0
 43 44  1  0
  8  3  1  0
 20 15  1  0
 26 21  1  0
 36 31  1  0
 42 37  1  0
 14  5  1  0
  1 45  1  0
  1 46  1  0
  1 47  1  0
  4 48  1  0
  7 49  1  0
 10 50  1  0
 10 51  1  0
 10 52  1  0
 16 53  1  0
 16 54  1  0
 17 55  1  0
 17 56  1  0
 19 57  1  0
 19 58  1  0
 20 59  1  0
 20 60  1  0
 22 61  1  0
 23 62  1  0
 24 63  1  0
 25 64  1  0
 28 65  1  0
 28 66  1  0
 28 67  1  0
 29 68  1  0
 29 69  1  0
 30 70  1  0
 30 71  1  0
 32 72  1  0
 32 73  1  0
 33 74  1  0
 33 75  1  0
 35 76  1  0
 35 77  1  0
 36 78  1  0
 36 79  1  0
 38 80  1  0
 39 81  1  0
 40 82  1  0
 41 83  1  0
 44 84  1  0
 44 85  1  0
 44 86  1  0
M  END
>  <Ligand ID>  (1) 
LIG0004873

>  <Ligand>  (1) 
CHEMBL2431124

>  <SMILES>  (1) 
COc1cc2c(cc1OC)nc(nc2N1CCN(CC1)c1ccccc1OC)CCN1CCN(CC1)c1ccccc1OC

>  <CID>  (1) 
56593281.0

>  <ChEMBL ID>  (1) 
nan

>  <InChiKey>  (1) 
YVDRBUFQCDWPFH-UHFFFAOYSA-N

>  <InChi>  (1) 
InChI=1S/C34H42N6O4/c1-41-29-11-7-5-9-27(29)38-17-15-37(16-18-38)14-13-33-35-26-24-32(44-4)31(43-3)23-25(26)34(36-33)40-21-19-39(20-22-40)28-10-6-8-12-30(28)42-2/h5-12,23-24H,13-22H2,1-4H3

>  <IUPAC Name>  (1) 
6,7-dimethoxy-4-[4-(2-methoxyphenyl)piperazin-1-yl]-2-[2-[4-(2-methoxyphenyl)piperazin-1-yl]ethyl]quinazoline

$$$$
