
     RDKit          3D

 29 29  0  0  0  0  0  0  0  0999 V2000
    0.3269    1.6132    1.5795 O   0  0  0  0  0  0  0  0  0  0  0  0
    0.2406    1.6740    0.3697 C   0  0  0  0  0  0  0  0  0  0  0  0
    1.3379    1.3043   -0.5710 C   0  0  0  0  0  0  0  0  0  0  0  0
    2.3709    0.4214    0.1317 C   0  0  0  0  0  0  0  0  0  0  0  0
    1.6291   -0.8084    0.6362 C   0  0  0  0  0  0  0  0  0  0  0  0
    0.9704   -1.5912   -0.4916 C   0  0  0  0  0  0  0  0  0  0  0  0
   -0.2862   -2.2436    0.0850 C   0  0  0  0  0  0  0  0  0  0  0  0
   -1.2290   -1.1627    0.5374 C   0  0  0  0  0  0  0  0  0  0  0  0
   -1.7434   -0.2704   -0.5062 C   0  0  0  0  0  0  0  0  0  0  0  0
   -2.1084    1.1096   -0.0281 C   0  0  0  0  0  0  0  0  0  0  0  0
   -1.0241    2.1387   -0.2300 C   0  0  0  0  0  0  0  0  0  0  0  0
    1.0026    0.9295   -1.5164 H   0  0  0  0  0  0  0  0  0  0  0  0
    1.8754    2.2748   -0.7850 H   0  0  0  0  0  0  0  0  0  0  0  0
    2.7093    0.9723    1.0209 H   0  0  0  0  0  0  0  0  0  0  0  0
    3.1990    0.1865   -0.5346 H   0  0  0  0  0  0  0  0  0  0  0  0
    1.0092   -0.5360    1.4621 H   0  0  0  0  0  0  0  0  0  0  0  0
    2.4604   -1.4420    1.0971 H   0  0  0  0  0  0  0  0  0  0  0  0
    1.6462   -2.4389   -0.7200 H   0  0  0  0  0  0  0  0  0  0  0  0
    0.8241   -1.0456   -1.4055 H   0  0  0  0  0  0  0  0  0  0  0  0
    0.0203   -2.8279    0.9472 H   0  0  0  0  0  0  0  0  0  0  0  0
   -0.7242   -2.8674   -0.6868 H   0  0  0  0  0  0  0  0  0  0  0  0
   -0.9146   -0.6781    1.4428 H   0  0  0  0  0  0  0  0  0  0  0  0
   -2.1446   -1.7766    0.8838 H   0  0  0  0  0  0  0  0  0  0  0  0
   -1.0986   -0.1468   -1.3982 H   0  0  0  0  0  0  0  0  0  0  0  0
   -2.7092   -0.6661   -0.9593 H   0  0  0  0  0  0  0  0  0  0  0  0
   -3.1053    1.4638   -0.3566 H   0  0  0  0  0  0  0  0  0  0  0  0
   -2.2168    1.0467    1.1035 H   0  0  0  0  0  0  0  0  0  0  0  0
   -0.9325    2.2776   -1.3317 H   0  0  0  0  0  0  0  0  0  0  0  0
   -1.3854    3.0893    0.2243 H   0  0  0  0  0  0  0  0  0  0  0  0
  1  2  2  0
  2  3  1  0
  3  4  1  0
  4  5  1  0
  5  6  1  0
  6  7  1  0
  7  8  1  0
  8  9  1  0
  9 10  1  0
 10 11  1  0
 11  2  1  0
  3 12  1  0
  3 13  1  0
  4 14  1  0
  4 15  1  0
  5 16  1  0
  5 17  1  0
  6 18  1  0
  6 19  1  0
  7 20  1  0
  7 21  1  0
  8 22  1  0
  8 23  1  0
  9 24  1  0
  9 25  1  0
 10 26  1  0
 10 27  1  0
 11 28  1  0
 11 29  1  0
M  END
>  <Ligand ID>  (1) 
LIG0000480

>  <Ligand>  (1) 
cyclodecanone

>  <SMILES>  (1) 
O=C1CCCCCCCCC1

>  <CID>  (1) 
73918.0

>  <ChEMBL ID>  (1) 
nan

>  <InChiKey>  (1) 
SXOZDDAFVJANJP-UHFFFAOYSA-N

>  <InChi>  (1) 
InChI=1S/C10H18O/c11-10-8-6-4-2-1-3-5-7-9-10/h1-9H2

>  <IUPAC Name>  (1) 
cyclodecanone

$$$$
