
     RDKit          3D

 27 28  0  0  0  0  0  0  0  0999 V2000
   -2.8991    0.5373    0.8625 C   0  0  0  0  0  0  0  0  0  0  0  0
   -2.1951   -0.7374    0.4602 C   0  0  2  0  0  0  0  0  0  0  0  0
   -1.3927   -0.5513   -0.8150 C   0  0  0  0  0  0  0  0  0  0  0  0
   -0.3792    0.4898   -0.6197 N   0  0  0  0  0  0  0  0  0  0  0  0
   -0.5565    1.7847   -0.8529 N   0  0  0  0  0  0  0  0  0  0  0  0
    0.5938    2.4475   -0.5614 C   0  0  0  0  0  0  0  0  0  0  0  0
    1.5352    1.5112   -0.1236 C   0  0  0  0  0  0  0  0  0  0  0  0
    0.8760    0.2907   -0.1774 C   0  0  0  0  0  0  0  0  0  0  0  0
    1.5991   -0.8279    0.2127 C   0  0  0  0  0  0  0  0  0  0  0  0
    2.9206   -0.7358    0.6378 C   0  0  0  0  0  0  0  0  0  0  0  0
    3.6172   -1.8792    1.0225 O   0  0  0  0  0  0  0  0  0  0  0  0
    3.5433    0.5008    0.6773 C   0  0  0  0  0  0  0  0  0  0  0  0
    2.8353    1.6432    0.2890 C   0  0  0  0  0  0  0  0  0  0  0  0
   -3.1491   -1.7929    0.2303 N   0  0  0  0  0  0  0  0  0  0  0  0
   -3.3730    1.0213   -0.0120 H   0  0  0  0  0  0  0  0  0  0  0  0
   -2.1523    1.2129    1.2978 H   0  0  0  0  0  0  0  0  0  0  0  0
   -3.6660    0.2704    1.6127 H   0  0  0  0  0  0  0  0  0  0  0  0
   -1.4799   -1.0211    1.2404 H   0  0  0  0  0  0  0  0  0  0  0  0
   -2.0219   -0.3586   -1.6997 H   0  0  0  0  0  0  0  0  0  0  0  0
   -0.8799   -1.5315   -0.9720 H   0  0  0  0  0  0  0  0  0  0  0  0
    0.7748    3.5201   -0.6460 H   0  0  0  0  0  0  0  0  0  0  0  0
    1.0740   -1.7712    0.1660 H   0  0  0  0  0  0  0  0  0  0  0  0
    3.0946   -2.7091    1.2145 H   0  0  0  0  0  0  0  0  0  0  0  0
    4.5624    0.5916    1.0025 H   0  0  0  0  0  0  0  0  0  0  0  0
    3.2661    2.6258    0.2992 H   0  0  0  0  0  0  0  0  0  0  0  0
   -2.7066   -2.6886    0.5336 H   0  0  0  0  0  0  0  0  0  0  0  0
   -3.4409   -1.8427   -0.7681 H   0  0  0  0  0  0  0  0  0  0  0  0
  1  2  1  0
  2  3  1  0
  3  4  1  0
  4  5  1  0
  5  6  2  0
  6  7  1  0
  7  8  2  0
  8  9  1  0
  9 10  2  0
 10 11  1  0
 10 12  1  0
 12 13  2  0
  2 14  1  0
  8  4  1  0
 13  7  1  0
  1 15  1  0
  1 16  1  0
  1 17  1  0
  2 18  1  1
  3 19  1  0
  3 20  1  0
  6 21  1  0
  9 22  1  0
 11 23  1  0
 12 24  1  0
 13 25  1  0
 14 26  1  0
 14 27  1  0
M  END
>  <Ligand ID>  (1) 
LIG0000580

>  <Ligand>  (1) 
CHEMBL437314

>  <SMILES>  (1) 
C[C@H](Cn1ncc2c1cc(O)cc2)N

>  <CID>  (1) 
135399666.0

>  <ChEMBL ID>  (1) 
nan

>  <InChiKey>  (1) 
WBYHTZYHAFNBKW-SSDOTTSWSA-N

>  <InChi>  (1) 
InChI=1S/C10H13N3O/c1-7(11)6-13-10-4-9(14)3-2-8(10)5-12-13/h2-5,7,14H,6,11H2,1H3/t7-/m1/s1

>  <IUPAC Name>  (1) 
1-[(2R)-2-aminopropyl]indazol-6-ol

$$$$
