
     RDKit          3D

 28 30  0  0  0  0  0  0  0  0999 V2000
   -6.3734    0.0505    0.3626 Br  0  0  0  0  0  0  0  0  0  0  0  0
   -4.5058    0.2247    0.0113 C   0  0  0  0  0  0  0  0  0  0  0  0
   -4.0300    1.1763   -0.8826 C   0  0  0  0  0  0  0  0  0  0  0  0
   -2.6669    1.2749   -1.1138 C   0  0  0  0  0  0  0  0  0  0  0  0
   -1.7969    0.4310   -0.4571 C   0  0  0  0  0  0  0  0  0  0  0  0
   -2.2788   -0.5188    0.4359 C   0  0  0  0  0  0  0  0  0  0  0  0
   -3.6343   -0.6147    0.6638 C   0  0  0  0  0  0  0  0  0  0  0  0
   -1.3427   -1.3103    1.0392 C   0  0  0  0  0  0  0  0  0  0  0  0
   -1.7219   -2.1937    1.8625 O   0  0  0  0  0  0  0  0  0  0  0  0
   -0.0278   -1.1439    0.7530 N   0  0  0  0  0  0  0  0  0  0  0  0
    0.4256   -0.2260   -0.1087 C   0  0  0  0  0  0  0  0  0  0  0  0
   -0.4949    0.5544   -0.7038 N   0  0  0  0  0  0  0  0  0  0  0  0
    1.8127    0.0008   -0.4561 C   0  0  0  0  0  0  0  0  0  0  0  0
    2.1092    1.0095   -1.3816 C   0  0  0  0  0  0  0  0  0  0  0  0
    3.3875    1.3055   -1.7789 C   0  0  0  0  0  0  0  0  0  0  0  0
    4.4683    0.6129   -1.2788 C   0  0  0  0  0  0  0  0  0  0  0  0
    4.1964   -0.3838   -0.3665 C   0  0  0  0  0  0  0  0  0  0  0  0
    2.8951   -0.6805    0.0338 C   0  0  0  0  0  0  0  0  0  0  0  0
    5.5498   -1.2894    0.2937 Cl  0  0  0  0  0  0  0  0  0  0  0  0
    0.8299   -1.9739    1.3986 O   0  0  0  0  0  0  0  0  0  0  0  0
   -4.7204    1.8265   -1.3865 H   0  0  0  0  0  0  0  0  0  0  0  0
   -2.3043    2.0268   -1.8187 H   0  0  0  0  0  0  0  0  0  0  0  0
   -3.9639   -1.3662    1.3650 H   0  0  0  0  0  0  0  0  0  0  0  0
    1.3156    1.6127   -1.8326 H   0  0  0  0  0  0  0  0  0  0  0  0
    3.5682    2.0936   -2.4966 H   0  0  0  0  0  0  0  0  0  0  0  0
    5.4937    0.8045   -1.5568 H   0  0  0  0  0  0  0  0  0  0  0  0
    2.7956   -1.4636    0.7385 H   0  0  0  0  0  0  0  0  0  0  0  0
    1.0143   -1.8397    2.3830 H   0  0  0  0  0  0  0  0  0  0  0  0
  1  2  1  0
  2  3  2  0
  3  4  1  0
  4  5  2  0
  5  6  1  0
  6  7  2  0
  6  8  1  0
  8  9  2  0
  8 10  1  0
 10 11  1  0
 11 12  2  0
 11 13  1  0
 13 14  2  0
 14 15  1  0
 15 16  2  0
 16 17  1  0
 17 18  2  0
 17 19  1  0
 10 20  1  0
  7  2  1  0
 18 13  1  0
 12  5  1  0
  3 21  1  0
  4 22  1  0
  7 23  1  0
 14 24  1  0
 15 25  1  0
 16 26  1  0
 18 27  1  0
 20 28  1  0
M  END
>  <Ligand ID>  (1) 
LIG0005839

>  <Ligand>  (1) 
MLS001165292

>  <SMILES>  (1) 
Brc1ccc2c(c1)c(=O)n(c(n2)c1cccc(c1)Cl)O

>  <CID>  (1) 
1471100.0

>  <ChEMBL ID>  (1) 
nan

>  <InChiKey>  (1) 
GYUZLZSUQLLJAL-UHFFFAOYSA-N

>  <InChi>  (1) 
InChI=1S/C14H8BrClN2O2/c15-9-4-5-12-11(7-9)14(19)18(20)13(17-12)8-2-1-3-10(16)6-8/h1-7,20H

>  <IUPAC Name>  (1) 
6-bromo-2-(3-chlorophenyl)-3-hydroxyquinazolin-4-one

$$$$
