
     RDKit          3D

 53 58  0  0  0  0  0  0  0  0999 V2000
    4.3787   -1.5588   -2.0015 O   0  0  0  0  0  0  0  0  0  0  0  0
    4.1585   -0.8291   -1.0056 C   0  0  0  0  0  0  0  0  0  0  0  0
    5.3096   -0.4680   -0.1695 C   0  0  0  0  0  0  0  0  0  0  0  0
    5.5546   -0.8018    1.1430 C   0  0  0  0  0  0  0  0  0  0  0  0
    6.7581   -0.2251    1.4706 C   0  0  0  0  0  0  0  0  0  0  0  0
    7.1763    0.4283    0.3351 C   0  0  0  0  0  0  0  0  0  0  0  0
    6.3061    0.2793   -0.6429 O   0  0  0  0  0  0  0  0  0  0  0  0
    2.8536   -0.3944   -0.7322 N   0  0  0  0  0  0  0  0  0  0  0  0
    1.7835   -0.8063   -1.6201 C   0  0  0  0  0  0  0  0  0  0  0  0
    0.6537    0.1605   -1.5634 C   0  0  0  0  0  0  0  0  0  0  0  0
    0.1613    0.3512   -0.1876 N   0  0  0  0  0  0  0  0  0  0  0  0
    1.1276    0.0324    0.8579 C   0  0  0  0  0  0  0  0  0  0  0  0
    2.5366    0.4477    0.4007 C   0  0  0  0  0  0  0  0  0  0  0  0
   -1.1437    0.8344    0.0823 C   0  0  0  0  0  0  0  0  0  0  0  0
   -1.1998    2.1221    0.4871 N   0  0  0  0  0  0  0  0  0  0  0  0
   -2.3355    2.7618    0.7212 C   0  0  0  0  0  0  0  0  0  0  0  0
   -3.4834    2.0912    0.5459 N   0  0  0  0  0  0  0  0  0  0  0  0
   -3.4615    0.8307    0.1531 C   0  0  0  0  0  0  0  0  0  0  0  0
   -2.3203    0.0839   -0.1134 C   0  0  0  0  0  0  0  0  0  0  0  0
   -2.4791   -1.1753   -0.4935 C   0  0  0  0  0  0  0  0  0  0  0  0
   -1.4830   -2.2723   -0.8234 C   0  0  0  0  0  0  0  0  0  0  0  0
   -1.8642   -3.6048   -0.3083 C   0  0  0  0  0  0  0  0  0  0  0  0
   -3.2866   -3.9380   -0.1417 C   0  0  0  0  0  0  0  0  0  0  0  0
   -4.1207   -3.0320   -1.0161 C   0  0  0  0  0  0  0  0  0  0  0  0
   -3.8086   -1.6508   -0.5994 C   0  0  0  0  0  0  0  0  0  0  0  0
   -4.8132   -0.2693   -0.1437 S   0  0  0  0  0  0  0  0  0  0  0  0
   -2.4032    4.1791    1.1780 C   0  0  0  0  0  0  0  0  0  0  0  0
   -3.6709    4.8387    1.4945 C   0  0  0  0  0  0  0  0  0  0  0  0
   -3.0752    5.0796    0.1488 C   0  0  0  0  0  0  0  0  0  0  0  0
    4.8879   -1.4160    1.7735 H   0  0  0  0  0  0  0  0  0  0  0  0
    7.2300   -0.3026    2.4362 H   0  0  0  0  0  0  0  0  0  0  0  0
    8.0811    0.9935    0.2196 H   0  0  0  0  0  0  0  0  0  0  0  0
    2.2285   -0.7197   -2.6546 H   0  0  0  0  0  0  0  0  0  0  0  0
    1.5064   -1.8720   -1.5202 H   0  0  0  0  0  0  0  0  0  0  0  0
   -0.1432   -0.1644   -2.2493 H   0  0  0  0  0  0  0  0  0  0  0  0
    1.0556    1.1611   -1.9085 H   0  0  0  0  0  0  0  0  0  0  0  0
    0.9363    0.5360    1.8092 H   0  0  0  0  0  0  0  0  0  0  0  0
    1.2139   -1.0650    0.9978 H   0  0  0  0  0  0  0  0  0  0  0  0
    3.2034    0.2505    1.2663 H   0  0  0  0  0  0  0  0  0  0  0  0
    2.4937    1.5197    0.1258 H   0  0  0  0  0  0  0  0  0  0  0  0
   -0.5253   -2.0177   -0.2890 H   0  0  0  0  0  0  0  0  0  0  0  0
   -1.2530   -2.2336   -1.9047 H   0  0  0  0  0  0  0  0  0  0  0  0
   -1.3354   -3.8820    0.6520 H   0  0  0  0  0  0  0  0  0  0  0  0
   -1.4349   -4.3598   -1.0386 H   0  0  0  0  0  0  0  0  0  0  0  0
   -3.4779   -5.0122   -0.3506 H   0  0  0  0  0  0  0  0  0  0  0  0
   -3.5927   -3.7050    0.9138 H   0  0  0  0  0  0  0  0  0  0  0  0
   -5.2083   -3.1787   -0.8188 H   0  0  0  0  0  0  0  0  0  0  0  0
   -3.8657   -3.1379   -2.0735 H   0  0  0  0  0  0  0  0  0  0  0  0
   -1.4675    4.6017    1.6250 H   0  0  0  0  0  0  0  0  0  0  0  0
   -3.7032    5.7009    2.1828 H   0  0  0  0  0  0  0  0  0  0  0  0
   -4.5834    4.1701    1.4748 H   0  0  0  0  0  0  0  0  0  0  0  0
   -3.5074    4.6204   -0.7703 H   0  0  0  0  0  0  0  0  0  0  0  0
   -2.5481    6.0181   -0.0756 H   0  0  0  0  0  0  0  0  0  0  0  0
  1  2  2  0
  2  3  1  0
  3  4  2  0
  4  5  1  0
  5  6  2  0
  6  7  1  0
  2  8  1  0
  8  9  1  0
  9 10  1  0
 10 11  1  0
 11 12  1  0
 12 13  1  0
 11 14  1  0
 14 15  2  0
 15 16  1  0
 16 17  2  0
 17 18  1  0
 18 19  2  0
 19 20  1  0
 20 21  1  0
 21 22  1  0
 22 23  1  0
 23 24  1  0
 24 25  1  0
 25 26  1  0
 16 27  1  0
 27 28  1  0
 28 29  1  0
  7  3  1  0
 13  8  1  0
 19 14  1  0
 25 20  2  0
 29 27  1  0
 26 18  1  0
  4 30  1  0
  5 31  1  0
  6 32  1  0
  9 33  1  0
  9 34  1  0
 10 35  1  0
 10 36  1  0
 12 37  1  0
 12 38  1  0
 13 39  1  0
 13 40  1  0
 21 41  1  0
 21 42  1  0
 22 43  1  0
 22 44  1  0
 23 45  1  0
 23 46  1  0
 24 47  1  0
 24 48  1  0
 27 49  1  0
 28 50  1  0
 28 51  1  0
 29 52  1  0
 29 53  1  0
M  END
>  <Ligand ID>  (1) 
LIG0003075

>  <Ligand>  (1) 
MLS000071807

>  <SMILES>  (1) 
O=C(c1ccco1)N1CCN(CC1)c1nc(nc2c1c1CCCCc1s2)C1CC1

>  <CID>  (1) 
655864.0

>  <ChEMBL ID>  (1) 
nan

>  <InChiKey>  (1) 
DHEVDMHYABXIBV-UHFFFAOYSA-N

>  <InChi>  (1) 
InChI=1S/C22H24N4O2S/c27-22(16-5-3-13-28-16)26-11-9-25(10-12-26)20-18-15-4-1-2-6-17(15)29-21(18)24-19(23-20)14-7-8-14/h3,5,13-14H,1-2,4,6-12H2

>  <IUPAC Name>  (1) 
[4-(2-cyclopropyl-5,6,7,8-tetrahydro-[1]benzothiolo[2,3-d]pyrimidin-4-yl)piperazin-1-yl]-(furan-2-yl)methanone

$$$$
