
     RDKit          3D

 38 40  0  0  0  0  0  0  0  0999 V2000
    2.3448    2.8954   -0.3650 F   0  0  0  0  0  0  0  0  0  0  0  0
    1.5927    1.6533   -0.5048 C   0  0  0  0  0  0  0  0  0  0  0  0
    2.5941    0.5858   -0.5055 C   0  0  0  0  0  0  0  0  0  0  0  0
    3.9288    1.0476   -0.6427 C   0  0  0  0  0  0  0  0  0  0  0  0
    5.0119    0.2039   -0.5869 C   0  0  0  0  0  0  0  0  0  0  0  0
    4.7336   -1.1157   -0.3900 C   0  0  0  0  0  0  0  0  0  0  0  0
    3.5098   -1.5155   -0.2690 N   0  0  0  0  0  0  0  0  0  0  0  0
    2.3631   -0.7632   -0.3121 C   0  0  0  0  0  0  0  0  0  0  0  0
    1.1769   -1.4596    0.0691 C   0  0  0  0  0  0  0  0  0  0  0  0
    1.4338   -2.5290    1.0169 C   0  0  0  0  0  0  0  0  0  0  0  0
    0.4280   -3.1021    1.7411 C   0  0  0  0  0  0  0  0  0  0  0  0
   -0.8916   -2.7290    1.6415 C   0  0  0  0  0  0  0  0  0  0  0  0
   -1.1690   -1.7199    0.7439 C   0  0  0  0  0  0  0  0  0  0  0  0
   -0.1356   -1.1665    0.0274 C   0  0  0  0  0  0  0  0  0  0  0  0
   -0.5628   -0.4319   -1.1368 N   0  0  0  0  0  0  0  0  0  0  0  0
   -1.8848    0.0094   -1.3835 C   0  0  0  0  0  0  0  0  0  0  0  0
   -2.5468    0.8696   -0.3840 C   0  0  0  0  0  0  0  0  0  0  0  0
   -2.1727    1.2904    0.7665 N   0  0  0  0  0  0  0  0  0  0  0  0
   -3.1724    2.1101    1.3693 C   0  0  0  0  0  0  0  0  0  0  0  0
   -4.4110    1.8807    0.5651 C   0  0  0  0  0  0  0  0  0  0  0  0
   -3.8872    1.3813   -0.6658 N   0  0  0  0  0  0  0  0  0  0  0  0
    0.9440    1.8624   -1.7139 F   0  0  0  0  0  0  0  0  0  0  0  0
    0.7247    1.6795    0.5276 F   0  0  0  0  0  0  0  0  0  0  0  0
    4.1516    2.0917   -0.8047 H   0  0  0  0  0  0  0  0  0  0  0  0
    6.0146    0.5861   -0.6950 H   0  0  0  0  0  0  0  0  0  0  0  0
    5.5495   -1.8181   -0.3399 H   0  0  0  0  0  0  0  0  0  0  0  0
    2.4241   -2.8912    1.1660 H   0  0  0  0  0  0  0  0  0  0  0  0
    0.6746   -3.9032    2.4435 H   0  0  0  0  0  0  0  0  0  0  0  0
   -1.6156   -3.2176    2.2399 H   0  0  0  0  0  0  0  0  0  0  0  0
   -2.2031   -1.4306    0.6542 H   0  0  0  0  0  0  0  0  0  0  0  0
    0.1453   -0.2848   -1.9180 H   0  0  0  0  0  0  0  0  0  0  0  0
   -2.5548   -0.8771   -1.6328 H   0  0  0  0  0  0  0  0  0  0  0  0
   -1.9120    0.5938   -2.3586 H   0  0  0  0  0  0  0  0  0  0  0  0
   -3.2735    1.7715    2.4261 H   0  0  0  0  0  0  0  0  0  0  0  0
   -2.9366    3.1937    1.3779 H   0  0  0  0  0  0  0  0  0  0  0  0
   -4.9992    1.0862    1.0377 H   0  0  0  0  0  0  0  0  0  0  0  0
   -5.0425    2.7773    0.4554 H   0  0  0  0  0  0  0  0  0  0  0  0
   -4.3746    1.3854   -1.5847 H   0  0  0  0  0  0  0  0  0  0  0  0
  1  2  1  0
  2  3  1  0
  3  4  2  0
  4  5  1  0
  5  6  2  0
  6  7  1  0
  7  8  2  0
  8  9  1  0
  9 10  2  0
 10 11  1  0
 11 12  2  0
 12 13  1  0
 13 14  2  0
 14 15  1  0
 15 16  1  0
 16 17  1  0
 17 18  2  0
 18 19  1  0
 19 20  1  0
 20 21  1  0
  2 22  1  0
  2 23  1  0
  8  3  1  0
 14  9  1  0
 21 17  1  0
  4 24  1  0
  5 25  1  0
  6 26  1  0
 10 27  1  0
 11 28  1  0
 12 29  1  0
 13 30  1  0
 15 31  1  0
 16 32  1  0
 16 33  1  0
 19 34  1  0
 19 35  1  0
 20 36  1  0
 20 37  1  0
 21 38  1  0
M  END
>  <Ligand ID>  (1) 
LIG0003171

>  <Ligand>  (1) 
CHEMBL350906

>  <SMILES>  (1) 
FC(c1cccnc1c1ccccc1NCC1=NCCN1)(F)F

>  <CID>  (1) 
22493287.0

>  <ChEMBL ID>  (1) 
nan

>  <InChiKey>  (1) 
UVRHJIRCYLAJKN-UHFFFAOYSA-N

>  <InChi>  (1) 
InChI=1S/C16H15F3N4/c17-16(18,19)12-5-3-7-22-15(12)11-4-1-2-6-13(11)23-10-14-20-8-9-21-14/h1-7,23H,8-10H2,(H,20,21)

>  <IUPAC Name>  (1) 
N-(4,5-dihydro-1H-imidazol-2-ylmethyl)-2-[3-(trifluoromethyl)pyridin-2-yl]aniline

$$$$
