
     RDKit          3D

 31 33  0  0  0  0  0  0  0  0999 V2000
   -0.3659    3.5711   -0.3677 O   0  0  0  0  0  0  0  0  0  0  0  0
   -0.4746    2.6207   -1.3632 C   0  0  0  0  0  0  0  0  0  0  0  0
   -0.4926    3.0405   -2.5530 O   0  0  0  0  0  0  0  0  0  0  0  0
   -0.5687    1.1610   -1.0974 C   0  0  1  0  0  0  0  0  0  0  0  0
    0.0814    0.6494    0.1103 C   0  0  1  0  0  0  0  0  0  0  0  0
   -1.3943    0.7492    0.1176 C   0  0  2  0  0  0  0  0  0  0  0  0
   -2.0052   -0.6015   -0.0297 C   0  0  2  0  0  0  0  0  0  0  0  0
   -0.8581   -1.5818    0.0438 C   0  0  0  0  0  0  0  0  0  0  0  0
    0.3764   -0.8004    0.3386 C   0  0  1  0  0  0  0  0  0  0  0  0
    1.8231   -1.4167   -0.5194 S   0  0  0  0  0  0  0  0  0  0  0  0
    3.3182   -0.6729    0.0934 C   0  0  0  0  0  0  0  0  0  0  0  0
    4.0360   -1.1828    1.1120 N   0  0  0  0  0  0  0  0  0  0  0  0
    5.0883   -0.4125    1.3357 N   0  0  0  0  0  0  0  0  0  0  0  0
    5.0678    0.6162    0.4585 C   0  0  0  0  0  0  0  0  0  0  0  0
    3.9555    0.4430   -0.3140 N   0  0  0  0  0  0  0  0  0  0  0  0
   -2.5315   -0.7022   -1.3941 N   0  0  0  0  0  0  0  0  0  0  0  0
   -3.0061   -0.9644    0.9728 C   0  0  0  0  0  0  0  0  0  0  0  0
   -2.8125   -0.9336    2.2268 O   0  0  0  0  0  0  0  0  0  0  0  0
   -4.2927   -1.3853    0.5786 O   0  0  0  0  0  0  0  0  0  0  0  0
   -0.8079    4.4817   -0.5053 H   0  0  0  0  0  0  0  0  0  0  0  0
   -0.6484    0.5610   -2.0313 H   0  0  0  0  0  0  0  0  0  0  0  0
    0.6786    1.3722    0.7203 H   0  0  0  0  0  0  0  0  0  0  0  0
   -1.8394    1.5269    0.7682 H   0  0  0  0  0  0  0  0  0  0  0  0
   -0.7069   -2.1411   -0.8946 H   0  0  0  0  0  0  0  0  0  0  0  0
   -1.0616   -2.3639    0.8324 H   0  0  0  0  0  0  0  0  0  0  0  0
    0.5559   -0.9062    1.4464 H   0  0  0  0  0  0  0  0  0  0  0  0
    3.8456   -2.0438    1.6759 H   0  0  0  0  0  0  0  0  0  0  0  0
    5.8008    1.4097    0.4009 H   0  0  0  0  0  0  0  0  0  0  0  0
   -2.4899   -1.6808   -1.7551 H   0  0  0  0  0  0  0  0  0  0  0  0
   -3.4883   -0.2741   -1.4532 H   0  0  0  0  0  0  0  0  0  0  0  0
   -4.7829   -2.1385    1.0457 H   0  0  0  0  0  0  0  0  0  0  0  0
  1  2  1  0
  2  3  2  0
  2  4  1  0
  4  5  1  0
  5  6  1  0
  6  7  1  0
  7  8  1  0
  8  9  1  0
  9 10  1  0
 10 11  1  0
 11 12  1  0
 12 13  1  0
 13 14  2  0
 14 15  1  0
  7 16  1  6
  7 17  1  0
 17 18  2  0
 17 19  1  0
  6  4  1  0
 15 11  2  0
  9  5  1  0
  1 20  1  0
  4 21  1  6
  5 22  1  1
  6 23  1  1
  8 24  1  0
  8 25  1  0
  9 26  1  1
 12 27  1  0
 14 28  1  0
 16 29  1  0
 16 30  1  0
 19 31  1  0
M  END
>  <Ligand ID>  (1) 
LIG0000582

>  <Ligand>  (1) 
CHEMBL3616847

>  <SMILES>  (1) 
OC(=O)[C@H]1[C@H]2[C@@H]1[C@](C[C@H]2Sc1[nH]ncn1)(N)C(=O)O

>  <CID>  (1) 
53240406.0

>  <ChEMBL ID>  (1) 
nan

>  <InChiKey>  (1) 
YSOWRGMLMZQSBX-AVUIYAGVSA-N

>  <InChi>  (1) 
InChI=1S/C10H12N4O4S/c11-10(8(17)18)1-3(19-9-12-2-13-14-9)4-5(6(4)10)7(15)16/h2-6H,1,11H2,(H,15,16)(H,17,18)(H,12,13,14)/t3-,4+,5+,6+,10+/m1/s1

>  <IUPAC Name>  (1) 
(1R,2S,4R,5R,6R)-2-amino-4-(1H-1,2,4-triazol-5-ylsulfanyl)bicyclo[3.1.0]hexane-2,6-dicarboxylic acid

$$$$
