
     RDKit          3D

 42 45  0  0  0  0  0  0  0  0999 V2000
   -2.0882   -2.2969   -2.3213 C   0  0  0  0  0  0  0  0  0  0  0  0
   -1.5911   -1.4731   -1.1654 C   0  0  0  0  0  0  0  0  0  0  0  0
   -0.3213   -1.0788   -0.9495 N   0  0  0  0  0  0  0  0  0  0  0  0
   -0.2148   -0.3648    0.1585 N   0  0  0  0  0  0  0  0  0  0  0  0
   -1.4497   -0.2789    0.6998 C   0  0  0  0  0  0  0  0  0  0  0  0
   -2.3280   -0.9656   -0.1121 C   0  0  0  0  0  0  0  0  0  0  0  0
   -3.6992   -0.9215    0.4070 C   0  0  1  0  0  0  0  0  0  0  0  0
   -3.5387   -0.2576    1.7324 C   0  0  1  0  0  0  0  0  0  0  0  0
   -2.1585    0.2963    1.8522 C   0  0  0  0  0  0  0  0  0  0  0  0
   -4.3636    0.3602    0.6621 C   0  0  0  0  0  0  0  0  0  0  0  0
   -3.9431    1.6543    0.0055 C   0  0  0  0  0  0  0  0  0  0  0  0
   -5.8572    0.3277    0.9560 C   0  0  0  0  0  0  0  0  0  0  0  0
    0.9691    0.2139    0.6975 C   0  0  0  0  0  0  0  0  0  0  0  0
    0.9148    0.8750    1.7734 O   0  0  0  0  0  0  0  0  0  0  0  0
    2.2409    0.0585    0.0330 C   0  0  0  0  0  0  0  0  0  0  0  0
    3.3338    0.5987    0.5401 C   0  0  0  0  0  0  0  0  0  0  0  0
    4.6527    0.4904   -0.0645 C   0  0  0  0  0  0  0  0  0  0  0  0
    5.7508    1.0965    0.5464 C   0  0  0  0  0  0  0  0  0  0  0  0
    7.0143    1.0104   -0.0046 C   0  0  0  0  0  0  0  0  0  0  0  0
    7.2478    0.3242   -1.1792 C   0  0  0  0  0  0  0  0  0  0  0  0
    6.1743   -0.2794   -1.7942 C   0  0  0  0  0  0  0  0  0  0  0  0
    4.9081   -0.1860   -1.2305 C   0  0  0  0  0  0  0  0  0  0  0  0
   -1.9797   -3.3563   -1.9942 H   0  0  0  0  0  0  0  0  0  0  0  0
   -1.4793   -2.0870   -3.2219 H   0  0  0  0  0  0  0  0  0  0  0  0
   -3.1349   -2.0337   -2.5804 H   0  0  0  0  0  0  0  0  0  0  0  0
   -4.3600   -1.8138    0.3137 H   0  0  0  0  0  0  0  0  0  0  0  0
   -4.0115   -0.8020    2.5760 H   0  0  0  0  0  0  0  0  0  0  0  0
   -1.6562    0.0266    2.8033 H   0  0  0  0  0  0  0  0  0  0  0  0
   -2.1972    1.4234    1.8395 H   0  0  0  0  0  0  0  0  0  0  0  0
   -2.9933    1.6104   -0.5263 H   0  0  0  0  0  0  0  0  0  0  0  0
   -4.7513    1.9147   -0.7344 H   0  0  0  0  0  0  0  0  0  0  0  0
   -3.9749    2.4652    0.7778 H   0  0  0  0  0  0  0  0  0  0  0  0
   -6.3740   -0.3525    0.2304 H   0  0  0  0  0  0  0  0  0  0  0  0
   -6.0932   -0.0740    1.9586 H   0  0  0  0  0  0  0  0  0  0  0  0
   -6.3460    1.3047    0.8499 H   0  0  0  0  0  0  0  0  0  0  0  0
    2.2984   -0.5045   -0.8868 H   0  0  0  0  0  0  0  0  0  0  0  0
    3.2185    1.1504    1.4608 H   0  0  0  0  0  0  0  0  0  0  0  0
    5.5647    1.6337    1.4670 H   0  0  0  0  0  0  0  0  0  0  0  0
    7.8709    1.4942    0.4895 H   0  0  0  0  0  0  0  0  0  0  0  0
    8.2543    0.2866   -1.5687 H   0  0  0  0  0  0  0  0  0  0  0  0
    6.3748   -0.8113   -2.7110 H   0  0  0  0  0  0  0  0  0  0  0  0
    4.1167   -0.6783   -1.7596 H   0  0  0  0  0  0  0  0  0  0  0  0
  1  2  1  0
  2  3  2  0
  3  4  1  0
  4  5  1  0
  5  6  2  0
  6  7  1  0
  7  8  1  0
  8  9  1  0
  8 10  1  0
 10 11  1  0
 10 12  1  0
  4 13  1  0
 13 14  2  0
 13 15  1  0
 15 16  2  0
 16 17  1  0
 17 18  2  0
 18 19  1  0
 19 20  2  0
 20 21  1  0
 21 22  2  0
  6  2  1  0
 10  7  1  0
 22 17  1  0
  9  5  1  0
  1 23  1  0
  1 24  1  0
  1 25  1  0
  7 26  1  1
  8 27  1  1
  9 28  1  0
  9 29  1  0
 11 30  1  0
 11 31  1  0
 11 32  1  0
 12 33  1  0
 12 34  1  0
 12 35  1  0
 15 36  1  0
 16 37  1  0
 18 38  1  0
 19 39  1  0
 20 40  1  0
 21 41  1  0
 22 42  1  0
M  END
>  <Ligand ID>  (1) 
LIG0003969

>  <Ligand>  (1) 
CHEMBL589402

>  <SMILES>  (1) 
Cc1nn(c2c1[C@H]1[C@@H](C2)C1(C)C)C(=O)/C=C/c1ccccc1

>  <CID>  (1) 
11869937.0

>  <ChEMBL ID>  (1) 
nan

>  <InChiKey>  (1) 
GRTNSMJZOUBADB-YTOTVDJJSA-N

>  <InChi>  (1) 
InChI=1S/C19H20N2O/c1-12-17-15(11-14-18(17)19(14,2)3)21(20-12)16(22)10-9-13-7-5-4-6-8-13/h4-10,14,18H,11H2,1-3H3/b10-9+/t14-,18-/m1/s1

>  <IUPAC Name>  (1) 
(E)-3-phenyl-1-[(2S,4R)-3,3,9-trimethyl-7,8-diazatricyclo[4.3.0.02,4]nona-1(6),8-dien-7-yl]prop-2-en-1-one

$$$$
