
     RDKit          3D

101106  0  0  0  0  0  0  0  0999 V2000
   -2.0510   -4.6238   -4.7469 F   0  0  0  0  0  0  0  0  0  0  0  0
   -2.0911   -3.2989   -4.5434 C   0  0  0  0  0  0  0  0  0  0  0  0
   -3.2608   -2.6488   -4.3181 C   0  0  0  0  0  0  0  0  0  0  0  0
   -3.2947   -1.2892   -4.1095 C   0  0  0  0  0  0  0  0  0  0  0  0
   -2.1538   -0.4928   -4.1136 C   0  0  0  0  0  0  0  0  0  0  0  0
   -0.9629   -1.1845   -4.3474 C   0  0  0  0  0  0  0  0  0  0  0  0
   -0.9268   -2.5459   -4.5566 C   0  0  0  0  0  0  0  0  0  0  0  0
   -2.1984    0.9338   -3.8962 C   0  0  0  0  0  0  0  0  0  0  0  0
   -2.0146    1.4990   -2.5443 C   0  0  1  0  0  0  0  0  0  0  0  0
   -2.9203    1.1315   -1.5174 N   0  0  0  0  0  0  0  0  0  0  0  0
   -3.0038   -0.2263   -1.0220 C   0  0  0  0  0  0  0  0  0  0  0  0
   -3.1061   -0.3338    0.4496 C   0  0  0  0  0  0  0  0  0  0  0  0
   -2.6300   -1.4639    1.0578 N   0  0  0  0  0  0  0  0  0  0  0  0
   -2.8065   -1.3728    2.3847 C   0  0  0  0  0  0  0  0  0  0  0  0
   -3.4088   -0.1570    2.6262 C   0  0  0  0  0  0  0  0  0  0  0  0
   -3.6028    0.5080    1.4071 C   0  0  0  0  0  0  0  0  0  0  0  0
   -4.2312    1.8387    1.4079 C   0  0  0  0  0  0  0  0  0  0  0  0
   -4.7994    2.1420    0.0577 C   0  0  1  0  0  0  0  0  0  0  0  0
   -3.7554    2.1948   -1.0000 C   0  0  0  0  0  0  0  0  0  0  0  0
   -3.5769    3.3489   -1.5207 O   0  0  0  0  0  0  0  0  0  0  0  0
   -5.8753    1.2286   -0.2193 N   0  0  0  0  0  0  0  0  0  0  0  0
   -7.1778    1.7778   -0.4269 C   0  0  0  0  0  0  0  0  0  0  0  0
   -7.4190    3.0103   -0.3775 O   0  0  0  0  0  0  0  0  0  0  0  0
   -8.3618    0.8944   -0.7230 C   0  0  0  0  0  0  0  0  0  0  0  0
   -3.6970    0.1756    3.9424 C   0  0  0  0  0  0  0  0  0  0  0  0
   -3.3865   -0.6896    4.9678 C   0  0  0  0  0  0  0  0  0  0  0  0
   -2.7813   -1.9128    4.7345 C   0  0  0  0  0  0  0  0  0  0  0  0
   -2.4933   -2.2479    3.4301 C   0  0  0  0  0  0  0  0  0  0  0  0
   -0.5733    1.4401   -2.2074 C   0  0  0  0  0  0  0  0  0  0  0  0
    0.2350    1.7323   -3.1366 O   0  0  0  0  0  0  0  0  0  0  0  0
   -0.0249    1.0927   -0.9612 N   0  0  0  0  0  0  0  0  0  0  0  0
    1.4191    1.0876   -0.8319 C   0  0  2  0  0  0  0  0  0  0  0  0
    1.9285   -0.1867   -0.2362 C   0  0  0  0  0  0  0  0  0  0  0  0
    1.1057   -1.0899    0.1124 O   0  0  0  0  0  0  0  0  0  0  0  0
    3.3190   -0.3199   -0.0908 N   0  0  0  0  0  0  0  0  0  0  0  0
    3.9343   -1.5420    0.4913 C   0  0  2  0  0  0  0  0  0  0  0  0
    4.7395   -1.1434    1.6450 C   0  0  0  0  0  0  0  0  0  0  0  0
    5.2945   -1.9317    2.4553 O   0  0  0  0  0  0  0  0  0  0  0  0
    4.9493    0.2568    1.9264 N   0  0  0  0  0  0  0  0  0  0  0  0
    4.7119   -2.2564   -0.5498 C   0  0  0  0  0  0  0  0  0  0  0  0
    5.4206   -3.4752   -0.1908 C   0  0  0  0  0  0  0  0  0  0  0  0
    4.9159   -4.7780   -0.3094 C   0  0  0  0  0  0  0  0  0  0  0  0
    5.8015   -5.6628    0.1372 N   0  0  0  0  0  0  0  0  0  0  0  0
    6.8983   -5.0276    0.5591 C   0  0  0  0  0  0  0  0  0  0  0  0
    6.6833   -3.6752    0.3647 C   0  0  0  0  0  0  0  0  0  0  0  0
    7.6978   -2.8253    0.7157 C   0  0  0  0  0  0  0  0  0  0  0  0
    8.8993   -3.2389    1.2438 C   0  0  0  0  0  0  0  0  0  0  0  0
    9.0723   -4.5976    1.4228 C   0  0  0  0  0  0  0  0  0  0  0  0
    8.0828   -5.4992    1.0856 C   0  0  0  0  0  0  0  0  0  0  0  0
    1.7508    2.2354    0.1332 C   0  0  0  0  0  0  0  0  0  0  0  0
    1.2420    3.5372   -0.4732 C   0  0  0  0  0  0  0  0  0  0  0  0
    1.5780    4.6664    0.4835 C   0  0  0  0  0  0  0  0  0  0  0  0
    0.9267    4.3970    1.7394 N   0  0  0  0  0  0  0  0  0  0  0  0
    0.0917    5.2022    2.2663 C   0  0  0  0  0  0  0  0  0  0  0  0
   -0.5050    4.8547    3.5114 N   0  0  0  0  0  0  0  0  0  0  0  0
   -0.2862    6.4546    1.6688 N   0  0  0  0  0  0  0  0  0  0  0  0
   -4.2334   -3.1619   -4.2899 H   0  0  0  0  0  0  0  0  0  0  0  0
   -4.2444   -0.7610   -3.9271 H   0  0  0  0  0  0  0  0  0  0  0  0
   -0.0116   -0.6721   -4.3759 H   0  0  0  0  0  0  0  0  0  0  0  0
    0.0226   -3.0652   -4.7388 H   0  0  0  0  0  0  0  0  0  0  0  0
   -3.1828    1.2984   -4.3249 H   0  0  0  0  0  0  0  0  0  0  0  0
   -1.4491    1.4129   -4.5950 H   0  0  0  0  0  0  0  0  0  0  0  0
   -2.2124    2.6308   -2.6877 H   0  0  0  0  0  0  0  0  0  0  0  0
   -2.1983   -0.8576   -1.4362 H   0  0  0  0  0  0  0  0  0  0  0  0
   -3.9572   -0.6409   -1.4662 H   0  0  0  0  0  0  0  0  0  0  0  0
   -2.1876   -2.2971    0.6004 H   0  0  0  0  0  0  0  0  0  0  0  0
   -3.5433    2.6335    1.7759 H   0  0  0  0  0  0  0  0  0  0  0  0
   -5.1264    1.7840    2.1033 H   0  0  0  0  0  0  0  0  0  0  0  0
   -5.2659    3.1519    0.1262 H   0  0  0  0  0  0  0  0  0  0  0  0
   -5.8008    0.2004   -0.2784 H   0  0  0  0  0  0  0  0  0  0  0  0
   -8.1246   -0.1736   -0.5586 H   0  0  0  0  0  0  0  0  0  0  0  0
   -9.1745    1.1632   -0.0205 H   0  0  0  0  0  0  0  0  0  0  0  0
   -8.7515    1.0970   -1.7411 H   0  0  0  0  0  0  0  0  0  0  0  0
   -4.1720    1.1228    4.1902 H   0  0  0  0  0  0  0  0  0  0  0  0
   -3.6240   -0.4051    6.0027 H   0  0  0  0  0  0  0  0  0  0  0  0
   -2.5451   -2.5771    5.5495 H   0  0  0  0  0  0  0  0  0  0  0  0
   -2.0203   -3.1998    3.2277 H   0  0  0  0  0  0  0  0  0  0  0  0
   -0.6246    0.8562   -0.1744 H   0  0  0  0  0  0  0  0  0  0  0  0
    1.9255    1.3440   -1.7826 H   0  0  0  0  0  0  0  0  0  0  0  0
    4.0193    0.4109   -0.3728 H   0  0  0  0  0  0  0  0  0  0  0  0
    3.0699   -2.1993    0.7899 H   0  0  0  0  0  0  0  0  0  0  0  0
    4.1124    0.8731    2.1038 H   0  0  0  0  0  0  0  0  0  0  0  0
    5.9330    0.6600    1.9542 H   0  0  0  0  0  0  0  0  0  0  0  0
    3.9598   -2.5432   -1.3547 H   0  0  0  0  0  0  0  0  0  0  0  0
    5.3833   -1.5341   -1.1253 H   0  0  0  0  0  0  0  0  0  0  0  0
    3.9380   -5.0185   -0.7115 H   0  0  0  0  0  0  0  0  0  0  0  0
    5.6883   -6.7145    0.1679 H   0  0  0  0  0  0  0  0  0  0  0  0
    7.5107   -1.7533    0.5534 H   0  0  0  0  0  0  0  0  0  0  0  0
    9.6633   -2.5114    1.5009 H   0  0  0  0  0  0  0  0  0  0  0  0
   10.0305   -4.9032    1.8428 H   0  0  0  0  0  0  0  0  0  0  0  0
    8.2733   -6.5538    1.2480 H   0  0  0  0  0  0  0  0  0  0  0  0
    2.8322    2.3073    0.3008 H   0  0  0  0  0  0  0  0  0  0  0  0
    1.2269    2.0959    1.0848 H   0  0  0  0  0  0  0  0  0  0  0  0
    0.1587    3.4120   -0.6377 H   0  0  0  0  0  0  0  0  0  0  0  0
    1.7586    3.6489   -1.4542 H   0  0  0  0  0  0  0  0  0  0  0  0
    2.6767    4.6656    0.6211 H   0  0  0  0  0  0  0  0  0  0  0  0
    1.2049    5.6368    0.0485 H   0  0  0  0  0  0  0  0  0  0  0  0
   -1.0174    3.9323    3.5522 H   0  0  0  0  0  0  0  0  0  0  0  0
   -0.4436    5.4772    4.3498 H   0  0  0  0  0  0  0  0  0  0  0  0
    0.4817    7.1004    1.3784 H   0  0  0  0  0  0  0  0  0  0  0  0
   -1.2799    6.7246    1.5233 H   0  0  0  0  0  0  0  0  0  0  0  0
  1  2  1  0
  2  3  2  0
  3  4  1  0
  4  5  2  0
  5  6  1  0
  6  7  2  0
  5  8  1  0
  8  9  1  0
  9 10  1  0
 10 11  1  0
 11 12  1  0
 12 13  1  0
 13 14  1  0
 14 15  2  0
 15 16  1  0
 16 17  1  0
 17 18  1  0
 18 19  1  0
 19 20  2  0
 18 21  1  0
 21 22  1  0
 22 23  2  0
 22 24  1  0
 15 25  1  0
 25 26  2  0
 26 27  1  0
 27 28  2  0
  9 29  1  0
 29 30  2  0
 29 31  1  0
 31 32  1  0
 32 33  1  0
 33 34  2  0
 33 35  1  0
 35 36  1  0
 36 37  1  0
 37 38  2  0
 37 39  1  0
 36 40  1  0
 40 41  1  0
 41 42  2  0
 42 43  1  0
 43 44  1  0
 44 45  2  0
 45 46  1  0
 46 47  2  0
 47 48  1  0
 48 49  2  0
 32 50  1  0
 50 51  1  0
 51 52  1  0
 52 53  1  0
 53 54  2  3
 54 55  1  0
 54 56  1  0
  7  2  1  0
 19 10  1  0
 45 41  1  0
 16 12  2  0
 49 44  1  0
 28 14  1  0
  3 57  1  0
  4 58  1  0
  6 59  1  0
  7 60  1  0
  8 61  1  0
  8 62  1  0
  9 63  1  6
 11 64  1  0
 11 65  1  0
 13 66  1  0
 17 67  1  0
 17 68  1  0
 18 69  1  1
 21 70  1  0
 24 71  1  0
 24 72  1  0
 24 73  1  0
 25 74  1  0
 26 75  1  0
 27 76  1  0
 28 77  1  0
 31 78  1  0
 32 79  1  6
 35 80  1  0
 36 81  1  1
 39 82  1  0
 39 83  1  0
 40 84  1  0
 40 85  1  0
 42 86  1  0
 43 87  1  0
 46 88  1  0
 47 89  1  0
 48 90  1  0
 49 91  1  0
 50 92  1  0
 50 93  1  0
 51 94  1  0
 51 95  1  0
 52 96  1  0
 52 97  1  0
 55 98  1  0
 55 99  1  0
 56100  1  0
 56101  1  0
M  END
>  <Ligand ID>  (1) 
LIG0003320

>  <Ligand>  (1) 
CHEMBL3421677

>  <SMILES>  (1) 
Fc1ccc(cc1)C[C@@H](N1Cc2[nH]c3c(c2C[C@@H](C1=O)NC(=O)C)cccc3)C(=O)N[C@H](C(=O)N[C@H](C(=O)N)Cc1c[nH]c2c1cccc2)CCCN=C(N)N

>  <CID>  (1) 
118735100.0

>  <ChEMBL ID>  (1) 
nan

>  <InChiKey>  (1) 
QQUKFDYXKAFEKI-UJWBSGRQSA-N

>  <InChi>  (1) 
InChI=1S/C40H45FN10O5/c1-22(52)47-33-19-28-27-8-3-5-10-30(27)48-34(28)21-51(39(33)56)35(17-23-12-14-25(41)15-13-23)38(55)49-31(11-6-16-45-40(43)44)37(54)50-32(36(42)53)18-24-20-46-29-9-4-2-7-26(24)29/h2-5,7-10,12-15,20,31-33,35,46,48H,6,11,16-19,21H2,1H3,(H2,42,53)(H,47,52)(H,49,55)(H,50,54)(H4,43,44,45)/t31-,32-,33-,35+/m0/s1

>  <IUPAC Name>  (1) 
(2S)-2-[[(2R)-2-[(4S)-4-acetamido-3-oxo-1,4,5,10-tetrahydroazepino[3,4-b]indol-2-yl]-3-(4-fluorophenyl)propanoyl]amino]-N-[(2S)-1-amino-3-(1H-indol-3-yl)-1-oxopropan-2-yl]-5-(diaminomethylideneamino)pentanamide

$$$$
