
     RDKit          3D

 36 38  0  0  0  0  0  0  0  0999 V2000
    3.7745    2.1117    1.6910 O   0  0  0  0  0  0  0  0  0  0  0  0
    2.7140    1.3824    1.1692 C   0  0  0  0  0  0  0  0  0  0  0  0
    2.9311    0.5883    0.0614 C   0  0  0  0  0  0  0  0  0  0  0  0
    1.9416   -0.1728   -0.5292 C   0  0  0  0  0  0  0  0  0  0  0  0
    2.4283   -0.9312   -1.6972 C   0  0  0  0  0  0  0  0  0  0  0  0
    1.4974   -0.9135   -2.8803 C   0  0  0  0  0  0  0  0  0  0  0  0
    0.3013   -1.5609   -2.5292 N   0  0  0  0  0  0  0  0  0  0  0  0
   -0.7058   -0.7475   -1.9286 C   0  0  0  0  0  0  0  0  0  0  0  0
   -0.5061   -0.8529   -0.4421 C   0  0  1  0  0  0  0  0  0  0  0  0
    0.6804   -0.1187    0.0364 C   0  0  0  0  0  0  0  0  0  0  0  0
    0.4641    0.6762    1.1449 C   0  0  0  0  0  0  0  0  0  0  0  0
    1.4544    1.4364    1.7342 C   0  0  0  0  0  0  0  0  0  0  0  0
    1.2357    2.2357    2.8493 O   0  0  0  0  0  0  0  0  0  0  0  0
   -1.7192   -0.4814    0.3252 C   0  0  0  0  0  0  0  0  0  0  0  0
   -2.1053   -1.1602    1.4820 C   0  0  0  0  0  0  0  0  0  0  0  0
   -3.2508   -0.7412    2.1284 C   0  0  0  0  0  0  0  0  0  0  0  0
   -4.0054    0.3263    1.6481 C   0  0  0  0  0  0  0  0  0  0  0  0
   -3.6239    1.0004    0.5012 C   0  0  0  0  0  0  0  0  0  0  0  0
   -2.4704    0.5895   -0.1624 C   0  0  0  0  0  0  0  0  0  0  0  0
    3.6738    2.8483    2.3493 H   0  0  0  0  0  0  0  0  0  0  0  0
    3.9270    0.5466   -0.3840 H   0  0  0  0  0  0  0  0  0  0  0  0
    3.4093   -0.4736   -2.0053 H   0  0  0  0  0  0  0  0  0  0  0  0
    2.6510   -2.0067   -1.4676 H   0  0  0  0  0  0  0  0  0  0  0  0
    1.3493    0.1510   -3.2213 H   0  0  0  0  0  0  0  0  0  0  0  0
    2.0205   -1.4413   -3.6975 H   0  0  0  0  0  0  0  0  0  0  0  0
    0.0299   -2.4263   -2.9732 H   0  0  0  0  0  0  0  0  0  0  0  0
   -0.5605    0.3326   -2.2129 H   0  0  0  0  0  0  0  0  0  0  0  0
   -1.7156   -1.0532   -2.2032 H   0  0  0  0  0  0  0  0  0  0  0  0
   -0.3277   -1.9478   -0.2390 H   0  0  0  0  0  0  0  0  0  0  0  0
   -0.5125    0.7181    1.5831 H   0  0  0  0  0  0  0  0  0  0  0  0
    1.3058    1.7928    3.7746 H   0  0  0  0  0  0  0  0  0  0  0  0
   -1.5022   -1.9878    1.8365 H   0  0  0  0  0  0  0  0  0  0  0  0
   -3.5418   -1.2792    3.0304 H   0  0  0  0  0  0  0  0  0  0  0  0
   -4.8815    0.6068    2.1882 H   0  0  0  0  0  0  0  0  0  0  0  0
   -4.1854    1.8263    0.1076 H   0  0  0  0  0  0  0  0  0  0  0  0
   -2.1753    1.1270   -1.0679 H   0  0  0  0  0  0  0  0  0  0  0  0
  1  2  1  0
  2  3  2  0
  3  4  1  0
  4  5  1  0
  5  6  1  0
  6  7  1  0
  7  8  1  0
  8  9  1  0
  9 10  1  0
 10 11  1  0
 11 12  2  0
 12 13  1  0
  9 14  1  0
 14 15  2  0
 15 16  1  0
 16 17  2  0
 17 18  1  0
 18 19  2  0
 12  2  1  0
 19 14  1  0
 10  4  2  0
  1 20  1  0
  3 21  1  0
  5 22  1  0
  5 23  1  0
  6 24  1  0
  6 25  1  0
  7 26  1  0
  8 27  1  0
  8 28  1  0
  9 29  1  6
 11 30  1  0
 13 31  1  0
 15 32  1  0
 16 33  1  0
 17 34  1  0
 18 35  1  0
 19 36  1  0
M  END
>  <Ligand ID>  (1) 
LIG0001385

>  <Ligand>  (1) 
UNII-YZC2Y51NHJ

>  <SMILES>  (1) 
Oc1cc2CCNC[C@@H](c2cc1O)c1ccccc1

>  <CID>  (1) 
6852376.0

>  <ChEMBL ID>  (1) 
nan

>  <InChiKey>  (1) 
JUDKOGFHZYMDMF-CQSZACIVSA-N

>  <InChi>  (1) 
InChI=1S/C16H17NO2/c18-15-8-12-6-7-17-10-14(13(12)9-16(15)19)11-4-2-1-3-5-11/h1-5,8-9,14,17-19H,6-7,10H2/t14-/m1/s1

>  <IUPAC Name>  (1) 
(5R)-5-phenyl-2,3,4,5-tetrahydro-1H-3-benzazepine-7,8-diol

$$$$
