
     RDKit          3D

 69 71  0  0  0  0  0  0  0  0999 V2000
   -7.9002    0.4892    2.9173 C   0  0  0  0  0  0  0  0  0  0  0  0
   -8.4850    0.7852    1.6635 O   0  0  0  0  0  0  0  0  0  0  0  0
   -7.8316    0.3779    0.5173 C   0  0  0  0  0  0  0  0  0  0  0  0
   -6.6352   -0.3049    0.5154 C   0  0  0  0  0  0  0  0  0  0  0  0
   -6.0349   -0.6830   -0.6645 C   0  0  0  0  0  0  0  0  0  0  0  0
   -6.5846   -0.4059   -1.8924 C   0  0  0  0  0  0  0  0  0  0  0  0
   -7.7929    0.2836   -1.8869 C   0  0  0  0  0  0  0  0  0  0  0  0
   -8.4149    0.6735   -0.7183 C   0  0  0  0  0  0  0  0  0  0  0  0
   -6.0114   -0.7616   -3.1910 C   0  0  0  0  0  0  0  0  0  0  0  0
   -5.1814    0.3071   -3.8122 C   0  0  0  0  0  0  0  0  0  0  0  0
   -4.0135    0.6758   -2.9541 C   0  0  0  0  0  0  0  0  0  0  0  0
   -4.3087    1.1579   -1.7077 O   0  0  0  0  0  0  0  0  0  0  0  0
   -3.3212    1.7917   -1.0733 N   0  0  0  0  0  0  0  0  0  0  0  0
   -2.2461    1.1893   -0.3835 C   0  0  0  0  0  0  0  0  0  0  0  0
   -2.0572   -0.1677   -0.2631 C   0  0  0  0  0  0  0  0  0  0  0  0
   -0.9848   -0.7029    0.4250 C   0  0  0  0  0  0  0  0  0  0  0  0
   -0.0758    0.0998    1.0092 N   0  0  0  0  0  0  0  0  0  0  0  0
   -0.2655    1.4324    0.8883 C   0  0  0  0  0  0  0  0  0  0  0  0
    0.5482    2.2347    1.4112 O   0  0  0  0  0  0  0  0  0  0  0  0
   -1.3027    1.9686    0.2227 N   0  0  0  0  0  0  0  0  0  0  0  0
    1.0647   -0.3490    1.7411 C   0  0  2  0  0  0  0  0  0  0  0  0
    2.2700    0.2007    1.3015 O   0  0  0  0  0  0  0  0  0  0  0  0
    3.1573   -0.4890    2.1014 C   0  0  1  0  0  0  0  0  0  0  0  0
    2.8158   -1.9323    1.7968 C   0  0  2  0  0  0  0  0  0  0  0  0
    1.3096   -1.8289    1.5345 C   0  0  1  0  0  0  0  0  0  0  0  0
    0.5939   -2.5801    2.4488 O   0  0  0  0  0  0  0  0  0  0  0  0
    3.0721   -2.7936    2.8466 O   0  0  0  0  0  0  0  0  0  0  0  0
    4.5983   -0.2063    1.7916 C   0  0  0  0  0  0  0  0  0  0  0  0
    4.9559    1.1064    1.9322 O   0  0  0  0  0  0  0  0  0  0  0  0
    6.6098    1.2385    1.5405 P   0  0  0  0  0  0  0  0  0  0  0  0
    7.3474    1.9949    2.6472 O   0  0  0  0  0  0  0  0  0  0  0  0
    6.8393    2.0484    0.0714 O   0  0  0  0  0  0  0  0  0  0  0  0
    6.8834    0.8998   -1.1528 P   0  0  0  0  0  0  0  0  0  0  0  0
    5.4633    0.6330   -1.6242 O   0  0  0  0  0  0  0  0  0  0  0  0
    7.6898   -0.5043   -0.7319 O   0  0  0  0  0  0  0  0  0  0  0  0
    9.3318   -0.3399   -1.1002 P   0  0  0  0  0  0  0  0  0  0  0  0
   10.0489   -1.6392   -0.8300 O   0  0  0  0  0  0  0  0  0  0  0  0
    9.9914    0.8516   -0.1072 O   0  0  0  0  0  0  0  0  0  0  0  0
    9.5810    0.0906   -2.7009 O   0  0  0  0  0  0  0  0  0  0  0  0
    7.7152    1.6028   -2.4598 O   0  0  0  0  0  0  0  0  0  0  0  0
    7.3262   -0.2837    1.3969 O   0  0  0  0  0  0  0  0  0  0  0  0
   -6.8144    0.6628    2.9558 H   0  0  0  0  0  0  0  0  0  0  0  0
   -8.3807    1.1526    3.6717 H   0  0  0  0  0  0  0  0  0  0  0  0
   -8.1187   -0.5582    3.2158 H   0  0  0  0  0  0  0  0  0  0  0  0
   -6.1614   -0.5472    1.4488 H   0  0  0  0  0  0  0  0  0  0  0  0
   -5.1061   -1.2199   -0.6296 H   0  0  0  0  0  0  0  0  0  0  0  0
   -8.3003    0.5452   -2.8147 H   0  0  0  0  0  0  0  0  0  0  0  0
   -9.3480    1.2057   -0.7257 H   0  0  0  0  0  0  0  0  0  0  0  0
   -6.8251   -1.0442   -3.9252 H   0  0  0  0  0  0  0  0  0  0  0  0
   -5.4036   -1.6909   -3.0882 H   0  0  0  0  0  0  0  0  0  0  0  0
   -5.8007    1.1939   -4.0810 H   0  0  0  0  0  0  0  0  0  0  0  0
   -4.7424   -0.1466   -4.7498 H   0  0  0  0  0  0  0  0  0  0  0  0
   -3.3504   -0.2423   -2.9394 H   0  0  0  0  0  0  0  0  0  0  0  0
   -3.3646    1.4528   -3.4495 H   0  0  0  0  0  0  0  0  0  0  0  0
   -3.3577    2.8526   -1.0959 H   0  0  0  0  0  0  0  0  0  0  0  0
   -2.7599   -0.8493   -0.7148 H   0  0  0  0  0  0  0  0  0  0  0  0
   -0.8559   -1.7736    0.5071 H   0  0  0  0  0  0  0  0  0  0  0  0
    0.9023   -0.1288    2.8098 H   0  0  0  0  0  0  0  0  0  0  0  0
    2.9110   -0.2844    3.1605 H   0  0  0  0  0  0  0  0  0  0  0  0
    3.3742   -2.2198    0.8688 H   0  0  0  0  0  0  0  0  0  0  0  0
    1.1488   -2.1471    0.5008 H   0  0  0  0  0  0  0  0  0  0  0  0
    0.9758   -2.3815    3.3571 H   0  0  0  0  0  0  0  0  0  0  0  0
    3.1183   -3.7110    2.4271 H   0  0  0  0  0  0  0  0  0  0  0  0
    5.1914   -0.8061    2.5309 H   0  0  0  0  0  0  0  0  0  0  0  0
    4.8888   -0.5621    0.7848 H   0  0  0  0  0  0  0  0  0  0  0  0
   10.6321    0.4897    0.5579 H   0  0  0  0  0  0  0  0  0  0  0  0
   10.3187    0.7336   -2.8079 H   0  0  0  0  0  0  0  0  0  0  0  0
    7.3940    1.0999   -3.2714 H   0  0  0  0  0  0  0  0  0  0  0  0
    8.0692   -0.4197    2.0295 H   0  0  0  0  0  0  0  0  0  0  0  0
  1  2  1  0
  2  3  1  0
  3  4  2  0
  4  5  1  0
  5  6  2  0
  6  7  1  0
  7  8  2  0
  6  9  1  0
  9 10  1  0
 10 11  1  0
 11 12  1  0
 12 13  1  0
 13 14  1  0
 14 15  1  0
 15 16  2  0
 16 17  1  0
 17 18  1  0
 18 19  2  0
 18 20  1  0
 17 21  1  0
 21 22  1  0
 22 23  1  0
 23 24  1  0
 24 25  1  0
 25 26  1  0
 24 27  1  0
 23 28  1  0
 28 29  1  0
 29 30  1  0
 30 31  2  0
 30 32  1  0
 32 33  1  0
 33 34  2  0
 33 35  1  0
 35 36  1  0
 36 37  2  0
 36 38  1  0
 36 39  1  0
 33 40  1  0
 30 41  1  0
  8  3  1  0
 20 14  2  0
 25 21  1  0
  1 42  1  0
  1 43  1  0
  1 44  1  0
  4 45  1  0
  5 46  1  0
  7 47  1  0
  8 48  1  0
  9 49  1  0
  9 50  1  0
 10 51  1  0
 10 52  1  0
 11 53  1  0
 11 54  1  0
 13 55  1  0
 15 56  1  0
 16 57  1  0
 21 58  1  1
 23 59  1  1
 24 60  1  6
 25 61  1  6
 26 62  1  0
 27 63  1  0
 28 64  1  0
 28 65  1  0
 38 66  1  0
 39 67  1  0
 40 68  1  0
 41 69  1  0
M  END
>  <Ligand ID>  (1) 
LIG0004813

>  <Ligand>  (1) 
CHEMBL3261369

>  <SMILES>  (1) 
COc1ccc(cc1)CCCONc1ccn(c(=O)n1)[C@@H]1O[C@@H]([C@H]([C@H]1O)O)COP(=O)(OP(=O)(OP(=O)(O)O)O)O

>  <CID>  (1) 
90656220.0

>  <ChEMBL ID>  (1) 
nan

>  <InChiKey>  (1) 
NIHFTZIOZPMEPG-VDHUWJSZSA-N

>  <InChi>  (1) 
InChI=1S/C19H28N3O16P3/c1-33-13-6-4-12(5-7-13)3-2-10-34-21-15-8-9-22(19(25)20-15)18-17(24)16(23)14(36-18)11-35-40(29,30)38-41(31,32)37-39(26,27)28/h4-9,14,16-18,23-24H,2-3,10-11H2,1H3,(H,29,30)(H,31,32)(H,20,21,25)(H2,26,27,28)/t14-,16-,17-,18-/m1/s1

>  <IUPAC Name>  (1) 
[[(2R,3S,4R,5R)-3,4-dihydroxy-5-[4-[3-(4-methoxyphenyl)propoxyamino]-2-oxopyrimidin-1-yl]oxolan-2-yl]methoxy-hydroxyphosphoryl] phosphono hydrogen phosphate

$$$$
