
     RDKit          3D

 47 51  0  0  0  0  0  0  0  0999 V2000
   -1.1377   -2.0153   -1.4884 C   0  0  0  0  0  0  0  0  0  0  0  0
   -0.1963   -0.9295   -1.1050 C   0  0  1  0  0  0  0  0  0  0  0  0
   -0.8310    0.3289   -0.6338 C   0  0  0  0  0  0  0  0  0  0  0  0
    0.1389    1.4880   -0.6605 C   0  0  0  0  0  0  0  0  0  0  0  0
    1.5229    1.0569   -0.2987 C   0  0  0  0  0  0  0  0  0  0  0  0
    1.8245   -0.2692    0.0019 C   0  0  0  0  0  0  0  0  0  0  0  0
    0.7976   -1.3417   -0.0350 C   0  0  2  0  0  0  0  0  0  0  0  0
    1.4652   -2.6202   -0.5149 C   0  0  0  0  0  0  0  0  0  0  0  0
    0.1148   -1.5467    1.2546 C   0  0  0  0  0  0  0  0  0  0  0  0
   -1.2260   -0.8900    1.4141 C   0  0  0  0  0  0  0  0  0  0  0  0
   -1.3846    0.3059    0.6854 N   0  0  0  0  0  0  0  0  0  0  0  0
   -2.6440    0.9348    0.8042 C   0  0  0  0  0  0  0  0  0  0  0  0
   -3.8036    0.2227    0.1595 C   0  0  0  0  0  0  0  0  0  0  0  0
   -5.1183    0.9065    0.2854 C   0  0  0  0  0  0  0  0  0  0  0  0
   -4.4440    0.7761   -1.0574 C   0  0  0  0  0  0  0  0  0  0  0  0
    3.1283   -0.5781    0.3227 C   0  0  0  0  0  0  0  0  0  0  0  0
    4.0701    0.4301    0.3307 C   0  0  0  0  0  0  0  0  0  0  0  0
    3.7758    1.7421    0.0324 C   0  0  0  0  0  0  0  0  0  0  0  0
    2.4806    2.0528   -0.2855 C   0  0  0  0  0  0  0  0  0  0  0  0
    4.8924    2.4728    0.1235 N   0  0  0  0  0  0  0  0  0  0  0  0
    5.9085    1.6424    0.4783 C   0  0  0  0  0  0  0  0  0  0  0  0
    5.3971    0.4026    0.6012 N   0  0  0  0  0  0  0  0  0  0  0  0
   -1.1890   -2.7486   -0.6370 H   0  0  0  0  0  0  0  0  0  0  0  0
   -2.1377   -1.6140   -1.7577 H   0  0  0  0  0  0  0  0  0  0  0  0
   -0.7960   -2.5682   -2.3985 H   0  0  0  0  0  0  0  0  0  0  0  0
    0.4446   -0.6691   -1.9999 H   0  0  0  0  0  0  0  0  0  0  0  0
   -1.6512    0.5743   -1.3599 H   0  0  0  0  0  0  0  0  0  0  0  0
   -0.1238    2.2434    0.1389 H   0  0  0  0  0  0  0  0  0  0  0  0
    0.1080    2.0724   -1.6021 H   0  0  0  0  0  0  0  0  0  0  0  0
    1.8736   -3.1512    0.3725 H   0  0  0  0  0  0  0  0  0  0  0  0
    0.7954   -3.2866   -1.0749 H   0  0  0  0  0  0  0  0  0  0  0  0
    2.3483   -2.3207   -1.1471 H   0  0  0  0  0  0  0  0  0  0  0  0
   -0.0929   -2.6597    1.3423 H   0  0  0  0  0  0  0  0  0  0  0  0
    0.8070   -1.3395    2.0954 H   0  0  0  0  0  0  0  0  0  0  0  0
   -2.0735   -1.5834    1.2525 H   0  0  0  0  0  0  0  0  0  0  0  0
   -1.3096   -0.6273    2.5074 H   0  0  0  0  0  0  0  0  0  0  0  0
   -2.5455    1.9879    0.4451 H   0  0  0  0  0  0  0  0  0  0  0  0
   -2.8719    1.0390    1.8971 H   0  0  0  0  0  0  0  0  0  0  0  0
   -3.7702   -0.8781    0.2449 H   0  0  0  0  0  0  0  0  0  0  0  0
   -5.1684    1.9491    0.6952 H   0  0  0  0  0  0  0  0  0  0  0  0
   -6.0029    0.2630    0.4709 H   0  0  0  0  0  0  0  0  0  0  0  0
   -4.8420    0.0724   -1.8065 H   0  0  0  0  0  0  0  0  0  0  0  0
   -4.0631    1.7281   -1.5094 H   0  0  0  0  0  0  0  0  0  0  0  0
    3.4318   -1.5842    0.5721 H   0  0  0  0  0  0  0  0  0  0  0  0
    2.2206    3.0916   -0.5233 H   0  0  0  0  0  0  0  0  0  0  0  0
    4.9410    3.5121   -0.0576 H   0  0  0  0  0  0  0  0  0  0  0  0
    6.9365    1.9253    0.6355 H   0  0  0  0  0  0  0  0  0  0  0  0
  1  2  1  0
  2  3  1  0
  3  4  1  0
  4  5  1  0
  5  6  1  0
  6  7  1  0
  7  8  1  6
  7  9  1  0
  9 10  1  0
 10 11  1  0
 11 12  1  0
 12 13  1  0
 13 14  1  0
 14 15  1  0
  6 16  2  0
 16 17  1  0
 17 18  2  0
 18 19  1  0
 18 20  1  0
 20 21  1  0
 21 22  2  0
  7  2  1  0
 15 13  1  0
 22 17  1  0
 11  3  1  0
 19  5  2  0
  1 23  1  0
  1 24  1  0
  1 25  1  0
  2 26  1  6
  3 27  1  0
  4 28  1  0
  4 29  1  0
  8 30  1  0
  8 31  1  0
  8 32  1  0
  9 33  1  0
  9 34  1  0
 10 35  1  0
 10 36  1  0
 12 37  1  0
 12 38  1  0
 13 39  1  0
 14 40  1  0
 14 41  1  0
 15 42  1  0
 15 43  1  0
 16 44  1  0
 19 45  1  0
 20 46  1  0
 21 47  1  0
M  END
>  <Ligand ID>  (1) 
LIG0005532

>  <Ligand>  (1) 
CHEMBL518712

>  <SMILES>  (1) 
C[C@H]1C2Cc3c([C@@]1(C)CCN2CC1CC1)cc1c(c3)[nH]cn1

>  <CID>  (1) 
44591164.0

>  <ChEMBL ID>  (1) 
nan

>  <InChiKey>  (1) 
UOWGKJIQQSGDIA-NNZWLKQRSA-N

>  <InChi>  (1) 
InChI=1S/C19H25N3/c1-12-18-8-14-7-16-17(21-11-20-16)9-15(14)19(12,2)5-6-22(18)10-13-3-4-13/h7,9,11-13,18H,3-6,8,10H2,1-2H3,(H,20,21)/t12-,18?,19-/m0/s1

>  <IUPAC Name>  (1) 
(1S,16R)-13-(cyclopropylmethyl)-1,16-dimethyl-5,7,13-triazatetracyclo[10.3.1.02,10.04,8]hexadeca-2,4(8),5,9-tetraene

$$$$
