
     RDKit          3D

 62 64  0  0  0  0  0  0  0  0999 V2000
   -3.7250   -1.4724    1.5404 C   0  0  0  0  0  0  0  0  0  0  0  0
   -3.6205   -0.9522    0.1415 C   0  0  2  0  0  0  0  0  0  0  0  0
   -2.6549   -1.8214   -0.6380 C   0  0  2  0  0  0  0  0  0  0  0  0
   -1.3155   -1.8104   -0.0259 C   0  0  0  0  0  0  0  0  0  0  0  0
   -0.3252   -1.1610   -0.6462 C   0  0  0  0  0  0  0  0  0  0  0  0
    1.0654   -1.1100   -0.0770 C   0  0  1  0  0  0  0  0  0  0  0  0
    1.4842   -2.4192    0.5111 C   0  0  0  0  0  0  0  0  0  0  0  0
    1.5875   -3.3304   -0.6921 C   0  0  0  0  0  0  0  0  0  0  0  0
    2.0887   -2.3877   -1.7552 C   0  0  0  0  0  0  0  0  0  0  0  0
    2.5578   -2.7559   -2.8670 O   0  0  0  0  0  0  0  0  0  0  0  0
    1.9296   -1.0420   -1.2640 N   0  0  0  0  0  0  0  0  0  0  0  0
    2.5397    0.0871   -1.8891 C   0  0  0  0  0  0  0  0  0  0  0  0
    3.9089    0.4165   -1.3724 C   0  0  0  0  0  0  0  0  0  0  0  0
    3.8589    0.7273    0.1147 C   0  0  0  0  0  0  0  0  0  0  0  0
    5.2696    1.0384    0.5008 C   0  0  0  0  0  0  0  0  0  0  0  0
    6.2142    0.1995    0.9315 C   0  0  0  0  0  0  0  0  0  0  0  0
    7.4370    0.6740    1.2326 C   0  0  0  0  0  0  0  0  0  0  0  0
    7.6213    2.0392    1.0655 C   0  0  0  0  0  0  0  0  0  0  0  0
    6.0397    2.6384    0.4767 S   0  0  0  0  0  0  0  0  0  0  0  0
    8.8188    2.8488    1.3037 C   0  0  0  0  0  0  0  0  0  0  0  0
    9.8946    2.3971    1.7118 O   0  0  0  0  0  0  0  0  0  0  0  0
    8.7201    4.2039    1.0499 O   0  0  0  0  0  0  0  0  0  0  0  0
    2.5939   -4.2603   -0.4841 F   0  0  0  0  0  0  0  0  0  0  0  0
    0.3932   -3.8797   -1.0503 F   0  0  0  0  0  0  0  0  0  0  0  0
   -2.5922   -1.4036   -1.9452 O   0  0  0  0  0  0  0  0  0  0  0  0
   -3.1095    0.4668    0.0654 C   0  0  0  0  0  0  0  0  0  0  0  0
   -3.9719    1.4608    0.7856 C   0  0  0  0  0  0  0  0  0  0  0  0
   -5.3489    1.5138    0.2580 C   0  0  0  0  0  0  0  0  0  0  0  0
   -6.3857    0.7317    0.7222 C   0  0  0  0  0  0  0  0  0  0  0  0
   -7.6662    0.7957    0.2162 C   0  0  0  0  0  0  0  0  0  0  0  0
   -7.9739    1.6622   -0.7971 C   0  0  0  0  0  0  0  0  0  0  0  0
   -6.9515    2.4715   -1.2948 C   0  0  0  0  0  0  0  0  0  0  0  0
   -5.6753    2.3950   -0.7771 C   0  0  0  0  0  0  0  0  0  0  0  0
   -4.0619   -0.7237    2.2894 H   0  0  0  0  0  0  0  0  0  0  0  0
   -4.5269   -2.2674    1.5477 H   0  0  0  0  0  0  0  0  0  0  0  0
   -2.8109   -2.0019    1.8842 H   0  0  0  0  0  0  0  0  0  0  0  0
   -4.6354   -0.9909   -0.3030 H   0  0  0  0  0  0  0  0  0  0  0  0
   -3.0036   -2.8879   -0.6561 H   0  0  0  0  0  0  0  0  0  0  0  0
   -1.0495   -2.2931    0.9062 H   0  0  0  0  0  0  0  0  0  0  0  0
   -0.5671   -0.6586   -1.6001 H   0  0  0  0  0  0  0  0  0  0  0  0
    1.1855   -0.2432    0.5831 H   0  0  0  0  0  0  0  0  0  0  0  0
    0.8772   -2.8008    1.3285 H   0  0  0  0  0  0  0  0  0  0  0  0
    2.5060   -2.2762    0.9171 H   0  0  0  0  0  0  0  0  0  0  0  0
    2.5417    0.0102   -2.9860 H   0  0  0  0  0  0  0  0  0  0  0  0
    1.8989    0.9829   -1.6532 H   0  0  0  0  0  0  0  0  0  0  0  0
    4.6213   -0.4070   -1.5826 H   0  0  0  0  0  0  0  0  0  0  0  0
    4.2759    1.2776   -1.9563 H   0  0  0  0  0  0  0  0  0  0  0  0
    3.2066    1.5768    0.3083 H   0  0  0  0  0  0  0  0  0  0  0  0
    3.5748   -0.1399    0.7057 H   0  0  0  0  0  0  0  0  0  0  0  0
    5.9937   -0.9004    1.0438 H   0  0  0  0  0  0  0  0  0  0  0  0
    8.2868    0.0636    1.5963 H   0  0  0  0  0  0  0  0  0  0  0  0
    9.5322    4.7785    0.7823 H   0  0  0  0  0  0  0  0  0  0  0  0
   -2.1957   -2.1015   -2.5259 H   0  0  0  0  0  0  0  0  0  0  0  0
   -2.9888    0.7477   -0.9824 H   0  0  0  0  0  0  0  0  0  0  0  0
   -2.1176    0.4811    0.5791 H   0  0  0  0  0  0  0  0  0  0  0  0
   -3.5007    2.4532    0.6408 H   0  0  0  0  0  0  0  0  0  0  0  0
   -3.9711    1.2667    1.8580 H   0  0  0  0  0  0  0  0  0  0  0  0
   -6.2027    0.0336    1.5162 H   0  0  0  0  0  0  0  0  0  0  0  0
   -8.4627    0.1595    0.6095 H   0  0  0  0  0  0  0  0  0  0  0  0
   -8.9817    1.6967   -1.1786 H   0  0  0  0  0  0  0  0  0  0  0  0
   -7.2078    3.1592   -2.1031 H   0  0  0  0  0  0  0  0  0  0  0  0
   -4.9231    3.0435   -1.1990 H   0  0  0  0  0  0  0  0  0  0  0  0
  1  2  1  0
  2  3  1  0
  3  4  1  0
  4  5  2  0
  5  6  1  0
  6  7  1  0
  7  8  1  0
  8  9  1  0
  9 10  2  0
  9 11  1  0
 11 12  1  0
 12 13  1  0
 13 14  1  0
 14 15  1  0
 15 16  2  0
 16 17  1  0
 17 18  2  0
 18 19  1  0
 18 20  1  0
 20 21  2  0
 20 22  1  0
  8 23  1  0
  8 24  1  0
  3 25  1  0
  2 26  1  0
 26 27  1  0
 27 28  1  0
 28 29  2  0
 29 30  1  0
 30 31  2  0
 31 32  1  0
 32 33  2  0
 11  6  1  0
 19 15  1  0
 33 28  1  0
  1 34  1  0
  1 35  1  0
  1 36  1  0
  2 37  1  6
  3 38  1  6
  4 39  1  0
  5 40  1  0
  6 41  1  1
  7 42  1  0
  7 43  1  0
 12 44  1  0
 12 45  1  0
 13 46  1  0
 13 47  1  0
 14 48  1  0
 14 49  1  0
 16 50  1  0
 17 51  1  0
 22 52  1  0
 25 53  1  0
 26 54  1  0
 26 55  1  0
 27 56  1  0
 27 57  1  0
 29 58  1  0
 30 59  1  0
 31 60  1  0
 32 61  1  0
 33 62  1  0
M  END
>  <Ligand ID>  (1) 
LIG0005218

>  <Ligand>  (1) 
CHEMBL3966743

>  <SMILES>  (1) 
C[C@H]([C@H](/C=C/[C@H]1CC(C(=O)N1CCCc1ccc(s1)C(=O)O)(F)F)O)CCc1ccccc1

>  <CID>  (1) 
90054519.0

>  <ChEMBL ID>  (1) 
nan

>  <InChiKey>  (1) 
ZECQOPFVRSEFGC-XMUVQSOXSA-N

>  <InChi>  (1) 
InChI=1S/C25H29F2NO4S/c1-17(9-10-18-6-3-2-4-7-18)21(29)13-11-19-16-25(26,27)24(32)28(19)15-5-8-20-12-14-22(33-20)23(30)31/h2-4,6-7,11-14,17,19,21,29H,5,8-10,15-16H2,1H3,(H,30,31)/b13-11+/t17-,19-,21-/m0/s1

>  <IUPAC Name>  (1) 
5-[3-[(5R)-3,3-difluoro-5-[(E,3R,4S)-3-hydroxy-4-methyl-6-phenylhex-1-enyl]-2-oxopyrrolidin-1-yl]propyl]thiophene-2-carboxylic acid

$$$$
