
     RDKit          3D

 20 19  0  0  0  0  0  0  0  0999 V2000
    2.8266    0.5283    0.1506 C   0  0  0  0  0  0  0  0  0  0  0  0
    2.2065   -0.3310   -0.9285 C   0  0  0  0  0  0  0  0  0  0  0  0
    0.8091   -0.2021   -1.0208 O   0  0  0  0  0  0  0  0  0  0  0  0
   -0.0440   -0.5066    0.0505 C   0  0  0  0  0  0  0  0  0  0  0  0
    0.4172   -0.9124    1.1499 O   0  0  0  0  0  0  0  0  0  0  0  0
   -1.5079   -0.3323   -0.1614 C   0  0  0  0  0  0  0  0  0  0  0  0
   -2.1955   -0.7235    1.1310 C   0  0  0  0  0  0  0  0  0  0  0  0
   -1.8959    1.0647   -0.5190 C   0  0  0  0  0  0  0  0  0  0  0  0
    2.9355    1.5645   -0.1810 H   0  0  0  0  0  0  0  0  0  0  0  0
    3.8764    0.1313    0.2817 H   0  0  0  0  0  0  0  0  0  0  0  0
    2.3651    0.3904    1.1414 H   0  0  0  0  0  0  0  0  0  0  0  0
    2.5543   -1.3780   -0.8705 H   0  0  0  0  0  0  0  0  0  0  0  0
    2.6028    0.0714   -1.9050 H   0  0  0  0  0  0  0  0  0  0  0  0
   -1.8904   -1.0521   -0.9325 H   0  0  0  0  0  0  0  0  0  0  0  0
   -2.7240    0.1685    1.5730 H   0  0  0  0  0  0  0  0  0  0  0  0
   -1.4682   -1.1071    1.8952 H   0  0  0  0  0  0  0  0  0  0  0  0
   -2.9265   -1.5519    1.0063 H   0  0  0  0  0  0  0  0  0  0  0  0
   -2.7314    1.0157   -1.2668 H   0  0  0  0  0  0  0  0  0  0  0  0
   -2.1999    1.6134    0.4091 H   0  0  0  0  0  0  0  0  0  0  0  0
   -1.0096    1.5487   -1.0031 H   0  0  0  0  0  0  0  0  0  0  0  0
  1  2  1  0
  2  3  1  0
  3  4  1  0
  4  5  2  0
  4  6  1  0
  6  7  1  0
  6  8  1  0
  1  9  1  0
  1 10  1  0
  1 11  1  0
  2 12  1  0
  2 13  1  0
  6 14  1  0
  7 15  1  0
  7 16  1  0
  7 17  1  0
  8 18  1  0
  8 19  1  0
  8 20  1  0
M  END
>  <Ligand ID>  (1) 
LIG0000103

>  <Ligand>  (1) 
Ethyl isobutyrate

>  <SMILES>  (1) 
CCOC(=O)C(C)C

>  <CID>  (1) 
7342.0

>  <ChEMBL ID>  (1) 
nan

>  <InChiKey>  (1) 
WDAXFOBOLVPGLV-UHFFFAOYSA-N

>  <InChi>  (1) 
InChI=1S/C6H12O2/c1-4-8-6(7)5(2)3/h5H,4H2,1-3H3

>  <IUPAC Name>  (1) 
ethyl 2-methylpropanoate

$$$$
