
     RDKit          3D

 55 56  0  0  0  0  0  0  0  0999 V2000
   -2.8087    0.6548    2.2207 C   0  0  0  0  0  0  0  0  0  0  0  0
   -1.8839    0.2857    1.0804 C   0  0  2  0  0  0  0  0  0  0  0  0
   -1.0491    1.5222    0.7874 C   0  0  0  0  0  0  0  0  0  0  0  0
   -0.0979    1.3592   -0.2757 N   0  0  0  0  0  0  0  0  0  0  0  0
    1.0808    0.6026   -0.2506 C   0  0  0  0  0  0  0  0  0  0  0  0
    1.5833   -0.0822    0.8130 C   0  0  0  0  0  0  0  0  0  0  0  0
    2.7621   -0.8328    0.7572 C   0  0  0  0  0  0  0  0  0  0  0  0
    3.4809   -0.9081   -0.4139 C   0  0  0  0  0  0  0  0  0  0  0  0
    2.9917   -0.2222   -1.5047 C   0  0  0  0  0  0  0  0  0  0  0  0
    1.8291    0.5140   -1.4385 C   0  0  0  0  0  0  0  0  0  0  0  0
    4.7401   -1.6815   -0.5528 C   0  0  0  0  0  0  0  0  0  0  0  0
    5.8514   -0.7433   -0.2076 C   0  0  0  0  0  0  0  0  0  0  0  0
    5.5225    0.4292    0.1079 O   0  0  0  0  0  0  0  0  0  0  0  0
    7.2133   -1.1776   -0.2409 N   0  0  0  0  0  0  0  0  0  0  0  0
    8.4490   -0.0676    0.1621 S   0  0  0  0  0  0  0  0  0  0  0  0
    7.9424    0.8925    1.2091 O   0  0  0  0  0  0  0  0  0  0  0  0
    9.5677   -0.8584    0.8129 O   0  0  0  0  0  0  0  0  0  0  0  0
    9.0108    0.7982   -1.2684 C   0  0  0  0  0  0  0  0  0  0  0  0
   -2.5583   -0.2382   -0.0023 N   0  0  0  0  0  0  0  0  0  0  0  0
   -3.2613    0.4013   -0.9879 C   0  0  0  0  0  0  0  0  0  0  0  0
   -4.5309    1.0600   -0.6120 C   0  0  1  0  0  0  0  0  0  0  0  0
   -5.5707    0.0831   -0.1331 C   0  0  0  0  0  0  0  0  0  0  0  0
   -6.7735    0.6044    0.3077 C   0  0  0  0  0  0  0  0  0  0  0  0
   -7.7796   -0.2143    0.7638 C   0  0  0  0  0  0  0  0  0  0  0  0
   -7.5790   -1.5745    0.7789 C   0  0  0  0  0  0  0  0  0  0  0  0
   -6.3679   -2.1058    0.3355 C   0  0  0  0  0  0  0  0  0  0  0  0
   -5.3675   -1.2688   -0.1196 C   0  0  0  0  0  0  0  0  0  0  0  0
   -6.1184   -3.8347    0.3568 Cl  0  0  0  0  0  0  0  0  0  0  0  0
   -4.4677    2.0820    0.2999 O   0  0  0  0  0  0  0  0  0  0  0  0
   -2.8805    1.7475    2.3850 H   0  0  0  0  0  0  0  0  0  0  0  0
   -2.3718    0.2858    3.2020 H   0  0  0  0  0  0  0  0  0  0  0  0
   -3.8305    0.2516    2.1309 H   0  0  0  0  0  0  0  0  0  0  0  0
   -1.1607   -0.4751    1.5016 H   0  0  0  0  0  0  0  0  0  0  0  0
   -0.4281    1.7199    1.7112 H   0  0  0  0  0  0  0  0  0  0  0  0
   -1.6505    2.4415    0.6787 H   0  0  0  0  0  0  0  0  0  0  0  0
   -0.3314    1.8839   -1.1761 H   0  0  0  0  0  0  0  0  0  0  0  0
    1.0887   -0.0563    1.7488 H   0  0  0  0  0  0  0  0  0  0  0  0
    3.1203   -1.3637    1.6411 H   0  0  0  0  0  0  0  0  0  0  0  0
    3.5438   -0.2626   -2.4561 H   0  0  0  0  0  0  0  0  0  0  0  0
    1.5151    1.0208   -2.3367 H   0  0  0  0  0  0  0  0  0  0  0  0
    4.8096   -2.0538   -1.5860 H   0  0  0  0  0  0  0  0  0  0  0  0
    4.7005   -2.5335    0.1660 H   0  0  0  0  0  0  0  0  0  0  0  0
    7.3678   -2.1713   -0.5166 H   0  0  0  0  0  0  0  0  0  0  0  0
    8.5421    0.3747   -2.1695 H   0  0  0  0  0  0  0  0  0  0  0  0
    8.8049    1.8765   -1.1434 H   0  0  0  0  0  0  0  0  0  0  0  0
   10.1130    0.7164   -1.4025 H   0  0  0  0  0  0  0  0  0  0  0  0
   -2.1051   -1.1331   -0.3223 H   0  0  0  0  0  0  0  0  0  0  0  0
   -2.5740    1.1582   -1.5124 H   0  0  0  0  0  0  0  0  0  0  0  0
   -3.4399   -0.3121   -1.8795 H   0  0  0  0  0  0  0  0  0  0  0  0
   -5.0025    1.4320   -1.5928 H   0  0  0  0  0  0  0  0  0  0  0  0
   -6.9870    1.6738    0.3165 H   0  0  0  0  0  0  0  0  0  0  0  0
   -8.7307    0.2163    1.1111 H   0  0  0  0  0  0  0  0  0  0  0  0
   -8.3871   -2.1927    1.1425 H   0  0  0  0  0  0  0  0  0  0  0  0
   -4.4317   -1.6830   -0.4625 H   0  0  0  0  0  0  0  0  0  0  0  0
   -5.1051    1.9592    1.0314 H   0  0  0  0  0  0  0  0  0  0  0  0
  1  2  1  0
  2  3  1  0
  3  4  1  0
  4  5  1  0
  5  6  2  0
  6  7  1  0
  7  8  2  0
  8  9  1  0
  9 10  2  0
  8 11  1  0
 11 12  1  0
 12 13  2  0
 12 14  1  0
 14 15  1  0
 15 16  2  0
 15 17  2  0
 15 18  1  0
  2 19  1  0
 19 20  1  0
 20 21  1  0
 21 22  1  0
 22 23  2  0
 23 24  1  0
 24 25  2  0
 25 26  1  0
 26 27  2  0
 26 28  1  0
 21 29  1  0
 10  5  1  0
 27 22  1  0
  1 30  1  0
  1 31  1  0
  1 32  1  0
  2 33  1  1
  3 34  1  0
  3 35  1  0
  4 36  1  0
  6 37  1  0
  7 38  1  0
  9 39  1  0
 10 40  1  0
 11 41  1  0
 11 42  1  0
 14 43  1  0
 18 44  1  0
 18 45  1  0
 18 46  1  0
 19 47  1  0
 20 48  1  0
 20 49  1  0
 21 50  1  6
 23 51  1  0
 24 52  1  0
 25 53  1  0
 27 54  1  0
 29 55  1  0
M  END
>  <Ligand ID>  (1) 
LIG0002243

>  <Ligand>  (1) 
CHEMBL157210

>  <SMILES>  (1) 
C[C@H](CNc1ccc(cc1)CC(=O)NS(=O)(=O)C)NC[C@@H](c1cccc(c1)Cl)O

>  <CID>  (1) 
10863093.0

>  <ChEMBL ID>  (1) 
nan

>  <InChiKey>  (1) 
BYSACIMZJPDRSE-KUHUBIRLSA-N

>  <InChi>  (1) 
InChI=1S/C20H26ClN3O4S/c1-14(22-13-19(25)16-4-3-5-17(21)11-16)12-23-18-8-6-15(7-9-18)10-20(26)24-29(2,27)28/h3-9,11,14,19,22-23,25H,10,12-13H2,1-2H3,(H,24,26)/t14-,19+/m1/s1

>  <IUPAC Name>  (1) 
2-[4-[[(2R)-2-[[(2R)-2-(3-chlorophenyl)-2-hydroxyethyl]amino]propyl]amino]phenyl]-N-methylsulfonylacetamide

$$$$
