
     RDKit          3D

108112  0  0  0  0  0  0  0  0999 V2000
   -2.8375    3.3196    0.2181 O   0  0  0  0  0  0  0  0  0  0  0  0
   -3.3039    3.8629    1.2330 C   0  0  0  0  0  0  0  0  0  0  0  0
   -2.4551    4.8249    1.8423 N   0  0  0  0  0  0  0  0  0  0  0  0
   -1.1562    5.2099    1.3877 C   0  0  0  0  0  0  0  0  0  0  0  0
   -0.2017    4.0313    1.3450 C   0  0  0  0  0  0  0  0  0  0  0  0
    1.1583    4.5714    0.9751 C   0  0  0  0  0  0  0  0  0  0  0  0
    2.1903    3.5360    0.9381 C   0  0  0  0  0  0  0  0  0  0  0  0
    2.4567    2.6678   -0.2026 C   0  0  1  0  0  0  0  0  0  0  0  0
    3.4716    1.6757    0.2732 N   0  0  0  0  0  0  0  0  0  0  0  0
    4.7385    1.5673   -0.3334 C   0  0  0  0  0  0  0  0  0  0  0  0
    5.0640    2.2936   -1.2924 O   0  0  0  0  0  0  0  0  0  0  0  0
    5.7306    0.5549    0.1829 C   0  0  2  0  0  0  0  0  0  0  0  0
    6.2802   -0.2650   -0.9361 C   0  0  0  0  0  0  0  0  0  0  0  0
    7.2612   -1.2735   -0.4823 C   0  0  0  0  0  0  0  0  0  0  0  0
    6.9240   -2.4840    0.0744 C   0  0  0  0  0  0  0  0  0  0  0  0
    5.5327   -2.9459    0.2445 C   0  0  0  0  0  0  0  0  0  0  0  0
    7.9207   -3.3764    0.4970 C   0  0  0  0  0  0  0  0  0  0  0  0
    9.2571   -3.0545    0.3613 C   0  0  0  0  0  0  0  0  0  0  0  0
    9.5845   -1.8552   -0.1910 C   0  0  0  0  0  0  0  0  0  0  0  0
    8.6139   -0.9667   -0.6121 C   0  0  0  0  0  0  0  0  0  0  0  0
    9.0193    0.3133   -1.1994 C   0  0  0  0  0  0  0  0  0  0  0  0
   10.1919   -3.9945    0.8069 O   0  0  0  0  0  0  0  0  0  0  0  0
    5.1477   -0.2118    1.2439 N   0  0  0  0  0  0  0  0  0  0  0  0
    1.3998    1.9087   -0.8444 C   0  0  0  0  0  0  0  0  0  0  0  0
    0.4532    2.3916   -1.4999 O   0  0  0  0  0  0  0  0  0  0  0  0
    1.3369    0.4579   -0.7829 N   0  0  0  0  0  0  0  0  0  0  0  0
    0.2465   -0.2609   -1.4995 C   0  0  2  0  0  0  0  0  0  0  0  0
   -0.8868   -0.3898   -0.5490 C   0  0  0  0  0  0  0  0  0  0  0  0
   -0.6797    0.0129    0.6115 O   0  0  0  0  0  0  0  0  0  0  0  0
   -2.1700   -0.9138   -0.8164 N   0  0  0  0  0  0  0  0  0  0  0  0
   -3.1184   -0.8367    0.3235 C   0  0  1  0  0  0  0  0  0  0  0  0
   -3.9090    0.4019   -0.0539 C   0  0  0  0  0  0  0  0  0  0  0  0
   -4.0666    0.6111   -1.2411 O   0  0  0  0  0  0  0  0  0  0  0  0
   -4.4274    1.2870    0.8887 N   0  0  0  0  0  0  0  0  0  0  0  0
   -5.2441    2.4401    0.8235 C   0  0  1  0  0  0  0  0  0  0  0  0
   -4.6798    3.5239    1.7759 C   0  0  0  0  0  0  0  0  0  0  0  0
   -5.4917    3.1063   -0.4529 C   0  0  0  0  0  0  0  0  0  0  0  0
   -6.2448    4.1799   -0.3274 O   0  0  0  0  0  0  0  0  0  0  0  0
   -5.1052    2.8487   -1.7596 N   0  0  0  0  0  0  0  0  0  0  0  0
   -3.8954   -2.0996    0.3187 C   0  0  0  0  0  0  0  0  0  0  0  0
   -4.9118   -2.2920    1.3354 C   0  0  0  0  0  0  0  0  0  0  0  0
   -4.5251   -2.9228    2.5286 C   0  0  0  0  0  0  0  0  0  0  0  0
   -5.3975   -3.0846    3.5814 C   0  0  0  0  0  0  0  0  0  0  0  0
   -6.6895   -2.6472    3.5402 C   0  0  0  0  0  0  0  0  0  0  0  0
   -7.0987   -2.0159    2.3603 C   0  0  0  0  0  0  0  0  0  0  0  0
   -6.2154   -1.8540    1.2975 C   0  0  0  0  0  0  0  0  0  0  0  0
   -6.6835   -1.2391    0.1625 C   0  0  0  0  0  0  0  0  0  0  0  0
   -7.9803   -0.8045    0.1073 C   0  0  0  0  0  0  0  0  0  0  0  0
   -8.8382   -0.9646    1.1549 C   0  0  0  0  0  0  0  0  0  0  0  0
   -8.4083   -1.5787    2.3087 C   0  0  0  0  0  0  0  0  0  0  0  0
    0.8594   -1.4960   -2.0090 C   0  0  0  0  0  0  0  0  0  0  0  0
    0.0236   -2.4207   -2.7786 C   0  0  0  0  0  0  0  0  0  0  0  0
   -0.0609   -2.1947   -4.1560 C   0  0  0  0  0  0  0  0  0  0  0  0
   -0.7953   -3.0137   -4.9805 C   0  0  0  0  0  0  0  0  0  0  0  0
   -1.4532   -4.0746   -4.4085 C   0  0  0  0  0  0  0  0  0  0  0  0
   -1.4052   -4.3423   -3.0671 C   0  0  0  0  0  0  0  0  0  0  0  0
   -0.6568   -3.5073   -2.2267 C   0  0  0  0  0  0  0  0  0  0  0  0
   -2.8446    5.2627    2.6871 H   0  0  0  0  0  0  0  0  0  0  0  0
   -0.7040    5.9234    2.1176 H   0  0  0  0  0  0  0  0  0  0  0  0
   -1.1676    5.7072    0.3948 H   0  0  0  0  0  0  0  0  0  0  0  0
   -0.5570    3.1853    0.7571 H   0  0  0  0  0  0  0  0  0  0  0  0
   -0.1572    3.6386    2.4135 H   0  0  0  0  0  0  0  0  0  0  0  0
    1.0953    5.1782    0.0292 H   0  0  0  0  0  0  0  0  0  0  0  0
    1.3593    5.3750    1.7541 H   0  0  0  0  0  0  0  0  0  0  0  0
    2.1735    2.8908    1.8860 H   0  0  0  0  0  0  0  0  0  0  0  0
    3.1847    4.1069    1.1247 H   0  0  0  0  0  0  0  0  0  0  0  0
    2.9692    3.2484   -1.0480 H   0  0  0  0  0  0  0  0  0  0  0  0
    3.1338    1.1083    1.0747 H   0  0  0  0  0  0  0  0  0  0  0  0
    6.5163    1.1938    0.6695 H   0  0  0  0  0  0  0  0  0  0  0  0
    5.4027   -0.7435   -1.4425 H   0  0  0  0  0  0  0  0  0  0  0  0
    6.7013    0.4128   -1.7038 H   0  0  0  0  0  0  0  0  0  0  0  0
    4.7964   -2.4356   -0.4091 H   0  0  0  0  0  0  0  0  0  0  0  0
    5.2235   -2.9725    1.3082 H   0  0  0  0  0  0  0  0  0  0  0  0
    5.4750   -4.0267   -0.0834 H   0  0  0  0  0  0  0  0  0  0  0  0
    7.6415   -4.3395    0.9390 H   0  0  0  0  0  0  0  0  0  0  0  0
   10.6513   -1.5983   -0.2984 H   0  0  0  0  0  0  0  0  0  0  0  0
   10.0588    0.5434   -0.8452 H   0  0  0  0  0  0  0  0  0  0  0  0
    9.0842    0.2842   -2.3077 H   0  0  0  0  0  0  0  0  0  0  0  0
    8.3877    1.1279   -0.8263 H   0  0  0  0  0  0  0  0  0  0  0  0
   10.1936   -4.1886    1.8062 H   0  0  0  0  0  0  0  0  0  0  0  0
    5.3142    0.1605    2.2024 H   0  0  0  0  0  0  0  0  0  0  0  0
    4.1924   -0.5684    1.0768 H   0  0  0  0  0  0  0  0  0  0  0  0
    2.0580    0.0183   -0.2448 H   0  0  0  0  0  0  0  0  0  0  0  0
   -0.0682    0.3984   -2.3614 H   0  0  0  0  0  0  0  0  0  0  0  0
   -2.3647   -1.2878   -1.7178 H   0  0  0  0  0  0  0  0  0  0  0  0
   -2.6013   -0.5853    1.2571 H   0  0  0  0  0  0  0  0  0  0  0  0
   -4.1251    1.0210    1.8944 H   0  0  0  0  0  0  0  0  0  0  0  0
   -6.2960    2.2055    1.1935 H   0  0  0  0  0  0  0  0  0  0  0  0
   -5.3042    4.4020    1.6509 H   0  0  0  0  0  0  0  0  0  0  0  0
   -4.6745    3.1769    2.7950 H   0  0  0  0  0  0  0  0  0  0  0  0
   -5.8017    2.3171   -2.3740 H   0  0  0  0  0  0  0  0  0  0  0  0
   -4.1903    3.1404   -2.2018 H   0  0  0  0  0  0  0  0  0  0  0  0
   -3.1469   -2.9286    0.4109 H   0  0  0  0  0  0  0  0  0  0  0  0
   -4.3782   -2.1588   -0.7075 H   0  0  0  0  0  0  0  0  0  0  0  0
   -3.5047   -3.2913    2.6188 H   0  0  0  0  0  0  0  0  0  0  0  0
   -5.0022   -3.5864    4.4684 H   0  0  0  0  0  0  0  0  0  0  0  0
   -7.3872   -2.7638    4.3503 H   0  0  0  0  0  0  0  0  0  0  0  0
   -6.0776   -1.1041   -0.7151 H   0  0  0  0  0  0  0  0  0  0  0  0
   -8.3530   -0.3098   -0.7971 H   0  0  0  0  0  0  0  0  0  0  0  0
   -9.8797   -0.6320    1.1555 H   0  0  0  0  0  0  0  0  0  0  0  0
   -9.0560   -1.7254    3.1628 H   0  0  0  0  0  0  0  0  0  0  0  0
    1.8002   -1.2248   -2.5449 H   0  0  0  0  0  0  0  0  0  0  0  0
    1.2394   -2.0934   -1.1238 H   0  0  0  0  0  0  0  0  0  0  0  0
    0.4634   -1.3448   -4.6170 H   0  0  0  0  0  0  0  0  0  0  0  0
   -0.8139   -2.7760   -6.0367 H   0  0  0  0  0  0  0  0  0  0  0  0
   -2.0243   -4.7111   -5.0610 H   0  0  0  0  0  0  0  0  0  0  0  0
   -1.9138   -5.1667   -2.6078 H   0  0  0  0  0  0  0  0  0  0  0  0
   -0.5910   -3.6812   -1.1626 H   0  0  0  0  0  0  0  0  0  0  0  0
  1  2  2  0
  2  3  1  0
  3  4  1  0
  4  5  1  0
  5  6  1  0
  6  7  1  0
  7  8  1  0
  8  9  1  0
  9 10  1  0
 10 11  2  0
 10 12  1  0
 12 13  1  0
 13 14  1  0
 14 15  2  0
 15 16  1  0
 15 17  1  0
 17 18  2  0
 18 19  1  0
 19 20  2  0
 20 21  1  0
 18 22  1  0
 12 23  1  0
  8 24  1  0
 24 25  2  0
 24 26  1  0
 26 27  1  0
 27 28  1  0
 28 29  2  0
 28 30  1  0
 30 31  1  0
 31 32  1  0
 32 33  2  0
 32 34  1  0
 34 35  1  0
 35 36  1  0
 35 37  1  0
 37 38  2  0
 37 39  1  0
 31 40  1  0
 40 41  1  0
 41 42  2  0
 42 43  1  0
 43 44  2  0
 44 45  1  0
 45 46  2  0
 46 47  1  0
 47 48  2  0
 48 49  1  0
 49 50  2  0
 27 51  1  0
 51 52  1  0
 52 53  2  0
 53 54  1  0
 54 55  2  0
 55 56  1  0
 56 57  2  0
 36  2  1  0
 46 41  1  0
 57 52  1  0
 20 14  1  0
 50 45  1  0
  3 58  1  0
  4 59  1  0
  4 60  1  0
  5 61  1  0
  5 62  1  0
  6 63  1  0
  6 64  1  0
  7 65  1  0
  7 66  1  0
  8 67  1  6
  9 68  1  0
 12 69  1  1
 13 70  1  0
 13 71  1  0
 16 72  1  0
 16 73  1  0
 16 74  1  0
 17 75  1  0
 19 76  1  0
 21 77  1  0
 21 78  1  0
 21 79  1  0
 22 80  1  0
 23 81  1  0
 23 82  1  0
 26 83  1  0
 27 84  1  6
 30 85  1  0
 31 86  1  1
 34 87  1  0
 35 88  1  1
 36 89  1  0
 36 90  1  0
 39 91  1  0
 39 92  1  0
 40 93  1  0
 40 94  1  0
 42 95  1  0
 43 96  1  0
 44 97  1  0
 47 98  1  0
 48 99  1  0
 49100  1  0
 50101  1  0
 51102  1  0
 51103  1  0
 53104  1  0
 54105  1  0
 55106  1  0
 56107  1  0
 57108  1  0
M  END
>  <Ligand ID>  (1) 
LIG0003752

>  <Ligand>  (1) 
CHEMBL3759167

>  <SMILES>  (1) 
O=C1NCCCC[C@@H](NC(=O)[C@H](Cc2c(C)cc(cc2C)O)N)C(=O)N[C@H](C(=O)N[C@@H](C(=O)N[C@@H](C1)C(=O)N)Cc1cccc2c1cccc2)Cc1ccccc1

>  <CID>  (1) 
127026456.0

>  <ChEMBL ID>  (1) 
nan

>  <InChiKey>  (1) 
KZPMZJUWJIEYBH-DUQWPARQSA-N

>  <InChi>  (1) 
InChI=1S/C43H51N7O7/c1-25-19-30(51)20-26(2)32(25)23-33(44)40(54)47-34-17-8-9-18-46-38(52)24-35(39(45)53)48-43(57)37(22-29-15-10-14-28-13-6-7-16-31(28)29)50-42(56)36(49-41(34)55)21-27-11-4-3-5-12-27/h3-7,10-16,19-20,33-37,51H,8-9,17-18,21-24,44H2,1-2H3,(H2,45,53)(H,46,52)(H,47,54)(H,48,57)(H,49,55)(H,50,56)/t33-,34+,35-,36-,37+/m0/s1

>  <IUPAC Name>  (1) 
(2S,5R,8S,16R)-16-[[(2S)-2-amino-3-(4-hydroxy-2,6-dimethylphenyl)propanoyl]amino]-2-benzyl-5-(naphthalen-1-ylmethyl)-3,6,10,17-tetraoxo-1,4,7,11-tetrazacycloheptadecane-8-carboxamide

$$$$
