
     RDKit          3D

 63 65  0  0  0  0  0  0  0  0999 V2000
    4.5804    0.9540   -0.9250 O   0  0  0  0  0  0  0  0  0  0  0  0
    5.0269    1.0949    0.2571 C   0  0  0  0  0  0  0  0  0  0  0  0
    6.3658    1.7072    0.5225 C   0  0  2  0  0  0  0  0  0  0  0  0
    7.4527    0.9663   -0.2377 C   0  0  0  0  0  0  0  0  0  0  0  0
    7.0539    0.9697   -1.5911 O   0  0  0  0  0  0  0  0  0  0  0  0
    8.2660    0.1467   -2.4600 P   0  0  0  0  0  0  0  0  0  0  0  0
    8.3946    0.6928   -3.8583 O   0  0  0  0  0  0  0  0  0  0  0  0
    7.8683   -1.5130   -2.5663 O   0  0  0  0  0  0  0  0  0  0  0  0
    9.7317    0.2119   -1.6080 O   0  0  0  0  0  0  0  0  0  0  0  0
    6.6710    1.7679    1.9413 N   0  0  0  0  0  0  0  0  0  0  0  0
    6.2844    3.1453    0.0532 C   0  0  0  0  0  0  0  0  0  0  0  0
    4.2353    0.6605    1.3534 N   0  0  0  0  0  0  0  0  0  0  0  0
    2.9564    0.0731    1.1424 C   0  0  0  0  0  0  0  0  0  0  0  0
    1.7872    0.8032    1.0906 C   0  0  0  0  0  0  0  0  0  0  0  0
    0.5886    0.1464    0.8810 C   0  0  0  0  0  0  0  0  0  0  0  0
    0.4814   -1.2111    0.7171 C   0  0  0  0  0  0  0  0  0  0  0  0
    1.6839   -1.9272    0.7743 C   0  0  0  0  0  0  0  0  0  0  0  0
    2.8912   -1.2953    0.9824 C   0  0  0  0  0  0  0  0  0  0  0  0
    1.6592   -3.4085    0.6063 C   0  0  0  0  0  0  0  0  0  0  0  0
    0.8909   -4.0320    1.5706 F   0  0  0  0  0  0  0  0  0  0  0  0
    2.9133   -3.9292    0.5223 F   0  0  0  0  0  0  0  0  0  0  0  0
    0.9707   -3.6196   -0.5968 F   0  0  0  0  0  0  0  0  0  0  0  0
   -0.6553   -1.9250    0.5090 O   0  0  0  0  0  0  0  0  0  0  0  0
   -1.9747   -1.5754    0.3898 C   0  0  0  0  0  0  0  0  0  0  0  0
   -2.3669   -0.6791   -0.7311 C   0  0  0  0  0  0  0  0  0  0  0  0
   -3.8580   -0.4799   -0.6048 C   0  0  0  0  0  0  0  0  0  0  0  0
   -4.3695    0.5590    0.1452 C   0  0  0  0  0  0  0  0  0  0  0  0
   -5.7489    0.6965    0.2281 C   0  0  0  0  0  0  0  0  0  0  0  0
   -6.6248   -0.1564   -0.4039 C   0  0  0  0  0  0  0  0  0  0  0  0
   -6.0906   -1.2008   -1.1576 C   0  0  0  0  0  0  0  0  0  0  0  0
   -4.7266   -1.3495   -1.2488 C   0  0  0  0  0  0  0  0  0  0  0  0
   -8.0633    0.0485   -0.2732 C   0  0  0  0  0  0  0  0  0  0  0  0
   -8.9754   -0.9849   -0.2984 C   0  0  0  0  0  0  0  0  0  0  0  0
  -10.3334   -0.8024   -0.1764 C   0  0  0  0  0  0  0  0  0  0  0  0
  -10.8292    0.4707   -0.0201 C   0  0  0  0  0  0  0  0  0  0  0  0
   -9.9200    1.5128    0.0060 C   0  0  0  0  0  0  0  0  0  0  0  0
   -8.5644    1.3411   -0.1148 C   0  0  0  0  0  0  0  0  0  0  0  0
    8.3789    1.5520   -0.1116 H   0  0  0  0  0  0  0  0  0  0  0  0
    7.5094   -0.0729    0.1273 H   0  0  0  0  0  0  0  0  0  0  0  0
    6.8847   -1.6252   -2.6940 H   0  0  0  0  0  0  0  0  0  0  0  0
   10.1056    1.1355   -1.7282 H   0  0  0  0  0  0  0  0  0  0  0  0
    6.5932    0.8308    2.3976 H   0  0  0  0  0  0  0  0  0  0  0  0
    5.9106    2.3489    2.3761 H   0  0  0  0  0  0  0  0  0  0  0  0
    6.9738    3.8094    0.6165 H   0  0  0  0  0  0  0  0  0  0  0  0
    6.4486    3.1639   -1.0391 H   0  0  0  0  0  0  0  0  0  0  0  0
    5.2426    3.4947    0.2871 H   0  0  0  0  0  0  0  0  0  0  0  0
    4.5452    0.7479    2.3514 H   0  0  0  0  0  0  0  0  0  0  0  0
    1.8176    1.8699    1.2130 H   0  0  0  0  0  0  0  0  0  0  0  0
   -0.2949    0.7613    0.8574 H   0  0  0  0  0  0  0  0  0  0  0  0
    3.7912   -1.8835    1.0195 H   0  0  0  0  0  0  0  0  0  0  0  0
   -2.5807   -2.5074    0.2796 H   0  0  0  0  0  0  0  0  0  0  0  0
   -2.3058   -1.0583    1.3440 H   0  0  0  0  0  0  0  0  0  0  0  0
   -2.1371   -1.2254   -1.6772 H   0  0  0  0  0  0  0  0  0  0  0  0
   -1.9585    0.3375   -0.7212 H   0  0  0  0  0  0  0  0  0  0  0  0
   -3.6785    1.2254    0.6391 H   0  0  0  0  0  0  0  0  0  0  0  0
   -6.1478    1.5266    0.8275 H   0  0  0  0  0  0  0  0  0  0  0  0
   -6.7699   -1.8894   -1.6675 H   0  0  0  0  0  0  0  0  0  0  0  0
   -4.3154   -2.1571   -1.8316 H   0  0  0  0  0  0  0  0  0  0  0  0
   -8.5574   -1.9855   -0.4234 H   0  0  0  0  0  0  0  0  0  0  0  0
  -10.9990   -1.6524   -0.2038 H   0  0  0  0  0  0  0  0  0  0  0  0
  -11.8913    0.6538    0.0789 H   0  0  0  0  0  0  0  0  0  0  0  0
  -10.3065    2.5225    0.1294 H   0  0  0  0  0  0  0  0  0  0  0  0
   -7.9113    2.1981   -0.0859 H   0  0  0  0  0  0  0  0  0  0  0  0
  1  2  2  0
  2  3  1  0
  3  4  1  0
  4  5  1  0
  5  6  1  0
  6  7  2  0
  6  8  1  0
  6  9  1  0
  3 10  1  1
  3 11  1  0
  2 12  1  0
 12 13  1  0
 13 14  2  0
 14 15  1  0
 15 16  2  0
 16 17  1  0
 17 18  2  0
 17 19  1  0
 19 20  1  0
 19 21  1  0
 19 22  1  0
 16 23  1  0
 23 24  1  0
 24 25  1  0
 25 26  1  0
 26 27  2  0
 27 28  1  0
 28 29  2  0
 29 30  1  0
 30 31  2  0
 29 32  1  0
 32 33  2  0
 33 34  1  0
 34 35  2  0
 35 36  1  0
 36 37  2  0
 18 13  1  0
 31 26  1  0
 37 32  1  0
  4 38  1  0
  4 39  1  0
  8 40  1  0
  9 41  1  0
 10 42  1  0
 10 43  1  0
 11 44  1  0
 11 45  1  0
 11 46  1  0
 12 47  1  0
 14 48  1  0
 15 49  1  0
 18 50  1  0
 24 51  1  0
 24 52  1  0
 25 53  1  0
 25 54  1  0
 27 55  1  0
 28 56  1  0
 30 57  1  0
 31 58  1  0
 33 59  1  0
 34 60  1  0
 35 61  1  0
 36 62  1  0
 37 63  1  0
M  END
>  <Ligand ID>  (1) 
LIG0005092

>  <Ligand>  (1) 
CHEMBL1093429

>  <SMILES>  (1) 
O=C([C@](COP(=O)(O)O)(N)C)Nc1ccc(c(c1)C(F)(F)F)OCCc1ccc(cc1)c1ccccc1

>  <CID>  (1) 
46885796.0

>  <ChEMBL ID>  (1) 
nan

>  <InChiKey>  (1) 
YRLWOUXQTIDPEK-DEOSSOPVSA-N

>  <InChi>  (1) 
InChI=1S/C25H26F3N2O6P/c1-24(29,16-36-37(32,33)34)23(31)30-20-11-12-22(21(15-20)25(26,27)28)35-14-13-17-7-9-19(10-8-17)18-5-3-2-4-6-18/h2-12,15H,13-14,16,29H2,1H3,(H,30,31)(H2,32,33,34)/t24-/m0/s1

>  <IUPAC Name>  (1) 
[(2S)-2-amino-2-methyl-3-oxo-3-[4-[2-(4-phenylphenyl)ethoxy]-3-(trifluoromethyl)anilino]propyl] dihydrogen phosphate

$$$$
