
     RDKit          3D

 28 27  0  0  0  0  0  0  0  0999 V2000
    3.5189   -0.8733   -0.6924 C   0  0  0  0  0  0  0  0  0  0  0  0
    2.1085   -0.9557   -0.2732 N   0  0  0  0  0  0  0  0  0  0  0  0
    1.8474   -0.0278    0.7908 C   0  0  0  0  0  0  0  0  0  0  0  0
    0.8941    1.0636    0.5030 C   0  0  0  0  0  0  0  0  0  0  0  0
   -0.4978    0.6635    0.2166 C   0  0  0  0  0  0  0  0  0  0  0  0
   -1.4244    1.6931    0.0742 C   0  0  0  0  0  0  0  0  0  0  0  0
   -2.7502    1.4116   -0.1816 C   0  0  0  0  0  0  0  0  0  0  0  0
   -3.2204    0.1182   -0.3077 C   0  0  0  0  0  0  0  0  0  0  0  0
   -2.2974   -0.8931   -0.1652 C   0  0  0  0  0  0  0  0  0  0  0  0
   -0.9646   -0.6100    0.0921 C   0  0  0  0  0  0  0  0  0  0  0  0
   -2.7544   -2.1987   -0.2892 O   0  0  0  0  0  0  0  0  0  0  0  0
   -4.5572   -0.1669   -0.5659 O   0  0  0  0  0  0  0  0  0  0  0  0
    0.7647    1.9358    1.6232 O   0  0  0  0  0  0  0  0  0  0  0  0
    0.0000    0.0000    0.0000 Cl  0  0  0  0  0  0  0  0  0  0  0  0
    3.5584   -0.9818   -1.7868 H   0  0  0  0  0  0  0  0  0  0  0  0
    3.9051    0.0900   -0.3096 H   0  0  0  0  0  0  0  0  0  0  0  0
    4.1246   -1.7039   -0.2720 H   0  0  0  0  0  0  0  0  0  0  0  0
    1.5145   -0.7299   -1.0985 H   0  0  0  0  0  0  0  0  0  0  0  0
    1.9744   -1.9534   -0.0503 H   0  0  0  0  0  0  0  0  0  0  0  0
    2.8277    0.4482    1.0662 H   0  0  0  0  0  0  0  0  0  0  0  0
    1.5448   -0.5779    1.7195 H   0  0  0  0  0  0  0  0  0  0  0  0
    1.3027    1.6946   -0.3436 H   0  0  0  0  0  0  0  0  0  0  0  0
   -1.1018    2.7423    0.1655 H   0  0  0  0  0  0  0  0  0  0  0  0
   -3.4474    2.2309   -0.2875 H   0  0  0  0  0  0  0  0  0  0  0  0
   -0.3118   -1.4572    0.1986 H   0  0  0  0  0  0  0  0  0  0  0  0
   -2.2306   -2.9284   -0.7247 H   0  0  0  0  0  0  0  0  0  0  0  0
   -5.0077   -0.9008    0.0028 H   0  0  0  0  0  0  0  0  0  0  0  0
    0.6800    2.8668    1.2962 H   0  0  0  0  0  0  0  0  0  0  0  0
  1  2  1  0
  2  3  1  0
  3  4  1  0
  4  5  1  0
  5  6  2  0
  6  7  1  0
  7  8  2  0
  8  9  1  0
  9 10  2  0
  9 11  1  0
  8 12  1  0
  4 13  1  0
 10  5  1  0
  1 15  1  0
  1 16  1  0
  1 17  1  0
  2 18  1  0
  2 19  1  0
  3 20  1  0
  3 21  1  0
  4 22  1  0
  6 23  1  0
  7 24  1  0
 10 25  1  0
 11 26  1  0
 12 27  1  0
 13 28  1  0
M  CHG  2   2   1  14  -1
M  END
>  <Ligand ID>  (1) 
LIG0002320

>  <Ligand>  (1) 
(+/-)-Epinephrine hydrochloride

>  <SMILES>  (1) 
C[NH2+]CC(c1ccc(c(c1)O)O)O.[Cl-]

>  <CID>  (1) 
9489.0

>  <ChEMBL ID>  (1) 
nan

>  <InChiKey>  (1) 
ATADHKWKHYVBTJ-UHFFFAOYSA-N

>  <InChi>  (1) 
InChI=1S/C9H13NO3.ClH/c1-10-5-9(13)6-2-3-7(11)8(12)4-6;/h2-4,9-13H,5H2,1H3;1H

>  <IUPAC Name>  (1) 
[2-(3,4-dihydroxyphenyl)-2-hydroxyethyl]-methylazanium;chloride

$$$$
