
     RDKit          3D

 52 54  0  0  0  0  0  0  0  0999 V2000
    5.3218    2.7030    0.7827 N   0  0  0  0  0  0  0  0  0  0  0  0
    5.0362    1.9320   -0.3882 C   0  0  0  0  0  0  0  0  0  0  0  0
    5.9357    1.7177   -1.2721 O   0  0  0  0  0  0  0  0  0  0  0  0
    3.7135    1.3480   -0.6440 C   0  0  0  0  0  0  0  0  0  0  0  0
    3.4567    0.0146   -0.0423 C   0  0  0  0  0  0  0  0  0  0  0  0
    4.3798   -1.0888   -0.4635 C   0  0  0  0  0  0  0  0  0  0  0  0
    5.8224   -1.0549   -0.2243 C   0  0  0  0  0  0  0  0  0  0  0  0
    4.9790   -2.0154    0.5691 C   0  0  0  0  0  0  0  0  0  0  0  0
    2.1000   -0.4639   -0.2962 N   0  0  0  0  0  0  0  0  0  0  0  0
    0.9425    0.2199    0.1414 C   0  0  0  0  0  0  0  0  0  0  0  0
    1.0106    1.2972    0.7863 O   0  0  0  0  0  0  0  0  0  0  0  0
   -0.3859   -0.3128   -0.1470 C   0  0  0  0  0  0  0  0  0  0  0  0
   -0.5062   -1.4683   -0.8382 N   0  0  0  0  0  0  0  0  0  0  0  0
   -1.7125   -1.9902   -1.1220 C   0  0  0  0  0  0  0  0  0  0  0  0
   -2.8783   -1.3325   -0.6983 C   0  0  0  0  0  0  0  0  0  0  0  0
   -2.8072   -0.1428    0.0141 C   0  0  0  0  0  0  0  0  0  0  0  0
   -1.5331    0.3316    0.2680 C   0  0  0  0  0  0  0  0  0  0  0  0
   -3.9653    0.4464    0.3946 O   0  0  0  0  0  0  0  0  0  0  0  0
   -4.0570    1.6254    1.1016 C   0  0  2  0  0  0  0  0  0  0  0  0
   -4.7826    1.4682    2.4344 C   0  0  0  0  0  0  0  0  0  0  0  0
   -6.0641    1.0219    2.2994 F   0  0  0  0  0  0  0  0  0  0  0  0
   -4.0198    0.7548    3.3225 F   0  0  0  0  0  0  0  0  0  0  0  0
   -4.8638    2.7718    2.9434 F   0  0  0  0  0  0  0  0  0  0  0  0
   -4.8586    2.6926    0.3509 C   0  0  0  0  0  0  0  0  0  0  0  0
   -4.1476   -2.0053   -1.0581 C   0  0  0  0  0  0  0  0  0  0  0  0
   -4.6118   -3.1858   -0.1631 C   0  0  0  0  0  0  0  0  0  0  0  0
   -5.3656   -1.8952   -0.2285 C   0  0  0  0  0  0  0  0  0  0  0  0
    3.5225    0.1431    1.4907 C   0  0  0  0  0  0  0  0  0  0  0  0
    4.5543    3.2735    1.2028 H   0  0  0  0  0  0  0  0  0  0  0  0
    6.2927    2.6967    1.2167 H   0  0  0  0  0  0  0  0  0  0  0  0
    3.4483    1.4035   -1.7275 H   0  0  0  0  0  0  0  0  0  0  0  0
    2.9764    2.0568   -0.1640 H   0  0  0  0  0  0  0  0  0  0  0  0
    4.0924   -1.6658   -1.4008 H   0  0  0  0  0  0  0  0  0  0  0  0
    6.5215   -1.4853   -0.9689 H   0  0  0  0  0  0  0  0  0  0  0  0
    6.3456   -0.3294    0.4356 H   0  0  0  0  0  0  0  0  0  0  0  0
    4.7183   -1.8468    1.6138 H   0  0  0  0  0  0  0  0  0  0  0  0
    5.1468   -3.0880    0.3394 H   0  0  0  0  0  0  0  0  0  0  0  0
    1.9215   -1.3653   -0.8325 H   0  0  0  0  0  0  0  0  0  0  0  0
   -1.7619   -2.9185   -1.6784 H   0  0  0  0  0  0  0  0  0  0  0  0
   -1.3994    1.2445    0.8130 H   0  0  0  0  0  0  0  0  0  0  0  0
   -3.0959    2.1048    1.3560 H   0  0  0  0  0  0  0  0  0  0  0  0
   -4.2641    3.1451   -0.4658 H   0  0  0  0  0  0  0  0  0  0  0  0
   -5.8028    2.2372    0.0137 H   0  0  0  0  0  0  0  0  0  0  0  0
   -5.1095    3.4702    1.1026 H   0  0  0  0  0  0  0  0  0  0  0  0
   -4.3070   -2.2035   -2.1418 H   0  0  0  0  0  0  0  0  0  0  0  0
   -3.9444   -3.4103    0.6991 H   0  0  0  0  0  0  0  0  0  0  0  0
   -4.9834   -4.0864   -0.6721 H   0  0  0  0  0  0  0  0  0  0  0  0
   -6.3679   -1.9820   -0.7125 H   0  0  0  0  0  0  0  0  0  0  0  0
   -5.3527   -1.3294    0.7183 H   0  0  0  0  0  0  0  0  0  0  0  0
    4.5783    0.1721    1.8282 H   0  0  0  0  0  0  0  0  0  0  0  0
    3.0498   -0.7268    1.9874 H   0  0  0  0  0  0  0  0  0  0  0  0
    3.0815    1.1006    1.8408 H   0  0  0  0  0  0  0  0  0  0  0  0
  1  2  1  0
  2  3  2  0
  2  4  1  0
  4  5  1  0
  5  6  1  0
  6  7  1  0
  7  8  1  0
  5  9  1  0
  9 10  1  0
 10 11  2  0
 10 12  1  0
 12 13  2  0
 13 14  1  0
 14 15  2  0
 15 16  1  0
 16 17  2  0
 16 18  1  0
 18 19  1  0
 19 20  1  0
 20 21  1  0
 20 22  1  0
 20 23  1  0
 19 24  1  0
 15 25  1  0
 25 26  1  0
 26 27  1  0
  5 28  1  0
  8  6  1  0
 17 12  1  0
 27 25  1  0
  1 29  1  0
  1 30  1  0
  4 31  1  0
  4 32  1  0
  6 33  1  0
  7 34  1  0
  7 35  1  0
  8 36  1  0
  8 37  1  0
  9 38  1  0
 14 39  1  0
 17 40  1  0
 19 41  1  1
 24 42  1  0
 24 43  1  0
 24 44  1  0
 25 45  1  0
 26 46  1  0
 26 47  1  0
 27 48  1  0
 27 49  1  0
 28 50  1  0
 28 51  1  0
 28 52  1  0
M  END
>  <Ligand ID>  (1) 
LIG0005187

>  <Ligand>  (1) 
CHEMBL3950162

>  <SMILES>  (1) 
NC(=O)CC(C1CC1)(NC(=O)c1ncc(c(c1)O[C@H](C(F)(F)F)C)C1CC1)C

>  <CID>  (1) 
90204154.0

>  <ChEMBL ID>  (1) 
nan

>  <InChiKey>  (1) 
VMDGWODVECVTBV-APDXDRDNSA-N

>  <InChi>  (1) 
InChI=1S/C19H24F3N3O3/c1-10(19(20,21)22)28-15-7-14(24-9-13(15)11-3-4-11)17(27)25-18(2,8-16(23)26)12-5-6-12/h7,9-12H,3-6,8H2,1-2H3,(H2,23,26)(H,25,27)/t10-,18?/m0/s1

>  <IUPAC Name>  (1) 
N-(4-amino-2-cyclopropyl-4-oxobutan-2-yl)-5-cyclopropyl-4-[(2S)-1,1,1-trifluoropropan-2-yl]oxypyridine-2-carboxamide

$$$$
