
     RDKit          3D

 56 58  0  0  0  0  0  0  0  0999 V2000
   -6.1483    0.0423    2.9478 C   0  0  0  0  0  0  0  0  0  0  0  0
   -5.3584    1.0995    2.2041 C   0  0  0  0  0  0  0  0  0  0  0  0
   -4.4544    0.3954    1.3561 O   0  0  0  0  0  0  0  0  0  0  0  0
   -3.5660    0.9851    0.5213 C   0  0  0  0  0  0  0  0  0  0  0  0
   -3.5408    2.2632    0.4972 O   0  0  0  0  0  0  0  0  0  0  0  0
   -2.6019    0.2719   -0.3813 C   0  0  0  0  0  0  0  0  0  0  0  0
   -1.8762   -0.7187    0.4864 C   0  0  0  0  0  0  0  0  0  0  0  0
   -0.4388   -0.4035    0.6939 C   0  0  0  0  0  0  0  0  0  0  0  0
    0.2362   -0.0982   -0.4946 N   0  0  0  0  0  0  0  0  0  0  0  0
   -0.3188    0.8883   -1.3343 C   0  0  0  0  0  0  0  0  0  0  0  0
   -1.7306    1.2428   -1.1098 C   0  0  0  0  0  0  0  0  0  0  0  0
    1.5735   -0.4835   -0.6684 C   0  0  0  0  0  0  0  0  0  0  0  0
    2.4472    0.3212    0.2902 C   0  0  0  0  0  0  0  0  0  0  0  0
    3.8745   -0.0438    0.1496 C   0  0  0  0  0  0  0  0  0  0  0  0
    4.2336   -0.9289   -0.6964 O   0  0  0  0  0  0  0  0  0  0  0  0
    4.8177    0.6046    0.9656 N   0  0  0  0  0  0  0  0  0  0  0  0
    6.2054    0.3011    0.8813 C   0  0  0  0  0  0  0  0  0  0  0  0
    7.0398    0.9808    0.0276 C   0  0  0  0  0  0  0  0  0  0  0  0
    8.3701    0.6475   -0.0143 C   0  0  0  0  0  0  0  0  0  0  0  0
    8.9199   -0.3328    0.7528 C   0  0  0  0  0  0  0  0  0  0  0  0
    8.0972   -1.0306    1.6202 C   0  0  0  0  0  0  0  0  0  0  0  0
    6.7641   -0.6919    1.6579 C   0  0  0  0  0  0  0  0  0  0  0  0
   10.2340   -0.5955    0.6501 F   0  0  0  0  0  0  0  0  0  0  0  0
   -3.3940   -0.4983   -1.3761 C   0  0  0  0  0  0  0  0  0  0  0  0
   -4.4746   -1.2943   -0.9960 C   0  0  0  0  0  0  0  0  0  0  0  0
   -5.2257   -2.0143   -1.8998 C   0  0  0  0  0  0  0  0  0  0  0  0
   -4.9412   -1.9831   -3.2462 C   0  0  0  0  0  0  0  0  0  0  0  0
   -3.8857   -1.2109   -3.6499 C   0  0  0  0  0  0  0  0  0  0  0  0
   -3.1230   -0.4799   -2.7339 C   0  0  0  0  0  0  0  0  0  0  0  0
   -6.5035    0.3879    3.9299 H   0  0  0  0  0  0  0  0  0  0  0  0
   -7.0103   -0.3142    2.3643 H   0  0  0  0  0  0  0  0  0  0  0  0
   -5.5235   -0.8582    3.1425 H   0  0  0  0  0  0  0  0  0  0  0  0
   -4.8318    1.7050    2.9585 H   0  0  0  0  0  0  0  0  0  0  0  0
   -6.0851    1.6959    1.6163 H   0  0  0  0  0  0  0  0  0  0  0  0
   -1.9097   -1.7539    0.0299 H   0  0  0  0  0  0  0  0  0  0  0  0
   -2.3424   -0.7750    1.4887 H   0  0  0  0  0  0  0  0  0  0  0  0
    0.0319   -1.3309    1.1328 H   0  0  0  0  0  0  0  0  0  0  0  0
   -0.3235    0.4351    1.4253 H   0  0  0  0  0  0  0  0  0  0  0  0
   -0.1634    0.6049   -2.3934 H   0  0  0  0  0  0  0  0  0  0  0  0
    0.3510    1.7994   -1.2209 H   0  0  0  0  0  0  0  0  0  0  0  0
   -1.6989    2.1515   -0.4081 H   0  0  0  0  0  0  0  0  0  0  0  0
   -2.2349    1.6696   -2.0006 H   0  0  0  0  0  0  0  0  0  0  0  0
    1.9295   -0.3211   -1.6907 H   0  0  0  0  0  0  0  0  0  0  0  0
    1.7779   -1.5671   -0.4325 H   0  0  0  0  0  0  0  0  0  0  0  0
    2.0863    0.1010    1.3305 H   0  0  0  0  0  0  0  0  0  0  0  0
    2.2680    1.3925    0.0724 H   0  0  0  0  0  0  0  0  0  0  0  0
    4.5152    1.3244    1.6516 H   0  0  0  0  0  0  0  0  0  0  0  0
    6.6375    1.7641   -0.5950 H   0  0  0  0  0  0  0  0  0  0  0  0
    9.0052    1.1978   -0.6948 H   0  0  0  0  0  0  0  0  0  0  0  0
    8.5038   -1.8158    2.2434 H   0  0  0  0  0  0  0  0  0  0  0  0
    6.1141   -1.2320    2.3325 H   0  0  0  0  0  0  0  0  0  0  0  0
   -4.7764   -1.3952    0.0445 H   0  0  0  0  0  0  0  0  0  0  0  0
   -6.0666   -2.6309   -1.5854 H   0  0  0  0  0  0  0  0  0  0  0  0
   -5.5140   -2.5370   -3.9683 H   0  0  0  0  0  0  0  0  0  0  0  0
   -3.6491   -1.1773   -4.7151 H   0  0  0  0  0  0  0  0  0  0  0  0
   -2.3219    0.0847   -3.1593 H   0  0  0  0  0  0  0  0  0  0  0  0
  1  2  1  0
  2  3  1  0
  3  4  1  0
  4  5  2  0
  4  6  1  0
  6  7  1  0
  7  8  1  0
  8  9  1  0
  9 10  1  0
 10 11  1  0
  9 12  1  0
 12 13  1  0
 13 14  1  0
 14 15  2  0
 14 16  1  0
 16 17  1  0
 17 18  2  0
 18 19  1  0
 19 20  2  0
 20 21  1  0
 21 22  2  0
 20 23  1  0
  6 24  1  0
 24 25  2  0
 25 26  1  0
 26 27  2  0
 27 28  1  0
 28 29  2  0
 11  6  1  0
 22 17  1  0
 29 24  1  0
  1 30  1  0
  1 31  1  0
  1 32  1  0
  2 33  1  0
  2 34  1  0
  7 35  1  0
  7 36  1  0
  8 37  1  0
  8 38  1  0
 10 39  1  0
 10 40  1  0
 11 41  1  0
 11 42  1  0
 12 43  1  0
 12 44  1  0
 13 45  1  0
 13 46  1  0
 16 47  1  0
 18 48  1  0
 19 49  1  0
 21 50  1  0
 22 51  1  0
 25 52  1  0
 26 53  1  0
 27 54  1  0
 28 55  1  0
 29 56  1  0
M  END
>  <Ligand ID>  (1) 
LIG0004443

>  <Ligand>  (1) 
MLS001359871

>  <SMILES>  (1) 
CCOC(=O)C1(CCN(CC1)CCC(=O)Nc1ccc(cc1)F)c1ccccc1

>  <CID>  (1) 
4018333.0

>  <ChEMBL ID>  (1) 
nan

>  <InChiKey>  (1) 
LIHIPJDKYVGEQP-UHFFFAOYSA-N

>  <InChi>  (1) 
InChI=1S/C23H27FN2O3/c1-2-29-22(28)23(18-6-4-3-5-7-18)13-16-26(17-14-23)15-12-21(27)25-20-10-8-19(24)9-11-20/h3-11H,2,12-17H2,1H3,(H,25,27)

>  <IUPAC Name>  (1) 
ethyl 1-[3-(4-fluoroanilino)-3-oxopropyl]-4-phenylpiperidine-4-carboxylate

$$$$
