
     RDKit          3D

 42 45  0  0  0  0  0  0  0  0999 V2000
    7.7987    1.9011   -0.0830 C   0  0  0  0  0  0  0  0  0  0  0  0
    6.4039    1.9681   -0.0461 O   0  0  0  0  0  0  0  0  0  0  0  0
    5.6654    0.8010   -0.1675 C   0  0  0  0  0  0  0  0  0  0  0  0
    6.2694   -0.4275   -0.3240 C   0  0  0  0  0  0  0  0  0  0  0  0
    5.4827   -1.5435   -0.4383 C   0  0  0  0  0  0  0  0  0  0  0  0
    4.0949   -1.4385   -0.3972 C   0  0  0  0  0  0  0  0  0  0  0  0
    3.4668   -0.2252   -0.2420 C   0  0  0  0  0  0  0  0  0  0  0  0
    4.2905    0.8841   -0.1291 C   0  0  0  0  0  0  0  0  0  0  0  0
    1.9978   -0.0914   -0.1957 C   0  0  0  0  0  0  0  0  0  0  0  0
    1.5576    1.0628   -0.0513 O   0  0  0  0  0  0  0  0  0  0  0  0
    1.1212   -1.1790   -0.3049 N   0  0  0  0  0  0  0  0  0  0  0  0
   -0.2843   -1.1576   -0.2731 C   0  0  0  0  0  0  0  0  0  0  0  0
   -0.9794   -2.3682   -0.4004 C   0  0  0  0  0  0  0  0  0  0  0  0
   -2.3537   -2.4272   -0.3787 C   0  0  0  0  0  0  0  0  0  0  0  0
   -3.1290   -1.2983   -0.2303 C   0  0  0  0  0  0  0  0  0  0  0  0
   -2.4649   -0.0975   -0.1035 C   0  0  0  0  0  0  0  0  0  0  0  0
   -1.0696   -0.0437   -0.1263 C   0  0  0  0  0  0  0  0  0  0  0  0
   -3.2656    1.1116    0.0548 C   0  0  0  0  0  0  0  0  0  0  0  0
   -2.6884    2.2274    0.1734 O   0  0  0  0  0  0  0  0  0  0  0  0
   -4.7321    1.0501    0.0781 C   0  0  0  0  0  0  0  0  0  0  0  0
   -5.3723   -0.1717   -0.0516 C   0  0  0  0  0  0  0  0  0  0  0  0
   -4.5751   -1.3868   -0.2106 C   0  0  0  0  0  0  0  0  0  0  0  0
   -5.1658   -2.4850   -0.3269 O   0  0  0  0  0  0  0  0  0  0  0  0
   -6.7530   -0.2026   -0.0265 C   0  0  0  0  0  0  0  0  0  0  0  0
   -7.4831    0.9529    0.1241 C   0  0  0  0  0  0  0  0  0  0  0  0
   -6.8757    2.1779    0.2549 C   0  0  0  0  0  0  0  0  0  0  0  0
   -5.4851    2.1946    0.2279 C   0  0  0  0  0  0  0  0  0  0  0  0
    8.1661    1.2448    0.7448 H   0  0  0  0  0  0  0  0  0  0  0  0
    8.1144    1.4935   -1.0589 H   0  0  0  0  0  0  0  0  0  0  0  0
    8.1779    2.9404    0.0071 H   0  0  0  0  0  0  0  0  0  0  0  0
    7.3484   -0.5170   -0.3569 H   0  0  0  0  0  0  0  0  0  0  0  0
    5.9648   -2.4976   -0.5602 H   0  0  0  0  0  0  0  0  0  0  0  0
    3.5554   -2.3660   -0.4946 H   0  0  0  0  0  0  0  0  0  0  0  0
    3.8187    1.8656   -0.0043 H   0  0  0  0  0  0  0  0  0  0  0  0
    1.5735   -2.1323   -0.4260 H   0  0  0  0  0  0  0  0  0  0  0  0
   -0.4469   -3.3119   -0.5220 H   0  0  0  0  0  0  0  0  0  0  0  0
   -2.8409   -3.3853   -0.4807 H   0  0  0  0  0  0  0  0  0  0  0  0
   -0.6467    0.9365   -0.0203 H   0  0  0  0  0  0  0  0  0  0  0  0
   -7.2646   -1.1448   -0.1262 H   0  0  0  0  0  0  0  0  0  0  0  0
   -8.5690    0.8644    0.1363 H   0  0  0  0  0  0  0  0  0  0  0  0
   -7.4597    3.0762    0.3723 H   0  0  0  0  0  0  0  0  0  0  0  0
   -4.9632    3.1456    0.3284 H   0  0  0  0  0  0  0  0  0  0  0  0
  1  2  1  0
  2  3  1  0
  3  4  2  0
  4  5  1  0
  5  6  2  0
  6  7  1  0
  7  8  2  0
  7  9  1  0
  9 10  2  0
  9 11  1  0
 11 12  1  0
 12 13  2  0
 13 14  1  0
 14 15  2  0
 15 16  1  0
 16 17  2  0
 16 18  1  0
 18 19  2  0
 18 20  1  0
 20 21  2  0
 21 22  1  0
 22 23  2  0
 21 24  1  0
 24 25  2  0
 25 26  1  0
 26 27  2  0
  8  3  1  0
 17 12  1  0
 27 20  1  0
 22 15  1  0
  1 28  1  0
  1 29  1  0
  1 30  1  0
  4 31  1  0
  5 32  1  0
  6 33  1  0
  8 34  1  0
 11 35  1  0
 13 36  1  0
 14 37  1  0
 17 38  1  0
 24 39  1  0
 25 40  1  0
 26 41  1  0
 27 42  1  0
M  END
>  <Ligand ID>  (1) 
LIG0004832

>  <Ligand>  (1) 
MLS000585164

>  <SMILES>  (1) 
COc1cccc(c1)C(=O)Nc1ccc2c(c1)C(=O)c1c(C2=O)cccc1

>  <CID>  (1) 
12004960.0

>  <ChEMBL ID>  (1) 
nan

>  <InChiKey>  (1) 
NEPUZNUSGOMFAN-UHFFFAOYSA-N

>  <InChi>  (1) 
InChI=1S/C22H15NO4/c1-27-15-6-4-5-13(11-15)22(26)23-14-9-10-18-19(12-14)21(25)17-8-3-2-7-16(17)20(18)24/h2-12H,1H3,(H,23,26)

>  <IUPAC Name>  (1) 
N-(9,10-dioxoanthracen-2-yl)-3-methoxybenzamide

$$$$
