
     RDKit          3D

 30 32  0  0  0  0  0  0  0  0999 V2000
    4.3931    0.8781    0.9605 C   0  0  0  0  0  0  0  0  0  0  0  0
    4.0739   -0.2070    0.1431 O   0  0  0  0  0  0  0  0  0  0  0  0
    2.7921   -0.5068   -0.3074 C   0  0  0  0  0  0  0  0  0  0  0  0
    1.6941    0.2810    0.0357 C   0  0  0  0  0  0  0  0  0  0  0  0
    0.4210   -0.0431   -0.4301 C   0  0  0  0  0  0  0  0  0  0  0  0
   -0.8861    0.6077   -0.2219 C   0  0  2  0  0  0  0  0  0  0  0  0
   -1.3697    0.4710    1.2078 C   0  0  0  0  0  0  0  0  0  0  0  0
   -2.7192    0.8048    1.3890 N   0  0  0  0  0  0  0  0  0  0  0  0
   -3.6238    0.7998    0.3169 C   0  0  0  0  0  0  0  0  0  0  0  0
   -3.2067    0.1801   -0.9573 C   0  0  0  0  0  0  0  0  0  0  0  0
   -1.8037   -0.2289   -0.9785 N   0  0  0  0  0  0  0  0  0  0  0  0
   -1.1029   -1.3032   -1.5963 C   0  0  0  0  0  0  0  0  0  0  0  0
   -1.6563   -2.1650   -2.3020 O   0  0  0  0  0  0  0  0  0  0  0  0
    0.3030   -1.1608   -1.2323 C   0  0  0  0  0  0  0  0  0  0  0  0
    1.4007   -1.9480   -1.5751 C   0  0  0  0  0  0  0  0  0  0  0  0
    2.6588   -1.6223   -1.1109 C   0  0  0  0  0  0  0  0  0  0  0  0
    1.1350   -3.3541   -2.6063 Cl  0  0  0  0  0  0  0  0  0  0  0  0
    5.3024    0.5759    1.5561 H   0  0  0  0  0  0  0  0  0  0  0  0
    3.6026    1.0914    1.7107 H   0  0  0  0  0  0  0  0  0  0  0  0
    4.5885    1.8235    0.4315 H   0  0  0  0  0  0  0  0  0  0  0  0
    1.8375    1.1525    0.6710 H   0  0  0  0  0  0  0  0  0  0  0  0
   -0.9043    1.6599   -0.5659 H   0  0  0  0  0  0  0  0  0  0  0  0
   -1.2311   -0.6231    1.4501 H   0  0  0  0  0  0  0  0  0  0  0  0
   -0.7261    1.0270    1.9175 H   0  0  0  0  0  0  0  0  0  0  0  0
   -2.8086    1.6339    2.0187 H   0  0  0  0  0  0  0  0  0  0  0  0
   -4.5727    0.2919    0.6569 H   0  0  0  0  0  0  0  0  0  0  0  0
   -3.9535    1.8639    0.1466 H   0  0  0  0  0  0  0  0  0  0  0  0
   -3.2702    0.9331   -1.7942 H   0  0  0  0  0  0  0  0  0  0  0  0
   -3.8635   -0.6579   -1.2881 H   0  0  0  0  0  0  0  0  0  0  0  0
    3.4957   -2.2553   -1.3952 H   0  0  0  0  0  0  0  0  0  0  0  0
  1  2  1  0
  2  3  1  0
  3  4  2  0
  4  5  1  0
  5  6  1  0
  6  7  1  0
  7  8  1  0
  8  9  1  0
  9 10  1  0
 10 11  1  0
 11 12  1  0
 12 13  2  0
 12 14  1  0
 14 15  1  0
 15 16  2  0
 15 17  1  0
 16  3  1  0
 14  5  2  0
 11  6  1  0
  1 18  1  0
  1 19  1  0
  1 20  1  0
  4 21  1  0
  6 22  1  6
  7 23  1  0
  7 24  1  0
  8 25  1  0
  9 26  1  0
  9 27  1  0
 10 28  1  0
 10 29  1  0
 16 30  1  0
M  END
>  <Ligand ID>  (1) 
LIG0004791

>  <Ligand>  (1) 
CHEMBL220157

>  <SMILES>  (1) 
COc1cc2[C@@H]3CNCCN3C(=O)c2c(c1)Cl

>  <CID>  (1) 
11346775.0

>  <ChEMBL ID>  (1) 
nan

>  <InChiKey>  (1) 
CEPPEHPITSSEAI-JTQLQIEISA-N

>  <InChi>  (1) 
InChI=1S/C12H13ClN2O2/c1-17-7-4-8-10-6-14-2-3-15(10)12(16)11(8)9(13)5-7/h4-5,10,14H,2-3,6H2,1H3/t10-/m0/s1

>  <IUPAC Name>  (1) 
(10bR)-7-chloro-9-methoxy-2,3,4,10b-tetrahydro-1H-pyrazino[1,2-b]isoindol-6-one

$$$$
