
     RDKit          3D

 22 22  0  0  0  0  0  0  0  0999 V2000
    3.1410    0.9929   -0.8562 O   0  0  0  0  0  0  0  0  0  0  0  0
    2.5340   -0.0618   -0.1901 C   0  0  0  0  0  0  0  0  0  0  0  0
    3.1082   -1.1841   -0.1689 O   0  0  0  0  0  0  0  0  0  0  0  0
    1.2318    0.2064    0.4615 C   0  0  2  0  0  0  0  0  0  0  0  0
    0.6953   -0.9591    1.1220 N   0  0  0  0  0  0  0  0  0  0  0  0
   -0.6528   -0.4808    1.3924 C   0  0  0  0  0  0  0  0  0  0  0  0
   -1.0623   -0.1930   -0.0596 C   0  0  1  0  0  0  0  0  0  0  0  0
    0.1385    0.5961   -0.5177 C   0  0  0  0  0  0  0  0  0  0  0  0
   -1.0991   -1.4856   -0.7117 N   0  0  0  0  0  0  0  0  0  0  0  0
   -2.3419    0.4905   -0.1631 C   0  0  0  0  0  0  0  0  0  0  0  0
   -3.2950   -0.0953   -0.7817 O   0  0  0  0  0  0  0  0  0  0  0  0
   -2.5810    1.7281    0.3664 O   0  0  0  0  0  0  0  0  0  0  0  0
    4.1356    1.0224   -1.0604 H   0  0  0  0  0  0  0  0  0  0  0  0
    1.3084    1.0204    1.2133 H   0  0  0  0  0  0  0  0  0  0  0  0
    1.2094   -1.2419    1.9617 H   0  0  0  0  0  0  0  0  0  0  0  0
   -0.5911    0.4774    1.9144 H   0  0  0  0  0  0  0  0  0  0  0  0
   -1.2849   -1.2303    1.8675 H   0  0  0  0  0  0  0  0  0  0  0  0
    0.4618    0.3153   -1.5373 H   0  0  0  0  0  0  0  0  0  0  0  0
   -0.0853    1.6800   -0.4762 H   0  0  0  0  0  0  0  0  0  0  0  0
   -1.6052   -2.1318   -0.0759 H   0  0  0  0  0  0  0  0  0  0  0  0
   -0.1124   -1.8262   -0.8166 H   0  0  0  0  0  0  0  0  0  0  0  0
   -3.2530    2.3603   -0.0891 H   0  0  0  0  0  0  0  0  0  0  0  0
  1  2  1  0
  2  3  2  0
  2  4  1  0
  4  5  1  0
  5  6  1  0
  6  7  1  0
  7  8  1  0
  7  9  1  6
  7 10  1  0
 10 11  2  0
 10 12  1  0
  8  4  1  0
  1 13  1  0
  4 14  1  1
  5 15  1  0
  6 16  1  0
  6 17  1  0
  8 18  1  0
  8 19  1  0
  9 20  1  0
  9 21  1  0
 12 22  1  0
M  END
>  <Ligand ID>  (1) 
LIG0000581

>  <Ligand>  (1) 
(2R,3R)-APDC

>  <SMILES>  (1) 
OC(=O)[C@@H]1NC[C@@](C1)(N)C(=O)O

>  <CID>  (1) 
5310984.0

>  <ChEMBL ID>  (1) 
nan

>  <InChiKey>  (1) 
XZFMJVJDSYRWDQ-AWFVSMACSA-N

>  <InChi>  (1) 
InChI=1S/C6H10N2O4/c7-6(5(11)12)1-3(4(9)10)8-2-6/h3,8H,1-2,7H2,(H,9,10)(H,11,12)/t3-,6-/m1/s1

>  <IUPAC Name>  (1) 
(2R,4R)-4-aminopyrrolidine-2,4-dicarboxylic acid

$$$$
