
     RDKit          3D

 15 14  0  0  0  0  0  0  0  0999 V2000
   -2.8517    0.6152    0.1370 C   0  0  0  0  0  0  0  0  0  0  0  0
   -1.4944    0.2461    0.6297 C   0  0  0  0  0  0  0  0  0  0  0  0
   -0.4422    0.1413   -0.1639 C   0  0  0  0  0  0  0  0  0  0  0  0
    0.8819   -0.2285    0.3802 C   0  0  0  0  0  0  0  0  0  0  0  0
    1.9092   -0.3221   -0.4509 C   0  0  0  0  0  0  0  0  0  0  0  0
    3.2012   -0.6897    0.1236 C   0  0  0  0  0  0  0  0  0  0  0  0
    3.2795   -0.8979    1.3640 O   0  0  0  0  0  0  0  0  0  0  0  0
   -2.7901    0.5903   -0.9763 H   0  0  0  0  0  0  0  0  0  0  0  0
   -3.5605   -0.1482    0.5373 H   0  0  0  0  0  0  0  0  0  0  0  0
   -3.0891    1.6505    0.4499 H   0  0  0  0  0  0  0  0  0  0  0  0
   -1.3729    0.0568    1.6869 H   0  0  0  0  0  0  0  0  0  0  0  0
   -0.5621    0.3299   -1.2186 H   0  0  0  0  0  0  0  0  0  0  0  0
    0.9611   -0.4097    1.4440 H   0  0  0  0  0  0  0  0  0  0  0  0
    1.8252   -0.1395   -1.5175 H   0  0  0  0  0  0  0  0  0  0  0  0
    4.1050   -0.7947   -0.4608 H   0  0  0  0  0  0  0  0  0  0  0  0
  1  2  1  0
  2  3  2  0
  3  4  1  0
  4  5  2  0
  5  6  1  0
  6  7  2  0
  1  8  1  0
  1  9  1  0
  1 10  1  0
  2 11  1  0
  3 12  1  0
  4 13  1  0
  5 14  1  0
  6 15  1  0
M  END
>  <Ligand ID>  (1) 
LIG0000361

>  <Ligand>  (1) 
(2E,4E)-hexa-2,4-dienal

>  <SMILES>  (1) 
C/C=C/C=C/C=O

>  <CID>  (1) 
637564.0

>  <ChEMBL ID>  (1) 
nan

>  <InChiKey>  (1) 
BATOPAZDIZEVQF-MQQKCMAXSA-N

>  <InChi>  (1) 
InChI=1S/C6H8O/c1-2-3-4-5-6-7/h2-6H,1H3/b3-2+,5-4+

>  <IUPAC Name>  (1) 
(2E,4E)-hexa-2,4-dienal

$$$$
