
     RDKit          3D

 97100  0  0  0  0  0  0  0  0999 V2000
   -6.4522   -3.1908   -2.7435 C   0  0  0  0  0  0  0  0  0  0  0  0
   -5.5006   -3.2517   -1.7094 O   0  0  0  0  0  0  0  0  0  0  0  0
   -5.2637   -2.0364   -1.2135 C   0  0  0  0  0  0  0  0  0  0  0  0
   -5.0088   -0.7521   -0.7115 C   0  0  0  0  0  0  0  0  0  0  0  0
   -5.1670   -0.4273    0.5268 O   0  0  0  0  0  0  0  0  0  0  0  0
   -4.5375    0.3719   -1.4860 N   0  0  0  0  0  0  0  0  0  0  0  0
   -4.4035    1.6853   -0.8653 C   0  0  2  0  0  0  0  0  0  0  0  0
   -3.2331    1.4869    0.1535 C   0  0  0  0  0  0  0  0  0  0  0  0
   -3.0642    2.4389    0.9492 O   0  0  0  0  0  0  0  0  0  0  0  0
   -2.5297    0.3030    0.0809 N   0  0  0  0  0  0  0  0  0  0  0  0
   -1.4949    0.0944    1.1327 C   0  0  2  0  0  0  0  0  0  0  0  0
   -0.4017    0.9413    0.7109 C   0  0  0  0  0  0  0  0  0  0  0  0
   -0.5046    1.5328   -0.4143 O   0  0  0  0  0  0  0  0  0  0  0  0
    0.8407    1.2508    1.4192 N   0  0  0  0  0  0  0  0  0  0  0  0
    1.6564    2.2383    0.6692 C   0  0  2  0  0  0  0  0  0  0  0  0
    2.6750    1.4083   -0.0869 C   0  0  0  0  0  0  0  0  0  0  0  0
    3.3179    1.7507   -1.1014 O   0  0  0  0  0  0  0  0  0  0  0  0
    2.9206    0.0687    0.4355 N   0  0  0  0  0  0  0  0  0  0  0  0
    3.8819   -0.8214   -0.2163 C   0  0  2  0  0  0  0  0  0  0  0  0
    3.4255   -2.1716   -0.4321 C   0  0  0  0  0  0  0  0  0  0  0  0
    3.9808   -3.1171   -1.0081 O   0  0  0  0  0  0  0  0  0  0  0  0
    2.0949   -2.5234    0.0880 N   0  0  0  0  0  0  0  0  0  0  0  0
    5.2056   -0.7502    0.4702 C   0  0  0  0  0  0  0  0  0  0  0  0
    6.2398   -1.6162   -0.1459 C   0  0  0  0  0  0  0  0  0  0  0  0
    7.0625   -1.2348   -1.1914 C   0  0  0  0  0  0  0  0  0  0  0  0
    7.8106   -2.3244   -1.5107 N   0  0  0  0  0  0  0  0  0  0  0  0
    7.4879   -3.3702   -0.7061 C   0  0  0  0  0  0  0  0  0  0  0  0
    6.4791   -2.9551    0.1844 C   0  0  0  0  0  0  0  0  0  0  0  0
    6.0085   -3.8362    1.1225 C   0  0  0  0  0  0  0  0  0  0  0  0
    6.5036   -5.1580    1.2381 C   0  0  0  0  0  0  0  0  0  0  0  0
    7.5003   -5.4912    0.3407 C   0  0  0  0  0  0  0  0  0  0  0  0
    7.9909   -4.6751   -0.6086 C   0  0  0  0  0  0  0  0  0  0  0  0
    2.4127    3.0836    1.6827 C   0  0  0  0  0  0  0  0  0  0  0  0
    3.1827    4.1077    0.8227 C   0  0  0  0  0  0  0  0  0  0  0  0
    2.1192    5.1631    0.4463 C   0  0  0  0  0  0  0  0  0  0  0  0
    2.6206    6.0689   -0.5328 N   0  0  0  0  0  0  0  0  0  0  0  0
    3.7570    6.2201   -1.0280 C   0  0  0  0  0  0  0  0  0  0  0  0
    3.7245    7.3200   -2.0238 N   0  0  0  0  0  0  0  0  0  0  0  0
    5.0031    5.6150   -0.8617 N   0  0  0  0  0  0  0  0  0  0  0  0
   -1.1614   -1.3353    1.2715 C   0  0  0  0  0  0  0  0  0  0  0  0
   -2.4667   -2.0782    1.5695 C   0  0  0  0  0  0  0  0  0  0  0  0
   -2.8411   -3.0564    0.6766 C   0  0  0  0  0  0  0  0  0  0  0  0
   -4.0702   -3.6329    0.9248 C   0  0  0  0  0  0  0  0  0  0  0  0
   -4.8473   -3.2730    1.9473 C   0  0  0  0  0  0  0  0  0  0  0  0
   -4.5125   -2.3413    2.8209 C   0  0  0  0  0  0  0  0  0  0  0  0
   -3.2438   -1.6719    2.6451 C   0  0  0  0  0  0  0  0  0  0  0  0
   -5.5224    1.9241    0.1209 C   0  0  0  0  0  0  0  0  0  0  0  0
   -6.8625    1.6075   -0.3974 C   0  0  0  0  0  0  0  0  0  0  0  0
   -7.2361    1.0054   -1.5503 C   0  0  0  0  0  0  0  0  0  0  0  0
   -8.5190    0.7765   -1.4706 N   0  0  0  0  0  0  0  0  0  0  0  0
   -9.0733    1.1986   -0.3029 C   0  0  0  0  0  0  0  0  0  0  0  0
   -7.9892    1.7337    0.3657 N   0  0  0  0  0  0  0  0  0  0  0  0
   -6.0865   -2.5638   -3.6101 H   0  0  0  0  0  0  0  0  0  0  0  0
   -6.7589   -4.2096   -3.0199 H   0  0  0  0  0  0  0  0  0  0  0  0
   -7.3354   -2.6254   -2.3274 H   0  0  0  0  0  0  0  0  0  0  0  0
   -5.7478   -1.5011   -2.3560 H   0  0  0  0  0  0  0  0  0  0  0  0
   -4.1120   -2.0869   -1.8655 H   0  0  0  0  0  0  0  0  0  0  0  0
   -4.2746    0.2500   -2.4609 H   0  0  0  0  0  0  0  0  0  0  0  0
   -4.2256    2.4307   -1.5818 H   0  0  0  0  0  0  0  0  0  0  0  0
   -2.6131   -0.4461   -0.6419 H   0  0  0  0  0  0  0  0  0  0  0  0
   -1.9659    0.5091    2.0739 H   0  0  0  0  0  0  0  0  0  0  0  0
    1.0616    0.8324    2.2987 H   0  0  0  0  0  0  0  0  0  0  0  0
    1.0691    2.7790   -0.0598 H   0  0  0  0  0  0  0  0  0  0  0  0
    2.4153   -0.2989    1.2694 H   0  0  0  0  0  0  0  0  0  0  0  0
    4.0437   -0.3270   -1.2538 H   0  0  0  0  0  0  0  0  0  0  0  0
    1.3609   -2.7118   -0.6453 H   0  0  0  0  0  0  0  0  0  0  0  0
    1.9952   -2.5174    1.0998 H   0  0  0  0  0  0  0  0  0  0  0  0
    5.0796   -1.0908    1.5889 H   0  0  0  0  0  0  0  0  0  0  0  0
    5.6409    0.2936    0.5638 H   0  0  0  0  0  0  0  0  0  0  0  0
    7.1096   -0.2732   -1.6511 H   0  0  0  0  0  0  0  0  0  0  0  0
    8.5121   -2.2974   -2.2450 H   0  0  0  0  0  0  0  0  0  0  0  0
    5.2246   -3.4750    1.7571 H   0  0  0  0  0  0  0  0  0  0  0  0
    6.1361   -5.8431    1.9492 H   0  0  0  0  0  0  0  0  0  0  0  0
    7.9031   -6.5092    0.3857 H   0  0  0  0  0  0  0  0  0  0  0  0
    8.7636   -4.9290   -1.3167 H   0  0  0  0  0  0  0  0  0  0  0  0
    3.0778    2.4879    2.2778 H   0  0  0  0  0  0  0  0  0  0  0  0
    1.7393    3.6724    2.3241 H   0  0  0  0  0  0  0  0  0  0  0  0
    3.4864    3.6415   -0.0985 H   0  0  0  0  0  0  0  0  0  0  0  0
    3.9327    4.5135    1.5012 H   0  0  0  0  0  0  0  0  0  0  0  0
    1.1379    4.7912    0.3315 H   0  0  0  0  0  0  0  0  0  0  0  0
    2.0934    5.8656    1.3883 H   0  0  0  0  0  0  0  0  0  0  0  0
    3.2588    8.2176   -1.7558 H   0  0  0  0  0  0  0  0  0  0  0  0
    4.1865    7.1174   -2.9048 H   0  0  0  0  0  0  0  0  0  0  0  0
    5.2601    4.7337   -0.3956 H   0  0  0  0  0  0  0  0  0  0  0  0
    5.8527    6.1240   -1.2937 H   0  0  0  0  0  0  0  0  0  0  0  0
   -0.5518   -1.4784    2.1634 H   0  0  0  0  0  0  0  0  0  0  0  0
   -0.6999   -1.7833    0.3275 H   0  0  0  0  0  0  0  0  0  0  0  0
   -2.2243   -3.3538   -0.1758 H   0  0  0  0  0  0  0  0  0  0  0  0
   -4.4088   -4.4175    0.2140 H   0  0  0  0  0  0  0  0  0  0  0  0
   -5.7995   -3.7767    2.0434 H   0  0  0  0  0  0  0  0  0  0  0  0
   -5.0459   -1.9448    3.6640 H   0  0  0  0  0  0  0  0  0  0  0  0
   -2.9416   -0.9225    3.3683 H   0  0  0  0  0  0  0  0  0  0  0  0
   -5.3383    1.6598    1.1502 H   0  0  0  0  0  0  0  0  0  0  0  0
   -5.5147    3.1198    0.2187 H   0  0  0  0  0  0  0  0  0  0  0  0
   -6.6453    0.7661   -2.4401 H   0  0  0  0  0  0  0  0  0  0  0  0
  -10.0711    1.1214    0.0977 H   0  0  0  0  0  0  0  0  0  0  0  0
   -7.9755    2.1529    1.3595 H   0  0  0  0  0  0  0  0  0  0  0  0
  1  2  1  0
  2  3  1  0
  3  4  1  0
  4  5  2  0
  4  6  1  0
  6  7  1  0
  7  8  1  0
  8  9  2  0
  8 10  1  0
 10 11  1  0
 11 12  1  0
 12 13  2  0
 12 14  1  0
 14 15  1  0
 15 16  1  0
 16 17  2  0
 16 18  1  0
 18 19  1  0
 19 20  1  0
 20 21  2  0
 20 22  1  0
 19 23  1  0
 23 24  1  0
 24 25  2  0
 25 26  1  0
 26 27  1  0
 27 28  2  0
 28 29  1  0
 29 30  2  0
 30 31  1  0
 31 32  2  0
 15 33  1  0
 33 34  1  0
 34 35  1  0
 35 36  1  0
 36 37  2  3
 37 38  1  0
 37 39  1  0
 11 40  1  0
 40 41  1  0
 41 42  2  0
 42 43  1  0
 43 44  2  0
 44 45  1  0
 45 46  2  0
  7 47  1  0
 47 48  1  0
 48 49  2  0
 49 50  1  0
 50 51  2  0
 51 52  1  0
 28 24  1  0
 46 41  1  0
 52 48  1  0
 32 27  1  0
  1 53  1  0
  1 54  1  0
  1 55  1  0
  3 56  1  0
  3 57  1  0
  6 58  1  0
  7 59  1  6
 10 60  1  0
 11 61  1  1
 14 62  1  0
 15 63  1  6
 18 64  1  0
 19 65  1  6
 22 66  1  0
 22 67  1  0
 23 68  1  0
 23 69  1  0
 25 70  1  0
 26 71  1  0
 29 72  1  0
 30 73  1  0
 31 74  1  0
 32 75  1  0
 33 76  1  0
 33 77  1  0
 34 78  1  0
 34 79  1  0
 35 80  1  0
 35 81  1  0
 38 82  1  0
 38 83  1  0
 39 84  1  0
 39 85  1  0
 40 86  1  0
 40 87  1  0
 42 88  1  0
 43 89  1  0
 44 90  1  0
 45 91  1  0
 46 92  1  0
 47 93  1  0
 47 94  1  0
 49 95  1  0
 51 96  1  0
 52 97  1  0
M  END
>  <Ligand ID>  (1) 
LIG0004895

>  <Ligand>  (1) 
CHEMBL315258

>  <SMILES>  (1) 
COCC(=O)N[C@H](C(=O)N[C@H](C(=O)N[C@H](C(=O)N[C@H](C(=O)N)Cc1c[nH]c2c1cccc2)CCCN=C(N)N)Cc1ccccc1)Cc1cnc[nH]1

>  <CID>  (1) 
44322994.0

>  <ChEMBL ID>  (1) 
nan

>  <InChiKey>  (1) 
SOPYHFQNBMKJEU-DZUOILHNSA-N

>  <InChi>  (1) 
InChI=1S/C35H45N11O6/c1-52-19-30(47)43-29(16-23-18-39-20-42-23)34(51)46-28(14-21-8-3-2-4-9-21)33(50)44-26(12-7-13-40-35(37)38)32(49)45-27(31(36)48)15-22-17-41-25-11-6-5-10-24(22)25/h2-6,8-11,17-18,20,26-29,41H,7,12-16,19H2,1H3,(H2,36,48)(H,39,42)(H,43,47)(H,44,50)(H,45,49)(H,46,51)(H4,37,38,40)/t26-,27-,28-,29-/m0/s1

>  <IUPAC Name>  (1) 
(2S)-N-[(2S)-1-amino-3-(1H-indol-3-yl)-1-oxopropan-2-yl]-5-(diaminomethylideneamino)-2-[[(2S)-2-[[(2S)-3-(1H-imidazol-5-yl)-2-[(2-methoxyacetyl)amino]propanoyl]amino]-3-phenylpropanoyl]amino]pentanamide

$$$$
