
     RDKit          3D

127129  0  0  0  0  0  0  0  0999 V2000
   -7.3758   -2.2253    2.9479 C   0  0  0  0  0  0  0  0  0  0  0  0
   -6.0455   -1.8231    2.3285 C   0  0  0  0  0  0  0  0  0  0  0  0
   -6.1767   -0.6806    1.3938 C   0  0  1  0  0  0  0  0  0  0  0  0
   -4.8797   -0.2112    0.7423 C   0  0  2  0  0  0  0  0  0  0  0  0
   -5.2957    0.9072   -0.1282 N   0  0  0  0  0  0  0  0  0  0  0  0
   -4.4935    2.0508   -0.0959 C   0  0  0  0  0  0  0  0  0  0  0  0
   -3.4379    1.9219    0.6271 O   0  0  0  0  0  0  0  0  0  0  0  0
   -4.6232    3.3730   -0.7304 C   0  0  2  0  0  0  0  0  0  0  0  0
   -4.8266    3.4936   -2.1711 C   0  0  0  0  0  0  0  0  0  0  0  0
   -6.0100    2.8885   -2.7871 C   0  0  0  0  0  0  0  0  0  0  0  0
   -6.0482    1.6597   -3.4072 C   0  0  0  0  0  0  0  0  0  0  0  0
   -7.2080    1.1802   -3.9650 C   0  0  0  0  0  0  0  0  0  0  0  0
   -8.3896    1.8976   -3.9349 C   0  0  0  0  0  0  0  0  0  0  0  0
   -8.3544    3.1565   -3.2979 C   0  0  0  0  0  0  0  0  0  0  0  0
   -7.1948    3.6308   -2.7432 C   0  0  0  0  0  0  0  0  0  0  0  0
   -3.3224    4.0085   -0.3252 N   0  0  0  0  0  0  0  0  0  0  0  0
   -3.1628    4.5420    0.9878 C   0  0  0  0  0  0  0  0  0  0  0  0
   -4.1793    4.4586    1.7024 O   0  0  0  0  0  0  0  0  0  0  0  0
   -1.8743    5.1394    1.4560 C   0  0  1  0  0  0  0  0  0  0  0  0
   -1.7213    5.0352    2.8691 N   0  0  0  0  0  0  0  0  0  0  0  0
   -0.6938    4.7998    0.6237 C   0  0  0  0  0  0  0  0  0  0  0  0
   -0.4950    3.0740    0.2181 S   0  0  0  0  0  0  0  0  0  0  0  0
   -0.1946    1.7609    1.7910 S   0  0  0  0  0  0  0  0  0  0  0  0
    1.5899    1.4606    2.1786 C   0  0  0  0  0  0  0  0  0  0  0  0
    2.1348    0.8098    0.9620 C   0  0  2  0  0  0  0  0  0  0  0  0
    1.3452   -0.3095    0.5562 N   0  0  0  0  0  0  0  0  0  0  0  0
    1.5029   -1.3474   -0.3616 C   0  0  0  0  0  0  0  0  0  0  0  0
    2.6260   -1.4477   -0.9145 O   0  0  0  0  0  0  0  0  0  0  0  0
    0.5231   -2.3586   -0.7671 C   0  0  1  0  0  0  0  0  0  0  0  0
   -0.8210   -2.2323   -0.3023 N   0  0  0  0  0  0  0  0  0  0  0  0
   -1.6055   -3.4374   -0.1580 C   0  0  0  0  0  0  0  0  0  0  0  0
   -1.0052   -4.4772   -0.4769 O   0  0  0  0  0  0  0  0  0  0  0  0
   -2.9846   -3.5225    0.3041 C   0  0  1  0  0  0  0  0  0  0  0  0
   -3.5523   -2.3046    0.7505 N   0  0  0  0  0  0  0  0  0  0  0  0
   -4.3190   -1.3612   -0.0060 C   0  0  0  0  0  0  0  0  0  0  0  0
   -4.4327   -1.5800   -1.2009 O   0  0  0  0  0  0  0  0  0  0  0  0
   -3.7323   -4.2497   -0.7951 C   0  0  0  0  0  0  0  0  0  0  0  0
   -5.1613   -4.5393   -0.5695 C   0  0  0  0  0  0  0  0  0  0  0  0
   -5.4543   -5.4476    0.5894 C   0  0  0  0  0  0  0  0  0  0  0  0
   -4.5913   -5.8686    1.3811 O   0  0  0  0  0  0  0  0  0  0  0  0
   -6.8440   -5.8109    0.7228 N   0  0  0  0  0  0  0  0  0  0  0  0
    0.5932   -2.6273   -2.2756 C   0  0  0  0  0  0  0  0  0  0  0  0
    0.3267   -1.4711   -3.1008 C   0  0  0  0  0  0  0  0  0  0  0  0
    0.0203   -0.3241   -2.5941 O   0  0  0  0  0  0  0  0  0  0  0  0
    0.3746   -1.4774   -4.5199 N   0  0  0  0  0  0  0  0  0  0  0  0
    3.5702    0.6937    0.7895 C   0  0  0  0  0  0  0  0  0  0  0  0
    3.9847    0.1212   -0.2616 O   0  0  0  0  0  0  0  0  0  0  0  0
    4.6271    1.1406    1.6564 N   0  0  0  0  0  0  0  0  0  0  0  0
    4.4266    1.7935    2.9644 C   0  0  0  0  0  0  0  0  0  0  0  0
    5.7831    1.6869    3.6777 C   0  0  0  0  0  0  0  0  0  0  0  0
    6.6023    0.7857    2.8128 C   0  0  0  0  0  0  0  0  0  0  0  0
    6.0542    1.0940    1.4253 C   0  0  1  0  0  0  0  0  0  0  0  0
    6.5671    0.1435    0.4459 C   0  0  0  0  0  0  0  0  0  0  0  0
    6.0393   -0.9038    0.0168 O   0  0  0  0  0  0  0  0  0  0  0  0
    7.8656    0.4343   -0.1248 N   0  0  0  0  0  0  0  0  0  0  0  0
    8.4574   -0.4361   -1.1206 C   0  0  2  0  0  0  0  0  0  0  0  0
    9.7087   -1.0753   -0.7294 C   0  0  0  0  0  0  0  0  0  0  0  0
   10.3796   -1.8637   -1.4684 O   0  0  0  0  0  0  0  0  0  0  0  0
   10.2050   -0.7810    0.5904 N   0  0  0  0  0  0  0  0  0  0  0  0
   11.4548   -1.3728    1.0796 C   0  0  0  0  0  0  0  0  0  0  0  0
   12.6002   -1.0028    0.2431 C   0  0  0  0  0  0  0  0  0  0  0  0
   13.7346   -1.4253    0.5464 O   0  0  0  0  0  0  0  0  0  0  0  0
   12.3598   -0.1702   -0.8908 N   0  0  0  0  0  0  0  0  0  0  0  0
    8.5826    0.2238   -2.4613 C   0  0  0  0  0  0  0  0  0  0  0  0
    9.1816   -0.7214   -3.3794 N   0  0  0  0  0  0  0  0  0  0  0  0
   -7.2062   -0.8887    0.2818 C   0  0  0  0  0  0  0  0  0  0  0  0
   -7.9240   -2.9802    2.3770 H   0  0  0  0  0  0  0  0  0  0  0  0
   -7.1361   -2.6545    3.9445 H   0  0  0  0  0  0  0  0  0  0  0  0
   -8.0183   -1.3365    3.1553 H   0  0  0  0  0  0  0  0  0  0  0  0
   -5.3544   -1.5772    3.1529 H   0  0  0  0  0  0  0  0  0  0  0  0
   -5.6561   -2.7012    1.7704 H   0  0  0  0  0  0  0  0  0  0  0  0
   -6.5730    0.2234    1.9573 H   0  0  0  0  0  0  0  0  0  0  0  0
   -4.1483    0.1434    1.5172 H   0  0  0  0  0  0  0  0  0  0  0  0
   -6.1092    0.8921   -0.7232 H   0  0  0  0  0  0  0  0  0  0  0  0
   -5.4448    3.9019   -0.1668 H   0  0  0  0  0  0  0  0  0  0  0  0
   -4.6817    4.5538   -2.5332 H   0  0  0  0  0  0  0  0  0  0  0  0
   -3.9478    2.9485   -2.6887 H   0  0  0  0  0  0  0  0  0  0  0  0
   -5.1148    1.0930   -3.4284 H   0  0  0  0  0  0  0  0  0  0  0  0
   -7.2128    0.2002   -4.4574 H   0  0  0  0  0  0  0  0  0  0  0  0
   -9.3207    1.5861   -4.3463 H   0  0  0  0  0  0  0  0  0  0  0  0
   -9.2855    3.7025   -3.2768 H   0  0  0  0  0  0  0  0  0  0  0  0
   -7.2212    4.6153   -2.2545 H   0  0  0  0  0  0  0  0  0  0  0  0
   -2.5326    4.0841   -0.9415 H   0  0  0  0  0  0  0  0  0  0  0  0
   -2.0560    6.2650    1.2702 H   0  0  0  0  0  0  0  0  0  0  0  0
   -0.7784    5.2373    3.1940 H   0  0  0  0  0  0  0  0  0  0  0  0
   -2.4291    5.5745    3.4112 H   0  0  0  0  0  0  0  0  0  0  0  0
    0.2160    5.0980    1.2320 H   0  0  0  0  0  0  0  0  0  0  0  0
   -0.6465    5.4691   -0.2551 H   0  0  0  0  0  0  0  0  0  0  0  0
    2.0599    2.4006    2.4344 H   0  0  0  0  0  0  0  0  0  0  0  0
    1.5438    0.6998    2.9880 H   0  0  0  0  0  0  0  0  0  0  0  0
    1.9341    1.6426    0.1158 H   0  0  0  0  0  0  0  0  0  0  0  0
    0.3953   -0.3821    1.0673 H   0  0  0  0  0  0  0  0  0  0  0  0
    0.8812   -3.3591   -0.3598 H   0  0  0  0  0  0  0  0  0  0  0  0
   -1.3304   -1.3866   -0.0469 H   0  0  0  0  0  0  0  0  0  0  0  0
   -3.0548   -4.2408    1.1656 H   0  0  0  0  0  0  0  0  0  0  0  0
   -3.3978   -2.0185    1.7365 H   0  0  0  0  0  0  0  0  0  0  0  0
   -3.2181   -5.2661   -0.8188 H   0  0  0  0  0  0  0  0  0  0  0  0
   -3.5008   -3.8621   -1.8131 H   0  0  0  0  0  0  0  0  0  0  0  0
   -5.8221   -3.6583   -0.3755 H   0  0  0  0  0  0  0  0  0  0  0  0
   -5.6200   -5.0517   -1.4524 H   0  0  0  0  0  0  0  0  0  0  0  0
   -7.2081   -6.1308    1.6725 H   0  0  0  0  0  0  0  0  0  0  0  0
   -7.5042   -5.7630   -0.1089 H   0  0  0  0  0  0  0  0  0  0  0  0
   -0.0847   -3.4904   -2.4643 H   0  0  0  0  0  0  0  0  0  0  0  0
    1.6347   -3.0106   -2.5194 H   0  0  0  0  0  0  0  0  0  0  0  0
    1.0508   -2.1161   -5.0312 H   0  0  0  0  0  0  0  0  0  0  0  0
   -0.2589   -0.8551   -5.1148 H   0  0  0  0  0  0  0  0  0  0  0  0
    4.2482    2.8677    2.8488 H   0  0  0  0  0  0  0  0  0  0  0  0
    3.7345    1.2416    3.6056 H   0  0  0  0  0  0  0  0  0  0  0  0
    5.6712    1.2163    4.6883 H   0  0  0  0  0  0  0  0  0  0  0  0
    6.2385    2.6818    3.8471 H   0  0  0  0  0  0  0  0  0  0  0  0
    7.6948    1.0827    2.8692 H   0  0  0  0  0  0  0  0  0  0  0  0
    6.4886   -0.2632    3.1000 H   0  0  0  0  0  0  0  0  0  0  0  0
    6.4505    2.1280    1.2006 H   0  0  0  0  0  0  0  0  0  0  0  0
    8.4032    1.2844    0.1828 H   0  0  0  0  0  0  0  0  0  0  0  0
    7.7222   -1.2805   -1.2753 H   0  0  0  0  0  0  0  0  0  0  0  0
    9.6881   -0.1553    1.2220 H   0  0  0  0  0  0  0  0  0  0  0  0
   11.2976   -2.4862    1.0172 H   0  0  0  0  0  0  0  0  0  0  0  0
   11.6042   -1.1334    2.1514 H   0  0  0  0  0  0  0  0  0  0  0  0
   12.9869   -0.3302   -1.7141 H   0  0  0  0  0  0  0  0  0  0  0  0
   11.6254    0.5413   -0.9193 H   0  0  0  0  0  0  0  0  0  0  0  0
    7.5839    0.4853   -2.8930 H   0  0  0  0  0  0  0  0  0  0  0  0
    9.2646    1.1034   -2.4721 H   0  0  0  0  0  0  0  0  0  0  0  0
    8.8729   -1.6834   -3.2426 H   0  0  0  0  0  0  0  0  0  0  0  0
   10.2089   -0.6340   -3.4898 H   0  0  0  0  0  0  0  0  0  0  0  0
   -6.6814   -1.1722   -0.6552 H   0  0  0  0  0  0  0  0  0  0  0  0
   -7.7727    0.0631    0.0857 H   0  0  0  0  0  0  0  0  0  0  0  0
   -7.9630   -1.6376    0.5343 H   0  0  0  0  0  0  0  0  0  0  0  0
  1  2  1  0
  2  3  1  0
  3  4  1  0
  4  5  1  0
  5  6  1  0
  6  7  2  0
  6  8  1  0
  8  9  1  0
  9 10  1  0
 10 11  2  0
 11 12  1  0
 12 13  2  0
 13 14  1  0
 14 15  2  0
  8 16  1  0
 16 17  1  0
 17 18  2  0
 17 19  1  0
 19 20  1  0
 19 21  1  0
 21 22  1  0
 22 23  1  0
 23 24  1  0
 24 25  1  0
 25 26  1  0
 26 27  1  0
 27 28  2  0
 27 29  1  0
 29 30  1  0
 30 31  1  0
 31 32  2  0
 31 33  1  0
 33 34  1  0
 34 35  1  0
 35 36  2  0
 33 37  1  0
 37 38  1  0
 38 39  1  0
 39 40  2  0
 39 41  1  0
 29 42  1  0
 42 43  1  0
 43 44  2  0
 43 45  1  0
 25 46  1  0
 46 47  2  0
 46 48  1  0
 48 49  1  0
 49 50  1  0
 50 51  1  0
 51 52  1  0
 52 53  1  0
 53 54  2  0
 53 55  1  0
 55 56  1  0
 56 57  1  0
 57 58  2  0
 57 59  1  0
 59 60  1  0
 60 61  1  0
 61 62  2  0
 61 63  1  0
 56 64  1  0
 64 65  1  0
  3 66  1  0
 35  4  1  0
 52 48  1  0
 15 10  1  0
  1 67  1  0
  1 68  1  0
  1 69  1  0
  2 70  1  0
  2 71  1  0
  3 72  1  1
  4 73  1  1
  5 74  1  0
  8 75  1  1
  9 76  1  0
  9 77  1  0
 11 78  1  0
 12 79  1  0
 13 80  1  0
 14 81  1  0
 15 82  1  0
 16 83  1  0
 19 84  1  1
 20 85  1  0
 20 86  1  0
 21 87  1  0
 21 88  1  0
 24 89  1  0
 24 90  1  0
 25 91  1  6
 26 92  1  0
 29 93  1  1
 30 94  1  0
 33 95  1  1
 34 96  1  0
 37 97  1  0
 37 98  1  0
 38 99  1  0
 38100  1  0
 41101  1  0
 41102  1  0
 42103  1  0
 42104  1  0
 45105  1  0
 45106  1  0
 49107  1  0
 49108  1  0
 50109  1  0
 50110  1  0
 51111  1  0
 51112  1  0
 52113  1  6
 55114  1  0
 56115  1  6
 59116  1  0
 60117  1  0
 60118  1  0
 63119  1  0
 63120  1  0
 64121  1  0
 64122  1  0
 65123  1  0
 65124  1  0
 66125  1  0
 66126  1  0
 66127  1  0
M  END
>  <Ligand ID>  (1) 
LIG0001605

>  <Ligand>  (1) 
CHEMBL1817703

>  <SMILES>  (1) 
CC[C@@H]([C@@H]1NC(=O)[C@H](Cc2ccccc2)NC(=O)[C@@H](N)CSSC[C@H](NC(=O)[C@@H](NC(=O)[C@@H](NC1=O)CCC(=O)N)CC(=O)N)C(=O)N1CCC[C@H]1C(=O)N[C@H](C(=O)NCC(=O)N)CN)C

>  <CID>  (1) 
53362428.0

>  <ChEMBL ID>  (1) 
nan

>  <InChiKey>  (1) 
JTTALVVKNSXMTK-LWHYKBHJSA-N

>  <InChi>  (1) 
InChI=1S/C40H61N13O11S2/c1-3-20(2)32-39(63)47-23(11-12-29(43)54)35(59)49-25(15-30(44)55)36(60)51-27(40(64)53-13-7-10-28(53)38(62)50-26(16-41)34(58)46-17-31(45)56)19-66-65-18-22(42)33(57)48-24(37(61)52-32)14-21-8-5-4-6-9-21/h4-6,8-9,20,22-28,32H,3,7,10-19,41-42H2,1-2H3,(H2,43,54)(H2,44,55)(H2,45,56)(H,46,58)(H,47,63)(H,48,57)(H,49,59)(H,50,62)(H,51,60)(H,52,61)/t20-,22-,23-,24-,25-,26-,27-,28-,32-/m0/s1

>  <IUPAC Name>  (1) 
(2S)-N-[(2S)-3-amino-1-[(2-amino-2-oxoethyl)amino]-1-oxopropan-2-yl]-1-[(4R,7S,10S,13S,16S,19R)-19-amino-7-(2-amino-2-oxoethyl)-10-(3-amino-3-oxopropyl)-16-benzyl-13-[(2S)-butan-2-yl]-6,9,12,15,18-pentaoxo-1,2-dithia-5,8,11,14,17-pentazacycloicosane-4-carbonyl]pyrrolidine-2-carboxamide

$$$$
