
     RDKit          3D

 33 33  0  0  0  0  0  0  0  0999 V2000
    6.3415    1.1597    0.7934 C   0  0  0  0  0  0  0  0  0  0  0  0
    4.8611    0.9414    0.8022 C   0  0  0  0  0  0  0  0  0  0  0  0
    4.2712    0.2034   -0.1265 C   0  0  0  0  0  0  0  0  0  0  0  0
    2.8458    0.0232   -0.0751 C   0  0  0  0  0  0  0  0  0  0  0  0
    1.6391   -0.1181   -0.0151 C   0  0  0  0  0  0  0  0  0  0  0  0
    0.2049   -0.2825    0.0811 C   0  0  0  0  0  0  0  0  0  0  0  0
   -0.3880   -1.5225    0.0914 C   0  0  0  0  0  0  0  0  0  0  0  0
   -1.7806   -1.6272    0.1863 C   0  0  0  0  0  0  0  0  0  0  0  0
   -2.5677   -0.4957    0.2703 C   0  0  0  0  0  0  0  0  0  0  0  0
   -1.9360    0.7388    0.2573 C   0  0  0  0  0  0  0  0  0  0  0  0
   -0.5612    0.8654    0.1640 C   0  0  0  0  0  0  0  0  0  0  0  0
   -2.6546    1.9004    0.3380 F   0  0  0  0  0  0  0  0  0  0  0  0
   -4.0307   -0.5458    0.3727 C   0  0  0  0  0  0  0  0  0  0  0  0
   -4.6098   -0.1794   -0.9754 C   0  0  0  0  0  0  0  0  0  0  0  0
   -6.0986   -0.2364   -0.8436 C   0  0  0  0  0  0  0  0  0  0  0  0
   -6.7398   -1.3191   -0.8527 O   0  0  0  0  0  0  0  0  0  0  0  0
   -6.8674    0.9259   -0.7013 O   0  0  0  0  0  0  0  0  0  0  0  0
    5.0953   -0.4297   -1.2118 C   0  0  0  0  0  0  0  0  0  0  0  0
    6.5784    1.8670    1.6161 H   0  0  0  0  0  0  0  0  0  0  0  0
    6.6454    1.6821   -0.1400 H   0  0  0  0  0  0  0  0  0  0  0  0
    6.8888    0.1944    0.9147 H   0  0  0  0  0  0  0  0  0  0  0  0
    4.2221    1.3853    1.5769 H   0  0  0  0  0  0  0  0  0  0  0  0
    0.2402   -2.4045    0.0248 H   0  0  0  0  0  0  0  0  0  0  0  0
   -2.2396   -2.5934    0.1939 H   0  0  0  0  0  0  0  0  0  0  0  0
   -0.0826    1.8349    0.1542 H   0  0  0  0  0  0  0  0  0  0  0  0
   -4.4023   -1.5154    0.7536 H   0  0  0  0  0  0  0  0  0  0  0  0
   -4.3925    0.2526    1.0711 H   0  0  0  0  0  0  0  0  0  0  0  0
   -4.3525    0.8846   -1.1633 H   0  0  0  0  0  0  0  0  0  0  0  0
   -4.2495   -0.8475   -1.7847 H   0  0  0  0  0  0  0  0  0  0  0  0
   -7.6455    0.9568   -0.0262 H   0  0  0  0  0  0  0  0  0  0  0  0
    6.1213   -0.5675   -0.8212 H   0  0  0  0  0  0  0  0  0  0  0  0
    4.5925   -1.3808   -1.4825 H   0  0  0  0  0  0  0  0  0  0  0  0
    5.0514    0.2492   -2.0867 H   0  0  0  0  0  0  0  0  0  0  0  0
  1  2  1  0
  2  3  2  0
  3  4  1  0
  4  5  3  0
  5  6  1  0
  6  7  2  0
  7  8  1  0
  8  9  2  0
  9 10  1  0
 10 11  2  0
 10 12  1  0
  9 13  1  0
 13 14  1  0
 14 15  1  0
 15 16  2  0
 15 17  1  0
  3 18  1  0
 11  6  1  0
  1 19  1  0
  1 20  1  0
  1 21  1  0
  2 22  1  0
  7 23  1  0
  8 24  1  0
 11 25  1  0
 13 26  1  0
 13 27  1  0
 14 28  1  0
 14 29  1  0
 17 30  1  0
 18 31  1  0
 18 32  1  0
 18 33  1  0
M  END
>  <Ligand ID>  (1) 
LIG0005582

>  <Ligand>  (1) 
CHEMBL3785764

>  <SMILES>  (1) 
C/C=C(/C#Cc1ccc(c(c1)F)CCC(=O)O)\C

>  <CID>  (1) 
66562289.0

>  <ChEMBL ID>  (1) 
nan

>  <InChiKey>  (1) 
ZHOWKHLSVSSENE-QDEBKDIKSA-N

>  <InChi>  (1) 
InChI=1S/C15H15FO2/c1-3-11(2)4-5-12-6-7-13(14(16)10-12)8-9-15(17)18/h3,6-7,10H,8-9H2,1-2H3,(H,17,18)/b11-3+

>  <IUPAC Name>  (1) 
3-[2-fluoro-4-[(E)-3-methylpent-3-en-1-ynyl]phenyl]propanoic acid

$$$$
