
     RDKit          3D

 35 35  0  0  0  0  0  0  0  0999 V2000
    2.7461   -3.3812   -0.3595 C   0  0  0  0  0  0  0  0  0  0  0  0
    2.7238   -1.9127   -0.0648 C   0  0  0  0  0  0  0  0  0  0  0  0
    2.1680   -0.9300   -1.5023 S   0  0  0  0  0  0  0  0  0  0  0  0
    2.2106    0.7885   -0.9500 C   0  0  0  0  0  0  0  0  0  0  0  0
    3.3549    1.5440   -1.1103 C   0  0  0  0  0  0  0  0  0  0  0  0
    3.3286    2.8586   -0.6666 C   0  0  0  0  0  0  0  0  0  0  0  0
    2.2133    3.4215   -0.0812 C   0  0  0  0  0  0  0  0  0  0  0  0
    1.0953    2.6199    0.0544 C   0  0  0  0  0  0  0  0  0  0  0  0
    1.0591    1.3081   -0.3659 C   0  0  0  0  0  0  0  0  0  0  0  0
   -0.1238    0.5112   -0.2054 N   0  0  0  0  0  0  0  0  0  0  0  0
   -1.3082    1.0877    0.4092 C   0  0  0  0  0  0  0  0  0  0  0  0
   -2.3823    0.0489    0.4510 C   0  0  0  0  0  0  0  0  0  0  0  0
   -2.3254   -1.1543    0.0335 N   0  0  0  0  0  0  0  0  0  0  0  0
   -3.5571   -1.8542    0.2436 C   0  0  0  0  0  0  0  0  0  0  0  0
   -4.5321   -0.7086    0.4187 C   0  0  0  0  0  0  0  0  0  0  0  0
   -3.6728    0.3071    0.9984 N   0  0  0  0  0  0  0  0  0  0  0  0
    0.0000    0.0000    0.0000 Cl  0  0  0  0  0  0  0  0  0  0  0  0
    3.7864   -3.7569   -0.4876 H   0  0  0  0  0  0  0  0  0  0  0  0
    2.2288   -3.5782   -1.3408 H   0  0  0  0  0  0  0  0  0  0  0  0
    2.2412   -3.9692    0.4357 H   0  0  0  0  0  0  0  0  0  0  0  0
    2.1021   -1.6588    0.8231 H   0  0  0  0  0  0  0  0  0  0  0  0
    3.7589   -1.5654    0.1833 H   0  0  0  0  0  0  0  0  0  0  0  0
    4.2376    1.1095   -1.5700 H   0  0  0  0  0  0  0  0  0  0  0  0
    4.2056    3.4973   -0.7697 H   0  0  0  0  0  0  0  0  0  0  0  0
    2.1780    4.4487    0.2708 H   0  0  0  0  0  0  0  0  0  0  0  0
    0.1964    3.0236    0.5098 H   0  0  0  0  0  0  0  0  0  0  0  0
   -0.0840   -0.4752   -0.5456 H   0  0  0  0  0  0  0  0  0  0  0  0
   -1.6569    1.9090   -0.2223 H   0  0  0  0  0  0  0  0  0  0  0  0
   -1.0037    1.3965    1.4357 H   0  0  0  0  0  0  0  0  0  0  0  0
   -3.8268   -2.5159   -0.5985 H   0  0  0  0  0  0  0  0  0  0  0  0
   -3.4773   -2.3880    1.2081 H   0  0  0  0  0  0  0  0  0  0  0  0
   -4.9071   -0.4104   -0.5766 H   0  0  0  0  0  0  0  0  0  0  0  0
   -5.3480   -1.0063    1.1067 H   0  0  0  0  0  0  0  0  0  0  0  0
   -3.6104    0.1121    2.0297 H   0  0  0  0  0  0  0  0  0  0  0  0
   -4.0188    1.2729    0.8051 H   0  0  0  0  0  0  0  0  0  0  0  0
  1  2  1  0
  2  3  1  0
  3  4  1  0
  4  5  2  0
  5  6  1  0
  6  7  2  0
  7  8  1  0
  8  9  2  0
  9 10  1  0
 10 11  1  0
 11 12  1  0
 12 13  2  0
 13 14  1  0
 14 15  1  0
 15 16  1  0
  9  4  1  0
 16 12  1  0
  1 18  1  0
  1 19  1  0
  1 20  1  0
  2 21  1  0
  2 22  1  0
  5 23  1  0
  6 24  1  0
  7 25  1  0
  8 26  1  0
 10 27  1  0
 11 28  1  0
 11 29  1  0
 14 30  1  0
 14 31  1  0
 15 32  1  0
 15 33  1  0
 16 34  1  0
 16 35  1  0
M  CHG  2  16   1  17  -1
M  END
>  <Ligand ID>  (1) 
LIG0000989

>  <Ligand>  (1) 
CID 11000183

>  <SMILES>  (1) 
CCSc1ccccc1NCC1=NCC[NH2+]1.[Cl-]

>  <CID>  (1) 
11000183.0

>  <ChEMBL ID>  (1) 
nan

>  <InChiKey>  (1) 
JKURLTYDYMJPLW-UHFFFAOYSA-N

>  <InChi>  (1) 
InChI=1S/C12H17N3S.ClH/c1-2-16-11-6-4-3-5-10(11)15-9-12-13-7-8-14-12;/h3-6,15H,2,7-9H2,1H3,(H,13,14);1H

>  <IUPAC Name>  (1) 
N-(4,5-dihydro-1H-imidazol-1-ium-2-ylmethyl)-2-ethylsulfanylaniline;chloride

$$$$
