
     RDKit          3D

 71 75  0  0  0  0  0  0  0  0999 V2000
    5.7833   -1.5284    3.2787 N   0  0  0  0  0  0  0  0  0  0  0  0
    5.5409   -1.9505    1.9171 C   0  0  0  0  0  0  0  0  0  0  0  0
    4.6265   -2.7778    1.7626 O   0  0  0  0  0  0  0  0  0  0  0  0
    6.3934   -1.3627    0.8843 C   0  0  0  0  0  0  0  0  0  0  0  0
    6.0009   -1.6438   -0.5387 C   0  0  0  0  0  0  0  0  0  0  0  0
    4.6556   -1.1118   -0.9412 C   0  0  0  0  0  0  0  0  0  0  0  0
    3.5753   -1.5953   -0.2252 O   0  0  0  0  0  0  0  0  0  0  0  0
    2.2513   -1.2739   -0.3877 C   0  0  0  0  0  0  0  0  0  0  0  0
    1.7899   -0.4083   -1.3018 N   0  0  0  0  0  0  0  0  0  0  0  0
    0.5001   -0.0834   -1.4729 C   0  0  0  0  0  0  0  0  0  0  0  0
    0.0763    0.8425   -2.4561 N   0  0  0  0  0  0  0  0  0  0  0  0
    0.9719    1.5261   -3.3708 C   0  0  0  0  0  0  0  0  0  0  0  0
    1.9869    2.3630   -2.7066 C   0  0  0  0  0  0  0  0  0  0  0  0
    1.6200    3.6438   -2.3281 C   0  0  0  0  0  0  0  0  0  0  0  0
    2.5216    4.4861   -1.7186 C   0  0  0  0  0  0  0  0  0  0  0  0
    3.8340    4.0918   -1.4566 C   0  0  0  0  0  0  0  0  0  0  0  0
    4.2021    2.8237   -1.8304 C   0  0  0  0  0  0  0  0  0  0  0  0
    3.2769    1.9842   -2.4467 C   0  0  0  0  0  0  0  0  0  0  0  0
    4.8093    5.0067   -0.7942 C   0  0  0  0  0  0  0  0  0  0  0  0
    4.7538    4.7170    0.5663 F   0  0  0  0  0  0  0  0  0  0  0  0
    6.1051    4.7907   -1.2251 F   0  0  0  0  0  0  0  0  0  0  0  0
    4.4163    6.3240   -0.9419 F   0  0  0  0  0  0  0  0  0  0  0  0
   -0.3964   -0.7223   -0.6081 C   0  0  0  0  0  0  0  0  0  0  0  0
    0.0369   -1.6191    0.3460 C   0  0  0  0  0  0  0  0  0  0  0  0
    1.3570   -1.8814    0.4415 N   0  0  0  0  0  0  0  0  0  0  0  0
   -0.8440   -2.2451    1.1941 C   0  0  0  0  0  0  0  0  0  0  0  0
   -2.2002   -2.0055    1.1301 C   0  0  0  0  0  0  0  0  0  0  0  0
   -2.6261   -1.1069    0.1725 C   0  0  0  0  0  0  0  0  0  0  0  0
   -1.7475   -0.4722   -0.6850 C   0  0  0  0  0  0  0  0  0  0  0  0
   -4.0921   -0.8514    0.1064 C   0  0  0  0  0  0  0  0  0  0  0  0
   -4.4951    0.3061    0.9168 C   0  0  0  0  0  0  0  0  0  0  0  0
   -4.1379    0.4530    2.2553 C   0  0  0  0  0  0  0  0  0  0  0  0
   -4.5250    1.5355    3.0132 C   0  0  0  0  0  0  0  0  0  0  0  0
   -5.2946    2.5307    2.4599 C   0  0  0  0  0  0  0  0  0  0  0  0
   -5.6666    2.4245    1.1474 C   0  0  0  0  0  0  0  0  0  0  0  0
   -5.2764    1.3441    0.4041 C   0  0  0  0  0  0  0  0  0  0  0  0
   -5.8120    3.9320    3.3891 Cl  0  0  0  0  0  0  0  0  0  0  0  0
   -4.9241   -2.0131    0.4396 C   0  0  0  0  0  0  0  0  0  0  0  0
   -5.0798   -2.9930   -0.5435 C   0  0  0  0  0  0  0  0  0  0  0  0
   -5.8416   -4.1213   -0.3438 C   0  0  0  0  0  0  0  0  0  0  0  0
   -6.4938   -4.3324    0.8589 C   0  0  0  0  0  0  0  0  0  0  0  0
   -6.3518   -3.3704    1.8491 C   0  0  0  0  0  0  0  0  0  0  0  0
   -5.5743   -2.2345    1.6233 C   0  0  0  0  0  0  0  0  0  0  0  0
   -7.4733   -5.7273    1.1907 Cl  0  0  0  0  0  0  0  0  0  0  0  0
    6.7694   -1.4452    3.6503 H   0  0  0  0  0  0  0  0  0  0  0  0
    5.0073   -1.2953    3.9308 H   0  0  0  0  0  0  0  0  0  0  0  0
    7.4466   -1.7180    1.0750 H   0  0  0  0  0  0  0  0  0  0  0  0
    6.3862   -0.2568    1.0627 H   0  0  0  0  0  0  0  0  0  0  0  0
    6.7584   -1.1794   -1.2123 H   0  0  0  0  0  0  0  0  0  0  0  0
    6.0163   -2.7586   -0.7059 H   0  0  0  0  0  0  0  0  0  0  0  0
    4.7058    0.0048   -0.7527 H   0  0  0  0  0  0  0  0  0  0  0  0
    4.5582   -1.2490   -2.0437 H   0  0  0  0  0  0  0  0  0  0  0  0
   -0.9373    1.0756   -2.5618 H   0  0  0  0  0  0  0  0  0  0  0  0
    0.3815    2.1647   -4.0703 H   0  0  0  0  0  0  0  0  0  0  0  0
    1.4968    0.7481   -4.0054 H   0  0  0  0  0  0  0  0  0  0  0  0
    0.6198    4.0374   -2.4914 H   0  0  0  0  0  0  0  0  0  0  0  0
    2.2542    5.5026   -1.4105 H   0  0  0  0  0  0  0  0  0  0  0  0
    5.2076    2.4636   -1.6525 H   0  0  0  0  0  0  0  0  0  0  0  0
    3.6287    1.0173   -2.7243 H   0  0  0  0  0  0  0  0  0  0  0  0
   -0.5210   -2.9577    1.9554 H   0  0  0  0  0  0  0  0  0  0  0  0
   -2.8787   -2.5099    1.8097 H   0  0  0  0  0  0  0  0  0  0  0  0
   -2.1850    0.2108   -1.3948 H   0  0  0  0  0  0  0  0  0  0  0  0
   -4.3818   -0.5830   -0.9616 H   0  0  0  0  0  0  0  0  0  0  0  0
   -3.5270   -0.2922    2.7477 H   0  0  0  0  0  0  0  0  0  0  0  0
   -4.2354    1.6335    4.0631 H   0  0  0  0  0  0  0  0  0  0  0  0
   -6.2746    3.1925    0.6785 H   0  0  0  0  0  0  0  0  0  0  0  0
   -5.6016    1.3064   -0.6465 H   0  0  0  0  0  0  0  0  0  0  0  0
   -4.5978   -2.8932   -1.5085 H   0  0  0  0  0  0  0  0  0  0  0  0
   -5.9649   -4.8856   -1.1051 H   0  0  0  0  0  0  0  0  0  0  0  0
   -6.8483   -3.4928    2.8148 H   0  0  0  0  0  0  0  0  0  0  0  0
   -5.5161   -1.5340    2.4353 H   0  0  0  0  0  0  0  0  0  0  0  0
  1  2  1  0
  2  3  2  0
  2  4  1  0
  4  5  1  0
  5  6  1  0
  6  7  1  0
  7  8  1  0
  8  9  2  0
  9 10  1  0
 10 11  1  0
 11 12  1  0
 12 13  1  0
 13 14  2  0
 14 15  1  0
 15 16  2  0
 16 17  1  0
 17 18  2  0
 16 19  1  0
 19 20  1  0
 19 21  1  0
 19 22  1  0
 10 23  2  0
 23 24  1  0
 24 25  2  0
 24 26  1  0
 26 27  2  0
 27 28  1  0
 28 29  2  0
 28 30  1  0
 30 31  1  0
 31 32  2  0
 32 33  1  0
 33 34  2  0
 34 35  1  0
 35 36  2  0
 34 37  1  0
 30 38  1  0
 38 39  2  0
 39 40  1  0
 40 41  2  0
 41 42  1  0
 42 43  2  0
 41 44  1  0
 25  8  1  0
 36 31  1  0
 43 38  1  0
 18 13  1  0
 29 23  1  0
  1 45  1  0
  1 46  1  0
  4 47  1  0
  4 48  1  0
  5 49  1  0
  5 50  1  0
  6 51  1  0
  6 52  1  0
 11 53  1  0
 12 54  1  0
 12 55  1  0
 14 56  1  0
 15 57  1  0
 17 58  1  0
 18 59  1  0
 26 60  1  0
 27 61  1  0
 29 62  1  0
 30 63  1  0
 32 64  1  0
 33 65  1  0
 35 66  1  0
 36 67  1  0
 39 68  1  0
 40 69  1  0
 42 70  1  0
 43 71  1  0
M  END
>  <Ligand ID>  (1) 
LIG0005948

>  <Ligand>  (1) 
SCHEMBL17557669

>  <SMILES>  (1) 
NC(=O)CCCOc1nc(NCc2ccc(cc2)C(F)(F)F)c2c(n1)ccc(c2)C(c1ccc(cc1)Cl)c1ccc(cc1)Cl

>  <CID>  (1) 
118916149.0

>  <ChEMBL ID>  (1) 
nan

>  <InChiKey>  (1) 
XKJHJRQCCGZLRF-UHFFFAOYSA-N

>  <InChi>  (1) 
InChI=1S/C33H27Cl2F3N4O2/c34-25-12-5-21(6-13-25)30(22-7-14-26(35)15-8-22)23-9-16-28-27(18-23)31(42-32(41-28)44-17-1-2-29(39)43)40-19-20-3-10-24(11-4-20)33(36,37)38/h3-16,18,30H,1-2,17,19H2,(H2,39,43)(H,40,41,42)

>  <IUPAC Name>  (1) 
4-[6-[bis(4-chlorophenyl)methyl]-4-[[4-(trifluoromethyl)phenyl]methylamino]quinazolin-2-yl]oxybutanamide

$$$$
