
     RDKit          3D

 34 34  0  0  0  0  0  0  0  0999 V2000
   -6.0935   -0.4757    0.2137 N   0  0  0  0  0  0  0  0  0  0  0  0
   -4.7591   -0.0449    0.6481 C   0  0  0  0  0  0  0  0  0  0  0  0
   -3.7761   -0.4890   -0.4059 C   0  0  0  0  0  0  0  0  0  0  0  0
   -2.3867   -0.1248   -0.1059 C   0  0  0  0  0  0  0  0  0  0  0  0
   -1.9121    1.1019   -0.5596 C   0  0  0  0  0  0  0  0  0  0  0  0
   -0.6193    1.5267   -0.3241 C   0  0  0  0  0  0  0  0  0  0  0  0
    0.2440    0.7077    0.3893 C   0  0  0  0  0  0  0  0  0  0  0  0
   -0.2145   -0.5266    0.8530 C   0  0  0  0  0  0  0  0  0  0  0  0
   -1.5168   -0.9504    0.6134 C   0  0  0  0  0  0  0  0  0  0  0  0
    1.0600   -1.8043    1.9716 I   0  0  0  0  0  0  0  0  0  0  0  0
    1.5192    1.1370    0.6171 O   0  0  0  0  0  0  0  0  0  0  0  0
    2.6974    0.5935    0.2129 C   0  0  0  0  0  0  0  0  0  0  0  0
    2.8501   -0.4803   -0.6312 C   0  0  0  0  0  0  0  0  0  0  0  0
    4.0742   -0.9917   -1.0071 C   0  0  0  0  0  0  0  0  0  0  0  0
    5.2377   -0.4124   -0.5238 C   0  0  0  0  0  0  0  0  0  0  0  0
    5.1098    0.6668    0.3246 C   0  0  0  0  0  0  0  0  0  0  0  0
    3.8736    1.1681    0.6925 C   0  0  0  0  0  0  0  0  0  0  0  0
    6.5015   -0.8740   -0.8595 O   0  0  0  0  0  0  0  0  0  0  0  0
    0.6918    0.0000    0.0000 Cl  0  0  0  0  0  0  0  0  0  0  0  0
   -6.7634    0.0912    0.8128 H   0  0  0  0  0  0  0  0  0  0  0  0
   -6.2238   -0.1463   -0.7764 H   0  0  0  0  0  0  0  0  0  0  0  0
   -4.8037    1.0437    0.7504 H   0  0  0  0  0  0  0  0  0  0  0  0
   -4.4666   -0.5652    1.5822 H   0  0  0  0  0  0  0  0  0  0  0  0
   -3.9337   -1.5925   -0.5192 H   0  0  0  0  0  0  0  0  0  0  0  0
   -4.0737   -0.0054   -1.3413 H   0  0  0  0  0  0  0  0  0  0  0  0
   -2.5845    1.7424   -1.1165 H   0  0  0  0  0  0  0  0  0  0  0  0
   -0.2875    2.4856   -0.6923 H   0  0  0  0  0  0  0  0  0  0  0  0
   -1.8712   -1.9043    0.9713 H   0  0  0  0  0  0  0  0  0  0  0  0
    1.9718   -0.9585   -1.0389 H   0  0  0  0  0  0  0  0  0  0  0  0
    4.1917   -1.8331   -1.6682 H   0  0  0  0  0  0  0  0  0  0  0  0
    5.9738    1.1657    0.7376 H   0  0  0  0  0  0  0  0  0  0  0  0
    3.8133    2.0276    1.3691 H   0  0  0  0  0  0  0  0  0  0  0  0
    7.1679   -1.2788   -0.2421 H   0  0  0  0  0  0  0  0  0  0  0  0
   -0.6918    0.0000    0.0000 H   0  0  0  0  0  0  0  0  0  0  0  0
  1  2  1  0
  2  3  1  0
  3  4  1  0
  4  5  2  0
  5  6  1  0
  6  7  2  0
  7  8  1  0
  8  9  2  0
  8 10  1  0
  7 11  1  0
 11 12  1  0
 12 13  2  0
 13 14  1  0
 14 15  2  0
 15 16  1  0
 16 17  2  0
 15 18  1  0
  9  4  1  0
 17 12  1  0
  1 20  1  0
  1 21  1  0
  2 22  1  0
  2 23  1  0
  3 24  1  0
  3 25  1  0
  5 26  1  0
  6 27  1  0
  9 28  1  0
 13 29  1  0
 14 30  1  0
 16 31  1  0
 17 32  1  0
 18 33  1  0
 19 34  1  0
M  END
>  <Ligand ID>  (1) 
LIG0005966

>  <Ligand>  (1) 
3-Iodothyronamine Hydrochloride

>  <SMILES>  (1) 
NCCc1ccc(c(c1)I)Oc1ccc(cc1)O.Cl

>  <CID>  (1) 
46781974.0

>  <ChEMBL ID>  (1) 
nan

>  <InChiKey>  (1) 
RVKVVMXTPQCCIX-UHFFFAOYSA-N

>  <InChi>  (1) 
InChI=1S/C14H14INO2.ClH/c15-13-9-10(7-8-16)1-6-14(13)18-12-4-2-11(17)3-5-12;/h1-6,9,17H,7-8,16H2;1H

>  <IUPAC Name>  (1) 
4-[4-(2-aminoethyl)-2-iodophenoxy]phenol;hydrochloride

$$$$
