
     RDKit          3D

 43 46  0  0  0  0  0  0  0  0999 V2000
   -2.3129   -1.1090    3.3883 C   0  0  0  0  0  0  0  0  0  0  0  0
   -1.6888   -0.1665    2.4189 C   0  0  0  0  0  0  0  0  0  0  0  0
   -0.4042    0.1961    2.4627 N   0  0  0  0  0  0  0  0  0  0  0  0
   -0.1170    1.0393    1.4874 N   0  0  0  0  0  0  0  0  0  0  0  0
   -1.2444    1.2425    0.7752 C   0  0  0  0  0  0  0  0  0  0  0  0
   -2.2405    0.4910    1.3493 C   0  0  0  0  0  0  0  0  0  0  0  0
   -3.5229    0.6486    0.6342 C   0  0  1  0  0  0  0  0  0  0  0  0
   -3.2245    1.6378   -0.4455 C   0  0  1  0  0  0  0  0  0  0  0  0
   -1.7558    1.9814   -0.3837 C   0  0  0  0  0  0  0  0  0  0  0  0
   -3.6691    0.2652   -0.7702 C   0  0  0  0  0  0  0  0  0  0  0  0
   -2.7443   -0.7052   -1.4571 C   0  0  0  0  0  0  0  0  0  0  0  0
   -5.1057    0.1736   -1.2874 C   0  0  0  0  0  0  0  0  0  0  0  0
    1.2035    1.6044    1.2837 C   0  0  0  0  0  0  0  0  0  0  0  0
    2.0638    0.7986    0.3979 C   0  0  0  0  0  0  0  0  0  0  0  0
    3.2093    0.2891    0.7791 C   0  0  0  0  0  0  0  0  0  0  0  0
    4.0826   -0.5103   -0.0684 C   0  0  0  0  0  0  0  0  0  0  0  0
    5.2906   -1.0124    0.4308 C   0  0  0  0  0  0  0  0  0  0  0  0
    6.1395   -1.7725   -0.3460 C   0  0  0  0  0  0  0  0  0  0  0  0
    5.8326   -2.0716   -1.6547 C   0  0  0  0  0  0  0  0  0  0  0  0
    4.6487   -1.5889   -2.1698 C   0  0  0  0  0  0  0  0  0  0  0  0
    3.7969   -0.8191   -1.3708 C   0  0  0  0  0  0  0  0  0  0  0  0
   -3.1708   -1.6093    2.8793 H   0  0  0  0  0  0  0  0  0  0  0  0
   -2.6706   -0.6024    4.3089 H   0  0  0  0  0  0  0  0  0  0  0  0
   -1.5468   -1.8629    3.7018 H   0  0  0  0  0  0  0  0  0  0  0  0
   -4.4538    0.8192    1.2419 H   0  0  0  0  0  0  0  0  0  0  0  0
   -3.9149    2.4949   -0.6189 H   0  0  0  0  0  0  0  0  0  0  0  0
   -1.2810    1.7166   -1.3481 H   0  0  0  0  0  0  0  0  0  0  0  0
   -1.6398    3.0780   -0.2725 H   0  0  0  0  0  0  0  0  0  0  0  0
   -2.8680   -1.7172   -1.0199 H   0  0  0  0  0  0  0  0  0  0  0  0
   -3.0432   -0.7759   -2.5228 H   0  0  0  0  0  0  0  0  0  0  0  0
   -1.6819   -0.4214   -1.3856 H   0  0  0  0  0  0  0  0  0  0  0  0
   -5.7690   -0.0405   -0.4061 H   0  0  0  0  0  0  0  0  0  0  0  0
   -5.4463    1.1779   -1.6648 H   0  0  0  0  0  0  0  0  0  0  0  0
   -5.2268   -0.5472   -2.1010 H   0  0  0  0  0  0  0  0  0  0  0  0
    1.0904    2.6000    0.7688 H   0  0  0  0  0  0  0  0  0  0  0  0
    1.6905    1.8542    2.2471 H   0  0  0  0  0  0  0  0  0  0  0  0
    1.7186    0.6289   -0.6118 H   0  0  0  0  0  0  0  0  0  0  0  0
    3.5189    0.4830    1.8005 H   0  0  0  0  0  0  0  0  0  0  0  0
    5.5267   -0.7679    1.4774 H   0  0  0  0  0  0  0  0  0  0  0  0
    7.0714   -2.1385    0.0983 H   0  0  0  0  0  0  0  0  0  0  0  0
    6.5348   -2.6712   -2.2164 H   0  0  0  0  0  0  0  0  0  0  0  0
    4.4215   -1.8301   -3.1933 H   0  0  0  0  0  0  0  0  0  0  0  0
    2.9027   -0.4801   -1.8308 H   0  0  0  0  0  0  0  0  0  0  0  0
  1  2  1  0
  2  3  2  0
  3  4  1  0
  4  5  1  0
  5  6  2  0
  6  7  1  0
  7  8  1  0
  8  9  1  0
  8 10  1  0
 10 11  1  0
 10 12  1  0
  4 13  1  0
 13 14  1  0
 14 15  2  0
 15 16  1  0
 16 17  2  0
 17 18  1  0
 18 19  2  0
 19 20  1  0
 20 21  2  0
  6  2  1  0
 10  7  1  0
 21 16  1  0
  9  5  1  0
  1 22  1  0
  1 23  1  0
  1 24  1  0
  7 25  1  1
  8 26  1  1
  9 27  1  0
  9 28  1  0
 11 29  1  0
 11 30  1  0
 11 31  1  0
 12 32  1  0
 12 33  1  0
 12 34  1  0
 13 35  1  0
 13 36  1  0
 14 37  1  0
 15 38  1  0
 17 39  1  0
 18 40  1  0
 19 41  1  0
 20 42  1  0
 21 43  1  0
M  END
>  <Ligand ID>  (1) 
LIG0003975

>  <Ligand>  (1) 
CHEMBL589403

>  <SMILES>  (1) 
Cc1nn(c2c1[C@H]1[C@@H](C2)C1(C)C)C/C=C/c1ccccc1

>  <CID>  (1) 
46225233.0

>  <ChEMBL ID>  (1) 
nan

>  <InChiKey>  (1) 
FSOFHLFLALDBIC-VMMSNCAXSA-N

>  <InChi>  (1) 
InChI=1S/C19H22N2/c1-13-17-16(12-15-18(17)19(15,2)3)21(20-13)11-7-10-14-8-5-4-6-9-14/h4-10,15,18H,11-12H2,1-3H3/b10-7+/t15-,18-/m1/s1

>  <IUPAC Name>  (1) 
(2S,4R)-3,3,9-trimethyl-7-[(E)-3-phenylprop-2-enyl]-7,8-diazatricyclo[4.3.0.02,4]nona-1(6),8-diene

$$$$
