
     RDKit          3D

 30 31  0  0  0  0  0  0  0  0999 V2000
    4.0921    0.9844   -1.1678 N   0  0  0  0  0  0  0  0  0  0  0  0
    3.8560   -0.4247   -0.9499 C   0  0  0  0  0  0  0  0  0  0  0  0
    2.5592   -0.6975   -0.2330 C   0  0  1  0  0  0  0  0  0  0  0  0
    2.4785   -0.0560    1.1409 C   0  0  0  0  0  0  0  0  0  0  0  0
    1.5757    0.3827    0.0053 C   0  0  2  0  0  0  0  0  0  0  0  0
    0.1490    0.0200    0.1404 C   0  0  0  0  0  0  0  0  0  0  0  0
   -0.2935   -1.1300    0.7632 C   0  0  0  0  0  0  0  0  0  0  0  0
   -1.6419   -1.4452    0.8755 C   0  0  0  0  0  0  0  0  0  0  0  0
   -2.5984   -0.5995    0.3564 C   0  0  0  0  0  0  0  0  0  0  0  0
   -2.1732    0.5645   -0.2751 C   0  0  0  0  0  0  0  0  0  0  0  0
   -0.8316    0.8713   -0.3830 C   0  0  0  0  0  0  0  0  0  0  0  0
   -3.1495    1.5302   -0.8623 C   0  0  0  0  0  0  0  0  0  0  0  0
   -4.0480   -0.8408    0.4225 C   0  0  0  0  0  0  0  0  0  0  0  0
    4.1103    1.5333   -0.2836 H   0  0  0  0  0  0  0  0  0  0  0  0
    3.4436    1.3806   -1.8803 H   0  0  0  0  0  0  0  0  0  0  0  0
    3.9486   -0.9443   -1.9050 H   0  0  0  0  0  0  0  0  0  0  0  0
    4.6799   -0.7935   -0.2900 H   0  0  0  0  0  0  0  0  0  0  0  0
    2.1762   -1.7170   -0.3786 H   0  0  0  0  0  0  0  0  0  0  0  0
    3.2472    0.6859    1.4215 H   0  0  0  0  0  0  0  0  0  0  0  0
    2.0477   -0.6950    1.9294 H   0  0  0  0  0  0  0  0  0  0  0  0
    1.7960    1.3331   -0.5165 H   0  0  0  0  0  0  0  0  0  0  0  0
    0.4391   -1.8181    1.1835 H   0  0  0  0  0  0  0  0  0  0  0  0
   -1.9611   -2.3524    1.3683 H   0  0  0  0  0  0  0  0  0  0  0  0
   -0.4937    1.7724   -0.8714 H   0  0  0  0  0  0  0  0  0  0  0  0
   -3.0179    1.5996   -1.9741 H   0  0  0  0  0  0  0  0  0  0  0  0
   -2.9820    2.5090   -0.3738 H   0  0  0  0  0  0  0  0  0  0  0  0
   -4.1679    1.1978   -0.5796 H   0  0  0  0  0  0  0  0  0  0  0  0
   -4.2078   -1.8003    0.9521 H   0  0  0  0  0  0  0  0  0  0  0  0
   -4.4380   -0.9900   -0.6047 H   0  0  0  0  0  0  0  0  0  0  0  0
   -4.5944   -0.0606    0.9785 H   0  0  0  0  0  0  0  0  0  0  0  0
  1  2  1  0
  2  3  1  0
  3  4  1  0
  4  5  1  0
  5  6  1  0
  6  7  2  0
  7  8  1  0
  8  9  2  0
  9 10  1  0
 10 11  2  0
 10 12  1  0
  9 13  1  0
  5  3  1  0
 11  6  1  0
  1 14  1  0
  1 15  1  0
  2 16  1  0
  2 17  1  0
  3 18  1  1
  4 19  1  0
  4 20  1  0
  5 21  1  6
  7 22  1  0
  8 23  1  0
 11 24  1  0
 12 25  1  0
 12 26  1  0
 12 27  1  0
 13 28  1  0
 13 29  1  0
 13 30  1  0
M  END
>  <Ligand ID>  (1) 
LIG0003606

>  <Ligand>  (1) 
CHEMBL475643

>  <SMILES>  (1) 
NC[C@H]1C[C@@H]1c1ccc(c(c1)C)C

>  <CID>  (1) 
44572180.0

>  <ChEMBL ID>  (1) 
nan

>  <InChiKey>  (1) 
IISDSVXMEHMWAL-VXGBXAGGSA-N

>  <InChi>  (1) 
InChI=1S/C12H17N/c1-8-3-4-10(5-9(8)2)12-6-11(12)7-13/h3-5,11-12H,6-7,13H2,1-2H3/t11-,12-/m1/s1

>  <IUPAC Name>  (1) 
[(1S,2S)-2-(3,4-dimethylphenyl)cyclopropyl]methanamine

$$$$
