
     RDKit          3D

 85 90  0  0  0  0  0  0  0  0999 V2000
    2.9453   -0.2996   -2.2456 O   0  0  0  0  0  0  0  0  0  0  0  0
    3.5939   -0.2755   -1.1733 C   0  0  0  0  0  0  0  0  0  0  0  0
    5.0370    0.1416   -1.2930 C   0  0  2  0  0  0  0  0  0  0  0  0
    5.6657    0.1595    0.0023 N   0  0  0  0  0  0  0  0  0  0  0  0
    5.5168    1.4730    0.6110 C   0  0  0  0  0  0  0  0  0  0  0  0
    6.3956    2.3856   -0.2043 C   0  0  0  0  0  0  0  0  0  0  0  0
    6.1485    2.3340   -1.5797 C   0  0  0  0  0  0  0  0  0  0  0  0
    5.0783    1.4285   -2.0425 C   0  0  0  0  0  0  0  0  0  0  0  0
    6.8962    3.1218   -2.4337 C   0  0  0  0  0  0  0  0  0  0  0  0
    7.8727    3.9400   -1.8689 C   0  0  0  0  0  0  0  0  0  0  0  0
    8.0978    3.9741   -0.5060 C   0  0  0  0  0  0  0  0  0  0  0  0
    7.3508    3.1855    0.3524 C   0  0  0  0  0  0  0  0  0  0  0  0
    3.0822   -0.6008    0.0949 N   0  0  0  0  0  0  0  0  0  0  0  0
    1.7125   -1.0157    0.3592 C   0  0  1  0  0  0  0  0  0  0  0  0
    0.7446    0.0341   -0.0223 C   0  0  0  0  0  0  0  0  0  0  0  0
    1.2316    0.9773   -0.7513 O   0  0  0  0  0  0  0  0  0  0  0  0
   -0.6136    0.0861    0.3339 N   0  0  0  0  0  0  0  0  0  0  0  0
   -1.3168   -0.8292    1.1970 C   0  0  0  0  0  0  0  0  0  0  0  0
   -2.5914   -1.1761    0.4265 C   0  0  0  0  0  0  0  0  0  0  0  0
   -3.5653    0.0244    0.4439 C   0  0  0  0  0  0  0  0  0  0  0  0
   -2.7017    1.2519    0.5388 C   0  0  0  0  0  0  0  0  0  0  0  0
   -1.4121    1.1705   -0.2406 C   0  0  0  0  0  0  0  0  0  0  0  0
   -4.4295   -0.1960    1.6214 C   0  0  0  0  0  0  0  0  0  0  0  0
   -5.4792    0.7550    1.9398 C   0  0  0  0  0  0  0  0  0  0  0  0
   -6.7525    0.6633    1.4622 N   0  0  0  0  0  0  0  0  0  0  0  0
   -7.4654    1.6478    1.9224 N   0  0  0  0  0  0  0  0  0  0  0  0
   -6.6830    2.3766    2.6878 N   0  0  0  0  0  0  0  0  0  0  0  0
   -5.4694    1.8552    2.7163 N   0  0  0  0  0  0  0  0  0  0  0  0
   -4.3662    2.3800    3.4487 C   0  0  0  0  0  0  0  0  0  0  0  0
   -4.2132   -0.0157   -0.9153 C   0  0  0  0  0  0  0  0  0  0  0  0
   -4.9818   -1.2446   -1.2154 C   0  0  0  0  0  0  0  0  0  0  0  0
   -6.4253   -1.0754   -1.5462 C   0  0  0  0  0  0  0  0  0  0  0  0
   -6.8586    0.2428   -2.0672 C   0  0  0  0  0  0  0  0  0  0  0  0
   -5.7063    1.0356   -2.5785 C   0  0  0  0  0  0  0  0  0  0  0  0
   -4.8072    1.2815   -1.3664 C   0  0  0  0  0  0  0  0  0  0  0  0
    1.3843   -2.2645   -0.4507 C   0  0  0  0  0  0  0  0  0  0  0  0
    2.2693   -3.3850   -0.0916 C   0  0  0  0  0  0  0  0  0  0  0  0
    3.4463   -3.6970   -0.7100 C   0  0  0  0  0  0  0  0  0  0  0  0
    4.2431   -4.7547   -0.3304 C   0  0  0  0  0  0  0  0  0  0  0  0
    3.8365   -5.5289    0.7146 C   0  0  0  0  0  0  0  0  0  0  0  0
    2.6524   -5.2490    1.3687 C   0  0  0  0  0  0  0  0  0  0  0  0
    1.8812   -4.1881    0.9664 C   0  0  0  0  0  0  0  0  0  0  0  0
    4.8538   -6.8735    1.1890 Cl  0  0  0  0  0  0  0  0  0  0  0  0
    5.5942   -0.6077   -1.9231 H   0  0  0  0  0  0  0  0  0  0  0  0
    6.6862   -0.0460   -0.1374 H   0  0  0  0  0  0  0  0  0  0  0  0
    4.4794    1.7986    0.4443 H   0  0  0  0  0  0  0  0  0  0  0  0
    5.8280    1.4606    1.6615 H   0  0  0  0  0  0  0  0  0  0  0  0
    4.1183    1.9697   -1.8504 H   0  0  0  0  0  0  0  0  0  0  0  0
    5.1038    1.2793   -3.1460 H   0  0  0  0  0  0  0  0  0  0  0  0
    6.7137    3.0882   -3.4997 H   0  0  0  0  0  0  0  0  0  0  0  0
    8.4395    4.5457   -2.5704 H   0  0  0  0  0  0  0  0  0  0  0  0
    8.8625    4.6227   -0.1336 H   0  0  0  0  0  0  0  0  0  0  0  0
    7.5024    3.1871    1.4213 H   0  0  0  0  0  0  0  0  0  0  0  0
    3.7575   -0.5340    0.9139 H   0  0  0  0  0  0  0  0  0  0  0  0
    1.5971   -1.2527    1.4068 H   0  0  0  0  0  0  0  0  0  0  0  0
   -1.6492   -0.3156    2.1398 H   0  0  0  0  0  0  0  0  0  0  0  0
   -0.8080   -1.7452    1.4656 H   0  0  0  0  0  0  0  0  0  0  0  0
   -2.3359   -1.4903   -0.5912 H   0  0  0  0  0  0  0  0  0  0  0  0
   -3.0396   -2.0577    0.9399 H   0  0  0  0  0  0  0  0  0  0  0  0
   -2.3953    1.4317    1.5897 H   0  0  0  0  0  0  0  0  0  0  0  0
   -3.2467    2.1644    0.1872 H   0  0  0  0  0  0  0  0  0  0  0  0
   -0.9068    2.1336   -0.1717 H   0  0  0  0  0  0  0  0  0  0  0  0
   -1.5803    0.9905   -1.3320 H   0  0  0  0  0  0  0  0  0  0  0  0
   -4.8186   -1.2588    1.5837 H   0  0  0  0  0  0  0  0  0  0  0  0
   -3.7190   -0.2594    2.5030 H   0  0  0  0  0  0  0  0  0  0  0  0
   -4.7633    2.9305    4.3466 H   0  0  0  0  0  0  0  0  0  0  0  0
   -3.6749    1.6220    3.8646 H   0  0  0  0  0  0  0  0  0  0  0  0
   -3.8697    3.1458    2.8445 H   0  0  0  0  0  0  0  0  0  0  0  0
   -3.2976   -0.0914   -1.5976 H   0  0  0  0  0  0  0  0  0  0  0  0
   -4.5525   -1.8747   -2.0450 H   0  0  0  0  0  0  0  0  0  0  0  0
   -4.9038   -1.9190   -0.3349 H   0  0  0  0  0  0  0  0  0  0  0  0
   -6.7889   -1.8534   -2.2588 H   0  0  0  0  0  0  0  0  0  0  0  0
   -7.0476   -1.2835   -0.6244 H   0  0  0  0  0  0  0  0  0  0  0  0
   -7.6674    0.1347   -2.8445 H   0  0  0  0  0  0  0  0  0  0  0  0
   -7.3576    0.8542   -1.2606 H   0  0  0  0  0  0  0  0  0  0  0  0
   -5.1381    0.5150   -3.3640 H   0  0  0  0  0  0  0  0  0  0  0  0
   -6.0152    2.0550   -2.9147 H   0  0  0  0  0  0  0  0  0  0  0  0
   -4.0411    2.0141   -1.7592 H   0  0  0  0  0  0  0  0  0  0  0  0
   -5.3833    1.8404   -0.6395 H   0  0  0  0  0  0  0  0  0  0  0  0
    1.5764   -1.9947   -1.5388 H   0  0  0  0  0  0  0  0  0  0  0  0
    0.3118   -2.4654   -0.3519 H   0  0  0  0  0  0  0  0  0  0  0  0
    3.7861   -3.1040   -1.5405 H   0  0  0  0  0  0  0  0  0  0  0  0
    5.1797   -4.9793   -0.8431 H   0  0  0  0  0  0  0  0  0  0  0  0
    2.3967   -5.9087    2.1911 H   0  0  0  0  0  0  0  0  0  0  0  0
    0.9690   -3.9987    1.4949 H   0  0  0  0  0  0  0  0  0  0  0  0
  1  2  2  0
  2  3  1  0
  3  4  1  0
  4  5  1  0
  5  6  1  0
  6  7  2  0
  7  8  1  0
  7  9  1  0
  9 10  2  0
 10 11  1  0
 11 12  2  0
  2 13  1  0
 13 14  1  0
 14 15  1  0
 15 16  2  0
 15 17  1  0
 17 18  1  0
 18 19  1  0
 19 20  1  0
 20 21  1  0
 21 22  1  0
 20 23  1  0
 23 24  1  0
 24 25  2  0
 25 26  1  0
 26 27  2  0
 27 28  1  0
 28 29  1  0
 20 30  1  0
 30 31  1  0
 31 32  1  0
 32 33  1  0
 33 34  1  0
 34 35  1  0
 14 36  1  0
 36 37  1  0
 37 38  2  0
 38 39  1  0
 39 40  2  0
 40 41  1  0
 41 42  2  0
 40 43  1  0
  8  3  1  0
 22 17  1  0
 28 24  1  0
 35 30  1  0
 42 37  1  0
 12  6  1  0
  3 44  1  6
  4 45  1  0
  5 46  1  0
  5 47  1  0
  8 48  1  0
  8 49  1  0
  9 50  1  0
 10 51  1  0
 11 52  1  0
 12 53  1  0
 13 54  1  0
 14 55  1  1
 18 56  1  0
 18 57  1  0
 19 58  1  0
 19 59  1  0
 21 60  1  0
 21 61  1  0
 22 62  1  0
 22 63  1  0
 23 64  1  0
 23 65  1  0
 29 66  1  0
 29 67  1  0
 29 68  1  0
 30 69  1  0
 31 70  1  0
 31 71  1  0
 32 72  1  0
 32 73  1  0
 33 74  1  0
 33 75  1  0
 34 76  1  0
 34 77  1  0
 35 78  1  0
 35 79  1  0
 36 80  1  0
 36 81  1  0
 38 82  1  0
 39 83  1  0
 41 84  1  0
 42 85  1  0
M  END
>  <Ligand ID>  (1) 
LIG0004563

>  <Ligand>  (1) 
CHEMBL140154

>  <SMILES>  (1) 
O=C([C@@H]1NCc2c(C1)cccc2)N[C@@H](C(=O)N1CCC(CC1)(Cc1nnnn1C)C1CCCCC1)Cc1ccc(cc1)Cl

>  <CID>  (1) 
11061068.0

>  <ChEMBL ID>  (1) 
nan

>  <InChiKey>  (1) 
IJYUZXAPJHBRJR-FQLXRVMXSA-N

>  <InChi>  (1) 
InChI=1S/C33H42ClN7O2/c1-40-30(37-38-39-40)21-33(26-9-3-2-4-10-26)15-17-41(18-16-33)32(43)29(19-23-11-13-27(34)14-12-23)36-31(42)28-20-24-7-5-6-8-25(24)22-35-28/h5-8,11-14,26,28-29,35H,2-4,9-10,15-22H2,1H3,(H,36,42)/t28-,29-/m1/s1

>  <IUPAC Name>  (1) 
(3R)-N-[(2R)-3-(4-chlorophenyl)-1-[4-cyclohexyl-4-[(1-methyltetrazol-5-yl)methyl]piperidin-1-yl]-1-oxopropan-2-yl]-1,2,3,4-tetrahydroisoquinoline-3-carboxamide

$$$$
