
     RDKit          3D

 50 53  0  0  0  0  0  0  0  0999 V2000
   -2.0086    1.9899    0.2880 O   0  0  0  0  0  0  0  0  0  0  0  0
   -1.1405    0.9348    0.1952 C   0  0  2  0  0  0  0  0  0  0  0  0
    0.2838    1.3402    0.6219 C   0  0  0  0  0  0  0  0  0  0  0  0
    1.1557    0.2677   -0.0370 C   0  0  1  0  0  0  0  0  0  0  0  0
    0.2753   -0.4930   -0.9762 C   0  0  1  0  0  0  0  0  0  0  0  0
   -0.8576    0.4663   -1.2117 C   0  0  1  0  0  0  0  0  0  0  0  0
   -2.0480   -0.1009   -1.8940 C   0  0  0  0  0  0  0  0  0  0  0  0
   -2.6865   -1.2837   -1.2582 C   0  0  0  0  0  0  0  0  0  0  0  0
   -3.1994   -1.1496    0.0116 O   0  0  0  0  0  0  0  0  0  0  0  0
   -4.1942   -0.3938    0.5370 C   0  0  0  0  0  0  0  0  0  0  0  0
   -4.4195   -0.5202    1.9184 C   0  0  0  0  0  0  0  0  0  0  0  0
   -5.3988    0.1914    2.5646 C   0  0  0  0  0  0  0  0  0  0  0  0
   -6.1907    1.0552    1.8620 C   0  0  0  0  0  0  0  0  0  0  0  0
   -6.0099    1.2130    0.5127 C   0  0  0  0  0  0  0  0  0  0  0  0
   -5.0166    0.4848   -0.1168 C   0  0  0  0  0  0  0  0  0  0  0  0
    0.9696   -0.9626   -2.2118 C   0  0  0  0  0  0  0  0  0  0  0  0
    2.4636   -1.0685   -2.0338 C   0  0  0  0  0  0  0  0  0  0  0  0
    3.0746    0.1130   -1.3791 C   0  0  1  0  0  0  0  0  0  0  0  0
    2.2518    0.8397   -0.5636 O   0  0  0  0  0  0  0  0  0  0  0  0
    4.2215   -0.3552   -0.5218 C   0  0  0  0  0  0  0  0  0  0  0  0
    4.8445   -2.1033   -0.6073 S   0  0  0  0  0  0  0  0  0  0  0  0
    6.1375   -1.8216    0.6578 C   0  0  0  0  0  0  0  0  0  0  0  0
    5.9181   -0.4417    0.9699 C   0  0  0  0  0  0  0  0  0  0  0  0
    4.9873    0.1470    0.3512 N   0  0  0  0  0  0  0  0  0  0  0  0
    6.8061    0.1677    1.9922 C   0  0  0  0  0  0  0  0  0  0  0  0
    7.6941   -0.5325    2.5313 O   0  0  0  0  0  0  0  0  0  0  0  0
    6.6615    1.4991    2.3536 O   0  0  0  0  0  0  0  0  0  0  0  0
   -1.5033    2.8114    0.4797 H   0  0  0  0  0  0  0  0  0  0  0  0
   -1.3947    0.0830    0.8693 H   0  0  0  0  0  0  0  0  0  0  0  0
    0.4623    2.3425    0.2243 H   0  0  0  0  0  0  0  0  0  0  0  0
    0.3588    1.3274    1.7242 H   0  0  0  0  0  0  0  0  0  0  0  0
    1.4834   -0.4016    0.7864 H   0  0  0  0  0  0  0  0  0  0  0  0
   -0.1351   -1.3751   -0.4440 H   0  0  0  0  0  0  0  0  0  0  0  0
   -0.5343    1.3556   -1.7978 H   0  0  0  0  0  0  0  0  0  0  0  0
   -2.7823    0.6998   -2.0305 H   0  0  0  0  0  0  0  0  0  0  0  0
   -1.7163   -0.4319   -2.9140 H   0  0  0  0  0  0  0  0  0  0  0  0
   -3.5738   -1.5336   -1.9290 H   0  0  0  0  0  0  0  0  0  0  0  0
   -2.0606   -2.2162   -1.3662 H   0  0  0  0  0  0  0  0  0  0  0  0
   -3.8114   -1.1974    2.5169 H   0  0  0  0  0  0  0  0  0  0  0  0
   -5.5660    0.0866    3.6360 H   0  0  0  0  0  0  0  0  0  0  0  0
   -6.9681    1.6279    2.3430 H   0  0  0  0  0  0  0  0  0  0  0  0
   -6.6351    1.9011   -0.0684 H   0  0  0  0  0  0  0  0  0  0  0  0
   -4.9182    0.6309   -1.1761 H   0  0  0  0  0  0  0  0  0  0  0  0
    0.5443   -1.9425   -2.5080 H   0  0  0  0  0  0  0  0  0  0  0  0
    0.7618   -0.2569   -3.0406 H   0  0  0  0  0  0  0  0  0  0  0  0
    2.9222   -1.2524   -3.0336 H   0  0  0  0  0  0  0  0  0  0  0  0
    2.6518   -2.0068   -1.4452 H   0  0  0  0  0  0  0  0  0  0  0  0
    3.5760    0.7233   -2.1631 H   0  0  0  0  0  0  0  0  0  0  0  0
    6.7842   -2.5073    0.9856 H   0  0  0  0  0  0  0  0  0  0  0  0
    7.4795    2.0486    2.6314 H   0  0  0  0  0  0  0  0  0  0  0  0
  1  2  1  0
  2  3  1  0
  3  4  1  0
  4  5  1  0
  5  6  1  0
  6  7  1  0
  7  8  1  0
  8  9  1  0
  9 10  1  0
 10 11  2  0
 11 12  1  0
 12 13  2  0
 13 14  1  0
 14 15  2  0
  5 16  1  0
 16 17  1  0
 17 18  1  0
 18 19  1  0
 18 20  1  0
 20 21  1  0
 21 22  1  0
 22 23  2  0
 23 24  1  0
 23 25  1  0
 25 26  2  0
 25 27  1  0
  6  2  1  0
 15 10  1  0
 24 20  2  0
 19  4  1  0
  1 28  1  0
  2 29  1  1
  3 30  1  0
  3 31  1  0
  4 32  1  1
  5 33  1  1
  6 34  1  6
  7 35  1  0
  7 36  1  0
  8 37  1  0
  8 38  1  0
 11 39  1  0
 12 40  1  0
 13 41  1  0
 14 42  1  0
 15 43  1  0
 16 44  1  0
 16 45  1  0
 17 46  1  0
 17 47  1  0
 18 48  1  6
 22 49  1  0
 27 50  1  0
M  END
>  <Ligand ID>  (1) 
LIG0000838

>  <Ligand>  (1) 
CHEMBL3806130

>  <SMILES>  (1) 
O[C@@H]1C[C@H]2[C@@H]([C@H]1CCOc1ccccc1)CC[C@@H](O2)c1scc(n1)C(=O)O

>  <CID>  (1) 
126495463.0

>  <ChEMBL ID>  (1) 
nan

>  <InChiKey>  (1) 
WDAHPKREMMAGSE-TWPTVVAISA-N

>  <InChi>  (1) 
InChI=1S/C20H23NO5S/c22-16-10-18-14(13(16)8-9-25-12-4-2-1-3-5-12)6-7-17(26-18)19-21-15(11-27-19)20(23)24/h1-5,11,13-14,16-18,22H,6-10H2,(H,23,24)/t13-,14-,16-,17-,18+/m1/s1

>  <IUPAC Name>  (1) 
2-[(2R,4aR,5R,6R,7aS)-6-hydroxy-5-(2-phenoxyethyl)-2,3,4,4a,5,6,7,7a-octahydrocyclopenta[b]pyran-2-yl]-1,3-thiazole-4-carboxylic acid

$$$$
