
     RDKit          3D

 52 55  0  0  0  0  0  0  0  0999 V2000
    7.1290    1.5825   -1.3976 C   0  0  0  0  0  0  0  0  0  0  0  0
    7.2407    1.0247   -0.0771 N   0  0  0  0  0  0  0  0  0  0  0  0
    7.0210   -0.3818   -0.0128 C   0  0  0  0  0  0  0  0  0  0  0  0
    5.6003   -0.8194    0.1011 C   0  0  0  0  0  0  0  0  0  0  0  0
    4.6664    0.2137    0.4311 N   0  0  0  0  0  0  0  0  0  0  0  0
    5.0498    1.5373    0.8978 C   0  0  0  0  0  0  0  0  0  0  0  0
    6.5217    1.7670    0.9351 C   0  0  0  0  0  0  0  0  0  0  0  0
    3.2831   -0.0496    0.3023 C   0  0  0  0  0  0  0  0  0  0  0  0
    2.3093    0.8916    0.5960 C   0  0  0  0  0  0  0  0  0  0  0  0
    0.9663    0.6584    0.4787 C   0  0  0  0  0  0  0  0  0  0  0  0
    0.4970   -0.5715    0.0458 C   0  0  0  0  0  0  0  0  0  0  0  0
    1.4457   -1.5148   -0.2493 C   0  0  0  0  0  0  0  0  0  0  0  0
    2.8143   -1.2816   -0.1313 C   0  0  0  0  0  0  0  0  0  0  0  0
   -0.8920   -0.7376   -0.0500 N   0  0  0  0  0  0  0  0  0  0  0  0
   -1.5691   -1.9088   -0.4686 C   0  0  0  0  0  0  0  0  0  0  0  0
   -0.9910   -2.9615   -0.8114 O   0  0  0  0  0  0  0  0  0  0  0  0
   -3.0491   -1.9444   -0.5225 C   0  0  0  0  0  0  0  0  0  0  0  0
   -3.7851   -3.0420   -0.9175 C   0  0  0  0  0  0  0  0  0  0  0  0
   -5.1258   -2.6504   -0.8218 C   0  0  0  0  0  0  0  0  0  0  0  0
   -5.1191   -1.3343   -0.3728 C   0  0  0  0  0  0  0  0  0  0  0  0
   -3.8617   -0.9767   -0.2154 O   0  0  0  0  0  0  0  0  0  0  0  0
   -6.3218   -0.5237   -0.1303 C   0  0  0  0  0  0  0  0  0  0  0  0
   -7.5919   -1.0223   -0.3362 C   0  0  0  0  0  0  0  0  0  0  0  0
   -8.7016   -0.2071   -0.0895 C   0  0  0  0  0  0  0  0  0  0  0  0
   -8.5053    1.1011    0.3623 C   0  0  0  0  0  0  0  0  0  0  0  0
   -7.2282    1.5847    0.5632 C   0  0  0  0  0  0  0  0  0  0  0  0
   -6.1332    0.7808    0.3199 C   0  0  0  0  0  0  0  0  0  0  0  0
   -6.9929    2.9110    1.0223 N   0  0  0  0  0  0  0  0  0  0  0  0
   -7.9525    3.6720    1.2547 O   0  0  0  0  0  0  0  0  0  0  0  0
   -5.6916    3.3156    1.1972 O   0  0  0  0  0  0  0  0  0  0  0  0
    7.0669    0.8057   -2.1895 H   0  0  0  0  0  0  0  0  0  0  0  0
    8.0601    2.1672   -1.5868 H   0  0  0  0  0  0  0  0  0  0  0  0
    6.2826    2.2884   -1.4572 H   0  0  0  0  0  0  0  0  0  0  0  0
    7.5647   -0.7922    0.8630 H   0  0  0  0  0  0  0  0  0  0  0  0
    7.5574   -0.8242   -0.8970 H   0  0  0  0  0  0  0  0  0  0  0  0
    5.4507   -1.6538    0.8441 H   0  0  0  0  0  0  0  0  0  0  0  0
    5.3488   -1.3190   -0.8803 H   0  0  0  0  0  0  0  0  0  0  0  0
    4.5870    1.8076    1.8596 H   0  0  0  0  0  0  0  0  0  0  0  0
    4.5845    2.2457    0.1535 H   0  0  0  0  0  0  0  0  0  0  0  0
    6.9441    1.4887    1.9128 H   0  0  0  0  0  0  0  0  0  0  0  0
    6.7551    2.8460    0.7622 H   0  0  0  0  0  0  0  0  0  0  0  0
    2.6258    1.8650    0.9370 H   0  0  0  0  0  0  0  0  0  0  0  0
    0.2762    1.4641    0.7342 H   0  0  0  0  0  0  0  0  0  0  0  0
    1.1666   -2.4876   -0.5891 H   0  0  0  0  0  0  0  0  0  0  0  0
    3.5204   -2.0706   -0.3805 H   0  0  0  0  0  0  0  0  0  0  0  0
   -1.5299    0.0744    0.2091 H   0  0  0  0  0  0  0  0  0  0  0  0
   -3.4288   -4.0265   -1.2432 H   0  0  0  0  0  0  0  0  0  0  0  0
   -5.9812   -3.2781   -1.0600 H   0  0  0  0  0  0  0  0  0  0  0  0
   -7.7075   -2.0290   -0.6828 H   0  0  0  0  0  0  0  0  0  0  0  0
   -9.7088   -0.5854   -0.2469 H   0  0  0  0  0  0  0  0  0  0  0  0
   -9.3485    1.7650    0.5649 H   0  0  0  0  0  0  0  0  0  0  0  0
   -5.1191    1.1355    0.4695 H   0  0  0  0  0  0  0  0  0  0  0  0
  1  2  1  0
  2  3  1  0
  3  4  1  0
  4  5  1  0
  5  6  1  0
  6  7  1  0
  5  8  1  0
  8  9  2  0
  9 10  1  0
 10 11  2  0
 11 12  1  0
 12 13  2  0
 11 14  1  0
 14 15  1  0
 15 16  2  0
 15 17  1  0
 17 18  2  0
 18 19  1  0
 19 20  2  0
 20 21  1  0
 20 22  1  0
 22 23  2  0
 23 24  1  0
 24 25  2  0
 25 26  1  0
 26 27  2  0
 26 28  1  0
 28 29  2  0
 28 30  1  0
  7  2  1  0
 13  8  1  0
 21 17  1  0
 27 22  1  0
  1 31  1  0
  1 32  1  0
  1 33  1  0
  3 34  1  0
  3 35  1  0
  4 36  1  0
  4 37  1  0
  6 38  1  0
  6 39  1  0
  7 40  1  0
  7 41  1  0
  9 42  1  0
 10 43  1  0
 12 44  1  0
 13 45  1  0
 14 46  1  0
 18 47  1  0
 19 48  1  0
 23 49  1  0
 24 50  1  0
 25 51  1  0
 27 52  1  0
M  CHG  2  28   1  30  -1
M  END
>  <Ligand ID>  (1) 
LIG0004634

>  <Ligand>  (1) 
N-[4-(4-methylpiperazin-1-yl)phenyl]-5-(3-nitrophenyl)furan-2-carboxamide

>  <SMILES>  (1) 
CN1CCN(CC1)c1ccc(cc1)NC(=O)c1ccc(o1)c1cccc(c1)[N+](=O)[O-]

>  <CID>  (1) 
1422958.0

>  <ChEMBL ID>  (1) 
nan

>  <InChiKey>  (1) 
FYXDQNJWQXPNJB-UHFFFAOYSA-N

>  <InChi>  (1) 
InChI=1S/C22H22N4O4/c1-24-11-13-25(14-12-24)18-7-5-17(6-8-18)23-22(27)21-10-9-20(30-21)16-3-2-4-19(15-16)26(28)29/h2-10,15H,11-14H2,1H3,(H,23,27)

>  <IUPAC Name>  (1) 
N-[4-(4-methylpiperazin-1-yl)phenyl]-5-(3-nitrophenyl)furan-2-carboxamide

$$$$
