
     RDKit          3D

 48 51  0  0  0  0  0  0  0  0999 V2000
    5.0216    0.2183    1.8462 O   0  0  0  0  0  0  0  0  0  0  0  0
    4.0346    0.2497    1.1292 C   0  0  0  0  0  0  0  0  0  0  0  0
    3.1776    1.4631    0.9749 C   0  0  0  0  0  0  0  0  0  0  0  0
    2.4459    1.4264   -0.3362 C   0  0  0  0  0  0  0  0  0  0  0  0
    1.5745    0.2498   -0.5566 C   0  0  1  0  0  0  0  0  0  0  0  0
    2.1016   -0.8780    0.3172 C   0  0  2  0  0  0  0  0  0  0  0  0
    3.5973   -0.9565    0.3299 C   0  0  0  0  0  0  0  0  0  0  0  0
    1.4061   -2.1690    0.0218 C   0  0  0  0  0  0  0  0  0  0  0  0
   -0.0496   -1.9897    0.3517 C   0  0  0  0  0  0  0  0  0  0  0  0
   -0.6757   -0.7576   -0.1812 C   0  0  2  0  0  0  0  0  0  0  0  0
    0.1736    0.4938   -0.0913 C   0  0  2  0  0  0  0  0  0  0  0  0
   -0.5749    1.5836   -0.7626 C   0  0  0  0  0  0  0  0  0  0  0  0
   -1.7801    1.9236    0.1254 C   0  0  0  0  0  0  0  0  0  0  0  0
   -2.6807    0.7486    0.0829 C   0  0  1  0  0  0  0  0  0  0  0  0
   -1.8621   -0.4278    0.6358 C   0  0  1  0  0  0  0  0  0  0  0  0
   -2.9584   -1.4077    0.7542 C   0  0  0  0  0  0  0  0  0  0  0  0
   -3.9560   -0.5611    1.5140 C   0  0  0  0  0  0  0  0  0  0  0  0
   -3.7581    0.6981    1.0889 C   0  0  0  0  0  0  0  0  0  0  0  0
   -3.2620    0.4621   -1.2690 C   0  0  0  0  0  0  0  0  0  0  0  0
    1.5969   -0.1138   -2.0343 C   0  0  0  0  0  0  0  0  0  0  0  0
    2.4968    1.5858    1.8397 H   0  0  0  0  0  0  0  0  0  0  0  0
    3.8481    2.3427    0.9466 H   0  0  0  0  0  0  0  0  0  0  0  0
    1.9583    2.4103   -0.4568 H   0  0  0  0  0  0  0  0  0  0  0  0
    3.2554    1.4029   -1.1238 H   0  0  0  0  0  0  0  0  0  0  0  0
    1.7838   -0.5862    1.3609 H   0  0  0  0  0  0  0  0  0  0  0  0
    4.0159   -0.8472   -0.7001 H   0  0  0  0  0  0  0  0  0  0  0  0
    3.9027   -1.9011    0.7773 H   0  0  0  0  0  0  0  0  0  0  0  0
    1.7999   -2.9090    0.7620 H   0  0  0  0  0  0  0  0  0  0  0  0
    1.6205   -2.5458   -0.9795 H   0  0  0  0  0  0  0  0  0  0  0  0
   -0.6050   -2.8547   -0.0452 H   0  0  0  0  0  0  0  0  0  0  0  0
   -0.1381   -1.9658    1.4686 H   0  0  0  0  0  0  0  0  0  0  0  0
   -1.0139   -0.9404   -1.2312 H   0  0  0  0  0  0  0  0  0  0  0  0
    0.2286    0.7456    0.9989 H   0  0  0  0  0  0  0  0  0  0  0  0
   -0.0213    2.5093   -0.9649 H   0  0  0  0  0  0  0  0  0  0  0  0
   -0.9567    1.1903   -1.7460 H   0  0  0  0  0  0  0  0  0  0  0  0
   -2.2605    2.8603   -0.2449 H   0  0  0  0  0  0  0  0  0  0  0  0
   -1.3885    2.0352    1.1425 H   0  0  0  0  0  0  0  0  0  0  0  0
   -1.5326   -0.1244    1.6447 H   0  0  0  0  0  0  0  0  0  0  0  0
   -3.4029   -1.7147   -0.2072 H   0  0  0  0  0  0  0  0  0  0  0  0
   -2.6708   -2.3090    1.2939 H   0  0  0  0  0  0  0  0  0  0  0  0
   -4.6722   -0.9208    2.2455 H   0  0  0  0  0  0  0  0  0  0  0  0
   -4.3189    1.5581    1.4422 H   0  0  0  0  0  0  0  0  0  0  0  0
   -3.0070    1.3167   -1.9306 H   0  0  0  0  0  0  0  0  0  0  0  0
   -4.3829    0.4385   -1.2498 H   0  0  0  0  0  0  0  0  0  0  0  0
   -2.9324   -0.4586   -1.7457 H   0  0  0  0  0  0  0  0  0  0  0  0
    1.9258    0.7490   -2.6466 H   0  0  0  0  0  0  0  0  0  0  0  0
    0.5797   -0.3820   -2.4103 H   0  0  0  0  0  0  0  0  0  0  0  0
    2.3159   -0.9409   -2.1811 H   0  0  0  0  0  0  0  0  0  0  0  0
  1  2  2  0
  2  3  1  0
  3  4  1  0
  4  5  1  0
  5  6  1  0
  6  7  1  0
  6  8  1  0
  8  9  1  0
  9 10  1  0
 10 11  1  0
 11 12  1  0
 12 13  1  0
 13 14  1  0
 14 15  1  0
 15 16  1  0
 16 17  1  0
 17 18  2  0
 14 19  1  6
  5 20  1  6
  7  2  1  0
 15 10  1  0
 11  5  1  0
 18 14  1  0
  3 21  1  0
  3 22  1  0
  4 23  1  0
  4 24  1  0
  6 25  1  1
  7 26  1  0
  7 27  1  0
  8 28  1  0
  8 29  1  0
  9 30  1  0
  9 31  1  0
 10 32  1  6
 11 33  1  1
 12 34  1  0
 12 35  1  0
 13 36  1  0
 13 37  1  0
 15 38  1  1
 16 39  1  0
 16 40  1  0
 17 41  1  0
 18 42  1  0
 19 43  1  0
 19 44  1  0
 19 45  1  0
 20 46  1  0
 20 47  1  0
 20 48  1  0
M  END
>  <Ligand ID>  (1) 
LIG0000003

>  <Ligand>  (1) 
androstenone

>  <SMILES>  (1) 
O=C1CC[C@]2([C@H](C1)CC[C@@H]1[C@@H]2CC[C@]2([C@H]1CC=C2)C)C

>  <CID>  (1) 
6852393.0

>  <ChEMBL ID>  (1) 
nan

>  <InChiKey>  (1) 
HFVMLYAGWXSTQI-QYXZOKGRSA-N

>  <InChi>  (1) 
InChI=1S/C19H28O/c1-18-9-3-4-16(18)15-6-5-13-12-14(20)7-11-19(13,2)17(15)8-10-18/h3,9,13,15-17H,4-8,10-12H2,1-2H3/t13-,15-,16-,17-,18-,19-/m0/s1

>  <IUPAC Name>  (1) 
(5S,8R,9S,10S,13R,14S)-10,13-dimethyl-1,2,4,5,6,7,8,9,11,12,14,15-dodecahydrocyclopenta[a]phenanthren-3-one

$$$$
