
     RDKit          3D

 52 55  0  0  0  0  0  0  0  0999 V2000
    6.3893    2.8294    0.3377 C   0  0  0  0  0  0  0  0  0  0  0  0
    5.6439    1.6561    0.2461 O   0  0  0  0  0  0  0  0  0  0  0  0
    4.3276    1.4687    0.5977 C   0  0  0  0  0  0  0  0  0  0  0  0
    3.6756    2.4315    1.0559 O   0  0  0  0  0  0  0  0  0  0  0  0
    3.7543    0.1263    0.4130 C   0  0  0  0  0  0  0  0  0  0  0  0
    4.5124   -0.8534   -0.0869 C   0  0  0  0  0  0  0  0  0  0  0  0
    4.0515   -2.1379   -0.2930 O   0  0  0  0  0  0  0  0  0  0  0  0
    2.6919   -2.3852   -0.5130 C   0  0  2  0  0  0  0  0  0  0  0  0
    1.7682   -1.2906   -0.1114 C   0  0  1  0  0  0  0  0  0  0  0  0
    2.3713   -0.2146    0.7604 C   0  0  2  0  0  0  0  0  0  0  0  0
    1.4181    0.9614    0.6757 C   0  0  0  0  0  0  0  0  0  0  0  0
   -0.0130    0.4291    0.4195 C   0  0  0  0  0  0  0  0  0  0  0  0
   -0.1410   -0.1143   -0.8540 N   0  0  0  0  0  0  0  0  0  0  0  0
    1.1784   -0.5902   -1.3193 C   0  0  0  0  0  0  0  0  0  0  0  0
   -1.0678   -1.1237   -1.1630 C   0  0  0  0  0  0  0  0  0  0  0  0
   -2.4741   -0.7447   -1.2282 C   0  0  0  0  0  0  0  0  0  0  0  0
   -3.1911   -0.2534   -0.0772 C   0  0  0  0  0  0  0  0  0  0  0  0
   -3.0399   -0.3436    1.2756 C   0  0  0  0  0  0  0  0  0  0  0  0
   -4.0289    0.2823    1.9420 N   0  0  0  0  0  0  0  0  0  0  0  0
   -4.8661    0.8026    1.0326 C   0  0  0  0  0  0  0  0  0  0  0  0
   -4.3914    0.4993   -0.2166 C   0  0  0  0  0  0  0  0  0  0  0  0
   -5.1087    0.9243   -1.2997 C   0  0  0  0  0  0  0  0  0  0  0  0
   -6.2760    1.6359   -1.2073 C   0  0  0  0  0  0  0  0  0  0  0  0
   -6.7478    1.9377    0.0431 C   0  0  0  0  0  0  0  0  0  0  0  0
   -6.0384    1.5184    1.1480 C   0  0  0  0  0  0  0  0  0  0  0  0
    2.2821   -3.7071    0.1481 C   0  0  0  0  0  0  0  0  0  0  0  0
    5.9520    3.6833   -0.2379 H   0  0  0  0  0  0  0  0  0  0  0  0
    6.5156    3.1952    1.3876 H   0  0  0  0  0  0  0  0  0  0  0  0
    7.4075    2.6226   -0.0996 H   0  0  0  0  0  0  0  0  0  0  0  0
    5.5540   -0.6242   -0.3457 H   0  0  0  0  0  0  0  0  0  0  0  0
    2.5574   -2.5456   -1.6169 H   0  0  0  0  0  0  0  0  0  0  0  0
    0.9436   -1.7665    0.4884 H   0  0  0  0  0  0  0  0  0  0  0  0
    2.3642   -0.5729    1.8265 H   0  0  0  0  0  0  0  0  0  0  0  0
    1.6546    1.6410   -0.1371 H   0  0  0  0  0  0  0  0  0  0  0  0
    1.3582    1.4903    1.6338 H   0  0  0  0  0  0  0  0  0  0  0  0
   -0.6850    1.2646    0.5971 H   0  0  0  0  0  0  0  0  0  0  0  0
   -0.1733   -0.3172    1.2397 H   0  0  0  0  0  0  0  0  0  0  0  0
    1.0495   -1.3512   -2.0986 H   0  0  0  0  0  0  0  0  0  0  0  0
    1.7599    0.2853   -1.6476 H   0  0  0  0  0  0  0  0  0  0  0  0
   -0.9443   -2.0363   -0.4880 H   0  0  0  0  0  0  0  0  0  0  0  0
   -0.8257   -1.6090   -2.1826 H   0  0  0  0  0  0  0  0  0  0  0  0
   -2.5980    0.0645   -2.0437 H   0  0  0  0  0  0  0  0  0  0  0  0
   -3.0908   -1.5866   -1.7253 H   0  0  0  0  0  0  0  0  0  0  0  0
   -2.2525   -0.8602    1.7889 H   0  0  0  0  0  0  0  0  0  0  0  0
   -4.1546    0.3709    2.9765 H   0  0  0  0  0  0  0  0  0  0  0  0
   -4.7329    0.6822   -2.2908 H   0  0  0  0  0  0  0  0  0  0  0  0
   -6.8391    1.9717   -2.0527 H   0  0  0  0  0  0  0  0  0  0  0  0
   -7.6800    2.5022    0.1267 H   0  0  0  0  0  0  0  0  0  0  0  0
   -6.3887    1.7415    2.1556 H   0  0  0  0  0  0  0  0  0  0  0  0
    1.1728   -3.6769    0.2606 H   0  0  0  0  0  0  0  0  0  0  0  0
    2.7838   -3.8018    1.1099 H   0  0  0  0  0  0  0  0  0  0  0  0
    2.6118   -4.5112   -0.5329 H   0  0  0  0  0  0  0  0  0  0  0  0
  1  2  1  0
  2  3  1  0
  3  4  2  0
  3  5  1  0
  5  6  2  0
  6  7  1  0
  7  8  1  0
  8  9  1  0
  9 10  1  0
 10 11  1  0
 11 12  1  0
 12 13  1  0
 13 14  1  0
 13 15  1  0
 15 16  1  0
 16 17  1  0
 17 18  2  0
 18 19  1  0
 19 20  1  0
 20 21  2  0
 21 22  1  0
 22 23  2  0
 23 24  1  0
 24 25  2  0
  8 26  1  0
 10  5  1  0
 21 17  1  0
 14  9  1  0
 25 20  1  0
  1 27  1  0
  1 28  1  0
  1 29  1  0
  6 30  1  0
  8 31  1  6
  9 32  1  1
 10 33  1  1
 11 34  1  0
 11 35  1  0
 12 36  1  0
 12 37  1  0
 14 38  1  0
 14 39  1  0
 15 40  1  0
 15 41  1  0
 16 42  1  0
 16 43  1  0
 18 44  1  0
 19 45  1  0
 22 46  1  0
 23 47  1  0
 24 48  1  0
 25 49  1  0
 26 50  1  0
 26 51  1  0
 26 52  1  0
M  END
>  <Ligand ID>  (1) 
LIG0002268

>  <Ligand>  (1) 
MLS000728582

>  <SMILES>  (1) 
COC(=O)C1=CO[C@H]([C@H]2[C@@H]1CCN(C2)CCc1c[nH]c2c1cccc2)C

>  <CID>  (1) 
23641069.0

>  <ChEMBL ID>  (1) 
nan

>  <InChiKey>  (1) 
NYNOIMNCLKTWCG-WBAXXEDZSA-N

>  <InChi>  (1) 
InChI=1S/C21H26N2O3/c1-14-18-12-23(10-8-17(18)19(13-26-14)21(24)25-2)9-7-15-11-22-20-6-4-3-5-16(15)20/h3-6,11,13-14,17-18,22H,7-10,12H2,1-2H3/t14-,17-,18-/m0/s1

>  <IUPAC Name>  (1) 
methyl (1S,4aS,8aS)-7-[2-(1H-indol-3-yl)ethyl]-1-methyl-1,4a,5,6,8,8a-hexahydropyrano[3,4-c]pyridine-4-carboxylate

$$$$
