
     RDKit          3D

 85 89  0  0  0  0  0  0  0  0999 V2000
   10.4600   -1.1516   -4.8181 C   0  0  0  0  0  0  0  0  0  0  0  0
    9.9427   -1.4978   -3.4382 C   0  0  0  0  0  0  0  0  0  0  0  0
   10.2813   -0.3591   -2.4645 C   0  0  0  0  0  0  0  0  0  0  0  0
    9.7482   -0.7451   -1.1269 C   0  0  0  0  0  0  0  0  0  0  0  0
   10.0046    0.2284   -0.0254 C   0  0  0  0  0  0  0  0  0  0  0  0
    9.4593    1.5944   -0.2040 C   0  0  0  0  0  0  0  0  0  0  0  0
    8.0452    1.7156   -0.3522 N   0  0  0  0  0  0  0  0  0  0  0  0
    7.1685    1.2567    0.6674 C   0  0  0  0  0  0  0  0  0  0  0  0
    7.6566    0.7126    1.7023 O   0  0  0  0  0  0  0  0  0  0  0  0
    5.7716    1.3819    0.5721 N   0  0  0  0  0  0  0  0  0  0  0  0
    4.9470    0.8963    1.6197 C   0  0  0  0  0  0  0  0  0  0  0  0
    4.3610   -0.3450    1.6291 C   0  0  0  0  0  0  0  0  0  0  0  0
    3.5739   -0.7659    2.6788 C   0  0  0  0  0  0  0  0  0  0  0  0
    3.3790    0.0824    3.7337 C   0  0  0  0  0  0  0  0  0  0  0  0
    3.9740    1.3489    3.7344 C   0  0  0  0  0  0  0  0  0  0  0  0
    4.7608    1.7792    2.6899 C   0  0  0  0  0  0  0  0  0  0  0  0
    2.3900   -0.2943    5.1222 S   0  0  0  0  0  0  0  0  0  0  0  0
    2.1000   -1.7857    5.1292 O   0  0  0  0  0  0  0  0  0  0  0  0
    3.1440   -0.0364    6.4098 O   0  0  0  0  0  0  0  0  0  0  0  0
    0.9442    0.5861    5.0679 N   0  0  0  0  0  0  0  0  0  0  0  0
   -0.0639    0.5352    4.0890 C   0  0  0  0  0  0  0  0  0  0  0  0
   -1.3811    0.4555    4.5626 C   0  0  0  0  0  0  0  0  0  0  0  0
   -2.4313    0.4127    3.6700 C   0  0  0  0  0  0  0  0  0  0  0  0
   -2.2059    0.4470    2.2862 C   0  0  0  0  0  0  0  0  0  0  0  0
   -0.9045    0.5247    1.8034 C   0  0  0  0  0  0  0  0  0  0  0  0
    0.1185    0.5669    2.7323 C   0  0  0  0  0  0  0  0  0  0  0  0
   -3.3141    0.4173    1.3286 C   0  0  0  0  0  0  0  0  0  0  0  0
   -4.4897    1.0408    1.7556 C   0  0  0  0  0  0  0  0  0  0  0  0
   -5.5877    1.0622    0.9205 C   0  0  0  0  0  0  0  0  0  0  0  0
   -5.5207    0.4650   -0.3404 C   0  0  0  0  0  0  0  0  0  0  0  0
   -4.3395   -0.1402   -0.7210 C   0  0  0  0  0  0  0  0  0  0  0  0
   -3.2174   -0.1819    0.0913 C   0  0  0  0  0  0  0  0  0  0  0  0
   -6.7231    0.5255   -1.1971 C   0  0  0  0  0  0  0  0  0  0  0  0
   -7.6643   -0.6070   -0.9254 C   0  0  0  0  0  0  0  0  0  0  0  0
   -7.1521   -1.9151   -1.1248 N   0  0  0  0  0  0  0  0  0  0  0  0
   -7.3802   -2.5278   -2.3890 C   0  0  0  0  0  0  0  0  0  0  0  0
   -8.8161   -2.6697   -2.7852 C   0  0  0  0  0  0  0  0  0  0  0  0
   -9.4948   -1.3758   -2.4788 C   0  0  0  0  0  0  0  0  0  0  0  0
   -8.9511   -0.4369   -1.6196 C   0  0  0  0  0  0  0  0  0  0  0  0
   -9.6542    0.7279   -1.3944 C   0  0  0  0  0  0  0  0  0  0  0  0
  -10.8632    0.9741   -1.9932 C   0  0  0  0  0  0  0  0  0  0  0  0
  -11.5243    2.1727   -1.7229 O   0  0  0  0  0  0  0  0  0  0  0  0
  -11.4325    0.0384   -2.8660 C   0  0  0  0  0  0  0  0  0  0  0  0
  -10.7181   -1.1449   -3.0951 C   0  0  0  0  0  0  0  0  0  0  0  0
  -12.6575    0.2837   -3.4747 O   0  0  0  0  0  0  0  0  0  0  0  0
   11.3157   -0.4641   -4.7949 H   0  0  0  0  0  0  0  0  0  0  0  0
   10.6886   -2.0957   -5.3508 H   0  0  0  0  0  0  0  0  0  0  0  0
    9.6225   -0.6829   -5.4044 H   0  0  0  0  0  0  0  0  0  0  0  0
    8.8579   -1.6758   -3.5034 H   0  0  0  0  0  0  0  0  0  0  0  0
   10.4207   -2.4592   -3.1319 H   0  0  0  0  0  0  0  0  0  0  0  0
    9.7834    0.5283   -2.9022 H   0  0  0  0  0  0  0  0  0  0  0  0
   11.3534   -0.1627   -2.4249 H   0  0  0  0  0  0  0  0  0  0  0  0
    8.6675   -1.0388   -1.2084 H   0  0  0  0  0  0  0  0  0  0  0  0
   10.2672   -1.7096   -0.8527 H   0  0  0  0  0  0  0  0  0  0  0  0
   11.1286    0.3371    0.0464 H   0  0  0  0  0  0  0  0  0  0  0  0
    9.7320   -0.2460    0.9508 H   0  0  0  0  0  0  0  0  0  0  0  0
    9.9560    2.0297   -1.1184 H   0  0  0  0  0  0  0  0  0  0  0  0
    9.8341    2.2233    0.6363 H   0  0  0  0  0  0  0  0  0  0  0  0
    7.5743    2.1439   -1.2012 H   0  0  0  0  0  0  0  0  0  0  0  0
    5.3136    1.8339   -0.2756 H   0  0  0  0  0  0  0  0  0  0  0  0
    4.5283   -1.0105    0.7744 H   0  0  0  0  0  0  0  0  0  0  0  0
    3.1099   -1.7334    2.6906 H   0  0  0  0  0  0  0  0  0  0  0  0
    3.8412    2.0425    4.5533 H   0  0  0  0  0  0  0  0  0  0  0  0
    5.2209    2.7673    2.6927 H   0  0  0  0  0  0  0  0  0  0  0  0
    0.7612    1.2666    5.8707 H   0  0  0  0  0  0  0  0  0  0  0  0
   -1.6038    0.4279    5.6238 H   0  0  0  0  0  0  0  0  0  0  0  0
   -3.4455    0.3506    4.0640 H   0  0  0  0  0  0  0  0  0  0  0  0
   -0.6929    0.5572    0.7302 H   0  0  0  0  0  0  0  0  0  0  0  0
    1.1210    0.6303    2.3413 H   0  0  0  0  0  0  0  0  0  0  0  0
   -4.5515    1.5095    2.7422 H   0  0  0  0  0  0  0  0  0  0  0  0
   -6.4879    1.5518    1.2789 H   0  0  0  0  0  0  0  0  0  0  0  0
   -4.2643   -0.5997   -1.6734 H   0  0  0  0  0  0  0  0  0  0  0  0
   -2.2908   -0.6613   -0.1973 H   0  0  0  0  0  0  0  0  0  0  0  0
   -6.3874    0.5026   -2.2599 H   0  0  0  0  0  0  0  0  0  0  0  0
   -7.2445    1.4735   -0.9637 H   0  0  0  0  0  0  0  0  0  0  0  0
   -7.9052   -0.5311    0.1811 H   0  0  0  0  0  0  0  0  0  0  0  0
   -6.2016   -2.0796   -0.7768 H   0  0  0  0  0  0  0  0  0  0  0  0
   -6.7976   -2.0324   -3.1867 H   0  0  0  0  0  0  0  0  0  0  0  0
   -6.9685   -3.5709   -2.3198 H   0  0  0  0  0  0  0  0  0  0  0  0
   -9.2978   -3.4442   -2.1434 H   0  0  0  0  0  0  0  0  0  0  0  0
   -8.8689   -2.9227   -3.8490 H   0  0  0  0  0  0  0  0  0  0  0  0
   -9.2657    1.4960   -0.7217 H   0  0  0  0  0  0  0  0  0  0  0  0
  -12.1341    2.2056   -0.8959 H   0  0  0  0  0  0  0  0  0  0  0  0
  -11.1329   -1.9083   -3.7759 H   0  0  0  0  0  0  0  0  0  0  0  0
  -13.3000    0.8997   -2.9629 H   0  0  0  0  0  0  0  0  0  0  0  0
  1  2  1  0
  2  3  1  0
  3  4  1  0
  4  5  1  0
  5  6  1  0
  6  7  1  0
  7  8  1  0
  8  9  2  0
  8 10  1  0
 10 11  1  0
 11 12  2  0
 12 13  1  0
 13 14  2  0
 14 15  1  0
 15 16  2  0
 14 17  1  0
 17 18  2  0
 17 19  2  0
 17 20  1  0
 20 21  1  0
 21 22  2  0
 22 23  1  0
 23 24  2  0
 24 25  1  0
 25 26  2  0
 24 27  1  0
 27 28  2  0
 28 29  1  0
 29 30  2  0
 30 31  1  0
 31 32  2  0
 30 33  1  0
 33 34  1  0
 34 35  1  0
 35 36  1  0
 36 37  1  0
 37 38  1  0
 38 39  2  0
 39 40  1  0
 40 41  2  0
 41 42  1  0
 41 43  1  0
 43 44  2  0
 43 45  1  0
 16 11  1  0
 26 21  1  0
 32 27  1  0
 39 34  1  0
 44 38  1  0
  1 46  1  0
  1 47  1  0
  1 48  1  0
  2 49  1  0
  2 50  1  0
  3 51  1  0
  3 52  1  0
  4 53  1  0
  4 54  1  0
  5 55  1  0
  5 56  1  0
  6 57  1  0
  6 58  1  0
  7 59  1  0
 10 60  1  0
 12 61  1  0
 13 62  1  0
 15 63  1  0
 16 64  1  0
 20 65  1  0
 22 66  1  0
 23 67  1  0
 25 68  1  0
 26 69  1  0
 28 70  1  0
 29 71  1  0
 31 72  1  0
 32 73  1  0
 33 74  1  0
 33 75  1  0
 34 76  1  0
 35 77  1  0
 36 78  1  0
 36 79  1  0
 37 80  1  0
 37 81  1  0
 40 82  1  0
 42 83  1  0
 44 84  1  0
 45 85  1  0
M  END
>  <Ligand ID>  (1) 
LIG0004309

>  <Ligand>  (1) 
CHEMBL75604

>  <SMILES>  (1) 
CCCCCCNC(=O)Nc1ccc(cc1)S(=O)(=O)Nc1ccc(cc1)c1ccc(cc1)CC1NCCc2c1cc(O)c(c2)O

>  <CID>  (1) 
9853471.0

>  <ChEMBL ID>  (1) 
nan

>  <InChiKey>  (1) 
GNEIFZWDMCOTFS-UHFFFAOYSA-N

>  <InChi>  (1) 
InChI=1S/C35H40N4O5S/c1-2-3-4-5-19-37-35(42)38-28-14-16-30(17-15-28)45(43,44)39-29-12-10-26(11-13-29)25-8-6-24(7-9-25)21-32-31-23-34(41)33(40)22-27(31)18-20-36-32/h6-17,22-23,32,36,39-41H,2-5,18-21H2,1H3,(H2,37,38,42)

>  <IUPAC Name>  (1) 
1-[4-[[4-[4-[(6,7-dihydroxy-1,2,3,4-tetrahydroisoquinolin-1-yl)methyl]phenyl]phenyl]sulfamoyl]phenyl]-3-hexylurea

$$$$
