
     RDKit          3D

 12 11  0  0  0  0  0  0  0  0999 V2000
    1.9540    0.0176    0.1745 C   0  0  0  0  0  0  0  0  0  0  0  0
    0.5022   -0.0321    0.5622 C   0  0  0  0  0  0  0  0  0  0  0  0
    0.1396   -0.1144    1.7521 O   0  0  0  0  0  0  0  0  0  0  0  0
   -0.4799    0.0200   -0.5174 C   0  0  0  0  0  0  0  0  0  0  0  0
   -0.1637    0.1030   -1.7287 O   0  0  0  0  0  0  0  0  0  0  0  0
   -1.9324   -0.0265   -0.1851 C   0  0  0  0  0  0  0  0  0  0  0  0
    2.3369   -1.0019    0.1230 H   0  0  0  0  0  0  0  0  0  0  0  0
    2.0471    0.5206   -0.8278 H   0  0  0  0  0  0  0  0  0  0  0  0
    2.4566    0.6332    0.9721 H   0  0  0  0  0  0  0  0  0  0  0  0
   -2.0809    0.1991    0.8858 H   0  0  0  0  0  0  0  0  0  0  0  0
   -2.2900   -1.0308   -0.4179 H   0  0  0  0  0  0  0  0  0  0  0  0
   -2.4894    0.7123   -0.7928 H   0  0  0  0  0  0  0  0  0  0  0  0
  1  2  1  0
  2  3  2  0
  2  4  1  0
  4  5  2  0
  4  6  1  0
  1  7  1  0
  1  8  1  0
  1  9  1  0
  6 10  1  0
  6 11  1  0
  6 12  1  0
M  END
>  <Ligand ID>  (1) 
LIG0000019

>  <Ligand>  (1) 
diacetyl

>  <SMILES>  (1) 
CC(=O)C(=O)C

>  <CID>  (1) 
650.0

>  <ChEMBL ID>  (1) 
nan

>  <InChiKey>  (1) 
QSJXEFYPDANLFS-UHFFFAOYSA-N

>  <InChi>  (1) 
InChI=1S/C4H6O2/c1-3(5)4(2)6/h1-2H3

>  <IUPAC Name>  (1) 
butane-2,3-dione

$$$$
