
     RDKit          3D

 51 54  0  0  0  0  0  0  0  0999 V2000
    2.1320    1.9061   -0.9360 O   0  0  0  0  0  0  0  0  0  0  0  0
    2.1085    0.8474   -0.2633 C   0  0  0  0  0  0  0  0  0  0  0  0
    3.0674   -0.2075   -0.5740 C   0  0  0  0  0  0  0  0  0  0  0  0
    3.9920   -0.1085   -1.5446 N   0  0  0  0  0  0  0  0  0  0  0  0
    4.7308   -1.2278   -1.5927 C   0  0  0  0  0  0  0  0  0  0  0  0
    4.2368   -2.0599   -0.6014 C   0  0  0  0  0  0  0  0  0  0  0  0
    3.1882   -1.4330    0.0508 C   0  0  0  0  0  0  0  0  0  0  0  0
    4.8706   -3.6418   -0.2612 S   0  0  0  0  0  0  0  0  0  0  0  0
    3.8398   -4.6264    0.1694 O   0  0  0  0  0  0  0  0  0  0  0  0
    5.5561   -4.1949   -1.4903 O   0  0  0  0  0  0  0  0  0  0  0  0
    6.1270   -3.4146    1.0006 C   0  0  0  0  0  0  0  0  0  0  0  0
    1.1467    0.7223    0.7749 N   0  0  0  0  0  0  0  0  0  0  0  0
    0.2689    1.8226    0.9787 C   0  0  0  0  0  0  0  0  0  0  0  0
    0.5060    2.8701    1.7927 N   0  0  0  0  0  0  0  0  0  0  0  0
   -0.5438    3.7087    1.7297 C   0  0  0  0  0  0  0  0  0  0  0  0
   -1.4529    3.1715    0.8585 C   0  0  0  0  0  0  0  0  0  0  0  0
   -0.9325    2.0025    0.4026 N   0  0  0  0  0  0  0  0  0  0  0  0
   -1.6418    1.1705   -0.5445 C   0  0  0  0  0  0  0  0  0  0  0  0
   -2.5264    0.1583    0.1510 C   0  0  0  0  0  0  0  0  0  0  0  0
   -3.2029   -0.6238   -0.8647 N   0  0  0  0  0  0  0  0  0  0  0  0
   -2.3205   -1.4702   -1.6022 C   0  0  0  0  0  0  0  0  0  0  0  0
   -3.0745   -2.7492   -1.8905 C   0  0  0  0  0  0  0  0  0  0  0  0
   -4.1334   -2.8208   -0.8226 C   0  0  0  0  0  0  0  0  0  0  0  0
   -4.2934   -1.4085   -0.3810 C   0  0  0  0  0  0  0  0  0  0  0  0
   -2.6414    3.8399    0.6042 C   0  0  0  0  0  0  0  0  0  0  0  0
   -2.9624    5.0402    1.1937 C   0  0  0  0  0  0  0  0  0  0  0  0
   -2.0446    5.5827    2.0729 C   0  0  0  0  0  0  0  0  0  0  0  0
   -0.8456    4.9147    2.3336 C   0  0  0  0  0  0  0  0  0  0  0  0
    4.1475    0.6976   -2.1853 H   0  0  0  0  0  0  0  0  0  0  0  0
    5.5545   -1.4711   -2.2560 H   0  0  0  0  0  0  0  0  0  0  0  0
    2.5805   -1.7944    0.8691 H   0  0  0  0  0  0  0  0  0  0  0  0
    6.1075   -4.3229    1.6279 H   0  0  0  0  0  0  0  0  0  0  0  0
    7.1486   -3.3807    0.5450 H   0  0  0  0  0  0  0  0  0  0  0  0
    5.9475   -2.4910    1.5794 H   0  0  0  0  0  0  0  0  0  0  0  0
    1.0999   -0.1532    1.3577 H   0  0  0  0  0  0  0  0  0  0  0  0
   -0.9019    0.5722   -1.1453 H   0  0  0  0  0  0  0  0  0  0  0  0
   -2.2222    1.7549   -1.2874 H   0  0  0  0  0  0  0  0  0  0  0  0
   -3.2026    0.5801    0.8919 H   0  0  0  0  0  0  0  0  0  0  0  0
   -1.8806   -0.5815    0.7107 H   0  0  0  0  0  0  0  0  0  0  0  0
   -2.0845   -0.9856   -2.5865 H   0  0  0  0  0  0  0  0  0  0  0  0
   -1.3994   -1.6452   -1.0231 H   0  0  0  0  0  0  0  0  0  0  0  0
   -3.5901   -2.6603   -2.8803 H   0  0  0  0  0  0  0  0  0  0  0  0
   -2.4225   -3.6462   -1.9153 H   0  0  0  0  0  0  0  0  0  0  0  0
   -3.7835   -3.4968   -0.0132 H   0  0  0  0  0  0  0  0  0  0  0  0
   -5.0538   -3.2482   -1.2669 H   0  0  0  0  0  0  0  0  0  0  0  0
   -4.2667   -1.3212    0.7441 H   0  0  0  0  0  0  0  0  0  0  0  0
   -5.3014   -1.0172   -0.7032 H   0  0  0  0  0  0  0  0  0  0  0  0
   -3.3375    3.4095   -0.0746 H   0  0  0  0  0  0  0  0  0  0  0  0
   -3.8835    5.5676    1.0037 H   0  0  0  0  0  0  0  0  0  0  0  0
   -2.2863    6.5269    2.5425 H   0  0  0  0  0  0  0  0  0  0  0  0
   -0.1240    5.3362    3.0218 H   0  0  0  0  0  0  0  0  0  0  0  0
  1  2  2  0
  2  3  1  0
  3  4  1  0
  4  5  1  0
  5  6  2  0
  6  7  1  0
  6  8  1  0
  8  9  2  0
  8 10  2  0
  8 11  1  0
  2 12  1  0
 12 13  1  0
 13 14  2  0
 14 15  1  0
 15 16  2  0
 16 17  1  0
 17 18  1  0
 18 19  1  0
 19 20  1  0
 20 21  1  0
 21 22  1  0
 22 23  1  0
 23 24  1  0
 16 25  1  0
 25 26  2  0
 26 27  1  0
 27 28  2  0
  7  3  2  0
 17 13  1  0
 24 20  1  0
 28 15  1  0
  4 29  1  0
  5 30  1  0
  7 31  1  0
 11 32  1  0
 11 33  1  0
 11 34  1  0
 12 35  1  0
 18 36  1  0
 18 37  1  0
 19 38  1  0
 19 39  1  0
 21 40  1  0
 21 41  1  0
 22 42  1  0
 22 43  1  0
 23 44  1  0
 23 45  1  0
 24 46  1  0
 24 47  1  0
 25 48  1  0
 26 49  1  0
 27 50  1  0
 28 51  1  0
M  END
>  <Ligand ID>  (1) 
LIG0004917

>  <Ligand>  (1) 
CHEMBL3394004

>  <SMILES>  (1) 
O=C(c1[nH]cc(c1)S(=O)(=O)C)Nc1nc2c(n1CCN1CCCC1)cccc2

>  <CID>  (1) 
118725854.0

>  <ChEMBL ID>  (1) 
nan

>  <InChiKey>  (1) 
RYHVNQRCDTWLKR-UHFFFAOYSA-N

>  <InChi>  (1) 
InChI=1S/C19H23N5O3S/c1-28(26,27)14-12-16(20-13-14)18(25)22-19-21-15-6-2-3-7-17(15)24(19)11-10-23-8-4-5-9-23/h2-3,6-7,12-13,20H,4-5,8-11H2,1H3,(H,21,22,25)

>  <IUPAC Name>  (1) 
4-methylsulfonyl-N-[1-(2-pyrrolidin-1-ylethyl)benzimidazol-2-yl]-1H-pyrrole-2-carboxamide

$$$$
