
     RDKit          3D

 51 57  0  0  0  0  0  0  0  0999 V2000
   -0.4721    4.6891    1.0581 O   0  0  0  0  0  0  0  0  0  0  0  0
   -1.0004    3.4137    1.1579 C   0  0  0  0  0  0  0  0  0  0  0  0
   -1.8144    3.0296    2.2278 C   0  0  0  0  0  0  0  0  0  0  0  0
   -2.3333    1.7326    2.3003 C   0  0  0  0  0  0  0  0  0  0  0  0
   -2.0307    0.8340    1.2993 C   0  0  0  0  0  0  0  0  0  0  0  0
   -1.2383    1.2491    0.2814 C   0  0  0  0  0  0  0  0  0  0  0  0
   -0.7052    2.5055    0.1631 C   0  0  0  0  0  0  0  0  0  0  0  0
    0.0306    2.4955   -1.0102 O   0  0  0  0  0  0  0  0  0  0  0  0
    0.3575    1.1355   -1.3494 C   0  0  2  0  0  0  0  0  0  0  0  0
   -0.8311    0.3993   -0.8599 C   0  0  2  0  0  0  0  0  0  0  0  0
   -1.9741    0.3876   -1.8512 C   0  0  0  0  0  0  0  0  0  0  0  0
   -2.6022   -0.9649   -2.0131 C   0  0  0  0  0  0  0  0  0  0  0  0
   -2.9115   -1.6331   -0.7799 N   0  0  0  0  0  0  0  0  0  0  0  0
   -1.9336   -1.4161    0.2567 C   0  0  0  0  0  0  0  0  0  0  0  0
   -2.5408   -0.5632    1.3044 C   0  0  0  0  0  0  0  0  0  0  0  0
   -0.6089   -0.9561   -0.2848 C   0  0  1  0  0  0  0  0  0  0  0  0
   -0.1373   -1.9203   -1.2438 N   0  0  0  0  0  0  0  0  0  0  0  0
    0.4035   -0.8948    0.8222 C   0  0  0  0  0  0  0  0  0  0  0  0
    1.6206   -0.2257    0.2934 C   0  0  0  0  0  0  0  0  0  0  0  0
    1.6182    0.7067   -0.7011 C   0  0  0  0  0  0  0  0  0  0  0  0
    2.8710    1.1083   -0.9393 N   0  0  0  0  0  0  0  0  0  0  0  0
    3.7176    0.4594   -0.1191 C   0  0  0  0  0  0  0  0  0  0  0  0
    2.9602   -0.3802    0.6612 C   0  0  0  0  0  0  0  0  0  0  0  0
    3.6045   -1.1665    1.5973 C   0  0  0  0  0  0  0  0  0  0  0  0
    4.9898   -1.1034    1.7402 C   0  0  0  0  0  0  0  0  0  0  0  0
    5.7160   -0.2485    0.9388 C   0  0  0  0  0  0  0  0  0  0  0  0
    5.0872    0.5443   -0.0018 C   0  0  0  0  0  0  0  0  0  0  0  0
   -3.1007   -3.0414   -1.0680 C   0  0  0  0  0  0  0  0  0  0  0  0
   -0.8792    5.3570    0.4246 H   0  0  0  0  0  0  0  0  0  0  0  0
   -2.0471    3.7516    3.0155 H   0  0  0  0  0  0  0  0  0  0  0  0
   -2.9678    1.4314    3.1334 H   0  0  0  0  0  0  0  0  0  0  0  0
    0.4136    0.9986   -2.4564 H   0  0  0  0  0  0  0  0  0  0  0  0
   -2.7350    1.1347   -1.6004 H   0  0  0  0  0  0  0  0  0  0  0  0
   -1.5544    0.6840   -2.8354 H   0  0  0  0  0  0  0  0  0  0  0  0
   -3.5707   -0.8080   -2.5391 H   0  0  0  0  0  0  0  0  0  0  0  0
   -2.0180   -1.6278   -2.7165 H   0  0  0  0  0  0  0  0  0  0  0  0
   -1.7320   -2.4286    0.7144 H   0  0  0  0  0  0  0  0  0  0  0  0
   -2.4343   -1.0153    2.3247 H   0  0  0  0  0  0  0  0  0  0  0  0
   -3.6437   -0.4631    1.1721 H   0  0  0  0  0  0  0  0  0  0  0  0
    0.5366   -1.3950   -1.8661 H   0  0  0  0  0  0  0  0  0  0  0  0
    0.4371   -2.6694   -0.7961 H   0  0  0  0  0  0  0  0  0  0  0  0
    0.6926   -1.9065    1.1641 H   0  0  0  0  0  0  0  0  0  0  0  0
    0.0980   -0.3391    1.7118 H   0  0  0  0  0  0  0  0  0  0  0  0
    3.1666    1.8213   -1.6546 H   0  0  0  0  0  0  0  0  0  0  0  0
    3.0264   -1.8375    2.2250 H   0  0  0  0  0  0  0  0  0  0  0  0
    5.5261   -1.7009    2.4585 H   0  0  0  0  0  0  0  0  0  0  0  0
    6.8091   -0.1606    1.0108 H   0  0  0  0  0  0  0  0  0  0  0  0
    5.6596    1.2220   -0.6375 H   0  0  0  0  0  0  0  0  0  0  0  0
   -2.1779   -3.6205   -0.8504 H   0  0  0  0  0  0  0  0  0  0  0  0
   -3.4491   -3.1843   -2.1032 H   0  0  0  0  0  0  0  0  0  0  0  0
   -3.8986   -3.4205   -0.3926 H   0  0  0  0  0  0  0  0  0  0  0  0
  1  2  1  0
  2  3  2  0
  3  4  1  0
  4  5  2  0
  5  6  1  0
  6  7  2  0
  7  8  1  0
  8  9  1  0
  9 10  1  0
 10 11  1  6
 11 12  1  0
 12 13  1  0
 13 14  1  0
 14 15  1  0
 14 16  1  0
 16 17  1  6
 16 18  1  0
 18 19  1  0
 19 20  2  0
 20 21  1  0
 21 22  1  0
 22 23  2  0
 23 24  1  0
 24 25  2  0
 25 26  1  0
 26 27  2  0
 13 28  1  0
  7  2  1  0
 20  9  1  0
 27 22  1  0
 15  5  1  0
 23 19  1  0
 10  6  1  0
 16 10  1  0
  1 29  1  0
  3 30  1  0
  4 31  1  0
  9 32  1  6
 11 33  1  0
 11 34  1  0
 12 35  1  0
 12 36  1  0
 14 37  1  0
 15 38  1  0
 15 39  1  0
 17 40  1  0
 17 41  1  0
 18 42  1  0
 18 43  1  0
 21 44  1  0
 24 45  1  0
 25 46  1  0
 26 47  1  0
 27 48  1  0
 28 49  1  0
 28 50  1  0
 28 51  1  0
M  END
>  <Ligand ID>  (1) 
LIG0004606

>  <Ligand>  (1) 
CHEMBL2113376

>  <SMILES>  (1) 
Oc1ccc2c3c1O[C@@H]1[C@@]43CCN(C(C2)[C@]4(N)Cc2c1[nH]c1c2cccc1)C

>  <CID>  (1) 
71461667.0

>  <ChEMBL ID>  (1) 
nan

>  <InChiKey>  (1) 
WWWFZTYANOYXAV-NHHVUSELSA-N

>  <InChi>  (1) 
InChI=1S/C23H23N3O2/c1-26-9-8-22-18-12-6-7-16(27)20(18)28-21(22)19-14(11-23(22,24)17(26)10-12)13-4-2-3-5-15(13)25-19/h2-7,17,21,25,27H,8-11,24H2,1H3/t17?,21-,22-,23+/m0/s1

>  <IUPAC Name>  (1) 
(1R,2S,13R)-2-amino-22-methyl-14-oxa-11,22-diazaheptacyclo[13.9.1.01,13.02,21.04,12.05,10.019,25]pentacosa-4(12),5,7,9,15,17,19(25)-heptaen-16-ol

$$$$
