
     RDKit          3D

 79 81  0  0  0  0  0  0  0  0999 V2000
   -2.8577   -2.6488   -3.7539 O   0  0  0  0  0  0  0  0  0  0  0  0
   -4.1222   -3.1889   -3.5290 C   0  0  0  0  0  0  0  0  0  0  0  0
   -4.5927   -2.6987   -2.2048 C   0  0  0  0  0  0  0  0  0  0  0  0
   -5.5455   -1.6989   -2.0958 C   0  0  0  0  0  0  0  0  0  0  0  0
   -6.0040   -1.2257   -0.8852 C   0  0  0  0  0  0  0  0  0  0  0  0
   -5.4951   -1.7674    0.2724 C   0  0  0  0  0  0  0  0  0  0  0  0
   -4.5484   -2.7601    0.1959 C   0  0  0  0  0  0  0  0  0  0  0  0
   -4.0958   -3.2275   -1.0193 C   0  0  0  0  0  0  0  0  0  0  0  0
   -3.1364   -4.2345   -1.0444 O   0  0  0  0  0  0  0  0  0  0  0  0
   -7.0337   -0.1547   -0.8833 C   0  0  2  0  0  0  0  0  0  0  0  0
   -6.3369    1.1392   -0.5181 C   0  0  0  0  0  0  0  0  0  0  0  0
   -5.7624    0.9782    0.7805 N   0  0  0  0  0  0  0  0  0  0  0  0
   -5.0714    2.1029    1.3112 C   0  0  0  0  0  0  0  0  0  0  0  0
   -3.8036    2.4925    0.6421 C   0  0  0  0  0  0  0  0  0  0  0  0
   -2.7375    1.4071    0.6516 C   0  0  0  0  0  0  0  0  0  0  0  0
   -1.5332    1.9533   -0.0436 C   0  0  0  0  0  0  0  0  0  0  0  0
   -0.3738    0.9581   -0.1111 C   0  0  0  0  0  0  0  0  0  0  0  0
    0.0767    0.5403    1.2403 C   0  0  0  0  0  0  0  0  0  0  0  0
    1.0920   -0.2923    1.4245 O   0  0  0  0  0  0  0  0  0  0  0  0
    1.1805   -1.5660    1.0639 C   0  0  0  0  0  0  0  0  0  0  0  0
    1.1336   -1.9687   -0.3565 C   0  0  0  0  0  0  0  0  0  0  0  0
    2.1008   -1.3542   -1.2888 C   0  0  0  0  0  0  0  0  0  0  0  0
    3.5485   -1.5551   -1.1213 C   0  0  0  0  0  0  0  0  0  0  0  0
    4.2237   -1.0965    0.0768 C   0  0  0  0  0  0  0  0  0  0  0  0
    4.6009   -1.8404    1.1660 C   0  0  0  0  0  0  0  0  0  0  0  0
    5.2386   -1.3320    2.2720 C   0  0  0  0  0  0  0  0  0  0  0  0
    5.5291    0.0140    2.3121 C   0  0  0  0  0  0  0  0  0  0  0  0
    5.1715    0.8156    1.2392 C   0  0  0  0  0  0  0  0  0  0  0  0
    4.5358    0.2714    0.1520 C   0  0  0  0  0  0  0  0  0  0  0  0
    5.5069    2.2552    1.3445 C   0  0  0  0  0  0  0  0  0  0  0  0
    6.8455    2.5066    0.8439 N   0  0  0  0  0  0  0  0  0  0  0  0
    7.9304    2.4570    1.6487 C   0  0  0  0  0  0  0  0  0  0  0  0
    9.0608    2.7349    0.9200 C   0  0  0  0  0  0  0  0  0  0  0  0
    8.6191    2.9521   -0.3448 N   0  0  0  0  0  0  0  0  0  0  0  0
    7.2702    2.8114   -0.3835 C   0  0  0  0  0  0  0  0  0  0  0  0
    6.5251    2.9419   -1.3948 O   0  0  0  0  0  0  0  0  0  0  0  0
   10.3744    2.7810    1.3885 O   0  0  0  0  0  0  0  0  0  0  0  0
   -8.0388   -0.4466    0.0537 O   0  0  0  0  0  0  0  0  0  0  0  0
   -2.8785   -1.6712   -3.6876 H   0  0  0  0  0  0  0  0  0  0  0  0
   -4.0801   -4.2959   -3.5679 H   0  0  0  0  0  0  0  0  0  0  0  0
   -4.7845   -2.7537   -4.2985 H   0  0  0  0  0  0  0  0  0  0  0  0
   -5.9336   -1.2844   -3.0174 H   0  0  0  0  0  0  0  0  0  0  0  0
   -5.8188   -1.4363    1.2300 H   0  0  0  0  0  0  0  0  0  0  0  0
   -4.1624   -3.1709    1.1409 H   0  0  0  0  0  0  0  0  0  0  0  0
   -2.5065   -4.3597   -0.2701 H   0  0  0  0  0  0  0  0  0  0  0  0
   -7.5555   -0.0963   -1.8635 H   0  0  0  0  0  0  0  0  0  0  0  0
   -7.1055    1.9419   -0.5435 H   0  0  0  0  0  0  0  0  0  0  0  0
   -5.6023    1.3198   -1.3221 H   0  0  0  0  0  0  0  0  0  0  0  0
   -6.5870    0.8149    1.4375 H   0  0  0  0  0  0  0  0  0  0  0  0
   -5.6967    3.0116    1.4134 H   0  0  0  0  0  0  0  0  0  0  0  0
   -4.7989    1.8323    2.3700 H   0  0  0  0  0  0  0  0  0  0  0  0
   -3.9161    2.9477   -0.3602 H   0  0  0  0  0  0  0  0  0  0  0  0
   -3.3580    3.3124    1.2813 H   0  0  0  0  0  0  0  0  0  0  0  0
   -3.0550    0.4756    0.1860 H   0  0  0  0  0  0  0  0  0  0  0  0
   -2.5011    1.2652    1.7449 H   0  0  0  0  0  0  0  0  0  0  0  0
   -1.1183    2.8399    0.4729 H   0  0  0  0  0  0  0  0  0  0  0  0
   -1.7832    2.2292   -1.0787 H   0  0  0  0  0  0  0  0  0  0  0  0
   -0.5991    0.1885   -0.8376 H   0  0  0  0  0  0  0  0  0  0  0  0
    0.4695    1.5642   -0.5570 H   0  0  0  0  0  0  0  0  0  0  0  0
   -0.8737    0.0860    1.7283 H   0  0  0  0  0  0  0  0  0  0  0  0
    0.2348    1.4506    1.9046 H   0  0  0  0  0  0  0  0  0  0  0  0
    0.2513   -2.1142    1.5915 H   0  0  0  0  0  0  0  0  0  0  0  0
    2.0054   -2.0778    1.6145 H   0  0  0  0  0  0  0  0  0  0  0  0
    0.0871   -1.9014   -0.7465 H   0  0  0  0  0  0  0  0  0  0  0  0
    1.2679   -3.1297   -0.4030 H   0  0  0  0  0  0  0  0  0  0  0  0
    1.8544   -1.6558   -2.3709 H   0  0  0  0  0  0  0  0  0  0  0  0
    1.9154   -0.2243   -1.3639 H   0  0  0  0  0  0  0  0  0  0  0  0
    3.7800   -2.6692   -1.2407 H   0  0  0  0  0  0  0  0  0  0  0  0
    4.0405   -1.0349   -2.0187 H   0  0  0  0  0  0  0  0  0  0  0  0
    4.3715   -2.9010    1.1326 H   0  0  0  0  0  0  0  0  0  0  0  0
    5.4993   -2.0057    3.0908 H   0  0  0  0  0  0  0  0  0  0  0  0
    6.0335    0.4389    3.1799 H   0  0  0  0  0  0  0  0  0  0  0  0
    4.2766    0.9344   -0.6588 H   0  0  0  0  0  0  0  0  0  0  0  0
    4.7508    2.8782    0.8019 H   0  0  0  0  0  0  0  0  0  0  0  0
    5.3994    2.5573    2.4148 H   0  0  0  0  0  0  0  0  0  0  0  0
    7.9405    2.2370    2.7015 H   0  0  0  0  0  0  0  0  0  0  0  0
    9.1996    3.1900   -1.1735 H   0  0  0  0  0  0  0  0  0  0  0  0
   10.7396    2.2030    2.1114 H   0  0  0  0  0  0  0  0  0  0  0  0
   -8.8771    0.0082   -0.2277 H   0  0  0  0  0  0  0  0  0  0  0  0
  1  2  1  0
  2  3  1  0
  3  4  2  0
  4  5  1  0
  5  6  2  0
  6  7  1  0
  7  8  2  0
  8  9  1  0
  5 10  1  0
 10 11  1  0
 11 12  1  0
 12 13  1  0
 13 14  1  0
 14 15  1  0
 15 16  1  0
 16 17  1  0
 17 18  1  0
 18 19  1  0
 19 20  1  0
 20 21  1  0
 21 22  1  0
 22 23  1  0
 23 24  1  0
 24 25  2  0
 25 26  1  0
 26 27  2  0
 27 28  1  0
 28 29  2  0
 28 30  1  0
 30 31  1  0
 31 32  1  0
 32 33  2  0
 33 34  1  0
 34 35  1  0
 35 36  2  0
 33 37  1  0
 10 38  1  0
  8  3  1  0
 29 24  1  0
 35 31  1  0
  1 39  1  0
  2 40  1  0
  2 41  1  0
  4 42  1  0
  6 43  1  0
  7 44  1  0
  9 45  1  0
 10 46  1  6
 11 47  1  0
 11 48  1  0
 12 49  1  0
 13 50  1  0
 13 51  1  0
 14 52  1  0
 14 53  1  0
 15 54  1  0
 15 55  1  0
 16 56  1  0
 16 57  1  0
 17 58  1  0
 17 59  1  0
 18 60  1  0
 18 61  1  0
 20 62  1  0
 20 63  1  0
 21 64  1  0
 21 65  1  0
 22 66  1  0
 22 67  1  0
 23 68  1  0
 23 69  1  0
 25 70  1  0
 26 71  1  0
 27 72  1  0
 29 73  1  0
 30 74  1  0
 30 75  1  0
 32 76  1  0
 34 77  1  0
 37 78  1  0
 38 79  1  0
M  END
>  <Ligand ID>  (1) 
LIG0002502

>  <Ligand>  (1) 
BDBM50419006

>  <SMILES>  (1) 
OCc1cc(ccc1O)[C@H](CNCCCCCCOCCCCc1cccc(c1)Cn1cc([nH]c1=O)O)O

>  <CID>  (1) 
91265400.0

>  <ChEMBL ID>  (1) 
nan

>  <InChiKey>  (1) 
YQOYRMVOFDQXFS-MHZLTWQESA-N

>  <InChi>  (1) 
InChI=1S/C29H41N3O6/c33-21-25-17-24(11-12-26(25)34)27(35)18-30-13-4-1-2-5-14-38-15-6-3-8-22-9-7-10-23(16-22)19-32-20-28(36)31-29(32)37/h7,9-12,16-17,20,27,30,33-36H,1-6,8,13-15,18-19,21H2,(H,31,37)/t27-/m0/s1

>  <IUPAC Name>  (1) 
5-hydroxy-3-[[3-[4-[6-[[(2R)-2-hydroxy-2-[4-hydroxy-3-(hydroxymethyl)phenyl]ethyl]amino]hexoxy]butyl]phenyl]methyl]-1H-imidazol-2-one

$$$$
