
     RDKit          3D

 81 81  0  0  0  0  0  0  0  0999 V2000
   -0.9753   -0.0901    0.0021 C   0  0  0  0  0  0  0  0  0  0  0  0
    0.4566    0.2516   -0.1455 C   0  0  0  0  0  0  0  0  0  0  0  0
    0.7561    1.4737   -0.2112 O   0  0  0  0  0  0  0  0  0  0  0  0
    1.4771   -0.6660   -0.2156 O   0  0  0  0  0  0  0  0  0  0  0  0
    7.9152   -1.9066   -2.7094 O   0  0  0  0  0  0  0  0  0  0  0  0
    7.4075   -0.6020   -2.8348 C   0  0  0  0  0  0  0  0  0  0  0  0
    7.4349    0.0346   -1.4901 C   0  0  0  0  0  0  0  0  0  0  0  0
    6.2735    0.1896   -0.7386 C   0  0  0  0  0  0  0  0  0  0  0  0
    6.2705    0.7674    0.4966 C   0  0  0  0  0  0  0  0  0  0  0  0
    7.4760    1.2123    1.0093 C   0  0  0  0  0  0  0  0  0  0  0  0
    8.6497    1.0625    0.2641 C   0  0  0  0  0  0  0  0  0  0  0  0
    8.6435    0.4745   -0.9890 C   0  0  0  0  0  0  0  0  0  0  0  0
    9.7957    0.3174   -1.7416 O   0  0  0  0  0  0  0  0  0  0  0  0
    5.0690    0.9546    1.3438 C   0  0  2  0  0  0  0  0  0  0  0  0
    3.7827    0.6993    0.6100 C   0  0  0  0  0  0  0  0  0  0  0  0
    2.6622    0.8067    1.4755 N   0  0  0  0  0  0  0  0  0  0  0  0
    2.5103   -0.1846    2.4806 C   0  0  0  0  0  0  0  0  0  0  0  0
    2.1810   -1.5077    1.8308 C   0  0  0  0  0  0  0  0  0  0  0  0
    0.8607   -1.2271    1.0652 C   0  0  0  0  0  0  0  0  0  0  0  0
    0.3878   -2.4282    0.3580 C   0  0  0  0  0  0  0  0  0  0  0  0
   -0.8724   -2.2038   -0.4087 C   0  0  0  0  0  0  0  0  0  0  0  0
   -2.0071   -1.7914    0.4663 C   0  0  0  0  0  0  0  0  0  0  0  0
   -1.9532   -0.6249    1.0773 O   0  0  0  0  0  0  0  0  0  0  0  0
   -1.8868    0.5911    0.5628 C   0  0  0  0  0  0  0  0  0  0  0  0
   -2.9221    1.1255   -0.3579 C   0  0  0  0  0  0  0  0  0  0  0  0
   -3.0596    0.4401   -1.6576 C   0  0  0  0  0  0  0  0  0  0  0  0
   -4.1463    1.0644   -2.5297 C   0  0  0  0  0  0  0  0  0  0  0  0
   -5.4680    0.9887   -1.8521 C   0  0  0  0  0  0  0  0  0  0  0  0
   -6.2132   -0.1599   -2.0987 C   0  0  0  0  0  0  0  0  0  0  0  0
   -7.4494   -0.3191   -1.5174 C   0  0  0  0  0  0  0  0  0  0  0  0
   -7.9455    0.6829   -0.6796 C   0  0  0  0  0  0  0  0  0  0  0  0
   -7.1854    1.8020   -0.4577 C   0  0  0  0  0  0  0  0  0  0  0  0
   -5.9392    1.9883   -1.0290 C   0  0  0  0  0  0  0  0  0  0  0  0
   -9.5154    0.4176    0.0246 S   0  0  0  0  0  0  0  0  0  0  0  0
  -10.1902    1.7403    0.2399 O   0  0  0  0  0  0  0  0  0  0  0  0
  -10.3357   -0.4709   -0.8998 O   0  0  0  0  0  0  0  0  0  0  0  0
   -9.3226   -0.3953    1.6033 C   0  0  0  0  0  0  0  0  0  0  0  0
    5.0484    2.2523    1.8921 O   0  0  0  0  0  0  0  0  0  0  0  0
   -1.2276   -0.0912    1.0881 H   0  0  0  0  0  0  0  0  0  0  0  0
   -1.6049    0.6994   -0.4533 H   0  0  0  0  0  0  0  0  0  0  0  0
   -1.2242   -1.1161   -0.3603 H   0  0  0  0  0  0  0  0  0  0  0  0
    2.3422   -0.4615    0.2957 H   0  0  0  0  0  0  0  0  0  0  0  0
    7.7270   -2.2206   -1.7917 H   0  0  0  0  0  0  0  0  0  0  0  0
    7.9145   -0.0201   -3.6138 H   0  0  0  0  0  0  0  0  0  0  0  0
    6.3442   -0.7371   -3.1229 H   0  0  0  0  0  0  0  0  0  0  0  0
    5.3595   -0.1585   -1.1513 H   0  0  0  0  0  0  0  0  0  0  0  0
    7.5132    1.6813    1.9983 H   0  0  0  0  0  0  0  0  0  0  0  0
    9.5705    1.4154    0.6829 H   0  0  0  0  0  0  0  0  0  0  0  0
   10.2358   -0.6045   -1.7216 H   0  0  0  0  0  0  0  0  0  0  0  0
    5.1502    0.2133    2.1636 H   0  0  0  0  0  0  0  0  0  0  0  0
    3.8406   -0.3276    0.1953 H   0  0  0  0  0  0  0  0  0  0  0  0
    3.6912    1.3818   -0.2874 H   0  0  0  0  0  0  0  0  0  0  0  0
    2.2902    1.7393    1.6614 H   0  0  0  0  0  0  0  0  0  0  0  0
    1.6911    0.1015    3.1829 H   0  0  0  0  0  0  0  0  0  0  0  0
    3.4377   -0.3163    3.0795 H   0  0  0  0  0  0  0  0  0  0  0  0
    1.9518   -2.2433    2.6374 H   0  0  0  0  0  0  0  0  0  0  0  0
    2.9683   -1.8599    1.1658 H   0  0  0  0  0  0  0  0  0  0  0  0
    1.0825   -0.4435    0.2978 H   0  0  0  0  0  0  0  0  0  0  0  0
    0.2179   -0.7900    1.8253 H   0  0  0  0  0  0  0  0  0  0  0  0
    1.1769   -2.7285   -0.3956 H   0  0  0  0  0  0  0  0  0  0  0  0
    0.2767   -3.3157    1.0381 H   0  0  0  0  0  0  0  0  0  0  0  0
   -0.7055   -1.4043   -1.2049 H   0  0  0  0  0  0  0  0  0  0  0  0
   -1.1527   -3.1017   -1.0224 H   0  0  0  0  0  0  0  0  0  0  0  0
   -2.9678   -2.0785   -0.0419 H   0  0  0  0  0  0  0  0  0  0  0  0
   -1.9804   -2.6460    1.2934 H   0  0  0  0  0  0  0  0  0  0  0  0
   -1.8451    1.3151    1.4674 H   0  0  0  0  0  0  0  0  0  0  0  0
   -0.8624    0.8307    0.1023 H   0  0  0  0  0  0  0  0  0  0  0  0
   -3.8781    1.1954    0.2151 H   0  0  0  0  0  0  0  0  0  0  0  0
   -2.6796    2.2151   -0.5797 H   0  0  0  0  0  0  0  0  0  0  0  0
   -3.2147   -0.6221   -1.6951 H   0  0  0  0  0  0  0  0  0  0  0  0
   -2.1100    0.6294   -2.2496 H   0  0  0  0  0  0  0  0  0  0  0  0
   -3.8648    2.1145   -2.6941 H   0  0  0  0  0  0  0  0  0  0  0  0
   -4.1286    0.5461   -3.5019 H   0  0  0  0  0  0  0  0  0  0  0  0
   -5.8235   -0.9468   -2.7561 H   0  0  0  0  0  0  0  0  0  0  0  0
   -8.0110   -1.2258   -1.7261 H   0  0  0  0  0  0  0  0  0  0  0  0
   -7.5993    2.5716    0.2035 H   0  0  0  0  0  0  0  0  0  0  0  0
   -5.3432    2.8742   -0.8496 H   0  0  0  0  0  0  0  0  0  0  0  0
   -8.3405   -0.0710    2.0529 H   0  0  0  0  0  0  0  0  0  0  0  0
   -9.2269   -1.5024    1.4553 H   0  0  0  0  0  0  0  0  0  0  0  0
  -10.1067   -0.1356    2.3171 H   0  0  0  0  0  0  0  0  0  0  0  0
    5.4448    2.8843    1.2445 H   0  0  0  0  0  0  0  0  0  0  0  0
  1  2  1  0
  2  3  2  0
  2  4  1  0
  5  6  1  0
  6  7  1  0
  7  8  2  0
  8  9  1  0
  9 10  2  0
 10 11  1  0
 11 12  2  0
 12 13  1  0
  9 14  1  0
 14 15  1  0
 15 16  1  0
 16 17  1  0
 17 18  1  0
 18 19  1  0
 19 20  1  0
 20 21  1  0
 21 22  1  0
 22 23  1  0
 23 24  1  0
 24 25  1  0
 25 26  1  0
 26 27  1  0
 27 28  1  0
 28 29  2  0
 29 30  1  0
 30 31  2  0
 31 32  1  0
 32 33  2  0
 31 34  1  0
 34 35  2  0
 34 36  2  0
 34 37  1  0
 14 38  1  0
 12  7  1  0
 33 28  1  0
  1 39  1  0
  1 40  1  0
  1 41  1  0
  4 42  1  0
  5 43  1  0
  6 44  1  0
  6 45  1  0
  8 46  1  0
 10 47  1  0
 11 48  1  0
 13 49  1  0
 14 50  1  1
 15 51  1  0
 15 52  1  0
 16 53  1  0
 17 54  1  0
 17 55  1  0
 18 56  1  0
 18 57  1  0
 19 58  1  0
 19 59  1  0
 20 60  1  0
 20 61  1  0
 21 62  1  0
 21 63  1  0
 22 64  1  0
 22 65  1  0
 24 66  1  0
 24 67  1  0
 25 68  1  0
 25 69  1  0
 26 70  1  0
 26 71  1  0
 27 72  1  0
 27 73  1  0
 29 74  1  0
 30 75  1  0
 32 76  1  0
 33 77  1  0
 37 78  1  0
 37 79  1  0
 37 80  1  0
 38 81  1  0
M  END
>  <Ligand ID>  (1) 
LIG0003362

>  <Ligand>  (1) 
CHEMBL3126381

>  <SMILES>  (1) 
CC(=O)O.OCc1cc(ccc1O)[C@H](CNCCCCCCOCCCCc1ccc(cc1)S(=O)(=O)C)O

>  <CID>  (1) 
76329059.0

>  <ChEMBL ID>  (1) 
nan

>  <InChiKey>  (1) 
DWZWKIJGNMJFHV-SNYZSRNZSA-N

>  <InChi>  (1) 
InChI=1S/C26H39NO6S.C2H4O2/c1-34(31,32)24-12-9-21(10-13-24)8-4-7-17-33-16-6-3-2-5-15-27-19-26(30)22-11-14-25(29)23(18-22)20-28;1-2(3)4/h9-14,18,26-30H,2-8,15-17,19-20H2,1H3;1H3,(H,3,4)/t26-;/m0./s1

>  <IUPAC Name>  (1) 
acetic acid;2-(hydroxymethyl)-4-[(1R)-1-hydroxy-2-[6-[4-(4-methylsulfonylphenyl)butoxy]hexylamino]ethyl]phenol

$$$$
