
     RDKit          3D

152157  0  0  0  0  0  0  0  0999 V2000
   10.4464   -2.4061    2.1851 C   0  0  0  0  0  0  0  0  0  0  0  0
   11.0276   -2.2096    0.8215 C   0  0  0  0  0  0  0  0  0  0  0  0
   10.3668   -1.1715   -0.0090 C   0  0  0  0  0  0  0  0  0  0  0  0
    8.9683   -1.3476   -0.4066 C   0  0  0  0  0  0  0  0  0  0  0  0
    7.8668   -1.4167    0.5851 C   0  0  2  0  0  0  0  0  0  0  0  0
    6.6052   -1.6745   -0.1983 C   0  0  0  0  0  0  0  0  0  0  0  0
    6.7472   -2.5468   -1.1256 O   0  0  0  0  0  0  0  0  0  0  0  0
    5.3700   -1.0263    0.0507 N   0  0  0  0  0  0  0  0  0  0  0  0
    4.2701   -1.4078   -0.8345 C   0  0  1  0  0  0  0  0  0  0  0  0
    3.5370   -2.5594   -0.1369 C   0  0  0  0  0  0  0  0  0  0  0  0
    2.4969   -3.1363   -1.0045 C   0  0  0  0  0  0  0  0  0  0  0  0
    2.2136   -2.7753   -2.1607 O   0  0  0  0  0  0  0  0  0  0  0  0
    1.6527   -4.2462   -0.5786 N   0  0  0  0  0  0  0  0  0  0  0  0
    0.6860   -4.6745   -1.5568 C   0  0  0  0  0  0  0  0  0  0  0  0
   -0.1620   -5.8256   -1.1457 C   0  0  0  0  0  0  0  0  0  0  0  0
   -0.9452   -5.6202    0.1240 C   0  0  0  0  0  0  0  0  0  0  0  0
   -1.7992   -4.4050    0.0080 C   0  0  0  0  0  0  0  0  0  0  0  0
   -2.6960   -4.1375    1.1806 C   0  0  2  0  0  0  0  0  0  0  0  0
   -3.4070   -2.8850    0.9389 N   0  0  0  0  0  0  0  0  0  0  0  0
   -4.8478   -2.8651    0.7340 C   0  0  0  0  0  0  0  0  0  0  0  0
   -5.3491   -3.9924    0.7071 O   0  0  0  0  0  0  0  0  0  0  0  0
   -5.5771   -1.5810    0.5814 C   0  0  1  0  0  0  0  0  0  0  0  0
   -4.5988   -0.4686    0.7584 N   0  0  0  0  0  0  0  0  0  0  0  0
   -4.2261   -0.1062    2.0801 C   0  0  0  0  0  0  0  0  0  0  0  0
   -4.7457   -0.8052    2.9753 O   0  0  0  0  0  0  0  0  0  0  0  0
   -3.3125    0.9686    2.4848 C   0  0  1  0  0  0  0  0  0  0  0  0
   -2.8042    1.7772    1.3948 N   0  0  0  0  0  0  0  0  0  0  0  0
   -1.5565    1.5602    0.7150 C   0  0  0  0  0  0  0  0  0  0  0  0
   -0.9836    0.5133    1.0646 O   0  0  0  0  0  0  0  0  0  0  0  0
   -1.1511    2.5442   -0.2468 C   0  0  2  0  0  0  0  0  0  0  0  0
    0.0094    2.3968   -1.0621 N   0  0  0  0  0  0  0  0  0  0  0  0
    1.3153    2.0871   -0.5849 C   0  0  0  0  0  0  0  0  0  0  0  0
    1.2313    1.7339    0.6309 O   0  0  0  0  0  0  0  0  0  0  0  0
    2.6059    2.0824   -1.1913 C   0  0  1  0  0  0  0  0  0  0  0  0
    3.5227    1.0517   -0.6557 N   0  0  0  0  0  0  0  0  0  0  0  0
    3.4059   -0.2934   -1.2187 C   0  0  0  0  0  0  0  0  0  0  0  0
    2.4726   -0.3426   -2.0551 O   0  0  0  0  0  0  0  0  0  0  0  0
    2.8187    2.4181   -2.6042 C   0  0  0  0  0  0  0  0  0  0  0  0
    4.2786    2.3422   -2.9909 C   0  0  0  0  0  0  0  0  0  0  0  0
    4.9590    1.3023   -3.4853 N   0  0  0  0  0  0  0  0  0  0  0  0
    6.2467    1.6209   -3.6850 C   0  0  0  0  0  0  0  0  0  0  0  0
    6.4091    2.9131   -3.3082 N   0  0  0  0  0  0  0  0  0  0  0  0
    5.2184    3.3720   -2.8816 C   0  0  0  0  0  0  0  0  0  0  0  0
   -0.1379    2.4897   -2.4785 C   0  0  0  0  0  0  0  0  0  0  0  0
   -1.1316    3.8933    0.5079 C   0  0  0  0  0  0  0  0  0  0  0  0
   -0.7127    4.9718   -0.4298 C   0  0  0  0  0  0  0  0  0  0  0  0
    0.6050    5.3632   -0.5313 C   0  0  0  0  0  0  0  0  0  0  0  0
    0.9817    6.3620   -1.4224 C   0  0  0  0  0  0  0  0  0  0  0  0
    0.0331    6.9804   -2.2250 C   0  0  0  0  0  0  0  0  0  0  0  0
   -1.2695    6.5800   -2.1118 C   0  0  0  0  0  0  0  0  0  0  0  0
   -1.6308    5.5863   -1.2218 C   0  0  0  0  0  0  0  0  0  0  0  0
   -2.2644    7.1540   -2.8886 C   0  0  0  0  0  0  0  0  0  0  0  0
   -1.9431    8.1507   -3.7964 C   0  0  0  0  0  0  0  0  0  0  0  0
   -0.6128    8.5521   -3.9037 C   0  0  0  0  0  0  0  0  0  0  0  0
    0.3656    7.9702   -3.1229 C   0  0  0  0  0  0  0  0  0  0  0  0
   -3.7975    1.8551    3.6022 C   0  0  0  0  0  0  0  0  0  0  0  0
   -5.0091    2.6503    3.3583 C   0  0  0  0  0  0  0  0  0  0  0  0
   -6.2882    1.9299    3.0871 C   0  0  0  0  0  0  0  0  0  0  0  0
   -6.7777    1.0915    4.1330 N   0  0  0  0  0  0  0  0  0  0  0  0
   -7.0731    1.4624    5.3190 C   0  0  0  0  0  0  0  0  0  0  0  0
   -6.9584    2.7969    5.7969 N   0  0  0  0  0  0  0  0  0  0  0  0
   -7.5575    0.4722    6.2111 N   0  0  0  0  0  0  0  0  0  0  0  0
   -6.2781   -1.3169   -0.6826 C   0  0  0  0  0  0  0  0  0  0  0  0
   -7.3307   -2.2528   -1.0958 C   0  0  0  0  0  0  0  0  0  0  0  0
   -8.6964   -2.0987   -0.8479 C   0  0  0  0  0  0  0  0  0  0  0  0
   -9.3791   -3.1467   -1.3372 N   0  0  0  0  0  0  0  0  0  0  0  0
   -8.5140   -4.0007   -1.9072 C   0  0  0  0  0  0  0  0  0  0  0  0
   -7.2534   -3.4644   -1.7661 C   0  0  0  0  0  0  0  0  0  0  0  0
   -6.2067   -4.1825   -2.3023 C   0  0  0  0  0  0  0  0  0  0  0  0
   -6.4210   -5.3804   -2.9466 C   0  0  0  0  0  0  0  0  0  0  0  0
   -7.6963   -5.9042   -3.0775 C   0  0  0  0  0  0  0  0  0  0  0  0
   -8.7624   -5.2003   -2.5473 C   0  0  0  0  0  0  0  0  0  0  0  0
   -1.9040   -4.0601    2.4156 C   0  0  0  0  0  0  0  0  0  0  0  0
   -1.9187   -2.9246    3.0169 O   0  0  0  0  0  0  0  0  0  0  0  0
   -1.1472   -5.0699    3.0051 N   0  0  0  0  0  0  0  0  0  0  0  0
    7.6795   -0.2956    1.4439 N   0  0  0  0  0  0  0  0  0  0  0  0
    8.0747    1.0382    1.2208 C   0  0  0  0  0  0  0  0  0  0  0  0
    8.6576    1.4602    0.1921 O   0  0  0  0  0  0  0  0  0  0  0  0
    7.8021    2.0910    2.2687 C   0  0  0  0  0  0  0  0  0  0  0  0
    9.8770   -1.5175    2.4827 H   0  0  0  0  0  0  0  0  0  0  0  0
    9.8250   -3.3142    2.2839 H   0  0  0  0  0  0  0  0  0  0  0  0
   11.2713   -2.4553    2.9724 H   0  0  0  0  0  0  0  0  0  0  0  0
   11.1083   -3.1995    0.2859 H   0  0  0  0  0  0  0  0  0  0  0  0
   12.1229   -1.9439    0.9776 H   0  0  0  0  0  0  0  0  0  0  0  0
   10.6400   -0.1787    0.4436 H   0  0  0  0  0  0  0  0  0  0  0  0
   10.9833   -1.1466   -0.9825 H   0  0  0  0  0  0  0  0  0  0  0  0
    8.9227   -2.2765   -1.0590 H   0  0  0  0  0  0  0  0  0  0  0  0
    8.7155   -0.5333   -1.1748 H   0  0  0  0  0  0  0  0  0  0  0  0
    8.0514   -2.3077    1.2174 H   0  0  0  0  0  0  0  0  0  0  0  0
    5.3055   -0.3522    0.8121 H   0  0  0  0  0  0  0  0  0  0  0  0
    4.7485   -1.9178   -1.7113 H   0  0  0  0  0  0  0  0  0  0  0  0
    4.2788   -3.3682    0.0903 H   0  0  0  0  0  0  0  0  0  0  0  0
    3.1608   -2.2202    0.8496 H   0  0  0  0  0  0  0  0  0  0  0  0
    1.8347   -4.5904    0.3425 H   0  0  0  0  0  0  0  0  0  0  0  0
    1.2186   -4.9846   -2.4944 H   0  0  0  0  0  0  0  0  0  0  0  0
    0.0033   -3.8343   -1.8463 H   0  0  0  0  0  0  0  0  0  0  0  0
    0.4596   -6.7472   -1.0199 H   0  0  0  0  0  0  0  0  0  0  0  0
   -0.8482   -6.0543   -1.9840 H   0  0  0  0  0  0  0  0  0  0  0  0
   -1.5770   -6.5405    0.2493 H   0  0  0  0  0  0  0  0  0  0  0  0
   -0.2314   -5.6150    0.9796 H   0  0  0  0  0  0  0  0  0  0  0  0
   -2.3537   -4.4699   -0.9505 H   0  0  0  0  0  0  0  0  0  0  0  0
   -1.1341   -3.5183   -0.0974 H   0  0  0  0  0  0  0  0  0  0  0  0
   -3.4255   -4.9918    1.2016 H   0  0  0  0  0  0  0  0  0  0  0  0
   -2.9792   -1.9647    0.8944 H   0  0  0  0  0  0  0  0  0  0  0  0
   -6.2883   -1.4879    1.4450 H   0  0  0  0  0  0  0  0  0  0  0  0
   -4.1809    0.0466    0.0042 H   0  0  0  0  0  0  0  0  0  0  0  0
   -2.3959    0.4240    2.8676 H   0  0  0  0  0  0  0  0  0  0  0  0
   -3.3624    2.5560    1.0717 H   0  0  0  0  0  0  0  0  0  0  0  0
   -2.0217    2.7312   -0.9539 H   0  0  0  0  0  0  0  0  0  0  0  0
    3.1084    3.0347   -0.6582 H   0  0  0  0  0  0  0  0  0  0  0  0
    4.2150    1.1589    0.0494 H   0  0  0  0  0  0  0  0  0  0  0  0
    2.2583    1.8572   -3.3355 H   0  0  0  0  0  0  0  0  0  0  0  0
    2.5967    3.5202   -2.7681 H   0  0  0  0  0  0  0  0  0  0  0  0
    4.5917    0.3454   -3.7150 H   0  0  0  0  0  0  0  0  0  0  0  0
    7.0468    1.0049   -4.0702 H   0  0  0  0  0  0  0  0  0  0  0  0
    5.0453    4.3901   -2.5148 H   0  0  0  0  0  0  0  0  0  0  0  0
    0.3680    3.3247   -2.9728 H   0  0  0  0  0  0  0  0  0  0  0  0
   -1.2427    2.6955   -2.7230 H   0  0  0  0  0  0  0  0  0  0  0  0
    0.0311    1.5584   -3.0498 H   0  0  0  0  0  0  0  0  0  0  0  0
   -0.3366    3.7825    1.2673 H   0  0  0  0  0  0  0  0  0  0  0  0
   -2.0693    4.1019    1.0147 H   0  0  0  0  0  0  0  0  0  0  0  0
    1.3703    4.9095    0.0737 H   0  0  0  0  0  0  0  0  0  0  0  0
    2.0019    6.6974   -1.5355 H   0  0  0  0  0  0  0  0  0  0  0  0
   -2.6753    5.3071   -1.1689 H   0  0  0  0  0  0  0  0  0  0  0  0
   -3.3014    6.8676   -2.8313 H   0  0  0  0  0  0  0  0  0  0  0  0
   -2.7116    8.6140   -4.4142 H   0  0  0  0  0  0  0  0  0  0  0  0
   -0.3783    9.3260   -4.6081 H   0  0  0  0  0  0  0  0  0  0  0  0
    1.4036    8.2787   -3.1963 H   0  0  0  0  0  0  0  0  0  0  0  0
   -3.9333    1.2106    4.5225 H   0  0  0  0  0  0  0  0  0  0  0  0
   -2.9492    2.5130    3.8687 H   0  0  0  0  0  0  0  0  0  0  0  0
   -5.2220    3.3183    4.2554 H   0  0  0  0  0  0  0  0  0  0  0  0
   -4.8685    3.4216    2.5415 H   0  0  0  0  0  0  0  0  0  0  0  0
   -6.2360    1.3033    2.1489 H   0  0  0  0  0  0  0  0  0  0  0  0
   -7.1235    2.6506    2.8608 H   0  0  0  0  0  0  0  0  0  0  0  0
   -6.1872    2.9719    6.4871 H   0  0  0  0  0  0  0  0  0  0  0  0
   -7.5984    3.5743    5.4896 H   0  0  0  0  0  0  0  0  0  0  0  0
   -7.2310   -0.5181    6.1698 H   0  0  0  0  0  0  0  0  0  0  0  0
   -8.2614    0.6880    6.9430 H   0  0  0  0  0  0  0  0  0  0  0  0
   -5.5756   -1.2064   -1.5616 H   0  0  0  0  0  0  0  0  0  0  0  0
   -6.7801   -0.2943   -0.6682 H   0  0  0  0  0  0  0  0  0  0  0  0
   -9.1905   -1.2694   -0.3417 H   0  0  0  0  0  0  0  0  0  0  0  0
  -10.4251   -3.2704   -1.2827 H   0  0  0  0  0  0  0  0  0  0  0  0
   -5.2065   -3.7534   -2.1888 H   0  0  0  0  0  0  0  0  0  0  0  0
   -5.5719   -5.9149   -3.3574 H   0  0  0  0  0  0  0  0  0  0  0  0
   -7.8738   -6.8394   -3.5812 H   0  0  0  0  0  0  0  0  0  0  0  0
   -9.7892   -5.5905   -2.6400 H   0  0  0  0  0  0  0  0  0  0  0  0
   -1.5387   -6.0410    3.0461 H   0  0  0  0  0  0  0  0  0  0  0  0
   -0.1986   -4.8187    3.3901 H   0  0  0  0  0  0  0  0  0  0  0  0
    7.1814   -0.4788    2.3685 H   0  0  0  0  0  0  0  0  0  0  0  0
    8.7305    2.1050    2.9084 H   0  0  0  0  0  0  0  0  0  0  0  0
    6.9859    1.7984    2.9355 H   0  0  0  0  0  0  0  0  0  0  0  0
    7.6986    3.0771    1.8155 H   0  0  0  0  0  0  0  0  0  0  0  0
  1  2  1  0
  2  3  1  0
  3  4  1  0
  4  5  1  0
  5  6  1  0
  6  7  2  0
  6  8  1  0
  8  9  1  0
  9 10  1  0
 10 11  1  0
 11 12  2  0
 11 13  1  0
 13 14  1  0
 14 15  1  0
 15 16  1  0
 16 17  1  0
 17 18  1  0
 18 19  1  0
 19 20  1  0
 20 21  2  0
 20 22  1  0
 22 23  1  0
 23 24  1  0
 24 25  2  0
 24 26  1  0
 26 27  1  0
 27 28  1  0
 28 29  2  0
 28 30  1  0
 30 31  1  0
 31 32  1  0
 32 33  2  0
 32 34  1  0
 34 35  1  0
 35 36  1  0
 36 37  2  0
 34 38  1  0
 38 39  1  0
 39 40  1  0
 40 41  1  0
 41 42  2  0
 42 43  1  0
 31 44  1  0
 30 45  1  0
 45 46  1  0
 46 47  2  0
 47 48  1  0
 48 49  2  0
 49 50  1  0
 50 51  2  0
 50 52  1  0
 52 53  2  0
 53 54  1  0
 54 55  2  0
 26 56  1  0
 56 57  1  0
 57 58  1  0
 58 59  1  0
 59 60  2  3
 60 61  1  0
 60 62  1  0
 22 63  1  0
 63 64  1  0
 64 65  2  0
 65 66  1  0
 66 67  1  0
 67 68  2  0
 68 69  1  0
 69 70  2  0
 70 71  1  0
 71 72  2  0
 18 73  1  0
 73 74  2  0
 73 75  1  0
  5 76  1  0
 76 77  1  0
 77 78  2  0
 77 79  1  0
 36  9  1  0
 43 39  2  0
 51 46  1  0
 68 64  1  0
 55 49  1  0
 72 67  1  0
  1 80  1  0
  1 81  1  0
  1 82  1  0
  2 83  1  0
  2 84  1  0
  3 85  1  0
  3 86  1  0
  4 87  1  0
  4 88  1  0
  5 89  1  1
  8 90  1  0
  9 91  1  6
 10 92  1  0
 10 93  1  0
 13 94  1  0
 14 95  1  0
 14 96  1  0
 15 97  1  0
 15 98  1  0
 16 99  1  0
 16100  1  0
 17101  1  0
 17102  1  0
 18103  1  1
 19104  1  0
 22105  1  1
 23106  1  0
 26107  1  1
 27108  1  0
 30109  1  6
 34110  1  1
 35111  1  0
 38112  1  0
 38113  1  0
 40114  1  0
 41115  1  0
 43116  1  0
 44117  1  0
 44118  1  0
 44119  1  0
 45120  1  0
 45121  1  0
 47122  1  0
 48123  1  0
 51124  1  0
 52125  1  0
 53126  1  0
 54127  1  0
 55128  1  0
 56129  1  0
 56130  1  0
 57131  1  0
 57132  1  0
 58133  1  0
 58134  1  0
 61135  1  0
 61136  1  0
 62137  1  0
 62138  1  0
 63139  1  0
 63140  1  0
 65141  1  0
 66142  1  0
 69143  1  0
 70144  1  0
 71145  1  0
 72146  1  0
 75147  1  0
 75148  1  0
 76149  1  0
 79150  1  0
 79151  1  0
 79152  1  0
M  END
>  <Ligand ID>  (1) 
LIG0001829

>  <Ligand>  (1) 
CHEMBL3600834

>  <SMILES>  (1) 
CCCC[C@H](C(=O)N[C@H]1CC(=O)NCCCC[C@H](NC(=O)[C@@H](NC(=O)[C@@H](NC(=O)[C@H](N(C(=O)[C@@H](NC1=O)Cc1[nH]cnc1)C)Cc1ccc2c(c1)cccc2)CCCN=C(N)N)Cc1c[nH]c2c1cccc2)C(=O)N)NC(=O)C

>  <CID>  (1) 
122184573.0

>  <ChEMBL ID>  (1) 
nan

>  <InChiKey>  (1) 
CRWGRYHHKDTXFC-WJXGUONOSA-N

>  <InChi>  (1) 
InChI=1S/C55H73N15O9/c1-4-5-16-41(64-32(2)71)49(74)68-44-28-47(72)60-22-11-10-18-40(48(56)73)65-51(76)43(26-36-29-62-39-17-9-8-15-38(36)39)67-50(75)42(19-12-23-61-55(57)58)66-53(78)46(25-33-20-21-34-13-6-7-14-35(34)24-33)70(3)54(79)45(69-52(44)77)27-37-30-59-31-63-37/h6-9,13-15,17,20-21,24,29-31,40-46,62H,4-5,10-12,16,18-19,22-23,25-28H2,1-3H3,(H2,56,73)(H,59,63)(H,60,72)(H,64,71)(H,65,76)(H,66,78)(H,67,75)(H,68,74)(H,69,77)(H4,57,58,61)/t40-,41+,42-,43-,44-,45-,46+/m0/s1

>  <IUPAC Name>  (1) 
(3S,6S,9R,12S,15S,23S)-15-[[(2R)-2-acetamidohexanoyl]amino]-6-[3-(diaminomethylideneamino)propyl]-12-(1H-imidazol-5-ylmethyl)-3-(1H-indol-3-ylmethyl)-10-methyl-9-(naphthalen-2-ylmethyl)-2,5,8,11,14,17-hexaoxo-1,4,7,10,13,18-hexazacyclotricosane-23-carboxamide

$$$$
