
     RDKit          3D

195201  0  0  0  0  0  0  0  0999 V2000
   13.6036    0.9656    2.7076 N   0  0  0  0  0  0  0  0  0  0  0  0
   13.9018   -0.4530    2.6428 C   0  0  0  0  0  0  0  0  0  0  0  0
   12.7509   -1.3416    2.9792 C   0  0  0  0  0  0  0  0  0  0  0  0
   11.5427   -1.1494    2.0709 C   0  0  0  0  0  0  0  0  0  0  0  0
   11.9450   -1.4470    0.6144 C   0  0  0  0  0  0  0  0  0  0  0  0
   10.8001   -1.2246   -0.2806 C   0  0  1  0  0  0  0  0  0  0  0  0
   10.8939   -1.4733   -1.7097 C   0  0  0  0  0  0  0  0  0  0  0  0
   10.1474   -2.4622   -2.0818 O   0  0  0  0  0  0  0  0  0  0  0  0
   11.6109   -0.8697   -2.8170 C   0  0  0  0  0  0  0  0  0  0  0  0
   12.6437    0.0435   -2.5693 N   0  0  0  0  0  0  0  0  0  0  0  0
   13.9302   -0.4455   -2.1810 C   0  0  2  0  0  0  0  0  0  0  0  0
   14.7133    0.6569   -1.6007 C   0  0  0  0  0  0  0  0  0  0  0  0
   14.2328    1.8088   -1.6005 O   0  0  0  0  0  0  0  0  0  0  0  0
   16.0140    0.4922   -1.0201 N   0  0  0  0  0  0  0  0  0  0  0  0
   14.6443   -1.0089   -3.4346 C   0  0  0  0  0  0  0  0  0  0  0  0
   15.9703   -1.5029   -3.0160 C   0  0  0  0  0  0  0  0  0  0  0  0
   16.9396   -0.7151   -3.1194 O   0  0  0  0  0  0  0  0  0  0  0  0
   16.2121   -2.7703   -2.5174 O   0  0  0  0  0  0  0  0  0  0  0  0
    9.6210   -1.9984    0.1579 N   0  0  0  0  0  0  0  0  0  0  0  0
    8.6564   -1.2321    0.8676 C   0  0  0  0  0  0  0  0  0  0  0  0
    8.0592   -0.2258   -0.0946 C   0  0  0  0  0  0  0  0  0  0  0  0
    8.4194   -0.0793   -1.2360 O   0  0  0  0  0  0  0  0  0  0  0  0
    6.9410    0.6605    0.3934 C   0  0  2  0  0  0  0  0  0  0  0  0
    7.5066    1.9544    0.9649 C   0  0  0  0  0  0  0  0  0  0  0  0
    7.6257    1.6682    2.4392 C   0  0  0  0  0  0  0  0  0  0  0  0
    6.7538    0.4664    2.7348 C   0  0  0  0  0  0  0  0  0  0  0  0
    6.3294   -0.0139    1.4759 N   0  0  0  0  0  0  0  0  0  0  0  0
    4.9456   -0.2940    1.3078 C   0  0  0  0  0  0  0  0  0  0  0  0
    4.7127   -0.5685   -0.1368 C   0  0  0  0  0  0  0  0  0  0  0  0
    5.5835   -1.2203   -0.7398 O   0  0  0  0  0  0  0  0  0  0  0  0
    3.5528   -0.1430   -0.9284 C   0  0  2  0  0  0  0  0  0  0  0  0
    4.0178    0.5689   -2.2221 C   0  0  0  0  0  0  0  0  0  0  0  0
    3.9445    2.0484   -1.8957 C   0  0  0  0  0  0  0  0  0  0  0  0
    3.4496    2.0996   -0.4561 C   0  0  0  0  0  0  0  0  0  0  0  0
    2.6928    0.8327   -0.3103 N   0  0  0  0  0  0  0  0  0  0  0  0
    1.4380    0.8013    0.2924 C   0  0  0  0  0  0  0  0  0  0  0  0
    0.9775    1.8823    0.7817 O   0  0  0  0  0  0  0  0  0  0  0  0
    0.5617   -0.4618    0.3942 C   0  0  1  0  0  0  0  0  0  0  0  0
    1.2292   -1.4605    1.2377 C   0  0  0  0  0  0  0  0  0  0  0  0
    1.0094   -3.1669    1.0142 S   0  0  0  0  0  0  0  0  0  0  0  0
   -0.7281   -4.1746    1.2741 S   0  0  0  0  0  0  0  0  0  0  0  0
   -1.7499   -4.3403   -0.2040 C   0  0  0  0  0  0  0  0  0  0  0  0
   -2.4312   -2.9950   -0.4703 C   0  0  1  0  0  0  0  0  0  0  0  0
   -3.1172   -3.1632   -1.8002 C   0  0  0  0  0  0  0  0  0  0  0  0
   -2.9927   -4.2078   -2.3876 O   0  0  0  0  0  0  0  0  0  0  0  0
   -3.9046   -1.9939   -2.2793 C   0  0  0  0  0  0  0  0  0  0  0  0
   -3.5966   -2.9555    0.5151 C   0  0  0  0  0  0  0  0  0  0  0  0
   -3.7154   -2.1571    1.4259 O   0  0  0  0  0  0  0  0  0  0  0  0
   -4.6015   -3.9286    0.3418 N   0  0  0  0  0  0  0  0  0  0  0  0
   -5.7939   -4.0872    1.1552 C   0  0  2  0  0  0  0  0  0  0  0  0
   -5.7909   -5.3666    1.9247 C   0  0  0  0  0  0  0  0  0  0  0  0
   -5.7097   -6.6163    1.1294 C   0  0  0  0  0  0  0  0  0  0  0  0
   -6.8082   -6.8491    0.1634 C   0  0  0  0  0  0  0  0  0  0  0  0
   -6.7120   -6.5046   -1.0479 O   0  0  0  0  0  0  0  0  0  0  0  0
   -8.0200   -7.4581    0.5209 O   0  0  0  0  0  0  0  0  0  0  0  0
   -6.9849   -3.8268    0.3350 C   0  0  0  0  0  0  0  0  0  0  0  0
   -6.8161   -3.4739   -0.8519 O   0  0  0  0  0  0  0  0  0  0  0  0
   -8.3290   -3.9285    0.7297 N   0  0  0  0  0  0  0  0  0  0  0  0
   -8.9089   -4.2593    1.9892 C   0  0  0  0  0  0  0  0  0  0  0  0
  -10.3176   -3.6753    1.9897 C   0  0  0  0  0  0  0  0  0  0  0  0
  -10.4102   -2.8691    0.7014 C   0  0  0  0  0  0  0  0  0  0  0  0
   -9.4658   -3.6743   -0.1622 C   0  0  1  0  0  0  0  0  0  0  0  0
   -9.1248   -3.0000   -1.4082 C   0  0  0  0  0  0  0  0  0  0  0  0
   -8.8432   -3.6119   -2.4583 O   0  0  0  0  0  0  0  0  0  0  0  0
   -9.0762   -1.5590   -1.5842 N   0  0  0  0  0  0  0  0  0  0  0  0
   -8.7251   -0.9827   -2.8892 C   0  0  2  0  0  0  0  0  0  0  0  0
   -7.6304   -0.0212   -2.8518 C   0  0  0  0  0  0  0  0  0  0  0  0
   -7.1148    0.4580   -3.8769 O   0  0  0  0  0  0  0  0  0  0  0  0
   -7.0404    0.4720   -1.6257 N   0  0  0  0  0  0  0  0  0  0  0  0
   -5.8965    1.3855   -1.6342 C   0  0  2  0  0  0  0  0  0  0  0  0
   -4.9769    1.0825   -0.5307 C   0  0  0  0  0  0  0  0  0  0  0  0
   -5.2726    0.2215    0.2938 O   0  0  0  0  0  0  0  0  0  0  0  0
   -3.7016    1.7293   -0.3172 N   0  0  0  0  0  0  0  0  0  0  0  0
   -2.9314    1.3128    0.8252 C   0  0  1  0  0  0  0  0  0  0  0  0
   -1.7180    0.6416    0.1946 C   0  0  0  0  0  0  0  0  0  0  0  0
   -1.5504    0.5358   -1.0204 O   0  0  0  0  0  0  0  0  0  0  0  0
   -0.6855    0.0859    1.0080 N   0  0  0  0  0  0  0  0  0  0  0  0
   -2.3477    2.3889    1.6735 C   0  0  0  0  0  0  0  0  0  0  0  0
   -3.2571    3.3609    2.2709 C   0  0  0  0  0  0  0  0  0  0  0  0
   -3.8649    3.3931    3.5026 C   0  0  0  0  0  0  0  0  0  0  0  0
   -4.6324    4.4914    3.5902 N   0  0  0  0  0  0  0  0  0  0  0  0
   -4.5636    5.2127    2.4467 C   0  0  0  0  0  0  0  0  0  0  0  0
   -3.6968    4.5075    1.6025 C   0  0  0  0  0  0  0  0  0  0  0  0
   -3.4285    5.0443    0.3395 C   0  0  0  0  0  0  0  0  0  0  0  0
   -3.9937    6.2353   -0.0754 C   0  0  0  0  0  0  0  0  0  0  0  0
   -4.8508    6.9253    0.7691 C   0  0  0  0  0  0  0  0  0  0  0  0
   -5.1295    6.4124    2.0195 C   0  0  0  0  0  0  0  0  0  0  0  0
   -6.4341    2.8186   -1.5488 C   0  0  0  0  0  0  0  0  0  0  0  0
   -7.2484    3.0490   -0.2946 C   0  0  0  0  0  0  0  0  0  0  0  0
   -7.6964    4.5002   -0.3539 C   0  0  0  0  0  0  0  0  0  0  0  0
   -8.4957    4.8706    0.7847 N   0  0  0  0  0  0  0  0  0  0  0  0
   -8.7396    6.1527    0.9022 C   0  0  0  0  0  0  0  0  0  0  0  0
   -8.2489    7.0838   -0.0277 N   0  0  0  0  0  0  0  0  0  0  0  0
   -9.5262    6.5638    2.0091 N   0  0  0  0  0  0  0  0  0  0  0  0
   -9.9498   -0.3296   -3.5007 C   0  0  0  0  0  0  0  0  0  0  0  0
  -10.4649    0.7598   -2.5850 C   0  0  0  0  0  0  0  0  0  0  0  0
  -10.1264    2.0622   -2.7201 C   0  0  0  0  0  0  0  0  0  0  0  0
  -10.6167    3.0281   -1.8417 C   0  0  0  0  0  0  0  0  0  0  0  0
  -11.4609    2.5463   -0.8411 C   0  0  0  0  0  0  0  0  0  0  0  0
  -11.8036    1.2378   -0.7017 C   0  0  0  0  0  0  0  0  0  0  0  0
  -11.3132    0.2823   -1.5778 C   0  0  0  0  0  0  0  0  0  0  0  0
   14.0071    1.4479    3.5316 H   0  0  0  0  0  0  0  0  0  0  0  0
   13.8041    1.4731    1.8082 H   0  0  0  0  0  0  0  0  0  0  0  0
   14.3695   -0.7336    1.6831 H   0  0  0  0  0  0  0  0  0  0  0  0
   14.6595   -0.6138    3.4713 H   0  0  0  0  0  0  0  0  0  0  0  0
   12.3939   -1.1258    4.0060 H   0  0  0  0  0  0  0  0  0  0  0  0
   13.0980   -2.3767    2.9529 H   0  0  0  0  0  0  0  0  0  0  0  0
   10.8033   -1.8703    2.4413 H   0  0  0  0  0  0  0  0  0  0  0  0
   11.1809   -0.1317    2.2134 H   0  0  0  0  0  0  0  0  0  0  0  0
   12.8321   -0.8088    0.3841 H   0  0  0  0  0  0  0  0  0  0  0  0
   12.2964   -2.4977    0.5973 H   0  0  0  0  0  0  0  0  0  0  0  0
   10.4217   -0.1394   -0.1616 H   0  0  0  0  0  0  0  0  0  0  0  0
   11.9396   -1.6805   -3.5679 H   0  0  0  0  0  0  0  0  0  0  0  0
   10.8423   -0.3174   -3.4606 H   0  0  0  0  0  0  0  0  0  0  0  0
   12.3173    0.8778   -2.0637 H   0  0  0  0  0  0  0  0  0  0  0  0
   13.8638   -1.2789   -1.4973 H   0  0  0  0  0  0  0  0  0  0  0  0
   16.7543    1.2042   -1.0980 H   0  0  0  0  0  0  0  0  0  0  0  0
   16.1359   -0.4286   -0.5007 H   0  0  0  0  0  0  0  0  0  0  0  0
   14.6874   -0.2241   -4.2023 H   0  0  0  0  0  0  0  0  0  0  0  0
   14.0567   -1.8990   -3.7494 H   0  0  0  0  0  0  0  0  0  0  0  0
   17.1330   -3.1023   -2.2352 H   0  0  0  0  0  0  0  0  0  0  0  0
    9.9422   -2.7995    0.7397 H   0  0  0  0  0  0  0  0  0  0  0  0
    7.7845   -1.9238    1.0734 H   0  0  0  0  0  0  0  0  0  0  0  0
    8.9595   -0.7505    1.7883 H   0  0  0  0  0  0  0  0  0  0  0  0
    6.2515    0.9573   -0.4114 H   0  0  0  0  0  0  0  0  0  0  0  0
    8.4772    2.1421    0.4915 H   0  0  0  0  0  0  0  0  0  0  0  0
    6.8239    2.7980    0.7508 H   0  0  0  0  0  0  0  0  0  0  0  0
    8.6548    1.4214    2.7620 H   0  0  0  0  0  0  0  0  0  0  0  0
    7.2231    2.5361    3.0201 H   0  0  0  0  0  0  0  0  0  0  0  0
    7.2531   -0.3158    3.3202 H   0  0  0  0  0  0  0  0  0  0  0  0
    5.8230    0.7980    3.3012 H   0  0  0  0  0  0  0  0  0  0  0  0
    4.6505   -1.2274    1.9031 H   0  0  0  0  0  0  0  0  0  0  0  0
    4.2790    0.4876    1.6543 H   0  0  0  0  0  0  0  0  0  0  0  0
    3.0285   -1.0435   -1.3038 H   0  0  0  0  0  0  0  0  0  0  0  0
    5.0472    0.2674   -2.4893 H   0  0  0  0  0  0  0  0  0  0  0  0
    3.3580    0.3681   -3.0692 H   0  0  0  0  0  0  0  0  0  0  0  0
    4.9297    2.5025   -1.9970 H   0  0  0  0  0  0  0  0  0  0  0  0
    3.2447    2.5918   -2.5687 H   0  0  0  0  0  0  0  0  0  0  0  0
    2.8013    2.9830   -0.3014 H   0  0  0  0  0  0  0  0  0  0  0  0
    4.2882    2.1859    0.2045 H   0  0  0  0  0  0  0  0  0  0  0  0
    0.3572   -0.7204   -0.6168 H   0  0  0  0  0  0  0  0  0  0  0  0
    2.3516   -1.2261    1.2666 H   0  0  0  0  0  0  0  0  0  0  0  0
    0.8664   -1.2126    2.3179 H   0  0  0  0  0  0  0  0  0  0  0  0
   -2.5455   -5.0955    0.0347 H   0  0  0  0  0  0  0  0  0  0  0  0
   -1.1927   -4.6995   -1.0785 H   0  0  0  0  0  0  0  0  0  0  0  0
   -1.8224   -2.1437   -0.3965 H   0  0  0  0  0  0  0  0  0  0  0  0
   -3.2926   -1.0855   -2.3525 H   0  0  0  0  0  0  0  0  0  0  0  0
   -4.3352   -2.2734   -3.2673 H   0  0  0  0  0  0  0  0  0  0  0  0
   -4.6850   -1.8121   -1.4989 H   0  0  0  0  0  0  0  0  0  0  0  0
   -4.4727   -4.5887   -0.4327 H   0  0  0  0  0  0  0  0  0  0  0  0
   -5.7774   -3.2672    1.9360 H   0  0  0  0  0  0  0  0  0  0  0  0
   -6.6736   -5.4063    2.5754 H   0  0  0  0  0  0  0  0  0  0  0  0
   -4.9172   -5.3570    2.6281 H   0  0  0  0  0  0  0  0  0  0  0  0
   -4.7113   -6.7675    0.6528 H   0  0  0  0  0  0  0  0  0  0  0  0
   -5.7665   -7.4604    1.8783 H   0  0  0  0  0  0  0  0  0  0  0  0
   -8.7429   -7.6634   -0.1369 H   0  0  0  0  0  0  0  0  0  0  0  0
   -8.9910   -5.3527    2.1746 H   0  0  0  0  0  0  0  0  0  0  0  0
   -8.3545   -3.7131    2.7774 H   0  0  0  0  0  0  0  0  0  0  0  0
  -10.5131   -3.0288    2.8383 H   0  0  0  0  0  0  0  0  0  0  0  0
  -11.0570   -4.4834    1.8863 H   0  0  0  0  0  0  0  0  0  0  0  0
   -9.9205   -1.9022    0.9293 H   0  0  0  0  0  0  0  0  0  0  0  0
  -11.4124   -2.7973    0.2852 H   0  0  0  0  0  0  0  0  0  0  0  0
   -9.9334   -4.6634   -0.4459 H   0  0  0  0  0  0  0  0  0  0  0  0
   -9.2981   -1.0292   -0.7568 H   0  0  0  0  0  0  0  0  0  0  0  0
   -8.4525   -1.7961   -3.6112 H   0  0  0  0  0  0  0  0  0  0  0  0
   -7.4967    0.1268   -0.7859 H   0  0  0  0  0  0  0  0  0  0  0  0
   -5.3669    1.3735   -2.6037 H   0  0  0  0  0  0  0  0  0  0  0  0
   -3.4724    2.4261   -1.0123 H   0  0  0  0  0  0  0  0  0  0  0  0
   -3.4485    0.5338    1.4184 H   0  0  0  0  0  0  0  0  0  0  0  0
   -0.8531    0.0851    2.0073 H   0  0  0  0  0  0  0  0  0  0  0  0
   -1.5515    2.9675    1.1038 H   0  0  0  0  0  0  0  0  0  0  0  0
   -1.7210    1.8581    2.4506 H   0  0  0  0  0  0  0  0  0  0  0  0
   -3.7426    2.6538    4.2679 H   0  0  0  0  0  0  0  0  0  0  0  0
   -5.2165    4.7757    4.4323 H   0  0  0  0  0  0  0  0  0  0  0  0
   -2.7511    4.5298   -0.3474 H   0  0  0  0  0  0  0  0  0  0  0  0
   -3.7431    6.6042   -1.0793 H   0  0  0  0  0  0  0  0  0  0  0  0
   -5.2778    7.8594    0.4132 H   0  0  0  0  0  0  0  0  0  0  0  0
   -5.8073    6.9386    2.7106 H   0  0  0  0  0  0  0  0  0  0  0  0
   -7.1165    2.9015   -2.4206 H   0  0  0  0  0  0  0  0  0  0  0  0
   -5.6138    3.5250   -1.6413 H   0  0  0  0  0  0  0  0  0  0  0  0
   -6.5411    2.9980    0.5575 H   0  0  0  0  0  0  0  0  0  0  0  0
   -8.0741    2.3352   -0.2228 H   0  0  0  0  0  0  0  0  0  0  0  0
   -6.7328    5.0908   -0.3886 H   0  0  0  0  0  0  0  0  0  0  0  0
   -8.1571    4.6616   -1.3287 H   0  0  0  0  0  0  0  0  0  0  0  0
   -7.6788    6.8091   -0.8514 H   0  0  0  0  0  0  0  0  0  0  0  0
   -8.4514    8.0880    0.0935 H   0  0  0  0  0  0  0  0  0  0  0  0
  -10.4307    6.1704    2.2863 H   0  0  0  0  0  0  0  0  0  0  0  0
   -9.1228    7.3462    2.5858 H   0  0  0  0  0  0  0  0  0  0  0  0
  -10.7596   -1.0485   -3.7245 H   0  0  0  0  0  0  0  0  0  0  0  0
   -9.7103    0.1975   -4.4456 H   0  0  0  0  0  0  0  0  0  0  0  0
   -9.4711    2.3847   -3.5172 H   0  0  0  0  0  0  0  0  0  0  0  0
  -10.3761    4.0719   -1.9161 H   0  0  0  0  0  0  0  0  0  0  0  0
  -11.8347    3.3094   -0.1609 H   0  0  0  0  0  0  0  0  0  0  0  0
  -12.4661    0.9109    0.0928 H   0  0  0  0  0  0  0  0  0  0  0  0
  -11.5806   -0.7554   -1.4762 H   0  0  0  0  0  0  0  0  0  0  0  0
  1  2  1  0
  2  3  1  0
  3  4  1  0
  4  5  1  0
  5  6  1  0
  6  7  1  0
  7  8  2  0
  7  9  1  0
  9 10  1  0
 10 11  1  0
 11 12  1  0
 12 13  2  0
 12 14  1  0
 11 15  1  0
 15 16  1  0
 16 17  2  0
 16 18  1  0
  6 19  1  0
 19 20  1  0
 20 21  1  0
 21 22  2  0
 21 23  1  0
 23 24  1  0
 24 25  1  0
 25 26  1  0
 26 27  1  0
 27 28  1  0
 28 29  1  0
 29 30  2  0
 29 31  1  0
 31 32  1  0
 32 33  1  0
 33 34  1  0
 34 35  1  0
 35 36  1  0
 36 37  2  0
 36 38  1  0
 38 39  1  0
 39 40  1  0
 40 41  1  0
 41 42  1  0
 42 43  1  0
 43 44  1  0
 44 45  2  0
 44 46  1  0
 43 47  1  0
 47 48  2  0
 47 49  1  0
 49 50  1  0
 50 51  1  0
 51 52  1  0
 52 53  1  0
 53 54  2  0
 53 55  1  0
 50 56  1  0
 56 57  2  0
 56 58  1  0
 58 59  1  0
 59 60  1  0
 60 61  1  0
 61 62  1  0
 62 63  1  0
 63 64  2  0
 63 65  1  0
 65 66  1  0
 66 67  1  0
 67 68  2  0
 67 69  1  0
 69 70  1  0
 70 71  1  0
 71 72  2  0
 71 73  1  0
 73 74  1  0
 74 75  1  0
 75 76  2  0
 75 77  1  0
 74 78  1  0
 78 79  1  0
 79 80  2  0
 80 81  1  0
 81 82  1  0
 82 83  2  0
 83 84  1  0
 84 85  2  0
 85 86  1  0
 86 87  2  0
 70 88  1  0
 88 89  1  0
 89 90  1  0
 90 91  1  0
 91 92  2  3
 92 93  1  0
 92 94  1  0
 66 95  1  0
 95 96  1  0
 96 97  2  0
 97 98  1  0
 98 99  2  0
 99100  1  0
100101  2  0
 27 23  1  0
 35 31  1  0
 77 38  1  0
 83 79  1  0
101 96  1  0
 62 58  1  0
 87 82  1  0
  1102  1  0
  1103  1  0
  2104  1  0
  2105  1  0
  3106  1  0
  3107  1  0
  4108  1  0
  4109  1  0
  5110  1  0
  5111  1  0
  6112  1  6
  9113  1  0
  9114  1  0
 10115  1  0
 11116  1  1
 14117  1  0
 14118  1  0
 15119  1  0
 15120  1  0
 18121  1  0
 19122  1  0
 20123  1  0
 20124  1  0
 23125  1  6
 24126  1  0
 24127  1  0
 25128  1  0
 25129  1  0
 26130  1  0
 26131  1  0
 28132  1  0
 28133  1  0
 31134  1  6
 32135  1  0
 32136  1  0
 33137  1  0
 33138  1  0
 34139  1  0
 34140  1  0
 38141  1  6
 39142  1  0
 39143  1  0
 42144  1  0
 42145  1  0
 43146  1  6
 46147  1  0
 46148  1  0
 46149  1  0
 49150  1  0
 50151  1  1
 51152  1  0
 51153  1  0
 52154  1  0
 52155  1  0
 55156  1  0
 59157  1  0
 59158  1  0
 60159  1  0
 60160  1  0
 61161  1  0
 61162  1  0
 62163  1  6
 65164  1  0
 66165  1  6
 69166  1  0
 70167  1  6
 73168  1  0
 74169  1  1
 77170  1  0
 78171  1  0
 78172  1  0
 80173  1  0
 81174  1  0
 84175  1  0
 85176  1  0
 86177  1  0
 87178  1  0
 88179  1  0
 88180  1  0
 89181  1  0
 89182  1  0
 90183  1  0
 90184  1  0
 93185  1  0
 93186  1  0
 94187  1  0
 94188  1  0
 95189  1  0
 95190  1  0
 97191  1  0
 98192  1  0
 99193  1  0
100194  1  0
101195  1  0
M  END
>  <Ligand ID>  (1) 
LIG0003266

>  <Ligand>  (1) 
CHEMBL407680

>  <SMILES>  (1) 
NCCCC[C@@H](C(=O)CN[C@H](C(=O)N)CC(=O)O)NCC(=O)[C@@H]1CCCN1CC(=O)[C@@H]1CCCN1C(=O)[C@H]1CSSC[C@@H](C(=O)C)C(=O)N[C@H](CCC(=O)O)C(=O)N2CCC[C@H]2C(=O)N[C@H](C(=O)N[C@H](C(=O)N[C@@H](C(=O)N1)Cc1c[nH]c2c1cccc2)CCCN=C(N)N)Cc1ccccc1

>  <CID>  (1) 
44347927.0

>  <ChEMBL ID>  (1) 
nan

>  <InChiKey>  (1) 
SOMDWKASWVBBJU-MCNSLWKMSA-N

>  <InChi>  (1) 
InChI=1S/C67H94N16O16S2/c1-38(84)42-36-100-101-37-50(66(99)82-27-11-20-52(82)56(87)35-81-26-10-19-51(81)55(86)34-74-44(17-7-8-24-68)54(85)33-75-47(59(69)92)31-58(90)91)80-63(96)49(30-40-32-73-43-16-6-5-15-41(40)43)78-61(94)45(18-9-25-72-67(70)71)76-62(95)48(29-39-13-3-2-4-14-39)79-64(97)53-21-12-28-83(53)65(98)46(77-60(42)93)22-23-57(88)89/h2-6,13-16,32,42,44-53,73-75H,7-12,17-31,33-37,68H2,1H3,(H2,69,92)(H,76,95)(H,77,93)(H,78,94)(H,79,97)(H,80,96)(H,88,89)(H,90,91)(H4,70,71,72)/t42-,44-,45-,46+,47-,48-,49+,50+,51-,52-,53-/m0/s1

>  <IUPAC Name>  (1) 
(3S)-3-[[(3S)-3-[[2-[(2S)-1-[2-[(2S)-1-[(3R,6S,11S,14R,17S,20S,23S)-6-acetyl-20-benzyl-3-(2-carboxyethyl)-17-[3-(diaminomethylideneamino)propyl]-14-(1H-indol-3-ylmethyl)-2,5,13,16,19,22-hexaoxo-8,9-dithia-1,4,12,15,18,21-hexazabicyclo[21.3.0]hexacosane-11-carbonyl]pyrrolidin-2-yl]-2-oxoethyl]pyrrolidin-2-yl]-2-oxoethyl]amino]-7-amino-2-oxoheptyl]amino]-4-amino-4-oxobutanoic acid

$$$$
