
     RDKit          3D

 80 82  0  0  0  0  0  0  0  0999 V2000
   -3.9042    0.9457    1.5038 O   0  0  0  0  0  0  0  0  0  0  0  0
   -4.2822    0.8613    0.3307 C   0  0  0  0  0  0  0  0  0  0  0  0
   -3.8783   -0.1960   -0.5261 N   0  0  0  0  0  0  0  0  0  0  0  0
   -2.9514   -1.2449    0.0422 C   0  0  2  0  0  0  0  0  0  0  0  0
   -1.7051   -0.9964   -0.6191 C   0  0  0  0  0  0  0  0  0  0  0  0
   -1.6877    0.0562   -1.3924 O   0  0  0  0  0  0  0  0  0  0  0  0
   -0.4767   -1.6860   -0.5814 N   0  0  0  0  0  0  0  0  0  0  0  0
    0.6808   -1.1967   -1.3248 C   0  0  1  0  0  0  0  0  0  0  0  0
    1.7649   -0.9486   -0.3859 C   0  0  0  0  0  0  0  0  0  0  0  0
    1.5232   -1.1815    0.8535 O   0  0  0  0  0  0  0  0  0  0  0  0
    3.0580   -0.4731   -0.6788 N   0  0  0  0  0  0  0  0  0  0  0  0
    4.0084   -0.2621    0.4362 C   0  0  1  0  0  0  0  0  0  0  0  0
    5.1319   -1.2083    0.2749 C   0  0  0  0  0  0  0  0  0  0  0  0
    6.0748   -1.2734    1.1419 O   0  0  0  0  0  0  0  0  0  0  0  0
    5.2761   -2.1104   -0.8172 N   0  0  0  0  0  0  0  0  0  0  0  0
    4.4910    1.1611    0.4359 C   0  0  0  0  0  0  0  0  0  0  0  0
    5.4483    1.5069    1.5180 C   0  0  0  0  0  0  0  0  0  0  0  0
    5.8124    2.9967    1.3532 C   0  0  0  0  0  0  0  0  0  0  0  0
    6.7545    3.4206    2.3727 N   0  0  0  0  0  0  0  0  0  0  0  0
    6.6097    4.6041    2.8640 C   0  0  0  0  0  0  0  0  0  0  0  0
    7.4816    5.1290    3.8761 N   0  0  0  0  0  0  0  0  0  0  0  0
    5.5656    5.4937    2.4389 N   0  0  0  0  0  0  0  0  0  0  0  0
    0.9175   -1.9474   -2.5556 C   0  0  0  0  0  0  0  0  0  0  0  0
    1.1685   -3.3932   -2.4807 C   0  0  0  0  0  0  0  0  0  0  0  0
    0.1157   -4.2782   -2.5780 C   0  0  0  0  0  0  0  0  0  0  0  0
    0.2513   -5.6432   -2.5244 C   0  0  0  0  0  0  0  0  0  0  0  0
    1.4963   -6.1682   -2.3667 C   0  0  0  0  0  0  0  0  0  0  0  0
    2.5843   -5.3385   -2.2642 C   0  0  0  0  0  0  0  0  0  0  0  0
    2.4237   -3.9578   -2.3205 C   0  0  0  0  0  0  0  0  0  0  0  0
   -3.6699   -2.5061    0.0915 C   0  0  0  0  0  0  0  0  0  0  0  0
   -2.9748   -3.6736    0.6511 C   0  0  0  0  0  0  0  0  0  0  0  0
   -2.2734   -4.7069    0.0924 C   0  0  0  0  0  0  0  0  0  0  0  0
   -1.8598   -5.5853    1.0234 N   0  0  0  0  0  0  0  0  0  0  0  0
   -2.3105   -5.0983    2.2085 C   0  0  0  0  0  0  0  0  0  0  0  0
   -2.9717   -3.9666    1.9947 N   0  0  0  0  0  0  0  0  0  0  0  0
   -5.1867    1.8923   -0.2102 C   0  0  0  0  0  0  0  0  0  0  0  0
   -5.5943    2.9041    0.5390 C   0  0  0  0  0  0  0  0  0  0  0  0
   -6.4742    3.9569    0.1090 C   0  0  0  0  0  0  0  0  0  0  0  0
   -7.0136    4.0156   -1.1420 C   0  0  0  0  0  0  0  0  0  0  0  0
   -7.8487    5.0502   -1.5225 C   0  0  0  0  0  0  0  0  0  0  0  0
   -8.1619    6.0654   -0.6294 C   0  0  0  0  0  0  0  0  0  0  0  0
   -7.6151    6.0033    0.6354 C   0  0  0  0  0  0  0  0  0  0  0  0
   -6.7861    4.9664    0.9928 C   0  0  0  0  0  0  0  0  0  0  0  0
   -6.2709    4.9323    2.2321 F   0  0  0  0  0  0  0  0  0  0  0  0
   -4.1777   -0.2933   -1.5220 H   0  0  0  0  0  0  0  0  0  0  0  0
   -2.7867   -0.9226    1.1347 H   0  0  0  0  0  0  0  0  0  0  0  0
   -0.4235   -2.5421   -0.0056 H   0  0  0  0  0  0  0  0  0  0  0  0
    0.4179   -0.1249   -1.7008 H   0  0  0  0  0  0  0  0  0  0  0  0
    3.3060   -0.2853   -1.6539 H   0  0  0  0  0  0  0  0  0  0  0  0
    3.5363   -0.5113    1.4126 H   0  0  0  0  0  0  0  0  0  0  0  0
    4.9881   -3.1072   -0.6295 H   0  0  0  0  0  0  0  0  0  0  0  0
    5.6465   -1.8064   -1.7436 H   0  0  0  0  0  0  0  0  0  0  0  0
    3.6126    1.8513    0.4395 H   0  0  0  0  0  0  0  0  0  0  0  0
    5.0022    1.3178   -0.5587 H   0  0  0  0  0  0  0  0  0  0  0  0
    6.3706    0.9394    1.5759 H   0  0  0  0  0  0  0  0  0  0  0  0
    4.9291    1.4627    2.5093 H   0  0  0  0  0  0  0  0  0  0  0  0
    4.8473    3.5440    1.4660 H   0  0  0  0  0  0  0  0  0  0  0  0
    6.1865    3.2211    0.3392 H   0  0  0  0  0  0  0  0  0  0  0  0
    7.8200    6.1232    3.8186 H   0  0  0  0  0  0  0  0  0  0  0  0
    7.7714    4.4851    4.6708 H   0  0  0  0  0  0  0  0  0  0  0  0
    4.7751    5.6837    3.1004 H   0  0  0  0  0  0  0  0  0  0  0  0
    5.6037    5.9396    1.4805 H   0  0  0  0  0  0  0  0  0  0  0  0
   -0.0319   -1.8530   -3.1823 H   0  0  0  0  0  0  0  0  0  0  0  0
    1.6652   -1.4446   -3.2470 H   0  0  0  0  0  0  0  0  0  0  0  0
   -0.8698   -3.8365   -2.7162 H   0  0  0  0  0  0  0  0  0  0  0  0
   -0.6322   -6.2940   -2.6101 H   0  0  0  0  0  0  0  0  0  0  0  0
    1.6893   -7.2462   -2.3146 H   0  0  0  0  0  0  0  0  0  0  0  0
    3.5964   -5.7024   -2.1392 H   0  0  0  0  0  0  0  0  0  0  0  0
    3.2497   -3.2982   -2.2547 H   0  0  0  0  0  0  0  0  0  0  0  0
   -4.5803   -2.3324    0.7606 H   0  0  0  0  0  0  0  0  0  0  0  0
   -4.1892   -2.7759   -0.8812 H   0  0  0  0  0  0  0  0  0  0  0  0
   -2.0985   -4.8076   -0.9604 H   0  0  0  0  0  0  0  0  0  0  0  0
   -2.1100   -5.6278    3.1375 H   0  0  0  0  0  0  0  0  0  0  0  0
   -3.4251   -3.3872    2.7546 H   0  0  0  0  0  0  0  0  0  0  0  0
   -5.5314    1.8372   -1.2327 H   0  0  0  0  0  0  0  0  0  0  0  0
   -5.1977    2.8923    1.5711 H   0  0  0  0  0  0  0  0  0  0  0  0
   -6.8139    3.2635   -1.8774 H   0  0  0  0  0  0  0  0  0  0  0  0
   -8.2589    5.0574   -2.5258 H   0  0  0  0  0  0  0  0  0  0  0  0
   -8.8194    6.9008   -0.8905 H   0  0  0  0  0  0  0  0  0  0  0  0
   -7.8095    6.7582    1.3828 H   0  0  0  0  0  0  0  0  0  0  0  0
  1  2  2  0
  2  3  1  0
  3  4  1  0
  4  5  1  0
  5  6  2  0
  5  7  1  0
  7  8  1  0
  8  9  1  0
  9 10  2  0
  9 11  1  0
 11 12  1  0
 12 13  1  0
 13 14  2  0
 13 15  1  0
 12 16  1  0
 16 17  1  0
 17 18  1  0
 18 19  1  0
 19 20  2  3
 20 21  1  0
 20 22  1  0
  8 23  1  0
 23 24  1  0
 24 25  2  0
 25 26  1  0
 26 27  2  0
 27 28  1  0
 28 29  2  0
  4 30  1  0
 30 31  1  0
 31 32  2  0
 32 33  1  0
 33 34  2  0
 34 35  1  0
  2 36  1  0
 36 37  2  0
 37 38  1  0
 38 39  2  0
 39 40  1  0
 40 41  2  0
 41 42  1  0
 42 43  2  0
 43 44  1  0
 29 24  1  0
 35 31  1  0
 43 38  1  0
  3 45  1  0
  4 46  1  1
  7 47  1  0
  8 48  1  6
 11 49  1  0
 12 50  1  1
 15 51  1  0
 15 52  1  0
 16 53  1  0
 16 54  1  0
 17 55  1  0
 17 56  1  0
 18 57  1  0
 18 58  1  0
 21 59  1  0
 21 60  1  0
 22 61  1  0
 22 62  1  0
 23 63  1  0
 23 64  1  0
 25 65  1  0
 26 66  1  0
 27 67  1  0
 28 68  1  0
 29 69  1  0
 30 70  1  0
 30 71  1  0
 32 72  1  0
 34 73  1  0
 35 74  1  0
 36 75  1  0
 37 76  1  0
 39 77  1  0
 40 78  1  0
 41 79  1  0
 42 80  1  0
M  END
>  <Ligand ID>  (1) 
LIG0001255

>  <Ligand>  (1) 
CHEMBL566150

>  <SMILES>  (1) 
O=C(N[C@H](C(=O)N[C@@H](C(=O)N[C@@H](C(=O)N)CCCN=C(N)N)Cc1ccccc1)Cc1cnc[nH]1)/C=C/c1ccccc1F

>  <CID>  (1) 
45487406.0

>  <ChEMBL ID>  (1) 
nan

>  <InChiKey>  (1) 
TUKHJSCGQURWQQ-ZLBSISGLSA-N

>  <InChi>  (1) 
InChI=1S/C30H36FN9O4/c31-22-10-5-4-9-20(22)12-13-26(41)38-25(16-21-17-35-18-37-21)29(44)40-24(15-19-7-2-1-3-8-19)28(43)39-23(27(32)42)11-6-14-36-30(33)34/h1-5,7-10,12-13,17-18,23-25H,6,11,14-16H2,(H2,32,42)(H,35,37)(H,38,41)(H,39,43)(H,40,44)(H4,33,34,36)/b13-12+/t23-,24-,25+/m1/s1

>  <IUPAC Name>  (1) 
(2R)-5-(diaminomethylideneamino)-2-[[(2R)-2-[[(2S)-2-[[(E)-3-(2-fluorophenyl)prop-2-enoyl]amino]-3-(1H-imidazol-5-yl)propanoyl]amino]-3-phenylpropanoyl]amino]pentanamide

$$$$
