
     RDKit          3D

 14 13  0  0  0  0  0  0  0  0999 V2000
   -2.0418    0.0595    0.2125 C   0  0  0  0  0  0  0  0  0  0  0  0
   -0.7040   -0.6392    0.2969 C   0  0  0  0  0  0  0  0  0  0  0  0
    0.3438    0.4315    0.0523 C   0  0  0  0  0  0  0  0  0  0  0  0
    1.7211   -0.1501    0.1126 C   0  0  0  0  0  0  0  0  0  0  0  0
    1.9365   -1.3654    0.3378 O   0  0  0  0  0  0  0  0  0  0  0  0
    2.7716    0.7360   -0.0966 O   0  0  0  0  0  0  0  0  0  0  0  0
   -1.9961    0.8850    0.9702 H   0  0  0  0  0  0  0  0  0  0  0  0
   -2.1838    0.5137   -0.7846 H   0  0  0  0  0  0  0  0  0  0  0  0
   -2.8803   -0.5950    0.5008 H   0  0  0  0  0  0  0  0  0  0  0  0
   -0.5658   -0.9625    1.3650 H   0  0  0  0  0  0  0  0  0  0  0  0
   -0.5861   -1.4885   -0.3854 H   0  0  0  0  0  0  0  0  0  0  0  0
    0.1969    0.9575   -0.9132 H   0  0  0  0  0  0  0  0  0  0  0  0
    0.2648    1.1909    0.8632 H   0  0  0  0  0  0  0  0  0  0  0  0
    3.7231    0.4267   -0.1957 H   0  0  0  0  0  0  0  0  0  0  0  0
  1  2  1  0
  2  3  1  0
  3  4  1  0
  4  5  2  0
  4  6  1  0
  1  7  1  0
  1  8  1  0
  1  9  1  0
  2 10  1  0
  2 11  1  0
  3 12  1  0
  3 13  1  0
  6 14  1  0
M  END
>  <Ligand ID>  (1) 
LIG0000007

>  <Ligand>  (1) 
butyric acid

>  <SMILES>  (1) 
CCCC(=O)O

>  <CID>  (1) 
264.0

>  <ChEMBL ID>  (1) 
nan

>  <InChiKey>  (1) 
FERIUCNNQQJTOY-UHFFFAOYSA-N

>  <InChi>  (1) 
InChI=1S/C4H8O2/c1-2-3-4(5)6/h2-3H2,1H3,(H,5,6)

>  <IUPAC Name>  (1) 
butanoic acid

$$$$
