
     RDKit          3D

 58 60  0  0  0  0  0  0  0  0999 V2000
   -7.5213   -3.1165    0.2881 C   0  0  0  0  0  0  0  0  0  0  0  0
   -7.4246   -1.8175   -0.4827 C   0  0  0  0  0  0  0  0  0  0  0  0
   -6.3375   -1.0276   -0.0320 O   0  0  0  0  0  0  0  0  0  0  0  0
   -5.0738   -1.5397   -0.1147 C   0  0  0  0  0  0  0  0  0  0  0  0
   -4.7897   -2.6857   -0.5704 O   0  0  0  0  0  0  0  0  0  0  0  0
   -3.9758   -0.7549    0.3349 N   0  0  0  0  0  0  0  0  0  0  0  0
   -2.5976   -1.2400    0.2751 C   0  0  0  0  0  0  0  0  0  0  0  0
   -1.7568   -0.2010    1.0300 C   0  0  0  0  0  0  0  0  0  0  0  0
   -1.8430    1.1523    0.3881 C   0  0  0  0  0  0  0  0  0  0  0  0
   -3.2671    1.4787    0.0543 C   0  0  0  0  0  0  0  0  0  0  0  0
   -4.1684    0.5875    0.8842 C   0  0  0  0  0  0  0  0  0  0  0  0
   -0.9482    1.3533   -0.6950 N   0  0  0  0  0  0  0  0  0  0  0  0
   -1.0109    2.5992   -1.3462 C   0  0  0  0  0  0  0  0  0  0  0  0
    0.3174    3.3145   -1.1962 C   0  0  0  0  0  0  0  0  0  0  0  0
    1.2728    2.4335   -2.0116 C   0  0  0  0  0  0  0  0  0  0  0  0
    1.4222    1.0893   -1.4411 C   0  0  2  0  0  0  0  0  0  0  0  0
    0.2583    0.6586   -0.6211 C   0  0  0  0  0  0  0  0  0  0  0  0
    2.6588    0.8221   -0.7427 N   0  0  0  0  0  0  0  0  0  0  0  0
    3.5910   -0.1430   -1.1553 C   0  0  0  0  0  0  0  0  0  0  0  0
    3.3309   -0.8089   -2.1896 O   0  0  0  0  0  0  0  0  0  0  0  0
    4.8379   -0.4036   -0.4409 C   0  0  0  0  0  0  0  0  0  0  0  0
    5.2089    0.2773    0.7010 C   0  0  0  0  0  0  0  0  0  0  0  0
    6.3888    0.0308    1.3771 C   0  0  0  0  0  0  0  0  0  0  0  0
    7.2482   -0.9415    0.8978 C   0  0  0  0  0  0  0  0  0  0  0  0
    6.9001   -1.6366   -0.2425 C   0  0  0  0  0  0  0  0  0  0  0  0
    5.7142   -1.3680   -0.8963 C   0  0  0  0  0  0  0  0  0  0  0  0
    8.5365   -1.2800    1.5508 C   0  0  0  0  0  0  0  0  0  0  0  0
   -6.9376   -3.0518    1.2300 H   0  0  0  0  0  0  0  0  0  0  0  0
   -7.1341   -3.9617   -0.3232 H   0  0  0  0  0  0  0  0  0  0  0  0
   -8.5714   -3.3137    0.5770 H   0  0  0  0  0  0  0  0  0  0  0  0
   -7.3004   -2.0534   -1.5666 H   0  0  0  0  0  0  0  0  0  0  0  0
   -8.3382   -1.2075   -0.3423 H   0  0  0  0  0  0  0  0  0  0  0  0
   -2.4656   -2.1919    0.8218 H   0  0  0  0  0  0  0  0  0  0  0  0
   -2.2210   -1.2443   -0.7624 H   0  0  0  0  0  0  0  0  0  0  0  0
   -0.7513   -0.6274    1.1123 H   0  0  0  0  0  0  0  0  0  0  0  0
   -2.1272   -0.1522    2.0984 H   0  0  0  0  0  0  0  0  0  0  0  0
   -1.5419    1.8981    1.1826 H   0  0  0  0  0  0  0  0  0  0  0  0
   -3.5237    2.5236    0.3054 H   0  0  0  0  0  0  0  0  0  0  0  0
   -3.5339    1.2222   -1.0106 H   0  0  0  0  0  0  0  0  0  0  0  0
   -3.9958    0.6482    1.9625 H   0  0  0  0  0  0  0  0  0  0  0  0
   -5.2244    0.9034    0.7167 H   0  0  0  0  0  0  0  0  0  0  0  0
   -1.2084    2.4343   -2.4313 H   0  0  0  0  0  0  0  0  0  0  0  0
   -1.7556    3.2352   -0.8534 H   0  0  0  0  0  0  0  0  0  0  0  0
    0.2817    4.3121   -1.6350 H   0  0  0  0  0  0  0  0  0  0  0  0
    0.5603    3.2834   -0.1209 H   0  0  0  0  0  0  0  0  0  0  0  0
    2.2066    2.9675   -2.2617 H   0  0  0  0  0  0  0  0  0  0  0  0
    0.7414    2.3424   -2.9848 H   0  0  0  0  0  0  0  0  0  0  0  0
    1.4634    0.3646   -2.2980 H   0  0  0  0  0  0  0  0  0  0  0  0
    0.5951    0.7339    0.4525 H   0  0  0  0  0  0  0  0  0  0  0  0
    0.0360   -0.4433   -0.7431 H   0  0  0  0  0  0  0  0  0  0  0  0
    2.8316    1.4081    0.1214 H   0  0  0  0  0  0  0  0  0  0  0  0
    4.5677    1.0450    1.1103 H   0  0  0  0  0  0  0  0  0  0  0  0
    6.6728    0.5712    2.2745 H   0  0  0  0  0  0  0  0  0  0  0  0
    7.5430   -2.3935   -0.6371 H   0  0  0  0  0  0  0  0  0  0  0  0
    5.4427   -1.9125   -1.7885 H   0  0  0  0  0  0  0  0  0  0  0  0
    8.7300   -0.6941    2.4543 H   0  0  0  0  0  0  0  0  0  0  0  0
    9.4014   -1.1251    0.8574 H   0  0  0  0  0  0  0  0  0  0  0  0
    8.5857   -2.3534    1.8487 H   0  0  0  0  0  0  0  0  0  0  0  0
  1  2  1  0
  2  3  1  0
  3  4  1  0
  4  5  2  0
  4  6  1  0
  6  7  1  0
  7  8  1  0
  8  9  1  0
  9 10  1  0
 10 11  1  0
  9 12  1  0
 12 13  1  0
 13 14  1  0
 14 15  1  0
 15 16  1  0
 16 17  1  0
 16 18  1  0
 18 19  1  0
 19 20  2  0
 19 21  1  0
 21 22  2  0
 22 23  1  0
 23 24  2  0
 24 25  1  0
 25 26  2  0
 24 27  1  0
 11  6  1  0
 17 12  1  0
 26 21  1  0
  1 28  1  0
  1 29  1  0
  1 30  1  0
  2 31  1  0
  2 32  1  0
  7 33  1  0
  7 34  1  0
  8 35  1  0
  8 36  1  0
  9 37  1  0
 10 38  1  0
 10 39  1  0
 11 40  1  0
 11 41  1  0
 13 42  1  0
 13 43  1  0
 14 44  1  0
 14 45  1  0
 15 46  1  0
 15 47  1  0
 16 48  1  6
 17 49  1  0
 17 50  1  0
 18 51  1  0
 22 52  1  0
 23 53  1  0
 25 54  1  0
 26 55  1  0
 27 56  1  0
 27 57  1  0
 27 58  1  0
M  END
>  <Ligand ID>  (1) 
LIG0001943

>  <Ligand>  (1) 
CHEMBL1916230

>  <SMILES>  (1) 
CCOC(=O)N1CCC(CC1)N1CCC[C@H](C1)NC(=O)c1ccc(cc1)C

>  <CID>  (1) 
46872060.0

>  <ChEMBL ID>  (1) 
nan

>  <InChiKey>  (1) 
JKJPQSZAVSDSPV-GOSISDBHSA-N

>  <InChi>  (1) 
InChI=1S/C21H31N3O3/c1-3-27-21(26)23-13-10-19(11-14-23)24-12-4-5-18(15-24)22-20(25)17-8-6-16(2)7-9-17/h6-9,18-19H,3-5,10-15H2,1-2H3,(H,22,25)/t18-/m1/s1

>  <IUPAC Name>  (1) 
ethyl 4-[(3R)-3-[(4-methylbenzoyl)amino]piperidin-1-yl]piperidine-1-carboxylate

$$$$
