
     RDKit          3D

 51 55  0  0  0  0  0  0  0  0999 V2000
    0.4808    4.1153   -0.2664 C   0  0  0  0  0  0  0  0  0  0  0  0
    0.4157    2.7375   -0.4871 O   0  0  0  0  0  0  0  0  0  0  0  0
   -0.6958    2.1693    0.1306 C   0  0  1  0  0  0  0  0  0  0  0  0
   -1.6022    1.6732   -0.9601 C   0  0  2  0  0  0  0  0  0  0  0  0
   -2.9956    1.5824   -0.3515 C   0  0  0  0  0  0  0  0  0  0  0  0
   -1.1551    0.3219   -1.5046 C   0  0  0  0  0  0  0  0  0  0  0  0
   -1.3063   -0.6260   -0.3476 C   0  0  2  0  0  0  0  0  0  0  0  0
   -0.3764   -0.2503    0.7667 C   0  0  2  0  0  0  0  0  0  0  0  0
   -0.3262    1.1740    1.1534 C   0  0  1  0  0  0  0  0  0  0  0  0
    1.0677    1.3540    1.4731 O   0  0  0  0  0  0  0  0  0  0  0  0
    1.8264    0.4856    0.7191 C   0  0  0  0  0  0  0  0  0  0  0  0
    0.9835   -0.4960    0.2761 C   0  0  0  0  0  0  0  0  0  0  0  0
    1.3315   -1.5513   -0.5031 C   0  0  0  0  0  0  0  0  0  0  0  0
    0.2865   -2.5215   -0.8953 C   0  0  0  0  0  0  0  0  0  0  0  0
   -1.1102   -2.0697   -0.6887 C   0  0  1  0  0  0  0  0  0  0  0  0
   -1.7528   -2.8369    0.3625 N   0  0  0  0  0  0  0  0  0  0  0  0
   -1.8380   -2.1145    1.6059 C   0  0  0  0  0  0  0  0  0  0  0  0
   -0.6561   -1.2201    1.8887 C   0  0  0  0  0  0  0  0  0  0  0  0
   -3.1084   -3.1321   -0.0664 C   0  0  0  0  0  0  0  0  0  0  0  0
    2.6514   -1.6582   -0.8919 C   0  0  0  0  0  0  0  0  0  0  0  0
    3.5574   -0.6862   -0.4702 C   0  0  0  0  0  0  0  0  0  0  0  0
    3.1569    0.3829    0.3305 C   0  0  0  0  0  0  0  0  0  0  0  0
    4.0362    1.3596    0.7618 O   0  0  0  0  0  0  0  0  0  0  0  0
    5.4033    1.2878    0.3847 C   0  0  0  0  0  0  0  0  0  0  0  0
   -0.4613    4.5678   -0.6942 H   0  0  0  0  0  0  0  0  0  0  0  0
    0.5447    4.3548    0.8085 H   0  0  0  0  0  0  0  0  0  0  0  0
    1.2990    4.5468   -0.8444 H   0  0  0  0  0  0  0  0  0  0  0  0
   -1.2382    3.0023    0.6440 H   0  0  0  0  0  0  0  0  0  0  0  0
   -1.6481    2.4287   -1.7555 H   0  0  0  0  0  0  0  0  0  0  0  0
   -2.9127    1.3790    0.7513 H   0  0  0  0  0  0  0  0  0  0  0  0
   -3.4546    2.6112   -0.3861 H   0  0  0  0  0  0  0  0  0  0  0  0
   -3.6596    0.8846   -0.8638 H   0  0  0  0  0  0  0  0  0  0  0  0
   -0.1048    0.4487   -1.8254 H   0  0  0  0  0  0  0  0  0  0  0  0
   -1.8453    0.0259   -2.3019 H   0  0  0  0  0  0  0  0  0  0  0  0
   -2.3448   -0.5146    0.0345 H   0  0  0  0  0  0  0  0  0  0  0  0
   -0.8588    1.3127    2.1187 H   0  0  0  0  0  0  0  0  0  0  0  0
    0.5050   -2.8075   -1.9637 H   0  0  0  0  0  0  0  0  0  0  0  0
    0.4868   -3.4482   -0.3176 H   0  0  0  0  0  0  0  0  0  0  0  0
   -1.6530   -2.2109   -1.6694 H   0  0  0  0  0  0  0  0  0  0  0  0
   -1.8369   -2.8789    2.4117 H   0  0  0  0  0  0  0  0  0  0  0  0
   -2.7855   -1.5499    1.7389 H   0  0  0  0  0  0  0  0  0  0  0  0
   -0.9479   -0.6113    2.7779 H   0  0  0  0  0  0  0  0  0  0  0  0
    0.2014   -1.8757    2.1228 H   0  0  0  0  0  0  0  0  0  0  0  0
   -3.0653   -4.1144   -0.6182 H   0  0  0  0  0  0  0  0  0  0  0  0
   -3.4608   -2.3806   -0.8030 H   0  0  0  0  0  0  0  0  0  0  0  0
   -3.8295   -3.1872    0.7783 H   0  0  0  0  0  0  0  0  0  0  0  0
    2.9616   -2.4910   -1.5153 H   0  0  0  0  0  0  0  0  0  0  0  0
    4.5916   -0.7554   -0.7652 H   0  0  0  0  0  0  0  0  0  0  0  0
    5.8783    2.2144    0.7449 H   0  0  0  0  0  0  0  0  0  0  0  0
    5.8368    0.4521    0.9916 H   0  0  0  0  0  0  0  0  0  0  0  0
    5.5278    1.1160   -0.6969 H   0  0  0  0  0  0  0  0  0  0  0  0
  1  2  1  0
  2  3  1  0
  3  4  1  0
  4  5  1  0
  4  6  1  0
  6  7  1  0
  7  8  1  0
  8  9  1  0
  9 10  1  0
 10 11  1  0
 11 12  2  0
 12 13  1  0
 13 14  1  0
 14 15  1  0
 15 16  1  0
 16 17  1  0
 17 18  1  0
 16 19  1  0
 13 20  2  0
 20 21  1  0
 21 22  2  0
 22 23  1  0
 23 24  1  0
  9  3  1  0
 22 11  1  0
 15  7  1  0
  8 18  1  1
 12  8  1  0
  1 25  1  0
  1 26  1  0
  1 27  1  0
  3 28  1  1
  4 29  1  6
  5 30  1  0
  5 31  1  0
  5 32  1  0
  6 33  1  0
  6 34  1  0
  7 35  1  1
  9 36  1  1
 14 37  1  0
 14 38  1  0
 15 39  1  6
 17 40  1  0
 17 41  1  0
 18 42  1  0
 18 43  1  0
 19 44  1  0
 19 45  1  0
 19 46  1  0
 20 47  1  0
 21 48  1  0
 24 49  1  0
 24 50  1  0
 24 51  1  0
M  END
>  <Ligand ID>  (1) 
LIG0000799

>  <Ligand>  (1) 
CHEMBL2418743

>  <SMILES>  (1) 
CO[C@H]1[C@H](C)C[C@@H]2[C@@]34[C@H]1Oc1c4c(C[C@H]2N(CC3)C)ccc1OC

>  <CID>  (1) 
71819525.0

>  <ChEMBL ID>  (1) 
nan

>  <InChiKey>  (1) 
OHCBAFYFTDSPLV-JWRNYFHVSA-N

>  <InChi>  (1) 
InChI=1S/C20H27NO3/c1-11-9-13-14-10-12-5-6-15(22-3)18-16(12)20(13,7-8-21(14)2)19(24-18)17(11)23-4/h5-6,11,13-14,17,19H,7-10H2,1-4H3/t11-,13+,14-,17+,19+,20+/m1/s1

>  <IUPAC Name>  (1) 
(4R,4aR,6R,7S,7aR,12bS)-7,9-dimethoxy-3,6-dimethyl-2,4,4a,5,6,7,7a,13-octahydro-1H-4,12-methanobenzofuro[3,2-e]isoquinoline

$$$$
