
     RDKit          3D

 31 30  0  0  0  0  0  0  0  0999 V2000
   -5.2949    0.2575    0.1402 O   0  0  0  0  0  0  0  0  0  0  0  0
   -4.1477   -0.2332    0.7424 C   0  0  0  0  0  0  0  0  0  0  0  0
   -4.2448   -0.6461    1.9325 O   0  0  0  0  0  0  0  0  0  0  0  0
   -2.8331   -0.2799    0.0239 C   0  0  2  0  0  0  0  0  0  0  0  0
   -1.8569    0.4969    0.8429 C   0  0  0  0  0  0  0  0  0  0  0  0
   -0.4795    0.5263    0.2181 C   0  0  0  0  0  0  0  0  0  0  0  0
    0.2294   -1.1126    0.0141 P   0  0  0  0  0  0  0  0  0  0  0  0
    0.1317   -1.8501    1.3407 O   0  0  0  0  0  0  0  0  0  0  0  0
    1.9960   -0.9344   -0.3336 C   0  0  0  0  0  0  0  0  0  0  0  0
    2.4179    0.4331    0.1413 C   0  0  0  0  0  0  0  0  0  0  0  0
    4.1814    0.7301   -0.1496 P   0  0  0  0  0  0  0  0  0  0  0  0
    4.9407    0.4850    1.1517 O   0  0  0  0  0  0  0  0  0  0  0  0
    4.7864   -0.2869   -1.3448 O   0  0  0  0  0  0  0  0  0  0  0  0
    4.3578    2.3312   -0.6415 O   0  0  0  0  0  0  0  0  0  0  0  0
   -0.5475   -2.0300   -1.1699 O   0  0  0  0  0  0  0  0  0  0  0  0
   -3.0402    0.2499   -1.2893 N   0  0  0  0  0  0  0  0  0  0  0  0
   -6.1917    0.2224    0.6050 H   0  0  0  0  0  0  0  0  0  0  0  0
   -2.4717   -1.3315   -0.0600 H   0  0  0  0  0  0  0  0  0  0  0  0
   -1.7942    0.1390    1.8827 H   0  0  0  0  0  0  0  0  0  0  0  0
   -2.1855    1.5768    0.8587 H   0  0  0  0  0  0  0  0  0  0  0  0
   -0.5137    1.0274   -0.7685 H   0  0  0  0  0  0  0  0  0  0  0  0
    0.2324    1.1069    0.8528 H   0  0  0  0  0  0  0  0  0  0  0  0
    2.5916   -1.7451    0.1315 H   0  0  0  0  0  0  0  0  0  0  0  0
    2.1400   -0.9768   -1.4330 H   0  0  0  0  0  0  0  0  0  0  0  0
    1.8124    1.1805   -0.4181 H   0  0  0  0  0  0  0  0  0  0  0  0
    2.2078    0.5892    1.2186 H   0  0  0  0  0  0  0  0  0  0  0  0
    4.9985   -1.2020   -0.9815 H   0  0  0  0  0  0  0  0  0  0  0  0
    5.0838    2.7655   -0.0997 H   0  0  0  0  0  0  0  0  0  0  0  0
   -0.8218   -2.9335   -0.8521 H   0  0  0  0  0  0  0  0  0  0  0  0
   -3.5445    1.1639   -1.2661 H   0  0  0  0  0  0  0  0  0  0  0  0
   -2.1401    0.2805   -1.8124 H   0  0  0  0  0  0  0  0  0  0  0  0
  1  2  1  0
  2  3  2  0
  2  4  1  0
  4  5  1  0
  5  6  1  0
  6  7  1  0
  7  8  2  0
  7  9  1  0
  9 10  1  0
 10 11  1  0
 11 12  2  0
 11 13  1  0
 11 14  1  0
  7 15  1  0
  4 16  1  0
  1 17  1  0
  4 18  1  6
  5 19  1  0
  5 20  1  0
  6 21  1  0
  6 22  1  0
  9 23  1  0
  9 24  1  0
 10 25  1  0
 10 26  1  0
 13 27  1  0
 14 28  1  0
 15 29  1  0
 16 30  1  0
 16 31  1  0
M  END
>  <Ligand ID>  (1) 
LIG0005082

>  <Ligand>  (1) 
SCHEMBL8241646

>  <SMILES>  (1) 
OC(=O)[C@H](CCP(=O)(CCP(=O)(O)O)O)N

>  <CID>  (1) 
46884710.0

>  <ChEMBL ID>  (1) 
nan

>  <InChiKey>  (1) 
VWCVVQHTGLXCCJ-YFKPBYRVSA-N

>  <InChi>  (1) 
InChI=1S/C6H15NO7P2/c7-5(6(8)9)1-2-15(10,11)3-4-16(12,13)14/h5H,1-4,7H2,(H,8,9)(H,10,11)(H2,12,13,14)/t5-/m0/s1

>  <IUPAC Name>  (1) 
(2S)-2-amino-4-[hydroxy(2-phosphonoethyl)phosphoryl]butanoic acid

$$$$
