
     RDKit          3D

 62 64  0  0  0  0  0  0  0  0999 V2000
   -4.1761   -0.6412    1.7505 C   0  0  0  0  0  0  0  0  0  0  0  0
   -3.4039    0.1017    0.7093 C   0  0  2  0  0  0  0  0  0  0  0  0
   -2.4208    1.0863    1.3589 C   0  0  0  0  0  0  0  0  0  0  0  0
   -1.6187    1.5590    0.2456 N   0  0  0  0  0  0  0  0  0  0  0  0
   -2.2925    2.3049   -0.7989 C   0  0  0  0  0  0  0  0  0  0  0  0
   -3.7573    2.0494   -0.8976 C   0  0  0  0  0  0  0  0  0  0  0  0
   -4.2127    0.8721   -0.1837 N   0  0  0  0  0  0  0  0  0  0  0  0
   -5.5588    0.4704   -0.3980 C   0  0  0  0  0  0  0  0  0  0  0  0
   -6.2432    1.1708   -1.1894 O   0  0  0  0  0  0  0  0  0  0  0  0
   -6.1380   -0.6225    0.2041 O   0  0  0  0  0  0  0  0  0  0  0  0
   -7.4947   -0.9895   -0.0397 C   0  0  0  0  0  0  0  0  0  0  0  0
   -7.6795   -1.2761   -1.5139 C   0  0  0  0  0  0  0  0  0  0  0  0
   -8.4181    0.1100    0.4293 C   0  0  0  0  0  0  0  0  0  0  0  0
   -7.7523   -2.2795    0.7072 C   0  0  0  0  0  0  0  0  0  0  0  0
   -0.2208    1.3023    0.1771 C   0  0  0  0  0  0  0  0  0  0  0  0
    0.3706    0.6093    1.1627 N   0  0  0  0  0  0  0  0  0  0  0  0
    1.6944    0.3488    1.1283 C   0  0  0  0  0  0  0  0  0  0  0  0
    2.4092    0.8213    0.0451 C   0  0  0  0  0  0  0  0  0  0  0  0
    1.7948    1.5440   -0.9837 C   0  0  0  0  0  0  0  0  0  0  0  0
    0.4726    1.7635   -0.8786 N   0  0  0  0  0  0  0  0  0  0  0  0
    3.7783    0.6176   -0.1048 O   0  0  0  0  0  0  0  0  0  0  0  0
    4.5718   -0.0829    0.8195 C   0  0  0  0  0  0  0  0  0  0  0  0
    5.9750   -0.0762    0.2918 C   0  0  0  0  0  0  0  0  0  0  0  0
    6.8764    0.9178    0.6027 C   0  0  0  0  0  0  0  0  0  0  0  0
    8.1558    0.8764    0.0902 C   0  0  0  0  0  0  0  0  0  0  0  0
    8.5230   -0.1826   -0.7448 C   0  0  0  0  0  0  0  0  0  0  0  0
    7.6317   -1.1836   -1.0641 C   0  0  0  0  0  0  0  0  0  0  0  0
    6.3525   -1.1141   -0.5331 C   0  0  0  0  0  0  0  0  0  0  0  0
   10.1268   -0.2833   -1.4194 S   0  0  0  0  0  0  0  0  0  0  0  0
   10.1310   -0.9110   -2.7895 O   0  0  0  0  0  0  0  0  0  0  0  0
   10.6697    1.1120   -1.5737 O   0  0  0  0  0  0  0  0  0  0  0  0
   11.1229   -1.1972   -0.2811 C   0  0  0  0  0  0  0  0  0  0  0  0
   -4.4486   -1.6639    1.4392 H   0  0  0  0  0  0  0  0  0  0  0  0
   -3.4566   -0.7974    2.6075 H   0  0  0  0  0  0  0  0  0  0  0  0
   -5.0233   -0.1094    2.1932 H   0  0  0  0  0  0  0  0  0  0  0  0
   -2.8548   -0.6439    0.0896 H   0  0  0  0  0  0  0  0  0  0  0  0
   -1.8408    0.6462    2.1669 H   0  0  0  0  0  0  0  0  0  0  0  0
   -3.0367    1.9726    1.6837 H   0  0  0  0  0  0  0  0  0  0  0  0
   -2.1818    3.3867   -0.4945 H   0  0  0  0  0  0  0  0  0  0  0  0
   -1.7625    2.2414   -1.7685 H   0  0  0  0  0  0  0  0  0  0  0  0
   -3.9675    1.8259   -1.9834 H   0  0  0  0  0  0  0  0  0  0  0  0
   -4.3876    2.9380   -0.6732 H   0  0  0  0  0  0  0  0  0  0  0  0
   -7.8126   -0.3371   -2.1001 H   0  0  0  0  0  0  0  0  0  0  0  0
   -6.8366   -1.8822   -1.8861 H   0  0  0  0  0  0  0  0  0  0  0  0
   -8.6000   -1.8814   -1.6259 H   0  0  0  0  0  0  0  0  0  0  0  0
   -9.3777   -0.3505    0.6668 H   0  0  0  0  0  0  0  0  0  0  0  0
   -8.5172    0.8137   -0.4114 H   0  0  0  0  0  0  0  0  0  0  0  0
   -7.9571    0.5768    1.3068 H   0  0  0  0  0  0  0  0  0  0  0  0
   -6.8006   -2.8280    0.8307 H   0  0  0  0  0  0  0  0  0  0  0  0
   -8.1828   -2.0946    1.7141 H   0  0  0  0  0  0  0  0  0  0  0  0
   -8.5132   -2.8506    0.1240 H   0  0  0  0  0  0  0  0  0  0  0  0
    2.2011   -0.2051    1.9036 H   0  0  0  0  0  0  0  0  0  0  0  0
    2.3747    1.9070   -1.8273 H   0  0  0  0  0  0  0  0  0  0  0  0
    4.1808   -1.1250    0.8411 H   0  0  0  0  0  0  0  0  0  0  0  0
    4.5359    0.3518    1.8333 H   0  0  0  0  0  0  0  0  0  0  0  0
    6.5211    1.7045    1.2544 H   0  0  0  0  0  0  0  0  0  0  0  0
    8.8653    1.6660    0.3397 H   0  0  0  0  0  0  0  0  0  0  0  0
    7.8992   -2.0096   -1.7081 H   0  0  0  0  0  0  0  0  0  0  0  0
    5.6250   -1.8915   -0.7677 H   0  0  0  0  0  0  0  0  0  0  0  0
   11.9614   -1.7251   -0.8066 H   0  0  0  0  0  0  0  0  0  0  0  0
   11.5825   -0.5376    0.4955 H   0  0  0  0  0  0  0  0  0  0  0  0
   10.5418   -1.9836    0.2344 H   0  0  0  0  0  0  0  0  0  0  0  0
  1  2  1  0
  2  3  1  0
  3  4  1  0
  4  5  1  0
  5  6  1  0
  6  7  1  0
  7  8  1  0
  8  9  2  0
  8 10  1  0
 10 11  1  0
 11 12  1  0
 11 13  1  0
 11 14  1  0
  4 15  1  0
 15 16  2  0
 16 17  1  0
 17 18  2  0
 18 19  1  0
 19 20  2  0
 18 21  1  0
 21 22  1  0
 22 23  1  0
 23 24  2  0
 24 25  1  0
 25 26  2  0
 26 27  1  0
 27 28  2  0
 26 29  1  0
 29 30  2  0
 29 31  2  0
 29 32  1  0
  7  2  1  0
 20 15  1  0
 28 23  1  0
  1 33  1  0
  1 34  1  0
  1 35  1  0
  2 36  1  6
  3 37  1  0
  3 38  1  0
  5 39  1  0
  5 40  1  0
  6 41  1  0
  6 42  1  0
 12 43  1  0
 12 44  1  0
 12 45  1  0
 13 46  1  0
 13 47  1  0
 13 48  1  0
 14 49  1  0
 14 50  1  0
 14 51  1  0
 17 52  1  0
 19 53  1  0
 22 54  1  0
 22 55  1  0
 24 56  1  0
 25 57  1  0
 27 58  1  0
 28 59  1  0
 32 60  1  0
 32 61  1  0
 32 62  1  0
M  END
>  <Ligand ID>  (1) 
LIG0005266

>  <Ligand>  (1) 
CHEMBL2086661

>  <SMILES>  (1) 
C[C@@H]1CN(CCN1C(=O)OC(C)(C)C)c1ncc(cn1)OCc1ccc(cc1)S(=O)(=O)C

>  <CID>  (1) 
58190423.0

>  <ChEMBL ID>  (1) 
nan

>  <InChiKey>  (1) 
XEKZYGCNVPYPIU-MRXNPFEDSA-N

>  <InChi>  (1) 
InChI=1S/C22H30N4O5S/c1-16-14-25(10-11-26(16)21(27)31-22(2,3)4)20-23-12-18(13-24-20)30-15-17-6-8-19(9-7-17)32(5,28)29/h6-9,12-13,16H,10-11,14-15H2,1-5H3/t16-/m1/s1

>  <IUPAC Name>  (1) 
tert-butyl (2R)-2-methyl-4-[5-[(4-methylsulfonylphenyl)methoxy]pyrimidin-2-yl]piperazine-1-carboxylate

$$$$
