
     RDKit          3D

 59 61  0  0  0  0  0  0  0  0999 V2000
   -0.7323    1.7102    3.4535 O   0  0  0  0  0  0  0  0  0  0  0  0
   -1.0978    1.1953    2.2154 C   0  0  2  0  0  0  0  0  0  0  0  0
   -2.5494    0.7354    2.2111 C   0  0  2  0  0  0  0  0  0  0  0  0
   -2.8032    0.1896    3.4840 O   0  0  0  0  0  0  0  0  0  0  0  0
   -2.5056   -0.3315    1.1387 C   0  0  2  0  0  0  0  0  0  0  0  0
   -1.1816   -0.5865    0.8350 O   0  0  0  0  0  0  0  0  0  0  0  0
   -0.4179   -0.1211    1.8994 C   0  0  1  0  0  0  0  0  0  0  0  0
    0.9514    0.0925    1.5547 N   0  0  0  0  0  0  0  0  0  0  0  0
    1.9382   -0.3705    2.3383 C   0  0  0  0  0  0  0  0  0  0  0  0
    3.2707   -0.1857    2.0416 C   0  0  0  0  0  0  0  0  0  0  0  0
    3.6116    0.5093    0.8823 C   0  0  0  0  0  0  0  0  0  0  0  0
    2.6031    0.9609    0.1177 N   0  0  0  0  0  0  0  0  0  0  0  0
    1.3061    0.7592    0.4431 C   0  0  0  0  0  0  0  0  0  0  0  0
    0.4496    1.2292   -0.3510 O   0  0  0  0  0  0  0  0  0  0  0  0
    4.9849    0.7097    0.5599 N   0  0  0  0  0  0  0  0  0  0  0  0
    5.8906    0.1982    1.4237 O   0  0  0  0  0  0  0  0  0  0  0  0
    6.5059   -0.8754    0.8079 C   0  0  0  0  0  0  0  0  0  0  0  0
    7.1726   -0.3880   -0.4273 C   0  0  0  0  0  0  0  0  0  0  0  0
    8.4927    0.0493   -0.3400 C   0  0  0  0  0  0  0  0  0  0  0  0
    9.1815    0.5171   -1.4443 C   0  0  0  0  0  0  0  0  0  0  0  0
    8.5390    0.5500   -2.6657 C   0  0  0  0  0  0  0  0  0  0  0  0
    7.2137    0.1196   -2.7945 C   0  0  0  0  0  0  0  0  0  0  0  0
    6.5502   -0.3463   -1.6572 C   0  0  0  0  0  0  0  0  0  0  0  0
   -3.1657    0.2846   -0.1018 C   0  0  0  0  0  0  0  0  0  0  0  0
   -3.1000   -0.5755   -1.1805 O   0  0  0  0  0  0  0  0  0  0  0  0
   -3.8051    0.0305   -2.5843 P   0  0  0  0  0  0  0  0  0  0  0  0
   -2.8299   -0.2449   -3.7286 O   0  0  0  0  0  0  0  0  0  0  0  0
   -5.2191   -0.7892   -2.9311 O   0  0  0  0  0  0  0  0  0  0  0  0
   -6.5068   -0.3277   -1.9419 P   0  0  0  0  0  0  0  0  0  0  0  0
   -6.2957   -0.9891   -0.5895 O   0  0  0  0  0  0  0  0  0  0  0  0
   -7.9746   -0.8218   -2.6148 O   0  0  0  0  0  0  0  0  0  0  0  0
   -9.1143   -0.9964   -1.3801 P   0  0  0  0  0  0  0  0  0  0  0  0
  -10.4984   -1.2182   -1.9466 O   0  0  0  0  0  0  0  0  0  0  0  0
   -9.1846    0.4107   -0.4236 O   0  0  0  0  0  0  0  0  0  0  0  0
   -8.7056   -2.2753   -0.3294 O   0  0  0  0  0  0  0  0  0  0  0  0
   -6.5244    1.3446   -1.8175 O   0  0  0  0  0  0  0  0  0  0  0  0
   -4.0441    1.7032   -2.5097 O   0  0  0  0  0  0  0  0  0  0  0  0
    0.1858    1.3819    3.6402 H   0  0  0  0  0  0  0  0  0  0  0  0
   -0.9480    1.9104    1.3945 H   0  0  0  0  0  0  0  0  0  0  0  0
   -3.2526    1.5451    1.9696 H   0  0  0  0  0  0  0  0  0  0  0  0
   -2.4937   -0.7496    3.5390 H   0  0  0  0  0  0  0  0  0  0  0  0
   -3.0466   -1.2512    1.4298 H   0  0  0  0  0  0  0  0  0  0  0  0
   -0.4950   -0.7701    2.7926 H   0  0  0  0  0  0  0  0  0  0  0  0
    1.6345   -0.9117    3.2406 H   0  0  0  0  0  0  0  0  0  0  0  0
    4.0403   -0.5742    2.6984 H   0  0  0  0  0  0  0  0  0  0  0  0
    5.2189    1.2275   -0.3039 H   0  0  0  0  0  0  0  0  0  0  0  0
    5.7887   -1.6682    0.5123 H   0  0  0  0  0  0  0  0  0  0  0  0
    7.2939   -1.3388    1.4347 H   0  0  0  0  0  0  0  0  0  0  0  0
    9.0015    0.0237    0.6246 H   0  0  0  0  0  0  0  0  0  0  0  0
   10.2023    0.8619   -1.4093 H   0  0  0  0  0  0  0  0  0  0  0  0
    9.0879    0.9217   -3.5407 H   0  0  0  0  0  0  0  0  0  0  0  0
    6.7062    0.1453   -3.7576 H   0  0  0  0  0  0  0  0  0  0  0  0
    5.5173   -0.6859   -1.7374 H   0  0  0  0  0  0  0  0  0  0  0  0
   -4.1905    0.6370    0.1082 H   0  0  0  0  0  0  0  0  0  0  0  0
   -2.5930    1.1913   -0.3850 H   0  0  0  0  0  0  0  0  0  0  0  0
   -8.5182    0.3261    0.2927 H   0  0  0  0  0  0  0  0  0  0  0  0
   -9.1227   -2.1256    0.5563 H   0  0  0  0  0  0  0  0  0  0  0  0
   -7.2441    1.7352   -2.3755 H   0  0  0  0  0  0  0  0  0  0  0  0
   -3.1788    2.1432   -2.3709 H   0  0  0  0  0  0  0  0  0  0  0  0
  1  2  1  0
  2  3  1  0
  3  4  1  0
  3  5  1  0
  5  6  1  0
  6  7  1  0
  7  8  1  0
  8  9  1  0
  9 10  2  0
 10 11  1  0
 11 12  2  0
 12 13  1  0
 13 14  2  0
 11 15  1  0
 15 16  1  0
 16 17  1  0
 17 18  1  0
 18 19  2  0
 19 20  1  0
 20 21  2  0
 21 22  1  0
 22 23  2  0
  5 24  1  0
 24 25  1  0
 25 26  1  0
 26 27  2  0
 26 28  1  0
 28 29  1  0
 29 30  2  0
 29 31  1  0
 31 32  1  0
 32 33  2  0
 32 34  1  0
 32 35  1  0
 29 36  1  0
 26 37  1  0
  7  2  1  0
 13  8  1  0
 23 18  1  0
  1 38  1  0
  2 39  1  6
  3 40  1  6
  4 41  1  0
  5 42  1  1
  7 43  1  1
  9 44  1  0
 10 45  1  0
 15 46  1  0
 17 47  1  0
 17 48  1  0
 19 49  1  0
 20 50  1  0
 21 51  1  0
 22 52  1  0
 23 53  1  0
 24 54  1  0
 24 55  1  0
 34 56  1  0
 35 57  1  0
 36 58  1  0
 37 59  1  0
M  END
>  <Ligand ID>  (1) 
LIG0002708

>  <Ligand>  (1) 
CHEMBL1784892

>  <SMILES>  (1) 
O[C@@H]1[C@H](O)[C@H](O[C@H]1n1ccc(nc1=O)NOCc1ccccc1)COP(=O)(OP(=O)(OP(=O)(O)O)O)O

>  <CID>  (1) 
53308272.0

>  <ChEMBL ID>  (1) 
nan

>  <InChiKey>  (1) 
BQIJGMRNEJCCQG-NMFUWQPSSA-N

>  <InChi>  (1) 
InChI=1S/C16H22N3O15P3/c20-13-11(9-31-36(26,27)34-37(28,29)33-35(23,24)25)32-15(14(13)21)19-7-6-12(17-16(19)22)18-30-8-10-4-2-1-3-5-10/h1-7,11,13-15,20-21H,8-9H2,(H,26,27)(H,28,29)(H,17,18,22)(H2,23,24,25)/t11-,13-,14-,15-/m1/s1

>  <IUPAC Name>  (1) 
[[(2R,3S,4R,5R)-3,4-dihydroxy-5-[2-oxo-4-(phenylmethoxyamino)pyrimidin-1-yl]oxolan-2-yl]methoxy-hydroxyphosphoryl] phosphono hydrogen phosphate

$$$$
