
     RDKit          3D

157161  0  0  0  0  0  0  0  0999 V2000
   12.5918    2.6109   -1.2382 C   0  0  0  0  0  0  0  0  0  0  0  0
   12.1257    1.3720   -1.9957 C   0  0  0  0  0  0  0  0  0  0  0  0
   12.7973    0.1171   -1.4661 C   0  0  0  0  0  0  0  0  0  0  0  0
   12.3166   -1.0657   -2.2369 C   0  0  0  0  0  0  0  0  0  0  0  0
   10.8445   -1.2287   -2.1080 C   0  0  1  0  0  0  0  0  0  0  0  0
   10.3307   -2.4314   -2.8734 C   0  0  0  0  0  0  0  0  0  0  0  0
   10.9291   -2.6630   -3.9832 O   0  0  0  0  0  0  0  0  0  0  0  0
    9.2715   -3.2333   -2.3925 N   0  0  0  0  0  0  0  0  0  0  0  0
   10.2811   -1.1314   -0.8076 N   0  0  0  0  0  0  0  0  0  0  0  0
    9.0351   -0.6574   -0.4086 C   0  0  0  0  0  0  0  0  0  0  0  0
    8.2582   -0.2420   -1.3417 O   0  0  0  0  0  0  0  0  0  0  0  0
    8.5079   -0.5739    0.9545 C   0  0  1  0  0  0  0  0  0  0  0  0
    7.1062   -0.0768    0.9447 N   0  0  0  0  0  0  0  0  0  0  0  0
    6.7413    1.1480    1.5565 C   0  0  0  0  0  0  0  0  0  0  0  0
    7.6506    1.8392    2.0949 O   0  0  0  0  0  0  0  0  0  0  0  0
    5.3093    1.5616    1.5426 C   0  0  1  0  0  0  0  0  0  0  0  0
    4.4925    0.5712    0.9097 N   0  0  0  0  0  0  0  0  0  0  0  0
    3.4165    0.8641   -0.0083 C   0  0  0  0  0  0  0  0  0  0  0  0
    3.0650    2.0014   -0.3271 O   0  0  0  0  0  0  0  0  0  0  0  0
    2.7560   -0.3890   -0.5534 C   0  0  2  0  0  0  0  0  0  0  0  0
    1.6202    0.0126   -1.3130 N   0  0  0  0  0  0  0  0  0  0  0  0
    1.5755    0.4081   -2.6600 C   0  0  0  0  0  0  0  0  0  0  0  0
    2.6628    0.4565   -3.3293 O   0  0  0  0  0  0  0  0  0  0  0  0
    0.2589    0.7742   -3.3289 C   0  0  2  0  0  0  0  0  0  0  0  0
    0.2576    2.2570   -3.5648 C   0  0  0  0  0  0  0  0  0  0  0  0
   -1.0609    2.6332   -4.2260 C   0  0  0  0  0  0  0  0  0  0  0  0
    1.3774    2.5957   -4.5395 C   0  0  0  0  0  0  0  0  0  0  0  0
   -0.7830    0.3950   -2.3769 N   0  0  0  0  0  0  0  0  0  0  0  0
   -1.3245   -0.9004   -2.5167 C   0  0  0  0  0  0  0  0  0  0  0  0
   -0.7931   -1.5963   -3.4816 O   0  0  0  0  0  0  0  0  0  0  0  0
   -2.3580   -1.5631   -1.7643 C   0  0  1  0  0  0  0  0  0  0  0  0
   -3.0294   -0.8583   -0.7227 N   0  0  0  0  0  0  0  0  0  0  0  0
   -4.3867   -0.4567   -0.6809 C   0  0  0  0  0  0  0  0  0  0  0  0
   -5.2028   -0.6595   -1.6455 O   0  0  0  0  0  0  0  0  0  0  0  0
   -5.0053    0.2403    0.4874 C   0  0  2  0  0  0  0  0  0  0  0  0
   -5.0052   -0.4774    1.7714 C   0  0  0  0  0  0  0  0  0  0  0  0
   -5.6978   -1.7584    1.8701 C   0  0  0  0  0  0  0  0  0  0  0  0
   -6.2372   -2.6127    0.9456 C   0  0  0  0  0  0  0  0  0  0  0  0
   -6.7809   -3.6962    1.5439 N   0  0  0  0  0  0  0  0  0  0  0  0
   -6.5978   -3.5545    2.8575 C   0  0  0  0  0  0  0  0  0  0  0  0
   -5.9356   -2.3799    3.1174 C   0  0  0  0  0  0  0  0  0  0  0  0
   -5.6604   -2.0587    4.4152 C   0  0  0  0  0  0  0  0  0  0  0  0
   -6.0575   -2.9260    5.4175 C   0  0  0  0  0  0  0  0  0  0  0  0
   -6.7225   -4.1068    5.1803 C   0  0  0  0  0  0  0  0  0  0  0  0
   -7.0030   -4.4362    3.8623 C   0  0  0  0  0  0  0  0  0  0  0  0
   -6.3853    0.6064    0.1780 N   0  0  0  0  0  0  0  0  0  0  0  0
   -6.8378    1.9267    0.0751 C   0  0  0  0  0  0  0  0  0  0  0  0
   -6.0868    2.9129    0.2579 O   0  0  0  0  0  0  0  0  0  0  0  0
   -8.2833    2.1361   -0.2764 C   0  0  1  0  0  0  0  0  0  0  0  0
   -8.9891    0.8848   -0.2986 N   0  0  0  0  0  0  0  0  0  0  0  0
   -9.4821    0.3489   -1.5495 C   0  0  0  0  0  0  0  0  0  0  0  0
   -9.3031    0.9540   -2.6460 O   0  0  0  0  0  0  0  0  0  0  0  0
  -10.2239   -0.9558   -1.5310 C   0  0  1  0  0  0  0  0  0  0  0  0
  -11.5514   -0.7756   -0.8082 C   0  0  0  0  0  0  0  0  0  0  0  0
  -12.3886    0.2173   -1.5164 C   0  0  0  0  0  0  0  0  0  0  0  0
  -12.3513    1.5735   -1.2792 C   0  0  0  0  0  0  0  0  0  0  0  0
  -13.1700    2.3801   -2.0212 C   0  0  0  0  0  0  0  0  0  0  0  0
  -14.0352    1.8770   -3.0005 C   0  0  0  0  0  0  0  0  0  0  0  0
  -14.0709    0.5330   -3.2345 C   0  0  0  0  0  0  0  0  0  0  0  0
  -13.2560   -0.2883   -2.4994 C   0  0  0  0  0  0  0  0  0  0  0  0
  -10.4489   -1.3881   -2.8899 N   0  0  0  0  0  0  0  0  0  0  0  0
   -8.9204    3.3131    0.3295 C   0  0  0  0  0  0  0  0  0  0  0  0
   -9.0533    3.4647    1.7873 C   0  0  0  0  0  0  0  0  0  0  0  0
   -9.8966    2.5310    2.5213 C   0  0  0  0  0  0  0  0  0  0  0  0
  -10.6924    1.7031    2.0656 O   0  0  0  0  0  0  0  0  0  0  0  0
   -9.8030    2.5737    3.9716 N   0  0  0  0  0  0  0  0  0  0  0  0
   -3.4751   -2.0393   -2.7656 C   0  0  0  0  0  0  0  0  0  0  0  0
    2.4364   -1.3828    0.5015 C   0  0  0  0  0  0  0  0  0  0  0  0
    4.7817    1.8367    2.9490 C   0  0  0  0  0  0  0  0  0  0  0  0
    5.5162    2.9077    3.6291 C   0  0  0  0  0  0  0  0  0  0  0  0
    5.1916    4.2245    3.5536 N   0  0  0  0  0  0  0  0  0  0  0  0
    6.0340    4.9604    4.2920 C   0  0  0  0  0  0  0  0  0  0  0  0
    6.8951    4.1200    4.8364 N   0  0  0  0  0  0  0  0  0  0  0  0
    6.6326    2.8416    4.4703 C   0  0  0  0  0  0  0  0  0  0  0  0
    8.4452   -1.8135    1.7667 C   0  0  0  0  0  0  0  0  0  0  0  0
    9.6593   -2.5453    2.0572 C   0  0  0  0  0  0  0  0  0  0  0  0
   10.4733   -2.1007    3.0861 C   0  0  0  0  0  0  0  0  0  0  0  0
   11.6269   -2.7320    3.4884 C   0  0  0  0  0  0  0  0  0  0  0  0
   11.9843   -3.8854    2.8102 C   0  0  0  0  0  0  0  0  0  0  0  0
   11.2183   -4.3937    1.7664 C   0  0  0  0  0  0  0  0  0  0  0  0
   10.0581   -3.7004    1.4117 C   0  0  0  0  0  0  0  0  0  0  0  0
   13.2356    2.3423   -0.3779 H   0  0  0  0  0  0  0  0  0  0  0  0
   13.1636    3.2917   -1.9102 H   0  0  0  0  0  0  0  0  0  0  0  0
   11.6926    3.1817   -0.8999 H   0  0  0  0  0  0  0  0  0  0  0  0
   11.0224    1.3467   -1.9234 H   0  0  0  0  0  0  0  0  0  0  0  0
   12.3400    1.5052   -3.0931 H   0  0  0  0  0  0  0  0  0  0  0  0
   12.6050    0.0472   -0.3709 H   0  0  0  0  0  0  0  0  0  0  0  0
   13.9028    0.2303   -1.6230 H   0  0  0  0  0  0  0  0  0  0  0  0
   12.9223   -1.9733   -2.0718 H   0  0  0  0  0  0  0  0  0  0  0  0
   12.4991   -0.8114   -3.3282 H   0  0  0  0  0  0  0  0  0  0  0  0
   10.3541   -0.3842   -2.7115 H   0  0  0  0  0  0  0  0  0  0  0  0
    8.8537   -3.9653   -3.0228 H   0  0  0  0  0  0  0  0  0  0  0  0
    8.8968   -3.1245   -1.4592 H   0  0  0  0  0  0  0  0  0  0  0  0
   10.9296   -1.4632   -0.0112 H   0  0  0  0  0  0  0  0  0  0  0  0
    9.1173    0.1738    1.5547 H   0  0  0  0  0  0  0  0  0  0  0  0
    6.4568   -0.7099    0.4397 H   0  0  0  0  0  0  0  0  0  0  0  0
    5.2279    2.5257    1.0135 H   0  0  0  0  0  0  0  0  0  0  0  0
    4.6905   -0.4500    1.1502 H   0  0  0  0  0  0  0  0  0  0  0  0
    3.5253   -0.8193   -1.2826 H   0  0  0  0  0  0  0  0  0  0  0  0
    0.6851    0.0178   -0.7937 H   0  0  0  0  0  0  0  0  0  0  0  0
    0.1834    0.1614   -4.2553 H   0  0  0  0  0  0  0  0  0  0  0  0
    0.4078    2.7753   -2.5919 H   0  0  0  0  0  0  0  0  0  0  0  0
   -1.3151    3.6923   -3.9946 H   0  0  0  0  0  0  0  0  0  0  0  0
   -0.8949    2.5469   -5.3322 H   0  0  0  0  0  0  0  0  0  0  0  0
   -1.8178    1.8999   -3.9396 H   0  0  0  0  0  0  0  0  0  0  0  0
    1.1243    3.5778   -5.0000 H   0  0  0  0  0  0  0  0  0  0  0  0
    1.3960    1.8255   -5.3289 H   0  0  0  0  0  0  0  0  0  0  0  0
    2.3330    2.6742   -3.9610 H   0  0  0  0  0  0  0  0  0  0  0  0
   -1.1341    1.0117   -1.6229 H   0  0  0  0  0  0  0  0  0  0  0  0
   -2.0354   -2.5978   -1.3929 H   0  0  0  0  0  0  0  0  0  0  0  0
   -2.4610   -0.5984    0.1352 H   0  0  0  0  0  0  0  0  0  0  0  0
   -4.4567    1.1918    0.6139 H   0  0  0  0  0  0  0  0  0  0  0  0
   -5.5596    0.2034    2.4991 H   0  0  0  0  0  0  0  0  0  0  0  0
   -3.9806   -0.5163    2.2649 H   0  0  0  0  0  0  0  0  0  0  0  0
   -6.2555   -2.4927   -0.1163 H   0  0  0  0  0  0  0  0  0  0  0  0
   -7.2532   -4.4809    1.0279 H   0  0  0  0  0  0  0  0  0  0  0  0
   -5.1344   -1.1436    4.6250 H   0  0  0  0  0  0  0  0  0  0  0  0
   -5.8480   -2.6823    6.4568 H   0  0  0  0  0  0  0  0  0  0  0  0
   -7.0294   -4.7821    5.9779 H   0  0  0  0  0  0  0  0  0  0  0  0
   -7.5313   -5.3669    3.6041 H   0  0  0  0  0  0  0  0  0  0  0  0
   -7.0501   -0.2033    0.0169 H   0  0  0  0  0  0  0  0  0  0  0  0
   -8.2079    2.4209   -1.4137 H   0  0  0  0  0  0  0  0  0  0  0  0
   -9.1686    0.2749    0.5305 H   0  0  0  0  0  0  0  0  0  0  0  0
   -9.6412   -1.7095   -1.0067 H   0  0  0  0  0  0  0  0  0  0  0  0
  -12.0816   -1.7434   -0.8174 H   0  0  0  0  0  0  0  0  0  0  0  0
  -11.4097   -0.4763    0.2366 H   0  0  0  0  0  0  0  0  0  0  0  0
  -11.6813    1.9314   -0.5240 H   0  0  0  0  0  0  0  0  0  0  0  0
  -13.1383    3.4504   -1.8259 H   0  0  0  0  0  0  0  0  0  0  0  0
  -14.6750    2.5120   -3.5799 H   0  0  0  0  0  0  0  0  0  0  0  0
  -14.7044    0.0709   -3.9713 H   0  0  0  0  0  0  0  0  0  0  0  0
  -13.2804   -1.3564   -2.6794 H   0  0  0  0  0  0  0  0  0  0  0  0
  -10.8556   -2.3518   -2.9443 H   0  0  0  0  0  0  0  0  0  0  0  0
   -9.5633   -1.3319   -3.4385 H   0  0  0  0  0  0  0  0  0  0  0  0
   -8.3301    4.2413   -0.0232 H   0  0  0  0  0  0  0  0  0  0  0  0
   -9.9306    3.5051   -0.1230 H   0  0  0  0  0  0  0  0  0  0  0  0
   -9.5303    4.4952    1.9420 H   0  0  0  0  0  0  0  0  0  0  0  0
   -8.0456    3.6149    2.3011 H   0  0  0  0  0  0  0  0  0  0  0  0
  -10.0914    3.4689    4.4220 H   0  0  0  0  0  0  0  0  0  0  0  0
   -9.4641    1.7436    4.5142 H   0  0  0  0  0  0  0  0  0  0  0  0
   -3.8441   -1.2187   -3.3445 H   0  0  0  0  0  0  0  0  0  0  0  0
   -2.9990   -2.8425   -3.3888 H   0  0  0  0  0  0  0  0  0  0  0  0
   -4.2590   -2.5519   -2.1987 H   0  0  0  0  0  0  0  0  0  0  0  0
    3.1356   -2.2584    0.4685 H   0  0  0  0  0  0  0  0  0  0  0  0
    1.4068   -1.7404    0.3324 H   0  0  0  0  0  0  0  0  0  0  0  0
    2.4531   -0.9197    1.5220 H   0  0  0  0  0  0  0  0  0  0  0  0
    3.7134    2.1128    2.7935 H   0  0  0  0  0  0  0  0  0  0  0  0
    4.7958    0.9416    3.5854 H   0  0  0  0  0  0  0  0  0  0  0  0
    4.3792    4.5935    2.9825 H   0  0  0  0  0  0  0  0  0  0  0  0
    5.9460    6.0372    4.3695 H   0  0  0  0  0  0  0  0  0  0  0  0
    7.1605    1.9316    4.7596 H   0  0  0  0  0  0  0  0  0  0  0  0
    7.7524   -2.5180    1.2337 H   0  0  0  0  0  0  0  0  0  0  0  0
    7.8633   -1.5468    2.6933 H   0  0  0  0  0  0  0  0  0  0  0  0
   10.1960   -1.2080    3.6161 H   0  0  0  0  0  0  0  0  0  0  0  0
   12.2116   -2.3293    4.2890 H   0  0  0  0  0  0  0  0  0  0  0  0
   12.8979   -4.4399    3.0802 H   0  0  0  0  0  0  0  0  0  0  0  0
   11.5084   -5.3091    1.2337 H   0  0  0  0  0  0  0  0  0  0  0  0
    9.4878   -4.1022    0.6161 H   0  0  0  0  0  0  0  0  0  0  0  0
  1  2  1  0
  2  3  1  0
  3  4  1  0
  4  5  1  0
  5  6  1  0
  6  7  2  0
  6  8  1  0
  5  9  1  0
  9 10  1  0
 10 11  2  0
 10 12  1  0
 12 13  1  0
 13 14  1  0
 14 15  2  0
 14 16  1  0
 16 17  1  0
 17 18  1  0
 18 19  2  0
 18 20  1  0
 20 21  1  0
 21 22  1  0
 22 23  2  0
 22 24  1  0
 24 25  1  0
 25 26  1  0
 25 27  1  0
 24 28  1  0
 28 29  1  0
 29 30  2  0
 29 31  1  0
 31 32  1  0
 32 33  1  0
 33 34  2  0
 33 35  1  0
 35 36  1  0
 36 37  1  0
 37 38  2  0
 38 39  1  0
 39 40  1  0
 40 41  2  0
 41 42  1  0
 42 43  2  0
 43 44  1  0
 44 45  2  0
 35 46  1  0
 46 47  1  0
 47 48  2  0
 47 49  1  0
 49 50  1  0
 50 51  1  0
 51 52  2  0
 51 53  1  0
 53 54  1  0
 54 55  1  0
 55 56  2  0
 56 57  1  0
 57 58  2  0
 58 59  1  0
 59 60  2  0
 53 61  1  0
 49 62  1  0
 62 63  1  0
 63 64  1  0
 64 65  2  0
 64 66  1  0
 31 67  1  0
 20 68  1  0
 16 69  1  0
 69 70  1  0
 70 71  1  0
 71 72  1  0
 72 73  2  0
 73 74  1  0
 12 75  1  0
 75 76  1  0
 76 77  2  0
 77 78  1  0
 78 79  2  0
 79 80  1  0
 80 81  2  0
 41 37  1  0
 60 55  1  0
 74 70  2  0
 81 76  1  0
 45 40  1  0
  1 82  1  0
  1 83  1  0
  1 84  1  0
  2 85  1  0
  2 86  1  0
  3 87  1  0
  3 88  1  0
  4 89  1  0
  4 90  1  0
  5 91  1  6
  8 92  1  0
  8 93  1  0
  9 94  1  0
 12 95  1  1
 13 96  1  0
 16 97  1  6
 17 98  1  0
 20 99  1  6
 21100  1  0
 24101  1  6
 25102  1  0
 26103  1  0
 26104  1  0
 26105  1  0
 27106  1  0
 27107  1  0
 27108  1  0
 28109  1  0
 31110  1  1
 32111  1  0
 35112  1  1
 36113  1  0
 36114  1  0
 38115  1  0
 39116  1  0
 42117  1  0
 43118  1  0
 44119  1  0
 45120  1  0
 46121  1  0
 49122  1  6
 50123  1  0
 53124  1  1
 54125  1  0
 54126  1  0
 56127  1  0
 57128  1  0
 58129  1  0
 59130  1  0
 60131  1  0
 61132  1  0
 61133  1  0
 62134  1  0
 62135  1  0
 63136  1  0
 63137  1  0
 66138  1  0
 66139  1  0
 67140  1  0
 67141  1  0
 67142  1  0
 68143  1  0
 68144  1  0
 68145  1  0
 69146  1  0
 69147  1  0
 71148  1  0
 72149  1  0
 74150  1  0
 75151  1  0
 75152  1  0
 77153  1  0
 78154  1  0
 79155  1  0
 80156  1  0
 81157  1  0
M  END
>  <Ligand ID>  (1) 
LIG0004144

>  <Ligand>  (1) 
CHEMBL525577

>  <SMILES>  (1) 
CCCC[C@@H](C(=O)N)NC(=O)[C@@H](NC(=O)[C@@H](NC(=O)[C@H](NC(=O)[C@H](C(C)C)NC(=O)[C@@H](NC(=O)[C@H](Cc1c[nH]c2c1cccc2)NC(=O)[C@@H](NC(=O)[C@@H](Cc1ccccc1)N)CCC(=O)N)C)C)Cc1[nH]cnc1)Cc1ccccc1

>  <CID>  (1) 
44589983.0

>  <ChEMBL ID>  (1) 
nan

>  <InChiKey>  (1) 
GMEWMQLWXBFPOI-ZJZDTXIUSA-N

>  <InChi>  (1) 
InChI=1S/C57H76N14O10/c1-6-7-21-42(49(60)73)66-55(79)44(26-36-18-12-9-13-19-36)69-56(80)46(28-38-30-61-31-63-38)68-50(74)33(4)65-57(81)48(32(2)3)71-51(75)34(5)64-54(78)45(27-37-29-62-41-22-15-14-20-39(37)41)70-53(77)43(23-24-47(59)72)67-52(76)40(58)25-35-16-10-8-11-17-35/h8-20,22,29-34,40,42-46,48,62H,6-7,21,23-28,58H2,1-5H3,(H2,59,72)(H2,60,73)(H,61,63)(H,64,78)(H,65,81)(H,66,79)(H,67,76)(H,68,74)(H,69,80)(H,70,77)(H,71,75)/t33-,34+,40-,42+,43+,44+,45+,46+,48+/m1/s1

>  <IUPAC Name>  (1) 
(2S)-N-[(2S)-1-[[(2S)-1-[[(2S)-1-[[(2R)-1-[[(2S)-1-[[(2S)-1-[[(2S)-1-amino-1-oxohexan-2-yl]amino]-1-oxo-3-phenylpropan-2-yl]amino]-3-(1H-imidazol-5-yl)-1-oxopropan-2-yl]amino]-1-oxopropan-2-yl]amino]-3-methyl-1-oxobutan-2-yl]amino]-1-oxopropan-2-yl]amino]-3-(1H-indol-3-yl)-1-oxopropan-2-yl]-2-[[(2R)-2-amino-3-phenylpropanoyl]amino]pentanediamide

$$$$
