
     RDKit          3D

 65 68  0  0  0  0  0  0  0  0999 V2000
    6.0414    0.7502   -0.7795 O   0  0  0  0  0  0  0  0  0  0  0  0
    6.0199   -0.0468    0.3177 C   0  0  2  0  0  0  0  0  0  0  0  0
    7.1968   -0.9466    0.4780 C   0  0  0  0  0  0  0  0  0  0  0  0
    8.3824   -0.3159    0.5891 O   0  0  0  0  0  0  0  0  0  0  0  0
    9.1699    0.4305   -0.1801 C   0  0  0  0  0  0  0  0  0  0  0  0
   10.3499    0.9216    0.4365 C   0  0  0  0  0  0  0  0  0  0  0  0
   11.2551    1.6973   -0.2281 C   0  0  0  0  0  0  0  0  0  0  0  0
   11.0720    2.0484   -1.5421 C   0  0  0  0  0  0  0  0  0  0  0  0
    9.9439    1.5921   -2.1714 C   0  0  0  0  0  0  0  0  0  0  0  0
    9.0215    0.7995   -1.4910 C   0  0  0  0  0  0  0  0  0  0  0  0
   12.0351    2.8355   -2.1375 O   0  0  0  0  0  0  0  0  0  0  0  0
    4.7060   -0.8375    0.3300 C   0  0  0  0  0  0  0  0  0  0  0  0
    3.6590    0.1478    0.3673 N   0  0  0  0  0  0  0  0  0  0  0  0
    2.3244   -0.4056    0.3886 C   0  0  0  0  0  0  0  0  0  0  0  0
    1.2503    0.6696    0.4169 C   0  0  0  0  0  0  0  0  0  0  0  0
   -0.0653   -0.0292    0.4342 C   0  0  0  0  0  0  0  0  0  0  0  0
   -0.7082   -0.3863    1.5943 C   0  0  0  0  0  0  0  0  0  0  0  0
   -1.9288   -1.0354    1.5256 C   0  0  0  0  0  0  0  0  0  0  0  0
   -2.4753   -1.3106    0.2892 C   0  0  0  0  0  0  0  0  0  0  0  0
   -1.8325   -0.9532   -0.8987 C   0  0  0  0  0  0  0  0  0  0  0  0
   -0.6222   -0.3101   -0.8053 C   0  0  0  0  0  0  0  0  0  0  0  0
   -3.7295   -1.9768    0.1266 N   0  0  0  0  0  0  0  0  0  0  0  0
   -4.9608   -1.2953    0.0439 C   0  0  0  0  0  0  0  0  0  0  0  0
   -5.0471   -0.0458    0.1066 O   0  0  0  0  0  0  0  0  0  0  0  0
   -6.1929   -2.0942   -0.1241 C   0  0  0  0  0  0  0  0  0  0  0  0
   -7.3977   -1.2275   -0.2004 C   0  0  0  0  0  0  0  0  0  0  0  0
   -7.7622   -0.8137   -1.4865 C   0  0  0  0  0  0  0  0  0  0  0  0
   -8.8676   -0.0078   -1.6768 C   0  0  0  0  0  0  0  0  0  0  0  0
   -9.5930    0.3708   -0.5615 C   0  0  0  0  0  0  0  0  0  0  0  0
   -9.2474   -0.0292    0.7214 C   0  0  0  0  0  0  0  0  0  0  0  0
   -8.1261   -0.8455    0.9063 C   0  0  0  0  0  0  0  0  0  0  0  0
  -10.0107    0.3778    1.8128 C   0  0  0  0  0  0  0  0  0  0  0  0
  -11.1186    1.1871    1.5988 C   0  0  0  0  0  0  0  0  0  0  0  0
  -11.4863    1.6017    0.3255 C   0  0  0  0  0  0  0  0  0  0  0  0
  -10.7071    1.1826   -0.7597 C   0  0  0  0  0  0  0  0  0  0  0  0
    6.3987    1.6296   -0.5659 H   0  0  0  0  0  0  0  0  0  0  0  0
    6.0317    0.6406    1.2257 H   0  0  0  0  0  0  0  0  0  0  0  0
    7.0367   -1.6817    1.3231 H   0  0  0  0  0  0  0  0  0  0  0  0
    7.2570   -1.6468   -0.4297 H   0  0  0  0  0  0  0  0  0  0  0  0
   10.5617    0.6845    1.4746 H   0  0  0  0  0  0  0  0  0  0  0  0
   12.1477    2.0469    0.3019 H   0  0  0  0  0  0  0  0  0  0  0  0
    9.7757    1.8581   -3.2192 H   0  0  0  0  0  0  0  0  0  0  0  0
    8.1902    0.4658   -2.0770 H   0  0  0  0  0  0  0  0  0  0  0  0
   12.2403    3.7729   -1.8179 H   0  0  0  0  0  0  0  0  0  0  0  0
    4.6374   -1.4528    1.2513 H   0  0  0  0  0  0  0  0  0  0  0  0
    4.6864   -1.4965   -0.5430 H   0  0  0  0  0  0  0  0  0  0  0  0
    3.7537    0.8873   -0.3412 H   0  0  0  0  0  0  0  0  0  0  0  0
    2.1429   -1.1424   -0.3972 H   0  0  0  0  0  0  0  0  0  0  0  0
    2.2296   -0.9349    1.3810 H   0  0  0  0  0  0  0  0  0  0  0  0
    1.3311    1.2442    1.3557 H   0  0  0  0  0  0  0  0  0  0  0  0
    1.3011    1.3349   -0.4718 H   0  0  0  0  0  0  0  0  0  0  0  0
   -0.2559   -0.1577    2.5309 H   0  0  0  0  0  0  0  0  0  0  0  0
   -2.4769   -1.3384    2.4277 H   0  0  0  0  0  0  0  0  0  0  0  0
   -2.2562   -1.1662   -1.8694 H   0  0  0  0  0  0  0  0  0  0  0  0
   -0.1414   -0.0437   -1.7375 H   0  0  0  0  0  0  0  0  0  0  0  0
   -3.7098   -3.0309    0.0674 H   0  0  0  0  0  0  0  0  0  0  0  0
   -6.1545   -2.7366   -1.0271 H   0  0  0  0  0  0  0  0  0  0  0  0
   -6.3298   -2.7605    0.7521 H   0  0  0  0  0  0  0  0  0  0  0  0
   -7.1805   -1.1193   -2.3585 H   0  0  0  0  0  0  0  0  0  0  0  0
   -9.1548    0.3162   -2.6717 H   0  0  0  0  0  0  0  0  0  0  0  0
   -7.8270   -1.1752    1.8827 H   0  0  0  0  0  0  0  0  0  0  0  0
   -9.7406    0.0633    2.8277 H   0  0  0  0  0  0  0  0  0  0  0  0
  -11.7376    1.5226    2.4438 H   0  0  0  0  0  0  0  0  0  0  0  0
  -12.3467    2.2323    0.1395 H   0  0  0  0  0  0  0  0  0  0  0  0
  -10.9587    1.4845   -1.7777 H   0  0  0  0  0  0  0  0  0  0  0  0
  1  2  1  0
  2  3  1  0
  3  4  1  0
  4  5  1  0
  5  6  2  0
  6  7  1  0
  7  8  2  0
  8  9  1  0
  9 10  2  0
  8 11  1  0
  2 12  1  0
 12 13  1  0
 13 14  1  0
 14 15  1  0
 15 16  1  0
 16 17  2  0
 17 18  1  0
 18 19  2  0
 19 20  1  0
 20 21  2  0
 19 22  1  0
 22 23  1  0
 23 24  2  0
 23 25  1  0
 25 26  1  0
 26 27  2  0
 27 28  1  0
 28 29  2  0
 29 30  1  0
 30 31  2  0
 30 32  1  0
 32 33  2  0
 33 34  1  0
 34 35  2  0
 10  5  1  0
 21 16  1  0
 31 26  1  0
 35 29  1  0
  1 36  1  0
  2 37  1  1
  3 38  1  0
  3 39  1  0
  6 40  1  0
  7 41  1  0
  9 42  1  0
 10 43  1  0
 11 44  1  0
 12 45  1  0
 12 46  1  0
 13 47  1  0
 14 48  1  0
 14 49  1  0
 15 50  1  0
 15 51  1  0
 17 52  1  0
 18 53  1  0
 20 54  1  0
 21 55  1  0
 22 56  1  0
 25 57  1  0
 25 58  1  0
 27 59  1  0
 28 60  1  0
 31 61  1  0
 32 62  1  0
 33 63  1  0
 34 64  1  0
 35 65  1  0
M  END
>  <Ligand ID>  (1) 
LIG0002753

>  <Ligand>  (1) 
CHEMBL561291

>  <SMILES>  (1) 
O[C@H](COc1ccc(cc1)O)CNCCc1ccc(cc1)NC(=O)Cc1ccc2c(c1)cccc2

>  <CID>  (1) 
44126933.0

>  <ChEMBL ID>  (1) 
nan

>  <InChiKey>  (1) 
USLBXGRMRPPQCM-MHZLTWQESA-N

>  <InChi>  (1) 
InChI=1S/C29H30N2O4/c32-26-11-13-28(14-12-26)35-20-27(33)19-30-16-15-21-6-9-25(10-7-21)31-29(34)18-22-5-8-23-3-1-2-4-24(23)17-22/h1-14,17,27,30,32-33H,15-16,18-20H2,(H,31,34)/t27-/m0/s1

>  <IUPAC Name>  (1) 
N-[4-[2-[[(2S)-2-hydroxy-3-(4-hydroxyphenoxy)propyl]amino]ethyl]phenyl]-2-naphthalen-2-ylacetamide

$$$$
