
     RDKit          3D

 38 37  0  0  0  0  0  0  0  0999 V2000
    5.0301   -1.2087    1.1034 C   0  0  0  0  0  0  0  0  0  0  0  0
    4.0260   -0.1059    1.1365 C   0  0  0  0  0  0  0  0  0  0  0  0
    3.4180    0.1674   -0.2449 C   0  0  0  0  0  0  0  0  0  0  0  0
    2.4440    1.2825   -0.0511 C   0  0  0  0  0  0  0  0  0  0  0  0
    1.7426    1.6873   -1.3266 C   0  0  0  0  0  0  0  0  0  0  0  0
    0.9610    0.5575   -1.9341 C   0  0  0  0  0  0  0  0  0  0  0  0
   -0.1133    0.0408   -0.9898 C   0  0  0  0  0  0  0  0  0  0  0  0
   -1.1027    1.1081   -0.6239 C   0  0  0  0  0  0  0  0  0  0  0  0
   -2.0885    0.6018    0.2550 O   0  0  0  0  0  0  0  0  0  0  0  0
   -2.9351   -0.4337   -0.0625 C   0  0  0  0  0  0  0  0  0  0  0  0
   -2.9023   -1.0210   -1.1721 O   0  0  0  0  0  0  0  0  0  0  0  0
   -3.9213   -0.8674    0.9491 C   0  0  0  0  0  0  0  0  0  0  0  0
   -4.8579    0.2840    1.3158 C   0  0  0  0  0  0  0  0  0  0  0  0
   -4.7693   -2.0098    0.4133 C   0  0  0  0  0  0  0  0  0  0  0  0
    6.0367   -0.7961    1.1909 H   0  0  0  0  0  0  0  0  0  0  0  0
    4.8575   -1.8721    1.9799 H   0  0  0  0  0  0  0  0  0  0  0  0
    4.9448   -1.7951    0.1557 H   0  0  0  0  0  0  0  0  0  0  0  0
    3.2269   -0.3154    1.8901 H   0  0  0  0  0  0  0  0  0  0  0  0
    4.5163    0.8438    1.4855 H   0  0  0  0  0  0  0  0  0  0  0  0
    4.2537    0.3937   -0.9116 H   0  0  0  0  0  0  0  0  0  0  0  0
    2.8915   -0.7978   -0.4942 H   0  0  0  0  0  0  0  0  0  0  0  0
    1.7055    0.9509    0.7134 H   0  0  0  0  0  0  0  0  0  0  0  0
    2.9818    2.1417    0.3963 H   0  0  0  0  0  0  0  0  0  0  0  0
    2.4996    2.0496   -2.0323 H   0  0  0  0  0  0  0  0  0  0  0  0
    1.0671    2.5331   -1.0962 H   0  0  0  0  0  0  0  0  0  0  0  0
    0.4222    0.9426   -2.8239 H   0  0  0  0  0  0  0  0  0  0  0  0
    1.6034   -0.3008   -2.1602 H   0  0  0  0  0  0  0  0  0  0  0  0
    0.3442   -0.4121   -0.0889 H   0  0  0  0  0  0  0  0  0  0  0  0
   -0.6210   -0.7715   -1.5398 H   0  0  0  0  0  0  0  0  0  0  0  0
   -1.5253    1.6250   -1.4838 H   0  0  0  0  0  0  0  0  0  0  0  0
   -0.5247    1.8586   -0.0147 H   0  0  0  0  0  0  0  0  0  0  0  0
   -3.4687   -1.2176    1.8899 H   0  0  0  0  0  0  0  0  0  0  0  0
   -4.2384    1.2035    1.5038 H   0  0  0  0  0  0  0  0  0  0  0  0
   -5.5205    0.5122    0.4763 H   0  0  0  0  0  0  0  0  0  0  0  0
   -5.4765   -0.0083    2.1781 H   0  0  0  0  0  0  0  0  0  0  0  0
   -4.0849   -2.8597    0.2120 H   0  0  0  0  0  0  0  0  0  0  0  0
   -5.5315   -2.2818    1.1608 H   0  0  0  0  0  0  0  0  0  0  0  0
   -5.2908   -1.7092   -0.5334 H   0  0  0  0  0  0  0  0  0  0  0  0
  1  2  1  0
  2  3  1  0
  3  4  1  0
  4  5  1  0
  5  6  1  0
  6  7  1  0
  7  8  1  0
  8  9  1  0
  9 10  1  0
 10 11  2  0
 10 12  1  0
 12 13  1  0
 12 14  1  0
  1 15  1  0
  1 16  1  0
  1 17  1  0
  2 18  1  0
  2 19  1  0
  3 20  1  0
  3 21  1  0
  4 22  1  0
  4 23  1  0
  5 24  1  0
  5 25  1  0
  6 26  1  0
  6 27  1  0
  7 28  1  0
  7 29  1  0
  8 30  1  0
  8 31  1  0
 12 32  1  0
 13 33  1  0
 13 34  1  0
 13 35  1  0
 14 36  1  0
 14 37  1  0
 14 38  1  0
M  END
>  <Ligand ID>  (1) 
LIG0001054

>  <Ligand>  (1) 
Octyl isobutyrate

>  <SMILES>  (1) 
CCCCCCCCOC(=O)C(C)C

>  <CID>  (1) 
61024.0

>  <ChEMBL ID>  (1) 
nan

>  <InChiKey>  (1) 
PQCYCHFQWMNQRJ-UHFFFAOYSA-N

>  <InChi>  (1) 
InChI=1S/C12H24O2/c1-4-5-6-7-8-9-10-14-12(13)11(2)3/h11H,4-10H2,1-3H3

>  <IUPAC Name>  (1) 
octyl 2-methylpropanoate

$$$$
