
     RDKit          3D

 15 14  0  0  0  0  0  0  0  0999 V2000
    2.1621    0.4393    0.1709 O   0  0  0  0  0  0  0  0  0  0  0  0
    1.1802   -0.4391   -0.3409 C   0  0  0  0  0  0  0  0  0  0  0  0
   -0.1596   -0.0872    0.3067 C   0  0  0  0  0  0  0  0  0  0  0  0
   -1.2638   -0.9928   -0.1976 C   0  0  0  0  0  0  0  0  0  0  0  0
   -0.4664    1.3654    0.0316 C   0  0  0  0  0  0  0  0  0  0  0  0
    2.2248    0.2023    1.1421 H   0  0  0  0  0  0  0  0  0  0  0  0
    1.1295   -0.2587   -1.4373 H   0  0  0  0  0  0  0  0  0  0  0  0
    1.5061   -1.4495   -0.0716 H   0  0  0  0  0  0  0  0  0  0  0  0
   -0.0622   -0.2775    1.3965 H   0  0  0  0  0  0  0  0  0  0  0  0
   -1.6064   -0.7461   -1.2167 H   0  0  0  0  0  0  0  0  0  0  0  0
   -0.8774   -2.0210   -0.1503 H   0  0  0  0  0  0  0  0  0  0  0  0
   -2.0853   -0.8977    0.5448 H   0  0  0  0  0  0  0  0  0  0  0  0
   -0.6425    1.8781    1.0047 H   0  0  0  0  0  0  0  0  0  0  0  0
   -1.3758    1.4379   -0.6186 H   0  0  0  0  0  0  0  0  0  0  0  0
    0.3366    1.8466   -0.5642 H   0  0  0  0  0  0  0  0  0  0  0  0
  1  2  1  0
  2  3  1  0
  3  4  1  0
  3  5  1  0
  1  6  1  0
  2  7  1  0
  2  8  1  0
  3  9  1  0
  4 10  1  0
  4 11  1  0
  4 12  1  0
  5 13  1  0
  5 14  1  0
  5 15  1  0
M  END
>  <Ligand ID>  (1) 
LIG0001071

>  <Ligand>  (1) 
Isobutyl alcohol

>  <SMILES>  (1) 
OCC(C)C

>  <CID>  (1) 
6560.0

>  <ChEMBL ID>  (1) 
nan

>  <InChiKey>  (1) 
ZXEKIIBDNHEJCQ-UHFFFAOYSA-N

>  <InChi>  (1) 
InChI=1S/C4H10O/c1-4(2)3-5/h4-5H,3H2,1-2H3

>  <IUPAC Name>  (1) 
2-methylpropan-1-ol

$$$$
