
     RDKit          3D

 55 58  0  0  0  0  0  0  0  0999 V2000
    2.9754    0.5938   -2.4471 C   0  0  0  0  0  0  0  0  0  0  0  0
    3.3741    0.6606   -0.9679 C   0  0  2  0  0  0  0  0  0  0  0  0
    4.8492    0.6488   -0.8943 C   0  0  0  0  0  0  0  0  0  0  0  0
    5.4003   -0.0295    0.2445 N   0  0  0  0  0  0  0  0  0  0  0  0
    4.5953   -0.6588    1.2626 C   0  0  0  0  0  0  0  0  0  0  0  0
    3.4475   -1.3382    0.5084 C   0  0  0  0  0  0  0  0  0  0  0  0
    2.7036   -0.3352   -0.1985 N   0  0  0  0  0  0  0  0  0  0  0  0
    1.2810   -0.3301   -0.1352 C   0  0  0  0  0  0  0  0  0  0  0  0
    0.6672   -1.2795    0.5928 N   0  0  0  0  0  0  0  0  0  0  0  0
   -0.6831   -1.2464    0.6325 C   0  0  0  0  0  0  0  0  0  0  0  0
   -1.4313   -0.2993   -0.0291 C   0  0  0  0  0  0  0  0  0  0  0  0
   -0.7677    0.6528   -0.7614 C   0  0  0  0  0  0  0  0  0  0  0  0
    0.5632    0.6057   -0.7899 N   0  0  0  0  0  0  0  0  0  0  0  0
   -2.8159   -0.2490   -0.0002 O   0  0  0  0  0  0  0  0  0  0  0  0
   -3.6101   -1.1631    0.7102 C   0  0  0  0  0  0  0  0  0  0  0  0
   -5.0617   -0.8079    0.5171 C   0  0  0  0  0  0  0  0  0  0  0  0
   -5.7872   -0.1821    1.5100 C   0  0  0  0  0  0  0  0  0  0  0  0
   -7.1230    0.1439    1.3303 C   0  0  0  0  0  0  0  0  0  0  0  0
   -7.7244   -0.1774    0.1127 C   0  0  0  0  0  0  0  0  0  0  0  0
   -6.9892   -0.8040   -0.8749 C   0  0  0  0  0  0  0  0  0  0  0  0
   -5.6409   -1.1324   -0.6925 C   0  0  0  0  0  0  0  0  0  0  0  0
   -4.9523   -1.7457   -1.6807 F   0  0  0  0  0  0  0  0  0  0  0  0
   -9.4139    0.2272   -0.1318 S   0  0  0  0  0  0  0  0  0  0  0  0
  -10.0644    0.2887    1.2132 O   0  0  0  0  0  0  0  0  0  0  0  0
  -10.0706   -0.7542   -1.0589 O   0  0  0  0  0  0  0  0  0  0  0  0
   -9.4739    1.8824   -0.8285 C   0  0  0  0  0  0  0  0  0  0  0  0
    6.8329   -0.0663    0.3470 C   0  0  0  0  0  0  0  0  0  0  0  0
    7.5876   -1.0239   -0.1602 O   0  0  0  0  0  0  0  0  0  0  0  0
    8.8541   -0.7647    0.1047 N   0  0  0  0  0  0  0  0  0  0  0  0
    8.9036    0.3971    0.8038 C   0  0  0  0  0  0  0  0  0  0  0  0
    7.6318    0.8281    0.9512 N   0  0  0  0  0  0  0  0  0  0  0  0
   10.1407    1.0429    1.2978 C   0  0  0  0  0  0  0  0  0  0  0  0
   10.1085    2.4022    1.0329 F   0  0  0  0  0  0  0  0  0  0  0  0
   11.2194    0.5463    0.5991 F   0  0  0  0  0  0  0  0  0  0  0  0
   10.2964    0.9250    2.6584 F   0  0  0  0  0  0  0  0  0  0  0  0
    2.7490    1.6081   -2.8585 H   0  0  0  0  0  0  0  0  0  0  0  0
    3.8539    0.2526   -3.0670 H   0  0  0  0  0  0  0  0  0  0  0  0
    2.1057   -0.0709   -2.5982 H   0  0  0  0  0  0  0  0  0  0  0  0
    2.9956    1.6614   -0.6202 H   0  0  0  0  0  0  0  0  0  0  0  0
    5.2849    1.6911   -0.8885 H   0  0  0  0  0  0  0  0  0  0  0  0
    5.2965    0.1611   -1.8058 H   0  0  0  0  0  0  0  0  0  0  0  0
    5.1471   -1.4458    1.8058 H   0  0  0  0  0  0  0  0  0  0  0  0
    4.1289    0.0546    1.9765 H   0  0  0  0  0  0  0  0  0  0  0  0
    3.8605   -2.1203   -0.1647 H   0  0  0  0  0  0  0  0  0  0  0  0
    2.8253   -1.8245    1.3149 H   0  0  0  0  0  0  0  0  0  0  0  0
   -1.2450   -1.9960    1.2111 H   0  0  0  0  0  0  0  0  0  0  0  0
   -1.2901    1.4246   -1.3047 H   0  0  0  0  0  0  0  0  0  0  0  0
   -3.3886   -2.1969    0.4488 H   0  0  0  0  0  0  0  0  0  0  0  0
   -3.3269   -1.0389    1.7859 H   0  0  0  0  0  0  0  0  0  0  0  0
   -5.2537    0.0403    2.4396 H   0  0  0  0  0  0  0  0  0  0  0  0
   -7.6813    0.6347    2.1165 H   0  0  0  0  0  0  0  0  0  0  0  0
   -7.5026   -1.0354   -1.8106 H   0  0  0  0  0  0  0  0  0  0  0  0
  -10.1640    1.9338   -1.6819 H   0  0  0  0  0  0  0  0  0  0  0  0
   -8.4701    2.1779   -1.1998 H   0  0  0  0  0  0  0  0  0  0  0  0
   -9.7472    2.6307   -0.0391 H   0  0  0  0  0  0  0  0  0  0  0  0
  1  2  1  0
  2  3  1  0
  3  4  1  0
  4  5  1  0
  5  6  1  0
  6  7  1  0
  7  8  1  0
  8  9  2  0
  9 10  1  0
 10 11  2  0
 11 12  1  0
 12 13  2  0
 11 14  1  0
 14 15  1  0
 15 16  1  0
 16 17  2  0
 17 18  1  0
 18 19  2  0
 19 20  1  0
 20 21  2  0
 21 22  1  0
 19 23  1  0
 23 24  2  0
 23 25  2  0
 23 26  1  0
  4 27  1  0
 27 28  1  0
 28 29  1  0
 29 30  2  0
 30 31  1  0
 30 32  1  0
 32 33  1  0
 32 34  1  0
 32 35  1  0
  7  2  1  0
 13  8  1  0
 21 16  1  0
 31 27  2  0
  1 36  1  0
  1 37  1  0
  1 38  1  0
  2 39  1  1
  3 40  1  0
  3 41  1  0
  5 42  1  0
  5 43  1  0
  6 44  1  0
  6 45  1  0
 10 46  1  0
 12 47  1  0
 15 48  1  0
 15 49  1  0
 17 50  1  0
 18 51  1  0
 20 52  1  0
 26 53  1  0
 26 54  1  0
 26 55  1  0
M  END
>  <Ligand ID>  (1) 
LIG0005286

>  <Ligand>  (1) 
CHEMBL3358005

>  <SMILES>  (1) 
C[C@@H]1CN(CCN1c1ncc(cn1)OCc1ccc(cc1F)S(=O)(=O)C)c1onc(n1)C(F)(F)F

>  <CID>  (1) 
118722581.0

>  <ChEMBL ID>  (1) 
nan

>  <InChiKey>  (1) 
XCGRMHQPVVAZAS-GFCCVEGCSA-N

>  <InChi>  (1) 
InChI=1S/C20H20F4N6O4S/c1-12-10-29(19-27-17(28-34-19)20(22,23)24)5-6-30(12)18-25-8-14(9-26-18)33-11-13-3-4-15(7-16(13)21)35(2,31)32/h3-4,7-9,12H,5-6,10-11H2,1-2H3/t12-/m1/s1

>  <IUPAC Name>  (1) 
5-[(3R)-4-[5-[(2-fluoro-4-methylsulfonylphenyl)methoxy]pyrimidin-2-yl]-3-methylpiperazin-1-yl]-3-(trifluoromethyl)-1,2,4-oxadiazole

$$$$
