
     RDKit          3D

 57 61  0  0  0  0  0  0  0  0999 V2000
    1.1360   -2.8411    2.0866 N   0  0  0  0  0  0  0  0  0  0  0  0
    1.2593   -1.5272    1.5641 C   0  0  0  0  0  0  0  0  0  0  0  0
    0.3288   -0.5674    1.7646 N   0  0  0  0  0  0  0  0  0  0  0  0
    0.4729    0.6728    1.2555 C   0  0  0  0  0  0  0  0  0  0  0  0
   -0.6148    1.6525    1.5376 C   0  0  0  0  0  0  0  0  0  0  0  0
   -1.5662    1.5360    0.4794 N   0  0  0  0  0  0  0  0  0  0  0  0
   -2.6987    2.3837    0.5492 C   0  0  0  0  0  0  0  0  0  0  0  0
   -3.9983    1.6956    0.8083 C   0  0  0  0  0  0  0  0  0  0  0  0
   -4.1575    0.4882    0.0166 N   0  0  0  0  0  0  0  0  0  0  0  0
   -3.0507    0.0779   -0.7964 C   0  0  0  0  0  0  0  0  0  0  0  0
   -1.8075    0.2022    0.0540 C   0  0  0  0  0  0  0  0  0  0  0  0
   -5.3956   -0.1985    0.1055 C   0  0  0  0  0  0  0  0  0  0  0  0
   -5.6881   -1.3378   -0.6253 C   0  0  0  0  0  0  0  0  0  0  0  0
   -6.9108   -1.9816   -0.5086 C   0  0  0  0  0  0  0  0  0  0  0  0
   -7.8922   -1.5203    0.3383 C   0  0  0  0  0  0  0  0  0  0  0  0
   -7.6090   -0.3871    1.0689 C   0  0  0  0  0  0  0  0  0  0  0  0
   -6.3999    0.2477    0.9521 C   0  0  0  0  0  0  0  0  0  0  0  0
    1.5618    0.9676    0.5329 N   0  0  0  0  0  0  0  0  0  0  0  0
    2.5276    0.0298    0.3046 C   0  0  0  0  0  0  0  0  0  0  0  0
    2.3291   -1.1818    0.8348 N   0  0  0  0  0  0  0  0  0  0  0  0
    3.6589    0.4124   -0.4569 N   0  0  0  0  0  0  0  0  0  0  0  0
    3.7982    1.8317   -0.8050 C   0  0  0  0  0  0  0  0  0  0  0  0
    5.2184    2.2057   -1.1000 C   0  0  0  0  0  0  0  0  0  0  0  0
    6.2311    1.2480   -0.5129 C   0  0  0  0  0  0  0  0  0  0  0  0
    5.9561   -0.1544   -0.9089 C   0  0  0  0  0  0  0  0  0  0  0  0
    4.6143   -0.5453   -0.8668 C   0  0  0  0  0  0  0  0  0  0  0  0
    4.1920   -1.7999   -1.2008 C   0  0  0  0  0  0  0  0  0  0  0  0
    5.1503   -2.7124   -1.5965 C   0  0  0  0  0  0  0  0  0  0  0  0
    6.4775   -2.3274   -1.6386 C   0  0  0  0  0  0  0  0  0  0  0  0
    6.8994   -1.0535   -1.2987 C   0  0  0  0  0  0  0  0  0  0  0  0
    1.5382   -3.6645    1.6033 H   0  0  0  0  0  0  0  0  0  0  0  0
    0.6094   -2.9337    2.9997 H   0  0  0  0  0  0  0  0  0  0  0  0
   -0.1234    2.6628    1.4485 H   0  0  0  0  0  0  0  0  0  0  0  0
   -1.0187    1.5009    2.5470 H   0  0  0  0  0  0  0  0  0  0  0  0
   -2.5341    3.1131    1.3763 H   0  0  0  0  0  0  0  0  0  0  0  0
   -2.7932    2.9964   -0.3786 H   0  0  0  0  0  0  0  0  0  0  0  0
   -4.2196    1.5278    1.8789 H   0  0  0  0  0  0  0  0  0  0  0  0
   -4.8083    2.3927    0.4381 H   0  0  0  0  0  0  0  0  0  0  0  0
   -3.1460   -0.9562   -1.1405 H   0  0  0  0  0  0  0  0  0  0  0  0
   -2.9786    0.7845   -1.6577 H   0  0  0  0  0  0  0  0  0  0  0  0
   -1.8789   -0.5532    0.8781 H   0  0  0  0  0  0  0  0  0  0  0  0
   -0.9549   -0.1084   -0.5837 H   0  0  0  0  0  0  0  0  0  0  0  0
   -4.9842   -1.7574   -1.3027 H   0  0  0  0  0  0  0  0  0  0  0  0
   -7.1109   -2.8785   -1.0989 H   0  0  0  0  0  0  0  0  0  0  0  0
   -8.8330   -2.0416    0.4079 H   0  0  0  0  0  0  0  0  0  0  0  0
   -8.3814   -0.0223    1.7367 H   0  0  0  0  0  0  0  0  0  0  0  0
   -6.2453    1.1339    1.5569 H   0  0  0  0  0  0  0  0  0  0  0  0
    3.1660    2.0914   -1.6704 H   0  0  0  0  0  0  0  0  0  0  0  0
    3.4039    2.3993    0.0854 H   0  0  0  0  0  0  0  0  0  0  0  0
    5.3464    2.2566   -2.2016 H   0  0  0  0  0  0  0  0  0  0  0  0
    5.3638    3.2379   -0.7276 H   0  0  0  0  0  0  0  0  0  0  0  0
    7.2366    1.5267   -0.8874 H   0  0  0  0  0  0  0  0  0  0  0  0
    6.2213    1.3465    0.5779 H   0  0  0  0  0  0  0  0  0  0  0  0
    3.1296   -2.0617   -1.1551 H   0  0  0  0  0  0  0  0  0  0  0  0
    4.8334   -3.6988   -1.8608 H   0  0  0  0  0  0  0  0  0  0  0  0
    7.2159   -3.0634   -1.9535 H   0  0  0  0  0  0  0  0  0  0  0  0
    7.9235   -0.7469   -1.3281 H   0  0  0  0  0  0  0  0  0  0  0  0
  1  2  1  0
  2  3  2  0
  3  4  1  0
  4  5  1  0
  5  6  1  0
  6  7  1  0
  7  8  1  0
  8  9  1  0
  9 10  1  0
 10 11  1  0
  9 12  1  0
 12 13  2  0
 13 14  1  0
 14 15  2  0
 15 16  1  0
 16 17  2  0
  4 18  2  0
 18 19  1  0
 19 20  2  0
 19 21  1  0
 21 22  1  0
 22 23  1  0
 23 24  1  0
 24 25  1  0
 25 26  2  0
 26 27  1  0
 27 28  2  0
 28 29  1  0
 29 30  2  0
 20  2  1  0
 26 21  1  0
 11  6  1  0
 17 12  1  0
 30 25  1  0
  1 31  1  0
  1 32  1  0
  5 33  1  0
  5 34  1  0
  7 35  1  0
  7 36  1  0
  8 37  1  0
  8 38  1  0
 10 39  1  0
 10 40  1  0
 11 41  1  0
 11 42  1  0
 13 43  1  0
 14 44  1  0
 15 45  1  0
 16 46  1  0
 17 47  1  0
 22 48  1  0
 22 49  1  0
 23 50  1  0
 23 51  1  0
 24 52  1  0
 24 53  1  0
 27 54  1  0
 28 55  1  0
 29 56  1  0
 30 57  1  0
M  END
>  <Ligand ID>  (1) 
LIG0003022

>  <Ligand>  (1) 
MLS000039682

>  <SMILES>  (1) 
Nc1nc(CN2CCN(CC2)c2ccccc2)nc(n1)N1CCCc2c1cccc2

>  <CID>  (1) 
667032.0

>  <ChEMBL ID>  (1) 
nan

>  <InChiKey>  (1) 
XAPUHHALCZTLTF-UHFFFAOYSA-N

>  <InChi>  (1) 
InChI=1S/C23H27N7/c24-22-25-21(17-28-13-15-29(16-14-28)19-9-2-1-3-10-19)26-23(27-22)30-12-6-8-18-7-4-5-11-20(18)30/h1-5,7,9-11H,6,8,12-17H2,(H2,24,25,26,27)

>  <IUPAC Name>  (1) 
4-(3,4-dihydro-2H-quinolin-1-yl)-6-[(4-phenylpiperazin-1-yl)methyl]-1,3,5-triazin-2-amine

$$$$
