
     RDKit          3D

 57 61  0  0  0  0  0  0  0  0999 V2000
   -6.9300   -3.5322   -2.9176 Cl  0  0  0  0  0  0  0  0  0  0  0  0
   -5.7368   -2.4172   -2.2600 C   0  0  0  0  0  0  0  0  0  0  0  0
   -6.0604   -1.5958   -1.1765 C   0  0  0  0  0  0  0  0  0  0  0  0
   -5.1587   -0.7100   -0.6316 C   0  0  0  0  0  0  0  0  0  0  0  0
   -3.8858   -0.6076   -1.1510 C   0  0  0  0  0  0  0  0  0  0  0  0
   -3.5595   -1.4295   -2.2362 C   0  0  0  0  0  0  0  0  0  0  0  0
   -4.4668   -2.3139   -2.7769 C   0  0  0  0  0  0  0  0  0  0  0  0
   -2.9026    0.3470   -0.5696 C   0  0  0  0  0  0  0  0  0  0  0  0
   -2.1205   -0.3326    0.4923 C   0  0  0  0  0  0  0  0  0  0  0  0
   -2.7037   -0.9184    1.5946 C   0  0  0  0  0  0  0  0  0  0  0  0
   -1.9749   -1.5434    2.5888 C   0  0  0  0  0  0  0  0  0  0  0  0
   -0.6074   -1.5612    2.4350 C   0  0  0  0  0  0  0  0  0  0  0  0
    0.0465   -0.9994    1.3643 C   0  0  0  0  0  0  0  0  0  0  0  0
   -0.7314   -0.3905    0.4058 C   0  0  0  0  0  0  0  0  0  0  0  0
    1.4429   -1.0511    1.2678 C   0  0  0  0  0  0  0  0  0  0  0  0
    2.0621   -1.6758    2.2797 N   0  0  0  0  0  0  0  0  0  0  0  0
    1.4620   -2.2336    3.3369 C   0  0  0  0  0  0  0  0  0  0  0  0
    0.1058   -2.1710    3.4079 N   0  0  0  0  0  0  0  0  0  0  0  0
    2.1125   -0.4878    0.1529 N   0  0  0  0  0  0  0  0  0  0  0  0
    3.5254   -0.4306    0.0024 C   0  0  0  0  0  0  0  0  0  0  0  0
    4.0653   -0.1789   -1.2511 C   0  0  0  0  0  0  0  0  0  0  0  0
    5.4146   -0.0933   -1.4962 C   0  0  0  0  0  0  0  0  0  0  0  0
    6.3069   -0.2622   -0.4597 C   0  0  0  0  0  0  0  0  0  0  0  0
    5.7961   -0.5130    0.7940 C   0  0  0  0  0  0  0  0  0  0  0  0
    4.4183   -0.5979    1.0314 C   0  0  0  0  0  0  0  0  0  0  0  0
    8.0419   -0.1721   -0.6701 S   0  0  0  0  0  0  0  0  0  0  0  0
    8.4648   -0.6083   -2.0488 O   0  0  0  0  0  0  0  0  0  0  0  0
    8.6670   -1.1082    0.3097 O   0  0  0  0  0  0  0  0  0  0  0  0
    8.5778    1.5028   -0.4210 C   0  0  0  0  0  0  0  0  0  0  0  0
    7.9646    2.3225   -1.3290 F   0  0  0  0  0  0  0  0  0  0  0  0
    8.1569    1.9240    0.8399 F   0  0  0  0  0  0  0  0  0  0  0  0
    9.9476    1.6130   -0.5377 F   0  0  0  0  0  0  0  0  0  0  0  0
   -3.4496    1.6111   -0.1198 C   0  0  0  0  0  0  0  0  0  0  0  0
   -3.8210    2.5390   -1.1070 C   0  0  0  0  0  0  0  0  0  0  0  0
   -4.3444    3.7714   -0.7838 C   0  0  0  0  0  0  0  0  0  0  0  0
   -4.5324    4.1617    0.5249 C   0  0  0  0  0  0  0  0  0  0  0  0
   -4.1734    3.2639    1.5067 C   0  0  0  0  0  0  0  0  0  0  0  0
   -3.6453    2.0210    1.1750 C   0  0  0  0  0  0  0  0  0  0  0  0
   -5.1939    5.7139    0.9757 Cl  0  0  0  0  0  0  0  0  0  0  0  0
   -7.0735   -1.7044   -0.7930 H   0  0  0  0  0  0  0  0  0  0  0  0
   -5.4398   -0.0788    0.2162 H   0  0  0  0  0  0  0  0  0  0  0  0
   -2.5458   -1.3494   -2.6515 H   0  0  0  0  0  0  0  0  0  0  0  0
   -4.1877   -2.9376   -3.6159 H   0  0  0  0  0  0  0  0  0  0  0  0
   -2.2046    0.5719   -1.4420 H   0  0  0  0  0  0  0  0  0  0  0  0
   -3.7792   -0.9199    1.7243 H   0  0  0  0  0  0  0  0  0  0  0  0
   -2.4587   -2.0018    3.4549 H   0  0  0  0  0  0  0  0  0  0  0  0
   -0.3005    0.0745   -0.4601 H   0  0  0  0  0  0  0  0  0  0  0  0
    2.0379   -2.7274    4.1254 H   0  0  0  0  0  0  0  0  0  0  0  0
    1.5632   -0.0775   -0.6331 H   0  0  0  0  0  0  0  0  0  0  0  0
    3.3961   -0.0366   -2.1128 H   0  0  0  0  0  0  0  0  0  0  0  0
    5.7975    0.1071   -2.5006 H   0  0  0  0  0  0  0  0  0  0  0  0
    6.4877   -0.6494    1.6289 H   0  0  0  0  0  0  0  0  0  0  0  0
    4.1319   -0.7866    2.0322 H   0  0  0  0  0  0  0  0  0  0  0  0
   -3.6979    2.2921   -2.1657 H   0  0  0  0  0  0  0  0  0  0  0  0
   -4.6125    4.4444   -1.5738 H   0  0  0  0  0  0  0  0  0  0  0  0
   -4.3087    3.5396    2.5510 H   0  0  0  0  0  0  0  0  0  0  0  0
   -3.3859    1.3841    1.9904 H   0  0  0  0  0  0  0  0  0  0  0  0
  1  2  1  0
  2  3  2  0
  3  4  1  0
  4  5  2  0
  5  6  1  0
  6  7  2  0
  5  8  1  0
  8  9  1  0
  9 10  2  0
 10 11  1  0
 11 12  2  0
 12 13  1  0
 13 14  2  0
 13 15  1  0
 15 16  2  0
 16 17  1  0
 17 18  2  0
 15 19  1  0
 19 20  1  0
 20 21  2  0
 21 22  1  0
 22 23  2  0
 23 24  1  0
 24 25  2  0
 23 26  1  0
 26 27  2  0
 26 28  2  0
 26 29  1  0
 29 30  1  0
 29 31  1  0
 29 32  1  0
  8 33  1  0
 33 34  2  0
 34 35  1  0
 35 36  2  0
 36 37  1  0
 37 38  2  0
 36 39  1  0
  7  2  1  0
 14  9  1  0
 25 20  1  0
 38 33  1  0
 18 12  1  0
  3 40  1  0
  4 41  1  0
  6 42  1  0
  7 43  1  0
  8 44  1  0
 10 45  1  0
 11 46  1  0
 14 47  1  0
 17 48  1  0
 19 49  1  0
 21 50  1  0
 22 51  1  0
 24 52  1  0
 25 53  1  0
 34 54  1  0
 35 55  1  0
 37 56  1  0
 38 57  1  0
M  END
>  <Ligand ID>  (1) 
LIG0005887

>  <Ligand>  (1) 
SCHEMBL17557775

>  <SMILES>  (1) 
Clc1ccc(cc1)C(c1ccc2c(c1)c(ncn2)Nc1ccc(cc1)S(=O)(=O)C(F)(F)F)c1ccc(cc1)Cl

>  <CID>  (1) 
118916246.0

>  <ChEMBL ID>  (1) 
nan

>  <InChiKey>  (1) 
WBNKWDHXVCSHJJ-UHFFFAOYSA-N

>  <InChi>  (1) 
InChI=1S/C28H18Cl2F3N3O2S/c29-20-6-1-17(2-7-20)26(18-3-8-21(30)9-4-18)19-5-14-25-24(15-19)27(35-16-34-25)36-22-10-12-23(13-11-22)39(37,38)28(31,32)33/h1-16,26H,(H,34,35,36)

>  <IUPAC Name>  (1) 
6-[bis(4-chlorophenyl)methyl]-N-[4-(trifluoromethylsulfonyl)phenyl]quinazolin-4-amine

$$$$
