
     RDKit          3D

 57 59  0  0  0  0  0  0  0  0999 V2000
    8.9590   -2.7989   -3.0180 N   0  0  0  0  0  0  0  0  0  0  0  0
    8.4682   -2.0566   -2.3014 C   0  0  0  0  0  0  0  0  0  0  0  0
    7.8526   -1.1386   -1.3802 C   0  0  0  0  0  0  0  0  0  0  0  0
    7.1758   -1.6600   -0.3079 C   0  0  0  0  0  0  0  0  0  0  0  0
    6.5815   -0.7841    0.5819 C   0  0  0  0  0  0  0  0  0  0  0  0
    6.6334    0.5721    0.4476 C   0  0  0  0  0  0  0  0  0  0  0  0
    7.3307    1.0646   -0.6551 C   0  0  0  0  0  0  0  0  0  0  0  0
    7.9395    0.2227   -1.5683 C   0  0  0  0  0  0  0  0  0  0  0  0
    6.0191    1.5725    1.3389 C   0  0  0  0  0  0  0  0  0  0  0  0
    4.8152    2.0795    0.9420 O   0  0  0  0  0  0  0  0  0  0  0  0
    3.6058    1.5639    0.7232 C   0  0  0  0  0  0  0  0  0  0  0  0
    2.6047    2.4654    0.2911 C   0  0  0  0  0  0  0  0  0  0  0  0
    1.3537    2.0510    0.0438 N   0  0  0  0  0  0  0  0  0  0  0  0
    0.9798    0.7715    0.1893 C   0  0  0  0  0  0  0  0  0  0  0  0
    1.9089   -0.1083    0.5987 N   0  0  0  0  0  0  0  0  0  0  0  0
    3.1795    0.2663    0.8589 C   0  0  0  0  0  0  0  0  0  0  0  0
   -0.3506    0.3639   -0.0800 N   0  0  0  0  0  0  0  0  0  0  0  0
   -1.3087    1.3460   -0.5153 C   0  0  0  0  0  0  0  0  0  0  0  0
   -2.6401    1.2080    0.1912 C   0  0  0  0  0  0  0  0  0  0  0  0
   -3.0088   -0.1572    0.4109 N   0  0  0  0  0  0  0  0  0  0  0  0
   -2.0125   -1.0917    0.8598 C   0  0  0  0  0  0  0  0  0  0  0  0
   -0.7307   -1.0181    0.0823 C   0  0  1  0  0  0  0  0  0  0  0  0
   -0.8132   -1.6816   -1.2690 C   0  0  0  0  0  0  0  0  0  0  0  0
   -4.3589   -0.5834    0.1841 C   0  0  0  0  0  0  0  0  0  0  0  0
   -4.7080   -1.7937    0.3734 O   0  0  0  0  0  0  0  0  0  0  0  0
   -5.3079    0.3330   -0.2494 O   0  0  0  0  0  0  0  0  0  0  0  0
   -6.6522   -0.0937   -0.4748 C   0  0  0  0  0  0  0  0  0  0  0  0
   -7.2471   -0.6476    0.8031 C   0  0  0  0  0  0  0  0  0  0  0  0
   -6.7201   -1.1251   -1.5752 C   0  0  0  0  0  0  0  0  0  0  0  0
   -7.4901    1.0883   -0.8909 C   0  0  0  0  0  0  0  0  0  0  0  0
    7.1103   -2.7131   -0.1650 H   0  0  0  0  0  0  0  0  0  0  0  0
    6.0689   -1.2013    1.4138 H   0  0  0  0  0  0  0  0  0  0  0  0
    7.4089    2.1326   -0.8182 H   0  0  0  0  0  0  0  0  0  0  0  0
    8.4734    0.6108   -2.4130 H   0  0  0  0  0  0  0  0  0  0  0  0
    5.9375    1.0575    2.3487 H   0  0  0  0  0  0  0  0  0  0  0  0
    6.7776    2.3892    1.5170 H   0  0  0  0  0  0  0  0  0  0  0  0
    2.8159    3.5068    0.1484 H   0  0  0  0  0  0  0  0  0  0  0  0
    3.8472   -0.4943    1.1886 H   0  0  0  0  0  0  0  0  0  0  0  0
   -0.9005    2.3581   -0.4279 H   0  0  0  0  0  0  0  0  0  0  0  0
   -1.5119    1.1350   -1.5928 H   0  0  0  0  0  0  0  0  0  0  0  0
   -2.5476    1.6988    1.2009 H   0  0  0  0  0  0  0  0  0  0  0  0
   -3.4341    1.7267   -0.3469 H   0  0  0  0  0  0  0  0  0  0  0  0
   -1.7481   -0.7949    1.9164 H   0  0  0  0  0  0  0  0  0  0  0  0
   -2.3987   -2.1274    0.9370 H   0  0  0  0  0  0  0  0  0  0  0  0
    0.0474   -1.5408    0.6606 H   0  0  0  0  0  0  0  0  0  0  0  0
    0.0946   -1.3390   -1.8246 H   0  0  0  0  0  0  0  0  0  0  0  0
   -1.6906   -1.4331   -1.8608 H   0  0  0  0  0  0  0  0  0  0  0  0
   -0.7067   -2.7904   -1.1939 H   0  0  0  0  0  0  0  0  0  0  0  0
   -6.5967   -0.4038    1.6838 H   0  0  0  0  0  0  0  0  0  0  0  0
   -8.2355   -0.2291    1.0332 H   0  0  0  0  0  0  0  0  0  0  0  0
   -7.3859   -1.7586    0.7414 H   0  0  0  0  0  0  0  0  0  0  0  0
   -6.0006   -0.9281   -2.3898 H   0  0  0  0  0  0  0  0  0  0  0  0
   -7.7308   -1.0853   -2.0768 H   0  0  0  0  0  0  0  0  0  0  0  0
   -6.6504   -2.1573   -1.1672 H   0  0  0  0  0  0  0  0  0  0  0  0
   -8.0570    1.5040   -0.0328 H   0  0  0  0  0  0  0  0  0  0  0  0
   -8.2095    0.7804   -1.6600 H   0  0  0  0  0  0  0  0  0  0  0  0
   -6.8354    1.8664   -1.3418 H   0  0  0  0  0  0  0  0  0  0  0  0
  1  2  3  0
  2  3  1  0
  3  4  2  0
  4  5  1  0
  5  6  2  0
  6  7  1  0
  7  8  2  0
  6  9  1  0
  9 10  1  0
 10 11  1  0
 11 12  2  0
 12 13  1  0
 13 14  2  0
 14 15  1  0
 15 16  2  0
 14 17  1  0
 17 18  1  0
 18 19  1  0
 19 20  1  0
 20 21  1  0
 21 22  1  0
 22 23  1  0
 20 24  1  0
 24 25  2  0
 24 26  1  0
 26 27  1  0
 27 28  1  0
 27 29  1  0
 27 30  1  0
  8  3  1  0
 16 11  1  0
 22 17  1  0
  4 31  1  0
  5 32  1  0
  7 33  1  0
  8 34  1  0
  9 35  1  0
  9 36  1  0
 12 37  1  0
 16 38  1  0
 18 39  1  0
 18 40  1  0
 19 41  1  0
 19 42  1  0
 21 43  1  0
 21 44  1  0
 22 45  1  1
 23 46  1  0
 23 47  1  0
 23 48  1  0
 28 49  1  0
 28 50  1  0
 28 51  1  0
 29 52  1  0
 29 53  1  0
 29 54  1  0
 30 55  1  0
 30 56  1  0
 30 57  1  0
M  END
>  <Ligand ID>  (1) 
LIG0005319

>  <Ligand>  (1) 
CHEMBL2086670

>  <SMILES>  (1) 
N#Cc1ccc(cc1)COc1cnc(nc1)N1CCN(C[C@H]1C)C(=O)OC(C)(C)C

>  <CID>  (1) 
60155365.0

>  <ChEMBL ID>  (1) 
nan

>  <InChiKey>  (1) 
WUECHLZWIPEXMU-MRXNPFEDSA-N

>  <InChi>  (1) 
InChI=1S/C22H27N5O3/c1-16-14-26(21(28)30-22(2,3)4)9-10-27(16)20-24-12-19(13-25-20)29-15-18-7-5-17(11-23)6-8-18/h5-8,12-13,16H,9-10,14-15H2,1-4H3/t16-/m1/s1

>  <IUPAC Name>  (1) 
tert-butyl (3R)-4-[5-[(4-cyanophenyl)methoxy]pyrimidin-2-yl]-3-methylpiperazine-1-carboxylate

$$$$
