
     RDKit          3D

 18 17  0  0  0  0  0  0  0  0999 V2000
   -2.6759   -0.1241    0.1056 C   0  0  0  0  0  0  0  0  0  0  0  0
   -1.3946    0.6868    0.0217 C   0  0  0  0  0  0  0  0  0  0  0  0
   -0.2646   -0.3299    0.0516 C   0  0  0  0  0  0  0  0  0  0  0  0
    1.0440    0.4479   -0.0308 C   0  0  0  0  0  0  0  0  0  0  0  0
    2.1636   -0.5968    0.0011 C   0  0  0  0  0  0  0  0  0  0  0  0
    3.4177   -0.0229   -0.0676 O   0  0  0  0  0  0  0  0  0  0  0  0
   -3.5642    0.4802    0.3444 H   0  0  0  0  0  0  0  0  0  0  0  0
   -2.5672   -0.9129    0.8601 H   0  0  0  0  0  0  0  0  0  0  0  0
   -2.8042   -0.6279   -0.8836 H   0  0  0  0  0  0  0  0  0  0  0  0
   -1.2972    1.4056    0.8360 H   0  0  0  0  0  0  0  0  0  0  0  0
   -1.3274    1.2040   -0.9621 H   0  0  0  0  0  0  0  0  0  0  0  0
   -0.3252   -0.9633   -0.8677 H   0  0  0  0  0  0  0  0  0  0  0  0
   -0.2652   -0.9400    0.9703 H   0  0  0  0  0  0  0  0  0  0  0  0
    1.0711    0.8734   -1.0575 H   0  0  0  0  0  0  0  0  0  0  0  0
    1.1401    1.1951    0.7604 H   0  0  0  0  0  0  0  0  0  0  0  0
    2.0361   -1.2248   -0.9108 H   0  0  0  0  0  0  0  0  0  0  0  0
    2.0246   -1.2701    0.8722 H   0  0  0  0  0  0  0  0  0  0  0  0
    3.5886    0.7196    0.5327 H   0  0  0  0  0  0  0  0  0  0  0  0
  1  2  1  0
  2  3  1  0
  3  4  1  0
  4  5  1  0
  5  6  1  0
  1  7  1  0
  1  8  1  0
  1  9  1  0
  2 10  1  0
  2 11  1  0
  3 12  1  0
  3 13  1  0
  4 14  1  0
  4 15  1  0
  5 16  1  0
  5 17  1  0
  6 18  1  0
M  END
>  <Ligand ID>  (1) 
LIG0000078

>  <Ligand>  (1) 
pentan-1-ol

>  <SMILES>  (1) 
CCCCCO

>  <CID>  (1) 
6276.0

>  <ChEMBL ID>  (1) 
nan

>  <InChiKey>  (1) 
AMQJEAYHLZJPGS-UHFFFAOYSA-N

>  <InChi>  (1) 
InChI=1S/C5H12O/c1-2-3-4-5-6/h6H,2-5H2,1H3

>  <IUPAC Name>  (1) 
pentan-1-ol

$$$$
