
     RDKit          3D

 50 52  0  0  0  0  0  0  0  0999 V2000
    5.3263    2.3415    1.7046 C   0  0  0  0  0  0  0  0  0  0  0  0
    4.0135    2.5121    1.5788 C   0  0  0  0  0  0  0  0  0  0  0  0
    3.3071    2.2336    0.2971 C   0  0  0  0  0  0  0  0  0  0  0  0
    2.2926    1.2057    0.4662 N   0  0  0  0  0  0  0  0  0  0  0  0
    1.6780    1.0236   -0.8389 C   0  0  0  0  0  0  0  0  0  0  0  0
    0.6020   -0.0138   -0.8302 C   0  0  2  0  0  0  0  0  0  0  0  0
   -0.3781    0.3528    0.0445 O   0  0  0  0  0  0  0  0  0  0  0  0
   -1.2495   -0.5907    0.4747 C   0  0  0  0  0  0  0  0  0  0  0  0
   -1.2283   -1.9136   -0.2285 C   0  0  0  0  0  0  0  0  0  0  0  0
    0.1953   -2.3812   -0.3741 C   0  0  0  0  0  0  0  0  0  0  0  0
    1.1138   -1.3907   -0.6822 C   0  0  0  0  0  0  0  0  0  0  0  0
    2.4459   -1.7296   -0.8348 C   0  0  0  0  0  0  0  0  0  0  0  0
    2.7979   -3.0539   -0.6704 C   0  0  0  0  0  0  0  0  0  0  0  0
    1.8821   -4.0436   -0.3629 C   0  0  0  0  0  0  0  0  0  0  0  0
    0.5470   -3.7047   -0.2099 C   0  0  0  0  0  0  0  0  0  0  0  0
   -0.4241   -4.6560    0.1000 O   0  0  0  0  0  0  0  0  0  0  0  0
    2.2957   -5.3557   -0.2103 O   0  0  0  0  0  0  0  0  0  0  0  0
   -2.6995   -0.0875    0.4492 C   0  0  0  0  0  0  0  0  0  0  0  0
   -2.8271    1.1353    1.3602 C   0  0  0  0  0  0  0  0  0  0  0  0
   -2.5336    2.3961    0.5984 C   0  0  0  0  0  0  0  0  0  0  0  0
   -3.6663    2.6201   -0.3764 C   0  0  0  0  0  0  0  0  0  0  0  0
   -4.2015    1.3447   -0.9427 C   0  0  0  0  0  0  0  0  0  0  0  0
   -3.1690    0.2165   -0.9385 C   0  0  0  0  0  0  0  0  0  0  0  0
    5.8779    1.9892    0.8369 H   0  0  0  0  0  0  0  0  0  0  0  0
    5.7784    2.5624    2.6648 H   0  0  0  0  0  0  0  0  0  0  0  0
    3.3990    2.8607    2.4014 H   0  0  0  0  0  0  0  0  0  0  0  0
    4.0681    1.9342   -0.4458 H   0  0  0  0  0  0  0  0  0  0  0  0
    2.8924    3.2005   -0.0578 H   0  0  0  0  0  0  0  0  0  0  0  0
    1.6165    1.4346    1.1999 H   0  0  0  0  0  0  0  0  0  0  0  0
    1.1745    1.9988   -1.0621 H   0  0  0  0  0  0  0  0  0  0  0  0
    2.4414    0.9154   -1.6200 H   0  0  0  0  0  0  0  0  0  0  0  0
    0.1395    0.0204   -1.8589 H   0  0  0  0  0  0  0  0  0  0  0  0
   -1.0215   -0.8104    1.5434 H   0  0  0  0  0  0  0  0  0  0  0  0
   -1.7672   -2.6432    0.4235 H   0  0  0  0  0  0  0  0  0  0  0  0
   -1.6829   -1.8922   -1.2470 H   0  0  0  0  0  0  0  0  0  0  0  0
    3.1541   -0.9515   -1.0747 H   0  0  0  0  0  0  0  0  0  0  0  0
    3.8456   -3.3223   -0.7902 H   0  0  0  0  0  0  0  0  0  0  0  0
   -0.6866   -5.4096   -0.5276 H   0  0  0  0  0  0  0  0  0  0  0  0
    1.6152   -6.0935   -0.1839 H   0  0  0  0  0  0  0  0  0  0  0  0
   -3.3801   -0.8488    0.8847 H   0  0  0  0  0  0  0  0  0  0  0  0
   -2.0537    0.9928    2.1501 H   0  0  0  0  0  0  0  0  0  0  0  0
   -3.8582    1.1767    1.7538 H   0  0  0  0  0  0  0  0  0  0  0  0
   -1.5573    2.3702    0.1027 H   0  0  0  0  0  0  0  0  0  0  0  0
   -2.5966    3.2313    1.3435 H   0  0  0  0  0  0  0  0  0  0  0  0
   -3.3505    3.2865   -1.2064 H   0  0  0  0  0  0  0  0  0  0  0  0
   -4.5059    3.1595    0.1334 H   0  0  0  0  0  0  0  0  0  0  0  0
   -5.1420    1.0206   -0.4422 H   0  0  0  0  0  0  0  0  0  0  0  0
   -4.4700    1.5063   -2.0214 H   0  0  0  0  0  0  0  0  0  0  0  0
   -3.6924   -0.6550   -1.4148 H   0  0  0  0  0  0  0  0  0  0  0  0
   -2.3577    0.5053   -1.6268 H   0  0  0  0  0  0  0  0  0  0  0  0
  1  2  2  0
  2  3  1  0
  3  4  1  0
  4  5  1  0
  5  6  1  0
  6  7  1  0
  7  8  1  0
  8  9  1  0
  9 10  1  0
 10 11  2  0
 11 12  1  0
 12 13  2  0
 13 14  1  0
 14 15  2  0
 15 16  1  0
 14 17  1  0
  8 18  1  0
 18 19  1  0
 19 20  1  0
 20 21  1  0
 21 22  1  0
 22 23  1  0
 11  6  1  0
 23 18  1  0
 15 10  1  0
  1 24  1  0
  1 25  1  0
  2 26  1  0
  3 27  1  0
  3 28  1  0
  4 29  1  0
  5 30  1  0
  5 31  1  0
  6 32  1  6
  8 33  1  0
  9 34  1  0
  9 35  1  0
 12 36  1  0
 13 37  1  0
 16 38  1  0
 17 39  1  0
 18 40  1  0
 19 41  1  0
 19 42  1  0
 20 43  1  0
 20 44  1  0
 21 45  1  0
 21 46  1  0
 22 47  1  0
 22 48  1  0
 23 49  1  0
 23 50  1  0
M  END
>  <Ligand ID>  (1) 
LIG0002338

>  <Ligand>  (1) 
CHEMBL419680

>  <SMILES>  (1) 
C=CCNC[C@@H]1OC(Cc2c1ccc(c2O)O)C1CCCCC1

>  <CID>  (1) 
44320327.0

>  <ChEMBL ID>  (1) 
nan

>  <InChiKey>  (1) 
NOOMHYKWRAKBNS-ZVAWYAOSSA-N

>  <InChi>  (1) 
InChI=1S/C19H27NO3/c1-2-10-20-12-18-14-8-9-16(21)19(22)15(14)11-17(23-18)13-6-4-3-5-7-13/h2,8-9,13,17-18,20-22H,1,3-7,10-12H2/t17?,18-/m0/s1

>  <IUPAC Name>  (1) 
(1R)-3-cyclohexyl-1-[(prop-2-enylamino)methyl]-3,4-dihydro-1H-isochromene-5,6-diol

$$$$
