
     RDKit          3D

 55 57  0  0  0  0  0  0  0  0999 V2000
   -5.0065    0.6987   -2.5736 O   0  0  0  0  0  0  0  0  0  0  0  0
   -4.5284    1.7538   -1.7685 C   0  0  0  0  0  0  0  0  0  0  0  0
   -4.5759    1.2634   -0.3380 C   0  0  0  0  0  0  0  0  0  0  0  0
   -3.9213   -0.0562   -0.1590 C   0  0  0  0  0  0  0  0  0  0  0  0
   -4.4793   -0.9073   -1.1509 O   0  0  0  0  0  0  0  0  0  0  0  0
   -3.8216   -2.4471   -1.0539 P   0  0  0  0  0  0  0  0  0  0  0  0
   -3.2133   -2.8141   -2.4100 O   0  0  0  0  0  0  0  0  0  0  0  0
   -2.6051   -2.5301    0.1179 O   0  0  0  0  0  0  0  0  0  0  0  0
   -4.9743   -3.6194   -0.6953 O   0  0  0  0  0  0  0  0  0  0  0  0
   -4.2982    2.3081    0.6845 C   0  0  0  0  0  0  0  0  0  0  0  0
   -3.0329    3.0296    0.6660 C   0  0  0  0  0  0  0  0  0  0  0  0
   -1.7626    2.3568    0.7939 C   0  0  0  0  0  0  0  0  0  0  0  0
   -1.2778    2.0987    2.0830 C   0  0  0  0  0  0  0  0  0  0  0  0
   -0.0610    1.4840    2.2923 C   0  0  0  0  0  0  0  0  0  0  0  0
    0.7328    1.0958    1.2520 C   0  0  0  0  0  0  0  0  0  0  0  0
    0.2826    1.3364   -0.0296 C   0  0  0  0  0  0  0  0  0  0  0  0
   -0.9357    1.9518   -0.2353 C   0  0  0  0  0  0  0  0  0  0  0  0
    2.0274    0.4426    1.4035 C   0  0  0  0  0  0  0  0  0  0  0  0
    2.6823    0.1003    2.5763 C   0  0  0  0  0  0  0  0  0  0  0  0
    3.8348   -0.4767    2.3015 O   0  0  0  0  0  0  0  0  0  0  0  0
    3.9568   -0.5240    0.9963 C   0  0  0  0  0  0  0  0  0  0  0  0
    2.8751    0.0265    0.4213 N   0  0  0  0  0  0  0  0  0  0  0  0
    5.0944   -1.0889    0.2799 C   0  0  0  0  0  0  0  0  0  0  0  0
    6.1624   -1.6336    0.9620 C   0  0  0  0  0  0  0  0  0  0  0  0
    7.2297   -2.1631    0.2484 C   0  0  0  0  0  0  0  0  0  0  0  0
    7.2654   -2.1665   -1.1291 C   0  0  0  0  0  0  0  0  0  0  0  0
    6.1878   -1.6171   -1.8046 C   0  0  0  0  0  0  0  0  0  0  0  0
    5.1283   -1.0914   -1.0995 C   0  0  0  0  0  0  0  0  0  0  0  0
    8.3893   -2.7238   -1.9199 C   0  0  0  0  0  0  0  0  0  0  0  0
    7.9558   -3.2920   -3.1033 F   0  0  0  0  0  0  0  0  0  0  0  0
    9.3097   -1.7073   -2.1970 F   0  0  0  0  0  0  0  0  0  0  0  0
    9.0368   -3.6591   -1.1387 F   0  0  0  0  0  0  0  0  0  0  0  0
   -6.0384    0.9614   -0.1401 N   0  0  0  0  0  0  0  0  0  0  0  0
   -5.9540    0.5061   -2.3385 H   0  0  0  0  0  0  0  0  0  0  0  0
   -5.2327    2.5912   -1.9434 H   0  0  0  0  0  0  0  0  0  0  0  0
   -3.5441    2.0660   -2.1141 H   0  0  0  0  0  0  0  0  0  0  0  0
   -4.2153   -0.5073    0.8121 H   0  0  0  0  0  0  0  0  0  0  0  0
   -2.8465   -0.0960   -0.3467 H   0  0  0  0  0  0  0  0  0  0  0  0
   -2.7710   -3.2515    0.7637 H   0  0  0  0  0  0  0  0  0  0  0  0
   -5.6485   -3.3173   -0.0423 H   0  0  0  0  0  0  0  0  0  0  0  0
   -4.5855    1.8715    1.6714 H   0  0  0  0  0  0  0  0  0  0  0  0
   -5.1165    3.0864    0.5308 H   0  0  0  0  0  0  0  0  0  0  0  0
   -3.0679    3.8389    1.4658 H   0  0  0  0  0  0  0  0  0  0  0  0
   -2.9689    3.6510   -0.2772 H   0  0  0  0  0  0  0  0  0  0  0  0
   -1.8525    2.3785    2.9497 H   0  0  0  0  0  0  0  0  0  0  0  0
    0.2864    1.2982    3.2962 H   0  0  0  0  0  0  0  0  0  0  0  0
    0.8588    1.0561   -0.9124 H   0  0  0  0  0  0  0  0  0  0  0  0
   -1.3047    2.1486   -1.2437 H   0  0  0  0  0  0  0  0  0  0  0  0
    2.2821    0.2910    3.5681 H   0  0  0  0  0  0  0  0  0  0  0  0
    6.1843   -1.6561    2.0574 H   0  0  0  0  0  0  0  0  0  0  0  0
    8.0766   -2.5949    0.7800 H   0  0  0  0  0  0  0  0  0  0  0  0
    6.1339   -1.5785   -2.8926 H   0  0  0  0  0  0  0  0  0  0  0  0
    4.2838   -0.6607   -1.6311 H   0  0  0  0  0  0  0  0  0  0  0  0
   -6.4874    1.9150   -0.1053 H   0  0  0  0  0  0  0  0  0  0  0  0
   -6.1294    0.5738    0.8299 H   0  0  0  0  0  0  0  0  0  0  0  0
  1  2  1  0
  2  3  1  0
  3  4  1  0
  4  5  1  0
  5  6  1  0
  6  7  2  0
  6  8  1  0
  6  9  1  0
  3 10  1  0
 10 11  1  0
 11 12  1  0
 12 13  2  0
 13 14  1  0
 14 15  2  0
 15 16  1  0
 16 17  2  0
 15 18  1  0
 18 19  2  0
 19 20  1  0
 20 21  1  0
 21 22  2  0
 21 23  1  0
 23 24  2  0
 24 25  1  0
 25 26  2  0
 26 27  1  0
 27 28  2  0
 26 29  1  0
 29 30  1  0
 29 31  1  0
 29 32  1  0
  3 33  1  0
 17 12  1  0
 22 18  1  0
 28 23  1  0
  1 34  1  0
  2 35  1  0
  2 36  1  0
  4 37  1  0
  4 38  1  0
  8 39  1  0
  9 40  1  0
 10 41  1  0
 10 42  1  0
 11 43  1  0
 11 44  1  0
 13 45  1  0
 14 46  1  0
 16 47  1  0
 17 48  1  0
 19 49  1  0
 24 50  1  0
 25 51  1  0
 27 52  1  0
 28 53  1  0
 33 54  1  0
 33 55  1  0
M  END
>  <Ligand ID>  (1) 
LIG0005920

>  <Ligand>  (1) 
CHEMBL3341921

>  <SMILES>  (1) 
OCC(COP(=O)(O)O)(CCc1ccc(cc1)c1coc(n1)c1ccc(cc1)C(F)(F)F)N

>  <CID>  (1) 
118716143.0

>  <ChEMBL ID>  (1) 
nan

>  <InChiKey>  (1) 
OURWRKRFAJCZAV-UHFFFAOYSA-N

>  <InChi>  (1) 
InChI=1S/C21H22F3N2O6P/c22-21(23,24)17-7-5-16(6-8-17)19-26-18(11-31-19)15-3-1-14(2-4-15)9-10-20(25,12-27)13-32-33(28,29)30/h1-8,11,27H,9-10,12-13,25H2,(H2,28,29,30)

>  <IUPAC Name>  (1) 
[2-amino-2-(hydroxymethyl)-4-[4-[2-[4-(trifluoromethyl)phenyl]-1,3-oxazol-4-yl]phenyl]butyl] dihydrogen phosphate

$$$$
