
     RDKit          3D

 45 48  0  0  0  0  0  0  0  0999 V2000
    4.7605   -1.9894   -0.0722 O   0  0  0  0  0  0  0  0  0  0  0  0
    3.7529   -1.7911    0.8542 C   0  0  0  0  0  0  0  0  0  0  0  0
    3.5364   -2.6012    1.8165 O   0  0  0  0  0  0  0  0  0  0  0  0
    2.8422   -0.6121    0.7966 C   0  0  1  0  0  0  0  0  0  0  0  0
    3.5731    0.6814    0.4268 C   0  0  0  0  0  0  0  0  0  0  0  0
    2.6479    0.0022   -0.5281 C   0  0  2  0  0  0  0  0  0  0  0  0
    1.3191    0.7358   -0.8649 C   0  0  2  0  0  0  0  0  0  0  0  0
    1.2755    1.8108    0.1735 C   0  0  0  0  0  0  0  0  0  0  0  0
    1.0042    1.5686    1.3843 O   0  0  0  0  0  0  0  0  0  0  0  0
    1.5397    3.1552   -0.1562 O   0  0  0  0  0  0  0  0  0  0  0  0
    0.2816   -0.2616   -0.6248 C   0  0  0  0  0  0  0  0  0  0  0  0
   -1.1585   -0.0737   -0.8485 C   0  0  0  0  0  0  0  0  0  0  0  0
   -1.7566   -1.3966   -0.3884 C   0  0  0  0  0  0  0  0  0  0  0  0
   -1.3058   -2.5929   -0.9044 C   0  0  0  0  0  0  0  0  0  0  0  0
   -1.7930   -3.7956   -0.4327 C   0  0  0  0  0  0  0  0  0  0  0  0
   -2.7413   -3.8540    0.5636 C   0  0  0  0  0  0  0  0  0  0  0  0
   -3.1996   -2.6677    1.0840 C   0  0  0  0  0  0  0  0  0  0  0  0
   -2.7026   -1.4518    0.6002 C   0  0  0  0  0  0  0  0  0  0  0  0
   -3.2411   -0.3163    1.1813 O   0  0  0  0  0  0  0  0  0  0  0  0
   -2.8152    0.9296    0.7472 C   0  0  0  0  0  0  0  0  0  0  0  0
   -1.8552    1.0435   -0.2519 C   0  0  0  0  0  0  0  0  0  0  0  0
   -1.5291    2.3341   -0.6219 C   0  0  0  0  0  0  0  0  0  0  0  0
   -2.1270    3.4478   -0.0182 C   0  0  0  0  0  0  0  0  0  0  0  0
   -3.0728    3.3117    0.9752 C   0  0  0  0  0  0  0  0  0  0  0  0
   -3.4046    2.0261    1.3448 C   0  0  0  0  0  0  0  0  0  0  0  0
    1.5171    1.2227   -2.1820 N   0  0  0  0  0  0  0  0  0  0  0  0
    5.1583   -2.9162   -0.1782 H   0  0  0  0  0  0  0  0  0  0  0  0
    2.0830   -0.5452    1.5684 H   0  0  0  0  0  0  0  0  0  0  0  0
    4.6595    0.6374    0.1957 H   0  0  0  0  0  0  0  0  0  0  0  0
    3.3000    1.6145    0.9434 H   0  0  0  0  0  0  0  0  0  0  0  0
    3.0746   -0.4959   -1.4185 H   0  0  0  0  0  0  0  0  0  0  0  0
    2.0892    3.7327    0.4722 H   0  0  0  0  0  0  0  0  0  0  0  0
    0.4029   -0.6195    0.4416 H   0  0  0  0  0  0  0  0  0  0  0  0
    0.5716   -1.1232   -1.3162 H   0  0  0  0  0  0  0  0  0  0  0  0
   -1.3718   -0.0631   -1.9556 H   0  0  0  0  0  0  0  0  0  0  0  0
   -0.5680   -2.6660   -1.6969 H   0  0  0  0  0  0  0  0  0  0  0  0
   -1.4314   -4.7376   -0.8454 H   0  0  0  0  0  0  0  0  0  0  0  0
   -3.0840   -4.8221    0.8934 H   0  0  0  0  0  0  0  0  0  0  0  0
   -3.9456   -2.7003    1.8679 H   0  0  0  0  0  0  0  0  0  0  0  0
   -0.8283    2.5789   -1.4089 H   0  0  0  0  0  0  0  0  0  0  0  0
   -1.8704    4.4554   -0.3074 H   0  0  0  0  0  0  0  0  0  0  0  0
   -3.5571    4.1415    1.4685 H   0  0  0  0  0  0  0  0  0  0  0  0
   -4.1583    1.8901    2.1359 H   0  0  0  0  0  0  0  0  0  0  0  0
    2.1068    0.6197   -2.7911 H   0  0  0  0  0  0  0  0  0  0  0  0
    2.0210    2.1533   -2.1228 H   0  0  0  0  0  0  0  0  0  0  0  0
  1  2  1  0
  2  3  2  0
  2  4  1  0
  4  5  1  0
  5  6  1  0
  6  7  1  0
  7  8  1  0
  8  9  2  0
  8 10  1  0
  7 11  1  0
 11 12  1  0
 12 13  1  0
 13 14  2  0
 14 15  1  0
 15 16  2  0
 16 17  1  0
 17 18  2  0
 18 19  1  0
 19 20  1  0
 20 21  2  0
 21 22  1  0
 22 23  2  0
 23 24  1  0
 24 25  2  0
  7 26  1  6
  6  4  1  0
 21 12  1  0
 18 13  1  0
 25 20  1  0
  1 27  1  0
  4 28  1  1
  5 29  1  0
  5 30  1  0
  6 31  1  6
 10 32  1  0
 11 33  1  0
 11 34  1  0
 12 35  1  0
 14 36  1  0
 15 37  1  0
 16 38  1  0
 17 39  1  0
 22 40  1  0
 23 41  1  0
 24 42  1  0
 25 43  1  0
 26 44  1  0
 26 45  1  0
M  END
>  <Ligand ID>  (1) 
LIG0000651

>  <Ligand>  (1) 
201943-63-7

>  <SMILES>  (1) 
OC(=O)[C@H]1C[C@@H]1[C@](C(=O)O)(CC1c2ccccc2Oc2c1cccc2)N

>  <CID>  (1) 
9819927.0

>  <ChEMBL ID>  (1) 
nan

>  <InChiKey>  (1) 
VLZBRVJVCCNPRJ-KPHUOKFYSA-N

>  <InChi>  (1) 
InChI=1S/C20H19NO5/c21-20(19(24)25,15-9-13(15)18(22)23)10-14-11-5-1-3-7-16(11)26-17-8-4-2-6-12(14)17/h1-8,13-15H,9-10,21H2,(H,22,23)(H,24,25)/t13-,15-,20-/m0/s1

>  <IUPAC Name>  (1) 
(1S,2S)-2-[(1S)-1-amino-1-carboxy-2-(9H-xanthen-9-yl)ethyl]cyclopropane-1-carboxylic acid

$$$$
