
     RDKit          3D

 89 94  0  0  0  0  0  0  0  0999 V2000
    3.5634   -1.1378   -1.6546 O   0  0  0  0  0  0  0  0  0  0  0  0
    3.1450   -0.8790   -0.4962 C   0  0  0  0  0  0  0  0  0  0  0  0
    3.7663    0.3373    0.1415 C   0  0  2  0  0  0  0  0  0  0  0  0
    3.2286    0.5924    1.4391 N   0  0  0  0  0  0  0  0  0  0  0  0
    3.7553    1.7543    2.0785 C   0  0  0  0  0  0  0  0  0  0  0  0
    4.5047    2.6730    1.1903 C   0  0  0  0  0  0  0  0  0  0  0  0
    4.5060    2.5949   -0.1826 C   0  0  0  0  0  0  0  0  0  0  0  0
    3.6782    1.4986   -0.7965 C   0  0  0  0  0  0  0  0  0  0  0  0
    5.2288    3.4790   -0.9586 C   0  0  0  0  0  0  0  0  0  0  0  0
    5.9750    4.4747   -0.3400 C   0  0  0  0  0  0  0  0  0  0  0  0
    5.9805    4.5620    1.0355 C   0  0  0  0  0  0  0  0  0  0  0  0
    5.2473    3.6627    1.7823 C   0  0  0  0  0  0  0  0  0  0  0  0
    2.1651   -1.6571    0.1795 N   0  0  0  0  0  0  0  0  0  0  0  0
    1.5247   -2.8220   -0.3067 C   0  0  1  0  0  0  0  0  0  0  0  0
    0.3127   -2.6473   -1.0883 C   0  0  0  0  0  0  0  0  0  0  0  0
   -0.1790   -3.7446   -1.5815 O   0  0  0  0  0  0  0  0  0  0  0  0
   -0.4060   -1.4849   -1.3905 N   0  0  0  0  0  0  0  0  0  0  0  0
   -0.1033   -0.1340   -0.9694 C   0  0  0  0  0  0  0  0  0  0  0  0
   -1.2628    0.7243   -1.3047 C   0  0  0  0  0  0  0  0  0  0  0  0
   -2.6286    0.2562   -0.8020 C   0  0  0  0  0  0  0  0  0  0  0  0
   -2.7733   -1.1379   -1.3690 C   0  0  0  0  0  0  0  0  0  0  0  0
   -1.6272   -1.5889   -2.2288 C   0  0  0  0  0  0  0  0  0  0  0  0
   -2.4950    0.3266    0.6391 C   0  0  0  0  0  0  0  0  0  0  0  0
   -3.4553    0.0101    1.5968 N   0  0  0  0  0  0  0  0  0  0  0  0
   -4.4604    0.8651    2.2652 C   0  0  2  0  0  0  0  0  0  0  0  0
   -3.8735    1.1010    3.6481 C   0  0  0  0  0  0  0  0  0  0  0  0
   -5.6235   -0.0819    2.3878 C   0  0  0  0  0  0  0  0  0  0  0  0
   -4.9544   -1.2800    2.7609 O   0  0  0  0  0  0  0  0  0  0  0  0
   -3.6696   -1.2733    2.1849 C   0  0  0  0  0  0  0  0  0  0  0  0
   -2.9257   -2.2712    2.2359 O   0  0  0  0  0  0  0  0  0  0  0  0
   -3.5656    1.2291   -1.4835 C   0  0  0  0  0  0  0  0  0  0  0  0
   -3.3593    2.6651   -1.1452 C   0  0  0  0  0  0  0  0  0  0  0  0
   -4.6706    3.4565   -1.3025 C   0  0  0  0  0  0  0  0  0  0  0  0
   -5.3006    3.0764   -2.6099 C   0  0  0  0  0  0  0  0  0  0  0  0
   -5.7185    1.6351   -2.5441 C   0  0  0  0  0  0  0  0  0  0  0  0
   -5.0297    0.8927   -1.3786 C   0  0  0  0  0  0  0  0  0  0  0  0
    2.4541   -3.7935   -1.0634 C   0  0  0  0  0  0  0  0  0  0  0  0
    3.5134   -4.3084   -0.1933 C   0  0  0  0  0  0  0  0  0  0  0  0
    3.2001   -5.4405    0.5594 C   0  0  0  0  0  0  0  0  0  0  0  0
    4.0948   -6.0414    1.4134 C   0  0  0  0  0  0  0  0  0  0  0  0
    5.3587   -5.5374    1.5604 C   0  0  0  0  0  0  0  0  0  0  0  0
    5.6900   -4.4217    0.8280 C   0  0  0  0  0  0  0  0  0  0  0  0
    4.7737   -3.8153   -0.0402 C   0  0  0  0  0  0  0  0  0  0  0  0
    6.4570   -6.3329    2.6561 Cl  0  0  0  0  0  0  0  0  0  0  0  0
    4.8504    0.0794    0.2929 H   0  0  0  0  0  0  0  0  0  0  0  0
    3.3470   -0.2073    2.0930 H   0  0  0  0  0  0  0  0  0  0  0  0
    2.8955    2.3267    2.5129 H   0  0  0  0  0  0  0  0  0  0  0  0
    4.4381    1.4942    2.9234 H   0  0  0  0  0  0  0  0  0  0  0  0
    4.1130    1.1771   -1.7696 H   0  0  0  0  0  0  0  0  0  0  0  0
    2.6238    1.8226   -0.8989 H   0  0  0  0  0  0  0  0  0  0  0  0
    5.2063    3.3869   -2.0380 H   0  0  0  0  0  0  0  0  0  0  0  0
    6.5616    5.1942   -0.9199 H   0  0  0  0  0  0  0  0  0  0  0  0
    6.5674    5.3454    1.5300 H   0  0  0  0  0  0  0  0  0  0  0  0
    5.2942    3.7903    2.8598 H   0  0  0  0  0  0  0  0  0  0  0  0
    1.9201   -1.3001    1.1558 H   0  0  0  0  0  0  0  0  0  0  0  0
    1.2871   -3.4623    0.6436 H   0  0  0  0  0  0  0  0  0  0  0  0
    0.2007   -0.1397    0.0716 H   0  0  0  0  0  0  0  0  0  0  0  0
    0.7652    0.2853   -1.5385 H   0  0  0  0  0  0  0  0  0  0  0  0
   -1.0752    1.7635   -0.8908 H   0  0  0  0  0  0  0  0  0  0  0  0
   -1.3187    0.8900   -2.3989 H   0  0  0  0  0  0  0  0  0  0  0  0
   -2.7474   -1.8178   -0.4663 H   0  0  0  0  0  0  0  0  0  0  0  0
   -3.6734   -1.3099   -1.9737 H   0  0  0  0  0  0  0  0  0  0  0  0
   -1.4326   -1.0017   -3.1199 H   0  0  0  0  0  0  0  0  0  0  0  0
   -1.8327   -2.6509   -2.4870 H   0  0  0  0  0  0  0  0  0  0  0  0
   -2.1299    1.3688    0.8954 H   0  0  0  0  0  0  0  0  0  0  0  0
   -1.5836   -0.2941    0.9061 H   0  0  0  0  0  0  0  0  0  0  0  0
   -4.6743    1.7861    1.7365 H   0  0  0  0  0  0  0  0  0  0  0  0
   -3.1924    0.2869    3.9663 H   0  0  0  0  0  0  0  0  0  0  0  0
   -3.3110    2.0471    3.7268 H   0  0  0  0  0  0  0  0  0  0  0  0
   -4.7263    1.1047    4.3883 H   0  0  0  0  0  0  0  0  0  0  0  0
   -6.0997   -0.1829    1.3970 H   0  0  0  0  0  0  0  0  0  0  0  0
   -6.3648    0.2333    3.1617 H   0  0  0  0  0  0  0  0  0  0  0  0
   -3.3841    1.1804   -2.6071 H   0  0  0  0  0  0  0  0  0  0  0  0
   -2.6556    3.1887   -1.8596 H   0  0  0  0  0  0  0  0  0  0  0  0
   -2.9576    2.8929   -0.1614 H   0  0  0  0  0  0  0  0  0  0  0  0
   -5.3492    3.3080   -0.4388 H   0  0  0  0  0  0  0  0  0  0  0  0
   -4.4086    4.5155   -1.3539 H   0  0  0  0  0  0  0  0  0  0  0  0
   -6.1885    3.7156   -2.8001 H   0  0  0  0  0  0  0  0  0  0  0  0
   -4.5562    3.2738   -3.4106 H   0  0  0  0  0  0  0  0  0  0  0  0
   -5.4047    1.0681   -3.4641 H   0  0  0  0  0  0  0  0  0  0  0  0
   -6.8021    1.4713   -2.4357 H   0  0  0  0  0  0  0  0  0  0  0  0
   -5.2761   -0.1654   -1.5929 H   0  0  0  0  0  0  0  0  0  0  0  0
   -5.4758    1.2231   -0.4172 H   0  0  0  0  0  0  0  0  0  0  0  0
    1.8490   -4.6552   -1.4435 H   0  0  0  0  0  0  0  0  0  0  0  0
    2.8293   -3.2824   -1.9586 H   0  0  0  0  0  0  0  0  0  0  0  0
    2.2165   -5.8929    0.4924 H   0  0  0  0  0  0  0  0  0  0  0  0
    3.7980   -6.9212    1.9751 H   0  0  0  0  0  0  0  0  0  0  0  0
    6.6896   -4.0063    0.9312 H   0  0  0  0  0  0  0  0  0  0  0  0
    5.1262   -2.9662   -0.5671 H   0  0  0  0  0  0  0  0  0  0  0  0
  1  2  2  0
  2  3  1  0
  3  4  1  0
  4  5  1  0
  5  6  1  0
  6  7  2  0
  7  8  1  0
  7  9  1  0
  9 10  2  0
 10 11  1  0
 11 12  2  0
  2 13  1  0
 13 14  1  0
 14 15  1  0
 15 16  2  0
 15 17  1  0
 17 18  1  0
 18 19  1  0
 19 20  1  0
 20 21  1  0
 21 22  1  0
 20 23  1  0
 23 24  1  0
 24 25  1  0
 25 26  1  0
 25 27  1  0
 27 28  1  0
 28 29  1  0
 29 30  2  0
 20 31  1  0
 31 32  1  0
 32 33  1  0
 33 34  1  0
 34 35  1  0
 35 36  1  0
 14 37  1  0
 37 38  1  0
 38 39  2  0
 39 40  1  0
 40 41  2  0
 41 42  1  0
 42 43  2  0
 41 44  1  0
  8  3  1  0
 22 17  1  0
 29 24  1  0
 36 31  1  0
 43 38  1  0
 12  6  1  0
  3 45  1  1
  4 46  1  0
  5 47  1  0
  5 48  1  0
  8 49  1  0
  8 50  1  0
  9 51  1  0
 10 52  1  0
 11 53  1  0
 12 54  1  0
 13 55  1  0
 14 56  1  1
 18 57  1  0
 18 58  1  0
 19 59  1  0
 19 60  1  0
 21 61  1  0
 21 62  1  0
 22 63  1  0
 22 64  1  0
 23 65  1  0
 23 66  1  0
 25 67  1  6
 26 68  1  0
 26 69  1  0
 26 70  1  0
 27 71  1  0
 27 72  1  0
 31 73  1  0
 32 74  1  0
 32 75  1  0
 33 76  1  0
 33 77  1  0
 34 78  1  0
 34 79  1  0
 35 80  1  0
 35 81  1  0
 36 82  1  0
 36 83  1  0
 37 84  1  0
 37 85  1  0
 39 86  1  0
 40 87  1  0
 42 88  1  0
 43 89  1  0
M  END
>  <Ligand ID>  (1) 
LIG0001100

>  <Ligand>  (1) 
CHEMBL203911

>  <SMILES>  (1) 
O=C([C@@H]1NCc2c(C1)cccc2)N[C@@H](C(=O)N1CCC(CC1)(CN1[C@H](C)COC1=O)C1CCCCC1)Cc1ccc(cc1)Cl

>  <CID>  (1) 
44408287.0

>  <ChEMBL ID>  (1) 
nan

>  <InChiKey>  (1) 
GUUMVPUVSBGKBI-RYHYHUEASA-N

>  <InChi>  (1) 
InChI=1S/C35H45ClN4O4/c1-24-22-44-34(43)40(24)23-35(28-9-3-2-4-10-28)15-17-39(18-16-35)33(42)31(19-25-11-13-29(36)14-12-25)38-32(41)30-20-26-7-5-6-8-27(26)21-37-30/h5-8,11-14,24,28,30-31,37H,2-4,9-10,15-23H2,1H3,(H,38,41)/t24-,30-,31-/m1/s1

>  <IUPAC Name>  (1) 
(3R)-N-[(2R)-3-(4-chlorophenyl)-1-[4-cyclohexyl-4-[[(4R)-4-methyl-2-oxo-1,3-oxazolidin-3-yl]methyl]piperidin-1-yl]-1-oxopropan-2-yl]-1,2,3,4-tetrahydroisoquinoline-3-carboxamide

$$$$
