
     RDKit          3D

 58 60  0  0  0  0  0  0  0  0999 V2000
    2.3373    1.1028   -1.8270 O   0  0  0  0  0  0  0  0  0  0  0  0
    2.9836    0.7145   -0.7164 C   0  0  2  0  0  0  0  0  0  0  0  0
    4.4630    0.5415   -0.9190 C   0  0  0  0  0  0  0  0  0  0  0  0
    4.8403   -0.0379   -2.1128 C   0  0  0  0  0  0  0  0  0  0  0  0
    6.1839   -0.2566   -2.4081 C   0  0  0  0  0  0  0  0  0  0  0  0
    7.0894    0.1347   -1.4515 C   0  0  0  0  0  0  0  0  0  0  0  0
    6.7296    0.7136   -0.2556 C   0  0  0  0  0  0  0  0  0  0  0  0
    5.3786    0.9327    0.0389 C   0  0  0  0  0  0  0  0  0  0  0  0
    7.6502    1.1089    0.7423 N   0  0  0  0  0  0  0  0  0  0  0  0
    8.9772    0.0904    1.1675 S   0  0  0  0  0  0  0  0  0  0  0  0
    9.8868    0.7999    2.1557 O   0  0  0  0  0  0  0  0  0  0  0  0
    9.8136   -0.1551   -0.0544 O   0  0  0  0  0  0  0  0  0  0  0  0
    8.4591   -1.4781    1.8084 C   0  0  0  0  0  0  0  0  0  0  0  0
    2.3862   -0.4196    0.0161 C   0  0  0  0  0  0  0  0  0  0  0  0
    1.1273   -0.3568    0.5809 N   0  0  0  0  0  0  0  0  0  0  0  0
   -0.1272   -0.3627    0.0259 C   0  0  0  0  0  0  0  0  0  0  0  0
   -0.6874    0.7744   -0.7635 C   0  0  0  0  0  0  0  0  0  0  0  0
   -1.9936    0.5721   -1.2123 O   0  0  0  0  0  0  0  0  0  0  0  0
   -3.1512    0.4286   -0.5564 C   0  0  0  0  0  0  0  0  0  0  0  0
   -4.2949    0.1946   -1.3327 C   0  0  0  0  0  0  0  0  0  0  0  0
   -5.5424    0.0300   -0.7987 C   0  0  0  0  0  0  0  0  0  0  0  0
   -5.7478    0.0844    0.5439 C   0  0  0  0  0  0  0  0  0  0  0  0
   -4.6497    0.3144    1.3531 C   0  0  0  0  0  0  0  0  0  0  0  0
   -3.3800    0.4825    0.8007 C   0  0  0  0  0  0  0  0  0  0  0  0
   -5.1307    0.3137    2.6103 N   0  0  0  0  0  0  0  0  0  0  0  0
   -6.4334    0.0989    2.5952 N   0  0  0  0  0  0  0  0  0  0  0  0
   -6.8747   -0.0528    1.3186 C   0  0  0  0  0  0  0  0  0  0  0  0
   -8.2782   -0.3127    0.9568 C   0  0  0  0  0  0  0  0  0  0  0  0
   -8.5217   -1.8086    0.8072 C   0  0  0  0  0  0  0  0  0  0  0  0
   -8.6412    0.4659   -0.2651 C   0  0  0  0  0  0  0  0  0  0  0  0
    2.1996    2.0730   -1.9781 H   0  0  0  0  0  0  0  0  0  0  0  0
    2.9418    1.6169   -0.0062 H   0  0  0  0  0  0  0  0  0  0  0  0
    4.1075   -0.3397   -2.8590 H   0  0  0  0  0  0  0  0  0  0  0  0
    6.4336   -0.7055   -3.3392 H   0  0  0  0  0  0  0  0  0  0  0  0
    8.1337   -0.0299   -1.6720 H   0  0  0  0  0  0  0  0  0  0  0  0
    5.0570    1.3775    0.9556 H   0  0  0  0  0  0  0  0  0  0  0  0
    7.5223    2.0334    1.2285 H   0  0  0  0  0  0  0  0  0  0  0  0
    8.6243   -2.2735    1.0234 H   0  0  0  0  0  0  0  0  0  0  0  0
    9.0734   -1.7704    2.6584 H   0  0  0  0  0  0  0  0  0  0  0  0
    7.3865   -1.4736    2.0248 H   0  0  0  0  0  0  0  0  0  0  0  0
    3.1044   -0.6818    0.8962 H   0  0  0  0  0  0  0  0  0  0  0  0
    2.5297   -1.3954   -0.5919 H   0  0  0  0  0  0  0  0  0  0  0  0
    1.1217   -0.0468    1.6052 H   0  0  0  0  0  0  0  0  0  0  0  0
   -0.2828   -1.3082   -0.6558 H   0  0  0  0  0  0  0  0  0  0  0  0
   -0.9050   -0.6302    0.8245 H   0  0  0  0  0  0  0  0  0  0  0  0
   -0.5753    1.7338   -0.2195 H   0  0  0  0  0  0  0  0  0  0  0  0
   -0.1046    0.9142   -1.7179 H   0  0  0  0  0  0  0  0  0  0  0  0
   -4.2116    0.1366   -2.4228 H   0  0  0  0  0  0  0  0  0  0  0  0
   -6.3834   -0.1481   -1.4469 H   0  0  0  0  0  0  0  0  0  0  0  0
   -2.5961    0.6783    1.4894 H   0  0  0  0  0  0  0  0  0  0  0  0
   -7.0012    0.0589    3.4629 H   0  0  0  0  0  0  0  0  0  0  0  0
   -8.9390    0.0220    1.7908 H   0  0  0  0  0  0  0  0  0  0  0  0
   -8.8795   -2.0217   -0.2233 H   0  0  0  0  0  0  0  0  0  0  0  0
   -9.2809   -2.1830    1.5166 H   0  0  0  0  0  0  0  0  0  0  0  0
   -7.5741   -2.3673    0.9419 H   0  0  0  0  0  0  0  0  0  0  0  0
   -9.6643    0.9201   -0.1130 H   0  0  0  0  0  0  0  0  0  0  0  0
   -7.9558    1.3208   -0.3779 H   0  0  0  0  0  0  0  0  0  0  0  0
   -8.7341   -0.1679   -1.1840 H   0  0  0  0  0  0  0  0  0  0  0  0
  1  2  1  0
  2  3  1  0
  3  4  2  0
  4  5  1  0
  5  6  2  0
  6  7  1  0
  7  8  2  0
  7  9  1  0
  9 10  1  0
 10 11  2  0
 10 12  2  0
 10 13  1  0
  2 14  1  0
 14 15  1  0
 15 16  1  0
 16 17  1  0
 17 18  1  0
 18 19  1  0
 19 20  1  0
 20 21  2  0
 21 22  1  0
 22 23  1  0
 23 24  1  0
 23 25  2  0
 25 26  1  0
 26 27  1  0
 27 28  1  0
 28 29  1  0
 28 30  1  0
  8  3  1  0
 24 19  2  0
 27 22  2  0
  1 31  1  0
  2 32  1  1
  4 33  1  0
  5 34  1  0
  6 35  1  0
  8 36  1  0
  9 37  1  0
 13 38  1  0
 13 39  1  0
 13 40  1  0
 14 41  1  0
 14 42  1  0
 15 43  1  0
 16 44  1  0
 16 45  1  0
 17 46  1  0
 17 47  1  0
 20 48  1  0
 21 49  1  0
 24 50  1  0
 26 51  1  0
 28 52  1  0
 29 53  1  0
 29 54  1  0
 29 55  1  0
 30 56  1  0
 30 57  1  0
 30 58  1  0
M  END
>  <Ligand ID>  (1) 
LIG0000909

>  <Ligand>  (1) 
CHEMBL3601305

>  <SMILES>  (1) 
O[C@H](c1cccc(c1)NS(=O)(=O)C)CNCCOc1ccc2c(c1)n[nH]c2C(C)C

>  <CID>  (1) 
45381932.0

>  <ChEMBL ID>  (1) 
nan

>  <InChiKey>  (1) 
RBSXDYUYROTACT-FQEVSTJZSA-N

>  <InChi>  (1) 
InChI=1S/C21H28N4O4S/c1-14(2)21-18-8-7-17(12-19(18)23-24-21)29-10-9-22-13-20(26)15-5-4-6-16(11-15)25-30(3,27)28/h4-8,11-12,14,20,22,25-26H,9-10,13H2,1-3H3,(H,23,24)/t20-/m0/s1

>  <IUPAC Name>  (1) 
N-[3-[(1R)-1-hydroxy-2-[2-[(3-propan-2-yl-2H-indazol-6-yl)oxy]ethylamino]ethyl]phenyl]methanesulfonamide

$$$$
