
     RDKit          3D

 93 96  0  0  0  0  0  0  0  0999 V2000
    0.3942    8.5564    0.9566 N   0  0  0  0  0  0  0  0  0  0  0  0
    1.3526    7.5045    0.7556 C   0  0  0  0  0  0  0  0  0  0  0  0
    0.9297    6.3109    0.5202 N   0  0  0  0  0  0  0  0  0  0  0  0
    1.9544    5.2816    0.3237 C   0  0  0  0  0  0  0  0  0  0  0  0
    1.3569    4.0376   -0.2701 C   0  0  0  0  0  0  0  0  0  0  0  0
    2.4995    3.0267   -0.4372 C   0  0  0  0  0  0  0  0  0  0  0  0
    1.9726    1.7386   -1.0365 C   0  0  1  0  0  0  0  0  0  0  0  0
    3.1192    0.7947   -1.1784 C   0  0  0  0  0  0  0  0  0  0  0  0
    4.0691    1.2093   -1.9135 O   0  0  0  0  0  0  0  0  0  0  0  0
    3.1028   -0.4471   -0.5288 N   0  0  0  0  0  0  0  0  0  0  0  0
    4.1413   -1.4462   -0.5673 C   0  0  2  0  0  0  0  0  0  0  0  0
    5.4553   -0.7917   -0.3521 C   0  0  0  0  0  0  0  0  0  0  0  0
    6.4755   -1.5213   -0.4642 O   0  0  0  0  0  0  0  0  0  0  0  0
    5.6595    0.5643   -0.0319 N   0  0  0  0  0  0  0  0  0  0  0  0
    4.0742   -2.3614   -1.7291 C   0  0  0  0  0  0  0  0  0  0  0  0
    5.1483   -3.3875   -1.7633 C   0  0  0  0  0  0  0  0  0  0  0  0
    6.2687   -3.3969   -2.5687 C   0  0  0  0  0  0  0  0  0  0  0  0
    7.0189   -4.5003   -2.3119 N   0  0  0  0  0  0  0  0  0  0  0  0
    6.3851   -5.2014   -1.3437 C   0  0  0  0  0  0  0  0  0  0  0  0
    5.2157   -4.5257   -0.9862 C   0  0  0  0  0  0  0  0  0  0  0  0
    4.4012   -5.0566   -0.0105 C   0  0  0  0  0  0  0  0  0  0  0  0
    4.7776   -6.2522    0.5842 C   0  0  0  0  0  0  0  0  0  0  0  0
    5.9354   -6.9197    0.2294 C   0  0  0  0  0  0  0  0  0  0  0  0
    6.7533   -6.3893   -0.7484 C   0  0  0  0  0  0  0  0  0  0  0  0
    0.9426    1.2256   -0.1812 N   0  0  0  0  0  0  0  0  0  0  0  0
   -0.4038    1.1297   -0.5988 C   0  0  0  0  0  0  0  0  0  0  0  0
   -0.7635    1.4972   -1.7602 O   0  0  0  0  0  0  0  0  0  0  0  0
   -1.4741    0.5902    0.3087 C   0  0  2  0  0  0  0  0  0  0  0  0
   -2.7322    0.6541   -0.3983 N   0  0  0  0  0  0  0  0  0  0  0  0
   -3.4191   -0.4740   -0.9095 C   0  0  0  0  0  0  0  0  0  0  0  0
   -2.8915   -1.6023   -0.7261 O   0  0  0  0  0  0  0  0  0  0  0  0
   -4.6964   -0.4171   -1.6386 C   0  0  2  0  0  0  0  0  0  0  0  0
   -5.8486    0.1501   -0.8778 C   0  0  0  0  0  0  0  0  0  0  0  0
   -6.1770   -0.5863    0.3346 C   0  0  0  0  0  0  0  0  0  0  0  0
   -7.2103   -0.3259    1.2269 C   0  0  0  0  0  0  0  0  0  0  0  0
   -7.3711   -1.1052    2.2639 C   0  0  0  0  0  0  0  0  0  0  0  0
   -6.4929   -2.1864    2.4486 C   0  0  0  0  0  0  0  0  0  0  0  0
   -5.3374   -2.0491    0.9819 S   0  0  0  0  0  0  0  0  0  0  0  0
   -5.0208   -1.7604   -2.0703 N   0  0  0  0  0  0  0  0  0  0  0  0
   -5.0996   -2.0084   -3.4863 C   0  0  0  0  0  0  0  0  0  0  0  0
   -4.8980   -1.1073   -4.3239 O   0  0  0  0  0  0  0  0  0  0  0  0
   -5.4282   -3.3644   -3.9996 C   0  0  0  0  0  0  0  0  0  0  0  0
   -1.5687    1.3995    1.5615 C   0  0  0  0  0  0  0  0  0  0  0  0
   -2.6121    0.8837    2.4665 C   0  0  0  0  0  0  0  0  0  0  0  0
   -2.2086   -0.0925    3.3842 C   0  0  0  0  0  0  0  0  0  0  0  0
   -3.1169   -0.6203    4.2782 C   0  0  0  0  0  0  0  0  0  0  0  0
   -4.4332   -0.2071    4.2943 C   0  0  0  0  0  0  0  0  0  0  0  0
   -4.7926    0.7560    3.3750 C   0  0  0  0  0  0  0  0  0  0  0  0
   -3.9175    1.3078    2.4666 C   0  0  0  0  0  0  0  0  0  0  0  0
    2.7246    7.8598    0.8324 N   0  0  0  0  0  0  0  0  0  0  0  0
   -0.3532    8.7219    0.2557 H   0  0  0  0  0  0  0  0  0  0  0  0
    0.4036    9.1803    1.7853 H   0  0  0  0  0  0  0  0  0  0  0  0
    2.3274    5.0209    1.3398 H   0  0  0  0  0  0  0  0  0  0  0  0
    2.7600    5.6775   -0.3212 H   0  0  0  0  0  0  0  0  0  0  0  0
    0.5817    3.6337    0.4140 H   0  0  0  0  0  0  0  0  0  0  0  0
    0.8455    4.2359   -1.2227 H   0  0  0  0  0  0  0  0  0  0  0  0
    2.9123    2.8555    0.5703 H   0  0  0  0  0  0  0  0  0  0  0  0
    3.2119    3.5313   -1.1208 H   0  0  0  0  0  0  0  0  0  0  0  0
    1.5736    1.9885   -2.0415 H   0  0  0  0  0  0  0  0  0  0  0  0
    2.2255   -0.6582    0.0447 H   0  0  0  0  0  0  0  0  0  0  0  0
    4.0165   -2.0437    0.4069 H   0  0  0  0  0  0  0  0  0  0  0  0
    6.4374    1.1248   -0.4857 H   0  0  0  0  0  0  0  0  0  0  0  0
    5.0642    1.0978    0.6649 H   0  0  0  0  0  0  0  0  0  0  0  0
    3.0795   -2.8501   -1.7585 H   0  0  0  0  0  0  0  0  0  0  0  0
    4.1096   -1.7347   -2.6541 H   0  0  0  0  0  0  0  0  0  0  0  0
    6.5421   -2.6578   -3.3035 H   0  0  0  0  0  0  0  0  0  0  0  0
    7.9333   -4.7463   -2.7966 H   0  0  0  0  0  0  0  0  0  0  0  0
    3.4868   -4.5294    0.2700 H   0  0  0  0  0  0  0  0  0  0  0  0
    4.1352   -6.6660    1.3503 H   0  0  0  0  0  0  0  0  0  0  0  0
    6.2281   -7.8688    0.7059 H   0  0  0  0  0  0  0  0  0  0  0  0
    7.6436   -6.9394   -0.9941 H   0  0  0  0  0  0  0  0  0  0  0  0
    1.1643    0.9069    0.7855 H   0  0  0  0  0  0  0  0  0  0  0  0
   -1.1639   -0.4347    0.5447 H   0  0  0  0  0  0  0  0  0  0  0  0
   -3.1526    1.6101   -0.5342 H   0  0  0  0  0  0  0  0  0  0  0  0
   -4.5467    0.2026   -2.5801 H   0  0  0  0  0  0  0  0  0  0  0  0
   -5.5249    1.1827   -0.5535 H   0  0  0  0  0  0  0  0  0  0  0  0
   -6.7166    0.3408   -1.5398 H   0  0  0  0  0  0  0  0  0  0  0  0
   -7.8662    0.5565    1.0089 H   0  0  0  0  0  0  0  0  0  0  0  0
   -8.1663   -0.9783    3.0304 H   0  0  0  0  0  0  0  0  0  0  0  0
   -6.4068   -2.9388    3.1750 H   0  0  0  0  0  0  0  0  0  0  0  0
   -5.2023   -2.5686   -1.4546 H   0  0  0  0  0  0  0  0  0  0  0  0
   -5.9415   -3.9989   -3.2404 H   0  0  0  0  0  0  0  0  0  0  0  0
   -4.5275   -3.9247   -4.3224 H   0  0  0  0  0  0  0  0  0  0  0  0
   -6.1599   -3.2735   -4.8348 H   0  0  0  0  0  0  0  0  0  0  0  0
   -0.5590    1.3834    2.0269 H   0  0  0  0  0  0  0  0  0  0  0  0
   -1.8553    2.4632    1.3363 H   0  0  0  0  0  0  0  0  0  0  0  0
   -1.1883   -0.4482    3.4102 H   0  0  0  0  0  0  0  0  0  0  0  0
   -2.8470   -1.3783    5.0060 H   0  0  0  0  0  0  0  0  0  0  0  0
   -5.1449   -0.6276    5.0020 H   0  0  0  0  0  0  0  0  0  0  0  0
   -5.8334    1.0945    3.3748 H   0  0  0  0  0  0  0  0  0  0  0  0
   -4.1915    2.0613    1.7441 H   0  0  0  0  0  0  0  0  0  0  0  0
    3.0026    8.4646    1.6374 H   0  0  0  0  0  0  0  0  0  0  0  0
    3.4487    7.5566    0.1458 H   0  0  0  0  0  0  0  0  0  0  0  0
  1  2  1  0
  2  3  2  3
  3  4  1  0
  4  5  1  0
  5  6  1  0
  6  7  1  0
  7  8  1  0
  8  9  2  0
  8 10  1  0
 10 11  1  0
 11 12  1  0
 12 13  2  0
 12 14  1  0
 11 15  1  0
 15 16  1  0
 16 17  2  0
 17 18  1  0
 18 19  1  0
 19 20  2  0
 20 21  1  0
 21 22  2  0
 22 23  1  0
 23 24  2  0
  7 25  1  0
 25 26  1  0
 26 27  2  0
 26 28  1  0
 28 29  1  0
 29 30  1  0
 30 31  2  0
 30 32  1  0
 32 33  1  0
 33 34  1  0
 34 35  2  0
 35 36  1  0
 36 37  2  0
 37 38  1  0
 32 39  1  0
 39 40  1  0
 40 41  2  0
 40 42  1  0
 28 43  1  0
 43 44  1  0
 44 45  2  0
 45 46  1  0
 46 47  2  0
 47 48  1  0
 48 49  2  0
  2 50  1  0
 20 16  1  0
 38 34  1  0
 49 44  1  0
 24 19  1  0
  1 51  1  0
  1 52  1  0
  4 53  1  0
  4 54  1  0
  5 55  1  0
  5 56  1  0
  6 57  1  0
  6 58  1  0
  7 59  1  6
 10 60  1  0
 11 61  1  1
 14 62  1  0
 14 63  1  0
 15 64  1  0
 15 65  1  0
 17 66  1  0
 18 67  1  0
 21 68  1  0
 22 69  1  0
 23 70  1  0
 24 71  1  0
 25 72  1  0
 28 73  1  1
 29 74  1  0
 32 75  1  6
 33 76  1  0
 33 77  1  0
 35 78  1  0
 36 79  1  0
 37 80  1  0
 39 81  1  0
 42 82  1  0
 42 83  1  0
 42 84  1  0
 43 85  1  0
 43 86  1  0
 45 87  1  0
 46 88  1  0
 47 89  1  0
 48 90  1  0
 49 91  1  0
 50 92  1  0
 50 93  1  0
M  END
>  <Ligand ID>  (1) 
LIG0001397

>  <Ligand>  (1) 
CHEMBL330561

>  <SMILES>  (1) 
NC(=NCCC[C@@H](C(=O)N[C@H](C(=O)N)Cc1c[nH]c2c1cccc2)NC(=O)[C@H](NC(=O)[C@H](Cc1cccs1)NC(=O)C)Cc1ccccc1)N

>  <CID>  (1) 
11146896.0

>  <ChEMBL ID>  (1) 
nan

>  <InChiKey>  (1) 
ULBOINVSOBKOSI-ZXYZSCNASA-N

>  <InChi>  (1) 
InChI=1S/C35H43N9O5S/c1-21(45)41-30(19-24-11-8-16-50-24)34(49)44-29(17-22-9-3-2-4-10-22)33(48)42-27(14-7-15-39-35(37)38)32(47)43-28(31(36)46)18-23-20-40-26-13-6-5-12-25(23)26/h2-6,8-13,16,20,27-30,40H,7,14-15,17-19H2,1H3,(H2,36,46)(H,41,45)(H,42,48)(H,43,47)(H,44,49)(H4,37,38,39)/t27-,28-,29+,30-/m0/s1

>  <IUPAC Name>  (1) 
(2S)-2-[[(2R)-2-[[(2S)-2-acetamido-3-thiophen-2-ylpropanoyl]amino]-3-phenylpropanoyl]amino]-N-[(2S)-1-amino-3-(1H-indol-3-yl)-1-oxopropan-2-yl]-5-(diaminomethylideneamino)pentanamide

$$$$
