
     RDKit          3D

 41 44  0  0  0  0  0  0  0  0999 V2000
    6.7564   -1.3136    1.3123 F   0  0  0  0  0  0  0  0  0  0  0  0
    5.7960   -0.8533    0.4659 C   0  0  0  0  0  0  0  0  0  0  0  0
    5.7476   -1.3066   -0.8350 C   0  0  0  0  0  0  0  0  0  0  0  0
    6.6327   -2.2016   -1.2995 F   0  0  0  0  0  0  0  0  0  0  0  0
    4.7728   -0.8293   -1.6709 C   0  0  0  0  0  0  0  0  0  0  0  0
    3.8673    0.0895   -1.1933 C   0  0  0  0  0  0  0  0  0  0  0  0
    3.8991    0.5611    0.1195 C   0  0  0  0  0  0  0  0  0  0  0  0
    4.8880    0.0755    0.9643 C   0  0  0  0  0  0  0  0  0  0  0  0
    4.9867    0.4842    2.2595 F   0  0  0  0  0  0  0  0  0  0  0  0
    2.9266    1.5407    0.6096 C   0  0  0  0  0  0  0  0  0  0  0  0
    1.6356    0.8573    1.6619 S   0  0  0  0  0  0  0  0  0  0  0  0
    0.5668   -0.2452    0.7809 C   0  0  0  0  0  0  0  0  0  0  0  0
    0.7864   -1.5706    0.6671 N   0  0  0  0  0  0  0  0  0  0  0  0
   -0.2020   -2.0706   -0.0514 N   0  0  0  0  0  0  0  0  0  0  0  0
   -1.0383   -1.0530   -0.3846 C   0  0  0  0  0  0  0  0  0  0  0  0
   -0.5688    0.1012    0.1307 N   0  0  0  0  0  0  0  0  0  0  0  0
   -1.1706    1.3922   -0.0056 C   0  0  0  0  0  0  0  0  0  0  0  0
   -2.1366    1.6532    1.1024 C   0  0  0  0  0  0  0  0  0  0  0  0
   -1.9279    2.2156    2.3104 C   0  0  0  0  0  0  0  0  0  0  0  0
   -2.9421    2.3585    3.1624 C   0  0  0  0  0  0  0  0  0  0  0  0
   -4.1833    1.8994    2.7220 C   0  0  0  0  0  0  0  0  0  0  0  0
   -3.8614    1.2421    1.0204 S   0  0  0  0  0  0  0  0  0  0  0  0
   -2.2380   -1.2856   -1.1842 C   0  0  0  0  0  0  0  0  0  0  0  0
   -3.1976   -2.1297   -0.6543 C   0  0  0  0  0  0  0  0  0  0  0  0
   -4.3648   -2.4110   -1.3332 C   0  0  0  0  0  0  0  0  0  0  0  0
   -4.5455   -1.8203   -2.5645 C   0  0  0  0  0  0  0  0  0  0  0  0
   -3.5845   -0.9772   -3.0916 C   0  0  0  0  0  0  0  0  0  0  0  0
   -2.4453   -0.7274   -2.3844 N   0  0  0  0  0  0  0  0  0  0  0  0
    4.6787   -1.1506   -2.7176 H   0  0  0  0  0  0  0  0  0  0  0  0
    3.0939    0.4570   -1.8884 H   0  0  0  0  0  0  0  0  0  0  0  0
    2.3950    1.9665   -0.2893 H   0  0  0  0  0  0  0  0  0  0  0  0
    3.4649    2.3718    1.0705 H   0  0  0  0  0  0  0  0  0  0  0  0
   -1.7535    1.4393   -0.9495 H   0  0  0  0  0  0  0  0  0  0  0  0
   -0.4401    2.2181   -0.0635 H   0  0  0  0  0  0  0  0  0  0  0  0
   -0.8898    2.5592    2.5857 H   0  0  0  0  0  0  0  0  0  0  0  0
   -2.8748    2.8040    4.1703 H   0  0  0  0  0  0  0  0  0  0  0  0
   -5.1814    1.8814    3.1905 H   0  0  0  0  0  0  0  0  0  0  0  0
   -3.0642   -2.5979    0.3148 H   0  0  0  0  0  0  0  0  0  0  0  0
   -5.1024   -3.0761   -0.8993 H   0  0  0  0  0  0  0  0  0  0  0  0
   -5.4624   -2.0422   -3.0964 H   0  0  0  0  0  0  0  0  0  0  0  0
   -3.7193   -0.5062   -4.0646 H   0  0  0  0  0  0  0  0  0  0  0  0
  1  2  1  0
  2  3  2  0
  3  4  1  0
  3  5  1  0
  5  6  2  0
  6  7  1  0
  7  8  2  0
  8  9  1  0
  7 10  1  0
 10 11  1  0
 11 12  1  0
 12 13  2  0
 13 14  1  0
 14 15  2  0
 15 16  1  0
 16 17  1  0
 17 18  1  0
 18 19  2  0
 19 20  1  0
 20 21  2  0
 21 22  1  0
 15 23  1  0
 23 24  2  0
 24 25  1  0
 25 26  2  0
 26 27  1  0
 27 28  2  0
  8  2  1  0
 16 12  1  0
 22 18  1  0
 28 23  1  0
  5 29  1  0
  6 30  1  0
 10 31  1  0
 10 32  1  0
 17 33  1  0
 17 34  1  0
 19 35  1  0
 20 36  1  0
 21 37  1  0
 24 38  1  0
 25 39  1  0
 26 40  1  0
 27 41  1  0
M  END
>  <Ligand ID>  (1) 
LIG0002770

>  <Ligand>  (1) 
KUC104203N

>  <SMILES>  (1) 
Fc1c(F)ccc(c1F)CSc1nnc(n1Cc1cccs1)c1ccccn1

>  <CID>  (1) 
44620921.0

>  <ChEMBL ID>  (1) 
nan

>  <InChiKey>  (1) 
UKOZMUQTAPXJFT-UHFFFAOYSA-N

>  <InChi>  (1) 
InChI=1S/C19H13F3N4S2/c20-14-7-6-12(16(21)17(14)22)11-28-19-25-24-18(15-5-1-2-8-23-15)26(19)10-13-4-3-9-27-13/h1-9H,10-11H2

>  <IUPAC Name>  (1) 
2-[4-(thiophen-2-ylmethyl)-5-[(2,3,4-trifluorophenyl)methylsulfanyl]-1,2,4-triazol-3-yl]pyridine

$$$$
