
     RDKit          3D

 32 32  0  0  0  0  0  0  0  0999 V2000
   -2.0502    1.8028   -1.0355 C   0  0  0  0  0  0  0  0  0  0  0  0
   -2.1245    0.2999   -1.0459 C   0  0  0  0  0  0  0  0  0  0  0  0
   -1.0867   -0.4241   -0.2948 C   0  0  0  0  0  0  0  0  0  0  0  0
    0.3354   -0.2485   -0.6770 C   0  0  0  0  0  0  0  0  0  0  0  0
    0.9064    1.1217   -0.6069 C   0  0  0  0  0  0  0  0  0  0  0  0
    2.4195    0.9690   -0.8613 C   0  0  0  0  0  0  0  0  0  0  0  0
    2.9313    0.5086    0.4790 C   0  0  0  0  0  0  0  0  0  0  0  0
    3.8950    0.9915    1.0263 O   0  0  0  0  0  0  0  0  0  0  0  0
    2.1246   -0.6212    1.0830 C   0  0  0  0  0  0  0  0  0  0  0  0
    1.2514   -1.2406    0.0073 C   0  0  0  0  0  0  0  0  0  0  0  0
   -1.4141   -1.9158   -0.4185 C   0  0  0  0  0  0  0  0  0  0  0  0
   -1.3236   -0.1346    1.1935 C   0  0  0  0  0  0  0  0  0  0  0  0
   -1.4176    2.2430   -0.2699 H   0  0  0  0  0  0  0  0  0  0  0  0
   -3.0762    2.2555   -0.8604 H   0  0  0  0  0  0  0  0  0  0  0  0
   -1.6679    2.1821   -2.0299 H   0  0  0  0  0  0  0  0  0  0  0  0
   -3.1290    0.0374   -0.5904 H   0  0  0  0  0  0  0  0  0  0  0  0
   -2.2643   -0.0461   -2.0950 H   0  0  0  0  0  0  0  0  0  0  0  0
    0.4210   -0.5159   -1.7769 H   0  0  0  0  0  0  0  0  0  0  0  0
    0.6012    1.7836   -1.4448 H   0  0  0  0  0  0  0  0  0  0  0  0
    0.7942    1.6034    0.3880 H   0  0  0  0  0  0  0  0  0  0  0  0
    2.6186    0.1511   -1.5836 H   0  0  0  0  0  0  0  0  0  0  0  0
    2.8778    1.9088   -1.1871 H   0  0  0  0  0  0  0  0  0  0  0  0
    1.5902   -0.3283    1.9864 H   0  0  0  0  0  0  0  0  0  0  0  0
    2.8666   -1.4006    1.3522 H   0  0  0  0  0  0  0  0  0  0  0  0
    0.7039   -2.0563    0.5339 H   0  0  0  0  0  0  0  0  0  0  0  0
    1.9617   -1.7401   -0.6839 H   0  0  0  0  0  0  0  0  0  0  0  0
   -1.2957   -2.4580    0.5210 H   0  0  0  0  0  0  0  0  0  0  0  0
   -0.6969   -2.3880   -1.1373 H   0  0  0  0  0  0  0  0  0  0  0  0
   -2.4154   -2.0946   -0.8538 H   0  0  0  0  0  0  0  0  0  0  0  0
   -2.4376   -0.1372    1.3286 H   0  0  0  0  0  0  0  0  0  0  0  0
   -0.9580    0.8517    1.4868 H   0  0  0  0  0  0  0  0  0  0  0  0
   -0.9411   -0.9603    1.8113 H   0  0  0  0  0  0  0  0  0  0  0  0
  1  2  1  0
  2  3  1  0
  3  4  1  0
  4  5  1  0
  5  6  1  0
  6  7  1  0
  7  8  2  0
  7  9  1  0
  9 10  1  0
  3 11  1  0
  3 12  1  0
 10  4  1  0
  1 13  1  0
  1 14  1  0
  1 15  1  0
  2 16  1  0
  2 17  1  0
  4 18  1  0
  5 19  1  0
  5 20  1  0
  6 21  1  0
  6 22  1  0
  9 23  1  0
  9 24  1  0
 10 25  1  0
 10 26  1  0
 11 27  1  0
 11 28  1  0
 11 29  1  0
 12 30  1  0
 12 31  1  0
 12 32  1  0
M  END
>  <Ligand ID>  (1) 
LIG0000236

>  <Ligand>  (1) 
4-(2-methylbutan-2-yl)cyclohexan-1-one

>  <SMILES>  (1) 
CCC(C1CCC(=O)CC1)(C)C

>  <CID>  (1) 
27941.0

>  <ChEMBL ID>  (1) 
nan

>  <InChiKey>  (1) 
DCSKAMGZSIRJAQ-UHFFFAOYSA-N

>  <InChi>  (1) 
InChI=1S/C11H20O/c1-4-11(2,3)9-5-7-10(12)8-6-9/h9H,4-8H2,1-3H3

>  <IUPAC Name>  (1) 
4-(2-methylbutan-2-yl)cyclohexan-1-one

$$$$
