
     RDKit          3D

 69 73  0  0  0  0  0  0  0  0999 V2000
    4.2267   -0.7953   -2.0033 O   0  0  0  0  0  0  0  0  0  0  0  0
    4.4529   -0.1205   -0.9743 C   0  0  0  0  0  0  0  0  0  0  0  0
    5.8098    0.2243   -0.4848 C   0  0  0  0  0  0  0  0  0  0  0  0
    6.8694   -0.3470   -1.3886 C   0  0  0  0  0  0  0  0  0  0  0  0
    6.7177   -1.7826   -1.4098 N   0  0  0  0  0  0  0  0  0  0  0  0
    6.7618    0.1688   -2.7933 C   0  0  0  0  0  0  0  0  0  0  0  0
    8.2485   -0.0067   -0.8472 C   0  0  0  0  0  0  0  0  0  0  0  0
    3.3322    0.3596   -0.2051 N   0  0  0  0  0  0  0  0  0  0  0  0
    1.9684    0.1009   -0.5636 C   0  0  2  0  0  0  0  0  0  0  0  0
    1.2384    1.3446   -0.9520 C   0  0  0  0  0  0  0  0  0  0  0  0
    1.4591    2.4888   -0.0241 C   0  0  0  0  0  0  0  0  0  0  0  0
    0.7091    2.2746    1.2356 C   0  0  0  0  0  0  0  0  0  0  0  0
    0.2231    1.1471    1.8635 C   0  0  0  0  0  0  0  0  0  0  0  0
    0.2970   -0.2194    1.4743 N   0  0  0  0  0  0  0  0  0  0  0  0
    1.2446   -0.6827    0.4698 C   0  0  0  0  0  0  0  0  0  0  0  0
    1.4555   -1.9391    0.5162 O   0  0  0  0  0  0  0  0  0  0  0  0
   -0.5655   -1.1924    2.0500 C   0  0  0  0  0  0  0  0  0  0  0  0
   -1.8844   -1.3581    1.3697 C   0  0  0  0  0  0  0  0  0  0  0  0
   -3.0117   -0.6365    1.7843 C   0  0  0  0  0  0  0  0  0  0  0  0
   -4.2297   -0.7825    1.1502 C   0  0  0  0  0  0  0  0  0  0  0  0
   -4.3953   -1.6404    0.0842 C   0  0  0  0  0  0  0  0  0  0  0  0
   -3.2962   -2.3592   -0.3376 C   0  0  0  0  0  0  0  0  0  0  0  0
   -2.0873   -2.2028    0.3052 C   0  0  0  0  0  0  0  0  0  0  0  0
   -5.6694   -1.8129   -0.6011 C   0  0  0  0  0  0  0  0  0  0  0  0
   -6.2509   -3.0825   -0.4805 C   0  0  0  0  0  0  0  0  0  0  0  0
   -7.4452   -3.3746   -1.0659 C   0  0  0  0  0  0  0  0  0  0  0  0
   -8.0758   -2.3697   -1.7921 C   0  0  0  0  0  0  0  0  0  0  0  0
   -7.4976   -1.1242   -1.9061 C   0  0  0  0  0  0  0  0  0  0  0  0
   -6.2795   -0.8042   -1.3172 C   0  0  0  0  0  0  0  0  0  0  0  0
   -5.6589    0.4986   -1.4313 C   0  0  0  0  0  0  0  0  0  0  0  0
   -4.5253    0.9993   -0.9682 N   0  0  0  0  0  0  0  0  0  0  0  0
   -4.3850    2.2608   -1.3389 N   0  0  0  0  0  0  0  0  0  0  0  0
   -5.4621    2.5656   -2.0574 N   0  0  0  0  0  0  0  0  0  0  0  0
   -6.2428    1.5164   -2.1250 N   0  0  0  0  0  0  0  0  0  0  0  0
   -0.4386    1.3001    3.0389 C   0  0  0  0  0  0  0  0  0  0  0  0
   -0.6391    2.5243    3.6187 C   0  0  0  0  0  0  0  0  0  0  0  0
   -0.1614    3.6643    3.0076 C   0  0  0  0  0  0  0  0  0  0  0  0
    0.5043    3.5231    1.8276 C   0  0  0  0  0  0  0  0  0  0  0  0
    5.9486   -0.2006    0.5295 H   0  0  0  0  0  0  0  0  0  0  0  0
    5.9382    1.3366   -0.3851 H   0  0  0  0  0  0  0  0  0  0  0  0
    5.9881   -2.1072   -0.7686 H   0  0  0  0  0  0  0  0  0  0  0  0
    6.7173   -2.2062   -2.3484 H   0  0  0  0  0  0  0  0  0  0  0  0
    7.5615    0.9437   -2.9647 H   0  0  0  0  0  0  0  0  0  0  0  0
    5.7815    0.6352   -3.0034 H   0  0  0  0  0  0  0  0  0  0  0  0
    7.0280   -0.6553   -3.4854 H   0  0  0  0  0  0  0  0  0  0  0  0
    8.6503    0.8372   -1.4397 H   0  0  0  0  0  0  0  0  0  0  0  0
    8.1920    0.2782    0.2365 H   0  0  0  0  0  0  0  0  0  0  0  0
    8.9419   -0.8613   -0.9257 H   0  0  0  0  0  0  0  0  0  0  0  0
    3.5237    0.9154    0.6481 H   0  0  0  0  0  0  0  0  0  0  0  0
    1.9973   -0.5403   -1.4935 H   0  0  0  0  0  0  0  0  0  0  0  0
    1.6510    1.6427   -1.9597 H   0  0  0  0  0  0  0  0  0  0  0  0
    0.1520    1.1408   -1.0126 H   0  0  0  0  0  0  0  0  0  0  0  0
    1.1569    3.4662   -0.4572 H   0  0  0  0  0  0  0  0  0  0  0  0
    2.5550    2.6326    0.2098 H   0  0  0  0  0  0  0  0  0  0  0  0
   -0.0705   -2.1917    1.7470 H   0  0  0  0  0  0  0  0  0  0  0  0
   -0.5734   -1.3334    3.1254 H   0  0  0  0  0  0  0  0  0  0  0  0
   -2.9831    0.0556    2.6094 H   0  0  0  0  0  0  0  0  0  0  0  0
   -5.0886   -0.2123    1.4902 H   0  0  0  0  0  0  0  0  0  0  0  0
   -3.4132   -3.0404   -1.1792 H   0  0  0  0  0  0  0  0  0  0  0  0
   -1.2474   -2.7790   -0.0475 H   0  0  0  0  0  0  0  0  0  0  0  0
   -5.7511   -3.8727    0.0927 H   0  0  0  0  0  0  0  0  0  0  0  0
   -7.8806   -4.3497   -0.9667 H   0  0  0  0  0  0  0  0  0  0  0  0
   -9.0287   -2.5348   -2.2827 H   0  0  0  0  0  0  0  0  0  0  0  0
   -8.0196   -0.3537   -2.4851 H   0  0  0  0  0  0  0  0  0  0  0  0
   -3.5953    2.8986   -1.1189 H   0  0  0  0  0  0  0  0  0  0  0  0
   -0.8334    0.4425    3.5527 H   0  0  0  0  0  0  0  0  0  0  0  0
   -1.1601    2.6264    4.5405 H   0  0  0  0  0  0  0  0  0  0  0  0
   -0.3361    4.6240    3.4920 H   0  0  0  0  0  0  0  0  0  0  0  0
    0.8813    4.4349    1.3471 H   0  0  0  0  0  0  0  0  0  0  0  0
  1  2  2  0
  2  3  1  0
  3  4  1  0
  4  5  1  0
  4  6  1  0
  4  7  1  0
  2  8  1  0
  8  9  1  0
  9 10  1  0
 10 11  1  0
 11 12  1  0
 12 13  2  0
 13 14  1  0
 14 15  1  0
 15 16  2  0
 14 17  1  0
 17 18  1  0
 18 19  2  0
 19 20  1  0
 20 21  2  0
 21 22  1  0
 22 23  2  0
 21 24  1  0
 24 25  2  0
 25 26  1  0
 26 27  2  0
 27 28  1  0
 28 29  2  0
 29 30  1  0
 30 31  2  0
 31 32  1  0
 32 33  1  0
 33 34  2  0
 13 35  1  0
 35 36  2  0
 36 37  1  0
 37 38  2  0
 15  9  1  0
 23 18  1  0
 29 24  1  0
 34 30  1  0
 38 12  1  0
  3 39  1  0
  3 40  1  0
  5 41  1  0
  5 42  1  0
  6 43  1  0
  6 44  1  0
  6 45  1  0
  7 46  1  0
  7 47  1  0
  7 48  1  0
  8 49  1  0
  9 50  1  6
 10 51  1  0
 10 52  1  0
 11 53  1  0
 11 54  1  0
 17 55  1  0
 17 56  1  0
 19 57  1  0
 20 58  1  0
 22 59  1  0
 23 60  1  0
 25 61  1  0
 26 62  1  0
 27 63  1  0
 28 64  1  0
 32 65  1  0
 35 66  1  0
 36 67  1  0
 37 68  1  0
 38 69  1  0
M  END
>  <Ligand ID>  (1) 
LIG0003394

>  <Ligand>  (1) 
L-692429

>  <SMILES>  (1) 
O=C(CC(N)(C)C)N[C@@H]1CCc2c(N(C1=O)Cc1ccc(cc1)c1ccccc1c1n[nH]nn1)cccc2

>  <CID>  (1) 
121879.0

>  <ChEMBL ID>  (1) 
nan

>  <InChiKey>  (1) 
SBJLJOFPWOYATP-XMMPIXPASA-N

>  <InChi>  (1) 
InChI=1S/C29H31N7O2/c1-29(2,30)17-26(37)31-24-16-15-21-7-3-6-10-25(21)36(28(24)38)18-19-11-13-20(14-12-19)22-8-4-5-9-23(22)27-32-34-35-33-27/h3-14,24H,15-18,30H2,1-2H3,(H,31,37)(H,32,33,34,35)/t24-/m1/s1

>  <IUPAC Name>  (1) 
3-amino-3-methyl-N-[(3R)-2-oxo-1-[[4-[2-(2H-tetrazol-5-yl)phenyl]phenyl]methyl]-4,5-dihydro-3H-1-benzazepin-3-yl]butanamide

$$$$
