
     RDKit          3D

 24 25  0  0  0  0  0  0  0  0999 V2000
    4.4458   -1.1495    0.5183 Cl  0  0  0  0  0  0  0  0  0  0  0  0
    2.8934   -0.3748    0.2878 C   0  0  0  0  0  0  0  0  0  0  0  0
    2.7122    0.9873    0.3781 C   0  0  0  0  0  0  0  0  0  0  0  0
    1.4726    1.5894    0.1925 C   0  0  0  0  0  0  0  0  0  0  0  0
    0.3966    0.7741   -0.0921 C   0  0  0  0  0  0  0  0  0  0  0  0
    0.5768   -0.5927   -0.1831 C   0  0  0  0  0  0  0  0  0  0  0  0
    1.7963   -1.1943   -0.0013 C   0  0  0  0  0  0  0  0  0  0  0  0
   -0.5336   -1.5594   -0.4884 C   0  0  0  0  0  0  0  0  0  0  0  0
   -1.6170   -1.3746    0.5302 C   0  0  0  0  0  0  0  0  0  0  0  0
   -2.4211   -0.2288    0.3462 N   0  0  0  0  0  0  0  0  0  0  0  0
   -2.0274    0.7531   -0.5790 C   0  0  0  0  0  0  0  0  0  0  0  0
   -0.8412    1.5921   -0.2575 C   0  0  0  0  0  0  0  0  0  0  0  0
    3.6037    1.5877    0.6070 H   0  0  0  0  0  0  0  0  0  0  0  0
    1.3983    2.6664    0.2774 H   0  0  0  0  0  0  0  0  0  0  0  0
    1.8953   -2.2683   -0.0811 H   0  0  0  0  0  0  0  0  0  0  0  0
   -0.1051   -2.5750   -0.3238 H   0  0  0  0  0  0  0  0  0  0  0  0
   -0.9222   -1.4314   -1.5120 H   0  0  0  0  0  0  0  0  0  0  0  0
   -2.2577   -2.2803    0.5130 H   0  0  0  0  0  0  0  0  0  0  0  0
   -1.1047   -1.3281    1.5270 H   0  0  0  0  0  0  0  0  0  0  0  0
   -2.8739    0.1044    1.2100 H   0  0  0  0  0  0  0  0  0  0  0  0
   -2.8956    1.4727   -0.6533 H   0  0  0  0  0  0  0  0  0  0  0  0
   -1.9477    0.3296   -1.6048 H   0  0  0  0  0  0  0  0  0  0  0  0
   -0.6468    2.2109   -1.1769 H   0  0  0  0  0  0  0  0  0  0  0  0
   -0.9969    2.2896    0.5658 H   0  0  0  0  0  0  0  0  0  0  0  0
  1  2  1  0
  2  3  2  0
  3  4  1  0
  4  5  2  0
  5  6  1  0
  6  7  2  0
  6  8  1  0
  8  9  1  0
  9 10  1  0
 10 11  1  0
 11 12  1  0
  7  2  1  0
 12  5  1  0
  3 13  1  0
  4 14  1  0
  7 15  1  0
  8 16  1  0
  8 17  1  0
  9 18  1  0
  9 19  1  0
 10 20  1  0
 11 21  1  0
 11 22  1  0
 12 23  1  0
 12 24  1  0
M  END
>  <Ligand ID>  (1) 
LIG0003236

>  <Ligand>  (1) 
25174-38-3

>  <SMILES>  (1) 
Clc1ccc2c(c1)CCNCC2

>  <CID>  (1) 
17954204.0

>  <ChEMBL ID>  (1) 
nan

>  <InChiKey>  (1) 
ZJIUEDYXZUIMNV-UHFFFAOYSA-N

>  <InChi>  (1) 
InChI=1S/C10H12ClN/c11-10-2-1-8-3-5-12-6-4-9(8)7-10/h1-2,7,12H,3-6H2

>  <IUPAC Name>  (1) 
7-chloro-2,3,4,5-tetrahydro-1H-3-benzazepine

$$$$
