
     RDKit          3D

 12 11  0  0  0  0  0  0  0  0999 V2000
    0.2686   -1.3298   -0.2198 C   0  0  0  0  0  0  0  0  0  0  0  0
    0.4580   -0.0611    0.5799 C   0  0  0  0  0  0  0  0  0  0  0  0
   -0.8129    0.7093    0.5126 C   0  0  0  0  0  0  0  0  0  0  0  0
   -1.4636    0.9994    1.5523 O   0  0  0  0  0  0  0  0  0  0  0  0
   -1.2355    1.0877   -0.7662 O   0  0  0  0  0  0  0  0  0  0  0  0
    1.8922    0.8792    0.0362 S   0  0  0  0  0  0  0  0  0  0  0  0
   -0.6559   -1.2976   -0.8581 H   0  0  0  0  0  0  0  0  0  0  0  0
    0.1378   -2.2194    0.4333 H   0  0  0  0  0  0  0  0  0  0  0  0
    1.1307   -1.4644   -0.9237 H   0  0  0  0  0  0  0  0  0  0  0  0
    0.6693   -0.3827    1.6353 H   0  0  0  0  0  0  0  0  0  0  0  0
   -2.1151    1.6266   -0.7581 H   0  0  0  0  0  0  0  0  0  0  0  0
    1.7264    1.4527   -1.2237 H   0  0  0  0  0  0  0  0  0  0  0  0
  1  2  1  0
  2  3  1  0
  3  4  2  0
  3  5  1  0
  2  6  1  0
  1  7  1  0
  1  8  1  0
  1  9  1  0
  2 10  1  0
  5 11  1  0
  6 12  1  0
M  END
>  <Ligand ID>  (1) 
LIG0001024

>  <Ligand>  (1) 
Thiolactic acid

>  <SMILES>  (1) 
CC(C(=O)O)S

>  <CID>  (1) 
62326.0

>  <ChEMBL ID>  (1) 
nan

>  <InChiKey>  (1) 
PMNLUUOXGOOLSP-UHFFFAOYSA-N

>  <InChi>  (1) 
InChI=1S/C3H6O2S/c1-2(6)3(4)5/h2,6H,1H3,(H,4,5)

>  <IUPAC Name>  (1) 
2-sulfanylpropanoic acid

$$$$
