
     RDKit          3D

 38 40  0  0  0  0  0  0  0  0999 V2000
   -2.1302    2.6926   -0.4291 O   0  0  0  0  0  0  0  0  0  0  0  0
   -1.7195    1.5947   -0.0248 C   0  0  0  0  0  0  0  0  0  0  0  0
   -2.5578    0.6231    0.6014 N   0  0  0  0  0  0  0  0  0  0  0  0
   -3.9636    0.5557    0.9458 C   0  0  0  0  0  0  0  0  0  0  0  0
   -4.5270   -0.7436    0.4201 C   0  0  0  0  0  0  0  0  0  0  0  0
   -3.5861   -1.4136   -0.3854 N   0  0  0  0  0  0  0  0  0  0  0  0
   -2.3127   -1.6840    0.1288 C   0  0  0  0  0  0  0  0  0  0  0  0
   -1.7357   -0.5248    0.9365 C   0  0  1  0  0  0  0  0  0  0  0  0
   -0.3677   -0.1768    0.4738 C   0  0  0  0  0  0  0  0  0  0  0  0
   -0.3603    1.0729   -0.0925 C   0  0  0  0  0  0  0  0  0  0  0  0
    0.8170    1.5911   -0.5895 C   0  0  0  0  0  0  0  0  0  0  0  0
    1.9748    0.8573   -0.5164 C   0  0  0  0  0  0  0  0  0  0  0  0
    1.9573   -0.4006    0.0558 C   0  0  0  0  0  0  0  0  0  0  0  0
    0.7816   -0.9305    0.5577 C   0  0  0  0  0  0  0  0  0  0  0  0
    3.2504   -1.1324    0.0978 C   0  0  0  0  0  0  0  0  0  0  0  0
    4.2312   -0.2844    0.9073 C   0  0  0  0  0  0  0  0  0  0  0  0
    3.7514   -1.2995   -1.3226 C   0  0  0  0  0  0  0  0  0  0  0  0
    0.7507    2.9520   -1.1895 C   0  0  0  0  0  0  0  0  0  0  0  0
   -0.1324    2.9517   -2.2552 F   0  0  0  0  0  0  0  0  0  0  0  0
    0.3481    3.8574   -0.2371 F   0  0  0  0  0  0  0  0  0  0  0  0
    1.9880    3.3604   -1.6538 F   0  0  0  0  0  0  0  0  0  0  0  0
   -4.5116    1.4499    0.6282 H   0  0  0  0  0  0  0  0  0  0  0  0
   -3.9982    0.5709    2.0716 H   0  0  0  0  0  0  0  0  0  0  0  0
   -5.4171   -0.4918   -0.1605 H   0  0  0  0  0  0  0  0  0  0  0  0
   -4.8366   -1.3633    1.2713 H   0  0  0  0  0  0  0  0  0  0  0  0
   -3.8420   -1.6722   -1.3321 H   0  0  0  0  0  0  0  0  0  0  0  0
   -2.2537   -2.5855    0.7636 H   0  0  0  0  0  0  0  0  0  0  0  0
   -1.6166   -1.8504   -0.7417 H   0  0  0  0  0  0  0  0  0  0  0  0
   -1.7539   -0.7038    2.0173 H   0  0  0  0  0  0  0  0  0  0  0  0
    2.8741    1.3117   -0.9225 H   0  0  0  0  0  0  0  0  0  0  0  0
    0.8345   -1.9063    0.9868 H   0  0  0  0  0  0  0  0  0  0  0  0
    3.1042   -2.1179    0.5760 H   0  0  0  0  0  0  0  0  0  0  0  0
    3.7033    0.5236    1.4306 H   0  0  0  0  0  0  0  0  0  0  0  0
    4.9992    0.1719    0.2560 H   0  0  0  0  0  0  0  0  0  0  0  0
    4.6898   -0.9356    1.6851 H   0  0  0  0  0  0  0  0  0  0  0  0
    2.8529   -1.4863   -1.9519 H   0  0  0  0  0  0  0  0  0  0  0  0
    4.2313   -0.3175   -1.5898 H   0  0  0  0  0  0  0  0  0  0  0  0
    4.4828   -2.1160   -1.4169 H   0  0  0  0  0  0  0  0  0  0  0  0
  1  2  2  0
  2  3  1  0
  3  4  1  0
  4  5  1  0
  5  6  1  0
  6  7  1  0
  7  8  1  0
  8  9  1  0
  9 10  2  0
 10 11  1  0
 11 12  2  0
 12 13  1  0
 13 14  2  0
 13 15  1  0
 15 16  1  0
 15 17  1  0
 11 18  1  0
 18 19  1  0
 18 20  1  0
 18 21  1  0
 10  2  1  0
  8  3  1  0
 14  9  1  0
  4 22  1  0
  4 23  1  0
  5 24  1  0
  5 25  1  0
  6 26  1  0
  7 27  1  0
  7 28  1  0
  8 29  1  1
 12 30  1  0
 14 31  1  0
 15 32  1  0
 16 33  1  0
 16 34  1  0
 16 35  1  0
 17 36  1  0
 17 37  1  0
 17 38  1  0
M  END
>  <Ligand ID>  (1) 
LIG0003455

>  <Ligand>  (1) 
CHEMBL373695

>  <SMILES>  (1) 
O=C1N2CCNC[C@H]2c2c1c(cc(c2)C(C)C)C(F)(F)F

>  <CID>  (1) 
11175045.0

>  <ChEMBL ID>  (1) 
nan

>  <InChiKey>  (1) 
XZWBTHWEZHVQCP-LBPRGKRZSA-N

>  <InChi>  (1) 
InChI=1S/C15H17F3N2O/c1-8(2)9-5-10-12-7-19-3-4-20(12)14(21)13(10)11(6-9)15(16,17)18/h5-6,8,12,19H,3-4,7H2,1-2H3/t12-/m0/s1

>  <IUPAC Name>  (1) 
(10bR)-9-propan-2-yl-7-(trifluoromethyl)-2,3,4,10b-tetrahydro-1H-pyrazino[1,2-b]isoindol-6-one

$$$$
