
     RDKit          3D

 79 80  0  0  0  0  0  0  0  0999 V2000
  -10.0321    1.4858   -2.9203 O   0  0  0  0  0  0  0  0  0  0  0  0
   -9.0637    2.0942   -2.0993 C   0  0  0  0  0  0  0  0  0  0  0  0
   -9.0678    1.3497   -0.8075 C   0  0  0  0  0  0  0  0  0  0  0  0
   -8.0361    0.4420   -0.5363 C   0  0  0  0  0  0  0  0  0  0  0  0
   -8.0048   -0.2646    0.6404 C   0  0  0  0  0  0  0  0  0  0  0  0
   -9.0352   -0.0552    1.5698 C   0  0  0  0  0  0  0  0  0  0  0  0
  -10.0455    0.8331    1.3057 C   0  0  0  0  0  0  0  0  0  0  0  0
  -10.0545    1.5221    0.1307 C   0  0  0  0  0  0  0  0  0  0  0  0
  -11.0747    2.4353   -0.1643 O   0  0  0  0  0  0  0  0  0  0  0  0
   -6.9757   -1.2393    1.0229 C   0  0  2  0  0  0  0  0  0  0  0  0
   -6.1041   -1.7215   -0.1134 C   0  0  0  0  0  0  0  0  0  0  0  0
   -5.2336   -2.7045    0.3928 N   0  0  0  0  0  0  0  0  0  0  0  0
   -4.2149   -2.4502    1.2955 C   0  0  0  0  0  0  0  0  0  0  0  0
   -2.9872   -1.7184    0.9347 C   0  0  0  0  0  0  0  0  0  0  0  0
   -3.0436   -0.3266    0.4713 C   0  0  0  0  0  0  0  0  0  0  0  0
   -1.5960    0.1524    0.2044 C   0  0  0  0  0  0  0  0  0  0  0  0
   -0.8963   -0.6531   -0.8257 C   0  0  0  0  0  0  0  0  0  0  0  0
    0.5114   -0.0925   -1.0435 C   0  0  0  0  0  0  0  0  0  0  0  0
    1.2168   -0.1380    0.1309 O   0  0  0  0  0  0  0  0  0  0  0  0
    2.5593    0.2683   -0.0027 C   0  0  0  0  0  0  0  0  0  0  0  0
    2.6942    1.6479   -0.4758 C   0  0  0  0  0  0  0  0  0  0  0  0
    3.9967    2.3067   -0.5967 C   0  0  0  0  0  0  0  0  0  0  0  0
    5.0821    1.8761   -1.4722 C   0  0  0  0  0  0  0  0  0  0  0  0
    5.6375    0.5573   -1.1916 C   0  0  0  0  0  0  0  0  0  0  0  0
    5.3557   -0.6200   -1.8327 C   0  0  0  0  0  0  0  0  0  0  0  0
    5.9448   -1.8273   -1.4920 C   0  0  0  0  0  0  0  0  0  0  0  0
    6.8635   -1.8973   -0.4668 C   0  0  0  0  0  0  0  0  0  0  0  0
    7.1669   -0.7269    0.1965 C   0  0  0  0  0  0  0  0  0  0  0  0
    6.5736    0.4705   -0.1515 C   0  0  0  0  0  0  0  0  0  0  0  0
    8.1086   -0.6707    1.2750 N   0  0  0  0  0  0  0  0  0  0  0  0
    9.4689   -0.4286    0.8920 C   0  0  0  0  0  0  0  0  0  0  0  0
    9.7024   -0.2948   -0.3593 O   0  0  0  0  0  0  0  0  0  0  0  0
   10.5247   -0.3341    1.8108 N   0  0  0  0  0  0  0  0  0  0  0  0
   11.8646   -0.0815    1.2804 C   0  0  0  0  0  0  0  0  0  0  0  0
   11.8459    1.2124    0.5476 C   0  0  0  0  0  0  0  0  0  0  0  0
   12.9473    1.5670    0.0168 O   0  0  0  0  0  0  0  0  0  0  0  0
   10.7001    2.0013    0.4395 O   0  0  0  0  0  0  0  0  0  0  0  0
   -7.6904   -2.3505    1.5384 O   0  0  0  0  0  0  0  0  0  0  0  0
  -10.5822    0.8143   -2.4170 H   0  0  0  0  0  0  0  0  0  0  0  0
   -8.0564    2.0877   -2.5603 H   0  0  0  0  0  0  0  0  0  0  0  0
   -9.4112    3.1250   -1.8800 H   0  0  0  0  0  0  0  0  0  0  0  0
   -7.2568    0.2901   -1.2518 H   0  0  0  0  0  0  0  0  0  0  0  0
   -9.0357   -0.6087    2.5208 H   0  0  0  0  0  0  0  0  0  0  0  0
  -10.8169    0.9525    2.0659 H   0  0  0  0  0  0  0  0  0  0  0  0
  -11.6115    2.8006    0.6158 H   0  0  0  0  0  0  0  0  0  0  0  0
   -6.3963   -0.8332    1.8702 H   0  0  0  0  0  0  0  0  0  0  0  0
   -5.7219   -0.9465   -0.7646 H   0  0  0  0  0  0  0  0  0  0  0  0
   -6.8309   -2.2953   -0.7997 H   0  0  0  0  0  0  0  0  0  0  0  0
   -5.2772   -3.6322   -0.0824 H   0  0  0  0  0  0  0  0  0  0  0  0
   -4.5720   -1.9958    2.2742 H   0  0  0  0  0  0  0  0  0  0  0  0
   -3.8505   -3.4728    1.6740 H   0  0  0  0  0  0  0  0  0  0  0  0
   -2.4432   -2.3744    0.1804 H   0  0  0  0  0  0  0  0  0  0  0  0
   -2.2979   -1.7979    1.8392 H   0  0  0  0  0  0  0  0  0  0  0  0
   -3.6801   -0.0694   -0.3648 H   0  0  0  0  0  0  0  0  0  0  0  0
   -3.4101    0.3152    1.3307 H   0  0  0  0  0  0  0  0  0  0  0  0
   -1.5900    1.2203   -0.0432 H   0  0  0  0  0  0  0  0  0  0  0  0
   -1.0062    0.0665    1.1589 H   0  0  0  0  0  0  0  0  0  0  0  0
   -0.7211   -1.7169   -0.5349 H   0  0  0  0  0  0  0  0  0  0  0  0
   -1.3997   -0.6860   -1.8016 H   0  0  0  0  0  0  0  0  0  0  0  0
    0.3840    0.9590   -1.3982 H   0  0  0  0  0  0  0  0  0  0  0  0
    1.0644   -0.6820   -1.8072 H   0  0  0  0  0  0  0  0  0  0  0  0
    3.0976    0.1216    0.9656 H   0  0  0  0  0  0  0  0  0  0  0  0
    2.9533   -0.4845   -0.7372 H   0  0  0  0  0  0  0  0  0  0  0  0
    2.1090    1.7443   -1.4468 H   0  0  0  0  0  0  0  0  0  0  0  0
    2.0754    2.3008    0.2315 H   0  0  0  0  0  0  0  0  0  0  0  0
    4.3739    2.4838    0.4703 H   0  0  0  0  0  0  0  0  0  0  0  0
    3.7536    3.3991   -0.9006 H   0  0  0  0  0  0  0  0  0  0  0  0
    5.9039    2.6571   -1.5479 H   0  0  0  0  0  0  0  0  0  0  0  0
    4.6945    1.8132   -2.5448 H   0  0  0  0  0  0  0  0  0  0  0  0
    4.6283   -0.5687   -2.6463 H   0  0  0  0  0  0  0  0  0  0  0  0
    5.6572   -2.7163   -2.0613 H   0  0  0  0  0  0  0  0  0  0  0  0
    7.3319   -2.8211   -0.1858 H   0  0  0  0  0  0  0  0  0  0  0  0
    6.8345    1.3705    0.3910 H   0  0  0  0  0  0  0  0  0  0  0  0
    7.8651   -0.7893    2.2699 H   0  0  0  0  0  0  0  0  0  0  0  0
   10.3302   -0.4434    2.8297 H   0  0  0  0  0  0  0  0  0  0  0  0
   12.5969   -0.0954    2.1072 H   0  0  0  0  0  0  0  0  0  0  0  0
   12.0386   -0.9134    0.5500 H   0  0  0  0  0  0  0  0  0  0  0  0
   10.6432    2.6492   -0.3120 H   0  0  0  0  0  0  0  0  0  0  0  0
   -7.9763   -2.8541    0.7103 H   0  0  0  0  0  0  0  0  0  0  0  0
  1  2  1  0
  2  3  1  0
  3  4  2  0
  4  5  1  0
  5  6  2  0
  6  7  1  0
  7  8  2  0
  8  9  1  0
  5 10  1  0
 10 11  1  0
 11 12  1  0
 12 13  1  0
 13 14  1  0
 14 15  1  0
 15 16  1  0
 16 17  1  0
 17 18  1  0
 18 19  1  0
 19 20  1  0
 20 21  1  0
 21 22  1  0
 22 23  1  0
 23 24  1  0
 24 25  2  0
 25 26  1  0
 26 27  2  0
 27 28  1  0
 28 29  2  0
 28 30  1  0
 30 31  1  0
 31 32  2  0
 31 33  1  0
 33 34  1  0
 34 35  1  0
 35 36  2  0
 35 37  1  0
 10 38  1  0
  8  3  1  0
 29 24  1  0
  1 39  1  0
  2 40  1  0
  2 41  1  0
  4 42  1  0
  6 43  1  0
  7 44  1  0
  9 45  1  0
 10 46  1  1
 11 47  1  0
 11 48  1  0
 12 49  1  0
 13 50  1  0
 13 51  1  0
 14 52  1  0
 14 53  1  0
 15 54  1  0
 15 55  1  0
 16 56  1  0
 16 57  1  0
 17 58  1  0
 17 59  1  0
 18 60  1  0
 18 61  1  0
 20 62  1  0
 20 63  1  0
 21 64  1  0
 21 65  1  0
 22 66  1  0
 22 67  1  0
 23 68  1  0
 23 69  1  0
 25 70  1  0
 26 71  1  0
 27 72  1  0
 29 73  1  0
 30 74  1  0
 33 75  1  0
 34 76  1  0
 34 77  1  0
 37 78  1  0
 38 79  1  0
M  END
>  <Ligand ID>  (1) 
LIG0001232

>  <Ligand>  (1) 
CHEMBL1814279

>  <SMILES>  (1) 
OCc1cc(ccc1O)[C@H](CNCCCCCCOCCCCc1cccc(c1)NC(=O)NCC(=O)O)O

>  <CID>  (1) 
53357711.0

>  <ChEMBL ID>  (1) 
nan

>  <InChiKey>  (1) 
GUDHUVPJKZWKRO-SANMLTNESA-N

>  <InChi>  (1) 
InChI=1S/C28H41N3O7/c32-20-23-17-22(11-12-25(23)33)26(34)18-29-13-4-1-2-5-14-38-15-6-3-8-21-9-7-10-24(16-21)31-28(37)30-19-27(35)36/h7,9-12,16-17,26,29,32-34H,1-6,8,13-15,18-20H2,(H,35,36)(H2,30,31,37)/t26-/m0/s1

>  <IUPAC Name>  (1) 
2-[[3-[4-[6-[[(2R)-2-hydroxy-2-[4-hydroxy-3-(hydroxymethyl)phenyl]ethyl]amino]hexoxy]butyl]phenyl]carbamoylamino]acetic acid

$$$$
