
     RDKit          3D

 18 19  0  0  0  0  0  0  0  0999 V2000
    3.3430   -1.8290   -0.1662 O   0  0  0  0  0  0  0  0  0  0  0  0
    2.2988   -1.1294   -0.1327 C   0  0  0  0  0  0  0  0  0  0  0  0
    2.3904    0.2460   -0.1759 C   0  0  0  0  0  0  0  0  0  0  0  0
    1.2560    1.0300   -0.1402 C   0  0  0  0  0  0  0  0  0  0  0  0
    1.2840    2.4168   -0.1805 O   0  0  0  0  0  0  0  0  0  0  0  0
    0.0221    0.4178   -0.0604 C   0  0  0  0  0  0  0  0  0  0  0  0
   -0.0006   -0.9681   -0.0204 C   0  0  0  0  0  0  0  0  0  0  0  0
    1.1084   -1.6609   -0.0574 O   0  0  0  0  0  0  0  0  0  0  0  0
   -1.1968   -1.6797    0.0603 C   0  0  0  0  0  0  0  0  0  0  0  0
   -2.3682   -0.9590    0.0997 C   0  0  0  0  0  0  0  0  0  0  0  0
   -2.3652    0.4214    0.0609 C   0  0  0  0  0  0  0  0  0  0  0  0
   -1.1649    1.1245   -0.0198 C   0  0  0  0  0  0  0  0  0  0  0  0
    3.3343    0.7607   -0.2383 H   0  0  0  0  0  0  0  0  0  0  0  0
    1.0275    2.8950    0.6749 H   0  0  0  0  0  0  0  0  0  0  0  0
   -1.2313   -2.7592    0.0923 H   0  0  0  0  0  0  0  0  0  0  0  0
   -3.3054   -1.5184    0.1630 H   0  0  0  0  0  0  0  0  0  0  0  0
   -3.3095    0.9877    0.0930 H   0  0  0  0  0  0  0  0  0  0  0  0
   -1.1226    2.2038   -0.0522 H   0  0  0  0  0  0  0  0  0  0  0  0
  1  2  2  0
  2  3  1  0
  3  4  2  0
  4  5  1  0
  4  6  1  0
  6  7  2  0
  7  8  1  0
  7  9  1  0
  9 10  2  0
 10 11  1  0
 11 12  2  0
  8  2  1  0
 12  6  1  0
  3 13  1  0
  5 14  1  0
  9 15  1  0
 10 16  1  0
 11 17  1  0
 12 18  1  0
M  END
>  <Ligand ID>  (1) 
LIG0000111

>  <Ligand>  (1) 
4-Hydroxycoumarins

>  <SMILES>  (1) 
O=c1cc(O)c2c(o1)cccc2

>  <CID>  (1) 
54682930.0

>  <ChEMBL ID>  (1) 
nan

>  <InChiKey>  (1) 
VXIXUWQIVKSKSA-UHFFFAOYSA-N

>  <InChi>  (1) 
InChI=1S/C9H6O3/c10-7-5-9(11)12-8-4-2-1-3-6(7)8/h1-5,10H

>  <IUPAC Name>  (1) 
4-hydroxychromen-2-one

$$$$
