
     RDKit          3D

 85 88  0  0  0  0  0  0  0  0999 V2000
    5.0561    2.0590   -1.7055 C   0  0  0  0  0  0  0  0  0  0  0  0
    4.4200    1.5837   -0.4793 N   0  0  0  0  0  0  0  0  0  0  0  0
    3.1107    1.0165   -0.6266 C   0  0  0  0  0  0  0  0  0  0  0  0
    2.5853    0.9653   -1.7728 O   0  0  0  0  0  0  0  0  0  0  0  0
    2.3764    0.4917    0.5873 C   0  0  1  0  0  0  0  0  0  0  0  0
    0.9899    0.4626    0.1573 N   0  0  0  0  0  0  0  0  0  0  0  0
    0.4677   -0.4012   -0.8705 C   0  0  0  0  0  0  0  0  0  0  0  0
   -0.8848   -0.9161   -0.4167 C   0  0  0  0  0  0  0  0  0  0  0  0
   -1.8350    0.1752   -0.1134 N   0  0  0  0  0  0  0  0  0  0  0  0
   -1.2250    1.4996   -0.1022 C   0  0  2  0  0  0  0  0  0  0  0  0
   -0.0006    1.3423    0.7567 C   0  0  0  0  0  0  0  0  0  0  0  0
    0.1795    1.8837    1.8552 O   0  0  0  0  0  0  0  0  0  0  0  0
   -2.0510    2.6357    0.3012 C   0  0  0  0  0  0  0  0  0  0  0  0
   -1.1906    3.9062    0.2251 C   0  0  0  0  0  0  0  0  0  0  0  0
   -1.9967    5.1177    0.6151 C   0  0  0  0  0  0  0  0  0  0  0  0
   -3.1314    5.3140   -0.2615 N   0  0  0  0  0  0  0  0  0  0  0  0
   -2.9948    5.8587   -1.4182 C   0  0  0  0  0  0  0  0  0  0  0  0
   -4.1816    6.0044   -2.2066 N   0  0  0  0  0  0  0  0  0  0  0  0
   -1.7173    6.2981   -1.8924 N   0  0  0  0  0  0  0  0  0  0  0  0
   -3.1896   -0.0646    0.1809 C   0  0  0  0  0  0  0  0  0  0  0  0
   -3.9259    0.9880    0.3147 O   0  0  0  0  0  0  0  0  0  0  0  0
   -3.8846   -1.3327    0.3592 C   0  0  1  0  0  0  0  0  0  0  0  0
   -4.9351   -1.4542   -0.7422 C   0  0  0  0  0  0  0  0  0  0  0  0
   -5.7126   -2.6955   -0.6697 C   0  0  0  0  0  0  0  0  0  0  0  0
   -5.2632   -3.8296   -1.3260 C   0  0  0  0  0  0  0  0  0  0  0  0
   -5.9703   -5.0284   -1.2931 C   0  0  0  0  0  0  0  0  0  0  0  0
   -7.1661   -5.1186   -0.5854 C   0  0  0  0  0  0  0  0  0  0  0  0
   -7.5982   -3.9831    0.0623 C   0  0  0  0  0  0  0  0  0  0  0  0
   -6.9023   -2.7877    0.0330 C   0  0  0  0  0  0  0  0  0  0  0  0
   -7.8586   -6.2756   -0.5394 F   0  0  0  0  0  0  0  0  0  0  0  0
   -3.1077   -2.5191    0.4723 N   0  0  0  0  0  0  0  0  0  0  0  0
   -3.0510   -3.1501    1.7708 C   0  0  0  0  0  0  0  0  0  0  0  0
   -3.6724   -2.6622    2.7599 O   0  0  0  0  0  0  0  0  0  0  0  0
   -2.2739   -4.3878    2.0245 C   0  0  0  0  0  0  0  0  0  0  0  0
    2.8359   -0.8736    0.9604 C   0  0  0  0  0  0  0  0  0  0  0  0
    4.2927   -0.8501    1.2381 C   0  0  0  0  0  0  0  0  0  0  0  0
    4.8628   -0.5990    2.4449 C   0  0  0  0  0  0  0  0  0  0  0  0
    6.2566   -0.6155    2.5844 C   0  0  0  0  0  0  0  0  0  0  0  0
    7.0551   -0.8938    1.4666 C   0  0  0  0  0  0  0  0  0  0  0  0
    6.4868   -1.1499    0.2387 C   0  0  0  0  0  0  0  0  0  0  0  0
    5.1142   -1.1239    0.1436 C   0  0  0  0  0  0  0  0  0  0  0  0
    7.2437   -1.4219   -0.8665 C   0  0  0  0  0  0  0  0  0  0  0  0
    8.6226   -1.4466   -0.7746 C   0  0  0  0  0  0  0  0  0  0  0  0
    9.1742   -1.1877    0.4569 C   0  0  0  0  0  0  0  0  0  0  0  0
    8.4459   -0.9115    1.5861 C   0  0  0  0  0  0  0  0  0  0  0  0
    5.1016    1.2236   -2.4079 H   0  0  0  0  0  0  0  0  0  0  0  0
    4.4413    2.8789   -2.1394 H   0  0  0  0  0  0  0  0  0  0  0  0
    6.0848    2.4009   -1.4220 H   0  0  0  0  0  0  0  0  0  0  0  0
    4.8950    1.6685    0.4523 H   0  0  0  0  0  0  0  0  0  0  0  0
    2.5228    1.2018    1.3748 H   0  0  0  0  0  0  0  0  0  0  0  0
    0.3130    0.2038   -1.7936 H   0  0  0  0  0  0  0  0  0  0  0  0
    1.0832   -1.3009   -1.0777 H   0  0  0  0  0  0  0  0  0  0  0  0
   -1.2569   -1.4959   -1.2950 H   0  0  0  0  0  0  0  0  0  0  0  0
   -0.7327   -1.5020    0.4982 H   0  0  0  0  0  0  0  0  0  0  0  0
   -0.9143    1.6767   -1.1733 H   0  0  0  0  0  0  0  0  0  0  0  0
   -2.8384    2.7948   -0.5061 H   0  0  0  0  0  0  0  0  0  0  0  0
   -2.5836    2.5838    1.2616 H   0  0  0  0  0  0  0  0  0  0  0  0
   -0.7947    4.0460   -0.7993 H   0  0  0  0  0  0  0  0  0  0  0  0
   -0.3133    3.8767    0.8856 H   0  0  0  0  0  0  0  0  0  0  0  0
   -2.3442    4.9810    1.6724 H   0  0  0  0  0  0  0  0  0  0  0  0
   -1.3956    6.0431    0.5967 H   0  0  0  0  0  0  0  0  0  0  0  0
   -4.8219    6.8303   -2.0395 H   0  0  0  0  0  0  0  0  0  0  0  0
   -4.4505    5.3261   -2.9508 H   0  0  0  0  0  0  0  0  0  0  0  0
   -1.4254    6.0127   -2.8695 H   0  0  0  0  0  0  0  0  0  0  0  0
   -1.0995    6.8821   -1.2819 H   0  0  0  0  0  0  0  0  0  0  0  0
   -4.4848   -1.2105    1.3204 H   0  0  0  0  0  0  0  0  0  0  0  0
   -5.5978   -0.5736   -0.7969 H   0  0  0  0  0  0  0  0  0  0  0  0
   -4.3541   -1.4866   -1.7067 H   0  0  0  0  0  0  0  0  0  0  0  0
   -4.3208   -3.8142   -1.8955 H   0  0  0  0  0  0  0  0  0  0  0  0
   -5.5860   -5.8921   -1.8216 H   0  0  0  0  0  0  0  0  0  0  0  0
   -8.5296   -3.9906    0.6383 H   0  0  0  0  0  0  0  0  0  0  0  0
   -7.2936   -1.9341    0.5536 H   0  0  0  0  0  0  0  0  0  0  0  0
   -2.5762   -3.0091   -0.2668 H   0  0  0  0  0  0  0  0  0  0  0  0
   -1.4518   -4.5349    1.3223 H   0  0  0  0  0  0  0  0  0  0  0  0
   -1.8172   -4.3505    3.0526 H   0  0  0  0  0  0  0  0  0  0  0  0
   -2.9205   -5.2907    2.0072 H   0  0  0  0  0  0  0  0  0  0  0  0
    2.5725   -1.6125    0.1866 H   0  0  0  0  0  0  0  0  0  0  0  0
    2.2775   -1.2303    1.8806 H   0  0  0  0  0  0  0  0  0  0  0  0
    4.2128   -0.3879    3.2923 H   0  0  0  0  0  0  0  0  0  0  0  0
    6.7179   -0.4166    3.5514 H   0  0  0  0  0  0  0  0  0  0  0  0
    4.6852   -1.3280   -0.8304 H   0  0  0  0  0  0  0  0  0  0  0  0
    6.7486   -1.6186   -1.8084 H   0  0  0  0  0  0  0  0  0  0  0  0
    9.1893   -1.6601   -1.6648 H   0  0  0  0  0  0  0  0  0  0  0  0
   10.2680   -1.2016    0.5418 H   0  0  0  0  0  0  0  0  0  0  0  0
    8.9343   -0.7121    2.5257 H   0  0  0  0  0  0  0  0  0  0  0  0
  1  2  1  0
  2  3  1  0
  3  4  2  0
  3  5  1  0
  5  6  1  0
  6  7  1  0
  7  8  1  0
  8  9  1  0
  9 10  1  0
 10 11  1  0
 11 12  2  0
 10 13  1  0
 13 14  1  0
 14 15  1  0
 15 16  1  0
 16 17  2  3
 17 18  1  0
 17 19  1  0
  9 20  1  0
 20 21  2  0
 20 22  1  0
 22 23  1  0
 23 24  1  0
 24 25  2  0
 25 26  1  0
 26 27  2  0
 27 28  1  0
 28 29  2  0
 27 30  1  0
 22 31  1  0
 31 32  1  0
 32 33  2  0
 32 34  1  0
  5 35  1  0
 35 36  1  0
 36 37  2  0
 37 38  1  0
 38 39  2  0
 39 40  1  0
 40 41  2  0
 40 42  1  0
 42 43  2  0
 43 44  1  0
 44 45  2  0
 11  6  1  0
 29 24  1  0
 41 36  1  0
 45 39  1  0
  1 46  1  0
  1 47  1  0
  1 48  1  0
  2 49  1  0
  5 50  1  1
  7 51  1  0
  7 52  1  0
  8 53  1  0
  8 54  1  0
 10 55  1  6
 13 56  1  0
 13 57  1  0
 14 58  1  0
 14 59  1  0
 15 60  1  0
 15 61  1  0
 18 62  1  0
 18 63  1  0
 19 64  1  0
 19 65  1  0
 22 66  1  1
 23 67  1  0
 23 68  1  0
 25 69  1  0
 26 70  1  0
 28 71  1  0
 29 72  1  0
 31 73  1  0
 34 74  1  0
 34 75  1  0
 34 76  1  0
 35 77  1  0
 35 78  1  0
 37 79  1  0
 38 80  1  0
 41 81  1  0
 42 82  1  0
 43 83  1  0
 44 84  1  0
 45 85  1  0
M  END
>  <Ligand ID>  (1) 
LIG0003315

>  <Ligand>  (1) 
CHEMBL384176

>  <SMILES>  (1) 
CNC(=O)[C@@H](N1CCN([C@H](C1=O)CCCN=C(N)N)C(=O)[C@@H](Cc1ccc(cc1)F)NC(=O)C)Cc1ccc2c(c1)cccc2

>  <CID>  (1) 
44416106.0

>  <ChEMBL ID>  (1) 
nan

>  <InChiKey>  (1) 
YZQBDVJPOXNSJR-ULNSLHSMSA-N

>  <InChi>  (1) 
InChI=1S/C33H40FN7O4/c1-21(42)39-27(19-22-10-13-26(34)14-11-22)31(44)40-16-17-41(32(45)28(40)8-5-15-38-33(35)36)29(30(43)37-2)20-23-9-12-24-6-3-4-7-25(24)18-23/h3-4,6-7,9-14,18,27-29H,5,8,15-17,19-20H2,1-2H3,(H,37,43)(H,39,42)(H4,35,36,38)/t27-,28+,29+/m1/s1

>  <IUPAC Name>  (1) 
(2S)-2-[(3S)-4-[(2R)-2-acetamido-3-(4-fluorophenyl)propanoyl]-3-[3-(diaminomethylideneamino)propyl]-2-oxopiperazin-1-yl]-N-methyl-3-naphthalen-2-ylpropanamide

$$$$
