
     RDKit          3D

 45 45  0  0  0  0  0  0  0  0999 V2000
   -2.6818   -0.5965   -3.5008 C   0  0  0  0  0  0  0  0  0  0  0  0
   -3.4967   -0.4361   -2.3377 O   0  0  0  0  0  0  0  0  0  0  0  0
   -2.9193   -0.5296   -1.0787 C   0  0  0  0  0  0  0  0  0  0  0  0
   -1.5580   -0.7775   -0.9528 C   0  0  0  0  0  0  0  0  0  0  0  0
   -0.9390   -0.8787    0.2835 C   0  0  0  0  0  0  0  0  0  0  0  0
   -1.7306   -0.7229    1.4032 C   0  0  0  0  0  0  0  0  0  0  0  0
   -3.0815   -0.4770    1.2636 C   0  0  0  0  0  0  0  0  0  0  0  0
   -3.7128   -0.3735    0.0434 C   0  0  0  0  0  0  0  0  0  0  0  0
   -5.0445   -0.1326   -0.1413 O   0  0  0  0  0  0  0  0  0  0  0  0
   -6.0336    0.0477    0.8175 C   0  0  0  0  0  0  0  0  0  0  0  0
   -6.2017   -1.1281    1.6856 C   0  0  0  0  0  0  0  0  0  0  0  0
   -5.5737   -2.1968    1.5992 O   0  0  0  0  0  0  0  0  0  0  0  0
   -7.1564   -1.0373    2.7037 O   0  0  0  0  0  0  0  0  0  0  0  0
    0.5163   -1.1441    0.4003 C   0  0  0  0  0  0  0  0  0  0  0  0
    1.4898    0.3083    0.8092 P   0  0  0  0  0  0  0  0  0  0  0  0
    2.0898    0.1974    2.2063 O   0  0  0  0  0  0  0  0  0  0  0  0
    2.9192    0.4801   -0.3322 C   0  0  0  0  0  0  0  0  0  0  0  0
    3.9293    1.3332    0.3913 C   0  0  0  0  0  0  0  0  0  0  0  0
    5.1847    1.6017   -0.3873 C   0  0  2  0  0  0  0  0  0  0  0  0
    5.8792    0.3481   -0.7200 C   0  0  0  0  0  0  0  0  0  0  0  0
    5.4202   -0.5723   -1.4309 O   0  0  0  0  0  0  0  0  0  0  0  0
    7.1661    0.1494   -0.2060 O   0  0  0  0  0  0  0  0  0  0  0  0
    6.0337    2.4787    0.4195 N   0  0  0  0  0  0  0  0  0  0  0  0
    0.5992    1.7358    0.7908 O   0  0  0  0  0  0  0  0  0  0  0  0
    0.7887   -2.1164    1.3638 O   0  0  0  0  0  0  0  0  0  0  0  0
   -2.0372   -1.4957   -3.4030 H   0  0  0  0  0  0  0  0  0  0  0  0
   -1.9969    0.2760   -3.5690 H   0  0  0  0  0  0  0  0  0  0  0  0
   -3.2815   -0.5854   -4.4125 H   0  0  0  0  0  0  0  0  0  0  0  0
   -0.9052   -0.9052   -1.8122 H   0  0  0  0  0  0  0  0  0  0  0  0
   -1.2501   -0.8013    2.3823 H   0  0  0  0  0  0  0  0  0  0  0  0
   -3.6544   -0.3579    2.1717 H   0  0  0  0  0  0  0  0  0  0  0  0
   -5.7461    0.9443    1.4148 H   0  0  0  0  0  0  0  0  0  0  0  0
   -6.9902    0.3037    0.3286 H   0  0  0  0  0  0  0  0  0  0  0  0
   -7.5734   -1.8890    3.0838 H   0  0  0  0  0  0  0  0  0  0  0  0
    0.8548   -1.5854   -0.5661 H   0  0  0  0  0  0  0  0  0  0  0  0
    3.2919   -0.5349   -0.5499 H   0  0  0  0  0  0  0  0  0  0  0  0
    2.5682    0.9610   -1.2544 H   0  0  0  0  0  0  0  0  0  0  0  0
    4.2447    0.8515    1.3399 H   0  0  0  0  0  0  0  0  0  0  0  0
    3.4451    2.3104    0.6352 H   0  0  0  0  0  0  0  0  0  0  0  0
    4.9693    2.1673   -1.3210 H   0  0  0  0  0  0  0  0  0  0  0  0
    7.5880   -0.7875   -0.2041 H   0  0  0  0  0  0  0  0  0  0  0  0
    7.0348    2.1990    0.3619 H   0  0  0  0  0  0  0  0  0  0  0  0
    5.7072    2.5381    1.4122 H   0  0  0  0  0  0  0  0  0  0  0  0
    1.0152    2.4645    0.2657 H   0  0  0  0  0  0  0  0  0  0  0  0
    0.8290   -1.6346    2.2338 H   0  0  0  0  0  0  0  0  0  0  0  0
  1  2  1  0
  2  3  1  0
  3  4  2  0
  4  5  1  0
  5  6  2  0
  6  7  1  0
  7  8  2  0
  8  9  1  0
  9 10  1  0
 10 11  1  0
 11 12  2  0
 11 13  1  0
  5 14  1  0
 14 15  1  0
 15 16  2  0
 15 17  1  0
 17 18  1  0
 18 19  1  0
 19 20  1  0
 20 21  2  0
 20 22  1  0
 19 23  1  0
 15 24  1  0
 14 25  1  0
  8  3  1  0
  1 26  1  0
  1 27  1  0
  1 28  1  0
  4 29  1  0
  6 30  1  0
  7 31  1  0
 10 32  1  0
 10 33  1  0
 13 34  1  0
 14 35  1  0
 17 36  1  0
 17 37  1  0
 18 38  1  0
 18 39  1  0
 19 40  1  6
 22 41  1  0
 23 42  1  0
 23 43  1  0
 24 44  1  0
 25 45  1  0
M  END
>  <Ligand ID>  (1) 
LIG0002002

>  <Ligand>  (1) 
US9212196, Derivative 3

>  <SMILES>  (1) 
COc1cc(ccc1OCC(=O)O)C(P(=O)(CC[C@H](C(=O)O)N)O)O

>  <CID>  (1) 
122197935.0

>  <ChEMBL ID>  (1) 
nan

>  <InChiKey>  (1) 
LNLCIHWIBXKXQU-UCWRFOARSA-N

>  <InChi>  (1) 
InChI=1S/C14H20NO9P/c1-23-11-6-8(2-3-10(11)24-7-12(16)17)14(20)25(21,22)5-4-9(15)13(18)19/h2-3,6,9,14,20H,4-5,7,15H2,1H3,(H,16,17)(H,18,19)(H,21,22)/t9-,14?/m1/s1

>  <IUPAC Name>  (1) 
(2R)-2-amino-4-[[[4-(carboxymethoxy)-3-methoxyphenyl]-hydroxymethyl]-hydroxyphosphoryl]butanoic acid

$$$$
