
     RDKit          3D

142144  0  0  0  0  0  0  0  0999 V2000
   11.3664    3.3851   -1.7790 C   0  0  0  0  0  0  0  0  0  0  0  0
   11.4423    1.9773   -2.3819 C   0  0  0  0  0  0  0  0  0  0  0  0
   11.6558    0.9631   -1.2820 C   0  0  0  0  0  0  0  0  0  0  0  0
   11.7369   -0.3698   -1.7890 N   0  0  0  0  0  0  0  0  0  0  0  0
   10.4902   -0.8689   -2.3256 C   0  0  0  0  0  0  0  0  0  0  0  0
    9.4540   -1.0746   -1.2432 C   0  0  0  0  0  0  0  0  0  0  0  0
    8.1961   -1.6065   -1.8984 C   0  0  0  0  0  0  0  0  0  0  0  0
    7.1081   -1.8428   -0.8494 C   0  0  1  0  0  0  0  0  0  0  0  0
    7.5957   -2.8298    0.1550 C   0  0  0  0  0  0  0  0  0  0  0  0
    8.0710   -3.9122   -0.3328 O   0  0  0  0  0  0  0  0  0  0  0  0
    7.5499   -2.6148    1.5542 N   0  0  0  0  0  0  0  0  0  0  0  0
    8.0346   -3.5956    2.5207 C   0  0  0  0  0  0  0  0  0  0  0  0
    7.3128   -4.8772    2.4050 C   0  0  0  0  0  0  0  0  0  0  0  0
    7.5750   -5.8700    3.1549 O   0  0  0  0  0  0  0  0  0  0  0  0
    6.2854   -5.0709    1.4476 N   0  0  0  0  0  0  0  0  0  0  0  0
    6.5968   -0.6349   -0.2834 N   0  0  0  0  0  0  0  0  0  0  0  0
    5.1988   -0.3111   -0.2129 C   0  0  0  0  0  0  0  0  0  0  0  0
    4.3793   -1.1279   -0.6629 O   0  0  0  0  0  0  0  0  0  0  0  0
    4.8625    0.9923    0.4036 C   0  0  2  0  0  0  0  0  0  0  0  0
    5.5873    1.2814    1.6737 C   0  0  0  0  0  0  0  0  0  0  0  0
    4.5104    1.5227    2.6904 C   0  0  0  0  0  0  0  0  0  0  0  0
    3.3088    0.8196    2.0914 C   0  0  0  0  0  0  0  0  0  0  0  0
    3.4490    1.1677    0.6673 N   0  0  0  0  0  0  0  0  0  0  0  0
    2.4112    1.5869   -0.2258 C   0  0  0  0  0  0  0  0  0  0  0  0
    2.6921    1.8796   -1.4285 O   0  0  0  0  0  0  0  0  0  0  0  0
    1.0348    1.6659    0.3037 C   0  0  2  0  0  0  0  0  0  0  0  0
    0.5755    0.2461    0.6191 C   0  0  0  0  0  0  0  0  0  0  0  0
   -1.2161    0.2517    0.9793 S   0  0  0  0  0  0  0  0  0  0  0  0
   -1.6749    1.2182    2.7762 S   0  0  0  0  0  0  0  0  0  0  0  0
   -1.8295    0.1781    4.2149 C   0  0  0  0  0  0  0  0  0  0  0  0
   -3.0799   -0.5825    4.3219 C   0  0  2  0  0  0  0  0  0  0  0  0
   -3.2184   -1.3710    5.5462 N   0  0  0  0  0  0  0  0  0  0  0  0
   -3.5881   -1.3200    3.1528 C   0  0  0  0  0  0  0  0  0  0  0  0
   -2.9770   -1.6093    2.1231 O   0  0  0  0  0  0  0  0  0  0  0  0
   -4.9461   -1.7482    3.2012 N   0  0  0  0  0  0  0  0  0  0  0  0
   -5.6127   -2.5494    2.1748 C   0  0  1  0  0  0  0  0  0  0  0  0
   -6.6726   -3.3915    2.7605 C   0  0  0  0  0  0  0  0  0  0  0  0
   -7.4577   -4.2420    1.8602 C   0  0  0  0  0  0  0  0  0  0  0  0
   -7.0546   -5.5063    1.4403 C   0  0  0  0  0  0  0  0  0  0  0  0
   -7.8367   -6.3040    0.6296 C   0  0  0  0  0  0  0  0  0  0  0  0
   -9.0596   -5.8653    0.2047 C   0  0  0  0  0  0  0  0  0  0  0  0
   -9.5012   -4.6226    0.5930 C   0  0  0  0  0  0  0  0  0  0  0  0
   -8.7166   -3.8347    1.4006 C   0  0  0  0  0  0  0  0  0  0  0  0
   -6.0859   -1.4694    1.2301 C   0  0  0  0  0  0  0  0  0  0  0  0
   -5.9683   -0.3230    1.5990 O   0  0  0  0  0  0  0  0  0  0  0  0
   -6.6458   -1.7487   -0.0401 N   0  0  0  0  0  0  0  0  0  0  0  0
   -6.9641   -0.6274   -1.0214 C   0  0  2  0  0  0  0  0  0  0  0  0
   -5.6804   -0.0386   -1.2494 C   0  0  0  0  0  0  0  0  0  0  0  0
   -4.7539   -0.4730   -0.4286 O   0  0  0  0  0  0  0  0  0  0  0  0
   -5.1191    0.8991   -2.1562 N   0  0  0  0  0  0  0  0  0  0  0  0
   -3.7410    1.2704   -1.8542 C   0  0  2  0  0  0  0  0  0  0  0  0
   -3.2514    2.5832   -2.2063 C   0  0  0  0  0  0  0  0  0  0  0  0
   -3.5738    3.3172   -3.1435 O   0  0  0  0  0  0  0  0  0  0  0  0
   -2.2602    3.1357   -1.3347 N   0  0  0  0  0  0  0  0  0  0  0  0
   -1.4142    4.2524   -1.3708 C   0  0  2  0  0  0  0  0  0  0  0  0
   -0.1332    3.7196   -0.6811 C   0  0  0  0  0  0  0  0  0  0  0  0
    0.7384    4.4604   -0.2591 O   0  0  0  0  0  0  0  0  0  0  0  0
    0.0660    2.3212   -0.5329 N   0  0  0  0  0  0  0  0  0  0  0  0
   -1.7537    5.4155   -0.4672 C   0  0  0  0  0  0  0  0  0  0  0  0
   -3.0470    6.0553   -0.6791 C   0  0  0  0  0  0  0  0  0  0  0  0
   -3.9228    5.7555   -1.5141 O   0  0  0  0  0  0  0  0  0  0  0  0
   -3.3626    7.1700    0.1721 N   0  0  0  0  0  0  0  0  0  0  0  0
   -2.9405    0.1543   -2.5793 C   0  0  0  0  0  0  0  0  0  0  0  0
   -3.1512    0.0945   -4.0374 C   0  0  0  0  0  0  0  0  0  0  0  0
   -2.6594    1.2278   -4.8379 C   0  0  0  0  0  0  0  0  0  0  0  0
   -1.5299    1.7196   -4.4624 O   0  0  0  0  0  0  0  0  0  0  0  0
   -3.3706    1.7416   -5.9489 N   0  0  0  0  0  0  0  0  0  0  0  0
   -8.2266   -0.0091   -0.7656 C   0  0  2  0  0  0  0  0  0  0  0  0
   -8.6658    1.1392   -1.6293 C   0  0  0  0  0  0  0  0  0  0  0  0
   -7.8646    2.3763   -1.6100 C   0  0  0  0  0  0  0  0  0  0  0  0
   -8.6354    0.2918    0.6720 C   0  0  0  0  0  0  0  0  0  0  0  0
   11.8751    4.1258   -2.4116 H   0  0  0  0  0  0  0  0  0  0  0  0
   10.3456    3.6991   -1.5653 H   0  0  0  0  0  0  0  0  0  0  0  0
   11.9755    3.3166   -0.8297 H   0  0  0  0  0  0  0  0  0  0  0  0
   12.2935    1.9891   -3.0818 H   0  0  0  0  0  0  0  0  0  0  0  0
   10.4806    1.7882   -2.8636 H   0  0  0  0  0  0  0  0  0  0  0  0
   10.8826    1.0508   -0.4936 H   0  0  0  0  0  0  0  0  0  0  0  0
   12.6303    1.1563   -0.7524 H   0  0  0  0  0  0  0  0  0  0  0  0
   11.9897   -1.0017   -0.9868 H   0  0  0  0  0  0  0  0  0  0  0  0
   10.0560   -0.2134   -3.0920 H   0  0  0  0  0  0  0  0  0  0  0  0
   10.7316   -1.8515   -2.7947 H   0  0  0  0  0  0  0  0  0  0  0  0
    9.1868   -0.0602   -0.8248 H   0  0  0  0  0  0  0  0  0  0  0  0
    9.8065   -1.6714   -0.3996 H   0  0  0  0  0  0  0  0  0  0  0  0
    8.3670   -2.5708   -2.4102 H   0  0  0  0  0  0  0  0  0  0  0  0
    7.8193   -0.8796   -2.6197 H   0  0  0  0  0  0  0  0  0  0  0  0
    6.2721   -2.3585   -1.3773 H   0  0  0  0  0  0  0  0  0  0  0  0
    7.1471   -1.7112    1.8797 H   0  0  0  0  0  0  0  0  0  0  0  0
    7.9676   -3.1508    3.5354 H   0  0  0  0  0  0  0  0  0  0  0  0
    9.1169   -3.7992    2.3196 H   0  0  0  0  0  0  0  0  0  0  0  0
    6.2556   -5.9221    0.8225 H   0  0  0  0  0  0  0  0  0  0  0  0
    5.5029   -4.3983    1.2980 H   0  0  0  0  0  0  0  0  0  0  0  0
    7.3095    0.0509    0.1020 H   0  0  0  0  0  0  0  0  0  0  0  0
    5.2058    1.7903   -0.3311 H   0  0  0  0  0  0  0  0  0  0  0  0
    6.1709    2.2525    1.6243 H   0  0  0  0  0  0  0  0  0  0  0  0
    6.2697    0.4931    2.0240 H   0  0  0  0  0  0  0  0  0  0  0  0
    4.7667    1.1096    3.6895 H   0  0  0  0  0  0  0  0  0  0  0  0
    4.2460    2.6068    2.7630 H   0  0  0  0  0  0  0  0  0  0  0  0
    2.4286    1.3250    2.5529 H   0  0  0  0  0  0  0  0  0  0  0  0
    3.3314   -0.2634    2.2651 H   0  0  0  0  0  0  0  0  0  0  0  0
    1.0353    2.2405    1.2651 H   0  0  0  0  0  0  0  0  0  0  0  0
    0.7150   -0.4210   -0.2536 H   0  0  0  0  0  0  0  0  0  0  0  0
    1.0806   -0.2203    1.4656 H   0  0  0  0  0  0  0  0  0  0  0  0
   -0.9813   -0.5623    4.2695 H   0  0  0  0  0  0  0  0  0  0  0  0
   -1.7546    0.8449    5.1119 H   0  0  0  0  0  0  0  0  0  0  0  0
   -3.8908    0.2391    4.5038 H   0  0  0  0  0  0  0  0  0  0  0  0
   -2.7240   -0.8372    6.2936 H   0  0  0  0  0  0  0  0  0  0  0  0
   -4.2118   -1.4650    5.8503 H   0  0  0  0  0  0  0  0  0  0  0  0
   -5.4899   -1.4729    4.0093 H   0  0  0  0  0  0  0  0  0  0  0  0
   -4.8936   -3.1635    1.5862 H   0  0  0  0  0  0  0  0  0  0  0  0
   -7.4287   -2.6715    3.2185 H   0  0  0  0  0  0  0  0  0  0  0  0
   -6.3252   -3.9568    3.6679 H   0  0  0  0  0  0  0  0  0  0  0  0
   -6.0858   -5.8823    1.7619 H   0  0  0  0  0  0  0  0  0  0  0  0
   -7.5250   -7.2885    0.3037 H   0  0  0  0  0  0  0  0  0  0  0  0
   -9.6968   -6.4487   -0.4221 H   0  0  0  0  0  0  0  0  0  0  0  0
  -10.4565   -4.2821    0.2597 H   0  0  0  0  0  0  0  0  0  0  0  0
   -9.1128   -2.8666    1.6757 H   0  0  0  0  0  0  0  0  0  0  0  0
   -6.8095   -2.7147   -0.2652 H   0  0  0  0  0  0  0  0  0  0  0  0
   -7.1131   -1.3092   -1.9684 H   0  0  0  0  0  0  0  0  0  0  0  0
   -5.6725    1.2088   -2.9272 H   0  0  0  0  0  0  0  0  0  0  0  0
   -3.4973    1.0723   -0.7725 H   0  0  0  0  0  0  0  0  0  0  0  0
   -2.2122    2.5571   -0.4274 H   0  0  0  0  0  0  0  0  0  0  0  0
   -1.1573    4.6851   -2.3303 H   0  0  0  0  0  0  0  0  0  0  0  0
   -0.5461    1.7322   -1.1075 H   0  0  0  0  0  0  0  0  0  0  0  0
   -0.9824    6.2110   -0.7021 H   0  0  0  0  0  0  0  0  0  0  0  0
   -1.5417    5.1827    0.6010 H   0  0  0  0  0  0  0  0  0  0  0  0
   -4.2013    7.1211    0.8061 H   0  0  0  0  0  0  0  0  0  0  0  0
   -2.7344    8.0269    0.1405 H   0  0  0  0  0  0  0  0  0  0  0  0
   -3.2166   -0.8303   -2.1476 H   0  0  0  0  0  0  0  0  0  0  0  0
   -1.8624    0.2987   -2.3889 H   0  0  0  0  0  0  0  0  0  0  0  0
   -2.6402   -0.8112   -4.4352 H   0  0  0  0  0  0  0  0  0  0  0  0
   -4.2490   -0.0619   -4.2730 H   0  0  0  0  0  0  0  0  0  0  0  0
   -3.3965    2.7746   -6.0939 H   0  0  0  0  0  0  0  0  0  0  0  0
   -3.8693    1.1479   -6.6281 H   0  0  0  0  0  0  0  0  0  0  0  0
   -9.0593   -0.7995   -1.0174 H   0  0  0  0  0  0  0  0  0  0  0  0
   -8.8124    0.8190   -2.6941 H   0  0  0  0  0  0  0  0  0  0  0  0
   -9.7270    1.4592   -1.3500 H   0  0  0  0  0  0  0  0  0  0  0  0
   -8.5226    3.2982   -1.4098 H   0  0  0  0  0  0  0  0  0  0  0  0
   -6.9963    2.4085   -0.9292 H   0  0  0  0  0  0  0  0  0  0  0  0
   -7.4943    2.5898   -2.6301 H   0  0  0  0  0  0  0  0  0  0  0  0
   -9.7236    0.6281    0.6436 H   0  0  0  0  0  0  0  0  0  0  0  0
   -8.6357   -0.5404    1.3498 H   0  0  0  0  0  0  0  0  0  0  0  0
   -8.1342    1.1641    1.1135 H   0  0  0  0  0  0  0  0  0  0  0  0
  1  2  1  0
  2  3  1  0
  3  4  1  0
  4  5  1  0
  5  6  1  0
  6  7  1  0
  7  8  1  0
  8  9  1  0
  9 10  2  0
  9 11  1  0
 11 12  1  0
 12 13  1  0
 13 14  2  0
 13 15  1  0
  8 16  1  0
 16 17  1  0
 17 18  2  0
 17 19  1  0
 19 20  1  0
 20 21  1  0
 21 22  1  0
 22 23  1  0
 23 24  1  0
 24 25  2  0
 24 26  1  0
 26 27  1  0
 27 28  1  0
 28 29  1  0
 29 30  1  0
 30 31  1  0
 31 32  1  0
 31 33  1  0
 33 34  2  0
 33 35  1  0
 35 36  1  0
 36 37  1  0
 37 38  1  0
 38 39  2  0
 39 40  1  0
 40 41  2  0
 41 42  1  0
 42 43  2  0
 36 44  1  0
 44 45  2  0
 44 46  1  0
 46 47  1  0
 47 48  1  0
 48 49  2  0
 48 50  1  0
 50 51  1  0
 51 52  1  0
 52 53  2  0
 52 54  1  0
 54 55  1  0
 55 56  1  0
 56 57  2  0
 56 58  1  0
 55 59  1  0
 59 60  1  0
 60 61  2  0
 60 62  1  0
 51 63  1  0
 63 64  1  0
 64 65  1  0
 65 66  2  0
 65 67  1  0
 47 68  1  0
 68 69  1  0
 69 70  1  0
 68 71  1  0
 23 19  1  0
 58 26  1  0
 43 38  1  0
  1 72  1  0
  1 73  1  0
  1 74  1  0
  2 75  1  0
  2 76  1  0
  3 77  1  0
  3 78  1  0
  4 79  1  0
  5 80  1  0
  5 81  1  0
  6 82  1  0
  6 83  1  0
  7 84  1  0
  7 85  1  0
  8 86  1  6
 11 87  1  0
 12 88  1  0
 12 89  1  0
 15 90  1  0
 15 91  1  0
 16 92  1  0
 19 93  1  6
 20 94  1  0
 20 95  1  0
 21 96  1  0
 21 97  1  0
 22 98  1  0
 22 99  1  0
 26100  1  1
 27101  1  0
 27102  1  0
 30103  1  0
 30104  1  0
 31105  1  1
 32106  1  0
 32107  1  0
 35108  1  0
 36109  1  6
 37110  1  0
 37111  1  0
 39112  1  0
 40113  1  0
 41114  1  0
 42115  1  0
 43116  1  0
 46117  1  0
 47118  1  6
 50119  1  0
 51120  1  1
 54121  1  0
 55122  1  6
 58123  1  0
 59124  1  0
 59125  1  0
 62126  1  0
 62127  1  0
 63128  1  0
 63129  1  0
 64130  1  0
 64131  1  0
 67132  1  0
 67133  1  0
 68134  1  6
 69135  1  0
 69136  1  0
 70137  1  0
 70138  1  0
 70139  1  0
 71140  1  0
 71141  1  0
 71142  1  0
M  END
>  <Ligand ID>  (1) 
LIG0000981

>  <Ligand>  (1) 
CHEMBL1817706

>  <SMILES>  (1) 
CCCNCCC[C@@H](C(=O)NCC(=O)N)NC(=O)[C@@H]1CCCN1C(=O)[C@@H]1CSSC[C@H](N)C(=O)N[C@@H](Cc2ccccc2)C(=O)N[C@H](C(=O)N[C@H](C(=O)N[C@H](C(=O)N1)CC(=O)N)CCC(=O)N)[C@H](CC)C

>  <CID>  (1) 
53362430.0

>  <ChEMBL ID>  (1) 
nan

>  <InChiKey>  (1) 
QUIUVPCFQUOGIL-HOHGFJJGSA-N

>  <InChi>  (1) 
InChI=1S/C45H71N13O11S2/c1-4-17-50-18-9-13-28(39(63)51-22-36(49)61)52-43(67)33-14-10-19-58(33)45(69)32-24-71-70-23-27(46)38(62)54-30(20-26-11-7-6-8-12-26)42(66)57-37(25(3)5-2)44(68)53-29(15-16-34(47)59)40(64)55-31(21-35(48)60)41(65)56-32/h6-8,11-12,25,27-33,37,50H,4-5,9-10,13-24,46H2,1-3H3,(H2,47,59)(H2,48,60)(H2,49,61)(H,51,63)(H,52,67)(H,53,68)(H,54,62)(H,55,64)(H,56,65)(H,57,66)/t25-,27-,28-,29-,30-,31-,32-,33-,37-/m0/s1

>  <IUPAC Name>  (1) 
(2S)-1-[(4R,7S,10S,13S,16S,19R)-19-amino-7-(2-amino-2-oxoethyl)-10-(3-amino-3-oxopropyl)-16-benzyl-13-[(2S)-butan-2-yl]-6,9,12,15,18-pentaoxo-1,2-dithia-5,8,11,14,17-pentazacycloicosane-4-carbonyl]-N-[(2S)-1-[(2-amino-2-oxoethyl)amino]-1-oxo-5-(propylamino)pentan-2-yl]pyrrolidine-2-carboxamide

$$$$
