
     RDKit          3D

 23 23  0  0  0  0  0  0  0  0999 V2000
   -1.7692    2.0402   -1.5063 O   0  0  0  0  0  0  0  0  0  0  0  0
   -2.1533    0.8709   -1.3919 C   0  0  0  0  0  0  0  0  0  0  0  0
   -2.1018    0.3209   -0.0068 C   0  0  0  0  0  0  0  0  0  0  0  0
   -1.0456   -0.6860    0.2232 C   0  0  0  0  0  0  0  0  0  0  0  0
    0.3301   -0.2366   -0.0252 C   0  0  0  0  0  0  0  0  0  0  0  0
    0.7258    1.0702    0.2290 C   0  0  0  0  0  0  0  0  0  0  0  0
    2.0495    1.4867   -0.0018 C   0  0  0  0  0  0  0  0  0  0  0  0
    2.9282    0.5243   -0.4951 C   0  0  0  0  0  0  0  0  0  0  0  0
    2.5588   -0.7645   -0.7522 C   0  0  0  0  0  0  0  0  0  0  0  0
    1.2467   -1.1515   -0.5169 C   0  0  0  0  0  0  0  0  0  0  0  0
   -1.1036   -1.0682    1.7133 C   0  0  0  0  0  0  0  0  0  0  0  0
   -2.4953    0.2993   -2.2431 H   0  0  0  0  0  0  0  0  0  0  0  0
   -2.0703    1.1245    0.7578 H   0  0  0  0  0  0  0  0  0  0  0  0
   -3.0912   -0.1976    0.1750 H   0  0  0  0  0  0  0  0  0  0  0  0
   -1.2383   -1.5980   -0.3788 H   0  0  0  0  0  0  0  0  0  0  0  0
    0.0275    1.8056    0.6085 H   0  0  0  0  0  0  0  0  0  0  0  0
    2.3744    2.4869    0.1917 H   0  0  0  0  0  0  0  0  0  0  0  0
    3.9774    0.8123   -0.6784 H   0  0  0  0  0  0  0  0  0  0  0  0
    3.2724   -1.4677   -1.1335 H   0  0  0  0  0  0  0  0  0  0  0  0
    0.9531   -2.1717   -0.7220 H   0  0  0  0  0  0  0  0  0  0  0  0
   -0.1580   -1.6054    1.9136 H   0  0  0  0  0  0  0  0  0  0  0  0
   -1.9773   -1.7684    1.7797 H   0  0  0  0  0  0  0  0  0  0  0  0
   -1.2401   -0.1262    2.2600 H   0  0  0  0  0  0  0  0  0  0  0  0
  1  2  2  0
  2  3  1  0
  3  4  1  0
  4  5  1  0
  5  6  2  0
  6  7  1  0
  7  8  2  0
  8  9  1  0
  9 10  2  0
  4 11  1  0
 10  5  1  0
  2 12  1  0
  3 13  1  0
  3 14  1  0
  4 15  1  0
  6 16  1  0
  7 17  1  0
  8 18  1  0
  9 19  1  0
 10 20  1  0
 11 21  1  0
 11 22  1  0
 11 23  1  0
M  END
>  <Ligand ID>  (1) 
LIG0000321

>  <Ligand>  (1) 
3-phenylbutanal

>  <SMILES>  (1) 
O=CCC(c1ccccc1)C

>  <CID>  (1) 
85979.0

>  <ChEMBL ID>  (1) 
nan

>  <InChiKey>  (1) 
MYHGOWDLVRDUFA-UHFFFAOYSA-N

>  <InChi>  (1) 
InChI=1S/C10H12O/c1-9(7-8-11)10-5-3-2-4-6-10/h2-6,8-9H,7H2,1H3

>  <IUPAC Name>  (1) 
3-phenylbutanal

$$$$
