
     RDKit          3D

 32 33  0  0  0  0  0  0  0  0999 V2000
    1.0871    0.3772    1.5267 O   0  0  0  0  0  0  0  0  0  0  0  0
    1.5296    0.2537    0.3541 C   0  0  0  0  0  0  0  0  0  0  0  0
    2.9528   -0.0270    0.1334 C   0  0  0  0  0  0  0  0  0  0  0  0
    3.8074   -0.1560    1.2111 C   0  0  0  0  0  0  0  0  0  0  0  0
    5.1588   -0.4209    1.0527 C   0  0  0  0  0  0  0  0  0  0  0  0
    5.6775   -0.5622   -0.2163 C   0  0  0  0  0  0  0  0  0  0  0  0
    4.8310   -0.4352   -1.3050 C   0  0  0  0  0  0  0  0  0  0  0  0
    3.4870   -0.1713   -1.1348 C   0  0  0  0  0  0  0  0  0  0  0  0
    2.6657   -0.0500   -2.2525 O   0  0  0  0  0  0  0  0  0  0  0  0
    0.6622    0.3862   -0.6876 O   0  0  0  0  0  0  0  0  0  0  0  0
   -0.7049    0.6496   -0.6634 C   0  0  0  0  0  0  0  0  0  0  0  0
   -1.4249   -0.4455    0.0967 C   0  0  0  0  0  0  0  0  0  0  0  0
   -2.9043   -0.1846    0.1374 C   0  0  0  0  0  0  0  0  0  0  0  0
   -3.7457   -0.6700   -0.8498 C   0  0  0  0  0  0  0  0  0  0  0  0
   -5.1086   -0.3823   -0.7367 C   0  0  0  0  0  0  0  0  0  0  0  0
   -5.6134    0.3527    0.3070 C   0  0  0  0  0  0  0  0  0  0  0  0
   -4.7793    0.8385    1.2930 C   0  0  0  0  0  0  0  0  0  0  0  0
   -3.4160    0.5504    1.1794 C   0  0  0  0  0  0  0  0  0  0  0  0
    3.3806   -0.0417    2.1933 H   0  0  0  0  0  0  0  0  0  0  0  0
    5.7576   -0.5064    1.9563 H   0  0  0  0  0  0  0  0  0  0  0  0
    6.7476   -0.7717   -0.3311 H   0  0  0  0  0  0  0  0  0  0  0  0
    5.2350   -0.5451   -2.2879 H   0  0  0  0  0  0  0  0  0  0  0  0
    2.7844    0.7999   -2.8240 H   0  0  0  0  0  0  0  0  0  0  0  0
   -0.9902    1.6468   -0.3403 H   0  0  0  0  0  0  0  0  0  0  0  0
   -1.0473    0.5639   -1.7291 H   0  0  0  0  0  0  0  0  0  0  0  0
   -1.2835   -1.4171   -0.4185 H   0  0  0  0  0  0  0  0  0  0  0  0
   -1.0175   -0.5508    1.1178 H   0  0  0  0  0  0  0  0  0  0  0  0
   -3.3446   -1.2472   -1.6682 H   0  0  0  0  0  0  0  0  0  0  0  0
   -5.7955   -0.7583   -1.5103 H   0  0  0  0  0  0  0  0  0  0  0  0
   -6.6903    0.5699    0.3802 H   0  0  0  0  0  0  0  0  0  0  0  0
   -5.1393    1.4226    2.1328 H   0  0  0  0  0  0  0  0  0  0  0  0
   -2.7590    0.9322    1.9545 H   0  0  0  0  0  0  0  0  0  0  0  0
  1  2  2  0
  2  3  1  0
  3  4  2  0
  4  5  1  0
  5  6  2  0
  6  7  1  0
  7  8  2  0
  8  9  1  0
  2 10  1  0
 10 11  1  0
 11 12  1  0
 12 13  1  0
 13 14  2  0
 14 15  1  0
 15 16  2  0
 16 17  1  0
 17 18  2  0
  8  3  1  0
 18 13  1  0
  4 19  1  0
  5 20  1  0
  6 21  1  0
  7 22  1  0
  9 23  1  0
 11 24  1  0
 11 25  1  0
 12 26  1  0
 12 27  1  0
 14 28  1  0
 15 29  1  0
 16 30  1  0
 17 31  1  0
 18 32  1  0
M  END
>  <Ligand ID>  (1) 
LIG0000384

>  <Ligand>  (1) 
Phenethyl salicylate

>  <SMILES>  (1) 
O=C(c1ccccc1O)OCCc1ccccc1

>  <CID>  (1) 
62332.0

>  <ChEMBL ID>  (1) 
nan

>  <InChiKey>  (1) 
YNMSDIQQNIRGDP-UHFFFAOYSA-N

>  <InChi>  (1) 
InChI=1S/C15H14O3/c16-14-9-5-4-8-13(14)15(17)18-11-10-12-6-2-1-3-7-12/h1-9,16H,10-11H2

>  <IUPAC Name>  (1) 
2-phenylethyl 2-hydroxybenzoate

$$$$
