
     RDKit          3D

 65 69  0  0  0  0  0  0  0  0999 V2000
    7.5232   -1.3013    2.1799 C   0  0  0  0  0  0  0  0  0  0  0  0
    6.2484   -2.0767    2.4421 C   0  0  0  0  0  0  0  0  0  0  0  0
    5.3313   -1.7884    1.3469 N   0  0  0  0  0  0  0  0  0  0  0  0
    5.6895   -2.1042    0.0125 C   0  0  0  0  0  0  0  0  0  0  0  0
    6.8100   -2.6352   -0.2002 O   0  0  0  0  0  0  0  0  0  0  0  0
    4.7293   -1.7992   -1.1063 C   0  0  1  0  0  0  0  0  0  0  0  0
    3.5756   -1.2225   -0.6284 O   0  0  0  0  0  0  0  0  0  0  0  0
    3.0885   -0.4973   -1.6974 C   0  0  2  0  0  0  0  0  0  0  0  0
    4.3431    0.2812   -2.1144 C   0  0  1  0  0  0  0  0  0  0  0  0
    5.3640   -0.8401   -2.0854 C   0  0  2  0  0  0  0  0  0  0  0  0
    5.3825   -1.3823   -3.3755 O   0  0  0  0  0  0  0  0  0  0  0  0
    4.1996    0.8057   -3.3987 O   0  0  0  0  0  0  0  0  0  0  0  0
    2.0256    0.4076   -1.3250 N   0  0  0  0  0  0  0  0  0  0  0  0
    1.9914    1.6964   -1.7363 C   0  0  0  0  0  0  0  0  0  0  0  0
    0.8876    2.2310   -1.2135 N   0  0  0  0  0  0  0  0  0  0  0  0
    0.2406    1.3016   -0.4895 C   0  0  0  0  0  0  0  0  0  0  0  0
    0.9645    0.1277   -0.5557 C   0  0  0  0  0  0  0  0  0  0  0  0
    0.5468   -0.9658    0.0774 N   0  0  0  0  0  0  0  0  0  0  0  0
   -0.5976   -0.8957    0.7821 C   0  0  0  0  0  0  0  0  0  0  0  0
   -1.3188    0.2409    0.8592 N   0  0  0  0  0  0  0  0  0  0  0  0
   -0.9501    1.3780    0.2426 C   0  0  0  0  0  0  0  0  0  0  0  0
   -1.6916    2.5850    0.3103 N   0  0  0  0  0  0  0  0  0  0  0  0
   -2.9184    2.7387    1.0371 C   0  0  2  0  0  0  0  0  0  0  0  0
   -2.8218    2.4639    2.5054 C   0  0  0  0  0  0  0  0  0  0  0  0
   -4.2719    2.2296    2.9202 C   0  0  0  0  0  0  0  0  0  0  0  0
   -5.0726    2.1311    1.6219 C   0  0  0  0  0  0  0  0  0  0  0  0
   -3.9839    1.7085    0.6233 C   0  0  1  0  0  0  0  0  0  0  0  0
   -4.3754    1.8596   -0.6652 O   0  0  0  0  0  0  0  0  0  0  0  0
   -4.2790    0.7202   -1.3993 C   0  0  0  0  0  0  0  0  0  0  0  0
   -5.0794   -0.4346   -0.9472 C   0  0  0  0  0  0  0  0  0  0  0  0
   -4.6116   -1.4475   -0.1441 C   0  0  0  0  0  0  0  0  0  0  0  0
   -5.4348   -2.4998    0.2533 C   0  0  0  0  0  0  0  0  0  0  0  0
   -6.7580   -2.5301   -0.1696 C   0  0  0  0  0  0  0  0  0  0  0  0
   -7.2464   -1.5156   -0.9812 C   0  0  0  0  0  0  0  0  0  0  0  0
   -6.4134   -0.4731   -1.3687 C   0  0  0  0  0  0  0  0  0  0  0  0
    8.2534   -2.0174    1.7687 H   0  0  0  0  0  0  0  0  0  0  0  0
    7.3773   -0.4057    1.5607 H   0  0  0  0  0  0  0  0  0  0  0  0
    7.9118   -0.9592    3.1760 H   0  0  0  0  0  0  0  0  0  0  0  0
    6.4568   -3.1664    2.5328 H   0  0  0  0  0  0  0  0  0  0  0  0
    5.7982   -1.7715    3.3995 H   0  0  0  0  0  0  0  0  0  0  0  0
    4.4066   -1.3504    1.5204 H   0  0  0  0  0  0  0  0  0  0  0  0
    4.4492   -2.7389   -1.6396 H   0  0  0  0  0  0  0  0  0  0  0  0
    2.7919   -1.1391   -2.5363 H   0  0  0  0  0  0  0  0  0  0  0  0
    4.5710    1.0664   -1.3512 H   0  0  0  0  0  0  0  0  0  0  0  0
    6.3641   -0.4776   -1.7734 H   0  0  0  0  0  0  0  0  0  0  0  0
    6.1059   -0.9491   -3.9181 H   0  0  0  0  0  0  0  0  0  0  0  0
    4.8381    1.5509   -3.4781 H   0  0  0  0  0  0  0  0  0  0  0  0
    2.6788    2.2434   -2.3575 H   0  0  0  0  0  0  0  0  0  0  0  0
   -0.9307   -1.7802    1.2913 H   0  0  0  0  0  0  0  0  0  0  0  0
   -1.3221    3.4153   -0.2009 H   0  0  0  0  0  0  0  0  0  0  0  0
   -3.3490    3.7620    0.9290 H   0  0  0  0  0  0  0  0  0  0  0  0
   -2.3345    3.2502    3.0947 H   0  0  0  0  0  0  0  0  0  0  0  0
   -2.2911    1.4867    2.6568 H   0  0  0  0  0  0  0  0  0  0  0  0
   -4.3904    1.2834    3.4633 H   0  0  0  0  0  0  0  0  0  0  0  0
   -4.6257    3.0753    3.5553 H   0  0  0  0  0  0  0  0  0  0  0  0
   -5.3795    3.1710    1.3292 H   0  0  0  0  0  0  0  0  0  0  0  0
   -5.8958    1.4175    1.6697 H   0  0  0  0  0  0  0  0  0  0  0  0
   -3.6364    0.7346    0.9486 H   0  0  0  0  0  0  0  0  0  0  0  0
   -3.2062    0.3588   -1.4354 H   0  0  0  0  0  0  0  0  0  0  0  0
   -4.5445    0.8599   -2.4787 H   0  0  0  0  0  0  0  0  0  0  0  0
   -3.5930   -1.4705    0.1977 H   0  0  0  0  0  0  0  0  0  0  0  0
   -5.0990   -3.3044    0.8797 H   0  0  0  0  0  0  0  0  0  0  0  0
   -7.4073   -3.3565    0.1415 H   0  0  0  0  0  0  0  0  0  0  0  0
   -8.2825   -1.5845   -1.2836 H   0  0  0  0  0  0  0  0  0  0  0  0
   -6.8325    0.2989   -2.0022 H   0  0  0  0  0  0  0  0  0  0  0  0
  1  2  1  0
  2  3  1  0
  3  4  1  0
  4  5  2  0
  4  6  1  0
  6  7  1  0
  7  8  1  0
  8  9  1  0
  9 10  1  0
 10 11  1  0
  9 12  1  0
  8 13  1  0
 13 14  1  0
 14 15  2  0
 15 16  1  0
 16 17  2  0
 17 18  1  0
 18 19  2  0
 19 20  1  0
 20 21  2  0
 21 22  1  0
 22 23  1  0
 23 24  1  0
 24 25  1  0
 25 26  1  0
 26 27  1  0
 27 28  1  0
 28 29  1  0
 29 30  1  0
 30 31  2  0
 31 32  1  0
 32 33  2  0
 33 34  1  0
 34 35  2  0
 10  6  1  0
 17 13  1  0
 27 23  1  0
 35 30  1  0
 21 16  1  0
  1 36  1  0
  1 37  1  0
  1 38  1  0
  2 39  1  0
  2 40  1  0
  3 41  1  0
  6 42  1  6
  8 43  1  6
  9 44  1  1
 10 45  1  1
 11 46  1  0
 12 47  1  0
 14 48  1  0
 19 49  1  0
 22 50  1  0
 23 51  1  1
 24 52  1  0
 24 53  1  0
 25 54  1  0
 25 55  1  0
 26 56  1  0
 26 57  1  0
 27 58  1  1
 29 59  1  0
 29 60  1  0
 31 61  1  0
 32 62  1  0
 33 63  1  0
 34 64  1  0
 35 65  1  0
M  END
>  <Ligand ID>  (1) 
LIG0004412

>  <Ligand>  (1) 
CHEMBL3770679

>  <SMILES>  (1) 
CCNC(=O)[C@H]1O[C@H]([C@@H]([C@@H]1O)O)n1cnc2c1ncnc2N[C@@H]1CCC[C@H]1OCc1ccccc1

>  <CID>  (1) 
127025959.0

>  <ChEMBL ID>  (1) 
nan

>  <InChiKey>  (1) 
LNEKDIPCQNTTNX-FUWISXPPSA-N

>  <InChi>  (1) 
InChI=1S/C24H30N6O5/c1-2-25-23(33)20-18(31)19(32)24(35-20)30-13-28-17-21(26-12-27-22(17)30)29-15-9-6-10-16(15)34-11-14-7-4-3-5-8-14/h3-5,7-8,12-13,15-16,18-20,24,31-32H,2,6,9-11H2,1H3,(H,25,33)(H,26,27,29)/t15-,16-,18+,19-,20+,24-/m1/s1

>  <IUPAC Name>  (1) 
(2S,3S,4R,5R)-N-ethyl-3,4-dihydroxy-5-[6-[[(1R,2R)-2-phenylmethoxycyclopentyl]amino]purin-9-yl]oxolane-2-carboxamide

$$$$
