
     RDKit          3D

 24 25  0  0  0  0  0  0  0  0999 V2000
   -3.5548   -1.3214    0.5846 C   0  0  0  0  0  0  0  0  0  0  0  0
   -2.8638   -0.1172    0.0013 C   0  0  0  0  0  0  0  0  0  0  0  0
   -3.3097    1.1113    0.0824 O   0  0  0  0  0  0  0  0  0  0  0  0
   -2.4648    1.9207   -0.5333 C   0  0  0  0  0  0  0  0  0  0  0  0
   -1.4100    1.1839   -1.0446 C   0  0  0  0  0  0  0  0  0  0  0  0
   -1.6607   -0.1129   -0.7064 C   0  0  0  0  0  0  0  0  0  0  0  0
   -0.7268   -1.5995   -1.0364 S   0  0  0  0  0  0  0  0  0  0  0  0
    0.6012   -1.8092    0.6177 S   0  0  0  0  0  0  0  0  0  0  0  0
    2.0829   -0.9361    0.1732 C   0  0  0  0  0  0  0  0  0  0  0  0
    3.1583   -1.5237   -0.4883 C   0  0  0  0  0  0  0  0  0  0  0  0
    4.1167   -0.5463   -0.6613 C   0  0  0  0  0  0  0  0  0  0  0  0
    3.6445    0.5644   -0.1342 O   0  0  0  0  0  0  0  0  0  0  0  0
    2.4459    0.3691    0.3672 C   0  0  0  0  0  0  0  0  0  0  0  0
    1.6023    1.3825    1.0394 C   0  0  0  0  0  0  0  0  0  0  0  0
   -4.0192   -0.9903    1.5233 H   0  0  0  0  0  0  0  0  0  0  0  0
   -4.3160   -1.7341   -0.1156 H   0  0  0  0  0  0  0  0  0  0  0  0
   -2.8038   -2.1243    0.7541 H   0  0  0  0  0  0  0  0  0  0  0  0
   -2.5775    2.9838   -0.6235 H   0  0  0  0  0  0  0  0  0  0  0  0
   -0.5441    1.5109   -1.6016 H   0  0  0  0  0  0  0  0  0  0  0  0
    3.2270   -2.5633   -0.8086 H   0  0  0  0  0  0  0  0  0  0  0  0
    5.0877   -0.6940   -1.1523 H   0  0  0  0  0  0  0  0  0  0  0  0
    2.3097    2.0957    1.5486 H   0  0  0  0  0  0  0  0  0  0  0  0
    0.9788    0.9534    1.8589 H   0  0  0  0  0  0  0  0  0  0  0  0
    0.9960    1.9970    0.3555 H   0  0  0  0  0  0  0  0  0  0  0  0
  1  2  1  0
  2  3  1  0
  3  4  1  0
  4  5  2  0
  5  6  1  0
  6  7  1  0
  7  8  1  0
  8  9  1  0
  9 10  1  0
 10 11  2  0
 11 12  1  0
 12 13  1  0
 13 14  1  0
  6  2  2  0
 13  9  2  0
  1 15  1  0
  1 16  1  0
  1 17  1  0
  4 18  1  0
  5 19  1  0
 10 20  1  0
 11 21  1  0
 14 22  1  0
 14 23  1  0
 14 24  1  0
M  END
>  <Ligand ID>  (1) 
LIG0000208

>  <Ligand>  (1) 
Bis(2-methyl-3-furyl)disulphide)

>  <SMILES>  (1) 
Cc1occc1SSc1ccoc1C

>  <CID>  (1) 
526624.0

>  <ChEMBL ID>  (1) 
nan

>  <InChiKey>  (1) 
OHDFENKFSKIFBJ-UHFFFAOYSA-N

>  <InChi>  (1) 
InChI=1S/C10H10O2S2/c1-7-9(3-5-11-7)13-14-10-4-6-12-8(10)2/h3-6H,1-2H3

>  <IUPAC Name>  (1) 
2-methyl-3-[(2-methylfuran-3-yl)disulfanyl]furan

$$$$
