
     RDKit          3D

 43 46  0  0  0  0  0  0  0  0999 V2000
    4.2528   -1.7141    0.6094 F   0  0  0  0  0  0  0  0  0  0  0  0
    4.5930   -0.4430    0.9530 C   0  0  0  0  0  0  0  0  0  0  0  0
    4.0067    0.5593    0.0151 C   0  0  0  0  0  0  0  0  0  0  0  0
    2.5773    0.4873    0.0195 N   0  0  0  0  0  0  0  0  0  0  0  0
    1.7876   -0.6055   -0.4011 C   0  0  0  0  0  0  0  0  0  0  0  0
    2.2538   -1.6716   -0.8483 O   0  0  0  0  0  0  0  0  0  0  0  0
    0.3273   -0.5132   -0.3199 C   0  0  0  0  0  0  0  0  0  0  0  0
   -0.3998    0.5363    0.1286 N   0  0  0  0  0  0  0  0  0  0  0  0
   -1.6929    0.2670    0.0578 N   0  0  0  0  0  0  0  0  0  0  0  0
   -1.8806   -0.9565   -0.4341 C   0  0  0  0  0  0  0  0  0  0  0  0
   -0.6175   -1.4604   -0.6768 C   0  0  0  0  0  0  0  0  0  0  0  0
   -0.6924   -2.8288   -1.2309 C   0  0  0  0  0  0  0  0  0  0  0  0
   -2.1496   -3.1395   -1.2901 C   0  0  2  0  0  0  0  0  0  0  0  0
   -2.9003   -1.9495   -0.8073 C   0  0  1  0  0  0  0  0  0  0  0  0
   -2.9327   -3.2981   -0.0436 C   0  0  0  0  0  0  0  0  0  0  0  0
   -2.7118    1.1881    0.4628 C   0  0  0  0  0  0  0  0  0  0  0  0
   -3.8008    1.4825   -0.3321 C   0  0  0  0  0  0  0  0  0  0  0  0
   -4.7341    2.3817    0.1377 C   0  0  0  0  0  0  0  0  0  0  0  0
   -4.6116    2.9971    1.3808 C   0  0  0  0  0  0  0  0  0  0  0  0
   -3.5146    2.6966    2.1742 C   0  0  0  0  0  0  0  0  0  0  0  0
   -2.5701    1.7914    1.7075 C   0  0  0  0  0  0  0  0  0  0  0  0
   -1.5109    1.5237    2.5136 F   0  0  0  0  0  0  0  0  0  0  0  0
   -5.5574    3.8799    1.8060 F   0  0  0  0  0  0  0  0  0  0  0  0
    4.5372    0.3600   -1.4043 C   0  0  0  0  0  0  0  0  0  0  0  0
    4.4060    1.9802    0.3937 C   0  0  0  0  0  0  0  0  0  0  0  0
    4.2527   -0.2618    2.0145 H   0  0  0  0  0  0  0  0  0  0  0  0
    5.6980   -0.2948    0.9932 H   0  0  0  0  0  0  0  0  0  0  0  0
    2.0259    1.3324    0.3728 H   0  0  0  0  0  0  0  0  0  0  0  0
   -0.2961   -2.8399   -2.2634 H   0  0  0  0  0  0  0  0  0  0  0  0
   -0.1271   -3.5133   -0.5718 H   0  0  0  0  0  0  0  0  0  0  0  0
   -2.4997   -3.7566   -2.1444 H   0  0  0  0  0  0  0  0  0  0  0  0
   -3.8286   -1.6681   -1.3213 H   0  0  0  0  0  0  0  0  0  0  0  0
   -3.8879   -3.8198   -0.0444 H   0  0  0  0  0  0  0  0  0  0  0  0
   -2.4253   -3.2343    0.9467 H   0  0  0  0  0  0  0  0  0  0  0  0
   -3.8733    0.9939   -1.2889 H   0  0  0  0  0  0  0  0  0  0  0  0
   -5.5756    2.5829   -0.5232 H   0  0  0  0  0  0  0  0  0  0  0  0
   -3.3717    3.1472    3.1489 H   0  0  0  0  0  0  0  0  0  0  0  0
    3.7597    0.6159   -2.1453 H   0  0  0  0  0  0  0  0  0  0  0  0
    5.4295    0.9784   -1.5667 H   0  0  0  0  0  0  0  0  0  0  0  0
    4.8064   -0.7126   -1.5382 H   0  0  0  0  0  0  0  0  0  0  0  0
    5.4088    2.1739   -0.0575 H   0  0  0  0  0  0  0  0  0  0  0  0
    4.3983    2.0699    1.4884 H   0  0  0  0  0  0  0  0  0  0  0  0
    3.6412    2.6555   -0.0708 H   0  0  0  0  0  0  0  0  0  0  0  0
  1  2  1  0
  2  3  1  0
  3  4  1  0
  4  5  1  0
  5  6  2  0
  5  7  1  0
  7  8  2  0
  8  9  1  0
  9 10  1  0
 10 11  2  0
 11 12  1  0
 12 13  1  0
 13 14  1  0
 14 15  1  0
  9 16  1  0
 16 17  2  0
 17 18  1  0
 18 19  2  0
 19 20  1  0
 20 21  2  0
 21 22  1  0
 19 23  1  0
  3 24  1  0
  3 25  1  0
 11  7  1  0
 15 13  1  0
 21 16  1  0
 14 10  1  0
  2 26  1  0
  2 27  1  0
  4 28  1  0
 12 29  1  0
 12 30  1  0
 13 31  1  6
 14 32  1  6
 15 33  1  0
 15 34  1  0
 17 35  1  0
 18 36  1  0
 20 37  1  0
 24 38  1  0
 24 39  1  0
 24 40  1  0
 25 41  1  0
 25 42  1  0
 25 43  1  0
M  END
>  <Ligand ID>  (1) 
LIG0001488

>  <Ligand>  (1) 
CHEMBL3354951

>  <SMILES>  (1) 
FCC(NC(=O)c1nn(c2c1C[C@@H]1[C@H]2C1)c1ccc(cc1F)F)(C)C

>  <CID>  (1) 
118720563.0

>  <ChEMBL ID>  (1) 
nan

>  <InChiKey>  (1) 
QQXDNTXCWOQARA-MWLCHTKSSA-N

>  <InChi>  (1) 
InChI=1S/C18H18F3N3O/c1-18(2,8-19)22-17(25)15-12-6-9-5-11(9)16(12)24(23-15)14-4-3-10(20)7-13(14)21/h3-4,7,9,11H,5-6,8H2,1-2H3,(H,22,25)/t9-,11-/m1/s1

>  <IUPAC Name>  (1) 
(2R,4R)-9-(2,4-difluorophenyl)-N-(1-fluoro-2-methylpropan-2-yl)-8,9-diazatricyclo[4.3.0.02,4]nona-1(6),7-diene-7-carboxamide

$$$$
