
     RDKit          3D

 37 38  0  0  0  0  0  0  0  0999 V2000
    1.0647   -1.9072   -1.8674 O   0  0  0  0  0  0  0  0  0  0  0  0
    0.3931   -1.2773   -0.8033 C   0  0  2  0  0  0  0  0  0  0  0  0
   -1.0849   -1.3749   -1.1603 C   0  0  2  0  0  0  0  0  0  0  0  0
   -1.3037   -1.7985   -2.4591 O   0  0  0  0  0  0  0  0  0  0  0  0
   -1.5269    0.0592   -1.0648 C   0  0  2  0  0  0  0  0  0  0  0  0
   -0.6170    0.6387   -0.1923 O   0  0  0  0  0  0  0  0  0  0  0  0
    0.5947    0.1873   -0.7359 C   0  0  1  0  0  0  0  0  0  0  0  0
    1.7260    0.6448    0.0199 N   0  0  0  0  0  0  0  0  0  0  0  0
    1.7278    1.9499    0.3952 C   0  0  0  0  0  0  0  0  0  0  0  0
    2.7674    2.4720    1.1188 C   0  0  0  0  0  0  0  0  0  0  0  0
    3.8196    1.6351    1.4597 C   0  0  0  0  0  0  0  0  0  0  0  0
    4.7946    2.0828    2.1264 O   0  0  0  0  0  0  0  0  0  0  0  0
    3.8188    0.3428    1.0887 N   0  0  0  0  0  0  0  0  0  0  0  0
    2.7688   -0.1255    0.3747 C   0  0  0  0  0  0  0  0  0  0  0  0
    2.7818   -1.3153    0.0407 O   0  0  0  0  0  0  0  0  0  0  0  0
    4.9027   -0.5366    1.4349 C   0  0  0  0  0  0  0  0  0  0  0  0
   -2.9498    0.2119   -0.6134 C   0  0  0  0  0  0  0  0  0  0  0  0
   -3.1966   -0.3664    0.6208 O   0  0  0  0  0  0  0  0  0  0  0  0
   -4.7939   -0.1863    1.1095 P   0  0  0  0  0  0  0  0  0  0  0  0
   -4.9572   -0.9888    2.3900 O   0  0  0  0  0  0  0  0  0  0  0  0
   -5.8886   -0.7568   -0.0271 O   0  0  0  0  0  0  0  0  0  0  0  0
   -5.1305    1.4217    1.4239 O   0  0  0  0  0  0  0  0  0  0  0  0
    1.3772   -1.2280   -2.4974 H   0  0  0  0  0  0  0  0  0  0  0  0
    0.4987   -1.8078    0.1551 H   0  0  0  0  0  0  0  0  0  0  0  0
   -1.6519   -2.0403   -0.4832 H   0  0  0  0  0  0  0  0  0  0  0  0
   -0.5638   -2.2667   -2.8860 H   0  0  0  0  0  0  0  0  0  0  0  0
   -1.4176    0.5269   -2.0445 H   0  0  0  0  0  0  0  0  0  0  0  0
    0.6067    0.5752   -1.7834 H   0  0  0  0  0  0  0  0  0  0  0  0
    0.8922    2.6005    0.1204 H   0  0  0  0  0  0  0  0  0  0  0  0
    2.7567    3.5233    1.4144 H   0  0  0  0  0  0  0  0  0  0  0  0
    4.5754   -1.5797    1.6185 H   0  0  0  0  0  0  0  0  0  0  0  0
    5.6877   -0.5240    0.6600 H   0  0  0  0  0  0  0  0  0  0  0  0
    5.3548   -0.1207    2.3672 H   0  0  0  0  0  0  0  0  0  0  0  0
   -3.1580    1.2958   -0.5340 H   0  0  0  0  0  0  0  0  0  0  0  0
   -3.6074   -0.2036   -1.3877 H   0  0  0  0  0  0  0  0  0  0  0  0
   -5.9855   -1.7403   -0.0227 H   0  0  0  0  0  0  0  0  0  0  0  0
   -5.0762    1.9766    0.6233 H   0  0  0  0  0  0  0  0  0  0  0  0
  1  2  1  0
  2  3  1  0
  3  4  1  0
  3  5  1  0
  5  6  1  0
  6  7  1  0
  7  8  1  0
  8  9  1  0
  9 10  2  0
 10 11  1  0
 11 12  2  0
 11 13  1  0
 13 14  1  0
 14 15  2  0
 13 16  1  0
  5 17  1  0
 17 18  1  0
 18 19  1  0
 19 20  2  0
 19 21  1  0
 19 22  1  0
  7  2  1  0
 14  8  1  0
  1 23  1  0
  2 24  1  1
  3 25  1  1
  4 26  1  0
  5 27  1  6
  7 28  1  6
  9 29  1  0
 10 30  1  0
 16 31  1  0
 16 32  1  0
 16 33  1  0
 17 34  1  0
 17 35  1  0
 21 36  1  0
 22 37  1  0
M  END
>  <Ligand ID>  (1) 
LIG0004568

>  <Ligand>  (1) 
CHEMBL215940

>  <SMILES>  (1) 
O[C@@H]1[C@H](O)[C@H](O[C@H]1n1ccc(=O)n(c1=O)C)COP(=O)(O)O

>  <CID>  (1) 
44602426.0

>  <ChEMBL ID>  (1) 
nan

>  <InChiKey>  (1) 
KZSHODFDDQCIMT-ZOQUXTDFSA-N

>  <InChi>  (1) 
InChI=1S/C10H15N2O9P/c1-11-6(13)2-3-12(10(11)16)9-8(15)7(14)5(21-9)4-20-22(17,18)19/h2-3,5,7-9,14-15H,4H2,1H3,(H2,17,18,19)/t5-,7-,8-,9-/m1/s1

>  <IUPAC Name>  (1) 
[(2R,3S,4R,5R)-3,4-dihydroxy-5-(3-methyl-2,4-dioxopyrimidin-1-yl)oxolan-2-yl]methyl dihydrogen phosphate

$$$$
