
     RDKit          3D

 20 20  0  0  0  0  0  0  0  0999 V2000
   -1.1810    2.0909   -0.1365 O   0  0  0  0  0  0  0  0  0  0  0  0
   -1.8738    0.9448    0.1691 C   0  0  0  0  0  0  0  0  0  0  0  0
   -3.0751    1.1449    0.6046 O   0  0  0  0  0  0  0  0  0  0  0  0
   -1.4506   -0.4385    0.0737 C   0  0  1  0  0  0  0  0  0  0  0  0
   -0.2218   -0.8745    0.7274 C   0  0  0  0  0  0  0  0  0  0  0  0
    1.0652   -0.3207    0.3230 C   0  0  0  0  0  0  0  0  0  0  0  0
    2.1956   -0.6756    0.9563 O   0  0  0  0  0  0  0  0  0  0  0  0
    3.1839   -0.0643    0.4211 N   0  0  0  0  0  0  0  0  0  0  0  0
    2.8144    0.7326   -0.5910 C   0  0  0  0  0  0  0  0  0  0  0  0
    3.5577    1.4456   -1.2925 O   0  0  0  0  0  0  0  0  0  0  0  0
    1.4278    0.5684   -0.6605 C   0  0  0  0  0  0  0  0  0  0  0  0
   -2.5471   -1.2696    0.6054 N   0  0  0  0  0  0  0  0  0  0  0  0
   -1.6095    2.8475   -0.6851 H   0  0  0  0  0  0  0  0  0  0  0  0
   -1.3912   -0.7312   -1.0081 H   0  0  0  0  0  0  0  0  0  0  0  0
   -0.2799   -0.7682    1.8613 H   0  0  0  0  0  0  0  0  0  0  0  0
   -0.1376   -1.9966    0.5575 H   0  0  0  0  0  0  0  0  0  0  0  0
    4.1711   -0.1738    0.7378 H   0  0  0  0  0  0  0  0  0  0  0  0
    0.8468    1.0782   -1.4000 H   0  0  0  0  0  0  0  0  0  0  0  0
   -2.1851   -2.2207    0.8651 H   0  0  0  0  0  0  0  0  0  0  0  0
   -3.3098   -1.3194   -0.0966 H   0  0  0  0  0  0  0  0  0  0  0  0
  1  2  1  0
  2  3  2  0
  2  4  1  0
  4  5  1  0
  5  6  1  0
  6  7  1  0
  7  8  1  0
  8  9  1  0
  9 10  2  0
  9 11  1  0
  4 12  1  0
 11  6  2  0
  1 13  1  0
  4 14  1  6
  5 15  1  0
  5 16  1  0
  8 17  1  0
 11 18  1  0
 12 19  1  0
 12 20  1  0
M  END
>  <Ligand ID>  (1) 
LIG0000823

>  <Ligand>  (1) 
CHEMBL337075

>  <SMILES>  (1) 
OC(=O)[C@@H](Cc1o[nH]c(=O)c1)N

>  <CID>  (1) 
23872186.0

>  <ChEMBL ID>  (1) 
nan

>  <InChiKey>  (1) 
PEHXWVXZPICGAV-SCSAIBSYSA-N

>  <InChi>  (1) 
InChI=1S/C6H8N2O4/c7-4(6(10)11)1-3-2-5(9)8-12-3/h2,4H,1,7H2,(H,8,9)(H,10,11)/t4-/m1/s1

>  <IUPAC Name>  (1) 
(2R)-2-amino-3-(3-oxo-1,2-oxazol-5-yl)propanoic acid

$$$$
