
     RDKit          3D

 62 66  0  0  0  0  0  0  0  0999 V2000
   -1.5586   -4.6478   -0.7004 C   0  0  0  0  0  0  0  0  0  0  0  0
   -2.8621   -4.0675   -0.8251 O   0  0  0  0  0  0  0  0  0  0  0  0
   -3.0243   -2.7024   -0.6381 C   0  0  0  0  0  0  0  0  0  0  0  0
   -1.9383   -1.9228   -0.3364 C   0  0  0  0  0  0  0  0  0  0  0  0
   -2.1001   -0.5760   -0.1531 C   0  0  0  0  0  0  0  0  0  0  0  0
   -3.3748   -0.0652   -0.2829 C   0  0  0  0  0  0  0  0  0  0  0  0
   -4.4651   -0.8436   -0.5850 C   0  0  0  0  0  0  0  0  0  0  0  0
   -4.3005   -2.1889   -0.7687 C   0  0  0  0  0  0  0  0  0  0  0  0
   -5.3446   -3.0190   -1.0717 O   0  0  0  0  0  0  0  0  0  0  0  0
   -6.6683   -2.5825   -1.2222 C   0  0  0  0  0  0  0  0  0  0  0  0
   -3.5514    1.2621   -0.0885 N   0  0  0  0  0  0  0  0  0  0  0  0
   -2.5133    2.0655    0.2231 C   0  0  0  0  0  0  0  0  0  0  0  0
   -1.2854    1.5292    0.3397 N   0  0  0  0  0  0  0  0  0  0  0  0
   -1.0284    0.2083    0.1592 C   0  0  0  0  0  0  0  0  0  0  0  0
    0.3112   -0.1928    0.2658 N   0  0  0  0  0  0  0  0  0  0  0  0
    1.0692    0.4079    1.3812 C   0  0  0  0  0  0  0  0  0  0  0  0
    2.4692   -0.1001    1.4386 C   0  0  0  0  0  0  0  0  0  0  0  0
    3.1480   -0.0575    0.1600 N   0  0  0  0  0  0  0  0  0  0  0  0
    2.3795   -0.4262   -1.0095 C   0  0  0  0  0  0  0  0  0  0  0  0
    1.0466   -1.0629   -0.5938 C   0  0  0  0  0  0  0  0  0  0  0  0
    4.5078    0.3224    0.0043 C   0  0  0  0  0  0  0  0  0  0  0  0
    4.7397    1.4335   -0.8108 C   0  0  0  0  0  0  0  0  0  0  0  0
    6.0133    1.9026   -1.0421 C   0  0  0  0  0  0  0  0  0  0  0  0
    7.0655    1.2362   -0.4388 C   0  0  0  0  0  0  0  0  0  0  0  0
    6.8218    0.1345    0.3681 C   0  0  0  0  0  0  0  0  0  0  0  0
    5.5566   -0.3417    0.6055 C   0  0  0  0  0  0  0  0  0  0  0  0
    5.3160   -1.4230    1.3974 O   0  0  0  0  0  0  0  0  0  0  0  0
    6.2730   -2.1911    2.0682 C   0  0  0  0  0  0  0  0  0  0  0  0
   -2.7556    3.5218    0.4291 C   0  0  0  0  0  0  0  0  0  0  0  0
   -3.9576    3.8587    1.2862 C   0  0  0  0  0  0  0  0  0  0  0  0
   -4.2623    4.9913    0.3047 C   0  0  0  0  0  0  0  0  0  0  0  0
   -3.5191    4.1658   -0.7357 C   0  0  0  0  0  0  0  0  0  0  0  0
   -1.1830   -4.3463    0.3024 H   0  0  0  0  0  0  0  0  0  0  0  0
   -0.9160   -4.1921   -1.4810 H   0  0  0  0  0  0  0  0  0  0  0  0
   -1.6095   -5.7473   -0.7290 H   0  0  0  0  0  0  0  0  0  0  0  0
   -0.9873   -2.3887   -0.2352 H   0  0  0  0  0  0  0  0  0  0  0  0
   -5.4660   -0.4126   -0.6827 H   0  0  0  0  0  0  0  0  0  0  0  0
   -6.8600   -2.1399   -2.2241 H   0  0  0  0  0  0  0  0  0  0  0  0
   -7.0044   -1.9187   -0.3918 H   0  0  0  0  0  0  0  0  0  0  0  0
   -7.3071   -3.5074   -1.1524 H   0  0  0  0  0  0  0  0  0  0  0  0
    1.0669    1.5021    1.2435 H   0  0  0  0  0  0  0  0  0  0  0  0
    0.5470    0.0811    2.2932 H   0  0  0  0  0  0  0  0  0  0  0  0
    3.0399    0.5146    2.1504 H   0  0  0  0  0  0  0  0  0  0  0  0
    2.5224   -1.1572    1.7810 H   0  0  0  0  0  0  0  0  0  0  0  0
    2.2350    0.4036   -1.7310 H   0  0  0  0  0  0  0  0  0  0  0  0
    2.9493   -1.2210   -1.5458 H   0  0  0  0  0  0  0  0  0  0  0  0
    0.5025   -1.1969   -1.5363 H   0  0  0  0  0  0  0  0  0  0  0  0
    1.2905   -2.0444   -0.1700 H   0  0  0  0  0  0  0  0  0  0  0  0
    3.9321    1.9683   -1.2914 H   0  0  0  0  0  0  0  0  0  0  0  0
    6.2445    2.7509   -1.6592 H   0  0  0  0  0  0  0  0  0  0  0  0
    8.0798    1.5817   -0.6018 H   0  0  0  0  0  0  0  0  0  0  0  0
    7.6676   -0.3435    0.8096 H   0  0  0  0  0  0  0  0  0  0  0  0
    7.2248   -2.2991    1.5400 H   0  0  0  0  0  0  0  0  0  0  0  0
    6.4460   -1.8182    3.0891 H   0  0  0  0  0  0  0  0  0  0  0  0
    5.8539   -3.2366    2.1334 H   0  0  0  0  0  0  0  0  0  0  0  0
   -1.8819    4.1360    0.6830 H   0  0  0  0  0  0  0  0  0  0  0  0
   -3.7426    4.1836    2.3097 H   0  0  0  0  0  0  0  0  0  0  0  0
   -4.7772    3.1052    1.1804 H   0  0  0  0  0  0  0  0  0  0  0  0
   -3.6775    5.8803    0.5979 H   0  0  0  0  0  0  0  0  0  0  0  0
   -5.3339    5.1464    0.0810 H   0  0  0  0  0  0  0  0  0  0  0  0
   -2.9035    4.7212   -1.4514 H   0  0  0  0  0  0  0  0  0  0  0  0
   -4.1599    3.3665   -1.1805 H   0  0  0  0  0  0  0  0  0  0  0  0
  1  2  1  0
  2  3  1  0
  3  4  2  0
  4  5  1  0
  5  6  2  0
  6  7  1  0
  7  8  2  0
  8  9  1  0
  9 10  1  0
  6 11  1  0
 11 12  2  0
 12 13  1  0
 13 14  2  0
 14 15  1  0
 15 16  1  0
 16 17  1  0
 17 18  1  0
 18 19  1  0
 19 20  1  0
 18 21  1  0
 21 22  2  0
 22 23  1  0
 23 24  2  0
 24 25  1  0
 25 26  2  0
 26 27  1  0
 27 28  1  0
 12 29  1  0
 29 30  1  0
 30 31  1  0
 31 32  1  0
  8  3  1  0
 20 15  1  0
 26 21  1  0
 32 29  1  0
 14  5  1  0
  1 33  1  0
  1 34  1  0
  1 35  1  0
  4 36  1  0
  7 37  1  0
 10 38  1  0
 10 39  1  0
 10 40  1  0
 16 41  1  0
 16 42  1  0
 17 43  1  0
 17 44  1  0
 19 45  1  0
 19 46  1  0
 20 47  1  0
 20 48  1  0
 22 49  1  0
 23 50  1  0
 24 51  1  0
 25 52  1  0
 28 53  1  0
 28 54  1  0
 28 55  1  0
 29 56  1  0
 30 57  1  0
 30 58  1  0
 31 59  1  0
 31 60  1  0
 32 61  1  0
 32 62  1  0
M  END
>  <Ligand ID>  (1) 
LIG0004865

>  <Ligand>  (1) 
MLS000699290

>  <SMILES>  (1) 
COc1cc2c(cc1OC)nc(nc2N1CCN(CC1)c1ccccc1OC)C1CCC1

>  <CID>  (1) 
1230852.0

>  <ChEMBL ID>  (1) 
nan

>  <InChiKey>  (1) 
TYVVZRKDKNAKQL-UHFFFAOYSA-N

>  <InChi>  (1) 
InChI=1S/C25H30N4O3/c1-30-21-10-5-4-9-20(21)28-11-13-29(14-12-28)25-18-15-22(31-2)23(32-3)16-19(18)26-24(27-25)17-7-6-8-17/h4-5,9-10,15-17H,6-8,11-14H2,1-3H3

>  <IUPAC Name>  (1) 
2-cyclobutyl-6,7-dimethoxy-4-[4-(2-methoxyphenyl)piperazin-1-yl]quinazoline

$$$$
