
     RDKit          3D

 29 31  0  0  0  0  0  0  0  0999 V2000
    5.3625   -1.5247   -0.5845 Cl  0  0  0  0  0  0  0  0  0  0  0  0
    3.8378   -0.6730   -0.5272 C   0  0  0  0  0  0  0  0  0  0  0  0
    3.7886    0.5796   -1.1039 C   0  0  0  0  0  0  0  0  0  0  0  0
    2.5563    1.2394   -1.0442 C   0  0  0  0  0  0  0  0  0  0  0  0
    1.4751    0.6553   -0.4424 C   0  0  0  0  0  0  0  0  0  0  0  0
    1.5405   -0.5946    0.1282 C   0  0  0  0  0  0  0  0  0  0  0  0
    2.7452   -1.2654    0.0819 C   0  0  0  0  0  0  0  0  0  0  0  0
    0.4091   -1.2736    0.7910 C   0  0  0  0  0  0  0  0  0  0  0  0
   -0.8889   -0.5793    0.7534 C   0  0  1  0  0  0  0  0  0  0  0  0
   -0.8947    0.7627    0.2187 N   0  0  0  0  0  0  0  0  0  0  0  0
    0.2130    1.3822   -0.4065 C   0  0  0  0  0  0  0  0  0  0  0  0
    0.0981    2.5408   -0.9190 O   0  0  0  0  0  0  0  0  0  0  0  0
   -2.1397    1.5108    0.3425 C   0  0  0  0  0  0  0  0  0  0  0  0
   -3.3414    0.6630    0.0268 C   0  0  0  0  0  0  0  0  0  0  0  0
   -3.1984   -0.7328    0.2610 N   0  0  0  0  0  0  0  0  0  0  0  0
   -1.9333   -1.3062   -0.1057 C   0  0  0  0  0  0  0  0  0  0  0  0
    4.6553    1.0356   -1.5805 H   0  0  0  0  0  0  0  0  0  0  0  0
    2.4741    2.2387   -1.4914 H   0  0  0  0  0  0  0  0  0  0  0  0
    2.8350   -2.2511    0.5204 H   0  0  0  0  0  0  0  0  0  0  0  0
    0.3414   -2.3518    0.4941 H   0  0  0  0  0  0  0  0  0  0  0  0
    0.7104   -1.3327    1.8803 H   0  0  0  0  0  0  0  0  0  0  0  0
   -1.3690   -0.4788    1.7721 H   0  0  0  0  0  0  0  0  0  0  0  0
   -2.1336    2.4026   -0.3178 H   0  0  0  0  0  0  0  0  0  0  0  0
   -2.1898    1.8633    1.3943 H   0  0  0  0  0  0  0  0  0  0  0  0
   -4.1698    1.0134    0.6963 H   0  0  0  0  0  0  0  0  0  0  0  0
   -3.7006    0.8830   -1.0105 H   0  0  0  0  0  0  0  0  0  0  0  0
   -3.4042   -0.9821    1.2431 H   0  0  0  0  0  0  0  0  0  0  0  0
   -1.7234   -1.0509   -1.1678 H   0  0  0  0  0  0  0  0  0  0  0  0
   -1.9556   -2.3734    0.0976 H   0  0  0  0  0  0  0  0  0  0  0  0
  1  2  1  0
  2  3  2  0
  3  4  1  0
  4  5  2  0
  5  6  1  0
  6  7  2  0
  6  8  1  0
  8  9  1  0
  9 10  1  0
 10 11  1  0
 11 12  2  0
 10 13  1  0
 13 14  1  0
 14 15  1  0
 15 16  1  0
  7  2  1  0
 16  9  1  0
 11  5  1  0
  3 17  1  0
  4 18  1  0
  7 19  1  0
  8 20  1  0
  8 21  1  0
  9 22  1  1
 13 23  1  0
 13 24  1  0
 14 25  1  0
 14 26  1  0
 15 27  1  0
 16 28  1  0
 16 29  1  0
M  END
>  <Ligand ID>  (1) 
LIG0003217

>  <Ligand>  (1) 
SCHEMBL3551593

>  <SMILES>  (1) 
Clc1ccc2c(c1)C[C@H]1N(C2=O)CCNC1

>  <CID>  (1) 
58911604.0

>  <ChEMBL ID>  (1) 
nan

>  <InChiKey>  (1) 
SEPQVNVDUYDVKG-SNVBAGLBSA-N

>  <InChi>  (1) 
InChI=1S/C12H13ClN2O/c13-9-1-2-11-8(5-9)6-10-7-14-3-4-15(10)12(11)16/h1-2,5,10,14H,3-4,6-7H2/t10-/m1/s1

>  <IUPAC Name>  (1) 
(11aR)-9-chloro-1,2,3,4,11,11a-hexahydropyrazino[1,2-b]isoquinolin-6-one

$$$$
