
     RDKit          3D

 36 39  0  0  0  0  0  0  0  0999 V2000
    2.0682    2.8566    0.0519 O   0  0  0  0  0  0  0  0  0  0  0  0
    1.5734    1.7183   -0.0974 C   0  0  0  0  0  0  0  0  0  0  0  0
    2.3341    0.5338   -0.2864 N   0  0  0  0  0  0  0  0  0  0  0  0
    3.7591    0.2304   -0.3475 C   0  0  0  0  0  0  0  0  0  0  0  0
    4.0584   -0.9231    0.5849 C   0  0  0  0  0  0  0  0  0  0  0  0
    3.1556   -2.0262    0.4692 N   0  0  0  0  0  0  0  0  0  0  0  0
    1.7648   -1.6190    0.6107 C   0  0  0  0  0  0  0  0  0  0  0  0
    1.4432   -0.6159   -0.4467 C   0  0  1  0  0  0  0  0  0  0  0  0
    0.1015   -0.0291   -0.3090 C   0  0  0  0  0  0  0  0  0  0  0  0
    0.1801    1.3415   -0.1145 C   0  0  0  0  0  0  0  0  0  0  0  0
   -0.9488    2.1192    0.0344 C   0  0  0  0  0  0  0  0  0  0  0  0
   -2.1747    1.4835   -0.0165 C   0  0  0  0  0  0  0  0  0  0  0  0
   -2.2716    0.1160   -0.2096 C   0  0  0  0  0  0  0  0  0  0  0  0
   -1.1329   -0.6516   -0.3576 C   0  0  0  0  0  0  0  0  0  0  0  0
   -3.6186   -0.5346   -0.2585 C   0  0  0  0  0  0  0  0  0  0  0  0
   -3.8326   -1.8569    0.3666 C   0  0  0  0  0  0  0  0  0  0  0  0
   -3.8693   -1.6716   -1.1446 C   0  0  0  0  0  0  0  0  0  0  0  0
   -0.8317    3.5990    0.2430 C   0  0  0  0  0  0  0  0  0  0  0  0
   -0.1969    4.2235   -0.7949 F   0  0  0  0  0  0  0  0  0  0  0  0
   -2.1188    4.1124    0.3602 F   0  0  0  0  0  0  0  0  0  0  0  0
   -0.1963    3.8640    1.4270 F   0  0  0  0  0  0  0  0  0  0  0  0
    4.3745    1.0814   -0.0606 H   0  0  0  0  0  0  0  0  0  0  0  0
    4.0066   -0.0838   -1.3764 H   0  0  0  0  0  0  0  0  0  0  0  0
    5.0703   -1.2782    0.3230 H   0  0  0  0  0  0  0  0  0  0  0  0
    4.1268   -0.5563    1.6493 H   0  0  0  0  0  0  0  0  0  0  0  0
    3.3391   -2.6525    1.2834 H   0  0  0  0  0  0  0  0  0  0  0  0
    1.1465   -2.5179    0.4012 H   0  0  0  0  0  0  0  0  0  0  0  0
    1.5066   -1.2766    1.6144 H   0  0  0  0  0  0  0  0  0  0  0  0
    1.6082   -1.0629   -1.4511 H   0  0  0  0  0  0  0  0  0  0  0  0
   -3.0456    2.1066    0.1017 H   0  0  0  0  0  0  0  0  0  0  0  0
   -1.1993   -1.7098   -0.5074 H   0  0  0  0  0  0  0  0  0  0  0  0
   -4.4470    0.1922   -0.1265 H   0  0  0  0  0  0  0  0  0  0  0  0
   -3.0100   -2.5003    0.7300 H   0  0  0  0  0  0  0  0  0  0  0  0
   -4.7989   -2.0508    0.8909 H   0  0  0  0  0  0  0  0  0  0  0  0
   -4.8661   -1.8115   -1.6233 H   0  0  0  0  0  0  0  0  0  0  0  0
   -3.0578   -2.1500   -1.7395 H   0  0  0  0  0  0  0  0  0  0  0  0
  1  2  2  0
  2  3  1  0
  3  4  1  0
  4  5  1  0
  5  6  1  0
  6  7  1  0
  7  8  1  0
  8  9  1  0
  9 10  2  0
 10 11  1  0
 11 12  2  0
 12 13  1  0
 13 14  2  0
 13 15  1  0
 15 16  1  0
 16 17  1  0
 11 18  1  0
 18 19  1  0
 18 20  1  0
 18 21  1  0
 10  2  1  0
 17 15  1  0
  8  3  1  0
 14  9  1  0
  4 22  1  0
  4 23  1  0
  5 24  1  0
  5 25  1  0
  6 26  1  0
  7 27  1  0
  7 28  1  0
  8 29  1  6
 12 30  1  0
 14 31  1  0
 15 32  1  0
 16 33  1  0
 16 34  1  0
 17 35  1  0
 17 36  1  0
M  END
>  <Ligand ID>  (1) 
LIG0002949

>  <Ligand>  (1) 
CHEMBL375170

>  <SMILES>  (1) 
O=C1N2CCNC[C@H]2c2c1c(cc(c2)C1CC1)C(F)(F)F

>  <CID>  (1) 
11209786.0

>  <ChEMBL ID>  (1) 
nan

>  <InChiKey>  (1) 
SZJSOYXYBMPMRH-LBPRGKRZSA-N

>  <InChi>  (1) 
InChI=1S/C15H15F3N2O/c16-15(17,18)11-6-9(8-1-2-8)5-10-12-7-19-3-4-20(12)14(21)13(10)11/h5-6,8,12,19H,1-4,7H2/t12-/m0/s1

>  <IUPAC Name>  (1) 
(10bR)-9-cyclopropyl-7-(trifluoromethyl)-2,3,4,10b-tetrahydro-1H-pyrazino[1,2-b]isoindol-6-one

$$$$
