
     RDKit          3D

 53 57  0  0  0  0  0  0  0  0999 V2000
   -6.1259   -3.0626   -0.6153 C   0  0  0  0  0  0  0  0  0  0  0  0
   -6.0938   -2.5148    0.8038 C   0  0  0  0  0  0  0  0  0  0  0  0
   -5.4372   -1.1998    0.7466 N   0  0  0  0  0  0  0  0  0  0  0  0
   -4.1068   -0.9996    0.8822 C   0  0  0  0  0  0  0  0  0  0  0  0
   -3.1046   -1.9013    1.0917 C   0  0  0  0  0  0  0  0  0  0  0  0
   -1.8140   -1.4226    1.1941 C   0  0  0  0  0  0  0  0  0  0  0  0
   -1.5749   -0.0650    1.0836 C   0  0  0  0  0  0  0  0  0  0  0  0
   -2.5755    0.8597    0.8719 C   0  0  0  0  0  0  0  0  0  0  0  0
   -3.8731    0.3748    0.7693 C   0  0  0  0  0  0  0  0  0  0  0  0
   -5.0954    0.9974    0.5625 C   0  0  0  0  0  0  0  0  0  0  0  0
   -6.0394   -0.0105    0.5547 C   0  0  0  0  0  0  0  0  0  0  0  0
   -7.3768    0.3080    0.3654 C   0  0  0  0  0  0  0  0  0  0  0  0
   -7.7485    1.6242    0.1875 C   0  0  0  0  0  0  0  0  0  0  0  0
   -6.8004    2.6324    0.1958 C   0  0  0  0  0  0  0  0  0  0  0  0
   -5.4547    2.3259    0.3848 C   0  0  0  0  0  0  0  0  0  0  0  0
   -0.1925    0.3363    1.2047 N   0  0  0  0  0  0  0  0  0  0  0  0
    0.5464    0.3797   -0.0002 C   0  0  0  0  0  0  0  0  0  0  0  0
   -0.0255    0.0750   -1.0793 O   0  0  0  0  0  0  0  0  0  0  0  0
    1.9715    0.7844    0.0566 C   0  0  0  0  0  0  0  0  0  0  0  0
    2.6218    0.7832   -1.2962 C   0  0  0  0  0  0  0  0  0  0  0  0
    4.0399    1.1980   -1.1496 C   0  0  0  0  0  0  0  0  0  0  0  0
    4.5565    2.4062   -1.1999 O   0  0  0  0  0  0  0  0  0  0  0  0
    5.8624    2.3459   -1.0216 N   0  0  0  0  0  0  0  0  0  0  0  0
    6.2233    1.0616   -0.8480 C   0  0  0  0  0  0  0  0  0  0  0  0
    5.0741    0.3509   -0.9301 N   0  0  0  0  0  0  0  0  0  0  0  0
    7.5458    0.4900   -0.6174 C   0  0  0  0  0  0  0  0  0  0  0  0
    7.7239   -0.8893   -0.4586 C   0  0  0  0  0  0  0  0  0  0  0  0
    8.9938   -1.3842   -0.2425 C   0  0  0  0  0  0  0  0  0  0  0  0
   10.0989   -0.5564   -0.1779 C   0  0  0  0  0  0  0  0  0  0  0  0
    9.9126    0.8174   -0.3373 C   0  0  0  0  0  0  0  0  0  0  0  0
    8.6417    1.3284   -0.5551 C   0  0  0  0  0  0  0  0  0  0  0  0
    8.4966    2.6644   -0.7054 F   0  0  0  0  0  0  0  0  0  0  0  0
   -5.4856   -3.9812   -0.7077 H   0  0  0  0  0  0  0  0  0  0  0  0
   -7.1415   -3.3527   -0.8963 H   0  0  0  0  0  0  0  0  0  0  0  0
   -5.6986   -2.3425   -1.3546 H   0  0  0  0  0  0  0  0  0  0  0  0
   -5.5009   -3.1616    1.4819 H   0  0  0  0  0  0  0  0  0  0  0  0
   -7.0967   -2.4156    1.2350 H   0  0  0  0  0  0  0  0  0  0  0  0
   -3.2449   -2.9651    1.1838 H   0  0  0  0  0  0  0  0  0  0  0  0
   -1.0009   -2.1181    1.3604 H   0  0  0  0  0  0  0  0  0  0  0  0
   -2.3616    1.9027    0.7906 H   0  0  0  0  0  0  0  0  0  0  0  0
   -8.1609   -0.4397    0.3498 H   0  0  0  0  0  0  0  0  0  0  0  0
   -8.7781    1.9151    0.0371 H   0  0  0  0  0  0  0  0  0  0  0  0
   -7.0758    3.6536    0.0593 H   0  0  0  0  0  0  0  0  0  0  0  0
   -4.7140    3.1164    0.3910 H   0  0  0  0  0  0  0  0  0  0  0  0
    0.2159    0.5772    2.1480 H   0  0  0  0  0  0  0  0  0  0  0  0
    2.1359    1.7720    0.5221 H   0  0  0  0  0  0  0  0  0  0  0  0
    2.5065    0.0560    0.7005 H   0  0  0  0  0  0  0  0  0  0  0  0
    2.6270   -0.2558   -1.7374 H   0  0  0  0  0  0  0  0  0  0  0  0
    2.0680    1.3902   -2.0287 H   0  0  0  0  0  0  0  0  0  0  0  0
    6.8391   -1.5056   -0.5148 H   0  0  0  0  0  0  0  0  0  0  0  0
    9.1103   -2.4444   -0.1231 H   0  0  0  0  0  0  0  0  0  0  0  0
   11.0885   -0.9758   -0.0062 H   0  0  0  0  0  0  0  0  0  0  0  0
   10.7979    1.4370   -0.2813 H   0  0  0  0  0  0  0  0  0  0  0  0
  1  2  1  0
  2  3  1  0
  3  4  1  0
  4  5  2  0
  5  6  1  0
  6  7  2  0
  7  8  1  0
  8  9  2  0
  9 10  1  0
 10 11  2  0
 11 12  1  0
 12 13  2  0
 13 14  1  0
 14 15  2  0
  7 16  1  0
 16 17  1  0
 17 18  2  0
 17 19  1  0
 19 20  1  0
 20 21  1  0
 21 22  1  0
 22 23  1  0
 23 24  2  0
 24 25  1  0
 24 26  1  0
 26 27  2  0
 27 28  1  0
 28 29  2  0
 29 30  1  0
 30 31  2  0
 31 32  1  0
 11  3  1  0
 25 21  2  0
 31 26  1  0
  9  4  1  0
 15 10  1  0
  1 33  1  0
  1 34  1  0
  1 35  1  0
  2 36  1  0
  2 37  1  0
  5 38  1  0
  6 39  1  0
  8 40  1  0
 12 41  1  0
 13 42  1  0
 14 43  1  0
 15 44  1  0
 16 45  1  0
 19 46  1  0
 19 47  1  0
 20 48  1  0
 20 49  1  0
 27 50  1  0
 28 51  1  0
 29 52  1  0
 30 53  1  0
M  END
>  <Ligand ID>  (1) 
LIG0001916

>  <Ligand>  (1) 
CHEMBL540704

>  <SMILES>  (1) 
CCn1c2ccc(cc2c2c1cccc2)NC(=O)CCc1onc(n1)c1ccccc1F

>  <CID>  (1) 
22431127.0

>  <ChEMBL ID>  (1) 
nan

>  <InChiKey>  (1) 
BVIHFTLHUNNBFZ-UHFFFAOYSA-N

>  <InChi>  (1) 
InChI=1S/C25H21FN4O2/c1-2-30-21-10-6-4-7-17(21)19-15-16(11-12-22(19)30)27-23(31)13-14-24-28-25(29-32-24)18-8-3-5-9-20(18)26/h3-12,15H,2,13-14H2,1H3,(H,27,31)

>  <IUPAC Name>  (1) 
N-(9-ethylcarbazol-3-yl)-3-[3-(2-fluorophenyl)-1,2,4-oxadiazol-5-yl]propanamide

$$$$
