
     RDKit          3D

 54 56  0  0  0  0  0  0  0  0999 V2000
    6.7122    1.4934    2.5388 C   0  0  0  0  0  0  0  0  0  0  0  0
    6.6792    0.5669    1.4799 O   0  0  0  0  0  0  0  0  0  0  0  0
    5.5177    0.3967    0.7389 C   0  0  0  0  0  0  0  0  0  0  0  0
    5.5973   -0.5473   -0.2905 C   0  0  0  0  0  0  0  0  0  0  0  0
    4.4615   -0.7335   -1.0374 C   0  0  0  0  0  0  0  0  0  0  0  0
    3.2977   -0.0338   -0.7964 C   0  0  0  0  0  0  0  0  0  0  0  0
    3.1974    0.9023    0.2142 C   0  0  0  0  0  0  0  0  0  0  0  0
    4.3533    1.0951    0.9782 C   0  0  0  0  0  0  0  0  0  0  0  0
    2.1462   -0.3485   -1.7026 C   0  0  0  0  0  0  0  0  0  0  0  0
    1.3951   -1.4114   -1.1292 N   0  0  0  0  0  0  0  0  0  0  0  0
    0.2815   -1.8922   -1.8657 C   0  0  0  0  0  0  0  0  0  0  0  0
   -0.7997   -0.8391   -1.9025 C   0  0  0  0  0  0  0  0  0  0  0  0
   -1.2359   -0.5016   -0.5138 C   0  0  0  0  0  0  0  0  0  0  0  0
   -2.3065    0.5356   -0.4771 C   0  0  0  0  0  0  0  0  0  0  0  0
   -2.2960    1.5685    0.4133 C   0  0  0  0  0  0  0  0  0  0  0  0
   -3.3182    2.5143    0.4068 C   0  0  0  0  0  0  0  0  0  0  0  0
   -4.3727    2.4612   -0.4774 C   0  0  0  0  0  0  0  0  0  0  0  0
   -4.3778    1.4074   -1.3814 C   0  0  0  0  0  0  0  0  0  0  0  0
   -3.3603    0.4644   -1.3767 C   0  0  0  0  0  0  0  0  0  0  0  0
   -5.4011    3.3957   -0.4982 O   0  0  0  0  0  0  0  0  0  0  0  0
   -5.4111    4.4659    0.4076 C   0  0  0  0  0  0  0  0  0  0  0  0
   -1.6215   -1.6684    0.2990 C   0  0  0  0  0  0  0  0  0  0  0  0
   -2.3326   -2.7248   -0.2758 C   0  0  0  0  0  0  0  0  0  0  0  0
   -2.6900   -3.8208    0.5023 C   0  0  0  0  0  0  0  0  0  0  0  0
   -2.3675   -3.9125    1.8439 C   0  0  0  0  0  0  0  0  0  0  0  0
   -1.6651   -2.8609    2.3963 C   0  0  0  0  0  0  0  0  0  0  0  0
   -1.3052   -1.7705    1.6365 C   0  0  0  0  0  0  0  0  0  0  0  0
   -2.7176   -4.9790    2.5976 F   0  0  0  0  0  0  0  0  0  0  0  0
    6.2113    2.4453    2.2639 H   0  0  0  0  0  0  0  0  0  0  0  0
    7.7561    1.7477    2.8231 H   0  0  0  0  0  0  0  0  0  0  0  0
    6.1177    1.0659    3.3788 H   0  0  0  0  0  0  0  0  0  0  0  0
    6.4983   -1.0896   -0.4777 H   0  0  0  0  0  0  0  0  0  0  0  0
    4.5185   -1.4708   -1.8403 H   0  0  0  0  0  0  0  0  0  0  0  0
    2.2876    1.4309    0.3795 H   0  0  0  0  0  0  0  0  0  0  0  0
    4.3300    1.8229    1.7910 H   0  0  0  0  0  0  0  0  0  0  0  0
    1.4664    0.5508   -1.7754 H   0  0  0  0  0  0  0  0  0  0  0  0
    2.4965   -0.5327   -2.7307 H   0  0  0  0  0  0  0  0  0  0  0  0
    1.9235   -2.0837   -0.5677 H   0  0  0  0  0  0  0  0  0  0  0  0
   -0.1215   -2.7958   -1.3509 H   0  0  0  0  0  0  0  0  0  0  0  0
    0.5253   -2.2056   -2.9016 H   0  0  0  0  0  0  0  0  0  0  0  0
   -1.6532   -1.1575   -2.5507 H   0  0  0  0  0  0  0  0  0  0  0  0
   -0.3913    0.0616   -2.3745 H   0  0  0  0  0  0  0  0  0  0  0  0
   -0.3427   -0.0569   -0.0023 H   0  0  0  0  0  0  0  0  0  0  0  0
   -1.4808    1.6302    1.1178 H   0  0  0  0  0  0  0  0  0  0  0  0
   -3.2615    3.3160    1.1356 H   0  0  0  0  0  0  0  0  0  0  0  0
   -5.1991    1.3263   -2.1041 H   0  0  0  0  0  0  0  0  0  0  0  0
   -3.4507   -0.3228   -2.1201 H   0  0  0  0  0  0  0  0  0  0  0  0
   -5.7233    4.0666    1.3965 H   0  0  0  0  0  0  0  0  0  0  0  0
   -4.4269    4.9193    0.5295 H   0  0  0  0  0  0  0  0  0  0  0  0
   -6.1672    5.2211    0.1037 H   0  0  0  0  0  0  0  0  0  0  0  0
   -2.6183   -2.7194   -1.3169 H   0  0  0  0  0  0  0  0  0  0  0  0
   -3.2411   -4.6177    0.0189 H   0  0  0  0  0  0  0  0  0  0  0  0
   -1.3612   -2.8349    3.4398 H   0  0  0  0  0  0  0  0  0  0  0  0
   -0.7526   -0.9403    2.0713 H   0  0  0  0  0  0  0  0  0  0  0  0
  1  2  1  0
  2  3  1  0
  3  4  2  0
  4  5  1  0
  5  6  2  0
  6  7  1  0
  7  8  2  0
  6  9  1  0
  9 10  1  0
 10 11  1  0
 11 12  1  0
 12 13  1  0
 13 14  1  0
 14 15  2  0
 15 16  1  0
 16 17  2  0
 17 18  1  0
 18 19  2  0
 17 20  1  0
 20 21  1  0
 13 22  1  0
 22 23  2  0
 23 24  1  0
 24 25  2  0
 25 26  1  0
 26 27  2  0
 25 28  1  0
  8  3  1  0
 19 14  1  0
 27 22  1  0
  1 29  1  0
  1 30  1  0
  1 31  1  0
  4 32  1  0
  5 33  1  0
  7 34  1  0
  8 35  1  0
  9 36  1  0
  9 37  1  0
 10 38  1  0
 11 39  1  0
 11 40  1  0
 12 41  1  0
 12 42  1  0
 13 43  1  0
 15 44  1  0
 16 45  1  0
 18 46  1  0
 19 47  1  0
 21 48  1  0
 21 49  1  0
 21 50  1  0
 23 51  1  0
 24 52  1  0
 26 53  1  0
 27 54  1  0
M  END
>  <Ligand ID>  (1) 
LIG0004815

>  <Ligand>  (1) 
SMR000220714

>  <SMILES>  (1) 
COc1ccc(cc1)CNCCC(c1ccc(cc1)OC)c1ccc(cc1)F

>  <CID>  (1) 
3715518.0

>  <ChEMBL ID>  (1) 
nan

>  <InChiKey>  (1) 
VKNDOFXTCCPRML-UHFFFAOYSA-N

>  <InChi>  (1) 
InChI=1S/C24H26FNO2/c1-27-22-11-3-18(4-12-22)17-26-16-15-24(19-5-9-21(25)10-6-19)20-7-13-23(28-2)14-8-20/h3-14,24,26H,15-17H2,1-2H3

>  <IUPAC Name>  (1) 
3-(4-fluorophenyl)-3-(4-methoxyphenyl)-N-[(4-methoxyphenyl)methyl]propan-1-amine

$$$$
