
     RDKit          3D

 18 17  0  0  0  0  0  0  0  0999 V2000
    1.6575    0.8259   -0.1881 C   0  0  0  0  0  0  0  0  0  0  0  0
    1.0254   -0.1234    0.7563 C   0  0  0  0  0  0  0  0  0  0  0  0
   -0.3475   -0.6119    0.4350 C   0  0  0  0  0  0  0  0  0  0  0  0
   -1.3346    0.5306    0.3496 C   0  0  0  0  0  0  0  0  0  0  0  0
   -1.0031    1.4619   -0.6313 O   0  0  0  0  0  0  0  0  0  0  0  0
   -0.4560   -1.4662   -0.7771 C   0  0  0  0  0  0  0  0  0  0  0  0
    1.7490    0.4686   -1.2280 H   0  0  0  0  0  0  0  0  0  0  0  0
    2.7116    0.9369    0.1623 H   0  0  0  0  0  0  0  0  0  0  0  0
    1.2471    1.8587   -0.1274 H   0  0  0  0  0  0  0  0  0  0  0  0
    0.9248    0.4416    1.7296 H   0  0  0  0  0  0  0  0  0  0  0  0
    1.7357   -0.9402    0.9933 H   0  0  0  0  0  0  0  0  0  0  0  0
   -0.6608   -1.2210    1.3099 H   0  0  0  0  0  0  0  0  0  0  0  0
   -1.4137    1.0100    1.3560 H   0  0  0  0  0  0  0  0  0  0  0  0
   -2.3613    0.1729    0.1266 H   0  0  0  0  0  0  0  0  0  0  0  0
   -1.8234    1.8728   -0.9830 H   0  0  0  0  0  0  0  0  0  0  0  0
   -0.7606   -0.8993   -1.7003 H   0  0  0  0  0  0  0  0  0  0  0  0
   -1.3023   -2.1893   -0.6269 H   0  0  0  0  0  0  0  0  0  0  0  0
    0.4122   -2.1287   -0.9564 H   0  0  0  0  0  0  0  0  0  0  0  0
  1  2  1  0
  2  3  1  0
  3  4  1  0
  4  5  1  0
  3  6  1  0
  1  7  1  0
  1  8  1  0
  1  9  1  0
  2 10  1  0
  2 11  1  0
  3 12  1  0
  4 13  1  0
  4 14  1  0
  5 15  1  0
  6 16  1  0
  6 17  1  0
  6 18  1  0
M  END
>  <Ligand ID>  (1) 
LIG0000373

>  <Ligand>  (1) 
2-methylbutan-1-ol

>  <SMILES>  (1) 
CCC(CO)C

>  <CID>  (1) 
8723.0

>  <ChEMBL ID>  (1) 
nan

>  <InChiKey>  (1) 
QPRQEDXDYOZYLA-UHFFFAOYSA-N

>  <InChi>  (1) 
InChI=1S/C5H12O/c1-3-5(2)4-6/h5-6H,3-4H2,1-2H3

>  <IUPAC Name>  (1) 
2-methylbutan-1-ol

$$$$
