
     RDKit          3D

 36 38  0  0  0  0  0  0  0  0999 V2000
    1.7007   -2.4567   -1.1562 O   0  0  0  0  0  0  0  0  0  0  0  0
    0.7025   -2.0063   -0.7349 N   0  0  0  0  0  0  0  0  0  0  0  0
    0.4489   -0.6102   -0.5473 C   0  0  0  0  0  0  0  0  0  0  0  0
   -0.9730   -0.4863   -0.1251 C   0  0  0  0  0  0  0  0  0  0  0  0
   -1.7422   -1.3614    0.6091 C   0  0  0  0  0  0  0  0  0  0  0  0
   -2.9876   -0.8804    0.7788 N   0  0  0  0  0  0  0  0  0  0  0  0
   -3.0252    0.3104    0.1523 C   0  0  0  0  0  0  0  0  0  0  0  0
   -1.7969    0.5893   -0.4196 C   0  0  0  0  0  0  0  0  0  0  0  0
   -1.6348    1.7784   -1.1139 C   0  0  0  0  0  0  0  0  0  0  0  0
   -2.6926    2.6582   -1.2227 C   0  0  0  0  0  0  0  0  0  0  0  0
   -3.9105    2.3723   -0.6507 C   0  0  0  0  0  0  0  0  0  0  0  0
   -4.0858    1.1876    0.0458 C   0  0  0  0  0  0  0  0  0  0  0  0
   -4.0513   -1.5624    1.5106 C   0  0  0  0  0  0  0  0  0  0  0  0
    1.2952   -0.0029    0.5242 C   0  0  0  0  0  0  0  0  0  0  0  0
    2.7483   -0.1122    0.2525 C   0  0  0  0  0  0  0  0  0  0  0  0
    3.4934   -1.2089    0.6873 C   0  0  0  0  0  0  0  0  0  0  0  0
    4.8400   -1.2879    0.4233 C   0  0  0  0  0  0  0  0  0  0  0  0
    5.4124   -0.2514   -0.2792 C   0  0  0  0  0  0  0  0  0  0  0  0
    4.6907    0.8446   -0.7190 C   0  0  0  0  0  0  0  0  0  0  0  0
    3.3378    0.9171   -0.4500 C   0  0  0  0  0  0  0  0  0  0  0  0
    0.5686   -0.1189   -1.5126 H   0  0  0  0  0  0  0  0  0  0  0  0
   -1.3671   -2.3055    0.9872 H   0  0  0  0  0  0  0  0  0  0  0  0
   -0.6624    1.9589   -1.5449 H   0  0  0  0  0  0  0  0  0  0  0  0
   -2.5027    3.5813   -1.7837 H   0  0  0  0  0  0  0  0  0  0  0  0
   -4.6947    3.0970   -0.7703 H   0  0  0  0  0  0  0  0  0  0  0  0
   -5.0579    0.9563    0.5040 H   0  0  0  0  0  0  0  0  0  0  0  0
   -4.0115   -2.6462    1.2560 H   0  0  0  0  0  0  0  0  0  0  0  0
   -5.0386   -1.1508    1.1884 H   0  0  0  0  0  0  0  0  0  0  0  0
   -3.9571   -1.4000    2.6076 H   0  0  0  0  0  0  0  0  0  0  0  0
    1.0136    1.0493    0.6409 H   0  0  0  0  0  0  0  0  0  0  0  0
    1.0961   -0.5280    1.4784 H   0  0  0  0  0  0  0  0  0  0  0  0
    2.9929   -2.0002    1.2381 H   0  0  0  0  0  0  0  0  0  0  0  0
    5.4357   -2.1223    0.7475 H   0  0  0  0  0  0  0  0  0  0  0  0
    6.4722   -0.2459   -0.5244 H   0  0  0  0  0  0  0  0  0  0  0  0
    5.1629    1.6631   -1.2784 H   0  0  0  0  0  0  0  0  0  0  0  0
    2.7799    1.7811   -0.7992 H   0  0  0  0  0  0  0  0  0  0  0  0
  1  2  2  0
  2  3  1  0
  3  4  1  0
  4  5  2  0
  5  6  1  0
  6  7  1  0
  7  8  2  0
  8  9  1  0
  9 10  2  0
 10 11  1  0
 11 12  2  0
  6 13  1  0
  3 14  1  0
 14 15  1  0
 15 16  2  0
 16 17  1  0
 17 18  2  0
 18 19  1  0
 19 20  2  0
  8  4  1  0
 20 15  1  0
 12  7  1  0
  3 21  1  0
  5 22  1  0
  9 23  1  0
 10 24  1  0
 11 25  1  0
 12 26  1  0
 13 27  1  0
 13 28  1  0
 13 29  1  0
 14 30  1  0
 14 31  1  0
 16 32  1  0
 17 33  1  0
 18 34  1  0
 19 35  1  0
 20 36  1  0
M  END
>  <Ligand ID>  (1) 
LIG0004573

>  <Ligand>  (1) 
cid_675623

>  <SMILES>  (1) 
O=NC(c1cn(c2c1cccc2)C)Cc1ccccc1

>  <CID>  (1) 
91896120.0

>  <ChEMBL ID>  (1) 
nan

>  <InChiKey>  (1) 
HIJKGZDCOHACGB-UHFFFAOYSA-N

>  <InChi>  (1) 
InChI=1S/C17H16N2O/c1-19-12-15(14-9-5-6-10-17(14)19)16(18-20)11-13-7-3-2-4-8-13/h2-10,12,16H,11H2,1H3

>  <IUPAC Name>  (1) 
1-methyl-3-(1-nitroso-2-phenylethyl)indole

$$$$
