
     RDKit          3D

 91 95  0  0  0  0  0  0  0  0999 V2000
   -7.8815    1.1091    1.6560 C   0  0  0  0  0  0  0  0  0  0  0  0
   -6.6045    0.6399    2.3077 C   0  0  0  0  0  0  0  0  0  0  0  0
   -5.8121   -0.2398    1.3520 C   0  0  0  0  0  0  0  0  0  0  0  0
   -4.5907   -0.6463    2.1057 C   0  0  0  0  0  0  0  0  0  0  0  0
   -4.4887   -0.2291    3.2639 O   0  0  0  0  0  0  0  0  0  0  0  0
   -3.5353   -1.5156    1.4977 C   0  0  0  0  0  0  0  0  0  0  0  0
   -2.5198   -1.8288    2.5731 C   0  0  0  0  0  0  0  0  0  0  0  0
   -1.6660   -0.6572    2.9454 C   0  0  0  0  0  0  0  0  0  0  0  0
   -1.3269    0.2130    1.8425 N   0  0  0  0  0  0  0  0  0  0  0  0
   -2.3823    0.5469    0.9125 C   0  0  0  0  0  0  0  0  0  0  0  0
   -2.8415   -0.8229    0.3668 C   0  0  0  0  0  0  0  0  0  0  0  0
    0.0121    0.6467    1.7353 C   0  0  0  0  0  0  0  0  0  0  0  0
    0.8280    0.2142    2.5944 O   0  0  0  0  0  0  0  0  0  0  0  0
    0.4712    1.5903    0.6349 C   0  0  2  0  0  0  0  0  0  0  0  0
    1.9522    1.5675    0.6671 N   0  0  0  0  0  0  0  0  0  0  0  0
    2.5231    0.4557    0.0067 C   0  0  0  0  0  0  0  0  0  0  0  0
    1.7563   -0.3764   -0.5165 O   0  0  0  0  0  0  0  0  0  0  0  0
    4.0047    0.2138   -0.0972 C   0  0  2  0  0  0  0  0  0  0  0  0
    4.1326   -1.1653   -0.5903 N   0  0  0  0  0  0  0  0  0  0  0  0
    4.2674   -1.5051   -1.9510 C   0  0  0  0  0  0  0  0  0  0  0  0
    4.2870   -0.6435   -2.8590 O   0  0  0  0  0  0  0  0  0  0  0  0
    4.3858   -2.9308   -2.3223 C   0  0  0  0  0  0  0  0  0  0  0  0
    4.3361   -3.3244   -3.6545 C   0  0  0  0  0  0  0  0  0  0  0  0
    4.4435   -4.6410   -4.0506 C   0  0  0  0  0  0  0  0  0  0  0  0
    4.6085   -5.6146   -3.0743 C   0  0  0  0  0  0  0  0  0  0  0  0
    4.6580   -5.2311   -1.7597 C   0  0  0  0  0  0  0  0  0  0  0  0
    4.5497   -3.8991   -1.3552 C   0  0  0  0  0  0  0  0  0  0  0  0
    4.6801    0.3821    1.2241 C   0  0  0  0  0  0  0  0  0  0  0  0
    6.1374    0.1261    1.1951 C   0  0  0  0  0  0  0  0  0  0  0  0
    7.1899    0.9103    0.9683 N   0  0  0  0  0  0  0  0  0  0  0  0
    8.2935    0.1461    1.0732 C   0  0  0  0  0  0  0  0  0  0  0  0
    7.9775   -1.1306    1.3666 N   0  0  0  0  0  0  0  0  0  0  0  0
    6.6329   -1.1626    1.4468 C   0  0  0  0  0  0  0  0  0  0  0  0
   -0.0315    2.9468    0.9170 C   0  0  0  0  0  0  0  0  0  0  0  0
    0.3144    3.9901   -0.0767 C   0  0  0  0  0  0  0  0  0  0  0  0
    1.4519    4.7650   -0.0062 C   0  0  0  0  0  0  0  0  0  0  0  0
    1.7221    5.7623   -0.9539 C   0  0  0  0  0  0  0  0  0  0  0  0
    0.8502    6.0000   -1.9935 C   0  0  0  0  0  0  0  0  0  0  0  0
   -0.2942    5.2306   -2.0784 C   0  0  0  0  0  0  0  0  0  0  0  0
   -0.5523    4.2474   -1.1373 C   0  0  0  0  0  0  0  0  0  0  0  0
    1.1560    6.9953   -2.9030 O   0  0  0  0  0  0  0  0  0  0  0  0
    0.2816    7.2826   -3.9843 C   0  0  0  0  0  0  0  0  0  0  0  0
   -4.1458   -2.8133    1.0494 C   0  0  0  0  0  0  0  0  0  0  0  0
   -3.7883   -3.2751   -0.1966 C   0  0  0  0  0  0  0  0  0  0  0  0
   -4.2805   -4.4507   -0.7357 C   0  0  0  0  0  0  0  0  0  0  0  0
   -5.1804   -5.1693    0.0600 C   0  0  0  0  0  0  0  0  0  0  0  0
   -5.5367   -4.7021    1.3101 C   0  0  0  0  0  0  0  0  0  0  0  0
   -5.0323   -3.5165    1.8384 C   0  0  0  0  0  0  0  0  0  0  0  0
   -8.2364    0.3590    0.9167 H   0  0  0  0  0  0  0  0  0  0  0  0
   -7.7843    2.1255    1.2274 H   0  0  0  0  0  0  0  0  0  0  0  0
   -8.6515    1.1903    2.4554 H   0  0  0  0  0  0  0  0  0  0  0  0
   -6.0387    1.5563    2.5716 H   0  0  0  0  0  0  0  0  0  0  0  0
   -6.8432    0.1183    3.2396 H   0  0  0  0  0  0  0  0  0  0  0  0
   -5.4592    0.3951    0.5156 H   0  0  0  0  0  0  0  0  0  0  0  0
   -6.4038   -1.0900    0.9916 H   0  0  0  0  0  0  0  0  0  0  0  0
   -3.1269   -2.0562    3.5037 H   0  0  0  0  0  0  0  0  0  0  0  0
   -1.8956   -2.7050    2.2951 H   0  0  0  0  0  0  0  0  0  0  0  0
   -2.1386   -0.0326    3.7349 H   0  0  0  0  0  0  0  0  0  0  0  0
   -0.7364   -1.0890    3.4060 H   0  0  0  0  0  0  0  0  0  0  0  0
   -3.2289    1.0781    1.3622 H   0  0  0  0  0  0  0  0  0  0  0  0
   -2.0272    1.0997    0.0154 H   0  0  0  0  0  0  0  0  0  0  0  0
   -1.9015   -1.3486    0.1183 H   0  0  0  0  0  0  0  0  0  0  0  0
   -3.4603   -0.6184   -0.5217 H   0  0  0  0  0  0  0  0  0  0  0  0
    0.1560    1.1927   -0.3252 H   0  0  0  0  0  0  0  0  0  0  0  0
    2.5191    2.2905    1.1270 H   0  0  0  0  0  0  0  0  0  0  0  0
    4.3632    0.9345   -0.8747 H   0  0  0  0  0  0  0  0  0  0  0  0
    4.1098   -1.8834    0.1970 H   0  0  0  0  0  0  0  0  0  0  0  0
    4.2053   -2.5865   -4.4381 H   0  0  0  0  0  0  0  0  0  0  0  0
    4.4023   -4.9384   -5.1110 H   0  0  0  0  0  0  0  0  0  0  0  0
    4.6951   -6.6519   -3.3725 H   0  0  0  0  0  0  0  0  0  0  0  0
    4.7892   -5.9949   -0.9869 H   0  0  0  0  0  0  0  0  0  0  0  0
    4.6059   -3.7116   -0.2991 H   0  0  0  0  0  0  0  0  0  0  0  0
    4.1937   -0.2923    1.9703 H   0  0  0  0  0  0  0  0  0  0  0  0
    4.5527    1.4505    1.5423 H   0  0  0  0  0  0  0  0  0  0  0  0
    7.1098    1.9255    0.7520 H   0  0  0  0  0  0  0  0  0  0  0  0
    9.2910    0.5411    0.9335 H   0  0  0  0  0  0  0  0  0  0  0  0
    6.0711   -2.0538    1.6718 H   0  0  0  0  0  0  0  0  0  0  0  0
   -1.1451    2.9858    1.0158 H   0  0  0  0  0  0  0  0  0  0  0  0
    0.4247    3.3358    1.8902 H   0  0  0  0  0  0  0  0  0  0  0  0
    2.1596    4.6194    0.7872 H   0  0  0  0  0  0  0  0  0  0  0  0
    2.6437    6.3347   -0.8303 H   0  0  0  0  0  0  0  0  0  0  0  0
   -1.0083    5.3994   -2.8978 H   0  0  0  0  0  0  0  0  0  0  0  0
   -1.4676    3.6917   -1.2816 H   0  0  0  0  0  0  0  0  0  0  0  0
    0.1759    6.3590   -4.5866 H   0  0  0  0  0  0  0  0  0  0  0  0
    0.6166    8.1518   -4.5535 H   0  0  0  0  0  0  0  0  0  0  0  0
   -0.7167    7.4955   -3.5145 H   0  0  0  0  0  0  0  0  0  0  0  0
   -3.0987   -2.7148   -0.8012 H   0  0  0  0  0  0  0  0  0  0  0  0
   -4.0080   -4.8201   -1.7185 H   0  0  0  0  0  0  0  0  0  0  0  0
   -5.5725   -6.0853   -0.3496 H   0  0  0  0  0  0  0  0  0  0  0  0
   -6.2498   -5.3059    1.8957 H   0  0  0  0  0  0  0  0  0  0  0  0
   -5.2979   -3.1424    2.8073 H   0  0  0  0  0  0  0  0  0  0  0  0
  1  2  1  0
  2  3  1  0
  3  4  1  0
  4  5  2  0
  4  6  1  0
  6  7  1  0
  7  8  1  0
  8  9  1  0
  9 10  1  0
 10 11  1  0
  9 12  1  0
 12 13  2  0
 12 14  1  0
 14 15  1  0
 15 16  1  0
 16 17  2  0
 16 18  1  0
 18 19  1  0
 19 20  1  0
 20 21  2  0
 20 22  1  0
 22 23  2  0
 23 24  1  0
 24 25  2  0
 25 26  1  0
 26 27  2  0
 18 28  1  0
 28 29  1  0
 29 30  1  0
 30 31  1  0
 31 32  2  0
 32 33  1  0
 14 34  1  0
 34 35  1  0
 35 36  2  0
 36 37  1  0
 37 38  2  0
 38 39  1  0
 39 40  2  0
 38 41  1  0
 41 42  1  0
  6 43  1  0
 43 44  2  0
 44 45  1  0
 45 46  2  0
 46 47  1  0
 47 48  2  0
 11  6  1  0
 27 22  1  0
 33 29  2  0
 40 35  1  0
 48 43  1  0
  1 49  1  0
  1 50  1  0
  1 51  1  0
  2 52  1  0
  2 53  1  0
  3 54  1  0
  3 55  1  0
  7 56  1  0
  7 57  1  0
  8 58  1  0
  8 59  1  0
 10 60  1  0
 10 61  1  0
 11 62  1  0
 11 63  1  0
 14 64  1  6
 15 65  1  0
 18 66  1  6
 19 67  1  0
 23 68  1  0
 24 69  1  0
 25 70  1  0
 26 71  1  0
 27 72  1  0
 28 73  1  0
 28 74  1  0
 30 75  1  0
 31 76  1  0
 33 77  1  0
 34 78  1  0
 34 79  1  0
 36 80  1  0
 37 81  1  0
 39 82  1  0
 40 83  1  0
 42 84  1  0
 42 85  1  0
 42 86  1  0
 44 87  1  0
 45 88  1  0
 46 89  1  0
 47 90  1  0
 48 91  1  0
M  END
>  <Ligand ID>  (1) 
LIG0001759

>  <Ligand>  (1) 
CHEMBL13910

>  <SMILES>  (1) 
CCCC(=O)C1(CCN(CC1)C(=O)[C@H](NC(=O)[C@H](NC(=O)c1ccccc1)Cc1[nH]cnc1)Cc1ccc(cc1)OC)c1ccccc1

>  <CID>  (1) 
44269217.0

>  <ChEMBL ID>  (1) 
nan

>  <InChiKey>  (1) 
LNJORQHQDHIPBT-CZNDPXEESA-N

>  <InChi>  (1) 
InChI=1S/C38H43N5O5/c1-3-10-34(44)38(29-13-8-5-9-14-29)19-21-43(22-20-38)37(47)33(23-27-15-17-31(48-2)18-16-27)42-36(46)32(24-30-25-39-26-40-30)41-35(45)28-11-6-4-7-12-28/h4-9,11-18,25-26,32-33H,3,10,19-24H2,1-2H3,(H,39,40)(H,41,45)(H,42,46)/t32-,33-/m1/s1

>  <IUPAC Name>  (1) 
N-[(2R)-1-[[(2R)-1-(4-butanoyl-4-phenylpiperidin-1-yl)-3-(4-methoxyphenyl)-1-oxopropan-2-yl]amino]-3-(1H-imidazol-5-yl)-1-oxopropan-2-yl]benzamide

$$$$
