
     RDKit          3D

 32 31  0  0  0  0  0  0  0  0999 V2000
    5.8153    0.7035    0.5318 O   0  0  0  0  0  0  0  0  0  0  0  0
    4.6622    0.1623    1.0913 C   0  0  0  0  0  0  0  0  0  0  0  0
    4.5209   -0.0287    2.3249 O   0  0  0  0  0  0  0  0  0  0  0  0
    3.5722   -0.1880    0.1125 C   0  0  0  0  0  0  0  0  0  0  0  0
    2.4169   -0.7578    0.9297 C   0  0  0  0  0  0  0  0  0  0  0  0
    1.2611   -1.1436    0.0225 C   0  0  0  0  0  0  0  0  0  0  0  0
    0.6277    0.2595   -0.9037 P   0  0  0  0  0  0  0  0  0  0  0  0
    0.7820    1.5572   -0.1796 O   0  0  0  0  0  0  0  0  0  0  0  0
   -1.1654    0.0394   -1.2395 C   0  0  0  0  0  0  0  0  0  0  0  0
   -1.9785    0.7528   -0.1955 C   0  0  0  0  0  0  0  0  0  0  0  0
   -3.4450    0.6464   -0.4095 C   0  0  1  0  0  0  0  0  0  0  0  0
   -3.8787   -0.7629   -0.3827 C   0  0  0  0  0  0  0  0  0  0  0  0
   -3.5273   -1.6408   -1.2085 O   0  0  0  0  0  0  0  0  0  0  0  0
   -4.7539   -1.2125    0.6249 O   0  0  0  0  0  0  0  0  0  0  0  0
   -4.2016    1.3657    0.6020 N   0  0  0  0  0  0  0  0  0  0  0  0
    1.4990    0.3723   -2.3525 O   0  0  0  0  0  0  0  0  0  0  0  0
    6.4949    1.0989    1.1448 H   0  0  0  0  0  0  0  0  0  0  0  0
    3.2930    0.7820   -0.3453 H   0  0  0  0  0  0  0  0  0  0  0  0
    3.9570   -0.9304   -0.6032 H   0  0  0  0  0  0  0  0  0  0  0  0
    2.7289   -1.6783    1.4601 H   0  0  0  0  0  0  0  0  0  0  0  0
    2.0597    0.0290    1.6031 H   0  0  0  0  0  0  0  0  0  0  0  0
    1.5973   -1.9646   -0.6497 H   0  0  0  0  0  0  0  0  0  0  0  0
    0.4486   -1.5484    0.6478 H   0  0  0  0  0  0  0  0  0  0  0  0
   -1.3572   -1.0665   -1.1476 H   0  0  0  0  0  0  0  0  0  0  0  0
   -1.4028    0.4197   -2.2427 H   0  0  0  0  0  0  0  0  0  0  0  0
   -1.6872    1.8431   -0.2857 H   0  0  0  0  0  0  0  0  0  0  0  0
   -1.6702    0.4647    0.8412 H   0  0  0  0  0  0  0  0  0  0  0  0
   -3.7287    1.1288   -1.3886 H   0  0  0  0  0  0  0  0  0  0  0  0
   -5.2827   -2.0594    0.4662 H   0  0  0  0  0  0  0  0  0  0  0  0
   -4.9141    0.8099    1.0829 H   0  0  0  0  0  0  0  0  0  0  0  0
   -3.6617    2.0397    1.1524 H   0  0  0  0  0  0  0  0  0  0  0  0
    0.9181    0.5069   -3.1372 H   0  0  0  0  0  0  0  0  0  0  0  0
  1  2  1  0
  2  3  2  0
  2  4  1  0
  4  5  1  0
  5  6  1  0
  6  7  1  0
  7  8  2  0
  7  9  1  0
  9 10  1  0
 10 11  1  0
 11 12  1  0
 12 13  2  0
 12 14  1  0
 11 15  1  0
  7 16  1  0
  1 17  1  0
  4 18  1  0
  4 19  1  0
  5 20  1  0
  5 21  1  0
  6 22  1  0
  6 23  1  0
  9 24  1  0
  9 25  1  0
 10 26  1  0
 10 27  1  0
 11 28  1  6
 14 29  1  0
 15 30  1  0
 15 31  1  0
 16 32  1  0
M  END
>  <Ligand ID>  (1) 
LIG0005077

>  <Ligand>  (1) 
CHEMBL1093009

>  <SMILES>  (1) 
OC(=O)CCCP(=O)(CC[C@@H](C(=O)O)N)O

>  <CID>  (1) 
46197776.0

>  <ChEMBL ID>  (1) 
nan

>  <InChiKey>  (1) 
UWTAKVXESRYQRN-LURJTMIESA-N

>  <InChi>  (1) 
InChI=1S/C8H16NO6P/c9-6(8(12)13)3-5-16(14,15)4-1-2-7(10)11/h6H,1-5,9H2,(H,10,11)(H,12,13)(H,14,15)/t6-/m0/s1

>  <IUPAC Name>  (1) 
(2S)-2-amino-4-[3-carboxypropyl(hydroxy)phosphoryl]butanoic acid

$$$$
