
     RDKit          3D

135137  0  0  0  0  0  0  0  0999 V2000
   -7.0970    1.3903   -1.5114 C   0  0  0  0  0  0  0  0  0  0  0  0
   -6.0734    2.3489   -2.0431 C   0  0  0  0  0  0  0  0  0  0  0  0
   -4.7213    1.7926   -2.2394 C   0  0  1  0  0  0  0  0  0  0  0  0
   -3.9929    1.2820   -1.0191 C   0  0  2  0  0  0  0  0  0  0  0  0
   -4.7666    0.2446   -0.3906 N   0  0  0  0  0  0  0  0  0  0  0  0
   -4.4093   -1.0964   -0.6760 C   0  0  0  0  0  0  0  0  0  0  0  0
   -3.4330   -1.2853   -1.3970 O   0  0  0  0  0  0  0  0  0  0  0  0
   -5.1260   -2.3248   -0.1681 C   0  0  2  0  0  0  0  0  0  0  0  0
   -5.2961   -2.3534    1.2900 C   0  0  0  0  0  0  0  0  0  0  0  0
   -5.9877   -3.5523    1.7831 C   0  0  0  0  0  0  0  0  0  0  0  0
   -5.2675   -4.6728    2.1242 C   0  0  0  0  0  0  0  0  0  0  0  0
   -5.9152   -5.8113    2.6069 C   0  0  0  0  0  0  0  0  0  0  0  0
   -7.2743   -5.8640    2.7609 C   0  0  0  0  0  0  0  0  0  0  0  0
   -8.0076   -4.7408    2.4201 C   0  0  0  0  0  0  0  0  0  0  0  0
   -7.3568   -3.6211    1.9434 C   0  0  0  0  0  0  0  0  0  0  0  0
   -7.9668   -6.9609    3.2334 O   0  0  0  0  0  0  0  0  0  0  0  0
   -4.4150   -3.4878   -0.7443 N   0  0  0  0  0  0  0  0  0  0  0  0
   -3.0318   -3.7220   -0.3513 C   0  0  0  0  0  0  0  0  0  0  0  0
   -2.6743   -2.9777    0.5535 O   0  0  0  0  0  0  0  0  0  0  0  0
   -2.1920   -4.7714   -1.0140 C   0  0  1  0  0  0  0  0  0  0  0  0
   -2.9628   -5.4053   -2.0582 N   0  0  0  0  0  0  0  0  0  0  0  0
   -0.9084   -4.1902   -1.5126 C   0  0  0  0  0  0  0  0  0  0  0  0
    0.3137   -4.0037   -0.2276 S   0  0  0  0  0  0  0  0  0  0  0  0
   -0.2691   -3.1007    1.5153 S   0  0  0  0  0  0  0  0  0  0  0  0
   -0.2035   -1.3715    1.5838 C   0  0  0  0  0  0  0  0  0  0  0  0
    1.1023   -0.6102    1.6332 C   0  0  2  0  0  0  0  0  0  0  0  0
    0.6126    0.7779    1.6817 N   0  0  0  0  0  0  0  0  0  0  0  0
    0.7228    1.6315    2.8075 C   0  0  0  0  0  0  0  0  0  0  0  0
    1.4140    1.1892    3.7379 O   0  0  0  0  0  0  0  0  0  0  0  0
    0.0493    2.9514    2.8191 C   0  0  1  0  0  0  0  0  0  0  0  0
   -0.8812    3.0598    1.6834 N   0  0  0  0  0  0  0  0  0  0  0  0
   -1.1539    4.2810    1.0248 C   0  0  0  0  0  0  0  0  0  0  0  0
   -0.5844    5.2788    1.5016 O   0  0  0  0  0  0  0  0  0  0  0  0
   -2.0333    4.4765   -0.1470 C   0  0  1  0  0  0  0  0  0  0  0  0
   -2.6003    3.3293   -0.7430 N   0  0  0  0  0  0  0  0  0  0  0  0
   -3.5699    2.4183   -0.1824 C   0  0  0  0  0  0  0  0  0  0  0  0
   -3.9484    2.6884    0.9566 O   0  0  0  0  0  0  0  0  0  0  0  0
   -3.0174    5.6050    0.0829 C   0  0  0  0  0  0  0  0  0  0  0  0
   -3.8878    5.8171   -1.0953 C   0  0  0  0  0  0  0  0  0  0  0  0
   -3.1748    6.2037   -2.3246 C   0  0  0  0  0  0  0  0  0  0  0  0
   -1.9680    6.4506   -2.4418 O   0  0  0  0  0  0  0  0  0  0  0  0
   -3.9616    6.3114   -3.5330 N   0  0  0  0  0  0  0  0  0  0  0  0
   -0.7108    3.1582    4.1191 C   0  0  0  0  0  0  0  0  0  0  0  0
   -1.7356    2.1059    4.2371 C   0  0  0  0  0  0  0  0  0  0  0  0
   -1.9772    1.2542    3.3392 O   0  0  0  0  0  0  0  0  0  0  0  0
   -2.5154    2.0159    5.4227 N   0  0  0  0  0  0  0  0  0  0  0  0
    2.0092   -0.9214    0.5610 C   0  0  0  0  0  0  0  0  0  0  0  0
    2.3294   -2.1631    0.4171 O   0  0  0  0  0  0  0  0  0  0  0  0
    2.6134   -0.0377   -0.3726 N   0  0  0  0  0  0  0  0  0  0  0  0
    2.4233    1.4023   -0.3956 C   0  0  0  0  0  0  0  0  0  0  0  0
    3.6350    1.8791   -1.2229 C   0  0  0  0  0  0  0  0  0  0  0  0
    3.6794    0.7821   -2.2864 C   0  0  0  0  0  0  0  0  0  0  0  0
    3.5314   -0.4404   -1.4450 C   0  0  1  0  0  0  0  0  0  0  0  0
    4.8401   -0.8514   -0.8956 C   0  0  0  0  0  0  0  0  0  0  0  0
    4.8689   -1.8678   -0.1267 O   0  0  0  0  0  0  0  0  0  0  0  0
    6.0700   -0.2188   -1.1417 N   0  0  0  0  0  0  0  0  0  0  0  0
    7.3393   -0.6710   -0.5886 C   0  0  2  0  0  0  0  0  0  0  0  0
    7.5127   -0.0918    0.8006 C   0  0  0  0  0  0  0  0  0  0  0  0
    6.6228    0.6590    1.3034 O   0  0  0  0  0  0  0  0  0  0  0  0
    8.6965   -0.4198    1.5114 N   0  0  0  0  0  0  0  0  0  0  0  0
    8.9289    0.0938    2.8497 C   0  0  0  0  0  0  0  0  0  0  0  0
   10.2626   -0.4435    3.2967 C   0  0  0  0  0  0  0  0  0  0  0  0
   10.6317   -0.0994    4.4495 O   0  0  0  0  0  0  0  0  0  0  0  0
   11.0590   -1.2769    2.4918 N   0  0  0  0  0  0  0  0  0  0  0  0
    8.5030   -0.3600   -1.4492 C   0  0  0  0  0  0  0  0  0  0  0  0
    8.4662   -0.9640   -2.8296 C   0  0  0  0  0  0  0  0  0  0  0  0
    9.7232   -0.5446   -3.5786 C   0  0  0  0  0  0  0  0  0  0  0  0
    8.4383   -2.4868   -2.8105 C   0  0  0  0  0  0  0  0  0  0  0  0
   -4.6863    0.7246   -3.3149 C   0  0  0  0  0  0  0  0  0  0  0  0
   -7.3603    1.5461   -0.4648 H   0  0  0  0  0  0  0  0  0  0  0  0
   -6.8172    0.3227   -1.6865 H   0  0  0  0  0  0  0  0  0  0  0  0
   -8.0483    1.5551   -2.1027 H   0  0  0  0  0  0  0  0  0  0  0  0
   -5.9854    3.1756   -1.2710 H   0  0  0  0  0  0  0  0  0  0  0  0
   -6.4770    2.8304   -2.9830 H   0  0  0  0  0  0  0  0  0  0  0  0
   -4.0703    2.6207   -2.6349 H   0  0  0  0  0  0  0  0  0  0  0  0
   -3.0212    0.8509   -1.4234 H   0  0  0  0  0  0  0  0  0  0  0  0
   -5.5371    0.3563    0.2668 H   0  0  0  0  0  0  0  0  0  0  0  0
   -6.0950   -2.3018   -0.7150 H   0  0  0  0  0  0  0  0  0  0  0  0
   -4.3682   -2.1781    1.8725 H   0  0  0  0  0  0  0  0  0  0  0  0
   -5.9620   -1.4747    1.5529 H   0  0  0  0  0  0  0  0  0  0  0  0
   -4.1943   -4.7558    2.0537 H   0  0  0  0  0  0  0  0  0  0  0  0
   -5.3448   -6.6954    2.8760 H   0  0  0  0  0  0  0  0  0  0  0  0
   -9.0775   -4.7366    2.5270 H   0  0  0  0  0  0  0  0  0  0  0  0
   -7.9298   -2.7579    1.6826 H   0  0  0  0  0  0  0  0  0  0  0  0
   -7.7554   -7.9230    2.9355 H   0  0  0  0  0  0  0  0  0  0  0  0
   -4.7917   -4.1529   -1.3903 H   0  0  0  0  0  0  0  0  0  0  0  0
   -2.0103   -5.5517   -0.2390 H   0  0  0  0  0  0  0  0  0  0  0  0
   -3.4410   -6.2690   -1.7761 H   0  0  0  0  0  0  0  0  0  0  0  0
   -2.4044   -5.5385   -2.9229 H   0  0  0  0  0  0  0  0  0  0  0  0
   -1.1552   -3.1725   -1.9184 H   0  0  0  0  0  0  0  0  0  0  0  0
   -0.4478   -4.8173   -2.3198 H   0  0  0  0  0  0  0  0  0  0  0  0
   -0.8282   -0.8501    0.7764 H   0  0  0  0  0  0  0  0  0  0  0  0
   -0.7795   -1.0054    2.5211 H   0  0  0  0  0  0  0  0  0  0  0  0
    1.6211   -0.8349    2.6125 H   0  0  0  0  0  0  0  0  0  0  0  0
    0.1717    1.1468    0.8534 H   0  0  0  0  0  0  0  0  0  0  0  0
    0.8056    3.7487    2.7894 H   0  0  0  0  0  0  0  0  0  0  0  0
   -1.3683    2.2420    1.3287 H   0  0  0  0  0  0  0  0  0  0  0  0
   -1.3262    4.9174   -0.9384 H   0  0  0  0  0  0  0  0  0  0  0  0
   -2.3189    3.0633   -1.7057 H   0  0  0  0  0  0  0  0  0  0  0  0
   -3.5646    5.5300    1.0421 H   0  0  0  0  0  0  0  0  0  0  0  0
   -2.3822    6.5283    0.2117 H   0  0  0  0  0  0  0  0  0  0  0  0
   -4.6339    6.6151   -0.8848 H   0  0  0  0  0  0  0  0  0  0  0  0
   -4.3953    4.8533   -1.3334 H   0  0  0  0  0  0  0  0  0  0  0  0
   -4.7420    7.0130   -3.5047 H   0  0  0  0  0  0  0  0  0  0  0  0
   -3.7601    5.7304   -4.3616 H   0  0  0  0  0  0  0  0  0  0  0  0
    0.0190    3.1478    4.9427 H   0  0  0  0  0  0  0  0  0  0  0  0
   -1.1909    4.1594    4.0112 H   0  0  0  0  0  0  0  0  0  0  0  0
   -3.2089    1.2581    5.5949 H   0  0  0  0  0  0  0  0  0  0  0  0
   -2.4159    2.7273    6.1837 H   0  0  0  0  0  0  0  0  0  0  0  0
    2.4519    1.8275    0.6041 H   0  0  0  0  0  0  0  0  0  0  0  0
    1.5528    1.7483   -0.9401 H   0  0  0  0  0  0  0  0  0  0  0  0
    3.4440    2.8632   -1.6788 H   0  0  0  0  0  0  0  0  0  0  0  0
    4.4901    1.8839   -0.5502 H   0  0  0  0  0  0  0  0  0  0  0  0
    4.5500    0.8215   -2.9336 H   0  0  0  0  0  0  0  0  0  0  0  0
    2.7192    0.9085   -2.8658 H   0  0  0  0  0  0  0  0  0  0  0  0
    3.0655   -1.2893   -2.0226 H   0  0  0  0  0  0  0  0  0  0  0  0
    6.1188    0.6268   -1.7490 H   0  0  0  0  0  0  0  0  0  0  0  0
    7.2606   -1.7523   -0.3979 H   0  0  0  0  0  0  0  0  0  0  0  0
    9.3834   -1.0406    1.0329 H   0  0  0  0  0  0  0  0  0  0  0  0
    8.9208    1.1987    2.8442 H   0  0  0  0  0  0  0  0  0  0  0  0
    8.1269   -0.2535    3.5513 H   0  0  0  0  0  0  0  0  0  0  0  0
   11.0196   -2.3246    2.4817 H   0  0  0  0  0  0  0  0  0  0  0  0
   11.7653   -0.8593    1.8310 H   0  0  0  0  0  0  0  0  0  0  0  0
    9.4554   -0.7366   -0.9843 H   0  0  0  0  0  0  0  0  0  0  0  0
    8.6596    0.7342   -1.6056 H   0  0  0  0  0  0  0  0  0  0  0  0
    7.6121   -0.5428   -3.3914 H   0  0  0  0  0  0  0  0  0  0  0  0
    9.6653    0.5047   -3.8856 H   0  0  0  0  0  0  0  0  0  0  0  0
   10.6321   -0.7699   -2.9773 H   0  0  0  0  0  0  0  0  0  0  0  0
    9.7816   -1.1632   -4.4952 H   0  0  0  0  0  0  0  0  0  0  0  0
    7.3924   -2.8099   -2.6420 H   0  0  0  0  0  0  0  0  0  0  0  0
    8.8229   -2.8879   -3.7813 H   0  0  0  0  0  0  0  0  0  0  0  0
    9.0568   -2.8812   -1.9887 H   0  0  0  0  0  0  0  0  0  0  0  0
   -5.2860   -0.1606   -3.0446 H   0  0  0  0  0  0  0  0  0  0  0  0
   -3.6436    0.4367   -3.4905 H   0  0  0  0  0  0  0  0  0  0  0  0
   -5.0700    1.1736   -4.2781 H   0  0  0  0  0  0  0  0  0  0  0  0
  1  2  1  0
  2  3  1  0
  3  4  1  0
  4  5  1  0
  5  6  1  0
  6  7  2  0
  6  8  1  0
  8  9  1  0
  9 10  1  0
 10 11  2  0
 11 12  1  0
 12 13  2  0
 13 14  1  0
 14 15  2  0
 13 16  1  0
  8 17  1  0
 17 18  1  0
 18 19  2  0
 18 20  1  0
 20 21  1  0
 20 22  1  0
 22 23  1  0
 23 24  1  0
 24 25  1  0
 25 26  1  0
 26 27  1  0
 27 28  1  0
 28 29  2  0
 28 30  1  0
 30 31  1  0
 31 32  1  0
 32 33  2  0
 32 34  1  0
 34 35  1  0
 35 36  1  0
 36 37  2  0
 34 38  1  0
 38 39  1  0
 39 40  1  0
 40 41  2  0
 40 42  1  0
 30 43  1  0
 43 44  1  0
 44 45  2  0
 44 46  1  0
 26 47  1  0
 47 48  2  0
 47 49  1  0
 49 50  1  0
 50 51  1  0
 51 52  1  0
 52 53  1  0
 53 54  1  0
 54 55  2  0
 54 56  1  0
 56 57  1  0
 57 58  1  0
 58 59  2  0
 58 60  1  0
 60 61  1  0
 61 62  1  0
 62 63  2  0
 62 64  1  0
 57 65  1  0
 65 66  1  0
 66 67  1  0
 66 68  1  0
  3 69  1  0
 36  4  1  0
 53 49  1  0
 15 10  1  0
  1 70  1  0
  1 71  1  0
  1 72  1  0
  2 73  1  0
  2 74  1  0
  3 75  1  6
  4 76  1  6
  5 77  1  0
  8 78  1  6
  9 79  1  0
  9 80  1  0
 11 81  1  0
 12 82  1  0
 14 83  1  0
 15 84  1  0
 16 85  1  0
 17 86  1  0
 20 87  1  1
 21 88  1  0
 21 89  1  0
 22 90  1  0
 22 91  1  0
 25 92  1  0
 25 93  1  0
 26 94  1  1
 27 95  1  0
 30 96  1  6
 31 97  1  0
 34 98  1  6
 35 99  1  0
 38100  1  0
 38101  1  0
 39102  1  0
 39103  1  0
 42104  1  0
 42105  1  0
 43106  1  0
 43107  1  0
 46108  1  0
 46109  1  0
 50110  1  0
 50111  1  0
 51112  1  0
 51113  1  0
 52114  1  0
 52115  1  0
 53116  1  6
 56117  1  0
 57118  1  1
 60119  1  0
 61120  1  0
 61121  1  0
 64122  1  0
 64123  1  0
 65124  1  0
 65125  1  0
 66126  1  0
 67127  1  0
 67128  1  0
 67129  1  0
 68130  1  0
 68131  1  0
 68132  1  0
 69133  1  0
 69134  1  0
 69135  1  0
M  END
>  <Ligand ID>  (1) 
LIG0001585

>  <Ligand>  (1) 
[3H]OT (human, mouse, rat)

>  <SMILES>  (1) 
CC[C@@H]([C@@H]1NC(=O)[C@H](Cc2ccc(cc2)O)NC(=O)[C@@H](N)CSSC[C@H](NC(=O)[C@@H](NC(=O)[C@@H](NC1=O)CCC(=O)N)CC(=O)N)C(=O)N1CCC[C@H]1C(=O)N[C@H](C(=O)NCC(=O)N)CC(C)C)C

>  <CID>  (1) 
439302.0

>  <ChEMBL ID>  (1) 
nan

>  <InChiKey>  (1) 
XNOPRXBHLZRZKH-DSZYJQQASA-N

>  <InChi>  (1) 
InChI=1S/C43H66N12O12S2/c1-5-22(4)35-42(66)49-26(12-13-32(45)57)38(62)51-29(17-33(46)58)39(63)53-30(20-69-68-19-25(44)36(60)50-28(40(64)54-35)16-23-8-10-24(56)11-9-23)43(67)55-14-6-7-31(55)41(65)52-27(15-21(2)3)37(61)48-18-34(47)59/h8-11,21-22,25-31,35,56H,5-7,12-20,44H2,1-4H3,(H2,45,57)(H2,46,58)(H2,47,59)(H,48,61)(H,49,66)(H,50,60)(H,51,62)(H,52,65)(H,53,63)(H,54,64)/t22-,25-,26-,27-,28-,29-,30-,31-,35-/m0/s1

>  <IUPAC Name>  (1) 
(2S)-1-[(4R,7S,10S,13S,16S,19R)-19-amino-7-(2-amino-2-oxoethyl)-10-(3-amino-3-oxopropyl)-13-[(2S)-butan-2-yl]-16-[(4-hydroxyphenyl)methyl]-6,9,12,15,18-pentaoxo-1,2-dithia-5,8,11,14,17-pentazacycloicosane-4-carbonyl]-N-[(2S)-1-[(2-amino-2-oxoethyl)amino]-4-methyl-1-oxopentan-2-yl]pyrrolidine-2-carboxamide

$$$$
