
     RDKit          3D

 32 34  0  0  0  0  0  0  0  0999 V2000
    3.9928   -0.9183    0.0723 C   0  0  0  0  0  0  0  0  0  0  0  0
    2.9768    0.1956    0.1376 C   0  0  1  0  0  0  0  0  0  0  0  0
    2.2427    0.1842   -1.1173 N   0  0  0  0  0  0  0  0  0  0  0  0
    1.2288    1.2325   -1.1417 C   0  0  0  0  0  0  0  0  0  0  0  0
    0.3283    1.2029    0.0467 C   0  0  2  0  0  0  0  0  0  0  0  0
    0.7098    0.0600    0.8555 N   0  0  0  0  0  0  0  0  0  0  0  0
    2.0782    0.0072    1.3413 C   0  0  0  0  0  0  0  0  0  0  0  0
   -0.3817   -0.8063    1.0100 C   0  0  0  0  0  0  0  0  0  0  0  0
   -0.3530   -1.8966    1.6703 O   0  0  0  0  0  0  0  0  0  0  0  0
   -1.5086   -0.2248    0.2888 C   0  0  0  0  0  0  0  0  0  0  0  0
   -1.0967    0.9796   -0.2932 C   0  0  0  0  0  0  0  0  0  0  0  0
   -1.9967    1.6978   -1.0205 C   0  0  0  0  0  0  0  0  0  0  0  0
   -3.3018    1.3010   -1.2171 C   0  0  0  0  0  0  0  0  0  0  0  0
   -3.7161    0.1086   -0.6430 C   0  0  0  0  0  0  0  0  0  0  0  0
   -2.8267   -0.6571    0.1092 C   0  0  0  0  0  0  0  0  0  0  0  0
   -3.2314   -1.9274    0.7329 C   0  0  0  0  0  0  0  0  0  0  0  0
   -2.4845   -3.0029    0.2815 F   0  0  0  0  0  0  0  0  0  0  0  0
   -3.1917   -1.8432    2.0994 F   0  0  0  0  0  0  0  0  0  0  0  0
   -4.5538   -2.1779    0.3783 F   0  0  0  0  0  0  0  0  0  0  0  0
    3.7847   -1.6793    0.8525 H   0  0  0  0  0  0  0  0  0  0  0  0
    5.0317   -0.5776    0.2296 H   0  0  0  0  0  0  0  0  0  0  0  0
    3.9746   -1.4565   -0.9100 H   0  0  0  0  0  0  0  0  0  0  0  0
    3.5513    1.1488    0.1641 H   0  0  0  0  0  0  0  0  0  0  0  0
    1.7256   -0.7404   -1.2195 H   0  0  0  0  0  0  0  0  0  0  0  0
    0.6475    1.1235   -2.0654 H   0  0  0  0  0  0  0  0  0  0  0  0
    1.7842    2.2038   -1.1703 H   0  0  0  0  0  0  0  0  0  0  0  0
    0.4788    2.1023    0.6921 H   0  0  0  0  0  0  0  0  0  0  0  0
    2.2885   -0.8877    1.9317 H   0  0  0  0  0  0  0  0  0  0  0  0
    2.2046    0.9266    1.9649 H   0  0  0  0  0  0  0  0  0  0  0  0
   -1.6842    2.6346   -1.4759 H   0  0  0  0  0  0  0  0  0  0  0  0
   -3.9679    1.9174   -1.8061 H   0  0  0  0  0  0  0  0  0  0  0  0
   -4.7342   -0.2306   -0.7786 H   0  0  0  0  0  0  0  0  0  0  0  0
  1  2  1  0
  2  3  1  0
  3  4  1  0
  4  5  1  0
  5  6  1  0
  6  7  1  0
  6  8  1  0
  8  9  2  0
  8 10  1  0
 10 11  2  0
 11 12  1  0
 12 13  2  0
 13 14  1  0
 14 15  2  0
 15 16  1  0
 16 17  1  0
 16 18  1  0
 16 19  1  0
  7  2  1  0
 15 10  1  0
 11  5  1  0
  1 20  1  0
  1 21  1  0
  1 22  1  0
  2 23  1  1
  3 24  1  0
  4 25  1  0
  4 26  1  0
  5 27  1  1
  7 28  1  0
  7 29  1  0
 12 30  1  0
 13 31  1  0
 14 32  1  0
M  END
>  <Ligand ID>  (1) 
LIG0002175

>  <Ligand>  (1) 
CHEMBL223271

>  <SMILES>  (1) 
C[C@H]1NC[C@@H]2N(C1)C(=O)c1c2cccc1C(F)(F)F

>  <CID>  (1) 
11185858.0

>  <ChEMBL ID>  (1) 
nan

>  <InChiKey>  (1) 
PUIRTIZGCOUFDH-XCBNKYQSSA-N

>  <InChi>  (1) 
InChI=1S/C13H13F3N2O/c1-7-6-18-10(5-17-7)8-3-2-4-9(13(14,15)16)11(8)12(18)19/h2-4,7,10,17H,5-6H2,1H3/t7-,10+/m1/s1

>  <IUPAC Name>  (1) 
(3R,10bR)-3-methyl-7-(trifluoromethyl)-2,3,4,10b-tetrahydro-1H-pyrazino[1,2-b]isoindol-6-one

$$$$
