
     RDKit          3D

 47 50  0  0  0  0  0  0  0  0999 V2000
   -6.2784    0.5873    3.0722 O   0  0  0  0  0  0  0  0  0  0  0  0
   -5.2923    0.3135    2.1408 C   0  0  0  0  0  0  0  0  0  0  0  0
   -5.1479    1.1571    1.0408 C   0  0  0  0  0  0  0  0  0  0  0  0
   -4.1899    0.9495    0.0719 C   0  0  0  0  0  0  0  0  0  0  0  0
   -3.3259   -0.1415    0.1834 C   0  0  0  0  0  0  0  0  0  0  0  0
   -3.4564   -0.9943    1.2762 C   0  0  0  0  0  0  0  0  0  0  0  0
   -4.4304   -0.7583    2.2340 C   0  0  0  0  0  0  0  0  0  0  0  0
   -2.3328   -0.3558   -0.8237 N   0  0  0  0  0  0  0  0  0  0  0  0
   -2.3650   -1.3725   -1.7035 C   0  0  0  0  0  0  0  0  0  0  0  0
   -3.4058   -2.4300   -1.7903 C   0  0  0  0  0  0  0  0  0  0  0  0
   -1.2472   -1.2352   -2.5004 C   0  0  0  0  0  0  0  0  0  0  0  0
   -0.5246   -0.1077   -2.0883 C   0  0  0  0  0  0  0  0  0  0  0  0
   -1.2315    0.4140   -1.0440 C   0  0  0  0  0  0  0  0  0  0  0  0
   -0.9530    1.6273   -0.2520 C   0  0  0  0  0  0  0  0  0  0  0  0
    0.6763    0.3279   -2.7646 C   0  0  0  0  0  0  0  0  0  0  0  0
    1.8584    0.4761   -2.2441 C   0  0  0  0  0  0  0  0  0  0  0  0
    3.0720    0.9197   -2.9094 C   0  0  0  0  0  0  0  0  0  0  0  0
    3.1136    1.2707   -4.1228 O   0  0  0  0  0  0  0  0  0  0  0  0
    4.1457    0.8815   -1.9712 N   0  0  0  0  0  0  0  0  0  0  0  0
    3.6182    0.4270   -0.7553 N   0  0  0  0  0  0  0  0  0  0  0  0
    2.2208    0.1684   -0.8859 C   0  0  0  0  0  0  0  0  0  0  0  0
    1.5015   -0.2460    0.0315 O   0  0  0  0  0  0  0  0  0  0  0  0
    4.3676    0.2463    0.4459 C   0  0  0  0  0  0  0  0  0  0  0  0
    4.9413   -0.9754    0.6580 C   0  0  0  0  0  0  0  0  0  0  0  0
    5.6954   -1.2846    1.7845 C   0  0  0  0  0  0  0  0  0  0  0  0
    5.8449   -0.2735    2.7094 C   0  0  0  0  0  0  0  0  0  0  0  0
    5.2742    0.9637    2.5128 C   0  0  0  0  0  0  0  0  0  0  0  0
    4.5314    1.2423    1.3860 C   0  0  0  0  0  0  0  0  0  0  0  0
   -7.2426    0.7440    2.8457 H   0  0  0  0  0  0  0  0  0  0  0  0
   -5.8297    1.9989    0.9738 H   0  0  0  0  0  0  0  0  0  0  0  0
   -4.1190    1.6443   -0.7737 H   0  0  0  0  0  0  0  0  0  0  0  0
   -2.7973   -1.8503    1.3871 H   0  0  0  0  0  0  0  0  0  0  0  0
   -4.5422   -1.4044    3.0788 H   0  0  0  0  0  0  0  0  0  0  0  0
   -3.2749   -2.9966   -2.7343 H   0  0  0  0  0  0  0  0  0  0  0  0
   -3.3994   -3.0853   -0.8998 H   0  0  0  0  0  0  0  0  0  0  0  0
   -4.3832   -1.8926   -1.9056 H   0  0  0  0  0  0  0  0  0  0  0  0
   -1.0016   -1.9132   -3.3068 H   0  0  0  0  0  0  0  0  0  0  0  0
   -0.6000    1.3660    0.7661 H   0  0  0  0  0  0  0  0  0  0  0  0
   -1.8793    2.2324   -0.0996 H   0  0  0  0  0  0  0  0  0  0  0  0
   -0.1544    2.2092   -0.7827 H   0  0  0  0  0  0  0  0  0  0  0  0
    0.5696    0.5574   -3.8376 H   0  0  0  0  0  0  0  0  0  0  0  0
    5.1315    1.1557   -2.2047 H   0  0  0  0  0  0  0  0  0  0  0  0
    4.8130   -1.7690   -0.0864 H   0  0  0  0  0  0  0  0  0  0  0  0
    6.1453   -2.2491    1.9462 H   0  0  0  0  0  0  0  0  0  0  0  0
    6.4319   -0.5003    3.5961 H   0  0  0  0  0  0  0  0  0  0  0  0
    5.3866    1.7567    3.2292 H   0  0  0  0  0  0  0  0  0  0  0  0
    4.0656    2.1983    1.1906 H   0  0  0  0  0  0  0  0  0  0  0  0
  1  2  1  0
  2  3  2  0
  3  4  1  0
  4  5  2  0
  5  6  1  0
  6  7  2  0
  5  8  1  0
  8  9  1  0
  9 10  1  0
  9 11  2  0
 11 12  1  0
 12 13  2  0
 13 14  1  0
 12 15  1  0
 15 16  2  0
 16 17  1  0
 17 18  2  0
 17 19  1  0
 19 20  1  0
 20 21  1  0
 21 22  2  0
 20 23  1  0
 23 24  2  0
 24 25  1  0
 25 26  2  0
 26 27  1  0
 27 28  2  0
  7  2  1  0
 13  8  1  0
 21 16  1  0
 28 23  1  0
  1 29  1  0
  3 30  1  0
  4 31  1  0
  6 32  1  0
  7 33  1  0
 10 34  1  0
 10 35  1  0
 10 36  1  0
 11 37  1  0
 14 38  1  0
 14 39  1  0
 14 40  1  0
 15 41  1  0
 19 42  1  0
 24 43  1  0
 25 44  1  0
 26 45  1  0
 27 46  1  0
 28 47  1  0
M  END
>  <Ligand ID>  (1) 
LIG0003724

>  <Ligand>  (1) 
SMR000221483

>  <SMILES>  (1) 
Oc1ccc(cc1)n1c(C)cc(c1C)/C=C\1/C(=O)NN(C1=O)c1ccccc1

>  <CID>  (1) 
1847781.0

>  <ChEMBL ID>  (1) 
nan

>  <InChiKey>  (1) 
NCPVUYUPILLWDP-MOSHPQCFSA-N

>  <InChi>  (1) 
InChI=1S/C22H19N3O3/c1-14-12-16(15(2)24(14)17-8-10-19(26)11-9-17)13-20-21(27)23-25(22(20)28)18-6-4-3-5-7-18/h3-13,26H,1-2H3,(H,23,27)/b20-13-

>  <IUPAC Name>  (1) 
(4Z)-4-[[1-(4-hydroxyphenyl)-2,5-dimethylpyrrol-3-yl]methylidene]-1-phenylpyrazolidine-3,5-dione

$$$$
