
     RDKit          3D

 55 58  0  0  0  0  0  0  0  0999 V2000
    7.0142   -2.3685    1.8767 N   0  0  0  0  0  0  0  0  0  0  0  0
    7.4055   -1.3615    1.4644 C   0  0  0  0  0  0  0  0  0  0  0  0
    7.8772   -0.1119    0.9401 C   0  0  0  0  0  0  0  0  0  0  0  0
    9.0358    0.4988    1.3748 C   0  0  0  0  0  0  0  0  0  0  0  0
    9.4623    1.6652    0.8630 N   0  0  0  0  0  0  0  0  0  0  0  0
    8.7705    2.2958   -0.1055 C   0  0  0  0  0  0  0  0  0  0  0  0
    7.5884    1.7059   -0.5708 C   0  0  0  0  0  0  0  0  0  0  0  0
    7.1519    0.5066   -0.0436 C   0  0  0  0  0  0  0  0  0  0  0  0
    5.8880   -0.0725   -0.5500 C   0  0  0  0  0  0  0  0  0  0  0  0
    4.8718    0.2695    0.3813 O   0  0  0  0  0  0  0  0  0  0  0  0
    3.5357   -0.1217    0.2308 C   0  0  0  0  0  0  0  0  0  0  0  0
    2.6567    0.3141    1.2107 C   0  0  0  0  0  0  0  0  0  0  0  0
    1.3665   -0.0275    1.1131 N   0  0  0  0  0  0  0  0  0  0  0  0
    0.9468   -0.7881    0.0642 C   0  0  0  0  0  0  0  0  0  0  0  0
    1.7791   -1.2220   -0.8924 N   0  0  0  0  0  0  0  0  0  0  0  0
    3.1116   -0.8972   -0.8346 C   0  0  0  0  0  0  0  0  0  0  0  0
   -0.4709   -1.0332    0.0402 N   0  0  0  0  0  0  0  0  0  0  0  0
   -1.0693   -2.2748    0.4049 C   0  0  0  0  0  0  0  0  0  0  0  0
   -2.3840   -2.5987   -0.2706 C   0  0  0  0  0  0  0  0  0  0  0  0
   -3.0683   -1.4448   -0.7466 N   0  0  0  0  0  0  0  0  0  0  0  0
   -2.2313   -0.4348   -1.4304 C   0  0  0  0  0  0  0  0  0  0  0  0
   -1.2537    0.1257   -0.4088 C   0  0  1  0  0  0  0  0  0  0  0  0
   -1.9136    0.7196    0.7920 C   0  0  0  0  0  0  0  0  0  0  0  0
   -4.4357   -1.1176   -0.6380 C   0  0  0  0  0  0  0  0  0  0  0  0
   -5.5314   -1.6530   -1.1974 N   0  0  0  0  0  0  0  0  0  0  0  0
   -6.5759   -0.9391   -0.7475 N   0  0  0  0  0  0  0  0  0  0  0  0
   -6.1417    0.0282    0.0803 C   0  0  0  0  0  0  0  0  0  0  0  0
   -4.8434   -0.1118    0.1223 O   0  0  0  0  0  0  0  0  0  0  0  0
   -6.8791    1.0748    0.8279 C   0  0  0  0  0  0  0  0  0  0  0  0
   -6.9351    2.3394   -0.0680 C   0  0  0  0  0  0  0  0  0  0  0  0
   -8.2433    0.6262    1.2068 C   0  0  0  0  0  0  0  0  0  0  0  0
    9.6208    0.0231    2.1501 H   0  0  0  0  0  0  0  0  0  0  0  0
    9.0981    3.2500   -0.5369 H   0  0  0  0  0  0  0  0  0  0  0  0
    7.0186    2.2189   -1.3602 H   0  0  0  0  0  0  0  0  0  0  0  0
    5.9591   -1.1684   -0.7152 H   0  0  0  0  0  0  0  0  0  0  0  0
    5.6319    0.3469   -1.5592 H   0  0  0  0  0  0  0  0  0  0  0  0
    2.9558    0.9074    2.0407 H   0  0  0  0  0  0  0  0  0  0  0  0
    3.8217   -1.2102   -1.5628 H   0  0  0  0  0  0  0  0  0  0  0  0
   -1.2173   -2.3056    1.5245 H   0  0  0  0  0  0  0  0  0  0  0  0
   -0.3570   -3.1033    0.1293 H   0  0  0  0  0  0  0  0  0  0  0  0
   -2.9912   -3.1955    0.4804 H   0  0  0  0  0  0  0  0  0  0  0  0
   -2.1871   -3.3218   -1.1097 H   0  0  0  0  0  0  0  0  0  0  0  0
   -2.8148    0.4207   -1.7975 H   0  0  0  0  0  0  0  0  0  0  0  0
   -1.6494   -0.8595   -2.2481 H   0  0  0  0  0  0  0  0  0  0  0  0
   -0.6535    0.8882   -0.9103 H   0  0  0  0  0  0  0  0  0  0  0  0
   -2.3102   -0.0650    1.5020 H   0  0  0  0  0  0  0  0  0  0  0  0
   -2.6179    1.5189    0.5709 H   0  0  0  0  0  0  0  0  0  0  0  0
   -1.0864    1.1895    1.3999 H   0  0  0  0  0  0  0  0  0  0  0  0
   -6.2358    1.4227    1.6831 H   0  0  0  0  0  0  0  0  0  0  0  0
   -7.0868    1.9470   -1.0927 H   0  0  0  0  0  0  0  0  0  0  0  0
   -7.7040    3.0151    0.2879 H   0  0  0  0  0  0  0  0  0  0  0  0
   -5.9246    2.8030   -0.0773 H   0  0  0  0  0  0  0  0  0  0  0  0
   -8.3168    0.6066    2.3138 H   0  0  0  0  0  0  0  0  0  0  0  0
   -8.4821   -0.3569    0.7530 H   0  0  0  0  0  0  0  0  0  0  0  0
   -8.9563    1.4371    0.8802 H   0  0  0  0  0  0  0  0  0  0  0  0
  1  2  3  0
  2  3  1  0
  3  4  2  0
  4  5  1  0
  5  6  2  0
  6  7  1  0
  7  8  2  0
  8  9  1  0
  9 10  1  0
 10 11  1  0
 11 12  2  0
 12 13  1  0
 13 14  2  0
 14 15  1  0
 15 16  2  0
 14 17  1  0
 17 18  1  0
 18 19  1  0
 19 20  1  0
 20 21  1  0
 21 22  1  0
 22 23  1  0
 20 24  1  0
 24 25  2  0
 25 26  1  0
 26 27  2  0
 27 28  1  0
 27 29  1  0
 29 30  1  0
 29 31  1  0
  8  3  1  0
 16 11  1  0
 22 17  1  0
 28 24  1  0
  4 32  1  0
  6 33  1  0
  7 34  1  0
  9 35  1  0
  9 36  1  0
 12 37  1  0
 16 38  1  0
 18 39  1  0
 18 40  1  0
 19 41  1  0
 19 42  1  0
 21 43  1  0
 21 44  1  0
 22 45  1  6
 23 46  1  0
 23 47  1  0
 23 48  1  0
 29 49  1  0
 30 50  1  0
 30 51  1  0
 30 52  1  0
 31 53  1  0
 31 54  1  0
 31 55  1  0
M  END
>  <Ligand ID>  (1) 
LIG0005307

>  <Ligand>  (1) 
CHEMBL3217767

>  <SMILES>  (1) 
N#Cc1cnccc1COc1cnc(nc1)N1CCN(C[C@H]1C)c1nnc(o1)C(C)C

>  <CID>  (1) 
90665950.0

>  <ChEMBL ID>  (1) 
nan

>  <InChiKey>  (1) 
JAGTXSICFYWLJE-OAHLLOKOSA-N

>  <InChi>  (1) 
InChI=1S/C21H24N8O2/c1-14(2)19-26-27-21(31-19)28-6-7-29(15(3)12-28)20-24-10-18(11-25-20)30-13-16-4-5-23-9-17(16)8-22/h4-5,9-11,14-15H,6-7,12-13H2,1-3H3/t15-/m1/s1

>  <IUPAC Name>  (1) 
4-[[2-[(2R)-2-methyl-4-(5-propan-2-yl-1,3,4-oxadiazol-2-yl)piperazin-1-yl]pyrimidin-5-yl]oxymethyl]pyridine-3-carbonitrile

$$$$
