
     RDKit          3D

 77 79  0  0  0  0  0  0  0  0999 V2000
   -7.9722   -1.2696   -3.2200 C   0  0  0  0  0  0  0  0  0  0  0  0
   -8.1543   -0.3385   -2.0117 C   0  0  0  0  0  0  0  0  0  0  0  0
   -6.8329    0.2871   -1.7173 C   0  0  0  0  0  0  0  0  0  0  0  0
   -6.7602    1.2552   -0.6124 C   0  0  0  0  0  0  0  0  0  0  0  0
   -7.0094    0.8853    0.7381 N   0  0  0  0  0  0  0  0  0  0  0  0
   -5.8804    0.4683    1.5285 C   0  0  0  0  0  0  0  0  0  0  0  0
   -6.0365    0.1120    2.7519 O   0  0  0  0  0  0  0  0  0  0  0  0
   -4.5176    0.4142    1.0409 C   0  0  0  0  0  0  0  0  0  0  0  0
   -3.9179   -0.8211    0.8670 C   0  0  0  0  0  0  0  0  0  0  0  0
   -2.6180   -0.9372    0.4344 C   0  0  0  0  0  0  0  0  0  0  0  0
   -1.8198    0.1716    0.1430 C   0  0  0  0  0  0  0  0  0  0  0  0
   -2.4251    1.3996    0.3170 C   0  0  0  0  0  0  0  0  0  0  0  0
   -3.7487    1.5173    0.7578 C   0  0  0  0  0  0  0  0  0  0  0  0
   -0.4767    0.0521   -0.2688 N   0  0  0  0  0  0  0  0  0  0  0  0
    0.2930    1.1686   -0.8554 C   0  0  0  0  0  0  0  0  0  0  0  0
    1.7586    0.9991   -0.4615 C   0  0  0  0  0  0  0  0  0  0  0  0
    1.8860    0.3857    0.9019 C   0  0  0  0  0  0  0  0  0  0  0  0
    1.1605   -0.8982    1.1098 C   0  0  0  0  0  0  0  0  0  0  0  0
    0.3068   -1.1790   -0.1300 C   0  0  0  0  0  0  0  0  0  0  0  0
    3.2423    0.1779    1.3280 N   0  0  0  0  0  0  0  0  0  0  0  0
    4.0861    1.3275    1.3083 C   0  0  0  0  0  0  0  0  0  0  0  0
    5.4037    0.9596    1.9325 C   0  0  1  0  0  0  0  0  0  0  0  0
    5.9978   -0.1772    1.2099 C   0  0  0  0  0  0  0  0  0  0  0  0
    5.8343   -1.4372    1.7513 C   0  0  0  0  0  0  0  0  0  0  0  0
    6.3751   -2.5766    1.1763 C   0  0  0  0  0  0  0  0  0  0  0  0
    7.1013   -2.4248    0.0184 C   0  0  0  0  0  0  0  0  0  0  0  0
    7.3003   -1.1730   -0.5768 C   0  0  0  0  0  0  0  0  0  0  0  0
    6.7318   -0.0715    0.0491 C   0  0  0  0  0  0  0  0  0  0  0  0
    8.0643   -1.0797   -1.7667 N   0  0  0  0  0  0  0  0  0  0  0  0
    8.5655    0.4019   -2.4774 S   0  0  0  0  0  0  0  0  0  0  0  0
    9.1539    0.1733   -3.8462 O   0  0  0  0  0  0  0  0  0  0  0  0
    7.3017    1.2178   -2.7347 O   0  0  0  0  0  0  0  0  0  0  0  0
    9.6168    1.3677   -1.4575 C   0  0  0  0  0  0  0  0  0  0  0  0
    7.6568   -3.5529   -0.5809 O   0  0  0  0  0  0  0  0  0  0  0  0
    6.2644    2.0576    1.9231 O   0  0  0  0  0  0  0  0  0  0  0  0
   -8.2628    0.9807    1.4478 C   0  0  0  0  0  0  0  0  0  0  0  0
   -8.8969   -0.3391    1.5493 C   0  0  0  0  0  0  0  0  0  0  0  0
  -10.1375   -0.3488    1.8630 O   0  0  0  0  0  0  0  0  0  0  0  0
   -8.3056   -1.5528    1.3499 O   0  0  0  0  0  0  0  0  0  0  0  0
   -7.3608   -2.1354   -2.9362 H   0  0  0  0  0  0  0  0  0  0  0  0
   -8.9536   -1.6240   -3.5805 H   0  0  0  0  0  0  0  0  0  0  0  0
   -7.4861   -0.7009   -4.0165 H   0  0  0  0  0  0  0  0  0  0  0  0
   -8.9193    0.4440   -2.2859 H   0  0  0  0  0  0  0  0  0  0  0  0
   -8.5485   -0.9089   -1.1703 H   0  0  0  0  0  0  0  0  0  0  0  0
   -6.0594   -0.5283   -1.5430 H   0  0  0  0  0  0  0  0  0  0  0  0
   -6.4769    0.7886   -2.6811 H   0  0  0  0  0  0  0  0  0  0  0  0
   -7.4949    2.1206   -0.8205 H   0  0  0  0  0  0  0  0  0  0  0  0
   -5.7713    1.8053   -0.7129 H   0  0  0  0  0  0  0  0  0  0  0  0
   -4.5070   -1.7129    1.0825 H   0  0  0  0  0  0  0  0  0  0  0  0
   -2.2343   -1.9399    0.3258 H   0  0  0  0  0  0  0  0  0  0  0  0
   -1.9256    2.3351    0.1278 H   0  0  0  0  0  0  0  0  0  0  0  0
   -4.1759    2.5111    0.8837 H   0  0  0  0  0  0  0  0  0  0  0  0
    0.2482    1.0134   -1.9499 H   0  0  0  0  0  0  0  0  0  0  0  0
   -0.1065    2.1502   -0.6257 H   0  0  0  0  0  0  0  0  0  0  0  0
    2.3031    0.4275   -1.2207 H   0  0  0  0  0  0  0  0  0  0  0  0
    2.1774    2.0232   -0.4183 H   0  0  0  0  0  0  0  0  0  0  0  0
    1.4544    1.1235    1.6446 H   0  0  0  0  0  0  0  0  0  0  0  0
    1.8078   -1.7645    1.3424 H   0  0  0  0  0  0  0  0  0  0  0  0
    0.4361   -0.8460    1.9499 H   0  0  0  0  0  0  0  0  0  0  0  0
   -0.2801   -2.0828   -0.0336 H   0  0  0  0  0  0  0  0  0  0  0  0
    1.0526   -1.2345   -0.9781 H   0  0  0  0  0  0  0  0  0  0  0  0
    3.6871   -0.6276    0.8490 H   0  0  0  0  0  0  0  0  0  0  0  0
    4.3236    1.5793    0.2341 H   0  0  0  0  0  0  0  0  0  0  0  0
    3.6801    2.2005    1.8305 H   0  0  0  0  0  0  0  0  0  0  0  0
    5.1631    0.6693    2.9916 H   0  0  0  0  0  0  0  0  0  0  0  0
    5.2594   -1.5684    2.6707 H   0  0  0  0  0  0  0  0  0  0  0  0
    6.2506   -3.5677    1.5971 H   0  0  0  0  0  0  0  0  0  0  0  0
    6.8477    0.9121   -0.3657 H   0  0  0  0  0  0  0  0  0  0  0  0
    8.3445   -1.9589   -2.2503 H   0  0  0  0  0  0  0  0  0  0  0  0
    9.0955    1.6356   -0.5354 H   0  0  0  0  0  0  0  0  0  0  0  0
    9.8391    2.3026   -2.0163 H   0  0  0  0  0  0  0  0  0  0  0  0
   10.5640    0.8246   -1.2937 H   0  0  0  0  0  0  0  0  0  0  0  0
    7.1231   -4.3810   -0.7602 H   0  0  0  0  0  0  0  0  0  0  0  0
    6.1543    2.4837    1.0165 H   0  0  0  0  0  0  0  0  0  0  0  0
   -8.0517    1.3142    2.4918 H   0  0  0  0  0  0  0  0  0  0  0  0
   -8.9129    1.7214    0.9249 H   0  0  0  0  0  0  0  0  0  0  0  0
   -8.8752   -2.4072    1.2802 H   0  0  0  0  0  0  0  0  0  0  0  0
  1  2  1  0
  2  3  1  0
  3  4  1  0
  4  5  1  0
  5  6  1  0
  6  7  2  0
  6  8  1  0
  8  9  2  0
  9 10  1  0
 10 11  2  0
 11 12  1  0
 12 13  2  0
 11 14  1  0
 14 15  1  0
 15 16  1  0
 16 17  1  0
 17 18  1  0
 18 19  1  0
 17 20  1  0
 20 21  1  0
 21 22  1  0
 22 23  1  0
 23 24  2  0
 24 25  1  0
 25 26  2  0
 26 27  1  0
 27 28  2  0
 27 29  1  0
 29 30  1  0
 30 31  2  0
 30 32  2  0
 30 33  1  0
 26 34  1  0
 22 35  1  0
  5 36  1  0
 36 37  1  0
 37 38  2  0
 37 39  1  0
 13  8  1  0
 19 14  1  0
 28 23  1  0
  1 40  1  0
  1 41  1  0
  1 42  1  0
  2 43  1  0
  2 44  1  0
  3 45  1  0
  3 46  1  0
  4 47  1  0
  4 48  1  0
  9 49  1  0
 10 50  1  0
 12 51  1  0
 13 52  1  0
 15 53  1  0
 15 54  1  0
 16 55  1  0
 16 56  1  0
 17 57  1  0
 18 58  1  0
 18 59  1  0
 19 60  1  0
 19 61  1  0
 20 62  1  0
 21 63  1  0
 21 64  1  0
 22 65  1  1
 24 66  1  0
 25 67  1  0
 28 68  1  0
 29 69  1  0
 33 70  1  0
 33 71  1  0
 33 72  1  0
 34 73  1  0
 35 74  1  0
 36 75  1  0
 36 76  1  0
 39 77  1  0
M  END
>  <Ligand ID>  (1) 
LIG0004323

>  <Ligand>  (1) 
CHEMBL32521

>  <SMILES>  (1) 
CCCCN(C(=O)c1ccc(cc1)N1CCC(CC1)NC[C@@H](c1ccc(c(c1)NS(=O)(=O)C)O)O)CC(=O)O

>  <CID>  (1) 
10745501.0

>  <ChEMBL ID>  (1) 
nan

>  <InChiKey>  (1) 
CEJFDSQRZVQERZ-VWLOTQADSA-N

>  <InChi>  (1) 
InChI=1S/C27H38N4O7S/c1-3-4-13-31(18-26(34)35)27(36)19-5-8-22(9-6-19)30-14-11-21(12-15-30)28-17-25(33)20-7-10-24(32)23(16-20)29-39(2,37)38/h5-10,16,21,25,28-29,32-33H,3-4,11-15,17-18H2,1-2H3,(H,34,35)/t25-/m0/s1

>  <IUPAC Name>  (1) 
2-[butyl-[4-[4-[[(2R)-2-hydroxy-2-[4-hydroxy-3-(methanesulfonamido)phenyl]ethyl]amino]piperidin-1-yl]benzoyl]amino]acetic acid

$$$$
