
     RDKit          3D

135141  0  0  0  0  0  0  0  0999 V2000
    6.0413   -5.4239    2.5514 N   0  0  0  0  0  0  0  0  0  0  0  0
    5.0616   -5.6007    1.5186 C   0  0  0  0  0  0  0  0  0  0  0  0
    4.9309   -4.8345    0.5186 N   0  0  0  0  0  0  0  0  0  0  0  0
    5.7726   -3.7039    0.3347 C   0  0  0  0  0  0  0  0  0  0  0  0
    5.0023   -2.3799    0.4190 C   0  0  0  0  0  0  0  0  0  0  0  0
    3.9334   -2.3136   -0.6163 C   0  0  0  0  0  0  0  0  0  0  0  0
    3.1210   -1.0216   -0.5790 C   0  0  2  0  0  0  0  0  0  0  0  0
    2.1256   -1.1224   -1.6635 N   0  0  0  0  0  0  0  0  0  0  0  0
    0.7120   -1.3106   -1.3641 C   0  0  0  0  0  0  0  0  0  0  0  0
    0.4784   -1.3237   -0.1540 O   0  0  0  0  0  0  0  0  0  0  0  0
   -0.2146   -1.4517   -2.4659 C   0  0  2  0  0  0  0  0  0  0  0  0
   -0.8892   -0.1524   -2.8526 C   0  0  0  0  0  0  0  0  0  0  0  0
   -2.2871   -0.5335   -3.2823 C   0  0  0  0  0  0  0  0  0  0  0  0
   -2.1753   -2.0477   -3.5000 C   0  0  0  0  0  0  0  0  0  0  0  0
   -1.3001   -2.3758   -2.4001 N   0  0  0  0  0  0  0  0  0  0  0  0
   -1.4988   -3.4329   -1.4688 C   0  0  0  0  0  0  0  0  0  0  0  0
   -0.6190   -3.5535   -0.6200 O   0  0  0  0  0  0  0  0  0  0  0  0
   -2.6678   -4.3552   -1.4775 C   0  0  1  0  0  0  0  0  0  0  0  0
   -2.2175   -5.7433   -1.6143 C   0  0  0  0  0  0  0  0  0  0  0  0
   -2.4929   -6.4285   -0.3208 C   0  0  0  0  0  0  0  0  0  0  0  0
   -3.1867   -5.3920    0.5160 C   0  0  0  0  0  0  0  0  0  0  0  0
   -3.4271   -4.2436   -0.2278 N   0  0  0  0  0  0  0  0  0  0  0  0
   -4.1766   -3.0805   -0.0362 C   0  0  0  0  0  0  0  0  0  0  0  0
   -4.1210   -2.2422   -0.9395 O   0  0  0  0  0  0  0  0  0  0  0  0
   -5.0349   -2.7287    1.1417 C   0  0  2  0  0  0  0  0  0  0  0  0
   -6.2345   -3.5593    1.3383 C   0  0  0  0  0  0  0  0  0  0  0  0
   -7.2157   -3.5723    0.2323 C   0  0  0  0  0  0  0  0  0  0  0  0
   -7.1540   -4.4928   -0.8079 C   0  0  0  0  0  0  0  0  0  0  0  0
   -8.0472   -4.5366   -1.8382 C   0  0  0  0  0  0  0  0  0  0  0  0
   -9.0672   -3.6225   -1.8547 C   0  0  0  0  0  0  0  0  0  0  0  0
   -9.1719   -2.6858   -0.8442 C   0  0  0  0  0  0  0  0  0  0  0  0
   -8.2527   -2.6452    0.2110 C   0  0  0  0  0  0  0  0  0  0  0  0
   -5.3405   -1.2977    0.8760 N   0  0  0  0  0  0  0  0  0  0  0  0
   -4.4473   -0.3691    1.4409 C   0  0  0  0  0  0  0  0  0  0  0  0
   -3.5764   -0.8351    2.2090 O   0  0  0  0  0  0  0  0  0  0  0  0
   -4.4175    1.0911    1.2290 C   0  0  1  0  0  0  0  0  0  0  0  0
   -3.2542    1.6563    1.8894 N   0  0  0  0  0  0  0  0  0  0  0  0
   -2.7003    2.9350    1.6818 C   0  0  0  0  0  0  0  0  0  0  0  0
   -3.2425    3.6594    0.8581 O   0  0  0  0  0  0  0  0  0  0  0  0
   -1.4730    3.2907    2.4844 C   0  0  1  0  0  0  0  0  0  0  0  0
   -0.6048    4.1550    1.6688 N   0  0  0  0  0  0  0  0  0  0  0  0
    0.6342    3.5735    1.2892 C   0  0  0  0  0  0  0  0  0  0  0  0
    0.8475    2.4264    1.7670 O   0  0  0  0  0  0  0  0  0  0  0  0
    1.6840    4.1233    0.4355 C   0  0  1  0  0  0  0  0  0  0  0  0
    2.8930    3.2330    0.5053 N   0  0  0  0  0  0  0  0  0  0  0  0
    4.1888    3.7876    0.3232 C   0  0  0  0  0  0  0  0  0  0  0  0
    4.1585    5.0221    0.1125 O   0  0  0  0  0  0  0  0  0  0  0  0
    5.4425    3.0705    0.3622 C   0  0  0  0  0  0  0  0  0  0  0  0
    5.6691    1.7534    0.3692 C   0  0  0  0  0  0  0  0  0  0  0  0
    4.7791    0.6528    0.3608 N   0  0  0  0  0  0  0  0  0  0  0  0
    3.9855    0.1784   -0.7160 C   0  0  0  0  0  0  0  0  0  0  0  0
    4.0764    0.8467   -1.7610 O   0  0  0  0  0  0  0  0  0  0  0  0
    7.0222    1.2992    0.4168 C   0  0  0  0  0  0  0  0  0  0  0  0
    8.0937    2.1287    0.4558 C   0  0  0  0  0  0  0  0  0  0  0  0
    9.3880    1.6590    0.4989 C   0  0  0  0  0  0  0  0  0  0  0  0
   10.4498    2.5571    0.5357 C   0  0  0  0  0  0  0  0  0  0  0  0
   10.2232    3.9371    0.5299 C   0  0  0  0  0  0  0  0  0  0  0  0
    8.9174    4.3925    0.4866 C   0  0  0  0  0  0  0  0  0  0  0  0
    7.8650    3.4835    0.4498 C   0  0  0  0  0  0  0  0  0  0  0  0
    6.5760    3.9150    0.4040 C   0  0  0  0  0  0  0  0  0  0  0  0
    1.2840    4.2055   -1.0260 C   0  0  0  0  0  0  0  0  0  0  0  0
    0.1280    5.0521   -1.2974 C   0  0  0  0  0  0  0  0  0  0  0  0
   -1.1809    4.6203   -1.3791 C   0  0  0  0  0  0  0  0  0  0  0  0
   -2.1991    5.4909   -1.6422 C   0  0  0  0  0  0  0  0  0  0  0  0
   -2.0082    6.8410   -1.8427 C   0  0  0  0  0  0  0  0  0  0  0  0
   -0.6973    7.2887   -1.7640 C   0  0  0  0  0  0  0  0  0  0  0  0
    0.3326    6.4116   -1.4985 C   0  0  0  0  0  0  0  0  0  0  0  0
   -1.9588    3.9755    3.7303 C   0  0  0  0  0  0  0  0  0  0  0  0
   -2.7209    5.1995    3.3630 C   0  0  0  0  0  0  0  0  0  0  0  0
   -3.8849    5.1467    2.9026 O   0  0  0  0  0  0  0  0  0  0  0  0
   -2.1274    6.4943    3.5308 N   0  0  0  0  0  0  0  0  0  0  0  0
   -4.2583    1.3511   -0.3020 C   0  0  0  0  0  0  0  0  0  0  0  0
    4.1660   -6.7188    1.6130 N   0  0  0  0  0  0  0  0  0  0  0  0
    5.7193   -5.1017    3.4976 H   0  0  0  0  0  0  0  0  0  0  0  0
    7.0577   -5.6208    2.3363 H   0  0  0  0  0  0  0  0  0  0  0  0
    6.2803   -3.7469   -0.6516 H   0  0  0  0  0  0  0  0  0  0  0  0
    6.5566   -3.6853    1.0980 H   0  0  0  0  0  0  0  0  0  0  0  0
    4.6995   -2.2410    1.4541 H   0  0  0  0  0  0  0  0  0  0  0  0
    5.7675   -1.5697    0.1888 H   0  0  0  0  0  0  0  0  0  0  0  0
    3.3093   -3.1985   -0.5220 H   0  0  0  0  0  0  0  0  0  0  0  0
    4.4455   -2.3189   -1.6166 H   0  0  0  0  0  0  0  0  0  0  0  0
    2.5774   -0.9679    0.3631 H   0  0  0  0  0  0  0  0  0  0  0  0
    2.3448   -1.0659   -2.6512 H   0  0  0  0  0  0  0  0  0  0  0  0
    0.3441   -1.7559   -3.4289 H   0  0  0  0  0  0  0  0  0  0  0  0
   -0.8857    0.6058   -2.0473 H   0  0  0  0  0  0  0  0  0  0  0  0
   -0.4000    0.3182   -3.7289 H   0  0  0  0  0  0  0  0  0  0  0  0
   -3.0090   -0.2877   -2.4741 H   0  0  0  0  0  0  0  0  0  0  0  0
   -2.5925   -0.0517   -4.2108 H   0  0  0  0  0  0  0  0  0  0  0  0
   -3.1407   -2.5332   -3.5102 H   0  0  0  0  0  0  0  0  0  0  0  0
   -1.6593   -2.1880   -4.4773 H   0  0  0  0  0  0  0  0  0  0  0  0
   -3.3424   -4.1305   -2.3443 H   0  0  0  0  0  0  0  0  0  0  0  0
   -2.7182   -6.2598   -2.4807 H   0  0  0  0  0  0  0  0  0  0  0  0
   -1.1096   -5.7587   -1.7667 H   0  0  0  0  0  0  0  0  0  0  0  0
   -3.1671   -7.3047   -0.5153 H   0  0  0  0  0  0  0  0  0  0  0  0
   -1.5468   -6.7758    0.1630 H   0  0  0  0  0  0  0  0  0  0  0  0
   -4.0834   -5.9031    0.9441 H   0  0  0  0  0  0  0  0  0  0  0  0
   -2.5392   -5.2262    1.4255 H   0  0  0  0  0  0  0  0  0  0  0  0
   -4.3953   -2.7715    2.0346 H   0  0  0  0  0  0  0  0  0  0  0  0
   -6.7331   -3.1842    2.2953 H   0  0  0  0  0  0  0  0  0  0  0  0
   -5.9074   -4.5808    1.6268 H   0  0  0  0  0  0  0  0  0  0  0  0
   -6.3114   -5.2010   -0.7386 H   0  0  0  0  0  0  0  0  0  0  0  0
   -7.9268   -5.2760   -2.5958 H   0  0  0  0  0  0  0  0  0  0  0  0
   -9.7955   -3.6334   -2.6617 H   0  0  0  0  0  0  0  0  0  0  0  0
   -9.9581   -1.9365   -0.8032 H   0  0  0  0  0  0  0  0  0  0  0  0
   -8.3656   -1.8989    0.9871 H   0  0  0  0  0  0  0  0  0  0  0  0
   -6.1177   -0.9569    0.3437 H   0  0  0  0  0  0  0  0  0  0  0  0
   -5.3074    1.6060    1.4852 H   0  0  0  0  0  0  0  0  0  0  0  0
   -2.7815    1.0659    2.5833 H   0  0  0  0  0  0  0  0  0  0  0  0
   -0.9932    2.3586    2.7953 H   0  0  0  0  0  0  0  0  0  0  0  0
   -0.7938    5.0907    1.3808 H   0  0  0  0  0  0  0  0  0  0  0  0
    2.0752    5.1187    0.6719 H   0  0  0  0  0  0  0  0  0  0  0  0
    2.8288    2.2495    0.6931 H   0  0  0  0  0  0  0  0  0  0  0  0
    4.6941    0.1317    1.2421 H   0  0  0  0  0  0  0  0  0  0  0  0
    7.2145    0.2301    0.4318 H   0  0  0  0  0  0  0  0  0  0  0  0
    9.5483    0.5895    0.5027 H   0  0  0  0  0  0  0  0  0  0  0  0
   11.4422    2.1655    0.5688 H   0  0  0  0  0  0  0  0  0  0  0  0
   11.0492    4.6506    0.5577 H   0  0  0  0  0  0  0  0  0  0  0  0
    8.7374    5.4741    0.4827 H   0  0  0  0  0  0  0  0  0  0  0  0
    6.4447    5.0106    0.4045 H   0  0  0  0  0  0  0  0  0  0  0  0
    2.1678    4.6820   -1.5334 H   0  0  0  0  0  0  0  0  0  0  0  0
    1.1130    3.1793   -1.4206 H   0  0  0  0  0  0  0  0  0  0  0  0
   -1.3529    3.5453   -1.2170 H   0  0  0  0  0  0  0  0  0  0  0  0
   -3.2429    5.1388   -1.7027 H   0  0  0  0  0  0  0  0  0  0  0  0
   -2.8187    7.5185   -2.0475 H   0  0  0  0  0  0  0  0  0  0  0  0
   -0.4403    8.3412   -1.9075 H   0  0  0  0  0  0  0  0  0  0  0  0
    1.3387    6.8089   -1.4489 H   0  0  0  0  0  0  0  0  0  0  0  0
   -1.1465    4.2064    4.4424 H   0  0  0  0  0  0  0  0  0  0  0  0
   -2.7038    3.3092    4.2353 H   0  0  0  0  0  0  0  0  0  0  0  0
   -1.3246    6.5572    4.1938 H   0  0  0  0  0  0  0  0  0  0  0  0
   -2.4945    7.3111    3.0087 H   0  0  0  0  0  0  0  0  0  0  0  0
   -4.6293    2.3768   -0.4609 H   0  0  0  0  0  0  0  0  0  0  0  0
   -3.2169    1.3002   -0.6117 H   0  0  0  0  0  0  0  0  0  0  0  0
   -4.9555    0.6790   -0.7954 H   0  0  0  0  0  0  0  0  0  0  0  0
    3.5768   -6.9029    2.4519 H   0  0  0  0  0  0  0  0  0  0  0  0
    4.1347   -7.3583    0.7662 H   0  0  0  0  0  0  0  0  0  0  0  0
  1  2  1  0
  2  3  2  3
  3  4  1  0
  4  5  1  0
  5  6  1  0
  6  7  1  0
  7  8  1  0
  8  9  1  0
  9 10  2  0
  9 11  1  0
 11 12  1  0
 12 13  1  0
 13 14  1  0
 14 15  1  0
 15 16  1  0
 16 17  2  0
 16 18  1  0
 18 19  1  0
 19 20  1  0
 20 21  1  0
 21 22  1  0
 22 23  1  0
 23 24  2  0
 23 25  1  0
 25 26  1  0
 26 27  1  0
 27 28  2  0
 28 29  1  0
 29 30  2  0
 30 31  1  0
 31 32  2  0
 25 33  1  0
 33 34  1  0
 34 35  2  0
 34 36  1  0
 36 37  1  0
 37 38  1  0
 38 39  2  0
 38 40  1  0
 40 41  1  0
 41 42  1  0
 42 43  2  0
 42 44  1  0
 44 45  1  0
 45 46  1  0
 46 47  2  0
 46 48  1  0
 48 49  2  0
 49 50  1  0
 50 51  1  0
 51 52  2  0
 49 53  1  0
 53 54  2  0
 54 55  1  0
 55 56  2  0
 56 57  1  0
 57 58  2  0
 58 59  1  0
 59 60  2  0
 44 61  1  0
 61 62  1  0
 62 63  2  0
 63 64  1  0
 64 65  2  0
 65 66  1  0
 66 67  2  0
 40 68  1  0
 68 69  1  0
 69 70  2  0
 69 71  1  0
 36 72  1  0
  2 73  1  0
 51  7  1  0
 59 54  1  0
 67 62  1  0
 15 11  1  0
 22 18  1  0
 32 27  1  0
 60 48  1  0
  1 74  1  0
  1 75  1  0
  4 76  1  0
  4 77  1  0
  5 78  1  0
  5 79  1  0
  6 80  1  0
  6 81  1  0
  7 82  1  1
  8 83  1  0
 11 84  1  6
 12 85  1  0
 12 86  1  0
 13 87  1  0
 13 88  1  0
 14 89  1  0
 14 90  1  0
 18 91  1  6
 19 92  1  0
 19 93  1  0
 20 94  1  0
 20 95  1  0
 21 96  1  0
 21 97  1  0
 25 98  1  1
 26 99  1  0
 26100  1  0
 28101  1  0
 29102  1  0
 30103  1  0
 31104  1  0
 32105  1  0
 33106  1  0
 36107  1  1
 37108  1  0
 40109  1  1
 41110  1  0
 44111  1  1
 45112  1  0
 50113  1  0
 53114  1  0
 55115  1  0
 56116  1  0
 57117  1  0
 58118  1  0
 60119  1  0
 61120  1  0
 61121  1  0
 63122  1  0
 64123  1  0
 65124  1  0
 66125  1  0
 67126  1  0
 68127  1  0
 68128  1  0
 71129  1  0
 71130  1  0
 72131  1  0
 72132  1  0
 72133  1  0
 73134  1  0
 73135  1  0
M  END
>  <Ligand ID>  (1) 
LIG0005513

>  <Ligand>  (1) 
CHEMBL3576882

>  <SMILES>  (1) 
NC(=NCCC[C@@H]1NC(=O)[C@@H]2CCCN2C(=O)[C@H]2CCCN2C(=O)[C@H](Cc2ccccc2)NC(=O)[C@@H](NC(=O)[C@@H](NC(=O)[C@@H](NC(=O)c2c(NC1=O)cc1ccccc1c2)Cc1ccccc1)CC(=O)N)C)N

>  <CID>  (1) 
122178156.0

>  <ChEMBL ID>  (1) 
nan

>  <InChiKey>  (1) 
UBQRWDYDNDDNJX-SOGBOZPASA-N

>  <InChi>  (1) 
InChI=1S/C52H62N12O9/c1-30-44(66)62-40(26-32-15-6-3-7-16-32)50(72)64-24-12-21-42(64)51(73)63-23-11-20-41(63)49(71)58-36(19-10-22-56-52(54)55)46(68)59-37-28-34-18-9-8-17-33(34)27-35(37)45(67)60-38(25-31-13-4-2-5-14-31)48(70)61-39(29-43(53)65)47(69)57-30/h2-9,13-18,27-28,30,36,38-42H,10-12,19-26,29H2,1H3,(H2,53,65)(H,57,69)(H,58,71)(H,59,68)(H,60,67)(H,61,70)(H,62,66)(H4,54,55,56)/t30-,36-,38-,39-,40-,41-,42+/m0/s1

>  <IUPAC Name>  (1) 
2-[(4S,7S,13R,19S,22S,25S,28S)-19,28-dibenzyl-4-[3-(diaminomethylideneamino)propyl]-22-methyl-3,6,12,18,21,24,27,30-octaoxo-2,5,11,17,20,23,26,29-octazapentacyclo[29.8.0.07,11.013,17.033,38]nonatriaconta-1(39),31,33,35,37-pentaen-25-yl]acetamide

$$$$
