
     RDKit          3D

 42 45  0  0  0  0  0  0  0  0999 V2000
    3.7635   -1.1325    2.0384 O   0  0  0  0  0  0  0  0  0  0  0  0
    4.2408   -0.6132    0.8375 C   0  0  0  0  0  0  0  0  0  0  0  0
    3.6763    0.7671    0.5769 C   0  0  0  0  0  0  0  0  0  0  0  0
    2.2313    0.6722    0.5117 N   0  0  0  0  0  0  0  0  0  0  0  0
    1.5419   -0.1259   -0.4405 C   0  0  0  0  0  0  0  0  0  0  0  0
    2.1482   -0.8119   -1.3020 O   0  0  0  0  0  0  0  0  0  0  0  0
    0.0722   -0.1656   -0.4362 C   0  0  0  0  0  0  0  0  0  0  0  0
   -0.7414    0.5021    0.4105 N   0  0  0  0  0  0  0  0  0  0  0  0
   -2.0070    0.2290    0.1218 N   0  0  0  0  0  0  0  0  0  0  0  0
   -2.0486   -0.6186   -0.9143 C   0  0  0  0  0  0  0  0  0  0  0  0
   -0.7437   -0.8839   -1.2862 C   0  0  0  0  0  0  0  0  0  0  0  0
   -0.6892   -1.8130   -2.4254 C   0  0  0  0  0  0  0  0  0  0  0  0
   -2.1222   -2.0732   -2.7429 C   0  0  2  0  0  0  0  0  0  0  0  0
   -2.9969   -1.3595   -1.7872 C   0  0  1  0  0  0  0  0  0  0  0  0
   -2.8923   -2.8283   -1.7104 C   0  0  0  0  0  0  0  0  0  0  0  0
   -3.0865    0.8037    0.8642 C   0  0  0  0  0  0  0  0  0  0  0  0
   -3.7728    0.1032    1.8356 C   0  0  0  0  0  0  0  0  0  0  0  0
   -4.7913    0.6939    2.5133 N   0  0  0  0  0  0  0  0  0  0  0  0
   -5.1194    1.9617    2.2266 C   0  0  0  0  0  0  0  0  0  0  0  0
   -4.4640    2.7020    1.2655 C   0  0  0  0  0  0  0  0  0  0  0  0
   -3.4452    2.0901    0.5975 N   0  0  0  0  0  0  0  0  0  0  0  0
    4.1353    1.3232   -0.7388 C   0  0  0  0  0  0  0  0  0  0  0  0
    4.0294    1.6884    1.7203 C   0  0  0  0  0  0  0  0  0  0  0  0
    3.8742   -2.1147    2.0464 H   0  0  0  0  0  0  0  0  0  0  0  0
    3.9855   -1.3288    0.0314 H   0  0  0  0  0  0  0  0  0  0  0  0
    5.3574   -0.5974    0.8637 H   0  0  0  0  0  0  0  0  0  0  0  0
    1.6148    1.2058    1.1862 H   0  0  0  0  0  0  0  0  0  0  0  0
   -0.0853   -1.4296   -3.2540 H   0  0  0  0  0  0  0  0  0  0  0  0
   -0.2288   -2.8023   -2.1415 H   0  0  0  0  0  0  0  0  0  0  0  0
   -2.3988   -2.1348   -3.8123 H   0  0  0  0  0  0  0  0  0  0  0  0
   -3.8507   -0.8392   -2.2344 H   0  0  0  0  0  0  0  0  0  0  0  0
   -2.3929   -3.3152   -0.8577 H   0  0  0  0  0  0  0  0  0  0  0  0
   -3.7715   -3.3804   -2.1016 H   0  0  0  0  0  0  0  0  0  0  0  0
   -3.4686   -0.9100    2.0253 H   0  0  0  0  0  0  0  0  0  0  0  0
   -5.9247    2.4564    2.7496 H   0  0  0  0  0  0  0  0  0  0  0  0
   -4.7214    3.7315    1.0243 H   0  0  0  0  0  0  0  0  0  0  0  0
    3.4332    2.0763   -1.1470 H   0  0  0  0  0  0  0  0  0  0  0  0
    5.0908    1.8801   -0.5572 H   0  0  0  0  0  0  0  0  0  0  0  0
    4.3169    0.5603   -1.5043 H   0  0  0  0  0  0  0  0  0  0  0  0
    4.8363    2.3547    1.3781 H   0  0  0  0  0  0  0  0  0  0  0  0
    3.1621    2.3565    1.9298 H   0  0  0  0  0  0  0  0  0  0  0  0
    4.2533    1.1198    2.6394 H   0  0  0  0  0  0  0  0  0  0  0  0
  1  2  1  0
  2  3  1  0
  3  4  1  0
  4  5  1  0
  5  6  2  0
  5  7  1  0
  7  8  2  0
  8  9  1  0
  9 10  1  0
 10 11  2  0
 11 12  1  0
 12 13  1  0
 13 14  1  0
 14 15  1  0
  9 16  1  0
 16 17  2  0
 17 18  1  0
 18 19  2  0
 19 20  1  0
 20 21  2  0
  3 22  1  0
  3 23  1  0
 11  7  1  0
 15 13  1  0
 21 16  1  0
 14 10  1  0
  1 24  1  0
  2 25  1  0
  2 26  1  0
  4 27  1  0
 12 28  1  0
 12 29  1  0
 13 30  1  6
 14 31  1  6
 15 32  1  0
 15 33  1  0
 17 34  1  0
 19 35  1  0
 20 36  1  0
 22 37  1  0
 22 38  1  0
 22 39  1  0
 23 40  1  0
 23 41  1  0
 23 42  1  0
M  END
>  <Ligand ID>  (1) 
LIG0001499

>  <Ligand>  (1) 
CHEMBL3354976

>  <SMILES>  (1) 
OCC(NC(=O)c1nn(c2c1C[C@@H]1[C@H]2C1)c1cnccn1)(C)C

>  <CID>  (1) 
118720583.0

>  <ChEMBL ID>  (1) 
nan

>  <InChiKey>  (1) 
SJEPMOZSFYWLKA-NXEZZACHSA-N

>  <InChi>  (1) 
InChI=1S/C16H19N5O2/c1-16(2,8-22)19-15(23)13-11-6-9-5-10(9)14(11)21(20-13)12-7-17-3-4-18-12/h3-4,7,9-10,22H,5-6,8H2,1-2H3,(H,19,23)/t9-,10-/m1/s1

>  <IUPAC Name>  (1) 
(2R,4R)-N-(1-hydroxy-2-methylpropan-2-yl)-9-pyrazin-2-yl-8,9-diazatricyclo[4.3.0.02,4]nona-1(6),7-diene-7-carboxamide

$$$$
