
     RDKit          3D

 76 77  0  0  0  0  0  0  0  0999 V2000
    9.5104   -2.7609   -2.3080 O   0  0  0  0  0  0  0  0  0  0  0  0
    8.1532   -2.4316   -2.4659 C   0  0  0  0  0  0  0  0  0  0  0  0
    7.8807   -1.3247   -1.5174 C   0  0  0  0  0  0  0  0  0  0  0  0
    7.2073   -1.4904   -0.3272 C   0  0  0  0  0  0  0  0  0  0  0  0
    6.9585   -0.4484    0.5521 C   0  0  0  0  0  0  0  0  0  0  0  0
    7.4296    0.7936    0.1695 C   0  0  0  0  0  0  0  0  0  0  0  0
    8.1078    0.9891   -1.0182 C   0  0  0  0  0  0  0  0  0  0  0  0
    8.3372   -0.0702   -1.8690 C   0  0  0  0  0  0  0  0  0  0  0  0
    9.0216    0.1489   -3.0590 O   0  0  0  0  0  0  0  0  0  0  0  0
    6.2454   -0.6922    1.8281 C   0  0  2  0  0  0  0  0  0  0  0  0
    4.7943   -0.3753    1.6538 C   0  0  0  0  0  0  0  0  0  0  0  0
    4.6276    1.0168    1.3030 N   0  0  0  0  0  0  0  0  0  0  0  0
    3.1921    1.3185    1.2068 C   0  0  0  0  0  0  0  0  0  0  0  0
    2.9693    2.7580    0.8321 C   0  0  0  0  0  0  0  0  0  0  0  0
    1.4911    3.0300    0.7690 C   0  0  0  0  0  0  0  0  0  0  0  0
    0.8110    2.1688   -0.2486 C   0  0  0  0  0  0  0  0  0  0  0  0
   -0.6738    2.4402   -0.3538 C   0  0  0  0  0  0  0  0  0  0  0  0
   -1.3210    2.1824    0.9509 C   0  0  0  0  0  0  0  0  0  0  0  0
   -2.6976    2.3755    0.9700 O   0  0  0  0  0  0  0  0  0  0  0  0
   -3.3807    1.5567    0.0808 C   0  0  0  0  0  0  0  0  0  0  0  0
   -3.1792    0.1054    0.3309 C   0  0  0  0  0  0  0  0  0  0  0  0
   -3.5946   -0.4211    1.6455 C   0  0  0  0  0  0  0  0  0  0  0  0
   -5.0217   -0.3239    2.0216 C   0  0  0  0  0  0  0  0  0  0  0  0
   -5.9724   -1.0374    1.1641 C   0  0  0  0  0  0  0  0  0  0  0  0
   -6.6240   -0.4872    0.0741 C   0  0  0  0  0  0  0  0  0  0  0  0
   -7.5054   -1.1818   -0.7161 C   0  0  0  0  0  0  0  0  0  0  0  0
   -8.1936   -0.6662   -1.8343 N   0  0  0  0  0  0  0  0  0  0  0  0
   -8.0984    0.6535   -2.3287 C   0  0  0  0  0  0  0  0  0  0  0  0
   -7.3826    1.5432   -1.8303 O   0  0  0  0  0  0  0  0  0  0  0  0
   -8.8652    1.0432   -3.4897 N   0  0  0  0  0  0  0  0  0  0  0  0
   -7.7353   -2.4995   -0.3815 C   0  0  0  0  0  0  0  0  0  0  0  0
   -7.1040   -3.0762    0.6958 C   0  0  0  0  0  0  0  0  0  0  0  0
   -6.2302   -2.3661    1.4689 C   0  0  0  0  0  0  0  0  0  0  0  0
   -7.3916   -4.4976    1.0066 C   0  0  0  0  0  0  0  0  0  0  0  0
   -6.9442   -4.8553    2.2601 F   0  0  0  0  0  0  0  0  0  0  0  0
   -8.7015   -4.8235    0.7970 F   0  0  0  0  0  0  0  0  0  0  0  0
   -6.6213   -5.2524    0.1127 F   0  0  0  0  0  0  0  0  0  0  0  0
    6.7704    0.0955    2.8553 O   0  0  0  0  0  0  0  0  0  0  0  0
    9.8274   -2.5201   -1.3928 H   0  0  0  0  0  0  0  0  0  0  0  0
    7.9401   -2.1008   -3.5044 H   0  0  0  0  0  0  0  0  0  0  0  0
    7.5743   -3.3222   -2.1638 H   0  0  0  0  0  0  0  0  0  0  0  0
    6.8626   -2.4992   -0.0861 H   0  0  0  0  0  0  0  0  0  0  0  0
    7.2868    1.6532    0.7979 H   0  0  0  0  0  0  0  0  0  0  0  0
    8.4570    1.9953   -1.2685 H   0  0  0  0  0  0  0  0  0  0  0  0
    8.7700    0.8857   -3.7181 H   0  0  0  0  0  0  0  0  0  0  0  0
    6.3796   -1.7749    2.1280 H   0  0  0  0  0  0  0  0  0  0  0  0
    4.2040   -0.6367    2.5690 H   0  0  0  0  0  0  0  0  0  0  0  0
    4.3904   -0.9611    0.7749 H   0  0  0  0  0  0  0  0  0  0  0  0
    5.0224    1.1972    0.3370 H   0  0  0  0  0  0  0  0  0  0  0  0
    2.8617    0.6947    0.3278 H   0  0  0  0  0  0  0  0  0  0  0  0
    2.6514    1.0814    2.1310 H   0  0  0  0  0  0  0  0  0  0  0  0
    3.4767    3.4671    1.5087 H   0  0  0  0  0  0  0  0  0  0  0  0
    3.3666    2.8675   -0.2170 H   0  0  0  0  0  0  0  0  0  0  0  0
    1.0350    2.7939    1.7708 H   0  0  0  0  0  0  0  0  0  0  0  0
    1.2785    4.0853    0.4808 H   0  0  0  0  0  0  0  0  0  0  0  0
    1.3142    2.3052   -1.2448 H   0  0  0  0  0  0  0  0  0  0  0  0
    0.9522    1.0649   -0.0341 H   0  0  0  0  0  0  0  0  0  0  0  0
   -1.0381    1.8126   -1.1856 H   0  0  0  0  0  0  0  0  0  0  0  0
   -0.7636    3.4903   -0.6985 H   0  0  0  0  0  0  0  0  0  0  0  0
   -0.9298    2.9687    1.6652 H   0  0  0  0  0  0  0  0  0  0  0  0
   -1.0803    1.1936    1.3275 H   0  0  0  0  0  0  0  0  0  0  0  0
   -4.4528    1.8141    0.1712 H   0  0  0  0  0  0  0  0  0  0  0  0
   -3.1247    1.7422   -0.9843 H   0  0  0  0  0  0  0  0  0  0  0  0
   -2.0958   -0.1679    0.1984 H   0  0  0  0  0  0  0  0  0  0  0  0
   -3.6714   -0.4246   -0.5378 H   0  0  0  0  0  0  0  0  0  0  0  0
   -3.1776   -1.4563    1.7367 H   0  0  0  0  0  0  0  0  0  0  0  0
   -3.0114    0.1536    2.4249 H   0  0  0  0  0  0  0  0  0  0  0  0
   -5.1732   -0.6902    3.0634 H   0  0  0  0  0  0  0  0  0  0  0  0
   -5.2855    0.7691    2.0730 H   0  0  0  0  0  0  0  0  0  0  0  0
   -6.4066    0.5437   -0.1326 H   0  0  0  0  0  0  0  0  0  0  0  0
   -8.8407   -1.3027   -2.3623 H   0  0  0  0  0  0  0  0  0  0  0  0
   -9.8392    1.3957   -3.2839 H   0  0  0  0  0  0  0  0  0  0  0  0
   -8.4749    0.9767   -4.4549 H   0  0  0  0  0  0  0  0  0  0  0  0
   -8.4187   -3.1180   -0.9573 H   0  0  0  0  0  0  0  0  0  0  0  0
   -5.7470   -2.8589    2.3183 H   0  0  0  0  0  0  0  0  0  0  0  0
    7.6114   -0.2554    3.2249 H   0  0  0  0  0  0  0  0  0  0  0  0
  1  2  1  0
  2  3  1  0
  3  4  2  0
  4  5  1  0
  5  6  2  0
  6  7  1  0
  7  8  2  0
  8  9  1  0
  5 10  1  0
 10 11  1  0
 11 12  1  0
 12 13  1  0
 13 14  1  0
 14 15  1  0
 15 16  1  0
 16 17  1  0
 17 18  1  0
 18 19  1  0
 19 20  1  0
 20 21  1  0
 21 22  1  0
 22 23  1  0
 23 24  1  0
 24 25  2  0
 25 26  1  0
 26 27  1  0
 27 28  1  0
 28 29  2  0
 28 30  1  0
 26 31  2  0
 31 32  1  0
 32 33  2  0
 32 34  1  0
 34 35  1  0
 34 36  1  0
 34 37  1  0
 10 38  1  0
  8  3  1  0
 33 24  1  0
  1 39  1  0
  2 40  1  0
  2 41  1  0
  4 42  1  0
  6 43  1  0
  7 44  1  0
  9 45  1  0
 10 46  1  1
 11 47  1  0
 11 48  1  0
 12 49  1  0
 13 50  1  0
 13 51  1  0
 14 52  1  0
 14 53  1  0
 15 54  1  0
 15 55  1  0
 16 56  1  0
 16 57  1  0
 17 58  1  0
 17 59  1  0
 18 60  1  0
 18 61  1  0
 20 62  1  0
 20 63  1  0
 21 64  1  0
 21 65  1  0
 22 66  1  0
 22 67  1  0
 23 68  1  0
 23 69  1  0
 25 70  1  0
 27 71  1  0
 30 72  1  0
 30 73  1  0
 31 74  1  0
 33 75  1  0
 38 76  1  0
M  END
>  <Ligand ID>  (1) 
LIG0002465

>  <Ligand>  (1) 
CHEMBL1835861

>  <SMILES>  (1) 
OCc1cc(ccc1O)[C@H](CNCCCCCCOCCCCc1cc(NC(=O)N)cc(c1)C(F)(F)F)O

>  <CID>  (1) 
56675663.0

>  <ChEMBL ID>  (1) 
nan

>  <InChiKey>  (1) 
MMCZNAPVYBYFRB-VWLOTQADSA-N

>  <InChi>  (1) 
InChI=1S/C27H38F3N3O5/c28-27(29,30)22-13-19(14-23(16-22)33-26(31)37)7-3-6-12-38-11-5-2-1-4-10-32-17-25(36)20-8-9-24(35)21(15-20)18-34/h8-9,13-16,25,32,34-36H,1-7,10-12,17-18H2,(H3,31,33,37)/t25-/m0/s1

>  <IUPAC Name>  (1) 
[3-[4-[6-[[(2R)-2-hydroxy-2-[4-hydroxy-3-(hydroxymethyl)phenyl]ethyl]amino]hexoxy]butyl]-5-(trifluoromethyl)phenyl]urea

$$$$
