
     RDKit          3D

195201  0  0  0  0  0  0  0  0999 V2000
   11.3671   -3.9668    2.0457 N   0  0  0  0  0  0  0  0  0  0  0  0
   10.9998   -2.5991    1.9664 C   0  0  0  0  0  0  0  0  0  0  0  0
   11.6692   -1.6571    2.5758 N   0  0  0  0  0  0  0  0  0  0  0  0
    9.8586   -2.1545    1.2012 N   0  0  0  0  0  0  0  0  0  0  0  0
    9.1880   -0.9649    1.6630 C   0  0  0  0  0  0  0  0  0  0  0  0
    8.0080   -0.5650    0.8444 C   0  0  0  0  0  0  0  0  0  0  0  0
    6.9718   -1.6840    0.8398 C   0  0  0  0  0  0  0  0  0  0  0  0
    5.7947   -1.2823    0.0513 C   0  0  2  0  0  0  0  0  0  0  0  0
    5.1317   -0.0617    0.5504 N   0  0  0  0  0  0  0  0  0  0  0  0
    4.9748    1.0798   -0.2639 C   0  0  0  0  0  0  0  0  0  0  0  0
    5.7021    1.1644   -1.2826 O   0  0  0  0  0  0  0  0  0  0  0  0
    3.9994    2.0926    0.1138 C   0  0  1  0  0  0  0  0  0  0  0  0
    3.6013    2.1503    1.5267 C   0  0  0  0  0  0  0  0  0  0  0  0
    3.0964    0.6205    2.2682 S   0  0  0  0  0  0  0  0  0  0  0  0
    2.0038   -0.4419    1.3856 C   0  0  0  0  0  0  0  0  0  0  0  0
    2.4739   -1.1813    0.2196 C   0  0  0  0  0  0  0  0  0  0  0  0
    1.5417   -1.1318   -0.7182 O   0  0  0  0  0  0  0  0  0  0  0  0
    3.4900   -1.9321   -0.3403 N   0  0  0  0  0  0  0  0  0  0  0  0
    4.7284   -2.4112    0.1870 C   0  0  0  0  0  0  0  0  0  0  0  0
    3.2518   -2.4409   -1.7438 C   0  0  1  0  0  0  0  0  0  0  0  0
    4.3188   -1.9044   -2.6337 C   0  0  0  0  0  0  0  0  0  0  0  0
    3.2574   -3.9220   -1.7880 C   0  0  0  0  0  0  0  0  0  0  0  0
    3.2984   -4.4309   -2.9660 O   0  0  0  0  0  0  0  0  0  0  0  0
    3.2173   -4.7807   -0.6710 N   0  0  0  0  0  0  0  0  0  0  0  0
    3.2564   -6.2332   -1.0000 C   0  0  1  0  0  0  0  0  0  0  0  0
    4.4462   -6.8303   -0.2756 C   0  0  0  0  0  0  0  0  0  0  0  0
    4.6626   -8.2677   -0.5058 C   0  0  0  0  0  0  0  0  0  0  0  0
    4.0149   -8.9958   -1.2877 O   0  0  0  0  0  0  0  0  0  0  0  0
    5.7127   -8.8964    0.2379 N   0  0  0  0  0  0  0  0  0  0  0  0
    2.0040   -6.8471   -0.4633 C   0  0  0  0  0  0  0  0  0  0  0  0
    1.7121   -8.0519   -0.7336 O   0  0  0  0  0  0  0  0  0  0  0  0
    1.0876   -6.1244    0.3713 N   0  0  0  0  0  0  0  0  0  0  0  0
   -0.0788   -6.8636    0.8078 C   0  0  1  0  0  0  0  0  0  0  0  0
    0.3812   -7.8178    1.9654 C   0  0  0  0  0  0  0  0  0  0  0  0
   -1.2352   -6.1063    1.2461 C   0  0  0  0  0  0  0  0  0  0  0  0
   -2.2474   -6.8090    1.6369 O   0  0  0  0  0  0  0  0  0  0  0  0
   -1.4140   -4.7094    1.3089 N   0  0  0  0  0  0  0  0  0  0  0  0
   -2.6074   -4.1525    1.8515 C   0  0  1  0  0  0  0  0  0  0  0  0
   -2.3193   -3.5919    3.2497 C   0  0  0  0  0  0  0  0  0  0  0  0
   -1.8632   -4.6730    4.1554 C   0  0  0  0  0  0  0  0  0  0  0  0
   -2.8796   -5.3698    4.8209 C   0  0  0  0  0  0  0  0  0  0  0  0
   -2.6191   -6.3876    5.7063 C   0  0  0  0  0  0  0  0  0  0  0  0
   -1.2960   -6.7095    5.9254 C   0  0  0  0  0  0  0  0  0  0  0  0
   -0.3021   -6.0254    5.2709 C   0  0  0  0  0  0  0  0  0  0  0  0
   -0.5440   -4.9941    4.3728 C   0  0  0  0  0  0  0  0  0  0  0  0
   -3.3745   -3.1624    1.1065 C   0  0  0  0  0  0  0  0  0  0  0  0
   -4.3778   -2.6744    1.7923 O   0  0  0  0  0  0  0  0  0  0  0  0
   -3.2389   -2.6524   -0.1772 N   0  0  0  0  0  0  0  0  0  0  0  0
   -4.1364   -1.6222   -0.6488 C   0  0  1  0  0  0  0  0  0  0  0  0
   -3.3978   -0.4552   -1.2384 C   0  0  0  0  0  0  0  0  0  0  0  0
   -2.3481    0.3534   -0.0053 S   0  0  0  0  0  0  0  0  0  0  0  0
   -3.4885    1.2142    1.4912 S   0  0  0  0  0  0  0  0  0  0  0  0
   -3.9684    2.8813    1.2241 C   0  0  0  0  0  0  0  0  0  0  0  0
   -2.8193    3.8541    1.2886 C   0  0  1  0  0  0  0  0  0  0  0  0
   -1.9698    3.7678    0.1179 C   0  0  0  0  0  0  0  0  0  0  0  0
   -1.3444    2.7613   -0.2935 O   0  0  0  0  0  0  0  0  0  0  0  0
   -1.7713    4.9545   -0.7236 N   0  0  0  0  0  0  0  0  0  0  0  0
   -0.9812    4.8310   -1.9326 C   0  0  2  0  0  0  0  0  0  0  0  0
    0.4781    5.0321   -1.6978 C   0  0  0  0  0  0  0  0  0  0  0  0
    0.7925    5.4206   -0.5228 O   0  0  0  0  0  0  0  0  0  0  0  0
    1.4351    4.8073   -2.6859 N   0  0  0  0  0  0  0  0  0  0  0  0
    2.8597    4.9814   -2.2356 C   0  0  1  0  0  0  0  0  0  0  0  0
    2.9565    3.6528   -1.4638 C   0  0  0  0  0  0  0  0  0  0  0  0
    1.9605    2.9080   -1.6845 O   0  0  0  0  0  0  0  0  0  0  0  0
    4.0274    3.3396   -0.6194 N   0  0  0  0  0  0  0  0  0  0  0  0
    3.7779    4.9551   -3.3652 C   0  0  0  0  0  0  0  0  0  0  0  0
    5.2074    5.0965   -3.1505 C   0  0  0  0  0  0  0  0  0  0  0  0
    5.7901    6.3418   -3.0263 C   0  0  0  0  0  0  0  0  0  0  0  0
    7.1773    6.4491   -2.8484 C   0  0  0  0  0  0  0  0  0  0  0  0
    7.9805    5.3088   -2.7953 C   0  0  0  0  0  0  0  0  0  0  0  0
    7.3819    4.0885   -2.9211 C   0  0  0  0  0  0  0  0  0  0  0  0
    6.0445    3.9724   -3.0927 C   0  0  0  0  0  0  0  0  0  0  0  0
   -1.5499    5.5781   -3.0724 C   0  0  0  0  0  0  0  0  0  0  0  0
   -1.6450    7.0188   -2.8351 C   0  0  0  0  0  0  0  0  0  0  0  0
   -1.2800    7.8280   -1.8107 C   0  0  0  0  0  0  0  0  0  0  0  0
   -1.5839    9.1248   -2.1137 N   0  0  0  0  0  0  0  0  0  0  0  0
   -2.1330    9.0897   -3.3233 C   0  0  0  0  0  0  0  0  0  0  0  0
   -2.1851    7.8526   -3.7837 N   0  0  0  0  0  0  0  0  0  0  0  0
   -3.3974    5.1703    1.5446 N   0  0  0  0  0  0  0  0  0  0  0  0
   -3.3348    5.6530    2.8824 C   0  0  0  0  0  0  0  0  0  0  0  0
   -2.7970    4.9389    3.7979 O   0  0  0  0  0  0  0  0  0  0  0  0
   -3.8640    6.9636    3.3200 C   0  0  2  0  0  0  0  0  0  0  0  0
   -5.1234    6.7944    4.1598 C   0  0  0  0  0  0  0  0  0  0  0  0
   -5.5982    8.1171    4.5722 C   0  0  0  0  0  0  0  0  0  0  0  0
   -6.4484    8.9197    3.8416 C   0  0  0  0  0  0  0  0  0  0  0  0
   -6.8876   10.1525    4.2691 C   0  0  0  0  0  0  0  0  0  0  0  0
   -6.4374   10.5874    5.5035 C   0  0  0  0  0  0  0  0  0  0  0  0
   -5.5797    9.8271    6.2897 C   0  0  0  0  0  0  0  0  0  0  0  0
   -5.1748    8.6067    5.8109 C   0  0  0  0  0  0  0  0  0  0  0  0
   -6.8519   11.8094    5.9660 O   0  0  0  0  0  0  0  0  0  0  0  0
   -4.1769    7.8461    2.2057 N   0  0  0  0  0  0  0  0  0  0  0  0
   -5.2483   -2.0837   -1.4929 C   0  0  0  0  0  0  0  0  0  0  0  0
   -6.0854   -1.1745   -1.8442 O   0  0  0  0  0  0  0  0  0  0  0  0
   -5.4800   -3.4023   -1.9398 N   0  0  0  0  0  0  0  0  0  0  0  0
   -6.6579   -3.6479   -2.7454 C   0  0  2  0  0  0  0  0  0  0  0  0
   -7.4817   -4.7347   -2.2078 C   0  0  0  0  0  0  0  0  0  0  0  0
   -8.5681   -5.1340   -2.7112 O   0  0  0  0  0  0  0  0  0  0  0  0
   -7.0695   -5.4364   -1.0179 N   0  0  0  0  0  0  0  0  0  0  0  0
   -6.2965   -3.8146   -4.2147 C   0  0  0  0  0  0  0  0  0  0  0  0
   -7.5012   -4.0588   -5.0457 C   0  0  0  0  0  0  0  0  0  0  0  0
   -8.1936   -2.9472   -5.5409 C   0  0  0  0  0  0  0  0  0  0  0  0
   -9.3250   -3.0977   -6.3291 C   0  0  0  0  0  0  0  0  0  0  0  0
   -9.7915   -4.3670   -6.6414 C   0  0  0  0  0  0  0  0  0  0  0  0
   -9.1235   -5.4739   -6.1642 C   0  0  0  0  0  0  0  0  0  0  0  0
   -7.9803   -5.3144   -5.3677 C   0  0  0  0  0  0  0  0  0  0  0  0
  -10.9360   -4.4806   -7.4358 O   0  0  0  0  0  0  0  0  0  0  0  0
   11.7500   -4.3107    2.9517 H   0  0  0  0  0  0  0  0  0  0  0  0
   11.2848   -4.6436    1.2668 H   0  0  0  0  0  0  0  0  0  0  0  0
   12.5087   -1.8303    3.1543 H   0  0  0  0  0  0  0  0  0  0  0  0
    9.5849   -2.7094    0.3681 H   0  0  0  0  0  0  0  0  0  0  0  0
    8.7965   -1.1481    2.7054 H   0  0  0  0  0  0  0  0  0  0  0  0
    9.8976   -0.1066    1.7527 H   0  0  0  0  0  0  0  0  0  0  0  0
    7.5697    0.3342    1.3159 H   0  0  0  0  0  0  0  0  0  0  0  0
    8.3068   -0.2702   -0.1726 H   0  0  0  0  0  0  0  0  0  0  0  0
    6.7870   -2.0471    1.8568 H   0  0  0  0  0  0  0  0  0  0  0  0
    7.4683   -2.5276    0.3027 H   0  0  0  0  0  0  0  0  0  0  0  0
    6.0706   -1.2145   -0.9889 H   0  0  0  0  0  0  0  0  0  0  0  0
    4.8664   -0.1589    1.5474 H   0  0  0  0  0  0  0  0  0  0  0  0
    3.0123    1.6230   -0.3721 H   0  0  0  0  0  0  0  0  0  0  0  0
    2.7532    2.8811    1.7167 H   0  0  0  0  0  0  0  0  0  0  0  0
    4.4272    2.5693    2.1360 H   0  0  0  0  0  0  0  0  0  0  0  0
    0.9863    0.0340    1.2070 H   0  0  0  0  0  0  0  0  0  0  0  0
    1.6845   -1.2396    2.1500 H   0  0  0  0  0  0  0  0  0  0  0  0
    4.7499   -2.8984    1.1489 H   0  0  0  0  0  0  0  0  0  0  0  0
    5.1922   -3.1961   -0.4885 H   0  0  0  0  0  0  0  0  0  0  0  0
    2.3050   -2.1500   -2.1816 H   0  0  0  0  0  0  0  0  0  0  0  0
    3.9188   -2.0249   -3.6972 H   0  0  0  0  0  0  0  0  0  0  0  0
    4.4385   -0.8090   -2.5570 H   0  0  0  0  0  0  0  0  0  0  0  0
    5.2538   -2.4965   -2.6728 H   0  0  0  0  0  0  0  0  0  0  0  0
    3.1607   -4.4814    0.3256 H   0  0  0  0  0  0  0  0  0  0  0  0
    3.3610   -6.4215   -2.0593 H   0  0  0  0  0  0  0  0  0  0  0  0
    4.3533   -6.6143    0.8312 H   0  0  0  0  0  0  0  0  0  0  0  0
    5.3921   -6.3262   -0.6312 H   0  0  0  0  0  0  0  0  0  0  0  0
    6.7171   -8.6369    0.1400 H   0  0  0  0  0  0  0  0  0  0  0  0
    5.4337   -9.6403    0.8937 H   0  0  0  0  0  0  0  0  0  0  0  0
    1.2604   -5.1245    0.6354 H   0  0  0  0  0  0  0  0  0  0  0  0
   -0.3037   -7.6117    0.0178 H   0  0  0  0  0  0  0  0  0  0  0  0
    0.6274   -7.1590    2.8188 H   0  0  0  0  0  0  0  0  0  0  0  0
   -0.5195   -8.3912    2.2234 H   0  0  0  0  0  0  0  0  0  0  0  0
    1.2554   -8.3931    1.6516 H   0  0  0  0  0  0  0  0  0  0  0  0
   -0.6474   -4.0900    0.9504 H   0  0  0  0  0  0  0  0  0  0  0  0
   -3.3230   -5.0126    2.0851 H   0  0  0  0  0  0  0  0  0  0  0  0
   -3.2173   -3.1198    3.6709 H   0  0  0  0  0  0  0  0  0  0  0  0
   -1.5236   -2.7933    3.1419 H   0  0  0  0  0  0  0  0  0  0  0  0
   -3.9298   -5.1153    4.6453 H   0  0  0  0  0  0  0  0  0  0  0  0
   -3.3546   -6.9552    6.2397 H   0  0  0  0  0  0  0  0  0  0  0  0
   -1.0353   -7.4953    6.6048 H   0  0  0  0  0  0  0  0  0  0  0  0
    0.7350   -6.3202    5.4817 H   0  0  0  0  0  0  0  0  0  0  0  0
    0.2252   -4.4514    3.8597 H   0  0  0  0  0  0  0  0  0  0  0  0
   -2.4991   -2.9781   -0.8634 H   0  0  0  0  0  0  0  0  0  0  0  0
   -4.6582   -1.2230    0.2976 H   0  0  0  0  0  0  0  0  0  0  0  0
   -2.6714   -0.8174   -2.0304 H   0  0  0  0  0  0  0  0  0  0  0  0
   -4.0606    0.2497   -1.7649 H   0  0  0  0  0  0  0  0  0  0  0  0
   -4.7759    3.1705    1.9539 H   0  0  0  0  0  0  0  0  0  0  0  0
   -4.4908    3.0143    0.2255 H   0  0  0  0  0  0  0  0  0  0  0  0
   -2.2015    3.5866    2.2088 H   0  0  0  0  0  0  0  0  0  0  0  0
   -2.2284    5.8297   -0.4001 H   0  0  0  0  0  0  0  0  0  0  0  0
   -1.1159    3.7141   -2.2065 H   0  0  0  0  0  0  0  0  0  0  0  0
    1.2357    4.5393   -3.6708 H   0  0  0  0  0  0  0  0  0  0  0  0
    2.9420    5.7262   -1.4580 H   0  0  0  0  0  0  0  0  0  0  0  0
    4.8302    3.9969   -0.5175 H   0  0  0  0  0  0  0  0  0  0  0  0
    3.4862    5.7479   -4.1271 H   0  0  0  0  0  0  0  0  0  0  0  0
    3.6637    4.0071   -3.9996 H   0  0  0  0  0  0  0  0  0  0  0  0
    5.1572    7.2073   -3.0658 H   0  0  0  0  0  0  0  0  0  0  0  0
    7.5968    7.4391   -2.7542 H   0  0  0  0  0  0  0  0  0  0  0  0
    9.0439    5.4673   -2.6516 H   0  0  0  0  0  0  0  0  0  0  0  0
    8.0243    3.1927   -2.8760 H   0  0  0  0  0  0  0  0  0  0  0  0
    5.5434    3.0311   -3.2041 H   0  0  0  0  0  0  0  0  0  0  0  0
   -2.5647    5.1702   -3.3898 H   0  0  0  0  0  0  0  0  0  0  0  0
   -0.9121    5.3593   -3.9903 H   0  0  0  0  0  0  0  0  0  0  0  0
   -0.8107    7.5770   -0.8836 H   0  0  0  0  0  0  0  0  0  0  0  0
   -1.4189    9.9764   -1.5165 H   0  0  0  0  0  0  0  0  0  0  0  0
   -2.5017    9.9692   -3.8798 H   0  0  0  0  0  0  0  0  0  0  0  0
   -3.8395    5.7568    0.8284 H   0  0  0  0  0  0  0  0  0  0  0  0
   -3.1143    7.4569    3.9497 H   0  0  0  0  0  0  0  0  0  0  0  0
   -5.9354    6.3037    3.5737 H   0  0  0  0  0  0  0  0  0  0  0  0
   -4.9205    6.1885    5.0460 H   0  0  0  0  0  0  0  0  0  0  0  0
   -6.7795    8.5534    2.8781 H   0  0  0  0  0  0  0  0  0  0  0  0
   -7.5646   10.7601    3.6652 H   0  0  0  0  0  0  0  0  0  0  0  0
   -5.2290   10.1791    7.2644 H   0  0  0  0  0  0  0  0  0  0  0  0
   -4.5127    8.0226    6.4364 H   0  0  0  0  0  0  0  0  0  0  0  0
   -7.7371   11.9859    6.4297 H   0  0  0  0  0  0  0  0  0  0  0  0
   -4.7957    7.4168    1.5004 H   0  0  0  0  0  0  0  0  0  0  0  0
   -3.2618    8.1712    1.8262 H   0  0  0  0  0  0  0  0  0  0  0  0
   -4.7912   -4.1289   -1.6681 H   0  0  0  0  0  0  0  0  0  0  0  0
   -7.3035   -2.7147   -2.7036 H   0  0  0  0  0  0  0  0  0  0  0  0
   -7.7493   -5.5268   -0.2103 H   0  0  0  0  0  0  0  0  0  0  0  0
   -6.1040   -5.8345   -0.9899 H   0  0  0  0  0  0  0  0  0  0  0  0
   -5.7997   -2.9051   -4.6113 H   0  0  0  0  0  0  0  0  0  0  0  0
   -5.6487   -4.7062   -4.2967 H   0  0  0  0  0  0  0  0  0  0  0  0
   -7.8935   -1.9337   -5.3379 H   0  0  0  0  0  0  0  0  0  0  0  0
   -9.8773   -2.2564   -6.7188 H   0  0  0  0  0  0  0  0  0  0  0  0
   -9.5014   -6.4644   -6.4163 H   0  0  0  0  0  0  0  0  0  0  0  0
   -7.4386   -6.1943   -4.9864 H   0  0  0  0  0  0  0  0  0  0  0  0
  -11.7784   -4.8441   -6.9808 H   0  0  0  0  0  0  0  0  0  0  0  0
  1  2  1  0
  2  3  2  3
  2  4  1  0
  4  5  1  0
  5  6  1  0
  6  7  1  0
  7  8  1  0
  8  9  1  0
  9 10  1  0
 10 11  2  0
 10 12  1  0
 12 13  1  0
 13 14  1  0
 14 15  1  0
 15 16  1  0
 16 17  2  0
 16 18  1  0
 18 19  1  0
 18 20  1  0
 20 21  1  0
 20 22  1  0
 22 23  2  0
 22 24  1  0
 24 25  1  0
 25 26  1  0
 26 27  1  0
 27 28  2  0
 27 29  1  0
 25 30  1  0
 30 31  2  0
 30 32  1  0
 32 33  1  0
 33 34  1  0
 33 35  1  0
 35 36  2  0
 35 37  1  0
 37 38  1  0
 38 39  1  0
 39 40  1  0
 40 41  2  0
 41 42  1  0
 42 43  2  0
 43 44  1  0
 44 45  2  0
 38 46  1  0
 46 47  2  0
 46 48  1  0
 48 49  1  0
 49 50  1  0
 50 51  1  0
 51 52  1  0
 52 53  1  0
 53 54  1  0
 54 55  1  0
 55 56  2  0
 55 57  1  0
 57 58  1  0
 58 59  1  0
 59 60  2  0
 59 61  1  0
 61 62  1  0
 62 63  1  0
 63 64  2  0
 63 65  1  0
 62 66  1  0
 66 67  1  0
 67 68  2  0
 68 69  1  0
 69 70  2  0
 70 71  1  0
 71 72  2  0
 58 73  1  0
 73 74  1  0
 74 75  2  0
 75 76  1  0
 76 77  1  0
 77 78  2  0
 54 79  1  0
 79 80  1  0
 80 81  2  0
 80 82  1  0
 82 83  1  0
 83 84  1  0
 84 85  2  0
 85 86  1  0
 86 87  2  0
 87 88  1  0
 88 89  2  0
 87 90  1  0
 82 91  1  0
 49 92  1  0
 92 93  2  0
 92 94  1  0
 94 95  1  0
 95 96  1  0
 96 97  2  0
 96 98  1  0
 95 99  1  0
 99100  1  0
100101  2  0
101102  1  0
102103  2  0
103104  1  0
104105  2  0
103106  1  0
 19  8  1  0
 45 40  1  0
 72 67  1  0
 78 74  1  0
 89 84  1  0
105100  1  0
 65 12  1  0
  1107  1  0
  1108  1  0
  3109  1  0
  4110  1  0
  5111  1  0
  5112  1  0
  6113  1  0
  6114  1  0
  7115  1  0
  7116  1  0
  8117  1  6
  9118  1  0
 12119  1  6
 13120  1  0
 13121  1  0
 15122  1  0
 15123  1  0
 19124  1  0
 19125  1  0
 20126  1  6
 21127  1  0
 21128  1  0
 21129  1  0
 24130  1  0
 25131  1  6
 26132  1  0
 26133  1  0
 29134  1  0
 29135  1  0
 32136  1  0
 33137  1  6
 34138  1  0
 34139  1  0
 34140  1  0
 37141  1  0
 38142  1  1
 39143  1  0
 39144  1  0
 41145  1  0
 42146  1  0
 43147  1  0
 44148  1  0
 45149  1  0
 48150  1  0
 49151  1  1
 50152  1  0
 50153  1  0
 53154  1  0
 53155  1  0
 54156  1  1
 57157  1  0
 58158  1  6
 61159  1  0
 62160  1  1
 65161  1  0
 66162  1  0
 66163  1  0
 68164  1  0
 69165  1  0
 70166  1  0
 71167  1  0
 72168  1  0
 73169  1  0
 73170  1  0
 75171  1  0
 76172  1  0
 77173  1  0
 79174  1  0
 82175  1  1
 83176  1  0
 83177  1  0
 85178  1  0
 86179  1  0
 88180  1  0
 89181  1  0
 90182  1  0
 91183  1  0
 91184  1  0
 94185  1  0
 95186  1  6
 98187  1  0
 98188  1  0
 99189  1  0
 99190  1  0
101191  1  0
102192  1  0
104193  1  0
105194  1  0
106195  1  0
M  END
>  <Ligand ID>  (1) 
LIG0001141

>  <Ligand>  (1) 
CID 71604689

>  <SMILES>  (1) 
NC(=N)NCCC[C@@H]1NC(=O)[C@H]2CSCC(=O)N(C1)[C@@H](C)C(=O)N[C@@H](CC(=O)N)C(=O)N[C@@H](C)C(=O)N[C@@H](Cc1ccccc1)C(=O)N[C@@H](CSSC[C@@H](C(=O)N[C@H](C(=O)N[C@@H](C(=O)N2)Cc1ccccc1)Cc1c[nH]cn1)NC(=O)[C@H](Cc1ccc(cc1)O)N)C(=O)N[C@H](C(=O)N)Cc1ccc(cc1)O

>  <CID>  (1) 
71604689.0

>  <ChEMBL ID>  (1) 
nan

>  <InChiKey>  (1) 
VRRWZSTUYYSDCY-DRRBYMECSA-N

>  <InChi>  (1) 
InChI=1S/C69H89N19O15S3/c1-37-59(94)81-49(26-39-10-5-3-6-11-39)63(98)87-55(67(102)80-48(58(72)93)25-42-17-21-46(90)22-18-42)34-106-105-33-54(85-61(96)47(70)24-41-15-19-45(89)20-16-41)68(103)84-51(28-44-30-75-36-77-44)65(100)83-50(27-40-12-7-4-8-13-40)64(99)86-53-32-104-35-57(92)88(31-43(79-66(53)101)14-9-23-76-69(73)74)38(2)60(95)82-52(29-56(71)91)62(97)78-37/h3-8,10-13,15-22,30,36-38,43,47-55,89-90H,9,14,23-29,31-35,70H2,1-2H3,(H2,71,91)(H2,72,93)(H,75,77)(H,78,97)(H,79,101)(H,80,102)(H,81,94)(H,82,95)(H,83,100)(H,84,103)(H,85,96)(H,86,99)(H,87,98)(H4,73,74,76)/t37-,38-,43-,47-,48-,49-,50+,51-,52-,53+,54-,55-/m0/s1

>  <IUPAC Name>  (1) 
(2S,5S,8S,11S,14R,19R,22S,25R,28S,34S)-N-[(2S)-1-amino-3-(4-hydroxyphenyl)-1-oxopropan-2-yl]-19-[[(2S)-2-amino-3-(4-hydroxyphenyl)propanoyl]amino]-5-(2-amino-2-oxoethyl)-11,25-dibenzyl-34-(3-carbamimidamidopropyl)-22-(1H-imidazol-4-ylmethyl)-2,8-dimethyl-3,6,9,12,20,23,26,32,36-nonaoxo-16,17,30-trithia-1,4,7,10,13,21,24,27,35-nonazabicyclo[26.4.4]hexatriacontane-14-carboxamide

$$$$
