
     RDKit          3D

 47 48  0  0  0  0  0  0  0  0999 V2000
   -0.9598    0.5881   -3.6919 O   0  0  0  0  0  0  0  0  0  0  0  0
   -0.4174    0.6524   -2.3935 C   0  0  2  0  0  0  0  0  0  0  0  0
   -0.5178   -0.7186   -1.7983 C   0  0  1  0  0  0  0  0  0  0  0  0
    0.6346   -0.9223   -0.8196 C   0  0  0  0  0  0  0  0  0  0  0  0
    0.5687    0.0793    0.1478 O   0  0  0  0  0  0  0  0  0  0  0  0
    1.7967   -0.0501    1.2810 P   0  0  0  0  0  0  0  0  0  0  0  0
    1.5186    0.9956    2.3607 O   0  0  0  0  0  0  0  0  0  0  0  0
    3.2762    0.2848    0.5512 O   0  0  0  0  0  0  0  0  0  0  0  0
    4.5782   -0.1915    1.4961 P   0  0  0  0  0  0  0  0  0  0  0  0
    4.2030   -0.3032    2.9748 O   0  0  0  0  0  0  0  0  0  0  0  0
    5.7954    0.9724    1.3385 O   0  0  0  0  0  0  0  0  0  0  0  0
    6.9973    0.4286    0.2759 P   0  0  0  0  0  0  0  0  0  0  0  0
    6.3466    0.1378   -1.0622 O   0  0  0  0  0  0  0  0  0  0  0  0
    8.1480    1.6633    0.1220 O   0  0  0  0  0  0  0  0  0  0  0  0
    7.7484   -0.9388    0.9171 O   0  0  0  0  0  0  0  0  0  0  0  0
    5.1640   -1.6560    0.9333 O   0  0  0  0  0  0  0  0  0  0  0  0
    1.7694   -1.5544    2.0372 O   0  0  0  0  0  0  0  0  0  0  0  0
   -1.6915   -0.7989   -1.0977 O   0  0  0  0  0  0  0  0  0  0  0  0
   -2.4732    0.3057   -1.4253 C   0  0  2  0  0  0  0  0  0  0  0  0
   -1.4753    1.3982   -1.5649 C   0  0  2  0  0  0  0  0  0  0  0  0
   -1.8803    2.4481   -2.3989 O   0  0  0  0  0  0  0  0  0  0  0  0
   -3.4302    0.4593   -0.3692 N   0  0  0  0  0  0  0  0  0  0  0  0
   -4.1331   -0.6264    0.0052 C   0  0  0  0  0  0  0  0  0  0  0  0
   -5.0725   -0.5486    1.0174 C   0  0  0  0  0  0  0  0  0  0  0  0
   -5.8178   -1.7936    1.3830 C   0  0  0  0  0  0  0  0  0  0  0  0
   -5.3164    0.6426    1.6723 C   0  0  0  0  0  0  0  0  0  0  0  0
   -6.1721    0.6925    2.5874 O   0  0  0  0  0  0  0  0  0  0  0  0
   -4.5922    1.7076    1.2687 N   0  0  0  0  0  0  0  0  0  0  0  0
   -3.6847    1.6020    0.2806 C   0  0  0  0  0  0  0  0  0  0  0  0
   -3.0477    2.6301   -0.0438 O   0  0  0  0  0  0  0  0  0  0  0  0
   -0.8336   -0.3058   -4.0701 H   0  0  0  0  0  0  0  0  0  0  0  0
    0.5640    1.1148   -2.3611 H   0  0  0  0  0  0  0  0  0  0  0  0
   -0.4938   -1.5207   -2.5729 H   0  0  0  0  0  0  0  0  0  0  0  0
    0.5541   -1.9043   -0.3089 H   0  0  0  0  0  0  0  0  0  0  0  0
    1.6122   -0.9059   -1.3681 H   0  0  0  0  0  0  0  0  0  0  0  0
    7.7275    2.4971   -0.2095 H   0  0  0  0  0  0  0  0  0  0  0  0
    7.9237   -1.6208    0.2280 H   0  0  0  0  0  0  0  0  0  0  0  0
    4.4488   -2.1109    0.4302 H   0  0  0  0  0  0  0  0  0  0  0  0
    2.2304   -2.2317    1.4822 H   0  0  0  0  0  0  0  0  0  0  0  0
   -2.9127    0.1108   -2.4139 H   0  0  0  0  0  0  0  0  0  0  0  0
   -0.9798    1.7220   -0.6463 H   0  0  0  0  0  0  0  0  0  0  0  0
   -1.0657    2.8880   -2.7372 H   0  0  0  0  0  0  0  0  0  0  0  0
   -3.9703   -1.5728   -0.4827 H   0  0  0  0  0  0  0  0  0  0  0  0
   -5.0721   -2.5797    1.6289 H   0  0  0  0  0  0  0  0  0  0  0  0
   -6.4496   -1.6343    2.2678 H   0  0  0  0  0  0  0  0  0  0  0  0
   -6.4104   -2.1646    0.5069 H   0  0  0  0  0  0  0  0  0  0  0  0
   -4.7362    2.6328    1.7296 H   0  0  0  0  0  0  0  0  0  0  0  0
  1  2  1  0
  2  3  1  0
  3  4  1  0
  4  5  1  0
  5  6  1  0
  6  7  2  0
  6  8  1  0
  8  9  1  0
  9 10  2  0
  9 11  1  0
 11 12  1  0
 12 13  2  0
 12 14  1  0
 12 15  1  0
  9 16  1  0
  6 17  1  0
  3 18  1  0
 18 19  1  0
 19 20  1  0
 20 21  1  0
 19 22  1  0
 22 23  1  0
 23 24  2  0
 24 25  1  0
 24 26  1  0
 26 27  2  0
 26 28  1  0
 28 29  1  0
 29 30  2  0
 20  2  1  0
 29 22  1  0
  1 31  1  0
  2 32  1  6
  3 33  1  6
  4 34  1  0
  4 35  1  0
 14 36  1  0
 15 37  1  0
 16 38  1  0
 17 39  1  0
 19 40  1  6
 20 41  1  1
 21 42  1  0
 23 43  1  0
 25 44  1  0
 25 45  1  0
 25 46  1  0
 28 47  1  0
M  END
>  <Ligand ID>  (1) 
LIG0003903

>  <Ligand>  (1) 
ribothymidine triphosphate

>  <SMILES>  (1) 
O[C@@H]1[C@@H](COP(=O)(OP(=O)(OP(=O)(O)O)O)O)O[C@H]([C@@H]1O)n1cc(C)c(=O)[nH]c1=O

>  <CID>  (1) 
451388.0

>  <ChEMBL ID>  (1) 
nan

>  <InChiKey>  (1) 
RZCIEJXAILMSQK-JXOAFFINSA-N

>  <InChi>  (1) 
InChI=1S/C10H17N2O15P3/c1-4-2-12(10(16)11-8(4)15)9-7(14)6(13)5(25-9)3-24-29(20,21)27-30(22,23)26-28(17,18)19/h2,5-7,9,13-14H,3H2,1H3,(H,20,21)(H,22,23)(H,11,15,16)(H2,17,18,19)/t5-,6-,7-,9-/m1/s1

>  <IUPAC Name>  (1) 
[[(2R,3S,4R,5R)-3,4-dihydroxy-5-(5-methyl-2,4-dioxopyrimidin-1-yl)oxolan-2-yl]methoxy-hydroxyphosphoryl] phosphono hydrogen phosphate

$$$$
