
     RDKit          3D

 44 44  0  0  0  0  0  0  0  0999 V2000
    6.6006    1.3108    1.7977 O   0  0  0  0  0  0  0  0  0  0  0  0
    5.3917    1.3542    1.1139 C   0  0  0  0  0  0  0  0  0  0  0  0
    4.9866    2.4920    0.7152 O   0  0  0  0  0  0  0  0  0  0  0  0
    4.5859    0.1102    0.8502 C   0  0  1  0  0  0  0  0  0  0  0  0
    4.4440    0.0138   -0.6398 C   0  0  0  0  0  0  0  0  0  0  0  0
    3.6510   -1.1960   -1.0696 C   0  0  0  0  0  0  0  0  0  0  0  0
    1.9715   -1.1972   -0.4026 P   0  0  0  0  0  0  0  0  0  0  0  0
    2.0407   -1.4670    1.0642 O   0  0  0  0  0  0  0  0  0  0  0  0
    1.0958    0.3233   -0.7434 C   0  0  0  0  0  0  0  0  0  0  0  0
   -0.3471    0.1383   -0.4599 C   0  0  0  0  0  0  0  0  0  0  0  0
   -0.8725   -0.9496    0.1870 C   0  0  0  0  0  0  0  0  0  0  0  0
   -2.2185   -1.0878    0.4330 C   0  0  0  0  0  0  0  0  0  0  0  0
   -3.1229   -0.1143    0.0302 C   0  0  0  0  0  0  0  0  0  0  0  0
   -2.6108    0.9871   -0.6223 C   0  0  0  0  0  0  0  0  0  0  0  0
   -1.2506    1.1203   -0.8674 C   0  0  0  0  0  0  0  0  0  0  0  0
   -4.4453   -0.3200    0.3091 O   0  0  0  0  0  0  0  0  0  0  0  0
   -5.5269    0.5026    0.0093 C   0  0  0  0  0  0  0  0  0  0  0  0
   -6.2059    0.8457    1.3090 C   0  0  0  0  0  0  0  0  0  0  0  0
   -7.2246    1.5829    1.3491 O   0  0  0  0  0  0  0  0  0  0  0  0
   -5.7393    0.3642    2.5255 O   0  0  0  0  0  0  0  0  0  0  0  0
   -6.5239   -0.2135   -0.8905 C   0  0  0  0  0  0  0  0  0  0  0  0
    1.3128    0.7617   -2.0478 O   0  0  0  0  0  0  0  0  0  0  0  0
    1.1465   -2.4452   -1.2336 O   0  0  0  0  0  0  0  0  0  0  0  0
    5.3045   -0.9919    1.4192 N   0  0  0  0  0  0  0  0  0  0  0  0
    7.2419    2.0703    1.9063 H   0  0  0  0  0  0  0  0  0  0  0  0
    3.5783    0.2746    1.3227 H   0  0  0  0  0  0  0  0  0  0  0  0
    5.4586   -0.1096   -1.0716 H   0  0  0  0  0  0  0  0  0  0  0  0
    4.0157    0.9477   -1.0296 H   0  0  0  0  0  0  0  0  0  0  0  0
    4.1736   -2.1070   -0.7127 H   0  0  0  0  0  0  0  0  0  0  0  0
    3.6591   -1.2350   -2.1778 H   0  0  0  0  0  0  0  0  0  0  0  0
    1.4686    1.1135   -0.0596 H   0  0  0  0  0  0  0  0  0  0  0  0
   -0.2241   -1.7275    0.5185 H   0  0  0  0  0  0  0  0  0  0  0  0
   -2.5903   -1.9741    0.9528 H   0  0  0  0  0  0  0  0  0  0  0  0
   -3.2893    1.7622   -0.9483 H   0  0  0  0  0  0  0  0  0  0  0  0
   -0.8803    2.0073   -1.3874 H   0  0  0  0  0  0  0  0  0  0  0  0
   -5.2489    1.4260   -0.5184 H   0  0  0  0  0  0  0  0  0  0  0  0
   -5.8343    0.8798    3.3912 H   0  0  0  0  0  0  0  0  0  0  0  0
   -5.9465   -0.6633   -1.7267 H   0  0  0  0  0  0  0  0  0  0  0  0
   -7.2399    0.4898   -1.3146 H   0  0  0  0  0  0  0  0  0  0  0  0
   -7.0248   -1.0277   -0.3280 H   0  0  0  0  0  0  0  0  0  0  0  0
    0.4303    0.7769   -2.5093 H   0  0  0  0  0  0  0  0  0  0  0  0
    1.1555   -2.1910   -2.1871 H   0  0  0  0  0  0  0  0  0  0  0  0
    4.7469   -1.8661    1.5178 H   0  0  0  0  0  0  0  0  0  0  0  0
    5.9067   -0.7713    2.2265 H   0  0  0  0  0  0  0  0  0  0  0  0
  1  2  1  0
  2  3  2  0
  2  4  1  0
  4  5  1  0
  5  6  1  0
  6  7  1  0
  7  8  2  0
  7  9  1  0
  9 10  1  0
 10 11  2  0
 11 12  1  0
 12 13  2  0
 13 14  1  0
 14 15  2  0
 13 16  1  0
 16 17  1  0
 17 18  1  0
 18 19  2  0
 18 20  1  0
 17 21  1  0
  9 22  1  0
  7 23  1  0
  4 24  1  0
 15 10  1  0
  1 25  1  0
  4 26  1  1
  5 27  1  0
  5 28  1  0
  6 29  1  0
  6 30  1  0
  9 31  1  0
 11 32  1  0
 12 33  1  0
 14 34  1  0
 15 35  1  0
 17 36  1  0
 20 37  1  0
 21 38  1  0
 21 39  1  0
 21 40  1  0
 22 41  1  0
 23 42  1  0
 24 43  1  0
 24 44  1  0
M  END
>  <Ligand ID>  (1) 
LIG0003373

>  <Ligand>  (1) 
US9212196, Derivative 29

>  <SMILES>  (1) 
OC(=O)[C@@H](CCP(=O)(C(c1ccc(cc1)OC(C(=O)O)C)O)O)N

>  <CID>  (1) 
122197959.0

>  <ChEMBL ID>  (1) 
nan

>  <InChiKey>  (1) 
APKUZALKBDSBHZ-IYXOAMITSA-N

>  <InChi>  (1) 
InChI=1S/C14H20NO8P/c1-8(12(16)17)23-10-4-2-9(3-5-10)14(20)24(21,22)7-6-11(15)13(18)19/h2-5,8,11,14,20H,6-7,15H2,1H3,(H,16,17)(H,18,19)(H,21,22)/t8?,11-,14?/m1/s1

>  <IUPAC Name>  (1) 
(2R)-2-amino-4-[[[4-(1-carboxyethoxy)phenyl]-hydroxymethyl]-hydroxyphosphoryl]butanoic acid

$$$$
