
     RDKit          3D

 24 23  0  0  0  0  0  0  0  0999 V2000
   -3.2992    1.0546   -0.1806 C   0  0  0  0  0  0  0  0  0  0  0  0
   -2.5312   -0.2413   -0.2653 C   0  0  0  0  0  0  0  0  0  0  0  0
   -1.0656    0.1114    0.0588 C   0  0  0  0  0  0  0  0  0  0  0  0
   -0.2563   -1.1465   -0.0119 C   0  0  0  0  0  0  0  0  0  0  0  0
    1.1761   -0.9393    0.3113 C   0  0  0  0  0  0  0  0  0  0  0  0
    1.9375    0.0003   -0.5612 C   0  0  1  0  0  0  0  0  0  0  0  0
    1.4172    1.2667   -0.5305 O   0  0  0  0  0  0  0  0  0  0  0  0
    3.3569    0.0682   -0.0238 C   0  0  0  0  0  0  0  0  0  0  0  0
   -2.9342    1.5730    0.7317 H   0  0  0  0  0  0  0  0  0  0  0  0
   -3.0616    1.7289   -1.0420 H   0  0  0  0  0  0  0  0  0  0  0  0
   -4.3852    0.9026   -0.1362 H   0  0  0  0  0  0  0  0  0  0  0  0
   -2.5944   -0.7256   -1.2467 H   0  0  0  0  0  0  0  0  0  0  0  0
   -2.9618   -0.9287    0.4864 H   0  0  0  0  0  0  0  0  0  0  0  0
   -1.0774    0.5364    1.0806 H   0  0  0  0  0  0  0  0  0  0  0  0
   -0.7786    0.8612   -0.7154 H   0  0  0  0  0  0  0  0  0  0  0  0
   -0.6688   -1.8418    0.7645 H   0  0  0  0  0  0  0  0  0  0  0  0
   -0.3856   -1.6150   -1.0191 H   0  0  0  0  0  0  0  0  0  0  0  0
    1.6992   -1.9391    0.2783 H   0  0  0  0  0  0  0  0  0  0  0  0
    1.2183   -0.5577    1.3654 H   0  0  0  0  0  0  0  0  0  0  0  0
    1.9719   -0.3655   -1.6215 H   0  0  0  0  0  0  0  0  0  0  0  0
    2.1530    1.9298   -0.5719 H   0  0  0  0  0  0  0  0  0  0  0  0
    3.3333   -0.1365    1.0592 H   0  0  0  0  0  0  0  0  0  0  0  0
    3.7459    1.0817   -0.1594 H   0  0  0  0  0  0  0  0  0  0  0  0
    3.9905   -0.6774   -0.5612 H   0  0  0  0  0  0  0  0  0  0  0  0
  1  2  1  0
  2  3  1  0
  3  4  1  0
  4  5  1  0
  5  6  1  0
  6  7  1  0
  6  8  1  0
  1  9  1  0
  1 10  1  0
  1 11  1  0
  2 12  1  0
  2 13  1  0
  3 14  1  0
  3 15  1  0
  4 16  1  0
  4 17  1  0
  5 18  1  0
  5 19  1  0
  6 20  1  6
  7 21  1  0
  8 22  1  0
  8 23  1  0
  8 24  1  0
M  END
>  <Ligand ID>  (1) 
LIG0000187

>  <Ligand>  (1) 
(+)-2-Heptanol

>  <SMILES>  (1) 
CCCCC[C@@H](O)C

>  <CID>  (1) 
2724897.0

>  <ChEMBL ID>  (1) 
nan

>  <InChiKey>  (1) 
CETWDUZRCINIHU-ZETCQYMHSA-N

>  <InChi>  (1) 
InChI=1S/C7H16O/c1-3-4-5-6-7(2)8/h7-8H,3-6H2,1-2H3/t7-/m0/s1

>  <IUPAC Name>  (1) 
(2S)-heptan-2-ol

$$$$
