
     RDKit          3D

 53 56  0  0  0  0  0  0  0  0999 V2000
    8.1116    1.8811   -0.1292 C   0  0  0  0  0  0  0  0  0  0  0  0
    6.7458    1.4715   -0.0084 N   0  0  0  0  0  0  0  0  0  0  0  0
    6.1419    0.9775   -1.2058 C   0  0  0  0  0  0  0  0  0  0  0  0
    5.1488   -0.1395   -0.9794 C   0  0  0  0  0  0  0  0  0  0  0  0
    4.3471    0.0631    0.2109 N   0  0  0  0  0  0  0  0  0  0  0  0
    4.9582    0.7068    1.3512 C   0  0  0  0  0  0  0  0  0  0  0  0
    6.4732    0.6444    1.1493 C   0  0  0  0  0  0  0  0  0  0  0  0
    2.9874   -0.3404    0.3174 C   0  0  0  0  0  0  0  0  0  0  0  0
    2.2400   -0.0943    1.4743 C   0  0  0  0  0  0  0  0  0  0  0  0
    0.9268   -0.4791    1.5925 C   0  0  0  0  0  0  0  0  0  0  0  0
    0.2829   -1.1313    0.5643 C   0  0  0  0  0  0  0  0  0  0  0  0
    0.9929   -1.3884   -0.5895 C   0  0  0  0  0  0  0  0  0  0  0  0
    2.3112   -0.9956   -0.6927 C   0  0  0  0  0  0  0  0  0  0  0  0
    0.3058   -2.0919   -1.7043 C   0  0  0  0  0  0  0  0  0  0  0  0
   -1.0714   -1.4986    0.7553 N   0  0  0  0  0  0  0  0  0  0  0  0
   -2.0597   -0.5418    0.3626 C   0  0  0  0  0  0  0  0  0  0  0  0
   -1.6072    0.5417   -0.1186 O   0  0  0  0  0  0  0  0  0  0  0  0
   -3.4870   -0.8013    0.5084 C   0  0  0  0  0  0  0  0  0  0  0  0
   -4.1121   -1.9396    1.0173 C   0  0  0  0  0  0  0  0  0  0  0  0
   -5.4727   -1.6919    0.9413 C   0  0  0  0  0  0  0  0  0  0  0  0
   -5.6068   -0.4297    0.3962 C   0  0  0  0  0  0  0  0  0  0  0  0
   -4.4098    0.0502    0.1600 O   0  0  0  0  0  0  0  0  0  0  0  0
   -6.8400    0.2930    0.1110 C   0  0  0  0  0  0  0  0  0  0  0  0
   -6.7410    1.5559   -0.4398 C   0  0  0  0  0  0  0  0  0  0  0  0
   -7.9004    2.2713   -0.7237 C   0  0  0  0  0  0  0  0  0  0  0  0
   -9.1229    1.6998   -0.4471 C   0  0  0  0  0  0  0  0  0  0  0  0
   -9.2495    0.4452    0.1007 C   0  0  0  0  0  0  0  0  0  0  0  0
   -8.0778   -0.2526    0.3766 C   0  0  0  0  0  0  0  0  0  0  0  0
  -10.5938    2.6073   -0.8072 Cl  0  0  0  0  0  0  0  0  0  0  0  0
    8.4957    1.8914   -1.1568 H   0  0  0  0  0  0  0  0  0  0  0  0
    8.8275    1.3509    0.5120 H   0  0  0  0  0  0  0  0  0  0  0  0
    8.1515    2.9532    0.2212 H   0  0  0  0  0  0  0  0  0  0  0  0
    6.8941    0.5652   -1.9196 H   0  0  0  0  0  0  0  0  0  0  0  0
    5.5926    1.8169   -1.6800 H   0  0  0  0  0  0  0  0  0  0  0  0
    4.5074   -0.1464   -1.9024 H   0  0  0  0  0  0  0  0  0  0  0  0
    5.6326   -1.1395   -0.9518 H   0  0  0  0  0  0  0  0  0  0  0  0
    4.7032    0.2267    2.3232 H   0  0  0  0  0  0  0  0  0  0  0  0
    4.6860    1.7608    1.4081 H   0  0  0  0  0  0  0  0  0  0  0  0
    6.9075    1.1888    2.0315 H   0  0  0  0  0  0  0  0  0  0  0  0
    6.8553   -0.3737    1.0860 H   0  0  0  0  0  0  0  0  0  0  0  0
    2.6780    0.4130    2.3214 H   0  0  0  0  0  0  0  0  0  0  0  0
    0.3838   -0.2690    2.5062 H   0  0  0  0  0  0  0  0  0  0  0  0
    2.8110   -1.2268   -1.6208 H   0  0  0  0  0  0  0  0  0  0  0  0
   -0.4404   -1.4466   -2.2074 H   0  0  0  0  0  0  0  0  0  0  0  0
    1.0597   -2.3590   -2.4857 H   0  0  0  0  0  0  0  0  0  0  0  0
   -0.1487   -3.0428   -1.3843 H   0  0  0  0  0  0  0  0  0  0  0  0
   -1.3666   -2.4209    1.1627 H   0  0  0  0  0  0  0  0  0  0  0  0
   -3.6110   -2.8276    1.3914 H   0  0  0  0  0  0  0  0  0  0  0  0
   -6.2687   -2.3620    1.2509 H   0  0  0  0  0  0  0  0  0  0  0  0
   -5.7849    2.0284   -0.6672 H   0  0  0  0  0  0  0  0  0  0  0  0
   -7.8105    3.2500   -1.1508 H   0  0  0  0  0  0  0  0  0  0  0  0
  -10.2307    0.0307    0.3034 H   0  0  0  0  0  0  0  0  0  0  0  0
   -8.1455   -1.2541    0.8131 H   0  0  0  0  0  0  0  0  0  0  0  0
  1  2  1  0
  2  3  1  0
  3  4  1  0
  4  5  1  0
  5  6  1  0
  6  7  1  0
  5  8  1  0
  8  9  2  0
  9 10  1  0
 10 11  2  0
 11 12  1  0
 12 13  2  0
 12 14  1  0
 11 15  1  0
 15 16  1  0
 16 17  2  0
 16 18  1  0
 18 19  2  0
 19 20  1  0
 20 21  2  0
 21 22  1  0
 21 23  1  0
 23 24  2  0
 24 25  1  0
 25 26  2  0
 26 27  1  0
 27 28  2  0
 26 29  1  0
  7  2  1  0
 13  8  1  0
 22 18  1  0
 28 23  1  0
  1 30  1  0
  1 31  1  0
  1 32  1  0
  3 33  1  0
  3 34  1  0
  4 35  1  0
  4 36  1  0
  6 37  1  0
  6 38  1  0
  7 39  1  0
  7 40  1  0
  9 41  1  0
 10 42  1  0
 13 43  1  0
 14 44  1  0
 14 45  1  0
 14 46  1  0
 15 47  1  0
 19 48  1  0
 20 49  1  0
 24 50  1  0
 25 51  1  0
 27 52  1  0
 28 53  1  0
M  END
>  <Ligand ID>  (1) 
LIG0003628

>  <Ligand>  (1) 
MLS001081242

>  <SMILES>  (1) 
CN1CCN(CC1)c1ccc(c(c1)C)NC(=O)c1ccc(o1)c1ccc(cc1)Cl

>  <CID>  (1) 
24982438.0

>  <ChEMBL ID>  (1) 
nan

>  <InChiKey>  (1) 
PKMGMNUTKUDDHG-UHFFFAOYSA-N

>  <InChi>  (1) 
InChI=1S/C23H24ClN3O2/c1-16-15-19(27-13-11-26(2)12-14-27)7-8-20(16)25-23(28)22-10-9-21(29-22)17-3-5-18(24)6-4-17/h3-10,15H,11-14H2,1-2H3,(H,25,28)

>  <IUPAC Name>  (1) 
5-(4-chlorophenyl)-N-[2-methyl-4-(4-methylpiperazin-1-yl)phenyl]furan-2-carboxamide

$$$$
