
     RDKit          3D

 67 72  0  0  0  0  0  0  0  0999 V2000
    8.4923    0.8080    1.4407 C   0  0  0  0  0  0  0  0  0  0  0  0
    9.3995   -0.2100    1.4687 O   0  0  0  0  0  0  0  0  0  0  0  0
    8.9448   -1.4740    1.3553 C   0  0  0  0  0  0  0  0  0  0  0  0
    8.2037   -1.7185    0.0775 C   0  0  0  0  0  0  0  0  0  0  0  0
    7.0798   -0.9921   -0.1626 O   0  0  0  0  0  0  0  0  0  0  0  0
    5.8799   -0.8940    0.4580 C   0  0  0  0  0  0  0  0  0  0  0  0
    5.4648   -1.5767    1.5735 C   0  0  0  0  0  0  0  0  0  0  0  0
    4.2237   -1.4249    2.1561 C   0  0  0  0  0  0  0  0  0  0  0  0
    3.3417   -0.5147    1.5622 C   0  0  0  0  0  0  0  0  0  0  0  0
    3.7039    0.2003    0.4382 C   0  0  0  0  0  0  0  0  0  0  0  0
    4.9523    0.0036   -0.0919 C   0  0  0  0  0  0  0  0  0  0  0  0
    2.7439    1.1083   -0.1095 N   0  0  0  0  0  0  0  0  0  0  0  0
    1.4674    1.1821    0.5777 C   0  0  0  0  0  0  0  0  0  0  0  0
    0.5325    2.1023   -0.1444 C   0  0  0  0  0  0  0  0  0  0  0  0
    0.5416    1.6988   -1.5452 N   0  0  0  0  0  0  0  0  0  0  0  0
    1.8058    1.8699   -2.2406 C   0  0  0  0  0  0  0  0  0  0  0  0
    2.9597    1.9234   -1.2616 C   0  0  0  0  0  0  0  0  0  0  0  0
   -0.5832    1.1648   -2.2177 C   0  0  0  0  0  0  0  0  0  0  0  0
   -0.5086    0.9016   -3.5891 C   0  0  0  0  0  0  0  0  0  0  0  0
   -1.5587    0.3793   -4.2995 C   0  0  0  0  0  0  0  0  0  0  0  0
   -2.7337    0.0985   -3.6573 C   0  0  0  0  0  0  0  0  0  0  0  0
   -2.8528    0.3430   -2.2997 C   0  0  0  0  0  0  0  0  0  0  0  0
   -1.7817    0.8683   -1.6104 C   0  0  0  0  0  0  0  0  0  0  0  0
   -4.1310    0.0179   -1.6826 C   0  0  0  0  0  0  0  0  0  0  0  0
   -5.1187   -0.4940   -2.4389 N   0  0  0  0  0  0  0  0  0  0  0  0
   -6.3224   -0.8174   -1.9303 C   0  0  0  0  0  0  0  0  0  0  0  0
   -7.2975   -1.3563   -2.8345 N   0  0  0  0  0  0  0  0  0  0  0  0
   -6.6156   -0.6453   -0.6117 N   0  0  0  0  0  0  0  0  0  0  0  0
   -5.6450   -0.1317    0.1822 C   0  0  0  0  0  0  0  0  0  0  0  0
   -4.4039    0.2013   -0.3446 C   0  0  0  0  0  0  0  0  0  0  0  0
   -6.1690   -0.0573    1.4296 N   0  0  0  0  0  0  0  0  0  0  0  0
   -7.4491   -0.5203    1.4048 C   0  0  0  0  0  0  0  0  0  0  0  0
   -7.6932   -0.8791    0.1107 N   0  0  0  0  0  0  0  0  0  0  0  0
   -8.3560   -0.6060    2.5442 C   0  0  0  0  0  0  0  0  0  0  0  0
   -9.0896   -1.6961    2.9595 C   0  0  0  0  0  0  0  0  0  0  0  0
   -9.7935   -1.2902    4.0782 C   0  0  0  0  0  0  0  0  0  0  0  0
   -9.4511    0.0361    4.2899 C   0  0  0  0  0  0  0  0  0  0  0  0
   -8.5953    0.4044    3.3571 O   0  0  0  0  0  0  0  0  0  0  0  0
    9.1115    1.7589    1.6221 H   0  0  0  0  0  0  0  0  0  0  0  0
    8.0763    0.9268    0.3964 H   0  0  0  0  0  0  0  0  0  0  0  0
    7.6723    0.7524    2.1635 H   0  0  0  0  0  0  0  0  0  0  0  0
    9.8186   -2.2144    1.4011 H   0  0  0  0  0  0  0  0  0  0  0  0
    8.3471   -1.7207    2.2680 H   0  0  0  0  0  0  0  0  0  0  0  0
    8.8888   -1.5828   -0.8130 H   0  0  0  0  0  0  0  0  0  0  0  0
    7.9191   -2.8124    0.0336 H   0  0  0  0  0  0  0  0  0  0  0  0
    6.1249   -2.2912    2.0393 H   0  0  0  0  0  0  0  0  0  0  0  0
    3.9337   -1.9764    3.0293 H   0  0  0  0  0  0  0  0  0  0  0  0
    2.3835   -0.4282    2.0507 H   0  0  0  0  0  0  0  0  0  0  0  0
    5.2486    0.5525   -0.9650 H   0  0  0  0  0  0  0  0  0  0  0  0
    1.6092    1.5472    1.6027 H   0  0  0  0  0  0  0  0  0  0  0  0
    1.0601    0.1504    0.6119 H   0  0  0  0  0  0  0  0  0  0  0  0
    0.9468    3.1396   -0.0776 H   0  0  0  0  0  0  0  0  0  0  0  0
   -0.4557    2.1414    0.3095 H   0  0  0  0  0  0  0  0  0  0  0  0
    2.0095    1.0254   -2.9273 H   0  0  0  0  0  0  0  0  0  0  0  0
    1.7471    2.7869   -2.8563 H   0  0  0  0  0  0  0  0  0  0  0  0
    3.8912    1.7588   -1.7951 H   0  0  0  0  0  0  0  0  0  0  0  0
    2.9846    2.9862   -0.8950 H   0  0  0  0  0  0  0  0  0  0  0  0
    0.4014    1.1051   -4.1583 H   0  0  0  0  0  0  0  0  0  0  0  0
   -1.4566    0.1890   -5.3716 H   0  0  0  0  0  0  0  0  0  0  0  0
   -3.5443   -0.3141   -4.2492 H   0  0  0  0  0  0  0  0  0  0  0  0
   -1.8979    1.0455   -0.5719 H   0  0  0  0  0  0  0  0  0  0  0  0
   -7.7276   -0.8119   -3.5874 H   0  0  0  0  0  0  0  0  0  0  0  0
   -7.5673   -2.3551   -2.7004 H   0  0  0  0  0  0  0  0  0  0  0  0
   -3.6625    0.6041    0.3111 H   0  0  0  0  0  0  0  0  0  0  0  0
   -9.1020   -2.6740    2.4908 H   0  0  0  0  0  0  0  0  0  0  0  0
  -10.4840   -1.9109    4.6703 H   0  0  0  0  0  0  0  0  0  0  0  0
   -9.8636    0.6086    5.1112 H   0  0  0  0  0  0  0  0  0  0  0  0
  1  2  1  0
  2  3  1  0
  3  4  1  0
  4  5  1  0
  5  6  1  0
  6  7  2  0
  7  8  1  0
  8  9  2  0
  9 10  1  0
 10 11  2  0
 10 12  1  0
 12 13  1  0
 13 14  1  0
 14 15  1  0
 15 16  1  0
 16 17  1  0
 15 18  1  0
 18 19  2  0
 19 20  1  0
 20 21  2  0
 21 22  1  0
 22 23  2  0
 22 24  1  0
 24 25  1  0
 25 26  2  0
 26 27  1  0
 26 28  1  0
 28 29  1  0
 29 30  1  0
 29 31  2  0
 31 32  1  0
 32 33  2  0
 32 34  1  0
 34 35  2  0
 35 36  1  0
 36 37  2  0
 37 38  1  0
 11  6  1  0
 17 12  1  0
 23 18  1  0
 30 24  2  0
 38 34  1  0
 33 28  1  0
  1 39  1  0
  1 40  1  0
  1 41  1  0
  3 42  1  0
  3 43  1  0
  4 44  1  0
  4 45  1  0
  7 46  1  0
  8 47  1  0
  9 48  1  0
 11 49  1  0
 13 50  1  0
 13 51  1  0
 14 52  1  0
 14 53  1  0
 16 54  1  0
 16 55  1  0
 17 56  1  0
 17 57  1  0
 19 58  1  0
 20 59  1  0
 21 60  1  0
 23 61  1  0
 27 62  1  0
 27 63  1  0
 30 64  1  0
 35 65  1  0
 36 66  1  0
 37 67  1  0
M  END
>  <Ligand ID>  (1) 
LIG0000997

>  <Ligand>  (1) 
CHEMBL366571

>  <SMILES>  (1) 
COCCOc1cccc(c1)N1CCN(CC1)c1cccc(c1)c1nc(N)n2c(c1)nc(n2)c1ccco1

>  <CID>  (1) 
23570333.0

>  <ChEMBL ID>  (1) 
nan

>  <InChiKey>  (1) 
UAHMVILJTFXUGC-UHFFFAOYSA-N

>  <InChi>  (1) 
InChI=1S/C28H29N7O3/c1-36-15-16-37-23-8-3-7-22(18-23)34-12-10-33(11-13-34)21-6-2-5-20(17-21)24-19-26-31-27(25-9-4-14-38-25)32-35(26)28(29)30-24/h2-9,14,17-19H,10-13,15-16H2,1H3,(H2,29,30)

>  <IUPAC Name>  (1) 
2-(furan-2-yl)-7-[3-[4-[3-(2-methoxyethoxy)phenyl]piperazin-1-yl]phenyl]-[1,2,4]triazolo[1,5-c]pyrimidin-5-amine

$$$$
