
     RDKit          3D

 37 39  0  0  0  0  0  0  0  0999 V2000
   -1.5513   -2.7386    1.7150 N   0  0  0  0  0  0  0  0  0  0  0  0
   -1.2997   -2.8035    0.3095 C   0  0  0  0  0  0  0  0  0  0  0  0
   -0.7644   -1.5102   -0.2529 C   0  0  2  0  0  0  0  0  0  0  0  0
    0.4325   -1.1756    0.3638 O   0  0  0  0  0  0  0  0  0  0  0  0
    0.8840    0.0169   -0.1916 C   0  0  1  0  0  0  0  0  0  0  0  0
    0.1278    1.1358    0.4853 C   0  0  0  0  0  0  0  0  0  0  0  0
   -1.3214    0.8611    0.1768 C   0  0  0  0  0  0  0  0  0  0  0  0
   -1.7553   -0.4007   -0.1767 C   0  0  0  0  0  0  0  0  0  0  0  0
   -3.0807   -0.6563   -0.4599 C   0  0  0  0  0  0  0  0  0  0  0  0
   -3.9589    0.4170   -0.3723 C   0  0  0  0  0  0  0  0  0  0  0  0
   -3.5395    1.6828   -0.0204 C   0  0  0  0  0  0  0  0  0  0  0  0
   -2.1951    1.9227    0.2625 C   0  0  0  0  0  0  0  0  0  0  0  0
   -1.7659    3.1983    0.6183 O   0  0  0  0  0  0  0  0  0  0  0  0
   -4.4453    2.7451    0.0600 O   0  0  0  0  0  0  0  0  0  0  0  0
    2.3420    0.1690   -0.1090 C   0  0  0  0  0  0  0  0  0  0  0  0
    2.9892    1.3229    0.2806 C   0  0  0  0  0  0  0  0  0  0  0  0
    4.3480    1.4147    0.3414 C   0  0  0  0  0  0  0  0  0  0  0  0
    5.1136    0.3109    0.0003 C   0  0  0  0  0  0  0  0  0  0  0  0
    4.5174   -0.8669   -0.3959 C   0  0  0  0  0  0  0  0  0  0  0  0
    3.1276   -0.9138   -0.4428 C   0  0  0  0  0  0  0  0  0  0  0  0
   -1.3598   -3.6761    2.1332 H   0  0  0  0  0  0  0  0  0  0  0  0
   -2.5445   -2.5132    1.9478 H   0  0  0  0  0  0  0  0  0  0  0  0
   -0.5113   -3.5670    0.1192 H   0  0  0  0  0  0  0  0  0  0  0  0
   -2.1838   -3.1416   -0.2615 H   0  0  0  0  0  0  0  0  0  0  0  0
   -0.5260   -1.6508   -1.3269 H   0  0  0  0  0  0  0  0  0  0  0  0
    0.5797    0.0063   -1.2586 H   0  0  0  0  0  0  0  0  0  0  0  0
    0.4363    2.0950   -0.0086 H   0  0  0  0  0  0  0  0  0  0  0  0
    0.2812    1.1618    1.5749 H   0  0  0  0  0  0  0  0  0  0  0  0
   -3.4626   -1.6271   -0.7401 H   0  0  0  0  0  0  0  0  0  0  0  0
   -5.0214    0.2809   -0.5841 H   0  0  0  0  0  0  0  0  0  0  0  0
   -1.0157    3.5734    0.0230 H   0  0  0  0  0  0  0  0  0  0  0  0
   -4.1487    3.6619   -0.2353 H   0  0  0  0  0  0  0  0  0  0  0  0
    2.3967    2.1862    0.5476 H   0  0  0  0  0  0  0  0  0  0  0  0
    4.8805    2.3198    0.6476 H   0  0  0  0  0  0  0  0  0  0  0  0
    6.1932    0.3710    0.0444 H   0  0  0  0  0  0  0  0  0  0  0  0
    5.0996   -1.7528   -0.6704 H   0  0  0  0  0  0  0  0  0  0  0  0
    2.7018   -1.8593   -0.7596 H   0  0  0  0  0  0  0  0  0  0  0  0
  1  2  1  0
  2  3  1  0
  3  4  1  0
  4  5  1  0
  5  6  1  0
  6  7  1  0
  7  8  2  0
  8  9  1  0
  9 10  2  0
 10 11  1  0
 11 12  2  0
 12 13  1  0
 11 14  1  0
  5 15  1  0
 15 16  2  0
 16 17  1  0
 17 18  2  0
 18 19  1  0
 19 20  2  0
  8  3  1  0
 20 15  1  0
 12  7  1  0
  1 21  1  0
  1 22  1  0
  2 23  1  0
  2 24  1  0
  3 25  1  6
  5 26  1  6
  6 27  1  0
  6 28  1  0
  9 29  1  0
 10 30  1  0
 13 31  1  0
 14 32  1  0
 16 33  1  0
 17 34  1  0
 18 35  1  0
 19 36  1  0
 20 37  1  0
M  END
>  <Ligand ID>  (1) 
LIG0002435

>  <Ligand>  (1) 
A68930

>  <SMILES>  (1) 
NC[C@@H]1O[C@@H](Cc2c1ccc(c2O)O)c1ccccc1

>  <CID>  (1) 
122324.0

>  <ChEMBL ID>  (1) 
nan

>  <InChiKey>  (1) 
SUHGRZPINGKYNV-GJZGRUSLSA-N

>  <InChi>  (1) 
InChI=1S/C16H17NO3/c17-9-15-11-6-7-13(18)16(19)12(11)8-14(20-15)10-4-2-1-3-5-10/h1-7,14-15,18-19H,8-9,17H2/t14-,15-/m0/s1

>  <IUPAC Name>  (1) 
(1R,3S)-1-(aminomethyl)-3-phenyl-3,4-dihydro-1H-isochromene-5,6-diol

$$$$
