
     RDKit          3D

138139  0  0  0  0  0  0  0  0999 V2000
    1.9163   -2.7027   -3.5217 O   0  0  0  0  0  0  0  0  0  0  0  0
    2.0275   -1.8506   -2.3708 C   0  0  0  0  0  0  0  0  0  0  0  0
    3.3368   -1.1529   -2.4511 C   0  0  0  0  0  0  0  0  0  0  0  0
    3.7597   -0.2153   -1.4015 C   0  0  0  0  0  0  0  0  0  0  0  0
    3.8731   -0.6671   -0.0575 N   0  0  0  0  0  0  0  0  0  0  0  0
    3.0630   -0.5737    1.0502 C   0  0  0  0  0  0  0  0  0  0  0  0
    3.5733   -1.2164    2.1175 O   0  0  0  0  0  0  0  0  0  0  0  0
    1.7985    0.0361    1.4190 C   0  0  2  0  0  0  0  0  0  0  0  0
    0.9344   -1.0968    2.0471 C   0  0  0  0  0  0  0  0  0  0  0  0
    0.1950   -2.1217    0.7807 S   0  0  0  0  0  0  0  0  0  0  0  0
   -0.5269   -3.6476    1.3013 C   0  0  0  0  0  0  0  0  0  0  0  0
   -1.6140   -3.6315    2.2925 C   0  0  0  0  0  0  0  0  0  0  0  0
   -2.8055   -2.8354    2.0222 C   0  0  0  0  0  0  0  0  0  0  0  0
   -3.5946   -3.0860    0.8014 C   0  0  0  0  0  0  0  0  0  0  0  0
   -3.2334   -3.6806   -0.2124 O   0  0  0  0  0  0  0  0  0  0  0  0
   -4.9341   -2.5944    0.7886 N   0  0  0  0  0  0  0  0  0  0  0  0
   -5.8656   -2.6387   -0.3136 C   0  0  1  0  0  0  0  0  0  0  0  0
   -7.0087   -3.5856    0.0027 C   0  0  0  0  0  0  0  0  0  0  0  0
   -7.9481   -3.6172   -1.1285 C   0  0  0  0  0  0  0  0  0  0  0  0
   -9.0997   -2.8449   -1.2003 C   0  0  0  0  0  0  0  0  0  0  0  0
   -9.9193   -2.9326   -2.3102 C   0  0  0  0  0  0  0  0  0  0  0  0
   -9.6311   -3.7713   -3.3621 C   0  0  0  0  0  0  0  0  0  0  0  0
   -8.4912   -4.5468   -3.3084 C   0  0  0  0  0  0  0  0  0  0  0  0
   -7.6687   -4.4579   -2.1948 C   0  0  0  0  0  0  0  0  0  0  0  0
  -10.4664   -3.8497   -4.4753 O   0  0  0  0  0  0  0  0  0  0  0  0
   -6.3480   -1.2153   -0.4792 C   0  0  0  0  0  0  0  0  0  0  0  0
   -7.2104   -0.8728   -1.2972 O   0  0  0  0  0  0  0  0  0  0  0  0
   -5.8187   -0.1623    0.3135 N   0  0  0  0  0  0  0  0  0  0  0  0
   -6.2058    1.2208    0.3466 C   0  0  2  0  0  0  0  0  0  0  0  0
   -5.1344    2.0367   -0.2836 C   0  0  0  0  0  0  0  0  0  0  0  0
   -4.4968    1.5169   -1.2115 O   0  0  0  0  0  0  0  0  0  0  0  0
   -4.7692    3.3504    0.0872 N   0  0  0  0  0  0  0  0  0  0  0  0
   -3.6611    4.0022   -0.6415 C   0  0  2  0  0  0  0  0  0  0  0  0
   -2.5158    3.0464   -0.4394 C   0  0  0  0  0  0  0  0  0  0  0  0
   -2.6074    1.9960    0.2189 O   0  0  0  0  0  0  0  0  0  0  0  0
   -1.1981    3.2734   -0.9903 N   0  0  0  0  0  0  0  0  0  0  0  0
   -0.3373    2.1186   -0.9703 C   0  0  2  0  0  0  0  0  0  0  0  0
    0.4249    1.8457    0.2455 C   0  0  0  0  0  0  0  0  0  0  0  0
    0.5734    2.5335    1.2470 O   0  0  0  0  0  0  0  0  0  0  0  0
    1.1088    0.5648    0.2873 N   0  0  0  0  0  0  0  0  0  0  0  0
    0.5126    2.1458   -2.1915 C   0  0  0  0  0  0  0  0  0  0  0  0
    1.3651    3.3342   -2.2680 C   0  0  0  0  0  0  0  0  0  0  0  0
    2.1279    3.4256   -3.2948 O   0  0  0  0  0  0  0  0  0  0  0  0
    1.4383    4.3814   -1.3432 N   0  0  0  0  0  0  0  0  0  0  0  0
   -3.4201    5.3931   -0.2848 C   0  0  0  0  0  0  0  0  0  0  0  0
   -4.6240    6.2750   -0.5317 C   0  0  0  0  0  0  0  0  0  0  0  0
   -5.0695    6.3112   -1.9272 C   0  0  0  0  0  0  0  0  0  0  0  0
   -4.4391    5.8065   -2.8748 O   0  0  0  0  0  0  0  0  0  0  0  0
   -6.2987    6.9638   -2.2233 N   0  0  0  0  0  0  0  0  0  0  0  0
   -6.6308    1.7593    1.6553 C   0  0  2  0  0  0  0  0  0  0  0  0
   -5.7038    1.7311    2.8067 C   0  0  0  0  0  0  0  0  0  0  0  0
   -5.2404    0.4052    3.2952 C   0  0  0  0  0  0  0  0  0  0  0  0
   -7.9626    1.0690    1.9901 C   0  0  0  0  0  0  0  0  0  0  0  0
    5.1645   -1.4343    0.1589 C   0  0  0  0  0  0  0  0  0  0  0  0
    6.1666   -0.4593    0.6230 C   0  0  0  0  0  0  0  0  0  0  0  0
    5.8710    0.7560    0.8040 O   0  0  0  0  0  0  0  0  0  0  0  0
    7.4997   -0.9536    0.8593 N   0  0  0  0  0  0  0  0  0  0  0  0
    8.5664   -0.1063    1.3215 C   0  0  2  0  0  0  0  0  0  0  0  0
    9.3644    0.3795    0.1553 C   0  0  0  0  0  0  0  0  0  0  0  0
    8.9524    0.0205   -0.9778 O   0  0  0  0  0  0  0  0  0  0  0  0
   10.5091    1.1958    0.2706 N   0  0  0  0  0  0  0  0  0  0  0  0
   11.2835    1.6978   -0.8354 C   0  0  0  0  0  0  0  0  0  0  0  0
   11.8717    0.6696   -1.7017 C   0  0  0  0  0  0  0  0  0  0  0  0
   12.5609    1.0870   -2.6910 O   0  0  0  0  0  0  0  0  0  0  0  0
   11.7602   -0.7247   -1.5623 N   0  0  0  0  0  0  0  0  0  0  0  0
    9.3120   -0.5234    2.5096 C   0  0  0  0  0  0  0  0  0  0  0  0
   10.0356   -1.8153    2.5167 C   0  0  0  0  0  0  0  0  0  0  0  0
    9.2329   -3.0536    2.3199 C   0  0  0  0  0  0  0  0  0  0  0  0
   11.2472   -1.8552    1.5922 C   0  0  0  0  0  0  0  0  0  0  0  0
    1.6488   -2.1790   -4.3074 H   0  0  0  0  0  0  0  0  0  0  0  0
    1.1572   -1.1674   -2.5137 H   0  0  0  0  0  0  0  0  0  0  0  0
    1.9373   -2.5525   -1.5319 H   0  0  0  0  0  0  0  0  0  0  0  0
    3.2769   -0.5330   -3.4144 H   0  0  0  0  0  0  0  0  0  0  0  0
    4.1466   -1.8914   -2.7322 H   0  0  0  0  0  0  0  0  0  0  0  0
    3.1548    0.7349   -1.4794 H   0  0  0  0  0  0  0  0  0  0  0  0
    4.8022    0.1942   -1.6740 H   0  0  0  0  0  0  0  0  0  0  0  0
    1.9348    0.7899    2.2341 H   0  0  0  0  0  0  0  0  0  0  0  0
    0.1530   -0.6748    2.6798 H   0  0  0  0  0  0  0  0  0  0  0  0
    1.6506   -1.7147    2.6278 H   0  0  0  0  0  0  0  0  0  0  0  0
   -0.9285   -4.1555    0.3743 H   0  0  0  0  0  0  0  0  0  0  0  0
    0.3176   -4.3357    1.5972 H   0  0  0  0  0  0  0  0  0  0  0  0
   -1.9198   -4.7078    2.5039 H   0  0  0  0  0  0  0  0  0  0  0  0
   -1.2218   -3.3275    3.3299 H   0  0  0  0  0  0  0  0  0  0  0  0
   -3.5633   -2.9548    2.8733 H   0  0  0  0  0  0  0  0  0  0  0  0
   -2.5731   -1.7217    2.1165 H   0  0  0  0  0  0  0  0  0  0  0  0
   -5.2613   -2.1962    1.6727 H   0  0  0  0  0  0  0  0  0  0  0  0
   -5.3731   -2.9362   -1.2385 H   0  0  0  0  0  0  0  0  0  0  0  0
   -6.6561   -4.5760    0.2826 H   0  0  0  0  0  0  0  0  0  0  0  0
   -7.5129   -3.1551    0.9098 H   0  0  0  0  0  0  0  0  0  0  0  0
   -9.3722   -2.1803   -0.3937 H   0  0  0  0  0  0  0  0  0  0  0  0
  -10.8329   -2.3269   -2.3785 H   0  0  0  0  0  0  0  0  0  0  0  0
   -8.2597   -5.2061   -4.1328 H   0  0  0  0  0  0  0  0  0  0  0  0
   -6.7803   -5.0991   -2.2156 H   0  0  0  0  0  0  0  0  0  0  0  0
  -11.1982   -4.5617   -4.4959 H   0  0  0  0  0  0  0  0  0  0  0  0
   -5.0324   -0.4409    0.9186 H   0  0  0  0  0  0  0  0  0  0  0  0
   -7.1447    1.3350   -0.3221 H   0  0  0  0  0  0  0  0  0  0  0  0
   -5.2965    3.7873    0.8316 H   0  0  0  0  0  0  0  0  0  0  0  0
   -3.9457    3.8647   -1.7290 H   0  0  0  0  0  0  0  0  0  0  0  0
   -1.0245    4.2057   -1.3172 H   0  0  0  0  0  0  0  0  0  0  0  0
   -1.0060    1.1736   -1.0405 H   0  0  0  0  0  0  0  0  0  0  0  0
    1.0657    0.0426   -0.5722 H   0  0  0  0  0  0  0  0  0  0  0  0
    1.0952    1.2264   -2.2287 H   0  0  0  0  0  0  0  0  0  0  0  0
   -0.1995    2.2014   -3.0764 H   0  0  0  0  0  0  0  0  0  0  0  0
    1.8372    4.3303   -0.3823 H   0  0  0  0  0  0  0  0  0  0  0  0
    1.0609    5.3373   -1.6168 H   0  0  0  0  0  0  0  0  0  0  0  0
   -2.6126    5.7940   -0.9545 H   0  0  0  0  0  0  0  0  0  0  0  0
   -3.1297    5.5508    0.7743 H   0  0  0  0  0  0  0  0  0  0  0  0
   -4.3179    7.3176   -0.2444 H   0  0  0  0  0  0  0  0  0  0  0  0
   -5.4687    5.9453    0.0940 H   0  0  0  0  0  0  0  0  0  0  0  0
   -6.3874    7.9932   -2.2166 H   0  0  0  0  0  0  0  0  0  0  0  0
   -7.1512    6.3735   -2.4570 H   0  0  0  0  0  0  0  0  0  0  0  0
   -6.9518    2.8411    1.4930 H   0  0  0  0  0  0  0  0  0  0  0  0
   -4.7883    2.3250    2.5629 H   0  0  0  0  0  0  0  0  0  0  0  0
   -6.1620    2.3239    3.6556 H   0  0  0  0  0  0  0  0  0  0  0  0
   -4.2065    0.1228    3.0109 H   0  0  0  0  0  0  0  0  0  0  0  0
   -5.9161   -0.4308    3.0944 H   0  0  0  0  0  0  0  0  0  0  0  0
   -5.2438    0.4731    4.4401 H   0  0  0  0  0  0  0  0  0  0  0  0
   -8.5783    1.6902    2.6638 H   0  0  0  0  0  0  0  0  0  0  0  0
   -7.7854    0.0431    2.3180 H   0  0  0  0  0  0  0  0  0  0  0  0
   -8.5180    1.0284    1.0124 H   0  0  0  0  0  0  0  0  0  0  0  0
    5.0114   -2.1631    0.9707 H   0  0  0  0  0  0  0  0  0  0  0  0
    5.4233   -2.0010   -0.7317 H   0  0  0  0  0  0  0  0  0  0  0  0
    7.6604   -1.9630    0.6700 H   0  0  0  0  0  0  0  0  0  0  0  0
    8.0058    0.8543    1.6404 H   0  0  0  0  0  0  0  0  0  0  0  0
   10.8189    1.4568    1.2415 H   0  0  0  0  0  0  0  0  0  0  0  0
   10.5790    2.2840   -1.5084 H   0  0  0  0  0  0  0  0  0  0  0  0
   12.0491    2.4407   -0.4888 H   0  0  0  0  0  0  0  0  0  0  0  0
   11.0639   -1.3367   -2.0152 H   0  0  0  0  0  0  0  0  0  0  0  0
   12.4560   -1.2076   -0.9354 H   0  0  0  0  0  0  0  0  0  0  0  0
   10.0667    0.2712    2.7367 H   0  0  0  0  0  0  0  0  0  0  0  0
    8.6024   -0.5313    3.3755 H   0  0  0  0  0  0  0  0  0  0  0  0
   10.5026   -1.8907    3.5544 H   0  0  0  0  0  0  0  0  0  0  0  0
    9.7002   -3.8608    2.9768 H   0  0  0  0  0  0  0  0  0  0  0  0
    9.3002   -3.5053    1.3072 H   0  0  0  0  0  0  0  0  0  0  0  0
    8.2097   -2.9695    2.7243 H   0  0  0  0  0  0  0  0  0  0  0  0
   11.7971   -0.9026    1.5855 H   0  0  0  0  0  0  0  0  0  0  0  0
   11.9865   -2.6267    1.9634 H   0  0  0  0  0  0  0  0  0  0  0  0
   10.9204   -2.2248    0.6092 H   0  0  0  0  0  0  0  0  0  0  0  0
  1  2  1  0
  2  3  1  0
  3  4  1  0
  4  5  1  0
  5  6  1  0
  6  7  2  0
  6  8  1  0
  8  9  1  0
  9 10  1  0
 10 11  1  0
 11 12  1  0
 12 13  1  0
 13 14  1  0
 14 15  2  0
 14 16  1  0
 16 17  1  0
 17 18  1  0
 18 19  1  0
 19 20  2  0
 20 21  1  0
 21 22  2  0
 22 23  1  0
 23 24  2  0
 22 25  1  0
 17 26  1  0
 26 27  2  0
 26 28  1  0
 28 29  1  0
 29 30  1  0
 30 31  2  0
 30 32  1  0
 32 33  1  0
 33 34  1  0
 34 35  2  0
 34 36  1  0
 36 37  1  0
 37 38  1  0
 38 39  2  0
 38 40  1  0
 37 41  1  0
 41 42  1  0
 42 43  2  0
 42 44  1  0
 33 45  1  0
 45 46  1  0
 46 47  1  0
 47 48  2  0
 47 49  1  0
 29 50  1  0
 50 51  1  0
 51 52  1  0
 50 53  1  0
  5 54  1  0
 54 55  1  0
 55 56  2  0
 55 57  1  0
 57 58  1  0
 58 59  1  0
 59 60  2  0
 59 61  1  0
 61 62  1  0
 62 63  1  0
 63 64  2  0
 63 65  1  0
 58 66  1  0
 66 67  1  0
 67 68  1  0
 67 69  1  0
 40  8  1  0
 24 19  1  0
  1 70  1  0
  2 71  1  0
  2 72  1  0
  3 73  1  0
  3 74  1  0
  4 75  1  0
  4 76  1  0
  8 77  1  1
  9 78  1  0
  9 79  1  0
 11 80  1  0
 11 81  1  0
 12 82  1  0
 12 83  1  0
 13 84  1  0
 13 85  1  0
 16 86  1  0
 17 87  1  6
 18 88  1  0
 18 89  1  0
 20 90  1  0
 21 91  1  0
 23 92  1  0
 24 93  1  0
 25 94  1  0
 28 95  1  0
 29 96  1  6
 32 97  1  0
 33 98  1  6
 36 99  1  0
 37100  1  6
 40101  1  0
 41102  1  0
 41103  1  0
 44104  1  0
 44105  1  0
 45106  1  0
 45107  1  0
 46108  1  0
 46109  1  0
 49110  1  0
 49111  1  0
 50112  1  6
 51113  1  0
 51114  1  0
 52115  1  0
 52116  1  0
 52117  1  0
 53118  1  0
 53119  1  0
 53120  1  0
 54121  1  0
 54122  1  0
 57123  1  0
 58124  1  1
 61125  1  0
 62126  1  0
 62127  1  0
 65128  1  0
 65129  1  0
 66130  1  0
 66131  1  0
 67132  1  0
 68133  1  0
 68134  1  0
 68135  1  0
 69136  1  0
 69137  1  0
 69138  1  0
M  END
>  <Ligand ID>  (1) 
LIG0001573

>  <Ligand>  (1) 
CHEMBL3354579

>  <SMILES>  (1) 
OCCCN(C(=O)[C@@H]1CSCCCC(=O)N[C@@H](Cc2ccc(cc2)O)C(=O)N[C@H](C(=O)N[C@H](C(=O)N[C@H](C(=O)N1)CC(=O)N)CCC(=O)N)[C@H](CC)C)CC(=O)N[C@H](C(=O)NCC(=O)N)CC(C)C

>  <CID>  (1) 
118720268.0

>  <ChEMBL ID>  (1) 
nan

>  <InChiKey>  (1) 
SMVMGIUZDRKYJP-FRGVEXLJSA-N

>  <InChi>  (1) 
InChI=1S/C44H69N11O13S/c1-5-25(4)38-43(67)51-28(13-14-33(45)58)40(64)52-31(20-34(46)59)41(65)53-32(23-69-17-6-8-36(61)49-30(42(66)54-38)19-26-9-11-27(57)12-10-26)44(68)55(15-7-16-56)22-37(62)50-29(18-24(2)3)39(63)48-21-35(47)60/h9-12,24-25,28-32,38,56-57H,5-8,13-23H2,1-4H3,(H2,45,58)(H2,46,59)(H2,47,60)(H,48,63)(H,49,61)(H,50,62)(H,51,67)(H,52,64)(H,53,65)(H,54,66)/t25-,28-,29-,30-,31-,32-,38-/m0/s1

>  <IUPAC Name>  (1) 
(3R,6S,9S,12S,15S)-6-(2-amino-2-oxoethyl)-N-[2-[[(2S)-1-[(2-amino-2-oxoethyl)amino]-4-methyl-1-oxopentan-2-yl]amino]-2-oxoethyl]-9-(3-amino-3-oxopropyl)-12-[(2S)-butan-2-yl]-15-[(4-hydroxyphenyl)methyl]-N-(3-hydroxypropyl)-5,8,11,14,17-pentaoxo-1-thia-4,7,10,13,16-pentazacycloicosane-3-carboxamide

$$$$
