
     RDKit          3D

 51 54  0  0  0  0  0  0  0  0999 V2000
   -0.4287   -3.7692    0.5582 C   0  0  0  0  0  0  0  0  0  0  0  0
   -0.9817   -2.4326    0.6918 N   0  0  0  0  0  0  0  0  0  0  0  0
   -2.2678   -2.1300    0.9766 C   0  0  0  0  0  0  0  0  0  0  0  0
   -3.1900   -2.9846    1.1710 O   0  0  0  0  0  0  0  0  0  0  0  0
   -2.4387   -0.7963    1.0264 N   0  0  0  0  0  0  0  0  0  0  0  0
   -1.2200   -0.2592    0.7641 C   0  0  0  0  0  0  0  0  0  0  0  0
   -0.2977   -1.2733    0.5525 C   0  0  0  0  0  0  0  0  0  0  0  0
    1.0051   -0.9831    0.2695 N   0  0  0  0  0  0  0  0  0  0  0  0
    1.4396    0.2876    0.1859 C   0  0  0  0  0  0  0  0  0  0  0  0
    0.5405    1.3093    0.3925 C   0  0  0  0  0  0  0  0  0  0  0  0
   -0.7874    1.0642    0.6814 C   0  0  0  0  0  0  0  0  0  0  0  0
    2.8104    0.4829   -0.1123 N   0  0  0  0  0  0  0  0  0  0  0  0
    3.6571   -0.6822   -0.2947 C   0  0  0  0  0  0  0  0  0  0  0  0
    5.0925   -0.1682   -0.1191 C   0  0  0  0  0  0  0  0  0  0  0  0
    5.1628    0.6576    1.1483 C   0  0  0  0  0  0  0  0  0  0  0  0
    4.4454    1.9551    0.8970 C   0  0  0  0  0  0  0  0  0  0  0  0
    3.4406    1.7784   -0.2508 C   0  0  0  0  0  0  0  0  0  0  0  0
    4.3272    1.6571   -1.5000 C   0  0  0  0  0  0  0  0  0  0  0  0
    5.3833    0.7251   -1.2157 N   0  0  0  0  0  0  0  0  0  0  0  0
   -3.6619   -0.0713    1.3013 C   0  0  0  0  0  0  0  0  0  0  0  0
   -4.4423    0.2263    0.0469 C   0  0  0  0  0  0  0  0  0  0  0  0
   -3.6831    1.0596   -0.9435 C   0  0  0  0  0  0  0  0  0  0  0  0
   -5.7006    0.9692    0.4734 C   0  0  0  0  0  0  0  0  0  0  0  0
   -4.9042   -1.0344   -0.6499 C   0  0  0  0  0  0  0  0  0  0  0  0
   -0.5354   -4.1782   -0.4611 H   0  0  0  0  0  0  0  0  0  0  0  0
    0.6136   -3.8013    0.9215 H   0  0  0  0  0  0  0  0  0  0  0  0
   -1.0024   -4.4644    1.2346 H   0  0  0  0  0  0  0  0  0  0  0  0
    0.8669    2.3374    0.3308 H   0  0  0  0  0  0  0  0  0  0  0  0
   -1.4571    1.9002    0.8360 H   0  0  0  0  0  0  0  0  0  0  0  0
    3.6134   -1.0837   -1.3292 H   0  0  0  0  0  0  0  0  0  0  0  0
    3.4098   -1.4276    0.4846 H   0  0  0  0  0  0  0  0  0  0  0  0
    5.8071   -1.0058   -0.1358 H   0  0  0  0  0  0  0  0  0  0  0  0
    4.7074    0.1027    2.0044 H   0  0  0  0  0  0  0  0  0  0  0  0
    6.2277    0.8246    1.4126 H   0  0  0  0  0  0  0  0  0  0  0  0
    5.2009    2.6895    0.5197 H   0  0  0  0  0  0  0  0  0  0  0  0
    3.9694    2.3637    1.7984 H   0  0  0  0  0  0  0  0  0  0  0  0
    2.7629    2.6249   -0.3188 H   0  0  0  0  0  0  0  0  0  0  0  0
    4.7946    2.6337   -1.7310 H   0  0  0  0  0  0  0  0  0  0  0  0
    3.7259    1.2912   -2.3736 H   0  0  0  0  0  0  0  0  0  0  0  0
    5.7134    0.1902   -2.0522 H   0  0  0  0  0  0  0  0  0  0  0  0
   -4.3465   -0.6516    1.9642 H   0  0  0  0  0  0  0  0  0  0  0  0
   -3.4766    0.8935    1.8148 H   0  0  0  0  0  0  0  0  0  0  0  0
   -4.3470    1.2096   -1.8162 H   0  0  0  0  0  0  0  0  0  0  0  0
   -3.3931    2.0448   -0.5772 H   0  0  0  0  0  0  0  0  0  0  0  0
   -2.8147    0.4285   -1.2922 H   0  0  0  0  0  0  0  0  0  0  0  0
   -6.2497    0.3765    1.2398 H   0  0  0  0  0  0  0  0  0  0  0  0
   -5.4848    1.9991    0.8186 H   0  0  0  0  0  0  0  0  0  0  0  0
   -6.3705    1.0340   -0.4088 H   0  0  0  0  0  0  0  0  0  0  0  0
   -5.6663   -0.6785   -1.4029 H   0  0  0  0  0  0  0  0  0  0  0  0
   -5.4489   -1.7316    0.0018 H   0  0  0  0  0  0  0  0  0  0  0  0
   -4.1207   -1.5090   -1.2531 H   0  0  0  0  0  0  0  0  0  0  0  0
  1  2  1  0
  2  3  1  0
  3  4  2  0
  3  5  1  0
  5  6  1  0
  6  7  2  0
  7  8  1  0
  8  9  2  0
  9 10  1  0
 10 11  2  0
  9 12  1  0
 12 13  1  0
 13 14  1  0
 14 15  1  0
 15 16  1  0
 16 17  1  0
 17 18  1  0
 18 19  1  0
  5 20  1  0
 20 21  1  0
 21 22  1  0
 21 23  1  0
 21 24  1  0
  7  2  1  0
 17 12  1  0
 11  6  1  0
 19 14  1  0
  1 25  1  0
  1 26  1  0
  1 27  1  0
 10 28  1  0
 11 29  1  0
 13 30  1  0
 13 31  1  0
 14 32  1  0
 15 33  1  0
 15 34  1  0
 16 35  1  0
 16 36  1  0
 17 37  1  0
 18 38  1  0
 18 39  1  0
 19 40  1  0
 20 41  1  0
 20 42  1  0
 22 43  1  0
 22 44  1  0
 22 45  1  0
 23 46  1  0
 23 47  1  0
 23 48  1  0
 24 49  1  0
 24 50  1  0
 24 51  1  0
M  END
>  <Ligand ID>  (1) 
LIG0000902

>  <Ligand>  (1) 
CHEMBL3806226

>  <SMILES>  (1) 
Cn1c(=O)n(c2c1nc(cc2)N1CC2CCC1CN2)CC(C)(C)C

>  <CID>  (1) 
69929646.0

>  <ChEMBL ID>  (1) 
nan

>  <InChiKey>  (1) 
WEPJXKWFNNWMFO-UHFFFAOYSA-N

>  <InChi>  (1) 
InChI=1S/C18H27N5O/c1-18(2,3)11-23-14-7-8-15(20-16(14)21(4)17(23)24)22-10-12-5-6-13(22)9-19-12/h7-8,12-13,19H,5-6,9-11H2,1-4H3

>  <IUPAC Name>  (1) 
5-(2,5-diazabicyclo[2.2.2]octan-2-yl)-1-(2,2-dimethylpropyl)-3-methylimidazo[4,5-b]pyridin-2-one

$$$$
