
     RDKit          3D

 21 20  0  0  0  0  0  0  0  0999 V2000
    3.5747    0.1191    0.3935 O   0  0  0  0  0  0  0  0  0  0  0  0
    2.4626    0.8052   -0.0682 C   0  0  0  0  0  0  0  0  0  0  0  0
    2.4040    2.0657    0.0199 O   0  0  0  0  0  0  0  0  0  0  0  0
    1.2871    0.1256   -0.6851 C   0  0  2  0  0  0  0  0  0  0  0  0
    0.0268    0.4492    0.1197 C   0  0  0  0  0  0  0  0  0  0  0  0
   -1.1230   -0.2674   -0.5558 C   0  0  0  0  0  0  0  0  0  0  0  0
   -2.6881    0.0083    0.2679 P   0  0  0  0  0  0  0  0  0  0  0  0
   -3.6226    0.7480   -0.6482 O   0  0  0  0  0  0  0  0  0  0  0  0
   -3.4006   -1.4625    0.7023 O   0  0  0  0  0  0  0  0  0  0  0  0
   -2.4046    0.9404    1.6507 O   0  0  0  0  0  0  0  0  0  0  0  0
    1.5075   -1.2976   -0.7117 N   0  0  0  0  0  0  0  0  0  0  0  0
    4.2296    0.5453    1.0539 H   0  0  0  0  0  0  0  0  0  0  0  0
    1.2140    0.4795   -1.7282 H   0  0  0  0  0  0  0  0  0  0  0  0
    0.1788    0.0721    1.1364 H   0  0  0  0  0  0  0  0  0  0  0  0
   -0.1646    1.5393    0.0831 H   0  0  0  0  0  0  0  0  0  0  0  0
   -0.8921   -1.3594   -0.5502 H   0  0  0  0  0  0  0  0  0  0  0  0
   -1.1846    0.0433   -1.5978 H   0  0  0  0  0  0  0  0  0  0  0  0
   -2.6992   -2.1619    0.6802 H   0  0  0  0  0  0  0  0  0  0  0  0
   -2.4389    1.8760    1.3656 H   0  0  0  0  0  0  0  0  0  0  0  0
    1.2920   -1.7665    0.1755 H   0  0  0  0  0  0  0  0  0  0  0  0
    2.4411   -1.5014   -1.1036 H   0  0  0  0  0  0  0  0  0  0  0  0
  1  2  1  0
  2  3  2  0
  2  4  1  0
  4  5  1  0
  5  6  1  0
  6  7  1  0
  7  8  2  0
  7  9  1  0
  7 10  1  0
  4 11  1  0
  1 12  1  0
  4 13  1  6
  5 14  1  0
  5 15  1  0
  6 16  1  0
  6 17  1  0
  9 18  1  0
 10 19  1  0
 11 20  1  0
 11 21  1  0
M  END
>  <Ligand ID>  (1) 
LIG0000323

>  <Ligand>  (1) 
L-AP4

>  <SMILES>  (1) 
OC(=O)[C@H](CCP(=O)(O)O)N

>  <CID>  (1) 
179394.0

>  <ChEMBL ID>  (1) 
nan

>  <InChiKey>  (1) 
DDOQBQRIEWHWBT-VKHMYHEASA-N

>  <InChi>  (1) 
InChI=1S/C4H10NO5P/c5-3(4(6)7)1-2-11(8,9)10/h3H,1-2,5H2,(H,6,7)(H2,8,9,10)/t3-/m0/s1

>  <IUPAC Name>  (1) 
(2S)-2-amino-4-phosphonobutanoic acid

$$$$
