
     RDKit          3D

 54 57  0  0  0  0  0  0  0  0999 V2000
   -5.6797    3.6379    1.2287 Cl  0  0  0  0  0  0  0  0  0  0  0  0
   -6.1370    2.0394    0.6717 C   0  0  0  0  0  0  0  0  0  0  0  0
   -7.4447    1.6016    0.8826 C   0  0  0  0  0  0  0  0  0  0  0  0
   -7.7684    0.3401    0.4314 C   0  0  0  0  0  0  0  0  0  0  0  0
   -6.8421   -0.4603   -0.2023 C   0  0  0  0  0  0  0  0  0  0  0  0
   -5.5354   -0.0405   -0.4205 C   0  0  0  0  0  0  0  0  0  0  0  0
   -5.2127    1.2110    0.0260 C   0  0  0  0  0  0  0  0  0  0  0  0
   -4.6425   -0.9708   -1.1171 C   0  0  2  0  0  0  0  0  0  0  0  0
   -3.2222   -0.5020   -1.2536 C   0  0  0  0  0  0  0  0  0  0  0  0
   -2.7416   -0.1029   -0.0092 N   0  0  0  0  0  0  0  0  0  0  0  0
   -1.4329    0.3810    0.1231 C   0  0  1  0  0  0  0  0  0  0  0  0
   -1.1999    0.7293    1.5768 C   0  0  0  0  0  0  0  0  0  0  0  0
   -0.4605   -0.4017    2.3102 C   0  0  0  0  0  0  0  0  0  0  0  0
    0.9181   -0.3606    1.6967 C   0  0  0  0  0  0  0  0  0  0  0  0
    0.9421   -0.3935    0.3135 C   0  0  0  0  0  0  0  0  0  0  0  0
   -0.3424   -0.4701   -0.4273 C   0  0  0  0  0  0  0  0  0  0  0  0
    2.1735   -0.3551   -0.3136 C   0  0  0  0  0  0  0  0  0  0  0  0
    3.3465   -0.2856    0.4272 C   0  0  0  0  0  0  0  0  0  0  0  0
    3.2728   -0.2547    1.8199 C   0  0  0  0  0  0  0  0  0  0  0  0
    2.0550   -0.2920    2.4715 C   0  0  0  0  0  0  0  0  0  0  0  0
    4.6654   -0.2439   -0.1978 C   0  0  0  0  0  0  0  0  0  0  0  0
    5.6637    0.4572    0.4701 C   0  0  0  0  0  0  0  0  0  0  0  0
    6.9389    0.5335   -0.0712 C   0  0  0  0  0  0  0  0  0  0  0  0
    7.2391   -0.0800   -1.2731 C   0  0  0  0  0  0  0  0  0  0  0  0
    6.2351   -0.7714   -1.9216 C   0  0  0  0  0  0  0  0  0  0  0  0
    4.9498   -0.8617   -1.3990 C   0  0  0  0  0  0  0  0  0  0  0  0
    8.5831   -0.0016   -1.8464 C   0  0  0  0  0  0  0  0  0  0  0  0
    8.8544   -0.5603   -2.9409 O   0  0  0  0  0  0  0  0  0  0  0  0
    9.5669    0.7015   -1.1659 O   0  0  0  0  0  0  0  0  0  0  0  0
   -5.1988   -1.4289   -2.3161 O   0  0  0  0  0  0  0  0  0  0  0  0
   -8.1517    2.2452    1.3810 H   0  0  0  0  0  0  0  0  0  0  0  0
   -8.8007    0.0235    0.6101 H   0  0  0  0  0  0  0  0  0  0  0  0
   -7.1973   -1.4394   -0.5206 H   0  0  0  0  0  0  0  0  0  0  0  0
   -4.2322    1.6330   -0.1020 H   0  0  0  0  0  0  0  0  0  0  0  0
   -4.5824   -1.8846   -0.4487 H   0  0  0  0  0  0  0  0  0  0  0  0
   -2.6733   -1.3131   -1.7671 H   0  0  0  0  0  0  0  0  0  0  0  0
   -3.2035    0.3451   -2.0021 H   0  0  0  0  0  0  0  0  0  0  0  0
   -3.2442   -0.3789    0.8365 H   0  0  0  0  0  0  0  0  0  0  0  0
   -1.3901    1.3780   -0.4112 H   0  0  0  0  0  0  0  0  0  0  0  0
   -0.5730    1.6369    1.6906 H   0  0  0  0  0  0  0  0  0  0  0  0
   -2.1802    0.8225    2.0688 H   0  0  0  0  0  0  0  0  0  0  0  0
   -0.8812   -1.3882    2.0985 H   0  0  0  0  0  0  0  0  0  0  0  0
   -0.4641   -0.1662    3.3726 H   0  0  0  0  0  0  0  0  0  0  0  0
   -0.5872   -1.5490   -0.4672 H   0  0  0  0  0  0  0  0  0  0  0  0
   -0.1171   -0.2029   -1.4972 H   0  0  0  0  0  0  0  0  0  0  0  0
    2.2197   -0.3795   -1.3936 H   0  0  0  0  0  0  0  0  0  0  0  0
    4.1597   -0.2008    2.4443 H   0  0  0  0  0  0  0  0  0  0  0  0
    1.9574   -0.2697    3.5522 H   0  0  0  0  0  0  0  0  0  0  0  0
    5.4862    0.9566    1.4126 H   0  0  0  0  0  0  0  0  0  0  0  0
    7.7337    1.0812    0.4423 H   0  0  0  0  0  0  0  0  0  0  0  0
    6.4974   -1.2422   -2.8606 H   0  0  0  0  0  0  0  0  0  0  0  0
    4.1721   -1.4063   -1.9166 H   0  0  0  0  0  0  0  0  0  0  0  0
   10.4480    0.9704   -1.6037 H   0  0  0  0  0  0  0  0  0  0  0  0
   -5.9402   -2.0665   -2.1007 H   0  0  0  0  0  0  0  0  0  0  0  0
  1  2  1  0
  2  3  2  0
  3  4  1  0
  4  5  2  0
  5  6  1  0
  6  7  2  0
  6  8  1  0
  8  9  1  0
  9 10  1  0
 10 11  1  0
 11 12  1  0
 12 13  1  0
 13 14  1  0
 14 15  2  0
 15 16  1  0
 15 17  1  0
 17 18  2  0
 18 19  1  0
 19 20  2  0
 18 21  1  0
 21 22  2  0
 22 23  1  0
 23 24  2  0
 24 25  1  0
 25 26  2  0
 24 27  1  0
 27 28  2  0
 27 29  1  0
  8 30  1  0
  7  2  1  0
 16 11  1  0
 26 21  1  0
 20 14  1  0
  3 31  1  0
  4 32  1  0
  5 33  1  0
  7 34  1  0
  8 35  1  1
  9 36  1  0
  9 37  1  0
 10 38  1  0
 11 39  1  6
 12 40  1  0
 12 41  1  0
 13 42  1  0
 13 43  1  0
 16 44  1  0
 16 45  1  0
 17 46  1  0
 19 47  1  0
 20 48  1  0
 22 49  1  0
 23 50  1  0
 25 51  1  0
 26 52  1  0
 29 53  1  0
 30 54  1  0
M  END
>  <Ligand ID>  (1) 
LIG0002989

>  <Ligand>  (1) 
CHEMBL498302

>  <SMILES>  (1) 
Clc1cccc(c1)[C@H](CN[C@H]1CCc2c(C1)cc(cc2)c1ccc(cc1)C(=O)O)O

>  <CID>  (1) 
24949418.0

>  <ChEMBL ID>  (1) 
nan

>  <InChiKey>  (1) 
GTBCQFYKMQRRPD-ZEQRLZLVSA-N

>  <InChi>  (1) 
InChI=1S/C25H24ClNO3/c26-22-3-1-2-20(13-22)24(28)15-27-23-11-10-17-6-9-19(12-21(17)14-23)16-4-7-18(8-5-16)25(29)30/h1-9,12-13,23-24,27-28H,10-11,14-15H2,(H,29,30)/t23-,24-/m0/s1

>  <IUPAC Name>  (1) 
4-[(7S)-7-[[(2R)-2-(3-chlorophenyl)-2-hydroxyethyl]amino]-5,6,7,8-tetrahydronaphthalen-2-yl]benzoic acid

$$$$
