
     RDKit          3D

149154  0  0  0  0  0  0  0  0999 V2000
    9.4996   -3.5491    2.2345 C   0  0  0  0  0  0  0  0  0  0  0  0
    9.2331   -2.0902    2.4342 C   0  0  0  0  0  0  0  0  0  0  0  0
    8.3001   -1.5032    1.3766 C   0  0  0  0  0  0  0  0  0  0  0  0
    8.8392   -1.6317    0.0070 C   0  0  0  0  0  0  0  0  0  0  0  0
    7.9079   -1.0064   -1.0381 C   0  0  2  0  0  0  0  0  0  0  0  0
    6.5662   -1.5909   -1.0660 C   0  0  0  0  0  0  0  0  0  0  0  0
    6.2837   -2.3697   -2.0234 O   0  0  0  0  0  0  0  0  0  0  0  0
    5.5869   -1.3332   -0.0923 N   0  0  0  0  0  0  0  0  0  0  0  0
    4.2423   -1.9432   -0.0985 C   0  0  1  0  0  0  0  0  0  0  0  0
    4.0666   -2.9421    0.9991 C   0  0  0  0  0  0  0  0  0  0  0  0
    2.9118   -3.8772    0.6977 C   0  0  0  0  0  0  0  0  0  0  0  0
    2.2242   -3.7969   -0.3157 O   0  0  0  0  0  0  0  0  0  0  0  0
    2.5919   -4.9182    1.6022 N   0  0  0  0  0  0  0  0  0  0  0  0
    1.6415   -5.9377    1.5333 C   0  0  0  0  0  0  0  0  0  0  0  0
    0.1892   -5.8468    1.4228 C   0  0  0  0  0  0  0  0  0  0  0  0
   -0.4525   -5.2191    0.2359 C   0  0  0  0  0  0  0  0  0  0  0  0
   -1.8702   -5.6017    0.0198 C   0  0  0  0  0  0  0  0  0  0  0  0
   -2.9529   -5.2601    0.9035 C   0  0  2  0  0  0  0  0  0  0  0  0
   -3.3734   -3.8753    1.0126 N   0  0  0  0  0  0  0  0  0  0  0  0
   -4.7840   -3.6603    1.2446 C   0  0  0  0  0  0  0  0  0  0  0  0
   -5.4298   -4.7217    1.4052 O   0  0  0  0  0  0  0  0  0  0  0  0
   -5.4991   -2.4083    1.3176 C   0  0  1  0  0  0  0  0  0  0  0  0
   -4.7062   -1.1898    1.0648 N   0  0  0  0  0  0  0  0  0  0  0  0
   -4.7301   -0.1344    2.0113 C   0  0  0  0  0  0  0  0  0  0  0  0
   -5.3786   -0.3447    3.0469 O   0  0  0  0  0  0  0  0  0  0  0  0
   -4.0545    1.1759    1.8668 C   0  0  1  0  0  0  0  0  0  0  0  0
   -3.4092    1.2326    0.5236 N   0  0  0  0  0  0  0  0  0  0  0  0
   -2.0522    1.5699    0.3466 C   0  0  0  0  0  0  0  0  0  0  0  0
   -1.4455    1.8802    1.3969 O   0  0  0  0  0  0  0  0  0  0  0  0
   -1.2810    1.6020   -0.9067 C   0  0  2  0  0  0  0  0  0  0  0  0
    0.0771    2.1535   -0.6068 N   0  0  0  0  0  0  0  0  0  0  0  0
    1.2311    1.3834   -0.6598 C   0  0  0  0  0  0  0  0  0  0  0  0
    1.0110    0.2100   -1.1558 O   0  0  0  0  0  0  0  0  0  0  0  0
    2.6198    1.6366   -0.2769 C   0  0  1  0  0  0  0  0  0  0  0  0
    3.4900    0.4723   -0.5610 N   0  0  0  0  0  0  0  0  0  0  0  0
    3.2833   -0.7938    0.0460 C   0  0  0  0  0  0  0  0  0  0  0  0
    2.2571   -0.9378    0.7071 O   0  0  0  0  0  0  0  0  0  0  0  0
    3.3185    2.8288   -0.7569 C   0  0  0  0  0  0  0  0  0  0  0  0
    2.9204    4.1697   -0.3656 C   0  0  0  0  0  0  0  0  0  0  0  0
    2.0331    4.7253    0.4459 N   0  0  0  0  0  0  0  0  0  0  0  0
    2.0625    6.0668    0.3904 C   0  0  0  0  0  0  0  0  0  0  0  0
    2.9999    6.3982   -0.4833 N   0  0  0  0  0  0  0  0  0  0  0  0
    3.5467    5.2970   -0.9664 C   0  0  0  0  0  0  0  0  0  0  0  0
   -1.7977    2.2849   -2.0910 C   0  0  0  0  0  0  0  0  0  0  0  0
   -2.0909    3.7285   -1.9873 C   0  0  0  0  0  0  0  0  0  0  0  0
   -3.3992    4.0814   -1.6954 C   0  0  0  0  0  0  0  0  0  0  0  0
   -3.8211    5.3829   -1.5689 C   0  0  0  0  0  0  0  0  0  0  0  0
   -2.8721    6.3680   -1.7460 C   0  0  0  0  0  0  0  0  0  0  0  0
   -1.5656    6.0398   -2.0368 C   0  0  0  0  0  0  0  0  0  0  0  0
   -1.1688    4.7299   -2.1590 C   0  0  0  0  0  0  0  0  0  0  0  0
   -0.6877    7.0935   -2.1952 C   0  0  0  0  0  0  0  0  0  0  0  0
   -1.1018    8.4166   -2.0654 C   0  0  0  0  0  0  0  0  0  0  0  0
   -2.4299    8.7141   -1.7700 C   0  0  0  0  0  0  0  0  0  0  0  0
   -3.3152    7.6724   -1.6110 C   0  0  0  0  0  0  0  0  0  0  0  0
   -5.1148    2.2402    1.8883 C   0  0  0  0  0  0  0  0  0  0  0  0
   -4.4920    3.6032    1.8275 C   0  0  0  0  0  0  0  0  0  0  0  0
   -3.6714    3.8369    3.0871 C   0  0  0  0  0  0  0  0  0  0  0  0
   -3.0379    5.1442    3.0783 N   0  0  0  0  0  0  0  0  0  0  0  0
   -3.6005    6.2078    3.5010 C   0  0  0  0  0  0  0  0  0  0  0  0
   -4.9162    6.2742    4.0371 N   0  0  0  0  0  0  0  0  0  0  0  0
   -2.8651    7.4355    3.4444 N   0  0  0  0  0  0  0  0  0  0  0  0
   -6.6686   -2.3060    0.3849 C   0  0  0  0  0  0  0  0  0  0  0  0
   -6.4353   -2.3935   -1.0404 C   0  0  0  0  0  0  0  0  0  0  0  0
   -6.2120   -1.2433   -1.8353 C   0  0  0  0  0  0  0  0  0  0  0  0
   -5.9813   -1.6203   -3.0997 N   0  0  0  0  0  0  0  0  0  0  0  0
   -6.0364   -2.9544   -3.2054 C   0  0  0  0  0  0  0  0  0  0  0  0
   -6.3158   -3.4235   -1.9395 C   0  0  0  0  0  0  0  0  0  0  0  0
   -6.4440   -4.7782   -1.7813 C   0  0  0  0  0  0  0  0  0  0  0  0
   -6.2970   -5.6368   -2.8438 C   0  0  0  0  0  0  0  0  0  0  0  0
   -6.0138   -5.1677   -4.1137 C   0  0  0  0  0  0  0  0  0  0  0  0
   -5.8825   -3.8207   -4.2985 C   0  0  0  0  0  0  0  0  0  0  0  0
   -2.7083   -5.6805    2.3326 C   0  0  0  0  0  0  0  0  0  0  0  0
   -2.7408   -4.7324    3.1853 O   0  0  0  0  0  0  0  0  0  0  0  0
   -2.4674   -7.0235    2.7043 N   0  0  0  0  0  0  0  0  0  0  0  0
    8.5781   -1.2418   -2.3504 N   0  0  0  0  0  0  0  0  0  0  0  0
    9.0328   -0.1046   -3.1035 C   0  0  0  0  0  0  0  0  0  0  0  0
    8.8719    1.0768   -2.6771 O   0  0  0  0  0  0  0  0  0  0  0  0
    9.6959   -0.3875   -4.3989 C   0  0  0  0  0  0  0  0  0  0  0  0
    8.5937   -4.1617    2.0252 H   0  0  0  0  0  0  0  0  0  0  0  0
    9.8801   -3.9389    3.2264 H   0  0  0  0  0  0  0  0  0  0  0  0
   10.3376   -3.7511    1.5357 H   0  0  0  0  0  0  0  0  0  0  0  0
   10.1943   -1.5719    2.4627 H   0  0  0  0  0  0  0  0  0  0  0  0
    8.7438   -1.9520    3.4230 H   0  0  0  0  0  0  0  0  0  0  0  0
    8.0755   -0.4731    1.6697 H   0  0  0  0  0  0  0  0  0  0  0  0
    7.3413   -2.0947    1.4601 H   0  0  0  0  0  0  0  0  0  0  0  0
    9.1515   -2.6561   -0.2651 H   0  0  0  0  0  0  0  0  0  0  0  0
    9.7832   -1.0230   -0.0809 H   0  0  0  0  0  0  0  0  0  0  0  0
    7.9031    0.0706   -0.8707 H   0  0  0  0  0  0  0  0  0  0  0  0
    5.7420   -0.6674    0.6998 H   0  0  0  0  0  0  0  0  0  0  0  0
    4.1284   -2.4993   -1.0435 H   0  0  0  0  0  0  0  0  0  0  0  0
    4.0340   -2.5448    2.0110 H   0  0  0  0  0  0  0  0  0  0  0  0
    4.9741   -3.6108    0.9650 H   0  0  0  0  0  0  0  0  0  0  0  0
    3.2036   -4.8783    2.4749 H   0  0  0  0  0  0  0  0  0  0  0  0
    2.0114   -6.5955    0.6201 H   0  0  0  0  0  0  0  0  0  0  0  0
    1.8436   -6.7294    2.3557 H   0  0  0  0  0  0  0  0  0  0  0  0
   -0.2529   -5.4715    2.3872 H   0  0  0  0  0  0  0  0  0  0  0  0
   -0.1673   -6.9422    1.3833 H   0  0  0  0  0  0  0  0  0  0  0  0
   -0.3711   -4.0978    0.3819 H   0  0  0  0  0  0  0  0  0  0  0  0
    0.0895   -5.4268   -0.7154 H   0  0  0  0  0  0  0  0  0  0  0  0
   -1.9111   -6.7353   -0.1377 H   0  0  0  0  0  0  0  0  0  0  0  0
   -2.1943   -5.2589   -1.0367 H   0  0  0  0  0  0  0  0  0  0  0  0
   -3.8755   -5.8955    0.6279 H   0  0  0  0  0  0  0  0  0  0  0  0
   -2.8145   -3.0450    0.9516 H   0  0  0  0  0  0  0  0  0  0  0  0
   -5.9700   -2.3163    2.3463 H   0  0  0  0  0  0  0  0  0  0  0  0
   -4.1241   -1.0437    0.2462 H   0  0  0  0  0  0  0  0  0  0  0  0
   -3.2611    1.2712    2.5955 H   0  0  0  0  0  0  0  0  0  0  0  0
   -3.9330    1.0296   -0.3367 H   0  0  0  0  0  0  0  0  0  0  0  0
   -1.1267    0.5028   -1.1858 H   0  0  0  0  0  0  0  0  0  0  0  0
    0.0916    3.1178   -0.3821 H   0  0  0  0  0  0  0  0  0  0  0  0
    2.5974    1.6136    0.9002 H   0  0  0  0  0  0  0  0  0  0  0  0
    4.2815    0.5172   -1.2102 H   0  0  0  0  0  0  0  0  0  0  0  0
    4.4402    2.7795   -0.5529 H   0  0  0  0  0  0  0  0  0  0  0  0
    3.3496    2.8000   -1.9191 H   0  0  0  0  0  0  0  0  0  0  0  0
    1.3970    4.2064    1.0732 H   0  0  0  0  0  0  0  0  0  0  0  0
    1.4541    6.7759    0.9344 H   0  0  0  0  0  0  0  0  0  0  0  0
    4.3475    5.2690   -1.7016 H   0  0  0  0  0  0  0  0  0  0  0  0
   -0.9841    2.2007   -2.8898 H   0  0  0  0  0  0  0  0  0  0  0  0
   -2.6446    1.7398   -2.5993 H   0  0  0  0  0  0  0  0  0  0  0  0
   -4.1566    3.2950   -1.5516 H   0  0  0  0  0  0  0  0  0  0  0  0
   -4.8580    5.5774   -1.3409 H   0  0  0  0  0  0  0  0  0  0  0  0
   -0.1449    4.4696   -2.3908 H   0  0  0  0  0  0  0  0  0  0  0  0
    0.3388    6.8613   -2.4274 H   0  0  0  0  0  0  0  0  0  0  0  0
   -0.3833    9.2220   -2.1933 H   0  0  0  0  0  0  0  0  0  0  0  0
   -2.7934    9.7224   -1.6591 H   0  0  0  0  0  0  0  0  0  0  0  0
   -4.3385    7.9101   -1.3795 H   0  0  0  0  0  0  0  0  0  0  0  0
   -5.8511    2.1287    1.0902 H   0  0  0  0  0  0  0  0  0  0  0  0
   -5.7009    2.1454    2.8504 H   0  0  0  0  0  0  0  0  0  0  0  0
   -3.7189    3.5508    1.0159 H   0  0  0  0  0  0  0  0  0  0  0  0
   -5.2419    4.3952    1.6757 H   0  0  0  0  0  0  0  0  0  0  0  0
   -2.9132    3.0941    3.2758 H   0  0  0  0  0  0  0  0  0  0  0  0
   -4.4123    3.8132    3.9475 H   0  0  0  0  0  0  0  0  0  0  0  0
   -5.0970    5.8399    4.9574 H   0  0  0  0  0  0  0  0  0  0  0  0
   -5.6529    6.7709    3.4659 H   0  0  0  0  0  0  0  0  0  0  0  0
   -3.3263    8.3677    3.5791 H   0  0  0  0  0  0  0  0  0  0  0  0
   -1.8271    7.4541    3.2662 H   0  0  0  0  0  0  0  0  0  0  0  0
   -7.1938   -1.3245    0.6122 H   0  0  0  0  0  0  0  0  0  0  0  0
   -7.4478   -3.0657    0.7101 H   0  0  0  0  0  0  0  0  0  0  0  0
   -6.2276   -0.2174   -1.4623 H   0  0  0  0  0  0  0  0  0  0  0  0
   -5.7885   -0.8968   -3.8540 H   0  0  0  0  0  0  0  0  0  0  0  0
   -6.6793   -5.1806   -0.8130 H   0  0  0  0  0  0  0  0  0  0  0  0
   -6.4110   -6.7071   -2.6446 H   0  0  0  0  0  0  0  0  0  0  0  0
   -5.8954   -5.8359   -4.9430 H   0  0  0  0  0  0  0  0  0  0  0  0
   -5.6615   -3.4004   -5.2707 H   0  0  0  0  0  0  0  0  0  0  0  0
   -2.0343   -7.1896    3.6440 H   0  0  0  0  0  0  0  0  0  0  0  0
   -2.7245   -7.7859    2.0428 H   0  0  0  0  0  0  0  0  0  0  0  0
    8.7087   -2.2281   -2.6992 H   0  0  0  0  0  0  0  0  0  0  0  0
   10.7381   -0.6638   -4.2192 H   0  0  0  0  0  0  0  0  0  0  0  0
    9.5905    0.5070   -5.0504 H   0  0  0  0  0  0  0  0  0  0  0  0
    9.2013   -1.2765   -4.8401 H   0  0  0  0  0  0  0  0  0  0  0  0
  1  2  1  0
  2  3  1  0
  3  4  1  0
  4  5  1  0
  5  6  1  0
  6  7  2  0
  6  8  1  0
  8  9  1  0
  9 10  1  0
 10 11  1  0
 11 12  2  0
 11 13  1  0
 13 14  1  0
 14 15  1  0
 15 16  1  0
 16 17  1  0
 17 18  1  0
 18 19  1  0
 19 20  1  0
 20 21  2  0
 20 22  1  0
 22 23  1  0
 23 24  1  0
 24 25  2  0
 24 26  1  0
 26 27  1  0
 27 28  1  0
 28 29  2  0
 28 30  1  0
 30 31  1  0
 31 32  1  0
 32 33  2  0
 32 34  1  0
 34 35  1  0
 35 36  1  0
 36 37  2  0
 34 38  1  0
 38 39  1  0
 39 40  1  0
 40 41  1  0
 41 42  2  0
 42 43  1  0
 30 44  1  0
 44 45  1  0
 45 46  2  0
 46 47  1  0
 47 48  2  0
 48 49  1  0
 49 50  2  0
 49 51  1  0
 51 52  2  0
 52 53  1  0
 53 54  2  0
 26 55  1  0
 55 56  1  0
 56 57  1  0
 57 58  1  0
 58 59  2  3
 59 60  1  0
 59 61  1  0
 22 62  1  0
 62 63  1  0
 63 64  2  0
 64 65  1  0
 65 66  1  0
 66 67  2  0
 67 68  1  0
 68 69  2  0
 69 70  1  0
 70 71  2  0
 18 72  1  0
 72 73  2  0
 72 74  1  0
  5 75  1  0
 75 76  1  0
 76 77  2  0
 76 78  1  0
 36  9  1  0
 43 39  2  0
 50 45  1  0
 67 63  1  0
 54 48  1  0
 71 66  1  0
  1 79  1  0
  1 80  1  0
  1 81  1  0
  2 82  1  0
  2 83  1  0
  3 84  1  0
  3 85  1  0
  4 86  1  0
  4 87  1  0
  5 88  1  1
  8 89  1  0
  9 90  1  6
 10 91  1  0
 10 92  1  0
 13 93  1  0
 14 94  1  0
 14 95  1  0
 15 96  1  0
 15 97  1  0
 16 98  1  0
 16 99  1  0
 17100  1  0
 17101  1  0
 18102  1  6
 19103  1  0
 22104  1  1
 23105  1  0
 26106  1  1
 27107  1  0
 30108  1  6
 31109  1  0
 34110  1  1
 35111  1  0
 38112  1  0
 38113  1  0
 40114  1  0
 41115  1  0
 43116  1  0
 44117  1  0
 44118  1  0
 46119  1  0
 47120  1  0
 50121  1  0
 51122  1  0
 52123  1  0
 53124  1  0
 54125  1  0
 55126  1  0
 55127  1  0
 56128  1  0
 56129  1  0
 57130  1  0
 57131  1  0
 60132  1  0
 60133  1  0
 61134  1  0
 61135  1  0
 62136  1  0
 62137  1  0
 64138  1  0
 65139  1  0
 68140  1  0
 69141  1  0
 70142  1  0
 71143  1  0
 74144  1  0
 74145  1  0
 75146  1  0
 78147  1  0
 78148  1  0
 78149  1  0
M  END
>  <Ligand ID>  (1) 
LIG0001831

>  <Ligand>  (1) 
CHEMBL3600736

>  <SMILES>  (1) 
CCCC[C@H](C(=O)N[C@H]1CC(=O)NCCCC[C@H](NC(=O)[C@@H](NC(=O)[C@@H](NC(=O)[C@H](NC(=O)[C@@H](NC1=O)Cc1[nH]cnc1)Cc1ccc2c(c1)cccc2)CCCN=C(N)N)Cc1c[nH]c2c1cccc2)C(=O)N)NC(=O)C

>  <CID>  (1) 
122184498.0

>  <ChEMBL ID>  (1) 
nan

>  <InChiKey>  (1) 
GGYWLZFXFKFWKL-FMUFIDHTSA-N

>  <InChi>  (1) 
InChI=1S/C54H71N15O9/c1-3-4-15-40(63-31(2)70)48(73)69-45-27-46(71)59-21-10-9-17-39(47(55)72)64-51(76)43(25-35-28-61-38-16-8-7-14-37(35)38)67-49(74)41(18-11-22-60-54(56)57)65-50(75)42(24-32-19-20-33-12-5-6-13-34(33)23-32)66-52(77)44(68-53(45)78)26-36-29-58-30-62-36/h5-8,12-14,16,19-20,23,28-30,39-45,61H,3-4,9-11,15,17-18,21-22,24-27H2,1-2H3,(H2,55,72)(H,58,62)(H,59,71)(H,63,70)(H,64,76)(H,65,75)(H,66,77)(H,67,74)(H,68,78)(H,69,73)(H4,56,57,60)/t39-,40+,41-,42+,43-,44-,45-/m0/s1

>  <IUPAC Name>  (1) 
(3S,6S,9R,12S,15S,23S)-15-[[(2R)-2-acetamidohexanoyl]amino]-6-[3-(diaminomethylideneamino)propyl]-12-(1H-imidazol-5-ylmethyl)-3-(1H-indol-3-ylmethyl)-9-(naphthalen-2-ylmethyl)-2,5,8,11,14,17-hexaoxo-1,4,7,10,13,18-hexazacyclotricosane-23-carboxamide

$$$$
