
     RDKit          3D

 38 40  0  0  0  0  0  0  0  0999 V2000
   -0.6911    0.8657    1.6072 O   0  0  0  0  0  0  0  0  0  0  0  0
   -0.4457    0.2997    0.5187 C   0  0  0  0  0  0  0  0  0  0  0  0
    0.8993   -0.0931    0.1000 C   0  0  0  0  0  0  0  0  0  0  0  0
    1.2765   -0.7070   -1.0491 N   0  0  0  0  0  0  0  0  0  0  0  0
    2.5669   -0.8885   -1.0509 O   0  0  0  0  0  0  0  0  0  0  0  0
    3.0977   -0.4246    0.0513 C   0  0  0  0  0  0  0  0  0  0  0  0
    2.0664    0.0939    0.8173 C   0  0  0  0  0  0  0  0  0  0  0  0
    4.5184   -0.4620    0.3819 C   0  0  0  0  0  0  0  0  0  0  0  0
    5.3837   -1.0299   -0.5327 C   0  0  0  0  0  0  0  0  0  0  0  0
    6.7385   -1.0508   -0.1871 C   0  0  0  0  0  0  0  0  0  0  0  0
    7.1928   -0.5316    1.0059 C   0  0  0  0  0  0  0  0  0  0  0  0
    6.3170    0.0321    1.9088 C   0  0  0  0  0  0  0  0  0  0  0  0
    4.9750    0.0586    1.5783 C   0  0  0  0  0  0  0  0  0  0  0  0
   -1.5382    0.0270   -0.3527 N   0  0  0  0  0  0  0  0  0  0  0  0
   -2.9163    0.3884   -0.0074 C   0  0  0  0  0  0  0  0  0  0  0  0
   -3.6573   -0.9170    0.0927 C   0  0  0  0  0  0  0  0  0  0  0  0
   -5.1545   -0.7406    0.0519 C   0  0  0  0  0  0  0  0  0  0  0  0
   -5.5158    0.7345    0.1383 C   0  0  0  0  0  0  0  0  0  0  0  0
   -4.9604    1.3499   -1.1362 C   0  0  0  0  0  0  0  0  0  0  0  0
   -3.4677    1.3230   -1.0258 C   0  0  0  0  0  0  0  0  0  0  0  0
    2.1802    0.5492    1.7821 H   0  0  0  0  0  0  0  0  0  0  0  0
    5.0622   -1.4462   -1.4771 H   0  0  0  0  0  0  0  0  0  0  0  0
    7.4905   -1.4767   -0.8436 H   0  0  0  0  0  0  0  0  0  0  0  0
    8.2587   -0.5659    1.2410 H   0  0  0  0  0  0  0  0  0  0  0  0
    6.6349    0.4516    2.8586 H   0  0  0  0  0  0  0  0  0  0  0  0
    4.2615    0.4941    2.2655 H   0  0  0  0  0  0  0  0  0  0  0  0
   -1.4122   -0.4467   -1.2864 H   0  0  0  0  0  0  0  0  0  0  0  0
   -2.9448    0.8779    0.9871 H   0  0  0  0  0  0  0  0  0  0  0  0
   -3.2769   -1.5996   -0.6679 H   0  0  0  0  0  0  0  0  0  0  0  0
   -3.3865   -1.3537    1.0911 H   0  0  0  0  0  0  0  0  0  0  0  0
   -5.5324   -1.0983   -0.9328 H   0  0  0  0  0  0  0  0  0  0  0  0
   -5.6702   -1.3163    0.8275 H   0  0  0  0  0  0  0  0  0  0  0  0
   -4.9688    1.1303    1.0145 H   0  0  0  0  0  0  0  0  0  0  0  0
   -6.6007    0.8376    0.2096 H   0  0  0  0  0  0  0  0  0  0  0  0
   -5.2767    0.7506   -2.0198 H   0  0  0  0  0  0  0  0  0  0  0  0
   -5.3596    2.3796   -1.2098 H   0  0  0  0  0  0  0  0  0  0  0  0
   -3.1449    2.3676   -0.7881 H   0  0  0  0  0  0  0  0  0  0  0  0
   -2.9996    1.1373   -2.0341 H   0  0  0  0  0  0  0  0  0  0  0  0
  1  2  2  0
  2  3  1  0
  3  4  2  0
  4  5  1  0
  5  6  1  0
  6  7  2  0
  6  8  1  0
  8  9  2  0
  9 10  1  0
 10 11  2  0
 11 12  1  0
 12 13  2  0
  2 14  1  0
 14 15  1  0
 15 16  1  0
 16 17  1  0
 17 18  1  0
 18 19  1  0
 19 20  1  0
  7  3  1  0
 13  8  1  0
 20 15  1  0
  7 21  1  0
  9 22  1  0
 10 23  1  0
 11 24  1  0
 12 25  1  0
 13 26  1  0
 14 27  1  0
 15 28  1  0
 16 29  1  0
 16 30  1  0
 17 31  1  0
 17 32  1  0
 18 33  1  0
 18 34  1  0
 19 35  1  0
 19 36  1  0
 20 37  1  0
 20 38  1  0
M  END
>  <Ligand ID>  (1) 
LIG0003063

>  <Ligand>  (1) 
N-cyclohexyl-5-phenyl-1,2-oxazole-3-carboxamide

>  <SMILES>  (1) 
O=C(c1noc(c1)c1ccccc1)NC1CCCCC1

>  <CID>  (1) 
1093740.0

>  <ChEMBL ID>  (1) 
nan

>  <InChiKey>  (1) 
WWKIRQBDBNKDSK-UHFFFAOYSA-N

>  <InChi>  (1) 
InChI=1S/C16H18N2O2/c19-16(17-13-9-5-2-6-10-13)14-11-15(20-18-14)12-7-3-1-4-8-12/h1,3-4,7-8,11,13H,2,5-6,9-10H2,(H,17,19)

>  <IUPAC Name>  (1) 
N-cyclohexyl-5-phenyl-1,2-oxazole-3-carboxamide

$$$$
