
     RDKit          3D

 38 40  0  0  0  0  0  0  0  0999 V2000
    5.6869   -0.2702   -1.4901 F   0  0  0  0  0  0  0  0  0  0  0  0
    5.0703   -0.2836   -0.2475 C   0  0  0  0  0  0  0  0  0  0  0  0
    3.9658   -1.3269   -0.1989 C   0  0  0  0  0  0  0  0  0  0  0  0
    2.9113   -1.1446   -1.1238 N   0  0  0  0  0  0  0  0  0  0  0  0
    2.9711   -1.6493   -2.3842 N   0  0  0  0  0  0  0  0  0  0  0  0
    1.8458   -1.3155   -3.0402 C   0  0  0  0  0  0  0  0  0  0  0  0
    1.1350   -0.6237   -2.1746 N   0  0  0  0  0  0  0  0  0  0  0  0
    1.7317   -0.4816   -0.9777 C   0  0  0  0  0  0  0  0  0  0  0  0
    1.1687    0.2166    0.1391 C   0  0  0  0  0  0  0  0  0  0  0  0
    1.7763    0.3582    1.3752 C   0  0  0  0  0  0  0  0  0  0  0  0
    1.2205    1.0250    2.4488 C   0  0  0  0  0  0  0  0  0  0  0  0
   -0.0008    1.5956    2.3292 C   0  0  0  0  0  0  0  0  0  0  0  0
   -0.6476    1.4858    1.1240 C   0  0  0  0  0  0  0  0  0  0  0  0
   -0.0879    0.8078    0.0267 C   0  0  0  0  0  0  0  0  0  0  0  0
   -0.8753    0.8174   -1.1450 N   0  0  0  0  0  0  0  0  0  0  0  0
   -2.2189    1.4396   -1.1927 C   0  0  0  0  0  0  0  0  0  0  0  0
   -3.2118    0.6678   -0.4016 C   0  0  0  0  0  0  0  0  0  0  0  0
   -4.0645    1.0429    0.4807 N   0  0  0  0  0  0  0  0  0  0  0  0
   -4.8378   -0.0473    1.0018 C   0  0  0  0  0  0  0  0  0  0  0  0
   -4.6094   -1.1507    0.0254 C   0  0  0  0  0  0  0  0  0  0  0  0
   -3.3581   -0.7543   -0.5824 N   0  0  0  0  0  0  0  0  0  0  0  0
    6.0182   -0.4935    0.7117 F   0  0  0  0  0  0  0  0  0  0  0  0
    4.4805    0.9560   -0.1303 F   0  0  0  0  0  0  0  0  0  0  0  0
    3.7608   -1.7685    0.7722 H   0  0  0  0  0  0  0  0  0  0  0  0
    4.5690   -2.2307   -0.6336 H   0  0  0  0  0  0  0  0  0  0  0  0
    1.5810   -1.5637   -4.0637 H   0  0  0  0  0  0  0  0  0  0  0  0
    2.7438   -0.0554    1.5529 H   0  0  0  0  0  0  0  0  0  0  0  0
    1.7431    1.1037    3.3942 H   0  0  0  0  0  0  0  0  0  0  0  0
   -0.4537    2.1180    3.1463 H   0  0  0  0  0  0  0  0  0  0  0  0
   -1.6086    1.9568    1.0482 H   0  0  0  0  0  0  0  0  0  0  0  0
   -0.6088    0.4097   -2.0656 H   0  0  0  0  0  0  0  0  0  0  0  0
   -2.1462    2.4955   -0.8132 H   0  0  0  0  0  0  0  0  0  0  0  0
   -2.6042    1.4627   -2.2209 H   0  0  0  0  0  0  0  0  0  0  0  0
   -5.9018    0.2641    1.0989 H   0  0  0  0  0  0  0  0  0  0  0  0
   -4.4674   -0.3902    1.9995 H   0  0  0  0  0  0  0  0  0  0  0  0
   -4.5594   -2.1392    0.5417 H   0  0  0  0  0  0  0  0  0  0  0  0
   -5.4467   -1.1391   -0.7016 H   0  0  0  0  0  0  0  0  0  0  0  0
   -2.6705   -1.3953   -1.0737 H   0  0  0  0  0  0  0  0  0  0  0  0
  1  2  1  0
  2  3  1  0
  3  4  1  0
  4  5  1  0
  5  6  2  0
  6  7  1  0
  7  8  2  0
  8  9  1  0
  9 10  2  0
 10 11  1  0
 11 12  2  0
 12 13  1  0
 13 14  2  0
 14 15  1  0
 15 16  1  0
 16 17  1  0
 17 18  2  0
 18 19  1  0
 19 20  1  0
 20 21  1  0
  2 22  1  0
  2 23  1  0
  8  4  1  0
 14  9  1  0
 21 17  1  0
  3 24  1  0
  3 25  1  0
  6 26  1  0
 10 27  1  0
 11 28  1  0
 12 29  1  0
 13 30  1  0
 15 31  1  0
 16 32  1  0
 16 33  1  0
 19 34  1  0
 19 35  1  0
 20 36  1  0
 20 37  1  0
 21 38  1  0
M  END
>  <Ligand ID>  (1) 
LIG0003186

>  <Ligand>  (1) 
CHEMBL17764

>  <SMILES>  (1) 
FC(Cn1ncnc1c1ccccc1NCC1=NCCN1)(F)F

>  <CID>  (1) 
9840212.0

>  <ChEMBL ID>  (1) 
nan

>  <InChiKey>  (1) 
WPXZJENXASTONP-UHFFFAOYSA-N

>  <InChi>  (1) 
InChI=1S/C14H15F3N6/c15-14(16,17)8-23-13(21-9-22-23)10-3-1-2-4-11(10)20-7-12-18-5-6-19-12/h1-4,9,20H,5-8H2,(H,18,19)

>  <IUPAC Name>  (1) 
N-(4,5-dihydro-1H-imidazol-2-ylmethyl)-2-[2-(2,2,2-trifluoroethyl)-1,2,4-triazol-3-yl]aniline

$$$$
