
     RDKit          3D

 64 66  0  0  0  0  0  0  0  0999 V2000
    9.2129   -1.1053    1.9028 O   0  0  0  0  0  0  0  0  0  0  0  0
    8.3330   -0.9551    0.8258 C   0  0  0  0  0  0  0  0  0  0  0  0
    8.3488   -1.7905   -0.1350 O   0  0  0  0  0  0  0  0  0  0  0  0
    7.3549    0.1903    0.7804 C   0  0  0  0  0  0  0  0  0  0  0  0
    6.5930    0.0223   -0.5029 C   0  0  0  0  0  0  0  0  0  0  0  0
    5.5634    1.0499   -0.7604 C   0  0  0  0  0  0  0  0  0  0  0  0
    4.4685    1.1913    0.2185 C   0  0  0  0  0  0  0  0  0  0  0  0
    3.5994    0.0290    0.4657 C   0  0  1  0  0  0  0  0  0  0  0  0
    2.5644    0.4338    1.5037 C   0  0  0  0  0  0  0  0  0  0  0  0
    1.4483    1.2464    0.9421 C   0  0  0  0  0  0  0  0  0  0  0  0
    0.5197    0.5776    0.0094 C   0  0  1  0  0  0  0  0  0  0  0  0
    0.6311   -0.8947   -0.1290 C   0  0  1  0  0  0  0  0  0  0  0  0
    1.9050   -1.4071   -0.1906 O   0  0  0  0  0  0  0  0  0  0  0  0
    2.8191   -0.4656   -0.7131 C   0  0  0  0  0  0  0  0  0  0  0  0
   -0.1850   -1.4614    0.9930 C   0  0  0  0  0  0  0  0  0  0  0  0
   -1.0599   -0.3610    1.5205 C   0  0  2  0  0  0  0  0  0  0  0  0
   -0.9364    0.7204    0.4759 C   0  0  2  0  0  0  0  0  0  0  0  0
   -1.8631    0.3292   -0.6411 C   0  0  0  0  0  0  0  0  0  0  0  0
   -2.7272    1.2271   -1.1019 C   0  0  0  0  0  0  0  0  0  0  0  0
   -3.6485    0.8496   -2.2072 C   0  0  2  0  0  0  0  0  0  0  0  0
   -5.0807    0.7034   -1.6752 C   0  0  0  0  0  0  0  0  0  0  0  0
   -5.1937   -0.3633   -0.7543 O   0  0  0  0  0  0  0  0  0  0  0  0
   -6.4610   -0.5873   -0.2045 C   0  0  0  0  0  0  0  0  0  0  0  0
   -7.5084    0.2176   -0.5749 C   0  0  0  0  0  0  0  0  0  0  0  0
   -8.7706    0.0179   -0.0469 C   0  0  0  0  0  0  0  0  0  0  0  0
   -8.9919   -0.9953    0.8605 C   0  0  0  0  0  0  0  0  0  0  0  0
   -7.9503   -1.8199    1.2489 C   0  0  0  0  0  0  0  0  0  0  0  0
   -6.6917   -1.5952    0.7011 C   0  0  0  0  0  0  0  0  0  0  0  0
   -3.3264   -0.3337   -2.8317 O   0  0  0  0  0  0  0  0  0  0  0  0
   -0.7360    0.0547    2.7969 O   0  0  0  0  0  0  0  0  0  0  0  0
    9.7407   -1.9676    2.0419 H   0  0  0  0  0  0  0  0  0  0  0  0
    6.7482    0.2706    1.6847 H   0  0  0  0  0  0  0  0  0  0  0  0
    8.0020    1.1036    0.7544 H   0  0  0  0  0  0  0  0  0  0  0  0
    6.2774   -1.0231   -0.6460 H   0  0  0  0  0  0  0  0  0  0  0  0
    7.3591    0.1670   -1.3253 H   0  0  0  0  0  0  0  0  0  0  0  0
    6.0703    2.0277   -0.8998 H   0  0  0  0  0  0  0  0  0  0  0  0
    5.1310    0.8260   -1.7643 H   0  0  0  0  0  0  0  0  0  0  0  0
    3.8270    2.0453   -0.0837 H   0  0  0  0  0  0  0  0  0  0  0  0
    4.9097    1.4875    1.1952 H   0  0  0  0  0  0  0  0  0  0  0  0
    4.1149   -0.8598    0.8871 H   0  0  0  0  0  0  0  0  0  0  0  0
    3.1031    1.0903    2.2191 H   0  0  0  0  0  0  0  0  0  0  0  0
    2.2438   -0.4449    2.0744 H   0  0  0  0  0  0  0  0  0  0  0  0
    1.8710    2.1607    0.4840 H   0  0  0  0  0  0  0  0  0  0  0  0
    0.8670    1.6101    1.8299 H   0  0  0  0  0  0  0  0  0  0  0  0
    0.5120    1.1170   -0.9828 H   0  0  0  0  0  0  0  0  0  0  0  0
    0.1538   -1.1843   -1.1108 H   0  0  0  0  0  0  0  0  0  0  0  0
    3.4380   -1.0717   -1.4224 H   0  0  0  0  0  0  0  0  0  0  0  0
    2.3561    0.3114   -1.3193 H   0  0  0  0  0  0  0  0  0  0  0  0
   -0.8463   -2.2761    0.5901 H   0  0  0  0  0  0  0  0  0  0  0  0
    0.3995   -1.9549    1.7921 H   0  0  0  0  0  0  0  0  0  0  0  0
   -2.1283   -0.6844    1.5516 H   0  0  0  0  0  0  0  0  0  0  0  0
   -1.1636    1.7271    0.8200 H   0  0  0  0  0  0  0  0  0  0  0  0
   -1.8200   -0.6710   -1.0576 H   0  0  0  0  0  0  0  0  0  0  0  0
   -2.8124    2.2382   -0.7231 H   0  0  0  0  0  0  0  0  0  0  0  0
   -3.7132    1.6306   -2.9945 H   0  0  0  0  0  0  0  0  0  0  0  0
   -5.7952    0.5671   -2.4956 H   0  0  0  0  0  0  0  0  0  0  0  0
   -5.3821    1.6375   -1.1277 H   0  0  0  0  0  0  0  0  0  0  0  0
   -7.3805    1.0235   -1.2828 H   0  0  0  0  0  0  0  0  0  0  0  0
   -9.6176    0.6274   -0.3119 H   0  0  0  0  0  0  0  0  0  0  0  0
   -9.9560   -1.2005    1.3076 H   0  0  0  0  0  0  0  0  0  0  0  0
   -8.0805   -2.6289    1.9601 H   0  0  0  0  0  0  0  0  0  0  0  0
   -5.8543   -2.2401    0.9984 H   0  0  0  0  0  0  0  0  0  0  0  0
   -3.5794   -1.0715   -2.2364 H   0  0  0  0  0  0  0  0  0  0  0  0
   -1.2258    0.8851    2.9818 H   0  0  0  0  0  0  0  0  0  0  0  0
  1  2  1  0
  2  3  2  0
  2  4  1  0
  4  5  1  0
  5  6  1  0
  6  7  1  0
  7  8  1  0
  8  9  1  0
  9 10  1  0
 10 11  1  0
 11 12  1  0
 12 13  1  0
 13 14  1  0
 12 15  1  0
 15 16  1  0
 16 17  1  0
 17 18  1  0
 18 19  2  0
 19 20  1  0
 20 21  1  0
 21 22  1  0
 22 23  1  0
 23 24  2  0
 24 25  1  0
 25 26  2  0
 26 27  1  0
 27 28  2  0
 20 29  1  0
 16 30  1  0
 14  8  1  0
 28 23  1  0
 17 11  1  0
  1 31  1  0
  4 32  1  0
  4 33  1  0
  5 34  1  0
  5 35  1  0
  6 36  1  0
  6 37  1  0
  7 38  1  0
  7 39  1  0
  8 40  1  1
  9 41  1  0
  9 42  1  0
 10 43  1  0
 10 44  1  0
 11 45  1  6
 12 46  1  6
 14 47  1  0
 14 48  1  0
 15 49  1  0
 15 50  1  0
 16 51  1  1
 17 52  1  1
 18 53  1  0
 19 54  1  0
 20 55  1  6
 21 56  1  0
 21 57  1  0
 24 58  1  0
 25 59  1  0
 26 60  1  0
 27 61  1  0
 28 62  1  0
 29 63  1  0
 30 64  1  0
M  END
>  <Ligand ID>  (1) 
LIG0002908

>  <Ligand>  (1) 
CHEMBL3933326

>  <SMILES>  (1) 
OC(=O)CCCC[C@H]1CC[C@H]2[C@@H](OC1)C[C@H]([C@@H]2/C=C/[C@H](COc1ccccc1)O)O

>  <CID>  (1) 
134138103.0

>  <ChEMBL ID>  (1) 
nan

>  <InChiKey>  (1) 
WKCPDJLEFVEHBW-YGZBZWJFSA-N

>  <InChi>  (1) 
InChI=1S/C24H34O6/c25-18(16-29-19-7-2-1-3-8-19)11-13-20-21-12-10-17(6-4-5-9-24(27)28)15-30-23(21)14-22(20)26/h1-3,7-8,11,13,17-18,20-23,25-26H,4-6,9-10,12,14-16H2,(H,27,28)/b13-11+/t17-,18+,20+,21+,22+,23-/m0/s1

>  <IUPAC Name>  (1) 
5-[(3S,5aR,6R,7R,8aS)-7-hydroxy-6-[(E,3R)-3-hydroxy-4-phenoxybut-1-enyl]-3,4,5,5a,6,7,8,8a-octahydro-2H-cyclopenta[b]oxepin-3-yl]pentanoic acid

$$$$
