
     RDKit          3D

 65 67  0  0  0  0  0  0  0  0999 V2000
    5.6363    1.1350    3.8526 C   0  0  0  0  0  0  0  0  0  0  0  0
    5.4494    0.7310    2.5326 O   0  0  0  0  0  0  0  0  0  0  0  0
    6.4076    0.4603    1.5950 C   0  0  0  0  0  0  0  0  0  0  0  0
    7.7587    0.5625    1.8633 C   0  0  0  0  0  0  0  0  0  0  0  0
    8.6992    0.2765    0.8752 C   0  0  0  0  0  0  0  0  0  0  0  0
    8.3098   -0.1146   -0.3916 C   0  0  0  0  0  0  0  0  0  0  0  0
    6.9497   -0.2106   -0.6390 C   0  0  0  0  0  0  0  0  0  0  0  0
    6.0046    0.0694    0.3295 C   0  0  0  0  0  0  0  0  0  0  0  0
    4.6379   -0.0458    0.0207 O   0  0  0  0  0  0  0  0  0  0  0  0
    4.3108   -0.4438   -1.2795 C   0  0  0  0  0  0  0  0  0  0  0  0
    2.8505   -0.5573   -1.5637 C   0  0  0  0  0  0  0  0  0  0  0  0
    2.2500   -1.5861   -0.6286 C   0  0  0  0  0  0  0  0  0  0  0  0
    0.7688   -1.7060   -0.9174 C   0  0  0  0  0  0  0  0  0  0  0  0
    0.0717   -0.4955   -0.7323 O   0  0  0  0  0  0  0  0  0  0  0  0
   -1.3002   -0.4679   -0.9712 C   0  0  0  0  0  0  0  0  0  0  0  0
   -1.9914   -1.5815   -1.3829 C   0  0  0  0  0  0  0  0  0  0  0  0
   -3.3437   -1.5275   -1.6128 C   0  0  0  0  0  0  0  0  0  0  0  0
   -4.0914   -0.3558   -1.4453 C   0  0  0  0  0  0  0  0  0  0  0  0
   -3.3753    0.7430   -1.0324 C   0  0  0  0  0  0  0  0  0  0  0  0
   -2.0062    0.7093   -0.7946 C   0  0  0  0  0  0  0  0  0  0  0  0
   -1.2440    1.8966   -0.3495 C   0  0  0  0  0  0  0  0  0  0  0  0
   -4.0002    1.9573   -0.8303 O   0  0  0  0  0  0  0  0  0  0  0  0
   -5.5127   -0.3690   -1.7145 C   0  0  0  0  0  0  0  0  0  0  0  0
   -6.0008   -1.4991   -2.0824 O   0  0  0  0  0  0  0  0  0  0  0  0
   -6.4479    0.7412   -1.6178 C   0  0  0  0  0  0  0  0  0  0  0  0
   -7.2642    0.7458   -0.3427 C   0  0  0  0  0  0  0  0  0  0  0  0
   -8.1102   -0.5012   -0.1803 C   0  0  0  0  0  0  0  0  0  0  0  0
   -8.6097   -0.3032    1.2474 C   0  0  0  0  0  0  0  0  0  0  0  0
   -7.5172    0.4455    1.9631 C   0  0  0  0  0  0  0  0  0  0  0  0
   -6.4349    0.7091    0.9081 C   0  0  0  0  0  0  0  0  0  0  0  0
    9.2409   -0.4233   -1.4477 C   0  0  0  0  0  0  0  0  0  0  0  0
    8.8252   -0.7785   -2.6005 O   0  0  0  0  0  0  0  0  0  0  0  0
   10.6012   -0.3543   -1.2764 O   0  0  0  0  0  0  0  0  0  0  0  0
    5.2052    2.1752    3.9384 H   0  0  0  0  0  0  0  0  0  0  0  0
    5.0128    0.4624    4.4862 H   0  0  0  0  0  0  0  0  0  0  0  0
    6.6664    1.1840    4.2073 H   0  0  0  0  0  0  0  0  0  0  0  0
    8.1224    0.8579    2.8193 H   0  0  0  0  0  0  0  0  0  0  0  0
    9.7744    0.3525    1.0699 H   0  0  0  0  0  0  0  0  0  0  0  0
    6.6218   -0.5141   -1.6236 H   0  0  0  0  0  0  0  0  0  0  0  0
    4.7682    0.2411   -2.0313 H   0  0  0  0  0  0  0  0  0  0  0  0
    4.7392   -1.4754   -1.4181 H   0  0  0  0  0  0  0  0  0  0  0  0
    2.7483   -0.9963   -2.5890 H   0  0  0  0  0  0  0  0  0  0  0  0
    2.3000    0.3939   -1.4995 H   0  0  0  0  0  0  0  0  0  0  0  0
    2.3813   -1.3453    0.4265 H   0  0  0  0  0  0  0  0  0  0  0  0
    2.6774   -2.5879   -0.8388 H   0  0  0  0  0  0  0  0  0  0  0  0
    0.5868   -2.1538   -1.9186 H   0  0  0  0  0  0  0  0  0  0  0  0
    0.3381   -2.4301   -0.1813 H   0  0  0  0  0  0  0  0  0  0  0  0
   -1.4189   -2.4957   -1.5149 H   0  0  0  0  0  0  0  0  0  0  0  0
   -3.8193   -2.4456   -1.9347 H   0  0  0  0  0  0  0  0  0  0  0  0
   -0.4311    1.5476    0.3202 H   0  0  0  0  0  0  0  0  0  0  0  0
   -1.8667    2.6316    0.1709 H   0  0  0  0  0  0  0  0  0  0  0  0
   -0.7120    2.3059   -1.2528 H   0  0  0  0  0  0  0  0  0  0  0  0
   -3.8967    2.4878    0.0110 H   0  0  0  0  0  0  0  0  0  0  0  0
   -6.0207    1.7347   -1.7542 H   0  0  0  0  0  0  0  0  0  0  0  0
   -7.2132    0.5867   -2.4389 H   0  0  0  0  0  0  0  0  0  0  0  0
   -7.9394    1.6138   -0.2900 H   0  0  0  0  0  0  0  0  0  0  0  0
   -7.4495   -1.3737   -0.2606 H   0  0  0  0  0  0  0  0  0  0  0  0
   -8.9566   -0.5171   -0.8822 H   0  0  0  0  0  0  0  0  0  0  0  0
   -9.5047    0.3757    1.1951 H   0  0  0  0  0  0  0  0  0  0  0  0
   -8.9046   -1.2434    1.7206 H   0  0  0  0  0  0  0  0  0  0  0  0
   -7.8743    1.4342    2.3442 H   0  0  0  0  0  0  0  0  0  0  0  0
   -7.0436   -0.1195    2.7751 H   0  0  0  0  0  0  0  0  0  0  0  0
   -5.9054    1.6516    1.1256 H   0  0  0  0  0  0  0  0  0  0  0  0
   -5.7332   -0.1527    0.9089 H   0  0  0  0  0  0  0  0  0  0  0  0
   11.2254   -0.0475   -2.0391 H   0  0  0  0  0  0  0  0  0  0  0  0
  1  2  1  0
  2  3  1  0
  3  4  2  0
  4  5  1  0
  5  6  2  0
  6  7  1  0
  7  8  2  0
  8  9  1  0
  9 10  1  0
 10 11  1  0
 11 12  1  0
 12 13  1  0
 13 14  1  0
 14 15  1  0
 15 16  2  0
 16 17  1  0
 17 18  2  0
 18 19  1  0
 19 20  2  0
 20 21  1  0
 19 22  1  0
 18 23  1  0
 23 24  2  0
 23 25  1  0
 25 26  1  0
 26 27  1  0
 27 28  1  0
 28 29  1  0
 29 30  1  0
  6 31  1  0
 31 32  2  0
 31 33  1  0
  8  3  1  0
 20 15  1  0
 30 26  1  0
  1 34  1  0
  1 35  1  0
  1 36  1  0
  4 37  1  0
  5 38  1  0
  7 39  1  0
 10 40  1  0
 10 41  1  0
 11 42  1  0
 11 43  1  0
 12 44  1  0
 12 45  1  0
 13 46  1  0
 13 47  1  0
 16 48  1  0
 17 49  1  0
 21 50  1  0
 21 51  1  0
 21 52  1  0
 22 53  1  0
 25 54  1  0
 25 55  1  0
 26 56  1  0
 27 57  1  0
 27 58  1  0
 28 59  1  0
 28 60  1  0
 29 61  1  0
 29 62  1  0
 30 63  1  0
 30 64  1  0
 33 65  1  0
M  END
>  <Ligand ID>  (1) 
LIG0003649

>  <Ligand>  (1) 
CHEMBL3287702

>  <SMILES>  (1) 
COc1ccc(cc1OCCCCOc1ccc(c(c1C)O)C(=O)CC1CCCC1)C(=O)O

>  <CID>  (1) 
90643879.0

>  <ChEMBL ID>  (1) 
nan

>  <InChiKey>  (1) 
RTZLGAJHKLYQLG-UHFFFAOYSA-N

>  <InChi>  (1) 
InChI=1S/C26H32O7/c1-17-22(12-10-20(25(17)28)21(27)15-18-7-3-4-8-18)32-13-5-6-14-33-24-16-19(26(29)30)9-11-23(24)31-2/h9-12,16,18,28H,3-8,13-15H2,1-2H3,(H,29,30)

>  <IUPAC Name>  (1) 
3-[4-[4-(2-cyclopentylacetyl)-3-hydroxy-2-methylphenoxy]butoxy]-4-methoxybenzoic acid

$$$$
