
     RDKit          3D

 94 97  0  0  0  0  0  0  0  0999 V2000
    7.7314   -0.6144   -0.3825 C   0  0  0  0  0  0  0  0  0  0  0  0
    7.5504   -0.1692    0.9617 N   0  0  0  0  0  0  0  0  0  0  0  0
    6.9511   -1.1484    1.8105 C   0  0  2  0  0  0  0  0  0  0  0  0
    7.2904   -2.5410    1.2622 C   0  0  0  0  0  0  0  0  0  0  0  0
    5.4850   -1.0132    2.0333 C   0  0  0  0  0  0  0  0  0  0  0  0
    4.7753   -0.2423    1.0496 N   0  0  0  0  0  0  0  0  0  0  0  0
    5.4140    0.9253    0.5031 C   0  0  0  0  0  0  0  0  0  0  0  0
    6.8373    1.0722    0.9728 C   0  0  2  0  0  0  0  0  0  0  0  0
    7.5995    2.0930    0.1573 C   0  0  0  0  0  0  0  0  0  0  0  0
    3.4556   -0.5976    0.5896 C   0  0  0  0  0  0  0  0  0  0  0  0
    2.9384   -1.6451    1.0923 O   0  0  0  0  0  0  0  0  0  0  0  0
    2.8044    0.1922   -0.3634 N   0  0  0  0  0  0  0  0  0  0  0  0
    1.4468   -0.1306   -0.8760 C   0  0  1  0  0  0  0  0  0  0  0  0
    0.5022    0.8763   -0.3846 C   0  0  0  0  0  0  0  0  0  0  0  0
    1.0721    1.8960    0.1752 O   0  0  0  0  0  0  0  0  0  0  0  0
   -0.8901    0.9024   -0.4203 N   0  0  0  0  0  0  0  0  0  0  0  0
   -1.8037   -0.0700   -0.9654 C   0  0  0  0  0  0  0  0  0  0  0  0
   -3.0890    0.7122   -1.3279 C   0  0  0  0  0  0  0  0  0  0  0  0
   -3.7869    0.9663    0.0268 C   0  0  0  0  0  0  0  0  0  0  0  0
   -2.7889    1.5462    0.9685 C   0  0  0  0  0  0  0  0  0  0  0  0
   -1.5639    2.0655    0.2175 C   0  0  0  0  0  0  0  0  0  0  0  0
   -4.9758    1.8797   -0.1983 C   0  0  0  0  0  0  0  0  0  0  0  0
   -4.6114    3.2217   -0.7660 C   0  0  0  0  0  0  0  0  0  0  0  0
   -5.8737    3.9584   -1.1366 C   0  0  0  0  0  0  0  0  0  0  0  0
   -7.1033    3.3305   -0.5616 C   0  0  0  0  0  0  0  0  0  0  0  0
   -6.8387    3.1152    0.9110 C   0  0  0  0  0  0  0  0  0  0  0  0
   -5.8177    1.9834    1.0243 C   0  0  0  0  0  0  0  0  0  0  0  0
   -4.2974   -0.3605    0.4068 C   0  0  0  0  0  0  0  0  0  0  0  0
   -4.2866   -1.2487   -0.5220 O   0  0  0  0  0  0  0  0  0  0  0  0
   -4.7851   -0.7613    1.6493 N   0  0  0  0  0  0  0  0  0  0  0  0
   -5.2521   -2.1198    1.8189 C   0  0  0  0  0  0  0  0  0  0  0  0
   -5.7304   -2.3477    3.2379 C   0  0  0  0  0  0  0  0  0  0  0  0
   -6.4454   -2.3571    0.8915 C   0  0  0  0  0  0  0  0  0  0  0  0
   -4.2105   -3.1363    1.5014 C   0  0  0  0  0  0  0  0  0  0  0  0
    1.4828   -0.1484   -2.3666 C   0  0  0  0  0  0  0  0  0  0  0  0
    2.4707   -1.1862   -2.8637 C   0  0  0  0  0  0  0  0  0  0  0  0
    2.0943   -2.4805   -3.1023 C   0  0  0  0  0  0  0  0  0  0  0  0
    3.0369   -3.3805   -3.5493 C   0  0  0  0  0  0  0  0  0  0  0  0
    4.3661   -3.0168   -3.7678 C   0  0  0  0  0  0  0  0  0  0  0  0
    4.7003   -1.7020   -3.5143 C   0  0  0  0  0  0  0  0  0  0  0  0
    3.7886   -0.7637   -3.0649 C   0  0  0  0  0  0  0  0  0  0  0  0
    5.2711   -3.9294   -4.2081 F   0  0  0  0  0  0  0  0  0  0  0  0
    7.0477   -1.4492   -0.6652 H   0  0  0  0  0  0  0  0  0  0  0  0
    7.5665    0.1857   -1.1535 H   0  0  0  0  0  0  0  0  0  0  0  0
    8.7850   -0.9721   -0.5798 H   0  0  0  0  0  0  0  0  0  0  0  0
    7.5142   -1.1055    2.7922 H   0  0  0  0  0  0  0  0  0  0  0  0
    7.4078   -3.2656    2.0727 H   0  0  0  0  0  0  0  0  0  0  0  0
    8.1855   -2.5437    0.6357 H   0  0  0  0  0  0  0  0  0  0  0  0
    6.4135   -2.8640    0.6550 H   0  0  0  0  0  0  0  0  0  0  0  0
    5.0529   -2.0393    2.0567 H   0  0  0  0  0  0  0  0  0  0  0  0
    5.3222   -0.5990    3.0564 H   0  0  0  0  0  0  0  0  0  0  0  0
    5.3678    0.8975   -0.5915 H   0  0  0  0  0  0  0  0  0  0  0  0
    4.8669    1.8277    0.8612 H   0  0  0  0  0  0  0  0  0  0  0  0
    6.8814    1.4427    2.0342 H   0  0  0  0  0  0  0  0  0  0  0  0
    7.6685    3.0663    0.6889 H   0  0  0  0  0  0  0  0  0  0  0  0
    8.6605    1.7350    0.0154 H   0  0  0  0  0  0  0  0  0  0  0  0
    7.1542    2.1807   -0.8438 H   0  0  0  0  0  0  0  0  0  0  0  0
    3.2863    1.0625   -0.7447 H   0  0  0  0  0  0  0  0  0  0  0  0
    1.1713   -1.1176   -0.4913 H   0  0  0  0  0  0  0  0  0  0  0  0
   -2.0541   -0.8146   -0.1507 H   0  0  0  0  0  0  0  0  0  0  0  0
   -1.5195   -0.5579   -1.8858 H   0  0  0  0  0  0  0  0  0  0  0  0
   -2.7232    1.6149   -1.7996 H   0  0  0  0  0  0  0  0  0  0  0  0
   -3.6905    0.0332   -1.9399 H   0  0  0  0  0  0  0  0  0  0  0  0
   -2.3973    0.8318    1.7298 H   0  0  0  0  0  0  0  0  0  0  0  0
   -3.2091    2.4180    1.4873 H   0  0  0  0  0  0  0  0  0  0  0  0
   -0.8649    2.4307    0.9867 H   0  0  0  0  0  0  0  0  0  0  0  0
   -1.8116    2.8482   -0.4863 H   0  0  0  0  0  0  0  0  0  0  0  0
   -5.6039    1.3815   -0.9874 H   0  0  0  0  0  0  0  0  0  0  0  0
   -4.0598    3.0815   -1.7103 H   0  0  0  0  0  0  0  0  0  0  0  0
   -3.9684    3.8106   -0.0853 H   0  0  0  0  0  0  0  0  0  0  0  0
   -5.7695    5.0115   -0.7950 H   0  0  0  0  0  0  0  0  0  0  0  0
   -6.0267    4.0416   -2.2466 H   0  0  0  0  0  0  0  0  0  0  0  0
   -7.3769    2.4075   -1.1080 H   0  0  0  0  0  0  0  0  0  0  0  0
   -7.9407    4.0582   -0.7212 H   0  0  0  0  0  0  0  0  0  0  0  0
   -7.7551    2.8800    1.4824 H   0  0  0  0  0  0  0  0  0  0  0  0
   -6.3522    4.0433    1.2788 H   0  0  0  0  0  0  0  0  0  0  0  0
   -5.2707    2.1674    1.9700 H   0  0  0  0  0  0  0  0  0  0  0  0
   -6.4233    1.0670    1.1452 H   0  0  0  0  0  0  0  0  0  0  0  0
   -4.7923   -0.0763    2.4298 H   0  0  0  0  0  0  0  0  0  0  0  0
   -5.0182   -2.9905    3.7843 H   0  0  0  0  0  0  0  0  0  0  0  0
   -5.7328   -1.3673    3.7750 H   0  0  0  0  0  0  0  0  0  0  0  0
   -6.6881   -2.8712    3.2333 H   0  0  0  0  0  0  0  0  0  0  0  0
   -6.8612   -1.3547    0.6502 H   0  0  0  0  0  0  0  0  0  0  0  0
   -7.2176   -2.9646    1.4418 H   0  0  0  0  0  0  0  0  0  0  0  0
   -6.1586   -2.8798   -0.0145 H   0  0  0  0  0  0  0  0  0  0  0  0
   -3.2319   -2.9187    1.9988 H   0  0  0  0  0  0  0  0  0  0  0  0
   -4.0786   -3.3576    0.4203 H   0  0  0  0  0  0  0  0  0  0  0  0
   -4.5139   -4.1298    1.9433 H   0  0  0  0  0  0  0  0  0  0  0  0
    0.5238   -0.4792   -2.7701 H   0  0  0  0  0  0  0  0  0  0  0  0
    1.6840    0.8451   -2.8129 H   0  0  0  0  0  0  0  0  0  0  0  0
    1.0894   -2.7932   -2.9467 H   0  0  0  0  0  0  0  0  0  0  0  0
    2.7615   -4.4077   -3.7467 H   0  0  0  0  0  0  0  0  0  0  0  0
    5.7165   -1.3547   -3.6644 H   0  0  0  0  0  0  0  0  0  0  0  0
    4.0691    0.2783   -2.8687 H   0  0  0  0  0  0  0  0  0  0  0  0
  1  2  1  0
  2  3  1  0
  3  4  1  0
  3  5  1  0
  5  6  1  0
  6  7  1  0
  7  8  1  0
  8  9  1  0
  6 10  1  0
 10 11  2  0
 10 12  1  0
 12 13  1  0
 13 14  1  0
 14 15  2  0
 14 16  1  0
 16 17  1  0
 17 18  1  0
 18 19  1  0
 19 20  1  0
 20 21  1  0
 19 22  1  0
 22 23  1  0
 23 24  1  0
 24 25  1  0
 25 26  1  0
 26 27  1  0
 19 28  1  0
 28 29  2  0
 28 30  1  0
 30 31  1  0
 31 32  1  0
 31 33  1  0
 31 34  1  0
 13 35  1  0
 35 36  1  0
 36 37  2  0
 37 38  1  0
 38 39  2  0
 39 40  1  0
 40 41  2  0
 39 42  1  0
  8  2  1  0
 21 16  1  0
 27 22  1  0
 41 36  1  0
  1 43  1  0
  1 44  1  0
  1 45  1  0
  3 46  1  1
  4 47  1  0
  4 48  1  0
  4 49  1  0
  5 50  1  0
  5 51  1  0
  7 52  1  0
  7 53  1  0
  8 54  1  1
  9 55  1  0
  9 56  1  0
  9 57  1  0
 12 58  1  0
 13 59  1  1
 17 60  1  0
 17 61  1  0
 18 62  1  0
 18 63  1  0
 20 64  1  0
 20 65  1  0
 21 66  1  0
 21 67  1  0
 22 68  1  0
 23 69  1  0
 23 70  1  0
 24 71  1  0
 24 72  1  0
 25 73  1  0
 25 74  1  0
 26 75  1  0
 26 76  1  0
 27 77  1  0
 27 78  1  0
 30 79  1  0
 32 80  1  0
 32 81  1  0
 32 82  1  0
 33 83  1  0
 33 84  1  0
 33 85  1  0
 34 86  1  0
 34 87  1  0
 34 88  1  0
 35 89  1  0
 35 90  1  0
 37 91  1  0
 38 92  1  0
 40 93  1  0
 41 94  1  0
M  END
>  <Ligand ID>  (1) 
LIG0005259

>  <Ligand>  (1) 
CHEMBL1761872

>  <SMILES>  (1) 
CN1[C@H](C)CN(C[C@@H]1C)C(=O)N[C@@H](C(=O)N1CCC(CC1)(C1CCCCC1)C(=O)NC(C)(C)C)Cc1ccc(cc1)F

>  <CID>  (1) 
54584301.0

>  <ChEMBL ID>  (1) 
nan

>  <InChiKey>  (1) 
JMZSDACYKDRROH-FMGHJNRGSA-N

>  <InChi>  (1) 
InChI=1S/C33H52FN5O3/c1-23-21-39(22-24(2)37(23)6)31(42)35-28(20-25-12-14-27(34)15-13-25)29(40)38-18-16-33(17-19-38,26-10-8-7-9-11-26)30(41)36-32(3,4)5/h12-15,23-24,26,28H,7-11,16-22H2,1-6H3,(H,35,42)(H,36,41)/t23-,24+,28-/m1/s1

>  <IUPAC Name>  (1) 
(3S,5R)-N-[(2R)-1-[4-(tert-butylcarbamoyl)-4-cyclohexylpiperidin-1-yl]-3-(4-fluorophenyl)-1-oxopropan-2-yl]-3,4,5-trimethylpiperazine-1-carboxamide

$$$$
