
     RDKit          3D

 48 50  0  0  0  0  0  0  0  0999 V2000
   -6.0609   -3.0842    1.0345 O   0  0  0  0  0  0  0  0  0  0  0  0
   -6.8272   -2.3886    0.0733 C   0  0  0  0  0  0  0  0  0  0  0  0
   -7.9830   -2.8137   -0.2256 O   0  0  0  0  0  0  0  0  0  0  0  0
   -6.2622   -1.1522   -0.5877 C   0  0  0  0  0  0  0  0  0  0  0  0
   -5.0064   -0.9518   -0.0218 O   0  0  0  0  0  0  0  0  0  0  0  0
   -4.0809    0.0319   -0.2837 C   0  0  0  0  0  0  0  0  0  0  0  0
   -4.2558    1.0402   -1.2080 C   0  0  0  0  0  0  0  0  0  0  0  0
   -3.2254    1.9818   -1.3787 C   0  0  0  0  0  0  0  0  0  0  0  0
   -2.0604    1.9207   -0.6549 C   0  0  0  0  0  0  0  0  0  0  0  0
   -1.8780    0.9105    0.2780 C   0  0  0  0  0  0  0  0  0  0  0  0
   -2.9072   -0.0046    0.4283 C   0  0  0  0  0  0  0  0  0  0  0  0
   -0.6976    0.7454    1.1193 C   0  0  0  0  0  0  0  0  0  0  0  0
    0.5018    1.4996    0.6894 C   0  0  2  0  0  0  0  0  0  0  0  0
    0.3418    2.0230   -0.6958 C   0  0  0  0  0  0  0  0  0  0  0  0
   -0.9289    2.8730   -0.8022 C   0  0  0  0  0  0  0  0  0  0  0  0
    1.6988    0.6588    0.7814 N   0  0  0  0  0  0  0  0  0  0  0  0
    1.8083   -0.2892   -0.2567 C   0  0  0  0  0  0  0  0  0  0  0  0
    2.8067   -1.3720   -0.1385 C   0  0  1  0  0  0  0  0  0  0  0  0
    4.2240   -0.9760   -0.0644 C   0  0  0  0  0  0  0  0  0  0  0  0
    5.1005   -2.0261    0.3149 C   0  0  0  0  0  0  0  0  0  0  0  0
    6.4469   -1.8321    0.4391 C   0  0  0  0  0  0  0  0  0  0  0  0
    6.9718   -0.5675    0.1868 C   0  0  0  0  0  0  0  0  0  0  0  0
    6.1165    0.4386   -0.1793 C   0  0  0  0  0  0  0  0  0  0  0  0
    4.7408    0.2559   -0.3108 C   0  0  0  0  0  0  0  0  0  0  0  0
    6.8416    2.0206   -0.4848 Cl  0  0  0  0  0  0  0  0  0  0  0  0
    2.5669   -2.2052    0.9727 O   0  0  0  0  0  0  0  0  0  0  0  0
   -6.5600   -3.8032    1.5802 H   0  0  0  0  0  0  0  0  0  0  0  0
   -6.2756   -1.2722   -1.6819 H   0  0  0  0  0  0  0  0  0  0  0  0
   -6.9608   -0.3075   -0.2983 H   0  0  0  0  0  0  0  0  0  0  0  0
   -5.1713    1.0873   -1.7818 H   0  0  0  0  0  0  0  0  0  0  0  0
   -3.3329    2.7756   -2.0896 H   0  0  0  0  0  0  0  0  0  0  0  0
   -2.7892   -0.8062    1.1577 H   0  0  0  0  0  0  0  0  0  0  0  0
   -0.9563    1.0183    2.1749 H   0  0  0  0  0  0  0  0  0  0  0  0
   -0.4338   -0.3565    1.0721 H   0  0  0  0  0  0  0  0  0  0  0  0
    0.6720    2.3557    1.3789 H   0  0  0  0  0  0  0  0  0  0  0  0
    1.2209    2.5731   -1.0857 H   0  0  0  0  0  0  0  0  0  0  0  0
    0.1670    1.1463   -1.3836 H   0  0  0  0  0  0  0  0  0  0  0  0
   -0.8712    3.3484   -1.7851 H   0  0  0  0  0  0  0  0  0  0  0  0
   -0.9796    3.6238    0.0091 H   0  0  0  0  0  0  0  0  0  0  0  0
    2.5225    1.1148    1.1478 H   0  0  0  0  0  0  0  0  0  0  0  0
    0.7883   -0.6926   -0.5018 H   0  0  0  0  0  0  0  0  0  0  0  0
    2.0961    0.3095   -1.1858 H   0  0  0  0  0  0  0  0  0  0  0  0
    2.7112   -2.0510   -1.0170 H   0  0  0  0  0  0  0  0  0  0  0  0
    4.7012   -3.0213    0.5154 H   0  0  0  0  0  0  0  0  0  0  0  0
    7.0727   -2.6730    0.7321 H   0  0  0  0  0  0  0  0  0  0  0  0
    8.0450   -0.4499    0.2983 H   0  0  0  0  0  0  0  0  0  0  0  0
    4.1034    1.0505   -0.6037 H   0  0  0  0  0  0  0  0  0  0  0  0
    2.2381   -1.7067    1.7520 H   0  0  0  0  0  0  0  0  0  0  0  0
  1  2  1  0
  2  3  2  0
  2  4  1  0
  4  5  1  0
  5  6  1  0
  6  7  2  0
  7  8  1  0
  8  9  2  0
  9 10  1  0
 10 11  2  0
 10 12  1  0
 12 13  1  0
 13 14  1  0
 14 15  1  0
 13 16  1  0
 16 17  1  0
 17 18  1  0
 18 19  1  0
 19 20  2  0
 20 21  1  0
 21 22  2  0
 22 23  1  0
 23 24  2  0
 23 25  1  0
 18 26  1  0
 11  6  1  0
 24 19  1  0
 15  9  1  0
  1 27  1  0
  4 28  1  0
  4 29  1  0
  7 30  1  0
  8 31  1  0
 11 32  1  0
 12 33  1  0
 12 34  1  0
 13 35  1  1
 14 36  1  0
 14 37  1  0
 15 38  1  0
 15 39  1  0
 16 40  1  0
 17 41  1  0
 17 42  1  0
 18 43  1  6
 20 44  1  0
 21 45  1  0
 22 46  1  0
 24 47  1  0
 26 48  1  0
M  END
>  <Ligand ID>  (1) 
LIG0002994

>  <Ligand>  (1) 
CHEMBL498305

>  <SMILES>  (1) 
OC(=O)COc1ccc2c(c1)C[C@H](CC2)NC[C@@H](c1cccc(c1)Cl)O

>  <CID>  (1) 
9842600.0

>  <ChEMBL ID>  (1) 
nan

>  <InChiKey>  (1) 
PLYWAKPAFSZPAL-HKUYNNGSSA-N

>  <InChi>  (1) 
InChI=1S/C20H22ClNO4/c21-16-3-1-2-14(8-16)19(23)11-22-17-6-4-13-5-7-18(10-15(13)9-17)26-12-20(24)25/h1-3,5,7-8,10,17,19,22-23H,4,6,9,11-12H2,(H,24,25)/t17-,19-/m0/s1

>  <IUPAC Name>  (1) 
2-[[(7S)-7-[[(2R)-2-(3-chlorophenyl)-2-hydroxyethyl]amino]-5,6,7,8-tetrahydronaphthalen-2-yl]oxy]acetic acid

$$$$
