
     RDKit          3D

 49 51  0  0  0  0  0  0  0  0999 V2000
    7.9718   -0.5805   -2.9065 O   0  0  0  0  0  0  0  0  0  0  0  0
    7.4553   -0.4580   -1.5931 C   0  0  0  0  0  0  0  0  0  0  0  0
    7.1978   -1.5301   -1.0222 O   0  0  0  0  0  0  0  0  0  0  0  0
    7.2937    0.9026   -1.0847 C   0  0  0  0  0  0  0  0  0  0  0  0
    6.7272    0.9320    0.2877 C   0  0  0  0  0  0  0  0  0  0  0  0
    5.3929    0.3385    0.4671 C   0  0  0  0  0  0  0  0  0  0  0  0
    5.1315   -0.9216    0.9392 C   0  0  0  0  0  0  0  0  0  0  0  0
    3.8289   -1.4158    1.0523 C   0  0  0  0  0  0  0  0  0  0  0  0
    2.7678   -0.6164    0.6803 C   0  0  0  0  0  0  0  0  0  0  0  0
    3.0013    0.6559    0.2029 C   0  0  0  0  0  0  0  0  0  0  0  0
    4.3000    1.1285    0.0974 C   0  0  0  0  0  0  0  0  0  0  0  0
    1.8558    1.5273   -0.2013 C   0  0  0  0  0  0  0  0  0  0  0  0
    1.4205   -1.1590    0.8096 C   0  0  0  0  0  0  0  0  0  0  0  0
    1.1370   -2.3910    1.2695 N   0  0  0  0  0  0  0  0  0  0  0  0
   -0.1581   -2.5556    1.2557 O   0  0  0  0  0  0  0  0  0  0  0  0
   -0.7622   -1.4845    0.8050 C   0  0  0  0  0  0  0  0  0  0  0  0
    0.2344   -0.5957    0.5207 N   0  0  0  0  0  0  0  0  0  0  0  0
   -2.1770   -1.2411    0.6262 C   0  0  0  0  0  0  0  0  0  0  0  0
   -2.6974   -0.0604    0.1375 C   0  0  0  0  0  0  0  0  0  0  0  0
   -4.0716    0.1204   -0.0144 C   0  0  0  0  0  0  0  0  0  0  0  0
   -4.9753   -0.8537    0.3095 C   0  0  0  0  0  0  0  0  0  0  0  0
   -4.4367   -2.0487    0.8049 C   0  0  0  0  0  0  0  0  0  0  0  0
   -3.0801   -2.2287    0.9554 C   0  0  0  0  0  0  0  0  0  0  0  0
   -5.5950   -3.4849    1.2930 Br  0  0  0  0  0  0  0  0  0  0  0  0
   -6.3322   -0.7886    0.2036 O   0  0  0  0  0  0  0  0  0  0  0  0
   -7.0325    0.3253   -0.2693 C   0  0  0  0  0  0  0  0  0  0  0  0
   -7.9918    0.8348    0.8206 C   0  0  0  0  0  0  0  0  0  0  0  0
   -7.8749   -0.0456   -1.4994 C   0  0  0  0  0  0  0  0  0  0  0  0
    7.8276   -1.4350   -3.4557 H   0  0  0  0  0  0  0  0  0  0  0  0
    6.6363    1.5324   -1.7375 H   0  0  0  0  0  0  0  0  0  0  0  0
    8.2880    1.4425   -1.0100 H   0  0  0  0  0  0  0  0  0  0  0  0
    7.4008    0.4543    1.0406 H   0  0  0  0  0  0  0  0  0  0  0  0
    6.7265    2.0218    0.5999 H   0  0  0  0  0  0  0  0  0  0  0  0
    5.9099   -1.5862    1.2651 H   0  0  0  0  0  0  0  0  0  0  0  0
    3.6665   -2.4229    1.4315 H   0  0  0  0  0  0  0  0  0  0  0  0
    4.4492    2.1331   -0.2816 H   0  0  0  0  0  0  0  0  0  0  0  0
    1.3638    1.0900   -1.0949 H   0  0  0  0  0  0  0  0  0  0  0  0
    1.1587    1.5926    0.6630 H   0  0  0  0  0  0  0  0  0  0  0  0
    2.2331    2.5430   -0.4428 H   0  0  0  0  0  0  0  0  0  0  0  0
   -2.0130    0.7324   -0.1294 H   0  0  0  0  0  0  0  0  0  0  0  0
   -4.3783    1.0699   -0.4008 H   0  0  0  0  0  0  0  0  0  0  0  0
   -2.7062   -3.1486    1.3344 H   0  0  0  0  0  0  0  0  0  0  0  0
   -6.3380    1.1399   -0.5408 H   0  0  0  0  0  0  0  0  0  0  0  0
   -8.5207    1.7224    0.4216 H   0  0  0  0  0  0  0  0  0  0  0  0
   -7.3368    1.0938    1.6917 H   0  0  0  0  0  0  0  0  0  0  0  0
   -8.7094    0.0375    1.0791 H   0  0  0  0  0  0  0  0  0  0  0  0
   -7.6806   -1.1257   -1.7335 H   0  0  0  0  0  0  0  0  0  0  0  0
   -8.9448    0.1093   -1.2622 H   0  0  0  0  0  0  0  0  0  0  0  0
   -7.5639    0.5518   -2.3854 H   0  0  0  0  0  0  0  0  0  0  0  0
  1  2  1  0
  2  3  2  0
  2  4  1  0
  4  5  1  0
  5  6  1  0
  6  7  2  0
  7  8  1  0
  8  9  2  0
  9 10  1  0
 10 11  2  0
 10 12  1  0
  9 13  1  0
 13 14  2  0
 14 15  1  0
 15 16  1  0
 16 17  2  0
 16 18  1  0
 18 19  2  0
 19 20  1  0
 20 21  2  0
 21 22  1  0
 22 23  2  0
 22 24  1  0
 21 25  1  0
 25 26  1  0
 26 27  1  0
 26 28  1  0
 11  6  1  0
 17 13  1  0
 23 18  1  0
  1 29  1  0
  4 30  1  0
  4 31  1  0
  5 32  1  0
  5 33  1  0
  7 34  1  0
  8 35  1  0
 11 36  1  0
 12 37  1  0
 12 38  1  0
 12 39  1  0
 19 40  1  0
 20 41  1  0
 23 42  1  0
 26 43  1  0
 27 44  1  0
 27 45  1  0
 27 46  1  0
 28 47  1  0
 28 48  1  0
 28 49  1  0
M  END
>  <Ligand ID>  (1) 
LIG0001679

>  <Ligand>  (1) 
CHEMBL210316

>  <SMILES>  (1) 
OC(=O)CCc1ccc(c(c1)C)c1noc(n1)c1ccc(c(c1)Br)OC(C)C

>  <CID>  (1) 
11575913.0

>  <ChEMBL ID>  (1) 
nan

>  <InChiKey>  (1) 
DXNNAWYNODHJCC-UHFFFAOYSA-N

>  <InChi>  (1) 
InChI=1S/C21H21BrN2O4/c1-12(2)27-18-8-6-15(11-17(18)22)21-23-20(24-28-21)16-7-4-14(10-13(16)3)5-9-19(25)26/h4,6-8,10-12H,5,9H2,1-3H3,(H,25,26)

>  <IUPAC Name>  (1) 
3-[4-[5-(3-bromo-4-propan-2-yloxyphenyl)-1,2,4-oxadiazol-3-yl]-3-methylphenyl]propanoic acid

$$$$
