
     RDKit          3D

 71 72  0  0  0  0  0  0  0  0999 V2000
   -6.1335    3.4055    1.6635 C   0  0  0  0  0  0  0  0  0  0  0  0
   -5.4093    2.4205    0.7977 C   0  0  0  0  0  0  0  0  0  0  0  0
   -4.9536    1.2309    1.6177 C   0  0  0  0  0  0  0  0  0  0  0  0
   -4.2493    0.3013    0.7004 C   0  0  0  0  0  0  0  0  0  0  0  0
   -2.8571    0.1816    0.6811 C   0  0  0  0  0  0  0  0  0  0  0  0
   -2.2052   -0.6765   -0.1746 C   0  0  0  0  0  0  0  0  0  0  0  0
   -2.9385   -1.4574   -1.0577 C   0  0  0  0  0  0  0  0  0  0  0  0
   -4.2963   -1.3529   -1.0506 C   0  0  0  0  0  0  0  0  0  0  0  0
   -4.9635   -0.4818   -0.1799 C   0  0  0  0  0  0  0  0  0  0  0  0
   -6.4134   -0.4827   -0.2762 C   0  0  0  0  0  0  0  0  0  0  0  0
   -7.1883   -0.3317    0.7017 O   0  0  0  0  0  0  0  0  0  0  0  0
   -7.0647   -0.6642   -1.5505 N   0  0  0  0  0  0  0  0  0  0  0  0
   -8.7964   -0.6390   -1.5099 S   0  0  0  0  0  0  0  0  0  0  0  0
   -9.2578   -0.2824   -2.8907 O   0  0  0  0  0  0  0  0  0  0  0  0
   -9.3215    0.2595   -0.4468 O   0  0  0  0  0  0  0  0  0  0  0  0
   -9.3294   -2.3299   -1.2321 C   0  0  0  0  0  0  0  0  0  0  0  0
   -0.7586   -0.8522   -0.2022 C   0  0  0  0  0  0  0  0  0  0  0  0
   -0.0560   -1.1525   -1.3574 C   0  0  0  0  0  0  0  0  0  0  0  0
    1.3260   -1.3277   -1.2272 C   0  0  0  0  0  0  0  0  0  0  0  0
    1.9694   -1.2101   -0.0126 C   0  0  0  0  0  0  0  0  0  0  0  0
    1.2459   -0.9054    1.1442 C   0  0  0  0  0  0  0  0  0  0  0  0
   -0.1111   -0.7309    1.0298 C   0  0  0  0  0  0  0  0  0  0  0  0
    3.4147   -1.4047    0.1459 C   0  0  0  0  0  0  0  0  0  0  0  0
    4.1630   -0.1191    0.0392 C   0  0  0  0  0  0  0  0  0  0  0  0
    5.5865   -0.3624    0.2174 N   0  0  0  0  0  0  0  0  0  0  0  0
    6.2035   -1.0791   -0.8473 C   0  0  0  0  0  0  0  0  0  0  0  0
    7.6614   -1.3479   -0.4707 C   0  0  1  0  0  0  0  0  0  0  0  0
    8.3828   -0.1085   -0.1038 C   0  0  0  0  0  0  0  0  0  0  0  0
    7.9666    1.1620   -0.4064 C   0  0  0  0  0  0  0  0  0  0  0  0
    8.7568    2.2324    0.0101 C   0  0  0  0  0  0  0  0  0  0  0  0
    9.9349    2.0458    0.7123 C   0  0  0  0  0  0  0  0  0  0  0  0
   10.3365    0.7686    1.0066 C   0  0  0  0  0  0  0  0  0  0  0  0
    9.5751   -0.2844    0.6059 C   0  0  0  0  0  0  0  0  0  0  0  0
    7.6753   -2.1326    0.7131 O   0  0  0  0  0  0  0  0  0  0  0  0
   -4.2727    3.1024    0.1080 C   0  0  0  0  0  0  0  0  0  0  0  0
    0.6865    0.0000    0.0000 Cl  0  0  0  0  0  0  0  0  0  0  0  0
   -5.8201    4.4321    1.4048 H   0  0  0  0  0  0  0  0  0  0  0  0
   -7.2397    3.2704    1.5457 H   0  0  0  0  0  0  0  0  0  0  0  0
   -5.8025    3.2130    2.7159 H   0  0  0  0  0  0  0  0  0  0  0  0
   -6.1111    2.0880   -0.0043 H   0  0  0  0  0  0  0  0  0  0  0  0
   -4.1653    1.5855    2.3480 H   0  0  0  0  0  0  0  0  0  0  0  0
   -5.7541    0.7368    2.1614 H   0  0  0  0  0  0  0  0  0  0  0  0
   -2.2502    0.7899    1.3706 H   0  0  0  0  0  0  0  0  0  0  0  0
   -2.4525   -2.1399   -1.7431 H   0  0  0  0  0  0  0  0  0  0  0  0
   -4.8453   -1.9760   -1.7505 H   0  0  0  0  0  0  0  0  0  0  0  0
   -6.5160   -0.8007   -2.4206 H   0  0  0  0  0  0  0  0  0  0  0  0
   -8.8032   -2.9904   -1.9513 H   0  0  0  0  0  0  0  0  0  0  0  0
   -8.9748   -2.6119   -0.1987 H   0  0  0  0  0  0  0  0  0  0  0  0
  -10.4114   -2.4059   -1.3370 H   0  0  0  0  0  0  0  0  0  0  0  0
   -0.5702   -1.2420   -2.2943 H   0  0  0  0  0  0  0  0  0  0  0  0
    1.8609   -1.5567   -2.1139 H   0  0  0  0  0  0  0  0  0  0  0  0
    1.7042   -0.8038    2.1063 H   0  0  0  0  0  0  0  0  0  0  0  0
   -0.6842   -0.4903    1.9321 H   0  0  0  0  0  0  0  0  0  0  0  0
    3.6051   -1.8538    1.1425 H   0  0  0  0  0  0  0  0  0  0  0  0
    3.7780   -2.0871   -0.6538 H   0  0  0  0  0  0  0  0  0  0  0  0
    3.9403    0.3877   -0.9227 H   0  0  0  0  0  0  0  0  0  0  0  0
    3.8897    0.6097    0.8267 H   0  0  0  0  0  0  0  0  0  0  0  0
    5.6782   -0.9268    1.0890 H   0  0  0  0  0  0  0  0  0  0  0  0
    5.7308   -2.0515   -1.0947 H   0  0  0  0  0  0  0  0  0  0  0  0
    6.1868   -0.5130   -1.8140 H   0  0  0  0  0  0  0  0  0  0  0  0
    8.1554   -1.8828   -1.2979 H   0  0  0  0  0  0  0  0  0  0  0  0
    7.0496    1.2881   -0.9523 H   0  0  0  0  0  0  0  0  0  0  0  0
    8.4220    3.2389   -0.2323 H   0  0  0  0  0  0  0  0  0  0  0  0
   10.5340    2.8795    1.0276 H   0  0  0  0  0  0  0  0  0  0  0  0
   11.2666    0.6340    1.5615 H   0  0  0  0  0  0  0  0  0  0  0  0
    9.9292   -1.2817    0.8595 H   0  0  0  0  0  0  0  0  0  0  0  0
    7.0938   -2.9050    0.6284 H   0  0  0  0  0  0  0  0  0  0  0  0
   -4.7203    3.9566   -0.4685 H   0  0  0  0  0  0  0  0  0  0  0  0
   -3.7876    2.4737   -0.6751 H   0  0  0  0  0  0  0  0  0  0  0  0
   -3.5386    3.5411    0.7947 H   0  0  0  0  0  0  0  0  0  0  0  0
   -0.6865    0.0000    0.0000 H   0  0  0  0  0  0  0  0  0  0  0  0
  1  2  1  0
  2  3  1  0
  3  4  1  0
  4  5  2  0
  5  6  1  0
  6  7  2  0
  7  8  1  0
  8  9  2  0
  9 10  1  0
 10 11  2  0
 10 12  1  0
 12 13  1  0
 13 14  2  0
 13 15  2  0
 13 16  1  0
  6 17  1  0
 17 18  2  0
 18 19  1  0
 19 20  2  0
 20 21  1  0
 21 22  2  0
 20 23  1  0
 23 24  1  0
 24 25  1  0
 25 26  1  0
 26 27  1  0
 27 28  1  0
 28 29  2  0
 29 30  1  0
 30 31  2  0
 31 32  1  0
 32 33  2  0
 27 34  1  0
  2 35  1  0
  9  4  1  0
 22 17  1  0
 33 28  1  0
  1 37  1  0
  1 38  1  0
  1 39  1  0
  2 40  1  0
  3 41  1  0
  3 42  1  0
  5 43  1  0
  7 44  1  0
  8 45  1  0
 12 46  1  0
 16 47  1  0
 16 48  1  0
 16 49  1  0
 18 50  1  0
 19 51  1  0
 21 52  1  0
 22 53  1  0
 23 54  1  0
 23 55  1  0
 24 56  1  0
 24 57  1  0
 25 58  1  0
 26 59  1  0
 26 60  1  0
 27 61  1  6
 29 62  1  0
 30 63  1  0
 31 64  1  0
 32 65  1  0
 33 66  1  0
 34 67  1  0
 35 68  1  0
 35 69  1  0
 35 70  1  0
 36 71  1  0
M  END
>  <Ligand ID>  (1) 
LIG0001511

>  <Ligand>  (1) 
CHEMBL469821

>  <SMILES>  (1) 
CC(Cc1cc(ccc1C(=O)NS(=O)(=O)C)c1ccc(cc1)CCNC[C@@H](c1ccccc1)O)C.Cl

>  <CID>  (1) 
42639963.0

>  <ChEMBL ID>  (1) 
nan

>  <InChiKey>  (1) 
UURQIYHVTCAMOZ-YCBFMBTMSA-N

>  <InChi>  (1) 
InChI=1S/C28H34N2O4S.ClH/c1-20(2)17-25-18-24(13-14-26(25)28(32)30-35(3,33)34)22-11-9-21(10-12-22)15-16-29-19-27(31)23-7-5-4-6-8-23;/h4-14,18,20,27,29,31H,15-17,19H2,1-3H3,(H,30,32);1H/t27-;/m0./s1

>  <IUPAC Name>  (1) 
4-[4-[2-[[(2R)-2-hydroxy-2-phenylethyl]amino]ethyl]phenyl]-2-(2-methylpropyl)-N-methylsulfonylbenzamide;hydrochloride

$$$$
