
     RDKit          3D

 46 49  0  0  0  0  0  0  0  0999 V2000
   -1.9870    5.0558   -2.4572 F   0  0  0  0  0  0  0  0  0  0  0  0
   -1.6759    4.0667   -1.5959 C   0  0  0  0  0  0  0  0  0  0  0  0
   -1.6768    2.7479   -2.0091 C   0  0  0  0  0  0  0  0  0  0  0  0
   -1.3670    1.6978   -1.1718 C   0  0  0  0  0  0  0  0  0  0  0  0
   -1.0331    1.9386    0.1573 C   0  0  0  0  0  0  0  0  0  0  0  0
   -1.0323    3.2711    0.5742 C   0  0  0  0  0  0  0  0  0  0  0  0
   -1.3435    4.3090   -0.2721 C   0  0  0  0  0  0  0  0  0  0  0  0
   -0.7008    0.8205    1.0577 C   0  0  0  0  0  0  0  0  0  0  0  0
   -1.9674    0.0794    1.3856 C   0  0  0  0  0  0  0  0  0  0  0  0
   -1.7940   -1.1537    0.5572 C   0  0  0  0  0  0  0  0  0  0  0  0
   -0.6069   -1.2293    0.0954 N   0  0  0  0  0  0  0  0  0  0  0  0
    0.1954   -0.1579    0.4822 N   0  0  0  0  0  0  0  0  0  0  0  0
    1.6093   -0.0451    0.3415 C   0  0  0  0  0  0  0  0  0  0  0  0
    2.3011    1.0716    0.7645 C   0  0  0  0  0  0  0  0  0  0  0  0
    3.6884    1.0878    0.5827 C   0  0  0  0  0  0  0  0  0  0  0  0
    4.3654    0.0509    0.0099 C   0  0  0  0  0  0  0  0  0  0  0  0
    3.6693   -1.0825   -0.4201 C   0  0  0  0  0  0  0  0  0  0  0  0
    2.3056   -1.0882   -0.2367 C   0  0  0  0  0  0  0  0  0  0  0  0
    6.0954    0.0305   -0.2355 S   0  0  0  0  0  0  0  0  0  0  0  0
    6.6713   -1.3469   -0.0938 O   0  0  0  0  0  0  0  0  0  0  0  0
    6.7692    0.9121    0.8030 O   0  0  0  0  0  0  0  0  0  0  0  0
    6.4568    0.7036   -1.7826 N   0  0  0  0  0  0  0  0  0  0  0  0
   -2.8307   -2.1488    0.2999 C   0  0  0  0  0  0  0  0  0  0  0  0
   -2.5455   -3.2444   -0.4819 C   0  0  0  0  0  0  0  0  0  0  0  0
   -3.5154   -4.2052   -0.7413 C   0  0  0  0  0  0  0  0  0  0  0  0
   -4.7674   -4.0493   -0.2068 C   0  0  0  0  0  0  0  0  0  0  0  0
   -5.0599   -2.9389    0.5867 C   0  0  0  0  0  0  0  0  0  0  0  0
   -4.0974   -1.9970    0.8369 C   0  0  0  0  0  0  0  0  0  0  0  0
   -6.0992   -5.3684   -0.5628 Br  0  0  0  0  0  0  0  0  0  0  0  0
   -1.9367    2.5620   -3.0432 H   0  0  0  0  0  0  0  0  0  0  0  0
   -1.3799    0.6763   -1.5379 H   0  0  0  0  0  0  0  0  0  0  0  0
   -0.7719    3.4604    1.6112 H   0  0  0  0  0  0  0  0  0  0  0  0
   -1.3300    5.3337    0.0971 H   0  0  0  0  0  0  0  0  0  0  0  0
   -0.2101    1.2239    1.9806 H   0  0  0  0  0  0  0  0  0  0  0  0
   -2.8726    0.6505    1.1368 H   0  0  0  0  0  0  0  0  0  0  0  0
   -1.9985   -0.1434    2.4784 H   0  0  0  0  0  0  0  0  0  0  0  0
    1.7865    1.8899    1.2138 H   0  0  0  0  0  0  0  0  0  0  0  0
    4.2723    1.9478    0.9014 H   0  0  0  0  0  0  0  0  0  0  0  0
    4.1943   -1.9228   -0.8810 H   0  0  0  0  0  0  0  0  0  0  0  0
    1.7797   -1.9906   -0.5830 H   0  0  0  0  0  0  0  0  0  0  0  0
    7.5013    0.7466   -1.9084 H   0  0  0  0  0  0  0  0  0  0  0  0
    6.0545    0.1163   -2.5509 H   0  0  0  0  0  0  0  0  0  0  0  0
   -1.5530   -3.3561   -0.8981 H   0  0  0  0  0  0  0  0  0  0  0  0
   -3.2105   -5.0320   -1.3625 H   0  0  0  0  0  0  0  0  0  0  0  0
   -6.0493   -2.8166    1.0085 H   0  0  0  0  0  0  0  0  0  0  0  0
   -4.3034   -1.1334    1.4465 H   0  0  0  0  0  0  0  0  0  0  0  0
  1  2  1  0
  2  3  2  0
  3  4  1  0
  4  5  2  0
  5  6  1  0
  6  7  2  0
  5  8  1  0
  8  9  1  0
  9 10  1  0
 10 11  2  0
 11 12  1  0
 12 13  1  0
 13 14  2  0
 14 15  1  0
 15 16  2  0
 16 17  1  0
 17 18  2  0
 16 19  1  0
 19 20  2  0
 19 21  2  0
 19 22  1  0
 10 23  1  0
 23 24  2  0
 24 25  1  0
 25 26  2  0
 26 27  1  0
 27 28  2  0
 26 29  1  0
  7  2  1  0
 12  8  1  0
 18 13  1  0
 28 23  1  0
  3 30  1  0
  4 31  1  0
  6 32  1  0
  7 33  1  0
  8 34  1  0
  9 35  1  0
  9 36  1  0
 14 37  1  0
 15 38  1  0
 17 39  1  0
 18 40  1  0
 22 41  1  0
 22 42  1  0
 24 43  1  0
 25 44  1  0
 27 45  1  0
 28 46  1  0
M  END
>  <Ligand ID>  (1) 
LIG0001293

>  <Ligand>  (1) 
MLS000570494

>  <SMILES>  (1) 
Fc1ccc(cc1)C1CC(=NN1c1ccc(cc1)S(=O)(=O)N)c1ccc(cc1)Br

>  <CID>  (1) 
2864688.0

>  <ChEMBL ID>  (1) 
nan

>  <InChiKey>  (1) 
DQGIJMOOKDUPSB-UHFFFAOYSA-N

>  <InChi>  (1) 
InChI=1S/C21H17BrFN3O2S/c22-16-5-1-14(2-6-16)20-13-21(15-3-7-17(23)8-4-15)26(25-20)18-9-11-19(12-10-18)29(24,27)28/h1-12,21H,13H2,(H2,24,27,28)

>  <IUPAC Name>  (1) 
4-[5-(4-bromophenyl)-3-(4-fluorophenyl)-3,4-dihydropyrazol-2-yl]benzenesulfonamide

$$$$
