
     RDKit          3D

 36 38  0  0  0  0  0  0  0  0999 V2000
   -1.5281    3.3131   -0.3273 N   0  0  0  0  0  0  0  0  0  0  0  0
   -2.2910    2.1177   -0.4790 C   0  0  0  0  0  0  0  0  0  0  0  0
   -3.6175    2.1683   -0.7203 N   0  0  0  0  0  0  0  0  0  0  0  0
   -4.3232    1.0247   -0.8610 C   0  0  0  0  0  0  0  0  0  0  0  0
   -3.6532   -0.2063   -0.7518 C   0  0  0  0  0  0  0  0  0  0  0  0
   -2.2902   -0.2559   -0.5038 C   0  0  0  0  0  0  0  0  0  0  0  0
   -1.6932    0.9365   -0.3824 N   0  0  0  0  0  0  0  0  0  0  0  0
   -1.6244   -1.5422   -0.3960 C   0  0  0  0  0  0  0  0  0  0  0  0
   -2.3334   -2.7145   -0.5375 C   0  0  0  0  0  0  0  0  0  0  0  0
   -1.7422   -3.9739   -0.4430 C   0  0  0  0  0  0  0  0  0  0  0  0
   -0.3959   -4.0932   -0.1989 C   0  0  0  0  0  0  0  0  0  0  0  0
    0.3193   -2.9256   -0.0563 C   0  0  0  0  0  0  0  0  0  0  0  0
   -0.2680   -1.6620   -0.1501 C   0  0  0  0  0  0  0  0  0  0  0  0
    0.5950   -0.5485    0.0186 N   0  0  0  0  0  0  0  0  0  0  0  0
    2.0291   -0.7972    0.2776 C   0  0  0  0  0  0  0  0  0  0  0  0
    2.7961    0.4473    0.4282 C   0  0  0  0  0  0  0  0  0  0  0  0
    3.7822    0.7962   -0.3179 N   0  0  0  0  0  0  0  0  0  0  0  0
    4.3187    2.0763    0.0955 C   0  0  0  0  0  0  0  0  0  0  0  0
    3.1401    2.6766    0.8200 C   0  0  0  0  0  0  0  0  0  0  0  0
    2.5755    1.4526    1.4075 N   0  0  0  0  0  0  0  0  0  0  0  0
   -0.5883    3.4390   -0.7622 H   0  0  0  0  0  0  0  0  0  0  0  0
   -1.9263    4.1056    0.2476 H   0  0  0  0  0  0  0  0  0  0  0  0
   -5.3950    1.0594   -1.0560 H   0  0  0  0  0  0  0  0  0  0  0  0
   -4.2863   -1.0636   -0.8763 H   0  0  0  0  0  0  0  0  0  0  0  0
   -3.4058   -2.7538   -0.7334 H   0  0  0  0  0  0  0  0  0  0  0  0
   -2.3081   -4.8814   -0.5556 H   0  0  0  0  0  0  0  0  0  0  0  0
    0.0925   -5.0546   -0.1200 H   0  0  0  0  0  0  0  0  0  0  0  0
    1.3870   -3.0494    0.1369 H   0  0  0  0  0  0  0  0  0  0  0  0
    0.3481    0.4396   -0.0164 H   0  0  0  0  0  0  0  0  0  0  0  0
    2.1216   -1.4539    1.1722 H   0  0  0  0  0  0  0  0  0  0  0  0
    2.3759   -1.3871   -0.5952 H   0  0  0  0  0  0  0  0  0  0  0  0
    5.1527    1.8235    0.8007 H   0  0  0  0  0  0  0  0  0  0  0  0
    4.6687    2.6864   -0.7574 H   0  0  0  0  0  0  0  0  0  0  0  0
    3.4170    3.4138    1.5732 H   0  0  0  0  0  0  0  0  0  0  0  0
    2.4371    3.0397    0.0420 H   0  0  0  0  0  0  0  0  0  0  0  0
    2.1139    1.3469    2.3403 H   0  0  0  0  0  0  0  0  0  0  0  0
  1  2  1  0
  2  3  2  0
  3  4  1  0
  4  5  2  0
  5  6  1  0
  6  7  2  0
  6  8  1  0
  8  9  2  0
  9 10  1  0
 10 11  2  0
 11 12  1  0
 12 13  2  0
 13 14  1  0
 14 15  1  0
 15 16  1  0
 16 17  2  0
 17 18  1  0
 18 19  1  0
 19 20  1  0
  7  2  1  0
 13  8  1  0
 20 16  1  0
  1 21  1  0
  1 22  1  0
  4 23  1  0
  5 24  1  0
  9 25  1  0
 10 26  1  0
 11 27  1  0
 12 28  1  0
 14 29  1  0
 15 30  1  0
 15 31  1  0
 18 32  1  0
 18 33  1  0
 19 34  1  0
 19 35  1  0
 20 36  1  0
M  END
>  <Ligand ID>  (1) 
LIG0003181

>  <Ligand>  (1) 
CHEMBL156893

>  <SMILES>  (1) 
Nc1nccc(n1)c1ccccc1NCC1=NCCN1

>  <CID>  (1) 
22493415.0

>  <ChEMBL ID>  (1) 
nan

>  <InChiKey>  (1) 
OAHLECZZVVVHND-UHFFFAOYSA-N

>  <InChi>  (1) 
InChI=1S/C14H16N6/c15-14-18-6-5-12(20-14)10-3-1-2-4-11(10)19-9-13-16-7-8-17-13/h1-6,19H,7-9H2,(H,16,17)(H2,15,18,20)

>  <IUPAC Name>  (1) 
4-[2-(4,5-dihydro-1H-imidazol-2-ylmethylamino)phenyl]pyrimidin-2-amine

$$$$
