
     RDKit          3D

 55 59  0  0  0  0  0  0  0  0999 V2000
    1.9656    4.8490    0.0844 C   0  0  0  0  0  0  0  0  0  0  0  0
    3.3083    4.4858   -0.1147 O   0  0  0  0  0  0  0  0  0  0  0  0
    3.6278    3.1363   -0.2272 C   0  0  0  0  0  0  0  0  0  0  0  0
    4.9487    2.7443   -0.4249 C   0  0  0  0  0  0  0  0  0  0  0  0
    5.3022    1.4289   -0.5402 C   0  0  0  0  0  0  0  0  0  0  0  0
    4.3167    0.4569   -0.4580 C   0  0  0  0  0  0  0  0  0  0  0  0
    2.9923    0.7937   -0.2628 C   0  0  0  0  0  0  0  0  0  0  0  0
    2.6825    2.1324   -0.1520 C   0  0  0  0  0  0  0  0  0  0  0  0
    1.9871   -0.1442   -0.1757 C   0  0  0  0  0  0  0  0  0  0  0  0
    2.3409   -1.4553   -0.2903 N   0  0  0  0  0  0  0  0  0  0  0  0
    3.6196   -1.8101   -0.4803 C   0  0  0  0  0  0  0  0  0  0  0  0
    4.5925   -0.8592   -0.5624 N   0  0  0  0  0  0  0  0  0  0  0  0
    4.0560   -3.2267   -0.6113 C   0  0  0  0  0  0  0  0  0  0  0  0
    3.3205   -4.2748    0.1334 C   0  0  0  0  0  0  0  0  0  0  0  0
    3.1727   -4.2096   -1.3617 C   0  0  0  0  0  0  0  0  0  0  0  0
    0.6205    0.1739    0.0224 N   0  0  0  0  0  0  0  0  0  0  0  0
   -0.1582    0.9849   -0.8987 C   0  0  0  0  0  0  0  0  0  0  0  0
   -1.3750    0.1554   -1.3414 C   0  0  0  0  0  0  0  0  0  0  0  0
   -2.1330   -0.1112   -0.1132 N   0  0  0  0  0  0  0  0  0  0  0  0
   -1.5317   -0.2093    1.1796 C   0  0  0  0  0  0  0  0  0  0  0  0
   -0.0406   -0.3273    1.1868 C   0  0  0  0  0  0  0  0  0  0  0  0
   -3.5423   -0.2863   -0.2895 C   0  0  0  0  0  0  0  0  0  0  0  0
   -4.1211   -0.3987   -1.5446 C   0  0  0  0  0  0  0  0  0  0  0  0
   -5.4734   -0.5822   -1.7379 C   0  0  0  0  0  0  0  0  0  0  0  0
   -6.3286   -0.6641   -0.6712 C   0  0  0  0  0  0  0  0  0  0  0  0
   -5.7862   -0.5564    0.5893 C   0  0  0  0  0  0  0  0  0  0  0  0
   -4.4148   -0.3698    0.7959 C   0  0  0  0  0  0  0  0  0  0  0  0
   -3.9574   -0.2710    2.0928 O   0  0  0  0  0  0  0  0  0  0  0  0
   -4.8590   -0.3586    3.1680 C   0  0  0  0  0  0  0  0  0  0  0  0
    1.9093    5.9528    0.1339 H   0  0  0  0  0  0  0  0  0  0  0  0
    1.5355    4.4610    1.0388 H   0  0  0  0  0  0  0  0  0  0  0  0
    1.4060    4.4863   -0.8032 H   0  0  0  0  0  0  0  0  0  0  0  0
    5.6755    3.5398   -0.4814 H   0  0  0  0  0  0  0  0  0  0  0  0
    6.3347    1.1387   -0.6939 H   0  0  0  0  0  0  0  0  0  0  0  0
    1.6602    2.4471    0.0022 H   0  0  0  0  0  0  0  0  0  0  0  0
    5.1524   -3.4415   -0.7695 H   0  0  0  0  0  0  0  0  0  0  0  0
    2.4545   -3.9307    0.7312 H   0  0  0  0  0  0  0  0  0  0  0  0
    3.9051   -5.1197    0.5828 H   0  0  0  0  0  0  0  0  0  0  0  0
    3.6346   -5.0021   -1.9846 H   0  0  0  0  0  0  0  0  0  0  0  0
    2.2539   -3.7823   -1.7595 H   0  0  0  0  0  0  0  0  0  0  0  0
   -0.6248    1.8329   -0.3182 H   0  0  0  0  0  0  0  0  0  0  0  0
    0.4055    1.3801   -1.7432 H   0  0  0  0  0  0  0  0  0  0  0  0
   -1.0707   -0.7750   -1.8396 H   0  0  0  0  0  0  0  0  0  0  0  0
   -1.9745    0.8451   -2.0054 H   0  0  0  0  0  0  0  0  0  0  0  0
   -1.9069   -1.1648    1.6549 H   0  0  0  0  0  0  0  0  0  0  0  0
   -1.8305    0.6215    1.8569 H   0  0  0  0  0  0  0  0  0  0  0  0
    0.3802    0.2500    2.0620 H   0  0  0  0  0  0  0  0  0  0  0  0
    0.3132   -1.3763    1.3825 H   0  0  0  0  0  0  0  0  0  0  0  0
   -3.5171   -0.3493   -2.4432 H   0  0  0  0  0  0  0  0  0  0  0  0
   -5.9194   -0.6693   -2.7291 H   0  0  0  0  0  0  0  0  0  0  0  0
   -7.3920   -0.8072   -0.7766 H   0  0  0  0  0  0  0  0  0  0  0  0
   -6.4766   -0.6231    1.4347 H   0  0  0  0  0  0  0  0  0  0  0  0
   -5.3330   -1.3628    3.2677 H   0  0  0  0  0  0  0  0  0  0  0  0
   -4.3829   -0.1231    4.1400 H   0  0  0  0  0  0  0  0  0  0  0  0
   -5.7249    0.3450    3.0649 H   0  0  0  0  0  0  0  0  0  0  0  0
  1  2  1  0
  2  3  1  0
  3  4  2  0
  4  5  1  0
  5  6  2  0
  6  7  1  0
  7  8  2  0
  7  9  1  0
  9 10  2  0
 10 11  1  0
 11 12  2  0
 11 13  1  0
 13 14  1  0
 14 15  1  0
  9 16  1  0
 16 17  1  0
 17 18  1  0
 18 19  1  0
 19 20  1  0
 20 21  1  0
 19 22  1  0
 22 23  2  0
 23 24  1  0
 24 25  2  0
 25 26  1  0
 26 27  2  0
 27 28  1  0
 28 29  1  0
  8  3  1  0
 15 13  1  0
 21 16  1  0
 27 22  1  0
 12  6  1  0
  1 30  1  0
  1 31  1  0
  1 32  1  0
  4 33  1  0
  5 34  1  0
  8 35  1  0
 13 36  1  0
 14 37  1  0
 14 38  1  0
 15 39  1  0
 15 40  1  0
 17 41  1  0
 17 42  1  0
 18 43  1  0
 18 44  1  0
 20 45  1  0
 20 46  1  0
 21 47  1  0
 21 48  1  0
 23 49  1  0
 24 50  1  0
 25 51  1  0
 26 52  1  0
 29 53  1  0
 29 54  1  0
 29 55  1  0
M  END
>  <Ligand ID>  (1) 
LIG0004886

>  <Ligand>  (1) 
CHEMBL2431129

>  <SMILES>  (1) 
COc1ccc2c(c1)c(nc(n2)C1CC1)N1CCN(CC1)c1ccccc1OC

>  <CID>  (1) 
56593278.0

>  <ChEMBL ID>  (1) 
nan

>  <InChiKey>  (1) 
PFRUEKPBGILXQJ-UHFFFAOYSA-N

>  <InChi>  (1) 
InChI=1S/C23H26N4O2/c1-28-17-9-10-19-18(15-17)23(25-22(24-19)16-7-8-16)27-13-11-26(12-14-27)20-5-3-4-6-21(20)29-2/h3-6,9-10,15-16H,7-8,11-14H2,1-2H3

>  <IUPAC Name>  (1) 
2-cyclopropyl-6-methoxy-4-[4-(2-methoxyphenyl)piperazin-1-yl]quinazoline

$$$$
