
     RDKit          3D

 41 43  0  0  0  0  0  0  0  0999 V2000
   -3.8268   -0.8506   -2.2360 N   0  0  0  0  0  0  0  0  0  0  0  0
   -2.4113   -1.0224   -2.1555 C   0  0  0  0  0  0  0  0  0  0  0  0
   -1.6818    0.1061   -1.4760 C   0  0  2  0  0  0  0  0  0  0  0  0
   -0.3473   -0.2005   -1.4795 O   0  0  0  0  0  0  0  0  0  0  0  0
    0.0343   -0.9848   -0.3935 C   0  0  0  0  0  0  0  0  0  0  0  0
    1.2491   -1.7967   -0.6533 C   0  0  0  0  0  0  0  0  0  0  0  0
    2.3926   -1.1892   -0.9909 O   0  0  0  0  0  0  0  0  0  0  0  0
    3.3287   -0.3474   -0.5890 C   0  0  0  0  0  0  0  0  0  0  0  0
    4.3742   -0.0685   -1.5015 C   0  0  0  0  0  0  0  0  0  0  0  0
    5.3967    0.7724   -1.2198 C   0  0  0  0  0  0  0  0  0  0  0  0
    5.4548    1.3938   -0.0177 C   0  0  0  0  0  0  0  0  0  0  0  0
    4.4810    1.1753    0.9184 C   0  0  0  0  0  0  0  0  0  0  0  0
    3.4442    0.3142    0.6159 C   0  0  0  0  0  0  0  0  0  0  0  0
    0.0160   -0.1306    0.8296 C   0  0  0  0  0  0  0  0  0  0  0  0
   -1.4244    0.2939    0.9725 C   0  0  0  0  0  0  0  0  0  0  0  0
   -2.2376    0.4067   -0.1582 C   0  0  0  0  0  0  0  0  0  0  0  0
   -3.5300    0.8037    0.0663 C   0  0  0  0  0  0  0  0  0  0  0  0
   -3.9971    1.0753    1.3406 C   0  0  0  0  0  0  0  0  0  0  0  0
   -3.1937    0.9624    2.4474 C   0  0  0  0  0  0  0  0  0  0  0  0
   -1.8896    0.5644    2.2418 C   0  0  0  0  0  0  0  0  0  0  0  0
   -1.0429    0.4386    3.3428 O   0  0  0  0  0  0  0  0  0  0  0  0
   -3.6233    1.2251    3.7405 O   0  0  0  0  0  0  0  0  0  0  0  0
   -4.1704   -0.3346   -3.0621 H   0  0  0  0  0  0  0  0  0  0  0  0
   -4.2877   -1.7786   -2.1136 H   0  0  0  0  0  0  0  0  0  0  0  0
   -2.0572   -1.1441   -3.2232 H   0  0  0  0  0  0  0  0  0  0  0  0
   -2.1651   -2.0042   -1.6901 H   0  0  0  0  0  0  0  0  0  0  0  0
   -1.8179    1.0087   -2.1371 H   0  0  0  0  0  0  0  0  0  0  0  0
   -0.7999   -1.7369   -0.2337 H   0  0  0  0  0  0  0  0  0  0  0  0
    1.3915   -2.4162    0.3040 H   0  0  0  0  0  0  0  0  0  0  0  0
    0.9342   -2.6034   -1.3781 H   0  0  0  0  0  0  0  0  0  0  0  0
    4.3717   -0.5460   -2.4853 H   0  0  0  0  0  0  0  0  0  0  0  0
    6.1816    0.9543   -1.9618 H   0  0  0  0  0  0  0  0  0  0  0  0
    6.2539    2.0712    0.2437 H   0  0  0  0  0  0  0  0  0  0  0  0
    4.5085    1.6675    1.8971 H   0  0  0  0  0  0  0  0  0  0  0  0
    2.7139    0.1577    1.3731 H   0  0  0  0  0  0  0  0  0  0  0  0
    0.5562    0.8260    0.5684 H   0  0  0  0  0  0  0  0  0  0  0  0
    0.3914   -0.6052    1.7300 H   0  0  0  0  0  0  0  0  0  0  0  0
   -4.2146    0.9185   -0.7370 H   0  0  0  0  0  0  0  0  0  0  0  0
   -5.0221    1.3861    1.4834 H   0  0  0  0  0  0  0  0  0  0  0  0
   -0.1024    0.8033    3.3784 H   0  0  0  0  0  0  0  0  0  0  0  0
   -3.6318    0.4348    4.3987 H   0  0  0  0  0  0  0  0  0  0  0  0
  1  2  1  0
  2  3  1  0
  3  4  1  0
  4  5  1  0
  5  6  1  0
  6  7  1  0
  7  8  1  0
  8  9  2  0
  9 10  1  0
 10 11  2  0
 11 12  1  0
 12 13  2  0
  5 14  1  0
 14 15  1  0
 15 16  2  0
 16 17  1  0
 17 18  2  0
 18 19  1  0
 19 20  2  0
 20 21  1  0
 19 22  1  0
 16  3  1  0
 13  8  1  0
 20 15  1  0
  1 23  1  0
  1 24  1  0
  2 25  1  0
  2 26  1  0
  3 27  1  6
  5 28  1  0
  6 29  1  0
  6 30  1  0
  9 31  1  0
 10 32  1  0
 11 33  1  0
 12 34  1  0
 13 35  1  0
 14 36  1  0
 14 37  1  0
 17 38  1  0
 18 39  1  0
 21 40  1  0
 22 41  1  0
M  END
>  <Ligand ID>  (1) 
LIG0002878

>  <Ligand>  (1) 
CHEMBL86576

>  <SMILES>  (1) 
NC[C@@H]1OC(COc2ccccc2)Cc2c1ccc(c2O)O

>  <CID>  (1) 
44320267.0

>  <ChEMBL ID>  (1) 
nan

>  <InChiKey>  (1) 
KOHDNXKBNHHXKQ-INSVYWFGSA-N

>  <InChi>  (1) 
InChI=1S/C17H19NO4/c18-9-16-13-6-7-15(19)17(20)14(13)8-12(22-16)10-21-11-4-2-1-3-5-11/h1-7,12,16,19-20H,8-10,18H2/t12?,16-/m0/s1

>  <IUPAC Name>  (1) 
(1R)-1-(aminomethyl)-3-(phenoxymethyl)-3,4-dihydro-1H-isochromene-5,6-diol

$$$$
