
     RDKit          3D

 59 61  0  0  0  0  0  0  0  0999 V2000
   -2.7111    2.1231    0.0728 O   0  0  0  0  0  0  0  0  0  0  0  0
   -3.6640    1.2974   -0.4457 C   0  0  2  0  0  0  0  0  0  0  0  0
   -4.7544    1.1458    0.6519 C   0  0  0  0  0  0  0  0  0  0  0  0
   -5.7209    0.3242    0.1209 O   0  0  0  0  0  0  0  0  0  0  0  0
   -6.8767   -0.1833    0.6048 C   0  0  0  0  0  0  0  0  0  0  0  0
   -7.6188   -0.9984   -0.2740 C   0  0  0  0  0  0  0  0  0  0  0  0
   -8.8188   -1.5692    0.1254 C   0  0  0  0  0  0  0  0  0  0  0  0
   -9.3144   -1.3532    1.3936 C   0  0  0  0  0  0  0  0  0  0  0  0
   -8.5958   -0.5434    2.2921 C   0  0  0  0  0  0  0  0  0  0  0  0
   -7.4303   -0.0121    1.8454 C   0  0  0  0  0  0  0  0  0  0  0  0
  -10.5110   -1.9077    1.8303 O   0  0  0  0  0  0  0  0  0  0  0  0
   -3.1118   -0.0457   -0.7731 C   0  0  0  0  0  0  0  0  0  0  0  0
   -2.1287   -0.2761   -1.6879 N   0  0  0  0  0  0  0  0  0  0  0  0
   -0.7978    0.0275   -1.7030 C   0  0  0  0  0  0  0  0  0  0  0  0
   -0.2734    1.4184   -1.9464 C   0  0  0  0  0  0  0  0  0  0  0  0
    1.2349    1.2242   -1.8711 C   0  0  0  0  0  0  0  0  0  0  0  0
    1.9217    1.5014   -0.7202 C   0  0  0  0  0  0  0  0  0  0  0  0
    3.2961    1.2321   -0.6476 C   0  0  0  0  0  0  0  0  0  0  0  0
    3.9704    0.6882   -1.7257 C   0  0  0  0  0  0  0  0  0  0  0  0
    3.2748    0.4079   -2.8996 C   0  0  0  0  0  0  0  0  0  0  0  0
    1.9189    0.6905   -2.9265 C   0  0  0  0  0  0  0  0  0  0  0  0
    5.3834    0.3717   -1.6418 N   0  0  0  0  0  0  0  0  0  0  0  0
    5.6907   -0.7355   -0.8604 C   0  0  0  0  0  0  0  0  0  0  0  0
    4.6591   -1.3015   -0.2880 O   0  0  0  0  0  0  0  0  0  0  0  0
    6.9623   -1.3856   -0.5522 C   0  0  0  0  0  0  0  0  0  0  0  0
    7.2765   -0.9781    0.8731 C   0  0  0  0  0  0  0  0  0  0  0  0
    6.7572   -1.7041    1.9473 C   0  0  0  0  0  0  0  0  0  0  0  0
    6.9846   -1.2650    3.2688 C   0  0  0  0  0  0  0  0  0  0  0  0
    7.7325   -0.1036    3.4797 C   0  0  0  0  0  0  0  0  0  0  0  0
    8.2288    0.5804    2.3842 C   0  0  0  0  0  0  0  0  0  0  0  0
    8.0242    0.1809    1.1012 C   0  0  0  0  0  0  0  0  0  0  0  0
    8.7114    1.1159   -0.2290 Cl  0  0  0  0  0  0  0  0  0  0  0  0
   -2.7860    2.2949    1.0361 H   0  0  0  0  0  0  0  0  0  0  0  0
   -4.2045    1.6888   -1.3412 H   0  0  0  0  0  0  0  0  0  0  0  0
   -5.1674    2.1402    0.8710 H   0  0  0  0  0  0  0  0  0  0  0  0
   -4.2743    0.7852    1.5724 H   0  0  0  0  0  0  0  0  0  0  0  0
   -7.2900   -1.2070   -1.2706 H   0  0  0  0  0  0  0  0  0  0  0  0
   -9.3843   -2.2050   -0.5672 H   0  0  0  0  0  0  0  0  0  0  0  0
   -8.9904   -0.3806    3.2969 H   0  0  0  0  0  0  0  0  0  0  0  0
   -6.8717    0.6108    2.5447 H   0  0  0  0  0  0  0  0  0  0  0  0
  -10.5579   -2.8450    2.1577 H   0  0  0  0  0  0  0  0  0  0  0  0
   -4.0377   -0.6729   -1.0912 H   0  0  0  0  0  0  0  0  0  0  0  0
   -2.9020   -0.6097    0.2249 H   0  0  0  0  0  0  0  0  0  0  0  0
   -2.4208   -0.9970   -2.4141 H   0  0  0  0  0  0  0  0  0  0  0  0
   -0.2159   -0.4275   -0.8266 H   0  0  0  0  0  0  0  0  0  0  0  0
   -0.3179   -0.5779   -2.5741 H   0  0  0  0  0  0  0  0  0  0  0  0
   -0.5293    1.7020   -2.9997 H   0  0  0  0  0  0  0  0  0  0  0  0
   -0.5012    2.1629   -1.1975 H   0  0  0  0  0  0  0  0  0  0  0  0
    1.4160    1.9234    0.1192 H   0  0  0  0  0  0  0  0  0  0  0  0
    3.8047    1.4751    0.2971 H   0  0  0  0  0  0  0  0  0  0  0  0
    3.7915   -0.0113   -3.7429 H   0  0  0  0  0  0  0  0  0  0  0  0
    1.4159    0.4596   -3.8675 H   0  0  0  0  0  0  0  0  0  0  0  0
    6.1289    0.8954   -2.1095 H   0  0  0  0  0  0  0  0  0  0  0  0
    6.9376   -2.4898   -0.6647 H   0  0  0  0  0  0  0  0  0  0  0  0
    7.7815   -0.9778   -1.1821 H   0  0  0  0  0  0  0  0  0  0  0  0
    6.1817   -2.6011    1.7446 H   0  0  0  0  0  0  0  0  0  0  0  0
    6.5675   -1.8345    4.1127 H   0  0  0  0  0  0  0  0  0  0  0  0
    7.9201    0.2592    4.4737 H   0  0  0  0  0  0  0  0  0  0  0  0
    8.8063    1.4727    2.5984 H   0  0  0  0  0  0  0  0  0  0  0  0
  1  2  1  0
  2  3  1  0
  3  4  1  0
  4  5  1  0
  5  6  2  0
  6  7  1  0
  7  8  2  0
  8  9  1  0
  9 10  2  0
  8 11  1  0
  2 12  1  0
 12 13  1  0
 13 14  1  0
 14 15  1  0
 15 16  1  0
 16 17  2  0
 17 18  1  0
 18 19  2  0
 19 20  1  0
 20 21  2  0
 19 22  1  0
 22 23  1  0
 23 24  2  0
 23 25  1  0
 25 26  1  0
 26 27  2  0
 27 28  1  0
 28 29  2  0
 29 30  1  0
 30 31  2  0
 31 32  1  0
 10  5  1  0
 21 16  1  0
 31 26  1  0
  1 33  1  0
  2 34  1  6
  3 35  1  0
  3 36  1  0
  6 37  1  0
  7 38  1  0
  9 39  1  0
 10 40  1  0
 11 41  1  0
 12 42  1  0
 12 43  1  0
 13 44  1  0
 14 45  1  0
 14 46  1  0
 15 47  1  0
 15 48  1  0
 17 49  1  0
 18 50  1  0
 20 51  1  0
 21 52  1  0
 22 53  1  0
 25 54  1  0
 25 55  1  0
 27 56  1  0
 28 57  1  0
 29 58  1  0
 30 59  1  0
M  END
>  <Ligand ID>  (1) 
LIG0002577

>  <Ligand>  (1) 
CHEMBL564544

>  <SMILES>  (1) 
O[C@H](COc1ccc(cc1)O)CNCCc1ccc(cc1)NC(=O)Cc1ccccc1Cl

>  <CID>  (1) 
44127050.0

>  <ChEMBL ID>  (1) 
nan

>  <InChiKey>  (1) 
VQBWWRUMDKMYBR-QFIPXVFZSA-N

>  <InChi>  (1) 
InChI=1S/C25H27ClN2O4/c26-24-4-2-1-3-19(24)15-25(31)28-20-7-5-18(6-8-20)13-14-27-16-22(30)17-32-23-11-9-21(29)10-12-23/h1-12,22,27,29-30H,13-17H2,(H,28,31)/t22-/m0/s1

>  <IUPAC Name>  (1) 
2-(2-chlorophenyl)-N-[4-[2-[[(2S)-2-hydroxy-3-(4-hydroxyphenoxy)propyl]amino]ethyl]phenyl]acetamide

$$$$
