
     RDKit          3D

 69 70  0  0  0  0  0  0  0  0999 V2000
    5.4888   -2.6621    0.1844 O   0  0  0  0  0  0  0  0  0  0  0  0
    5.1166   -1.9560    1.3295 C   0  0  1  0  0  0  0  0  0  0  0  0
    6.3038   -1.4597    2.1070 C   0  0  2  0  0  0  0  0  0  0  0  0
    7.1630   -0.5306    1.2484 C   0  0  0  0  0  0  0  0  0  0  0  0
    6.4434    0.5829    0.8459 O   0  0  0  0  0  0  0  0  0  0  0  0
    7.3752    1.6219   -0.1102 P   0  0  0  0  0  0  0  0  0  0  0  0
    6.5225    2.7885   -0.5523 O   0  0  0  0  0  0  0  0  0  0  0  0
    8.6897    2.2401    0.7557 O   0  0  0  0  0  0  0  0  0  0  0  0
    8.0149    0.8131   -1.4716 O   0  0  0  0  0  0  0  0  0  0  0  0
    7.0981   -2.6120    2.5063 N   0  0  0  0  0  0  0  0  0  0  0  0
    4.1806   -0.8537    0.9880 C   0  0  0  0  0  0  0  0  0  0  0  0
    4.1400   -0.4504   -0.2720 C   0  0  0  0  0  0  0  0  0  0  0  0
    3.2519    0.6425   -0.7605 C   0  0  0  0  0  0  0  0  0  0  0  0
    2.3000    0.1697   -1.8175 C   0  0  0  0  0  0  0  0  0  0  0  0
    1.3994    1.2760   -2.3177 C   0  0  0  0  0  0  0  0  0  0  0  0
    0.5575    1.8726   -1.2452 C   0  0  0  0  0  0  0  0  0  0  0  0
   -0.3572    0.8797   -0.5760 C   0  0  0  0  0  0  0  0  0  0  0  0
   -1.3190    0.2326   -1.5155 C   0  0  0  0  0  0  0  0  0  0  0  0
   -2.1918   -0.7373   -0.7729 C   0  0  0  0  0  0  0  0  0  0  0  0
   -3.1440   -1.3665   -1.7632 C   0  0  0  0  0  0  0  0  0  0  0  0
   -4.0672   -2.3581   -1.1161 C   0  0  0  0  0  0  0  0  0  0  0  0
   -4.9246   -1.7688   -0.0504 C   0  0  0  0  0  0  0  0  0  0  0  0
   -5.7424   -0.7237   -0.6344 N   0  0  0  0  0  0  0  0  0  0  0  0
   -6.6629    0.0044    0.1978 C   0  0  0  0  0  0  0  0  0  0  0  0
   -6.7909   -0.2669    1.5477 C   0  0  0  0  0  0  0  0  0  0  0  0
   -7.6840    0.4453    2.3325 C   0  0  0  0  0  0  0  0  0  0  0  0
   -8.4734    1.4530    1.7735 C   0  0  0  0  0  0  0  0  0  0  0  0
   -8.3556    1.7289    0.4443 C   0  0  0  0  0  0  0  0  0  0  0  0
   -7.4661    1.0099   -0.3056 C   0  0  0  0  0  0  0  0  0  0  0  0
   -7.5317    1.4611   -1.5695 N   0  0  0  0  0  0  0  0  0  0  0  0
   -8.4182    2.4078   -1.5847 O   0  0  0  0  0  0  0  0  0  0  0  0
   -8.9338    2.6003   -0.4070 N   0  0  0  0  0  0  0  0  0  0  0  0
   -9.3978    2.2024    2.5450 N   0  0  0  0  0  0  0  0  0  0  0  0
   -9.9293    1.7478    3.5605 O   0  0  0  0  0  0  0  0  0  0  0  0
   -9.7174    3.4884    2.1483 O   0  0  0  0  0  0  0  0  0  0  0  0
    6.4525   -2.8375    0.2152 H   0  0  0  0  0  0  0  0  0  0  0  0
    4.5851   -2.6742    1.9877 H   0  0  0  0  0  0  0  0  0  0  0  0
    5.9174   -0.8809    2.9599 H   0  0  0  0  0  0  0  0  0  0  0  0
    8.0721   -0.2168    1.7969 H   0  0  0  0  0  0  0  0  0  0  0  0
    7.5295   -1.1038    0.3567 H   0  0  0  0  0  0  0  0  0  0  0  0
    8.5630    3.1883    0.9764 H   0  0  0  0  0  0  0  0  0  0  0  0
    8.8524    0.3580   -1.1401 H   0  0  0  0  0  0  0  0  0  0  0  0
    7.4648   -2.4155    3.4644 H   0  0  0  0  0  0  0  0  0  0  0  0
    7.9269   -2.6594    1.8729 H   0  0  0  0  0  0  0  0  0  0  0  0
    3.5440   -0.3799    1.7223 H   0  0  0  0  0  0  0  0  0  0  0  0
    4.7761   -0.9199   -1.0197 H   0  0  0  0  0  0  0  0  0  0  0  0
    3.9022    1.4187   -1.2051 H   0  0  0  0  0  0  0  0  0  0  0  0
    2.7183    1.1110    0.0767 H   0  0  0  0  0  0  0  0  0  0  0  0
    1.6858   -0.6687   -1.4284 H   0  0  0  0  0  0  0  0  0  0  0  0
    2.8691   -0.2667   -2.6702 H   0  0  0  0  0  0  0  0  0  0  0  0
    0.8597    0.9733   -3.2138 H   0  0  0  0  0  0  0  0  0  0  0  0
    2.1085    2.0853   -2.6621 H   0  0  0  0  0  0  0  0  0  0  0  0
   -0.0624    2.7100   -1.6481 H   0  0  0  0  0  0  0  0  0  0  0  0
    1.2016    2.3418   -0.4762 H   0  0  0  0  0  0  0  0  0  0  0  0
    0.2497    0.1038   -0.0543 H   0  0  0  0  0  0  0  0  0  0  0  0
   -0.9420    1.3848    0.2191 H   0  0  0  0  0  0  0  0  0  0  0  0
   -1.9768    0.9600   -1.9989 H   0  0  0  0  0  0  0  0  0  0  0  0
   -0.7189   -0.3623   -2.2525 H   0  0  0  0  0  0  0  0  0  0  0  0
   -2.8026   -0.1704   -0.0216 H   0  0  0  0  0  0  0  0  0  0  0  0
   -1.6227   -1.4960   -0.2099 H   0  0  0  0  0  0  0  0  0  0  0  0
   -2.5752   -1.8023   -2.6092 H   0  0  0  0  0  0  0  0  0  0  0  0
   -3.7668   -0.5679   -2.2138 H   0  0  0  0  0  0  0  0  0  0  0  0
   -4.6247   -2.9081   -1.8715 H   0  0  0  0  0  0  0  0  0  0  0  0
   -3.3963   -3.1070   -0.6108 H   0  0  0  0  0  0  0  0  0  0  0  0
   -4.3756   -1.3492    0.7939 H   0  0  0  0  0  0  0  0  0  0  0  0
   -5.6265   -2.5515    0.3050 H   0  0  0  0  0  0  0  0  0  0  0  0
   -5.7133   -0.4527   -1.6406 H   0  0  0  0  0  0  0  0  0  0  0  0
   -6.1900   -1.0430    2.0030 H   0  0  0  0  0  0  0  0  0  0  0  0
   -7.8229    0.2756    3.3835 H   0  0  0  0  0  0  0  0  0  0  0  0
  1  2  1  0
  2  3  1  0
  3  4  1  0
  4  5  1  0
  5  6  1  0
  6  7  2  0
  6  8  1  0
  6  9  1  0
  3 10  1  0
  2 11  1  0
 11 12  2  0
 12 13  1  0
 13 14  1  0
 14 15  1  0
 15 16  1  0
 16 17  1  0
 17 18  1  0
 18 19  1  0
 19 20  1  0
 20 21  1  0
 21 22  1  0
 22 23  1  0
 23 24  1  0
 24 25  2  0
 25 26  1  0
 26 27  2  0
 27 28  1  0
 28 29  1  0
 29 30  2  0
 30 31  1  0
 31 32  1  0
 27 33  1  0
 33 34  2  0
 33 35  1  0
 29 24  1  0
 32 28  2  0
  1 36  1  0
  2 37  1  1
  3 38  1  1
  4 39  1  0
  4 40  1  0
  8 41  1  0
  9 42  1  0
 10 43  1  0
 10 44  1  0
 11 45  1  0
 12 46  1  0
 13 47  1  0
 13 48  1  0
 14 49  1  0
 14 50  1  0
 15 51  1  0
 15 52  1  0
 16 53  1  0
 16 54  1  0
 17 55  1  0
 17 56  1  0
 18 57  1  0
 18 58  1  0
 19 59  1  0
 19 60  1  0
 20 61  1  0
 20 62  1  0
 21 63  1  0
 21 64  1  0
 22 65  1  0
 22 66  1  0
 23 67  1  0
 25 68  1  0
 26 69  1  0
M  CHG  2  33   1  35  -1
M  END
>  <Ligand ID>  (1) 
LIG0002457

>  <Ligand>  (1) 
CHEMBL199754

>  <SMILES>  (1) 
O[C@@H]([C@H](COP(=O)(O)O)N)/C=C/CCCCCCCCCCNc1ccc(c2c1non2)[N+](=O)[O-]

>  <CID>  (1) 
44406009.0

>  <ChEMBL ID>  (1) 
nan

>  <InChiKey>  (1) 
LYPZBCWBZNVKMO-XABOCNADSA-N

>  <InChi>  (1) 
InChI=1S/C21H34N5O8P/c22-16(15-33-35(30,31)32)19(27)11-9-7-5-3-1-2-4-6-8-10-14-23-17-12-13-18(26(28)29)21-20(17)24-34-25-21/h9,11-13,16,19,23,27H,1-8,10,14-15,22H2,(H2,30,31,32)/b11-9+/t16-,19+/m0/s1

>  <IUPAC Name>  (1) 
[(E,2S,3R)-2-amino-3-hydroxy-15-[(4-nitro-2,1,3-benzoxadiazol-7-yl)amino]pentadec-4-enyl] dihydrogen phosphate

$$$$
