
     RDKit          3D

 26 26  0  0  0  0  0  0  0  0999 V2000
   -6.1465   -0.6568   -0.9248 O   0  0  0  0  0  0  0  0  0  0  0  0
   -5.0920   -0.7938   -0.0253 C   0  0  0  0  0  0  0  0  0  0  0  0
   -5.4031   -1.2041    1.1299 O   0  0  0  0  0  0  0  0  0  0  0  0
   -3.7076   -0.4829   -0.3909 C   0  0  0  0  0  0  0  0  0  0  0  0
   -2.7141   -0.6099    0.4502 C   0  0  0  0  0  0  0  0  0  0  0  0
   -1.3236   -0.3188    0.1497 C   0  0  0  0  0  0  0  0  0  0  0  0
   -0.3403   -0.4910    1.1285 C   0  0  0  0  0  0  0  0  0  0  0  0
    0.9881   -0.2287    0.8915 C   0  0  0  0  0  0  0  0  0  0  0  0
    1.4024    0.2190   -0.3357 C   0  0  0  0  0  0  0  0  0  0  0  0
    0.4316    0.3897   -1.3043 C   0  0  0  0  0  0  0  0  0  0  0  0
   -0.9130    0.1244   -1.0646 C   0  0  0  0  0  0  0  0  0  0  0  0
    2.7943    0.5132   -0.6450 C   0  0  0  0  0  0  0  0  0  0  0  0
    3.7735    0.3790    0.2123 C   0  0  0  0  0  0  0  0  0  0  0  0
    5.1511    0.6996   -0.1868 C   0  0  0  0  0  0  0  0  0  0  0  0
    6.1208    0.5843    0.6068 O   0  0  0  0  0  0  0  0  0  0  0  0
    5.4063    1.1502   -1.4935 O   0  0  0  0  0  0  0  0  0  0  0  0
   -7.0960   -0.3896   -0.6345 H   0  0  0  0  0  0  0  0  0  0  0  0
   -3.5140   -0.1418   -1.3797 H   0  0  0  0  0  0  0  0  0  0  0  0
   -2.9746   -0.9661    1.4570 H   0  0  0  0  0  0  0  0  0  0  0  0
   -0.6688   -0.8465    2.1030 H   0  0  0  0  0  0  0  0  0  0  0  0
    1.6766   -0.3846    1.6880 H   0  0  0  0  0  0  0  0  0  0  0  0
    0.7553    0.7407   -2.2668 H   0  0  0  0  0  0  0  0  0  0  0  0
   -1.5841    0.2851   -1.8689 H   0  0  0  0  0  0  0  0  0  0  0  0
    3.0550    0.8654   -1.6396 H   0  0  0  0  0  0  0  0  0  0  0  0
    3.5982    0.0408    1.2005 H   0  0  0  0  0  0  0  0  0  0  0  0
    6.3243    1.5230   -1.6989 H   0  0  0  0  0  0  0  0  0  0  0  0
  1  2  1  0
  2  3  2  0
  2  4  1  0
  4  5  2  0
  5  6  1  0
  6  7  2  0
  7  8  1  0
  8  9  2  0
  9 10  1  0
 10 11  2  0
  9 12  1  0
 12 13  2  0
 13 14  1  0
 14 15  2  0
 14 16  1  0
 11  6  1  0
  1 17  1  0
  4 18  1  0
  5 19  1  0
  7 20  1  0
  8 21  1  0
 10 22  1  0
 11 23  1  0
 12 24  1  0
 13 25  1  0
 16 26  1  0
M  END
>  <Ligand ID>  (1) 
LIG0005056

>  <Ligand>  (1) 
1,4-Phenylenediacrylic acid

>  <SMILES>  (1) 
OC(=O)/C=C/c1ccc(cc1)/C=C/C(=O)O

>  <CID>  (1) 
759280.0

>  <ChEMBL ID>  (1) 
nan

>  <InChiKey>  (1) 
AAFXQFIGKBLKMC-KQQUZDAGSA-N

>  <InChi>  (1) 
InChI=1S/C12H10O4/c13-11(14)7-5-9-1-2-10(4-3-9)6-8-12(15)16/h1-8H,(H,13,14)(H,15,16)/b7-5+,8-6+

>  <IUPAC Name>  (1) 
(E)-3-[4-[(E)-2-carboxyethenyl]phenyl]prop-2-enoic acid

$$$$
