
     RDKit          3D

 33 33  0  0  0  0  0  0  0  0999 V2000
    2.6228    0.7488    1.8624 O   0  0  0  0  0  0  0  0  0  0  0  0
    3.1056    0.5215    0.7414 C   0  0  0  0  0  0  0  0  0  0  0  0
    4.2764    1.2446    0.1347 C   0  0  0  0  0  0  0  0  0  0  0  0
    4.8256    0.1117   -0.7365 C   0  0  0  0  0  0  0  0  0  0  0  0
    3.5194   -0.3574   -1.3608 C   0  0  0  0  0  0  0  0  0  0  0  0
    2.6482   -0.4718   -0.1998 N   0  0  0  0  0  0  0  0  0  0  0  0
    1.5391   -1.3667    0.0333 C   0  0  0  0  0  0  0  0  0  0  0  0
    0.2731   -0.7940   -0.4263 C   0  0  0  0  0  0  0  0  0  0  0  0
   -0.7868   -0.3314   -0.7935 C   0  0  0  0  0  0  0  0  0  0  0  0
   -2.0784    0.2301   -1.2306 C   0  0  0  0  0  0  0  0  0  0  0  0
   -3.0586    0.0614   -0.1630 N   0  0  0  0  0  0  0  0  0  0  0  0
   -4.4133    0.1178   -0.6972 C   0  0  0  0  0  0  0  0  0  0  0  0
   -2.8518   -1.1170    0.6273 C   0  0  0  0  0  0  0  0  0  0  0  0
   -2.9347    1.2306    0.7047 C   0  0  0  0  0  0  0  0  0  0  0  0
    3.8758    1.9980   -0.5650 H   0  0  0  0  0  0  0  0  0  0  0  0
    4.9798    1.6160    0.8743 H   0  0  0  0  0  0  0  0  0  0  0  0
    5.5745    0.4329   -1.4571 H   0  0  0  0  0  0  0  0  0  0  0  0
    5.1883   -0.6620   -0.0407 H   0  0  0  0  0  0  0  0  0  0  0  0
    3.6147   -1.3709   -1.7967 H   0  0  0  0  0  0  0  0  0  0  0  0
    3.0944    0.3989   -2.0267 H   0  0  0  0  0  0  0  0  0  0  0  0
    1.4895   -1.6742    1.1092 H   0  0  0  0  0  0  0  0  0  0  0  0
    1.7444   -2.3322   -0.5049 H   0  0  0  0  0  0  0  0  0  0  0  0
   -2.4378   -0.2281   -2.1718 H   0  0  0  0  0  0  0  0  0  0  0  0
   -1.9794    1.3084   -1.4177 H   0  0  0  0  0  0  0  0  0  0  0  0
   -4.4510   -0.0348   -1.7887 H   0  0  0  0  0  0  0  0  0  0  0  0
   -4.9198    1.0780   -0.5016 H   0  0  0  0  0  0  0  0  0  0  0  0
   -5.0424   -0.6554   -0.1658 H   0  0  0  0  0  0  0  0  0  0  0  0
   -1.8207   -1.4668    0.6861 H   0  0  0  0  0  0  0  0  0  0  0  0
   -3.1497   -0.8780    1.6860 H   0  0  0  0  0  0  0  0  0  0  0  0
   -3.5255   -1.9056    0.2161 H   0  0  0  0  0  0  0  0  0  0  0  0
   -3.7315    1.1048    1.4884 H   0  0  0  0  0  0  0  0  0  0  0  0
   -1.9476    1.3418    1.1581 H   0  0  0  0  0  0  0  0  0  0  0  0
   -3.2425    2.1010    0.0594 H   0  0  0  0  0  0  0  0  0  0  0  0
  1  2  2  0
  2  3  1  0
  3  4  1  0
  4  5  1  0
  5  6  1  0
  6  7  1  0
  7  8  1  0
  8  9  3  0
  9 10  1  0
 10 11  1  0
 11 12  1  0
 11 13  1  0
 11 14  1  0
  6  2  1  0
  3 15  1  0
  3 16  1  0
  4 17  1  0
  4 18  1  0
  5 19  1  0
  5 20  1  0
  7 21  1  0
  7 22  1  0
 10 23  1  0
 10 24  1  0
 12 25  1  0
 12 26  1  0
 12 27  1  0
 13 28  1  0
 13 29  1  0
 13 30  1  0
 14 31  1  0
 14 32  1  0
 14 33  1  0
M  CHG  1  11   1
M  END
>  <Ligand ID>  (1) 
LIG0001175

>  <Ligand>  (1) 
oxotremorine-M

>  <SMILES>  (1) 
O=C1CCCN1CC#CC[N+](C)(C)C

>  <CID>  (1) 
4629.0

>  <ChEMBL ID>  (1) 
nan

>  <InChiKey>  (1) 
CANZROMYQDHYHR-UHFFFAOYSA-N

>  <InChi>  (1) 
InChI=1S/C11H19N2O/c1-13(2,3)10-5-4-8-12-9-6-7-11(12)14/h6-10H2,1-3H3/q+1

>  <IUPAC Name>  (1) 
trimethyl-[4-(2-oxopyrrolidin-1-yl)but-2-ynyl]azanium

$$$$
