
     RDKit          3D

 29 31  0  0  0  0  0  0  0  0999 V2000
    3.6553   -1.4923   -0.5560 C   0  0  0  0  0  0  0  0  0  0  0  0
    2.5382   -0.5002   -0.4014 C   0  0  0  0  0  0  0  0  0  0  0  0
    1.2154   -0.8899   -0.4221 C   0  0  0  0  0  0  0  0  0  0  0  0
    0.2038    0.0496   -0.2767 C   0  0  0  0  0  0  0  0  0  0  0  0
   -1.1706   -0.3801   -0.3222 C   0  0  1  0  0  0  0  0  0  0  0  0
   -1.5983   -1.6983    0.1064 C   0  0  0  0  0  0  0  0  0  0  0  0
   -2.8702   -1.5042    0.8166 N   0  0  0  0  0  0  0  0  0  0  0  0
   -3.2766   -0.1140    0.5365 C   0  0  0  0  0  0  0  0  0  0  0  0
   -1.9545    0.5413    0.6335 C   0  0  2  0  0  0  0  0  0  0  0  0
   -1.8085    1.8463    0.0505 N   0  0  0  0  0  0  0  0  0  0  0  0
   -0.4556    2.3750    0.0653 C   0  0  0  0  0  0  0  0  0  0  0  0
   -0.2286    3.5982    0.2193 O   0  0  0  0  0  0  0  0  0  0  0  0
    0.5931    1.3698   -0.1129 C   0  0  0  0  0  0  0  0  0  0  0  0
    1.9176    1.7529   -0.0934 C   0  0  0  0  0  0  0  0  0  0  0  0
    2.9244    0.8194   -0.2383 C   0  0  0  0  0  0  0  0  0  0  0  0
    2.2795    3.4625    0.1211 Cl  0  0  0  0  0  0  0  0  0  0  0  0
    4.3268   -1.3784    0.3255 H   0  0  0  0  0  0  0  0  0  0  0  0
    4.2295   -1.2163   -1.4453 H   0  0  0  0  0  0  0  0  0  0  0  0
    3.2659   -2.5108   -0.6171 H   0  0  0  0  0  0  0  0  0  0  0  0
    1.0013   -1.9353   -0.5534 H   0  0  0  0  0  0  0  0  0  0  0  0
   -1.5778   -0.1250   -1.3445 H   0  0  0  0  0  0  0  0  0  0  0  0
   -0.9054   -2.3599    0.6271 H   0  0  0  0  0  0  0  0  0  0  0  0
   -1.9149   -2.2881   -0.8051 H   0  0  0  0  0  0  0  0  0  0  0  0
   -2.5910   -1.4687    1.8428 H   0  0  0  0  0  0  0  0  0  0  0  0
   -3.6478   -0.1409   -0.4990 H   0  0  0  0  0  0  0  0  0  0  0  0
   -4.0024    0.1910    1.2869 H   0  0  0  0  0  0  0  0  0  0  0  0
   -1.5228    0.4218    1.6354 H   0  0  0  0  0  0  0  0  0  0  0  0
   -2.5619    2.4209   -0.3614 H   0  0  0  0  0  0  0  0  0  0  0  0
    3.9363    1.1536   -0.2181 H   0  0  0  0  0  0  0  0  0  0  0  0
  1  2  1  0
  2  3  2  0
  3  4  1  0
  4  5  1  0
  5  6  1  0
  6  7  1  0
  7  8  1  0
  8  9  1  0
  9 10  1  0
 10 11  1  0
 11 12  2  0
 11 13  1  0
 13 14  1  0
 14 15  2  0
 14 16  1  0
 15  2  1  0
 13  4  2  0
  9  5  1  0
  1 17  1  0
  1 18  1  0
  1 19  1  0
  3 20  1  0
  5 21  1  6
  6 22  1  0
  6 23  1  0
  7 24  1  0
  8 25  1  0
  8 26  1  0
  9 27  1  1
 10 28  1  0
 15 29  1  0
M  END
>  <Ligand ID>  (1) 
LIG0003737

>  <Ligand>  (1) 
CHEMBL2337496

>  <SMILES>  (1) 
Cc1cc2[C@H]3CNC[C@@H]3NC(=O)c2c(c1)Cl

>  <CID>  (1) 
11666237.0

>  <ChEMBL ID>  (1) 
nan

>  <InChiKey>  (1) 
ADPWZPGYQIBHOO-SCZZXKLOSA-N

>  <InChi>  (1) 
InChI=1S/C12H13ClN2O/c1-6-2-7-8-4-14-5-10(8)15-12(16)11(7)9(13)3-6/h2-3,8,10,14H,4-5H2,1H3,(H,15,16)/t8-,10+/m1/s1

>  <IUPAC Name>  (1) 
(3aR,9bS)-6-chloro-8-methyl-1,2,3,3a,4,9b-hexahydropyrrolo[3,4-c]isoquinolin-5-one

$$$$
