
     RDKit          3D

 61 63  0  0  0  0  0  0  0  0999 V2000
   -5.5378    1.1911   -3.3566 C   0  0  0  0  0  0  0  0  0  0  0  0
   -6.1765    1.3817   -1.9446 C   0  0  0  0  0  0  0  0  0  0  0  0
   -5.7343    0.4984   -1.1408 O   0  0  0  0  0  0  0  0  0  0  0  0
   -5.2777   -0.4145   -0.3102 C   0  0  0  0  0  0  0  0  0  0  0  0
   -3.9597   -0.3113    0.1451 C   0  0  0  0  0  0  0  0  0  0  0  0
   -3.3993   -1.2176    1.0108 C   0  0  0  0  0  0  0  0  0  0  0  0
   -4.1979   -2.2583    1.4269 C   0  0  0  0  0  0  0  0  0  0  0  0
   -5.4937   -2.3867    0.9981 C   0  0  0  0  0  0  0  0  0  0  0  0
   -6.0561   -1.4646    0.1205 C   0  0  0  0  0  0  0  0  0  0  0  0
   -7.4268   -1.6906   -0.2730 C   0  0  0  0  0  0  0  0  0  0  0  0
   -8.0820   -0.9604   -1.0581 O   0  0  0  0  0  0  0  0  0  0  0  0
   -8.1404   -2.7983    0.2278 O   0  0  0  0  0  0  0  0  0  0  0  0
   -2.0320   -1.1306    1.5084 C   0  0  0  0  0  0  0  0  0  0  0  0
   -1.3523   -2.3174    1.7929 C   0  0  0  0  0  0  0  0  0  0  0  0
   -0.0553   -2.2729    2.2742 C   0  0  0  0  0  0  0  0  0  0  0  0
    0.5902   -1.0571    2.4819 C   0  0  0  0  0  0  0  0  0  0  0  0
   -0.0808    0.1386    2.2001 C   0  0  0  0  0  0  0  0  0  0  0  0
   -1.3751    0.0638    1.7207 C   0  0  0  0  0  0  0  0  0  0  0  0
    1.9573   -1.0648    2.9906 C   0  0  0  0  0  0  0  0  0  0  0  0
    3.0477   -1.0632    1.9853 C   0  0  0  0  0  0  0  0  0  0  0  0
    2.9068    0.1440    1.1938 N   0  0  0  0  0  0  0  0  0  0  0  0
    3.9385    0.2800    0.1835 C   0  0  0  0  0  0  0  0  0  0  0  0
    5.2944    0.5186    0.7825 C   0  0  1  0  0  0  0  0  0  0  0  0
    6.2655    0.7477   -0.3042 C   0  0  0  0  0  0  0  0  0  0  0  0
    6.0084    0.4501   -1.6083 C   0  0  0  0  0  0  0  0  0  0  0  0
    6.9908    0.7044   -2.5576 C   0  0  0  0  0  0  0  0  0  0  0  0
    8.2027    1.2483   -2.1831 C   0  0  0  0  0  0  0  0  0  0  0  0
    8.4505    1.5421   -0.8787 N   0  0  0  0  0  0  0  0  0  0  0  0
    7.4882    1.2922    0.0464 C   0  0  0  0  0  0  0  0  0  0  0  0
    9.2401    1.5281   -3.1150 N   0  0  0  0  0  0  0  0  0  0  0  0
    5.2905    1.6914    1.5547 O   0  0  0  0  0  0  0  0  0  0  0  0
   -5.8476    2.8395   -1.5642 C   0  0  0  0  0  0  0  0  0  0  0  0
   -6.1396    1.8275   -4.0402 H   0  0  0  0  0  0  0  0  0  0  0  0
   -4.4825    1.5189   -3.2737 H   0  0  0  0  0  0  0  0  0  0  0  0
   -5.6233    0.1058   -3.5580 H   0  0  0  0  0  0  0  0  0  0  0  0
   -7.2972    1.3318   -2.1617 H   0  0  0  0  0  0  0  0  0  0  0  0
   -3.3269    0.5131   -0.1832 H   0  0  0  0  0  0  0  0  0  0  0  0
   -3.7834   -2.9846    2.1075 H   0  0  0  0  0  0  0  0  0  0  0  0
   -6.0812   -3.2352    1.3628 H   0  0  0  0  0  0  0  0  0  0  0  0
   -8.9518   -3.1535   -0.2870 H   0  0  0  0  0  0  0  0  0  0  0  0
   -1.7982   -3.2810    1.6525 H   0  0  0  0  0  0  0  0  0  0  0  0
    0.4556   -3.2044    2.4895 H   0  0  0  0  0  0  0  0  0  0  0  0
    0.4148    1.1087    2.3585 H   0  0  0  0  0  0  0  0  0  0  0  0
   -1.8839    1.0149    1.5062 H   0  0  0  0  0  0  0  0  0  0  0  0
    2.1471   -1.9129    3.7112 H   0  0  0  0  0  0  0  0  0  0  0  0
    2.0946   -0.1373    3.6230 H   0  0  0  0  0  0  0  0  0  0  0  0
    4.0059   -0.9617    2.5361 H   0  0  0  0  0  0  0  0  0  0  0  0
    3.1236   -1.9759    1.3793 H   0  0  0  0  0  0  0  0  0  0  0  0
    1.9855    0.0940    0.7123 H   0  0  0  0  0  0  0  0  0  0  0  0
    3.9519   -0.6619   -0.3897 H   0  0  0  0  0  0  0  0  0  0  0  0
    3.6741    1.1619   -0.4328 H   0  0  0  0  0  0  0  0  0  0  0  0
    5.6447   -0.3566    1.3666 H   0  0  0  0  0  0  0  0  0  0  0  0
    5.0819    0.0303   -1.9275 H   0  0  0  0  0  0  0  0  0  0  0  0
    6.7998    0.4743   -3.5931 H   0  0  0  0  0  0  0  0  0  0  0  0
    7.7543    1.5503    1.0663 H   0  0  0  0  0  0  0  0  0  0  0  0
   10.1533    1.0058   -3.1157 H   0  0  0  0  0  0  0  0  0  0  0  0
    9.0639    2.2864   -3.8166 H   0  0  0  0  0  0  0  0  0  0  0  0
    4.9282    2.4016    0.9603 H   0  0  0  0  0  0  0  0  0  0  0  0
   -6.7218    3.2457   -1.0237 H   0  0  0  0  0  0  0  0  0  0  0  0
   -5.6639    3.4265   -2.4743 H   0  0  0  0  0  0  0  0  0  0  0  0
   -4.9718    2.7946   -0.9047 H   0  0  0  0  0  0  0  0  0  0  0  0
  1  2  1  0
  2  3  1  0
  3  4  1  0
  4  5  2  0
  5  6  1  0
  6  7  2  0
  7  8  1  0
  8  9  2  0
  9 10  1  0
 10 11  2  0
 10 12  1  0
  6 13  1  0
 13 14  2  0
 14 15  1  0
 15 16  2  0
 16 17  1  0
 17 18  2  0
 16 19  1  0
 19 20  1  0
 20 21  1  0
 21 22  1  0
 22 23  1  0
 23 24  1  0
 24 25  2  0
 25 26  1  0
 26 27  2  0
 27 28  1  0
 28 29  2  0
 27 30  1  0
 23 31  1  0
  2 32  1  0
  9  4  1  0
 18 13  1  0
 29 24  1  0
  1 33  1  0
  1 34  1  0
  1 35  1  0
  2 36  1  0
  5 37  1  0
  7 38  1  0
  8 39  1  0
 12 40  1  0
 14 41  1  0
 15 42  1  0
 17 43  1  0
 18 44  1  0
 19 45  1  0
 19 46  1  0
 20 47  1  0
 20 48  1  0
 21 49  1  0
 22 50  1  0
 22 51  1  0
 23 52  1  1
 25 53  1  0
 26 54  1  0
 29 55  1  0
 30 56  1  0
 30 57  1  0
 31 58  1  0
 32 59  1  0
 32 60  1  0
 32 61  1  0
M  END
>  <Ligand ID>  (1) 
LIG0003500

>  <Ligand>  (1) 
CHEMBL488223

>  <SMILES>  (1) 
CC(Oc1cc(ccc1C(=O)O)c1ccc(cc1)CCNC[C@@H](c1ccc(nc1)N)O)C

>  <CID>  (1) 
24895261.0

>  <ChEMBL ID>  (1) 
nan

>  <InChiKey>  (1) 
XWLOUPQGKQPWSU-QFIPXVFZSA-N

>  <InChi>  (1) 
InChI=1S/C25H29N3O4/c1-16(2)32-23-13-19(7-9-21(23)25(30)31)18-5-3-17(4-6-18)11-12-27-15-22(29)20-8-10-24(26)28-14-20/h3-10,13-14,16,22,27,29H,11-12,15H2,1-2H3,(H2,26,28)(H,30,31)/t22-/m0/s1

>  <IUPAC Name>  (1) 
4-[4-[2-[[(2R)-2-(6-aminopyridin-3-yl)-2-hydroxyethyl]amino]ethyl]phenyl]-2-propan-2-yloxybenzoic acid

$$$$
