
     RDKit          3D

 37 37  0  0  0  0  0  0  0  0999 V2000
    5.3636   -0.1837    0.7591 C   0  0  0  0  0  0  0  0  0  0  0  0
    4.1845    0.6493    0.3456 C   0  0  0  0  0  0  0  0  0  0  0  0
    2.9595   -0.2041    0.3592 C   0  0  0  0  0  0  0  0  0  0  0  0
    3.0516   -1.4066    0.6848 O   0  0  0  0  0  0  0  0  0  0  0  0
    1.6762    0.3811   -0.0080 C   0  0  0  0  0  0  0  0  0  0  0  0
    0.6026   -0.3695    0.0045 C   0  0  0  0  0  0  0  0  0  0  0  0
   -0.6870    0.2524   -0.3732 C   0  0  0  0  0  0  0  0  0  0  0  0
   -1.3173   -0.3838   -1.5581 C   0  0  0  0  0  0  0  0  0  0  0  0
   -2.5623   -0.0480   -1.8431 C   0  0  0  0  0  0  0  0  0  0  0  0
   -3.3491    0.9197   -1.0482 C   0  0  0  0  0  0  0  0  0  0  0  0
   -2.8059    1.1991    0.3121 C   0  0  0  0  0  0  0  0  0  0  0  0
   -1.7297    0.1980    0.7194 C   0  0  0  0  0  0  0  0  0  0  0  0
   -2.2750   -1.1793    0.9069 C   0  0  0  0  0  0  0  0  0  0  0  0
   -1.1917    0.6774    2.0497 C   0  0  0  0  0  0  0  0  0  0  0  0
   -0.5149   -1.3557   -2.3495 C   0  0  0  0  0  0  0  0  0  0  0  0
    5.9926    0.3252    1.5199 H   0  0  0  0  0  0  0  0  0  0  0  0
    6.0107   -0.3322   -0.1457 H   0  0  0  0  0  0  0  0  0  0  0  0
    5.0374   -1.1543    1.1687 H   0  0  0  0  0  0  0  0  0  0  0  0
    4.0064    1.4468    1.1245 H   0  0  0  0  0  0  0  0  0  0  0  0
    4.3250    1.1629   -0.6113 H   0  0  0  0  0  0  0  0  0  0  0  0
    1.6054    1.4163   -0.2869 H   0  0  0  0  0  0  0  0  0  0  0  0
    0.5790   -1.4179    0.2709 H   0  0  0  0  0  0  0  0  0  0  0  0
   -0.5796    1.3263   -0.6297 H   0  0  0  0  0  0  0  0  0  0  0  0
   -3.0490   -0.4971   -2.7037 H   0  0  0  0  0  0  0  0  0  0  0  0
   -3.4600    1.8672   -1.6171 H   0  0  0  0  0  0  0  0  0  0  0  0
   -4.3973    0.5046   -0.9839 H   0  0  0  0  0  0  0  0  0  0  0  0
   -3.6001    1.1537    1.0952 H   0  0  0  0  0  0  0  0  0  0  0  0
   -2.3091    2.1916    0.2943 H   0  0  0  0  0  0  0  0  0  0  0  0
   -3.1242   -1.1203    1.6232 H   0  0  0  0  0  0  0  0  0  0  0  0
   -2.6228   -1.6809    0.0028 H   0  0  0  0  0  0  0  0  0  0  0  0
   -1.4892   -1.7878    1.3937 H   0  0  0  0  0  0  0  0  0  0  0  0
   -2.0829    0.7150    2.7291 H   0  0  0  0  0  0  0  0  0  0  0  0
   -0.4956   -0.0468    2.5055 H   0  0  0  0  0  0  0  0  0  0  0  0
   -0.8039    1.7113    2.0072 H   0  0  0  0  0  0  0  0  0  0  0  0
    0.3010   -0.8675   -2.9127 H   0  0  0  0  0  0  0  0  0  0  0  0
   -0.1204   -2.1806   -1.6963 H   0  0  0  0  0  0  0  0  0  0  0  0
   -1.1287   -1.8817   -3.1090 H   0  0  0  0  0  0  0  0  0  0  0  0
  1  2  1  0
  2  3  1  0
  3  4  2  0
  3  5  1  0
  5  6  2  0
  6  7  1  0
  7  8  1  0
  8  9  2  0
  9 10  1  0
 10 11  1  0
 11 12  1  0
 12 13  1  0
 12 14  1  0
  8 15  1  0
 12  7  1  0
  1 16  1  0
  1 17  1  0
  1 18  1  0
  2 19  1  0
  2 20  1  0
  5 21  1  0
  6 22  1  0
  7 23  1  0
  9 24  1  0
 10 25  1  0
 10 26  1  0
 11 27  1  0
 11 28  1  0
 13 29  1  0
 13 30  1  0
 13 31  1  0
 14 32  1  0
 14 33  1  0
 14 34  1  0
 15 35  1  0
 15 36  1  0
 15 37  1  0
M  END
>  <Ligand ID>  (1) 
LIG0000400

>  <Ligand>  (1) 
Methyl ionone

>  <SMILES>  (1) 
CCC(=O)/C=C/C1C(=CCCC1(C)C)C

>  <CID>  (1) 
5371084.0

>  <ChEMBL ID>  (1) 
nan

>  <InChiKey>  (1) 
VPKMGDRERYMTJX-CMDGGOBGSA-N

>  <InChi>  (1) 
InChI=1S/C14H22O/c1-5-12(15)8-9-13-11(2)7-6-10-14(13,3)4/h7-9,13H,5-6,10H2,1-4H3/b9-8+

>  <IUPAC Name>  (1) 
(E)-1-(2,6,6-trimethylcyclohex-2-en-1-yl)pent-1-en-3-one

$$$$
