
     RDKit          3D

 80 87  0  0  0  0  0  0  0  0999 V2000
    2.3478    2.7201   -0.6411 C   0  0  0  0  0  0  0  0  0  0  0  0
    2.4827    1.8925    0.4456 O   0  0  0  0  0  0  0  0  0  0  0  0
    1.4602    1.0105    0.6629 C   0  0  2  0  0  0  0  0  0  0  0  0
    1.2911    0.8689    2.1346 C   0  0  0  0  0  0  0  0  0  0  0  0
    0.0903    0.0260    2.5131 C   0  0  0  0  0  0  0  0  0  0  0  0
   -0.1262   -0.8825    1.3656 C   0  0  2  0  0  0  0  0  0  0  0  0
    1.2657   -1.4271    1.0414 C   0  0  0  0  0  0  0  0  0  0  0  0
    2.0176   -0.4424    0.2066 C   0  0  2  0  0  0  0  0  0  0  0  0
    3.4671   -0.3765    0.3740 C   0  0  0  0  0  0  0  0  0  0  0  0
    4.2473   -1.4708    0.0051 O   0  0  0  0  0  0  0  0  0  0  0  0
    4.2370   -1.7392   -1.3616 C   0  0  0  0  0  0  0  0  0  0  0  0
    4.7768   -0.6329   -2.1955 C   0  0  0  0  0  0  0  0  0  0  0  0
    6.1223   -0.4916   -2.5158 C   0  0  0  0  0  0  0  0  0  0  0  0
    6.4204    0.6527   -3.2600 C   0  0  0  0  0  0  0  0  0  0  0  0
    5.5071    1.5991   -3.6627 C   0  0  0  0  0  0  0  0  0  0  0  0
    4.2232    1.4183   -3.3264 C   0  0  0  0  0  0  0  0  0  0  0  0
    3.8345    0.3181   -2.5998 C   0  0  0  0  0  0  0  0  0  0  0  0
   -0.6330   -0.0667    0.2392 C   0  0  2  0  0  0  0  0  0  0  0  0
    0.2651    1.0921   -0.1695 C   0  0  1  0  0  0  0  0  0  0  0  0
   -0.5278    2.2629   -0.1092 O   0  0  0  0  0  0  0  0  0  0  0  0
   -1.7767    1.9063    0.3649 C   0  0  0  0  0  0  0  0  0  0  0  0
   -1.8181    0.6861    0.7677 C   0  0  0  0  0  0  0  0  0  0  0  0
   -2.8225   -0.0550    1.3122 C   0  0  0  0  0  0  0  0  0  0  0  0
   -2.5403   -1.3741    1.8821 C   0  0  0  0  0  0  0  0  0  0  0  0
   -1.1855   -1.9771    1.5499 C   0  0  1  0  0  0  0  0  0  0  0  0
   -1.2533   -2.7139    0.3620 N   0  0  0  0  0  0  0  0  0  0  0  0
   -1.9172   -1.9770   -0.7162 C   0  0  0  0  0  0  0  0  0  0  0  0
   -1.0894   -0.7521   -1.0013 C   0  0  0  0  0  0  0  0  0  0  0  0
   -1.3373   -4.0857    0.2157 C   0  0  0  0  0  0  0  0  0  0  0  0
   -2.5069   -4.8748    0.6732 C   0  0  0  0  0  0  0  0  0  0  0  0
   -2.8388   -4.8942    2.1889 C   0  0  0  0  0  0  0  0  0  0  0  0
   -2.3067   -6.1105    1.4800 C   0  0  0  0  0  0  0  0  0  0  0  0
   -4.0142    0.6697    1.4264 C   0  0  0  0  0  0  0  0  0  0  0  0
   -4.0581    2.0144    0.9931 C   0  0  0  0  0  0  0  0  0  0  0  0
   -3.0359    2.6970    0.4697 C   0  0  0  0  0  0  0  0  0  0  0  0
   -2.7739    3.8776   -0.0273 O   0  0  0  0  0  0  0  0  0  0  0  0
   -3.3774    4.9906   -0.4634 C   0  0  0  0  0  0  0  0  0  0  0  0
   -3.9204    6.1312   -0.9112 C   0  0  0  0  0  0  0  0  0  0  0  0
   -3.4370    7.2469   -1.3761 O   0  0  0  0  0  0  0  0  0  0  0  0
   -5.4639    6.1266   -0.9090 N   0  0  0  0  0  0  0  0  0  0  0  0
    1.4564    3.4316   -0.4299 H   0  0  0  0  0  0  0  0  0  0  0  0
    2.0696    2.2450   -1.5792 H   0  0  0  0  0  0  0  0  0  0  0  0
    3.2657    3.3020   -0.7461 H   0  0  0  0  0  0  0  0  0  0  0  0
    1.0672    1.9162    2.5130 H   0  0  0  0  0  0  0  0  0  0  0  0
    2.2215    0.5789    2.6413 H   0  0  0  0  0  0  0  0  0  0  0  0
   -0.7781    0.6493    2.8028 H   0  0  0  0  0  0  0  0  0  0  0  0
    0.3764   -0.5528    3.4033 H   0  0  0  0  0  0  0  0  0  0  0  0
    1.7701   -1.5895    2.0431 H   0  0  0  0  0  0  0  0  0  0  0  0
    1.1549   -2.4212    0.5984 H   0  0  0  0  0  0  0  0  0  0  0  0
    1.6919   -0.5762   -0.8050 H   0  0  0  0  0  0  0  0  0  0  0  0
    3.7721   -0.1906    1.4595 H   0  0  0  0  0  0  0  0  0  0  0  0
    3.9494    0.4849   -0.1867 H   0  0  0  0  0  0  0  0  0  0  0  0
    4.8673   -2.6221   -1.5479 H   0  0  0  0  0  0  0  0  0  0  0  0
    3.1981   -1.9652   -1.7359 H   0  0  0  0  0  0  0  0  0  0  0  0
    6.8827   -1.1828   -2.2002 H   0  0  0  0  0  0  0  0  0  0  0  0
    7.4802    0.7349   -3.5266 H   0  0  0  0  0  0  0  0  0  0  0  0
    5.9582    2.4319   -4.2181 H   0  0  0  0  0  0  0  0  0  0  0  0
    3.4773    2.1779   -3.6427 H   0  0  0  0  0  0  0  0  0  0  0  0
    2.7846    0.2542   -2.4121 H   0  0  0  0  0  0  0  0  0  0  0  0
    0.5580    0.9357   -1.2861 H   0  0  0  0  0  0  0  0  0  0  0  0
   -3.3700   -2.0288    1.5721 H   0  0  0  0  0  0  0  0  0  0  0  0
   -2.6131   -1.3698    3.0142 H   0  0  0  0  0  0  0  0  0  0  0  0
   -0.8159   -2.5768    2.3871 H   0  0  0  0  0  0  0  0  0  0  0  0
   -1.8516   -2.6905   -1.5966 H   0  0  0  0  0  0  0  0  0  0  0  0
   -2.9723   -1.8020   -0.5350 H   0  0  0  0  0  0  0  0  0  0  0  0
   -1.7362   -0.0414   -1.5549 H   0  0  0  0  0  0  0  0  0  0  0  0
   -0.2848   -1.0494   -1.7221 H   0  0  0  0  0  0  0  0  0  0  0  0
   -0.4101   -4.5556    0.6480 H   0  0  0  0  0  0  0  0  0  0  0  0
   -1.2465   -4.3181   -0.8837 H   0  0  0  0  0  0  0  0  0  0  0  0
   -3.4131   -4.9154   -0.0082 H   0  0  0  0  0  0  0  0  0  0  0  0
   -2.1711   -4.3736    2.8826 H   0  0  0  0  0  0  0  0  0  0  0  0
   -3.9207   -4.8170    2.4014 H   0  0  0  0  0  0  0  0  0  0  0  0
   -3.0670   -6.9376    1.3603 H   0  0  0  0  0  0  0  0  0  0  0  0
   -1.3127   -6.4576    1.7452 H   0  0  0  0  0  0  0  0  0  0  0  0
   -4.8665    0.1538    1.8650 H   0  0  0  0  0  0  0  0  0  0  0  0
   -5.0184    2.5525    1.0860 H   0  0  0  0  0  0  0  0  0  0  0  0
   -3.5276    5.4378    0.8221 H   0  0  0  0  0  0  0  0  0  0  0  0
   -2.0848    5.6021   -0.3438 H   0  0  0  0  0  0  0  0  0  0  0  0
   -5.9328    6.0320   -1.7825 H   0  0  0  0  0  0  0  0  0  0  0  0
   -5.9042    6.2498    0.0701 H   0  0  0  0  0  0  0  0  0  0  0  0
  1  2  1  0
  3  2  1  1
  3  4  1  0
  4  5  1  0
  6  5  1  1
  6  7  1  0
  7  8  1  0
  8  9  1  0
  9 10  1  0
 10 11  1  0
 11 12  1  0
 12 13  2  0
 13 14  1  0
 14 15  2  0
 15 16  1  0
 16 17  2  0
  6 18  1  0
 18 19  1  0
 19 20  1  0
 20 21  1  0
 21 22  2  0
 22 23  1  0
 23 24  1  0
 24 25  1  0
 25 26  1  0
 26 27  1  0
 27 28  1  0
 26 29  1  0
 29 30  1  0
 30 31  1  0
 31 32  1  0
 23 33  2  0
 33 34  1  0
 34 35  2  0
 35 36  1  0
 36 37  1  0
 37 38  1  0
 38 39  2  0
 38 40  1  0
  8  3  1  0
 17 12  1  0
 18 28  1  6
 32 30  1  0
 19  3  1  0
 35 21  1  0
 25  6  1  0
 22 18  1  0
  1 41  1  0
  1 42  1  0
  1 43  1  0
  4 44  1  0
  4 45  1  0
  5 46  1  0
  5 47  1  0
  7 48  1  0
  7 49  1  0
  8 50  1  6
  9 51  1  0
  9 52  1  0
 11 53  1  0
 11 54  1  0
 13 55  1  0
 14 56  1  0
 15 57  1  0
 16 58  1  0
 17 59  1  0
 19 60  1  6
 24 61  1  0
 24 62  1  0
 25 63  1  1
 27 64  1  0
 27 65  1  0
 28 66  1  0
 28 67  1  0
 29 68  1  0
 29 69  1  0
 30 70  1  0
 31 71  1  0
 31 72  1  0
 32 73  1  0
 32 74  1  0
 33 75  1  0
 34 76  1  0
 37 77  1  0
 37 78  1  0
 40 79  1  0
 40 80  1  0
M  END
>  <Ligand ID>  (1) 
LIG0004696

>  <Ligand>  (1) 
SCHEMBL15486013

>  <SMILES>  (1) 
CO[C@]12CC[C@]3(C[C@@H]1COCc1ccccc1)[C@@]14[C@H]2Oc2c4c(C[C@H]3N(CC1)CC1CC1)ccc2OCC(=O)N

>  <CID>  (1) 
89978762.0

>  <ChEMBL ID>  (1) 
nan

>  <InChiKey>  (1) 
MWAYLFCIAOBQGQ-SMHPFREUSA-N

>  <InChi>  (1) 
InChI=1S/C33H40N2O5/c1-37-33-12-11-31(16-24(33)19-38-18-22-5-3-2-4-6-22)26-15-23-9-10-25(39-20-27(34)36)29-28(23)32(31,30(33)40-29)13-14-35(26)17-21-7-8-21/h2-6,9-10,21,24,26,30H,7-8,11-20H2,1H3,(H2,34,36)/t24-,26-,30-,31-,32+,33-/m1/s1

>  <IUPAC Name>  (1) 
2-[[(1S,2S,6R,14R,15R,16R)-5-(cyclopropylmethyl)-15-methoxy-16-(phenylmethoxymethyl)-13-oxa-5-azahexacyclo[13.2.2.12,8.01,6.02,14.012,20]icosa-8(20),9,11-trien-11-yl]oxy]acetamide

$$$$
