
     RDKit          3D

 34 35  0  0  0  0  0  0  0  0999 V2000
    4.5803   -0.2739    2.3930 C   0  0  0  0  0  0  0  0  0  0  0  0
    3.2314    0.1218    2.2226 O   0  0  0  0  0  0  0  0  0  0  0  0
    2.7202    0.1027    0.9284 C   0  0  0  0  0  0  0  0  0  0  0  0
    3.5557   -0.2952   -0.0938 C   0  0  0  0  0  0  0  0  0  0  0  0
    3.1375   -0.3479   -1.4213 C   0  0  0  0  0  0  0  0  0  0  0  0
    1.8463    0.0109   -1.7134 C   0  0  0  0  0  0  0  0  0  0  0  0
    0.9938    0.4154   -0.6793 C   0  0  0  0  0  0  0  0  0  0  0  0
    1.4201    0.4632    0.6314 C   0  0  0  0  0  0  0  0  0  0  0  0
   -0.2198    0.7099   -1.2647 C   0  0  0  0  0  0  0  0  0  0  0  0
   -1.4882    1.1722   -0.5899 C   0  0  0  0  0  0  0  0  0  0  0  0
   -2.0781   -0.0554    0.0289 C   0  0  0  0  0  0  0  0  0  0  0  0
   -3.3126    0.1482    0.7450 N   0  0  0  0  0  0  0  0  0  0  0  0
   -4.3512    0.4770   -0.2013 C   0  0  0  0  0  0  0  0  0  0  0  0
   -3.6526   -1.1769    1.2998 C   0  0  0  0  0  0  0  0  0  0  0  0
   -0.0737    0.4821   -2.6073 C   0  0  0  0  0  0  0  0  0  0  0  0
    1.1732    0.0584   -2.8885 N   0  0  0  0  0  0  0  0  0  0  0  0
    4.7200   -1.3225    2.0370 H   0  0  0  0  0  0  0  0  0  0  0  0
    5.3034    0.3469    1.8487 H   0  0  0  0  0  0  0  0  0  0  0  0
    4.8713   -0.2865    3.4659 H   0  0  0  0  0  0  0  0  0  0  0  0
    4.5928   -0.5942    0.0665 H   0  0  0  0  0  0  0  0  0  0  0  0
    3.8140   -0.6672   -2.2097 H   0  0  0  0  0  0  0  0  0  0  0  0
    0.7606    0.7750    1.4233 H   0  0  0  0  0  0  0  0  0  0  0  0
   -1.2365    1.8888    0.2196 H   0  0  0  0  0  0  0  0  0  0  0  0
   -2.1056    1.6093   -1.3640 H   0  0  0  0  0  0  0  0  0  0  0  0
   -2.2981   -0.7753   -0.8175 H   0  0  0  0  0  0  0  0  0  0  0  0
   -1.3644   -0.5411    0.7324 H   0  0  0  0  0  0  0  0  0  0  0  0
   -5.1732    1.0015    0.3286 H   0  0  0  0  0  0  0  0  0  0  0  0
   -4.0240    1.1338   -1.0264 H   0  0  0  0  0  0  0  0  0  0  0  0
   -4.7989   -0.4613   -0.6094 H   0  0  0  0  0  0  0  0  0  0  0  0
   -2.8134   -1.6281    1.8364 H   0  0  0  0  0  0  0  0  0  0  0  0
   -4.5592   -1.0783    1.9175 H   0  0  0  0  0  0  0  0  0  0  0  0
   -3.9041   -1.8407    0.4209 H   0  0  0  0  0  0  0  0  0  0  0  0
   -0.8576    0.6233   -3.3435 H   0  0  0  0  0  0  0  0  0  0  0  0
    1.5904   -0.1961   -3.8105 H   0  0  0  0  0  0  0  0  0  0  0  0
  1  2  1  0
  2  3  1  0
  3  4  2  0
  4  5  1  0
  5  6  2  0
  6  7  1  0
  7  8  2  0
  7  9  1  0
  9 10  1  0
 10 11  1  0
 11 12  1  0
 12 13  1  0
 12 14  1  0
  9 15  2  0
 15 16  1  0
  8  3  1  0
 16  6  1  0
  1 17  1  0
  1 18  1  0
  1 19  1  0
  4 20  1  0
  5 21  1  0
  8 22  1  0
 10 23  1  0
 10 24  1  0
 11 25  1  0
 11 26  1  0
 13 27  1  0
 13 28  1  0
 13 29  1  0
 14 30  1  0
 14 31  1  0
 14 32  1  0
 15 33  1  0
 16 34  1  0
M  END
>  <Ligand ID>  (1) 
LIG0000516

>  <Ligand>  (1) 
5-MeO-DMT

>  <SMILES>  (1) 
COc1ccc2c(c1)c(CCN(C)C)c[nH]2

>  <CID>  (1) 
1832.0

>  <ChEMBL ID>  (1) 
nan

>  <InChiKey>  (1) 
ZSTKHSQDNIGFLM-UHFFFAOYSA-N

>  <InChi>  (1) 
InChI=1S/C13H18N2O/c1-15(2)7-6-10-9-14-13-5-4-11(16-3)8-12(10)13/h4-5,8-9,14H,6-7H2,1-3H3

>  <IUPAC Name>  (1) 
2-(5-methoxy-1H-indol-3-yl)-N,N-dimethylethanamine

$$$$
