
     RDKit          3D

 47 49  0  0  0  0  0  0  0  0999 V2000
    1.9188   -0.9430    0.5286 O   0  0  0  0  0  0  0  0  0  0  0  0
    1.4824    0.2064    0.2792 C   0  0  0  0  0  0  0  0  0  0  0  0
    0.1507    0.7204    0.5415 C   0  0  0  0  0  0  0  0  0  0  0  0
   -0.8697   -0.1690    1.1425 C   0  0  0  0  0  0  0  0  0  0  0  0
   -1.1059   -1.3163    0.2587 C   0  0  0  0  0  0  0  0  0  0  0  0
   -0.5340   -2.5569    0.3809 C   0  0  0  0  0  0  0  0  0  0  0  0
   -0.8236   -3.5848   -0.5100 C   0  0  0  0  0  0  0  0  0  0  0  0
   -1.6932   -3.3967   -1.5442 C   0  0  0  0  0  0  0  0  0  0  0  0
   -2.2763   -2.1535   -1.6771 C   0  0  0  0  0  0  0  0  0  0  0  0
   -1.9943   -1.1251   -0.7958 C   0  0  0  0  0  0  0  0  0  0  0  0
   -2.7076    0.1586   -1.0216 C   0  0  0  0  0  0  0  0  0  0  0  0
   -2.8878    0.8990    0.2578 C   0  0  0  0  0  0  0  0  0  0  0  0
   -2.0563    0.6245    1.3349 N   0  0  0  0  0  0  0  0  0  0  0  0
   -2.0121    1.4796    2.4484 C   0  0  0  0  0  0  0  0  0  0  0  0
   -4.3568    0.6592    0.6595 C   0  0  0  0  0  0  0  0  0  0  0  0
   -2.8349    2.3945   -0.0535 C   0  0  0  0  0  0  0  0  0  0  0  0
    2.4257    1.0973   -0.3357 N   0  0  0  0  0  0  0  0  0  0  0  0
    3.7373    0.6024   -0.5977 C   0  0  0  0  0  0  0  0  0  0  0  0
    4.7532    0.7159    0.3293 C   0  0  0  0  0  0  0  0  0  0  0  0
    6.0200    0.2258    0.0494 C   0  0  0  0  0  0  0  0  0  0  0  0
    6.2465   -0.3793   -1.1767 C   0  0  0  0  0  0  0  0  0  0  0  0
    5.2263   -0.4903   -2.1007 C   0  0  0  0  0  0  0  0  0  0  0  0
    3.9635   -0.0060   -1.8317 C   0  0  0  0  0  0  0  0  0  0  0  0
    7.9726   -1.0722   -1.6147 Br  0  0  0  0  0  0  0  0  0  0  0  0
    0.3088    1.6506    1.1824 H   0  0  0  0  0  0  0  0  0  0  0  0
   -0.1950    1.1877   -0.4294 H   0  0  0  0  0  0  0  0  0  0  0  0
   -0.5958   -0.5521    2.1446 H   0  0  0  0  0  0  0  0  0  0  0  0
    0.1399   -2.7861    1.1730 H   0  0  0  0  0  0  0  0  0  0  0  0
   -0.3674   -4.5634   -0.4082 H   0  0  0  0  0  0  0  0  0  0  0  0
   -1.9297   -4.1883   -2.2485 H   0  0  0  0  0  0  0  0  0  0  0  0
   -2.9672   -2.0071   -2.4994 H   0  0  0  0  0  0  0  0  0  0  0  0
   -3.6820   -0.0306   -1.5379 H   0  0  0  0  0  0  0  0  0  0  0  0
   -2.1045    0.7670   -1.7137 H   0  0  0  0  0  0  0  0  0  0  0  0
   -2.4006    2.5059    2.1798 H   0  0  0  0  0  0  0  0  0  0  0  0
   -0.9661    1.6620    2.7589 H   0  0  0  0  0  0  0  0  0  0  0  0
   -2.5528    1.1147    3.3475 H   0  0  0  0  0  0  0  0  0  0  0  0
   -4.7018    1.5355    1.2215 H   0  0  0  0  0  0  0  0  0  0  0  0
   -4.9630    0.6378   -0.2820 H   0  0  0  0  0  0  0  0  0  0  0  0
   -4.4784   -0.2848    1.2125 H   0  0  0  0  0  0  0  0  0  0  0  0
   -3.0436    2.5384   -1.1238 H   0  0  0  0  0  0  0  0  0  0  0  0
   -1.8386    2.7811    0.2420 H   0  0  0  0  0  0  0  0  0  0  0  0
   -3.5760    2.9373    0.5711 H   0  0  0  0  0  0  0  0  0  0  0  0
    2.1786    2.0831   -0.5915 H   0  0  0  0  0  0  0  0  0  0  0  0
    4.5611    1.1917    1.2839 H   0  0  0  0  0  0  0  0  0  0  0  0
    6.8449    0.2865    0.7306 H   0  0  0  0  0  0  0  0  0  0  0  0
    5.4326   -0.9739   -3.0645 H   0  0  0  0  0  0  0  0  0  0  0  0
    3.1520   -0.0835   -2.5415 H   0  0  0  0  0  0  0  0  0  0  0  0
  1  2  2  0
  2  3  1  0
  3  4  1  0
  4  5  1  0
  5  6  2  0
  6  7  1  0
  7  8  2  0
  8  9  1  0
  9 10  2  0
 10 11  1  0
 11 12  1  0
 12 13  1  0
 13 14  1  0
 12 15  1  0
 12 16  1  0
  2 17  1  0
 17 18  1  0
 18 19  2  0
 19 20  1  0
 20 21  2  0
 21 22  1  0
 22 23  2  0
 21 24  1  0
 13  4  1  0
 23 18  1  0
 10  5  1  0
  3 25  1  0
  3 26  1  0
  4 27  1  0
  6 28  1  0
  7 29  1  0
  8 30  1  0
  9 31  1  0
 11 32  1  0
 11 33  1  0
 14 34  1  0
 14 35  1  0
 14 36  1  0
 15 37  1  0
 15 38  1  0
 15 39  1  0
 16 40  1  0
 16 41  1  0
 16 42  1  0
 17 43  1  0
 19 44  1  0
 20 45  1  0
 22 46  1  0
 23 47  1  0
M  END
>  <Ligand ID>  (1) 
LIG0003564

>  <Ligand>  (1) 
MLS000765851

>  <SMILES>  (1) 
O=C(CC1c2ccccc2CC(N1C)(C)C)Nc1ccc(cc1)Br

>  <CID>  (1) 
2860484.0

>  <ChEMBL ID>  (1) 
nan

>  <InChiKey>  (1) 
YPVMVWFHOJLRSK-UHFFFAOYSA-N

>  <InChi>  (1) 
InChI=1S/C20H23BrN2O/c1-20(2)13-14-6-4-5-7-17(14)18(23(20)3)12-19(24)22-16-10-8-15(21)9-11-16/h4-11,18H,12-13H2,1-3H3,(H,22,24)

>  <IUPAC Name>  (1) 
N-(4-bromophenyl)-2-(2,3,3-trimethyl-1,4-dihydroisoquinolin-1-yl)acetamide

$$$$
