
     RDKit          3D

153157  0  0  0  0  0  0  0  0999 V2000
   11.0943    1.7432    0.2436 C   0  0  0  0  0  0  0  0  0  0  0  0
   11.5003    0.3682    0.7395 C   0  0  0  0  0  0  0  0  0  0  0  0
   10.6460   -0.6322   -0.0537 C   0  0  0  0  0  0  0  0  0  0  0  0
    9.2039   -0.3146    0.2719 C   0  0  0  0  0  0  0  0  0  0  0  0
    8.2360   -1.2182   -0.5081 C   0  0  1  0  0  0  0  0  0  0  0  0
    6.8846   -0.8135   -0.0803 C   0  0  0  0  0  0  0  0  0  0  0  0
    6.5333   -1.1912    1.0870 O   0  0  0  0  0  0  0  0  0  0  0  0
    5.9807   -0.0369   -0.8902 N   0  0  0  0  0  0  0  0  0  0  0  0
    4.6922    0.2193   -0.2295 C   0  0  1  0  0  0  0  0  0  0  0  0
    4.8352    1.6919    0.2462 C   0  0  0  0  0  0  0  0  0  0  0  0
    3.6076    2.1371    0.9085 C   0  0  0  0  0  0  0  0  0  0  0  0
    2.5666    1.4904    1.0735 O   0  0  0  0  0  0  0  0  0  0  0  0
    3.5644    3.4748    1.4438 N   0  0  0  0  0  0  0  0  0  0  0  0
    2.4066    4.0323    2.1075 C   0  0  0  0  0  0  0  0  0  0  0  0
    1.2433    4.0947    1.1744 C   0  0  0  0  0  0  0  0  0  0  0  0
    0.0336    4.6567    1.9064 C   0  0  0  0  0  0  0  0  0  0  0  0
   -1.1514    4.7408    0.9829 C   0  0  0  0  0  0  0  0  0  0  0  0
   -2.3911    5.1480    1.7509 C   0  0  2  0  0  0  0  0  0  0  0  0
   -3.5602    5.1039    0.8495 N   0  0  0  0  0  0  0  0  0  0  0  0
   -4.2323    3.8590    0.8025 C   0  0  0  0  0  0  0  0  0  0  0  0
   -3.7175    2.9322    1.4513 O   0  0  0  0  0  0  0  0  0  0  0  0
   -5.4754    3.5478    0.0593 C   0  0  2  0  0  0  0  0  0  0  0  0
   -6.5833    4.2906    0.8577 C   0  0  0  0  0  0  0  0  0  0  0  0
   -5.7289    2.1174    0.1280 N   0  0  0  0  0  0  0  0  0  0  0  0
   -6.5530    1.4106   -0.8183 C   0  0  0  0  0  0  0  0  0  0  0  0
   -7.1157    2.1782   -1.6067 O   0  0  0  0  0  0  0  0  0  0  0  0
   -6.6116   -0.0301   -0.7085 C   0  0  2  0  0  0  0  0  0  0  0  0
   -5.5989   -0.6381    0.1230 N   0  0  0  0  0  0  0  0  0  0  0  0
   -5.7393   -0.9410    1.5173 C   0  0  0  0  0  0  0  0  0  0  0  0
   -6.7914   -0.5451    2.0280 O   0  0  0  0  0  0  0  0  0  0  0  0
   -4.6838   -1.6580    2.2212 C   0  0  1  0  0  0  0  0  0  0  0  0
   -3.6357   -2.1210    1.3649 N   0  0  0  0  0  0  0  0  0  0  0  0
   -2.3786   -1.5170    1.1270 C   0  0  0  0  0  0  0  0  0  0  0  0
   -2.1449   -0.4348    1.6295 O   0  0  0  0  0  0  0  0  0  0  0  0
   -1.4372   -2.3059    0.2397 C   0  0  1  0  0  0  0  0  0  0  0  0
   -0.2381   -1.5788   -0.0461 N   0  0  0  0  0  0  0  0  0  0  0  0
   -0.0572   -0.9376   -1.3333 C   0  0  0  0  0  0  0  0  0  0  0  0
   -1.0674   -0.9843   -2.0525 O   0  0  0  0  0  0  0  0  0  0  0  0
    1.1544   -0.2810   -1.7953 C   0  0  1  0  0  0  0  0  0  0  0  0
    2.2995   -0.3922   -0.9216 N   0  0  0  0  0  0  0  0  0  0  0  0
    3.5645    0.2379   -1.1625 C   0  0  0  0  0  0  0  0  0  0  0  0
    3.6716    0.8089   -2.2497 O   0  0  0  0  0  0  0  0  0  0  0  0
    1.4586   -0.7199   -3.2269 C   0  0  0  0  0  0  0  0  0  0  0  0
    1.6833   -2.1313   -3.4365 C   0  0  0  0  0  0  0  0  0  0  0  0
    2.9404   -2.7428   -3.3664 C   0  0  0  0  0  0  0  0  0  0  0  0
    2.7561   -4.0438   -3.6413 N   0  0  0  0  0  0  0  0  0  0  0  0
    1.4296   -4.2503   -3.8774 C   0  0  0  0  0  0  0  0  0  0  0  0
    0.7708   -3.0949   -3.7540 N   0  0  0  0  0  0  0  0  0  0  0  0
   -1.1704   -3.6508    0.8642 C   0  0  0  0  0  0  0  0  0  0  0  0
   -0.2690   -4.5347    0.1292 C   0  0  0  0  0  0  0  0  0  0  0  0
    1.0710   -4.4715    0.3703 C   0  0  0  0  0  0  0  0  0  0  0  0
    2.0137   -5.2781   -0.2425 C   0  0  0  0  0  0  0  0  0  0  0  0
    1.5488   -6.1983   -1.1525 C   0  0  0  0  0  0  0  0  0  0  0  0
    0.1776   -6.2766   -1.4118 C   0  0  0  0  0  0  0  0  0  0  0  0
   -0.7434   -5.4636   -0.7914 C   0  0  0  0  0  0  0  0  0  0  0  0
   -4.1989   -0.9769    3.4951 C   0  0  0  0  0  0  0  0  0  0  0  0
   -3.1477   -1.8651    4.1467 C   0  0  0  0  0  0  0  0  0  0  0  0
   -2.6536   -1.2354    5.4108 C   0  0  0  0  0  0  0  0  0  0  0  0
   -3.7144   -1.0350    6.3826 N   0  0  0  0  0  0  0  0  0  0  0  0
   -3.9193   -1.9752    7.2893 C   0  0  0  0  0  0  0  0  0  0  0  0
   -3.0696   -3.1085    7.2228 N   0  0  0  0  0  0  0  0  0  0  0  0
   -4.9403   -1.8425    8.2719 N   0  0  0  0  0  0  0  0  0  0  0  0
   -7.0414   -0.7993   -1.8651 C   0  0  0  0  0  0  0  0  0  0  0  0
   -6.3589   -0.6878   -3.1535 C   0  0  0  0  0  0  0  0  0  0  0  0
   -5.2086   -1.2656   -3.6340 C   0  0  0  0  0  0  0  0  0  0  0  0
   -4.9102   -0.8064   -4.8701 N   0  0  0  0  0  0  0  0  0  0  0  0
   -5.8462    0.0764   -5.2366 C   0  0  0  0  0  0  0  0  0  0  0  0
   -6.7520    0.1721   -4.2067 C   0  0  0  0  0  0  0  0  0  0  0  0
   -7.8576    1.0114   -4.3440 C   0  0  0  0  0  0  0  0  0  0  0  0
   -8.0998    1.7639   -5.4636 C   0  0  0  0  0  0  0  0  0  0  0  0
   -7.1818    1.6647   -6.4924 C   0  0  0  0  0  0  0  0  0  0  0  0
   -6.0801    0.8431   -6.3873 C   0  0  0  0  0  0  0  0  0  0  0  0
   -2.2291    6.4774    2.3226 C   0  0  0  0  0  0  0  0  0  0  0  0
   -3.0633    7.3744    1.9440 O   0  0  0  0  0  0  0  0  0  0  0  0
   -1.2593    6.8963    3.2505 N   0  0  0  0  0  0  0  0  0  0  0  0
    8.4147   -0.9191   -1.9223 N   0  0  0  0  0  0  0  0  0  0  0  0
    8.7770   -2.0153   -2.7608 C   0  0  0  0  0  0  0  0  0  0  0  0
    8.9189   -3.1491   -2.2277 O   0  0  0  0  0  0  0  0  0  0  0  0
    8.9946   -1.8873   -4.2208 C   0  0  0  0  0  0  0  0  0  0  0  0
   10.6730    1.6803   -0.7961 H   0  0  0  0  0  0  0  0  0  0  0  0
   10.2641    2.1591    0.8646 H   0  0  0  0  0  0  0  0  0  0  0  0
   11.9313    2.4541    0.2525 H   0  0  0  0  0  0  0  0  0  0  0  0
   11.2023    0.2881    1.7980 H   0  0  0  0  0  0  0  0  0  0  0  0
   12.5598    0.1517    0.6091 H   0  0  0  0  0  0  0  0  0  0  0  0
   10.8216   -0.4028   -1.1215 H   0  0  0  0  0  0  0  0  0  0  0  0
   10.8981   -1.6695    0.2325 H   0  0  0  0  0  0  0  0  0  0  0  0
    8.9354    0.7089   -0.0241 H   0  0  0  0  0  0  0  0  0  0  0  0
    8.9944   -0.4402    1.3510 H   0  0  0  0  0  0  0  0  0  0  0  0
    8.4210   -2.2646   -0.2719 H   0  0  0  0  0  0  0  0  0  0  0  0
    6.2354    0.2812   -1.8209 H   0  0  0  0  0  0  0  0  0  0  0  0
    4.5206   -0.4348    0.6074 H   0  0  0  0  0  0  0  0  0  0  0  0
    4.9546    2.3433   -0.6649 H   0  0  0  0  0  0  0  0  0  0  0  0
    5.7438    1.8205    0.8370 H   0  0  0  0  0  0  0  0  0  0  0  0
    4.4173    4.0186    1.3226 H   0  0  0  0  0  0  0  0  0  0  0  0
    2.1546    3.4753    3.0552 H   0  0  0  0  0  0  0  0  0  0  0  0
    2.6348    5.0760    2.4361 H   0  0  0  0  0  0  0  0  0  0  0  0
    0.9766    3.1099    0.7647 H   0  0  0  0  0  0  0  0  0  0  0  0
    1.5403    4.7585    0.3428 H   0  0  0  0  0  0  0  0  0  0  0  0
    0.3908    5.6634    2.2528 H   0  0  0  0  0  0  0  0  0  0  0  0
   -0.1968    4.0652    2.7959 H   0  0  0  0  0  0  0  0  0  0  0  0
   -0.9160    5.4264    0.1373 H   0  0  0  0  0  0  0  0  0  0  0  0
   -1.3160    3.7090    0.6004 H   0  0  0  0  0  0  0  0  0  0  0  0
   -2.5330    4.3504    2.5375 H   0  0  0  0  0  0  0  0  0  0  0  0
   -3.9055    5.8544    0.2803 H   0  0  0  0  0  0  0  0  0  0  0  0
   -5.5383    3.9311   -0.9401 H   0  0  0  0  0  0  0  0  0  0  0  0
   -6.3500    4.2890    1.9291 H   0  0  0  0  0  0  0  0  0  0  0  0
   -7.5800    3.9312    0.5798 H   0  0  0  0  0  0  0  0  0  0  0  0
   -6.5214    5.3461    0.5120 H   0  0  0  0  0  0  0  0  0  0  0  0
   -5.3240    1.5703    0.8704 H   0  0  0  0  0  0  0  0  0  0  0  0
   -7.5479   -0.1432    0.0248 H   0  0  0  0  0  0  0  0  0  0  0  0
   -4.6993   -0.8675   -0.2897 H   0  0  0  0  0  0  0  0  0  0  0  0
   -5.1463   -2.6047    2.6523 H   0  0  0  0  0  0  0  0  0  0  0  0
   -3.7987   -3.0007    0.8408 H   0  0  0  0  0  0  0  0  0  0  0  0
   -2.0531   -2.4852   -0.6884 H   0  0  0  0  0  0  0  0  0  0  0  0
    0.5285   -1.4571    0.5973 H   0  0  0  0  0  0  0  0  0  0  0  0
    0.9764    0.8442   -1.8593 H   0  0  0  0  0  0  0  0  0  0  0  0
    2.2891   -0.9563   -0.0594 H   0  0  0  0  0  0  0  0  0  0  0  0
    0.4776   -0.4694   -3.7687 H   0  0  0  0  0  0  0  0  0  0  0  0
    2.1673   -0.0194   -3.6975 H   0  0  0  0  0  0  0  0  0  0  0  0
    3.8875   -2.3089   -3.1430 H   0  0  0  0  0  0  0  0  0  0  0  0
    1.0428   -5.2161   -4.1182 H   0  0  0  0  0  0  0  0  0  0  0  0
   -0.2500   -2.9370   -3.8782 H   0  0  0  0  0  0  0  0  0  0  0  0
   -0.8262   -3.5295    1.9359 H   0  0  0  0  0  0  0  0  0  0  0  0
   -2.1520   -4.2082    0.9765 H   0  0  0  0  0  0  0  0  0  0  0  0
    1.4439   -3.7541    1.0811 H   0  0  0  0  0  0  0  0  0  0  0  0
    3.0453   -5.1604    0.0016 H   0  0  0  0  0  0  0  0  0  0  0  0
    2.2727   -6.8344   -1.6370 H   0  0  0  0  0  0  0  0  0  0  0  0
   -0.1014   -7.0276   -2.1438 H   0  0  0  0  0  0  0  0  0  0  0  0
   -1.8086   -5.5479   -1.0170 H   0  0  0  0  0  0  0  0  0  0  0  0
   -5.0741   -0.9940    4.1921 H   0  0  0  0  0  0  0  0  0  0  0  0
   -3.9025    0.0593    3.3804 H   0  0  0  0  0  0  0  0  0  0  0  0
   -2.3526   -2.2179    3.5101 H   0  0  0  0  0  0  0  0  0  0  0  0
   -3.7481   -2.7889    4.4530 H   0  0  0  0  0  0  0  0  0  0  0  0
   -2.1813   -0.2401    5.2661 H   0  0  0  0  0  0  0  0  0  0  0  0
   -1.9287   -1.9626    5.8785 H   0  0  0  0  0  0  0  0  0  0  0  0
   -3.2572   -3.8850    6.5486 H   0  0  0  0  0  0  0  0  0  0  0  0
   -2.2521   -3.1530    7.8604 H   0  0  0  0  0  0  0  0  0  0  0  0
   -5.6942   -1.1804    8.0867 H   0  0  0  0  0  0  0  0  0  0  0  0
   -4.8236   -2.4408    9.1214 H   0  0  0  0  0  0  0  0  0  0  0  0
   -8.1266   -0.5158   -2.0878 H   0  0  0  0  0  0  0  0  0  0  0  0
   -7.1912   -1.9064   -1.5854 H   0  0  0  0  0  0  0  0  0  0  0  0
   -4.6224   -2.0002   -3.0727 H   0  0  0  0  0  0  0  0  0  0  0  0
   -4.1057   -1.0684   -5.4643 H   0  0  0  0  0  0  0  0  0  0  0  0
   -8.6058    1.0811   -3.5325 H   0  0  0  0  0  0  0  0  0  0  0  0
   -8.9762    2.3992   -5.5128 H   0  0  0  0  0  0  0  0  0  0  0  0
   -7.3813    2.2754   -7.3857 H   0  0  0  0  0  0  0  0  0  0  0  0
   -5.3922    0.7969   -7.2077 H   0  0  0  0  0  0  0  0  0  0  0  0
   -0.6490    7.7234    3.0337 H   0  0  0  0  0  0  0  0  0  0  0  0
   -1.1026    6.4255    4.1684 H   0  0  0  0  0  0  0  0  0  0  0  0
    8.2976    0.0036   -2.3488 H   0  0  0  0  0  0  0  0  0  0  0  0
    8.2846   -1.1355   -4.6713 H   0  0  0  0  0  0  0  0  0  0  0  0
   10.0398   -1.5357   -4.3622 H   0  0  0  0  0  0  0  0  0  0  0  0
    8.8429   -2.8732   -4.7008 H   0  0  0  0  0  0  0  0  0  0  0  0
  1  2  1  0
  2  3  1  0
  3  4  1  0
  4  5  1  0
  5  6  1  0
  6  7  2  0
  6  8  1  0
  8  9  1  0
  9 10  1  0
 10 11  1  0
 11 12  2  0
 11 13  1  0
 13 14  1  0
 14 15  1  0
 15 16  1  0
 16 17  1  0
 17 18  1  0
 18 19  1  0
 19 20  1  0
 20 21  2  0
 20 22  1  0
 22 23  1  0
 22 24  1  0
 24 25  1  0
 25 26  2  0
 25 27  1  0
 27 28  1  0
 28 29  1  0
 29 30  2  0
 29 31  1  0
 31 32  1  0
 32 33  1  0
 33 34  2  0
 33 35  1  0
 35 36  1  0
 36 37  1  0
 37 38  2  0
 37 39  1  0
 39 40  1  0
 40 41  1  0
 41 42  2  0
 39 43  1  0
 43 44  1  0
 44 45  2  0
 45 46  1  0
 46 47  2  0
 47 48  1  0
 35 49  1  0
 49 50  1  0
 50 51  2  0
 51 52  1  0
 52 53  2  0
 53 54  1  0
 54 55  2  0
 31 56  1  0
 56 57  1  0
 57 58  1  0
 58 59  1  0
 59 60  2  3
 60 61  1  0
 60 62  1  0
 27 63  1  0
 63 64  1  0
 64 65  2  0
 65 66  1  0
 66 67  1  0
 67 68  2  0
 68 69  1  0
 69 70  2  0
 70 71  1  0
 71 72  2  0
 18 73  1  0
 73 74  2  0
 73 75  1  0
  5 76  1  0
 76 77  1  0
 77 78  2  0
 77 79  1  0
 41  9  1  0
 48 44  1  0
 55 50  1  0
 68 64  1  0
 72 67  1  0
  1 80  1  0
  1 81  1  0
  1 82  1  0
  2 83  1  0
  2 84  1  0
  3 85  1  0
  3 86  1  0
  4 87  1  0
  4 88  1  0
  5 89  1  6
  8 90  1  0
  9 91  1  1
 10 92  1  0
 10 93  1  0
 13 94  1  0
 14 95  1  0
 14 96  1  0
 15 97  1  0
 15 98  1  0
 16 99  1  0
 16100  1  0
 17101  1  0
 17102  1  0
 18103  1  1
 19104  1  0
 22105  1  6
 23106  1  0
 23107  1  0
 23108  1  0
 24109  1  0
 27110  1  1
 28111  1  0
 31112  1  1
 32113  1  0
 35114  1  6
 36115  1  0
 39116  1  6
 40117  1  0
 43118  1  0
 43119  1  0
 45120  1  0
 47121  1  0
 48122  1  0
 49123  1  0
 49124  1  0
 51125  1  0
 52126  1  0
 53127  1  0
 54128  1  0
 55129  1  0
 56130  1  0
 56131  1  0
 57132  1  0
 57133  1  0
 58134  1  0
 58135  1  0
 61136  1  0
 61137  1  0
 62138  1  0
 62139  1  0
 63140  1  0
 63141  1  0
 65142  1  0
 66143  1  0
 69144  1  0
 70145  1  0
 71146  1  0
 72147  1  0
 75148  1  0
 75149  1  0
 76150  1  0
 79151  1  0
 79152  1  0
 79153  1  0
M  END
>  <Ligand ID>  (1) 
LIG0001786

>  <Ligand>  (1) 
CHEMBL3350396

>  <SMILES>  (1) 
CCCC[C@@H](C(=O)N[C@H]1CC(=O)NCCCC[C@H](NC(=O)[C@H](C)NC(=O)[C@H](NC(=O)[C@@H](NC(=O)[C@@H](NC(=O)[C@@H](NC1=O)Cc1cnc[nH]1)Cc1ccccc1)CCCN=C(N)N)Cc1c[nH]c2c1cccc2)C(=O)N)NC(=O)C

>  <CID>  (1) 
118718881.0

>  <ChEMBL ID>  (1) 
nan

>  <InChiKey>  (1) 
WZIILWAZGXRRFZ-SGMBTFFXSA-N

>  <InChi>  (1) 
InChI=1S/C53H74N16O10/c1-4-5-17-38(63-31(3)70)47(74)69-43-26-44(71)58-21-12-11-19-37(45(54)72)64-46(73)30(2)62-49(76)41(24-33-27-60-36-18-10-9-16-35(33)36)67-48(75)39(20-13-22-59-53(55)56)65-50(77)40(23-32-14-7-6-8-15-32)66-51(78)42(68-52(43)79)25-34-28-57-29-61-34/h6-10,14-16,18,27-30,37-43,60H,4-5,11-13,17,19-26H2,1-3H3,(H2,54,72)(H,57,61)(H,58,71)(H,62,76)(H,63,70)(H,64,73)(H,65,77)(H,66,78)(H,67,75)(H,68,79)(H,69,74)(H4,55,56,59)/t30-,37-,38-,39-,40-,41+,42-,43-/m0/s1

>  <IUPAC Name>  (1) 
(3S,6R,9S,12S,15S,18S,26S)-18-[[(2S)-2-acetamidohexanoyl]amino]-12-benzyl-9-[3-(diaminomethylideneamino)propyl]-15-(1H-imidazol-5-ylmethyl)-6-(1H-indol-3-ylmethyl)-3-methyl-2,5,8,11,14,17,20-heptaoxo-1,4,7,10,13,16,21-heptazacyclohexacosane-26-carboxamide

$$$$
