
     RDKit          3D

 22 22  0  0  0  0  0  0  0  0999 V2000
   -4.4240   -1.4545   -0.7486 N   0  0  0  0  0  0  0  0  0  0  0  0
   -3.1585   -0.9340   -0.2997 C   0  0  0  0  0  0  0  0  0  0  0  0
   -2.1046   -1.4989   -0.7337 N   0  0  0  0  0  0  0  0  0  0  0  0
   -0.7938   -1.1715   -0.4401 N   0  0  0  0  0  0  0  0  0  0  0  0
   -0.2416   -0.0471   -0.6502 C   0  0  0  0  0  0  0  0  0  0  0  0
    1.1450    0.2703   -0.3297 C   0  0  0  0  0  0  0  0  0  0  0  0
    1.6950    1.5101   -0.5795 C   0  0  0  0  0  0  0  0  0  0  0  0
    3.0071    1.8058   -0.2747 C   0  0  0  0  0  0  0  0  0  0  0  0
    3.8259    0.8600    0.2979 C   0  0  0  0  0  0  0  0  0  0  0  0
    3.3000   -0.3863    0.5573 C   0  0  0  0  0  0  0  0  0  0  0  0
    1.9703   -0.6736    0.2443 C   0  0  0  0  0  0  0  0  0  0  0  0
    4.4420   -1.6986    1.3537 Br  0  0  0  0  0  0  0  0  0  0  0  0
    5.6353    1.2688    0.7179 Br  0  0  0  0  0  0  0  0  0  0  0  0
   -3.2048    0.1617    0.5859 N   0  0  0  0  0  0  0  0  0  0  0  0
   -4.5112   -2.4115   -1.1649 H   0  0  0  0  0  0  0  0  0  0  0  0
   -5.3085   -0.9041   -0.6800 H   0  0  0  0  0  0  0  0  0  0  0  0
   -0.8401    0.7383   -1.1005 H   0  0  0  0  0  0  0  0  0  0  0  0
    1.0458    2.2490   -1.0298 H   0  0  0  0  0  0  0  0  0  0  0  0
    3.3898    2.7983   -0.4925 H   0  0  0  0  0  0  0  0  0  0  0  0
    1.6341   -1.6683    0.4771 H   0  0  0  0  0  0  0  0  0  0  0  0
   -2.4788    0.9061    0.6577 H   0  0  0  0  0  0  0  0  0  0  0  0
   -4.0243    0.2800    1.2511 H   0  0  0  0  0  0  0  0  0  0  0  0
  1  2  1  0
  2  3  2  3
  3  4  1  0
  4  5  2  3
  5  6  1  0
  6  7  2  0
  7  8  1  0
  8  9  2  0
  9 10  1  0
 10 11  2  0
 10 12  1  0
  9 13  1  0
  2 14  1  0
 11  6  1  0
  1 15  1  0
  1 16  1  0
  5 17  1  0
  7 18  1  0
  8 19  1  0
 11 20  1  0
 14 21  1  0
 14 22  1  0
M  END
>  <Ligand ID>  (1) 
LIG0005786

>  <Ligand>  (1) 
SCHEMBL16993734

>  <SMILES>  (1) 
NC(=NN=Cc1ccc(c(c1)Br)Br)N

>  <CID>  (1) 
69536881.0

>  <ChEMBL ID>  (1) 
nan

>  <InChiKey>  (1) 
VMYFCUKMGMFQNH-UHFFFAOYSA-N

>  <InChi>  (1) 
InChI=1S/C8H8Br2N4/c9-6-2-1-5(3-7(6)10)4-13-14-8(11)12/h1-4H,(H4,11,12,14)

>  <IUPAC Name>  (1) 
2-[(3,4-dibromophenyl)methylideneamino]guanidine

$$$$
