
     RDKit          3D

 16 16  0  0  0  0  0  0  0  0999 V2000
    2.4276   -0.7569    0.3999 S   0  0  0  0  0  0  0  0  0  0  0  0
    0.8480   -0.3153   -0.3889 C   0  0  0  0  0  0  0  0  0  0  0  0
   -0.2909   -1.1792    0.1109 C   0  0  0  0  0  0  0  0  0  0  0  0
   -1.3450   -0.2360    0.6195 C   0  0  0  0  0  0  0  0  0  0  0  0
   -1.0365    1.0906   -0.0633 C   0  0  0  0  0  0  0  0  0  0  0  0
    0.4700    1.1174   -0.1216 C   0  0  0  0  0  0  0  0  0  0  0  0
    3.3839   -1.1833   -0.5297 H   0  0  0  0  0  0  0  0  0  0  0  0
    0.9985   -0.4663   -1.4892 H   0  0  0  0  0  0  0  0  0  0  0  0
    0.0386   -1.9096    0.8652 H   0  0  0  0  0  0  0  0  0  0  0  0
   -0.6893   -1.7733   -0.7525 H   0  0  0  0  0  0  0  0  0  0  0  0
   -2.3369   -0.6061    0.2563 H   0  0  0  0  0  0  0  0  0  0  0  0
   -1.3437   -0.1009    1.7088 H   0  0  0  0  0  0  0  0  0  0  0  0
   -1.3497    1.9394    0.5876 H   0  0  0  0  0  0  0  0  0  0  0  0
   -1.5213    1.1273   -1.0491 H   0  0  0  0  0  0  0  0  0  0  0  0
    0.8840    1.5252    0.8093 H   0  0  0  0  0  0  0  0  0  0  0  0
    0.8629    1.7269   -0.9632 H   0  0  0  0  0  0  0  0  0  0  0  0
  1  2  1  0
  2  3  1  0
  3  4  1  0
  4  5  1  0
  5  6  1  0
  6  2  1  0
  1  7  1  0
  2  8  1  0
  3  9  1  0
  3 10  1  0
  4 11  1  0
  4 12  1  0
  5 13  1  0
  5 14  1  0
  6 15  1  0
  6 16  1  0
M  END
>  <Ligand ID>  (1) 
LIG0000572

>  <Ligand>  (1) 
cyclopentanethiol

>  <SMILES>  (1) 
SC1CCCC1

>  <CID>  (1) 
15510.0

>  <ChEMBL ID>  (1) 
nan

>  <InChiKey>  (1) 
WVDYBOADDMMFIY-UHFFFAOYSA-N

>  <InChi>  (1) 
InChI=1S/C5H10S/c6-5-3-1-2-4-5/h5-6H,1-4H2

>  <IUPAC Name>  (1) 
cyclopentanethiol

$$$$
