
     RDKit          3D

123127  0  0  0  0  0  0  0  0999 V2000
   -2.0557    5.3555    1.2574 N   0  0  0  0  0  0  0  0  0  0  0  0
   -1.5224    5.9460    2.4249 C   0  0  0  0  0  0  0  0  0  0  0  0
   -0.5182    5.5697    3.0886 N   0  0  0  0  0  0  0  0  0  0  0  0
    0.3813    4.5009    2.9296 C   0  0  0  0  0  0  0  0  0  0  0  0
    0.1697    3.7728    1.6490 C   0  0  0  0  0  0  0  0  0  0  0  0
    1.1770    2.6166    1.4848 C   0  0  0  0  0  0  0  0  0  0  0  0
    0.8511    2.0040    0.1525 C   0  0  2  0  0  0  0  0  0  0  0  0
   -0.5197    1.4855    0.0550 N   0  0  0  0  0  0  0  0  0  0  0  0
   -1.4223    2.0661   -0.9269 C   0  0  0  0  0  0  0  0  0  0  0  0
   -0.9178    3.0488   -1.5075 O   0  0  0  0  0  0  0  0  0  0  0  0
   -2.7423    1.6244   -1.2394 C   0  0  1  0  0  0  0  0  0  0  0  0
   -2.8507    1.3675   -2.7480 C   0  0  0  0  0  0  0  0  0  0  0  0
   -2.5737    2.5434   -3.5843 C   0  0  0  0  0  0  0  0  0  0  0  0
   -1.3172    2.7905   -4.1568 C   0  0  0  0  0  0  0  0  0  0  0  0
   -1.1714    3.9322   -4.9138 C   0  0  0  0  0  0  0  0  0  0  0  0
   -2.1753    4.8335   -5.1374 C   0  0  0  0  0  0  0  0  0  0  0  0
   -3.4047    4.5599   -4.5579 C   0  0  0  0  0  0  0  0  0  0  0  0
   -3.6309    3.4343   -3.7847 C   0  0  0  0  0  0  0  0  0  0  0  0
   -3.2422    0.4314   -0.5449 N   0  0  0  0  0  0  0  0  0  0  0  0
   -4.6172    0.3638   -0.0948 C   0  0  0  0  0  0  0  0  0  0  0  0
   -5.2583    1.4057   -0.3113 O   0  0  0  0  0  0  0  0  0  0  0  0
   -5.2132   -0.8112    0.5518 C   0  0  1  0  0  0  0  0  0  0  0  0
   -4.3090   -1.9200    0.7925 N   0  0  0  0  0  0  0  0  0  0  0  0
   -4.3008   -3.0904   -0.0679 C   0  0  0  0  0  0  0  0  0  0  0  0
   -5.0656   -2.9981   -1.0372 O   0  0  0  0  0  0  0  0  0  0  0  0
   -3.4429   -4.2644    0.2142 C   0  0  0  0  0  0  0  0  0  0  0  0
   -3.4621   -5.2819   -0.9005 C   0  0  0  0  0  0  0  0  0  0  0  0
   -2.6789   -6.5236   -0.5353 C   0  0  0  0  0  0  0  0  0  0  0  0
   -1.2762   -6.2857   -0.1398 C   0  0  0  0  0  0  0  0  0  0  0  0
   -0.4059   -5.6972   -1.1829 C   0  0  0  0  0  0  0  0  0  0  0  0
   -0.6769   -5.5768   -2.3797 O   0  0  0  0  0  0  0  0  0  0  0  0
    0.8710   -5.2142   -0.7831 N   0  0  0  0  0  0  0  0  0  0  0  0
    1.8507   -4.6112   -1.6684 C   0  0  0  0  0  0  0  0  0  0  0  0
    1.3310   -3.4285   -2.3962 C   0  0  0  0  0  0  0  0  0  0  0  0
    2.4207   -2.7510   -3.1827 C   0  0  0  0  0  0  0  0  0  0  0  0
    3.4708   -2.2827   -2.2430 N   0  0  0  0  0  0  0  0  0  0  0  0
    3.2214   -1.0512   -1.6051 C   0  0  0  0  0  0  0  0  0  0  0  0
    2.2144   -0.4850   -2.0898 O   0  0  0  0  0  0  0  0  0  0  0  0
    3.9291   -0.3625   -0.5238 C   0  0  1  0  0  0  0  0  0  0  0  0
    3.1243    0.8790   -0.2891 N   0  0  0  0  0  0  0  0  0  0  0  0
    1.7324    0.8208   -0.0333 C   0  0  0  0  0  0  0  0  0  0  0  0
    1.2069   -0.2937    0.0392 O   0  0  0  0  0  0  0  0  0  0  0  0
    3.9890   -1.0623    0.7851 C   0  0  0  0  0  0  0  0  0  0  0  0
    4.7458   -0.2417    1.7941 C   0  0  0  0  0  0  0  0  0  0  0  0
    4.2654    0.5011    2.8416 C   0  0  0  0  0  0  0  0  0  0  0  0
    5.2975    1.0868    3.4995 N   0  0  0  0  0  0  0  0  0  0  0  0
    6.4510    0.7220    2.8754 C   0  0  0  0  0  0  0  0  0  0  0  0
    6.1156   -0.0910    1.8319 C   0  0  0  0  0  0  0  0  0  0  0  0
    7.1520   -0.5821    1.0516 C   0  0  0  0  0  0  0  0  0  0  0  0
    8.4793   -0.2779    1.2964 C   0  0  0  0  0  0  0  0  0  0  0  0
    8.7372    0.5517    2.3715 C   0  0  0  0  0  0  0  0  0  0  0  0
    7.7464    1.0680    3.1800 C   0  0  0  0  0  0  0  0  0  0  0  0
    4.6879   -2.9421   -2.0657 C   0  0  0  0  0  0  0  0  0  0  0  0
    5.7260   -2.4770   -3.0698 C   0  0  0  0  0  0  0  0  0  0  0  0
    6.8421   -3.0156   -2.9735 O   0  0  0  0  0  0  0  0  0  0  0  0
    5.4079   -1.4877   -4.0433 N   0  0  0  0  0  0  0  0  0  0  0  0
   -6.0805   -0.5120    1.7323 C   0  0  0  0  0  0  0  0  0  0  0  0
   -5.4534    0.1741    2.8516 C   0  0  0  0  0  0  0  0  0  0  0  0
   -4.8287   -0.5804    3.8532 C   0  0  0  0  0  0  0  0  0  0  0  0
   -4.2386    0.0450    4.9324 C   0  0  0  0  0  0  0  0  0  0  0  0
   -4.2609    1.4398    5.0320 C   0  0  0  0  0  0  0  0  0  0  0  0
   -4.8827    2.1884    4.0347 C   0  0  0  0  0  0  0  0  0  0  0  0
   -5.4788    1.5503    2.9442 C   0  0  0  0  0  0  0  0  0  0  0  0
   -2.2168    7.1191    2.9059 N   0  0  0  0  0  0  0  0  0  0  0  0
   -2.8669    4.6664    1.2834 H   0  0  0  0  0  0  0  0  0  0  0  0
   -1.7025    5.5428    0.2854 H   0  0  0  0  0  0  0  0  0  0  0  0
    1.4157    4.9262    2.8940 H   0  0  0  0  0  0  0  0  0  0  0  0
    0.2964    3.7630    3.7617 H   0  0  0  0  0  0  0  0  0  0  0  0
    0.3688    4.4574    0.8034 H   0  0  0  0  0  0  0  0  0  0  0  0
   -0.8620    3.3851    1.5193 H   0  0  0  0  0  0  0  0  0  0  0  0
    2.1621    3.1293    1.4451 H   0  0  0  0  0  0  0  0  0  0  0  0
    1.1961    1.9414    2.3333 H   0  0  0  0  0  0  0  0  0  0  0  0
    1.0750    2.7075   -0.6704 H   0  0  0  0  0  0  0  0  0  0  0  0
   -0.9236    0.7511    0.6095 H   0  0  0  0  0  0  0  0  0  0  0  0
   -3.4909    2.4579   -1.0765 H   0  0  0  0  0  0  0  0  0  0  0  0
   -2.1120    0.5718   -3.0486 H   0  0  0  0  0  0  0  0  0  0  0  0
   -3.8511    0.9333   -2.9553 H   0  0  0  0  0  0  0  0  0  0  0  0
   -0.4975    2.0931   -4.0071 H   0  0  0  0  0  0  0  0  0  0  0  0
   -0.1986    4.1296   -5.3607 H   0  0  0  0  0  0  0  0  0  0  0  0
   -2.0650    5.7380   -5.7332 H   0  0  0  0  0  0  0  0  0  0  0  0
   -4.1976    5.2811   -4.7398 H   0  0  0  0  0  0  0  0  0  0  0  0
   -4.5970    3.2774   -3.3645 H   0  0  0  0  0  0  0  0  0  0  0  0
   -2.6966   -0.3971   -0.3335 H   0  0  0  0  0  0  0  0  0  0  0  0
   -5.9704   -1.1748   -0.2494 H   0  0  0  0  0  0  0  0  0  0  0  0
   -3.6294   -1.9716    1.5513 H   0  0  0  0  0  0  0  0  0  0  0  0
   -3.6767   -4.6658    1.2000 H   0  0  0  0  0  0  0  0  0  0  0  0
   -2.3816   -3.8864    0.2813 H   0  0  0  0  0  0  0  0  0  0  0  0
   -3.0462   -4.8445   -1.8236 H   0  0  0  0  0  0  0  0  0  0  0  0
   -4.4940   -5.6187   -1.1277 H   0  0  0  0  0  0  0  0  0  0  0  0
   -3.1900   -7.1052    0.2297 H   0  0  0  0  0  0  0  0  0  0  0  0
   -2.6611   -7.1638   -1.4576 H   0  0  0  0  0  0  0  0  0  0  0  0
   -0.8245   -7.3050    0.0626 H   0  0  0  0  0  0  0  0  0  0  0  0
   -1.1632   -5.7620    0.8374 H   0  0  0  0  0  0  0  0  0  0  0  0
    1.0879   -5.3154    0.2123 H   0  0  0  0  0  0  0  0  0  0  0  0
    2.3588   -5.3628   -2.3129 H   0  0  0  0  0  0  0  0  0  0  0  0
    2.6780   -4.2134   -0.9856 H   0  0  0  0  0  0  0  0  0  0  0  0
    0.4743   -3.6862   -3.0718 H   0  0  0  0  0  0  0  0  0  0  0  0
    0.9560   -2.7107   -1.6264 H   0  0  0  0  0  0  0  0  0  0  0  0
    2.0198   -1.8859   -3.7366 H   0  0  0  0  0  0  0  0  0  0  0  0
    2.8620   -3.4185   -3.9408 H   0  0  0  0  0  0  0  0  0  0  0  0
    4.9192    0.0189   -0.8990 H   0  0  0  0  0  0  0  0  0  0  0  0
    3.5365    1.8075   -0.3003 H   0  0  0  0  0  0  0  0  0  0  0  0
    4.4103   -2.0554    0.7184 H   0  0  0  0  0  0  0  0  0  0  0  0
    2.9526   -1.1704    1.2038 H   0  0  0  0  0  0  0  0  0  0  0  0
    3.2175    0.5823    3.0730 H   0  0  0  0  0  0  0  0  0  0  0  0
    5.2473    1.7143    4.3421 H   0  0  0  0  0  0  0  0  0  0  0  0
    6.8638   -1.2261    0.2255 H   0  0  0  0  0  0  0  0  0  0  0  0
    9.2394   -0.6902    0.6552 H   0  0  0  0  0  0  0  0  0  0  0  0
    9.7754    0.7922    2.5636 H   0  0  0  0  0  0  0  0  0  0  0  0
    7.9645    1.7064    4.0052 H   0  0  0  0  0  0  0  0  0  0  0  0
    5.1947   -2.9867   -1.1310 H   0  0  0  0  0  0  0  0  0  0  0  0
    4.4735   -4.0323   -2.3450 H   0  0  0  0  0  0  0  0  0  0  0  0
    4.6049   -1.6276   -4.6719 H   0  0  0  0  0  0  0  0  0  0  0  0
    6.0035   -0.6190   -4.1061 H   0  0  0  0  0  0  0  0  0  0  0  0
   -6.9319    0.1150    1.3340 H   0  0  0  0  0  0  0  0  0  0  0  0
   -6.5748   -1.4516    2.0538 H   0  0  0  0  0  0  0  0  0  0  0  0
   -4.8224   -1.6556    3.7561 H   0  0  0  0  0  0  0  0  0  0  0  0
   -3.7438   -0.5255    5.7291 H   0  0  0  0  0  0  0  0  0  0  0  0
   -3.8114    1.9681    5.8593 H   0  0  0  0  0  0  0  0  0  0  0  0
   -4.9044    3.2674    4.1053 H   0  0  0  0  0  0  0  0  0  0  0  0
   -5.9391    2.1960    2.2179 H   0  0  0  0  0  0  0  0  0  0  0  0
   -2.3604    7.9259    2.2798 H   0  0  0  0  0  0  0  0  0  0  0  0
   -2.5502    7.0822    3.9085 H   0  0  0  0  0  0  0  0  0  0  0  0
  1  2  1  0
  2  3  2  3
  3  4  1  0
  4  5  1  0
  5  6  1  0
  6  7  1  0
  7  8  1  0
  8  9  1  0
  9 10  2  0
  9 11  1  0
 11 12  1  0
 12 13  1  0
 13 14  2  0
 14 15  1  0
 15 16  2  0
 16 17  1  0
 17 18  2  0
 11 19  1  0
 19 20  1  0
 20 21  2  0
 20 22  1  0
 22 23  1  0
 23 24  1  0
 24 25  2  0
 24 26  1  0
 26 27  1  0
 27 28  1  0
 28 29  1  0
 29 30  1  0
 30 31  2  0
 30 32  1  0
 32 33  1  0
 33 34  1  0
 34 35  1  0
 35 36  1  0
 36 37  1  0
 37 38  2  0
 37 39  1  0
 39 40  1  0
 40 41  1  0
 41 42  2  0
 39 43  1  0
 43 44  1  0
 44 45  2  0
 45 46  1  0
 46 47  1  0
 47 48  2  0
 48 49  1  0
 49 50  2  0
 50 51  1  0
 51 52  2  0
 36 53  1  0
 53 54  1  0
 54 55  2  0
 54 56  1  0
 22 57  1  0
 57 58  1  0
 58 59  2  0
 59 60  1  0
 60 61  2  0
 61 62  1  0
 62 63  2  0
  2 64  1  0
 41  7  1  0
 48 44  1  0
 63 58  1  0
 18 13  1  0
 52 47  1  0
  1 65  1  0
  1 66  1  0
  4 67  1  0
  4 68  1  0
  5 69  1  0
  5 70  1  0
  6 71  1  0
  6 72  1  0
  7 73  1  6
  8 74  1  0
 11 75  1  1
 12 76  1  0
 12 77  1  0
 14 78  1  0
 15 79  1  0
 16 80  1  0
 17 81  1  0
 18 82  1  0
 19 83  1  0
 22 84  1  6
 23 85  1  0
 26 86  1  0
 26 87  1  0
 27 88  1  0
 27 89  1  0
 28 90  1  0
 28 91  1  0
 29 92  1  0
 29 93  1  0
 32 94  1  0
 33 95  1  0
 33 96  1  0
 34 97  1  0
 34 98  1  0
 35 99  1  0
 35100  1  0
 39101  1  6
 40102  1  0
 43103  1  0
 43104  1  0
 45105  1  0
 46106  1  0
 49107  1  0
 50108  1  0
 51109  1  0
 52110  1  0
 53111  1  0
 53112  1  0
 56113  1  0
 56114  1  0
 57115  1  0
 57116  1  0
 59117  1  0
 60118  1  0
 61119  1  0
 62120  1  0
 63121  1  0
 64122  1  0
 64123  1  0
M  END
>  <Ligand ID>  (1) 
LIG0001351

>  <Ligand>  (1) 
CHEMBL271586

>  <SMILES>  (1) 
NC(=NCCC[C@@H]1NC(=O)[C@@H](Cc2ccccc2)NC(=O)[C@@H](NC(=O)CCCCC(=O)NCCCN(C(=O)[C@@H](NC1=O)Cc1c[nH]c2c1cccc2)CC(=O)N)Cc1ccccc1)N

>  <CID>  (1) 
44457067.0

>  <ChEMBL ID>  (1) 
nan

>  <InChiKey>  (1) 
FTHTUSUQUUNCDD-DYLMPHRMSA-N

>  <InChi>  (1) 
InChI=1S/C46H59N11O7/c47-39(58)29-57-24-12-23-50-40(59)20-9-10-21-41(60)53-36(25-30-13-3-1-4-14-30)43(62)55-37(26-31-15-5-2-6-16-31)44(63)54-35(19-11-22-51-46(48)49)42(61)56-38(45(57)64)27-32-28-52-34-18-8-7-17-33(32)34/h1-8,13-18,28,35-38,52H,9-12,19-27,29H2,(H2,47,58)(H,50,59)(H,53,60)(H,54,63)(H,55,62)(H,56,61)(H4,48,49,51)/t35-,36-,37+,38-/m0/s1

>  <IUPAC Name>  (1) 
2-[(2S,5R,8S,11S)-2,5-dibenzyl-8-[3-(diaminomethylideneamino)propyl]-11-(1H-indol-3-ylmethyl)-3,6,9,12,18,23-hexaoxo-1,4,7,10,13,17-hexazacyclotricos-13-yl]acetamide

$$$$
