
     RDKit          3D

 19 20  0  0  0  0  0  0  0  0999 V2000
   -2.4374   -1.0160   -0.0099 C   0  0  0  0  0  0  0  0  0  0  0  0
   -1.4120    0.0033   -0.0505 N   0  0  0  0  0  0  0  0  0  0  0  0
   -1.6253    1.3346   -0.1534 C   0  0  0  0  0  0  0  0  0  0  0  0
   -0.4205    2.0062   -0.1633 C   0  0  0  0  0  0  0  0  0  0  0  0
    0.5504    1.0175   -0.0609 C   0  0  0  0  0  0  0  0  0  0  0  0
   -0.0671   -0.2208    0.0087 C   0  0  0  0  0  0  0  0  0  0  0  0
    0.6785   -1.3919    0.1170 C   0  0  0  0  0  0  0  0  0  0  0  0
    2.0699   -1.3145    0.1560 C   0  0  0  0  0  0  0  0  0  0  0  0
    2.6747   -0.0543    0.0845 C   0  0  0  0  0  0  0  0  0  0  0  0
    1.9247    1.1033   -0.0230 C   0  0  0  0  0  0  0  0  0  0  0  0
   -3.3768   -0.5804   -0.4438 H   0  0  0  0  0  0  0  0  0  0  0  0
   -2.1057   -1.9377   -0.5292 H   0  0  0  0  0  0  0  0  0  0  0  0
   -2.5823   -1.2953    1.0709 H   0  0  0  0  0  0  0  0  0  0  0  0
   -2.5879    1.7905   -0.2171 H   0  0  0  0  0  0  0  0  0  0  0  0
   -0.2902    3.0815   -0.2367 H   0  0  0  0  0  0  0  0  0  0  0  0
    0.1451   -2.3088    0.1661 H   0  0  0  0  0  0  0  0  0  0  0  0
    2.6524   -2.2117    0.2394 H   0  0  0  0  0  0  0  0  0  0  0  0
    3.7538   -0.0556    0.1192 H   0  0  0  0  0  0  0  0  0  0  0  0
    2.4558    2.0501   -0.0743 H   0  0  0  0  0  0  0  0  0  0  0  0
  1  2  1  0
  2  3  1  0
  3  4  2  0
  4  5  1  0
  5  6  2  0
  6  7  1  0
  7  8  2  0
  8  9  1  0
  9 10  2  0
  6  2  1  0
 10  5  1  0
  1 11  1  0
  1 12  1  0
  1 13  1  0
  3 14  1  0
  4 15  1  0
  7 16  1  0
  8 17  1  0
  9 18  1  0
 10 19  1  0
M  END
>  <Ligand ID>  (1) 
LIG0005037

>  <Ligand>  (1) 
1-Methylindole

>  <SMILES>  (1) 
Cn1ccc2c1cccc2

>  <CID>  (1) 
11781.0

>  <ChEMBL ID>  (1) 
nan

>  <InChiKey>  (1) 
BLRHMMGNCXNXJL-UHFFFAOYSA-N

>  <InChi>  (1) 
InChI=1S/C9H9N/c1-10-7-6-8-4-2-3-5-9(8)10/h2-7H,1H3

>  <IUPAC Name>  (1) 
1-methylindole

$$$$
