
     RDKit          3D

 33 34  0  0  0  0  0  0  0  0999 V2000
   -2.4958   -2.0501   -0.6387 O   0  0  0  0  0  0  0  0  0  0  0  0
   -1.3382   -1.8286   -1.3304 C   0  0  0  0  0  0  0  0  0  0  0  0
   -1.1836   -2.4800   -2.4208 O   0  0  0  0  0  0  0  0  0  0  0  0
   -0.2576   -0.9051   -0.9242 C   0  0  1  0  0  0  0  0  0  0  0  0
   -0.6185    0.5200   -0.9652 C   0  0  0  0  0  0  0  0  0  0  0  0
   -1.7204    0.9729   -0.1812 N   0  0  0  0  0  0  0  0  0  0  0  0
   -1.8281    1.4167    1.0276 O   0  0  0  0  0  0  0  0  0  0  0  0
   -3.0670    1.7174    1.3156 C   0  0  0  0  0  0  0  0  0  0  0  0
   -3.4279    2.1709    2.4368 O   0  0  0  0  0  0  0  0  0  0  0  0
   -3.8372    1.4620    0.2408 N   0  0  0  0  0  0  0  0  0  0  0  0
   -2.9991    0.9989   -0.6901 C   0  0  0  0  0  0  0  0  0  0  0  0
   -3.3673    0.6522   -1.8423 O   0  0  0  0  0  0  0  0  0  0  0  0
    0.4589   -1.2895    0.3351 C   0  0  0  0  0  0  0  0  0  0  0  0
    1.5489   -0.4090    0.7513 C   0  0  0  0  0  0  0  0  0  0  0  0
    1.4760    0.6374    1.6280 C   0  0  0  0  0  0  0  0  0  0  0  0
    2.5735    1.4132    1.9387 C   0  0  0  0  0  0  0  0  0  0  0  0
    3.7953    1.1722    1.3822 C   0  0  0  0  0  0  0  0  0  0  0  0
    3.9044    0.1235    0.4936 C   0  0  0  0  0  0  0  0  0  0  0  0
    2.8092   -0.6484    0.1851 C   0  0  0  0  0  0  0  0  0  0  0  0
    0.7644   -1.0845   -1.9939 N   0  0  0  0  0  0  0  0  0  0  0  0
   -3.0700   -2.8785   -0.7134 H   0  0  0  0  0  0  0  0  0  0  0  0
    0.2605    1.1449   -0.6365 H   0  0  0  0  0  0  0  0  0  0  0  0
   -0.7685    0.8570   -2.0339 H   0  0  0  0  0  0  0  0  0  0  0  0
   -4.8741    1.6107    0.1900 H   0  0  0  0  0  0  0  0  0  0  0  0
   -0.2522   -1.3428    1.2149 H   0  0  0  0  0  0  0  0  0  0  0  0
    0.8718   -2.3247    0.2771 H   0  0  0  0  0  0  0  0  0  0  0  0
    0.5562    0.8630    2.0964 H   0  0  0  0  0  0  0  0  0  0  0  0
    2.4466    2.2393    2.6508 H   0  0  0  0  0  0  0  0  0  0  0  0
    4.6320    1.8111    1.6578 H   0  0  0  0  0  0  0  0  0  0  0  0
    4.8693   -0.0852    0.0393 H   0  0  0  0  0  0  0  0  0  0  0  0
    2.9375   -1.4600   -0.5155 H   0  0  0  0  0  0  0  0  0  0  0  0
    0.2648   -0.8809   -2.8799 H   0  0  0  0  0  0  0  0  0  0  0  0
    0.9363   -2.1160   -2.0006 H   0  0  0  0  0  0  0  0  0  0  0  0
  1  2  1  0
  2  3  2  0
  2  4  1  0
  4  5  1  0
  5  6  1  0
  6  7  1  0
  7  8  1  0
  8  9  2  0
  8 10  1  0
 10 11  1  0
 11 12  2  0
  4 13  1  0
 13 14  1  0
 14 15  2  0
 15 16  1  0
 16 17  2  0
 17 18  1  0
 18 19  2  0
  4 20  1  6
 11  6  1  0
 19 14  1  0
  1 21  1  0
  5 22  1  0
  5 23  1  0
 10 24  1  0
 13 25  1  0
 13 26  1  0
 15 27  1  0
 16 28  1  0
 17 29  1  0
 18 30  1  0
 19 31  1  0
 20 32  1  0
 20 33  1  0
M  END
>  <Ligand ID>  (1) 
LIG0001246

>  <Ligand>  (1) 
CHEMBL140862

>  <SMILES>  (1) 
OC(=O)[C@@](Cn1oc(=O)[nH]c1=O)(Cc1ccccc1)N

>  <CID>  (1) 
44359778.0

>  <ChEMBL ID>  (1) 
nan

>  <InChiKey>  (1) 
OUHGALDVLBUQRI-LBPRGKRZSA-N

>  <InChi>  (1) 
InChI=1S/C12H13N3O5/c13-12(9(16)17,6-8-4-2-1-3-5-8)7-15-10(18)14-11(19)20-15/h1-5H,6-7,13H2,(H,16,17)(H,14,18,19)/t12-/m0/s1

>  <IUPAC Name>  (1) 
(2S)-2-amino-2-benzyl-3-(3,5-dioxo-1,2,4-oxadiazolidin-2-yl)propanoic acid

$$$$
