
     RDKit          3D

 33 34  0  0  0  0  0  0  0  0999 V2000
   -4.8379    1.0641    0.4926 C   0  0  0  0  0  0  0  0  0  0  0  0
   -4.0697   -0.0335    0.4107 C   0  0  0  0  0  0  0  0  0  0  0  0
   -2.6298    0.0695    0.7385 C   0  0  0  0  0  0  0  0  0  0  0  0
   -1.7537   -0.2759   -0.3600 N   0  0  0  0  0  0  0  0  0  0  0  0
   -1.7957   -1.6449   -0.6883 C   0  0  0  0  0  0  0  0  0  0  0  0
   -0.5773   -2.2048   -1.3560 C   0  0  0  0  0  0  0  0  0  0  0  0
    0.4098   -1.2115   -1.6116 O   0  0  0  0  0  0  0  0  0  0  0  0
    0.6637   -0.6940   -0.3451 C   0  0  0  0  0  0  0  0  0  0  0  0
   -0.4572    0.2676   -0.0434 C   0  0  0  0  0  0  0  0  0  0  0  0
    1.9482    0.0159   -0.2074 C   0  0  0  0  0  0  0  0  0  0  0  0
    3.0649   -0.5437   -0.8079 C   0  0  0  0  0  0  0  0  0  0  0  0
    4.2957    0.1086   -0.6662 C   0  0  0  0  0  0  0  0  0  0  0  0
    4.3599    1.2839    0.0657 C   0  0  0  0  0  0  0  0  0  0  0  0
    3.2672    1.8596    0.6708 C   0  0  0  0  0  0  0  0  0  0  0  0
    2.0497    1.1951    0.5163 C   0  0  0  0  0  0  0  0  0  0  0  0
    3.3293    3.0391    1.4042 O   0  0  0  0  0  0  0  0  0  0  0  0
   -5.8837    1.0388    0.2660 H   0  0  0  0  0  0  0  0  0  0  0  0
   -4.4173    2.0324    0.7974 H   0  0  0  0  0  0  0  0  0  0  0  0
   -4.5356   -0.9545    0.1060 H   0  0  0  0  0  0  0  0  0  0  0  0
   -2.4100    1.1296    1.0607 H   0  0  0  0  0  0  0  0  0  0  0  0
   -2.3533   -0.5470    1.6144 H   0  0  0  0  0  0  0  0  0  0  0  0
   -2.0710   -2.2236    0.2406 H   0  0  0  0  0  0  0  0  0  0  0  0
   -2.6809   -1.8185   -1.3556 H   0  0  0  0  0  0  0  0  0  0  0  0
   -0.7607   -2.8551   -2.2167 H   0  0  0  0  0  0  0  0  0  0  0  0
   -0.0573   -2.8494   -0.5774 H   0  0  0  0  0  0  0  0  0  0  0  0
    0.6652   -1.5530    0.3846 H   0  0  0  0  0  0  0  0  0  0  0  0
   -0.4106    0.4952    1.0505 H   0  0  0  0  0  0  0  0  0  0  0  0
   -0.2864    1.1750   -0.6752 H   0  0  0  0  0  0  0  0  0  0  0  0
    3.0433   -1.4449   -1.3750 H   0  0  0  0  0  0  0  0  0  0  0  0
    5.2020   -0.3003   -1.1329 H   0  0  0  0  0  0  0  0  0  0  0  0
    5.3183    1.8149    0.1879 H   0  0  0  0  0  0  0  0  0  0  0  0
    1.2082    1.6569    0.9974 H   0  0  0  0  0  0  0  0  0  0  0  0
    3.1627    2.9086    2.4145 H   0  0  0  0  0  0  0  0  0  0  0  0
  1  2  2  0
  2  3  1  0
  3  4  1  0
  4  5  1  0
  5  6  1  0
  6  7  1  0
  7  8  1  0
  8  9  1  0
  8 10  1  0
 10 11  2  0
 11 12  1  0
 12 13  2  0
 13 14  1  0
 14 15  2  0
 14 16  1  0
  9  4  1  0
 15 10  1  0
  1 17  1  0
  1 18  1  0
  2 19  1  0
  3 20  1  0
  3 21  1  0
  5 22  1  0
  5 23  1  0
  6 24  1  0
  6 25  1  0
  8 26  1  0
  9 27  1  0
  9 28  1  0
 11 29  1  0
 12 30  1  0
 13 31  1  0
 15 32  1  0
 16 33  1  0
M  END
>  <Ligand ID>  (1) 
LIG0005643

>  <Ligand>  (1) 
CHEMBL398480

>  <SMILES>  (1) 
C=CCN1CCOC(C1)c1cccc(c1)O

>  <CID>  (1) 
44443903.0

>  <ChEMBL ID>  (1) 
nan

>  <InChiKey>  (1) 
ABXIURKZPIWOPL-UHFFFAOYSA-N

>  <InChi>  (1) 
InChI=1S/C13H17NO2/c1-2-6-14-7-8-16-13(10-14)11-4-3-5-12(15)9-11/h2-5,9,13,15H,1,6-8,10H2

>  <IUPAC Name>  (1) 
3-(4-prop-2-enylmorpholin-2-yl)phenol

$$$$
