
     RDKit          3D

 22 22  0  0  0  0  0  0  0  0999 V2000
   -2.6943   -1.4468    0.5075 C   0  0  0  0  0  0  0  0  0  0  0  0
   -2.1763   -0.0900    0.0147 C   0  0  0  0  0  0  0  0  0  0  0  0
   -0.6931   -0.1433    0.0532 C   0  0  0  0  0  0  0  0  0  0  0  0
   -0.0209   -1.2400    0.4656 N   0  0  0  0  0  0  0  0  0  0  0  0
    1.3364   -1.2734    0.4953 C   0  0  0  0  0  0  0  0  0  0  0  0
    2.0569   -0.1618    0.0952 C   0  0  0  0  0  0  0  0  0  0  0  0
    1.3971    0.9415   -0.3195 N   0  0  0  0  0  0  0  0  0  0  0  0
    0.0322    0.9734   -0.3487 C   0  0  0  0  0  0  0  0  0  0  0  0
   -0.5922    2.2219   -0.8163 C   0  0  0  0  0  0  0  0  0  0  0  0
    3.5567   -0.1564    0.1124 C   0  0  0  0  0  0  0  0  0  0  0  0
   -2.5151   -2.2308   -0.2568 H   0  0  0  0  0  0  0  0  0  0  0  0
   -2.1636   -1.7714    1.4268 H   0  0  0  0  0  0  0  0  0  0  0  0
   -3.7762   -1.3884    0.7615 H   0  0  0  0  0  0  0  0  0  0  0  0
   -2.5597   -0.0038   -1.0356 H   0  0  0  0  0  0  0  0  0  0  0  0
   -2.6262    0.7300    0.5681 H   0  0  0  0  0  0  0  0  0  0  0  0
    1.8900   -2.1420    0.8222 H   0  0  0  0  0  0  0  0  0  0  0  0
   -0.1161    3.1477   -0.4017 H   0  0  0  0  0  0  0  0  0  0  0  0
   -1.6434    2.2637   -0.4791 H   0  0  0  0  0  0  0  0  0  0  0  0
   -0.4984    2.2662   -1.9182 H   0  0  0  0  0  0  0  0  0  0  0  0
    3.9626   -0.0673   -0.9272 H   0  0  0  0  0  0  0  0  0  0  0  0
    3.9176   -1.1257    0.4891 H   0  0  0  0  0  0  0  0  0  0  0  0
    3.9260    0.6965    0.6915 H   0  0  0  0  0  0  0  0  0  0  0  0
  1  2  1  0
  2  3  1  0
  3  4  2  0
  4  5  1  0
  5  6  2  0
  6  7  1  0
  7  8  2  0
  8  9  1  0
  6 10  1  0
  8  3  1  0
  1 11  1  0
  1 12  1  0
  1 13  1  0
  2 14  1  0
  2 15  1  0
  5 16  1  0
  9 17  1  0
  9 18  1  0
  9 19  1  0
 10 20  1  0
 10 21  1  0
 10 22  1  0
M  END
>  <Ligand ID>  (1) 
LIG0005013

>  <Ligand>  (1) 
2-Ethyl-3,5-dimethylpyrazine

>  <SMILES>  (1) 
CCc1ncc(nc1C)C

>  <CID>  (1) 
26334.0

>  <ChEMBL ID>  (1) 
nan

>  <InChiKey>  (1) 
JZBCTZLGKSYRSF-UHFFFAOYSA-N

>  <InChi>  (1) 
InChI=1S/C8H12N2/c1-4-8-7(3)10-6(2)5-9-8/h5H,4H2,1-3H3

>  <IUPAC Name>  (1) 
2-ethyl-3,5-dimethylpyrazine

$$$$
