
     RDKit          3D

 48 52  0  0  0  0  0  0  0  0999 V2000
   -7.8218    2.2810    2.3474 F   0  0  0  0  0  0  0  0  0  0  0  0
   -6.6152    1.7991    2.0270 C   0  0  0  0  0  0  0  0  0  0  0  0
   -5.8071    2.5663    1.2018 C   0  0  0  0  0  0  0  0  0  0  0  0
   -4.5606    2.1012    0.8524 C   0  0  0  0  0  0  0  0  0  0  0  0
   -4.0865    0.8681    1.3113 C   0  0  0  0  0  0  0  0  0  0  0  0
   -4.8720    0.1108    2.1201 C   0  0  0  0  0  0  0  0  0  0  0  0
   -6.1192    0.5897    2.4620 C   0  0  0  0  0  0  0  0  0  0  0  0
   -4.4033   -1.0763    2.5558 F   0  0  0  0  0  0  0  0  0  0  0  0
   -2.7788    0.5025    0.8763 N   0  0  0  0  0  0  0  0  0  0  0  0
   -1.6664    0.3861    1.5935 N   0  0  0  0  0  0  0  0  0  0  0  0
   -0.6219    0.0189    0.8269 C   0  0  0  0  0  0  0  0  0  0  0  0
   -1.0874   -0.1100   -0.4654 C   0  0  0  0  0  0  0  0  0  0  0  0
   -2.4363    0.2005   -0.3890 C   0  0  0  0  0  0  0  0  0  0  0  0
   -3.0417    0.0885   -1.7579 C   0  0  2  0  0  0  0  0  0  0  0  0
   -3.1226   -1.2879   -2.2628 C   0  0  0  0  0  0  0  0  0  0  0  0
   -1.9915   -0.4082   -2.6469 C   0  0  2  0  0  0  0  0  0  0  0  0
   -0.7023   -0.4434   -1.8528 C   0  0  0  0  0  0  0  0  0  0  0  0
    0.7312   -0.1864    1.3433 C   0  0  0  0  0  0  0  0  0  0  0  0
    0.9330   -0.0142    2.5556 O   0  0  0  0  0  0  0  0  0  0  0  0
    1.7899   -0.5737    0.4796 N   0  0  0  0  0  0  0  0  0  0  0  0
    3.1136   -0.7713    1.0035 C   0  0  0  0  0  0  0  0  0  0  0  0
    3.9906   -1.1752   -0.1777 C   0  0  0  0  0  0  0  0  0  0  0  0
    3.9466   -0.0483   -1.1823 C   0  0  0  0  0  0  0  0  0  0  0  0
    5.3844    0.3577   -1.4563 C   0  0  0  0  0  0  0  0  0  0  0  0
    5.9035    0.8081   -0.2553 O   0  0  0  0  0  0  0  0  0  0  0  0
    6.0873   -0.2126    0.6610 C   0  0  0  0  0  0  0  0  0  0  0  0
    5.3561   -1.4767    0.3438 C   0  0  0  0  0  0  0  0  0  0  0  0
   -6.1205    3.5334    0.8132 H   0  0  0  0  0  0  0  0  0  0  0  0
   -3.9378    2.7185    0.2018 H   0  0  0  0  0  0  0  0  0  0  0  0
   -6.7424   -0.0138    3.1051 H   0  0  0  0  0  0  0  0  0  0  0  0
   -3.7013    0.8799   -2.1286 H   0  0  0  0  0  0  0  0  0  0  0  0
   -3.8685   -1.4420   -3.0869 H   0  0  0  0  0  0  0  0  0  0  0  0
   -2.9189   -2.1652   -1.6180 H   0  0  0  0  0  0  0  0  0  0  0  0
   -1.9353    0.0275   -3.6780 H   0  0  0  0  0  0  0  0  0  0  0  0
   -0.0033    0.2857   -2.3137 H   0  0  0  0  0  0  0  0  0  0  0  0
   -0.2674   -1.4624   -1.9285 H   0  0  0  0  0  0  0  0  0  0  0  0
    1.5301   -0.6977   -0.5344 H   0  0  0  0  0  0  0  0  0  0  0  0
    3.4607    0.2081    1.4139 H   0  0  0  0  0  0  0  0  0  0  0  0
    3.1783   -1.5196    1.8126 H   0  0  0  0  0  0  0  0  0  0  0  0
    3.4946   -2.0488   -0.6489 H   0  0  0  0  0  0  0  0  0  0  0  0
    3.4364    0.8604   -0.7539 H   0  0  0  0  0  0  0  0  0  0  0  0
    3.4100   -0.3294   -2.1114 H   0  0  0  0  0  0  0  0  0  0  0  0
    5.9792   -0.4870   -1.8369 H   0  0  0  0  0  0  0  0  0  0  0  0
    5.4349    1.2005   -2.1763 H   0  0  0  0  0  0  0  0  0  0  0  0
    5.7488    0.1599    1.6464 H   0  0  0  0  0  0  0  0  0  0  0  0
    7.1939   -0.4101    0.7521 H   0  0  0  0  0  0  0  0  0  0  0  0
    5.9152   -2.1447   -0.3415 H   0  0  0  0  0  0  0  0  0  0  0  0
    5.2117   -2.0474    1.2975 H   0  0  0  0  0  0  0  0  0  0  0  0
  1  2  1  0
  2  3  2  0
  3  4  1  0
  4  5  2  0
  5  6  1  0
  6  7  2  0
  6  8  1  0
  5  9  1  0
  9 10  1  0
 10 11  2  0
 11 12  1  0
 12 13  2  0
 13 14  1  0
 14 15  1  0
 15 16  1  0
 16 17  1  0
 11 18  1  0
 18 19  2  0
 18 20  1  0
 20 21  1  0
 21 22  1  0
 22 23  1  0
 23 24  1  0
 24 25  1  0
 25 26  1  0
 26 27  1  0
  7  2  1  0
 13  9  1  0
 16 14  1  0
 27 22  1  0
 17 12  1  0
  3 28  1  0
  4 29  1  0
  7 30  1  0
 14 31  1  6
 15 32  1  0
 15 33  1  0
 16 34  1  6
 17 35  1  0
 17 36  1  0
 20 37  1  0
 21 38  1  0
 21 39  1  0
 22 40  1  0
 23 41  1  0
 23 42  1  0
 24 43  1  0
 24 44  1  0
 26 45  1  0
 26 46  1  0
 27 47  1  0
 27 48  1  0
M  END
>  <Ligand ID>  (1) 
LIG0001390

>  <Ligand>  (1) 
CHEMBL3354959

>  <SMILES>  (1) 
Fc1ccc(c(c1)F)n1nc(c2c1[C@@H]1C[C@@H]1C2)C(=O)NCC1CCOCC1

>  <CID>  (1) 
118720569.0

>  <ChEMBL ID>  (1) 
nan

>  <InChiKey>  (1) 
BIMFLDLUJSAALT-TZMCWYRMSA-N

>  <InChi>  (1) 
InChI=1S/C20H21F2N3O2/c21-13-1-2-17(16(22)9-13)25-19-14-7-12(14)8-15(19)18(24-25)20(26)23-10-11-3-5-27-6-4-11/h1-2,9,11-12,14H,3-8,10H2,(H,23,26)/t12-,14-/m1/s1

>  <IUPAC Name>  (1) 
(2R,4R)-9-(2,4-difluorophenyl)-N-(oxan-4-ylmethyl)-8,9-diazatricyclo[4.3.0.02,4]nona-1(6),7-diene-7-carboxamide

$$$$
