
     RDKit          3D

 71 73  0  0  0  0  0  0  0  0999 V2000
   -7.4243   -2.5372   -0.4678 C   0  0  0  0  0  0  0  0  0  0  0  0
   -6.7385   -3.1756    0.6217 N   0  0  0  0  0  0  0  0  0  0  0  0
   -5.9606   -2.2451    1.3793 C   0  0  0  0  0  0  0  0  0  0  0  0
   -4.7769   -1.7066    0.6110 C   0  0  0  0  0  0  0  0  0  0  0  0
   -4.0335   -0.7396    1.5076 C   0  0  0  0  0  0  0  0  0  0  0  0
   -2.8594   -0.1982    0.8124 N   0  0  0  0  0  0  0  0  0  0  0  0
   -1.6248   -0.8794    0.9229 C   0  0  0  0  0  0  0  0  0  0  0  0
   -1.5695   -1.9248    1.6455 O   0  0  0  0  0  0  0  0  0  0  0  0
   -0.3934   -0.4873    0.2746 C   0  0  0  0  0  0  0  0  0  0  0  0
    0.3400    0.6279    0.5523 C   0  0  0  0  0  0  0  0  0  0  0  0
    1.5157    0.9113   -0.1164 C   0  0  0  0  0  0  0  0  0  0  0  0
    1.9990    0.0824   -1.0901 C   0  0  0  0  0  0  0  0  0  0  0  0
    1.2440   -1.0576   -1.3706 C   0  0  0  0  0  0  0  0  0  0  0  0
    0.0859   -1.3454   -0.7191 C   0  0  0  0  0  0  0  0  0  0  0  0
    3.4528    0.3247   -1.9871 S   0  0  0  0  0  0  0  0  0  0  0  0
    3.6576    1.7771   -2.3064 O   0  0  0  0  0  0  0  0  0  0  0  0
    3.3388   -0.3827   -3.3062 O   0  0  0  0  0  0  0  0  0  0  0  0
    4.7959   -0.3447   -1.1461 N   0  0  0  0  0  0  0  0  0  0  0  0
    5.7332    0.6328   -0.7019 C   0  0  0  0  0  0  0  0  0  0  0  0
    7.0017    0.4349   -1.4908 C   0  0  0  0  0  0  0  0  0  0  0  0
    8.2109    0.1403   -0.6528 C   0  0  0  0  0  0  0  0  0  0  0  0
    7.8126   -0.8673    0.4015 C   0  0  0  0  0  0  0  0  0  0  0  0
    6.9207   -0.1642    1.3869 C   0  0  0  0  0  0  0  0  0  0  0  0
    5.9516    0.7722    0.7550 C   0  0  0  0  0  0  0  0  0  0  0  0
    4.4521   -1.3878   -0.2371 C   0  0  0  0  0  0  0  0  0  0  0  0
   -2.9949    1.0216    0.0151 C   0  0  0  0  0  0  0  0  0  0  0  0
   -3.2430    1.4525   -1.0101 N   0  0  0  0  0  0  0  0  0  0  0  0
   -3.2820    2.6895   -1.4652 C   0  0  0  0  0  0  0  0  0  0  0  0
   -2.9680    3.6345   -0.5413 C   0  0  0  0  0  0  0  0  0  0  0  0
   -2.6246    2.6554    0.9742 S   0  0  0  0  0  0  0  0  0  0  0  0
   -2.9271    5.0021   -0.7369 C   0  0  0  0  0  0  0  0  0  0  0  0
   -3.2412    5.4592   -2.0161 C   0  0  0  0  0  0  0  0  0  0  0  0
   -3.5600    4.5132   -2.9578 C   0  0  0  0  0  0  0  0  0  0  0  0
   -3.5961    3.1652   -2.7490 C   0  0  0  0  0  0  0  0  0  0  0  0
   -3.2114    6.7898   -2.2565 F   0  0  0  0  0  0  0  0  0  0  0  0
   -7.6474   -3.8669    1.4797 C   0  0  0  0  0  0  0  0  0  0  0  0
    0.6837    0.0000    0.0000 Cl  0  0  0  0  0  0  0  0  0  0  0  0
   -7.7683   -1.5371   -0.1930 H   0  0  0  0  0  0  0  0  0  0  0  0
   -6.7409   -2.4225   -1.3503 H   0  0  0  0  0  0  0  0  0  0  0  0
   -8.3247   -3.0908   -0.8075 H   0  0  0  0  0  0  0  0  0  0  0  0
   -6.5163   -1.3902    1.7912 H   0  0  0  0  0  0  0  0  0  0  0  0
   -5.5198   -2.7872    2.2721 H   0  0  0  0  0  0  0  0  0  0  0  0
   -4.1223   -2.5200    0.2852 H   0  0  0  0  0  0  0  0  0  0  0  0
   -5.1613   -1.1041   -0.2445 H   0  0  0  0  0  0  0  0  0  0  0  0
   -4.6970    0.1084    1.7744 H   0  0  0  0  0  0  0  0  0  0  0  0
   -3.7094   -1.2041    2.4515 H   0  0  0  0  0  0  0  0  0  0  0  0
    0.0004    1.2973    1.3072 H   0  0  0  0  0  0  0  0  0  0  0  0
    2.0763    1.7950    0.1176 H   0  0  0  0  0  0  0  0  0  0  0  0
    1.5885   -1.7435   -2.1345 H   0  0  0  0  0  0  0  0  0  0  0  0
   -0.4473   -2.2326   -0.9789 H   0  0  0  0  0  0  0  0  0  0  0  0
    5.3081    1.6263   -1.0462 H   0  0  0  0  0  0  0  0  0  0  0  0
    6.9114   -0.4145   -2.2318 H   0  0  0  0  0  0  0  0  0  0  0  0
    7.2552    1.3072   -2.1340 H   0  0  0  0  0  0  0  0  0  0  0  0
    8.9654   -0.3557   -1.3283 H   0  0  0  0  0  0  0  0  0  0  0  0
    8.6386    1.0420   -0.1644 H   0  0  0  0  0  0  0  0  0  0  0  0
    8.7672   -1.1964    0.8889 H   0  0  0  0  0  0  0  0  0  0  0  0
    7.3614   -1.7579   -0.0420 H   0  0  0  0  0  0  0  0  0  0  0  0
    7.6265    0.4083    2.0615 H   0  0  0  0  0  0  0  0  0  0  0  0
    6.4705   -0.9132    2.0832 H   0  0  0  0  0  0  0  0  0  0  0  0
    4.9736    0.7904    1.2787 H   0  0  0  0  0  0  0  0  0  0  0  0
    6.3494    1.8212    0.9135 H   0  0  0  0  0  0  0  0  0  0  0  0
    4.4594   -1.1332    0.8194 H   0  0  0  0  0  0  0  0  0  0  0  0
    5.0779   -2.2875   -0.5099 H   0  0  0  0  0  0  0  0  0  0  0  0
    3.4170   -1.7226   -0.4655 H   0  0  0  0  0  0  0  0  0  0  0  0
   -2.6639    5.6453    0.0732 H   0  0  0  0  0  0  0  0  0  0  0  0
   -3.8067    4.8908   -3.9616 H   0  0  0  0  0  0  0  0  0  0  0  0
   -3.8596    2.5307   -3.5596 H   0  0  0  0  0  0  0  0  0  0  0  0
   -7.7608   -4.9390    1.2114 H   0  0  0  0  0  0  0  0  0  0  0  0
   -8.6639   -3.4184    1.3971 H   0  0  0  0  0  0  0  0  0  0  0  0
   -7.3204   -3.8682    2.5437 H   0  0  0  0  0  0  0  0  0  0  0  0
   -0.6837    0.0000    0.0000 H   0  0  0  0  0  0  0  0  0  0  0  0
  1  2  1  0
  2  3  1  0
  3  4  1  0
  4  5  1  0
  5  6  1  0
  6  7  1  0
  7  8  2  0
  7  9  1  0
  9 10  2  0
 10 11  1  0
 11 12  2  0
 12 13  1  0
 13 14  2  0
 12 15  1  0
 15 16  2  0
 15 17  2  0
 15 18  1  0
 18 19  1  0
 19 20  1  0
 20 21  1  0
 21 22  1  0
 22 23  1  0
 23 24  1  0
 18 25  1  0
  6 26  1  0
 26 27  2  0
 27 28  1  0
 28 29  2  0
 29 30  1  0
 29 31  1  0
 31 32  2  0
 32 33  1  0
 33 34  2  0
 32 35  1  0
  2 36  1  0
 14  9  1  0
 24 19  1  0
 30 26  1  0
 34 28  1  0
  1 38  1  0
  1 39  1  0
  1 40  1  0
  3 41  1  0
  3 42  1  0
  4 43  1  0
  4 44  1  0
  5 45  1  0
  5 46  1  0
 10 47  1  0
 11 48  1  0
 13 49  1  0
 14 50  1  0
 19 51  1  0
 20 52  1  0
 20 53  1  0
 21 54  1  0
 21 55  1  0
 22 56  1  0
 22 57  1  0
 23 58  1  0
 23 59  1  0
 24 60  1  0
 24 61  1  0
 25 62  1  0
 25 63  1  0
 25 64  1  0
 31 65  1  0
 33 66  1  0
 34 67  1  0
 36 68  1  0
 36 69  1  0
 36 70  1  0
 37 71  1  0
M  END
>  <Ligand ID>  (1) 
LIG0004545

>  <Ligand>  (1) 
MLS001239290

>  <SMILES>  (1) 
CN(CCCN(C(=O)c1ccc(cc1)S(=O)(=O)N(C1CCCCC1)C)c1nc2c(s1)cc(cc2)F)C.Cl

>  <CID>  (1) 
24891945.0

>  <ChEMBL ID>  (1) 
nan

>  <InChiKey>  (1) 
RNKYYMRONVXRAY-UHFFFAOYSA-N

>  <InChi>  (1) 
InChI=1S/C26H33FN4O3S2.ClH/c1-29(2)16-7-17-31(26-28-23-15-12-20(27)18-24(23)35-26)25(32)19-10-13-22(14-11-19)36(33,34)30(3)21-8-5-4-6-9-21;/h10-15,18,21H,4-9,16-17H2,1-3H3;1H

>  <IUPAC Name>  (1) 
4-[cyclohexyl(methyl)sulfamoyl]-N-[3-(dimethylamino)propyl]-N-(6-fluoro-1,3-benzothiazol-2-yl)benzamide;hydrochloride

$$$$
