
     RDKit          3D

 38 40  0  0  0  0  0  0  0  0999 V2000
   -4.6483    1.4845    0.6525 C   0  0  0  0  0  0  0  0  0  0  0  0
   -4.2312    0.4579   -0.3705 C   0  0  0  0  0  0  0  0  0  0  0  0
   -2.8967    0.7369   -0.8231 N   0  0  0  0  0  0  0  0  0  0  0  0
   -2.7118    1.4770   -1.9519 N   0  0  0  0  0  0  0  0  0  0  0  0
   -1.3941    1.5623   -2.1963 C   0  0  0  0  0  0  0  0  0  0  0  0
   -0.8171    0.8772   -1.2161 N   0  0  0  0  0  0  0  0  0  0  0  0
   -1.7022    0.3542   -0.3495 C   0  0  0  0  0  0  0  0  0  0  0  0
   -1.3408   -0.4497    0.8002 C   0  0  0  0  0  0  0  0  0  0  0  0
   -2.2364   -0.9311    1.7314 C   0  0  0  0  0  0  0  0  0  0  0  0
   -1.8718   -1.6650    2.8512 C   0  0  0  0  0  0  0  0  0  0  0  0
   -0.5520   -1.9447    3.0747 C   0  0  0  0  0  0  0  0  0  0  0  0
    0.3525   -1.4727    2.1581 C   0  0  0  0  0  0  0  0  0  0  0  0
   -0.0124   -0.7306    1.0242 C   0  0  0  0  0  0  0  0  0  0  0  0
    1.0713   -0.3510    0.1927 N   0  0  0  0  0  0  0  0  0  0  0  0
    2.4538   -0.7137    0.5514 C   0  0  0  0  0  0  0  0  0  0  0  0
    3.4407   -0.2372   -0.4245 C   0  0  0  0  0  0  0  0  0  0  0  0
    4.4171    0.5676   -0.1950 N   0  0  0  0  0  0  0  0  0  0  0  0
    5.1793    0.8128   -1.3893 C   0  0  0  0  0  0  0  0  0  0  0  0
    4.2569    0.3788   -2.4983 C   0  0  0  0  0  0  0  0  0  0  0  0
    3.4468   -0.6170   -1.8029 N   0  0  0  0  0  0  0  0  0  0  0  0
   -4.6992    2.5136    0.1941 H   0  0  0  0  0  0  0  0  0  0  0  0
   -5.6742    1.3025    1.0312 H   0  0  0  0  0  0  0  0  0  0  0  0
   -3.9764    1.5464    1.5307 H   0  0  0  0  0  0  0  0  0  0  0  0
   -4.9577    0.6814   -1.2527 H   0  0  0  0  0  0  0  0  0  0  0  0
   -4.4608   -0.5429   -0.0348 H   0  0  0  0  0  0  0  0  0  0  0  0
   -0.8793    2.0697   -3.0053 H   0  0  0  0  0  0  0  0  0  0  0  0
   -3.2769   -0.7466    1.6501 H   0  0  0  0  0  0  0  0  0  0  0  0
   -2.6088   -2.0236    3.5558 H   0  0  0  0  0  0  0  0  0  0  0  0
   -0.2373   -2.5120    3.9350 H   0  0  0  0  0  0  0  0  0  0  0  0
    1.3902   -1.7024    2.3491 H   0  0  0  0  0  0  0  0  0  0  0  0
    1.0172    0.1786   -0.6953 H   0  0  0  0  0  0  0  0  0  0  0  0
    2.6648   -0.3061    1.5557 H   0  0  0  0  0  0  0  0  0  0  0  0
    2.4905   -1.8206    0.6247 H   0  0  0  0  0  0  0  0  0  0  0  0
    5.4722    1.8900   -1.4891 H   0  0  0  0  0  0  0  0  0  0  0  0
    6.0788    0.1496   -1.3861 H   0  0  0  0  0  0  0  0  0  0  0  0
    3.6380    1.2315   -2.8281 H   0  0  0  0  0  0  0  0  0  0  0  0
    4.8506   -0.0606   -3.3303 H   0  0  0  0  0  0  0  0  0  0  0  0
    2.9646   -1.4451   -2.2235 H   0  0  0  0  0  0  0  0  0  0  0  0
  1  2  1  0
  2  3  1  0
  3  4  1  0
  4  5  2  0
  5  6  1  0
  6  7  2  0
  7  8  1  0
  8  9  2  0
  9 10  1  0
 10 11  2  0
 11 12  1  0
 12 13  2  0
 13 14  1  0
 14 15  1  0
 15 16  1  0
 16 17  2  0
 17 18  1  0
 18 19  1  0
 19 20  1  0
  7  3  1  0
 13  8  1  0
 20 16  1  0
  1 21  1  0
  1 22  1  0
  1 23  1  0
  2 24  1  0
  2 25  1  0
  5 26  1  0
  9 27  1  0
 10 28  1  0
 11 29  1  0
 12 30  1  0
 14 31  1  0
 15 32  1  0
 15 33  1  0
 18 34  1  0
 18 35  1  0
 19 36  1  0
 19 37  1  0
 20 38  1  0
M  END
>  <Ligand ID>  (1) 
LIG0004388

>  <Ligand>  (1) 
CHEMBL273316

>  <SMILES>  (1) 
CCn1ncnc1c1ccccc1NCC1=NCCN1

>  <CID>  (1) 
22493263.0

>  <ChEMBL ID>  (1) 
nan

>  <InChiKey>  (1) 
KJZVGIURRPLUKJ-UHFFFAOYSA-N

>  <InChi>  (1) 
InChI=1S/C14H18N6/c1-2-20-14(18-10-19-20)11-5-3-4-6-12(11)17-9-13-15-7-8-16-13/h3-6,10,17H,2,7-9H2,1H3,(H,15,16)

>  <IUPAC Name>  (1) 
N-(4,5-dihydro-1H-imidazol-2-ylmethyl)-2-(2-ethyl-1,2,4-triazol-3-yl)aniline

$$$$
