
     RDKit          3D

 93 96  0  0  0  0  0  0  0  0999 V2000
   -3.5917    5.4727   -0.1339 N   0  0  0  0  0  0  0  0  0  0  0  0
   -3.0292    6.1798   -1.2461 C   0  0  0  0  0  0  0  0  0  0  0  0
   -2.0678    5.6995   -1.9273 N   0  0  0  0  0  0  0  0  0  0  0  0
   -1.4803    4.3707   -1.5966 C   0  0  0  0  0  0  0  0  0  0  0  0
   -0.5886    4.4997   -0.4257 C   0  0  0  0  0  0  0  0  0  0  0  0
    0.1370    3.3271    0.0778 C   0  0  0  0  0  0  0  0  0  0  0  0
   -0.4659    2.1446    0.6720 C   0  0  1  0  0  0  0  0  0  0  0  0
   -1.4100    1.2849   -0.0086 C   0  0  0  0  0  0  0  0  0  0  0  0
   -0.9315    0.1718   -0.4632 O   0  0  0  0  0  0  0  0  0  0  0  0
   -2.7881    1.4674   -0.2449 N   0  0  0  0  0  0  0  0  0  0  0  0
   -3.5264    0.4248   -0.9493 C   0  0  2  0  0  0  0  0  0  0  0  0
   -4.3701    1.0457   -1.9754 C   0  0  0  0  0  0  0  0  0  0  0  0
   -4.4981    2.2767   -2.1718 O   0  0  0  0  0  0  0  0  0  0  0  0
   -5.1339    0.2015   -2.8559 N   0  0  0  0  0  0  0  0  0  0  0  0
   -4.4448   -0.2904    0.0605 C   0  0  0  0  0  0  0  0  0  0  0  0
   -5.2057   -1.3597   -0.6109 C   0  0  0  0  0  0  0  0  0  0  0  0
   -6.5458   -1.2510   -0.9375 C   0  0  0  0  0  0  0  0  0  0  0  0
   -6.9576   -2.3772   -1.5274 N   0  0  0  0  0  0  0  0  0  0  0  0
   -5.8987   -3.2165   -1.5870 C   0  0  0  0  0  0  0  0  0  0  0  0
   -4.7975   -2.6087   -1.0246 C   0  0  0  0  0  0  0  0  0  0  0  0
   -3.5780   -3.2466   -0.9536 C   0  0  0  0  0  0  0  0  0  0  0  0
   -3.4969   -4.5314   -1.4719 C   0  0  0  0  0  0  0  0  0  0  0  0
   -4.6009   -5.1418   -2.0363 C   0  0  0  0  0  0  0  0  0  0  0  0
   -5.8246   -4.5117   -2.1115 C   0  0  0  0  0  0  0  0  0  0  0  0
    0.7331    1.2336    1.0251 N   0  0  0  0  0  0  0  0  0  0  0  0
    0.8260    0.7366    2.3371 C   0  0  0  0  0  0  0  0  0  0  0  0
   -0.0346    1.0085    3.2137 O   0  0  0  0  0  0  0  0  0  0  0  0
    1.9977   -0.1373    2.6529 C   0  0  1  0  0  0  0  0  0  0  0  0
    2.9337   -0.2628    1.5605 N   0  0  0  0  0  0  0  0  0  0  0  0
    3.2380   -1.4586    0.8818 C   0  0  0  0  0  0  0  0  0  0  0  0
    2.6754   -2.5448    1.2025 O   0  0  0  0  0  0  0  0  0  0  0  0
    4.2277   -1.4164   -0.2079 C   0  0  2  0  0  0  0  0  0  0  0  0
    4.0580   -0.3965   -1.2521 C   0  0  0  0  0  0  0  0  0  0  0  0
    2.8018   -0.4584   -2.0273 C   0  0  0  0  0  0  0  0  0  0  0  0
    1.7582   -1.2957   -1.9535 N   0  0  0  0  0  0  0  0  0  0  0  0
    0.8589   -0.9218   -2.9083 C   0  0  0  0  0  0  0  0  0  0  0  0
    1.3322    0.1361   -3.5718 N   0  0  0  0  0  0  0  0  0  0  0  0
    2.5188    0.4361   -3.0492 C   0  0  0  0  0  0  0  0  0  0  0  0
    4.4410   -2.7146   -0.8206 N   0  0  0  0  0  0  0  0  0  0  0  0
    5.6948   -3.4142   -0.6698 C   0  0  0  0  0  0  0  0  0  0  0  0
    6.6238   -2.8919    0.0044 O   0  0  0  0  0  0  0  0  0  0  0  0
    5.9299   -4.7411   -1.2878 C   0  0  0  0  0  0  0  0  0  0  0  0
    2.7179    0.4670    3.8206 C   0  0  0  0  0  0  0  0  0  0  0  0
    3.9110   -0.2755    4.2618 C   0  0  0  0  0  0  0  0  0  0  0  0
    3.7442   -1.2732    5.2296 C   0  0  0  0  0  0  0  0  0  0  0  0
    4.8163   -2.0110    5.6976 C   0  0  0  0  0  0  0  0  0  0  0  0
    6.0869   -1.7864    5.2245 C   0  0  0  0  0  0  0  0  0  0  0  0
    6.2575   -0.8103    4.2763 C   0  0  0  0  0  0  0  0  0  0  0  0
    5.1861   -0.0515    3.7880 C   0  0  0  0  0  0  0  0  0  0  0  0
   -3.5389    7.4514   -1.6202 N   0  0  0  0  0  0  0  0  0  0  0  0
   -3.4366    5.8925    0.8036 H   0  0  0  0  0  0  0  0  0  0  0  0
   -4.1216    4.5869   -0.3024 H   0  0  0  0  0  0  0  0  0  0  0  0
   -0.9385    4.1102   -2.5418 H   0  0  0  0  0  0  0  0  0  0  0  0
   -2.3486    3.7254   -1.5253 H   0  0  0  0  0  0  0  0  0  0  0  0
   -1.2000    4.9937    0.3921 H   0  0  0  0  0  0  0  0  0  0  0  0
    0.2116    5.2615   -0.7443 H   0  0  0  0  0  0  0  0  0  0  0  0
    0.7228    2.9353   -0.8548 H   0  0  0  0  0  0  0  0  0  0  0  0
    1.0452    3.6617    0.7019 H   0  0  0  0  0  0  0  0  0  0  0  0
   -0.8837    2.3588    1.6818 H   0  0  0  0  0  0  0  0  0  0  0  0
   -3.2221    2.3406    0.1113 H   0  0  0  0  0  0  0  0  0  0  0  0
   -2.8469   -0.3459   -1.3136 H   0  0  0  0  0  0  0  0  0  0  0  0
   -4.8014   -0.7087   -3.2013 H   0  0  0  0  0  0  0  0  0  0  0  0
   -6.0857    0.5149   -3.1762 H   0  0  0  0  0  0  0  0  0  0  0  0
   -5.0960    0.4406    0.5583 H   0  0  0  0  0  0  0  0  0  0  0  0
   -3.8505   -0.7650    0.8714 H   0  0  0  0  0  0  0  0  0  0  0  0
   -7.1708   -0.3731   -0.7396 H   0  0  0  0  0  0  0  0  0  0  0  0
   -7.9292   -2.5459   -1.8678 H   0  0  0  0  0  0  0  0  0  0  0  0
   -2.7653   -2.7232   -0.5062 H   0  0  0  0  0  0  0  0  0  0  0  0
   -2.5593   -5.0456   -1.4275 H   0  0  0  0  0  0  0  0  0  0  0  0
   -4.5387   -6.1384   -2.4379 H   0  0  0  0  0  0  0  0  0  0  0  0
   -6.7088   -4.9338   -2.5351 H   0  0  0  0  0  0  0  0  0  0  0  0
    1.4055    1.0448    0.2530 H   0  0  0  0  0  0  0  0  0  0  0  0
    1.5365   -1.1277    2.9143 H   0  0  0  0  0  0  0  0  0  0  0  0
    3.4166    0.6264    1.2641 H   0  0  0  0  0  0  0  0  0  0  0  0
    5.2169   -1.2129    0.3225 H   0  0  0  0  0  0  0  0  0  0  0  0
    4.2607    0.6474   -0.9304 H   0  0  0  0  0  0  0  0  0  0  0  0
    4.8699   -0.5836   -2.0189 H   0  0  0  0  0  0  0  0  0  0  0  0
    1.6442   -2.0889   -1.2900 H   0  0  0  0  0  0  0  0  0  0  0  0
   -0.0946   -1.4077   -3.1004 H   0  0  0  0  0  0  0  0  0  0  0  0
    3.1597    1.2581   -3.3809 H   0  0  0  0  0  0  0  0  0  0  0  0
    3.7307   -3.2169   -1.3923 H   0  0  0  0  0  0  0  0  0  0  0  0
    6.8868   -4.6536   -1.8753 H   0  0  0  0  0  0  0  0  0  0  0  0
    6.1313   -5.5025   -0.5228 H   0  0  0  0  0  0  0  0  0  0  0  0
    5.1338   -5.0074   -2.0117 H   0  0  0  0  0  0  0  0  0  0  0  0
    3.0411    1.5096    3.6344 H   0  0  0  0  0  0  0  0  0  0  0  0
    2.0404    0.5390    4.7162 H   0  0  0  0  0  0  0  0  0  0  0  0
    2.7295   -1.4639    5.6171 H   0  0  0  0  0  0  0  0  0  0  0  0
    4.5892   -2.7577    6.4436 H   0  0  0  0  0  0  0  0  0  0  0  0
    6.9101   -2.3817    5.6123 H   0  0  0  0  0  0  0  0  0  0  0  0
    7.2658   -0.6493    3.9166 H   0  0  0  0  0  0  0  0  0  0  0  0
    5.3400    0.7130    3.0389 H   0  0  0  0  0  0  0  0  0  0  0  0
   -4.5731    7.6516   -1.6523 H   0  0  0  0  0  0  0  0  0  0  0  0
   -2.8173    8.1822   -1.8634 H   0  0  0  0  0  0  0  0  0  0  0  0
  1  2  1  0
  2  3  2  3
  3  4  1  0
  4  5  1  0
  5  6  1  0
  6  7  1  0
  7  8  1  0
  8  9  2  0
  8 10  1  0
 10 11  1  0
 11 12  1  0
 12 13  2  0
 12 14  1  0
 11 15  1  0
 15 16  1  0
 16 17  2  0
 17 18  1  0
 18 19  1  0
 19 20  2  0
 20 21  1  0
 21 22  2  0
 22 23  1  0
 23 24  2  0
  7 25  1  0
 25 26  1  0
 26 27  2  0
 26 28  1  0
 28 29  1  0
 29 30  1  0
 30 31  2  0
 30 32  1  0
 32 33  1  0
 33 34  1  0
 34 35  1  0
 35 36  1  0
 36 37  2  0
 37 38  1  0
 32 39  1  0
 39 40  1  0
 40 41  2  0
 40 42  1  0
 28 43  1  0
 43 44  1  0
 44 45  2  0
 45 46  1  0
 46 47  2  0
 47 48  1  0
 48 49  2  0
  2 50  1  0
 20 16  1  0
 38 34  2  0
 49 44  1  0
 24 19  1  0
  1 51  1  0
  1 52  1  0
  4 53  1  0
  4 54  1  0
  5 55  1  0
  5 56  1  0
  6 57  1  0
  6 58  1  0
  7 59  1  1
 10 60  1  0
 11 61  1  6
 14 62  1  0
 14 63  1  0
 15 64  1  0
 15 65  1  0
 17 66  1  0
 18 67  1  0
 21 68  1  0
 22 69  1  0
 23 70  1  0
 24 71  1  0
 25 72  1  0
 28 73  1  1
 29 74  1  0
 32 75  1  1
 33 76  1  0
 33 77  1  0
 35 78  1  0
 36 79  1  0
 38 80  1  0
 39 81  1  0
 42 82  1  0
 42 83  1  0
 42 84  1  0
 43 85  1  0
 43 86  1  0
 45 87  1  0
 46 88  1  0
 47 89  1  0
 48 90  1  0
 49 91  1  0
 50 92  1  0
 50 93  1  0
M  END
>  <Ligand ID>  (1) 
LIG0000589

>  <Ligand>  (1) 
Ac-His-Phe-Arg-Trp-NH2

>  <SMILES>  (1) 
NC(=NCCC[C@@H](C(=O)N[C@H](C(=O)N)Cc1c[nH]c2c1cccc2)NC(=O)[C@@H](NC(=O)[C@H](Cc1[nH]cnc1)NC(=O)C)Cc1ccccc1)N

>  <CID>  (1) 
10484741.0

>  <ChEMBL ID>  (1) 
nan

>  <InChiKey>  (1) 
DFCJPPDAOZROBS-DZUOILHNSA-N

>  <InChi>  (1) 
InChI=1S/C34H43N11O5/c1-20(46)42-29(16-23-18-38-19-41-23)33(50)45-28(14-21-8-3-2-4-9-21)32(49)43-26(12-7-13-39-34(36)37)31(48)44-27(30(35)47)15-22-17-40-25-11-6-5-10-24(22)25/h2-6,8-11,17-19,26-29,40H,7,12-16H2,1H3,(H2,35,47)(H,38,41)(H,42,46)(H,43,49)(H,44,48)(H,45,50)(H4,36,37,39)/t26-,27-,28-,29-/m0/s1

>  <IUPAC Name>  (1) 
(2S)-2-[[(2S)-2-[[(2S)-2-acetamido-3-(1H-imidazol-5-yl)propanoyl]amino]-3-phenylpropanoyl]amino]-N-[(2S)-1-amino-3-(1H-indol-3-yl)-1-oxopropan-2-yl]-5-(diaminomethylideneamino)pentanamide

$$$$
