
     RDKit          3D

 69 72  0  0  0  0  0  0  0  0999 V2000
   -3.2105   -1.2625   -1.1144 O   0  0  0  0  0  0  0  0  0  0  0  0
   -3.0005   -0.1589   -0.3667 C   0  0  2  0  0  0  0  0  0  0  0  0
   -3.9554    0.9413   -0.6878 C   0  0  0  0  0  0  0  0  0  0  0  0
   -5.2448    0.6327   -0.4782 O   0  0  0  0  0  0  0  0  0  0  0  0
   -6.2449   -0.1527   -0.8679 C   0  0  0  0  0  0  0  0  0  0  0  0
   -6.2623   -1.0984   -1.8604 C   0  0  0  0  0  0  0  0  0  0  0  0
   -7.3635   -1.8652   -2.1902 C   0  0  0  0  0  0  0  0  0  0  0  0
   -8.5284   -1.6887   -1.4964 C   0  0  0  0  0  0  0  0  0  0  0  0
   -8.5726   -0.7534   -0.4896 C   0  0  0  0  0  0  0  0  0  0  0  0
   -7.4710   -0.0006   -0.1739 C   0  0  0  0  0  0  0  0  0  0  0  0
   -7.8008    0.9232    0.9460 C   0  0  0  0  0  0  0  0  0  0  0  0
   -7.0085    0.6022    2.1890 C   0  0  0  0  0  0  0  0  0  0  0  0
   -9.2193    0.5979    1.2179 C   0  0  0  0  0  0  0  0  0  0  0  0
   -9.8820    1.1860    2.1258 O   0  0  0  0  0  0  0  0  0  0  0  0
   -9.6808   -0.4203    0.3439 N   0  0  0  0  0  0  0  0  0  0  0  0
   -1.5543    0.3129   -0.3697 C   0  0  0  0  0  0  0  0  0  0  0  0
   -0.7586   -0.7492    0.1559 N   0  0  0  0  0  0  0  0  0  0  0  0
    0.6585   -0.4947    0.2206 C   0  0  0  0  0  0  0  0  0  0  0  0
    0.9175    0.6763    1.0995 C   0  0  0  0  0  0  0  0  0  0  0  0
    2.3609    1.0157    1.2299 C   0  0  0  0  0  0  0  0  0  0  0  0
    3.1738    0.4816    2.2093 C   0  0  0  0  0  0  0  0  0  0  0  0
    4.5183    0.8064    2.3220 C   0  0  0  0  0  0  0  0  0  0  0  0
    5.0637    1.7069    1.4086 C   0  0  0  0  0  0  0  0  0  0  0  0
    4.2656    2.2653    0.4045 C   0  0  0  0  0  0  0  0  0  0  0  0
    2.9372    1.9026    0.3453 C   0  0  0  0  0  0  0  0  0  0  0  0
    6.4109    2.0520    1.4970 O   0  0  0  0  0  0  0  0  0  0  0  0
    7.4266    1.3834    0.8483 C   0  0  0  0  0  0  0  0  0  0  0  0
    7.0889    0.3079    0.0625 C   0  0  0  0  0  0  0  0  0  0  0  0
    8.0274   -0.4323   -0.6315 C   0  0  0  0  0  0  0  0  0  0  0  0
    9.3597   -0.0536   -0.5135 C   0  0  0  0  0  0  0  0  0  0  0  0
    9.6741    1.0274    0.2796 C   0  0  0  0  0  0  0  0  0  0  0  0
    8.7281    1.7210    0.9387 N   0  0  0  0  0  0  0  0  0  0  0  0
   10.4345   -0.7587   -1.1990 C   0  0  0  0  0  0  0  0  0  0  0  0
   11.6460   -0.4072   -1.0811 O   0  0  0  0  0  0  0  0  0  0  0  0
   10.0775   -1.8742   -2.0201 N   0  0  0  0  0  0  0  0  0  0  0  0
    1.2552   -0.3331   -1.1652 C   0  0  0  0  0  0  0  0  0  0  0  0
    1.2875   -1.7393    0.8179 C   0  0  0  0  0  0  0  0  0  0  0  0
   -2.8705   -2.0651   -0.6467 H   0  0  0  0  0  0  0  0  0  0  0  0
   -3.1995   -0.4205    0.7214 H   0  0  0  0  0  0  0  0  0  0  0  0
   -3.6993    1.8717   -0.0809 H   0  0  0  0  0  0  0  0  0  0  0  0
   -3.8527    1.2498   -1.7838 H   0  0  0  0  0  0  0  0  0  0  0  0
   -5.3844   -1.2722   -2.4645 H   0  0  0  0  0  0  0  0  0  0  0  0
   -7.3285   -2.6024   -2.9839 H   0  0  0  0  0  0  0  0  0  0  0  0
   -9.3757   -2.2909   -1.7629 H   0  0  0  0  0  0  0  0  0  0  0  0
   -7.6484    1.9861    0.6883 H   0  0  0  0  0  0  0  0  0  0  0  0
   -7.6863    0.6600    3.0702 H   0  0  0  0  0  0  0  0  0  0  0  0
   -6.5928   -0.4224    2.1962 H   0  0  0  0  0  0  0  0  0  0  0  0
   -6.2088    1.3579    2.3818 H   0  0  0  0  0  0  0  0  0  0  0  0
  -10.6299   -0.8132    0.3417 H   0  0  0  0  0  0  0  0  0  0  0  0
   -1.2130    0.7191   -1.3174 H   0  0  0  0  0  0  0  0  0  0  0  0
   -1.5349    1.1548    0.3784 H   0  0  0  0  0  0  0  0  0  0  0  0
   -1.0516   -1.0501    1.1111 H   0  0  0  0  0  0  0  0  0  0  0  0
    0.3826    1.5905    0.8466 H   0  0  0  0  0  0  0  0  0  0  0  0
    0.5964    0.3831    2.1336 H   0  0  0  0  0  0  0  0  0  0  0  0
    2.7800   -0.2078    2.9182 H   0  0  0  0  0  0  0  0  0  0  0  0
    5.1055    0.3559    3.1100 H   0  0  0  0  0  0  0  0  0  0  0  0
    4.7353    2.9577   -0.2783 H   0  0  0  0  0  0  0  0  0  0  0  0
    2.3350    2.3424   -0.4353 H   0  0  0  0  0  0  0  0  0  0  0  0
    6.0414    0.0120   -0.0287 H   0  0  0  0  0  0  0  0  0  0  0  0
    7.7621   -1.2745   -1.2468 H   0  0  0  0  0  0  0  0  0  0  0  0
   10.6932    1.3686    0.4097 H   0  0  0  0  0  0  0  0  0  0  0  0
   10.3345   -1.9409   -3.0251 H   0  0  0  0  0  0  0  0  0  0  0  0
    9.5304   -2.6794   -1.6196 H   0  0  0  0  0  0  0  0  0  0  0  0
    2.3547   -0.4787   -1.1522 H   0  0  0  0  0  0  0  0  0  0  0  0
    0.8505   -1.0830   -1.8744 H   0  0  0  0  0  0  0  0  0  0  0  0
    0.9446    0.6522   -1.6010 H   0  0  0  0  0  0  0  0  0  0  0  0
    1.2534   -1.7632    1.9213 H   0  0  0  0  0  0  0  0  0  0  0  0
    2.3122   -1.9363    0.4239 H   0  0  0  0  0  0  0  0  0  0  0  0
    0.7111   -2.6612    0.5095 H   0  0  0  0  0  0  0  0  0  0  0  0
  1  2  1  0
  2  3  1  0
  3  4  1  0
  4  5  1  0
  5  6  2  0
  6  7  1  0
  7  8  2  0
  8  9  1  0
  9 10  2  0
 10 11  1  0
 11 12  1  0
 11 13  1  0
 13 14  2  0
 13 15  1  0
  2 16  1  0
 16 17  1  0
 17 18  1  0
 18 19  1  0
 19 20  1  0
 20 21  2  0
 21 22  1  0
 22 23  2  0
 23 24  1  0
 24 25  2  0
 23 26  1  0
 26 27  1  0
 27 28  2  0
 28 29  1  0
 29 30  2  0
 30 31  1  0
 31 32  2  0
 30 33  1  0
 33 34  2  0
 33 35  1  0
 18 36  1  0
 18 37  1  0
 10  5  1  0
 25 20  1  0
 32 27  1  0
 15  9  1  0
  1 38  1  0
  2 39  1  1
  3 40  1  0
  3 41  1  0
  6 42  1  0
  7 43  1  0
  8 44  1  0
 11 45  1  0
 12 46  1  0
 12 47  1  0
 12 48  1  0
 15 49  1  0
 16 50  1  0
 16 51  1  0
 17 52  1  0
 19 53  1  0
 19 54  1  0
 21 55  1  0
 22 56  1  0
 24 57  1  0
 25 58  1  0
 28 59  1  0
 29 60  1  0
 31 61  1  0
 35 62  1  0
 35 63  1  0
 36 64  1  0
 36 65  1  0
 36 66  1  0
 37 67  1  0
 37 68  1  0
 37 69  1  0
M  END
>  <Ligand ID>  (1) 
LIG0003991

>  <Ligand>  (1) 
CHEMBL404626

>  <SMILES>  (1) 
O[C@H](COc1cccc2c1C(C)C(=O)N2)CNC(Cc1ccc(cc1)Oc1ccc(cn1)C(=O)N)(C)C

>  <CID>  (1) 
44444154.0

>  <ChEMBL ID>  (1) 
nan

>  <InChiKey>  (1) 
WAMWYZOEWMINIF-OZBJMMHXSA-N

>  <InChi>  (1) 
InChI=1S/C28H32N4O5/c1-17-25-22(32-27(17)35)5-4-6-23(25)36-16-20(33)15-31-28(2,3)13-18-7-10-21(11-8-18)37-24-12-9-19(14-30-24)26(29)34/h4-12,14,17,20,31,33H,13,15-16H2,1-3H3,(H2,29,34)(H,32,35)/t17?,20-/m0/s1

>  <IUPAC Name>  (1) 
6-[4-[2-[[(2S)-2-hydroxy-3-[(3-methyl-2-oxo-1,3-dihydroindol-4-yl)oxy]propyl]amino]-2-methylpropyl]phenoxy]pyridine-3-carboxamide

$$$$
