
     RDKit          3D

 32 32  0  0  0  0  0  0  0  0999 V2000
   -3.8034   -0.4070    1.4072 C   0  0  0  0  0  0  0  0  0  0  0  0
   -3.2000    0.3404    0.2193 C   0  0  0  0  0  0  0  0  0  0  0  0
   -1.9996    0.9550    0.4658 N   0  0  0  0  0  0  0  0  0  0  0  0
   -0.7398    0.3831    0.6087 C   0  0  0  0  0  0  0  0  0  0  0  0
   -0.0249   -0.1154   -0.5995 C   0  0  0  0  0  0  0  0  0  0  0  0
    1.4510   -0.1621   -0.4942 C   0  0  0  0  0  0  0  0  0  0  0  0
    2.1914   -0.1742   -1.6842 C   0  0  0  0  0  0  0  0  0  0  0  0
    3.5752   -0.1604   -1.5722 C   0  0  0  0  0  0  0  0  0  0  0  0
    4.1979   -0.1368   -0.3491 C   0  0  0  0  0  0  0  0  0  0  0  0
    3.4802   -0.1279    0.8268 C   0  0  0  0  0  0  0  0  0  0  0  0
    2.0818   -0.1411    0.7400 C   0  0  0  0  0  0  0  0  0  0  0  0
    4.1127   -0.1099    2.0759 O   0  0  0  0  0  0  0  0  0  0  0  0
    5.6063   -0.1179   -0.2785 O   0  0  0  0  0  0  0  0  0  0  0  0
   -0.5229   -1.1651   -1.3034 O   0  0  0  0  0  0  0  0  0  0  0  0
   -3.3725   -0.5358   -0.9881 C   0  0  0  0  0  0  0  0  0  0  0  0
   -3.1564   -1.2575    1.6288 H   0  0  0  0  0  0  0  0  0  0  0  0
   -3.9159    0.3151    2.2568 H   0  0  0  0  0  0  0  0  0  0  0  0
   -4.8113   -0.7264    1.0935 H   0  0  0  0  0  0  0  0  0  0  0  0
   -3.9643    1.1759    0.0347 H   0  0  0  0  0  0  0  0  0  0  0  0
   -2.1681    1.7949    1.1000 H   0  0  0  0  0  0  0  0  0  0  0  0
   -0.0717    1.0850    1.1819 H   0  0  0  0  0  0  0  0  0  0  0  0
   -0.8263   -0.5086    1.3073 H   0  0  0  0  0  0  0  0  0  0  0  0
   -0.1281    0.8422   -1.3221 H   0  0  0  0  0  0  0  0  0  0  0  0
    1.6691   -0.1860   -2.6263 H   0  0  0  0  0  0  0  0  0  0  0  0
    4.1870   -0.1544   -2.4789 H   0  0  0  0  0  0  0  0  0  0  0  0
    1.4870   -0.1345    1.6679 H   0  0  0  0  0  0  0  0  0  0  0  0
    3.6520    0.1420    2.9292 H   0  0  0  0  0  0  0  0  0  0  0  0
    6.0620    0.6322    0.2151 H   0  0  0  0  0  0  0  0  0  0  0  0
   -0.5348   -0.9844   -2.2667 H   0  0  0  0  0  0  0  0  0  0  0  0
   -3.0968   -1.5678   -0.7082 H   0  0  0  0  0  0  0  0  0  0  0  0
   -4.4853   -0.6183   -1.1856 H   0  0  0  0  0  0  0  0  0  0  0  0
   -2.9315   -0.1352   -1.9022 H   0  0  0  0  0  0  0  0  0  0  0  0
  1  2  1  0
  2  3  1  0
  3  4  1  0
  4  5  1  0
  5  6  1  0
  6  7  2  0
  7  8  1  0
  8  9  2  0
  9 10  1  0
 10 11  2  0
 10 12  1  0
  9 13  1  0
  5 14  1  0
  2 15  1  0
 11  6  1  0
  1 16  1  0
  1 17  1  0
  1 18  1  0
  2 19  1  0
  3 20  1  0
  4 21  1  0
  4 22  1  0
  5 23  1  0
  7 24  1  0
  8 25  1  0
 11 26  1  0
 12 27  1  0
 13 28  1  0
 14 29  1  0
 15 30  1  0
 15 31  1  0
 15 32  1  0
M  END
>  <Ligand ID>  (1) 
LIG0000717

>  <Ligand>  (1) 
isoprenaline

>  <SMILES>  (1) 
CC(NCC(c1ccc(c(c1)O)O)O)C

>  <CID>  (1) 
3779.0

>  <ChEMBL ID>  (1) 
nan

>  <InChiKey>  (1) 
JWZZKOKVBUJMES-UHFFFAOYSA-N

>  <InChi>  (1) 
InChI=1S/C11H17NO3/c1-7(2)12-6-11(15)8-3-4-9(13)10(14)5-8/h3-5,7,11-15H,6H2,1-2H3

>  <IUPAC Name>  (1) 
4-[1-hydroxy-2-(propan-2-ylamino)ethyl]benzene-1,2-diol

$$$$
