
     RDKit          3D

 31 32  0  0  0  0  0  0  0  0999 V2000
    4.6338    0.0894    0.0128 C   0  0  0  0  0  0  0  0  0  0  0  0
    3.6492   -0.2997   -0.8940 O   0  0  0  0  0  0  0  0  0  0  0  0
    2.2783   -0.1784   -0.7141 C   0  0  0  0  0  0  0  0  0  0  0  0
    1.7045    0.3581    0.4180 C   0  0  0  0  0  0  0  0  0  0  0  0
    0.3232    0.4158    0.4591 C   0  0  0  0  0  0  0  0  0  0  0  0
   -0.0751    1.0273    1.7652 C   0  0  0  0  0  0  0  0  0  0  0  0
   -1.5750    1.1472    1.8462 C   0  0  0  0  0  0  0  0  0  0  0  0
   -2.1336   -0.1554    1.8578 N   0  0  0  0  0  0  0  0  0  0  0  0
   -2.4512   -0.7310    0.6066 C   0  0  0  0  0  0  0  0  0  0  0  0
   -1.9434   -0.0114   -0.6093 C   0  0  1  0  0  0  0  0  0  0  0  0
   -0.4655   -0.0321   -0.5637 C   0  0  0  0  0  0  0  0  0  0  0  0
    0.1178   -0.5574   -1.6709 C   0  0  0  0  0  0  0  0  0  0  0  0
    1.4899   -0.6429   -1.7730 C   0  0  0  0  0  0  0  0  0  0  0  0
    2.2832   -1.3876   -3.3446 Br  0  0  0  0  0  0  0  0  0  0  0  0
   -2.4827   -0.7638   -1.8097 C   0  0  0  0  0  0  0  0  0  0  0  0
    5.5278   -0.5950   -0.0398 H   0  0  0  0  0  0  0  0  0  0  0  0
    4.2974    0.2412    1.0427 H   0  0  0  0  0  0  0  0  0  0  0  0
    5.0422    1.0754   -0.3497 H   0  0  0  0  0  0  0  0  0  0  0  0
    2.3185    0.7063    1.2132 H   0  0  0  0  0  0  0  0  0  0  0  0
    0.3342    2.0743    1.8411 H   0  0  0  0  0  0  0  0  0  0  0  0
    0.2758    0.4321    2.6340 H   0  0  0  0  0  0  0  0  0  0  0  0
   -1.7876    1.6349    2.8402 H   0  0  0  0  0  0  0  0  0  0  0  0
   -1.9763    1.8483    1.1070 H   0  0  0  0  0  0  0  0  0  0  0  0
   -2.8621   -0.3231    2.5774 H   0  0  0  0  0  0  0  0  0  0  0  0
   -3.5506   -0.8999    0.4445 H   0  0  0  0  0  0  0  0  0  0  0  0
   -2.0042   -1.7493    0.5844 H   0  0  0  0  0  0  0  0  0  0  0  0
   -2.3441    1.0058   -0.7214 H   0  0  0  0  0  0  0  0  0  0  0  0
   -0.4731   -0.9223   -2.5009 H   0  0  0  0  0  0  0  0  0  0  0  0
   -3.6010   -0.7877   -1.6522 H   0  0  0  0  0  0  0  0  0  0  0  0
   -2.3638   -0.1993   -2.7544 H   0  0  0  0  0  0  0  0  0  0  0  0
   -2.1863   -1.8198   -1.8523 H   0  0  0  0  0  0  0  0  0  0  0  0
  1  2  1  0
  2  3  1  0
  3  4  2  0
  4  5  1  0
  5  6  1  0
  6  7  1  0
  7  8  1  0
  8  9  1  0
  9 10  1  0
 10 11  1  0
 11 12  1  0
 12 13  2  0
 13 14  1  0
 10 15  1  0
 13  3  1  0
 11  5  2  0
  1 16  1  0
  1 17  1  0
  1 18  1  0
  4 19  1  0
  6 20  1  0
  6 21  1  0
  7 22  1  0
  7 23  1  0
  8 24  1  0
  9 25  1  0
  9 26  1  0
 10 27  1  1
 12 28  1  0
 15 29  1  0
 15 30  1  0
 15 31  1  0
M  END
>  <Ligand ID>  (1) 
LIG0002315

>  <Ligand>  (1) 
CHEMBL180867

>  <SMILES>  (1) 
COc1cc2CCNC[C@@H](c2cc1Br)C

>  <CID>  (1) 
44389645.0

>  <ChEMBL ID>  (1) 
nan

>  <InChiKey>  (1) 
HQQAIJWQKAFMGF-QMMMGPOBSA-N

>  <InChi>  (1) 
InChI=1S/C12H16BrNO/c1-8-7-14-4-3-9-5-12(15-2)11(13)6-10(8)9/h5-6,8,14H,3-4,7H2,1-2H3/t8-/m0/s1

>  <IUPAC Name>  (1) 
(5R)-7-bromo-8-methoxy-5-methyl-2,3,4,5-tetrahydro-1H-3-benzazepine

$$$$
