
     RDKit          3D

 46 46  0  0  0  0  0  0  0  0999 V2000
    4.3887   -1.2766    0.8121 O   0  0  0  0  0  0  0  0  0  0  0  0
    3.0549   -0.7264    0.8402 C   0  0  0  0  0  0  0  0  0  0  0  0
    3.0494    0.3858   -0.1597 C   0  0  0  0  0  0  0  0  0  0  0  0
    1.8735    1.3037    0.0512 C   0  0  0  0  0  0  0  0  0  0  0  0
    1.6802    2.2898   -1.0517 C   0  0  0  0  0  0  0  0  0  0  0  0
    0.3330    3.0565   -0.8679 C   0  0  0  0  0  0  0  0  0  0  0  0
   -0.7691    2.0584   -0.9076 C   0  0  0  0  0  0  0  0  0  0  0  0
   -2.1283    2.5973   -0.6357 C   0  0  0  0  0  0  0  0  0  0  0  0
   -3.1123    1.3551   -0.6729 C   0  0  0  0  0  0  0  0  0  0  0  0
   -2.4055    0.2354   -0.0336 C   0  0  0  0  0  0  0  0  0  0  0  0
   -3.2192   -1.0154    0.1757 C   0  0  0  0  0  0  0  0  0  0  0  0
   -2.1397   -2.0865    0.6371 C   0  0  0  0  0  0  0  0  0  0  0  0
   -1.3477   -2.4827   -0.5579 C   0  0  0  0  0  0  0  0  0  0  0  0
    0.0361   -2.9341   -0.2274 C   0  0  0  0  0  0  0  0  0  0  0  0
    0.8211   -1.6587    0.2008 C   0  0  0  0  0  0  0  0  0  0  0  0
    2.2488   -1.9388    0.3910 C   0  0  0  0  0  0  0  0  0  0  0  0
    4.8827   -0.9464    1.6101 H   0  0  0  0  0  0  0  0  0  0  0  0
    2.8146   -0.4132    1.8440 H   0  0  0  0  0  0  0  0  0  0  0  0
    3.0169   -0.0426   -1.2020 H   0  0  0  0  0  0  0  0  0  0  0  0
    4.0197    0.9512   -0.1385 H   0  0  0  0  0  0  0  0  0  0  0  0
    2.2324    1.9804    0.9678 H   0  0  0  0  0  0  0  0  0  0  0  0
    0.9911    0.8824    0.4706 H   0  0  0  0  0  0  0  0  0  0  0  0
    1.7269    1.8647   -2.0641 H   0  0  0  0  0  0  0  0  0  0  0  0
    2.4538    3.0781   -0.9814 H   0  0  0  0  0  0  0  0  0  0  0  0
    0.4254    3.5947    0.0790 H   0  0  0  0  0  0  0  0  0  0  0  0
    0.3190    3.7921   -1.6910 H   0  0  0  0  0  0  0  0  0  0  0  0
   -0.7186    1.3719   -1.7644 H   0  0  0  0  0  0  0  0  0  0  0  0
   -0.5874    1.3986    0.0214 H   0  0  0  0  0  0  0  0  0  0  0  0
   -2.4675    3.2437   -1.4473 H   0  0  0  0  0  0  0  0  0  0  0  0
   -2.2126    3.0696    0.3385 H   0  0  0  0  0  0  0  0  0  0  0  0
   -3.3214    1.1999   -1.7291 H   0  0  0  0  0  0  0  0  0  0  0  0
   -3.9731    1.6758   -0.0758 H   0  0  0  0  0  0  0  0  0  0  0  0
   -2.0869    0.5358    1.0166 H   0  0  0  0  0  0  0  0  0  0  0  0
   -1.4503   -0.0418   -0.5649 H   0  0  0  0  0  0  0  0  0  0  0  0
   -3.6387   -1.4599   -0.7288 H   0  0  0  0  0  0  0  0  0  0  0  0
   -3.9653   -0.9759    0.9592 H   0  0  0  0  0  0  0  0  0  0  0  0
   -2.7431   -2.9231    1.0320 H   0  0  0  0  0  0  0  0  0  0  0  0
   -1.6105   -1.6010    1.4538 H   0  0  0  0  0  0  0  0  0  0  0  0
   -1.8632   -3.4178   -1.0234 H   0  0  0  0  0  0  0  0  0  0  0  0
   -1.4034   -1.7449   -1.3558 H   0  0  0  0  0  0  0  0  0  0  0  0
    0.5589   -3.3510   -1.0980 H   0  0  0  0  0  0  0  0  0  0  0  0
    0.0658   -3.6494    0.6123 H   0  0  0  0  0  0  0  0  0  0  0  0
    0.3002   -1.2313    1.0517 H   0  0  0  0  0  0  0  0  0  0  0  0
    0.7241   -0.9552   -0.6890 H   0  0  0  0  0  0  0  0  0  0  0  0
    2.4058   -2.7839    1.1287 H   0  0  0  0  0  0  0  0  0  0  0  0
    2.7408   -2.2642   -0.5652 H   0  0  0  0  0  0  0  0  0  0  0  0
  1  2  1  0
  2  3  1  0
  3  4  1  0
  4  5  1  0
  5  6  1  0
  6  7  1  0
  7  8  1  0
  8  9  1  0
  9 10  1  0
 10 11  1  0
 11 12  1  0
 12 13  1  0
 13 14  1  0
 14 15  1  0
 15 16  1  0
 16  2  1  0
  1 17  1  0
  2 18  1  0
  3 19  1  0
  3 20  1  0
  4 21  1  0
  4 22  1  0
  5 23  1  0
  5 24  1  0
  6 25  1  0
  6 26  1  0
  7 27  1  0
  7 28  1  0
  8 29  1  0
  8 30  1  0
  9 31  1  0
  9 32  1  0
 10 33  1  0
 10 34  1  0
 11 35  1  0
 11 36  1  0
 12 37  1  0
 12 38  1  0
 13 39  1  0
 13 40  1  0
 14 41  1  0
 14 42  1  0
 15 43  1  0
 15 44  1  0
 16 45  1  0
 16 46  1  0
M  END
>  <Ligand ID>  (1) 
LIG0000642

>  <Ligand>  (1) 
cyclopentadecanol

>  <SMILES>  (1) 
OC1CCCCCCCCCCCCCC1

>  <CID>  (1) 
107327.0

>  <ChEMBL ID>  (1) 
nan

>  <InChiKey>  (1) 
FFVHXGZXDRXFLQ-UHFFFAOYSA-N

>  <InChi>  (1) 
InChI=1S/C15H30O/c16-15-13-11-9-7-5-3-1-2-4-6-8-10-12-14-15/h15-16H,1-14H2

>  <IUPAC Name>  (1) 
cyclopentadecanol

$$$$
