
     RDKit          3D

 58 61  0  0  0  0  0  0  0  0999 V2000
   -0.2018   -0.3508    2.2073 O   0  0  0  0  0  0  0  0  0  0  0  0
   -1.0245   -0.5444    1.2698 C   0  0  0  0  0  0  0  0  0  0  0  0
   -0.9434    0.2285    0.0454 N   0  0  0  0  0  0  0  0  0  0  0  0
    0.1204    1.2012    0.0155 C   0  0  0  0  0  0  0  0  0  0  0  0
    0.1461    2.0413   -1.2384 C   0  0  0  0  0  0  0  0  0  0  0  0
   -0.0536    3.4633   -0.8322 C   0  0  0  0  0  0  0  0  0  0  0  0
    0.0667    3.5554    0.6525 C   0  0  0  0  0  0  0  0  0  0  0  0
    0.0485    2.1556    1.1959 C   0  0  0  0  0  0  0  0  0  0  0  0
    1.4482    0.4803    0.1609 C   0  0  0  0  0  0  0  0  0  0  0  0
    2.0942    0.5249    1.2442 O   0  0  0  0  0  0  0  0  0  0  0  0
    1.9577   -0.2472   -0.9528 N   0  0  0  0  0  0  0  0  0  0  0  0
    3.2219   -0.9154   -0.7779 C   0  0  0  0  0  0  0  0  0  0  0  0
    3.3030   -2.2343   -0.3871 C   0  0  0  0  0  0  0  0  0  0  0  0
    2.0608   -3.0168   -0.1472 C   0  0  0  0  0  0  0  0  0  0  0  0
    4.5694   -2.7626   -0.2415 C   0  0  0  0  0  0  0  0  0  0  0  0
    5.7006   -2.0115   -0.4746 C   0  0  0  0  0  0  0  0  0  0  0  0
    5.6052   -0.6940   -0.8648 C   0  0  0  0  0  0  0  0  0  0  0  0
    4.3531   -0.1342   -1.0200 C   0  0  0  0  0  0  0  0  0  0  0  0
    4.2243    1.2794   -1.4333 C   0  0  0  0  0  0  0  0  0  0  0  0
   -1.8984   -0.0040   -1.0072 C   0  0  0  0  0  0  0  0  0  0  0  0
   -3.0993    0.8816   -0.8952 C   0  0  0  0  0  0  0  0  0  0  0  0
   -4.2922    0.6056   -0.2059 C   0  0  0  0  0  0  0  0  0  0  0  0
   -5.1266    1.6952   -0.3616 C   0  0  0  0  0  0  0  0  0  0  0  0
   -4.3908    2.5798   -1.1440 C   0  0  0  0  0  0  0  0  0  0  0  0
   -3.2377    2.0875   -1.4337 O   0  0  0  0  0  0  0  0  0  0  0  0
   -2.0354   -1.5636    1.4836 C   0  0  0  0  0  0  0  0  0  0  0  0
   -2.9992   -1.3636    2.4619 C   0  0  0  0  0  0  0  0  0  0  0  0
   -3.9792   -2.3145    2.6955 C   0  0  0  0  0  0  0  0  0  0  0  0
   -3.9580   -3.4558    1.9249 C   0  0  0  0  0  0  0  0  0  0  0  0
   -2.9901   -3.6668    0.9368 C   0  0  0  0  0  0  0  0  0  0  0  0
   -2.0873   -2.7101    0.7744 N   0  0  0  0  0  0  0  0  0  0  0  0
    1.1651    1.9973   -1.7297 H   0  0  0  0  0  0  0  0  0  0  0  0
   -0.5333    1.7124   -2.0384 H   0  0  0  0  0  0  0  0  0  0  0  0
   -1.0631    3.8524   -1.1298 H   0  0  0  0  0  0  0  0  0  0  0  0
    0.6700    4.1671   -1.3303 H   0  0  0  0  0  0  0  0  0  0  0  0
   -0.7371    4.2138    1.0932 H   0  0  0  0  0  0  0  0  0  0  0  0
    1.0068    4.0796    0.9417 H   0  0  0  0  0  0  0  0  0  0  0  0
   -0.8318    1.9397    1.8618 H   0  0  0  0  0  0  0  0  0  0  0  0
    0.9315    2.0382    1.8910 H   0  0  0  0  0  0  0  0  0  0  0  0
    1.4837   -0.3257   -1.8681 H   0  0  0  0  0  0  0  0  0  0  0  0
    1.8835   -3.0763    0.9454 H   0  0  0  0  0  0  0  0  0  0  0  0
    2.3124   -4.0666   -0.4713 H   0  0  0  0  0  0  0  0  0  0  0  0
    1.2111   -2.6497   -0.7286 H   0  0  0  0  0  0  0  0  0  0  0  0
    4.6784   -3.7960    0.0628 H   0  0  0  0  0  0  0  0  0  0  0  0
    6.7173   -2.4247   -0.3598 H   0  0  0  0  0  0  0  0  0  0  0  0
    6.5210   -0.1176   -1.0437 H   0  0  0  0  0  0  0  0  0  0  0  0
    5.2273    1.6175   -1.8237 H   0  0  0  0  0  0  0  0  0  0  0  0
    3.5190    1.4071   -2.2540 H   0  0  0  0  0  0  0  0  0  0  0  0
    3.9816    1.9651   -0.5916 H   0  0  0  0  0  0  0  0  0  0  0  0
   -1.5194    0.0146   -2.0241 H   0  0  0  0  0  0  0  0  0  0  0  0
   -2.3422   -1.0501   -0.9075 H   0  0  0  0  0  0  0  0  0  0  0  0
   -4.5584   -0.2609    0.3436 H   0  0  0  0  0  0  0  0  0  0  0  0
   -6.1411    1.8416    0.0386 H   0  0  0  0  0  0  0  0  0  0  0  0
   -4.7467    3.5467   -1.4607 H   0  0  0  0  0  0  0  0  0  0  0  0
   -3.0190   -0.4530    3.0758 H   0  0  0  0  0  0  0  0  0  0  0  0
   -4.7494   -2.2098    3.4363 H   0  0  0  0  0  0  0  0  0  0  0  0
   -4.7040   -4.1951    2.0897 H   0  0  0  0  0  0  0  0  0  0  0  0
   -2.9656   -4.5574    0.3300 H   0  0  0  0  0  0  0  0  0  0  0  0
  1  2  2  0
  2  3  1  0
  3  4  1  0
  4  5  1  0
  5  6  1  0
  6  7  1  0
  7  8  1  0
  4  9  1  0
  9 10  2  0
  9 11  1  0
 11 12  1  0
 12 13  2  0
 13 14  1  0
 13 15  1  0
 15 16  2  0
 16 17  1  0
 17 18  2  0
 18 19  1  0
  3 20  1  0
 20 21  1  0
 21 22  2  0
 22 23  1  0
 23 24  2  0
 24 25  1  0
  2 26  1  0
 26 27  2  0
 27 28  1  0
 28 29  2  0
 29 30  1  0
 30 31  2  0
  8  4  1  0
 18 12  1  0
 25 21  1  0
 31 26  1  0
  5 32  1  0
  5 33  1  0
  6 34  1  0
  6 35  1  0
  7 36  1  0
  7 37  1  0
  8 38  1  0
  8 39  1  0
 11 40  1  0
 14 41  1  0
 14 42  1  0
 14 43  1  0
 15 44  1  0
 16 45  1  0
 17 46  1  0
 19 47  1  0
 19 48  1  0
 19 49  1  0
 20 50  1  0
 20 51  1  0
 22 52  1  0
 23 53  1  0
 24 54  1  0
 27 55  1  0
 28 56  1  0
 29 57  1  0
 30 58  1  0
M  END
>  <Ligand ID>  (1) 
LIG0003584

>  <Ligand>  (1) 
SMR000074223

>  <SMILES>  (1) 
O=C(N(C1(CCCC1)C(=O)Nc1c(C)cccc1C)Cc1ccco1)c1ccccn1

>  <CID>  (1) 
1297443.0

>  <ChEMBL ID>  (1) 
nan

>  <InChiKey>  (1) 
VPKCSKONNBXRGY-UHFFFAOYSA-N

>  <InChi>  (1) 
InChI=1S/C25H27N3O3/c1-18-9-7-10-19(2)22(18)27-24(30)25(13-4-5-14-25)28(17-20-11-8-16-31-20)23(29)21-12-3-6-15-26-21/h3,6-12,15-16H,4-5,13-14,17H2,1-2H3,(H,27,30)

>  <IUPAC Name>  (1) 
N-[1-[(2,6-dimethylphenyl)carbamoyl]cyclopentyl]-N-(furan-2-ylmethyl)pyridine-2-carboxamide

$$$$
