
     RDKit          3D

 55 57  0  0  0  0  0  0  0  0999 V2000
    9.0327   -1.2984    0.0038 O   0  0  0  0  0  0  0  0  0  0  0  0
    9.7175   -0.2209    0.5746 C   0  0  0  0  0  0  0  0  0  0  0  0
   10.9103   -0.0648    0.1580 O   0  0  0  0  0  0  0  0  0  0  0  0
    9.1433    0.6812    1.5783 C   0  0  0  0  0  0  0  0  0  0  0  0
    7.8122    0.4197    1.9162 O   0  0  0  0  0  0  0  0  0  0  0  0
    6.7597    0.4683    1.0296 C   0  0  0  0  0  0  0  0  0  0  0  0
    6.8680    0.7860   -0.3046 C   0  0  0  0  0  0  0  0  0  0  0  0
    5.7751    0.8151   -1.1374 C   0  0  0  0  0  0  0  0  0  0  0  0
    4.5243    0.5123   -0.6049 C   0  0  0  0  0  0  0  0  0  0  0  0
    4.3815    0.1913    0.7243 C   0  0  0  0  0  0  0  0  0  0  0  0
    5.4986    0.1690    1.5425 C   0  0  0  0  0  0  0  0  0  0  0  0
    3.0857    0.5303   -1.6554 S   0  0  0  0  0  0  0  0  0  0  0  0
    1.5989    0.1084   -0.7665 C   0  0  0  0  0  0  0  0  0  0  0  0
    0.7904    1.0728   -0.1634 C   0  0  0  0  0  0  0  0  0  0  0  0
   -0.3445    0.6357    0.5061 C   0  0  0  0  0  0  0  0  0  0  0  0
   -0.6493   -0.7172    0.5637 C   0  0  0  0  0  0  0  0  0  0  0  0
    0.1487   -1.6709   -0.0313 C   0  0  0  0  0  0  0  0  0  0  0  0
    1.2752   -1.2388   -0.6961 C   0  0  0  0  0  0  0  0  0  0  0  0
   -1.8856   -1.1894    1.2825 C   0  0  0  0  0  0  0  0  0  0  0  0
   -3.0506   -1.2750    0.3314 C   0  0  0  0  0  0  0  0  0  0  0  0
   -3.4531   -0.1180   -0.3230 N   0  0  0  0  0  0  0  0  0  0  0  0
   -4.0473    0.9606    0.3316 C   0  0  0  0  0  0  0  0  0  0  0  0
   -5.4517    0.6738    0.8658 C   0  0  1  0  0  0  0  0  0  0  0  0
   -6.3884    0.4399   -0.2949 C   0  0  0  0  0  0  0  0  0  0  0  0
   -6.4580   -0.8156   -0.8909 C   0  0  0  0  0  0  0  0  0  0  0  0
   -7.3075   -1.0610   -1.9649 C   0  0  0  0  0  0  0  0  0  0  0  0
   -8.0959   -0.0404   -2.4484 C   0  0  0  0  0  0  0  0  0  0  0  0
   -8.0456    1.2273   -1.8694 C   0  0  0  0  0  0  0  0  0  0  0  0
   -7.1859    1.4618   -0.7879 C   0  0  0  0  0  0  0  0  0  0  0  0
   -9.0655    2.5114   -2.5105 Cl  0  0  0  0  0  0  0  0  0  0  0  0
   -5.5007   -0.3470    1.7751 O   0  0  0  0  0  0  0  0  0  0  0  0
    9.0892   -1.4789   -0.9949 H   0  0  0  0  0  0  0  0  0  0  0  0
    9.2513    1.7615    1.2666 H   0  0  0  0  0  0  0  0  0  0  0  0
    9.7336    0.6116    2.5338 H   0  0  0  0  0  0  0  0  0  0  0  0
    7.8183    1.0234   -0.7179 H   0  0  0  0  0  0  0  0  0  0  0  0
    5.8156    1.0597   -2.1903 H   0  0  0  0  0  0  0  0  0  0  0  0
    3.3786   -0.0371    1.0908 H   0  0  0  0  0  0  0  0  0  0  0  0
    5.3667   -0.0905    2.6028 H   0  0  0  0  0  0  0  0  0  0  0  0
    1.0571    2.1039   -0.2282 H   0  0  0  0  0  0  0  0  0  0  0  0
   -1.0015    1.3630    0.9910 H   0  0  0  0  0  0  0  0  0  0  0  0
   -0.1381   -2.7108    0.0469 H   0  0  0  0  0  0  0  0  0  0  0  0
    1.8882   -1.9961   -1.1545 H   0  0  0  0  0  0  0  0  0  0  0  0
   -1.6799   -2.2183    1.6498 H   0  0  0  0  0  0  0  0  0  0  0  0
   -2.0349   -0.5804    2.1661 H   0  0  0  0  0  0  0  0  0  0  0  0
   -2.7377   -2.0182   -0.4491 H   0  0  0  0  0  0  0  0  0  0  0  0
   -3.9162   -1.7739    0.8213 H   0  0  0  0  0  0  0  0  0  0  0  0
   -3.3572   -0.0747   -1.3477 H   0  0  0  0  0  0  0  0  0  0  0  0
   -3.4482    1.5047    1.0910 H   0  0  0  0  0  0  0  0  0  0  0  0
   -4.2167    1.7554   -0.4556 H   0  0  0  0  0  0  0  0  0  0  0  0
   -5.8336    1.5958    1.3661 H   0  0  0  0  0  0  0  0  0  0  0  0
   -5.8692   -1.6357   -0.5531 H   0  0  0  0  0  0  0  0  0  0  0  0
   -7.3396   -2.0657   -2.4154 H   0  0  0  0  0  0  0  0  0  0  0  0
   -8.7434   -0.2715   -3.2853 H   0  0  0  0  0  0  0  0  0  0  0  0
   -7.1573    2.4519   -0.3484 H   0  0  0  0  0  0  0  0  0  0  0  0
   -6.3177   -0.8684    1.7806 H   0  0  0  0  0  0  0  0  0  0  0  0
  1  2  1  0
  2  3  2  0
  2  4  1  0
  4  5  1  0
  5  6  1  0
  6  7  2  0
  7  8  1  0
  8  9  2  0
  9 10  1  0
 10 11  2  0
  9 12  1  0
 12 13  1  0
 13 14  2  0
 14 15  1  0
 15 16  2  0
 16 17  1  0
 17 18  2  0
 16 19  1  0
 19 20  1  0
 20 21  1  0
 21 22  1  0
 22 23  1  0
 23 24  1  0
 24 25  2  0
 25 26  1  0
 26 27  2  0
 27 28  1  0
 28 29  2  0
 28 30  1  0
 23 31  1  0
 11  6  1  0
 18 13  1  0
 29 24  1  0
  1 32  1  0
  4 33  1  0
  4 34  1  0
  7 35  1  0
  8 36  1  0
 10 37  1  0
 11 38  1  0
 14 39  1  0
 15 40  1  0
 17 41  1  0
 18 42  1  0
 19 43  1  0
 19 44  1  0
 20 45  1  0
 20 46  1  0
 21 47  1  0
 22 48  1  0
 22 49  1  0
 23 50  1  1
 25 51  1  0
 26 52  1  0
 27 53  1  0
 29 54  1  0
 31 55  1  0
M  END
>  <Ligand ID>  (1) 
LIG0005835

>  <Ligand>  (1) 
CHEMBL408957

>  <SMILES>  (1) 
OC(=O)COc1ccc(cc1)Sc1ccc(cc1)CCNC[C@@H](c1cccc(c1)Cl)O

>  <CID>  (1) 
24823468.0

>  <ChEMBL ID>  (1) 
nan

>  <InChiKey>  (1) 
FVKWZPMZEPDGKS-QHCPKHFHSA-N

>  <InChi>  (1) 
InChI=1S/C24H24ClNO4S/c25-19-3-1-2-18(14-19)23(27)15-26-13-12-17-4-8-21(9-5-17)31-22-10-6-20(7-11-22)30-16-24(28)29/h1-11,14,23,26-27H,12-13,15-16H2,(H,28,29)/t23-/m0/s1

>  <IUPAC Name>  (1) 
2-[4-[4-[2-[[(2R)-2-(3-chlorophenyl)-2-hydroxyethyl]amino]ethyl]phenyl]sulfanylphenoxy]acetic acid

$$$$
