
     RDKit          3D

 54 58  0  0  0  0  0  0  0  0999 V2000
    4.2072    2.8604    0.4087 C   0  0  0  0  0  0  0  0  0  0  0  0
    4.3927    1.4494   -0.1491 C   0  0  0  0  0  0  0  0  0  0  0  0
    3.1794    0.7802   -0.1185 O   0  0  0  0  0  0  0  0  0  0  0  0
    3.2734   -0.5169   -0.6138 C   0  0  0  0  0  0  0  0  0  0  0  0
    2.3871   -0.7034   -1.8101 C   0  0  0  0  0  0  0  0  0  0  0  0
    0.9271   -0.8170   -1.4729 C   0  0  0  0  0  0  0  0  0  0  0  0
    0.6150   -1.0799   -0.1103 N   0  0  0  0  0  0  0  0  0  0  0  0
    1.6269   -1.7895    0.6542 C   0  0  0  0  0  0  0  0  0  0  0  0
    2.9885   -1.5305    0.4428 C   0  0  0  0  0  0  0  0  0  0  0  0
    3.9739   -2.1803    1.1512 C   0  0  0  0  0  0  0  0  0  0  0  0
    3.5858   -3.1121    2.0931 C   0  0  0  0  0  0  0  0  0  0  0  0
    2.2431   -3.4040    2.3377 C   0  0  0  0  0  0  0  0  0  0  0  0
    1.2676   -2.7321    1.6072 C   0  0  0  0  0  0  0  0  0  0  0  0
   -0.5516   -0.7385    0.5885 C   0  0  0  0  0  0  0  0  0  0  0  0
   -0.6789   -0.9901    1.8570 O   0  0  0  0  0  0  0  0  0  0  0  0
   -1.7574   -0.0796    0.0304 C   0  0  0  0  0  0  0  0  0  0  0  0
   -2.8260   -0.1245    1.1693 C   0  0  0  0  0  0  0  0  0  0  0  0
   -4.0269    0.6806    0.7768 C   0  0  0  0  0  0  0  0  0  0  0  0
   -4.6497    0.0493   -0.4571 C   0  0  0  0  0  0  0  0  0  0  0  0
   -3.6163    0.0705   -1.5332 C   0  0  0  0  0  0  0  0  0  0  0  0
   -2.3480   -0.6935   -1.1696 C   0  0  0  0  0  0  0  0  0  0  0  0
   -3.1791    1.4599   -1.8912 C   0  0  0  0  0  0  0  0  0  0  0  0
   -2.6651    2.1277   -0.6594 C   0  0  0  0  0  0  0  0  0  0  0  0
   -1.4710    1.3947   -0.0775 C   0  0  0  0  0  0  0  0  0  0  0  0
   -3.7385    2.1067    0.4170 C   0  0  0  0  0  0  0  0  0  0  0  0
    3.6521    3.4654   -0.3248 H   0  0  0  0  0  0  0  0  0  0  0  0
    5.2062    3.2724    0.6548 H   0  0  0  0  0  0  0  0  0  0  0  0
    3.6677    2.7320    1.3628 H   0  0  0  0  0  0  0  0  0  0  0  0
    5.1021    0.8817    0.4935 H   0  0  0  0  0  0  0  0  0  0  0  0
    4.8573    1.4769   -1.1507 H   0  0  0  0  0  0  0  0  0  0  0  0
    4.3305   -0.6677   -0.9087 H   0  0  0  0  0  0  0  0  0  0  0  0
    2.5975    0.1160   -2.5254 H   0  0  0  0  0  0  0  0  0  0  0  0
    2.6903   -1.6449   -2.3130 H   0  0  0  0  0  0  0  0  0  0  0  0
    0.4669    0.1105   -1.8449 H   0  0  0  0  0  0  0  0  0  0  0  0
    0.4538   -1.6525   -2.0709 H   0  0  0  0  0  0  0  0  0  0  0  0
    5.0125   -1.9486    0.9555 H   0  0  0  0  0  0  0  0  0  0  0  0
    4.3758   -3.6112    2.6388 H   0  0  0  0  0  0  0  0  0  0  0  0
    1.9771   -4.1482    3.0915 H   0  0  0  0  0  0  0  0  0  0  0  0
    0.2318   -2.9647    1.7883 H   0  0  0  0  0  0  0  0  0  0  0  0
   -2.3660    0.3506    2.0596 H   0  0  0  0  0  0  0  0  0  0  0  0
   -3.1475   -1.1464    1.3566 H   0  0  0  0  0  0  0  0  0  0  0  0
   -4.7295    0.6501    1.6202 H   0  0  0  0  0  0  0  0  0  0  0  0
   -5.4754    0.6917   -0.7773 H   0  0  0  0  0  0  0  0  0  0  0  0
   -4.9786   -0.9767   -0.2615 H   0  0  0  0  0  0  0  0  0  0  0  0
   -4.0110   -0.4080   -2.4721 H   0  0  0  0  0  0  0  0  0  0  0  0
   -1.7184   -0.6188   -2.0626 H   0  0  0  0  0  0  0  0  0  0  0  0
   -2.6118   -1.7508   -0.9529 H   0  0  0  0  0  0  0  0  0  0  0  0
   -2.3754    1.3768   -2.6525 H   0  0  0  0  0  0  0  0  0  0  0  0
   -3.9607    2.0889   -2.3455 H   0  0  0  0  0  0  0  0  0  0  0  0
   -2.3550    3.1495   -0.8901 H   0  0  0  0  0  0  0  0  0  0  0  0
   -0.5321    1.6759   -0.5367 H   0  0  0  0  0  0  0  0  0  0  0  0
   -1.4164    1.7793    0.9946 H   0  0  0  0  0  0  0  0  0  0  0  0
   -3.4349    2.7135    1.2842 H   0  0  0  0  0  0  0  0  0  0  0  0
   -4.6679    2.5197   -0.0310 H   0  0  0  0  0  0  0  0  0  0  0  0
  1  2  1  0
  2  3  1  0
  3  4  1  0
  4  5  1  0
  5  6  1  0
  6  7  1  0
  7  8  1  0
  8  9  2  0
  9 10  1  0
 10 11  2  0
 11 12  1  0
 12 13  2  0
  7 14  1  0
 14 15  2  0
 14 16  1  0
 16 17  1  0
 17 18  1  0
 18 19  1  0
 19 20  1  0
 20 21  1  0
 20 22  1  0
 22 23  1  0
 23 24  1  0
 23 25  1  0
  9  4  1  0
 24 16  1  0
 13  8  1  0
 21 16  1  0
 25 18  1  0
  1 26  1  0
  1 27  1  0
  1 28  1  0
  2 29  1  0
  2 30  1  0
  4 31  1  0
  5 32  1  0
  5 33  1  0
  6 34  1  0
  6 35  1  0
 10 36  1  0
 11 37  1  0
 12 38  1  0
 13 39  1  0
 17 40  1  0
 17 41  1  0
 18 42  1  0
 19 43  1  0
 19 44  1  0
 20 45  1  0
 21 46  1  0
 21 47  1  0
 22 48  1  0
 22 49  1  0
 23 50  1  0
 24 51  1  0
 24 52  1  0
 25 53  1  0
 25 54  1  0
M  END
>  <Ligand ID>  (1) 
LIG0001958

>  <Ligand>  (1) 
CHEMBL2338175

>  <SMILES>  (1) 
CCOC1CCN(c2c1cccc2)C(=O)C12CC3CC(C2)CC(C1)C3

>  <CID>  (1) 
71559418.0

>  <ChEMBL ID>  (1) 
nan

>  <InChiKey>  (1) 
CLJSEPHWOLCFPG-UHFFFAOYSA-N

>  <InChi>  (1) 
InChI=1S/C22H29NO2/c1-2-25-20-7-8-23(19-6-4-3-5-18(19)20)21(24)22-12-15-9-16(13-22)11-17(10-15)14-22/h3-6,15-17,20H,2,7-14H2,1H3

>  <IUPAC Name>  (1) 
1-adamantyl-(4-ethoxy-3,4-dihydro-2H-quinolin-1-yl)methanone

$$$$
