
     RDKit          3D

 21 21  0  0  0  0  0  0  0  0999 V2000
   -2.9661   -1.3596    0.2093 C   0  0  0  0  0  0  0  0  0  0  0  0
   -2.5057   -0.0282    0.3496 O   0  0  0  0  0  0  0  0  0  0  0  0
   -1.1678    0.3284    0.2315 C   0  0  0  0  0  0  0  0  0  0  0  0
   -0.2099   -0.6279   -0.0344 C   0  0  0  0  0  0  0  0  0  0  0  0
    1.1263   -0.2739   -0.1527 C   0  0  0  0  0  0  0  0  0  0  0  0
    2.1474   -1.2719   -0.4329 C   0  0  0  0  0  0  0  0  0  0  0  0
    3.4307   -1.0014   -0.5569 C   0  0  0  0  0  0  0  0  0  0  0  0
    1.4303    1.0622    0.0083 C   0  0  0  0  0  0  0  0  0  0  0  0
    0.4620    2.0229    0.2761 C   0  0  0  0  0  0  0  0  0  0  0  0
   -0.8659    1.6645    0.3927 C   0  0  0  0  0  0  0  0  0  0  0  0
   -1.8297    2.6224    0.6596 O   0  0  0  0  0  0  0  0  0  0  0  0
   -3.9297   -1.4270    0.7808 H   0  0  0  0  0  0  0  0  0  0  0  0
   -3.2527   -1.6052   -0.8472 H   0  0  0  0  0  0  0  0  0  0  0  0
   -2.2816   -2.1110    0.6142 H   0  0  0  0  0  0  0  0  0  0  0  0
   -0.4453   -1.6760   -0.1610 H   0  0  0  0  0  0  0  0  0  0  0  0
    1.8437   -2.2995   -0.5477 H   0  0  0  0  0  0  0  0  0  0  0  0
    4.1772   -1.7775   -0.7687 H   0  0  0  0  0  0  0  0  0  0  0  0
    3.8467   -0.0013   -0.4606 H   0  0  0  0  0  0  0  0  0  0  0  0
    2.4394    1.4184   -0.0677 H   0  0  0  0  0  0  0  0  0  0  0  0
    0.7143    3.0682    0.4002 H   0  0  0  0  0  0  0  0  0  0  0  0
   -2.1636    3.2736   -0.0532 H   0  0  0  0  0  0  0  0  0  0  0  0
  1  2  1  0
  2  3  1  0
  3  4  2  0
  4  5  1  0
  5  6  1  0
  6  7  2  0
  5  8  2  0
  8  9  1  0
  9 10  2  0
 10 11  1  0
 10  3  1  0
  1 12  1  0
  1 13  1  0
  1 14  1  0
  4 15  1  0
  6 16  1  0
  7 17  1  0
  7 18  1  0
  8 19  1  0
  9 20  1  0
 11 21  1  0
M  END
>  <Ligand ID>  (1) 
LIG0000561

>  <Ligand>  (1) 
2-Methoxy-4-vinylphenol

>  <SMILES>  (1) 
COc1cc(C=C)ccc1O

>  <CID>  (1) 
332.0

>  <ChEMBL ID>  (1) 
nan

>  <InChiKey>  (1) 
YOMSJEATGXXYPX-UHFFFAOYSA-N

>  <InChi>  (1) 
InChI=1S/C9H10O2/c1-3-7-4-5-8(10)9(6-7)11-2/h3-6,10H,1H2,2H3

>  <IUPAC Name>  (1) 
4-ethenyl-2-methoxyphenol

$$$$
