
     RDKit          3D

 38 40  0  0  0  0  0  0  0  0999 V2000
   -5.2790   -1.0478    0.4174 O   0  0  0  0  0  0  0  0  0  0  0  0
   -5.8148    0.1269   -0.0575 C   0  0  0  0  0  0  0  0  0  0  0  0
   -6.5994    0.7481    0.7322 O   0  0  0  0  0  0  0  0  0  0  0  0
   -5.5834    0.7370   -1.3664 C   0  0  0  0  0  0  0  0  0  0  0  0
   -4.5570    0.0890   -2.2298 C   0  0  0  0  0  0  0  0  0  0  0  0
   -3.2137    0.0790   -1.6492 C   0  0  0  0  0  0  0  0  0  0  0  0
   -2.3537    1.0834   -1.8292 O   0  0  0  0  0  0  0  0  0  0  0  0
   -1.2299    0.8718   -1.2347 C   0  0  0  0  0  0  0  0  0  0  0  0
   -1.2726   -0.3489   -0.5888 C   0  0  0  0  0  0  0  0  0  0  0  0
   -2.5492   -0.8354   -0.8689 C   0  0  0  0  0  0  0  0  0  0  0  0
   -0.2082   -0.8272    0.1263 C   0  0  0  0  0  0  0  0  0  0  0  0
    0.9314   -0.0563    0.1930 C   0  0  0  0  0  0  0  0  0  0  0  0
    0.9711    1.1674   -0.4556 C   0  0  0  0  0  0  0  0  0  0  0  0
   -0.0960    1.6539   -1.1761 C   0  0  0  0  0  0  0  0  0  0  0  0
    2.1288   -0.4496    0.9185 C   0  0  0  0  0  0  0  0  0  0  0  0
    3.3472   -0.2664    0.3006 C   0  0  0  0  0  0  0  0  0  0  0  0
    4.5326   -0.6149    0.9329 C   0  0  0  0  0  0  0  0  0  0  0  0
    4.4803   -1.1501    2.1951 C   0  0  0  0  0  0  0  0  0  0  0  0
    3.2511   -1.3419    2.8352 C   0  0  0  0  0  0  0  0  0  0  0  0
    2.0856   -0.9877    2.1862 C   0  0  0  0  0  0  0  0  0  0  0  0
    0.9130   -1.1764    2.8115 F   0  0  0  0  0  0  0  0  0  0  0  0
    5.7095   -0.3938    0.2320 O   0  0  0  0  0  0  0  0  0  0  0  0
    6.4341    0.8139    0.3044 C   0  0  0  0  0  0  0  0  0  0  0  0
    5.7033    1.8987   -0.1083 F   0  0  0  0  0  0  0  0  0  0  0  0
    7.5415    0.6978   -0.4875 F   0  0  0  0  0  0  0  0  0  0  0  0
    6.8989    0.9979    1.6015 F   0  0  0  0  0  0  0  0  0  0  0  0
   -5.7371   -1.5945    1.1514 H   0  0  0  0  0  0  0  0  0  0  0  0
   -5.2629    1.8127   -1.2057 H   0  0  0  0  0  0  0  0  0  0  0  0
   -6.5710    0.7558   -1.8965 H   0  0  0  0  0  0  0  0  0  0  0  0
   -4.8485   -0.9581   -2.4712 H   0  0  0  0  0  0  0  0  0  0  0  0
   -4.5387    0.6897   -3.1874 H   0  0  0  0  0  0  0  0  0  0  0  0
   -2.8906   -1.7758   -0.5170 H   0  0  0  0  0  0  0  0  0  0  0  0
   -0.2423   -1.7729    0.6291 H   0  0  0  0  0  0  0  0  0  0  0  0
    1.8733    1.7834   -0.4056 H   0  0  0  0  0  0  0  0  0  0  0  0
   -0.0077    2.6004   -1.6537 H   0  0  0  0  0  0  0  0  0  0  0  0
    3.3773    0.1565   -0.6926 H   0  0  0  0  0  0  0  0  0  0  0  0
    5.4116   -1.4210    2.6829 H   0  0  0  0  0  0  0  0  0  0  0  0
    3.2653   -1.7673    3.8314 H   0  0  0  0  0  0  0  0  0  0  0  0
  1  2  1  0
  2  3  2  0
  2  4  1  0
  4  5  1  0
  5  6  1  0
  6  7  1  0
  7  8  1  0
  8  9  2  0
  9 10  1  0
  9 11  1  0
 11 12  2  0
 12 13  1  0
 13 14  2  0
 12 15  1  0
 15 16  2  0
 16 17  1  0
 17 18  2  0
 18 19  1  0
 19 20  2  0
 20 21  1  0
 17 22  1  0
 22 23  1  0
 23 24  1  0
 23 25  1  0
 23 26  1  0
 10  6  2  0
 20 15  1  0
 14  8  1  0
  1 27  1  0
  4 28  1  0
  4 29  1  0
  5 30  1  0
  5 31  1  0
 10 32  1  0
 11 33  1  0
 13 34  1  0
 14 35  1  0
 16 36  1  0
 18 37  1  0
 19 38  1  0
M  END
>  <Ligand ID>  (1) 
LIG0002791

>  <Ligand>  (1) 
CHEMBL3896657

>  <SMILES>  (1) 
OC(=O)CCc1oc2c(c1)cc(cc2)c1cc(ccc1F)OC(F)(F)F

>  <CID>  (1) 
134134229.0

>  <ChEMBL ID>  (1) 
nan

>  <InChiKey>  (1) 
HTIVRXDQROURHF-UHFFFAOYSA-N

>  <InChi>  (1) 
InChI=1S/C18H12F4O4/c19-15-4-2-13(26-18(20,21)22)9-14(15)10-1-5-16-11(7-10)8-12(25-16)3-6-17(23)24/h1-2,4-5,7-9H,3,6H2,(H,23,24)

>  <IUPAC Name>  (1) 
3-[5-[2-fluoro-5-(trifluoromethoxy)phenyl]-1-benzofuran-2-yl]propanoic acid

$$$$
