
     RDKit          3D

 34 37  0  0  0  0  0  0  0  0999 V2000
   -3.3888   -0.1898    3.9859 F   0  0  0  0  0  0  0  0  0  0  0  0
   -2.3859   -0.0543    3.0997 C   0  0  0  0  0  0  0  0  0  0  0  0
   -1.1015    0.1817    3.5051 C   0  0  0  0  0  0  0  0  0  0  0  0
   -0.1030    0.3149    2.6040 C   0  0  0  0  0  0  0  0  0  0  0  0
   -0.2921    0.2247    1.2026 C   0  0  0  0  0  0  0  0  0  0  0  0
   -1.5977   -0.0118    0.8240 C   0  0  0  0  0  0  0  0  0  0  0  0
   -2.6259   -0.1496    1.7598 C   0  0  0  0  0  0  0  0  0  0  0  0
   -2.0326   -0.0832   -0.5647 C   0  0  0  0  0  0  0  0  0  0  0  0
   -2.0387    0.9779   -1.4369 C   0  0  0  0  0  0  0  0  0  0  0  0
   -2.4615    0.7898   -2.7215 N   0  0  0  0  0  0  0  0  0  0  0  0
   -2.8721   -0.4331   -3.1333 C   0  0  0  0  0  0  0  0  0  0  0  0
   -2.8805   -1.5003   -2.3046 N   0  0  0  0  0  0  0  0  0  0  0  0
   -2.4627   -1.3082   -1.0406 C   0  0  0  0  0  0  0  0  0  0  0  0
    0.8623    0.3354    0.3826 C   0  0  0  0  0  0  0  0  0  0  0  0
    1.6680   -0.9791    0.2630 C   0  0  0  0  0  0  0  0  0  0  0  0
    2.8414   -0.4167   -0.4299 N   0  0  0  0  0  0  0  0  0  0  0  0
    2.4212    0.6197   -1.1965 C   0  0  0  0  0  0  0  0  0  0  0  0
    0.9030    0.7497   -1.0083 C   0  0  0  0  0  0  0  0  0  0  0  0
    3.4757    1.1518   -1.8379 N   0  0  0  0  0  0  0  0  0  0  0  0
    4.5988    0.4644   -1.4943 C   0  0  0  0  0  0  0  0  0  0  0  0
    4.1715   -0.5215   -0.6038 C   0  0  0  0  0  0  0  0  0  0  0  0
   -0.9235    0.2560    4.5703 H   0  0  0  0  0  0  0  0  0  0  0  0
    0.9008    0.5020    2.9850 H   0  0  0  0  0  0  0  0  0  0  0  0
   -3.6550   -0.3378    1.4561 H   0  0  0  0  0  0  0  0  0  0  0  0
   -1.7182    1.9369   -1.0968 H   0  0  0  0  0  0  0  0  0  0  0  0
   -3.1974   -0.5077   -4.1785 H   0  0  0  0  0  0  0  0  0  0  0  0
   -2.4729   -2.1776   -0.3763 H   0  0  0  0  0  0  0  0  0  0  0  0
    1.6080    1.0029    0.9274 H   0  0  0  0  0  0  0  0  0  0  0  0
    1.9371   -1.3808    1.2433 H   0  0  0  0  0  0  0  0  0  0  0  0
    1.1865   -1.6957   -0.4036 H   0  0  0  0  0  0  0  0  0  0  0  0
    0.5680    0.0356   -1.7894 H   0  0  0  0  0  0  0  0  0  0  0  0
    0.6639    1.8072   -1.2073 H   0  0  0  0  0  0  0  0  0  0  0  0
    5.5896    0.6701   -1.8561 H   0  0  0  0  0  0  0  0  0  0  0  0
    4.8142   -1.2556   -0.1284 H   0  0  0  0  0  0  0  0  0  0  0  0
  1  2  1  0
  2  3  2  0
  3  4  1  0
  4  5  2  0
  5  6  1  0
  6  7  2  0
  6  8  1  0
  8  9  2  0
  9 10  1  0
 10 11  2  0
 11 12  1  0
 12 13  2  0
  5 14  1  0
 14 15  1  0
 15 16  1  0
 16 17  1  0
 17 18  1  0
 17 19  2  0
 19 20  1  0
 20 21  2  0
  7  2  1  0
 13  8  1  0
 18 14  1  0
 21 16  1  0
  3 22  1  0
  4 23  1  0
  7 24  1  0
  9 25  1  0
 11 26  1  0
 13 27  1  0
 14 28  1  0
 15 29  1  0
 15 30  1  0
 18 31  1  0
 18 32  1  0
 20 33  1  0
 21 34  1  0
M  END
>  <Ligand ID>  (1) 
LIG0002864

>  <Ligand>  (1) 
CHEMBL505414

>  <SMILES>  (1) 
Fc1ccc(c(c1)c1cncnc1)C1Cn2c(C1)ncc2

>  <CID>  (1) 
44574107.0

>  <ChEMBL ID>  (1) 
nan

>  <InChiKey>  (1) 
LOWJTSZIULCLQH-UHFFFAOYSA-N

>  <InChi>  (1) 
InChI=1S/C16H13FN4/c17-13-1-2-14(11-5-16-20-3-4-21(16)9-11)15(6-13)12-7-18-10-19-8-12/h1-4,6-8,10-11H,5,9H2

>  <IUPAC Name>  (1) 
6-(4-fluoro-2-pyrimidin-5-ylphenyl)-6,7-dihydro-5H-pyrrolo[1,2-a]imidazole

$$$$
