
     RDKit          3D

 52 53  0  0  0  0  0  0  0  0999 V2000
    4.4348    0.6275    0.9429 C   0  0  0  0  0  0  0  0  0  0  0  0
    4.1620    0.9235   -0.2899 C   0  0  0  0  0  0  0  0  0  0  0  0
    3.5161    0.0860   -1.2741 C   0  0  0  0  0  0  0  0  0  0  0  0
    3.3206    0.5548   -2.5238 C   0  0  0  0  0  0  0  0  0  0  0  0
    3.0350   -1.2991   -1.0373 C   0  0  0  0  0  0  0  0  0  0  0  0
    1.8798   -1.3800   -0.0618 C   0  0  0  0  0  0  0  0  0  0  0  0
    0.6813   -0.6156   -0.5116 C   0  0  1  0  0  0  0  0  0  0  0  0
    0.0826   -1.1223   -1.7915 C   0  0  0  0  0  0  0  0  0  0  0  0
    0.3113   -2.2688   -2.3577 C   0  0  0  0  0  0  0  0  0  0  0  0
   -0.9370   -0.1662   -2.3791 C   0  0  0  0  0  0  0  0  0  0  0  0
   -2.0212   -0.1369   -1.2781 C   0  0  0  0  0  0  0  0  0  0  0  0
   -1.4327    0.5043   -0.0809 C   0  0  2  0  0  0  0  0  0  0  0  0
   -0.4004   -0.4447    0.5290 C   0  0  1  0  0  0  0  0  0  0  0  0
   -0.9729   -1.7757    0.9029 C   0  0  0  0  0  0  0  0  0  0  0  0
    0.1685    0.3225    1.6883 C   0  0  0  0  0  0  0  0  0  0  0  0
   -0.8563    0.5102    2.7788 C   0  0  0  0  0  0  0  0  0  0  0  0
   -2.2509    0.6628    2.3140 C   0  0  0  0  0  0  0  0  0  0  0  0
   -2.3942    1.0855    0.8769 C   0  0  0  0  0  0  0  0  0  0  0  0
   -2.3964    2.6075    0.8414 C   0  0  0  0  0  0  0  0  0  0  0  0
   -3.8481    0.7216    0.5328 C   0  0  0  0  0  0  0  0  0  0  0  0
    4.2157   -0.3178    1.4374 H   0  0  0  0  0  0  0  0  0  0  0  0
    4.9281    1.3559    1.5865 H   0  0  0  0  0  0  0  0  0  0  0  0
    4.4546    1.9299   -0.6324 H   0  0  0  0  0  0  0  0  0  0  0  0
    3.6676    1.5754   -2.7471 H   0  0  0  0  0  0  0  0  0  0  0  0
    2.8446   -0.0284   -3.2935 H   0  0  0  0  0  0  0  0  0  0  0  0
    3.8984   -1.8860   -0.5877 H   0  0  0  0  0  0  0  0  0  0  0  0
    2.8172   -1.8320   -1.9669 H   0  0  0  0  0  0  0  0  0  0  0  0
    2.1479   -1.2544    0.9793 H   0  0  0  0  0  0  0  0  0  0  0  0
    1.5542   -2.4806   -0.1495 H   0  0  0  0  0  0  0  0  0  0  0  0
    0.9949    0.4668   -0.7707 H   0  0  0  0  0  0  0  0  0  0  0  0
   -0.2178   -2.4845   -3.3115 H   0  0  0  0  0  0  0  0  0  0  0  0
    0.9382   -3.0705   -2.0178 H   0  0  0  0  0  0  0  0  0  0  0  0
   -1.3535   -0.5616   -3.2975 H   0  0  0  0  0  0  0  0  0  0  0  0
   -0.5111    0.8464   -2.4117 H   0  0  0  0  0  0  0  0  0  0  0  0
   -2.2578   -1.2109   -1.1212 H   0  0  0  0  0  0  0  0  0  0  0  0
   -2.8995    0.3487   -1.6966 H   0  0  0  0  0  0  0  0  0  0  0  0
   -0.7907    1.3544   -0.4621 H   0  0  0  0  0  0  0  0  0  0  0  0
   -2.0754   -1.8252    0.9274 H   0  0  0  0  0  0  0  0  0  0  0  0
   -0.6774   -2.5920    0.1808 H   0  0  0  0  0  0  0  0  0  0  0  0
   -0.5132   -2.0902    1.8831 H   0  0  0  0  0  0  0  0  0  0  0  0
    0.3923    1.3524    1.2831 H   0  0  0  0  0  0  0  0  0  0  0  0
    1.0869   -0.0836    2.1086 H   0  0  0  0  0  0  0  0  0  0  0  0
   -0.7993   -0.4311    3.3956 H   0  0  0  0  0  0  0  0  0  0  0  0
   -0.5041    1.3065    3.4606 H   0  0  0  0  0  0  0  0  0  0  0  0
   -2.8867   -0.2404    2.5366 H   0  0  0  0  0  0  0  0  0  0  0  0
   -2.7238    1.4508    2.9413 H   0  0  0  0  0  0  0  0  0  0  0  0
   -1.3729    2.9828    0.6593 H   0  0  0  0  0  0  0  0  0  0  0  0
   -2.9772    2.9333   -0.0689 H   0  0  0  0  0  0  0  0  0  0  0  0
   -2.8319    3.0372    1.7462 H   0  0  0  0  0  0  0  0  0  0  0  0
   -4.4435    1.1898    1.3711 H   0  0  0  0  0  0  0  0  0  0  0  0
   -4.1941    1.2168   -0.3801 H   0  0  0  0  0  0  0  0  0  0  0  0
   -3.9927   -0.3552    0.5969 H   0  0  0  0  0  0  0  0  0  0  0  0
  1  2  2  0
  2  3  1  0
  3  4  2  0
  3  5  1  0
  5  6  1  0
  6  7  1  0
  7  8  1  0
  8  9  2  0
  8 10  1  0
 10 11  1  0
 11 12  1  0
 12 13  1  0
 13 14  1  1
 13 15  1  0
 15 16  1  0
 16 17  1  0
 17 18  1  0
 18 19  1  0
 18 20  1  0
 13  7  1  0
 18 12  1  0
  1 21  1  0
  1 22  1  0
  2 23  1  0
  4 24  1  0
  4 25  1  0
  5 26  1  0
  5 27  1  0
  6 28  1  0
  6 29  1  0
  7 30  1  6
  9 31  1  0
  9 32  1  0
 10 33  1  0
 10 34  1  0
 11 35  1  0
 11 36  1  0
 12 37  1  6
 14 38  1  0
 14 39  1  0
 14 40  1  0
 15 41  1  0
 15 42  1  0
 16 43  1  0
 16 44  1  0
 17 45  1  0
 17 46  1  0
 19 47  1  0
 19 48  1  0
 19 49  1  0
 20 50  1  0
 20 51  1  0
 20 52  1  0
M  END
>  <Ligand ID>  (1) 
LIG0000363

>  <Ligand>  (1) 
Sclarene

>  <SMILES>  (1) 
C=CC(=C)CC[C@H]1C(=C)CC[C@@H]2[C@]1(C)CCCC2(C)C

>  <CID>  (1) 
11323257.0

>  <ChEMBL ID>  (1) 
nan

>  <InChiKey>  (1) 
KYLKKZSVPLUGCC-CMKODMSKSA-N

>  <InChi>  (1) 
InChI=1S/C20H32/c1-7-15(2)9-11-17-16(3)10-12-18-19(4,5)13-8-14-20(17,18)6/h7,17-18H,1-3,8-14H2,4-6H3/t17-,18-,20+/m0/s1

>  <IUPAC Name>  (1) 
(4aS,8S,8aS)-4,4,8a-trimethyl-7-methylidene-8-(3-methylidenepent-4-enyl)-2,3,4a,5,6,8-hexahydro-1H-naphthalene

$$$$
