
     RDKit          3D

  9  8  0  0  0  0  0  0  0  0999 V2000
   -1.0411   -0.2005    0.0087 C   0  0  0  0  0  0  0  0  0  0  0  0
    0.2851    0.5120    0.0422 C   0  0  0  0  0  0  0  0  0  0  0  0
    1.6118   -0.4885    0.7223 S   0  0  0  0  0  0  0  0  0  0  0  0
   -0.9231   -1.0423   -0.7108 H   0  0  0  0  0  0  0  0  0  0  0  0
   -1.3805   -0.5361    1.0141 H   0  0  0  0  0  0  0  0  0  0  0  0
   -1.7632    0.5301   -0.4357 H   0  0  0  0  0  0  0  0  0  0  0  0
    0.5376    0.7422   -1.0216 H   0  0  0  0  0  0  0  0  0  0  0  0
    0.1667    1.4202    0.6553 H   0  0  0  0  0  0  0  0  0  0  0  0
    2.5067   -0.9370   -0.2745 H   0  0  0  0  0  0  0  0  0  0  0  0
  1  2  1  0
  2  3  1  0
  1  4  1  0
  1  5  1  0
  1  6  1  0
  2  7  1  0
  2  8  1  0
  3  9  1  0
M  END
>  <Ligand ID>  (1) 
LIG0002081

>  <Ligand>  (1) 
ethanethiol

>  <SMILES>  (1) 
CCS

>  <CID>  (1) 
6343.0

>  <ChEMBL ID>  (1) 
nan

>  <InChiKey>  (1) 
DNJIEGIFACGWOD-UHFFFAOYSA-N

>  <InChi>  (1) 
InChI=1S/C2H6S/c1-2-3/h3H,2H2,1H3

>  <IUPAC Name>  (1) 
ethanethiol

$$$$
