
     RDKit          3D

 67 69  0  0  0  0  0  0  0  0999 V2000
    8.5793    2.7257    1.0688 C   0  0  0  0  0  0  0  0  0  0  0  0
    8.1252    1.4072    0.7418 O   0  0  0  0  0  0  0  0  0  0  0  0
    6.7749    1.1734    0.5289 C   0  0  0  0  0  0  0  0  0  0  0  0
    6.3510   -0.1088    0.2146 C   0  0  0  0  0  0  0  0  0  0  0  0
    4.9910   -0.3580   -0.0029 C   0  0  0  0  0  0  0  0  0  0  0  0
    4.0583    0.6687    0.0932 C   0  0  0  0  0  0  0  0  0  0  0  0
    4.5291    1.9272    0.4083 C   0  0  0  0  0  0  0  0  0  0  0  0
    5.8485    2.1953    0.6248 C   0  0  0  0  0  0  0  0  0  0  0  0
    2.5882    0.3995   -0.1307 C   0  0  0  0  0  0  0  0  0  0  0  0
    2.1875   -0.7064    0.6256 N   0  0  0  0  0  0  0  0  0  0  0  0
    0.7923   -0.9115    0.8475 C   0  0  0  0  0  0  0  0  0  0  0  0
    0.0819   -1.3289   -0.3637 C   0  0  0  0  0  0  0  0  0  0  0  0
   -1.3613   -1.6562   -0.3089 C   0  0  0  0  0  0  0  0  0  0  0  0
   -1.7946   -2.7148    0.5849 C   0  0  0  0  0  0  0  0  0  0  0  0
   -2.6352   -2.5977    1.6625 C   0  0  0  0  0  0  0  0  0  0  0  0
   -3.0028   -3.6672    2.4638 C   0  0  0  0  0  0  0  0  0  0  0  0
   -2.5265   -4.9301    2.2050 C   0  0  0  0  0  0  0  0  0  0  0  0
   -1.6764   -5.0817    1.1234 C   0  0  0  0  0  0  0  0  0  0  0  0
   -1.3158   -4.0122    0.3316 C   0  0  0  0  0  0  0  0  0  0  0  0
   -0.4692   -4.1875   -0.7358 O   0  0  0  0  0  0  0  0  0  0  0  0
    0.1286   -5.3563   -1.1798 C   0  0  0  0  0  0  0  0  0  0  0  0
   -2.2617   -0.5084   -0.3040 C   0  0  0  0  0  0  0  0  0  0  0  0
   -2.3977    0.4164    0.7017 C   0  0  0  0  0  0  0  0  0  0  0  0
   -3.2606    1.5023    0.6343 C   0  0  0  0  0  0  0  0  0  0  0  0
   -4.0480    1.7251   -0.4605 C   0  0  0  0  0  0  0  0  0  0  0  0
   -3.9313    0.7970   -1.5014 C   0  0  0  0  0  0  0  0  0  0  0  0
   -3.0783   -0.2703   -1.4283 C   0  0  0  0  0  0  0  0  0  0  0  0
   -4.9306    2.7522   -0.6463 O   0  0  0  0  0  0  0  0  0  0  0  0
   -5.1454    3.7520    0.2873 C   0  0  0  0  0  0  0  0  0  0  0  0
   -6.6236    3.8473    0.6784 C   0  0  0  0  0  0  0  0  0  0  0  0
   -4.8086    5.0812   -0.4011 C   0  0  0  0  0  0  0  0  0  0  0  0
    2.3519    0.4248   -1.5951 C   0  0  0  0  0  0  0  0  0  0  0  0
    8.1755    3.4715    0.3598 H   0  0  0  0  0  0  0  0  0  0  0  0
    8.2235    2.9292    2.1038 H   0  0  0  0  0  0  0  0  0  0  0  0
    9.6855    2.7551    1.0685 H   0  0  0  0  0  0  0  0  0  0  0  0
    7.0790   -0.9084    0.1389 H   0  0  0  0  0  0  0  0  0  0  0  0
    4.6308   -1.3388   -0.2488 H   0  0  0  0  0  0  0  0  0  0  0  0
    3.8037    2.7335    0.4844 H   0  0  0  0  0  0  0  0  0  0  0  0
    6.2290    3.1737    0.8718 H   0  0  0  0  0  0  0  0  0  0  0  0
    2.0913    1.3126    0.3040 H   0  0  0  0  0  0  0  0  0  0  0  0
    2.7467   -1.5642    0.4862 H   0  0  0  0  0  0  0  0  0  0  0  0
    0.6905   -1.7203    1.6480 H   0  0  0  0  0  0  0  0  0  0  0  0
    0.3630   -0.0064    1.3543 H   0  0  0  0  0  0  0  0  0  0  0  0
    0.1436   -0.4559   -1.0928 H   0  0  0  0  0  0  0  0  0  0  0  0
    0.6933   -2.1106   -0.8685 H   0  0  0  0  0  0  0  0  0  0  0  0
   -1.5083   -2.1664   -1.3795 H   0  0  0  0  0  0  0  0  0  0  0  0
   -3.0455   -1.6443    1.9154 H   0  0  0  0  0  0  0  0  0  0  0  0
   -3.6608   -3.5478    3.3011 H   0  0  0  0  0  0  0  0  0  0  0  0
   -2.8237   -5.7503    2.8422 H   0  0  0  0  0  0  0  0  0  0  0  0
   -1.3197   -6.0987    0.9528 H   0  0  0  0  0  0  0  0  0  0  0  0
    1.2096   -5.2994   -0.8541 H   0  0  0  0  0  0  0  0  0  0  0  0
    0.1551   -5.4781   -2.2839 H   0  0  0  0  0  0  0  0  0  0  0  0
   -0.2634   -6.2890   -0.7695 H   0  0  0  0  0  0  0  0  0  0  0  0
   -1.8322    0.3219    1.6083 H   0  0  0  0  0  0  0  0  0  0  0  0
   -3.3146    2.1894    1.4624 H   0  0  0  0  0  0  0  0  0  0  0  0
   -4.5451    0.9316   -2.4064 H   0  0  0  0  0  0  0  0  0  0  0  0
   -3.0565   -0.9368   -2.2847 H   0  0  0  0  0  0  0  0  0  0  0  0
   -4.5700    3.7194    1.2083 H   0  0  0  0  0  0  0  0  0  0  0  0
   -6.7715    3.1683    1.5412 H   0  0  0  0  0  0  0  0  0  0  0  0
   -6.7998    4.9230    0.9433 H   0  0  0  0  0  0  0  0  0  0  0  0
   -7.2918    3.6282   -0.1622 H   0  0  0  0  0  0  0  0  0  0  0  0
   -4.6874    5.8207    0.4122 H   0  0  0  0  0  0  0  0  0  0  0  0
   -5.7366    5.3697   -0.9766 H   0  0  0  0  0  0  0  0  0  0  0  0
   -3.9216    4.9793   -1.0292 H   0  0  0  0  0  0  0  0  0  0  0  0
    3.2840    0.8655   -2.0925 H   0  0  0  0  0  0  0  0  0  0  0  0
    2.2464   -0.5525   -2.0857 H   0  0  0  0  0  0  0  0  0  0  0  0
    1.5782    1.1759   -1.8669 H   0  0  0  0  0  0  0  0  0  0  0  0
  1  2  1  0
  2  3  1  0
  3  4  2  0
  4  5  1  0
  5  6  2  0
  6  7  1  0
  7  8  2  0
  6  9  1  0
  9 10  1  0
 10 11  1  0
 11 12  1  0
 12 13  1  0
 13 14  1  0
 14 15  2  0
 15 16  1  0
 16 17  2  0
 17 18  1  0
 18 19  2  0
 19 20  1  0
 20 21  1  0
 13 22  1  0
 22 23  2  0
 23 24  1  0
 24 25  2  0
 25 26  1  0
 26 27  2  0
 25 28  1  0
 28 29  1  0
 29 30  1  0
 29 31  1  0
  9 32  1  0
  8  3  1  0
 19 14  1  0
 27 22  1  0
  1 33  1  0
  1 34  1  0
  1 35  1  0
  4 36  1  0
  5 37  1  0
  7 38  1  0
  8 39  1  0
  9 40  1  0
 10 41  1  0
 11 42  1  0
 11 43  1  0
 12 44  1  0
 12 45  1  0
 13 46  1  0
 15 47  1  0
 16 48  1  0
 17 49  1  0
 18 50  1  0
 21 51  1  0
 21 52  1  0
 21 53  1  0
 23 54  1  0
 24 55  1  0
 26 56  1  0
 27 57  1  0
 29 58  1  0
 30 59  1  0
 30 60  1  0
 30 61  1  0
 31 62  1  0
 31 63  1  0
 31 64  1  0
 32 65  1  0
 32 66  1  0
 32 67  1  0
M  END
>  <Ligand ID>  (1) 
LIG0003501

>  <Ligand>  (1) 
MLS001165041

>  <SMILES>  (1) 
COc1ccc(cc1)C(NCCC(c1ccccc1OC)c1ccc(cc1)OC(C)C)C

>  <CID>  (1) 
2965324.0

>  <ChEMBL ID>  (1) 
nan

>  <InChiKey>  (1) 
HJQQHUQIDZOELS-UHFFFAOYSA-N

>  <InChi>  (1) 
InChI=1S/C28H35NO3/c1-20(2)32-25-16-12-23(13-17-25)26(27-8-6-7-9-28(27)31-5)18-19-29-21(3)22-10-14-24(30-4)15-11-22/h6-17,20-21,26,29H,18-19H2,1-5H3

>  <IUPAC Name>  (1) 
3-(2-methoxyphenyl)-N-[1-(4-methoxyphenyl)ethyl]-3-(4-propan-2-yloxyphenyl)propan-1-amine

$$$$
