
     RDKit          3D

 48 51  0  0  0  0  0  0  0  0999 V2000
    6.9771    0.6884   -0.1820 F   0  0  0  0  0  0  0  0  0  0  0  0
    5.6931    0.2530   -0.1256 C   0  0  0  0  0  0  0  0  0  0  0  0
    5.2858   -0.9265   -0.7433 C   0  0  0  0  0  0  0  0  0  0  0  0
    3.9582   -1.3332   -0.6586 C   0  0  0  0  0  0  0  0  0  0  0  0
    3.3667   -2.4189   -1.1728 N   0  0  0  0  0  0  0  0  0  0  0  0
    2.0736   -2.3444   -0.8031 C   0  0  0  0  0  0  0  0  0  0  0  0
    1.2271   -3.2057   -1.1163 O   0  0  0  0  0  0  0  0  0  0  0  0
    1.8222   -1.2640   -0.0807 N   0  0  0  0  0  0  0  0  0  0  0  0
    3.0080   -0.6092    0.0215 C   0  0  0  0  0  0  0  0  0  0  0  0
    3.4257    0.5579    0.6290 C   0  0  0  0  0  0  0  0  0  0  0  0
    4.7384    0.9786    0.5566 C   0  0  0  0  0  0  0  0  0  0  0  0
    5.1938    2.2371    1.2104 C   0  0  0  0  0  0  0  0  0  0  0  0
    0.6146   -0.7682    0.5247 C   0  0  0  0  0  0  0  0  0  0  0  0
    0.0977    0.4471   -0.2258 C   0  0  0  0  0  0  0  0  0  0  0  0
   -1.3645    0.7082    0.1080 C   0  0  0  0  0  0  0  0  0  0  0  0
   -2.1106   -0.3360   -0.5000 N   0  0  0  0  0  0  0  0  0  0  0  0
   -1.5232   -1.6318   -0.4947 C   0  0  0  0  0  0  0  0  0  0  0  0
   -0.4861   -1.7548    0.6158 C   0  0  0  0  0  0  0  0  0  0  0  0
   -3.5285   -0.2719   -0.3979 C   0  0  0  0  0  0  0  0  0  0  0  0
   -4.0839   -0.2787    0.9881 C   0  0  0  0  0  0  0  0  0  0  0  0
   -4.4901    1.0916    1.4849 C   0  0  0  0  0  0  0  0  0  0  0  0
   -5.4240    1.5782    0.5405 O   0  0  0  0  0  0  0  0  0  0  0  0
   -4.6506    1.9811   -0.5459 C   0  0  0  0  0  0  0  0  0  0  0  0
   -4.0495    0.8255   -1.2875 C   0  0  0  0  0  0  0  0  0  0  0  0
    6.0155   -1.5283   -1.2936 H   0  0  0  0  0  0  0  0  0  0  0  0
    3.8266   -3.1807   -1.7530 H   0  0  0  0  0  0  0  0  0  0  0  0
    2.7249    1.1660    1.1759 H   0  0  0  0  0  0  0  0  0  0  0  0
    5.8423    2.7828    0.5104 H   0  0  0  0  0  0  0  0  0  0  0  0
    5.8254    1.9991    2.0970 H   0  0  0  0  0  0  0  0  0  0  0  0
    4.3416    2.8975    1.4754 H   0  0  0  0  0  0  0  0  0  0  0  0
    0.8878   -0.4233    1.5432 H   0  0  0  0  0  0  0  0  0  0  0  0
    0.1052    0.1545   -1.3148 H   0  0  0  0  0  0  0  0  0  0  0  0
    0.7171    1.3360   -0.1277 H   0  0  0  0  0  0  0  0  0  0  0  0
   -1.6264    1.6743   -0.3409 H   0  0  0  0  0  0  0  0  0  0  0  0
   -1.5087    0.7941    1.2046 H   0  0  0  0  0  0  0  0  0  0  0  0
   -2.2675   -2.4498   -0.2968 H   0  0  0  0  0  0  0  0  0  0  0  0
   -1.1205   -1.8258   -1.4973 H   0  0  0  0  0  0  0  0  0  0  0  0
   -0.1635   -2.8150    0.7214 H   0  0  0  0  0  0  0  0  0  0  0  0
   -1.0596   -1.5556    1.5465 H   0  0  0  0  0  0  0  0  0  0  0  0
   -3.8986   -1.2338   -0.8651 H   0  0  0  0  0  0  0  0  0  0  0  0
   -5.0205   -0.8930    1.0604 H   0  0  0  0  0  0  0  0  0  0  0  0
   -3.3620   -0.7768    1.6759 H   0  0  0  0  0  0  0  0  0  0  0  0
   -3.6605    1.7888    1.5788 H   0  0  0  0  0  0  0  0  0  0  0  0
   -5.0623    0.9395    2.4205 H   0  0  0  0  0  0  0  0  0  0  0  0
   -5.3305    2.5346   -1.2361 H   0  0  0  0  0  0  0  0  0  0  0  0
   -3.9183    2.7123   -0.1812 H   0  0  0  0  0  0  0  0  0  0  0  0
   -3.2355    1.2241   -1.9282 H   0  0  0  0  0  0  0  0  0  0  0  0
   -4.8232    0.4753   -2.0084 H   0  0  0  0  0  0  0  0  0  0  0  0
  1  2  1  0
  2  3  2  0
  3  4  1  0
  4  5  1  0
  5  6  1  0
  6  7  2  0
  6  8  1  0
  8  9  1  0
  9 10  1  0
 10 11  2  0
 11 12  1  0
  8 13  1  0
 13 14  1  0
 14 15  1  0
 15 16  1  0
 16 17  1  0
 17 18  1  0
 16 19  1  0
 19 20  1  0
 20 21  1  0
 21 22  1  0
 22 23  1  0
 23 24  1  0
 11  2  1  0
 18 13  1  0
 24 19  1  0
  9  4  2  0
  3 25  1  0
  5 26  1  0
 10 27  1  0
 12 28  1  0
 12 29  1  0
 12 30  1  0
 13 31  1  0
 14 32  1  0
 14 33  1  0
 15 34  1  0
 15 35  1  0
 17 36  1  0
 17 37  1  0
 18 38  1  0
 18 39  1  0
 19 40  1  0
 20 41  1  0
 20 42  1  0
 21 43  1  0
 21 44  1  0
 23 45  1  0
 23 46  1  0
 24 47  1  0
 24 48  1  0
M  END
>  <Ligand ID>  (1) 
LIG0000962

>  <Ligand>  (1) 
932375-35-4

>  <SMILES>  (1) 
Fc1cc2[nH]c(=O)n(c2cc1C)C1CCN(CC1)C1CCOCC1

>  <CID>  (1) 
16071018.0

>  <ChEMBL ID>  (1) 
nan

>  <InChiKey>  (1) 
XGJTUORNDQJFHC-UHFFFAOYSA-N

>  <InChi>  (1) 
InChI=1S/C18H24FN3O2/c1-12-10-17-16(11-15(12)19)20-18(23)22(17)14-2-6-21(7-3-14)13-4-8-24-9-5-13/h10-11,13-14H,2-9H2,1H3,(H,20,23)

>  <IUPAC Name>  (1) 
6-fluoro-5-methyl-3-[1-(oxan-4-yl)piperidin-4-yl]-1H-benzimidazol-2-one

$$$$
