
     RDKit          3D

 32 34  0  0  0  0  0  0  0  0999 V2000
   -2.3625   -0.6687    1.4523 C   0  0  0  0  0  0  0  0  0  0  0  0
   -2.0740   -0.9221   -0.0181 C   0  0  1  0  0  0  0  0  0  0  0  0
   -3.0469   -0.1906   -0.8838 C   0  0  0  0  0  0  0  0  0  0  0  0
   -2.6647    1.1967   -1.0522 N   0  0  0  0  0  0  0  0  0  0  0  0
   -1.4493    1.2368   -1.7952 C   0  0  0  0  0  0  0  0  0  0  0  0
   -0.2976    0.4877   -1.1949 C   0  0  2  0  0  0  0  0  0  0  0  0
   -0.7038   -0.6122   -0.3497 N   0  0  0  0  0  0  0  0  0  0  0  0
    0.3128   -1.4550    0.1952 C   0  0  0  0  0  0  0  0  0  0  0  0
    0.1298   -2.6767    0.4415 O   0  0  0  0  0  0  0  0  0  0  0  0
    1.6097   -0.7940    0.4558 C   0  0  0  0  0  0  0  0  0  0  0  0
    1.7096    0.5409    0.1568 C   0  0  0  0  0  0  0  0  0  0  0  0
    0.6123    1.3730   -0.3810 C   0  0  0  0  0  0  0  0  0  0  0  0
    2.9337    1.1555    0.3905 C   0  0  0  0  0  0  0  0  0  0  0  0
    4.0185    0.4638    0.9041 C   0  0  0  0  0  0  0  0  0  0  0  0
    3.8553   -0.8942    1.1893 C   0  0  0  0  0  0  0  0  0  0  0  0
    2.6508   -1.5382    0.9689 C   0  0  0  0  0  0  0  0  0  0  0  0
   -1.9204   -1.4494    2.1001 H   0  0  0  0  0  0  0  0  0  0  0  0
   -1.9673    0.3382    1.7477 H   0  0  0  0  0  0  0  0  0  0  0  0
   -3.4777   -0.6257    1.5457 H   0  0  0  0  0  0  0  0  0  0  0  0
   -2.2019   -2.0223   -0.1777 H   0  0  0  0  0  0  0  0  0  0  0  0
   -4.0538   -0.2287   -0.4353 H   0  0  0  0  0  0  0  0  0  0  0  0
   -3.0029   -0.6489   -1.9076 H   0  0  0  0  0  0  0  0  0  0  0  0
   -2.5188    1.6961   -0.1480 H   0  0  0  0  0  0  0  0  0  0  0  0
   -1.6411    0.8309   -2.8189 H   0  0  0  0  0  0  0  0  0  0  0  0
   -1.0826    2.2829   -1.9631 H   0  0  0  0  0  0  0  0  0  0  0  0
    0.3449    0.0450   -2.0118 H   0  0  0  0  0  0  0  0  0  0  0  0
    0.9912    2.2303   -0.9737 H   0  0  0  0  0  0  0  0  0  0  0  0
    0.0482    1.7378    0.5270 H   0  0  0  0  0  0  0  0  0  0  0  0
    3.0924    2.2026    0.1809 H   0  0  0  0  0  0  0  0  0  0  0  0
    4.9658    0.9670    1.0780 H   0  0  0  0  0  0  0  0  0  0  0  0
    4.6904   -1.4729    1.5963 H   0  0  0  0  0  0  0  0  0  0  0  0
    2.5000   -2.5856    1.1810 H   0  0  0  0  0  0  0  0  0  0  0  0
  1  2  1  0
  2  3  1  0
  3  4  1  0
  4  5  1  0
  5  6  1  0
  6  7  1  0
  7  8  1  0
  8  9  2  0
  8 10  1  0
 10 11  2  0
 11 12  1  0
 11 13  1  0
 13 14  2  0
 14 15  1  0
 15 16  2  0
  7  2  1  0
 16 10  1  0
 12  6  1  0
  1 17  1  0
  1 18  1  0
  1 19  1  0
  2 20  1  1
  3 21  1  0
  3 22  1  0
  4 23  1  0
  5 24  1  0
  5 25  1  0
  6 26  1  6
 12 27  1  0
 12 28  1  0
 13 29  1  0
 14 30  1  0
 15 31  1  0
 16 32  1  0
M  END
>  <Ligand ID>  (1) 
LIG0002313

>  <Ligand>  (1) 
SCHEMBL3560311

>  <SMILES>  (1) 
C[C@H]1CNC[C@@H]2N1C(=O)c1c(C2)cccc1

>  <CID>  (1) 
58911666.0

>  <ChEMBL ID>  (1) 
nan

>  <InChiKey>  (1) 
WDTWEKIOAKMJSH-GXSJLCMTSA-N

>  <InChi>  (1) 
InChI=1S/C13H16N2O/c1-9-7-14-8-11-6-10-4-2-3-5-12(10)13(16)15(9)11/h2-5,9,11,14H,6-8H2,1H3/t9-,11+/m0/s1

>  <IUPAC Name>  (1) 
(4S,11aR)-4-methyl-1,2,3,4,11,11a-hexahydropyrazino[1,2-b]isoquinolin-6-one

$$$$
