
     RDKit          3D

 67 71  0  0  0  0  0  0  0  0999 V2000
    5.7606    2.5225   -0.1346 C   0  0  0  0  0  0  0  0  0  0  0  0
    5.9890    2.1660    1.3146 C   0  0  0  0  0  0  0  0  0  0  0  0
    5.4353    0.8060    1.6623 C   0  0  0  0  0  0  0  0  0  0  0  0
    3.9692    0.7503    1.4195 C   0  0  0  0  0  0  0  0  0  0  0  0
    3.1604    1.5264    2.0302 O   0  0  0  0  0  0  0  0  0  0  0  0
    3.6581   -0.2493    0.4565 N   0  0  0  0  0  0  0  0  0  0  0  0
    4.8916   -0.8427    0.0662 C   0  0  0  0  0  0  0  0  0  0  0  0
    5.9359   -0.2504    0.7469 C   0  0  0  0  0  0  0  0  0  0  0  0
    7.2515   -0.6451    0.5486 C   0  0  0  0  0  0  0  0  0  0  0  0
    7.4927   -1.6603   -0.3606 C   0  0  0  0  0  0  0  0  0  0  0  0
    6.4514   -2.2640   -1.0518 C   0  0  0  0  0  0  0  0  0  0  0  0
    5.1423   -1.8688   -0.8520 C   0  0  0  0  0  0  0  0  0  0  0  0
    2.3232   -0.5450    0.0118 C   0  0  0  0  0  0  0  0  0  0  0  0
    1.4215   -1.0587    1.1275 C   0  0  0  0  0  0  0  0  0  0  0  0
   -0.0149   -0.6011    0.9652 C   0  0  0  0  0  0  0  0  0  0  0  0
   -0.3807   -0.6454   -0.4056 N   0  0  0  0  0  0  0  0  0  0  0  0
    0.3816    0.1632   -1.2958 C   0  0  0  0  0  0  0  0  0  0  0  0
    1.6481    0.6310   -0.6091 C   0  0  0  0  0  0  0  0  0  0  0  0
   -1.7599   -0.7977   -0.7076 C   0  0  0  0  0  0  0  0  0  0  0  0
   -2.6023    0.4014   -0.3366 C   0  0  0  0  0  0  0  0  0  0  0  0
   -4.0527    0.1497   -0.6953 C   0  0  0  0  0  0  0  0  0  0  0  0
   -4.9477    1.2698   -0.3664 C   0  0  0  0  0  0  0  0  0  0  0  0
   -5.9675    1.6707   -1.2359 C   0  0  0  0  0  0  0  0  0  0  0  0
   -6.7897    2.7335   -0.8854 C   0  0  0  0  0  0  0  0  0  0  0  0
   -6.6207    3.4085    0.3131 C   0  0  0  0  0  0  0  0  0  0  0  0
   -5.6038    3.0147    1.1887 C   0  0  0  0  0  0  0  0  0  0  0  0
   -4.7823    1.9487    0.8325 C   0  0  0  0  0  0  0  0  0  0  0  0
   -4.5458   -1.1644   -0.1842 C   0  0  0  0  0  0  0  0  0  0  0  0
   -4.2244   -1.5816    1.0925 C   0  0  0  0  0  0  0  0  0  0  0  0
   -4.6577   -2.7904    1.6060 C   0  0  0  0  0  0  0  0  0  0  0  0
   -5.4490   -3.6250    0.8121 C   0  0  0  0  0  0  0  0  0  0  0  0
   -5.7845   -3.2274   -0.4727 C   0  0  0  0  0  0  0  0  0  0  0  0
   -5.3281   -2.0114   -0.9417 C   0  0  0  0  0  0  0  0  0  0  0  0
    5.2669    3.5245   -0.2120 H   0  0  0  0  0  0  0  0  0  0  0  0
    6.7302    2.6261   -0.6727 H   0  0  0  0  0  0  0  0  0  0  0  0
    5.1124    1.7621   -0.6245 H   0  0  0  0  0  0  0  0  0  0  0  0
    5.4531    2.9054    1.9552 H   0  0  0  0  0  0  0  0  0  0  0  0
    7.0466    2.1895    1.5925 H   0  0  0  0  0  0  0  0  0  0  0  0
    5.7265    0.5815    2.6965 H   0  0  0  0  0  0  0  0  0  0  0  0
    8.0798   -0.1784    1.0850 H   0  0  0  0  0  0  0  0  0  0  0  0
    8.4993   -2.0038   -0.5494 H   0  0  0  0  0  0  0  0  0  0  0  0
    6.6149   -3.0621   -1.7709 H   0  0  0  0  0  0  0  0  0  0  0  0
    4.3100   -2.3159   -1.3722 H   0  0  0  0  0  0  0  0  0  0  0  0
    2.3776   -1.3769   -0.7491 H   0  0  0  0  0  0  0  0  0  0  0  0
    1.3862   -2.1875    1.1080 H   0  0  0  0  0  0  0  0  0  0  0  0
    1.7481   -0.6976    2.1281 H   0  0  0  0  0  0  0  0  0  0  0  0
   -0.1951    0.3755    1.4560 H   0  0  0  0  0  0  0  0  0  0  0  0
   -0.6590   -1.3254    1.5060 H   0  0  0  0  0  0  0  0  0  0  0  0
    0.6970   -0.4976   -2.1568 H   0  0  0  0  0  0  0  0  0  0  0  0
   -0.1999    1.0331   -1.6676 H   0  0  0  0  0  0  0  0  0  0  0  0
    1.4028    1.3623    0.1899 H   0  0  0  0  0  0  0  0  0  0  0  0
    2.2522    1.1410   -1.3818 H   0  0  0  0  0  0  0  0  0  0  0  0
   -2.1435   -1.7210   -0.2676 H   0  0  0  0  0  0  0  0  0  0  0  0
   -1.8409   -0.9013   -1.8135 H   0  0  0  0  0  0  0  0  0  0  0  0
   -2.4539    0.6969    0.7078 H   0  0  0  0  0  0  0  0  0  0  0  0
   -2.2767    1.2586   -0.9586 H   0  0  0  0  0  0  0  0  0  0  0  0
   -4.0783    0.0326   -1.8176 H   0  0  0  0  0  0  0  0  0  0  0  0
   -6.1147    1.1443   -2.1901 H   0  0  0  0  0  0  0  0  0  0  0  0
   -7.5787    3.0225   -1.5891 H   0  0  0  0  0  0  0  0  0  0  0  0
   -7.2809    4.2359    0.5598 H   0  0  0  0  0  0  0  0  0  0  0  0
   -5.4502    3.5336    2.1414 H   0  0  0  0  0  0  0  0  0  0  0  0
   -4.0175    1.6939    1.5526 H   0  0  0  0  0  0  0  0  0  0  0  0
   -3.6230   -0.9544    1.7053 H   0  0  0  0  0  0  0  0  0  0  0  0
   -4.4075   -3.1221    2.6047 H   0  0  0  0  0  0  0  0  0  0  0  0
   -5.8081   -4.5892    1.1923 H   0  0  0  0  0  0  0  0  0  0  0  0
   -6.3895   -3.8257   -1.1354 H   0  0  0  0  0  0  0  0  0  0  0  0
   -5.5872   -1.6935   -1.9456 H   0  0  0  0  0  0  0  0  0  0  0  0
  1  2  1  0
  2  3  1  0
  3  4  1  0
  4  5  2  0
  4  6  1  0
  6  7  1  0
  7  8  2  0
  8  9  1  0
  9 10  2  0
 10 11  1  0
 11 12  2  0
  6 13  1  0
 13 14  1  0
 14 15  1  0
 15 16  1  0
 16 17  1  0
 17 18  1  0
 16 19  1  0
 19 20  1  0
 20 21  1  0
 21 22  1  0
 22 23  2  0
 23 24  1  0
 24 25  2  0
 25 26  1  0
 26 27  2  0
 21 28  1  0
 28 29  2  0
 29 30  1  0
 30 31  2  0
 31 32  1  0
 32 33  2  0
  8  3  1  0
 18 13  1  0
 27 22  1  0
 33 28  1  0
 12  7  1  0
  1 34  1  0
  1 35  1  0
  1 36  1  0
  2 37  1  0
  2 38  1  0
  3 39  1  0
  9 40  1  0
 10 41  1  0
 11 42  1  0
 12 43  1  0
 13 44  1  0
 14 45  1  0
 14 46  1  0
 15 47  1  0
 15 48  1  0
 17 49  1  0
 17 50  1  0
 18 51  1  0
 18 52  1  0
 19 53  1  0
 19 54  1  0
 20 55  1  0
 20 56  1  0
 21 57  1  0
 23 58  1  0
 24 59  1  0
 25 60  1  0
 26 61  1  0
 27 62  1  0
 29 63  1  0
 30 64  1  0
 31 65  1  0
 32 66  1  0
 33 67  1  0
M  END
>  <Ligand ID>  (1) 
LIG0004131

>  <Ligand>  (1) 
CHEMBL3262549

>  <SMILES>  (1) 
CCC1C(=O)N(c2c1cccc2)C1CCN(CC1)CCC(c1ccccc1)c1ccccc1

>  <CID>  (1) 
90655976.0

>  <ChEMBL ID>  (1) 
nan

>  <InChiKey>  (1) 
HXLPOWDEWXIQLU-UHFFFAOYSA-N

>  <InChi>  (1) 
InChI=1S/C30H34N2O/c1-2-26-28-15-9-10-16-29(28)32(30(26)33)25-17-20-31(21-18-25)22-19-27(23-11-5-3-6-12-23)24-13-7-4-8-14-24/h3-16,25-27H,2,17-22H2,1H3

>  <IUPAC Name>  (1) 
1-[1-(3,3-diphenylpropyl)piperidin-4-yl]-3-ethyl-3H-indol-2-one

$$$$
