
     RDKit          3D

 37 38  0  0  0  0  0  0  0  0999 V2000
   -3.6358    3.0830    1.6796 N   0  0  0  0  0  0  0  0  0  0  0  0
   -4.6587    2.2893    1.0247 C   0  0  0  0  0  0  0  0  0  0  0  0
   -4.0972    1.6907   -0.2702 C   0  0  0  0  0  0  0  0  0  0  0  0
   -2.9425    0.8460    0.1373 C   0  0  0  0  0  0  0  0  0  0  0  0
   -1.6570    1.3325    0.2270 C   0  0  0  0  0  0  0  0  0  0  0  0
   -0.6382    0.4882    0.6118 C   0  0  0  0  0  0  0  0  0  0  0  0
   -0.8169   -0.8407    0.9208 C   0  0  0  0  0  0  0  0  0  0  0  0
   -2.1448   -1.2969    0.8164 C   0  0  0  0  0  0  0  0  0  0  0  0
   -3.1701   -0.4695    0.4349 C   0  0  0  0  0  0  0  0  0  0  0  0
   -2.5960   -3.3171    1.2566 I   0  0  0  0  0  0  0  0  0  0  0  0
    0.1061   -1.7313    1.3020 O   0  0  0  0  0  0  0  0  0  0  0  0
    1.4465   -1.7677    1.5299 C   0  0  0  0  0  0  0  0  0  0  0  0
    2.3509   -1.4574    0.4085 C   0  0  0  0  0  0  0  0  0  0  0  0
    2.6850   -2.4977   -0.4517 C   0  0  0  0  0  0  0  0  0  0  0  0
    3.5358   -2.3285   -1.5246 C   0  0  0  0  0  0  0  0  0  0  0  0
    4.0857   -1.0817   -1.7669 C   0  0  0  0  0  0  0  0  0  0  0  0
    3.7702   -0.0339   -0.9285 C   0  0  0  0  0  0  0  0  0  0  0  0
    2.9104   -0.2367    0.1435 C   0  0  0  0  0  0  0  0  0  0  0  0
    5.0070   -0.8026   -2.8911 C   0  0  0  0  0  0  0  0  0  0  0  0
    5.1985   -1.9111   -3.6902 F   0  0  0  0  0  0  0  0  0  0  0  0
    4.4901    0.1820   -3.6841 F   0  0  0  0  0  0  0  0  0  0  0  0
    6.2152   -0.4268   -2.3153 F   0  0  0  0  0  0  0  0  0  0  0  0
   -4.0799    3.4671    2.5507 H   0  0  0  0  0  0  0  0  0  0  0  0
   -3.3271    3.8346    1.0342 H   0  0  0  0  0  0  0  0  0  0  0  0
   -5.6022    2.8296    0.8632 H   0  0  0  0  0  0  0  0  0  0  0  0
   -4.8374    1.4216    1.7171 H   0  0  0  0  0  0  0  0  0  0  0  0
   -3.7245    2.5160   -0.9084 H   0  0  0  0  0  0  0  0  0  0  0  0
   -4.8951    1.1011   -0.7539 H   0  0  0  0  0  0  0  0  0  0  0  0
   -1.4749    2.3669   -0.0066 H   0  0  0  0  0  0  0  0  0  0  0  0
    0.3431    0.9046    0.6739 H   0  0  0  0  0  0  0  0  0  0  0  0
   -4.1718   -0.8556    0.3669 H   0  0  0  0  0  0  0  0  0  0  0  0
    1.6705   -0.9660    2.3087 H   0  0  0  0  0  0  0  0  0  0  0  0
    1.7088   -2.7752    1.9882 H   0  0  0  0  0  0  0  0  0  0  0  0
    2.2768   -3.4980   -0.3015 H   0  0  0  0  0  0  0  0  0  0  0  0
    3.7904   -3.1437   -2.1891 H   0  0  0  0  0  0  0  0  0  0  0  0
    4.1975    0.9645   -1.1049 H   0  0  0  0  0  0  0  0  0  0  0  0
    2.6816    0.5943    0.7914 H   0  0  0  0  0  0  0  0  0  0  0  0
  1  2  1  0
  2  3  1  0
  3  4  1  0
  4  5  2  0
  5  6  1  0
  6  7  2  0
  7  8  1  0
  8  9  2  0
  8 10  1  0
  7 11  1  0
 11 12  1  0
 12 13  1  0
 13 14  2  0
 14 15  1  0
 15 16  2  0
 16 17  1  0
 17 18  2  0
 16 19  1  0
 19 20  1  0
 19 21  1  0
 19 22  1  0
  9  4  1  0
 18 13  1  0
  1 23  1  0
  1 24  1  0
  2 25  1  0
  2 26  1  0
  3 27  1  0
  3 28  1  0
  5 29  1  0
  6 30  1  0
  9 31  1  0
 12 32  1  0
 12 33  1  0
 14 34  1  0
 15 35  1  0
 17 36  1  0
 18 37  1  0
M  END
>  <Ligand ID>  (1) 
LIG0005958

>  <Ligand>  (1) 
CHEMBL425223

>  <SMILES>  (1) 
NCCc1ccc(c(c1)I)OCc1ccc(cc1)C(F)(F)F

>  <CID>  (1) 
11554333.0

>  <ChEMBL ID>  (1) 
nan

>  <InChiKey>  (1) 
VKROPMWPWUFEPK-UHFFFAOYSA-N

>  <InChi>  (1) 
InChI=1S/C16H15F3INO/c17-16(18,19)13-4-1-12(2-5-13)10-22-15-6-3-11(7-8-21)9-14(15)20/h1-6,9H,7-8,10,21H2

>  <IUPAC Name>  (1) 
2-[3-iodo-4-[[4-(trifluoromethyl)phenyl]methoxy]phenyl]ethanamine

$$$$
