
     RDKit          3D

158163  0  0  0  0  0  0  0  0999 V2000
    9.5032    0.9782   -1.9786 C   0  0  0  0  0  0  0  0  0  0  0  0
   10.2431   -0.3066   -1.6623 C   0  0  0  0  0  0  0  0  0  0  0  0
    9.2892   -1.4875   -1.7962 C   0  0  0  0  0  0  0  0  0  0  0  0
    8.1866   -1.3023   -0.7998 C   0  0  0  0  0  0  0  0  0  0  0  0
    7.1519   -2.3807   -0.8861 C   0  0  2  0  0  0  0  0  0  0  0  0
    6.0612   -2.1980    0.1223 C   0  0  0  0  0  0  0  0  0  0  0  0
    5.7320   -3.2174    0.7672 O   0  0  0  0  0  0  0  0  0  0  0  0
    5.4529   -0.9848    0.3355 N   0  0  0  0  0  0  0  0  0  0  0  0
    4.3782   -0.6527    1.2589 C   0  0  1  0  0  0  0  0  0  0  0  0
    4.3912   -1.2948    2.5745 C   0  0  0  0  0  0  0  0  0  0  0  0
    3.5815   -2.5567    2.5766 C   0  0  0  0  0  0  0  0  0  0  0  0
    2.9568   -2.9339    1.5580 O   0  0  0  0  0  0  0  0  0  0  0  0
    3.4258   -3.4332    3.6881 N   0  0  0  0  0  0  0  0  0  0  0  0
    2.5035   -4.5799    3.4029 C   0  0  0  0  0  0  0  0  0  0  0  0
    1.1948   -3.9012    3.1612 C   0  0  0  0  0  0  0  0  0  0  0  0
    0.0718   -4.8062    2.6172 C   0  0  0  0  0  0  0  0  0  0  0  0
   -1.0782   -3.8947    2.2645 C   0  0  0  0  0  0  0  0  0  0  0  0
   -2.2265   -4.6038    1.6712 C   0  0  1  0  0  0  0  0  0  0  0  0
   -2.8159   -5.5302    2.6539 C   0  0  0  0  0  0  0  0  0  0  0  0
   -2.1825   -6.5212    3.1051 O   0  0  0  0  0  0  0  0  0  0  0  0
   -4.1334   -5.3370    3.1370 N   0  0  0  0  0  0  0  0  0  0  0  0
   -3.2099   -3.5733    1.2135 N   0  0  0  0  0  0  0  0  0  0  0  0
   -3.7082   -2.7014    2.1898 C   0  0  0  0  0  0  0  0  0  0  0  0
   -3.6772   -3.4903   -0.1120 C   0  0  0  0  0  0  0  0  0  0  0  0
   -3.3947   -4.5039   -0.7748 O   0  0  0  0  0  0  0  0  0  0  0  0
   -4.4307   -2.3992   -0.7364 C   0  0  1  0  0  0  0  0  0  0  0  0
   -4.4086   -1.1225   -0.0461 N   0  0  0  0  0  0  0  0  0  0  0  0
   -3.4723   -0.0876   -0.3394 C   0  0  0  0  0  0  0  0  0  0  0  0
   -2.6356   -0.3828   -1.2175 O   0  0  0  0  0  0  0  0  0  0  0  0
   -3.3802    1.2439    0.2709 C   0  0  1  0  0  0  0  0  0  0  0  0
   -2.0967    1.8875   -0.1159 N   0  0  0  0  0  0  0  0  0  0  0  0
   -1.7682    2.2483   -1.4469 C   0  0  0  0  0  0  0  0  0  0  0  0
   -2.6313    2.0000   -2.3016 O   0  0  0  0  0  0  0  0  0  0  0  0
   -0.4400    2.8944   -1.7929 C   0  0  2  0  0  0  0  0  0  0  0  0
    0.3067    3.1942   -0.5930 N   0  0  0  0  0  0  0  0  0  0  0  0
    1.4462    2.4429   -0.1471 C   0  0  0  0  0  0  0  0  0  0  0  0
    1.6840    1.4951   -0.8930 O   0  0  0  0  0  0  0  0  0  0  0  0
    2.2698    2.6883    1.0298 C   0  0  1  0  0  0  0  0  0  0  0  0
    2.8016    1.4133    1.5936 N   0  0  0  0  0  0  0  0  0  0  0  0
    3.7384    0.6040    0.9643 C   0  0  0  0  0  0  0  0  0  0  0  0
    4.0940    1.1401   -0.1473 O   0  0  0  0  0  0  0  0  0  0  0  0
    2.2999    1.0564    2.8795 C   0  0  0  0  0  0  0  0  0  0  0  0
    3.1964    3.8229    1.0783 C   0  0  0  0  0  0  0  0  0  0  0  0
    4.2988    4.0100    0.1575 C   0  0  0  0  0  0  0  0  0  0  0  0
    4.1836    4.6707   -1.0385 N   0  0  0  0  0  0  0  0  0  0  0  0
    5.3873    4.7327   -1.6397 C   0  0  0  0  0  0  0  0  0  0  0  0
    6.3064    4.1127   -0.8491 N   0  0  0  0  0  0  0  0  0  0  0  0
    5.6515    3.6762    0.2351 C   0  0  0  0  0  0  0  0  0  0  0  0
   -0.1029    4.2631    0.2419 C   0  0  0  0  0  0  0  0  0  0  0  0
   -0.5012    3.9292   -2.8294 C   0  0  0  0  0  0  0  0  0  0  0  0
   -1.3048    5.1209   -2.6527 C   0  0  0  0  0  0  0  0  0  0  0  0
   -2.6414    5.2216   -2.9928 C   0  0  0  0  0  0  0  0  0  0  0  0
   -3.3359    6.4039   -2.8226 C   0  0  0  0  0  0  0  0  0  0  0  0
   -2.7460    7.5440   -2.3075 C   0  0  0  0  0  0  0  0  0  0  0  0
   -1.4235    7.4520   -1.9687 C   0  0  0  0  0  0  0  0  0  0  0  0
   -0.7318    6.2795   -2.1375 C   0  0  0  0  0  0  0  0  0  0  0  0
   -0.7461    8.5456   -1.4402 C   0  0  0  0  0  0  0  0  0  0  0  0
   -1.4023    9.7348   -1.2527 C   0  0  0  0  0  0  0  0  0  0  0  0
   -2.7452    9.8037   -1.6056 C   0  0  0  0  0  0  0  0  0  0  0  0
   -3.4333    8.7349   -2.1293 C   0  0  0  0  0  0  0  0  0  0  0  0
   -4.5039    2.1688    0.0289 C   0  0  0  0  0  0  0  0  0  0  0  0
   -5.8362    1.7276    0.5355 C   0  0  0  0  0  0  0  0  0  0  0  0
   -5.7747    1.5193    2.0410 C   0  0  0  0  0  0  0  0  0  0  0  0
   -7.0684    1.0911    2.5490 N   0  0  0  0  0  0  0  0  0  0  0  0
   -7.1794    0.9760    3.8287 C   0  0  0  0  0  0  0  0  0  0  0  0
   -8.4344    0.5556    4.3566 N   0  0  0  0  0  0  0  0  0  0  0  0
   -6.1334    1.2430    4.7504 N   0  0  0  0  0  0  0  0  0  0  0  0
   -4.2530   -2.2890   -2.2353 C   0  0  0  0  0  0  0  0  0  0  0  0
   -4.7402   -3.5206   -2.8820 C   0  0  0  0  0  0  0  0  0  0  0  0
   -4.0691   -4.5913   -3.4301 C   0  0  0  0  0  0  0  0  0  0  0  0
   -4.9118   -5.4996   -3.9234 N   0  0  0  0  0  0  0  0  0  0  0  0
   -6.1652   -5.0386   -3.7054 C   0  0  0  0  0  0  0  0  0  0  0  0
   -6.0803   -3.8184   -3.0639 C   0  0  0  0  0  0  0  0  0  0  0  0
   -7.2658   -3.1693   -2.7559 C   0  0  0  0  0  0  0  0  0  0  0  0
   -8.5128   -3.7093   -3.0737 C   0  0  0  0  0  0  0  0  0  0  0  0
   -8.5910   -4.9223   -3.7095 C   0  0  0  0  0  0  0  0  0  0  0  0
   -7.4202   -5.5759   -4.0188 C   0  0  0  0  0  0  0  0  0  0  0  0
    7.7434   -3.6744   -0.6882 N   0  0  0  0  0  0  0  0  0  0  0  0
    7.6918   -4.7296   -1.6704 C   0  0  0  0  0  0  0  0  0  0  0  0
    7.1098   -4.5598   -2.7742 O   0  0  0  0  0  0  0  0  0  0  0  0
    8.3680   -6.0106   -1.2936 C   0  0  0  0  0  0  0  0  0  0  0  0
    9.0743    1.4358   -1.0659 H   0  0  0  0  0  0  0  0  0  0  0  0
    8.7285    0.8051   -2.7681 H   0  0  0  0  0  0  0  0  0  0  0  0
   10.2305    1.7396   -2.3675 H   0  0  0  0  0  0  0  0  0  0  0  0
   10.5283   -0.2474   -0.5782 H   0  0  0  0  0  0  0  0  0  0  0  0
   11.0927   -0.4515   -2.3307 H   0  0  0  0  0  0  0  0  0  0  0  0
    9.9179   -2.3864   -1.5055 H   0  0  0  0  0  0  0  0  0  0  0  0
    8.9435   -1.6386   -2.8233 H   0  0  0  0  0  0  0  0  0  0  0  0
    8.6378   -1.3864    0.2269 H   0  0  0  0  0  0  0  0  0  0  0  0
    7.7360   -0.2757   -0.8947 H   0  0  0  0  0  0  0  0  0  0  0  0
    6.7176   -2.3480   -1.9210 H   0  0  0  0  0  0  0  0  0  0  0  0
    5.7956   -0.1515   -0.2551 H   0  0  0  0  0  0  0  0  0  0  0  0
    3.5573   -1.3932    0.7289 H   0  0  0  0  0  0  0  0  0  0  0  0
    5.4231   -1.5133    2.9771 H   0  0  0  0  0  0  0  0  0  0  0  0
    3.9531   -0.6755    3.3493 H   0  0  0  0  0  0  0  0  0  0  0  0
    3.9028   -3.2538    4.5290 H   0  0  0  0  0  0  0  0  0  0  0  0
    2.4424   -5.2741    4.2339 H   0  0  0  0  0  0  0  0  0  0  0  0
    2.8163   -5.0670    2.4403 H   0  0  0  0  0  0  0  0  0  0  0  0
    0.8573   -3.5526    4.2050 H   0  0  0  0  0  0  0  0  0  0  0  0
    1.1520   -3.0023    2.5658 H   0  0  0  0  0  0  0  0  0  0  0  0
   -0.1513   -5.5050    3.4415 H   0  0  0  0  0  0  0  0  0  0  0  0
    0.5006   -5.3577    1.7807 H   0  0  0  0  0  0  0  0  0  0  0  0
   -0.6719   -3.1921    1.4739 H   0  0  0  0  0  0  0  0  0  0  0  0
   -1.3611   -3.2728    3.1540 H   0  0  0  0  0  0  0  0  0  0  0  0
   -1.9204   -5.2271    0.8149 H   0  0  0  0  0  0  0  0  0  0  0  0
   -4.2940   -5.3686    4.1732 H   0  0  0  0  0  0  0  0  0  0  0  0
   -4.9296   -5.1675    2.5013 H   0  0  0  0  0  0  0  0  0  0  0  0
   -3.4058   -3.0217    3.2236 H   0  0  0  0  0  0  0  0  0  0  0  0
   -3.2868   -1.6891    2.0538 H   0  0  0  0  0  0  0  0  0  0  0  0
   -4.8097   -2.6159    2.2463 H   0  0  0  0  0  0  0  0  0  0  0  0
   -5.5466   -2.7106   -0.6475 H   0  0  0  0  0  0  0  0  0  0  0  0
   -5.0760   -0.9180    0.6890 H   0  0  0  0  0  0  0  0  0  0  0  0
   -3.3048    1.0634    1.3897 H   0  0  0  0  0  0  0  0  0  0  0  0
   -1.3866    2.0996    0.5823 H   0  0  0  0  0  0  0  0  0  0  0  0
    0.1089    1.9869   -2.2255 H   0  0  0  0  0  0  0  0  0  0  0  0
    1.5010    2.9581    1.8584 H   0  0  0  0  0  0  0  0  0  0  0  0
    3.0453    1.2086    3.7109 H   0  0  0  0  0  0  0  0  0  0  0  0
    1.8186    0.0892    2.9966 H   0  0  0  0  0  0  0  0  0  0  0  0
    1.4191    1.7840    3.1272 H   0  0  0  0  0  0  0  0  0  0  0  0
    3.5793    3.8574    2.1723 H   0  0  0  0  0  0  0  0  0  0  0  0
    2.6133    4.8025    1.0704 H   0  0  0  0  0  0  0  0  0  0  0  0
    3.3247    5.0871   -1.4659 H   0  0  0  0  0  0  0  0  0  0  0  0
    5.6503    5.1895   -2.6081 H   0  0  0  0  0  0  0  0  0  0  0  0
    6.1029    3.1433    1.0537 H   0  0  0  0  0  0  0  0  0  0  0  0
    0.4972    5.1766    0.1940 H   0  0  0  0  0  0  0  0  0  0  0  0
   -1.1973    4.4836    0.0605 H   0  0  0  0  0  0  0  0  0  0  0  0
   -0.1103    3.9176    1.3189 H   0  0  0  0  0  0  0  0  0  0  0  0
    0.5791    4.2678   -2.9900 H   0  0  0  0  0  0  0  0  0  0  0  0
   -0.7148    3.4278   -3.8297 H   0  0  0  0  0  0  0  0  0  0  0  0
   -3.1802    4.3980   -3.4034 H   0  0  0  0  0  0  0  0  0  0  0  0
   -4.3790    6.4733   -3.0935 H   0  0  0  0  0  0  0  0  0  0  0  0
    0.3118    6.2589   -1.8691 H   0  0  0  0  0  0  0  0  0  0  0  0
    0.3035    8.4550   -1.1780 H   0  0  0  0  0  0  0  0  0  0  0  0
   -0.8747   10.5927   -0.8377 H   0  0  0  0  0  0  0  0  0  0  0  0
   -3.2640   10.7435   -1.4667 H   0  0  0  0  0  0  0  0  0  0  0  0
   -4.4720    8.8065   -2.3978 H   0  0  0  0  0  0  0  0  0  0  0  0
   -4.2740    3.1671    0.4884 H   0  0  0  0  0  0  0  0  0  0  0  0
   -4.6473    2.3167   -1.0930 H   0  0  0  0  0  0  0  0  0  0  0  0
   -6.5911    2.5930    0.4386 H   0  0  0  0  0  0  0  0  0  0  0  0
   -6.3204    0.9098   -0.0128 H   0  0  0  0  0  0  0  0  0  0  0  0
   -5.5650    2.5260    2.4831 H   0  0  0  0  0  0  0  0  0  0  0  0
   -5.0175    0.7947    2.3249 H   0  0  0  0  0  0  0  0  0  0  0  0
   -8.7015   -0.4625    4.2846 H   0  0  0  0  0  0  0  0  0  0  0  0
   -9.1168    1.1939    4.8150 H   0  0  0  0  0  0  0  0  0  0  0  0
   -5.5851    0.4332    5.0972 H   0  0  0  0  0  0  0  0  0  0  0  0
   -5.9802    2.2309    5.0216 H   0  0  0  0  0  0  0  0  0  0  0  0
   -3.2334   -2.0435   -2.5641 H   0  0  0  0  0  0  0  0  0  0  0  0
   -4.8931   -1.4561   -2.5796 H   0  0  0  0  0  0  0  0  0  0  0  0
   -2.9741   -4.6888   -3.4631 H   0  0  0  0  0  0  0  0  0  0  0  0
   -4.7156   -6.4117   -4.3975 H   0  0  0  0  0  0  0  0  0  0  0  0
   -7.2628   -2.2117   -2.2527 H   0  0  0  0  0  0  0  0  0  0  0  0
   -9.3989   -3.1682   -2.8149 H   0  0  0  0  0  0  0  0  0  0  0  0
   -9.5803   -5.2989   -3.9331 H   0  0  0  0  0  0  0  0  0  0  0  0
   -7.4897   -6.5448   -4.5278 H   0  0  0  0  0  0  0  0  0  0  0  0
    8.2440   -3.8574    0.2342 H   0  0  0  0  0  0  0  0  0  0  0  0
    8.3511   -6.1310   -0.1881 H   0  0  0  0  0  0  0  0  0  0  0  0
    7.8562   -6.8906   -1.7122 H   0  0  0  0  0  0  0  0  0  0  0  0
    9.4127   -5.9211   -1.6295 H   0  0  0  0  0  0  0  0  0  0  0  0
  1  2  1  0
  2  3  1  0
  3  4  1  0
  4  5  1  0
  5  6  1  0
  6  7  2  0
  6  8  1  0
  8  9  1  0
  9 10  1  0
 10 11  1  0
 11 12  2  0
 11 13  1  0
 13 14  1  0
 14 15  1  0
 15 16  1  0
 16 17  1  0
 17 18  1  0
 18 19  1  0
 19 20  2  0
 19 21  1  0
 18 22  1  0
 22 23  1  0
 22 24  1  0
 24 25  2  0
 24 26  1  0
 26 27  1  0
 27 28  1  0
 28 29  2  0
 28 30  1  0
 30 31  1  0
 31 32  1  0
 32 33  2  0
 32 34  1  0
 34 35  1  0
 35 36  1  0
 36 37  2  0
 36 38  1  0
 38 39  1  0
 39 40  1  0
 40 41  2  0
 39 42  1  0
 38 43  1  0
 43 44  1  0
 44 45  1  0
 45 46  1  0
 46 47  2  0
 47 48  1  0
 35 49  1  0
 34 50  1  0
 50 51  1  0
 51 52  2  0
 52 53  1  0
 53 54  2  0
 54 55  1  0
 55 56  2  0
 55 57  1  0
 57 58  2  0
 58 59  1  0
 59 60  2  0
 30 61  1  0
 61 62  1  0
 62 63  1  0
 63 64  1  0
 64 65  2  3
 65 66  1  0
 65 67  1  0
 26 68  1  0
 68 69  1  0
 69 70  2  0
 70 71  1  0
 71 72  1  0
 72 73  2  0
 73 74  1  0
 74 75  2  0
 75 76  1  0
 76 77  2  0
  5 78  1  0
 78 79  1  0
 79 80  2  0
 79 81  1  0
 40  9  1  0
 48 44  2  0
 56 51  1  0
 73 69  1  0
 60 54  1  0
 77 72  1  0
  1 82  1  0
  1 83  1  0
  1 84  1  0
  2 85  1  0
  2 86  1  0
  3 87  1  0
  3 88  1  0
  4 89  1  0
  4 90  1  0
  5 91  1  6
  8 92  1  0
  9 93  1  6
 10 94  1  0
 10 95  1  0
 13 96  1  0
 14 97  1  0
 14 98  1  0
 15 99  1  0
 15100  1  0
 16101  1  0
 16102  1  0
 17103  1  0
 17104  1  0
 18105  1  6
 21106  1  0
 21107  1  0
 23108  1  0
 23109  1  0
 23110  1  0
 26111  1  6
 27112  1  0
 30113  1  1
 31114  1  0
 34115  1  6
 38116  1  1
 42117  1  0
 42118  1  0
 42119  1  0
 43120  1  0
 43121  1  0
 45122  1  0
 46123  1  0
 48124  1  0
 49125  1  0
 49126  1  0
 49127  1  0
 50128  1  0
 50129  1  0
 52130  1  0
 53131  1  0
 56132  1  0
 57133  1  0
 58134  1  0
 59135  1  0
 60136  1  0
 61137  1  0
 61138  1  0
 62139  1  0
 62140  1  0
 63141  1  0
 63142  1  0
 66143  1  0
 66144  1  0
 67145  1  0
 67146  1  0
 68147  1  0
 68148  1  0
 70149  1  0
 71150  1  0
 74151  1  0
 75152  1  0
 76153  1  0
 77154  1  0
 78155  1  0
 81156  1  0
 81157  1  0
 81158  1  0
M  END
>  <Ligand ID>  (1) 
LIG0001812

>  <Ligand>  (1) 
CHEMBL3600919

>  <SMILES>  (1) 
CCCC[C@H](C(=O)N[C@H]1CC(=O)NCCCC[C@@H](C(=O)N)N(C)C(=O)[C@@H](NC(=O)[C@@H](NC(=O)[C@H](N(C(=O)[C@@H](N(C1=O)C)Cc1[nH]cnc1)C)Cc1ccc2c(c1)cccc2)CCCN=C(N)N)Cc1c[nH]c2c1cccc2)NC(=O)C

>  <CID>  (1) 
122184638.0

>  <ChEMBL ID>  (1) 
nan

>  <InChiKey>  (1) 
UVCAZWPHVFRTMJ-PFOQGTFTSA-N

>  <InChi>  (1) 
InChI=1S/C57H77N15O9/c1-6-7-18-42(66-34(2)73)51(76)69-45-30-49(74)62-24-13-12-21-46(50(58)75)70(3)54(79)44(28-38-31-64-41-19-11-10-17-40(38)41)68-52(77)43(20-14-25-63-57(59)60)67-53(78)47(27-35-22-23-36-15-8-9-16-37(36)26-35)71(4)56(81)48(72(5)55(45)80)29-39-32-61-33-65-39/h8-11,15-17,19,22-23,26,31-33,42-48,64H,6-7,12-14,18,20-21,24-25,27-30H2,1-5H3,(H2,58,75)(H,61,65)(H,62,74)(H,66,73)(H,67,78)(H,68,77)(H,69,76)(H4,59,60,63)/t42-,43+,44+,45+,46+,47-,48+/m1/s1

>  <IUPAC Name>  (1) 
(3S,6S,9R,12S,15S,23S)-15-[[(2R)-2-acetamidohexanoyl]amino]-6-[3-(diaminomethylideneamino)propyl]-12-(1H-imidazol-5-ylmethyl)-3-(1H-indol-3-ylmethyl)-1,10,13-trimethyl-9-(naphthalen-2-ylmethyl)-2,5,8,11,14,17-hexaoxo-1,4,7,10,13,18-hexazacyclotricosane-23-carboxamide

$$$$
