
     RDKit          3D

 29 30  0  0  0  0  0  0  0  0999 V2000
    6.1708    1.9480    0.8518 Cl  0  0  0  0  0  0  0  0  0  0  0  0
    4.7123    1.0774    0.3836 C   0  0  0  0  0  0  0  0  0  0  0  0
    3.5314    1.2032    1.0988 C   0  0  0  0  0  0  0  0  0  0  0  0
    2.4090    0.4877    0.6786 C   0  0  0  0  0  0  0  0  0  0  0  0
    2.4579   -0.3379   -0.4318 C   0  0  0  0  0  0  0  0  0  0  0  0
    3.6600   -0.4321   -1.1153 C   0  0  0  0  0  0  0  0  0  0  0  0
    4.7919    0.2611   -0.7290 C   0  0  0  0  0  0  0  0  0  0  0  0
    3.7790   -1.4684   -2.5361 Cl  0  0  0  0  0  0  0  0  0  0  0  0
    1.3786   -1.0637   -0.8858 O   0  0  0  0  0  0  0  0  0  0  0  0
    0.1565   -0.9333   -0.1452 C   0  0  0  0  0  0  0  0  0  0  0  0
   -0.8994   -1.7923   -0.7854 C   0  0  0  0  0  0  0  0  0  0  0  0
   -2.1138   -1.7198   -0.1282 O   0  0  0  0  0  0  0  0  0  0  0  0
   -2.9314   -0.6574    0.0187 C   0  0  0  0  0  0  0  0  0  0  0  0
   -2.7758    0.6127   -0.4702 C   0  0  0  0  0  0  0  0  0  0  0  0
   -3.7190    1.6054   -0.2314 C   0  0  0  0  0  0  0  0  0  0  0  0
   -4.8381    1.3418    0.5028 C   0  0  0  0  0  0  0  0  0  0  0  0
   -4.9957    0.0979    0.9836 N   0  0  0  0  0  0  0  0  0  0  0  0
   -4.1088   -0.8639    0.7683 C   0  0  0  0  0  0  0  0  0  0  0  0
   -4.4661   -2.5928    1.5169 Br  0  0  0  0  0  0  0  0  0  0  0  0
   -6.1728    2.6606    0.8678 Br  0  0  0  0  0  0  0  0  0  0  0  0
    3.4935    1.8519    1.9711 H   0  0  0  0  0  0  0  0  0  0  0  0
    1.4651    0.5712    1.2279 H   0  0  0  0  0  0  0  0  0  0  0  0
    5.6987    0.1503   -1.2970 H   0  0  0  0  0  0  0  0  0  0  0  0
    0.4233   -1.3288    0.8688 H   0  0  0  0  0  0  0  0  0  0  0  0
   -0.0715    0.1250   -0.0776 H   0  0  0  0  0  0  0  0  0  0  0  0
   -0.5117   -2.8396   -0.8652 H   0  0  0  0  0  0  0  0  0  0  0  0
   -0.9860   -1.4782   -1.8733 H   0  0  0  0  0  0  0  0  0  0  0  0
   -1.9362    0.8982   -1.0736 H   0  0  0  0  0  0  0  0  0  0  0  0
   -3.6016    2.6159   -0.6157 H   0  0  0  0  0  0  0  0  0  0  0  0
  1  2  1  0
  2  3  2  0
  3  4  1  0
  4  5  2  0
  5  6  1  0
  6  7  2  0
  6  8  1  0
  5  9  1  0
  9 10  1  0
 10 11  1  0
 11 12  1  0
 12 13  1  0
 13 14  2  0
 14 15  1  0
 15 16  2  0
 16 17  1  0
 17 18  2  0
 18 19  1  0
 16 20  1  0
  7  2  1  0
 18 13  1  0
  3 21  1  0
  4 22  1  0
  7 23  1  0
 10 24  1  0
 10 25  1  0
 11 26  1  0
 11 27  1  0
 14 28  1  0
 15 29  1  0
M  END
>  <Ligand ID>  (1) 
LIG0001217

>  <Ligand>  (1) 
ML178

>  <SMILES>  (1) 
Clc1ccc(c(c1)Cl)OCCOc1ccc(nc1Br)Br

>  <CID>  (1) 
44620892.0

>  <ChEMBL ID>  (1) 
nan

>  <InChiKey>  (1) 
KMGUBUXDNOMSRM-UHFFFAOYSA-N

>  <InChi>  (1) 
InChI=1S/C13H9Br2Cl2NO2/c14-12-4-3-11(13(15)18-12)20-6-5-19-10-2-1-8(16)7-9(10)17/h1-4,7H,5-6H2

>  <IUPAC Name>  (1) 
2,6-dibromo-3-[2-(2,4-dichlorophenoxy)ethoxy]pyridine

$$$$
