
     RDKit          3D

 56 59  0  0  0  0  0  0  0  0999 V2000
    0.4966    3.6064   -1.3943 C   0  0  0  0  0  0  0  0  0  0  0  0
   -0.3519    4.1772   -0.2735 C   0  0  0  0  0  0  0  0  0  0  0  0
   -0.1608    3.3090    0.8772 N   0  0  0  0  0  0  0  0  0  0  0  0
   -0.5293    1.9412    0.7175 C   0  0  0  0  0  0  0  0  0  0  0  0
   -1.7842    1.5694    1.0119 N   0  0  0  0  0  0  0  0  0  0  0  0
   -2.2251    0.2799    0.8886 C   0  0  0  0  0  0  0  0  0  0  0  0
   -3.5566   -0.0537    1.2228 N   0  0  0  0  0  0  0  0  0  0  0  0
   -4.1369   -1.3756    1.1078 C   0  0  0  0  0  0  0  0  0  0  0  0
   -4.2201   -1.8881   -0.2934 C   0  0  0  0  0  0  0  0  0  0  0  0
   -5.7086   -1.9984   -0.6403 C   0  0  0  0  0  0  0  0  0  0  0  0
   -6.3618   -2.2000    0.7174 C   0  0  0  0  0  0  0  0  0  0  0  0
   -5.5505   -1.3078    1.5881 C   0  0  0  0  0  0  0  0  0  0  0  0
   -1.2860   -0.6197    0.4382 C   0  0  0  0  0  0  0  0  0  0  0  0
    0.0253   -0.2354    0.1297 C   0  0  0  0  0  0  0  0  0  0  0  0
    0.4032    1.0608    0.2725 N   0  0  0  0  0  0  0  0  0  0  0  0
    0.7196   -1.3124   -0.2803 N   0  0  0  0  0  0  0  0  0  0  0  0
   -0.1316   -2.3540   -0.2325 C   0  0  0  0  0  0  0  0  0  0  0  0
   -1.3288   -1.9191    0.2005 N   0  0  0  0  0  0  0  0  0  0  0  0
    2.0854   -1.2916   -0.6748 C   0  0  2  0  0  0  0  0  0  0  0  0
    2.8980   -0.5339    0.2000 O   0  0  0  0  0  0  0  0  0  0  0  0
    4.1370   -0.7179   -0.4582 C   0  0  1  0  0  0  0  0  0  0  0  0
    3.8876   -0.4982   -1.9061 C   0  0  2  0  0  0  0  0  0  0  0  0
    2.3584   -0.5463   -1.9721 C   0  0  1  0  0  0  0  0  0  0  0  0
    1.9222   -1.2226   -3.0962 O   0  0  0  0  0  0  0  0  0  0  0  0
    4.3370   -1.5640   -2.6876 O   0  0  0  0  0  0  0  0  0  0  0  0
    5.2373    0.0040    0.1578 C   0  0  0  0  0  0  0  0  0  0  0  0
    6.3962   -0.1044   -0.3722 O   0  0  0  0  0  0  0  0  0  0  0  0
    5.0876    0.8209    1.3160 N   0  0  0  0  0  0  0  0  0  0  0  0
    6.2608    1.4955    1.8435 C   0  0  0  0  0  0  0  0  0  0  0  0
    1.4349    3.2454   -0.9014 H   0  0  0  0  0  0  0  0  0  0  0  0
    0.7805    4.4035   -2.0934 H   0  0  0  0  0  0  0  0  0  0  0  0
   -0.0702    2.7828   -1.8636 H   0  0  0  0  0  0  0  0  0  0  0  0
    0.0101    5.2074   -0.0754 H   0  0  0  0  0  0  0  0  0  0  0  0
   -1.4193    4.2598   -0.5564 H   0  0  0  0  0  0  0  0  0  0  0  0
    0.2290    3.6949    1.7646 H   0  0  0  0  0  0  0  0  0  0  0  0
   -4.1549    0.7476    1.5839 H   0  0  0  0  0  0  0  0  0  0  0  0
   -3.5471   -2.0805    1.7544 H   0  0  0  0  0  0  0  0  0  0  0  0
   -3.8235   -2.9248   -0.3883 H   0  0  0  0  0  0  0  0  0  0  0  0
   -3.7382   -1.2724   -1.0526 H   0  0  0  0  0  0  0  0  0  0  0  0
   -5.9092   -2.8571   -1.3115 H   0  0  0  0  0  0  0  0  0  0  0  0
   -6.1027   -1.0625   -1.0698 H   0  0  0  0  0  0  0  0  0  0  0  0
   -6.2192   -3.2457    1.0632 H   0  0  0  0  0  0  0  0  0  0  0  0
   -7.4154   -1.8896    0.7056 H   0  0  0  0  0  0  0  0  0  0  0  0
   -5.9111   -0.2570    1.5298 H   0  0  0  0  0  0  0  0  0  0  0  0
   -5.5797   -1.6230    2.6633 H   0  0  0  0  0  0  0  0  0  0  0  0
    0.0893   -3.3901   -0.4965 H   0  0  0  0  0  0  0  0  0  0  0  0
    2.5520   -2.2819   -0.7708 H   0  0  0  0  0  0  0  0  0  0  0  0
    4.3510   -1.8190   -0.3315 H   0  0  0  0  0  0  0  0  0  0  0  0
    4.2933    0.4171   -2.3341 H   0  0  0  0  0  0  0  0  0  0  0  0
    1.9684    0.4921   -1.8992 H   0  0  0  0  0  0  0  0  0  0  0  0
    1.3001   -0.6077   -3.5655 H   0  0  0  0  0  0  0  0  0  0  0  0
    4.0523   -2.3988   -2.2005 H   0  0  0  0  0  0  0  0  0  0  0  0
    4.1558    0.9068    1.7406 H   0  0  0  0  0  0  0  0  0  0  0  0
    7.0430    1.5562    1.0557 H   0  0  0  0  0  0  0  0  0  0  0  0
    6.0399    2.5238    2.1836 H   0  0  0  0  0  0  0  0  0  0  0  0
    6.6711    0.9518    2.7172 H   0  0  0  0  0  0  0  0  0  0  0  0
  1  2  1  0
  2  3  1  0
  3  4  1  0
  4  5  2  0
  5  6  1  0
  6  7  1  0
  7  8  1  0
  8  9  1  0
  9 10  1  0
 10 11  1  0
 11 12  1  0
  6 13  2  0
 13 14  1  0
 14 15  2  0
 14 16  1  0
 16 17  1  0
 17 18  2  0
 16 19  1  0
 19 20  1  0
 20 21  1  0
 21 22  1  0
 22 23  1  0
 23 24  1  0
 22 25  1  0
 21 26  1  0
 26 27  2  0
 26 28  1  0
 28 29  1  0
 15  4  1  0
 23 19  1  0
 12  8  1  0
 18 13  1  0
  1 30  1  0
  1 31  1  0
  1 32  1  0
  2 33  1  0
  2 34  1  0
  3 35  1  0
  7 36  1  0
  8 37  1  0
  9 38  1  0
  9 39  1  0
 10 40  1  0
 10 41  1  0
 11 42  1  0
 11 43  1  0
 12 44  1  0
 12 45  1  0
 17 46  1  0
 19 47  1  6
 21 48  1  6
 22 49  1  6
 23 50  1  1
 24 51  1  0
 25 52  1  0
 28 53  1  0
 29 54  1  0
 29 55  1  0
 29 56  1  0
M  END
>  <Ligand ID>  (1) 
LIG0001935

>  <Ligand>  (1) 
CHEMBL3133151

>  <SMILES>  (1) 
CCNc1nc(NC2CCCC2)c2c(n1)n(cn2)[C@@H]1O[C@@H]([C@H]([C@H]1O)O)C(=O)NC

>  <CID>  (1) 
76329264.0

>  <ChEMBL ID>  (1) 
nan

>  <InChiKey>  (1) 
VCEGMGYGAGZEIK-PFHKOEEOSA-N

>  <InChi>  (1) 
InChI=1S/C18H27N7O4/c1-3-20-18-23-14(22-9-6-4-5-7-9)10-15(24-18)25(8-21-10)17-12(27)11(26)13(29-17)16(28)19-2/h8-9,11-13,17,26-27H,3-7H2,1-2H3,(H,19,28)(H2,20,22,23,24)/t11-,12+,13-,17+/m0/s1

>  <IUPAC Name>  (1) 
(2S,3S,4R,5R)-5-[6-(cyclopentylamino)-2-(ethylamino)purin-9-yl]-3,4-dihydroxy-N-methyloxolane-2-carboxamide

$$$$
