
     RDKit          3D

 61 66  0  0  0  0  0  0  0  0999 V2000
    1.0066    0.0504    2.6736 O   0  0  0  0  0  0  0  0  0  0  0  0
    1.3581   -0.0341    1.4460 C   0  0  0  0  0  0  0  0  0  0  0  0
    0.2961    0.0714    0.5061 N   0  0  0  0  0  0  0  0  0  0  0  0
   -1.0804    0.2578    0.8657 C   0  0  1  0  0  0  0  0  0  0  0  0
   -1.2201    1.5401    1.6600 C   0  0  0  0  0  0  0  0  0  0  0  0
   -0.4557    2.5977    0.8496 C   0  0  0  0  0  0  0  0  0  0  0  0
   -1.1258    2.7437   -0.4804 C   0  0  0  0  0  0  0  0  0  0  0  0
   -1.2592    3.8559   -0.9665 O   0  0  0  0  0  0  0  0  0  0  0  0
   -1.6340    1.5945   -1.2318 C   0  0  1  0  0  0  0  0  0  0  0  0
   -1.9245    0.3768   -0.3572 C   0  0  1  0  0  0  0  0  0  0  0  0
   -1.9524   -0.8592   -1.1930 C   0  0  0  0  0  0  0  0  0  0  0  0
   -2.2385   -2.0513   -0.3526 C   0  0  0  0  0  0  0  0  0  0  0  0
   -1.5318   -2.1240    0.8794 N   0  0  0  0  0  0  0  0  0  0  0  0
   -1.6109   -0.9160    1.6667 C   0  0  2  0  0  0  0  0  0  0  0  0
   -3.0266   -0.7509    2.0896 C   0  0  0  0  0  0  0  0  0  0  0  0
   -3.8564    0.1304    1.2493 C   0  0  0  0  0  0  0  0  0  0  0  0
   -3.3052    0.6644    0.1291 C   0  0  0  0  0  0  0  0  0  0  0  0
   -3.8817    1.5223   -0.7540 C   0  0  0  0  0  0  0  0  0  0  0  0
   -2.9626    1.8336   -1.7656 O   0  0  0  0  0  0  0  0  0  0  0  0
   -5.1968    1.8894   -0.4702 C   0  0  0  0  0  0  0  0  0  0  0  0
   -5.8129    1.3668    0.6698 C   0  0  0  0  0  0  0  0  0  0  0  0
   -5.1591    0.4921    1.5334 C   0  0  0  0  0  0  0  0  0  0  0  0
   -5.8526    2.7613   -1.3274 O   0  0  0  0  0  0  0  0  0  0  0  0
   -0.2385   -2.7101    0.7748 C   0  0  0  0  0  0  0  0  0  0  0  0
    2.7521   -0.2243    1.0769 C   0  0  0  0  0  0  0  0  0  0  0  0
    3.2050   -0.3216   -0.1445 C   0  0  0  0  0  0  0  0  0  0  0  0
    4.6058   -0.5123   -0.5010 C   0  0  0  0  0  0  0  0  0  0  0  0
    5.6195   -0.6118    0.4291 C   0  0  0  0  0  0  0  0  0  0  0  0
    6.9506   -0.7938    0.0669 C   0  0  0  0  0  0  0  0  0  0  0  0
    7.3009   -0.8817   -1.2649 C   0  0  0  0  0  0  0  0  0  0  0  0
    6.3048   -0.7850   -2.2152 C   0  0  0  0  0  0  0  0  0  0  0  0
    4.9888   -0.6043   -1.8314 C   0  0  0  0  0  0  0  0  0  0  0  0
    3.9246   -0.5019   -2.8717 C   0  0  0  0  0  0  0  0  0  0  0  0
    0.5495    0.0090   -0.5040 H   0  0  0  0  0  0  0  0  0  0  0  0
   -0.8444    1.4859    2.6819 H   0  0  0  0  0  0  0  0  0  0  0  0
   -2.2574    1.9273    1.7003 H   0  0  0  0  0  0  0  0  0  0  0  0
   -0.5256    3.5675    1.3604 H   0  0  0  0  0  0  0  0  0  0  0  0
    0.5947    2.3178    0.7216 H   0  0  0  0  0  0  0  0  0  0  0  0
   -0.9938    1.2871   -2.0624 H   0  0  0  0  0  0  0  0  0  0  0  0
   -2.8071   -0.7353   -1.9131 H   0  0  0  0  0  0  0  0  0  0  0  0
   -1.0222   -1.0179   -1.7710 H   0  0  0  0  0  0  0  0  0  0  0  0
   -1.9515   -2.9765   -0.9337 H   0  0  0  0  0  0  0  0  0  0  0  0
   -3.3343   -2.1770   -0.1636 H   0  0  0  0  0  0  0  0  0  0  0  0
   -1.0078   -1.1016    2.5735 H   0  0  0  0  0  0  0  0  0  0  0  0
   -3.0753   -0.4547    3.1729 H   0  0  0  0  0  0  0  0  0  0  0  0
   -3.5549   -1.7507    2.0775 H   0  0  0  0  0  0  0  0  0  0  0  0
   -6.8508    1.6555    0.8943 H   0  0  0  0  0  0  0  0  0  0  0  0
   -5.6253    0.0828    2.4171 H   0  0  0  0  0  0  0  0  0  0  0  0
   -5.7122    2.7695   -2.3161 H   0  0  0  0  0  0  0  0  0  0  0  0
    0.3989   -2.3310   -0.0319 H   0  0  0  0  0  0  0  0  0  0  0  0
    0.2885   -2.7018    1.7514 H   0  0  0  0  0  0  0  0  0  0  0  0
   -0.3835   -3.8039    0.5357 H   0  0  0  0  0  0  0  0  0  0  0  0
    3.4656   -0.2895    1.8857 H   0  0  0  0  0  0  0  0  0  0  0  0
    2.4937   -0.2567   -0.9519 H   0  0  0  0  0  0  0  0  0  0  0  0
    5.4199   -0.5523    1.4796 H   0  0  0  0  0  0  0  0  0  0  0  0
    7.7368   -0.8701    0.8144 H   0  0  0  0  0  0  0  0  0  0  0  0
    8.3488   -1.0235   -1.5079 H   0  0  0  0  0  0  0  0  0  0  0  0
    6.5792   -0.8539   -3.2584 H   0  0  0  0  0  0  0  0  0  0  0  0
    3.3129   -1.4018   -2.9642 H   0  0  0  0  0  0  0  0  0  0  0  0
    4.4156   -0.3063   -3.8599 H   0  0  0  0  0  0  0  0  0  0  0  0
    3.3548    0.4357   -2.6667 H   0  0  0  0  0  0  0  0  0  0  0  0
  1  2  2  0
  2  3  1  0
  4  3  1  6
  4  5  1  0
  5  6  1  0
  6  7  1  0
  7  8  2  0
  7  9  1  0
  9 10  1  0
 10 11  1  6
 11 12  1  0
 12 13  1  0
 13 14  1  0
 14 15  1  0
 15 16  1  0
 16 17  2  0
 17 18  1  0
 18 19  1  0
 18 20  2  0
 20 21  1  0
 21 22  2  0
 20 23  1  0
 13 24  1  0
  2 25  1  0
 25 26  2  0
 26 27  1  0
 27 28  2  0
 28 29  1  0
 29 30  2  0
 30 31  1  0
 31 32  2  0
 32 33  1  0
 14  4  1  0
 22 16  1  0
 32 27  1  0
 10  4  1  0
 19  9  1  0
 17 10  1  0
  3 34  1  0
  5 35  1  0
  5 36  1  0
  6 37  1  0
  6 38  1  0
  9 39  1  6
 11 40  1  0
 11 41  1  0
 12 42  1  0
 12 43  1  0
 14 44  1  1
 15 45  1  0
 15 46  1  0
 21 47  1  0
 22 48  1  0
 23 49  1  0
 24 50  1  0
 24 51  1  0
 24 52  1  0
 25 53  1  0
 26 54  1  0
 28 55  1  0
 29 56  1  0
 30 57  1  0
 31 58  1  0
 33 59  1  0
 33 60  1  0
 33 61  1  0
M  END
>  <Ligand ID>  (1) 
LIG0003856

>  <Ligand>  (1) 
CHEMBL607125

>  <SMILES>  (1) 
O=C(N[C@]12CCC(=O)[C@H]3[C@]42CCN([C@@H]1Cc1c4c(O3)c(cc1)O)C)/C=C/c1ccccc1C

>  <CID>  (1) 
11849285.0

>  <ChEMBL ID>  (1) 
nan

>  <InChiKey>  (1) 
HZDFHSBNWGNVNS-LDHJJSPKSA-N

>  <InChi>  (1) 
InChI=1S/C27H28N2O4/c1-16-5-3-4-6-17(16)8-10-22(32)28-27-12-11-20(31)25-26(27)13-14-29(2)21(27)15-18-7-9-19(30)24(33-25)23(18)26/h3-10,21,25,30H,11-15H2,1-2H3,(H,28,32)/b10-8+/t21-,25+,26+,27-/m1/s1

>  <IUPAC Name>  (1) 
(E)-N-[(4R,4aS,7aR,12bR)-9-hydroxy-3-methyl-7-oxo-2,4,5,6,7a,13-hexahydro-1H-4,12-methanobenzofuro[3,2-e]isoquinolin-4a-yl]-3-(2-methylphenyl)prop-2-enamide

$$$$
