
     RDKit          3D

 48 49  0  0  0  0  0  0  0  0999 V2000
    3.3801   -1.5388   -0.3759 O   0  0  0  0  0  0  0  0  0  0  0  0
    3.0011   -0.6902   -1.2248 C   0  0  0  0  0  0  0  0  0  0  0  0
    1.6394   -0.5174   -1.5707 N   0  0  0  0  0  0  0  0  0  0  0  0
    0.5304   -1.2788   -1.0035 C   0  0  0  0  0  0  0  0  0  0  0  0
    0.1371   -2.4085   -1.9296 C   0  0  0  0  0  0  0  0  0  0  0  0
   -1.1736   -3.3402   -1.2308 Cl  0  0  0  0  0  0  0  0  0  0  0  0
   -0.4922   -1.7630   -3.4783 Cl  0  0  0  0  0  0  0  0  0  0  0  0
    1.4934   -3.5408   -2.1927 Cl  0  0  0  0  0  0  0  0  0  0  0  0
   -0.5621   -0.3678   -0.8956 N   0  0  0  0  0  0  0  0  0  0  0  0
   -1.7667   -0.4662   -0.1879 C   0  0  0  0  0  0  0  0  0  0  0  0
   -2.2288   -1.6617    0.8096 S   0  0  0  0  0  0  0  0  0  0  0  0
   -2.7034    0.6507   -0.2873 N   0  0  0  0  0  0  0  0  0  0  0  0
   -3.9487    0.6321    0.3608 C   0  0  0  0  0  0  0  0  0  0  0  0
   -5.0780    0.3328   -0.3973 C   0  0  0  0  0  0  0  0  0  0  0  0
   -6.3418    0.2793    0.1328 C   0  0  0  0  0  0  0  0  0  0  0  0
   -7.5630   -0.0340   -0.6448 C   0  0  0  0  0  0  0  0  0  0  0  0
   -6.5324    0.5313    1.4956 C   0  0  0  0  0  0  0  0  0  0  0  0
   -5.4022    0.8335    2.2682 C   0  0  0  0  0  0  0  0  0  0  0  0
   -4.1455    0.8794    1.7017 C   0  0  0  0  0  0  0  0  0  0  0  0
   -2.9302    1.1940    2.5093 C   0  0  0  0  0  0  0  0  0  0  0  0
    3.9298    0.0879   -1.8354 O   0  0  0  0  0  0  0  0  0  0  0  0
    5.2989    0.0672   -1.6627 C   0  0  0  0  0  0  0  0  0  0  0  0
    5.8016    0.3246   -0.2960 C   0  0  0  0  0  0  0  0  0  0  0  0
    6.0047    1.6246    0.1720 C   0  0  0  0  0  0  0  0  0  0  0  0
    6.4923    1.8054    1.4352 C   0  0  0  0  0  0  0  0  0  0  0  0
    6.8054    0.7705    2.3020 C   0  0  0  0  0  0  0  0  0  0  0  0
    6.6044   -0.5196    1.8386 C   0  0  0  0  0  0  0  0  0  0  0  0
    6.1060   -0.7336    0.5447 C   0  0  0  0  0  0  0  0  0  0  0  0
    1.3918    0.2212   -2.3011 H   0  0  0  0  0  0  0  0  0  0  0  0
    0.7985   -1.7629   -0.0463 H   0  0  0  0  0  0  0  0  0  0  0  0
   -0.4494    0.5459   -1.4518 H   0  0  0  0  0  0  0  0  0  0  0  0
   -2.4582    1.5012   -0.8349 H   0  0  0  0  0  0  0  0  0  0  0  0
   -4.9984    0.1227   -1.4688 H   0  0  0  0  0  0  0  0  0  0  0  0
   -8.1123    0.9042   -0.8804 H   0  0  0  0  0  0  0  0  0  0  0  0
   -7.2931   -0.5798   -1.5485 H   0  0  0  0  0  0  0  0  0  0  0  0
   -8.2318   -0.6888   -0.0082 H   0  0  0  0  0  0  0  0  0  0  0  0
   -7.5167    0.4958    1.9275 H   0  0  0  0  0  0  0  0  0  0  0  0
   -5.4975    1.0385    3.3235 H   0  0  0  0  0  0  0  0  0  0  0  0
   -2.7473    0.4257    3.2911 H   0  0  0  0  0  0  0  0  0  0  0  0
   -2.0467    1.3639    1.8603 H   0  0  0  0  0  0  0  0  0  0  0  0
   -3.1048    2.1432    3.0485 H   0  0  0  0  0  0  0  0  0  0  0  0
    5.7285   -0.8775   -2.0786 H   0  0  0  0  0  0  0  0  0  0  0  0
    5.7319    0.8561   -2.3517 H   0  0  0  0  0  0  0  0  0  0  0  0
    5.7645    2.4580   -0.4987 H   0  0  0  0  0  0  0  0  0  0  0  0
    6.6601    2.8054    1.8304 H   0  0  0  0  0  0  0  0  0  0  0  0
    7.1874    0.9547    3.2996 H   0  0  0  0  0  0  0  0  0  0  0  0
    6.8459   -1.3116    2.5081 H   0  0  0  0  0  0  0  0  0  0  0  0
    5.9915   -1.7684    0.2740 H   0  0  0  0  0  0  0  0  0  0  0  0
  1  2  2  0
  2  3  1  0
  3  4  1  0
  4  5  1  0
  5  6  1  0
  5  7  1  0
  5  8  1  0
  4  9  1  0
  9 10  1  0
 10 11  2  0
 10 12  1  0
 12 13  1  0
 13 14  2  0
 14 15  1  0
 15 16  1  0
 15 17  2  0
 17 18  1  0
 18 19  2  0
 19 20  1  0
  2 21  1  0
 21 22  1  0
 22 23  1  0
 23 24  2  0
 24 25  1  0
 25 26  2  0
 26 27  1  0
 27 28  2  0
 19 13  1  0
 28 23  1  0
  3 29  1  0
  4 30  1  0
  9 31  1  0
 12 32  1  0
 14 33  1  0
 16 34  1  0
 16 35  1  0
 16 36  1  0
 17 37  1  0
 18 38  1  0
 20 39  1  0
 20 40  1  0
 20 41  1  0
 22 42  1  0
 22 43  1  0
 24 44  1  0
 25 45  1  0
 26 46  1  0
 27 47  1  0
 28 48  1  0
M  END
>  <Ligand ID>  (1) 
LIG0003708

>  <Ligand>  (1) 
MLS-0425690.0001

>  <SMILES>  (1) 
O=C(NC(C(Cl)(Cl)Cl)NC(=S)Nc1cc(C)ccc1C)OCc1ccccc1

>  <CID>  (1) 
3091260.0

>  <ChEMBL ID>  (1) 
nan

>  <InChiKey>  (1) 
ONTVJSXGROTINI-UHFFFAOYSA-N

>  <InChi>  (1) 
InChI=1S/C19H20Cl3N3O2S/c1-12-8-9-13(2)15(10-12)23-17(28)24-16(19(20,21)22)25-18(26)27-11-14-6-4-3-5-7-14/h3-10,16H,11H2,1-2H3,(H,25,26)(H2,23,24,28)

>  <IUPAC Name>  (1) 
benzyl N-[2,2,2-trichloro-1-[(2,5-dimethylphenyl)carbamothioylamino]ethyl]carbamate

$$$$
