
     RDKit          3D

136142  0  0  0  0  0  0  0  0999 V2000
   -5.5665   -4.8274   -3.4291 N   0  0  0  0  0  0  0  0  0  0  0  0
   -4.1722   -4.8739   -3.6933 C   0  0  0  0  0  0  0  0  0  0  0  0
   -3.5277   -3.7472   -3.5662 N   0  0  0  0  0  0  0  0  0  0  0  0
   -4.3165   -2.6023   -3.1765 C   0  0  0  0  0  0  0  0  0  0  0  0
   -3.4467   -1.7358   -2.2475 C   0  0  0  0  0  0  0  0  0  0  0  0
   -3.0966   -2.6006   -1.0644 C   0  0  0  0  0  0  0  0  0  0  0  0
   -2.2206   -1.8824   -0.0334 C   0  0  2  0  0  0  0  0  0  0  0  0
   -1.9489   -2.7837    1.0575 N   0  0  0  0  0  0  0  0  0  0  0  0
   -0.6043   -2.8722    1.5161 C   0  0  0  0  0  0  0  0  0  0  0  0
    0.2037   -2.1134    0.9367 O   0  0  0  0  0  0  0  0  0  0  0  0
   -0.0842   -3.7409    2.5782 C   0  0  2  0  0  0  0  0  0  0  0  0
   -0.0871   -3.1329    3.9243 C   0  0  0  0  0  0  0  0  0  0  0  0
    1.0500   -3.8162    4.6446 C   0  0  0  0  0  0  0  0  0  0  0  0
    2.0952   -3.9691    3.5286 C   0  0  0  0  0  0  0  0  0  0  0  0
    1.3272   -4.0907    2.3446 N   0  0  0  0  0  0  0  0  0  0  0  0
    1.7785   -4.5048    1.0406 C   0  0  0  0  0  0  0  0  0  0  0  0
    0.8515   -4.5430    0.2107 O   0  0  0  0  0  0  0  0  0  0  0  0
    3.1535   -4.8465    0.7032 C   0  0  1  0  0  0  0  0  0  0  0  0
    3.2819   -6.2477    0.1765 C   0  0  0  0  0  0  0  0  0  0  0  0
    3.2322   -5.9847   -1.3346 C   0  0  0  0  0  0  0  0  0  0  0  0
    4.1825   -4.7772   -1.3933 C   0  0  0  0  0  0  0  0  0  0  0  0
    3.7213   -3.9779   -0.3235 N   0  0  0  0  0  0  0  0  0  0  0  0
    3.7426   -2.5698   -0.1494 C   0  0  0  0  0  0  0  0  0  0  0  0
    3.2627   -2.1953    0.9360 O   0  0  0  0  0  0  0  0  0  0  0  0
    4.2778   -1.6013   -1.1422 C   0  0  2  0  0  0  0  0  0  0  0  0
    5.7426   -1.8665   -1.4578 C   0  0  0  0  0  0  0  0  0  0  0  0
    6.5886   -1.7655   -0.2496 C   0  0  0  0  0  0  0  0  0  0  0  0
    6.8661   -2.8244    0.5869 C   0  0  0  0  0  0  0  0  0  0  0  0
    7.6612   -2.6676    1.7124 C   0  0  0  0  0  0  0  0  0  0  0  0
    8.1893   -1.4318    2.0102 C   0  0  0  0  0  0  0  0  0  0  0  0
    7.9050   -0.3594    1.1583 C   0  0  0  0  0  0  0  0  0  0  0  0
    7.1160   -0.5081    0.0379 C   0  0  0  0  0  0  0  0  0  0  0  0
    4.1127   -0.2352   -0.6544 N   0  0  0  0  0  0  0  0  0  0  0  0
    3.2368    0.7132   -1.3167 C   0  0  0  0  0  0  0  0  0  0  0  0
    2.6753    0.2519   -2.3180 O   0  0  0  0  0  0  0  0  0  0  0  0
    3.0817    2.0818   -0.7841 C   0  0  1  0  0  0  0  0  0  0  0  0
    2.1306    2.7824   -1.6215 N   0  0  0  0  0  0  0  0  0  0  0  0
    2.4308    4.0652   -2.1318 C   0  0  0  0  0  0  0  0  0  0  0  0
    3.5855    4.4712   -1.9196 O   0  0  0  0  0  0  0  0  0  0  0  0
    1.5216    4.9575   -2.8967 C   0  0  1  0  0  0  0  0  0  0  0  0
    0.1203    4.6383   -2.7625 N   0  0  0  0  0  0  0  0  0  0  0  0
   -0.5095    4.2518   -1.5410 C   0  0  0  0  0  0  0  0  0  0  0  0
    0.1964    4.2262   -0.5351 O   0  0  0  0  0  0  0  0  0  0  0  0
   -1.9421    3.8868   -1.4258 C   0  0  1  0  0  0  0  0  0  0  0  0
   -2.1934    3.2565   -0.1283 N   0  0  0  0  0  0  0  0  0  0  0  0
   -3.2905    2.3187    0.0576 C   0  0  0  0  0  0  0  0  0  0  0  0
   -4.0158    2.2243   -0.9476 O   0  0  0  0  0  0  0  0  0  0  0  0
   -3.4456    1.6155    1.3296 C   0  0  0  0  0  0  0  0  0  0  0  0
   -3.1231    0.1707    1.3095 N   0  0  0  0  0  0  0  0  0  0  0  0
   -2.6357   -0.5258    0.2153 C   0  0  0  0  0  0  0  0  0  0  0  0
   -2.5544    0.2631   -0.8057 O   0  0  0  0  0  0  0  0  0  0  0  0
   -3.3877   -0.5013    2.5381 C   0  0  0  0  0  0  0  0  0  0  0  0
   -4.8908   -0.4536    2.7688 C   0  0  0  0  0  0  0  0  0  0  0  0
   -5.5835   -1.5371    3.2431 C   0  0  0  0  0  0  0  0  0  0  0  0
   -6.9445   -1.3940    3.4074 C   0  0  0  0  0  0  0  0  0  0  0  0
   -7.5528   -0.1939    3.0971 C   0  0  0  0  0  0  0  0  0  0  0  0
   -6.8715    0.9030    2.6204 C   0  0  0  0  0  0  0  0  0  0  0  0
   -5.4975    0.7458    2.4590 C   0  0  0  0  0  0  0  0  0  0  0  0
   -4.7623    1.9310    1.9420 C   0  0  0  0  0  0  0  0  0  0  0  0
   -2.6565    5.2753   -1.3905 C   0  0  0  0  0  0  0  0  0  0  0  0
   -2.2017    6.0440   -0.2157 C   0  0  0  0  0  0  0  0  0  0  0  0
   -2.9582    5.8959    0.9463 C   0  0  0  0  0  0  0  0  0  0  0  0
   -2.6173    6.5690    2.1127 C   0  0  0  0  0  0  0  0  0  0  0  0
   -1.5059    7.3953    2.1010 C   0  0  0  0  0  0  0  0  0  0  0  0
   -0.7344    7.5643    0.9654 C   0  0  0  0  0  0  0  0  0  0  0  0
   -1.1047    6.8717   -0.1944 C   0  0  0  0  0  0  0  0  0  0  0  0
    1.8754    6.3911   -2.7727 C   0  0  0  0  0  0  0  0  0  0  0  0
    0.9411    7.2219   -3.5586 C   0  0  0  0  0  0  0  0  0  0  0  0
   -0.0104    6.7966   -4.2477 O   0  0  0  0  0  0  0  0  0  0  0  0
    1.1386    8.6410   -3.5318 N   0  0  0  0  0  0  0  0  0  0  0  0
    2.5403    1.9495    0.6412 C   0  0  0  0  0  0  0  0  0  0  0  0
   -3.5281   -6.0814   -4.0774 N   0  0  0  0  0  0  0  0  0  0  0  0
   -6.2991   -4.6439   -4.1396 H   0  0  0  0  0  0  0  0  0  0  0  0
   -5.8798   -4.9890   -2.4482 H   0  0  0  0  0  0  0  0  0  0  0  0
   -4.6591   -2.0091   -4.0472 H   0  0  0  0  0  0  0  0  0  0  0  0
   -5.1657   -2.9516   -2.5530 H   0  0  0  0  0  0  0  0  0  0  0  0
   -2.5513   -1.3569   -2.7430 H   0  0  0  0  0  0  0  0  0  0  0  0
   -4.1288   -0.9002   -1.9683 H   0  0  0  0  0  0  0  0  0  0  0  0
   -2.4737   -3.4375   -1.4604 H   0  0  0  0  0  0  0  0  0  0  0  0
   -4.0386   -2.9657   -0.6174 H   0  0  0  0  0  0  0  0  0  0  0  0
   -1.2313   -1.7390   -0.5997 H   0  0  0  0  0  0  0  0  0  0  0  0
   -2.6108   -3.3957    1.5366 H   0  0  0  0  0  0  0  0  0  0  0  0
   -0.6023   -4.7243    2.6359 H   0  0  0  0  0  0  0  0  0  0  0  0
   -1.0097   -3.4435    4.4998 H   0  0  0  0  0  0  0  0  0  0  0  0
    0.0261   -2.0302    3.9357 H   0  0  0  0  0  0  0  0  0  0  0  0
    1.4479   -3.2263    5.4654 H   0  0  0  0  0  0  0  0  0  0  0  0
    0.8095   -4.8374    4.9731 H   0  0  0  0  0  0  0  0  0  0  0  0
    2.7039   -3.0484    3.6045 H   0  0  0  0  0  0  0  0  0  0  0  0
    2.7915   -4.8047    3.7173 H   0  0  0  0  0  0  0  0  0  0  0  0
    3.7835   -4.7556    1.6074 H   0  0  0  0  0  0  0  0  0  0  0  0
    2.5348   -6.9570    0.5193 H   0  0  0  0  0  0  0  0  0  0  0  0
    4.3213   -6.6351    0.3520 H   0  0  0  0  0  0  0  0  0  0  0  0
    2.2447   -5.6463   -1.6707 H   0  0  0  0  0  0  0  0  0  0  0  0
    3.6604   -6.8063   -1.8964 H   0  0  0  0  0  0  0  0  0  0  0  0
    5.2349   -5.1135   -1.2981 H   0  0  0  0  0  0  0  0  0  0  0  0
    3.9405   -4.2872   -2.3564 H   0  0  0  0  0  0  0  0  0  0  0  0
    3.7120   -1.7543   -2.0806 H   0  0  0  0  0  0  0  0  0  0  0  0
    5.8073   -2.8770   -1.8952 H   0  0  0  0  0  0  0  0  0  0  0  0
    6.0473   -1.1582   -2.2489 H   0  0  0  0  0  0  0  0  0  0  0  0
    6.4447   -3.7930    0.3413 H   0  0  0  0  0  0  0  0  0  0  0  0
    7.8610   -3.5174    2.3521 H   0  0  0  0  0  0  0  0  0  0  0  0
    8.8167   -1.2583    2.8824 H   0  0  0  0  0  0  0  0  0  0  0  0
    8.3176    0.6305    1.3847 H   0  0  0  0  0  0  0  0  0  0  0  0
    6.9216    0.3578   -0.5998 H   0  0  0  0  0  0  0  0  0  0  0  0
    4.5889    0.1346    0.1629 H   0  0  0  0  0  0  0  0  0  0  0  0
    4.0178    2.6760   -0.7550 H   0  0  0  0  0  0  0  0  0  0  0  0
    1.2472    2.3651   -1.8979 H   0  0  0  0  0  0  0  0  0  0  0  0
    1.7617    4.6162   -3.9798 H   0  0  0  0  0  0  0  0  0  0  0  0
   -0.5287    4.6687   -3.5650 H   0  0  0  0  0  0  0  0  0  0  0  0
   -2.3822    3.3482   -2.2481 H   0  0  0  0  0  0  0  0  0  0  0  0
   -1.6457    3.4202    0.7134 H   0  0  0  0  0  0  0  0  0  0  0  0
   -2.6682    2.0056    2.0759 H   0  0  0  0  0  0  0  0  0  0  0  0
   -2.9035    0.1194    3.3409 H   0  0  0  0  0  0  0  0  0  0  0  0
   -3.1134   -1.5195    2.6633 H   0  0  0  0  0  0  0  0  0  0  0  0
   -5.0282   -2.4329    3.4575 H   0  0  0  0  0  0  0  0  0  0  0  0
   -7.4970   -2.2572    3.7861 H   0  0  0  0  0  0  0  0  0  0  0  0
   -8.6361   -0.0808    3.2247 H   0  0  0  0  0  0  0  0  0  0  0  0
   -7.3530    1.8469    2.3736 H   0  0  0  0  0  0  0  0  0  0  0  0
   -5.4157    2.4177    1.1726 H   0  0  0  0  0  0  0  0  0  0  0  0
   -4.6750    2.6368    2.8015 H   0  0  0  0  0  0  0  0  0  0  0  0
   -3.7318    5.1350   -1.4500 H   0  0  0  0  0  0  0  0  0  0  0  0
   -2.2918    5.7867   -2.3043 H   0  0  0  0  0  0  0  0  0  0  0  0
   -3.8354    5.2439    0.9511 H   0  0  0  0  0  0  0  0  0  0  0  0
   -3.2334    6.4250    2.9996 H   0  0  0  0  0  0  0  0  0  0  0  0
   -1.2097    7.9365    2.9898 H   0  0  0  0  0  0  0  0  0  0  0  0
    0.1108    8.2062    1.0042 H   0  0  0  0  0  0  0  0  0  0  0  0
   -0.5185    6.9864   -1.0929 H   0  0  0  0  0  0  0  0  0  0  0  0
    1.8313    6.7567   -1.7276 H   0  0  0  0  0  0  0  0  0  0  0  0
    2.9018    6.6034   -3.1448 H   0  0  0  0  0  0  0  0  0  0  0  0
    0.4346    9.3237   -3.8738 H   0  0  0  0  0  0  0  0  0  0  0  0
    2.0254    9.0571   -3.1519 H   0  0  0  0  0  0  0  0  0  0  0  0
    2.4887    2.9308    1.1160 H   0  0  0  0  0  0  0  0  0  0  0  0
    1.5778    1.4244    0.5511 H   0  0  0  0  0  0  0  0  0  0  0  0
    3.2930    1.3396    1.1800 H   0  0  0  0  0  0  0  0  0  0  0  0
   -3.0798   -6.1766   -5.0177 H   0  0  0  0  0  0  0  0  0  0  0  0
   -3.5364   -6.8574   -3.3595 H   0  0  0  0  0  0  0  0  0  0  0  0
  1  2  1  0
  2  3  2  3
  3  4  1  0
  4  5  1  0
  5  6  1  0
  6  7  1  0
  7  8  1  0
  8  9  1  0
  9 10  2  0
  9 11  1  0
 11 12  1  0
 12 13  1  0
 13 14  1  0
 14 15  1  0
 15 16  1  0
 16 17  2  0
 16 18  1  0
 18 19  1  0
 19 20  1  0
 20 21  1  0
 21 22  1  0
 22 23  1  0
 23 24  2  0
 23 25  1  0
 25 26  1  0
 26 27  1  0
 27 28  2  0
 28 29  1  0
 29 30  2  0
 30 31  1  0
 31 32  2  0
 25 33  1  0
 33 34  1  0
 34 35  2  0
 34 36  1  0
 36 37  1  0
 37 38  1  0
 38 39  2  0
 38 40  1  0
 40 41  1  0
 41 42  1  0
 42 43  2  0
 42 44  1  0
 44 45  1  0
 45 46  1  0
 46 47  2  0
 46 48  1  0
 48 49  1  0
 49 50  1  0
 50 51  2  0
 49 52  1  0
 52 53  1  0
 53 54  2  0
 54 55  1  0
 55 56  2  0
 56 57  1  0
 57 58  2  0
 58 59  1  0
 44 60  1  0
 60 61  1  0
 61 62  2  0
 62 63  1  0
 63 64  2  0
 64 65  1  0
 65 66  2  0
 40 67  1  0
 67 68  1  0
 68 69  2  0
 68 70  1  0
 36 71  1  0
  2 72  1  0
 50  7  1  0
 58 53  1  0
 66 61  1  0
 15 11  1  0
 22 18  1  0
 32 27  1  0
 59 48  1  0
  1 73  1  0
  1 74  1  0
  4 75  1  0
  4 76  1  0
  5 77  1  0
  5 78  1  0
  6 79  1  0
  6 80  1  0
  7 81  1  6
  8 82  1  0
 11 83  1  1
 12 84  1  0
 12 85  1  0
 13 86  1  0
 13 87  1  0
 14 88  1  0
 14 89  1  0
 18 90  1  1
 19 91  1  0
 19 92  1  0
 20 93  1  0
 20 94  1  0
 21 95  1  0
 21 96  1  0
 25 97  1  6
 26 98  1  0
 26 99  1  0
 28100  1  0
 29101  1  0
 30102  1  0
 31103  1  0
 32104  1  0
 33105  1  0
 36106  1  1
 37107  1  0
 40108  1  6
 41109  1  0
 44110  1  6
 45111  1  0
 48112  1  0
 52113  1  0
 52114  1  0
 54115  1  0
 55116  1  0
 56117  1  0
 57118  1  0
 59119  1  0
 59120  1  0
 60121  1  0
 60122  1  0
 62123  1  0
 63124  1  0
 64125  1  0
 65126  1  0
 66127  1  0
 67128  1  0
 67129  1  0
 70130  1  0
 70131  1  0
 71132  1  0
 71133  1  0
 71134  1  0
 72135  1  0
 72136  1  0
M  END
>  <Ligand ID>  (1) 
LIG0005508

>  <Ligand>  (1) 
CHEMBL3577983

>  <SMILES>  (1) 
NC(=NCCC[C@@H]1NC(=O)[C@@H]2CCCN2C(=O)[C@H]2CCCN2C(=O)[C@H](Cc2ccccc2)NC(=O)[C@@H](NC(=O)[C@@H](NC(=O)[C@@H](NC(=O)C2N(C1=O)Cc1ccccc1C2)Cc1ccccc1)CC(=O)N)C)N

>  <CID>  (1) 
122178153.0

>  <ChEMBL ID>  (1) 
nan

>  <InChiKey>  (1) 
RXQAGDOJMLRTAF-HMHDQFTJSA-N

>  <InChi>  (1) 
InChI=1S/C51H64N12O9/c1-30-43(65)60-38(26-32-15-6-3-7-16-32)49(71)62-24-12-21-40(62)50(72)61-23-11-20-39(61)46(68)57-35(19-10-22-55-51(53)54)48(70)63-29-34-18-9-8-17-33(34)27-41(63)47(69)59-36(25-31-13-4-2-5-14-31)45(67)58-37(28-42(52)64)44(66)56-30/h2-9,13-18,30,35-41H,10-12,19-29H2,1H3,(H2,52,64)(H,56,66)(H,57,68)(H,58,67)(H,59,69)(H,60,65)(H4,53,54,55)/t30-,35-,36-,37-,38-,39-,40+,41?/m0/s1

>  <IUPAC Name>  (1) 
2-[(3S,6S,12R,18S,21S,24S,27S)-18,27-dibenzyl-3-[3-(diaminomethylideneamino)propyl]-21-methyl-2,5,11,17,20,23,26,29-octaoxo-1,4,10,16,19,22,25,28-octazapentacyclo[28.8.0.06,10.012,16.032,37]octatriaconta-32,34,36-trien-24-yl]acetamide

$$$$
