
     RDKit          3D

 45 48  0  0  0  0  0  0  0  0999 V2000
    7.3355    1.0316   -2.7817 N   0  0  0  0  0  0  0  0  0  0  0  0
    6.7026    0.3839   -2.0291 C   0  0  0  0  0  0  0  0  0  0  0  0
    5.9197   -0.4049   -1.0832 C   0  0  0  0  0  0  0  0  0  0  0  0
    6.5192   -1.4044   -0.3605 C   0  0  0  0  0  0  0  0  0  0  0  0
    5.6990   -2.1093    0.5235 C   0  0  0  0  0  0  0  0  0  0  0  0
    4.3744   -1.8210    0.6649 C   0  0  0  0  0  0  0  0  0  0  0  0
    3.7506   -0.8031   -0.0663 C   0  0  0  0  0  0  0  0  0  0  0  0
    4.5579   -0.1161   -0.9326 C   0  0  0  0  0  0  0  0  0  0  0  0
    2.3792   -0.5765    0.1479 N   0  0  0  0  0  0  0  0  0  0  0  0
    1.5720    0.3796   -0.5104 C   0  0  0  0  0  0  0  0  0  0  0  0
    2.0358    1.1443   -1.3869 O   0  0  0  0  0  0  0  0  0  0  0  0
    0.1340    0.5484   -0.2163 C   0  0  0  0  0  0  0  0  0  0  0  0
   -0.4104    1.8066   -0.0014 C   0  0  0  0  0  0  0  0  0  0  0  0
   -1.7563    1.9874    0.2707 C   0  0  0  0  0  0  0  0  0  0  0  0
   -2.5422    0.8901    0.3249 N   0  0  0  0  0  0  0  0  0  0  0  0
   -2.0810   -0.3619    0.1270 C   0  0  0  0  0  0  0  0  0  0  0  0
   -0.7350   -0.5225   -0.1444 C   0  0  0  0  0  0  0  0  0  0  0  0
   -0.5513   -1.8777   -0.2994 C   0  0  0  0  0  0  0  0  0  0  0  0
   -1.7535   -2.4727   -0.1240 N   0  0  0  0  0  0  0  0  0  0  0  0
   -2.6806   -1.5627    0.1333 N   0  0  0  0  0  0  0  0  0  0  0  0
   -4.1124   -1.7825    0.3931 C   0  0  0  0  0  0  0  0  0  0  0  0
   -4.9544   -1.1364   -0.6788 C   0  0  0  0  0  0  0  0  0  0  0  0
   -4.3744   -3.2738    0.5204 C   0  0  0  0  0  0  0  0  0  0  0  0
   -2.3545    3.3335    0.4967 C   0  0  0  0  0  0  0  0  0  0  0  0
   -1.5674    4.5147    0.8401 C   0  0  0  0  0  0  0  0  0  0  0  0
   -2.0470    4.3941   -0.5854 C   0  0  0  0  0  0  0  0  0  0  0  0
    7.5550   -1.6472   -0.4519 H   0  0  0  0  0  0  0  0  0  0  0  0
    6.1344   -2.9045    1.1057 H   0  0  0  0  0  0  0  0  0  0  0  0
    3.8032   -2.4086    1.3708 H   0  0  0  0  0  0  0  0  0  0  0  0
    4.1863    0.6803   -1.5408 H   0  0  0  0  0  0  0  0  0  0  0  0
    1.8780   -1.1665    0.8706 H   0  0  0  0  0  0  0  0  0  0  0  0
    0.2523    2.6483   -0.0537 H   0  0  0  0  0  0  0  0  0  0  0  0
    0.3762   -2.3843   -0.5198 H   0  0  0  0  0  0  0  0  0  0  0  0
   -4.3071   -1.3343    1.3782 H   0  0  0  0  0  0  0  0  0  0  0  0
   -4.3503   -0.5856   -1.4199 H   0  0  0  0  0  0  0  0  0  0  0  0
   -5.6450   -0.3949   -0.2172 H   0  0  0  0  0  0  0  0  0  0  0  0
   -5.5995   -1.9017   -1.1340 H   0  0  0  0  0  0  0  0  0  0  0  0
   -4.8245   -3.5171    1.5031 H   0  0  0  0  0  0  0  0  0  0  0  0
   -5.0029   -3.6240   -0.3344 H   0  0  0  0  0  0  0  0  0  0  0  0
   -3.4001   -3.8484    0.4923 H   0  0  0  0  0  0  0  0  0  0  0  0
   -3.4271    3.3325    0.7506 H   0  0  0  0  0  0  0  0  0  0  0  0
   -2.0447    5.3057    1.4738 H   0  0  0  0  0  0  0  0  0  0  0  0
   -0.4708    4.4727    0.9669 H   0  0  0  0  0  0  0  0  0  0  0  0
   -1.3143    4.0579   -1.3458 H   0  0  0  0  0  0  0  0  0  0  0  0
   -2.8583    5.0309   -0.9546 H   0  0  0  0  0  0  0  0  0  0  0  0
  1  2  3  0
  2  3  1  0
  3  4  2  0
  4  5  1  0
  5  6  2  0
  6  7  1  0
  7  8  2  0
  7  9  1  0
  9 10  1  0
 10 11  2  0
 10 12  1  0
 12 13  2  0
 13 14  1  0
 14 15  2  0
 15 16  1  0
 16 17  2  0
 17 18  1  0
 18 19  2  0
 19 20  1  0
 20 21  1  0
 21 22  1  0
 21 23  1  0
 14 24  1  0
 24 25  1  0
 25 26  1  0
  8  3  1  0
 17 12  1  0
 26 24  1  0
 20 16  1  0
  4 27  1  0
  5 28  1  0
  6 29  1  0
  8 30  1  0
  9 31  1  0
 13 32  1  0
 18 33  1  0
 21 34  1  0
 22 35  1  0
 22 36  1  0
 22 37  1  0
 23 38  1  0
 23 39  1  0
 23 40  1  0
 24 41  1  0
 25 42  1  0
 25 43  1  0
 26 44  1  0
 26 45  1  0
M  END
>  <Ligand ID>  (1) 
LIG0003483

>  <Ligand>  (1) 
MLS002166346

>  <SMILES>  (1) 
N#Cc1cccc(c1)NC(=O)c1cc(nc2c1cnn2C(C)C)C1CC1

>  <CID>  (1) 
9504185.0

>  <ChEMBL ID>  (1) 
nan

>  <InChiKey>  (1) 
OKYHQNHJTVJRRA-UHFFFAOYSA-N

>  <InChi>  (1) 
InChI=1S/C20H19N5O/c1-12(2)25-19-17(11-22-25)16(9-18(24-19)14-6-7-14)20(26)23-15-5-3-4-13(8-15)10-21/h3-5,8-9,11-12,14H,6-7H2,1-2H3,(H,23,26)

>  <IUPAC Name>  (1) 
N-(3-cyanophenyl)-6-cyclopropyl-1-propan-2-ylpyrazolo[3,4-b]pyridine-4-carboxamide

$$$$
