
     RDKit          3D

 39 40  0  0  0  0  0  0  0  0999 V2000
   -7.1613   -0.6939    0.7387 O   0  0  0  0  0  0  0  0  0  0  0  0
   -5.9676   -0.1378    0.3113 C   0  0  0  0  0  0  0  0  0  0  0  0
   -6.0121    1.0520   -0.1014 O   0  0  0  0  0  0  0  0  0  0  0  0
   -4.7037   -0.9270    0.3470 C   0  0  0  0  0  0  0  0  0  0  0  0
   -3.8888   -0.6239    1.6107 C   0  0  0  0  0  0  0  0  0  0  0  0
   -3.5448    0.8271    1.6199 C   0  0  0  0  0  0  0  0  0  0  0  0
   -2.7930    1.1906    0.5178 O   0  0  0  0  0  0  0  0  0  0  0  0
   -1.5433    0.7684    0.2170 C   0  0  0  0  0  0  0  0  0  0  0  0
   -0.7375   -0.0734    0.9342 C   0  0  0  0  0  0  0  0  0  0  0  0
    0.5443   -0.4346    0.4996 C   0  0  0  0  0  0  0  0  0  0  0  0
    1.0495    0.0492   -0.6779 C   0  0  0  0  0  0  0  0  0  0  0  0
    0.2579    0.8968   -1.4133 C   0  0  0  0  0  0  0  0  0  0  0  0
   -0.9908    1.2457   -0.9865 C   0  0  0  0  0  0  0  0  0  0  0  0
    0.7499    1.3835   -2.5849 F   0  0  0  0  0  0  0  0  0  0  0  0
    2.3878   -0.3656   -1.0627 C   0  0  0  0  0  0  0  0  0  0  0  0
    3.4387    0.4027   -0.6077 C   0  0  0  0  0  0  0  0  0  0  0  0
    4.7119    0.0080   -0.9632 C   0  0  0  0  0  0  0  0  0  0  0  0
    4.9384   -1.1250   -1.7540 C   0  0  0  0  0  0  0  0  0  0  0  0
    3.8563   -1.8634   -2.1868 C   0  0  0  0  0  0  0  0  0  0  0  0
    2.5658   -1.4898   -1.8444 C   0  0  0  0  0  0  0  0  0  0  0  0
    1.1819   -2.4100   -2.3819 Cl  0  0  0  0  0  0  0  0  0  0  0  0
    5.7727    0.7825   -0.5037 O   0  0  0  0  0  0  0  0  0  0  0  0
    6.4171    0.5330    0.7285 C   0  0  0  0  0  0  0  0  0  0  0  0
    7.4104    1.4779    0.8648 F   0  0  0  0  0  0  0  0  0  0  0  0
    6.8485   -0.7470    0.8868 F   0  0  0  0  0  0  0  0  0  0  0  0
    5.5022    0.7701    1.7512 F   0  0  0  0  0  0  0  0  0  0  0  0
   -7.8170   -0.1626    1.2999 H   0  0  0  0  0  0  0  0  0  0  0  0
   -4.1348   -0.6639   -0.5545 H   0  0  0  0  0  0  0  0  0  0  0  0
   -4.9858   -1.9939    0.4272 H   0  0  0  0  0  0  0  0  0  0  0  0
   -3.0812   -1.3380    1.6308 H   0  0  0  0  0  0  0  0  0  0  0  0
   -4.5242   -0.8527    2.5168 H   0  0  0  0  0  0  0  0  0  0  0  0
   -3.0571    1.1306    2.5816 H   0  0  0  0  0  0  0  0  0  0  0  0
   -4.4868    1.4593    1.6059 H   0  0  0  0  0  0  0  0  0  0  0  0
   -1.0379   -0.4744    1.8664 H   0  0  0  0  0  0  0  0  0  0  0  0
    1.1537   -1.1146    1.1105 H   0  0  0  0  0  0  0  0  0  0  0  0
   -1.5789    1.9276   -1.6177 H   0  0  0  0  0  0  0  0  0  0  0  0
    3.3014    1.2691   -0.0060 H   0  0  0  0  0  0  0  0  0  0  0  0
    5.9362   -1.4126   -2.0179 H   0  0  0  0  0  0  0  0  0  0  0  0
    4.0220   -2.7457   -2.8020 H   0  0  0  0  0  0  0  0  0  0  0  0
  1  2  1  0
  2  3  2  0
  2  4  1  0
  4  5  1  0
  5  6  1  0
  6  7  1  0
  7  8  1  0
  8  9  2  0
  9 10  1  0
 10 11  2  0
 11 12  1  0
 12 13  2  0
 12 14  1  0
 11 15  1  0
 15 16  2  0
 16 17  1  0
 17 18  2  0
 18 19  1  0
 19 20  2  0
 20 21  1  0
 17 22  1  0
 22 23  1  0
 23 24  1  0
 23 25  1  0
 23 26  1  0
 13  8  1  0
 20 15  1  0
  1 27  1  0
  4 28  1  0
  4 29  1  0
  5 30  1  0
  5 31  1  0
  6 32  1  0
  6 33  1  0
  9 34  1  0
 10 35  1  0
 13 36  1  0
 16 37  1  0
 18 38  1  0
 19 39  1  0
M  END
>  <Ligand ID>  (1) 
LIG0002491

>  <Ligand>  (1) 
CHEMBL3942922

>  <SMILES>  (1) 
OC(=O)CCCOc1ccc(c(c1)F)c1cc(ccc1Cl)OC(F)(F)F

>  <CID>  (1) 
134146021.0

>  <ChEMBL ID>  (1) 
nan

>  <InChiKey>  (1) 
IYUOFKALTXRDAA-UHFFFAOYSA-N

>  <InChi>  (1) 
InChI=1S/C17H13ClF4O4/c18-14-6-4-11(26-17(20,21)22)8-13(14)12-5-3-10(9-15(12)19)25-7-1-2-16(23)24/h3-6,8-9H,1-2,7H2,(H,23,24)

>  <IUPAC Name>  (1) 
4-[4-[2-chloro-5-(trifluoromethoxy)phenyl]-3-fluorophenoxy]butanoic acid

$$$$
