
     RDKit          3D

 65 67  0  0  0  0  0  0  0  0999 V2000
    1.5651    0.7930   -0.7180 O   0  0  0  0  0  0  0  0  0  0  0  0
    2.0020   -0.4772   -0.3927 C   0  0  2  0  0  0  0  0  0  0  0  0
    3.1161   -0.9265   -1.3640 C   0  0  2  0  0  0  0  0  0  0  0  0
    2.7295   -0.7804   -2.6884 O   0  0  0  0  0  0  0  0  0  0  0  0
    3.0835   -2.4222   -1.0114 C   0  0  2  0  0  0  0  0  0  0  0  0
    1.8377   -2.7233   -0.5411 O   0  0  0  0  0  0  0  0  0  0  0  0
    1.0572   -1.5781   -0.6678 C   0  0  1  0  0  0  0  0  0  0  0  0
   -0.1937   -1.6056   -0.0223 N   0  0  0  0  0  0  0  0  0  0  0  0
   -1.1202   -2.4918   -0.5282 C   0  0  0  0  0  0  0  0  0  0  0  0
   -2.3805   -2.5815    0.0086 C   0  0  0  0  0  0  0  0  0  0  0  0
   -2.6765   -1.7548    1.0642 C   0  0  0  0  0  0  0  0  0  0  0  0
   -1.7807   -0.8724    1.5829 N   0  0  0  0  0  0  0  0  0  0  0  0
   -0.5317   -0.8036    1.0320 C   0  0  0  0  0  0  0  0  0  0  0  0
    0.3487   -0.0196    1.4583 O   0  0  0  0  0  0  0  0  0  0  0  0
   -4.0171   -1.8544    1.5797 N   0  0  0  0  0  0  0  0  0  0  0  0
   -4.9363   -1.1786    0.8107 O   0  0  0  0  0  0  0  0  0  0  0  0
   -4.7827    0.1993    0.9777 C   0  0  0  0  0  0  0  0  0  0  0  0
   -4.8444    0.9380   -0.3394 C   0  0  0  0  0  0  0  0  0  0  0  0
   -6.1275    0.7308   -1.0684 C   0  0  0  0  0  0  0  0  0  0  0  0
   -7.3174    1.1758   -0.3405 C   0  0  0  0  0  0  0  0  0  0  0  0
   -8.0091    0.3230    0.5091 C   0  0  0  0  0  0  0  0  0  0  0  0
   -9.1302    0.8211    1.1666 C   0  0  0  0  0  0  0  0  0  0  0  0
   -9.5408    2.1431    0.9700 C   0  0  0  0  0  0  0  0  0  0  0  0
   -8.8503    2.9830    0.1257 C   0  0  0  0  0  0  0  0  0  0  0  0
   -7.7486    2.4903   -0.5190 C   0  0  0  0  0  0  0  0  0  0  0  0
   -9.4578    4.9696   -0.1727 I   0  0  0  0  0  0  0  0  0  0  0  0
    4.0569   -2.5869    0.1549 C   0  0  0  0  0  0  0  0  0  0  0  0
    5.3092   -2.2515   -0.3129 O   0  0  0  0  0  0  0  0  0  0  0  0
    6.3403   -1.6311    0.8751 P   0  0  0  0  0  0  0  0  0  0  0  0
    7.1406   -2.7762    1.4489 O   0  0  0  0  0  0  0  0  0  0  0  0
    7.3851   -0.5666    0.1209 O   0  0  0  0  0  0  0  0  0  0  0  0
    6.9533    1.0485    0.2526 P   0  0  0  0  0  0  0  0  0  0  0  0
    7.2871    1.6910   -1.1003 O   0  0  0  0  0  0  0  0  0  0  0  0
    7.9213    1.7959    1.4158 O   0  0  0  0  0  0  0  0  0  0  0  0
    9.0912    2.7607    0.6838 P   0  0  0  0  0  0  0  0  0  0  0  0
    9.7878    3.6094    1.7274 O   0  0  0  0  0  0  0  0  0  0  0  0
    8.3246    3.7788   -0.4332 O   0  0  0  0  0  0  0  0  0  0  0  0
   10.2196    1.8643   -0.1803 O   0  0  0  0  0  0  0  0  0  0  0  0
    5.3242    1.3035    0.5404 O   0  0  0  0  0  0  0  0  0  0  0  0
    5.4815   -0.9033    2.1351 O   0  0  0  0  0  0  0  0  0  0  0  0
    2.1350    1.4342   -0.2162 H   0  0  0  0  0  0  0  0  0  0  0  0
    2.5029   -0.5115    0.6029 H   0  0  0  0  0  0  0  0  0  0  0  0
    4.0773   -0.4717   -1.1379 H   0  0  0  0  0  0  0  0  0  0  0  0
    2.7148    0.1521   -2.9878 H   0  0  0  0  0  0  0  0  0  0  0  0
    3.4225   -3.0524   -1.8399 H   0  0  0  0  0  0  0  0  0  0  0  0
    0.8346   -1.5131   -1.7825 H   0  0  0  0  0  0  0  0  0  0  0  0
   -0.8678   -3.1312   -1.3620 H   0  0  0  0  0  0  0  0  0  0  0  0
   -3.0779   -3.2870   -0.4181 H   0  0  0  0  0  0  0  0  0  0  0  0
   -4.2668   -2.3772    2.4366 H   0  0  0  0  0  0  0  0  0  0  0  0
   -3.8538    0.4391    1.5302 H   0  0  0  0  0  0  0  0  0  0  0  0
   -5.6175    0.5164    1.6563 H   0  0  0  0  0  0  0  0  0  0  0  0
   -4.5726    2.0065   -0.2240 H   0  0  0  0  0  0  0  0  0  0  0  0
   -4.0341    0.4976   -0.9901 H   0  0  0  0  0  0  0  0  0  0  0  0
   -6.0756    1.1780   -2.0808 H   0  0  0  0  0  0  0  0  0  0  0  0
   -6.2474   -0.3668   -1.2386 H   0  0  0  0  0  0  0  0  0  0  0  0
   -7.6790   -0.7131    0.6577 H   0  0  0  0  0  0  0  0  0  0  0  0
   -9.6977    0.1781    1.8450 H   0  0  0  0  0  0  0  0  0  0  0  0
  -10.4243    2.4865    1.5069 H   0  0  0  0  0  0  0  0  0  0  0  0
   -7.1957    3.1279   -1.1842 H   0  0  0  0  0  0  0  0  0  0  0  0
    3.7067   -2.0701    1.0395 H   0  0  0  0  0  0  0  0  0  0  0  0
    4.0729   -3.7015    0.3341 H   0  0  0  0  0  0  0  0  0  0  0  0
    7.4818    4.1430   -0.0709 H   0  0  0  0  0  0  0  0  0  0  0  0
   10.1162    0.8901   -0.1116 H   0  0  0  0  0  0  0  0  0  0  0  0
    4.9903    1.9933   -0.0589 H   0  0  0  0  0  0  0  0  0  0  0  0
    4.6384   -0.4805    1.8620 H   0  0  0  0  0  0  0  0  0  0  0  0
  1  2  1  0
  2  3  1  0
  3  4  1  0
  3  5  1  0
  5  6  1  0
  6  7  1  0
  7  8  1  0
  8  9  1  0
  9 10  2  0
 10 11  1  0
 11 12  2  0
 12 13  1  0
 13 14  2  0
 11 15  1  0
 15 16  1  0
 16 17  1  0
 17 18  1  0
 18 19  1  0
 19 20  1  0
 20 21  2  0
 21 22  1  0
 22 23  2  0
 23 24  1  0
 24 25  2  0
 24 26  1  0
  5 27  1  0
 27 28  1  0
 28 29  1  0
 29 30  2  0
 29 31  1  0
 31 32  1  0
 32 33  2  0
 32 34  1  0
 34 35  1  0
 35 36  2  0
 35 37  1  0
 35 38  1  0
 32 39  1  0
 29 40  1  0
  7  2  1  0
 13  8  1  0
 25 20  1  0
  1 41  1  0
  2 42  1  1
  3 43  1  6
  4 44  1  0
  5 45  1  6
  7 46  1  6
  9 47  1  0
 10 48  1  0
 15 49  1  0
 17 50  1  0
 17 51  1  0
 18 52  1  0
 18 53  1  0
 19 54  1  0
 19 55  1  0
 21 56  1  0
 22 57  1  0
 23 58  1  0
 25 59  1  0
 27 60  1  0
 27 61  1  0
 37 62  1  0
 38 63  1  0
 39 64  1  0
 40 65  1  0
M  END
>  <Ligand ID>  (1) 
LIG0002510

>  <Ligand>  (1) 
CHEMBL3261365

>  <SMILES>  (1) 
O[C@@H]1[C@H](O)[C@H](O[C@H]1n1ccc(nc1=O)NOCCCc1cccc(c1)I)COP(=O)(OP(=O)(OP(=O)(O)O)O)O

>  <CID>  (1) 
90656216.0

>  <ChEMBL ID>  (1) 
nan

>  <InChiKey>  (1) 
BSXYCTKWYPJKSC-MWQQHZPXSA-N

>  <InChi>  (1) 
InChI=1S/C18H25IN3O15P3/c19-12-5-1-3-11(9-12)4-2-8-33-21-14-6-7-22(18(25)20-14)17-16(24)15(23)13(35-17)10-34-39(29,30)37-40(31,32)36-38(26,27)28/h1,3,5-7,9,13,15-17,23-24H,2,4,8,10H2,(H,29,30)(H,31,32)(H,20,21,25)(H2,26,27,28)/t13-,15-,16-,17-/m1/s1

>  <IUPAC Name>  (1) 
[[(2R,3S,4R,5R)-3,4-dihydroxy-5-[4-[3-(3-iodophenyl)propoxyamino]-2-oxopyrimidin-1-yl]oxolan-2-yl]methoxy-hydroxyphosphoryl] phosphono hydrogen phosphate

$$$$
