
     RDKit          3D

 30 30  0  0  0  0  0  0  0  0999 V2000
   -3.4744    0.3446   -2.2099 N   0  0  0  0  0  0  0  0  0  0  0  0
   -3.2219    0.5826   -0.8213 C   0  0  0  0  0  0  0  0  0  0  0  0
   -1.7584    0.5880   -0.4645 C   0  0  1  0  0  0  0  0  0  0  0  0
   -1.4855    0.8391    1.0014 C   0  0  0  0  0  0  0  0  0  0  0  0
   -1.2237   -0.5347    0.3052 C   0  0  2  0  0  0  0  0  0  0  0  0
    0.2149   -0.9119    0.2625 C   0  0  0  0  0  0  0  0  0  0  0  0
    0.6001   -2.2154    0.5079 C   0  0  0  0  0  0  0  0  0  0  0  0
    1.9462   -2.5176    0.4572 C   0  0  0  0  0  0  0  0  0  0  0  0
    2.9014   -1.5593    0.1706 C   0  0  0  0  0  0  0  0  0  0  0  0
    2.4840   -0.2480   -0.0738 C   0  0  0  0  0  0  0  0  0  0  0  0
    1.1460    0.0881   -0.0309 C   0  0  0  0  0  0  0  0  0  0  0  0
    3.4907    0.6653   -0.3552 O   0  0  0  0  0  0  0  0  0  0  0  0
    3.1820    2.0065   -0.6153 C   0  0  0  0  0  0  0  0  0  0  0  0
    0.6832    0.0000    0.0000 Cl  0  0  0  0  0  0  0  0  0  0  0  0
   -4.5070    0.1591   -2.3004 H   0  0  0  0  0  0  0  0  0  0  0  0
   -3.0159   -0.5423   -2.5106 H   0  0  0  0  0  0  0  0  0  0  0  0
   -3.7665   -0.2001   -0.2390 H   0  0  0  0  0  0  0  0  0  0  0  0
   -3.7150    1.5455   -0.5323 H   0  0  0  0  0  0  0  0  0  0  0  0
   -1.1394    1.1192   -1.2214 H   0  0  0  0  0  0  0  0  0  0  0  0
   -2.3144    0.8332    1.7211 H   0  0  0  0  0  0  0  0  0  0  0  0
   -0.5748    1.4508    1.2315 H   0  0  0  0  0  0  0  0  0  0  0  0
   -1.9276   -1.3466    0.5382 H   0  0  0  0  0  0  0  0  0  0  0  0
   -0.1697   -2.9272    0.7260 H   0  0  0  0  0  0  0  0  0  0  0  0
    2.2771   -3.5272    0.6445 H   0  0  0  0  0  0  0  0  0  0  0  0
    3.9447   -1.8436    0.1419 H   0  0  0  0  0  0  0  0  0  0  0  0
    0.8433    1.1083   -0.2229 H   0  0  0  0  0  0  0  0  0  0  0  0
    4.1022    2.6389   -0.5553 H   0  0  0  0  0  0  0  0  0  0  0  0
    2.4330    2.3361    0.1337 H   0  0  0  0  0  0  0  0  0  0  0  0
    2.7289    2.0687   -1.6422 H   0  0  0  0  0  0  0  0  0  0  0  0
   -0.6832    0.0000    0.0000 H   0  0  0  0  0  0  0  0  0  0  0  0
  1  2  1  0
  2  3  1  0
  3  4  1  0
  4  5  1  0
  5  6  1  0
  6  7  2  0
  7  8  1  0
  8  9  2  0
  9 10  1  0
 10 11  2  0
 10 12  1  0
 12 13  1  0
  5  3  1  0
 11  6  1  0
  1 15  1  0
  1 16  1  0
  2 17  1  0
  2 18  1  0
  3 19  1  6
  4 20  1  0
  4 21  1  0
  5 22  1  1
  7 23  1  0
  8 24  1  0
  9 25  1  0
 11 26  1  0
 13 27  1  0
 13 28  1  0
 13 29  1  0
 14 30  1  0
M  END
>  <Ligand ID>  (1) 
LIG0004831

>  <Ligand>  (1) 
CHEMBL493129

>  <SMILES>  (1) 
NC[C@H]1C[C@@H]1c1cccc(c1)OC.Cl

>  <CID>  (1) 
44572805.0

>  <ChEMBL ID>  (1) 
nan

>  <InChiKey>  (1) 
ABWWRNPKXWVLTE-FOKYBFFNSA-N

>  <InChi>  (1) 
InChI=1S/C11H15NO.ClH/c1-13-10-4-2-3-8(5-10)11-6-9(11)7-12;/h2-5,9,11H,6-7,12H2,1H3;1H/t9-,11-;/m1./s1

>  <IUPAC Name>  (1) 
[(1S,2S)-2-(3-methoxyphenyl)cyclopropyl]methanamine;hydrochloride

$$$$
