
     RDKit          3D

141146  0  0  0  0  0  0  0  0999 V2000
   10.1599   -1.0289    2.0223 C   0  0  0  0  0  0  0  0  0  0  0  0
    9.6241   -2.4468    1.9223 C   0  0  0  0  0  0  0  0  0  0  0  0
    9.2403   -2.7412    0.4736 C   0  0  0  0  0  0  0  0  0  0  0  0
    8.1865   -1.7878    0.0143 C   0  0  0  0  0  0  0  0  0  0  0  0
    7.7524   -2.0190   -1.4347 C   0  0  1  0  0  0  0  0  0  0  0  0
    6.7106   -0.9770   -1.6922 C   0  0  0  0  0  0  0  0  0  0  0  0
    6.8919   -0.0592   -2.5364 O   0  0  0  0  0  0  0  0  0  0  0  0
    5.4798   -1.0440   -0.9458 N   0  0  0  0  0  0  0  0  0  0  0  0
    4.4140   -0.1214   -1.0798 C   0  0  1  0  0  0  0  0  0  0  0  0
    3.2819   -0.6828   -1.9586 C   0  0  0  0  0  0  0  0  0  0  0  0
    2.8220   -1.9932   -1.4825 C   0  0  0  0  0  0  0  0  0  0  0  0
    3.5025   -2.8134   -0.8294 O   0  0  0  0  0  0  0  0  0  0  0  0
    1.4768   -2.5092   -1.7188 N   0  0  0  0  0  0  0  0  0  0  0  0
    1.2593   -3.8324   -1.1966 C   0  0  0  0  0  0  0  0  0  0  0  0
   -0.1021   -4.3956   -1.3110 C   0  0  0  0  0  0  0  0  0  0  0  0
   -1.1105   -3.7559   -0.3364 C   0  0  0  0  0  0  0  0  0  0  0  0
   -2.4036   -4.4712   -0.5542 C   0  0  0  0  0  0  0  0  0  0  0  0
   -3.4770   -4.2477    0.4241 C   0  0  2  0  0  0  0  0  0  0  0  0
   -3.9688   -2.9205    0.6530 N   0  0  0  0  0  0  0  0  0  0  0  0
   -5.4228   -2.6510    0.6085 C   0  0  0  0  0  0  0  0  0  0  0  0
   -6.0421   -3.6811    0.2941 O   0  0  0  0  0  0  0  0  0  0  0  0
   -5.9678   -1.3321    0.9040 C   0  0  1  0  0  0  0  0  0  0  0  0
   -5.0289   -0.2794    1.2139 N   0  0  0  0  0  0  0  0  0  0  0  0
   -5.1303    0.4251    2.4858 C   0  0  0  0  0  0  0  0  0  0  0  0
   -6.0289    0.0067    3.2127 O   0  0  0  0  0  0  0  0  0  0  0  0
   -4.2848    1.5150    2.9063 C   0  0  1  0  0  0  0  0  0  0  0  0
   -3.6368    2.2754    1.8239 N   0  0  0  0  0  0  0  0  0  0  0  0
   -2.2296    2.1491    1.5714 C   0  0  0  0  0  0  0  0  0  0  0  0
   -1.6938    1.3157    2.3235 O   0  0  0  0  0  0  0  0  0  0  0  0
   -1.5268    2.9342    0.5212 C   0  0  2  0  0  0  0  0  0  0  0  0
   -0.1783    2.3657    0.3581 N   0  0  0  0  0  0  0  0  0  0  0  0
    0.8153    2.3216    1.3515 C   0  0  0  0  0  0  0  0  0  0  0  0
    0.3547    2.8175    2.4305 O   0  0  0  0  0  0  0  0  0  0  0  0
    2.1644    1.8484    1.3874 C   0  0  1  0  0  0  0  0  0  0  0  0
    2.8797    1.4814    0.2048 N   0  0  0  0  0  0  0  0  0  0  0  0
    3.7469    0.2935    0.1746 C   0  0  0  0  0  0  0  0  0  0  0  0
    3.8409   -0.2624    1.2711 O   0  0  0  0  0  0  0  0  0  0  0  0
    3.0828    2.5487    2.4011 C   0  0  0  0  0  0  0  0  0  0  0  0
    3.2544    3.9699    2.2529 C   0  0  0  0  0  0  0  0  0  0  0  0
    2.5282    4.9726    2.9002 C   0  0  0  0  0  0  0  0  0  0  0  0
    3.0110    6.1838    2.5341 N   0  0  0  0  0  0  0  0  0  0  0  0
    4.0024    5.9352    1.6882 C   0  0  0  0  0  0  0  0  0  0  0  0
    4.1684    4.6154    1.5030 N   0  0  0  0  0  0  0  0  0  0  0  0
    0.1017    1.7714   -0.9022 C   0  0  0  0  0  0  0  0  0  0  0  0
    0.6526    2.6767   -1.9541 C   0  0  0  0  0  0  0  0  0  0  0  0
   -1.5292    4.3948    0.8363 C   0  0  0  0  0  0  0  0  0  0  0  0
   -0.9137    5.2811   -0.1554 C   0  0  0  0  0  0  0  0  0  0  0  0
   -1.7490    5.7407   -1.1858 C   0  0  0  0  0  0  0  0  0  0  0  0
   -1.2443    6.6002   -2.1517 C   0  0  0  0  0  0  0  0  0  0  0  0
    0.0618    7.0397   -2.1590 C   0  0  0  0  0  0  0  0  0  0  0  0
    0.8761    6.5812   -1.1403 C   0  0  0  0  0  0  0  0  0  0  0  0
    0.3713    5.7288   -0.1838 C   0  0  0  0  0  0  0  0  0  0  0  0
    0.5875    7.8886   -3.1019 O   0  0  0  0  0  0  0  0  0  0  0  0
   -4.7384    2.9961    1.2716 C   0  0  0  0  0  0  0  0  0  0  0  0
   -5.3389    3.6441    2.5329 C   0  0  0  0  0  0  0  0  0  0  0  0
   -5.0790    2.6249    3.6031 C   0  0  0  0  0  0  0  0  0  0  0  0
   -6.8060   -0.8764   -0.2559 C   0  0  0  0  0  0  0  0  0  0  0  0
   -8.0082   -1.6925   -0.4862 C   0  0  0  0  0  0  0  0  0  0  0  0
   -8.6050   -2.6810    0.2609 C   0  0  0  0  0  0  0  0  0  0  0  0
   -9.7894   -3.0918   -0.3522 C   0  0  0  0  0  0  0  0  0  0  0  0
   -9.8870   -2.3260   -1.4800 C   0  0  0  0  0  0  0  0  0  0  0  0
   -8.8293   -1.5072   -1.5417 N   0  0  0  0  0  0  0  0  0  0  0  0
  -10.9778   -2.5220   -2.2938 C   0  0  0  0  0  0  0  0  0  0  0  0
  -11.9289   -3.4630   -1.9663 C   0  0  0  0  0  0  0  0  0  0  0  0
  -11.8384   -4.2505   -0.8165 C   0  0  0  0  0  0  0  0  0  0  0  0
  -10.7444   -4.0516   -0.0036 C   0  0  0  0  0  0  0  0  0  0  0  0
   -2.9046   -4.6667    1.7744 C   0  0  0  0  0  0  0  0  0  0  0  0
   -2.9539   -3.8616    2.7446 O   0  0  0  0  0  0  0  0  0  0  0  0
   -2.3225   -5.9537    1.9323 N   0  0  0  0  0  0  0  0  0  0  0  0
    8.8737   -1.7963   -2.3242 N   0  0  0  0  0  0  0  0  0  0  0  0
    9.2715   -2.9337   -3.1201 C   0  0  0  0  0  0  0  0  0  0  0  0
    8.6514   -4.0291   -3.0139 O   0  0  0  0  0  0  0  0  0  0  0  0
   10.4099   -2.8504   -4.0776 C   0  0  0  0  0  0  0  0  0  0  0  0
   10.8732   -0.8402    1.1777 H   0  0  0  0  0  0  0  0  0  0  0  0
    9.3527   -0.2771    2.0468 H   0  0  0  0  0  0  0  0  0  0  0  0
   10.7365   -0.9484    2.9561 H   0  0  0  0  0  0  0  0  0  0  0  0
   10.4329   -3.1309    2.2029 H   0  0  0  0  0  0  0  0  0  0  0  0
    8.7103   -2.5082    2.5329 H   0  0  0  0  0  0  0  0  0  0  0  0
    8.8178   -3.7667    0.4948 H   0  0  0  0  0  0  0  0  0  0  0  0
   10.1222   -2.7815   -0.1636 H   0  0  0  0  0  0  0  0  0  0  0  0
    8.5561   -0.7316    0.0767 H   0  0  0  0  0  0  0  0  0  0  0  0
    7.2676   -1.8482    0.6234 H   0  0  0  0  0  0  0  0  0  0  0  0
    7.3539   -3.0378   -1.5306 H   0  0  0  0  0  0  0  0  0  0  0  0
    5.4343   -1.8422   -0.2648 H   0  0  0  0  0  0  0  0  0  0  0  0
    4.7351    0.7961   -1.6317 H   0  0  0  0  0  0  0  0  0  0  0  0
    2.4465    0.0097   -2.0776 H   0  0  0  0  0  0  0  0  0  0  0  0
    3.6978   -0.8046   -3.0072 H   0  0  0  0  0  0  0  0  0  0  0  0
    0.8686   -1.8897   -2.2103 H   0  0  0  0  0  0  0  0  0  0  0  0
    1.9509   -4.5645   -1.7235 H   0  0  0  0  0  0  0  0  0  0  0  0
    1.5960   -3.9131   -0.1287 H   0  0  0  0  0  0  0  0  0  0  0  0
   -0.4467   -4.1966   -2.3697 H   0  0  0  0  0  0  0  0  0  0  0  0
   -0.1328   -5.5007   -1.2319 H   0  0  0  0  0  0  0  0  0  0  0  0
   -1.1253   -2.6757   -0.4856 H   0  0  0  0  0  0  0  0  0  0  0  0
   -0.7107   -3.9366    0.6871 H   0  0  0  0  0  0  0  0  0  0  0  0
   -2.7763   -4.1519   -1.5634 H   0  0  0  0  0  0  0  0  0  0  0  0
   -2.1419   -5.5646   -0.6398 H   0  0  0  0  0  0  0  0  0  0  0  0
   -4.2937   -4.9724    0.1835 H   0  0  0  0  0  0  0  0  0  0  0  0
   -3.4328   -2.0802    0.8513 H   0  0  0  0  0  0  0  0  0  0  0  0
   -6.7382   -1.4090    1.7480 H   0  0  0  0  0  0  0  0  0  0  0  0
   -4.2659    0.0558    0.6328 H   0  0  0  0  0  0  0  0  0  0  0  0
   -3.5044    1.1894    3.5858 H   0  0  0  0  0  0  0  0  0  0  0  0
   -2.0854    2.8309   -0.4642 H   0  0  0  0  0  0  0  0  0  0  0  0
    2.0609    0.8111    1.9676 H   0  0  0  0  0  0  0  0  0  0  0  0
    2.9080    1.9724   -0.6890 H   0  0  0  0  0  0  0  0  0  0  0  0
    4.0281    1.9595    2.3727 H   0  0  0  0  0  0  0  0  0  0  0  0
    2.5975    2.3714    3.4058 H   0  0  0  0  0  0  0  0  0  0  0  0
    1.7083    4.8798    3.5904 H   0  0  0  0  0  0  0  0  0  0  0  0
    4.6051    6.7207    1.2071 H   0  0  0  0  0  0  0  0  0  0  0  0
    4.8582    4.1189    0.9024 H   0  0  0  0  0  0  0  0  0  0  0  0
   -0.8521    1.3212   -1.3342 H   0  0  0  0  0  0  0  0  0  0  0  0
    0.7301    0.8312   -0.7647 H   0  0  0  0  0  0  0  0  0  0  0  0
    1.2541    2.0056   -2.6325 H   0  0  0  0  0  0  0  0  0  0  0  0
    1.2999    3.4869   -1.5568 H   0  0  0  0  0  0  0  0  0  0  0  0
   -0.1059    3.1561   -2.5995 H   0  0  0  0  0  0  0  0  0  0  0  0
   -0.9769    4.5164    1.8298 H   0  0  0  0  0  0  0  0  0  0  0  0
   -2.5597    4.7568    1.1282 H   0  0  0  0  0  0  0  0  0  0  0  0
   -2.7802    5.4259   -1.2256 H   0  0  0  0  0  0  0  0  0  0  0  0
   -1.8713    6.9776   -2.9684 H   0  0  0  0  0  0  0  0  0  0  0  0
    1.9202    6.9166   -1.1252 H   0  0  0  0  0  0  0  0  0  0  0  0
    1.0418    5.3963    0.5820 H   0  0  0  0  0  0  0  0  0  0  0  0
    0.7774    8.8721   -2.8903 H   0  0  0  0  0  0  0  0  0  0  0  0
   -4.5327    3.7915    0.5677 H   0  0  0  0  0  0  0  0  0  0  0  0
   -5.5396    2.2978    0.8997 H   0  0  0  0  0  0  0  0  0  0  0  0
   -4.8054    4.5731    2.8043 H   0  0  0  0  0  0  0  0  0  0  0  0
   -6.4207    3.7907    2.4107 H   0  0  0  0  0  0  0  0  0  0  0  0
   -6.0050    2.2248    4.0627 H   0  0  0  0  0  0  0  0  0  0  0  0
   -4.4902    3.0581    4.4364 H   0  0  0  0  0  0  0  0  0  0  0  0
   -7.0539    0.2100   -0.1919 H   0  0  0  0  0  0  0  0  0  0  0  0
   -6.1977   -0.9736   -1.2072 H   0  0  0  0  0  0  0  0  0  0  0  0
   -8.3115   -3.1212    1.2063 H   0  0  0  0  0  0  0  0  0  0  0  0
   -8.6994   -0.8268   -2.3280 H   0  0  0  0  0  0  0  0  0  0  0  0
  -11.1184   -1.9620   -3.1875 H   0  0  0  0  0  0  0  0  0  0  0  0
  -12.7839   -3.6196   -2.5994 H   0  0  0  0  0  0  0  0  0  0  0  0
  -12.6178   -4.9691   -0.6194 H   0  0  0  0  0  0  0  0  0  0  0  0
  -10.6427   -4.6337    0.8794 H   0  0  0  0  0  0  0  0  0  0  0  0
   -2.9262   -6.7971    1.8216 H   0  0  0  0  0  0  0  0  0  0  0  0
   -1.3039   -5.9785    2.1541 H   0  0  0  0  0  0  0  0  0  0  0  0
    9.3740   -0.8901   -2.4016 H   0  0  0  0  0  0  0  0  0  0  0  0
   10.5876   -1.7982   -4.3513 H   0  0  0  0  0  0  0  0  0  0  0  0
   11.3150   -3.2694   -3.5817 H   0  0  0  0  0  0  0  0  0  0  0  0
   10.1424   -3.4493   -4.9890 H   0  0  0  0  0  0  0  0  0  0  0  0
  1  2  1  0
  2  3  1  0
  3  4  1  0
  4  5  1  0
  5  6  1  0
  6  7  2  0
  6  8  1  0
  8  9  1  0
  9 10  1  0
 10 11  1  0
 11 12  2  0
 11 13  1  0
 13 14  1  0
 14 15  1  0
 15 16  1  0
 16 17  1  0
 17 18  1  0
 18 19  1  0
 19 20  1  0
 20 21  2  0
 20 22  1  0
 22 23  1  0
 23 24  1  0
 24 25  2  0
 24 26  1  0
 26 27  1  0
 27 28  1  0
 28 29  2  0
 28 30  1  0
 30 31  1  0
 31 32  1  0
 32 33  2  0
 32 34  1  0
 34 35  1  0
 35 36  1  0
 36 37  2  0
 34 38  1  0
 38 39  1  0
 39 40  2  0
 40 41  1  0
 41 42  2  0
 42 43  1  0
 31 44  1  0
 44 45  1  0
 30 46  1  0
 46 47  1  0
 47 48  2  0
 48 49  1  0
 49 50  2  0
 50 51  1  0
 51 52  2  0
 50 53  1  0
 27 54  1  0
 54 55  1  0
 55 56  1  0
 22 57  1  0
 57 58  1  0
 58 59  2  0
 59 60  1  0
 60 61  2  0
 61 62  1  0
 61 63  1  0
 63 64  2  0
 64 65  1  0
 65 66  2  0
 18 67  1  0
 67 68  2  0
 67 69  1  0
  5 70  1  0
 70 71  1  0
 71 72  2  0
 71 73  1  0
 36  9  1  0
 43 39  1  0
 52 47  1  0
 62 58  1  0
 56 26  1  0
 66 60  1  0
  1 74  1  0
  1 75  1  0
  1 76  1  0
  2 77  1  0
  2 78  1  0
  3 79  1  0
  3 80  1  0
  4 81  1  0
  4 82  1  0
  5 83  1  1
  8 84  1  0
  9 85  1  6
 10 86  1  0
 10 87  1  0
 13 88  1  0
 14 89  1  0
 14 90  1  0
 15 91  1  0
 15 92  1  0
 16 93  1  0
 16 94  1  0
 17 95  1  0
 17 96  1  0
 18 97  1  6
 19 98  1  0
 22 99  1  1
 23100  1  0
 26101  1  1
 30102  1  6
 34103  1  1
 35104  1  0
 38105  1  0
 38106  1  0
 40107  1  0
 42108  1  0
 43109  1  0
 44110  1  0
 44111  1  0
 45112  1  0
 45113  1  0
 45114  1  0
 46115  1  0
 46116  1  0
 48117  1  0
 49118  1  0
 51119  1  0
 52120  1  0
 53121  1  0
 54122  1  0
 54123  1  0
 55124  1  0
 55125  1  0
 56126  1  0
 56127  1  0
 57128  1  0
 57129  1  0
 59130  1  0
 62131  1  0
 63132  1  0
 64133  1  0
 65134  1  0
 66135  1  0
 69136  1  0
 69137  1  0
 70138  1  0
 73139  1  0
 73140  1  0
 73141  1  0
M  END
>  <Ligand ID>  (1) 
LIG0004158

>  <Ligand>  (1) 
CHEMBL376614

>  <SMILES>  (1) 
CCCC[C@@H](C(=O)N[C@H]1CC(=O)NCCCC[C@H](NC(=O)[C@@H](NC(=O)[C@H]2N(C(=O)[C@H](N(C(=O)[C@@H](NC1=O)Cc1cnc[nH]1)CC)Cc1ccc(cc1)O)CCC2)Cc1cc2c([nH]1)cccc2)C(=O)N)NC(=O)C

>  <CID>  (1) 
44423015.0

>  <ChEMBL ID>  (1) 
nan

>  <InChiKey>  (1) 
KCCNZMWUXYDOPS-FYYCEQFTSA-N

>  <InChi>  (1) 
InChI=1S/C51H68N12O10/c1-4-6-13-38(56-30(3)64)46(68)59-40-27-44(66)54-21-10-9-15-37(45(52)67)58-47(69)39(25-33-24-32-12-7-8-14-36(32)57-33)60-49(71)42-16-11-22-63(42)51(73)43(23-31-17-19-35(65)20-18-31)62(5-2)50(72)41(61-48(40)70)26-34-28-53-29-55-34/h7-8,12,14,17-20,24,28-29,37-43,57,65H,4-6,9-11,13,15-16,21-23,25-27H2,1-3H3,(H2,52,67)(H,53,55)(H,54,66)(H,56,64)(H,58,69)(H,59,68)(H,60,71)(H,61,70)/t37-,38-,39-,40-,41-,42-,43+/m0/s1

>  <IUPAC Name>  (1) 
(3R,6S,9S,17S,20S,23S)-9-[[(2S)-2-acetamidohexanoyl]amino]-4-ethyl-3-[(4-hydroxyphenyl)methyl]-6-(1H-imidazol-5-ylmethyl)-20-(1H-indol-2-ylmethyl)-2,5,8,11,19,22-hexaoxo-1,4,7,12,18,21-hexazabicyclo[21.3.0]hexacosane-17-carboxamide

$$$$
