
     RDKit          3D

 55 58  0  0  0  0  0  0  0  0999 V2000
   -7.4904    3.2038    0.5020 O   0  0  0  0  0  0  0  0  0  0  0  0
   -7.3062    1.9695   -0.1247 C   0  0  0  0  0  0  0  0  0  0  0  0
   -8.1879    1.0563   -0.0820 O   0  0  0  0  0  0  0  0  0  0  0  0
   -6.0615    1.6936   -0.8634 C   0  0  0  0  0  0  0  0  0  0  0  0
   -6.1351    0.2906   -1.4367 C   0  0  0  0  0  0  0  0  0  0  0  0
   -6.2886   -0.7241   -0.4290 N   0  0  0  0  0  0  0  0  0  0  0  0
   -6.3565   -2.0670   -1.0071 C   0  0  0  0  0  0  0  0  0  0  0  0
   -5.2100   -2.3107   -1.9654 C   0  0  0  0  0  0  0  0  0  0  0  0
   -3.9453   -1.8935   -1.3089 C   0  0  0  0  0  0  0  0  0  0  0  0
   -3.9613   -1.1411   -0.1404 C   0  0  0  0  0  0  0  0  0  0  0  0
   -5.2177   -0.7106    0.5188 C   0  0  0  0  0  0  0  0  0  0  0  0
   -2.6594   -0.8889    0.2603 C   0  0  0  0  0  0  0  0  0  0  0  0
   -2.1727   -0.1300    1.4424 C   0  0  0  0  0  0  0  0  0  0  0  0
   -1.8922   -1.4895   -0.6672 N   0  0  0  0  0  0  0  0  0  0  0  0
   -2.6238   -2.0684   -1.5714 N   0  0  0  0  0  0  0  0  0  0  0  0
   -0.4333   -1.5188   -0.7035 C   0  0  0  0  0  0  0  0  0  0  0  0
    0.4504   -2.2174   -1.1467 N   0  0  0  0  0  0  0  0  0  0  0  0
    1.7132   -1.9926   -1.0235 N   0  0  0  0  0  0  0  0  0  0  0  0
    2.1446   -0.9954   -0.4122 C   0  0  0  0  0  0  0  0  0  0  0  0
    0.5240   -0.1768    0.1145 S   0  0  0  0  0  0  0  0  0  0  0  0
    3.4223   -0.3655   -0.0380 C   0  0  0  0  0  0  0  0  0  0  0  0
    4.5720   -0.9704   -0.4283 C   0  0  0  0  0  0  0  0  0  0  0  0
    5.8081   -0.4021   -0.0909 C   0  0  0  0  0  0  0  0  0  0  0  0
    5.9034    0.7576    0.6284 C   0  0  0  0  0  0  0  0  0  0  0  0
    4.6856    1.3437    1.0079 C   0  0  0  0  0  0  0  0  0  0  0  0
    3.4719    0.7856    0.6765 C   0  0  0  0  0  0  0  0  0  0  0  0
    4.6692    2.8366    1.9356 Cl  0  0  0  0  0  0  0  0  0  0  0  0
    7.0352    1.4052    1.0166 O   0  0  0  0  0  0  0  0  0  0  0  0
    8.3172    0.9527    0.7187 C   0  0  0  0  0  0  0  0  0  0  0  0
    9.0801    0.5978    1.9832 C   0  0  0  0  0  0  0  0  0  0  0  0
    9.1002    1.9452   -0.1235 C   0  0  0  0  0  0  0  0  0  0  0  0
   -8.1561    3.2629    1.2670 H   0  0  0  0  0  0  0  0  0  0  0  0
   -6.0188    2.3858   -1.7372 H   0  0  0  0  0  0  0  0  0  0  0  0
   -5.1455    1.8740   -0.2757 H   0  0  0  0  0  0  0  0  0  0  0  0
   -7.0433    0.2817   -2.0865 H   0  0  0  0  0  0  0  0  0  0  0  0
   -5.2255    0.0851   -2.0311 H   0  0  0  0  0  0  0  0  0  0  0  0
   -6.3001   -2.7570   -0.1331 H   0  0  0  0  0  0  0  0  0  0  0  0
   -7.3436   -2.1709   -1.4656 H   0  0  0  0  0  0  0  0  0  0  0  0
   -5.4121   -1.7872   -2.9128 H   0  0  0  0  0  0  0  0  0  0  0  0
   -5.1581   -3.4236   -2.0982 H   0  0  0  0  0  0  0  0  0  0  0  0
   -5.4104   -1.4260    1.3347 H   0  0  0  0  0  0  0  0  0  0  0  0
   -5.0812    0.2786    0.9933 H   0  0  0  0  0  0  0  0  0  0  0  0
   -1.4599   -0.7485    2.0567 H   0  0  0  0  0  0  0  0  0  0  0  0
   -1.7154    0.8462    1.1772 H   0  0  0  0  0  0  0  0  0  0  0  0
   -3.0197    0.0836    2.1251 H   0  0  0  0  0  0  0  0  0  0  0  0
    4.5053   -1.8838   -0.9948 H   0  0  0  0  0  0  0  0  0  0  0  0
    6.6641   -0.9248   -0.4264 H   0  0  0  0  0  0  0  0  0  0  0  0
    2.5543    1.2616    0.9838 H   0  0  0  0  0  0  0  0  0  0  0  0
    8.2658    0.0229    0.1316 H   0  0  0  0  0  0  0  0  0  0  0  0
    8.7672   -0.4104    2.2863 H   0  0  0  0  0  0  0  0  0  0  0  0
   10.1519    0.5765    1.7311 H   0  0  0  0  0  0  0  0  0  0  0  0
    8.8176    1.2935    2.8093 H   0  0  0  0  0  0  0  0  0  0  0  0
    9.9104    1.3954   -0.6147 H   0  0  0  0  0  0  0  0  0  0  0  0
    8.3774    2.3568   -0.8579 H   0  0  0  0  0  0  0  0  0  0  0  0
    9.5203    2.7524    0.5387 H   0  0  0  0  0  0  0  0  0  0  0  0
  1  2  1  0
  2  3  2  0
  2  4  1  0
  4  5  1  0
  5  6  1  0
  6  7  1  0
  7  8  1  0
  8  9  1  0
  9 10  1  0
 10 11  1  0
 10 12  2  0
 12 13  1  0
 12 14  1  0
 14 15  1  0
 14 16  1  0
 16 17  2  0
 17 18  1  0
 18 19  2  0
 19 20  1  0
 19 21  1  0
 21 22  2  0
 22 23  1  0
 23 24  2  0
 24 25  1  0
 25 26  2  0
 25 27  1  0
 24 28  1  0
 28 29  1  0
 29 30  1  0
 29 31  1  0
 11  6  1  0
 20 16  1  0
 26 21  1  0
 15  9  2  0
  1 32  1  0
  4 33  1  0
  4 34  1  0
  5 35  1  0
  5 36  1  0
  7 37  1  0
  7 38  1  0
  8 39  1  0
  8 40  1  0
 11 41  1  0
 11 42  1  0
 13 43  1  0
 13 44  1  0
 13 45  1  0
 22 46  1  0
 23 47  1  0
 26 48  1  0
 29 49  1  0
 30 50  1  0
 30 51  1  0
 30 52  1  0
 31 53  1  0
 31 54  1  0
 31 55  1  0
M  END
>  <Ligand ID>  (1) 
LIG0003697

>  <Ligand>  (1) 
compound 43 [PMID: 26751273]

>  <SMILES>  (1) 
OC(=O)CCN1CCc2c(C1)c(C)n(n2)c1nnc(s1)c1ccc(c(c1)Cl)OC(C)C

>  <CID>  (1) 
49848557.0

>  <ChEMBL ID>  (1) 
nan

>  <InChiKey>  (1) 
BGAJNPLDJJBRHK-UHFFFAOYSA-N

>  <InChi>  (1) 
InChI=1S/C21H24ClN5O3S/c1-12(2)30-18-5-4-14(10-16(18)22)20-23-24-21(31-20)27-13(3)15-11-26(9-7-19(28)29)8-6-17(15)25-27/h4-5,10,12H,6-9,11H2,1-3H3,(H,28,29)

>  <IUPAC Name>  (1) 
3-[2-[5-(3-chloro-4-propan-2-yloxyphenyl)-1,3,4-thiadiazol-2-yl]-3-methyl-6,7-dihydro-4H-pyrazolo[4,3-c]pyridin-5-yl]propanoic acid

$$$$
