
     RDKit          3D

 33 35  0  0  0  0  0  0  0  0999 V2000
    4.3235   -0.0554   -1.7170 C   0  0  0  0  0  0  0  0  0  0  0  0
    2.9302   -0.0137   -1.4760 O   0  0  0  0  0  0  0  0  0  0  0  0
    2.4314   -0.2502   -0.2050 C   0  0  0  0  0  0  0  0  0  0  0  0
    3.2733   -0.5323    0.8603 C   0  0  0  0  0  0  0  0  0  0  0  0
    2.7760   -0.7693    2.1332 C   0  0  0  0  0  0  0  0  0  0  0  0
    1.3975   -0.7227    2.3454 C   0  0  0  0  0  0  0  0  0  0  0  0
    0.5292   -0.4418    1.2931 C   0  0  0  0  0  0  0  0  0  0  0  0
    1.0729   -0.2139    0.0503 C   0  0  0  0  0  0  0  0  0  0  0  0
    0.1482    0.0954   -1.0603 C   0  0  0  0  0  0  0  0  0  0  0  0
    0.5618    0.3151   -2.2295 O   0  0  0  0  0  0  0  0  0  0  0  0
   -1.2362    0.1249   -0.7083 N   0  0  0  0  0  0  0  0  0  0  0  0
   -1.5836    0.5179    0.6161 C   0  0  2  0  0  0  0  0  0  0  0  0
   -0.9196   -0.4206    1.5919 C   0  0  0  0  0  0  0  0  0  0  0  0
   -3.0521    0.6683    0.8552 C   0  0  0  0  0  0  0  0  0  0  0  0
   -3.8917    0.6133   -0.2733 N   0  0  0  0  0  0  0  0  0  0  0  0
   -3.3210    0.7804   -1.5578 C   0  0  0  0  0  0  0  0  0  0  0  0
   -2.1959   -0.2476   -1.7358 C   0  0  0  0  0  0  0  0  0  0  0  0
    4.5257    0.0127   -2.7876 H   0  0  0  0  0  0  0  0  0  0  0  0
    4.7648   -0.9931   -1.3076 H   0  0  0  0  0  0  0  0  0  0  0  0
    4.8266    0.8002   -1.2191 H   0  0  0  0  0  0  0  0  0  0  0  0
    4.3443   -0.5693    0.6987 H   0  0  0  0  0  0  0  0  0  0  0  0
    3.4672   -0.9887    2.9513 H   0  0  0  0  0  0  0  0  0  0  0  0
    1.0139   -0.9079    3.3389 H   0  0  0  0  0  0  0  0  0  0  0  0
   -1.1280    1.5224    0.8169 H   0  0  0  0  0  0  0  0  0  0  0  0
   -1.2906   -1.4562    1.3488 H   0  0  0  0  0  0  0  0  0  0  0  0
   -1.1313   -0.1579    2.6459 H   0  0  0  0  0  0  0  0  0  0  0  0
   -3.3527   -0.1884    1.5274 H   0  0  0  0  0  0  0  0  0  0  0  0
   -3.2952    1.5704    1.4545 H   0  0  0  0  0  0  0  0  0  0  0  0
   -4.7493    0.0665   -0.2184 H   0  0  0  0  0  0  0  0  0  0  0  0
   -2.8019    1.7808   -1.5716 H   0  0  0  0  0  0  0  0  0  0  0  0
   -4.0999    0.6903   -2.3130 H   0  0  0  0  0  0  0  0  0  0  0  0
   -1.7435   -0.2232   -2.7279 H   0  0  0  0  0  0  0  0  0  0  0  0
   -2.5937   -1.2387   -1.4197 H   0  0  0  0  0  0  0  0  0  0  0  0
  1  2  1  0
  2  3  1  0
  3  4  2  0
  4  5  1  0
  5  6  2  0
  6  7  1  0
  7  8  2  0
  8  9  1  0
  9 10  2  0
  9 11  1  0
 11 12  1  0
 12 13  1  0
 12 14  1  0
 14 15  1  0
 15 16  1  0
 16 17  1  0
  8  3  1  0
 17 11  1  0
 13  7  1  0
  1 18  1  0
  1 19  1  0
  1 20  1  0
  4 21  1  0
  5 22  1  0
  6 23  1  0
 12 24  1  1
 13 25  1  0
 13 26  1  0
 14 27  1  0
 14 28  1  0
 15 29  1  0
 16 30  1  0
 16 31  1  0
 17 32  1  0
 17 33  1  0
M  END
>  <Ligand ID>  (1) 
LIG0004879

>  <Ligand>  (1) 
CHEMBL2397894

>  <SMILES>  (1) 
COc1cccc2c1C(=O)N1[C@H](C2)CNCC1

>  <CID>  (1) 
58911582.0

>  <ChEMBL ID>  (1) 
nan

>  <InChiKey>  (1) 
SMHSRODEABPMTJ-SNVBAGLBSA-N

>  <InChi>  (1) 
InChI=1S/C13H16N2O2/c1-17-11-4-2-3-9-7-10-8-14-5-6-15(10)13(16)12(9)11/h2-4,10,14H,5-8H2,1H3/t10-/m1/s1

>  <IUPAC Name>  (1) 
(11aR)-7-methoxy-1,2,3,4,11,11a-hexahydropyrazino[1,2-b]isoquinolin-6-one

$$$$
