
     RDKit          3D

148153  0  0  0  0  0  0  0  0999 V2000
   -7.3894   -5.6839    1.4957 N   0  0  0  0  0  0  0  0  0  0  0  0
   -7.3105   -4.3729    0.9467 C   0  0  0  0  0  0  0  0  0  0  0  0
   -6.2106   -3.8955    0.4205 N   0  0  0  0  0  0  0  0  0  0  0  0
   -5.0108   -4.7324    0.3936 C   0  0  0  0  0  0  0  0  0  0  0  0
   -4.2761   -4.5837    1.7223 C   0  0  0  0  0  0  0  0  0  0  0  0
   -3.8236   -3.1760    1.9810 C   0  0  0  0  0  0  0  0  0  0  0  0
   -2.8178   -2.6402    1.0222 C   0  0  2  0  0  0  0  0  0  0  0  0
   -1.5994   -3.4671    1.0672 N   0  0  0  0  0  0  0  0  0  0  0  0
   -0.6358   -3.4813    0.0120 C   0  0  0  0  0  0  0  0  0  0  0  0
   -0.9038   -2.7283   -0.9430 O   0  0  0  0  0  0  0  0  0  0  0  0
    0.5916   -4.3312    0.0752 C   0  0  1  0  0  0  0  0  0  0  0  0
    0.2870   -5.7846   -0.0332 C   0  0  0  0  0  0  0  0  0  0  0  0
   -0.3770   -6.1338   -1.3266 C   0  0  0  0  0  0  0  0  0  0  0  0
    0.3619   -6.6017   -2.3956 C   0  0  0  0  0  0  0  0  0  0  0  0
   -0.1898   -6.8985   -3.6038 C   0  0  0  0  0  0  0  0  0  0  0  0
   -1.5436   -6.7269   -3.7774 C   0  0  0  0  0  0  0  0  0  0  0  0
   -2.3227   -6.2614   -2.7375 C   0  0  0  0  0  0  0  0  0  0  0  0
   -1.7525   -5.9612   -1.5060 C   0  0  0  0  0  0  0  0  0  0  0  0
    1.5470   -3.9073   -0.9565 N   0  0  0  0  0  0  0  0  0  0  0  0
    2.4520   -2.8909   -0.6035 C   0  0  0  0  0  0  0  0  0  0  0  0
    2.2429   -2.3759    0.5380 O   0  0  0  0  0  0  0  0  0  0  0  0
    3.5816   -2.3257   -1.3588 C   0  0  1  0  0  0  0  0  0  0  0  0
    3.6360   -2.7827   -2.7545 C   0  0  0  0  0  0  0  0  0  0  0  0
    3.8659   -4.2384   -2.8683 C   0  0  0  0  0  0  0  0  0  0  0  0
    4.0614   -5.1885   -1.9423 N   0  0  0  0  0  0  0  0  0  0  0  0
    4.2377   -6.3935   -2.5209 C   0  0  0  0  0  0  0  0  0  0  0  0
    4.1518   -6.1984   -3.8334 N   0  0  0  0  0  0  0  0  0  0  0  0
    3.9240   -4.8939   -4.1009 C   0  0  0  0  0  0  0  0  0  0  0  0
    3.7428   -0.9190   -1.0990 N   0  0  0  0  0  0  0  0  0  0  0  0
    4.8457   -0.2971   -0.4467 C   0  0  0  0  0  0  0  0  0  0  0  0
    5.7685   -1.0407   -0.1198 O   0  0  0  0  0  0  0  0  0  0  0  0
    4.7574    1.1609   -0.2388 C   0  0  2  0  0  0  0  0  0  0  0  0
    4.8477    1.9409   -1.5644 C   0  0  0  0  0  0  0  0  0  0  0  0
    4.0958    3.5853   -1.2360 S   0  0  0  0  0  0  0  0  0  0  0  0
    2.0432    3.5833   -1.2427 S   0  0  0  0  0  0  0  0  0  0  0  0
    1.0750    3.2877    0.1768 C   0  0  0  0  0  0  0  0  0  0  0  0
   -0.4122    3.3843   -0.2725 C   0  0  1  0  0  0  0  0  0  0  0  0
   -1.3052    2.9651    0.7805 N   0  0  0  0  0  0  0  0  0  0  0  0
   -2.0017    1.7301    0.6008 C   0  0  0  0  0  0  0  0  0  0  0  0
   -1.8134    1.1280   -0.4434 O   0  0  0  0  0  0  0  0  0  0  0  0
   -2.9498    1.1953    1.6988 C   0  0  2  0  0  0  0  0  0  0  0  0
   -3.3445   -0.1395    1.2800 N   0  0  0  0  0  0  0  0  0  0  0  0
   -2.4265   -1.2251    1.4347 C   0  0  0  0  0  0  0  0  0  0  0  0
   -1.3263   -0.9458    1.9046 O   0  0  0  0  0  0  0  0  0  0  0  0
   -4.1318    2.0866    1.7781 C   0  0  0  0  0  0  0  0  0  0  0  0
   -4.9516    2.1776    0.5692 C   0  0  0  0  0  0  0  0  0  0  0  0
   -4.6594    3.0461   -0.4837 C   0  0  0  0  0  0  0  0  0  0  0  0
   -5.5176    2.8604   -1.4961 N   0  0  0  0  0  0  0  0  0  0  0  0
   -6.3838    1.8830   -1.1460 C   0  0  0  0  0  0  0  0  0  0  0  0
   -6.0362    1.4629    0.1259 C   0  0  0  0  0  0  0  0  0  0  0  0
   -6.8167    0.4770    0.6780 C   0  0  0  0  0  0  0  0  0  0  0  0
   -7.8840   -0.0833    0.0365 C   0  0  0  0  0  0  0  0  0  0  0  0
   -8.2283    0.3360   -1.2393 C   0  0  0  0  0  0  0  0  0  0  0  0
   -7.4639    1.3231   -1.8142 C   0  0  0  0  0  0  0  0  0  0  0  0
   -0.6801    4.7632   -0.7581 C   0  0  0  0  0  0  0  0  0  0  0  0
    0.0737    5.2172   -1.6616 O   0  0  0  0  0  0  0  0  0  0  0  0
   -1.7287    5.5798   -0.2613 N   0  0  0  0  0  0  0  0  0  0  0  0
   -2.0343    6.9048   -0.6917 C   0  0  2  0  0  0  0  0  0  0  0  0
   -2.1997    7.8890    0.4053 C   0  0  0  0  0  0  0  0  0  0  0  0
   -2.0486    7.5421    1.6242 O   0  0  0  0  0  0  0  0  0  0  0  0
   -2.5310    9.2242    0.0570 N   0  0  0  0  0  0  0  0  0  0  0  0
   -3.2555    6.9887   -1.5841 C   0  0  2  0  0  0  0  0  0  0  0  0
   -3.4377    8.3288   -1.9342 O   0  0  0  0  0  0  0  0  0  0  0  0
   -4.5104    6.5189   -0.9038 C   0  0  0  0  0  0  0  0  0  0  0  0
    1.3003    4.2589    1.3230 C   0  0  0  0  0  0  0  0  0  0  0  0
    1.2294    1.9042    0.7372 C   0  0  0  0  0  0  0  0  0  0  0  0
    6.0094    1.6189    0.4540 N   0  0  0  0  0  0  0  0  0  0  0  0
    6.0132    2.7071    1.3267 C   0  0  0  0  0  0  0  0  0  0  0  0
    4.8436    3.2727    1.4676 O   0  0  0  0  0  0  0  0  0  0  0  0
    7.0771    3.3102    2.0884 C   0  0  1  0  0  0  0  0  0  0  0  0
    8.4979    3.0624    1.9095 C   0  0  0  0  0  0  0  0  0  0  0  0
    9.0508    1.7329    2.1259 C   0  0  0  0  0  0  0  0  0  0  0  0
    9.3665    0.7759    1.2039 C   0  0  0  0  0  0  0  0  0  0  0  0
    9.8768   -0.4601    1.5008 C   0  0  0  0  0  0  0  0  0  0  0  0
   10.1100   -0.8175    2.8353 C   0  0  0  0  0  0  0  0  0  0  0  0
    9.7972    0.1400    3.8047 C   0  0  0  0  0  0  0  0  0  0  0  0
    9.2866    1.3704    3.4680 C   0  0  0  0  0  0  0  0  0  0  0  0
    6.8341    4.7483    2.3278 N   0  0  0  0  0  0  0  0  0  0  0  0
   -8.4854   -3.5812    1.0031 N   0  0  0  0  0  0  0  0  0  0  0  0
   -7.1015   -5.9385    2.4606 H   0  0  0  0  0  0  0  0  0  0  0  0
   -7.7788   -6.4218    0.8365 H   0  0  0  0  0  0  0  0  0  0  0  0
   -5.2217   -5.7987    0.2287 H   0  0  0  0  0  0  0  0  0  0  0  0
   -4.4125   -4.3560   -0.4493 H   0  0  0  0  0  0  0  0  0  0  0  0
   -4.9553   -4.9173    2.5274 H   0  0  0  0  0  0  0  0  0  0  0  0
   -3.3952   -5.2717    1.6898 H   0  0  0  0  0  0  0  0  0  0  0  0
   -4.7085   -2.4955    1.9535 H   0  0  0  0  0  0  0  0  0  0  0  0
   -3.3613   -3.1817    3.0129 H   0  0  0  0  0  0  0  0  0  0  0  0
   -3.1872   -2.5207    0.0166 H   0  0  0  0  0  0  0  0  0  0  0  0
   -1.3733   -4.0915    1.8522 H   0  0  0  0  0  0  0  0  0  0  0  0
    1.0384   -4.0887    1.0414 H   0  0  0  0  0  0  0  0  0  0  0  0
    1.2381   -6.3450    0.0877 H   0  0  0  0  0  0  0  0  0  0  0  0
   -0.3839   -6.1712    0.7636 H   0  0  0  0  0  0  0  0  0  0  0  0
    1.4177   -6.7350   -2.2320 H   0  0  0  0  0  0  0  0  0  0  0  0
    0.4398   -7.2627   -4.3893 H   0  0  0  0  0  0  0  0  0  0  0  0
   -1.9708   -6.9646   -4.7359 H   0  0  0  0  0  0  0  0  0  0  0  0
   -3.4024   -6.1085   -2.8356 H   0  0  0  0  0  0  0  0  0  0  0  0
   -2.3439   -5.5949   -0.6778 H   0  0  0  0  0  0  0  0  0  0  0  0
    1.5731   -4.2637   -1.8998 H   0  0  0  0  0  0  0  0  0  0  0  0
    4.5523   -2.8169   -0.8757 H   0  0  0  0  0  0  0  0  0  0  0  0
    4.3929   -2.2305   -3.3802 H   0  0  0  0  0  0  0  0  0  0  0  0
    2.6391   -2.5980   -3.2478 H   0  0  0  0  0  0  0  0  0  0  0  0
    4.0785   -5.0159   -0.9074 H   0  0  0  0  0  0  0  0  0  0  0  0
    4.4149   -7.3426   -2.0021 H   0  0  0  0  0  0  0  0  0  0  0  0
    3.8155   -4.4895   -5.0835 H   0  0  0  0  0  0  0  0  0  0  0  0
    2.9989   -0.2860   -1.4102 H   0  0  0  0  0  0  0  0  0  0  0  0
    3.9114    1.5370    0.3186 H   0  0  0  0  0  0  0  0  0  0  0  0
    5.8935    2.0714   -1.8890 H   0  0  0  0  0  0  0  0  0  0  0  0
    4.2049    1.4751   -2.3296 H   0  0  0  0  0  0  0  0  0  0  0  0
   -0.4451    2.7038   -1.1465 H   0  0  0  0  0  0  0  0  0  0  0  0
   -1.5038    3.4512    1.6483 H   0  0  0  0  0  0  0  0  0  0  0  0
   -2.3058    1.1996    2.5862 H   0  0  0  0  0  0  0  0  0  0  0  0
   -4.2349   -0.4023    0.8693 H   0  0  0  0  0  0  0  0  0  0  0  0
   -3.7736    3.1277    2.0225 H   0  0  0  0  0  0  0  0  0  0  0  0
   -4.8242    1.8066    2.6137 H   0  0  0  0  0  0  0  0  0  0  0  0
   -3.8674    3.7635   -0.5158 H   0  0  0  0  0  0  0  0  0  0  0  0
   -5.5332    3.3645   -2.4069 H   0  0  0  0  0  0  0  0  0  0  0  0
   -6.5256    0.1599    1.6894 H   0  0  0  0  0  0  0  0  0  0  0  0
   -8.4945   -0.8519    0.4782 H   0  0  0  0  0  0  0  0  0  0  0  0
   -9.0719   -0.0996   -1.7669 H   0  0  0  0  0  0  0  0  0  0  0  0
   -7.6825    1.7014   -2.8280 H   0  0  0  0  0  0  0  0  0  0  0  0
   -2.3171    5.1566    0.5019 H   0  0  0  0  0  0  0  0  0  0  0  0
   -1.1569    7.2503   -1.3136 H   0  0  0  0  0  0  0  0  0  0  0  0
   -1.7580    9.8700   -0.1922 H   0  0  0  0  0  0  0  0  0  0  0  0
   -3.5444    9.4753    0.0751 H   0  0  0  0  0  0  0  0  0  0  0  0
   -3.0850    6.4608   -2.5567 H   0  0  0  0  0  0  0  0  0  0  0  0
   -2.6102    8.7476   -2.2570 H   0  0  0  0  0  0  0  0  0  0  0  0
   -5.1105    5.8241   -1.5715 H   0  0  0  0  0  0  0  0  0  0  0  0
   -4.3310    6.0566    0.0863 H   0  0  0  0  0  0  0  0  0  0  0  0
   -5.2152    7.3707   -0.6974 H   0  0  0  0  0  0  0  0  0  0  0  0
    0.4282    4.1670    2.0071 H   0  0  0  0  0  0  0  0  0  0  0  0
    2.1766    3.8887    1.8874 H   0  0  0  0  0  0  0  0  0  0  0  0
    1.5120    5.2858    0.9867 H   0  0  0  0  0  0  0  0  0  0  0  0
    0.2999    1.5230    1.2209 H   0  0  0  0  0  0  0  0  0  0  0  0
    2.0281    1.9722    1.5367 H   0  0  0  0  0  0  0  0  0  0  0  0
    1.6110    1.2214   -0.0357 H   0  0  0  0  0  0  0  0  0  0  0  0
    6.8434    1.0795    0.2334 H   0  0  0  0  0  0  0  0  0  0  0  0
    6.8703    2.9037    3.1842 H   0  0  0  0  0  0  0  0  0  0  0  0
    9.0773    3.7515    2.6164 H   0  0  0  0  0  0  0  0  0  0  0  0
    8.8146    3.4792    0.9033 H   0  0  0  0  0  0  0  0  0  0  0  0
    9.2069    1.0236    0.1625 H   0  0  0  0  0  0  0  0  0  0  0  0
   10.1259   -1.2089    0.7780 H   0  0  0  0  0  0  0  0  0  0  0  0
   10.5059   -1.7642    3.1274 H   0  0  0  0  0  0  0  0  0  0  0  0
    9.9904   -0.1646    4.8403 H   0  0  0  0  0  0  0  0  0  0  0  0
    9.0585    2.0808    4.2743 H   0  0  0  0  0  0  0  0  0  0  0  0
    7.0854    5.2425    1.4381 H   0  0  0  0  0  0  0  0  0  0  0  0
    5.7842    4.8423    2.4343 H   0  0  0  0  0  0  0  0  0  0  0  0
   -8.5436   -2.9357    1.8480 H   0  0  0  0  0  0  0  0  0  0  0  0
   -9.2526   -3.6081    0.2927 H   0  0  0  0  0  0  0  0  0  0  0  0
  1  2  1  0
  2  3  2  3
  3  4  1  0
  4  5  1  0
  5  6  1  0
  6  7  1  0
  7  8  1  0
  8  9  1  0
  9 10  2  0
  9 11  1  0
 11 12  1  0
 12 13  1  0
 13 14  2  0
 14 15  1  0
 15 16  2  0
 16 17  1  0
 17 18  2  0
 11 19  1  0
 19 20  1  0
 20 21  2  0
 20 22  1  0
 22 23  1  0
 23 24  1  0
 24 25  1  0
 25 26  1  0
 26 27  2  0
 27 28  1  0
 22 29  1  0
 29 30  1  0
 30 31  2  0
 30 32  1  0
 32 33  1  0
 33 34  1  0
 34 35  1  0
 35 36  1  0
 36 37  1  0
 37 38  1  0
 38 39  1  0
 39 40  2  0
 39 41  1  0
 41 42  1  0
 42 43  1  0
 43 44  2  0
 41 45  1  0
 45 46  1  0
 46 47  2  0
 47 48  1  0
 48 49  1  0
 49 50  2  0
 50 51  1  0
 51 52  2  0
 52 53  1  0
 53 54  2  0
 37 55  1  0
 55 56  2  0
 55 57  1  0
 57 58  1  0
 58 59  1  0
 59 60  2  0
 59 61  1  0
 58 62  1  0
 62 63  1  0
 62 64  1  0
 36 65  1  0
 36 66  1  0
 32 67  1  0
 67 68  1  0
 68 69  2  0
 68 70  1  0
 70 71  1  0
 71 72  1  0
 72 73  2  0
 73 74  1  0
 74 75  2  0
 75 76  1  0
 76 77  2  0
 70 78  1  0
  2 79  1  0
 43  7  1  0
 50 46  1  0
 77 72  1  0
 18 13  1  0
 28 24  2  0
 54 49  1  0
  1 80  1  0
  1 81  1  0
  4 82  1  0
  4 83  1  0
  5 84  1  0
  5 85  1  0
  6 86  1  0
  6 87  1  0
  7 88  1  6
  8 89  1  0
 11 90  1  1
 12 91  1  0
 12 92  1  0
 14 93  1  0
 15 94  1  0
 16 95  1  0
 17 96  1  0
 18 97  1  0
 19 98  1  0
 22 99  1  1
 23100  1  0
 23101  1  0
 25102  1  0
 26103  1  0
 28104  1  0
 29105  1  0
 32106  1  1
 33107  1  0
 33108  1  0
 37109  1  6
 38110  1  0
 41111  1  1
 42112  1  0
 45113  1  0
 45114  1  0
 47115  1  0
 48116  1  0
 51117  1  0
 52118  1  0
 53119  1  0
 54120  1  0
 57121  1  0
 58122  1  6
 61123  1  0
 61124  1  0
 62125  1  6
 63126  1  0
 64127  1  0
 64128  1  0
 64129  1  0
 65130  1  0
 65131  1  0
 65132  1  0
 66133  1  0
 66134  1  0
 66135  1  0
 67136  1  0
 70137  1  1
 71138  1  0
 71139  1  0
 73140  1  0
 74141  1  0
 75142  1  0
 76143  1  0
 77144  1  0
 78145  1  0
 78146  1  0
 79147  1  0
 79148  1  0
M  END
>  <Ligand ID>  (1) 
LIG0000800

>  <Ligand>  (1) 
CHEMBL411400

>  <SMILES>  (1) 
NC(=NCCC[C@@H]1NC(=O)[C@@H](Cc2ccccc2)NC(=O)[C@@H](Cc2[nH]cnc2)NC(=O)[C@H](CSSC([C@@H](NC(=O)[C@H](NC1=O)Cc1c[nH]c2c1cccc2)C(=O)N[C@H](C(=O)N)[C@H](O)C)(C)C)NC(=O)[C@@H](Cc1ccccc1)N)N

>  <CID>  (1) 
44285238.0

>  <ChEMBL ID>  (1) 
nan

>  <InChiKey>  (1) 
HJGHPWYMORIUAG-FFQQBTGJSA-N

>  <InChi>  (1) 
InChI=1S/C53H69N15O9S2/c1-29(69)42(44(55)70)67-51(77)43-53(2,3)79-78-27-41(66-45(71)35(54)21-30-13-6-4-7-14-30)50(76)65-40(24-33-26-58-28-61-33)48(74)63-38(22-31-15-8-5-9-16-31)47(73)62-37(19-12-20-59-52(56)57)46(72)64-39(49(75)68-43)23-32-25-60-36-18-11-10-17-34(32)36/h4-11,13-18,25-26,28-29,35,37-43,60,69H,12,19-24,27,54H2,1-3H3,(H2,55,70)(H,58,61)(H,62,73)(H,63,74)(H,64,72)(H,65,76)(H,66,71)(H,67,77)(H,68,75)(H4,56,57,59)/t29-,35-,37+,38-,39-,40-,41+,42+,43+/m1/s1

>  <IUPAC Name>  (1) 
(4S,7R,10S,13R,16R,19R)-N-[(2S,3R)-1-amino-3-hydroxy-1-oxobutan-2-yl]-19-[[(2R)-2-amino-3-phenylpropanoyl]amino]-13-benzyl-10-[3-(diaminomethylideneamino)propyl]-16-(1H-imidazol-5-ylmethyl)-7-(1H-indol-3-ylmethyl)-3,3-dimethyl-6,9,12,15,18-pentaoxo-1,2-dithia-5,8,11,14,17-pentazacycloicosane-4-carboxamide

$$$$
