
     RDKit          3D

 40 43  0  0  0  0  0  0  0  0999 V2000
   -2.3899   -2.7051   -2.9789 O   0  0  0  0  0  0  0  0  0  0  0  0
   -2.1875   -1.7090   -2.2840 C   0  0  0  0  0  0  0  0  0  0  0  0
   -3.0507   -1.0190   -1.3077 C   0  0  0  0  0  0  0  0  0  0  0  0
   -4.4462   -1.1352   -1.1699 C   0  0  0  0  0  0  0  0  0  0  0  0
   -5.1537   -0.2134   -0.6153 C   0  0  0  0  0  0  0  0  0  0  0  0
   -4.4205    0.9324   -0.1145 C   0  0  0  0  0  0  0  0  0  0  0  0
   -3.0832    1.0311   -0.2457 C   0  0  0  0  0  0  0  0  0  0  0  0
   -2.3112   -0.0090   -0.8889 C   0  0  0  0  0  0  0  0  0  0  0  0
   -1.0222    0.1376   -1.3565 N   0  0  0  0  0  0  0  0  0  0  0  0
   -0.9010   -0.9345   -2.2966 C   0  0  0  0  0  0  0  0  0  0  0  0
    0.1087   -1.1899   -3.0314 O   0  0  0  0  0  0  0  0  0  0  0  0
   -0.0024    1.0054   -0.9791 C   0  0  0  0  0  0  0  0  0  0  0  0
    1.2390    0.6253   -0.2341 C   0  0  0  0  0  0  0  0  0  0  0  0
    2.2488    0.0262   -0.9404 C   0  0  0  0  0  0  0  0  0  0  0  0
    3.5404   -0.2212   -0.4787 C   0  0  0  0  0  0  0  0  0  0  0  0
    3.8507    0.2463    0.7554 C   0  0  0  0  0  0  0  0  0  0  0  0
    2.8440    0.7987    1.5020 C   0  0  0  0  0  0  0  0  0  0  0  0
    1.5259    0.9693    1.0735 C   0  0  0  0  0  0  0  0  0  0  0  0
    5.2455    0.0621    1.3103 C   0  0  0  0  0  0  0  0  0  0  0  0
    6.1987   -0.5149    0.6054 C   0  0  0  0  0  0  0  0  0  0  0  0
    7.2612   -1.0864    1.1697 C   0  0  0  0  0  0  0  0  0  0  0  0
    7.0131   -0.6921    2.8839 S   0  0  0  0  0  0  0  0  0  0  0  0
    5.4034    0.1488    2.6635 C   0  0  0  0  0  0  0  0  0  0  0  0
   -6.5083   -0.0029   -0.2547 O   0  0  0  0  0  0  0  0  0  0  0  0
   -6.7714   -0.2532    1.1386 C   0  0  0  0  0  0  0  0  0  0  0  0
   -7.7407   -0.6889    1.8042 F   0  0  0  0  0  0  0  0  0  0  0  0
   -5.7244    0.3120    1.8883 F   0  0  0  0  0  0  0  0  0  0  0  0
   -7.4594    1.2806    1.0890 F   0  0  0  0  0  0  0  0  0  0  0  0
   -4.9322   -2.0297   -1.5964 H   0  0  0  0  0  0  0  0  0  0  0  0
   -5.0561    1.7788    0.1731 H   0  0  0  0  0  0  0  0  0  0  0  0
   -2.6104    1.9541    0.0644 H   0  0  0  0  0  0  0  0  0  0  0  0
   -0.4488    1.7909   -0.2516 H   0  0  0  0  0  0  0  0  0  0  0  0
    0.3233    1.5932   -1.8633 H   0  0  0  0  0  0  0  0  0  0  0  0
    2.1078   -0.1255   -1.9959 H   0  0  0  0  0  0  0  0  0  0  0  0
    4.2203   -0.7765   -1.1080 H   0  0  0  0  0  0  0  0  0  0  0  0
    3.1333    1.2093    2.4701 H   0  0  0  0  0  0  0  0  0  0  0  0
    0.8160    1.3849    1.7368 H   0  0  0  0  0  0  0  0  0  0  0  0
    6.1840   -0.4304   -0.5457 H   0  0  0  0  0  0  0  0  0  0  0  0
    8.0935   -1.6456    0.7420 H   0  0  0  0  0  0  0  0  0  0  0  0
    4.8626    0.6427    3.4672 H   0  0  0  0  0  0  0  0  0  0  0  0
  1  2  2  0
  2  3  1  0
  3  4  2  0
  4  5  1  0
  5  6  2  0
  6  7  1  0
  7  8  2  0
  8  9  1  0
  9 10  1  0
 10 11  2  0
  9 12  1  0
 12 13  1  0
 13 14  2  0
 14 15  1  0
 15 16  2  0
 16 17  1  0
 17 18  2  0
 16 19  1  0
 19 20  1  0
 20 21  2  0
 21 22  1  0
 22 23  1  0
  5 24  1  0
 24 25  1  0
 25 26  1  0
 25 27  1  0
 25 28  1  0
 10  2  1  0
 18 13  1  0
 23 19  2  0
  8  3  1  0
  4 29  1  0
  6 30  1  0
  7 31  1  0
 12 32  1  0
 12 33  1  0
 14 34  1  0
 15 35  1  0
 17 36  1  0
 18 37  1  0
 20 38  1  0
 21 39  1  0
 23 40  1  0
M  END
>  <Ligand ID>  (1) 
LIG0005945

>  <Ligand>  (1) 
CHEMBL603445

>  <SMILES>  (1) 
O=C1c2cc(ccc2N(C1=O)Cc1ccc(cc1)c1ccsc1)OC(F)(F)F

>  <CID>  (1) 
45281797.0

>  <ChEMBL ID>  (1) 
nan

>  <InChiKey>  (1) 
RSEUVMGVNMLOCQ-UHFFFAOYSA-N

>  <InChi>  (1) 
InChI=1S/C20H12F3NO3S/c21-20(22,23)27-15-5-6-17-16(9-15)18(25)19(26)24(17)10-12-1-3-13(4-2-12)14-7-8-28-11-14/h1-9,11H,10H2

>  <IUPAC Name>  (1) 
1-[(4-thiophen-3-ylphenyl)methyl]-5-(trifluoromethoxy)indole-2,3-dione

$$$$
