
     RDKit          3D

 60 62  0  0  0  0  0  0  0  0999 V2000
    2.3060   -3.1935    3.0150 C   0  0  0  0  0  0  0  0  0  0  0  0
    2.4845   -1.9095    2.4329 O   0  0  0  0  0  0  0  0  0  0  0  0
    1.5057   -1.4213    1.6208 C   0  0  0  0  0  0  0  0  0  0  0  0
    0.4860   -2.1846    1.4511 O   0  0  0  0  0  0  0  0  0  0  0  0
    1.5572   -0.1022    0.9484 C   0  0  0  0  0  0  0  0  0  0  0  0
    2.5959    0.7172    1.1017 C   0  0  0  0  0  0  0  0  0  0  0  0
    3.6901    0.2563    1.9704 C   0  0  0  0  0  0  0  0  0  0  0  0
    2.6778    1.9817    0.4546 N   0  0  0  0  0  0  0  0  0  0  0  0
    3.7166    2.9419    0.6015 C   0  0  0  0  0  0  0  0  0  0  0  0
    4.8506    3.0065   -0.3244 C   0  0  0  0  0  0  0  0  0  0  0  0
    5.7300    1.8289   -0.4910 C   0  0  0  0  0  0  0  0  0  0  0  0
    5.0617    0.6734   -1.1089 C   0  0  0  0  0  0  0  0  0  0  0  0
    3.9541    0.6744   -1.6770 O   0  0  0  0  0  0  0  0  0  0  0  0
    5.7330   -0.5498   -1.0551 O   0  0  0  0  0  0  0  0  0  0  0  0
    1.5730    2.3633   -0.4005 C   0  0  0  0  0  0  0  0  0  0  0  0
    1.5714    3.4716   -1.0086 O   0  0  0  0  0  0  0  0  0  0  0  0
    0.4876    1.4751   -0.5485 N   0  0  0  0  0  0  0  0  0  0  0  0
    0.3642    0.2282    0.1237 C   0  0  0  0  0  0  0  0  0  0  0  0
   -0.0012   -0.8877   -0.7852 C   0  0  0  0  0  0  0  0  0  0  0  0
    0.9563   -1.5229   -1.5466 C   0  0  0  0  0  0  0  0  0  0  0  0
    0.6611   -2.5618   -2.4177 C   0  0  0  0  0  0  0  0  0  0  0  0
   -0.6520   -2.9674   -2.5169 C   0  0  0  0  0  0  0  0  0  0  0  0
   -1.6024   -2.3200   -1.7458 C   0  0  0  0  0  0  0  0  0  0  0  0
   -1.3134   -1.2949   -0.8854 C   0  0  0  0  0  0  0  0  0  0  0  0
   -2.3559   -0.7339   -0.1706 O   0  0  0  0  0  0  0  0  0  0  0  0
   -3.2156    0.5640   -0.8210 S   0  0  0  0  0  0  0  0  0  0  0  0
   -2.7957    1.8740   -0.1738 O   0  0  0  0  0  0  0  0  0  0  0  0
   -2.9875    0.7212   -2.2971 O   0  0  0  0  0  0  0  0  0  0  0  0
   -4.9364    0.3140   -0.4759 C   0  0  0  0  0  0  0  0  0  0  0  0
   -5.7457   -0.4017   -1.3344 C   0  0  0  0  0  0  0  0  0  0  0  0
   -7.0863   -0.5385   -0.9751 C   0  0  0  0  0  0  0  0  0  0  0  0
   -7.5721    0.0305    0.2054 C   0  0  0  0  0  0  0  0  0  0  0  0
   -6.7456    0.7405    1.0468 C   0  0  0  0  0  0  0  0  0  0  0  0
   -5.4204    0.8816    0.7020 C   0  0  0  0  0  0  0  0  0  0  0  0
   -8.9428   -0.1116    0.5593 N   0  0  0  0  0  0  0  0  0  0  0  0
   -9.7450   -0.7458   -0.1599 O   0  0  0  0  0  0  0  0  0  0  0  0
   -9.3630    0.4787    1.7328 O   0  0  0  0  0  0  0  0  0  0  0  0
    3.2332   -3.7868    3.0391 H   0  0  0  0  0  0  0  0  0  0  0  0
    1.9295   -3.1482    4.0622 H   0  0  0  0  0  0  0  0  0  0  0  0
    1.5689   -3.7671    2.4341 H   0  0  0  0  0  0  0  0  0  0  0  0
    4.4922    1.0096    2.0604 H   0  0  0  0  0  0  0  0  0  0  0  0
    3.3267    0.1224    3.0257 H   0  0  0  0  0  0  0  0  0  0  0  0
    4.2065   -0.6611    1.5814 H   0  0  0  0  0  0  0  0  0  0  0  0
    4.1493    2.8669    1.6539 H   0  0  0  0  0  0  0  0  0  0  0  0
    3.2096    3.9803    0.6887 H   0  0  0  0  0  0  0  0  0  0  0  0
    4.5733    3.4341   -1.3370 H   0  0  0  0  0  0  0  0  0  0  0  0
    5.5280    3.8390    0.0775 H   0  0  0  0  0  0  0  0  0  0  0  0
    6.1584    1.5850    0.5102 H   0  0  0  0  0  0  0  0  0  0  0  0
    6.6546    2.0768   -1.0992 H   0  0  0  0  0  0  0  0  0  0  0  0
    5.2560   -1.3898   -1.3204 H   0  0  0  0  0  0  0  0  0  0  0  0
   -0.2744    1.7630   -1.2057 H   0  0  0  0  0  0  0  0  0  0  0  0
   -0.4693    0.3219    0.8824 H   0  0  0  0  0  0  0  0  0  0  0  0
    1.9888   -1.2305   -1.4913 H   0  0  0  0  0  0  0  0  0  0  0  0
    1.4247   -3.0539   -3.0122 H   0  0  0  0  0  0  0  0  0  0  0  0
   -0.9040   -3.7828   -3.1971 H   0  0  0  0  0  0  0  0  0  0  0  0
   -2.6268   -2.6641   -1.8474 H   0  0  0  0  0  0  0  0  0  0  0  0
   -5.3457   -0.8285   -2.2351 H   0  0  0  0  0  0  0  0  0  0  0  0
   -7.7181   -1.0957   -1.6418 H   0  0  0  0  0  0  0  0  0  0  0  0
   -7.0791    1.1971    1.9705 H   0  0  0  0  0  0  0  0  0  0  0  0
   -4.7644    1.4365    1.3544 H   0  0  0  0  0  0  0  0  0  0  0  0
  1  2  1  0
  2  3  1  0
  3  4  2  0
  3  5  1  0
  5  6  2  0
  6  7  1  0
  6  8  1  0
  8  9  1  0
  9 10  1  0
 10 11  1  0
 11 12  1  0
 12 13  2  0
 12 14  1  0
  8 15  1  0
 15 16  2  0
 15 17  1  0
 17 18  1  0
 18 19  1  0
 19 20  2  0
 20 21  1  0
 21 22  2  0
 22 23  1  0
 23 24  2  0
 24 25  1  0
 25 26  1  0
 26 27  2  0
 26 28  2  0
 26 29  1  0
 29 30  2  0
 30 31  1  0
 31 32  2  0
 32 33  1  0
 33 34  2  0
 32 35  1  0
 35 36  2  0
 35 37  1  0
 18  5  1  0
 24 19  1  0
 34 29  1  0
  1 38  1  0
  1 39  1  0
  1 40  1  0
  7 41  1  0
  7 42  1  0
  7 43  1  0
  9 44  1  0
  9 45  1  0
 10 46  1  0
 10 47  1  0
 11 48  1  0
 11 49  1  0
 14 50  1  0
 17 51  1  0
 18 52  1  0
 20 53  1  0
 21 54  1  0
 22 55  1  0
 23 56  1  0
 30 57  1  0
 31 58  1  0
 33 59  1  0
 34 60  1  0
M  CHG  2  35   1  37  -1
M  END
>  <Ligand ID>  (1) 
LIG0003604

>  <Ligand>  (1) 
MLS000562981

>  <SMILES>  (1) 
COC(=O)C1=C(C)N(CCCC(=O)O)C(=O)NC1c1ccccc1OS(=O)(=O)c1ccc(cc1)[N+](=O)[O-]

>  <CID>  (1) 
5461578.0

>  <ChEMBL ID>  (1) 
nan

>  <InChiKey>  (1) 
ZBYDKRSLNBFNGP-UHFFFAOYSA-N

>  <InChi>  (1) 
InChI=1S/C23H23N3O10S/c1-14-20(22(29)35-2)21(24-23(30)25(14)13-5-8-19(27)28)17-6-3-4-7-18(17)36-37(33,34)16-11-9-15(10-12-16)26(31)32/h3-4,6-7,9-12,21H,5,8,13H2,1-2H3,(H,24,30)(H,27,28)

>  <IUPAC Name>  (1) 
4-[5-methoxycarbonyl-4-methyl-6-[2-(4-nitrophenyl)sulfonyloxyphenyl]-2-oxo-1,6-dihydropyrimidin-3-yl]butanoic acid

$$$$
