
     RDKit          3D

 39 40  0  0  0  0  0  0  0  0999 V2000
    6.6136    0.7641   -0.5215 O   0  0  0  0  0  0  0  0  0  0  0  0
    5.9216    1.4240    0.4815 C   0  0  0  0  0  0  0  0  0  0  0  0
    6.3539    2.5659    0.8331 O   0  0  0  0  0  0  0  0  0  0  0  0
    4.7219    0.8551    1.1423 C   0  0  0  0  0  0  0  0  0  0  0  0
    4.3235   -0.4715    0.6455 C   0  0  0  0  0  0  0  0  0  0  0  0
    3.9673   -0.6267   -0.7741 C   0  0  0  0  0  0  0  0  0  0  0  0
    2.8694    0.0403   -1.2871 O   0  0  0  0  0  0  0  0  0  0  0  0
    1.5524   -0.0711   -0.9676 C   0  0  0  0  0  0  0  0  0  0  0  0
    0.8304   -1.0552   -1.6707 C   0  0  0  0  0  0  0  0  0  0  0  0
    1.4543   -1.8241   -2.6024 F   0  0  0  0  0  0  0  0  0  0  0  0
   -0.4984   -1.2825   -1.4591 C   0  0  0  0  0  0  0  0  0  0  0  0
   -1.2173   -0.5529   -0.5342 C   0  0  0  0  0  0  0  0  0  0  0  0
   -0.5223    0.4148    0.1616 C   0  0  0  0  0  0  0  0  0  0  0  0
    0.8365    0.6447   -0.0575 C   0  0  0  0  0  0  0  0  0  0  0  0
    1.4068    1.6111    0.6583 F   0  0  0  0  0  0  0  0  0  0  0  0
   -2.6211   -0.7438   -0.2635 C   0  0  0  0  0  0  0  0  0  0  0  0
   -3.4425    0.3814   -0.1575 C   0  0  0  0  0  0  0  0  0  0  0  0
   -4.8087    0.2451    0.1038 C   0  0  0  0  0  0  0  0  0  0  0  0
   -5.3101   -1.0306    0.2517 C   0  0  0  0  0  0  0  0  0  0  0  0
   -4.5039   -2.1511    0.1484 C   0  0  0  0  0  0  0  0  0  0  0  0
   -3.1627   -2.0071   -0.1086 C   0  0  0  0  0  0  0  0  0  0  0  0
   -2.3459   -3.0713   -0.2162 F   0  0  0  0  0  0  0  0  0  0  0  0
   -5.5966    1.3836    0.2029 O   0  0  0  0  0  0  0  0  0  0  0  0
   -5.8238    2.0734    1.4148 C   0  0  0  0  0  0  0  0  0  0  0  0
   -6.6529    3.1726    1.1958 F   0  0  0  0  0  0  0  0  0  0  0  0
   -4.6174    2.5707    1.8919 F   0  0  0  0  0  0  0  0  0  0  0  0
   -6.3459    1.2837    2.3937 F   0  0  0  0  0  0  0  0  0  0  0  0
    6.9443    1.2899   -1.3388 H   0  0  0  0  0  0  0  0  0  0  0  0
    3.9460    1.6268    1.1142 H   0  0  0  0  0  0  0  0  0  0  0  0
    5.0080    0.7750    2.2310 H   0  0  0  0  0  0  0  0  0  0  0  0
    5.1135   -1.2241    0.8797 H   0  0  0  0  0  0  0  0  0  0  0  0
    3.4382   -0.8203    1.2582 H   0  0  0  0  0  0  0  0  0  0  0  0
    3.7322   -1.7354   -0.9122 H   0  0  0  0  0  0  0  0  0  0  0  0
    4.8742   -0.5247   -1.4596 H   0  0  0  0  0  0  0  0  0  0  0  0
   -1.0327   -2.0548   -2.0213 H   0  0  0  0  0  0  0  0  0  0  0  0
   -1.0580    1.0012    0.8914 H   0  0  0  0  0  0  0  0  0  0  0  0
   -3.0256    1.3570   -0.2769 H   0  0  0  0  0  0  0  0  0  0  0  0
   -6.3696   -1.1141    0.4535 H   0  0  0  0  0  0  0  0  0  0  0  0
   -4.9525   -3.1193    0.2734 H   0  0  0  0  0  0  0  0  0  0  0  0
  1  2  1  0
  2  3  2  0
  2  4  1  0
  4  5  1  0
  5  6  1  0
  6  7  1  0
  7  8  1  0
  8  9  2  0
  9 10  1  0
  9 11  1  0
 11 12  2  0
 12 13  1  0
 13 14  2  0
 14 15  1  0
 12 16  1  0
 16 17  2  0
 17 18  1  0
 18 19  2  0
 19 20  1  0
 20 21  2  0
 21 22  1  0
 18 23  1  0
 23 24  1  0
 24 25  1  0
 24 26  1  0
 24 27  1  0
 14  8  1  0
 21 16  1  0
  1 28  1  0
  4 29  1  0
  4 30  1  0
  5 31  1  0
  5 32  1  0
  6 33  1  0
  6 34  1  0
 11 35  1  0
 13 36  1  0
 17 37  1  0
 19 38  1  0
 20 39  1  0
M  END
>  <Ligand ID>  (1) 
LIG0002490

>  <Ligand>  (1) 
CHEMBL3973101

>  <SMILES>  (1) 
OC(=O)CCCOc1c(F)cc(cc1F)c1cc(ccc1F)OC(F)(F)F

>  <CID>  (1) 
134153562.0

>  <ChEMBL ID>  (1) 
nan

>  <InChiKey>  (1) 
IJJBCZREWOBDBI-UHFFFAOYSA-N

>  <InChi>  (1) 
InChI=1S/C17H12F6O4/c18-12-4-3-10(27-17(21,22)23)8-11(12)9-6-13(19)16(14(20)7-9)26-5-1-2-15(24)25/h3-4,6-8H,1-2,5H2,(H,24,25)

>  <IUPAC Name>  (1) 
4-[2,6-difluoro-4-[2-fluoro-5-(trifluoromethoxy)phenyl]phenoxy]butanoic acid

$$$$
