
     RDKit          3D

 67 70  0  0  0  0  0  0  0  0999 V2000
   -2.2815    1.3214    1.6650 C   0  0  0  0  0  0  0  0  0  0  0  0
   -1.8955    1.3297    0.1979 C   0  0  2  0  0  0  0  0  0  0  0  0
   -2.7329    0.3583   -0.5433 C   0  0  0  0  0  0  0  0  0  0  0  0
   -4.2002    0.6834   -0.4803 C   0  0  0  0  0  0  0  0  0  0  0  0
   -4.8064    1.8785   -0.1875 C   0  0  0  0  0  0  0  0  0  0  0  0
   -6.1639    1.7277   -0.2406 N   0  0  0  0  0  0  0  0  0  0  0  0
   -6.4610    0.4590   -0.5618 C   0  0  0  0  0  0  0  0  0  0  0  0
   -5.2586   -0.2035   -0.7146 C   0  0  0  0  0  0  0  0  0  0  0  0
   -5.3119   -1.5514   -1.0528 C   0  0  0  0  0  0  0  0  0  0  0  0
   -6.5179   -2.2083   -1.2300 C   0  0  0  0  0  0  0  0  0  0  0  0
   -7.6762   -1.4858   -1.0617 C   0  0  0  0  0  0  0  0  0  0  0  0
   -7.6907   -0.1412   -0.7252 C   0  0  0  0  0  0  0  0  0  0  0  0
   -9.2032    0.7046   -0.5200 S   0  0  0  0  0  0  0  0  0  0  0  0
   -9.3108    1.8401   -1.5270 O   0  0  0  0  0  0  0  0  0  0  0  0
  -10.3241   -0.2377   -0.8404 O   0  0  0  0  0  0  0  0  0  0  0  0
   -9.4266    1.3542    1.0886 C   0  0  0  0  0  0  0  0  0  0  0  0
   -0.5714    1.4913   -0.1350 N   0  0  0  0  0  0  0  0  0  0  0  0
    0.5352    0.8055    0.3387 C   0  0  0  0  0  0  0  0  0  0  0  0
    0.6595   -0.6187   -0.0708 C   0  0  1  0  0  0  0  0  0  0  0  0
    2.0175   -1.2267    0.1059 C   0  0  0  0  0  0  0  0  0  0  0  0
    2.2590   -1.9378    1.2773 C   0  0  0  0  0  0  0  0  0  0  0  0
    3.5084   -2.5656    1.3995 C   0  0  0  0  0  0  0  0  0  0  0  0
    4.4534   -2.4748    0.3989 C   0  0  0  0  0  0  0  0  0  0  0  0
    4.2271   -1.7728   -0.7618 C   0  0  0  0  0  0  0  0  0  0  0  0
    2.9869   -1.1572   -0.8694 C   0  0  0  0  0  0  0  0  0  0  0  0
    5.1608   -1.6247   -1.8121 N   0  0  0  0  0  0  0  0  0  0  0  0
    6.8595   -1.7335   -1.6806 S   0  0  0  0  0  0  0  0  0  0  0  0
    7.1959   -3.1272   -1.1561 O   0  0  0  0  0  0  0  0  0  0  0  0
    7.4765   -1.6320   -3.0590 O   0  0  0  0  0  0  0  0  0  0  0  0
    7.4996   -0.5393   -0.6106 C   0  0  0  0  0  0  0  0  0  0  0  0
    7.8036   -0.9511    0.6935 C   0  0  0  0  0  0  0  0  0  0  0  0
    8.3433   -0.0968    1.6269 C   0  0  0  0  0  0  0  0  0  0  0  0
    8.6053    1.2136    1.2985 C   0  0  0  0  0  0  0  0  0  0  0  0
    8.3044    1.6284    0.0054 C   0  0  0  0  0  0  0  0  0  0  0  0
    7.7617    0.7684   -0.9297 C   0  0  0  0  0  0  0  0  0  0  0  0
    8.6004    2.9926   -0.2943 N   0  0  0  0  0  0  0  0  0  0  0  0
   -0.3320   -1.4615    0.3578 O   0  0  0  0  0  0  0  0  0  0  0  0
   -1.8472    0.4829    2.2334 H   0  0  0  0  0  0  0  0  0  0  0  0
   -3.3861    1.1714    1.7001 H   0  0  0  0  0  0  0  0  0  0  0  0
   -2.0917    2.3093    2.1019 H   0  0  0  0  0  0  0  0  0  0  0  0
   -2.3936    2.3638   -0.1273 H   0  0  0  0  0  0  0  0  0  0  0  0
   -2.3657    0.2475   -1.5802 H   0  0  0  0  0  0  0  0  0  0  0  0
   -2.7000   -0.6624   -0.0812 H   0  0  0  0  0  0  0  0  0  0  0  0
   -4.3508    2.8079    0.0496 H   0  0  0  0  0  0  0  0  0  0  0  0
   -6.8704    2.5014   -0.0557 H   0  0  0  0  0  0  0  0  0  0  0  0
   -4.3926   -2.1180   -1.1833 H   0  0  0  0  0  0  0  0  0  0  0  0
   -6.6089   -3.2466   -1.4892 H   0  0  0  0  0  0  0  0  0  0  0  0
   -8.6486   -1.9496   -1.1847 H   0  0  0  0  0  0  0  0  0  0  0  0
   -9.0487    0.7079    1.9007 H   0  0  0  0  0  0  0  0  0  0  0  0
  -10.5429    1.4078    1.2615 H   0  0  0  0  0  0  0  0  0  0  0  0
   -9.0968    2.4058    1.1611 H   0  0  0  0  0  0  0  0  0  0  0  0
   -0.3767    2.1926   -0.8980 H   0  0  0  0  0  0  0  0  0  0  0  0
    0.7349    0.9441    1.4418 H   0  0  0  0  0  0  0  0  0  0  0  0
    1.4566    1.3191   -0.1107 H   0  0  0  0  0  0  0  0  0  0  0  0
    0.5492   -0.6185   -1.2226 H   0  0  0  0  0  0  0  0  0  0  0  0
    1.5409   -2.0256    2.0748 H   0  0  0  0  0  0  0  0  0  0  0  0
    3.7720   -3.1333    2.2763 H   0  0  0  0  0  0  0  0  0  0  0  0
    5.4197   -2.9559    0.4904 H   0  0  0  0  0  0  0  0  0  0  0  0
    2.7700   -0.5944   -1.7644 H   0  0  0  0  0  0  0  0  0  0  0  0
    4.7543   -1.4286   -2.7652 H   0  0  0  0  0  0  0  0  0  0  0  0
    7.6061   -1.9956    0.9877 H   0  0  0  0  0  0  0  0  0  0  0  0
    8.5439   -0.5203    2.6199 H   0  0  0  0  0  0  0  0  0  0  0  0
    9.0267    1.8630    2.0462 H   0  0  0  0  0  0  0  0  0  0  0  0
    7.5276    1.0985   -1.9433 H   0  0  0  0  0  0  0  0  0  0  0  0
    7.8951    3.7504   -0.0453 H   0  0  0  0  0  0  0  0  0  0  0  0
    9.5223    3.2518   -0.7589 H   0  0  0  0  0  0  0  0  0  0  0  0
   -0.4922   -1.3853    1.3417 H   0  0  0  0  0  0  0  0  0  0  0  0
  1  2  1  0
  2  3  1  0
  3  4  1  0
  4  5  2  0
  5  6  1  0
  6  7  1  0
  7  8  2  0
  8  9  1  0
  9 10  2  0
 10 11  1  0
 11 12  2  0
 12 13  1  0
 13 14  2  0
 13 15  2  0
 13 16  1  0
  2 17  1  0
 17 18  1  0
 18 19  1  0
 19 20  1  0
 20 21  2  0
 21 22  1  0
 22 23  2  0
 23 24  1  0
 24 25  2  0
 24 26  1  0
 26 27  1  0
 27 28  2  0
 27 29  2  0
 27 30  1  0
 30 31  2  0
 31 32  1  0
 32 33  2  0
 33 34  1  0
 34 35  2  0
 34 36  1  0
 19 37  1  0
  8  4  1  0
 25 20  1  0
 35 30  1  0
 12  7  1  0
  1 38  1  0
  1 39  1  0
  1 40  1  0
  2 41  1  6
  3 42  1  0
  3 43  1  0
  5 44  1  0
  6 45  1  0
  9 46  1  0
 10 47  1  0
 11 48  1  0
 16 49  1  0
 16 50  1  0
 16 51  1  0
 17 52  1  0
 18 53  1  0
 18 54  1  0
 19 55  1  6
 21 56  1  0
 22 57  1  0
 23 58  1  0
 25 59  1  0
 26 60  1  0
 31 61  1  0
 32 62  1  0
 33 63  1  0
 35 64  1  0
 36 65  1  0
 36 66  1  0
 37 67  1  0
M  END
>  <Ligand ID>  (1) 
LIG0002230

>  <Ligand>  (1) 
CHEMBL442225

>  <SMILES>  (1) 
C[C@H](Cc1c[nH]c2c1cccc2S(=O)(=O)C)NC[C@@H](c1cccc(c1)NS(=O)(=O)c1cccc(c1)N)O

>  <CID>  (1) 
44396798.0

>  <ChEMBL ID>  (1) 
nan

>  <InChiKey>  (1) 
QVQLGSIODBNTES-OSPHWJPCSA-N

>  <InChi>  (1) 
InChI=1S/C26H30N4O5S2/c1-17(12-19-15-29-26-23(19)10-5-11-25(26)36(2,32)33)28-16-24(31)18-6-3-8-21(13-18)30-37(34,35)22-9-4-7-20(27)14-22/h3-11,13-15,17,24,28-31H,12,16,27H2,1-2H3/t17-,24+/m1/s1

>  <IUPAC Name>  (1) 
3-amino-N-[3-[(1R)-1-hydroxy-2-[[(2R)-1-(7-methylsulfonyl-1H-indol-3-yl)propan-2-yl]amino]ethyl]phenyl]benzenesulfonamide

$$$$
