
     RDKit          3D

 53 56  0  0  0  0  0  0  0  0999 V2000
    5.1756   -2.6229   -1.4528 Cl  0  0  0  0  0  0  0  0  0  0  0  0
    6.1868   -1.4919   -0.5872 C   0  0  0  0  0  0  0  0  0  0  0  0
    7.5476   -1.8134   -0.5334 C   0  0  0  0  0  0  0  0  0  0  0  0
    8.4352   -0.9962    0.1206 C   0  0  0  0  0  0  0  0  0  0  0  0
    7.9469    0.1410    0.7172 C   0  0  0  0  0  0  0  0  0  0  0  0
    6.6203    0.4485    0.6612 C   0  0  0  0  0  0  0  0  0  0  0  0
    5.6721   -0.3607    0.0010 C   0  0  0  0  0  0  0  0  0  0  0  0
    4.4080    0.0613    0.0255 O   0  0  0  0  0  0  0  0  0  0  0  0
    3.1792   -0.3256   -0.4312 C   0  0  0  0  0  0  0  0  0  0  0  0
    2.2506   -0.4489    0.7557 C   0  0  0  0  0  0  0  0  0  0  0  0
    0.8497    0.0223    0.5165 C   0  0  0  0  0  0  0  0  0  0  0  0
    0.7397    1.2469   -0.2000 N   0  0  0  0  0  0  0  0  0  0  0  0
    1.9736    1.7864   -0.6676 C   0  0  0  0  0  0  0  0  0  0  0  0
    2.6939    0.7098   -1.4237 C   0  0  0  0  0  0  0  0  0  0  0  0
   -0.4892    1.2774   -1.3958 S   0  0  0  0  0  0  0  0  0  0  0  0
   -0.2750    0.2343   -2.4627 O   0  0  0  0  0  0  0  0  0  0  0  0
   -0.4403    2.6154   -2.0760 O   0  0  0  0  0  0  0  0  0  0  0  0
   -2.0717    1.0494   -0.7406 C   0  0  0  0  0  0  0  0  0  0  0  0
   -2.7880    2.1791   -0.3430 C   0  0  0  0  0  0  0  0  0  0  0  0
   -4.0498    2.0385    0.1828 C   0  0  0  0  0  0  0  0  0  0  0  0
   -4.6498    0.8055    0.3374 C   0  0  0  0  0  0  0  0  0  0  0  0
   -3.9552   -0.3191   -0.0505 C   0  0  0  0  0  0  0  0  0  0  0  0
   -2.6748   -0.1804   -0.5844 C   0  0  0  0  0  0  0  0  0  0  0  0
   -4.3396   -1.7321   -0.0024 C   0  0  0  0  0  0  0  0  0  0  0  0
   -5.8141   -1.9913   -0.0288 C   0  0  0  0  0  0  0  0  0  0  0  0
   -6.5358   -1.3424    1.0341 N   0  0  0  0  0  0  0  0  0  0  0  0
   -6.9867   -0.0650    0.5288 C   0  0  0  0  0  0  0  0  0  0  0  0
   -5.9845    0.9669    0.9190 C   0  0  0  0  0  0  0  0  0  0  0  0
    7.9300   -2.7097   -1.0041 H   0  0  0  0  0  0  0  0  0  0  0  0
    9.4769   -1.2785    0.1399 H   0  0  0  0  0  0  0  0  0  0  0  0
    8.6504    0.8001    1.2424 H   0  0  0  0  0  0  0  0  0  0  0  0
    6.3060    1.3693    1.1590 H   0  0  0  0  0  0  0  0  0  0  0  0
    3.2319   -1.2721   -0.9920 H   0  0  0  0  0  0  0  0  0  0  0  0
    2.6851    0.0293    1.6606 H   0  0  0  0  0  0  0  0  0  0  0  0
    2.1947   -1.5342    0.9926 H   0  0  0  0  0  0  0  0  0  0  0  0
    0.2203   -0.7515    0.0152 H   0  0  0  0  0  0  0  0  0  0  0  0
    0.3911    0.1681    1.5175 H   0  0  0  0  0  0  0  0  0  0  0  0
    1.7618    2.6178   -1.3734 H   0  0  0  0  0  0  0  0  0  0  0  0
    2.6096    2.1901    0.1444 H   0  0  0  0  0  0  0  0  0  0  0  0
    2.0516    0.2878   -2.1977 H   0  0  0  0  0  0  0  0  0  0  0  0
    3.5612    1.1813   -1.9498 H   0  0  0  0  0  0  0  0  0  0  0  0
   -2.3432    3.1661   -0.4517 H   0  0  0  0  0  0  0  0  0  0  0  0
   -4.5543    2.9593    0.4730 H   0  0  0  0  0  0  0  0  0  0  0  0
   -2.1063   -1.0547   -0.8981 H   0  0  0  0  0  0  0  0  0  0  0  0
   -3.8224   -2.3097    0.8125 H   0  0  0  0  0  0  0  0  0  0  0  0
   -3.9337   -2.2080   -0.9423 H   0  0  0  0  0  0  0  0  0  0  0  0
   -5.9432   -3.0903    0.0964 H   0  0  0  0  0  0  0  0  0  0  0  0
   -6.1937   -1.7167   -1.0283 H   0  0  0  0  0  0  0  0  0  0  0  0
   -7.3665   -1.8919    1.3457 H   0  0  0  0  0  0  0  0  0  0  0  0
   -7.1048   -0.1173   -0.5519 H   0  0  0  0  0  0  0  0  0  0  0  0
   -7.9538    0.2274    0.9680 H   0  0  0  0  0  0  0  0  0  0  0  0
   -6.3967    1.9590    0.5700 H   0  0  0  0  0  0  0  0  0  0  0  0
   -5.9766    1.0864    2.0387 H   0  0  0  0  0  0  0  0  0  0  0  0
  1  2  1  0
  2  3  2  0
  3  4  1  0
  4  5  2  0
  5  6  1  0
  6  7  2  0
  7  8  1  0
  8  9  1  0
  9 10  1  0
 10 11  1  0
 11 12  1  0
 12 13  1  0
 13 14  1  0
 12 15  1  0
 15 16  2  0
 15 17  2  0
 15 18  1  0
 18 19  2  0
 19 20  1  0
 20 21  2  0
 21 22  1  0
 22 23  2  0
 22 24  1  0
 24 25  1  0
 25 26  1  0
 26 27  1  0
 27 28  1  0
  7  2  1  0
 14  9  1  0
 23 18  1  0
 28 21  1  0
  3 29  1  0
  4 30  1  0
  5 31  1  0
  6 32  1  0
  9 33  1  0
 10 34  1  0
 10 35  1  0
 11 36  1  0
 11 37  1  0
 13 38  1  0
 13 39  1  0
 14 40  1  0
 14 41  1  0
 19 42  1  0
 20 43  1  0
 23 44  1  0
 24 45  1  0
 24 46  1  0
 25 47  1  0
 25 48  1  0
 26 49  1  0
 27 50  1  0
 27 51  1  0
 28 52  1  0
 28 53  1  0
M  END
>  <Ligand ID>  (1) 
LIG0003148

>  <Ligand>  (1) 
CHEMBL492301

>  <SMILES>  (1) 
Clc1ccccc1OC1CCN(CC1)S(=O)(=O)c1ccc2c(c1)CCNCC2

>  <CID>  (1) 
44225654.0

>  <ChEMBL ID>  (1) 
nan

>  <InChiKey>  (1) 
ZVFFUTQAERXNNF-UHFFFAOYSA-N

>  <InChi>  (1) 
InChI=1S/C21H25ClN2O3S/c22-20-3-1-2-4-21(20)27-18-9-13-24(14-10-18)28(25,26)19-6-5-16-7-11-23-12-8-17(16)15-19/h1-6,15,18,23H,7-14H2

>  <IUPAC Name>  (1) 
7-[4-(2-chlorophenoxy)piperidin-1-yl]sulfonyl-2,3,4,5-tetrahydro-1H-3-benzazepine

$$$$
