
     RDKit          3D

 54 56  0  0  0  0  0  0  0  0999 V2000
    0.6874   -3.3671   -1.1242 O   0  0  0  0  0  0  0  0  0  0  0  0
    1.5068   -2.2702   -0.8913 C   0  0  2  0  0  0  0  0  0  0  0  0
    2.9706   -2.6617   -0.8203 C   0  0  2  0  0  0  0  0  0  0  0  0
    3.1728   -3.7923   -0.0635 O   0  0  0  0  0  0  0  0  0  0  0  0
    3.5014   -1.4729   -0.0218 C   0  0  2  0  0  0  0  0  0  0  0  0
    2.4533   -0.9436    0.6914 O   0  0  0  0  0  0  0  0  0  0  0  0
    1.3516   -1.7398    0.5227 C   0  0  1  0  0  0  0  0  0  0  0  0
    0.0972   -1.0585    0.7126 N   0  0  0  0  0  0  0  0  0  0  0  0
   -0.8417   -1.4947    1.5818 C   0  0  0  0  0  0  0  0  0  0  0  0
   -2.0441   -0.8380    1.7611 C   0  0  0  0  0  0  0  0  0  0  0  0
   -2.2969    0.3063    1.0255 C   0  0  0  0  0  0  0  0  0  0  0  0
   -1.3359    0.7052    0.1723 N   0  0  0  0  0  0  0  0  0  0  0  0
   -0.1664    0.0391    0.0190 C   0  0  0  0  0  0  0  0  0  0  0  0
    0.6329    0.5530   -0.8306 O   0  0  0  0  0  0  0  0  0  0  0  0
   -3.5102    1.0445    1.1484 N   0  0  0  0  0  0  0  0  0  0  0  0
   -3.6795    2.1684    0.3811 O   0  0  0  0  0  0  0  0  0  0  0  0
   -4.4874    1.8715   -0.7250 C   0  0  0  0  0  0  0  0  0  0  0  0
   -5.8034    1.3968   -0.2345 C   0  0  0  0  0  0  0  0  0  0  0  0
   -6.7870    2.3483   -0.0284 C   0  0  0  0  0  0  0  0  0  0  0  0
   -8.0083    1.9173    0.4256 C   0  0  0  0  0  0  0  0  0  0  0  0
   -8.2344    0.5666    0.6659 C   0  0  0  0  0  0  0  0  0  0  0  0
   -7.2468   -0.3798    0.4579 C   0  0  0  0  0  0  0  0  0  0  0  0
   -6.0150    0.0501    0.0006 C   0  0  0  0  0  0  0  0  0  0  0  0
    3.8738   -0.4268   -1.0743 C   0  0  0  0  0  0  0  0  0  0  0  0
    4.2425    0.7464   -0.4419 O   0  0  0  0  0  0  0  0  0  0  0  0
    4.6762    1.9774   -1.4890 P   0  0  0  0  0  0  0  0  0  0  0  0
    3.9736    1.8712   -2.8232 O   0  0  0  0  0  0  0  0  0  0  0  0
    6.3541    1.9429   -1.6862 O   0  0  0  0  0  0  0  0  0  0  0  0
    7.0493    1.5365   -0.2004 P   0  0  0  0  0  0  0  0  0  0  0  0
    6.9451    2.7081    0.7798 O   0  0  0  0  0  0  0  0  0  0  0  0
    6.3007    0.2202    0.5356 O   0  0  0  0  0  0  0  0  0  0  0  0
    8.6724    1.1057   -0.4326 O   0  0  0  0  0  0  0  0  0  0  0  0
    4.2780    3.4991   -0.8218 O   0  0  0  0  0  0  0  0  0  0  0  0
   -0.1284   -3.3237   -0.5548 H   0  0  0  0  0  0  0  0  0  0  0  0
    1.4177   -1.4893   -1.6550 H   0  0  0  0  0  0  0  0  0  0  0  0
    3.4371   -2.7110   -1.8234 H   0  0  0  0  0  0  0  0  0  0  0  0
    3.2530   -3.5524    0.8938 H   0  0  0  0  0  0  0  0  0  0  0  0
    4.3720   -1.7396    0.5769 H   0  0  0  0  0  0  0  0  0  0  0  0
    1.4656   -2.6165    1.1963 H   0  0  0  0  0  0  0  0  0  0  0  0
   -0.6501   -2.3863    2.1581 H   0  0  0  0  0  0  0  0  0  0  0  0
   -2.7819   -1.2039    2.4620 H   0  0  0  0  0  0  0  0  0  0  0  0
   -4.2370    0.7116    1.8175 H   0  0  0  0  0  0  0  0  0  0  0  0
   -3.9572    1.0850   -1.3178 H   0  0  0  0  0  0  0  0  0  0  0  0
   -4.5746    2.7741   -1.3364 H   0  0  0  0  0  0  0  0  0  0  0  0
   -6.5752    3.3966   -0.2268 H   0  0  0  0  0  0  0  0  0  0  0  0
   -8.7924    2.6430    0.5939 H   0  0  0  0  0  0  0  0  0  0  0  0
   -9.1928    0.2130    1.0241 H   0  0  0  0  0  0  0  0  0  0  0  0
   -7.4681   -1.4201    0.6585 H   0  0  0  0  0  0  0  0  0  0  0  0
   -5.2637   -0.6999   -0.1540 H   0  0  0  0  0  0  0  0  0  0  0  0
    4.7765   -0.7754   -1.6509 H   0  0  0  0  0  0  0  0  0  0  0  0
    3.0701   -0.2952   -1.8045 H   0  0  0  0  0  0  0  0  0  0  0  0
    6.9459   -0.4327    0.9259 H   0  0  0  0  0  0  0  0  0  0  0  0
    8.6880    0.3083   -0.9879 H   0  0  0  0  0  0  0  0  0  0  0  0
    3.9129    3.3852    0.1003 H   0  0  0  0  0  0  0  0  0  0  0  0
  1  2  1  0
  2  3  1  0
  3  4  1  0
  3  5  1  0
  5  6  1  0
  6  7  1  0
  7  8  1  0
  8  9  1  0
  9 10  2  0
 10 11  1  0
 11 12  2  0
 12 13  1  0
 13 14  2  0
 11 15  1  0
 15 16  1  0
 16 17  1  0
 17 18  1  0
 18 19  2  0
 19 20  1  0
 20 21  2  0
 21 22  1  0
 22 23  2  0
  5 24  1  0
 24 25  1  0
 25 26  1  0
 26 27  2  0
 26 28  1  0
 28 29  1  0
 29 30  2  0
 29 31  1  0
 29 32  1  0
 26 33  1  0
  7  2  1  0
 13  8  1  0
 23 18  1  0
  1 34  1  0
  2 35  1  6
  3 36  1  6
  4 37  1  0
  5 38  1  1
  7 39  1  1
  9 40  1  0
 10 41  1  0
 15 42  1  0
 17 43  1  0
 17 44  1  0
 19 45  1  0
 20 46  1  0
 21 47  1  0
 22 48  1  0
 23 49  1  0
 24 50  1  0
 24 51  1  0
 31 52  1  0
 32 53  1  0
 33 54  1  0
M  END
>  <Ligand ID>  (1) 
LIG0002707

>  <Ligand>  (1) 
CHEMBL1084612

>  <SMILES>  (1) 
O[C@@H]1[C@H](O)[C@H](O[C@H]1n1ccc(nc1=O)NOCc1ccccc1)COP(=O)(OP(=O)(O)O)O

>  <CID>  (1) 
46831686.0

>  <ChEMBL ID>  (1) 
nan

>  <InChiKey>  (1) 
YNDKQBMZPIWHEC-NMFUWQPSSA-N

>  <InChi>  (1) 
InChI=1S/C16H21N3O12P2/c20-13-11(9-29-33(26,27)31-32(23,24)25)30-15(14(13)21)19-7-6-12(17-16(19)22)18-28-8-10-4-2-1-3-5-10/h1-7,11,13-15,20-21H,8-9H2,(H,26,27)(H,17,18,22)(H2,23,24,25)/t11-,13-,14-,15-/m1/s1

>  <IUPAC Name>  (1) 
[(2R,3S,4R,5R)-3,4-dihydroxy-5-[2-oxo-4-(phenylmethoxyamino)pyrimidin-1-yl]oxolan-2-yl]methyl phosphono hydrogen phosphate

$$$$
