
     RDKit          3D

 52 54  0  0  0  0  0  0  0  0999 V2000
   -0.7596   -3.5924   -3.0871 C   0  0  0  0  0  0  0  0  0  0  0  0
   -0.7706   -2.5715   -2.1232 O   0  0  0  0  0  0  0  0  0  0  0  0
    0.3823   -1.8460   -1.9059 C   0  0  0  0  0  0  0  0  0  0  0  0
    1.5635   -2.0339   -2.5582 C   0  0  0  0  0  0  0  0  0  0  0  0
    2.7030   -1.2915   -2.3195 C   0  0  0  0  0  0  0  0  0  0  0  0
    2.6163   -0.2944   -1.3474 C   0  0  0  0  0  0  0  0  0  0  0  0
    1.4449   -0.0635   -0.6586 C   0  0  0  0  0  0  0  0  0  0  0  0
    0.3380   -0.8422   -0.9446 C   0  0  0  0  0  0  0  0  0  0  0  0
   -0.8579   -0.5820   -0.2179 N   0  0  0  0  0  0  0  0  0  0  0  0
   -1.8304    0.3525   -0.6793 C   0  0  0  0  0  0  0  0  0  0  0  0
   -1.6943    1.0011   -1.7494 O   0  0  0  0  0  0  0  0  0  0  0  0
   -3.0316    0.5523    0.1406 C   0  0  0  0  0  0  0  0  0  0  0  0
   -4.0743    1.3754   -0.0928 C   0  0  0  0  0  0  0  0  0  0  0  0
   -5.0863    1.4173    0.7821 C   0  0  0  0  0  0  0  0  0  0  0  0
   -4.9849    0.5876    1.8956 C   0  0  0  0  0  0  0  0  0  0  0  0
   -3.3846   -0.2780    1.6751 S   0  0  0  0  0  0  0  0  0  0  0  0
   -5.8909    0.3900    3.0237 C   0  0  0  0  0  0  0  0  0  0  0  0
   -6.3125    2.2969    0.6374 C   0  0  0  0  0  0  0  0  0  0  0  0
   -7.5060    1.5230    0.1957 C   0  0  0  0  0  0  0  0  0  0  0  0
    4.0794    0.6325   -1.0687 S   0  0  0  0  0  0  0  0  0  0  0  0
    3.6566    1.9735   -0.4927 O   0  0  0  0  0  0  0  0  0  0  0  0
    4.8127    0.8824   -2.3286 O   0  0  0  0  0  0  0  0  0  0  0  0
    5.0004   -0.1601    0.1193 N   0  0  0  0  0  0  0  0  0  0  0  0
    4.3875   -0.2942    1.3911 C   0  0  0  0  0  0  0  0  0  0  0  0
    5.0514    0.5827    2.4005 C   0  0  0  0  0  0  0  0  0  0  0  0
    6.3940    0.1976    2.4954 O   0  0  0  0  0  0  0  0  0  0  0  0
    6.9919    0.6796    1.3288 C   0  0  0  0  0  0  0  0  0  0  0  0
    6.3978    0.0972    0.0925 C   0  0  0  0  0  0  0  0  0  0  0  0
   -1.8148   -3.8314   -3.4034 H   0  0  0  0  0  0  0  0  0  0  0  0
   -0.3886   -4.5561   -2.6758 H   0  0  0  0  0  0  0  0  0  0  0  0
   -0.2205   -3.3542   -4.0124 H   0  0  0  0  0  0  0  0  0  0  0  0
    1.6166   -2.8078   -3.3070 H   0  0  0  0  0  0  0  0  0  0  0  0
    3.6094   -1.4875   -2.8687 H   0  0  0  0  0  0  0  0  0  0  0  0
    1.4037    0.7194    0.0920 H   0  0  0  0  0  0  0  0  0  0  0  0
   -1.0165   -1.0894    0.6678 H   0  0  0  0  0  0  0  0  0  0  0  0
   -4.0801    2.0143   -1.0178 H   0  0  0  0  0  0  0  0  0  0  0  0
   -5.3520    0.1579    3.9770 H   0  0  0  0  0  0  0  0  0  0  0  0
   -6.4206    1.3215    3.2023 H   0  0  0  0  0  0  0  0  0  0  0  0
   -6.5757   -0.4409    2.7972 H   0  0  0  0  0  0  0  0  0  0  0  0
   -6.1095    3.1105   -0.0869 H   0  0  0  0  0  0  0  0  0  0  0  0
   -6.5515    2.7961    1.5871 H   0  0  0  0  0  0  0  0  0  0  0  0
   -8.1092    1.1889    1.0684 H   0  0  0  0  0  0  0  0  0  0  0  0
   -8.1855    2.1456   -0.4135 H   0  0  0  0  0  0  0  0  0  0  0  0
   -7.2722    0.6164   -0.3962 H   0  0  0  0  0  0  0  0  0  0  0  0
    4.4517   -1.3812    1.6693 H   0  0  0  0  0  0  0  0  0  0  0  0
    3.2996   -0.0966    1.3015 H   0  0  0  0  0  0  0  0  0  0  0  0
    4.5431    0.4764    3.4013 H   0  0  0  0  0  0  0  0  0  0  0  0
    4.9478    1.6273    2.0952 H   0  0  0  0  0  0  0  0  0  0  0  0
    7.0292    1.7816    1.3259 H   0  0  0  0  0  0  0  0  0  0  0  0
    8.0563    0.3364    1.3909 H   0  0  0  0  0  0  0  0  0  0  0  0
    6.9404   -0.8011   -0.2761 H   0  0  0  0  0  0  0  0  0  0  0  0
    6.5631    0.8618   -0.7220 H   0  0  0  0  0  0  0  0  0  0  0  0
  1  2  1  0
  2  3  1  0
  3  4  2  0
  4  5  1  0
  5  6  2  0
  6  7  1  0
  7  8  2  0
  8  9  1  0
  9 10  1  0
 10 11  2  0
 10 12  1  0
 12 13  2  0
 13 14  1  0
 14 15  2  0
 15 16  1  0
 15 17  1  0
 14 18  1  0
 18 19  1  0
  6 20  1  0
 20 21  2  0
 20 22  2  0
 20 23  1  0
 23 24  1  0
 24 25  1  0
 25 26  1  0
 26 27  1  0
 27 28  1  0
  8  3  1  0
 16 12  1  0
 28 23  1  0
  1 29  1  0
  1 30  1  0
  1 31  1  0
  4 32  1  0
  5 33  1  0
  7 34  1  0
  9 35  1  0
 13 36  1  0
 17 37  1  0
 17 38  1  0
 17 39  1  0
 18 40  1  0
 18 41  1  0
 19 42  1  0
 19 43  1  0
 19 44  1  0
 24 45  1  0
 24 46  1  0
 25 47  1  0
 25 48  1  0
 27 49  1  0
 27 50  1  0
 28 51  1  0
 28 52  1  0
M  END
>  <Ligand ID>  (1) 
LIG0001751

>  <Ligand>  (1) 
MLS-0435544.0001

>  <SMILES>  (1) 
COc1ccc(cc1NC(=O)c1cc(c(s1)C)CC)S(=O)(=O)N1CCOCC1

>  <CID>  (1) 
26848739.0

>  <ChEMBL ID>  (1) 
nan

>  <InChiKey>  (1) 
YHYFBIDRNOUKBC-UHFFFAOYSA-N

>  <InChi>  (1) 
InChI=1S/C19H24N2O5S2/c1-4-14-11-18(27-13(14)2)19(22)20-16-12-15(5-6-17(16)25-3)28(23,24)21-7-9-26-10-8-21/h5-6,11-12H,4,7-10H2,1-3H3,(H,20,22)

>  <IUPAC Name>  (1) 
4-ethyl-N-(2-methoxy-5-morpholin-4-ylsulfonylphenyl)-5-methylthiophene-2-carboxamide

$$$$
