
     RDKit          3D

 66 69  0  0  0  0  0  0  0  0999 V2000
    4.4115    2.0564   -0.3477 C   0  0  0  0  0  0  0  0  0  0  0  0
    3.5208    0.8662   -0.4330 C   0  0  0  0  0  0  0  0  0  0  0  0
    3.3248    0.1176    0.6121 N   0  0  0  0  0  0  0  0  0  0  0  0
    3.9101    0.3676    1.8313 O   0  0  0  0  0  0  0  0  0  0  0  0
    4.8653   -0.5101    2.4013 C   0  0  0  0  0  0  0  0  0  0  0  0
    6.0177   -0.6046    1.4661 C   0  0  0  0  0  0  0  0  0  0  0  0
    7.1068    0.2421    1.5245 C   0  0  0  0  0  0  0  0  0  0  0  0
    8.1374    0.0802    0.6100 C   0  0  0  0  0  0  0  0  0  0  0  0
    8.0971   -0.9125   -0.3600 C   0  0  0  0  0  0  0  0  0  0  0  0
    6.9967   -1.7710   -0.4220 C   0  0  0  0  0  0  0  0  0  0  0  0
    5.9657   -1.5944    0.5075 C   0  0  0  0  0  0  0  0  0  0  0  0
    2.8574    0.5369   -1.7210 C   0  0  2  0  0  0  0  0  0  0  0  0
    1.9501    1.6185   -2.2213 C   0  0  0  0  0  0  0  0  0  0  0  0
    0.6310    1.7029   -1.5402 C   0  0  0  0  0  0  0  0  0  0  0  0
    0.1502    0.4248   -0.9696 C   0  0  0  0  0  0  0  0  0  0  0  0
    0.8665   -0.7474   -0.9826 C   0  0  0  0  0  0  0  0  0  0  0  0
    2.2047   -0.7944   -1.5910 C   0  0  0  0  0  0  0  0  0  0  0  0
    0.3565   -1.9019   -0.4316 C   0  0  0  0  0  0  0  0  0  0  0  0
   -0.9068   -1.8849    0.1497 C   0  0  0  0  0  0  0  0  0  0  0  0
   -1.6522   -0.7053    0.1741 C   0  0  0  0  0  0  0  0  0  0  0  0
   -1.1039    0.4274   -0.3887 C   0  0  0  0  0  0  0  0  0  0  0  0
   -2.9790   -0.7650    0.8058 C   0  0  1  0  0  0  0  0  0  0  0  0
   -3.1857    0.2474    1.9088 C   0  0  0  0  0  0  0  0  0  0  0  0
   -4.6934    0.3981    1.8748 C   0  0  0  0  0  0  0  0  0  0  0  0
   -5.0198    0.5082    0.4257 C   0  0  2  0  0  0  0  0  0  0  0  0
   -4.0120   -0.3824   -0.2452 C   0  0  0  0  0  0  0  0  0  0  0  0
   -4.8773    1.8969    0.0257 N   0  0  0  0  0  0  0  0  0  0  0  0
   -6.4029   -0.0219    0.0958 C   0  0  0  0  0  0  0  0  0  0  0  0
   -6.5693    0.0890   -1.2797 O   0  0  0  0  0  0  0  0  0  0  0  0
   -8.0836   -0.4634   -1.7804 P   0  0  0  0  0  0  0  0  0  0  0  0
   -8.2897    0.0050   -3.2041 O   0  0  0  0  0  0  0  0  0  0  0  0
   -9.3432    0.1423   -0.8513 O   0  0  0  0  0  0  0  0  0  0  0  0
   -8.1532   -2.1546   -1.7858 O   0  0  0  0  0  0  0  0  0  0  0  0
    3.9404    2.9585   -0.7488 H   0  0  0  0  0  0  0  0  0  0  0  0
    5.3255    1.8911   -0.9639 H   0  0  0  0  0  0  0  0  0  0  0  0
    4.6789    2.1978    0.7104 H   0  0  0  0  0  0  0  0  0  0  0  0
    5.2309   -0.0540    3.3375 H   0  0  0  0  0  0  0  0  0  0  0  0
    4.4425   -1.5239    2.5906 H   0  0  0  0  0  0  0  0  0  0  0  0
    7.1157    1.0098    2.2913 H   0  0  0  0  0  0  0  0  0  0  0  0
    8.9727    0.7634    0.6888 H   0  0  0  0  0  0  0  0  0  0  0  0
    8.9205   -1.0220   -1.0704 H   0  0  0  0  0  0  0  0  0  0  0  0
    6.9363   -2.5536   -1.1659 H   0  0  0  0  0  0  0  0  0  0  0  0
    5.1217   -2.2762    0.4367 H   0  0  0  0  0  0  0  0  0  0  0  0
    3.7101    0.4211   -2.4537 H   0  0  0  0  0  0  0  0  0  0  0  0
    1.8191    1.5317   -3.3383 H   0  0  0  0  0  0  0  0  0  0  0  0
    2.4609    2.5941   -2.0890 H   0  0  0  0  0  0  0  0  0  0  0  0
    0.6652    2.4561   -0.7259 H   0  0  0  0  0  0  0  0  0  0  0  0
   -0.1257    2.0261   -2.3101 H   0  0  0  0  0  0  0  0  0  0  0  0
    2.8728   -1.4289   -0.9498 H   0  0  0  0  0  0  0  0  0  0  0  0
    2.1934   -1.3006   -2.5889 H   0  0  0  0  0  0  0  0  0  0  0  0
    0.9286   -2.8181   -0.4477 H   0  0  0  0  0  0  0  0  0  0  0  0
   -1.2767   -2.8109    0.5736 H   0  0  0  0  0  0  0  0  0  0  0  0
   -1.6822    1.3238   -0.3643 H   0  0  0  0  0  0  0  0  0  0  0  0
   -3.1346   -1.7861    1.1817 H   0  0  0  0  0  0  0  0  0  0  0  0
   -2.9312   -0.1900    2.8887 H   0  0  0  0  0  0  0  0  0  0  0  0
   -2.6791    1.2021    1.7406 H   0  0  0  0  0  0  0  0  0  0  0  0
   -5.0524    1.2260    2.5112 H   0  0  0  0  0  0  0  0  0  0  0  0
   -5.1597   -0.5237    2.2739 H   0  0  0  0  0  0  0  0  0  0  0  0
   -4.4758   -1.3176   -0.5661 H   0  0  0  0  0  0  0  0  0  0  0  0
   -3.5732    0.2025   -1.0849 H   0  0  0  0  0  0  0  0  0  0  0  0
   -5.0973    2.5222    0.8373 H   0  0  0  0  0  0  0  0  0  0  0  0
   -3.9323    2.1401   -0.2920 H   0  0  0  0  0  0  0  0  0  0  0  0
   -7.1265    0.6765    0.5867 H   0  0  0  0  0  0  0  0  0  0  0  0
   -6.4743   -1.0499    0.4610 H   0  0  0  0  0  0  0  0  0  0  0  0
   -9.7204   -0.5363   -0.2202 H   0  0  0  0  0  0  0  0  0  0  0  0
   -8.9921   -2.4649   -1.3243 H   0  0  0  0  0  0  0  0  0  0  0  0
  1  2  1  0
  2  3  2  0
  3  4  1  0
  4  5  1  0
  5  6  1  0
  6  7  2  0
  7  8  1  0
  8  9  2  0
  9 10  1  0
 10 11  2  0
  2 12  1  0
 12 13  1  0
 13 14  1  0
 14 15  1  0
 15 16  2  0
 16 17  1  0
 16 18  1  0
 18 19  2  0
 19 20  1  0
 20 21  2  0
 20 22  1  0
 22 23  1  0
 23 24  1  0
 24 25  1  0
 25 26  1  0
 25 27  1  6
 25 28  1  0
 28 29  1  0
 29 30  1  0
 30 31  2  0
 30 32  1  0
 30 33  1  0
 11  6  1  0
 17 12  1  0
 26 22  1  0
 21 15  1  0
  1 34  1  0
  1 35  1  0
  1 36  1  0
  5 37  1  0
  5 38  1  0
  7 39  1  0
  8 40  1  0
  9 41  1  0
 10 42  1  0
 11 43  1  0
 12 44  1  6
 13 45  1  0
 13 46  1  0
 14 47  1  0
 14 48  1  0
 17 49  1  0
 17 50  1  0
 18 51  1  0
 19 52  1  0
 21 53  1  0
 22 54  1  1
 23 55  1  0
 23 56  1  0
 24 57  1  0
 24 58  1  0
 26 59  1  0
 26 60  1  0
 27 61  1  0
 27 62  1  0
 28 63  1  0
 28 64  1  0
 32 65  1  0
 33 66  1  0
M  END
>  <Ligand ID>  (1) 
LIG0005580

>  <Ligand>  (1) 
BDBM65355

>  <SMILES>  (1) 
C/C(=N\OCc1ccccc1)/[C@@H]1CCc2c(C1)ccc(c2)[C@H]1CC[C@](C1)(N)COP(=O)(O)O

>  <CID>  (1) 
131953785.0

>  <ChEMBL ID>  (1) 
nan

>  <InChiKey>  (1) 
YYPMHHOUBXBAJT-VJTFBVKHSA-N

>  <InChi>  (1) 
InChI=1S/C25H33N2O5P/c1-18(27-31-16-19-5-3-2-4-6-19)20-7-8-22-14-23(10-9-21(22)13-20)24-11-12-25(26,15-24)17-32-33(28,29)30/h2-6,9-10,14,20,24H,7-8,11-13,15-17,26H2,1H3,(H2,28,29,30)/b27-18+/t20-,24+,25-/m1/s1

>  <IUPAC Name>  (1) 
[(1R,3S)-1-amino-3-[(6R)-6-[(E)-C-methyl-N-phenylmethoxycarbonimidoyl]-5,6,7,8-tetrahydronaphthalen-2-yl]cyclopentyl]methyl dihydrogen phosphate

$$$$
