
     RDKit          3D

 60 66  0  0  0  0  0  0  0  0999 V2000
    3.4072   -0.9361    2.7022 C   0  0  0  0  0  0  0  0  0  0  0  0
    2.7853   -1.7117    1.5594 C   0  0  0  0  0  0  0  0  0  0  0  0
    2.2241   -0.8281    0.5413 N   0  0  0  0  0  0  0  0  0  0  0  0
    2.9303   -0.3793   -0.5115 C   0  0  0  0  0  0  0  0  0  0  0  0
    4.2985   -0.5342   -1.0219 C   0  0  0  0  0  0  0  0  0  0  0  0
    4.8903    0.6686   -1.6662 C   0  0  0  0  0  0  0  0  0  0  0  0
    3.8985    1.7397   -1.9967 C   0  0  0  0  0  0  0  0  0  0  0  0
    2.6128    1.0454   -2.4676 C   0  0  0  0  0  0  0  0  0  0  0  0
    2.0575    0.4138   -1.2260 C   0  0  0  0  0  0  0  0  0  0  0  0
    0.8176    0.4434   -0.6004 C   0  0  0  0  0  0  0  0  0  0  0  0
    0.9667   -0.3511    0.5075 C   0  0  0  0  0  0  0  0  0  0  0  0
   -0.1449   -0.5630    1.4321 C   0  0  2  0  0  0  0  0  0  0  0  0
   -0.4354   -1.9720    1.3962 O   0  0  0  0  0  0  0  0  0  0  0  0
   -1.2650   -2.2137    0.3307 C   0  0  0  0  0  0  0  0  0  0  0  0
   -1.8891   -1.0343    0.0161 C   0  0  0  0  0  0  0  0  0  0  0  0
   -1.4383    0.0362    0.9448 C   0  0  2  0  0  0  0  0  0  0  0  0
   -1.3338    1.2746    0.1387 C   0  0  2  0  0  0  0  0  0  0  0  0
   -0.3954    1.1500   -1.0094 C   0  0  0  0  0  0  0  0  0  0  0  0
   -0.9272    2.3891    0.8722 O   0  0  0  0  0  0  0  0  0  0  0  0
   -2.7466    1.5788   -0.3593 C   0  0  0  0  0  0  0  0  0  0  0  0
   -3.3571    0.5184   -1.1980 C   0  0  0  0  0  0  0  0  0  0  0  0
   -2.7868   -0.8261   -0.9736 C   0  0  0  0  0  0  0  0  0  0  0  0
   -3.1225   -1.9251   -1.7654 C   0  0  0  0  0  0  0  0  0  0  0  0
   -2.5233   -3.1558   -1.4971 C   0  0  0  0  0  0  0  0  0  0  0  0
   -1.6030   -3.3089   -0.4625 C   0  0  0  0  0  0  0  0  0  0  0  0
   -1.0031   -4.5296   -0.1903 O   0  0  0  0  0  0  0  0  0  0  0  0
   -3.6052    1.8002    0.7830 N   0  0  0  0  0  0  0  0  0  0  0  0
   -3.7250    0.6088    1.6004 C   0  0  0  0  0  0  0  0  0  0  0  0
   -2.3951    0.1245    2.0844 C   0  0  0  0  0  0  0  0  0  0  0  0
   -3.3041    2.9649    1.5489 C   0  0  0  0  0  0  0  0  0  0  0  0
    4.2728   -0.3727    2.3240 H   0  0  0  0  0  0  0  0  0  0  0  0
    2.6993   -0.2262    3.1610 H   0  0  0  0  0  0  0  0  0  0  0  0
    3.6681   -1.6798    3.4750 H   0  0  0  0  0  0  0  0  0  0  0  0
    3.5878   -2.3602    1.1437 H   0  0  0  0  0  0  0  0  0  0  0  0
    2.0049   -2.3817    1.9683 H   0  0  0  0  0  0  0  0  0  0  0  0
    4.2900   -1.4072   -1.7333 H   0  0  0  0  0  0  0  0  0  0  0  0
    4.9621   -0.8952   -0.1831 H   0  0  0  0  0  0  0  0  0  0  0  0
    5.3729    0.3821   -2.6406 H   0  0  0  0  0  0  0  0  0  0  0  0
    5.7000    1.0663   -1.0165 H   0  0  0  0  0  0  0  0  0  0  0  0
    4.3004    2.3961   -2.7903 H   0  0  0  0  0  0  0  0  0  0  0  0
    3.6959    2.3243   -1.0756 H   0  0  0  0  0  0  0  0  0  0  0  0
    2.9710    0.2156   -3.1114 H   0  0  0  0  0  0  0  0  0  0  0  0
    1.9163    1.7409   -2.9444 H   0  0  0  0  0  0  0  0  0  0  0  0
    0.0130   -0.2078    2.4561 H   0  0  0  0  0  0  0  0  0  0  0  0
   -0.9007    0.5125   -1.7955 H   0  0  0  0  0  0  0  0  0  0  0  0
   -0.1966    2.1105   -1.5264 H   0  0  0  0  0  0  0  0  0  0  0  0
   -0.6499    3.0751    0.2065 H   0  0  0  0  0  0  0  0  0  0  0  0
   -2.6998    2.5200   -0.9253 H   0  0  0  0  0  0  0  0  0  0  0  0
   -4.4595    0.4818   -1.0082 H   0  0  0  0  0  0  0  0  0  0  0  0
   -3.2543    0.7815   -2.2913 H   0  0  0  0  0  0  0  0  0  0  0  0
   -3.8401   -1.8077   -2.5732 H   0  0  0  0  0  0  0  0  0  0  0  0
   -2.7584   -4.0325   -2.0897 H   0  0  0  0  0  0  0  0  0  0  0  0
   -0.7079   -5.1455   -0.9560 H   0  0  0  0  0  0  0  0  0  0  0  0
   -4.3059   -0.1828    1.1183 H   0  0  0  0  0  0  0  0  0  0  0  0
   -4.3225    0.9307    2.4984 H   0  0  0  0  0  0  0  0  0  0  0  0
   -1.9934    0.7478    2.9109 H   0  0  0  0  0  0  0  0  0  0  0  0
   -2.5259   -0.9225    2.4703 H   0  0  0  0  0  0  0  0  0  0  0  0
   -2.6742    2.7000    2.4476 H   0  0  0  0  0  0  0  0  0  0  0  0
   -2.8114    3.7657    1.0029 H   0  0  0  0  0  0  0  0  0  0  0  0
   -4.2424    3.3831    1.9658 H   0  0  0  0  0  0  0  0  0  0  0  0
  1  2  1  0
  2  3  1  0
  3  4  1  0
  4  5  1  0
  5  6  1  0
  6  7  1  0
  7  8  1  0
  8  9  1  0
  9 10  1  0
 10 11  2  0
 11 12  1  0
 12 13  1  0
 13 14  1  0
 14 15  2  0
 15 16  1  0
 16 17  1  0
 17 18  1  0
 17 19  1  1
 17 20  1  0
 20 21  1  0
 21 22  1  0
 22 23  2  0
 23 24  1  0
 24 25  2  0
 25 26  1  0
 20 27  1  0
 27 28  1  0
 28 29  1  0
 27 30  1  0
 11  3  1  0
 16 12  1  0
  9  4  2  0
 18 10  1  0
 25 14  1  0
 22 15  1  0
 16 29  1  1
  1 31  1  0
  1 32  1  0
  1 33  1  0
  2 34  1  0
  2 35  1  0
  5 36  1  0
  5 37  1  0
  6 38  1  0
  6 39  1  0
  7 40  1  0
  7 41  1  0
  8 42  1  0
  8 43  1  0
 12 44  1  1
 18 45  1  0
 18 46  1  0
 19 47  1  0
 20 48  1  0
 21 49  1  0
 21 50  1  0
 23 51  1  0
 24 52  1  0
 26 53  1  0
 28 54  1  0
 28 55  1  0
 29 56  1  0
 29 57  1  0
 30 58  1  0
 30 59  1  0
 30 60  1  0
M  END
>  <Ligand ID>  (1) 
LIG0004398

>  <Ligand>  (1) 
CHEMBL222704

>  <SMILES>  (1) 
CCn1c2CCCCc2c2c1[C@@H]1Oc3c4[C@@]51[C@](C2)(O)C(Cc4ccc3O)N(CC5)C

>  <CID>  (1) 
44421408.0

>  <ChEMBL ID>  (1) 
nan

>  <InChiKey>  (1) 
JILRUXVVISWBOM-DYZJZLFBSA-N

>  <InChi>  (1) 
InChI=1S/C25H30N2O3/c1-3-27-17-7-5-4-6-15(17)16-13-25(29)19-12-14-8-9-18(28)22-20(14)24(25,10-11-26(19)2)23(30-22)21(16)27/h8-9,19,23,28-29H,3-7,10-13H2,1-2H3/t19?,23-,24-,25+/m0/s1

>  <IUPAC Name>  (1) 
(1S,2S,13R)-11-ethyl-22-methyl-14-oxa-11,22-diazaheptacyclo[13.9.1.01,13.02,21.04,12.05,10.019,25]pentacosa-4(12),5(10),15,17,19(25)-pentaene-2,16-diol

$$$$
