
     RDKit          3D

 23 22  0  0  0  0  0  0  0  0999 V2000
   -3.6618    0.0626    0.8372 O   0  0  0  0  0  0  0  0  0  0  0  0
   -2.9176   -0.0625   -0.3280 C   0  0  0  0  0  0  0  0  0  0  0  0
   -3.4997   -0.5312   -1.3405 O   0  0  0  0  0  0  0  0  0  0  0  0
   -1.4770    0.3356   -0.4100 C   0  0  2  0  0  0  0  0  0  0  0  0
   -0.6367   -0.8426   -0.8253 C   0  0  0  0  0  0  0  0  0  0  0  0
    0.8255   -0.5555   -0.9401 C   0  0  0  0  0  0  0  0  0  0  0  0
    1.6075    0.0067    0.5688 P   0  0  0  0  0  0  0  0  0  0  0  0
    1.0073   -0.6790    1.7817 O   0  0  0  0  0  0  0  0  0  0  0  0
    1.4365    1.6855    0.6846 O   0  0  0  0  0  0  0  0  0  0  0  0
    3.3858   -0.3488    0.4842 C   0  0  0  0  0  0  0  0  0  0  0  0
   -1.1105    0.8269    0.8940 N   0  0  0  0  0  0  0  0  0  0  0  0
   -4.6595    0.1325    0.8720 H   0  0  0  0  0  0  0  0  0  0  0  0
   -1.3478    1.1837   -1.1131 H   0  0  0  0  0  0  0  0  0  0  0  0
   -0.9702   -1.2040   -1.8193 H   0  0  0  0  0  0  0  0  0  0  0  0
   -0.7753   -1.6870   -0.1355 H   0  0  0  0  0  0  0  0  0  0  0  0
    1.3205   -1.4977   -1.2629 H   0  0  0  0  0  0  0  0  0  0  0  0
    1.0115    0.1611   -1.7702 H   0  0  0  0  0  0  0  0  0  0  0  0
    2.0614    2.0820    0.0447 H   0  0  0  0  0  0  0  0  0  0  0  0
    3.8825    0.5085   -0.0095 H   0  0  0  0  0  0  0  0  0  0  0  0
    3.8010   -0.4765    1.4967 H   0  0  0  0  0  0  0  0  0  0  0  0
    3.5671   -1.2532   -0.1270 H   0  0  0  0  0  0  0  0  0  0  0  0
   -1.5584    0.2967    1.6707 H   0  0  0  0  0  0  0  0  0  0  0  0
   -1.2921    1.8560    0.9545 H   0  0  0  0  0  0  0  0  0  0  0  0
  1  2  1  0
  2  3  2  0
  2  4  1  0
  4  5  1  0
  5  6  1  0
  6  7  1  0
  7  8  2  0
  7  9  1  0
  7 10  1  0
  4 11  1  0
  1 12  1  0
  4 13  1  6
  5 14  1  0
  5 15  1  0
  6 16  1  0
  6 17  1  0
  9 18  1  0
 10 19  1  0
 10 20  1  0
 10 21  1  0
 11 22  1  0
 11 23  1  0
M  END
>  <Ligand ID>  (1) 
LIG0002021

>  <Ligand>  (1) 
L-PHOSPHINOTHRICIN

>  <SMILES>  (1) 
OC(=O)[C@H](CCP(=O)(O)C)N

>  <CID>  (1) 
91619.0

>  <ChEMBL ID>  (1) 
nan

>  <InChiKey>  (1) 
IAJOBQBIJHVGMQ-BYPYZUCNSA-N

>  <InChi>  (1) 
InChI=1S/C5H12NO4P/c1-11(9,10)3-2-4(6)5(7)8/h4H,2-3,6H2,1H3,(H,7,8)(H,9,10)/t4-/m0/s1

>  <IUPAC Name>  (1) 
(2S)-2-amino-4-[hydroxy(methyl)phosphoryl]butanoic acid

$$$$
