
     RDKit          3D

142146  0  0  0  0  0  0  0  0999 V2000
   -2.6850   -3.7751    5.2654 N   0  0  0  0  0  0  0  0  0  0  0  0
   -3.8615   -4.0288    4.4711 C   0  0  0  0  0  0  0  0  0  0  0  0
   -3.4339   -4.6108    3.1464 C   0  0  0  0  0  0  0  0  0  0  0  0
   -2.5147   -3.6621    2.4205 C   0  0  0  0  0  0  0  0  0  0  0  0
   -3.2162   -2.3650    2.1620 C   0  0  0  0  0  0  0  0  0  0  0  0
   -2.3865   -1.3302    1.4465 C   0  0  1  0  0  0  0  0  0  0  0  0
   -1.9719   -1.7982    0.1505 N   0  0  0  0  0  0  0  0  0  0  0  0
   -0.5828   -1.7308   -0.1517 C   0  0  0  0  0  0  0  0  0  0  0  0
    0.1653   -1.3991    0.7897 O   0  0  0  0  0  0  0  0  0  0  0  0
    0.0951   -2.0111   -1.4451 C   0  0  1  0  0  0  0  0  0  0  0  0
    1.5322   -1.9180   -1.1634 N   0  0  0  0  0  0  0  0  0  0  0  0
    2.3446   -0.8045   -1.5548 C   0  0  0  0  0  0  0  0  0  0  0  0
    1.8591    0.0219   -2.2808 O   0  0  0  0  0  0  0  0  0  0  0  0
    3.7452   -0.8341   -0.9660 C   0  0  1  0  0  0  0  0  0  0  0  0
    4.5613   -1.7934   -1.7105 C   0  0  0  0  0  0  0  0  0  0  0  0
    5.9783   -1.9922   -1.3099 C   0  0  0  0  0  0  0  0  0  0  0  0
    6.1717   -2.5158    0.0692 C   0  0  0  0  0  0  0  0  0  0  0  0
    5.6258   -1.6125    1.0399 N   0  0  0  0  0  0  0  0  0  0  0  0
    6.2704   -1.3255    2.1162 C   0  0  0  0  0  0  0  0  0  0  0  0
    7.5476   -1.8622    2.4332 N   0  0  0  0  0  0  0  0  0  0  0  0
    5.6587   -0.4106    3.0413 N   0  0  0  0  0  0  0  0  0  0  0  0
    4.2492    0.5242   -0.9746 N   0  0  0  0  0  0  0  0  0  0  0  0
    3.4206    1.5243   -0.3792 C   0  0  0  0  0  0  0  0  0  0  0  0
    2.2541    1.1424   -0.1348 O   0  0  0  0  0  0  0  0  0  0  0  0
    3.7694    2.9075   -0.0464 C   0  0  2  0  0  0  0  0  0  0  0  0
    2.5574    3.6677    0.1665 N   0  0  0  0  0  0  0  0  0  0  0  0
    1.5493    3.4558    1.1384 C   0  0  0  0  0  0  0  0  0  0  0  0
    1.6711    2.4442    1.8392 O   0  0  0  0  0  0  0  0  0  0  0  0
    0.3963    4.4254    1.2769 C   0  0  2  0  0  0  0  0  0  0  0  0
   -0.9153    3.9061    1.2355 N   0  0  0  0  0  0  0  0  0  0  0  0
   -1.5025    2.6999    1.6550 C   0  0  0  0  0  0  0  0  0  0  0  0
   -0.7394    1.8381    2.0978 O   0  0  0  0  0  0  0  0  0  0  0  0
   -2.9694    2.4694    1.5582 C   0  0  1  0  0  0  0  0  0  0  0  0
   -3.2398    1.1331    0.9233 N   0  0  0  0  0  0  0  0  0  0  0  0
   -2.8031    0.0318    1.6295 C   0  0  0  0  0  0  0  0  0  0  0  0
   -2.8068    0.3829    2.8968 O   0  0  0  0  0  0  0  0  0  0  0  0
   -4.0044    1.2638   -0.2165 C   0  0  0  0  0  0  0  0  0  0  0  0
   -4.1034    2.5731   -0.5264 O   0  0  0  0  0  0  0  0  0  0  0  0
   -4.7113    0.4492   -1.1323 C   0  0  1  0  0  0  0  0  0  0  0  0
   -4.7128   -0.9778   -1.0882 N   0  0  0  0  0  0  0  0  0  0  0  0
   -4.6131   -1.7025   -2.3435 C   0  0  0  0  0  0  0  0  0  0  0  0
   -4.5246   -1.1044   -3.4441 O   0  0  0  0  0  0  0  0  0  0  0  0
   -4.6166   -3.2120   -2.3288 C   0  0  0  0  0  0  0  0  0  0  0  0
   -6.2009    0.8801   -1.2857 C   0  0  0  0  0  0  0  0  0  0  0  0
   -6.3242    2.2657   -1.7936 C   0  0  0  0  0  0  0  0  0  0  0  0
   -7.8719    2.4798   -1.9427 C   0  0  0  0  0  0  0  0  0  0  0  0
   -8.3712    1.4419   -2.9191 C   0  0  0  0  0  0  0  0  0  0  0  0
   -3.6100    2.6935    2.8731 C   0  0  0  0  0  0  0  0  0  0  0  0
   -5.0702    2.4742    2.9097 C   0  0  0  0  0  0  0  0  0  0  0  0
   -5.7854    2.1135    1.9661 O   0  0  0  0  0  0  0  0  0  0  0  0
   -5.6982    2.7012    4.1410 O   0  0  0  0  0  0  0  0  0  0  0  0
    0.6105    5.6778    0.5150 C   0  0  0  0  0  0  0  0  0  0  0  0
    1.8443    6.3466    0.9995 C   0  0  0  0  0  0  0  0  0  0  0  0
    2.7005    5.9685    1.9664 N   0  0  0  0  0  0  0  0  0  0  0  0
    3.6543    6.8917    2.0206 C   0  0  0  0  0  0  0  0  0  0  0  0
    3.4480    7.8671    1.1148 N   0  0  0  0  0  0  0  0  0  0  0  0
    2.2972    7.5365    0.4540 C   0  0  0  0  0  0  0  0  0  0  0  0
    4.8972    3.5871   -0.6144 C   0  0  0  0  0  0  0  0  0  0  0  0
    5.0838    3.8578   -2.0216 C   0  0  0  0  0  0  0  0  0  0  0  0
    4.4394    4.9850   -2.5507 C   0  0  0  0  0  0  0  0  0  0  0  0
    4.5955    5.3475   -3.8728 C   0  0  0  0  0  0  0  0  0  0  0  0
    5.3869    4.6322   -4.7452 C   0  0  0  0  0  0  0  0  0  0  0  0
    6.0231    3.5223   -4.2276 C   0  0  0  0  0  0  0  0  0  0  0  0
    5.8687    3.1588   -2.9094 C   0  0  0  0  0  0  0  0  0  0  0  0
   -0.3695   -3.1916   -2.1559 C   0  0  0  0  0  0  0  0  0  0  0  0
   -0.2638   -4.5161   -1.5307 C   0  0  0  0  0  0  0  0  0  0  0  0
   -1.3465   -5.1722   -0.9596 C   0  0  0  0  0  0  0  0  0  0  0  0
   -0.9676   -6.3638   -0.4683 N   0  0  0  0  0  0  0  0  0  0  0  0
    0.3449   -6.5160   -0.6989 C   0  0  0  0  0  0  0  0  0  0  0  0
    0.7964   -5.3704   -1.3619 C   0  0  0  0  0  0  0  0  0  0  0  0
    2.1230   -5.2888   -1.7306 C   0  0  0  0  0  0  0  0  0  0  0  0
    3.0260   -6.2954   -1.4690 C   0  0  0  0  0  0  0  0  0  0  0  0
    2.5587   -7.4263   -0.8071 C   0  0  0  0  0  0  0  0  0  0  0  0
    1.2305   -7.5512   -0.4178 C   0  0  0  0  0  0  0  0  0  0  0  0
   -2.8426   -3.9691    6.2645 H   0  0  0  0  0  0  0  0  0  0  0  0
   -1.8318   -4.2126    4.8990 H   0  0  0  0  0  0  0  0  0  0  0  0
   -4.5002   -3.1438    4.3314 H   0  0  0  0  0  0  0  0  0  0  0  0
   -4.5171   -4.7818    4.9971 H   0  0  0  0  0  0  0  0  0  0  0  0
   -4.3697   -4.7584    2.5458 H   0  0  0  0  0  0  0  0  0  0  0  0
   -2.9861   -5.6199    3.2630 H   0  0  0  0  0  0  0  0  0  0  0  0
   -1.5605   -3.5289    2.9748 H   0  0  0  0  0  0  0  0  0  0  0  0
   -2.3252   -4.1237    1.4308 H   0  0  0  0  0  0  0  0  0  0  0  0
   -3.4282   -1.8931    3.1905 H   0  0  0  0  0  0  0  0  0  0  0  0
   -4.2272   -2.5229    1.7630 H   0  0  0  0  0  0  0  0  0  0  0  0
   -1.4015   -1.3604    2.1235 H   0  0  0  0  0  0  0  0  0  0  0  0
   -2.5235   -2.2176   -0.5876 H   0  0  0  0  0  0  0  0  0  0  0  0
   -0.0894   -1.0537   -2.0487 H   0  0  0  0  0  0  0  0  0  0  0  0
    2.0003   -2.6632   -0.6653 H   0  0  0  0  0  0  0  0  0  0  0  0
    3.5744   -1.1331    0.1086 H   0  0  0  0  0  0  0  0  0  0  0  0
    4.0693   -2.8129   -1.5757 H   0  0  0  0  0  0  0  0  0  0  0  0
    4.5037   -1.6566   -2.8282 H   0  0  0  0  0  0  0  0  0  0  0  0
    6.3889   -2.7885   -2.0070 H   0  0  0  0  0  0  0  0  0  0  0  0
    6.6240   -1.1066   -1.5211 H   0  0  0  0  0  0  0  0  0  0  0  0
    7.2792   -2.6319    0.2974 H   0  0  0  0  0  0  0  0  0  0  0  0
    5.7497   -3.5575    0.1854 H   0  0  0  0  0  0  0  0  0  0  0  0
    7.8239   -2.8566    2.2506 H   0  0  0  0  0  0  0  0  0  0  0  0
    8.2257   -1.1877    2.8793 H   0  0  0  0  0  0  0  0  0  0  0  0
    5.7488   -0.6642    4.0434 H   0  0  0  0  0  0  0  0  0  0  0  0
    5.1608    0.4493    2.7044 H   0  0  0  0  0  0  0  0  0  0  0  0
    5.1308    0.8444   -1.3529 H   0  0  0  0  0  0  0  0  0  0  0  0
    4.0836    2.7743    1.0869 H   0  0  0  0  0  0  0  0  0  0  0  0
    2.3902    4.4623   -0.4673 H   0  0  0  0  0  0  0  0  0  0  0  0
    0.5427    4.6684    2.4151 H   0  0  0  0  0  0  0  0  0  0  0  0
   -1.6431    4.5656    0.7914 H   0  0  0  0  0  0  0  0  0  0  0  0
   -3.3361    3.2946    0.9003 H   0  0  0  0  0  0  0  0  0  0  0  0
   -4.3399    0.6772   -2.1581 H   0  0  0  0  0  0  0  0  0  0  0  0
   -4.7862   -1.5727   -0.2473 H   0  0  0  0  0  0  0  0  0  0  0  0
   -5.6512   -3.5457   -2.5474 H   0  0  0  0  0  0  0  0  0  0  0  0
   -3.8583   -3.6355   -3.0078 H   0  0  0  0  0  0  0  0  0  0  0  0
   -4.3951   -3.5412   -1.2904 H   0  0  0  0  0  0  0  0  0  0  0  0
   -6.7176    0.7299   -0.3122 H   0  0  0  0  0  0  0  0  0  0  0  0
   -6.5959    0.2115   -2.0748 H   0  0  0  0  0  0  0  0  0  0  0  0
   -6.0575    3.0780   -1.0763 H   0  0  0  0  0  0  0  0  0  0  0  0
   -5.8896    2.3721   -2.7874 H   0  0  0  0  0  0  0  0  0  0  0  0
   -8.0828    3.5038   -2.2506 H   0  0  0  0  0  0  0  0  0  0  0  0
   -8.2684    2.2172   -0.9422 H   0  0  0  0  0  0  0  0  0  0  0  0
   -9.3057    1.7867   -3.4380 H   0  0  0  0  0  0  0  0  0  0  0  0
   -8.7075    0.5185   -2.3745 H   0  0  0  0  0  0  0  0  0  0  0  0
   -7.6084    1.1315   -3.6428 H   0  0  0  0  0  0  0  0  0  0  0  0
   -3.0661    2.3508    3.7742 H   0  0  0  0  0  0  0  0  0  0  0  0
   -3.5531    3.8423    3.0533 H   0  0  0  0  0  0  0  0  0  0  0  0
   -6.5016    2.1324    4.4524 H   0  0  0  0  0  0  0  0  0  0  0  0
    0.6716    5.5094   -0.5895 H   0  0  0  0  0  0  0  0  0  0  0  0
   -0.2729    6.3431    0.7161 H   0  0  0  0  0  0  0  0  0  0  0  0
    2.6325    5.1166    2.5664 H   0  0  0  0  0  0  0  0  0  0  0  0
    4.5209    6.9196    2.6867 H   0  0  0  0  0  0  0  0  0  0  0  0
    1.8860    8.1454   -0.3338 H   0  0  0  0  0  0  0  0  0  0  0  0
    5.1570    4.4771    0.0354 H   0  0  0  0  0  0  0  0  0  0  0  0
    5.8038    2.9162   -0.3539 H   0  0  0  0  0  0  0  0  0  0  0  0
    3.8024    5.6072   -1.9550 H   0  0  0  0  0  0  0  0  0  0  0  0
    4.0757    6.2319   -4.2403 H   0  0  0  0  0  0  0  0  0  0  0  0
    5.4737    4.9615   -5.7553 H   0  0  0  0  0  0  0  0  0  0  0  0
    6.6703    2.9199   -4.8821 H   0  0  0  0  0  0  0  0  0  0  0  0
    6.4144    2.2900   -2.5798 H   0  0  0  0  0  0  0  0  0  0  0  0
    0.1857   -3.1976   -3.1634 H   0  0  0  0  0  0  0  0  0  0  0  0
   -1.4418   -3.0410   -2.5380 H   0  0  0  0  0  0  0  0  0  0  0  0
   -2.3773   -4.7760   -0.9095 H   0  0  0  0  0  0  0  0  0  0  0  0
   -1.6285   -7.0168    0.0021 H   0  0  0  0  0  0  0  0  0  0  0  0
    2.4295   -4.3861   -2.2500 H   0  0  0  0  0  0  0  0  0  0  0  0
    4.0613   -6.2265   -1.7599 H   0  0  0  0  0  0  0  0  0  0  0  0
    3.2036   -8.2651   -0.5650 H   0  0  0  0  0  0  0  0  0  0  0  0
    0.8456   -8.4211    0.0968 H   0  0  0  0  0  0  0  0  0  0  0  0
  1  2  1  0
  2  3  1  0
  3  4  1  0
  4  5  1  0
  5  6  1  0
  6  7  1  0
  7  8  1  0
  8  9  2  0
  8 10  1  0
 10 11  1  0
 11 12  1  0
 12 13  2  0
 12 14  1  0
 14 15  1  0
 15 16  1  0
 16 17  1  0
 17 18  1  0
 18 19  2  3
 19 20  1  0
 19 21  1  0
 14 22  1  0
 22 23  1  0
 23 24  2  0
 23 25  1  0
 25 26  1  0
 26 27  1  0
 27 28  2  0
 27 29  1  0
 29 30  1  0
 30 31  1  0
 31 32  2  0
 31 33  1  0
 33 34  1  0
 34 35  1  0
 35 36  2  0
 34 37  1  0
 37 38  2  0
 37 39  1  0
 39 40  1  0
 40 41  1  0
 41 42  2  0
 41 43  1  0
 39 44  1  0
 44 45  1  0
 45 46  1  0
 46 47  1  0
 33 48  1  0
 48 49  1  0
 49 50  2  0
 49 51  1  0
 29 52  1  0
 52 53  1  0
 53 54  1  0
 54 55  1  0
 55 56  2  0
 56 57  1  0
 25 58  1  0
 58 59  1  0
 59 60  2  0
 60 61  1  0
 61 62  2  0
 62 63  1  0
 63 64  2  0
 10 65  1  0
 65 66  1  0
 66 67  2  0
 67 68  1  0
 68 69  1  0
 69 70  2  0
 70 71  1  0
 71 72  2  0
 72 73  1  0
 73 74  2  0
 35  6  1  0
 57 53  2  0
 64 59  1  0
 70 66  1  0
 74 69  1  0
  1 75  1  0
  1 76  1  0
  2 77  1  0
  2 78  1  0
  3 79  1  0
  3 80  1  0
  4 81  1  0
  4 82  1  0
  5 83  1  0
  5 84  1  0
  6 85  1  1
  7 86  1  0
 10 87  1  6
 11 88  1  0
 14 89  1  1
 15 90  1  0
 15 91  1  0
 16 92  1  0
 16 93  1  0
 17 94  1  0
 17 95  1  0
 20 96  1  0
 20 97  1  0
 21 98  1  0
 21 99  1  0
 22100  1  0
 25101  1  1
 26102  1  0
 29103  1  1
 30104  1  0
 33105  1  6
 39106  1  6
 40107  1  0
 43108  1  0
 43109  1  0
 43110  1  0
 44111  1  0
 44112  1  0
 45113  1  0
 45114  1  0
 46115  1  0
 46116  1  0
 47117  1  0
 47118  1  0
 47119  1  0
 48120  1  0
 48121  1  0
 51122  1  0
 52123  1  0
 52124  1  0
 54125  1  0
 55126  1  0
 57127  1  0
 58128  1  0
 58129  1  0
 60130  1  0
 61131  1  0
 62132  1  0
 63133  1  0
 64134  1  0
 65135  1  0
 65136  1  0
 67137  1  0
 68138  1  0
 71139  1  0
 72140  1  0
 73141  1  0
 74142  1  0
M  END
>  <Ligand ID>  (1) 
LIG0001798

>  <Ligand>  (1) 
CHEMBL2371851

>  <SMILES>  (1) 
NCCCC[C@H]1NC(=O)[C@@H](NC(=O)[C@@H](CCCN=C(N)N)NC(=O)[C@H](NC(=O)[C@H](NC(=O)[C@@H](N(C1=O)C(=O)[C@@H](NC(=O)C)CCCC)CC(=O)O)Cc1[nH]cnc1)Cc1ccccc1)Cc1c[nH]c2c1cccc2

>  <CID>  (1) 
73354700.0

>  <ChEMBL ID>  (1) 
nan

>  <InChiKey>  (1) 
ULUABNVCTYCFOE-XMFIOMENSA-N

>  <InChi>  (1) 
InChI=1S/C50H68N14O10/c1-3-4-16-36(58-29(2)65)48(73)64-41(25-42(66)67)47(72)63-40(24-32-27-54-28-57-32)46(71)61-38(22-30-13-6-5-7-14-30)44(69)59-35(19-12-21-55-50(52)53)43(68)62-39(23-31-26-56-34-17-9-8-15-33(31)34)45(70)60-37(49(64)74)18-10-11-20-51/h5-9,13-15,17,26-28,35-41,56H,3-4,10-12,16,18-25,51H2,1-2H3,(H,54,57)(H,58,65)(H,59,69)(H,60,70)(H,61,71)(H,62,68)(H,63,72)(H,66,67)(H4,52,53,55)/t35-,36+,37-,38-,39+,40-,41+/m1/s1

>  <IUPAC Name>  (1) 
2-[(2S,5R,8R,11R,14S,17R)-1-[(2S)-2-acetamidohexanoyl]-17-(4-aminobutyl)-8-benzyl-11-[3-(diaminomethylideneamino)propyl]-5-(1H-imidazol-5-ylmethyl)-14-(1H-indol-3-ylmethyl)-3,6,9,12,15,18-hexaoxo-1,4,7,10,13,16-hexazacyclooctadec-2-yl]acetic acid

$$$$
