
     RDKit          3D

 44 46  0  0  0  0  0  0  0  0999 V2000
    3.3781   -3.1264    1.8980 F   0  0  0  0  0  0  0  0  0  0  0  0
    2.6820   -2.2117    2.6353 C   0  0  0  0  0  0  0  0  0  0  0  0
    1.7815   -1.3441    1.8084 C   0  0  0  0  0  0  0  0  0  0  0  0
    2.4622   -0.5894    0.8336 O   0  0  0  0  0  0  0  0  0  0  0  0
    1.6981    0.2502    0.0132 C   0  0  0  0  0  0  0  0  0  0  0  0
    0.3548    0.3322    0.1501 N   0  0  0  0  0  0  0  0  0  0  0  0
   -0.4191    1.1166   -0.6061 C   0  0  0  0  0  0  0  0  0  0  0  0
    0.2101    1.8757   -1.5746 C   0  0  0  0  0  0  0  0  0  0  0  0
    1.5564    1.8406   -1.7665 N   0  0  0  0  0  0  0  0  0  0  0  0
    2.3129    1.0246   -0.9714 C   0  0  0  0  0  0  0  0  0  0  0  0
    3.7162    0.9658   -1.1596 N   0  0  0  0  0  0  0  0  0  0  0  0
    4.8699    1.1711   -0.2910 C   0  0  0  0  0  0  0  0  0  0  0  0
    5.7919    1.2698   -1.4767 C   0  0  0  0  0  0  0  0  0  0  0  0
    4.6357    0.6985   -2.2466 C   0  0  0  0  0  0  0  0  0  0  0  0
    6.8749    0.4243   -1.3212 F   0  0  0  0  0  0  0  0  0  0  0  0
    6.1244    2.5791   -1.7381 F   0  0  0  0  0  0  0  0  0  0  0  0
   -1.8677    1.2328   -0.4766 C   0  0  0  0  0  0  0  0  0  0  0  0
   -2.2812    2.4548   -0.4708 O   0  0  0  0  0  0  0  0  0  0  0  0
   -2.7499    0.1376   -0.3694 N   0  0  0  0  0  0  0  0  0  0  0  0
   -2.2579   -1.2523   -0.3862 C   0  0  0  0  0  0  0  0  0  0  0  0
   -3.0553   -1.8167    0.7670 C   0  0  0  0  0  0  0  0  0  0  0  0
   -4.4393   -1.2950    0.4720 C   0  0  0  0  0  0  0  0  0  0  0  0
   -4.1693    0.0125   -0.2429 C   0  0  1  0  0  0  0  0  0  0  0  0
   -4.8980    1.1323    0.3436 C   0  0  0  0  0  0  0  0  0  0  0  0
   -4.4182    2.1770    0.8381 O   0  0  0  0  0  0  0  0  0  0  0  0
   -6.3297    1.0374    0.3613 N   0  0  0  0  0  0  0  0  0  0  0  0
   -2.5851   -1.2664    1.9392 F   0  0  0  0  0  0  0  0  0  0  0  0
   -3.0211   -3.2000    0.7890 F   0  0  0  0  0  0  0  0  0  0  0  0
    1.8757   -2.9039    3.5159 F   0  0  0  0  0  0  0  0  0  0  0  0
    3.3835   -1.6290    3.2678 H   0  0  0  0  0  0  0  0  0  0  0  0
    1.1649   -0.7101    2.4880 H   0  0  0  0  0  0  0  0  0  0  0  0
    1.0790   -2.0335    1.2704 H   0  0  0  0  0  0  0  0  0  0  0  0
   -0.3985    2.5344   -2.2159 H   0  0  0  0  0  0  0  0  0  0  0  0
    4.7374    2.1314    0.2562 H   0  0  0  0  0  0  0  0  0  0  0  0
    5.0638    0.2896    0.3596 H   0  0  0  0  0  0  0  0  0  0  0  0
    4.7799   -0.3555   -2.5035 H   0  0  0  0  0  0  0  0  0  0  0  0
    4.4499    1.3597   -3.1517 H   0  0  0  0  0  0  0  0  0  0  0  0
   -1.1854   -1.3409   -0.3060 H   0  0  0  0  0  0  0  0  0  0  0  0
   -2.6767   -1.6845   -1.3281 H   0  0  0  0  0  0  0  0  0  0  0  0
   -5.0484   -1.1617    1.3867 H   0  0  0  0  0  0  0  0  0  0  0  0
   -4.9314   -2.0191   -0.2074 H   0  0  0  0  0  0  0  0  0  0  0  0
   -4.5537   -0.1057   -1.3066 H   0  0  0  0  0  0  0  0  0  0  0  0
   -6.8200    0.5434   -0.4304 H   0  0  0  0  0  0  0  0  0  0  0  0
   -6.8770    1.4543    1.1539 H   0  0  0  0  0  0  0  0  0  0  0  0
  1  2  1  0
  2  3  1  0
  3  4  1  0
  4  5  1  0
  5  6  2  0
  6  7  1  0
  7  8  2  0
  8  9  1  0
  9 10  2  0
 10 11  1  0
 11 12  1  0
 12 13  1  0
 13 14  1  0
 13 15  1  0
 13 16  1  0
  7 17  1  0
 17 18  2  0
 17 19  1  0
 19 20  1  0
 20 21  1  0
 21 22  1  0
 22 23  1  0
 23 24  1  0
 24 25  2  0
 24 26  1  0
 21 27  1  0
 21 28  1  0
  2 29  1  0
 10  5  1  0
 14 11  1  0
 23 19  1  0
  2 30  1  0
  3 31  1  0
  3 32  1  0
  8 33  1  0
 12 34  1  0
 12 35  1  0
 14 36  1  0
 14 37  1  0
 20 38  1  0
 20 39  1  0
 22 40  1  0
 22 41  1  0
 23 42  1  6
 26 43  1  0
 26 44  1  0
M  END
>  <Ligand ID>  (1) 
LIG0005724

>  <Ligand>  (1) 
SCHEMBL15782114

>  <SMILES>  (1) 
FC(COc1nc(cnc1N1CC(C1)(F)F)C(=O)N1CC(C[C@H]1C(=O)N)(F)F)F

>  <CID>  (1) 
90208001.0

>  <ChEMBL ID>  (1) 
nan

>  <InChiKey>  (1) 
SRCMSCCVZFTWDG-QMMMGPOBSA-N

>  <InChi>  (1) 
InChI=1S/C15H15F6N5O3/c16-9(17)3-29-12-11(25-4-15(20,21)5-25)23-2-7(24-12)13(28)26-6-14(18,19)1-8(26)10(22)27/h2,8-9H,1,3-6H2,(H2,22,27)/t8-/m0/s1

>  <IUPAC Name>  (1) 
(2S)-1-[5-(3,3-difluoroazetidin-1-yl)-6-(2,2-difluoroethoxy)pyrazine-2-carbonyl]-4,4-difluoropyrrolidine-2-carboxamide

$$$$
