
     RDKit          3D

 52 54  0  0  0  0  0  0  0  0999 V2000
   -4.3314    3.9952   -1.2023 C   0  0  0  0  0  0  0  0  0  0  0  0
   -4.7185    3.0726   -0.2254 O   0  0  0  0  0  0  0  0  0  0  0  0
   -4.0204    1.9652    0.1834 C   0  0  0  0  0  0  0  0  0  0  0  0
   -4.5753    1.1741    1.1676 C   0  0  0  0  0  0  0  0  0  0  0  0
   -3.9355    0.0487    1.6288 C   0  0  0  0  0  0  0  0  0  0  0  0
   -2.7013   -0.3516    1.1318 C   0  0  0  0  0  0  0  0  0  0  0  0
   -2.1471    0.4440    0.1446 C   0  0  0  0  0  0  0  0  0  0  0  0
   -2.7939    1.5816   -0.3217 C   0  0  0  0  0  0  0  0  0  0  0  0
   -2.0411   -1.5159    1.6100 N   0  0  0  0  0  0  0  0  0  0  0  0
   -0.7868   -1.9645    1.1376 C   0  0  0  0  0  0  0  0  0  0  0  0
   -0.6509   -2.8580    0.0601 C   0  0  0  0  0  0  0  0  0  0  0  0
   -1.8581   -3.3092   -0.5599 C   0  0  0  0  0  0  0  0  0  0  0  0
   -2.9491   -2.8156   -0.0869 O   0  0  0  0  0  0  0  0  0  0  0  0
   -2.0456   -4.2602   -1.6646 C   0  0  0  0  0  0  0  0  0  0  0  0
    0.6223   -3.1870   -0.2670 C   0  0  0  0  0  0  0  0  0  0  0  0
    0.9239   -4.1079   -1.3830 C   0  0  0  0  0  0  0  0  0  0  0  0
    1.6743   -2.6737    0.4170 N   0  0  0  0  0  0  0  0  0  0  0  0
    1.5599   -1.8356    1.4287 N   0  0  0  0  0  0  0  0  0  0  0  0
    0.3355   -1.4730    1.7990 C   0  0  0  0  0  0  0  0  0  0  0  0
    0.2220   -0.6742    2.7628 O   0  0  0  0  0  0  0  0  0  0  0  0
    2.7235   -1.3213    2.1205 C   0  0  0  0  0  0  0  0  0  0  0  0
    3.2574   -0.0696    1.5549 C   0  0  0  0  0  0  0  0  0  0  0  0
    4.2813    0.4928    2.0683 O   0  0  0  0  0  0  0  0  0  0  0  0
    2.6939    0.5944    0.4260 N   0  0  0  0  0  0  0  0  0  0  0  0
    3.3343    1.7959    0.0084 C   0  0  0  0  0  0  0  0  0  0  0  0
    4.3558    1.6862   -0.9285 C   0  0  0  0  0  0  0  0  0  0  0  0
    5.0287    2.8242   -1.3840 C   0  0  0  0  0  0  0  0  0  0  0  0
    4.6307    4.0465   -0.8615 C   0  0  0  0  0  0  0  0  0  0  0  0
    3.6225    4.1730    0.0655 C   0  0  0  0  0  0  0  0  0  0  0  0
    2.9676    3.0224    0.5031 C   0  0  0  0  0  0  0  0  0  0  0  0
    5.5357    5.6065   -1.4702 Br  0  0  0  0  0  0  0  0  0  0  0  0
   -3.5916    3.6157   -1.9337 H   0  0  0  0  0  0  0  0  0  0  0  0
   -3.9659    4.9370   -0.7561 H   0  0  0  0  0  0  0  0  0  0  0  0
   -5.2445    4.2587   -1.7995 H   0  0  0  0  0  0  0  0  0  0  0  0
   -5.5401    1.4170    1.6110 H   0  0  0  0  0  0  0  0  0  0  0  0
   -4.4001   -0.5585    2.4095 H   0  0  0  0  0  0  0  0  0  0  0  0
   -1.1771    0.1368   -0.2519 H   0  0  0  0  0  0  0  0  0  0  0  0
   -2.3379    2.1888   -1.0968 H   0  0  0  0  0  0  0  0  0  0  0  0
   -2.5179   -2.0682    2.3559 H   0  0  0  0  0  0  0  0  0  0  0  0
   -1.8819   -3.7396   -2.6293 H   0  0  0  0  0  0  0  0  0  0  0  0
   -3.1252   -4.6285   -1.6886 H   0  0  0  0  0  0  0  0  0  0  0  0
   -1.4428   -5.1730   -1.6182 H   0  0  0  0  0  0  0  0  0  0  0  0
    2.0387   -4.0255   -1.6329 H   0  0  0  0  0  0  0  0  0  0  0  0
    0.3982   -3.9119   -2.3162 H   0  0  0  0  0  0  0  0  0  0  0  0
    0.8113   -5.1665   -1.1030 H   0  0  0  0  0  0  0  0  0  0  0  0
    3.5045   -2.1159    2.2055 H   0  0  0  0  0  0  0  0  0  0  0  0
    2.4442   -1.1173    3.1924 H   0  0  0  0  0  0  0  0  0  0  0  0
    1.8579    0.1878   -0.0388 H   0  0  0  0  0  0  0  0  0  0  0  0
    4.6590    0.7136   -1.3321 H   0  0  0  0  0  0  0  0  0  0  0  0
    5.8286    2.7599   -2.1148 H   0  0  0  0  0  0  0  0  0  0  0  0
    3.3070    5.1189    0.4767 H   0  0  0  0  0  0  0  0  0  0  0  0
    2.1613    3.0646    1.2367 H   0  0  0  0  0  0  0  0  0  0  0  0
  1  2  1  0
  2  3  1  0
  3  4  2  0
  4  5  1  0
  5  6  2  0
  6  7  1  0
  7  8  2  0
  6  9  1  0
  9 10  1  0
 10 11  2  0
 11 12  1  0
 12 13  2  0
 12 14  1  0
 11 15  1  0
 15 16  1  0
 15 17  2  0
 17 18  1  0
 18 19  1  0
 19 20  2  0
 18 21  1  0
 21 22  1  0
 22 23  2  0
 22 24  1  0
 24 25  1  0
 25 26  2  0
 26 27  1  0
 27 28  2  0
 28 29  1  0
 29 30  2  0
 28 31  1  0
  8  3  1  0
 19 10  1  0
 30 25  1  0
  1 32  1  0
  1 33  1  0
  1 34  1  0
  4 35  1  0
  5 36  1  0
  7 37  1  0
  8 38  1  0
  9 39  1  0
 14 40  1  0
 14 41  1  0
 14 42  1  0
 16 43  1  0
 16 44  1  0
 16 45  1  0
 21 46  1  0
 21 47  1  0
 24 48  1  0
 26 49  1  0
 27 50  1  0
 29 51  1  0
 30 52  1  0
M  END
>  <Ligand ID>  (1) 
LIG0003959

>  <Ligand>  (1) 
CHEMBL2391447

>  <SMILES>  (1) 
COc1ccc(cc1)Nc1c(C(=O)C)c(C)nn(c1=O)CC(=O)Nc1ccc(cc1)Br

>  <CID>  (1) 
71698365.0

>  <ChEMBL ID>  (1) 
nan

>  <InChiKey>  (1) 
VRBJPKODQPKKFN-UHFFFAOYSA-N

>  <InChi>  (1) 
InChI=1S/C22H21BrN4O4/c1-13-20(14(2)28)21(25-17-8-10-18(31-3)11-9-17)22(30)27(26-13)12-19(29)24-16-6-4-15(23)5-7-16/h4-11,25H,12H2,1-3H3,(H,24,29)

>  <IUPAC Name>  (1) 
2-[4-acetyl-5-(4-methoxyanilino)-3-methyl-6-oxopyridazin-1-yl]-N-(4-bromophenyl)acetamide

$$$$
