
     RDKit          3D

 64 65  0  0  0  0  0  0  0  0999 V2000
    8.1860    2.3740    1.0138 C   0  0  0  0  0  0  0  0  0  0  0  0
    7.2890    1.1475    1.0874 C   0  0  0  0  0  0  0  0  0  0  0  0
    6.9910    0.7037   -0.3084 C   0  0  0  0  0  0  0  0  0  0  0  0
    6.1172   -0.5178   -0.3060 C   0  0  0  0  0  0  0  0  0  0  0  0
    4.8151   -0.2384    0.3778 C   0  0  0  0  0  0  0  0  0  0  0  0
    3.9018   -1.4481    0.3837 C   0  0  0  0  0  0  0  0  0  0  0  0
    3.5321   -1.9468   -0.9659 C   0  0  0  0  0  0  0  0  0  0  0  0
    2.7629   -0.9479   -1.7696 C   0  0  0  0  0  0  0  0  0  0  0  0
    1.4943   -0.6293   -1.1212 C   0  0  0  0  0  0  0  0  0  0  0  0
    1.2509    0.3850   -0.2362 C   0  0  0  0  0  0  0  0  0  0  0  0
    0.0044    0.6123    0.3411 C   0  0  0  0  0  0  0  0  0  0  0  0
   -1.0587   -0.2123    0.0224 C   0  0  0  0  0  0  0  0  0  0  0  0
   -0.8405   -1.2468   -0.8710 C   0  0  0  0  0  0  0  0  0  0  0  0
    0.3990   -1.4498   -1.4266 C   0  0  0  0  0  0  0  0  0  0  0  0
   -1.9513   -2.1384   -1.2280 C   0  0  0  0  0  0  0  0  0  0  0  0
   -3.2910   -1.4862   -1.3042 C   0  0  0  0  0  0  0  0  0  0  0  0
   -3.4916   -0.2841   -0.4571 C   0  0  2  0  0  0  0  0  0  0  0  0
   -2.4137   -0.0620    0.5729 C   0  0  0  0  0  0  0  0  0  0  0  0
   -4.8386   -0.3262    0.1825 C   0  0  0  0  0  0  0  0  0  0  0  0
   -5.0952    0.8953    1.0694 C   0  0  0  0  0  0  0  0  0  0  0  0
   -6.4334    0.8667    1.4684 O   0  0  0  0  0  0  0  0  0  0  0  0
   -6.8708    2.1412    2.4467 P   0  0  0  0  0  0  0  0  0  0  0  0
   -6.8190    1.6717    3.8951 O   0  0  0  0  0  0  0  0  0  0  0  0
   -5.8688    3.4868    2.3186 O   0  0  0  0  0  0  0  0  0  0  0  0
   -8.4984    2.5591    2.1438 O   0  0  0  0  0  0  0  0  0  0  0  0
   -5.8545   -0.1662   -0.9576 C   0  0  0  0  0  0  0  0  0  0  0  0
   -5.5718    0.9659   -1.7213 O   0  0  0  0  0  0  0  0  0  0  0  0
   -5.1203   -1.4825    0.9694 N   0  0  0  0  0  0  0  0  0  0  0  0
    8.7037    2.3805    0.0464 H   0  0  0  0  0  0  0  0  0  0  0  0
    7.6016    3.3077    1.1806 H   0  0  0  0  0  0  0  0  0  0  0  0
    8.9329    2.2790    1.8316 H   0  0  0  0  0  0  0  0  0  0  0  0
    6.3263    1.4628    1.5734 H   0  0  0  0  0  0  0  0  0  0  0  0
    7.7600    0.3294    1.6338 H   0  0  0  0  0  0  0  0  0  0  0  0
    7.9364    0.4674   -0.8477 H   0  0  0  0  0  0  0  0  0  0  0  0
    6.4949    1.5240   -0.9027 H   0  0  0  0  0  0  0  0  0  0  0  0
    6.6691   -1.3376    0.2008 H   0  0  0  0  0  0  0  0  0  0  0  0
    6.0030   -0.8424   -1.3553 H   0  0  0  0  0  0  0  0  0  0  0  0
    5.0439   -0.0617    1.4700 H   0  0  0  0  0  0  0  0  0  0  0  0
    4.3290    0.6773    0.0121 H   0  0  0  0  0  0  0  0  0  0  0  0
    2.9576   -1.0893    0.8819 H   0  0  0  0  0  0  0  0  0  0  0  0
    4.2904   -2.2569    1.0246 H   0  0  0  0  0  0  0  0  0  0  0  0
    2.9273   -2.8798   -0.8064 H   0  0  0  0  0  0  0  0  0  0  0  0
    4.4323   -2.3282   -1.5317 H   0  0  0  0  0  0  0  0  0  0  0  0
    3.3217    0.0255   -1.8657 H   0  0  0  0  0  0  0  0  0  0  0  0
    2.5413   -1.3381   -2.7976 H   0  0  0  0  0  0  0  0  0  0  0  0
    2.0316    1.0582    0.0453 H   0  0  0  0  0  0  0  0  0  0  0  0
   -0.1576    1.4186    1.0349 H   0  0  0  0  0  0  0  0  0  0  0  0
    0.5159   -2.2746   -2.1207 H   0  0  0  0  0  0  0  0  0  0  0  0
   -1.9617   -2.9790   -0.4740 H   0  0  0  0  0  0  0  0  0  0  0  0
   -1.7201   -2.6339   -2.2082 H   0  0  0  0  0  0  0  0  0  0  0  0
   -4.0312   -2.3093   -1.0783 H   0  0  0  0  0  0  0  0  0  0  0  0
   -3.4963   -1.2563   -2.3837 H   0  0  0  0  0  0  0  0  0  0  0  0
   -3.4803    0.6286   -1.1017 H   0  0  0  0  0  0  0  0  0  0  0  0
   -2.4975    1.0038    0.9154 H   0  0  0  0  0  0  0  0  0  0  0  0
   -2.5758   -0.7155    1.4426 H   0  0  0  0  0  0  0  0  0  0  0  0
   -4.5013    0.8729    2.0025 H   0  0  0  0  0  0  0  0  0  0  0  0
   -4.8119    1.8112    0.5282 H   0  0  0  0  0  0  0  0  0  0  0  0
   -5.9864    3.9684    1.4556 H   0  0  0  0  0  0  0  0  0  0  0  0
   -8.6533    2.3472    1.1842 H   0  0  0  0  0  0  0  0  0  0  0  0
   -5.8200   -1.0288   -1.6416 H   0  0  0  0  0  0  0  0  0  0  0  0
   -6.9006   -0.1559   -0.5472 H   0  0  0  0  0  0  0  0  0  0  0  0
   -4.9907    0.7106   -2.4705 H   0  0  0  0  0  0  0  0  0  0  0  0
   -5.6493   -2.2264    0.4701 H   0  0  0  0  0  0  0  0  0  0  0  0
   -4.3111   -1.7855    1.5169 H   0  0  0  0  0  0  0  0  0  0  0  0
  1  2  1  0
  2  3  1  0
  3  4  1  0
  4  5  1  0
  5  6  1  0
  6  7  1  0
  7  8  1  0
  8  9  1  0
  9 10  2  0
 10 11  1  0
 11 12  2  0
 12 13  1  0
 13 14  2  0
 13 15  1  0
 15 16  1  0
 16 17  1  0
 17 18  1  0
 17 19  1  0
 19 20  1  0
 20 21  1  0
 21 22  1  0
 22 23  2  0
 22 24  1  0
 22 25  1  0
 19 26  1  0
 26 27  1  0
 19 28  1  0
 14  9  1  0
 18 12  1  0
  1 29  1  0
  1 30  1  0
  1 31  1  0
  2 32  1  0
  2 33  1  0
  3 34  1  0
  3 35  1  0
  4 36  1  0
  4 37  1  0
  5 38  1  0
  5 39  1  0
  6 40  1  0
  6 41  1  0
  7 42  1  0
  7 43  1  0
  8 44  1  0
  8 45  1  0
 10 46  1  0
 11 47  1  0
 14 48  1  0
 15 49  1  0
 15 50  1  0
 16 51  1  0
 16 52  1  0
 17 53  1  6
 18 54  1  0
 18 55  1  0
 20 56  1  0
 20 57  1  0
 24 58  1  0
 25 59  1  0
 26 60  1  0
 26 61  1  0
 27 62  1  0
 28 63  1  0
 28 64  1  0
M  END
>  <Ligand ID>  (1) 
LIG0004254

>  <Ligand>  (1) 
CHEMBL1091103

>  <SMILES>  (1) 
CCCCCCCCc1ccc2c(c1)CC[C@H](C2)C(COP(=O)(O)O)(CO)N

>  <CID>  (1) 
25192001.0

>  <ChEMBL ID>  (1) 
nan

>  <InChiKey>  (1) 
ONRNLSDORBCSFL-VQCQRNETSA-N

>  <InChi>  (1) 
InChI=1S/C21H36NO5P/c1-2-3-4-5-6-7-8-17-9-10-19-14-20(12-11-18(19)13-17)21(22,15-23)16-27-28(24,25)26/h9-10,13,20,23H,2-8,11-12,14-16,22H2,1H3,(H2,24,25,26)/t20-,21?/m1/s1

>  <IUPAC Name>  (1) 
[2-amino-3-hydroxy-2-[(2R)-6-octyl-1,2,3,4-tetrahydronaphthalen-2-yl]propyl] dihydrogen phosphate

$$$$
