
     RDKit          3D

 50 52  0  0  0  0  0  0  0  0999 V2000
   -3.1978   -2.8803    0.8432 C   0  0  0  0  0  0  0  0  0  0  0  0
   -4.0729   -1.9048    0.2200 N   0  0  0  0  0  0  0  0  0  0  0  0
   -3.2927   -0.9978   -0.6394 C   0  0  0  0  0  0  0  0  0  0  0  0
   -2.3902   -0.1393    0.2158 C   0  0  0  0  0  0  0  0  0  0  0  0
   -1.6072    0.7972   -0.6445 C   0  0  0  0  0  0  0  0  0  0  0  0
   -0.6960    1.6216    0.0781 N   0  0  0  0  0  0  0  0  0  0  0  0
   -0.9151    2.8787    0.6648 C   0  0  0  0  0  0  0  0  0  0  0  0
    0.1654    3.3842    1.1878 O   0  0  0  0  0  0  0  0  0  0  0  0
   -2.1248    3.6337    0.7553 C   0  0  0  0  0  0  0  0  0  0  0  0
   -3.4199    3.4722    0.4190 C   0  0  0  0  0  0  0  0  0  0  0  0
   -4.3264    4.4285    0.6574 C   0  0  0  0  0  0  0  0  0  0  0  0
   -3.8680    5.5875    1.2666 C   0  0  0  0  0  0  0  0  0  0  0  0
   -2.0541    5.2910    1.5062 S   0  0  0  0  0  0  0  0  0  0  0  0
   -4.7753    7.2090    1.7943 Br  0  0  0  0  0  0  0  0  0  0  0  0
    0.6427    1.0916    0.1905 C   0  0  0  0  0  0  0  0  0  0  0  0
    1.2033    0.1051   -0.1802 N   0  0  0  0  0  0  0  0  0  0  0  0
    2.4511   -0.2464   -0.0078 C   0  0  0  0  0  0  0  0  0  0  0  0
    3.2169    0.6608    0.7053 C   0  0  0  0  0  0  0  0  0  0  0  0
    2.0034    1.9796    1.0666 S   0  0  0  0  0  0  0  0  0  0  0  0
    4.5328    0.5381    1.0116 C   0  0  0  0  0  0  0  0  0  0  0  0
    5.1985   -0.6071    0.5738 C   0  0  0  0  0  0  0  0  0  0  0  0
    4.4581   -1.5417   -0.1475 C   0  0  0  0  0  0  0  0  0  0  0  0
    3.1258   -1.3812   -0.4371 C   0  0  0  0  0  0  0  0  0  0  0  0
    5.1902   -2.6677   -0.5574 O   0  0  0  0  0  0  0  0  0  0  0  0
    6.5526   -2.4100   -0.9311 C   0  0  0  0  0  0  0  0  0  0  0  0
    7.2546   -1.8914    0.2892 C   0  0  0  0  0  0  0  0  0  0  0  0
    6.5320   -0.8237    0.8357 O   0  0  0  0  0  0  0  0  0  0  0  0
   -4.8928   -2.6818   -0.7190 C   0  0  0  0  0  0  0  0  0  0  0  0
    0.6911    0.0000    0.0000 Cl  0  0  0  0  0  0  0  0  0  0  0  0
   -3.0110   -2.6564    1.9185 H   0  0  0  0  0  0  0  0  0  0  0  0
   -2.2242   -2.8382    0.3364 H   0  0  0  0  0  0  0  0  0  0  0  0
   -3.5845   -3.9115    0.8063 H   0  0  0  0  0  0  0  0  0  0  0  0
   -4.0079   -0.4398   -1.2550 H   0  0  0  0  0  0  0  0  0  0  0  0
   -2.6629   -1.6475   -1.2987 H   0  0  0  0  0  0  0  0  0  0  0  0
   -2.9929    0.4089    0.9709 H   0  0  0  0  0  0  0  0  0  0  0  0
   -1.6659   -0.8383    0.6880 H   0  0  0  0  0  0  0  0  0  0  0  0
   -2.2717    1.3727   -1.2931 H   0  0  0  0  0  0  0  0  0  0  0  0
   -1.0277    0.1435   -1.3626 H   0  0  0  0  0  0  0  0  0  0  0  0
   -3.7566    2.5085   -0.0674 H   0  0  0  0  0  0  0  0  0  0  0  0
   -5.4029    4.3589    0.3989 H   0  0  0  0  0  0  0  0  0  0  0  0
    5.0455    1.3140    1.5872 H   0  0  0  0  0  0  0  0  0  0  0  0
    2.6116   -2.1559   -1.0066 H   0  0  0  0  0  0  0  0  0  0  0  0
    6.9282   -3.4186   -1.2516 H   0  0  0  0  0  0  0  0  0  0  0  0
    6.6236   -1.7133   -1.7756 H   0  0  0  0  0  0  0  0  0  0  0  0
    8.2738   -1.5013    0.0552 H   0  0  0  0  0  0  0  0  0  0  0  0
    7.4062   -2.7189    1.0192 H   0  0  0  0  0  0  0  0  0  0  0  0
   -4.1684   -3.1493   -1.4151 H   0  0  0  0  0  0  0  0  0  0  0  0
   -5.6242   -2.0850   -1.2597 H   0  0  0  0  0  0  0  0  0  0  0  0
   -5.3823   -3.5381   -0.1697 H   0  0  0  0  0  0  0  0  0  0  0  0
   -0.6911    0.0000    0.0000 H   0  0  0  0  0  0  0  0  0  0  0  0
  1  2  1  0
  2  3  1  0
  3  4  1  0
  4  5  1  0
  5  6  1  0
  6  7  1  0
  7  8  2  0
  7  9  1  0
  9 10  2  0
 10 11  1  0
 11 12  2  0
 12 13  1  0
 12 14  1  0
  6 15  1  0
 15 16  2  0
 16 17  1  0
 17 18  2  0
 18 19  1  0
 18 20  1  0
 20 21  2  0
 21 22  1  0
 22 23  2  0
 22 24  1  0
 24 25  1  0
 25 26  1  0
 26 27  1  0
  2 28  1  0
 13  9  1  0
 19 15  1  0
 27 21  1  0
 23 17  1  0
  1 30  1  0
  1 31  1  0
  1 32  1  0
  3 33  1  0
  3 34  1  0
  4 35  1  0
  4 36  1  0
  5 37  1  0
  5 38  1  0
 10 39  1  0
 11 40  1  0
 20 41  1  0
 23 42  1  0
 25 43  1  0
 25 44  1  0
 26 45  1  0
 26 46  1  0
 28 47  1  0
 28 48  1  0
 28 49  1  0
 29 50  1  0
M  END
>  <Ligand ID>  (1) 
LIG0004547

>  <Ligand>  (1) 
MLS001239326

>  <SMILES>  (1) 
CN(CCCN(C(=O)c1ccc(s1)Br)c1nc2c(s1)cc1c(c2)OCCO1)C.Cl

>  <CID>  (1) 
24892014.0

>  <ChEMBL ID>  (1) 
nan

>  <InChiKey>  (1) 
OQHFRUNNDSDIEB-UHFFFAOYSA-N

>  <InChi>  (1) 
InChI=1S/C19H20BrN3O3S2.ClH/c1-22(2)6-3-7-23(18(24)15-4-5-17(20)27-15)19-21-12-10-13-14(11-16(12)28-19)26-9-8-25-13;/h4-5,10-11H,3,6-9H2,1-2H3;1H

>  <IUPAC Name>  (1) 
5-bromo-N-(6,7-dihydro-[1,4]dioxino[2,3-f][1,3]benzothiazol-2-yl)-N-[3-(dimethylamino)propyl]thiophene-2-carboxamide;hydrochloride

$$$$
