
     RDKit          3D

 47 50  0  0  0  0  0  0  0  0999 V2000
   10.0452    0.3771    1.0183 N   0  0  0  0  0  0  0  0  0  0  0  0
    8.9048    0.2248    0.8151 C   0  0  0  0  0  0  0  0  0  0  0  0
    7.4989    0.0379    0.5393 C   0  0  0  0  0  0  0  0  0  0  0  0
    7.0045   -1.2068    0.2104 C   0  0  0  0  0  0  0  0  0  0  0  0
    5.6460   -1.3028   -0.0403 C   0  0  0  0  0  0  0  0  0  0  0  0
    4.8270   -0.1969    0.0378 C   0  0  0  0  0  0  0  0  0  0  0  0
    5.3579    1.0482    0.3729 C   0  0  0  0  0  0  0  0  0  0  0  0
    6.7040    1.1620    0.6246 C   0  0  0  0  0  0  0  0  0  0  0  0
    3.3911   -0.2420   -0.2100 C   0  0  0  0  0  0  0  0  0  0  0  0
    2.8237   -1.1294   -1.1166 C   0  0  0  0  0  0  0  0  0  0  0  0
    1.4612   -1.1550   -1.3300 C   0  0  0  0  0  0  0  0  0  0  0  0
    0.5900   -0.2998   -0.6539 C   0  0  0  0  0  0  0  0  0  0  0  0
    1.1920    0.5710    0.2418 C   0  0  0  0  0  0  0  0  0  0  0  0
    2.5370    0.6065    0.4619 C   0  0  0  0  0  0  0  0  0  0  0  0
    0.1649    1.3100    0.7873 C   0  0  0  0  0  0  0  0  0  0  0  0
   -1.0102    0.8431    0.1877 C   0  0  0  0  0  0  0  0  0  0  0  0
   -0.7048   -0.1076   -0.6561 O   0  0  0  0  0  0  0  0  0  0  0  0
   -2.3311    1.4222    0.5435 C   0  0  0  0  0  0  0  0  0  0  0  0
   -3.4788    0.8177   -0.1759 C   0  0  0  0  0  0  0  0  0  0  0  0
   -3.6897   -0.5825    0.0091 N   0  0  0  0  0  0  0  0  0  0  0  0
   -4.1102   -0.9722    1.3247 C   0  0  0  0  0  0  0  0  0  0  0  0
   -5.3839   -0.1861    1.5077 C   0  0  0  0  0  0  0  0  0  0  0  0
   -5.9773   -0.2572    0.1117 C   0  0  0  0  0  0  0  0  0  0  0  0
   -4.9118   -0.8992   -0.7478 C   0  0  1  0  0  0  0  0  0  0  0  0
   -4.8821   -0.3109   -2.1388 C   0  0  0  0  0  0  0  0  0  0  0  0
    7.6619   -2.0772    0.1499 H   0  0  0  0  0  0  0  0  0  0  0  0
    5.1965   -2.2475   -0.3025 H   0  0  0  0  0  0  0  0  0  0  0  0
    4.7643    1.9381    0.4470 H   0  0  0  0  0  0  0  0  0  0  0  0
    7.1395    2.1328    0.8877 H   0  0  0  0  0  0  0  0  0  0  0  0
    3.5186   -1.7808   -1.6283 H   0  0  0  0  0  0  0  0  0  0  0  0
    1.0665   -1.8606   -2.0455 H   0  0  0  0  0  0  0  0  0  0  0  0
    2.9657    1.3085    1.1778 H   0  0  0  0  0  0  0  0  0  0  0  0
    0.2540    2.0983    1.5318 H   0  0  0  0  0  0  0  0  0  0  0  0
   -2.4112    1.4648    1.6267 H   0  0  0  0  0  0  0  0  0  0  0  0
   -2.2722    2.4940    0.2083 H   0  0  0  0  0  0  0  0  0  0  0  0
   -4.3951    1.4097   -0.0038 H   0  0  0  0  0  0  0  0  0  0  0  0
   -3.2668    0.9512   -1.2769 H   0  0  0  0  0  0  0  0  0  0  0  0
   -3.3666   -0.7923    2.1124 H   0  0  0  0  0  0  0  0  0  0  0  0
   -4.3907   -2.0434    1.2696 H   0  0  0  0  0  0  0  0  0  0  0  0
   -6.0537   -0.6720    2.2571 H   0  0  0  0  0  0  0  0  0  0  0  0
   -5.1037    0.8378    1.8174 H   0  0  0  0  0  0  0  0  0  0  0  0
   -6.8835   -0.8899    0.1415 H   0  0  0  0  0  0  0  0  0  0  0  0
   -6.3186    0.7311   -0.2643 H   0  0  0  0  0  0  0  0  0  0  0  0
   -5.0658   -1.9744   -0.8223 H   0  0  0  0  0  0  0  0  0  0  0  0
   -5.0981    0.7708   -2.1655 H   0  0  0  0  0  0  0  0  0  0  0  0
   -3.9235   -0.5641   -2.5915 H   0  0  0  0  0  0  0  0  0  0  0  0
   -5.6860   -0.8072   -2.7138 H   0  0  0  0  0  0  0  0  0  0  0  0
  1  2  3  0
  2  3  1  0
  3  4  2  0
  4  5  1  0
  5  6  2  0
  6  7  1  0
  7  8  2  0
  6  9  1  0
  9 10  2  0
 10 11  1  0
 11 12  2  0
 12 13  1  0
 13 14  2  0
 13 15  1  0
 15 16  2  0
 16 17  1  0
 16 18  1  0
 18 19  1  0
 19 20  1  0
 20 21  1  0
 21 22  1  0
 22 23  1  0
 23 24  1  0
 24 25  1  0
  8  3  1  0
 14  9  1  0
 24 20  1  0
 17 12  1  0
  4 26  1  0
  5 27  1  0
  7 28  1  0
  8 29  1  0
 10 30  1  0
 11 31  1  0
 14 32  1  0
 15 33  1  0
 18 34  1  0
 18 35  1  0
 19 36  1  0
 19 37  1  0
 21 38  1  0
 21 39  1  0
 22 40  1  0
 22 41  1  0
 23 42  1  0
 23 43  1  0
 24 44  1  6
 25 45  1  0
 25 46  1  0
 25 47  1  0
M  END
>  <Ligand ID>  (1) 
LIG0005248

>  <Ligand>  (1) 
ABT-239

>  <SMILES>  (1) 
N#Cc1ccc(cc1)c1ccc2c(c1)cc(o2)CCN1CCC[C@H]1C

>  <CID>  (1) 
9818903.0

>  <ChEMBL ID>  (1) 
nan

>  <InChiKey>  (1) 
KFHYZKCRXNRKRC-MRXNPFEDSA-N

>  <InChi>  (1) 
InChI=1S/C22H22N2O/c1-16-3-2-11-24(16)12-10-21-14-20-13-19(8-9-22(20)25-21)18-6-4-17(15-23)5-7-18/h4-9,13-14,16H,2-3,10-12H2,1H3/t16-/m1/s1

>  <IUPAC Name>  (1) 
4-[2-[2-[(2R)-2-methylpyrrolidin-1-yl]ethyl]-1-benzofuran-5-yl]benzonitrile

$$$$
