
     RDKit          3D

 12 12  0  0  0  0  0  0  0  0999 V2000
    2.9221   -0.1445   -0.0053 S   0  0  0  0  0  0  0  0  0  0  0  0
    1.2996   -0.0628   -0.0024 C   0  0  0  0  0  0  0  0  0  0  0  0
    0.5939   -1.2352   -0.0171 C   0  0  0  0  0  0  0  0  0  0  0  0
   -0.7841   -1.1589   -0.0145 C   0  0  0  0  0  0  0  0  0  0  0  0
   -1.4014    0.0755    0.0026 C   0  0  0  0  0  0  0  0  0  0  0  0
   -0.6376    1.2256    0.0170 C   0  0  0  0  0  0  0  0  0  0  0  0
    0.7050    1.1499    0.0144 N   0  0  0  0  0  0  0  0  0  0  0  0
    1.0457   -2.2227   -0.0307 H   0  0  0  0  0  0  0  0  0  0  0  0
   -1.4197   -2.0369   -0.0254 H   0  0  0  0  0  0  0  0  0  0  0  0
   -2.4797    0.1734    0.0052 H   0  0  0  0  0  0  0  0  0  0  0  0
   -1.1244    2.2138    0.0307 H   0  0  0  0  0  0  0  0  0  0  0  0
    1.2806    2.0228    0.0253 H   0  0  0  0  0  0  0  0  0  0  0  0
  1  2  2  0
  2  3  1  0
  3  4  2  0
  4  5  1  0
  5  6  2  0
  6  7  1  0
  7  2  1  0
  3  8  1  0
  4  9  1  0
  5 10  1  0
  6 11  1  0
  7 12  1  0
M  END
>  <Ligand ID>  (1) 
LIG0002104

>  <Ligand>  (1) 
2-Mercaptopyridine

>  <SMILES>  (1) 
S=c1cccc[nH]1

>  <CID>  (1) 
2723698.0

>  <ChEMBL ID>  (1) 
nan

>  <InChiKey>  (1) 
WHMDPDGBKYUEMW-UHFFFAOYSA-N

>  <InChi>  (1) 
InChI=1S/C5H5NS/c7-5-3-1-2-4-6-5/h1-4H,(H,6,7)

>  <IUPAC Name>  (1) 
1H-pyridine-2-thione

$$$$
