
     RDKit          3D

 47 51  0  0  0  0  0  0  0  0999 V2000
   -0.0682   -2.6089    0.7192 O   0  0  0  0  0  0  0  0  0  0  0  0
   -0.3074   -1.3439    0.4370 C   0  0  0  0  0  0  0  0  0  0  0  0
    0.8884   -0.5163    0.3929 C   0  0  0  0  0  0  0  0  0  0  0  0
    0.9124    0.4995   -0.7316 C   0  0  0  0  0  0  0  0  0  0  0  0
    2.2501    1.1685   -0.7581 C   0  0  0  0  0  0  0  0  0  0  0  0
    2.6955    1.7718    0.5318 C   0  0  0  0  0  0  0  0  0  0  0  0
    2.7644    0.6516    1.5759 C   0  0  0  0  0  0  0  0  0  0  0  0
    1.3390    0.1242    1.6541 C   0  0  0  0  0  0  0  0  0  0  0  0
    3.7251   -0.4151    1.1898 C   0  0  0  0  0  0  0  0  0  0  0  0
    3.3266   -0.9406   -0.1744 C   0  0  0  0  0  0  0  0  0  0  0  0
    1.9929   -1.5461   -0.0571 C   0  0  0  0  0  0  0  0  0  0  0  0
    3.3307    0.1799   -1.1736 C   0  0  0  0  0  0  0  0  0  0  0  0
   -1.6608   -1.0873    0.2275 N   0  0  0  0  0  0  0  0  0  0  0  0
   -2.5623   -2.2492   -0.0763 C   0  0  0  0  0  0  0  0  0  0  0  0
   -3.6120   -1.8839   -1.0775 C   0  0  0  0  0  0  0  0  0  0  0  0
   -3.2475   -0.6499   -1.8825 C   0  0  0  0  0  0  0  0  0  0  0  0
   -3.0903    0.4570   -0.8974 C   0  0  0  0  0  0  0  0  0  0  0  0
   -2.2828    0.1793    0.1845 C   0  0  0  0  0  0  0  0  0  0  0  0
   -2.0287    1.0566    1.2066 C   0  0  0  0  0  0  0  0  0  0  0  0
   -2.6258    2.2951    1.1308 C   0  0  0  0  0  0  0  0  0  0  0  0
   -3.4477    2.5973    0.0408 C   0  0  0  0  0  0  0  0  0  0  0  0
   -3.6821    1.6787   -0.9759 C   0  0  0  0  0  0  0  0  0  0  0  0
    0.1341    1.2611   -0.6606 H   0  0  0  0  0  0  0  0  0  0  0  0
    0.8270   -0.0574   -1.7054 H   0  0  0  0  0  0  0  0  0  0  0  0
    2.2487    1.9819   -1.5368 H   0  0  0  0  0  0  0  0  0  0  0  0
    2.0142    2.5523    0.9181 H   0  0  0  0  0  0  0  0  0  0  0  0
    3.7139    2.1490    0.3897 H   0  0  0  0  0  0  0  0  0  0  0  0
    3.0086    1.0860    2.5689 H   0  0  0  0  0  0  0  0  0  0  0  0
    0.7499    1.0910    1.7750 H   0  0  0  0  0  0  0  0  0  0  0  0
    1.1687   -0.4852    2.5492 H   0  0  0  0  0  0  0  0  0  0  0  0
    4.7695   -0.1266    1.2770 H   0  0  0  0  0  0  0  0  0  0  0  0
    3.5746   -1.2654    1.8927 H   0  0  0  0  0  0  0  0  0  0  0  0
    4.0547   -1.7289   -0.4364 H   0  0  0  0  0  0  0  0  0  0  0  0
    1.6546   -1.8958   -1.0482 H   0  0  0  0  0  0  0  0  0  0  0  0
    1.9165   -2.3198    0.7337 H   0  0  0  0  0  0  0  0  0  0  0  0
    3.1942   -0.1540   -2.2008 H   0  0  0  0  0  0  0  0  0  0  0  0
    4.3043    0.7120   -1.0553 H   0  0  0  0  0  0  0  0  0  0  0  0
   -1.9577   -3.0739   -0.4786 H   0  0  0  0  0  0  0  0  0  0  0  0
   -3.0626   -2.5981    0.8471 H   0  0  0  0  0  0  0  0  0  0  0  0
   -3.7723   -2.7391   -1.7652 H   0  0  0  0  0  0  0  0  0  0  0  0
   -4.6091   -1.7094   -0.6019 H   0  0  0  0  0  0  0  0  0  0  0  0
   -2.3570   -0.8277   -2.4953 H   0  0  0  0  0  0  0  0  0  0  0  0
   -4.1263   -0.4581   -2.5579 H   0  0  0  0  0  0  0  0  0  0  0  0
   -1.3979    0.7211    2.0095 H   0  0  0  0  0  0  0  0  0  0  0  0
   -2.4362    3.0001    1.9262 H   0  0  0  0  0  0  0  0  0  0  0  0
   -3.9115    3.5799   -0.0041 H   0  0  0  0  0  0  0  0  0  0  0  0
   -4.3122    1.8869   -1.8269 H   0  0  0  0  0  0  0  0  0  0  0  0
  1  2  2  0
  2  3  1  0
  3  4  1  0
  4  5  1  0
  5  6  1  0
  6  7  1  0
  7  8  1  0
  7  9  1  0
  9 10  1  0
 10 11  1  0
 10 12  1  0
  2 13  1  0
 13 14  1  0
 14 15  1  0
 15 16  1  0
 16 17  1  0
 17 18  2  0
 18 19  1  0
 19 20  2  0
 20 21  1  0
 21 22  2  0
 11  3  1  0
 18 13  1  0
  8  3  1  0
 22 17  1  0
 12  5  1  0
  4 23  1  0
  4 24  1  0
  5 25  1  0
  6 26  1  0
  6 27  1  0
  7 28  1  0
  8 29  1  0
  8 30  1  0
  9 31  1  0
  9 32  1  0
 10 33  1  0
 11 34  1  0
 11 35  1  0
 12 36  1  0
 12 37  1  0
 14 38  1  0
 14 39  1  0
 15 40  1  0
 15 41  1  0
 16 42  1  0
 16 43  1  0
 19 44  1  0
 20 45  1  0
 21 46  1  0
 22 47  1  0
M  END
>  <Ligand ID>  (1) 
LIG0003021

>  <Ligand>  (1) 
CHEMBL246952

>  <SMILES>  (1) 
O=C(C12CC3CC(C2)CC(C1)C3)N1CCCc2c1cccc2

>  <CID>  (1) 
2851184.0

>  <ChEMBL ID>  (1) 
nan

>  <InChiKey>  (1) 
KDDFVDYZIBZTGJ-UHFFFAOYSA-N

>  <InChi>  (1) 
InChI=1S/C20H25NO/c22-19(21-7-3-5-17-4-1-2-6-18(17)21)20-11-14-8-15(12-20)10-16(9-14)13-20/h1-2,4,6,14-16H,3,5,7-13H2

>  <IUPAC Name>  (1) 
1-adamantyl(3,4-dihydro-2H-quinolin-1-yl)methanone

$$$$
