
     RDKit          3D

 37 39  0  0  0  0  0  0  0  0999 V2000
    1.2797    0.8138   -0.5721 O   0  0  0  0  0  0  0  0  0  0  0  0
    1.6218   -0.2943   -0.0971 C   0  0  0  0  0  0  0  0  0  0  0  0
    0.7224   -1.3160    0.4044 C   0  0  0  0  0  0  0  0  0  0  0  0
    1.2379   -2.5890    0.5340 C   0  0  0  0  0  0  0  0  0  0  0  0
    0.4211   -3.5882    0.9451 C   0  0  0  0  0  0  0  0  0  0  0  0
   -0.8966   -3.4159    1.2431 C   0  0  0  0  0  0  0  0  0  0  0  0
   -1.3898   -2.1223    1.1034 C   0  0  0  0  0  0  0  0  0  0  0  0
   -0.6362   -1.0419    0.6938 C   0  0  0  0  0  0  0  0  0  0  0  0
   -1.0145    0.2810    0.5865 N   0  0  0  0  0  0  0  0  0  0  0  0
   -1.3892    1.5912    0.4802 C   0  0  0  0  0  0  0  0  0  0  0  0
   -2.5862    1.7793   -0.4625 C   0  0  0  0  0  0  0  0  0  0  0  0
   -2.6270    2.4451   -1.5546 N   0  0  0  0  0  0  0  0  0  0  0  0
   -3.9646    2.3539   -2.1226 C   0  0  0  0  0  0  0  0  0  0  0  0
   -4.7246    1.3413   -1.2860 C   0  0  0  0  0  0  0  0  0  0  0  0
   -3.8200    1.1751   -0.1507 N   0  0  0  0  0  0  0  0  0  0  0  0
    3.0443   -0.4982   -0.0721 N   0  0  0  0  0  0  0  0  0  0  0  0
    3.9770    0.5085   -0.5641 C   0  0  0  0  0  0  0  0  0  0  0  0
    4.8756    1.1535    0.4480 C   0  0  0  0  0  0  0  0  0  0  0  0
    5.4167    0.1177   -0.5506 C   0  0  0  0  0  0  0  0  0  0  0  0
    2.2709   -2.8502    0.3154 H   0  0  0  0  0  0  0  0  0  0  0  0
    0.8290   -4.5774    1.0467 H   0  0  0  0  0  0  0  0  0  0  0  0
   -1.5493   -4.2153    1.5744 H   0  0  0  0  0  0  0  0  0  0  0  0
   -2.4615   -2.0386    1.3570 H   0  0  0  0  0  0  0  0  0  0  0  0
   -2.2555   -0.0154    0.9735 H   0  0  0  0  0  0  0  0  0  0  0  0
   -0.6049    2.2823    0.1124 H   0  0  0  0  0  0  0  0  0  0  0  0
   -1.7415    2.0360    1.4765 H   0  0  0  0  0  0  0  0  0  0  0  0
   -4.4579    3.3366   -2.0784 H   0  0  0  0  0  0  0  0  0  0  0  0
   -3.9152    2.0435   -3.1734 H   0  0  0  0  0  0  0  0  0  0  0  0
   -4.8826    0.3894   -1.7947 H   0  0  0  0  0  0  0  0  0  0  0  0
   -5.6919    1.7800   -0.9538 H   0  0  0  0  0  0  0  0  0  0  0  0
   -4.1281    0.6632    0.7270 H   0  0  0  0  0  0  0  0  0  0  0  0
    3.4677   -1.3707    0.2955 H   0  0  0  0  0  0  0  0  0  0  0  0
    3.6312    1.2215   -1.3275 H   0  0  0  0  0  0  0  0  0  0  0  0
    5.2043    2.1733    0.2824 H   0  0  0  0  0  0  0  0  0  0  0  0
    4.8968    0.8372    1.4977 H   0  0  0  0  0  0  0  0  0  0  0  0
    5.7094   -0.8694   -0.0914 H   0  0  0  0  0  0  0  0  0  0  0  0
    6.1314    0.4794   -1.3083 H   0  0  0  0  0  0  0  0  0  0  0  0
  1  2  2  0
  2  3  1  0
  3  4  2  0
  4  5  1  0
  5  6  2  0
  6  7  1  0
  7  8  2  0
  8  9  1  0
  9 10  1  0
 10 11  1  0
 11 12  2  0
 12 13  1  0
 13 14  1  0
 14 15  1  0
  2 16  1  0
 16 17  1  0
 17 18  1  0
 18 19  1  0
  8  3  1  0
 15 11  1  0
 19 17  1  0
  4 20  1  0
  5 21  1  0
  6 22  1  0
  7 23  1  0
  9 24  1  0
 10 25  1  0
 10 26  1  0
 13 27  1  0
 13 28  1  0
 14 29  1  0
 14 30  1  0
 15 31  1  0
 16 32  1  0
 17 33  1  0
 18 34  1  0
 18 35  1  0
 19 36  1  0
 19 37  1  0
M  END
>  <Ligand ID>  (1) 
LIG0002971

>  <Ligand>  (1) 
CHEMBL97044

>  <SMILES>  (1) 
O=C(c1ccccc1NCC1=NCCN1)NC1CC1

>  <CID>  (1) 
10199052.0

>  <ChEMBL ID>  (1) 
nan

>  <InChiKey>  (1) 
RGGYMFBJVPVXKH-UHFFFAOYSA-N

>  <InChi>  (1) 
InChI=1S/C14H18N4O/c19-14(18-10-5-6-10)11-3-1-2-4-12(11)17-9-13-15-7-8-16-13/h1-4,10,17H,5-9H2,(H,15,16)(H,18,19)

>  <IUPAC Name>  (1) 
N-cyclopropyl-2-(4,5-dihydro-1H-imidazol-2-ylmethylamino)benzamide

$$$$
