
     RDKit          3D

 71 74  0  0  0  0  0  0  0  0999 V2000
   11.0528   -0.5897   -0.0767 N   0  0  0  0  0  0  0  0  0  0  0  0
   11.6790    0.6391   -0.4575 C   0  0  0  0  0  0  0  0  0  0  0  0
   11.0032    1.8338    0.1318 C   0  0  0  0  0  0  0  0  0  0  0  0
    9.5897    2.0585   -0.2470 C   0  0  0  0  0  0  0  0  0  0  0  0
    8.6217    0.9684    0.1025 C   0  0  0  0  0  0  0  0  0  0  0  0
    7.3238    1.3961   -0.3168 O   0  0  0  0  0  0  0  0  0  0  0  0
    6.2093    0.5930   -0.1329 C   0  0  0  0  0  0  0  0  0  0  0  0
    4.9406    0.9549   -0.5121 C   0  0  0  0  0  0  0  0  0  0  0  0
    3.8344    0.1299   -0.3171 C   0  0  0  0  0  0  0  0  0  0  0  0
    3.9897   -1.1015    0.2770 C   0  0  0  0  0  0  0  0  0  0  0  0
    5.2844   -1.4421    0.6502 C   0  0  0  0  0  0  0  0  0  0  0  0
    6.3684   -0.6415    0.4625 C   0  0  0  0  0  0  0  0  0  0  0  0
    2.9368   -2.0042    0.5407 N   0  0  0  0  0  0  0  0  0  0  0  0
    1.5957   -1.6593    0.8083 C   0  0  0  0  0  0  0  0  0  0  0  0
    1.1772   -0.4300    1.2640 C   0  0  0  0  0  0  0  0  0  0  0  0
   -0.1581   -0.1425    1.5028 C   0  0  0  0  0  0  0  0  0  0  0  0
   -1.1390   -1.0885    1.2918 C   0  0  0  0  0  0  0  0  0  0  0  0
   -0.7406   -2.3248    0.8358 C   0  0  0  0  0  0  0  0  0  0  0  0
    0.5883   -2.6042    0.6003 C   0  0  0  0  0  0  0  0  0  0  0  0
   -2.5537   -0.7298    1.5704 C   0  0  0  0  0  0  0  0  0  0  0  0
   -3.2820   -0.1448    0.4080 C   0  0  0  0  0  0  0  0  0  0  0  0
   -4.6540    0.2188    0.6758 N   0  0  0  0  0  0  0  0  0  0  0  0
   -5.4442   -0.9478    0.8833 C   0  0  0  0  0  0  0  0  0  0  0  0
   -6.8993   -0.6342    1.1704 C   0  0  1  0  0  0  0  0  0  0  0  0
   -7.4807    0.3863    0.2903 C   0  0  0  0  0  0  0  0  0  0  0  0
   -7.5594    1.7307    0.6799 C   0  0  0  0  0  0  0  0  0  0  0  0
   -8.1036    2.7030   -0.1028 C   0  0  0  0  0  0  0  0  0  0  0  0
   -8.6208    2.4153   -1.3530 C   0  0  0  0  0  0  0  0  0  0  0  0
   -8.5569    1.0989   -1.7639 C   0  0  0  0  0  0  0  0  0  0  0  0
   -8.0042    0.1186   -0.9667 C   0  0  0  0  0  0  0  0  0  0  0  0
   -7.9819   -1.1651   -1.4664 C   0  0  0  0  0  0  0  0  0  0  0  0
   -8.4979   -1.4010   -2.7003 C   0  0  0  0  0  0  0  0  0  0  0  0
   -9.0480   -0.4104   -3.4856 C   0  0  0  0  0  0  0  0  0  0  0  0
   -9.5290   -0.6016   -4.6240 O   0  0  0  0  0  0  0  0  0  0  0  0
   -9.0654    0.8283   -2.9962 N   0  0  0  0  0  0  0  0  0  0  0  0
   -9.1602    3.4336   -2.1054 O   0  0  0  0  0  0  0  0  0  0  0  0
   -7.6839   -1.7592    1.3698 O   0  0  0  0  0  0  0  0  0  0  0  0
   11.4745   -0.9743    0.7857 H   0  0  0  0  0  0  0  0  0  0  0  0
   11.0458   -1.2729   -0.8489 H   0  0  0  0  0  0  0  0  0  0  0  0
   11.6229    0.7092   -1.5781 H   0  0  0  0  0  0  0  0  0  0  0  0
   12.7573    0.5933   -0.1601 H   0  0  0  0  0  0  0  0  0  0  0  0
   11.0403    1.7716    1.2499 H   0  0  0  0  0  0  0  0  0  0  0  0
   11.6311    2.7213   -0.1466 H   0  0  0  0  0  0  0  0  0  0  0  0
    9.5711    2.2419   -1.3547 H   0  0  0  0  0  0  0  0  0  0  0  0
    9.2361    2.9792    0.2863 H   0  0  0  0  0  0  0  0  0  0  0  0
    8.8724    0.0199   -0.4476 H   0  0  0  0  0  0  0  0  0  0  0  0
    8.6141    0.7525    1.1870 H   0  0  0  0  0  0  0  0  0  0  0  0
    4.8328    1.9286   -0.9793 H   0  0  0  0  0  0  0  0  0  0  0  0
    2.8749    0.4689   -0.6466 H   0  0  0  0  0  0  0  0  0  0  0  0
    5.4410   -2.4149    1.1242 H   0  0  0  0  0  0  0  0  0  0  0  0
    7.3425   -0.9823    0.7824 H   0  0  0  0  0  0  0  0  0  0  0  0
    3.1834   -3.0270    0.5346 H   0  0  0  0  0  0  0  0  0  0  0  0
    1.8783    0.3463    1.4604 H   0  0  0  0  0  0  0  0  0  0  0  0
   -0.4409    0.8388    1.8607 H   0  0  0  0  0  0  0  0  0  0  0  0
   -1.5207   -3.0786    0.6667 H   0  0  0  0  0  0  0  0  0  0  0  0
    0.8529   -3.5919    0.2419 H   0  0  0  0  0  0  0  0  0  0  0  0
   -2.5445    0.0669    2.3690 H   0  0  0  0  0  0  0  0  0  0  0  0
   -3.0294   -1.6054    2.0279 H   0  0  0  0  0  0  0  0  0  0  0  0
   -2.7211    0.6617   -0.0996 H   0  0  0  0  0  0  0  0  0  0  0  0
   -3.3360   -0.9665   -0.3682 H   0  0  0  0  0  0  0  0  0  0  0  0
   -4.6592    0.9141    1.4364 H   0  0  0  0  0  0  0  0  0  0  0  0
   -5.3365   -1.5779   -0.0384 H   0  0  0  0  0  0  0  0  0  0  0  0
   -4.9959   -1.5420    1.7041 H   0  0  0  0  0  0  0  0  0  0  0  0
   -6.8636   -0.1534    2.2038 H   0  0  0  0  0  0  0  0  0  0  0  0
   -7.1567    1.9683    1.6601 H   0  0  0  0  0  0  0  0  0  0  0  0
   -8.1168    3.7166    0.2915 H   0  0  0  0  0  0  0  0  0  0  0  0
   -7.5628   -1.9488   -0.8924 H   0  0  0  0  0  0  0  0  0  0  0  0
   -8.4808   -2.4133   -3.0957 H   0  0  0  0  0  0  0  0  0  0  0  0
   -9.4784    1.6128   -3.5705 H   0  0  0  0  0  0  0  0  0  0  0  0
  -10.0804    3.4632   -2.5048 H   0  0  0  0  0  0  0  0  0  0  0  0
   -7.9800   -1.9108    2.2801 H   0  0  0  0  0  0  0  0  0  0  0  0
  1  2  1  0
  2  3  1  0
  3  4  1  0
  4  5  1  0
  5  6  1  0
  6  7  1  0
  7  8  2  0
  8  9  1  0
  9 10  2  0
 10 11  1  0
 11 12  2  0
 10 13  1  0
 13 14  1  0
 14 15  2  0
 15 16  1  0
 16 17  2  0
 17 18  1  0
 18 19  2  0
 17 20  1  0
 20 21  1  0
 21 22  1  0
 22 23  1  0
 23 24  1  0
 24 25  1  0
 25 26  2  0
 26 27  1  0
 27 28  2  0
 28 29  1  0
 29 30  2  0
 30 31  1  0
 31 32  2  0
 32 33  1  0
 33 34  2  0
 33 35  1  0
 28 36  1  0
 24 37  1  0
 12  7  1  0
 19 14  1  0
 30 25  1  0
 35 29  1  0
  1 38  1  0
  1 39  1  0
  2 40  1  0
  2 41  1  0
  3 42  1  0
  3 43  1  0
  4 44  1  0
  4 45  1  0
  5 46  1  0
  5 47  1  0
  8 48  1  0
  9 49  1  0
 11 50  1  0
 12 51  1  0
 13 52  1  0
 15 53  1  0
 16 54  1  0
 18 55  1  0
 19 56  1  0
 20 57  1  0
 20 58  1  0
 21 59  1  0
 21 60  1  0
 22 61  1  0
 23 62  1  0
 23 63  1  0
 24 64  1  1
 26 65  1  0
 27 66  1  0
 31 67  1  0
 32 68  1  0
 35 69  1  0
 36 70  1  0
 37 71  1  0
M  END
>  <Ligand ID>  (1) 
LIG0002552

>  <Ligand>  (1) 
CHEMBL3298330

>  <SMILES>  (1) 
NCCCCOc1ccc(cc1)Nc1ccc(cc1)CCNC[C@@H](c1ccc(c2c1ccc(=O)[nH]2)O)O

>  <CID>  (1) 
56943545.0

>  <ChEMBL ID>  (1) 
nan

>  <InChiKey>  (1) 
OIDYEIRWMIDJOH-MHZLTWQESA-N

>  <InChi>  (1) 
InChI=1S/C29H34N4O4/c30-16-1-2-18-37-23-9-7-22(8-10-23)32-21-5-3-20(4-6-21)15-17-31-19-27(35)24-11-13-26(34)29-25(24)12-14-28(36)33-29/h3-14,27,31-32,34-35H,1-2,15-19,30H2,(H,33,36)/t27-/m0/s1

>  <IUPAC Name>  (1) 
5-[(1R)-2-[2-[4-[4-(4-aminobutoxy)anilino]phenyl]ethylamino]-1-hydroxyethyl]-8-hydroxy-1H-quinolin-2-one

$$$$
