
     RDKit          3D

 84 85  0  0  0  0  0  0  0  0999 V2000
   -1.0019   -0.0905   -0.0032 C   0  0  0  0  0  0  0  0  0  0  0  0
    0.4324    0.2828   -0.1562 C   0  0  0  0  0  0  0  0  0  0  0  0
    0.7429    1.3778   -0.6546 O   0  0  0  0  0  0  0  0  0  0  0  0
    1.4143   -0.6029    0.2627 O   0  0  0  0  0  0  0  0  0  0  0  0
  -11.3671    1.5576    0.8339 O   0  0  0  0  0  0  0  0  0  0  0  0
  -10.1768    2.1892    0.4777 C   0  0  0  0  0  0  0  0  0  0  0  0
   -9.0530    1.1956    0.5549 C   0  0  0  0  0  0  0  0  0  0  0  0
   -7.7542    1.5714    0.2469 C   0  0  0  0  0  0  0  0  0  0  0  0
   -6.7256    0.6275    0.3238 C   0  0  0  0  0  0  0  0  0  0  0  0
   -7.0685   -0.6404    0.7072 C   0  0  0  0  0  0  0  0  0  0  0  0
   -8.3696   -1.0039    1.0124 C   0  0  0  0  0  0  0  0  0  0  0  0
   -9.3833   -0.0891    0.9405 C   0  0  0  0  0  0  0  0  0  0  0  0
  -10.6810   -0.4772    1.2514 O   0  0  0  0  0  0  0  0  0  0  0  0
   -5.3738    1.0975   -0.0175 C   0  0  2  0  0  0  0  0  0  0  0  0
   -4.2443    0.2453    0.4426 C   0  0  0  0  0  0  0  0  0  0  0  0
   -4.1459   -1.0604   -0.1285 N   0  0  0  0  0  0  0  0  0  0  0  0
   -3.8156   -1.1327   -1.4810 C   0  0  0  0  0  0  0  0  0  0  0  0
   -2.4072   -0.7724   -1.7893 C   0  0  0  0  0  0  0  0  0  0  0  0
   -1.3290   -1.6456   -1.2747 C   0  0  0  0  0  0  0  0  0  0  0  0
   -1.0843   -1.8616    0.1386 C   0  0  0  0  0  0  0  0  0  0  0  0
   -0.7560   -0.8400    1.1167 C   0  0  0  0  0  0  0  0  0  0  0  0
    0.4343    0.0194    1.0568 C   0  0  0  0  0  0  0  0  0  0  0  0
    0.7251    0.9098    0.1573 O   0  0  0  0  0  0  0  0  0  0  0  0
    0.9538    0.9069   -1.1264 C   0  0  0  0  0  0  0  0  0  0  0  0
    2.0981    0.0324   -1.6115 C   0  0  0  0  0  0  0  0  0  0  0  0
    3.4303    0.4358   -0.9909 C   0  0  0  0  0  0  0  0  0  0  0  0
    4.4836   -0.4928   -1.5528 C   0  0  0  0  0  0  0  0  0  0  0  0
    5.8439   -0.2239   -1.0250 C   0  0  0  0  0  0  0  0  0  0  0  0
    6.2122   -0.9127    0.1174 C   0  0  0  0  0  0  0  0  0  0  0  0
    7.4505   -0.7491    0.6994 C   0  0  0  0  0  0  0  0  0  0  0  0
    8.3457    0.1336    0.1156 C   0  0  0  0  0  0  0  0  0  0  0  0
    7.9866    0.8229   -1.0211 C   0  0  0  0  0  0  0  0  0  0  0  0
    6.7287    0.6563   -1.6119 C   0  0  0  0  0  0  0  0  0  0  0  0
    9.6105    0.2604    0.7516 N   0  0  0  0  0  0  0  0  0  0  0  0
   10.7237   -0.5554    0.4038 C   0  0  0  0  0  0  0  0  0  0  0  0
   10.7869   -1.3730   -0.5469 O   0  0  0  0  0  0  0  0  0  0  0  0
   11.8494   -0.3126    1.3407 C   0  0  0  0  0  0  0  0  0  0  0  0
   11.3970    0.8543    2.0665 N   0  0  0  0  0  0  0  0  0  0  0  0
   10.0328    1.1352    1.7844 C   0  0  0  0  0  0  0  0  0  0  0  0
    9.2674    1.9955    2.3170 O   0  0  0  0  0  0  0  0  0  0  0  0
   -5.2245    2.3222    0.6824 O   0  0  0  0  0  0  0  0  0  0  0  0
   -1.6717    0.5841   -0.5280 H   0  0  0  0  0  0  0  0  0  0  0  0
   -1.0588   -1.1457   -0.3851 H   0  0  0  0  0  0  0  0  0  0  0  0
   -1.2532   -0.0884    1.0800 H   0  0  0  0  0  0  0  0  0  0  0  0
    2.3959   -0.3172    0.3844 H   0  0  0  0  0  0  0  0  0  0  0  0
  -11.8602    1.1712    0.0796 H   0  0  0  0  0  0  0  0  0  0  0  0
  -10.0072    3.0131    1.2019 H   0  0  0  0  0  0  0  0  0  0  0  0
  -10.3110    2.5600   -0.5546 H   0  0  0  0  0  0  0  0  0  0  0  0
   -7.6024    2.5864   -0.0401 H   0  0  0  0  0  0  0  0  0  0  0  0
   -6.3228   -1.3840    0.7788 H   0  0  0  0  0  0  0  0  0  0  0  0
   -8.5862   -2.0347    1.3139 H   0  0  0  0  0  0  0  0  0  0  0  0
  -10.8103   -1.0394    2.0990 H   0  0  0  0  0  0  0  0  0  0  0  0
   -5.2838    1.3994   -1.0866 H   0  0  0  0  0  0  0  0  0  0  0  0
   -3.3064    0.7998    0.1333 H   0  0  0  0  0  0  0  0  0  0  0  0
   -4.2311    0.2254    1.5460 H   0  0  0  0  0  0  0  0  0  0  0  0
   -4.0487   -1.8534    0.4881 H   0  0  0  0  0  0  0  0  0  0  0  0
   -4.5460   -0.6449   -2.1752 H   0  0  0  0  0  0  0  0  0  0  0  0
   -3.9136   -2.2295   -1.7839 H   0  0  0  0  0  0  0  0  0  0  0  0
   -2.2319   -0.7017   -2.9143 H   0  0  0  0  0  0  0  0  0  0  0  0
   -2.1583    0.2750   -1.4545 H   0  0  0  0  0  0  0  0  0  0  0  0
   -0.3855   -1.4463   -1.8316 H   0  0  0  0  0  0  0  0  0  0  0  0
   -1.5566   -2.7275   -1.7387 H   0  0  0  0  0  0  0  0  0  0  0  0
   -0.1624   -2.5959    0.1596 H   0  0  0  0  0  0  0  0  0  0  0  0
   -1.8556   -2.6165    0.5666 H   0  0  0  0  0  0  0  0  0  0  0  0
   -0.6164   -1.4298    2.1207 H   0  0  0  0  0  0  0  0  0  0  0  0
   -1.6306   -0.1899    1.4216 H   0  0  0  0  0  0  0  0  0  0  0  0
    1.3252   -0.6920    1.2871 H   0  0  0  0  0  0  0  0  0  0  0  0
    0.4094    0.5878    2.0805 H   0  0  0  0  0  0  0  0  0  0  0  0
    1.3248    1.9722   -1.4071 H   0  0  0  0  0  0  0  0  0  0  0  0
    0.1230    0.7856   -1.8547 H   0  0  0  0  0  0  0  0  0  0  0  0
    2.1896    0.2213   -2.7008 H   0  0  0  0  0  0  0  0  0  0  0  0
    1.9187   -1.0470   -1.4805 H   0  0  0  0  0  0  0  0  0  0  0  0
    3.3487    0.2307    0.0952 H   0  0  0  0  0  0  0  0  0  0  0  0
    3.6579    1.4876   -1.1371 H   0  0  0  0  0  0  0  0  0  0  0  0
    4.1694   -1.5446   -1.3973 H   0  0  0  0  0  0  0  0  0  0  0  0
    4.4489   -0.3643   -2.6748 H   0  0  0  0  0  0  0  0  0  0  0  0
    5.5309   -1.6001    0.5825 H   0  0  0  0  0  0  0  0  0  0  0  0
    7.6909   -1.3120    1.5933 H   0  0  0  0  0  0  0  0  0  0  0  0
    8.7033    1.4968   -1.4451 H   0  0  0  0  0  0  0  0  0  0  0  0
    6.4373    1.1909   -2.5025 H   0  0  0  0  0  0  0  0  0  0  0  0
   11.9190   -1.2178    1.9935 H   0  0  0  0  0  0  0  0  0  0  0  0
   12.8086   -0.1206    0.8148 H   0  0  0  0  0  0  0  0  0  0  0  0
   12.0161    1.3955    2.7058 H   0  0  0  0  0  0  0  0  0  0  0  0
   -5.9956    2.5673    1.2133 H   0  0  0  0  0  0  0  0  0  0  0  0
  1  2  1  0
  2  3  2  0
  2  4  1  0
  5  6  1  0
  6  7  1  0
  7  8  2  0
  8  9  1  0
  9 10  2  0
 10 11  1  0
 11 12  2  0
 12 13  1  0
  9 14  1  0
 14 15  1  0
 15 16  1  0
 16 17  1  0
 17 18  1  0
 18 19  1  0
 19 20  1  0
 20 21  1  0
 21 22  1  0
 22 23  1  0
 23 24  1  0
 24 25  1  0
 25 26  1  0
 26 27  1  0
 27 28  1  0
 28 29  2  0
 29 30  1  0
 30 31  2  0
 31 32  1  0
 32 33  2  0
 31 34  1  0
 34 35  1  0
 35 36  2  0
 35 37  1  0
 37 38  1  0
 38 39  1  0
 39 40  2  0
 14 41  1  0
 12  7  1  0
 33 28  1  0
 39 34  1  0
  1 42  1  0
  1 43  1  0
  1 44  1  0
  4 45  1  0
  5 46  1  0
  6 47  1  0
  6 48  1  0
  8 49  1  0
 10 50  1  0
 11 51  1  0
 13 52  1  0
 14 53  1  6
 15 54  1  0
 15 55  1  0
 16 56  1  0
 17 57  1  0
 17 58  1  0
 18 59  1  0
 18 60  1  0
 19 61  1  0
 19 62  1  0
 20 63  1  0
 20 64  1  0
 21 65  1  0
 21 66  1  0
 22 67  1  0
 22 68  1  0
 24 69  1  0
 24 70  1  0
 25 71  1  0
 25 72  1  0
 26 73  1  0
 26 74  1  0
 27 75  1  0
 27 76  1  0
 29 77  1  0
 30 78  1  0
 32 79  1  0
 33 80  1  0
 37 81  1  0
 37 82  1  0
 38 83  1  0
 41 84  1  0
M  END
>  <Ligand ID>  (1) 
LIG0003349

>  <Ligand>  (1) 
SCHEMBL5182467

>  <SMILES>  (1) 
CC(=O)O.OCc1cc(ccc1O)[C@H](CNCCCCCCOCCCCc1ccc(cc1)N1C(=O)CNC1=O)O

>  <CID>  (1) 
56678844.0

>  <ChEMBL ID>  (1) 
nan

>  <InChiKey>  (1) 
RXMXKEUHBMFLTJ-SNYZSRNZSA-N

>  <InChi>  (1) 
InChI=1S/C28H39N3O6.C2H4O2/c32-20-23-17-22(10-13-25(23)33)26(34)18-29-14-4-1-2-5-15-37-16-6-3-7-21-8-11-24(12-9-21)31-27(35)19-30-28(31)36;1-2(3)4/h8-13,17,26,29,32-34H,1-7,14-16,18-20H2,(H,30,36);1H3,(H,3,4)/t26-;/m0./s1

>  <IUPAC Name>  (1) 
acetic acid;3-[4-[4-[6-[[(2R)-2-hydroxy-2-[4-hydroxy-3-(hydroxymethyl)phenyl]ethyl]amino]hexoxy]butyl]phenyl]imidazolidine-2,4-dione

$$$$
