
     RDKit          3D

 56 58  0  0  0  0  0  0  0  0999 V2000
   -3.5983    5.7301    1.5438 O   0  0  0  0  0  0  0  0  0  0  0  0
   -2.6775    5.8970    0.4994 C   0  0  0  0  0  0  0  0  0  0  0  0
   -1.8233    4.6401    0.5069 C   0  0  0  0  0  0  0  0  0  0  0  0
   -2.7121    3.5174    0.2860 N   0  0  0  0  0  0  0  0  0  0  0  0
   -2.1838    2.1958    0.2426 C   0  0  0  0  0  0  0  0  0  0  0  0
   -0.8765    1.9819    0.4037 N   0  0  0  0  0  0  0  0  0  0  0  0
   -0.2918    0.7691    0.3775 C   0  0  0  0  0  0  0  0  0  0  0  0
    1.4789    0.7137    0.6163 S   0  0  0  0  0  0  0  0  0  0  0  0
    2.3963    0.8477   -0.9348 C   0  0  0  0  0  0  0  0  0  0  0  0
    3.8404    0.7879   -0.5873 C   0  0  0  0  0  0  0  0  0  0  0  0
    4.4501    2.0197   -0.3239 C   0  0  0  0  0  0  0  0  0  0  0  0
    5.7868    2.0634    0.0069 C   0  0  0  0  0  0  0  0  0  0  0  0
    6.4540    0.9053    0.0624 N   0  0  0  0  0  0  0  0  0  0  0  0
    5.8899   -0.2872   -0.1862 C   0  0  0  0  0  0  0  0  0  0  0  0
    4.5542   -0.3907   -0.5223 C   0  0  0  0  0  0  0  0  0  0  0  0
    6.6963   -1.5192   -0.1036 C   0  0  0  0  0  0  0  0  0  0  0  0
    6.2079   -2.6555   -0.3285 O   0  0  0  0  0  0  0  0  0  0  0  0
    8.0757   -1.4228    0.2423 N   0  0  0  0  0  0  0  0  0  0  0  0
    8.9482   -2.5741    0.3485 C   0  0  0  0  0  0  0  0  0  0  0  0
   -1.0506   -0.3639    0.1736 C   0  0  0  0  0  0  0  0  0  0  0  0
   -2.4074   -0.1929    0.0020 C   0  0  0  0  0  0  0  0  0  0  0  0
   -2.9843    1.0807    0.0345 C   0  0  0  0  0  0  0  0  0  0  0  0
   -4.4000    1.2642   -0.1441 C   0  0  0  0  0  0  0  0  0  0  0  0
   -5.5557    1.4041   -0.2850 N   0  0  0  0  0  0  0  0  0  0  0  0
   -3.2679   -1.3517   -0.2182 C   0  0  0  0  0  0  0  0  0  0  0  0
   -3.5418   -1.8329   -1.4800 C   0  0  0  0  0  0  0  0  0  0  0  0
   -4.3627   -2.9348   -1.6582 C   0  0  0  0  0  0  0  0  0  0  0  0
   -4.9373   -3.5930   -0.5825 C   0  0  0  0  0  0  0  0  0  0  0  0
   -4.6681   -3.1176    0.6843 C   0  0  0  0  0  0  0  0  0  0  0  0
   -3.8577   -2.0304    0.8517 C   0  0  0  0  0  0  0  0  0  0  0  0
   -5.7519   -4.6921   -0.8190 O   0  0  0  0  0  0  0  0  0  0  0  0
   -6.3320   -5.3528    0.3056 C   0  0  0  0  0  0  0  0  0  0  0  0
   -0.4195   -1.6482    0.1474 C   0  0  0  0  0  0  0  0  0  0  0  0
    0.0863   -2.6730    0.1413 N   0  0  0  0  0  0  0  0  0  0  0  0
   -4.4370    6.1960    1.3083 H   0  0  0  0  0  0  0  0  0  0  0  0
   -2.0488    6.7985    0.6595 H   0  0  0  0  0  0  0  0  0  0  0  0
   -3.2442    6.0310   -0.4396 H   0  0  0  0  0  0  0  0  0  0  0  0
   -1.0698    4.7014   -0.3148 H   0  0  0  0  0  0  0  0  0  0  0  0
   -1.3250    4.6092    1.4977 H   0  0  0  0  0  0  0  0  0  0  0  0
   -3.7510    3.6295    0.1530 H   0  0  0  0  0  0  0  0  0  0  0  0
    2.1941   -0.1051   -1.4990 H   0  0  0  0  0  0  0  0  0  0  0  0
    2.1083    1.7093   -1.5385 H   0  0  0  0  0  0  0  0  0  0  0  0
    3.8797    2.9436   -0.3775 H   0  0  0  0  0  0  0  0  0  0  0  0
    6.2762    3.0264    0.2159 H   0  0  0  0  0  0  0  0  0  0  0  0
    4.0581   -1.3284   -0.7307 H   0  0  0  0  0  0  0  0  0  0  0  0
    8.4504   -0.4565    0.4237 H   0  0  0  0  0  0  0  0  0  0  0  0
    9.6842   -2.5154   -0.4797 H   0  0  0  0  0  0  0  0  0  0  0  0
    9.5078   -2.5143    1.3084 H   0  0  0  0  0  0  0  0  0  0  0  0
    8.3734   -3.4945    0.2275 H   0  0  0  0  0  0  0  0  0  0  0  0
   -3.0939   -1.3208   -2.3273 H   0  0  0  0  0  0  0  0  0  0  0  0
   -4.5570   -3.2867   -2.6648 H   0  0  0  0  0  0  0  0  0  0  0  0
   -5.0992   -3.6071    1.5348 H   0  0  0  0  0  0  0  0  0  0  0  0
   -3.6788   -1.6976    1.8719 H   0  0  0  0  0  0  0  0  0  0  0  0
   -5.5005   -5.7027    0.9578 H   0  0  0  0  0  0  0  0  0  0  0  0
   -6.9113   -4.6197    0.9221 H   0  0  0  0  0  0  0  0  0  0  0  0
   -6.9805   -6.1813   -0.0116 H   0  0  0  0  0  0  0  0  0  0  0  0
  1  2  1  0
  2  3  1  0
  3  4  1  0
  4  5  1  0
  5  6  2  0
  6  7  1  0
  7  8  1  0
  8  9  1  0
  9 10  1  0
 10 11  2  0
 11 12  1  0
 12 13  2  0
 13 14  1  0
 14 15  2  0
 14 16  1  0
 16 17  2  0
 16 18  1  0
 18 19  1  0
  7 20  2  0
 20 21  1  0
 21 22  2  0
 22 23  1  0
 23 24  3  0
 21 25  1  0
 25 26  2  0
 26 27  1  0
 27 28  2  0
 28 29  1  0
 29 30  2  0
 28 31  1  0
 31 32  1  0
 20 33  1  0
 33 34  3  0
 22  5  1  0
 30 25  1  0
 15 10  1  0
  1 35  1  0
  2 36  1  0
  2 37  1  0
  3 38  1  0
  3 39  1  0
  4 40  1  0
  9 41  1  0
  9 42  1  0
 11 43  1  0
 12 44  1  0
 15 45  1  0
 18 46  1  0
 19 47  1  0
 19 48  1  0
 19 49  1  0
 26 50  1  0
 27 51  1  0
 29 52  1  0
 30 53  1  0
 32 54  1  0
 32 55  1  0
 32 56  1  0
M  END
>  <Ligand ID>  (1) 
LIG0004674

>  <Ligand>  (1) 
SCHEMBL3357962

>  <SMILES>  (1) 
OCCNc1nc(SCc2ccnc(c2)C(=O)NC)c(c(c1C#N)c1ccc(cc1)OC)C#N

>  <CID>  (1) 
68611797.0

>  <ChEMBL ID>  (1) 
nan

>  <InChiKey>  (1) 
FKGGVWWJVXWSTL-UHFFFAOYSA-N

>  <InChi>  (1) 
InChI=1S/C24H22N6O3S/c1-27-23(32)20-11-15(7-8-28-20)14-34-24-19(13-26)21(16-3-5-17(33-2)6-4-16)18(12-25)22(30-24)29-9-10-31/h3-8,11,31H,9-10,14H2,1-2H3,(H,27,32)(H,29,30)

>  <IUPAC Name>  (1) 
4-[[3,5-dicyano-6-(2-hydroxyethylamino)-4-(4-methoxyphenyl)pyridin-2-yl]sulfanylmethyl]-N-methylpyridine-2-carboxamide

$$$$
