
     RDKit          3D

 33 35  0  0  0  0  0  0  0  0999 V2000
    4.0300    0.2969   -1.6619 C   0  0  0  0  0  0  0  0  0  0  0  0
    3.7152    1.0626   -0.5805 O   0  0  0  0  0  0  0  0  0  0  0  0
    3.2425    0.3962    0.4925 C   0  0  0  0  0  0  0  0  0  0  0  0
    2.0062   -0.3880    0.3266 C   0  0  0  0  0  0  0  0  0  0  0  0
    1.9221   -1.6744   -0.1299 C   0  0  0  0  0  0  0  0  0  0  0  0
    3.3338   -2.6200   -0.4708 Cl  0  0  0  0  0  0  0  0  0  0  0  0
    0.6837   -2.3098   -0.2987 C   0  0  0  0  0  0  0  0  0  0  0  0
   -0.5016   -1.6744   -0.0132 C   0  0  0  0  0  0  0  0  0  0  0  0
   -0.4227   -0.3777    0.4491 C   0  0  0  0  0  0  0  0  0  0  0  0
    0.7927    0.2469    0.6142 C   0  0  0  0  0  0  0  0  0  0  0  0
    0.4997    1.6298    1.1224 C   0  0  0  0  0  0  0  0  0  0  0  0
   -0.9169    1.8741    0.5777 C   0  0  0  0  0  0  0  0  0  0  0  0
   -1.5318    0.5389    0.8339 C   0  0  1  0  0  0  0  0  0  0  0  0
   -2.7698    0.2543    0.1089 C   0  0  0  0  0  0  0  0  0  0  0  0
   -3.1869    0.7348   -1.0944 N   0  0  0  0  0  0  0  0  0  0  0  0
   -4.3973    0.1892   -1.3547 C   0  0  0  0  0  0  0  0  0  0  0  0
   -4.7381   -0.6379   -0.3047 C   0  0  0  0  0  0  0  0  0  0  0  0
   -3.7306   -0.5883    0.5852 N   0  0  0  0  0  0  0  0  0  0  0  0
    4.4109    0.9952   -2.4829 H   0  0  0  0  0  0  0  0  0  0  0  0
    4.8917   -0.3864   -1.5028 H   0  0  0  0  0  0  0  0  0  0  0  0
    3.1325   -0.1847   -2.0623 H   0  0  0  0  0  0  0  0  0  0  0  0
    4.0167   -0.2936    0.9515 H   0  0  0  0  0  0  0  0  0  0  0  0
    3.0158    1.1647    1.2999 H   0  0  0  0  0  0  0  0  0  0  0  0
    0.6361   -3.3313   -0.6673 H   0  0  0  0  0  0  0  0  0  0  0  0
   -1.4434   -2.1856   -0.1498 H   0  0  0  0  0  0  0  0  0  0  0  0
    0.4835    1.6971    2.2099 H   0  0  0  0  0  0  0  0  0  0  0  0
    1.1610    2.3504    0.6333 H   0  0  0  0  0  0  0  0  0  0  0  0
   -0.8975    2.0807   -0.5109 H   0  0  0  0  0  0  0  0  0  0  0  0
   -1.4021    2.6894    1.1526 H   0  0  0  0  0  0  0  0  0  0  0  0
   -1.6802    0.4609    1.9464 H   0  0  0  0  0  0  0  0  0  0  0  0
   -5.0403    0.3327   -2.2161 H   0  0  0  0  0  0  0  0  0  0  0  0
   -5.6235   -1.2277   -0.1739 H   0  0  0  0  0  0  0  0  0  0  0  0
   -3.6915   -1.1152    1.5015 H   0  0  0  0  0  0  0  0  0  0  0  0
  1  2  1  0
  2  3  1  0
  3  4  1  0
  4  5  2  0
  5  6  1  0
  5  7  1  0
  7  8  2  0
  8  9  1  0
  9 10  2  0
 10 11  1  0
 11 12  1  0
 12 13  1  0
 13 14  1  0
 14 15  2  0
 15 16  1  0
 16 17  2  0
 17 18  1  0
 10  4  1  0
 18 14  1  0
 13  9  1  0
  1 19  1  0
  1 20  1  0
  1 21  1  0
  3 22  1  0
  3 23  1  0
  7 24  1  0
  8 25  1  0
 11 26  1  0
 11 27  1  0
 12 28  1  0
 12 29  1  0
 13 30  1  1
 16 31  1  0
 17 32  1  0
 18 33  1  0
M  END
>  <Ligand ID>  (1) 
LIG0004896

>  <Ligand>  (1) 
CHEMBL481322

>  <SMILES>  (1) 
COCc1c(Cl)ccc2c1CC[C@H]2c1ncc[nH]1

>  <CID>  (1) 
44593557.0

>  <ChEMBL ID>  (1) 
nan

>  <InChiKey>  (1) 
CMNAOKMSNCWOHS-LLVKDONJSA-N

>  <InChi>  (1) 
InChI=1S/C14H15ClN2O/c1-18-8-12-10-2-3-11(14-16-6-7-17-14)9(10)4-5-13(12)15/h4-7,11H,2-3,8H2,1H3,(H,16,17)/t11-/m1/s1

>  <IUPAC Name>  (1) 
2-[(1R)-5-chloro-4-(methoxymethyl)-2,3-dihydro-1H-inden-1-yl]-1H-imidazole

$$$$
