
     RDKit          3D

199206  0  0  0  0  0  0  0  0999 V2000
   12.5661   -4.1715   -0.8684 N   0  0  0  0  0  0  0  0  0  0  0  0
   11.6785   -3.5756    0.0910 C   0  0  0  0  0  0  0  0  0  0  0  0
   11.7858   -2.2979    0.2341 N   0  0  0  0  0  0  0  0  0  0  0  0
   10.7448   -4.3657    0.8261 N   0  0  0  0  0  0  0  0  0  0  0  0
    9.5969   -3.7190    1.4019 C   0  0  0  0  0  0  0  0  0  0  0  0
    8.6101   -3.2187    0.3315 C   0  0  0  0  0  0  0  0  0  0  0  0
    7.4807   -2.5504    1.0352 C   0  0  0  0  0  0  0  0  0  0  0  0
    6.3997   -1.9817    0.1603 C   0  0  2  0  0  0  0  0  0  0  0  0
    5.7640   -2.9144   -0.6119 N   0  0  0  0  0  0  0  0  0  0  0  0
    5.1155   -3.6891   -1.2355 C   0  0  0  0  0  0  0  0  0  0  0  0
    5.7480   -4.5714   -2.1473 O   0  0  0  0  0  0  0  0  0  0  0  0
    3.6336   -3.8426   -1.1616 C   0  0  1  0  0  0  0  0  0  0  0  0
    2.9960   -2.5245   -1.4439 C   0  0  0  0  0  0  0  0  0  0  0  0
    3.2027   -1.8492   -3.0575 S   0  0  0  0  0  0  0  0  0  0  0  0
    4.9264   -1.3870   -3.4988 C   0  0  0  0  0  0  0  0  0  0  0  0
    5.4275   -0.3717   -2.5893 C   0  0  0  0  0  0  0  0  0  0  0  0
    4.9507    0.8022   -2.8702 O   0  0  0  0  0  0  0  0  0  0  0  0
    6.2532   -0.2028   -1.4960 N   0  0  0  0  0  0  0  0  0  0  0  0
    7.1516   -1.0437   -0.7929 C   0  0  0  0  0  0  0  0  0  0  0  0
    6.3073    1.2154   -0.8819 C   0  0  1  0  0  0  0  0  0  0  0  0
    6.9270    2.1890   -1.8167 C   0  0  0  0  0  0  0  0  0  0  0  0
    7.0121    3.5926   -1.2372 C   0  0  0  0  0  0  0  0  0  0  0  0
    6.2057    4.6667   -1.5434 C   0  0  0  0  0  0  0  0  0  0  0  0
    6.6314    5.7262   -0.8035 N   0  0  0  0  0  0  0  0  0  0  0  0
    7.6813    5.3542   -0.0408 C   0  0  0  0  0  0  0  0  0  0  0  0
    7.9367    4.0113   -0.3015 C   0  0  0  0  0  0  0  0  0  0  0  0
    8.9473    3.3462    0.3193 C   0  0  0  0  0  0  0  0  0  0  0  0
    9.7285    4.0180    1.2201 C   0  0  0  0  0  0  0  0  0  0  0  0
    9.5333    5.3434    1.5249 C   0  0  0  0  0  0  0  0  0  0  0  0
    8.4915    5.9880    0.8705 C   0  0  0  0  0  0  0  0  0  0  0  0
    5.0373    1.5728   -0.2522 C   0  0  0  0  0  0  0  0  0  0  0  0
    4.9883    1.5710    1.0348 N   0  0  0  0  0  0  0  0  0  0  0  0
    3.8624    1.8851    1.8069 C   0  0  1  0  0  0  0  0  0  0  0  0
    4.1465    1.5053    3.2476 C   0  0  0  0  0  0  0  0  0  0  0  0
    5.3156    2.2457    3.7953 C   0  0  0  0  0  0  0  0  0  0  0  0
    5.1300    2.9975    4.8443 N   0  0  0  0  0  0  0  0  0  0  0  0
    6.5652    2.1461    3.2170 O   0  0  0  0  0  0  0  0  0  0  0  0
    3.6024    3.3564    1.7182 C   0  0  0  0  0  0  0  0  0  0  0  0
    2.5369    3.8477    1.8556 N   0  0  0  0  0  0  0  0  0  0  0  0
    1.4013    4.5134    1.9890 C   0  0  1  0  0  0  0  0  0  0  0  0
    1.0890    5.3692    0.7414 C   0  0  0  0  0  0  0  0  0  0  0  0
    0.1993    3.6214    2.2422 C   0  0  0  0  0  0  0  0  0  0  0  0
   -0.7633    3.6723    1.4261 N   0  0  0  0  0  0  0  0  0  0  0  0
   -2.0035    2.9119    1.4823 C   0  0  1  0  0  0  0  0  0  0  0  0
   -3.0364    3.8405    2.1458 C   0  0  0  0  0  0  0  0  0  0  0  0
   -2.6212    4.2796    3.4886 C   0  0  0  0  0  0  0  0  0  0  0  0
   -2.9121    3.6573    4.6717 C   0  0  0  0  0  0  0  0  0  0  0  0
   -2.4468    4.1759    5.8539 C   0  0  0  0  0  0  0  0  0  0  0  0
   -1.6747    5.3309    5.9216 C   0  0  0  0  0  0  0  0  0  0  0  0
   -1.3895    5.9463    4.7296 C   0  0  0  0  0  0  0  0  0  0  0  0
   -1.8415    5.4495    3.5327 C   0  0  0  0  0  0  0  0  0  0  0  0
   -2.5158    2.7118    0.0691 C   0  0  0  0  0  0  0  0  0  0  0  0
   -3.5772    3.2170   -0.2791 N   0  0  0  0  0  0  0  0  0  0  0  0
   -4.4516    3.3643   -1.3397 C   0  0  1  0  0  0  0  0  0  0  0  0
   -4.7346    2.1263   -2.1234 C   0  0  0  0  0  0  0  0  0  0  0  0
   -5.6831    0.9132   -1.2427 S   0  0  0  0  0  0  0  0  0  0  0  0
   -4.6877   -0.0760    0.3164 S   0  0  0  0  0  0  0  0  0  0  0  0
   -3.8999   -1.5673   -0.4057 C   0  0  0  0  0  0  0  0  0  0  0  0
   -4.8958   -2.5285   -0.9489 C   0  0  1  0  0  0  0  0  0  0  0  0
   -4.2077   -3.7233   -1.5802 C   0  0  0  0  0  0  0  0  0  0  0  0
   -2.9450   -3.7116   -1.7719 N   0  0  0  0  0  0  0  0  0  0  0  0
   -2.3213   -4.8914   -2.3803 C   0  0  2  0  0  0  0  0  0  0  0  0
   -0.8241   -4.7870   -2.1026 C   0  0  0  0  0  0  0  0  0  0  0  0
   -0.2298   -5.5221   -1.2667 N   0  0  0  0  0  0  0  0  0  0  0  0
    1.1376   -5.5798   -0.8735 C   0  0  2  0  0  0  0  0  0  0  0  0
    2.1180   -5.5591   -1.9828 C   0  0  0  0  0  0  0  0  0  0  0  0
    3.1444   -4.8230   -2.0703 N   0  0  0  0  0  0  0  0  0  0  0  0
    1.8751   -6.4542   -3.0423 O   0  0  0  0  0  0  0  0  0  0  0  0
    1.3509   -6.9236   -0.1680 C   0  0  0  0  0  0  0  0  0  0  0  0
   -0.1949   -3.7874   -2.8734 O   0  0  0  0  0  0  0  0  0  0  0  0
   -2.5247   -4.7705   -3.8722 C   0  0  0  0  0  0  0  0  0  0  0  0
   -1.9628   -5.9152   -4.6361 C   0  0  0  0  0  0  0  0  0  0  0  0
   -1.3593   -7.0528   -4.1434 C   0  0  0  0  0  0  0  0  0  0  0  0
   -1.0006   -7.8786   -5.1536 N   0  0  0  0  0  0  0  0  0  0  0  0
   -1.3797   -7.2598   -6.2807 C   0  0  0  0  0  0  0  0  0  0  0  0
   -1.9514   -6.0951   -5.9911 N   0  0  0  0  0  0  0  0  0  0  0  0
   -5.0459   -4.7696   -1.9133 O   0  0  0  0  0  0  0  0  0  0  0  0
   -5.9574   -2.8813   -0.0857 N   0  0  0  0  0  0  0  0  0  0  0  0
   -6.1000   -3.8968    0.6684 C   0  0  0  0  0  0  0  0  0  0  0  0
   -7.3041   -4.1189    1.5240 C   0  0  2  0  0  0  0  0  0  0  0  0
   -6.9013   -4.3525    2.9354 C   0  0  0  0  0  0  0  0  0  0  0  0
   -8.0734   -4.6015    3.8203 C   0  0  0  0  0  0  0  0  0  0  0  0
   -8.4677   -5.9410    3.9341 C   0  0  0  0  0  0  0  0  0  0  0  0
   -9.5396   -6.3124    4.7188 C   0  0  0  0  0  0  0  0  0  0  0  0
  -10.2049   -5.3004    5.3878 C   0  0  0  0  0  0  0  0  0  0  0  0
   -9.8365   -3.9707    5.2947 C   0  0  0  0  0  0  0  0  0  0  0  0
   -8.7484   -3.6154    4.4935 C   0  0  0  0  0  0  0  0  0  0  0  0
  -11.2900   -5.6814    6.1816 O   0  0  0  0  0  0  0  0  0  0  0  0
   -8.0306   -5.2510    0.9589 N   0  0  0  0  0  0  0  0  0  0  0  0
   -5.1163   -4.8955    0.7433 O   0  0  0  0  0  0  0  0  0  0  0  0
   -5.8351    3.8068   -0.8364 C   0  0  0  0  0  0  0  0  0  0  0  0
   -6.3234    4.9317   -1.1076 N   0  0  0  0  0  0  0  0  0  0  0  0
   -7.5803    5.4856   -0.7207 C   0  0  2  0  0  0  0  0  0  0  0  0
   -7.8912    5.4466    0.7142 C   0  0  0  0  0  0  0  0  0  0  0  0
   -7.0876    5.1645    1.6545 N   0  0  0  0  0  0  0  0  0  0  0  0
   -9.2108    5.7532    1.0882 O   0  0  0  0  0  0  0  0  0  0  0  0
   -8.6925    4.9436   -1.5935 C   0  0  0  0  0  0  0  0  0  0  0  0
   -8.4104    5.3175   -3.0247 C   0  0  0  0  0  0  0  0  0  0  0  0
   -7.6752    4.5105   -3.8619 C   0  0  0  0  0  0  0  0  0  0  0  0
   -7.4102    4.8500   -5.1560 C   0  0  0  0  0  0  0  0  0  0  0  0
   -7.9102    6.0553   -5.6188 C   0  0  0  0  0  0  0  0  0  0  0  0
   -8.6480    6.8814   -4.8028 C   0  0  0  0  0  0  0  0  0  0  0  0
   -8.9149    6.5243   -3.4773 C   0  0  0  0  0  0  0  0  0  0  0  0
   -7.6500    6.4222   -6.9431 O   0  0  0  0  0  0  0  0  0  0  0  0
   -6.4635    2.8187   -0.0578 O   0  0  0  0  0  0  0  0  0  0  0  0
   -1.7574    1.9456   -0.8184 O   0  0  0  0  0  0  0  0  0  0  0  0
    0.2669    2.8136    3.3704 O   0  0  0  0  0  0  0  0  0  0  0  0
    4.7553    4.1373    1.4556 O   0  0  0  0  0  0  0  0  0  0  0  0
    3.8591    1.9156   -0.9012 O   0  0  0  0  0  0  0  0  0  0  0  0
   13.2670   -4.8435   -0.5062 H   0  0  0  0  0  0  0  0  0  0  0  0
   12.4508   -3.8922   -1.8560 H   0  0  0  0  0  0  0  0  0  0  0  0
   11.1710   -1.8106    0.9124 H   0  0  0  0  0  0  0  0  0  0  0  0
   10.9220   -5.3924    0.9252 H   0  0  0  0  0  0  0  0  0  0  0  0
    9.0669   -4.4492    2.0719 H   0  0  0  0  0  0  0  0  0  0  0  0
    9.9405   -2.9169    2.0703 H   0  0  0  0  0  0  0  0  0  0  0  0
    9.2151   -2.5347   -0.2894 H   0  0  0  0  0  0  0  0  0  0  0  0
    8.2637   -4.1224   -0.2175 H   0  0  0  0  0  0  0  0  0  0  0  0
    7.9320   -1.6806    1.5965 H   0  0  0  0  0  0  0  0  0  0  0  0
    7.0266   -3.1746    1.8304 H   0  0  0  0  0  0  0  0  0  0  0  0
    5.7724   -1.3125    0.7894 H   0  0  0  0  0  0  0  0  0  0  0  0
    6.6448   -4.2852   -2.5656 H   0  0  0  0  0  0  0  0  0  0  0  0
    3.3653   -4.1672   -0.1329 H   0  0  0  0  0  0  0  0  0  0  0  0
    1.8865   -2.6530   -1.2656 H   0  0  0  0  0  0  0  0  0  0  0  0
    3.3027   -1.8483   -0.6086 H   0  0  0  0  0  0  0  0  0  0  0  0
    4.7729   -0.9456   -4.5517 H   0  0  0  0  0  0  0  0  0  0  0  0
    5.4263   -2.3081   -3.6803 H   0  0  0  0  0  0  0  0  0  0  0  0
    7.8258   -0.4660   -0.1015 H   0  0  0  0  0  0  0  0  0  0  0  0
    7.8075   -1.6238   -1.4103 H   0  0  0  0  0  0  0  0  0  0  0  0
    7.0333    1.1743   -0.0207 H   0  0  0  0  0  0  0  0  0  0  0  0
    6.4610    2.3259   -2.7903 H   0  0  0  0  0  0  0  0  0  0  0  0
    8.0220    1.9191   -1.9468 H   0  0  0  0  0  0  0  0  0  0  0  0
    5.3877    4.6449   -2.2506 H   0  0  0  0  0  0  0  0  0  0  0  0
    6.2287    6.7089   -0.7978 H   0  0  0  0  0  0  0  0  0  0  0  0
    9.1282    2.3061    0.1032 H   0  0  0  0  0  0  0  0  0  0  0  0
   10.5291    3.4325    1.6923 H   0  0  0  0  0  0  0  0  0  0  0  0
   10.1741    5.8320    2.2392 H   0  0  0  0  0  0  0  0  0  0  0  0
    8.3048    7.0441    1.0885 H   0  0  0  0  0  0  0  0  0  0  0  0
    2.9201    1.3615    1.5303 H   0  0  0  0  0  0  0  0  0  0  0  0
    3.2459    1.6848    3.8464 H   0  0  0  0  0  0  0  0  0  0  0  0
    4.4033    0.4223    3.2569 H   0  0  0  0  0  0  0  0  0  0  0  0
    5.9343    3.5114    5.2279 H   0  0  0  0  0  0  0  0  0  0  0  0
    7.3100    2.6760    3.6774 H   0  0  0  0  0  0  0  0  0  0  0  0
    1.4114    5.2958    2.8208 H   0  0  0  0  0  0  0  0  0  0  0  0
    0.5996    4.6849    0.0256 H   0  0  0  0  0  0  0  0  0  0  0  0
    0.3815    6.1746    1.0360 H   0  0  0  0  0  0  0  0  0  0  0  0
    2.0111    5.7965    0.3584 H   0  0  0  0  0  0  0  0  0  0  0  0
   -1.9753    1.9677    1.9676 H   0  0  0  0  0  0  0  0  0  0  0  0
   -4.0209    3.3163    2.1938 H   0  0  0  0  0  0  0  0  0  0  0  0
   -3.1364    4.7216    1.4666 H   0  0  0  0  0  0  0  0  0  0  0  0
   -3.5094    2.7585    4.6407 H   0  0  0  0  0  0  0  0  0  0  0  0
   -2.6579    3.7031    6.8153 H   0  0  0  0  0  0  0  0  0  0  0  0
   -1.3120    5.7382    6.8460 H   0  0  0  0  0  0  0  0  0  0  0  0
   -0.7903    6.8598    4.6945 H   0  0  0  0  0  0  0  0  0  0  0  0
   -1.5846    5.9735    2.6177 H   0  0  0  0  0  0  0  0  0  0  0  0
   -4.1442    4.1777   -2.0732 H   0  0  0  0  0  0  0  0  0  0  0  0
   -3.7421    1.6904   -2.4715 H   0  0  0  0  0  0  0  0  0  0  0  0
   -5.2618    2.4353   -3.0806 H   0  0  0  0  0  0  0  0  0  0  0  0
   -3.3134   -2.0566    0.3950 H   0  0  0  0  0  0  0  0  0  0  0  0
   -3.2192   -1.2389   -1.2352 H   0  0  0  0  0  0  0  0  0  0  0  0
   -5.3726   -1.9907   -1.8398 H   0  0  0  0  0  0  0  0  0  0  0  0
   -2.7626   -5.7908   -2.0107 H   0  0  0  0  0  0  0  0  0  0  0  0
    1.3901   -4.8071   -0.0966 H   0  0  0  0  0  0  0  0  0  0  0  0
    2.4548   -6.4458   -3.8514 H   0  0  0  0  0  0  0  0  0  0  0  0
    2.3246   -6.9598    0.3372 H   0  0  0  0  0  0  0  0  0  0  0  0
    1.2223   -7.6951   -0.9544 H   0  0  0  0  0  0  0  0  0  0  0  0
    0.4919   -7.0599    0.5308 H   0  0  0  0  0  0  0  0  0  0  0  0
    0.7980   -3.7813   -3.0443 H   0  0  0  0  0  0  0  0  0  0  0  0
   -2.0503   -3.8266   -4.2632 H   0  0  0  0  0  0  0  0  0  0  0  0
   -3.6073   -4.6956   -4.0678 H   0  0  0  0  0  0  0  0  0  0  0  0
   -1.1715   -7.3201   -3.1174 H   0  0  0  0  0  0  0  0  0  0  0  0
   -1.2010   -7.7249   -7.2606 H   0  0  0  0  0  0  0  0  0  0  0  0
   -2.3203   -5.4428   -6.7123 H   0  0  0  0  0  0  0  0  0  0  0  0
   -4.7310   -5.6661   -2.1891 H   0  0  0  0  0  0  0  0  0  0  0  0
   -7.9821   -3.2450    1.4214 H   0  0  0  0  0  0  0  0  0  0  0  0
   -6.3233   -3.4735    3.2776 H   0  0  0  0  0  0  0  0  0  0  0  0
   -6.2406   -5.2216    2.9798 H   0  0  0  0  0  0  0  0  0  0  0  0
   -7.9356   -6.7151    3.4086 H   0  0  0  0  0  0  0  0  0  0  0  0
   -9.8446   -7.3639    4.8032 H   0  0  0  0  0  0  0  0  0  0  0  0
  -10.4062   -3.2361    5.8468 H   0  0  0  0  0  0  0  0  0  0  0  0
   -8.4360   -2.5989    4.4043 H   0  0  0  0  0  0  0  0  0  0  0  0
  -11.4314   -6.6254    6.4845 H   0  0  0  0  0  0  0  0  0  0  0  0
   -8.1715   -5.0286   -0.0464 H   0  0  0  0  0  0  0  0  0  0  0  0
   -7.5154   -6.1315    1.0794 H   0  0  0  0  0  0  0  0  0  0  0  0
   -4.1363   -4.6337    0.6650 H   0  0  0  0  0  0  0  0  0  0  0  0
   -7.5169    6.6054   -0.9794 H   0  0  0  0  0  0  0  0  0  0  0  0
   -6.0999    4.9184    1.6030 H   0  0  0  0  0  0  0  0  0  0  0  0
   -9.5579    5.3548    1.9666 H   0  0  0  0  0  0  0  0  0  0  0  0
   -9.6772    5.3621   -1.3253 H   0  0  0  0  0  0  0  0  0  0  0  0
   -8.7589    3.8456   -1.5417 H   0  0  0  0  0  0  0  0  0  0  0  0
   -7.3112    3.5749   -3.4520 H   0  0  0  0  0  0  0  0  0  0  0  0
   -6.8309    4.1921   -5.7804 H   0  0  0  0  0  0  0  0  0  0  0  0
   -9.0510    7.8400   -5.1454 H   0  0  0  0  0  0  0  0  0  0  0  0
   -9.4894    7.1512   -2.8148 H   0  0  0  0  0  0  0  0  0  0  0  0
   -7.7057    7.3848   -7.2574 H   0  0  0  0  0  0  0  0  0  0  0  0
   -7.4357    2.8611    0.1701 H   0  0  0  0  0  0  0  0  0  0  0  0
   -1.5720    2.3075   -1.7701 H   0  0  0  0  0  0  0  0  0  0  0  0
   -0.5431    2.3142    3.6464 H   0  0  0  0  0  0  0  0  0  0  0  0
    4.7268    5.1277    1.5987 H   0  0  0  0  0  0  0  0  0  0  0  0
    3.1993    2.5905   -0.5779 H   0  0  0  0  0  0  0  0  0  0  0  0
  1  2  1  0
  2  3  2  3
  2  4  1  0
  4  5  1  0
  5  6  1  0
  6  7  1  0
  7  8  1  0
  8  9  1  0
  9 10  2  3
 10 11  1  0
 10 12  1  0
 12 13  1  0
 13 14  1  0
 14 15  1  0
 15 16  1  0
 16 17  2  0
 16 18  1  0
 18 19  1  0
 18 20  1  0
 20 21  1  0
 21 22  1  0
 22 23  2  0
 23 24  1  0
 24 25  1  0
 25 26  2  0
 26 27  1  0
 27 28  2  0
 28 29  1  0
 29 30  2  0
 20 31  1  0
 31 32  2  3
 32 33  1  0
 33 34  1  0
 34 35  1  0
 35 36  2  3
 35 37  1  0
 33 38  1  0
 38 39  2  3
 39 40  1  0
 40 41  1  0
 40 42  1  0
 42 43  2  3
 43 44  1  0
 44 45  1  0
 45 46  1  0
 46 47  2  0
 47 48  1  0
 48 49  2  0
 49 50  1  0
 50 51  2  0
 44 52  1  0
 52 53  2  3
 53 54  1  0
 54 55  1  0
 55 56  1  0
 56 57  1  0
 57 58  1  0
 58 59  1  0
 59 60  1  0
 60 61  2  3
 61 62  1  0
 62 63  1  0
 63 64  2  3
 64 65  1  0
 65 66  1  0
 66 67  2  3
 66 68  1  0
 65 69  1  0
 63 70  1  0
 62 71  1  0
 71 72  1  0
 72 73  2  0
 73 74  1  0
 74 75  2  0
 75 76  1  0
 60 77  1  0
 59 78  1  0
 78 79  2  3
 79 80  1  0
 80 81  1  0
 81 82  1  0
 82 83  2  0
 83 84  1  0
 84 85  2  0
 85 86  1  0
 86 87  2  0
 85 88  1  0
 80 89  1  0
 79 90  1  0
 54 91  1  0
 91 92  2  3
 92 93  1  0
 93 94  1  0
 94 95  2  3
 94 96  1  0
 93 97  1  0
 97 98  1  0
 98 99  2  0
 99100  1  0
100101  2  0
101102  1  0
102103  2  0
101104  1  0
 91105  1  0
 52106  1  0
 42107  1  0
 38108  1  0
 31109  1  0
 19  8  1  0
 26 22  1  0
 51 46  1  0
 76 72  1  0
 87 82  1  0
103 98  1  0
 67 12  1  0
 30 25  1  0
  1110  1  0
  1111  1  0
  3112  1  0
  4113  1  0
  5114  1  0
  5115  1  0
  6116  1  0
  6117  1  0
  7118  1  0
  7119  1  0
  8120  1  1
 11121  1  0
 12122  1  1
 13123  1  0
 13124  1  0
 15125  1  0
 15126  1  0
 19127  1  0
 19128  1  0
 20129  1  1
 21130  1  0
 21131  1  0
 23132  1  0
 24133  1  0
 27134  1  0
 28135  1  0
 29136  1  0
 30137  1  0
 33138  1  6
 34139  1  0
 34140  1  0
 36141  1  0
 37142  1  0
 40143  1  1
 41144  1  0
 41145  1  0
 41146  1  0
 44147  1  1
 45148  1  0
 45149  1  0
 47150  1  0
 48151  1  0
 49152  1  0
 50153  1  0
 51154  1  0
 54155  1  6
 55156  1  0
 55157  1  0
 58158  1  0
 58159  1  0
 59160  1  6
 62161  1  1
 65162  1  1
 68163  1  0
 69164  1  0
 69165  1  0
 69166  1  0
 70167  1  0
 71168  1  0
 71169  1  0
 73170  1  0
 75171  1  0
 76172  1  0
 77173  1  0
 80174  1  1
 81175  1  0
 81176  1  0
 83177  1  0
 84178  1  0
 86179  1  0
 87180  1  0
 88181  1  0
 89182  1  0
 89183  1  0
 90184  1  0
 93185  1  6
 95186  1  0
 96187  1  0
 97188  1  0
 97189  1  0
 99190  1  0
100191  1  0
102192  1  0
103193  1  0
104194  1  0
105195  1  0
106196  1  0
107197  1  0
108198  1  0
109199  1  0
M  END
>  <Ligand ID>  (1) 
LIG0001114

>  <Ligand>  (1) 
CID 102096776

>  <SMILES>  (1) 
NC(=N)NCCC[C@@H]1N=C(O)[C@H]2CSCC(=O)N(C1)[C@@H](Cc1c[nH]c3c1cccc3)C(=N[C@@H](CC(=N)O)C(=N[C@@H](C)C(=N[C@@H](Cc1ccccc1)C(=N[C@@H](CSSC[C@@H](C(=N[C@H](C(=N[C@H](C(=N2)O)C)O)Cc1cnc[nH]1)O)N=C([C@H](Cc1ccc(cc1)O)N)O)C(=N[C@H](C(=N)O)Cc1ccc(cc1)O)O)O)O)O)O

>  <CID>  (1) 
102096776.0

>  <ChEMBL ID>  (1) 
nan

>  <InChiKey>  (1) 
APKRYKHCQYCPOP-GWRXOYJXSA-N

>  <InChi>  (1) 
InChI=1S/C71H90N20O15S3/c1-37-61(97)85-51(25-39-9-4-3-5-10-39)66(102)90-56(68(104)84-50(60(74)96)24-41-16-20-46(93)21-17-41)34-109-108-33-55(89-63(99)48(72)23-40-14-18-45(92)19-15-40)69(105)86-52(27-44-30-77-36-80-44)64(100)81-38(2)62(98)88-54-32-107-35-59(95)91(31-43(83-67(54)103)11-8-22-78-71(75)76)57(26-42-29-79-49-13-7-6-12-47(42)49)70(106)87-53(28-58(73)94)65(101)82-37/h3-7,9-10,12-21,29-30,36-38,43,48,50-57,79,92-93H,8,11,22-28,31-35,72H2,1-2H3,(H2,73,94)(H2,74,96)(H,77,80)(H,81,100)(H,82,101)(H,83,103)(H,84,104)(H,85,97)(H,86,105)(H,87,106)(H,88,98)(H,89,99)(H,90,102)(H4,75,76,78)/t37-,38-,43-,48-,50-,51-,52-,53-,54+,55-,56-,57-/m0/s1

>  <IUPAC Name>  (1) 
(2S,5S,8S,11S,14R,19R,22S,25S,28S,34S)-19-[[(2S)-2-amino-1-hydroxy-3-(4-hydroxyphenyl)propylidene]amino]-11-benzyl-34-(3-carbamimidamidopropyl)-3,6,9,12,20,23,26,36-octahydroxy-N-[(2S)-1-hydroxy-3-(4-hydroxyphenyl)-1-iminopropan-2-yl]-5-(2-hydroxy-2-iminoethyl)-22-(1H-imidazol-5-ylmethyl)-2-(1H-indol-3-ylmethyl)-8,25-dimethyl-32-oxo-16,17,30-trithia-1,4,7,10,13,21,24,27,35-nonazabicyclo[26.4.4]hexatriaconta-3,6,9,12,20,23,26,35-octaene-14-carboximidic acid

$$$$
