
     RDKit          3D

 85 92  0  0  0  0  0  0  0  0999 V2000
    0.8839    3.1011   -2.1978 C   0  0  0  0  0  0  0  0  0  0  0  0
    1.0769    1.9297   -1.5289 O   0  0  0  0  0  0  0  0  0  0  0  0
   -0.0357    1.3321   -0.9723 C   0  0  2  0  0  0  0  0  0  0  0  0
   -0.7079    2.2402    0.0273 C   0  0  0  0  0  0  0  0  0  0  0  0
   -1.6534    1.4575    0.8729 C   0  0  0  0  0  0  0  0  0  0  0  0
   -1.9789    0.1495    0.1910 C   0  0  2  0  0  0  0  0  0  0  0  0
   -0.7577   -0.7137    0.3240 C   0  0  0  0  0  0  0  0  0  0  0  0
    0.3932    0.0247   -0.3485 C   0  0  2  0  0  0  0  0  0  0  0  0
    1.6083   -0.0235    0.4712 C   0  0  1  0  0  0  0  0  0  0  0  0
    2.9175    0.3374   -0.1716 C   0  0  0  0  0  0  0  0  0  0  0  0
    4.0014    0.1740    0.8784 C   0  0  0  0  0  0  0  0  0  0  0  0
    5.3713    0.4972    0.3659 C   0  0  0  0  0  0  0  0  0  0  0  0
    6.3731    0.3061    1.4770 C   0  0  0  0  0  0  0  0  0  0  0  0
    6.8539   -1.1182    1.6245 C   0  0  0  0  0  0  0  0  0  0  0  0
    7.5120   -1.6293    0.3819 C   0  0  0  0  0  0  0  0  0  0  0  0
    7.2558   -0.6232   -0.7136 C   0  0  0  0  0  0  0  0  0  0  0  0
    5.7890   -0.2762   -0.8325 C   0  0  0  0  0  0  0  0  0  0  0  0
    1.5324    0.7682    1.6296 O   0  0  0  0  0  0  0  0  0  0  0  0
    1.8502   -1.4456    1.0282 C   0  0  0  0  0  0  0  0  0  0  0  0
   -2.2361    0.3598   -1.2663 C   0  0  2  0  0  0  0  0  0  0  0  0
   -1.0611    0.9596   -2.0169 C   0  0  1  0  0  0  0  0  0  0  0  0
   -1.6596    1.9987   -2.7434 O   0  0  0  0  0  0  0  0  0  0  0  0
   -2.8695    2.4146   -2.2070 C   0  0  0  0  0  0  0  0  0  0  0  0
   -3.2148    1.4795   -1.2778 C   0  0  0  0  0  0  0  0  0  0  0  0
   -4.2888    1.4405   -0.4762 C   0  0  0  0  0  0  0  0  0  0  0  0
   -4.4318    0.3838    0.5304 C   0  0  0  0  0  0  0  0  0  0  0  0
   -3.2397   -0.4769    0.7777 C   0  0  1  0  0  0  0  0  0  0  0  0
   -3.3340   -1.7492    0.1066 N   0  0  0  0  0  0  0  0  0  0  0  0
   -3.7050   -1.6824   -1.2391 C   0  0  0  0  0  0  0  0  0  0  0  0
   -2.7610   -0.7957   -2.0010 C   0  0  0  0  0  0  0  0  0  0  0  0
   -3.4719   -2.9068    0.8552 C   0  0  0  0  0  0  0  0  0  0  0  0
   -4.7410   -3.1309    1.6064 C   0  0  0  0  0  0  0  0  0  0  0  0
   -4.8684   -4.4503    2.4353 C   0  0  0  0  0  0  0  0  0  0  0  0
   -4.5546   -3.2027    3.1366 C   0  0  0  0  0  0  0  0  0  0  0  0
   -5.1890    2.5060   -0.6185 C   0  0  0  0  0  0  0  0  0  0  0  0
   -4.9066    3.5063   -1.5591 C   0  0  0  0  0  0  0  0  0  0  0  0
   -3.7554    3.4684   -2.3520 C   0  0  0  0  0  0  0  0  0  0  0  0
   -3.4610    4.4473   -3.2830 O   0  0  0  0  0  0  0  0  0  0  0  0
    1.9149    3.4338   -2.5496 H   0  0  0  0  0  0  0  0  0  0  0  0
    0.5072    3.9087   -1.5674 H   0  0  0  0  0  0  0  0  0  0  0  0
    0.3319    3.0050   -3.1698 H   0  0  0  0  0  0  0  0  0  0  0  0
    0.0338    2.8198    0.6262 H   0  0  0  0  0  0  0  0  0  0  0  0
   -1.2742    3.0127   -0.5246 H   0  0  0  0  0  0  0  0  0  0  0  0
   -2.5558    2.0441    1.1604 H   0  0  0  0  0  0  0  0  0  0  0  0
   -1.1533    1.2215    1.8333 H   0  0  0  0  0  0  0  0  0  0  0  0
   -0.8828   -1.7506   -0.0408 H   0  0  0  0  0  0  0  0  0  0  0  0
   -0.5842   -0.8137    1.4178 H   0  0  0  0  0  0  0  0  0  0  0  0
    0.6123   -0.6299   -1.2621 H   0  0  0  0  0  0  0  0  0  0  0  0
    3.0467   -0.3463   -1.0282 H   0  0  0  0  0  0  0  0  0  0  0  0
    2.8939    1.3900   -0.5214 H   0  0  0  0  0  0  0  0  0  0  0  0
    4.0113   -0.8396    1.3153 H   0  0  0  0  0  0  0  0  0  0  0  0
    3.7623    0.8765    1.6962 H   0  0  0  0  0  0  0  0  0  0  0  0
    5.4317    1.5877    0.0702 H   0  0  0  0  0  0  0  0  0  0  0  0
    7.2499    0.9783    1.3892 H   0  0  0  0  0  0  0  0  0  0  0  0
    5.9101    0.5809    2.4617 H   0  0  0  0  0  0  0  0  0  0  0  0
    7.6463   -1.0784    2.4068 H   0  0  0  0  0  0  0  0  0  0  0  0
    6.0848   -1.8062    1.9695 H   0  0  0  0  0  0  0  0  0  0  0  0
    7.0457   -2.5920    0.1001 H   0  0  0  0  0  0  0  0  0  0  0  0
    8.5918   -1.8434    0.4993 H   0  0  0  0  0  0  0  0  0  0  0  0
    7.7981    0.3069   -0.4570 H   0  0  0  0  0  0  0  0  0  0  0  0
    7.6681   -0.9761   -1.6915 H   0  0  0  0  0  0  0  0  0  0  0  0
    5.7303    0.3321   -1.7812 H   0  0  0  0  0  0  0  0  0  0  0  0
    5.2243   -1.2299   -0.9288 H   0  0  0  0  0  0  0  0  0  0  0  0
    1.9104    1.6631    1.5239 H   0  0  0  0  0  0  0  0  0  0  0  0
    2.2275   -1.4393    2.0508 H   0  0  0  0  0  0  0  0  0  0  0  0
    2.5953   -1.9547    0.3889 H   0  0  0  0  0  0  0  0  0  0  0  0
    0.9224   -2.0628    0.9097 H   0  0  0  0  0  0  0  0  0  0  0  0
   -0.6694    0.1695   -2.7059 H   0  0  0  0  0  0  0  0  0  0  0  0
   -4.7792    0.8226    1.5271 H   0  0  0  0  0  0  0  0  0  0  0  0
   -5.3148   -0.2644    0.2570 H   0  0  0  0  0  0  0  0  0  0  0  0
   -3.0925   -0.6808    1.8568 H   0  0  0  0  0  0  0  0  0  0  0  0
   -4.7450   -1.2603   -1.3805 H   0  0  0  0  0  0  0  0  0  0  0  0
   -3.6950   -2.7199   -1.6548 H   0  0  0  0  0  0  0  0  0  0  0  0
   -1.9634   -1.4094   -2.5064 H   0  0  0  0  0  0  0  0  0  0  0  0
   -3.3600   -0.3943   -2.8828 H   0  0  0  0  0  0  0  0  0  0  0  0
   -3.3505   -3.7907    0.1667 H   0  0  0  0  0  0  0  0  0  0  0  0
   -2.5739   -2.9969    1.5289 H   0  0  0  0  0  0  0  0  0  0  0  0
   -5.6804   -2.6581    1.3079 H   0  0  0  0  0  0  0  0  0  0  0  0
   -4.0922   -5.2257    2.2296 H   0  0  0  0  0  0  0  0  0  0  0  0
   -5.8883   -4.8836    2.4657 H   0  0  0  0  0  0  0  0  0  0  0  0
   -5.3155   -2.7492    3.7862 H   0  0  0  0  0  0  0  0  0  0  0  0
   -3.5201   -3.1327    3.5392 H   0  0  0  0  0  0  0  0  0  0  0  0
   -6.0756    2.5323   -0.0025 H   0  0  0  0  0  0  0  0  0  0  0  0
   -5.6123    4.3446   -1.6752 H   0  0  0  0  0  0  0  0  0  0  0  0
   -3.5084    5.4413   -3.0690 H   0  0  0  0  0  0  0  0  0  0  0  0
  1  2  1  0
  3  2  1  6
  3  4  1  0
  4  5  1  0
  6  5  1  1
  6  7  1  0
  7  8  1  0
  8  9  1  0
  9 10  1  0
 10 11  1  0
 11 12  1  0
 12 13  1  0
 13 14  1  0
 14 15  1  0
 15 16  1  0
 16 17  1  0
  9 18  1  1
  9 19  1  0
  6 20  1  0
 20 21  1  0
 21 22  1  0
 22 23  1  0
 23 24  2  0
 24 25  1  0
 25 26  1  0
 26 27  1  0
 27 28  1  0
 28 29  1  0
 29 30  1  0
 28 31  1  0
 31 32  1  0
 32 33  1  0
 33 34  1  0
 25 35  2  0
 35 36  1  0
 36 37  2  0
 37 38  1  0
  8  3  1  0
 17 12  1  0
 20 30  1  6
 34 32  1  0
 21  3  1  0
 37 23  1  0
 27  6  1  0
 24 20  1  0
  1 39  1  0
  1 40  1  0
  1 41  1  0
  4 42  1  0
  4 43  1  0
  5 44  1  0
  5 45  1  0
  7 46  1  0
  7 47  1  0
  8 48  1  6
 10 49  1  0
 10 50  1  0
 11 51  1  0
 11 52  1  0
 12 53  1  0
 13 54  1  0
 13 55  1  0
 14 56  1  0
 14 57  1  0
 15 58  1  0
 15 59  1  0
 16 60  1  0
 16 61  1  0
 17 62  1  0
 17 63  1  0
 18 64  1  0
 19 65  1  0
 19 66  1  0
 19 67  1  0
 21 68  1  6
 26 69  1  0
 26 70  1  0
 27 71  1  1
 29 72  1  0
 29 73  1  0
 30 74  1  0
 30 75  1  0
 31 76  1  0
 31 77  1  0
 32 78  1  0
 33 79  1  0
 33 80  1  0
 34 81  1  0
 34 82  1  0
 35 83  1  0
 36 84  1  0
 38 85  1  0
M  END
>  <Ligand ID>  (1) 
LIG0005133

>  <Ligand>  (1) 
CHEMBL2338751

>  <SMILES>  (1) 
CO[C@]12CC[C@]3(C[C@@H]1[C@@](CCC1CCCCC1)(O)C)[C@@]14[C@H]2Oc2c4c(C[C@H]3N(CC1)CC1CC1)ccc2O

>  <CID>  (1) 
71624556.0

>  <ChEMBL ID>  (1) 
nan

>  <InChiKey>  (1) 
YYGPGGFPRRXHSI-VTRXWXBFSA-N

>  <InChi>  (1) 
InChI=1S/C33H47NO4/c1-30(36,13-12-21-6-4-3-5-7-21)25-19-31-14-15-33(25,37-2)29-32(31)16-17-34(20-22-8-9-22)26(31)18-23-10-11-24(35)28(38-29)27(23)32/h10-11,21-22,25-26,29,35-36H,3-9,12-20H2,1-2H3/t25-,26-,29-,30-,31-,32+,33-/m1/s1

>  <IUPAC Name>  (1) 
(1S,2S,6R,14R,15R,16R)-16-[(2R)-4-cyclohexyl-2-hydroxybutan-2-yl]-5-(cyclopropylmethyl)-15-methoxy-13-oxa-5-azahexacyclo[13.2.2.12,8.01,6.02,14.012,20]icosa-8(20),9,11-trien-11-ol

$$$$
