
     RDKit          3D

 60 63  0  0  0  0  0  0  0  0999 V2000
   -0.5261    1.7994    1.7084 O   0  0  0  0  0  0  0  0  0  0  0  0
   -0.4413    0.7239    1.0229 C   0  0  0  0  0  0  0  0  0  0  0  0
   -1.3192    0.5075   -0.1134 C   0  0  0  0  0  0  0  0  0  0  0  0
   -1.0527    1.2560   -1.2558 C   0  0  0  0  0  0  0  0  0  0  0  0
   -1.8448    1.1092   -2.3753 C   0  0  0  0  0  0  0  0  0  0  0  0
   -2.8877    0.2111   -2.3204 C   0  0  0  0  0  0  0  0  0  0  0  0
   -3.1797   -0.5464   -1.2058 C   0  0  0  0  0  0  0  0  0  0  0  0
   -2.3751   -0.3797   -0.1047 C   0  0  0  0  0  0  0  0  0  0  0  0
   -4.5223   -1.6345   -1.2758 S   0  0  0  0  0  0  0  0  0  0  0  0
   -4.2848   -2.8508   -0.4355 O   0  0  0  0  0  0  0  0  0  0  0  0
   -4.7213   -2.0593   -2.7121 O   0  0  0  0  0  0  0  0  0  0  0  0
   -6.0125   -0.9296   -0.7682 N   0  0  0  0  0  0  0  0  0  0  0  0
   -5.8775   -0.5215    0.6172 C   0  0  0  0  0  0  0  0  0  0  0  0
   -5.6808    0.9701    0.7587 C   0  0  0  0  0  0  0  0  0  0  0  0
   -6.8717    1.5949    0.3985 O   0  0  0  0  0  0  0  0  0  0  0  0
   -7.3587    1.0995   -0.7904 C   0  0  0  0  0  0  0  0  0  0  0  0
   -6.3416    0.2521   -1.5401 C   0  0  0  0  0  0  0  0  0  0  0  0
    0.5450   -0.2005    1.4526 N   0  0  0  0  0  0  0  0  0  0  0  0
    1.3700    0.1164    2.6053 C   0  0  0  0  0  0  0  0  0  0  0  0
    2.8348    0.0012    2.3772 C   0  0  0  0  0  0  0  0  0  0  0  0
    3.0551   -0.5964    1.0754 N   0  0  0  0  0  0  0  0  0  0  0  0
    2.2706   -1.7387    0.6430 C   0  0  0  0  0  0  0  0  0  0  0  0
    0.7913   -1.4676    0.8031 C   0  0  0  0  0  0  0  0  0  0  0  0
    4.0440   -0.0872    0.1812 C   0  0  0  0  0  0  0  0  0  0  0  0
    3.5634    0.3736   -1.0431 C   0  0  0  0  0  0  0  0  0  0  0  0
    4.4312    0.8893   -1.9824 C   0  0  0  0  0  0  0  0  0  0  0  0
    5.7678    0.9284   -1.6648 C   0  0  0  0  0  0  0  0  0  0  0  0
    6.2596    0.4681   -0.4391 C   0  0  0  0  0  0  0  0  0  0  0  0
    5.3905   -0.0473    0.4995 C   0  0  0  0  0  0  0  0  0  0  0  0
    5.8565   -0.5525    1.8119 C   0  0  0  0  0  0  0  0  0  0  0  0
    7.6982    0.5428   -0.1732 C   0  0  0  0  0  0  0  0  0  0  0  0
   -0.2470    1.9532   -1.3103 H   0  0  0  0  0  0  0  0  0  0  0  0
   -1.6806    1.6719   -3.2937 H   0  0  0  0  0  0  0  0  0  0  0  0
   -3.5039    0.1063   -3.2141 H   0  0  0  0  0  0  0  0  0  0  0  0
   -2.5770   -0.9591    0.7854 H   0  0  0  0  0  0  0  0  0  0  0  0
   -6.7925   -0.7690    1.2184 H   0  0  0  0  0  0  0  0  0  0  0  0
   -4.9831   -0.9983    1.0682 H   0  0  0  0  0  0  0  0  0  0  0  0
   -5.4263    1.1776    1.8201 H   0  0  0  0  0  0  0  0  0  0  0  0
   -4.8939    1.3346    0.0884 H   0  0  0  0  0  0  0  0  0  0  0  0
   -8.2590    0.4737   -0.6352 H   0  0  0  0  0  0  0  0  0  0  0  0
   -7.6716    1.9553   -1.3997 H   0  0  0  0  0  0  0  0  0  0  0  0
   -6.8831   -0.1081   -2.4580 H   0  0  0  0  0  0  0  0  0  0  0  0
   -5.4682    0.8112   -1.8769 H   0  0  0  0  0  0  0  0  0  0  0  0
    1.0286   -0.5120    3.4624 H   0  0  0  0  0  0  0  0  0  0  0  0
    1.1400    1.1674    2.9272 H   0  0  0  0  0  0  0  0  0  0  0  0
    3.3079   -0.6078    3.1788 H   0  0  0  0  0  0  0  0  0  0  0  0
    3.3072    1.0230    2.4037 H   0  0  0  0  0  0  0  0  0  0  0  0
    2.5334   -2.0706   -0.3659 H   0  0  0  0  0  0  0  0  0  0  0  0
    2.5507   -2.5832    1.3251 H   0  0  0  0  0  0  0  0  0  0  0  0
    0.3165   -2.2995    1.3619 H   0  0  0  0  0  0  0  0  0  0  0  0
    0.3485   -1.4830   -0.2159 H   0  0  0  0  0  0  0  0  0  0  0  0
    2.5080    0.3440   -1.2977 H   0  0  0  0  0  0  0  0  0  0  0  0
    4.0651    1.2458   -2.9281 H   0  0  0  0  0  0  0  0  0  0  0  0
    6.4953    1.3265   -2.3748 H   0  0  0  0  0  0  0  0  0  0  0  0
    5.5228    0.1415    2.5997 H   0  0  0  0  0  0  0  0  0  0  0  0
    6.9644   -0.6066    1.8181 H   0  0  0  0  0  0  0  0  0  0  0  0
    5.4047   -1.5790    1.9277 H   0  0  0  0  0  0  0  0  0  0  0  0
    7.9465    1.3110    0.5882 H   0  0  0  0  0  0  0  0  0  0  0  0
    8.1146   -0.4304    0.1484 H   0  0  0  0  0  0  0  0  0  0  0  0
    8.2518    0.8351   -1.1061 H   0  0  0  0  0  0  0  0  0  0  0  0
  1  2  2  0
  2  3  1  0
  3  4  2  0
  4  5  1  0
  5  6  2  0
  6  7  1  0
  7  8  2  0
  7  9  1  0
  9 10  2  0
  9 11  2  0
  9 12  1  0
 12 13  1  0
 13 14  1  0
 14 15  1  0
 15 16  1  0
 16 17  1  0
  2 18  1  0
 18 19  1  0
 19 20  1  0
 20 21  1  0
 21 22  1  0
 22 23  1  0
 21 24  1  0
 24 25  2  0
 25 26  1  0
 26 27  2  0
 27 28  1  0
 28 29  2  0
 29 30  1  0
 28 31  1  0
  8  3  1  0
 17 12  1  0
 23 18  1  0
 29 24  1  0
  4 32  1  0
  5 33  1  0
  6 34  1  0
  8 35  1  0
 13 36  1  0
 13 37  1  0
 14 38  1  0
 14 39  1  0
 16 40  1  0
 16 41  1  0
 17 42  1  0
 17 43  1  0
 19 44  1  0
 19 45  1  0
 20 46  1  0
 20 47  1  0
 22 48  1  0
 22 49  1  0
 23 50  1  0
 23 51  1  0
 25 52  1  0
 26 53  1  0
 27 54  1  0
 30 55  1  0
 30 56  1  0
 30 57  1  0
 31 58  1  0
 31 59  1  0
 31 60  1  0
M  END
>  <Ligand ID>  (1) 
LIG0001672

>  <Ligand>  (1) 
MLS-0399818.0001

>  <SMILES>  (1) 
O=C(c1cccc(c1)S(=O)(=O)N1CCOCC1)N1CCN(CC1)c1cccc(c1C)C

>  <CID>  (1) 
3908738.0

>  <ChEMBL ID>  (1) 
nan

>  <InChiKey>  (1) 
UVAFHMYGZBIABL-UHFFFAOYSA-N

>  <InChi>  (1) 
InChI=1S/C23H29N3O4S/c1-18-5-3-8-22(19(18)2)24-9-11-25(12-10-24)23(27)20-6-4-7-21(17-20)31(28,29)26-13-15-30-16-14-26/h3-8,17H,9-16H2,1-2H3

>  <IUPAC Name>  (1) 
[4-(2,3-dimethylphenyl)piperazin-1-yl]-(3-morpholin-4-ylsulfonylphenyl)methanone

$$$$
