
     RDKit          3D

 52 53  0  0  0  0  0  0  0  0999 V2000
    7.3695    2.8705   -0.4116 C   0  0  0  0  0  0  0  0  0  0  0  0
    7.2706    1.6865   -1.2103 O   0  0  0  0  0  0  0  0  0  0  0  0
    6.2744    0.7638   -0.8206 C   0  0  0  0  0  0  0  0  0  0  0  0
    6.1032   -0.4023   -1.5494 C   0  0  0  0  0  0  0  0  0  0  0  0
    5.1455   -1.3476   -1.2205 C   0  0  0  0  0  0  0  0  0  0  0  0
    4.3618   -1.0794   -0.1284 C   0  0  0  0  0  0  0  0  0  0  0  0
    4.5247    0.0861    0.6138 C   0  0  0  0  0  0  0  0  0  0  0  0
    5.4747    1.0239    0.2850 C   0  0  0  0  0  0  0  0  0  0  0  0
    3.2314   -1.9825    0.3051 C   0  0  0  0  0  0  0  0  0  0  0  0
    1.9777   -1.3985   -0.2449 C   0  0  0  0  0  0  0  0  0  0  0  0
    0.7627   -2.1894    0.0791 C   0  0  2  0  0  0  0  0  0  0  0  0
   -0.4253   -1.5058   -0.4873 N   0  0  0  0  0  0  0  0  0  0  0  0
   -1.5973   -2.1761   -0.1185 C   0  0  0  0  0  0  0  0  0  0  0  0
   -2.8688   -1.3836   -0.4347 C   0  0  1  0  0  0  0  0  0  0  0  0
   -2.8974   -0.1126    0.4092 C   0  0  0  0  0  0  0  0  0  0  0  0
   -3.9909    0.5845    0.3176 O   0  0  0  0  0  0  0  0  0  0  0  0
   -5.0542    1.2820    0.1404 C   0  0  0  0  0  0  0  0  0  0  0  0
   -5.3863    1.7749   -1.1401 C   0  0  0  0  0  0  0  0  0  0  0  0
   -6.5394    2.5300   -1.2925 C   0  0  0  0  0  0  0  0  0  0  0  0
   -7.3324    2.7835   -0.2021 C   0  0  0  0  0  0  0  0  0  0  0  0
   -7.0519    2.3238    1.0679 C   0  0  0  0  0  0  0  0  0  0  0  0
   -5.9104    1.5768    1.2175 C   0  0  0  0  0  0  0  0  0  0  0  0
   -8.4736    3.5455   -0.3925 O   0  0  0  0  0  0  0  0  0  0  0  0
   -3.0087   -1.0858   -1.7602 O   0  0  0  0  0  0  0  0  0  0  0  0
    0.5681   -2.4153    1.5531 C   0  0  0  0  0  0  0  0  0  0  0  0
    7.4460    2.5982    0.6457 H   0  0  0  0  0  0  0  0  0  0  0  0
    6.4210    3.4428   -0.6019 H   0  0  0  0  0  0  0  0  0  0  0  0
    8.2487    3.4400   -0.7557 H   0  0  0  0  0  0  0  0  0  0  0  0
    6.7404   -0.6039   -2.4245 H   0  0  0  0  0  0  0  0  0  0  0  0
    5.0099   -2.2714   -1.7927 H   0  0  0  0  0  0  0  0  0  0  0  0
    3.8969    0.2977    1.4907 H   0  0  0  0  0  0  0  0  0  0  0  0
    5.5620    1.8978    0.8797 H   0  0  0  0  0  0  0  0  0  0  0  0
    3.4209   -3.0107   -0.0007 H   0  0  0  0  0  0  0  0  0  0  0  0
    3.2737   -1.9505    1.4150 H   0  0  0  0  0  0  0  0  0  0  0  0
    2.1286   -1.2900   -1.3582 H   0  0  0  0  0  0  0  0  0  0  0  0
    1.8293   -0.3472    0.1491 H   0  0  0  0  0  0  0  0  0  0  0  0
    0.8049   -3.2070   -0.4120 H   0  0  0  0  0  0  0  0  0  0  0  0
   -0.3519   -0.4977   -0.4307 H   0  0  0  0  0  0  0  0  0  0  0  0
   -1.7221   -3.1283   -0.7012 H   0  0  0  0  0  0  0  0  0  0  0  0
   -1.6585   -2.4213    0.9608 H   0  0  0  0  0  0  0  0  0  0  0  0
   -3.7021   -2.0319   -0.0942 H   0  0  0  0  0  0  0  0  0  0  0  0
   -2.7247   -0.4286    1.5072 H   0  0  0  0  0  0  0  0  0  0  0  0
   -1.9303    0.4343    0.1708 H   0  0  0  0  0  0  0  0  0  0  0  0
   -4.7518    1.5690   -1.9815 H   0  0  0  0  0  0  0  0  0  0  0  0
   -6.7526    2.8903   -2.2869 H   0  0  0  0  0  0  0  0  0  0  0  0
   -7.6793    2.5251    1.9319 H   0  0  0  0  0  0  0  0  0  0  0  0
   -5.6343    1.1882    2.1876 H   0  0  0  0  0  0  0  0  0  0  0  0
   -8.4093    4.5222   -0.0676 H   0  0  0  0  0  0  0  0  0  0  0  0
   -3.4830   -1.8606   -2.1931 H   0  0  0  0  0  0  0  0  0  0  0  0
    1.5294   -2.4787    2.0756 H   0  0  0  0  0  0  0  0  0  0  0  0
    0.0475   -3.4013    1.6991 H   0  0  0  0  0  0  0  0  0  0  0  0
   -0.0871   -1.6296    1.9923 H   0  0  0  0  0  0  0  0  0  0  0  0
  1  2  1  0
  2  3  1  0
  3  4  2  0
  4  5  1  0
  5  6  2  0
  6  7  1  0
  7  8  2  0
  6  9  1  0
  9 10  1  0
 10 11  1  0
 11 12  1  0
 12 13  1  0
 13 14  1  0
 14 15  1  0
 15 16  1  0
 16 17  1  0
 17 18  2  0
 18 19  1  0
 19 20  2  0
 20 21  1  0
 21 22  2  0
 20 23  1  0
 14 24  1  0
 11 25  1  0
  8  3  1  0
 22 17  1  0
  1 26  1  0
  1 27  1  0
  1 28  1  0
  4 29  1  0
  5 30  1  0
  7 31  1  0
  8 32  1  0
  9 33  1  0
  9 34  1  0
 10 35  1  0
 10 36  1  0
 11 37  1  6
 12 38  1  0
 13 39  1  0
 13 40  1  0
 14 41  1  1
 15 42  1  0
 15 43  1  0
 18 44  1  0
 19 45  1  0
 21 46  1  0
 22 47  1  0
 23 48  1  0
 24 49  1  0
 25 50  1  0
 25 51  1  0
 25 52  1  0
M  END
>  <Ligand ID>  (1) 
LIG0005475

>  <Ligand>  (1) 
CHEMBL274361

>  <SMILES>  (1) 
COc1ccc(cc1)CC[C@H](NC[C@@H](COc1ccc(cc1)O)O)C

>  <CID>  (1) 
44268264.0

>  <ChEMBL ID>  (1) 
nan

>  <InChiKey>  (1) 
FVXAAPNMRWHMJD-QAPCUYQASA-N

>  <InChi>  (1) 
InChI=1S/C20H27NO4/c1-15(3-4-16-5-9-19(24-2)10-6-16)21-13-18(23)14-25-20-11-7-17(22)8-12-20/h5-12,15,18,21-23H,3-4,13-14H2,1-2H3/t15-,18+/m1/s1

>  <IUPAC Name>  (1) 
4-[(2S)-2-hydroxy-3-[[(2R)-4-(4-methoxyphenyl)butan-2-yl]amino]propoxy]phenol

$$$$
