
     RDKit          3D

 27 28  0  0  0  0  0  0  0  0999 V2000
   -1.1809   -1.6730    1.4363 N   0  0  0  0  0  0  0  0  0  0  0  0
   -1.6358   -0.4035    0.8942 C   0  0  1  0  0  0  0  0  0  0  0  0
   -0.5358    0.5949    0.9221 C   0  0  1  0  0  0  0  0  0  0  0  0
    0.7439    0.4159    0.2123 C   0  0  2  0  0  0  0  0  0  0  0  0
   -0.2080    1.4698   -0.2238 C   0  0  2  0  0  0  0  0  0  0  0  0
    0.0415    2.9071    0.0489 C   0  0  0  0  0  0  0  0  0  0  0  0
   -0.2565    3.7357   -0.8772 O   0  0  0  0  0  0  0  0  0  0  0  0
    0.5675    3.3877    1.2249 O   0  0  0  0  0  0  0  0  0  0  0  0
    1.0144   -0.7436   -0.7115 C   0  0  0  0  0  0  0  0  0  0  0  0
    2.3910   -0.7825   -1.3686 C   0  0  0  0  0  0  0  0  0  0  0  0
    2.0366   -1.7612   -0.3009 C   0  0  0  0  0  0  0  0  0  0  0  0
   -2.2614   -0.6187   -0.4343 C   0  0  0  0  0  0  0  0  0  0  0  0
   -2.7444    0.3131   -1.1329 O   0  0  0  0  0  0  0  0  0  0  0  0
   -2.3565   -1.9021   -1.0086 O   0  0  0  0  0  0  0  0  0  0  0  0
   -0.3227   -1.5463    1.9839 H   0  0  0  0  0  0  0  0  0  0  0  0
   -1.9388   -2.1866    1.9142 H   0  0  0  0  0  0  0  0  0  0  0  0
   -2.4600   -0.0429    1.5428 H   0  0  0  0  0  0  0  0  0  0  0  0
   -0.4349    1.0813    1.9392 H   0  0  0  0  0  0  0  0  0  0  0  0
    1.6720    0.8145    0.6708 H   0  0  0  0  0  0  0  0  0  0  0  0
   -0.6355    1.3133   -1.2352 H   0  0  0  0  0  0  0  0  0  0  0  0
    1.1500    4.2374    1.2267 H   0  0  0  0  0  0  0  0  0  0  0  0
    0.2305   -1.0630   -1.4102 H   0  0  0  0  0  0  0  0  0  0  0  0
    3.0726    0.0499   -1.0957 H   0  0  0  0  0  0  0  0  0  0  0  0
    2.5041   -1.0947   -2.4145 H   0  0  0  0  0  0  0  0  0  0  0  0
    1.9085   -2.8219   -0.6431 H   0  0  0  0  0  0  0  0  0  0  0  0
    2.5623   -1.6200    0.6782 H   0  0  0  0  0  0  0  0  0  0  0  0
   -2.9237   -2.0606   -1.8381 H   0  0  0  0  0  0  0  0  0  0  0  0
  1  2  1  0
  2  3  1  0
  3  4  1  0
  4  5  1  0
  5  6  1  0
  6  7  2  0
  6  8  1  0
  4  9  1  0
  9 10  1  0
 10 11  1  0
  2 12  1  0
 12 13  2  0
 12 14  1  0
  5  3  1  0
 11  9  1  0
  1 15  1  0
  1 16  1  0
  2 17  1  1
  3 18  1  1
  4 19  1  1
  5 20  1  6
  8 21  1  0
  9 22  1  0
 10 23  1  0
 10 24  1  0
 11 25  1  0
 11 26  1  0
 14 27  1  0
M  END
>  <Ligand ID>  (1) 
LIG0002943

>  <Ligand>  (1) 
CHEMBL1253501

>  <SMILES>  (1) 
N[C@@H]([C@H]1[C@H]([C@@H]1C(=O)O)C1CC1)C(=O)O

>  <CID>  (1) 
46927956.0

>  <ChEMBL ID>  (1) 
nan

>  <InChiKey>  (1) 
JDXZKARLDZENPM-BWBBJGPYSA-N

>  <InChi>  (1) 
InChI=1S/C9H13NO4/c10-7(9(13)14)5-4(3-1-2-3)6(5)8(11)12/h3-7H,1-2,10H2,(H,11,12)(H,13,14)/t4-,5+,6+,7+/m1/s1

>  <IUPAC Name>  (1) 
(1S,2S,3R)-2-[(S)-amino(carboxy)methyl]-3-cyclopropylcyclopropane-1-carboxylic acid

$$$$
