
     RDKit          3D

 40 42  0  0  0  0  0  0  0  0999 V2000
    6.5907    2.0604    0.0983 Cl  0  0  0  0  0  0  0  0  0  0  0  0
    5.4585    0.7259    0.2403 C   0  0  0  0  0  0  0  0  0  0  0  0
    5.8135   -0.4986    0.7667 C   0  0  0  0  0  0  0  0  0  0  0  0
    4.8995   -1.5437    0.8701 C   0  0  0  0  0  0  0  0  0  0  0  0
    3.5792   -1.3727    0.4354 C   0  0  0  0  0  0  0  0  0  0  0  0
    3.2376   -0.1403   -0.0899 C   0  0  0  0  0  0  0  0  0  0  0  0
    4.1533    0.8955   -0.1896 C   0  0  0  0  0  0  0  0  0  0  0  0
    1.9160    0.1472   -0.5654 N   0  0  0  0  0  0  0  0  0  0  0  0
    1.4859   -0.0739   -1.9336 C   0  0  0  0  0  0  0  0  0  0  0  0
   -0.0046   -0.1093   -1.8101 C   0  0  0  0  0  0  0  0  0  0  0  0
   -0.2618    0.7516   -0.6703 N   0  0  0  0  0  0  0  0  0  0  0  0
    0.8510    0.6801    0.2139 C   0  0  0  0  0  0  0  0  0  0  0  0
    0.8456    1.0266    1.4211 O   0  0  0  0  0  0  0  0  0  0  0  0
   -1.4801    1.5247   -0.5327 C   0  0  0  0  0  0  0  0  0  0  0  0
   -2.5596    0.7640    0.1904 C   0  0  0  0  0  0  0  0  0  0  0  0
   -2.1929    0.3523    1.5699 C   0  0  0  0  0  0  0  0  0  0  0  0
   -3.4414   -0.2329    2.2196 C   0  0  0  0  0  0  0  0  0  0  0  0
   -4.5340   -0.5107    1.2206 C   0  0  0  0  0  0  0  0  0  0  0  0
   -4.0478   -1.1019   -0.0667 C   0  0  0  0  0  0  0  0  0  0  0  0
   -2.8480   -0.4615   -0.5613 N   0  0  0  0  0  0  0  0  0  0  0  0
    6.8514   -0.6096    1.1002 H   0  0  0  0  0  0  0  0  0  0  0  0
    5.2121   -2.5004    1.2914 H   0  0  0  0  0  0  0  0  0  0  0  0
    2.8458   -2.1607    0.5009 H   0  0  0  0  0  0  0  0  0  0  0  0
    3.8830    1.8687   -0.6046 H   0  0  0  0  0  0  0  0  0  0  0  0
    1.7328    0.8299   -2.5526 H   0  0  0  0  0  0  0  0  0  0  0  0
    1.9171   -0.9871   -2.3657 H   0  0  0  0  0  0  0  0  0  0  0  0
   -0.4505    0.2622   -2.7518 H   0  0  0  0  0  0  0  0  0  0  0  0
   -0.4115   -1.1302   -1.6659 H   0  0  0  0  0  0  0  0  0  0  0  0
   -1.3034    2.4611    0.0721 H   0  0  0  0  0  0  0  0  0  0  0  0
   -1.8827    1.8961   -1.4977 H   0  0  0  0  0  0  0  0  0  0  0  0
   -3.5142    1.3252    0.2221 H   0  0  0  0  0  0  0  0  0  0  0  0
   -1.7845    1.1502    2.2141 H   0  0  0  0  0  0  0  0  0  0  0  0
   -1.4546   -0.4751    1.5504 H   0  0  0  0  0  0  0  0  0  0  0  0
   -3.2170   -1.1246    2.8373 H   0  0  0  0  0  0  0  0  0  0  0  0
   -3.8476    0.5447    2.9271 H   0  0  0  0  0  0  0  0  0  0  0  0
   -5.1558    0.3909    0.9927 H   0  0  0  0  0  0  0  0  0  0  0  0
   -5.2243   -1.2536    1.6756 H   0  0  0  0  0  0  0  0  0  0  0  0
   -3.9580   -2.2029    0.0256 H   0  0  0  0  0  0  0  0  0  0  0  0
   -4.8467   -0.8979   -0.8319 H   0  0  0  0  0  0  0  0  0  0  0  0
   -2.8518   -0.2698   -1.5763 H   0  0  0  0  0  0  0  0  0  0  0  0
  1  2  1  0
  2  3  2  0
  3  4  1  0
  4  5  2  0
  5  6  1  0
  6  7  2  0
  6  8  1  0
  8  9  1  0
  9 10  1  0
 10 11  1  0
 11 12  1  0
 12 13  2  0
 11 14  1  0
 14 15  1  0
 15 16  1  0
 16 17  1  0
 17 18  1  0
 18 19  1  0
 19 20  1  0
  7  2  1  0
 12  8  1  0
 20 15  1  0
  3 21  1  0
  4 22  1  0
  5 23  1  0
  7 24  1  0
  9 25  1  0
  9 26  1  0
 10 27  1  0
 10 28  1  0
 14 29  1  0
 14 30  1  0
 15 31  1  0
 16 32  1  0
 16 33  1  0
 17 34  1  0
 17 35  1  0
 18 36  1  0
 18 37  1  0
 19 38  1  0
 19 39  1  0
 20 40  1  0
M  END
>  <Ligand ID>  (1) 
LIG0001373

>  <Ligand>  (1) 
CHEMBL1085672

>  <SMILES>  (1) 
Clc1cccc(c1)N1CCN(C1=O)CC1CCCCN1

>  <CID>  (1) 
46881463.0

>  <ChEMBL ID>  (1) 
nan

>  <InChiKey>  (1) 
HVSRNYNPOUFDNJ-UHFFFAOYSA-N

>  <InChi>  (1) 
InChI=1S/C15H20ClN3O/c16-12-4-3-6-14(10-12)19-9-8-18(15(19)20)11-13-5-1-2-7-17-13/h3-4,6,10,13,17H,1-2,5,7-9,11H2

>  <IUPAC Name>  (1) 
1-(3-chlorophenyl)-3-(piperidin-2-ylmethyl)imidazolidin-2-one

$$$$
