
     RDKit          3D

 27 28  0  0  0  0  0  0  0  0999 V2000
   -0.3173    2.5500    0.0394 C   0  0  0  0  0  0  0  0  0  0  0  0
   -0.6689    1.1327    0.5160 C   0  0  1  0  0  0  0  0  0  0  0  0
   -1.9729    0.8022   -0.0725 C   0  0  0  0  0  0  0  0  0  0  0  0
   -2.5173   -0.4795    0.0751 N   0  0  0  0  0  0  0  0  0  0  0  0
   -1.7253   -1.4995    0.6917 C   0  0  0  0  0  0  0  0  0  0  0  0
   -0.6886   -1.9663   -0.3119 C   0  0  0  0  0  0  0  0  0  0  0  0
    0.4955   -1.0647   -0.1876 C   0  0  0  0  0  0  0  0  0  0  0  0
    0.4680    0.2809    0.1757 C   0  0  0  0  0  0  0  0  0  0  0  0
    1.6963    0.9116    0.2235 C   0  0  0  0  0  0  0  0  0  0  0  0
    2.8851    0.2747   -0.0644 C   0  0  0  0  0  0  0  0  0  0  0  0
    4.4304    1.1116    0.0074 Cl  0  0  0  0  0  0  0  0  0  0  0  0
    2.8896   -1.0575   -0.4217 C   0  0  0  0  0  0  0  0  0  0  0  0
    1.6798   -1.7172   -0.4792 C   0  0  0  0  0  0  0  0  0  0  0  0
    4.3957   -1.8672   -0.7872 Cl  0  0  0  0  0  0  0  0  0  0  0  0
    0.3421    2.5451   -0.8437 H   0  0  0  0  0  0  0  0  0  0  0  0
    0.1422    3.1496    0.8324 H   0  0  0  0  0  0  0  0  0  0  0  0
   -1.2415    3.0958   -0.3106 H   0  0  0  0  0  0  0  0  0  0  0  0
   -0.7555    1.1967    1.6227 H   0  0  0  0  0  0  0  0  0  0  0  0
   -2.7081    1.5327    0.3385 H   0  0  0  0  0  0  0  0  0  0  0  0
   -1.9339    1.0665   -1.1695 H   0  0  0  0  0  0  0  0  0  0  0  0
   -3.0653   -0.8233   -0.7436 H   0  0  0  0  0  0  0  0  0  0  0  0
   -1.2921   -1.1178    1.6172 H   0  0  0  0  0  0  0  0  0  0  0  0
   -2.4031   -2.3501    0.9255 H   0  0  0  0  0  0  0  0  0  0  0  0
   -0.4459   -3.0133   -0.0872 H   0  0  0  0  0  0  0  0  0  0  0  0
   -1.1379   -1.8838   -1.3224 H   0  0  0  0  0  0  0  0  0  0  0  0
    1.7605    1.9558    0.4972 H   0  0  0  0  0  0  0  0  0  0  0  0
    1.6884   -2.7658   -0.7610 H   0  0  0  0  0  0  0  0  0  0  0  0
  1  2  1  0
  2  3  1  0
  3  4  1  0
  4  5  1  0
  5  6  1  0
  6  7  1  0
  7  8  2  0
  8  9  1  0
  9 10  2  0
 10 11  1  0
 10 12  1  0
 12 13  2  0
 12 14  1  0
  8  2  1  0
 13  7  1  0
  1 15  1  0
  1 16  1  0
  1 17  1  0
  2 18  1  1
  3 19  1  0
  3 20  1  0
  4 21  1  0
  5 22  1  0
  5 23  1  0
  6 24  1  0
  6 25  1  0
  9 26  1  0
 13 27  1  0
M  END
>  <Ligand ID>  (1) 
LIG0002316

>  <Ligand>  (1) 
CHEMBL253591

>  <SMILES>  (1) 
C[C@H]1CNCCc2c1cc(Cl)c(c2)Cl

>  <CID>  (1) 
24773649.0

>  <ChEMBL ID>  (1) 
nan

>  <InChiKey>  (1) 
KTCVEIAEKPSBCJ-ZETCQYMHSA-N

>  <InChi>  (1) 
InChI=1S/C11H13Cl2N/c1-7-6-14-3-2-8-4-10(12)11(13)5-9(7)8/h4-5,7,14H,2-3,6H2,1H3/t7-/m0/s1

>  <IUPAC Name>  (1) 
(5R)-7,8-dichloro-5-methyl-2,3,4,5-tetrahydro-1H-3-benzazepine

$$$$
