
     RDKit          3D

 39 41  0  0  0  0  0  0  0  0999 V2000
   -5.5941   -3.6484   -1.4771 Br  0  0  0  0  0  0  0  0  0  0  0  0
   -4.6861   -2.1288   -0.7181 C   0  0  0  0  0  0  0  0  0  0  0  0
   -3.2920   -2.4148   -0.3790 C   0  0  0  0  0  0  0  0  0  0  0  0
   -2.8004   -3.5764   -0.5958 O   0  0  0  0  0  0  0  0  0  0  0  0
   -2.4680   -1.4105    0.1938 N   0  0  0  0  0  0  0  0  0  0  0  0
   -1.0954   -1.7431    0.5125 C   0  0  0  0  0  0  0  0  0  0  0  0
   -0.3448   -0.6018    1.1092 C   0  0  0  0  0  0  0  0  0  0  0  0
   -0.2583    0.5971    0.1954 C   0  0  0  0  0  0  0  0  0  0  0  0
    0.6318    0.5247   -0.8846 C   0  0  0  0  0  0  0  0  0  0  0  0
    1.6342   -0.7858   -1.3990 S   0  0  0  0  0  0  0  0  0  0  0  0
    3.2195   -0.8420   -0.5983 C   0  0  0  0  0  0  0  0  0  0  0  0
    4.1514   -1.8248   -0.9517 C   0  0  0  0  0  0  0  0  0  0  0  0
    5.3646   -1.8651   -0.3026 C   0  0  0  0  0  0  0  0  0  0  0  0
    5.6993   -0.9669    0.6896 C   0  0  0  0  0  0  0  0  0  0  0  0
    4.7972    0.0002    1.0452 C   0  0  0  0  0  0  0  0  0  0  0  0
    3.5750    0.0510    0.4006 C   0  0  0  0  0  0  0  0  0  0  0  0
    6.9166   -1.0975    1.2641 F   0  0  0  0  0  0  0  0  0  0  0  0
    0.4746    2.1687   -1.7071 S   0  0  0  0  0  0  0  0  0  0  0  0
   -0.7276    2.7442   -0.5472 C   0  0  0  0  0  0  0  0  0  0  0  0
   -0.9368    1.7310    0.3467 C   0  0  0  0  0  0  0  0  0  0  0  0
   -1.8890    2.0449    1.3528 C   0  0  0  0  0  0  0  0  0  0  0  0
   -2.5151    3.2545    1.3903 C   0  0  0  0  0  0  0  0  0  0  0  0
   -3.4110    3.5080    2.3632 F   0  0  0  0  0  0  0  0  0  0  0  0
   -2.2898    4.2727    0.4733 C   0  0  0  0  0  0  0  0  0  0  0  0
   -1.3599    3.9740   -0.5137 C   0  0  0  0  0  0  0  0  0  0  0  0
   -5.1965   -1.7476    0.1979 H   0  0  0  0  0  0  0  0  0  0  0  0
   -4.7605   -1.2936   -1.4688 H   0  0  0  0  0  0  0  0  0  0  0  0
   -2.8988   -0.4760    0.3561 H   0  0  0  0  0  0  0  0  0  0  0  0
   -0.5849   -2.1180   -0.4219 H   0  0  0  0  0  0  0  0  0  0  0  0
   -1.0974   -2.6328    1.1797 H   0  0  0  0  0  0  0  0  0  0  0  0
   -0.7808   -0.3292    2.0777 H   0  0  0  0  0  0  0  0  0  0  0  0
    0.6828   -0.9515    1.3276 H   0  0  0  0  0  0  0  0  0  0  0  0
    3.9064   -2.5448   -1.7344 H   0  0  0  0  0  0  0  0  0  0  0  0
    6.0513   -2.6366   -0.6028 H   0  0  0  0  0  0  0  0  0  0  0  0
    5.0598    0.7015    1.8253 H   0  0  0  0  0  0  0  0  0  0  0  0
    2.8821    0.8074    0.6837 H   0  0  0  0  0  0  0  0  0  0  0  0
   -2.1416    1.3269    2.1184 H   0  0  0  0  0  0  0  0  0  0  0  0
   -2.7766    5.2170    0.4984 H   0  0  0  0  0  0  0  0  0  0  0  0
   -1.1410    4.7123   -1.2478 H   0  0  0  0  0  0  0  0  0  0  0  0
  1  2  1  0
  2  3  1  0
  3  4  2  0
  3  5  1  0
  5  6  1  0
  6  7  1  0
  7  8  1  0
  8  9  2  0
  9 10  1  0
 10 11  1  0
 11 12  2  0
 12 13  1  0
 13 14  2  0
 14 15  1  0
 15 16  2  0
 14 17  1  0
  9 18  1  0
 18 19  1  0
 19 20  2  0
 20 21  1  0
 21 22  2  0
 22 23  1  0
 22 24  1  0
 24 25  2  0
 20  8  1  0
 16 11  1  0
 25 19  1  0
  2 26  1  0
  2 27  1  0
  5 28  1  0
  6 29  1  0
  6 30  1  0
  7 31  1  0
  7 32  1  0
 12 33  1  0
 13 34  1  0
 15 35  1  0
 16 36  1  0
 21 37  1  0
 24 38  1  0
 25 39  1  0
M  END
>  <Ligand ID>  (1) 
LIG0005960

>  <Ligand>  (1) 
CHEMBL1779807

>  <SMILES>  (1) 
BrCC(=O)NCCc1c(Sc2ccc(cc2)F)sc2c1cc(F)cc2

>  <CID>  (1) 
11351216.0

>  <ChEMBL ID>  (1) 
nan

>  <InChiKey>  (1) 
YYDDDHFJIVHFDU-UHFFFAOYSA-N

>  <InChi>  (1) 
InChI=1S/C18H14BrF2NOS2/c19-10-17(23)22-8-7-14-15-9-12(21)3-6-16(15)25-18(14)24-13-4-1-11(20)2-5-13/h1-6,9H,7-8,10H2,(H,22,23)

>  <IUPAC Name>  (1) 
2-bromo-N-[2-[5-fluoro-2-(4-fluorophenyl)sulfanyl-1-benzothiophen-3-yl]ethyl]acetamide

$$$$
