
     RDKit          3D

 17 16  0  0  0  0  0  0  0  0999 V2000
   -2.9689    0.3097   -0.0687 C   0  0  0  0  0  0  0  0  0  0  0  0
   -1.6174    0.2193    0.6095 C   0  0  0  0  0  0  0  0  0  0  0  0
   -0.5987    0.0293   -0.4775 C   0  0  0  0  0  0  0  0  0  0  0  0
    0.7849   -0.0769    0.0410 C   0  0  0  0  0  0  0  0  0  0  0  0
    1.0146   -0.0081    1.2573 O   0  0  0  0  0  0  0  0  0  0  0  0
    2.1010   -0.3066   -1.1517 S   0  0  0  0  0  0  0  0  0  0  0  0
    3.7165   -0.4158   -0.3381 C   0  0  0  0  0  0  0  0  0  0  0  0
   -3.7650   -0.0732    0.5956 H   0  0  0  0  0  0  0  0  0  0  0  0
   -3.1363    1.3793   -0.3327 H   0  0  0  0  0  0  0  0  0  0  0  0
   -2.9439   -0.2871   -1.0035 H   0  0  0  0  0  0  0  0  0  0  0  0
   -1.4127    1.1018    1.2490 H   0  0  0  0  0  0  0  0  0  0  0  0
   -1.6463   -0.6662    1.2662 H   0  0  0  0  0  0  0  0  0  0  0  0
   -0.6875    0.8807   -1.1818 H   0  0  0  0  0  0  0  0  0  0  0  0
   -0.9279   -0.8881   -1.0254 H   0  0  0  0  0  0  0  0  0  0  0  0
    4.4575   -0.8840   -0.9880 H   0  0  0  0  0  0  0  0  0  0  0  0
    3.5964   -0.9444    0.6277 H   0  0  0  0  0  0  0  0  0  0  0  0
    4.0339    0.6303   -0.1312 H   0  0  0  0  0  0  0  0  0  0  0  0
  1  2  1  0
  2  3  1  0
  3  4  1  0
  4  5  2  0
  4  6  1  0
  6  7  1  0
  1  8  1  0
  1  9  1  0
  1 10  1  0
  2 11  1  0
  2 12  1  0
  3 13  1  0
  3 14  1  0
  7 15  1  0
  7 16  1  0
  7 17  1  0
M  END
>  <Ligand ID>  (1) 
LIG0005015

>  <Ligand>  (1) 
Methyl thiobutyrate

>  <SMILES>  (1) 
CCCC(=O)SC

>  <CID>  (1) 
62444.0

>  <ChEMBL ID>  (1) 
nan

>  <InChiKey>  (1) 
GRLJIIJNZJVMGP-UHFFFAOYSA-N

>  <InChi>  (1) 
InChI=1S/C5H10OS/c1-3-4-5(6)7-2/h3-4H2,1-2H3

>  <IUPAC Name>  (1) 
S-methyl butanethioate

$$$$
