
     RDKit          3D

 28 30  0  0  0  0  0  0  0  0999 V2000
    3.4572    2.3428   -0.0696 C   0  0  0  0  0  0  0  0  0  0  0  0
    2.6770    1.0597    0.0081 C   0  0  0  0  0  0  0  0  0  0  0  0
    3.4280   -0.0913    0.1303 C   0  0  0  0  0  0  0  0  0  0  0  0
    2.8116   -1.3450    0.2114 C   0  0  0  0  0  0  0  0  0  0  0  0
    1.4260   -1.3199    0.1593 C   0  0  0  0  0  0  0  0  0  0  0  0
    0.7085   -0.1471    0.0366 C   0  0  0  0  0  0  0  0  0  0  0  0
    1.3285    1.0573   -0.0404 N   0  0  0  0  0  0  0  0  0  0  0  0
   -0.6898   -0.1934   -0.0102 C   0  0  0  0  0  0  0  0  0  0  0  0
   -1.4076    0.9384   -0.1295 N   0  0  0  0  0  0  0  0  0  0  0  0
   -2.7676    0.8792   -0.1738 C   0  0  0  0  0  0  0  0  0  0  0  0
   -3.5896    2.0935   -0.3037 C   0  0  0  0  0  0  0  0  0  0  0  0
   -3.4350   -0.3349   -0.0977 C   0  0  0  0  0  0  0  0  0  0  0  0
   -2.7047   -1.5131    0.0259 C   0  0  0  0  0  0  0  0  0  0  0  0
   -1.3211   -1.4394    0.0698 C   0  0  0  0  0  0  0  0  0  0  0  0
   -0.6032   -2.6122    0.1926 C   0  0  0  0  0  0  0  0  0  0  0  0
    0.7726   -2.5253    0.2351 C   0  0  0  0  0  0  0  0  0  0  0  0
    3.6510    2.7240    0.9683 H   0  0  0  0  0  0  0  0  0  0  0  0
    4.4592    2.1672   -0.5271 H   0  0  0  0  0  0  0  0  0  0  0  0
    2.8587    3.0814   -0.6117 H   0  0  0  0  0  0  0  0  0  0  0  0
    4.5213   -0.0487    0.1662 H   0  0  0  0  0  0  0  0  0  0  0  0
    3.3444   -2.2552    0.3058 H   0  0  0  0  0  0  0  0  0  0  0  0
   -4.3523    2.0271   -1.1167 H   0  0  0  0  0  0  0  0  0  0  0  0
   -2.9227    2.9256   -0.6121 H   0  0  0  0  0  0  0  0  0  0  0  0
   -4.0941    2.3383    0.6514 H   0  0  0  0  0  0  0  0  0  0  0  0
   -4.5282   -0.3647   -0.1348 H   0  0  0  0  0  0  0  0  0  0  0  0
   -3.2493   -2.4362    0.0824 H   0  0  0  0  0  0  0  0  0  0  0  0
   -1.1042   -3.5762    0.2540 H   0  0  0  0  0  0  0  0  0  0  0  0
    1.3256   -3.4318    0.3299 H   0  0  0  0  0  0  0  0  0  0  0  0
  1  2  1  0
  2  3  2  0
  3  4  1  0
  4  5  2  0
  5  6  1  0
  6  7  2  0
  6  8  1  0
  8  9  2  0
  9 10  1  0
 10 11  1  0
 10 12  2  0
 12 13  1  0
 13 14  2  0
 14 15  1  0
 15 16  2  0
  7  2  1  0
 14  8  1  0
 16  5  1  0
  1 17  1  0
  1 18  1  0
  1 19  1  0
  3 20  1  0
  4 21  1  0
 11 22  1  0
 11 23  1  0
 11 24  1  0
 12 25  1  0
 13 26  1  0
 15 27  1  0
 16 28  1  0
M  END
>  <Ligand ID>  (1) 
LIG0003931

>  <Ligand>  (1) 
Neocuproine

>  <SMILES>  (1) 
Cc1ccc2c(n1)c1nc(C)ccc1cc2

>  <CID>  (1) 
65237.0

>  <ChEMBL ID>  (1) 
nan

>  <InChiKey>  (1) 
IYRGXJIJGHOCFS-UHFFFAOYSA-N

>  <InChi>  (1) 
InChI=1S/C14H12N2/c1-9-3-5-11-7-8-12-6-4-10(2)16-14(12)13(11)15-9/h3-8H,1-2H3

>  <IUPAC Name>  (1) 
2,9-dimethyl-1,10-phenanthroline

$$$$
