
     RDKit          3D

125129  0  0  0  0  0  0  0  0999 V2000
   -6.9492   -3.5922   -0.5734 C   0  0  0  0  0  0  0  0  0  0  0  0
   -6.8406   -2.2047   -0.0231 C   0  0  0  0  0  0  0  0  0  0  0  0
   -5.9263   -2.0612    1.1585 C   0  0  0  0  0  0  0  0  0  0  0  0
   -4.5007   -2.4292    0.9178 C   0  0  0  0  0  0  0  0  0  0  0  0
   -3.8122   -1.5591   -0.1613 C   0  0  2  0  0  0  0  0  0  0  0  0
   -2.4771   -2.0572   -0.2516 N   0  0  0  0  0  0  0  0  0  0  0  0
   -2.0352   -3.3713   -0.5319 C   0  0  0  0  0  0  0  0  0  0  0  0
   -2.8836   -4.2604   -0.6033 O   0  0  0  0  0  0  0  0  0  0  0  0
   -0.6107   -3.7561   -0.7275 C   0  0  0  0  0  0  0  0  0  0  0  0
   -0.1894   -4.9841    0.0325 C   0  0  0  0  0  0  0  0  0  0  0  0
    1.2580   -5.3443   -0.4151 C   0  0  2  0  0  0  0  0  0  0  0  0
    1.7966   -4.1120   -0.8906 N   0  0  0  0  0  0  0  0  0  0  0  0
    2.5762   -3.1468   -0.2006 C   0  0  0  0  0  0  0  0  0  0  0  0
    2.8509   -3.3919    0.9692 O   0  0  0  0  0  0  0  0  0  0  0  0
    2.9568   -1.9478   -0.9856 C   0  0  1  0  0  0  0  0  0  0  0  0
    3.4593   -0.8135   -0.3045 N   0  0  0  0  0  0  0  0  0  0  0  0
    2.6319    0.3025   -0.1351 C   0  0  0  0  0  0  0  0  0  0  0  0
    1.4148    0.0927   -0.5435 O   0  0  0  0  0  0  0  0  0  0  0  0
    2.8019    1.6571    0.3961 C   0  0  1  0  0  0  0  0  0  0  0  0
    1.4283    2.2730    0.2435 N   0  0  0  0  0  0  0  0  0  0  0  0
    1.1083    3.2339   -0.7107 C   0  0  0  0  0  0  0  0  0  0  0  0
    2.0278    3.7379   -1.3844 O   0  0  0  0  0  0  0  0  0  0  0  0
   -0.2705    3.7337   -0.9940 C   0  0  2  0  0  0  0  0  0  0  0  0
   -1.2459    2.8239   -0.4342 N   0  0  0  0  0  0  0  0  0  0  0  0
   -2.2651    3.1413    0.4890 C   0  0  0  0  0  0  0  0  0  0  0  0
   -2.3409    4.3447    0.8061 O   0  0  0  0  0  0  0  0  0  0  0  0
   -3.1733    2.1199    1.0351 C   0  0  1  0  0  0  0  0  0  0  0  0
   -2.9001    0.7476    0.6257 N   0  0  0  0  0  0  0  0  0  0  0  0
   -3.9255   -0.1529    0.2190 C   0  0  0  0  0  0  0  0  0  0  0  0
   -5.0616    0.3822    0.2068 O   0  0  0  0  0  0  0  0  0  0  0  0
   -3.1056    2.2593    2.5475 C   0  0  0  0  0  0  0  0  0  0  0  0
   -3.5614    3.6600    2.8972 C   0  0  0  0  0  0  0  0  0  0  0  0
   -4.0455    1.3034    3.2384 C   0  0  0  0  0  0  0  0  0  0  0  0
   -0.4470    4.0159   -2.4604 C   0  0  0  0  0  0  0  0  0  0  0  0
   -1.7975    4.5695   -2.7533 C   0  0  0  0  0  0  0  0  0  0  0  0
   -1.9385    5.9259   -2.6654 C   0  0  0  0  0  0  0  0  0  0  0  0
   -3.1096    6.6194   -2.8732 C   0  0  0  0  0  0  0  0  0  0  0  0
   -4.2164    5.8411   -3.1967 C   0  0  0  0  0  0  0  0  0  0  0  0
   -4.1220    4.4514   -3.2996 C   0  0  0  0  0  0  0  0  0  0  0  0
   -2.8966    3.8119   -3.0743 C   0  0  0  0  0  0  0  0  0  0  0  0
   -5.2514    3.7646   -3.6155 C   0  0  0  0  0  0  0  0  0  0  0  0
   -6.4366    4.4330   -3.8235 C   0  0  0  0  0  0  0  0  0  0  0  0
   -6.5548    5.8057   -3.7277 C   0  0  0  0  0  0  0  0  0  0  0  0
   -5.4023    6.5193   -3.4028 C   0  0  0  0  0  0  0  0  0  0  0  0
    3.3122    1.8775    1.7410 C   0  0  0  0  0  0  0  0  0  0  0  0
    4.6831    1.3352    1.9653 C   0  0  0  0  0  0  0  0  0  0  0  0
    5.1619    1.6923    3.3794 C   0  0  0  0  0  0  0  0  0  0  0  0
    4.2374    1.1078    4.3067 N   0  0  0  0  0  0  0  0  0  0  0  0
    4.4711    1.1180    5.5804 C   0  0  0  0  0  0  0  0  0  0  0  0
    3.5506    0.5338    6.5171 N   0  0  0  0  0  0  0  0  0  0  0  0
    5.6673    1.7202    6.1198 N   0  0  0  0  0  0  0  0  0  0  0  0
    3.8268   -2.3076   -2.1709 C   0  0  0  0  0  0  0  0  0  0  0  0
    5.0977   -2.9724   -1.8691 C   0  0  0  0  0  0  0  0  0  0  0  0
    5.2360   -4.3680   -1.9011 C   0  0  0  0  0  0  0  0  0  0  0  0
    6.5169   -4.6793   -1.5492 N   0  0  0  0  0  0  0  0  0  0  0  0
    7.1854   -3.5161   -1.2986 C   0  0  0  0  0  0  0  0  0  0  0  0
    6.3176   -2.4526   -1.4939 C   0  0  0  0  0  0  0  0  0  0  0  0
    6.7760   -1.1593   -1.3086 C   0  0  0  0  0  0  0  0  0  0  0  0
    8.0794   -0.8813   -0.9304 C   0  0  0  0  0  0  0  0  0  0  0  0
    8.9034   -1.9805   -0.7492 C   0  0  0  0  0  0  0  0  0  0  0  0
    8.4974   -3.2747   -0.9208 C   0  0  0  0  0  0  0  0  0  0  0  0
    1.2135   -6.4462   -1.3722 C   0  0  0  0  0  0  0  0  0  0  0  0
    1.6389   -6.2459   -2.5405 O   0  0  0  0  0  0  0  0  0  0  0  0
    0.7050   -7.6906   -0.9785 N   0  0  0  0  0  0  0  0  0  0  0  0
   -6.4332   -3.7197   -1.5539 H   0  0  0  0  0  0  0  0  0  0  0  0
   -8.0215   -3.7899   -0.8052 H   0  0  0  0  0  0  0  0  0  0  0  0
   -6.6678   -4.3860    0.1472 H   0  0  0  0  0  0  0  0  0  0  0  0
   -6.6016   -1.5378   -0.8784 H   0  0  0  0  0  0  0  0  0  0  0  0
   -7.8681   -1.8900    0.3103 H   0  0  0  0  0  0  0  0  0  0  0  0
   -6.1127   -1.1064    1.6553 H   0  0  0  0  0  0  0  0  0  0  0  0
   -6.3010   -2.8283    1.9011 H   0  0  0  0  0  0  0  0  0  0  0  0
   -4.4886   -3.4477    0.5576 H   0  0  0  0  0  0  0  0  0  0  0  0
   -3.9133   -2.3156    1.8296 H   0  0  0  0  0  0  0  0  0  0  0  0
   -4.4396   -1.7559   -1.0744 H   0  0  0  0  0  0  0  0  0  0  0  0
   -1.7007   -1.3915   -0.0877 H   0  0  0  0  0  0  0  0  0  0  0  0
    0.0213   -2.9117   -0.4229 H   0  0  0  0  0  0  0  0  0  0  0  0
   -0.4023   -3.9452   -1.8080 H   0  0  0  0  0  0  0  0  0  0  0  0
   -0.1909   -4.8308    1.1274 H   0  0  0  0  0  0  0  0  0  0  0  0
   -0.8018   -5.8739   -0.2232 H   0  0  0  0  0  0  0  0  0  0  0  0
    1.7969   -5.6231    0.5473 H   0  0  0  0  0  0  0  0  0  0  0  0
    1.6053   -3.8697   -1.8853 H   0  0  0  0  0  0  0  0  0  0  0  0
    1.9399   -1.6298   -1.4486 H   0  0  0  0  0  0  0  0  0  0  0  0
    4.3890   -0.7905    0.0665 H   0  0  0  0  0  0  0  0  0  0  0  0
    3.4486    2.2271   -0.3459 H   0  0  0  0  0  0  0  0  0  0  0  0
    0.6779    1.9836    0.8884 H   0  0  0  0  0  0  0  0  0  0  0  0
   -0.3275    4.7437   -0.4991 H   0  0  0  0  0  0  0  0  0  0  0  0
   -1.2008    1.8434   -0.7304 H   0  0  0  0  0  0  0  0  0  0  0  0
   -4.2220    2.4172    0.7805 H   0  0  0  0  0  0  0  0  0  0  0  0
   -1.9520    0.4100    0.6300 H   0  0  0  0  0  0  0  0  0  0  0  0
   -2.1085    2.1133    2.9601 H   0  0  0  0  0  0  0  0  0  0  0  0
   -2.7182    4.3308    3.1161 H   0  0  0  0  0  0  0  0  0  0  0  0
   -4.2842    4.0573    2.1415 H   0  0  0  0  0  0  0  0  0  0  0  0
   -4.1722    3.6501    3.8464 H   0  0  0  0  0  0  0  0  0  0  0  0
   -4.0872    1.5999    4.3050 H   0  0  0  0  0  0  0  0  0  0  0  0
   -3.7399    0.2498    3.1945 H   0  0  0  0  0  0  0  0  0  0  0  0
   -5.0732    1.4746    2.8238 H   0  0  0  0  0  0  0  0  0  0  0  0
    0.2832    4.7813   -2.7922 H   0  0  0  0  0  0  0  0  0  0  0  0
   -0.2298    3.1399   -3.1030 H   0  0  0  0  0  0  0  0  0  0  0  0
   -1.0690    6.5552   -2.4122 H   0  0  0  0  0  0  0  0  0  0  0  0
   -3.1628    7.6994   -2.7856 H   0  0  0  0  0  0  0  0  0  0  0  0
   -2.8100    2.7273   -3.1524 H   0  0  0  0  0  0  0  0  0  0  0  0
   -5.2191    2.6914   -3.7068 H   0  0  0  0  0  0  0  0  0  0  0  0
   -7.3572    3.9008   -4.0747 H   0  0  0  0  0  0  0  0  0  0  0  0
   -7.4967    6.3301   -3.8915 H   0  0  0  0  0  0  0  0  0  0  0  0
   -5.4169    7.6109   -3.3071 H   0  0  0  0  0  0  0  0  0  0  0  0
    3.3095    2.9784    1.9691 H   0  0  0  0  0  0  0  0  0  0  0  0
    2.6534    1.3574    2.5074 H   0  0  0  0  0  0  0  0  0  0  0  0
    4.6706    0.2094    2.0036 H   0  0  0  0  0  0  0  0  0  0  0  0
    5.3970    1.6205    1.1901 H   0  0  0  0  0  0  0  0  0  0  0  0
    6.1623    1.2233    3.5036 H   0  0  0  0  0  0  0  0  0  0  0  0
    5.2136    2.7935    3.4253 H   0  0  0  0  0  0  0  0  0  0  0  0
    3.9356    0.0034    7.3543 H   0  0  0  0  0  0  0  0  0  0  0  0
    2.5155    0.6102    6.4223 H   0  0  0  0  0  0  0  0  0  0  0  0
    5.6937    2.7519    6.2780 H   0  0  0  0  0  0  0  0  0  0  0  0
    6.5036    1.1420    6.3528 H   0  0  0  0  0  0  0  0  0  0  0  0
    4.0300   -1.3897   -2.7959 H   0  0  0  0  0  0  0  0  0  0  0  0
    3.1998   -2.9419   -2.8730 H   0  0  0  0  0  0  0  0  0  0  0  0
    4.4319   -5.0686   -2.1650 H   0  0  0  0  0  0  0  0  0  0  0  0
    6.8978   -5.6556   -1.4890 H   0  0  0  0  0  0  0  0  0  0  0  0
    6.1012   -0.3402   -1.4719 H   0  0  0  0  0  0  0  0  0  0  0  0
    8.4278    0.1428   -0.7859 H   0  0  0  0  0  0  0  0  0  0  0  0
    9.9284   -1.7401   -0.4497 H   0  0  0  0  0  0  0  0  0  0  0  0
    9.2007   -4.0655   -0.7617 H   0  0  0  0  0  0  0  0  0  0  0  0
   -0.0181   -8.2139   -1.5145 H   0  0  0  0  0  0  0  0  0  0  0  0
    1.0785   -8.1070   -0.0863 H   0  0  0  0  0  0  0  0  0  0  0  0
  1  2  1  0
  2  3  1  0
  3  4  1  0
  4  5  1  0
  5  6  1  0
  6  7  1  0
  7  8  2  0
  7  9  1  0
  9 10  1  0
 10 11  1  0
 11 12  1  0
 12 13  1  0
 13 14  2  0
 13 15  1  0
 15 16  1  0
 16 17  1  0
 17 18  2  0
 17 19  1  0
 19 20  1  0
 20 21  1  0
 21 22  2  0
 21 23  1  0
 23 24  1  0
 24 25  1  0
 25 26  2  0
 25 27  1  0
 27 28  1  0
 28 29  1  0
 29 30  2  0
 27 31  1  0
 31 32  1  0
 31 33  1  0
 23 34  1  0
 34 35  1  0
 35 36  2  0
 36 37  1  0
 37 38  2  0
 38 39  1  0
 39 40  2  0
 39 41  1  0
 41 42  2  0
 42 43  1  0
 43 44  2  0
 19 45  1  0
 45 46  1  0
 46 47  1  0
 47 48  1  0
 48 49  2  3
 49 50  1  0
 49 51  1  0
 15 52  1  0
 52 53  1  0
 53 54  2  0
 54 55  1  0
 55 56  1  0
 56 57  2  0
 57 58  1  0
 58 59  2  0
 59 60  1  0
 60 61  2  0
 11 62  1  0
 62 63  2  0
 62 64  1  0
 29  5  1  0
 40 35  1  0
 57 53  1  0
 44 38  1  0
 61 56  1  0
  1 65  1  0
  1 66  1  0
  1 67  1  0
  2 68  1  0
  2 69  1  0
  3 70  1  0
  3 71  1  0
  4 72  1  0
  4 73  1  0
  5 74  1  6
  6 75  1  0
  9 76  1  0
  9 77  1  0
 10 78  1  0
 10 79  1  0
 11 80  1  1
 12 81  1  0
 15 82  1  6
 16 83  1  0
 19 84  1  6
 20 85  1  0
 23 86  1  1
 24 87  1  0
 27 88  1  6
 28 89  1  0
 31 90  1  0
 32 91  1  0
 32 92  1  0
 32 93  1  0
 33 94  1  0
 33 95  1  0
 33 96  1  0
 34 97  1  0
 34 98  1  0
 36 99  1  0
 37100  1  0
 40101  1  0
 41102  1  0
 42103  1  0
 43104  1  0
 44105  1  0
 45106  1  0
 45107  1  0
 46108  1  0
 46109  1  0
 47110  1  0
 47111  1  0
 50112  1  0
 50113  1  0
 51114  1  0
 51115  1  0
 52116  1  0
 52117  1  0
 54118  1  0
 55119  1  0
 58120  1  0
 59121  1  0
 60122  1  0
 61123  1  0
 64124  1  0
 64125  1  0
M  END
>  <Ligand ID>  (1) 
LIG0001842

>  <Ligand>  (1) 
CHEMBL413573

>  <SMILES>  (1) 
CCCC[C@@H]1NC(=O)CC[C@H](NC(=O)[C@@H](NC(=O)[C@@H](NC(=O)[C@H](NC(=O)[C@@H](NC1=O)C(C)C)Cc1ccc2c(c1)cccc2)CCCN=C(N)N)Cc1c[nH]c2c1cccc2)C(=O)N

>  <CID>  (1) 
11700730.0

>  <ChEMBL ID>  (1) 
nan

>  <InChiKey>  (1) 
GVZTZLFKKLVBJF-JDABYTJISA-N

>  <InChi>  (1) 
InChI=1S/C46H61N11O7/c1-4-5-14-34-42(61)57-39(26(2)3)45(64)56-36(23-27-17-18-28-11-6-7-12-29(28)22-27)43(62)54-35(16-10-21-50-46(48)49)41(60)55-37(24-30-25-51-32-15-9-8-13-31(30)32)44(63)53-33(40(47)59)19-20-38(58)52-34/h6-9,11-13,15,17-18,22,25-26,33-37,39,51H,4-5,10,14,16,19-21,23-24H2,1-3H3,(H2,47,59)(H,52,58)(H,53,63)(H,54,62)(H,55,60)(H,56,64)(H,57,61)(H4,48,49,50)/t33-,34-,35-,36+,37-,39-/m0/s1

>  <IUPAC Name>  (1) 
(2S,5S,8R,11S,14S,17S)-2-butyl-11-[3-(diaminomethylideneamino)propyl]-14-(1H-indol-3-ylmethyl)-8-(naphthalen-2-ylmethyl)-3,6,9,12,15,20-hexaoxo-5-propan-2-yl-1,4,7,10,13,16-hexazacycloicosane-17-carboxamide

$$$$
