
     RDKit          3D

 62 68  0  0  0  0  0  0  0  0999 V2000
    4.4141    0.9651    1.1276 O   0  0  0  0  0  0  0  0  0  0  0  0
    4.2825   -0.2137    0.6741 C   0  0  0  0  0  0  0  0  0  0  0  0
    5.4054   -1.1075    0.5410 C   0  0  0  0  0  0  0  0  0  0  0  0
    5.3511   -2.3634   -0.0266 C   0  0  0  0  0  0  0  0  0  0  0  0
    6.5218   -3.1288   -0.0840 C   0  0  0  0  0  0  0  0  0  0  0  0
    7.6929   -2.6878    0.3902 N   0  0  0  0  0  0  0  0  0  0  0  0
    7.7709   -1.4649    0.9480 C   0  0  0  0  0  0  0  0  0  0  0  0
    6.6484   -0.6839    1.0241 C   0  0  0  0  0  0  0  0  0  0  0  0
    2.9930   -0.6307    0.2999 N   0  0  0  0  0  0  0  0  0  0  0  0
    1.8824    0.3245    0.4520 C   0  0  2  0  0  0  0  0  0  0  0  0
    1.2093   -0.1064    1.7468 C   0  0  0  0  0  0  0  0  0  0  0  0
   -0.1130    0.6648    1.8894 C   0  0  0  0  0  0  0  0  0  0  0  0
   -0.9789    0.0862    0.8287 C   0  0  2  0  0  0  0  0  0  0  0  0
   -0.4270    0.3848   -0.5323 C   0  0  2  0  0  0  0  0  0  0  0  0
    1.0230    0.2317   -0.7343 C   0  0  1  0  0  0  0  0  0  0  0  0
    1.3089    1.2885   -1.6488 O   0  0  0  0  0  0  0  0  0  0  0  0
    0.4355    2.3428   -1.4434 C   0  0  0  0  0  0  0  0  0  0  0  0
   -0.6252    1.8156   -0.7454 C   0  0  0  0  0  0  0  0  0  0  0  0
   -1.7001    2.5428   -0.3456 C   0  0  0  0  0  0  0  0  0  0  0  0
   -2.7601    1.8495    0.4333 C   0  0  0  0  0  0  0  0  0  0  0  0
   -2.4126    0.4862    0.8359 C   0  0  1  0  0  0  0  0  0  0  0  0
   -3.0759   -0.5916    0.0477 N   0  0  0  0  0  0  0  0  0  0  0  0
   -2.7008   -0.2908   -1.3432 C   0  0  0  0  0  0  0  0  0  0  0  0
   -1.2301   -0.3662   -1.5768 C   0  0  0  0  0  0  0  0  0  0  0  0
   -4.4879   -0.5087    0.1726 C   0  0  0  0  0  0  0  0  0  0  0  0
   -5.2218   -1.7499   -0.2043 C   0  0  0  0  0  0  0  0  0  0  0  0
   -4.9931   -3.0186    0.5383 C   0  0  0  0  0  0  0  0  0  0  0  0
   -4.6834   -2.8921   -0.9461 C   0  0  0  0  0  0  0  0  0  0  0  0
   -1.7373    3.8811   -0.6549 C   0  0  0  0  0  0  0  0  0  0  0  0
   -0.6957    4.4930   -1.3652 C   0  0  0  0  0  0  0  0  0  0  0  0
    0.3816    3.6857   -1.7448 C   0  0  0  0  0  0  0  0  0  0  0  0
    1.4463    4.2241   -2.4482 O   0  0  0  0  0  0  0  0  0  0  0  0
   -0.9170   -1.3192    0.9722 O   0  0  0  0  0  0  0  0  0  0  0  0
    4.4090   -2.7168   -0.4082 H   0  0  0  0  0  0  0  0  0  0  0  0
    6.4461   -4.1095   -0.5362 H   0  0  0  0  0  0  0  0  0  0  0  0
    8.6978   -1.0538    1.3501 H   0  0  0  0  0  0  0  0  0  0  0  0
    6.7186    0.2999    1.4754 H   0  0  0  0  0  0  0  0  0  0  0  0
    2.7555   -1.5714   -0.0816 H   0  0  0  0  0  0  0  0  0  0  0  0
    2.2819    1.3314    0.6601 H   0  0  0  0  0  0  0  0  0  0  0  0
    1.9048    0.0786    2.5639 H   0  0  0  0  0  0  0  0  0  0  0  0
    0.9063   -1.1762    1.7155 H   0  0  0  0  0  0  0  0  0  0  0  0
   -0.5459    0.4364    2.8803 H   0  0  0  0  0  0  0  0  0  0  0  0
    0.0917    1.7445    1.7949 H   0  0  0  0  0  0  0  0  0  0  0  0
    1.1911   -0.7342   -1.2832 H   0  0  0  0  0  0  0  0  0  0  0  0
   -3.6887    1.8864   -0.1516 H   0  0  0  0  0  0  0  0  0  0  0  0
   -2.9161    2.5251    1.3359 H   0  0  0  0  0  0  0  0  0  0  0  0
   -2.7653    0.3480    1.9001 H   0  0  0  0  0  0  0  0  0  0  0  0
   -3.0875    0.7223   -1.6348 H   0  0  0  0  0  0  0  0  0  0  0  0
   -3.2172   -0.9961   -1.9953 H   0  0  0  0  0  0  0  0  0  0  0  0
   -0.8318   -1.3867   -1.6361 H   0  0  0  0  0  0  0  0  0  0  0  0
   -1.0387    0.1952   -2.5346 H   0  0  0  0  0  0  0  0  0  0  0  0
   -4.9063    0.3366   -0.4382 H   0  0  0  0  0  0  0  0  0  0  0  0
   -4.8076   -0.2613    1.2292 H   0  0  0  0  0  0  0  0  0  0  0  0
   -6.3151   -1.5444   -0.4139 H   0  0  0  0  0  0  0  0  0  0  0  0
   -4.1075   -3.1955    1.1612 H   0  0  0  0  0  0  0  0  0  0  0  0
   -5.8744   -3.5957    0.8720 H   0  0  0  0  0  0  0  0  0  0  0  0
   -5.3949   -3.5232   -1.5645 H   0  0  0  0  0  0  0  0  0  0  0  0
   -3.6430   -3.0706   -1.2495 H   0  0  0  0  0  0  0  0  0  0  0  0
   -2.5913    4.4813   -0.3401 H   0  0  0  0  0  0  0  0  0  0  0  0
   -0.7287    5.5457   -1.6059 H   0  0  0  0  0  0  0  0  0  0  0  0
    2.3347    4.4451   -1.9902 H   0  0  0  0  0  0  0  0  0  0  0  0
   -1.2849   -1.5832    1.8478 H   0  0  0  0  0  0  0  0  0  0  0  0
  1  2  2  0
  2  3  1  0
  3  4  2  0
  4  5  1  0
  5  6  2  0
  6  7  1  0
  7  8  2  0
  2  9  1  0
  9 10  1  0
 10 11  1  0
 11 12  1  0
 12 13  1  0
 13 14  1  0
 14 15  1  0
 15 16  1  0
 16 17  1  0
 17 18  2  0
 18 19  1  0
 19 20  1  0
 20 21  1  0
 21 22  1  0
 22 23  1  0
 23 24  1  0
 22 25  1  0
 25 26  1  0
 26 27  1  0
 27 28  1  0
 19 29  2  0
 29 30  1  0
 30 31  2  0
 31 32  1  0
 13 33  1  1
  8  3  1  0
 15 10  1  0
 31 17  1  0
 21 13  1  0
 28 26  1  0
 14 24  1  6
 18 14  1  0
  4 34  1  0
  5 35  1  0
  7 36  1  0
  8 37  1  0
  9 38  1  0
 10 39  1  1
 11 40  1  0
 11 41  1  0
 12 42  1  0
 12 43  1  0
 15 44  1  6
 20 45  1  0
 20 46  1  0
 21 47  1  1
 23 48  1  0
 23 49  1  0
 24 50  1  0
 24 51  1  0
 25 52  1  0
 25 53  1  0
 26 54  1  0
 27 55  1  0
 27 56  1  0
 28 57  1  0
 28 58  1  0
 29 59  1  0
 30 60  1  0
 32 61  1  0
 33 62  1  0
M  END
>  <Ligand ID>  (1) 
LIG0002881

>  <Ligand>  (1) 
CHEMBL522143

>  <SMILES>  (1) 
O=C(c1ccncc1)N[C@@H]1CC[C@@]2([C@@]34[C@H]1Oc1c4c(C[C@H]2N(CC3)CC2CC2)ccc1O)O

>  <CID>  (1) 
25232540.0

>  <ChEMBL ID>  (1) 
nan

>  <InChiKey>  (1) 
XQWZTPWKACKUMJ-HJUABUFYSA-N

>  <InChi>  (1) 
InChI=1S/C26H29N3O4/c30-19-4-3-17-13-20-26(32)8-5-18(28-24(31)16-6-10-27-11-7-16)23-25(26,21(17)22(19)33-23)9-12-29(20)14-15-1-2-15/h3-4,6-7,10-11,15,18,20,23,30,32H,1-2,5,8-9,12-14H2,(H,28,31)/t18-,20-,23+,25+,26-/m1/s1

>  <IUPAC Name>  (1) 
N-[(4R,4aS,7R,7aR,12bS)-3-(cyclopropylmethyl)-4a,9-dihydroxy-1,2,4,5,6,7,7a,13-octahydro-4,12-methanobenzofuro[3,2-e]isoquinolin-7-yl]pyridine-4-carboxamide

$$$$
