
     RDKit          3D

188194  0  0  0  0  0  0  0  0999 V2000
   11.8808   -3.0431   -1.9156 N   0  0  0  0  0  0  0  0  0  0  0  0
   11.0760   -2.9743   -0.7375 C   0  0  0  0  0  0  0  0  0  0  0  0
    9.9677   -2.3481   -0.8151 N   0  0  0  0  0  0  0  0  0  0  0  0
    9.0762   -2.2177    0.3161 C   0  0  0  0  0  0  0  0  0  0  0  0
    8.4062   -3.5552    0.5258 C   0  0  0  0  0  0  0  0  0  0  0  0
    7.4577   -3.5835    1.6543 C   0  0  0  0  0  0  0  0  0  0  0  0
    6.2779   -2.7204    1.6627 C   0  0  2  0  0  0  0  0  0  0  0  0
    5.3161   -2.8932    0.5802 N   0  0  0  0  0  0  0  0  0  0  0  0
    3.9628   -3.2582    0.8406 C   0  0  0  0  0  0  0  0  0  0  0  0
    3.6826   -3.3741    2.0557 O   0  0  0  0  0  0  0  0  0  0  0  0
    2.8921   -3.5007   -0.1221 C   0  0  1  0  0  0  0  0  0  0  0  0
    3.0417   -4.7341   -0.9820 C   0  0  0  0  0  0  0  0  0  0  0  0
    4.2272   -4.7410   -1.8239 C   0  0  0  0  0  0  0  0  0  0  0  0
    4.1113   -4.0884   -3.0693 C   0  0  0  0  0  0  0  0  0  0  0  0
    5.1614   -4.0554   -3.9617 C   0  0  0  0  0  0  0  0  0  0  0  0
    6.3599   -4.6636   -3.6624 C   0  0  0  0  0  0  0  0  0  0  0  0
    6.4569   -5.2937   -2.4498 C   0  0  0  0  0  0  0  0  0  0  0  0
    5.4260   -5.3476   -1.5278 C   0  0  0  0  0  0  0  0  0  0  0  0
    1.6428   -3.6714    0.6663 N   0  0  0  0  0  0  0  0  0  0  0  0
    0.3733   -3.2951    0.1279 C   0  0  0  0  0  0  0  0  0  0  0  0
    0.3886   -2.9181   -1.0470 O   0  0  0  0  0  0  0  0  0  0  0  0
   -0.8575   -3.3806    0.9792 C   0  0  2  0  0  0  0  0  0  0  0  0
   -0.7698   -4.4893    1.9467 C   0  0  0  0  0  0  0  0  0  0  0  0
   -2.0839   -3.2399    0.2640 N   0  0  0  0  0  0  0  0  0  0  0  0
   -2.6214   -1.9886   -0.2390 C   0  0  0  0  0  0  0  0  0  0  0  0
   -1.8478   -1.0378   -0.0798 O   0  0  0  0  0  0  0  0  0  0  0  0
   -3.9375   -1.9994   -0.8532 C   0  0  1  0  0  0  0  0  0  0  0  0
   -4.6255   -3.2134   -0.4514 N   0  0  0  0  0  0  0  0  0  0  0  0
   -5.4070   -4.0202   -1.2692 C   0  0  0  0  0  0  0  0  0  0  0  0
   -5.5631   -3.6619   -2.4762 O   0  0  0  0  0  0  0  0  0  0  0  0
   -6.0906   -5.2754   -0.8795 C   0  0  2  0  0  0  0  0  0  0  0  0
   -7.4994   -5.0871   -0.3750 C   0  0  0  0  0  0  0  0  0  0  0  0
   -7.6319   -4.3004    0.8494 C   0  0  0  0  0  0  0  0  0  0  0  0
   -7.7872   -2.9470    0.9560 C   0  0  0  0  0  0  0  0  0  0  0  0
   -7.9244   -2.3619    2.2100 C   0  0  0  0  0  0  0  0  0  0  0  0
   -7.9117   -3.0927    3.3778 C   0  0  0  0  0  0  0  0  0  0  0  0
   -7.7570   -4.4414    3.2785 C   0  0  0  0  0  0  0  0  0  0  0  0
   -7.6214   -5.0212    2.0540 C   0  0  0  0  0  0  0  0  0  0  0  0
   -8.0580   -2.4268    4.6094 O   0  0  0  0  0  0  0  0  0  0  0  0
   -5.3174   -5.8311    0.2642 N   0  0  0  0  0  0  0  0  0  0  0  0
   -4.8527   -0.8418   -0.6735 C   0  0  0  0  0  0  0  0  0  0  0  0
   -4.4188    0.4074   -1.2680 C   0  0  0  0  0  0  0  0  0  0  0  0
   -3.2300    0.6470   -1.4180 O   0  0  0  0  0  0  0  0  0  0  0  0
   -5.2471    1.4823   -1.7672 N   0  0  0  0  0  0  0  0  0  0  0  0
   -6.6262    1.0834   -1.9355 C   0  0  2  0  0  0  0  0  0  0  0  0
   -7.3703    0.7619   -0.7254 C   0  0  0  0  0  0  0  0  0  0  0  0
   -8.4621    0.1807   -0.6968 O   0  0  0  0  0  0  0  0  0  0  0  0
   -6.8109    1.1455    0.5480 N   0  0  0  0  0  0  0  0  0  0  0  0
   -6.7897    0.1194   -3.0826 C   0  0  0  0  0  0  0  0  0  0  0  0
   -8.1486   -0.3502   -3.3415 C   0  0  0  0  0  0  0  0  0  0  0  0
   -8.7135   -1.5031   -2.8499 C   0  0  0  0  0  0  0  0  0  0  0  0
  -10.0170   -1.8724   -3.1514 C   0  0  0  0  0  0  0  0  0  0  0  0
  -10.7606   -1.0421   -3.9775 C   0  0  0  0  0  0  0  0  0  0  0  0
  -10.2431    0.1094   -4.4882 C   0  0  0  0  0  0  0  0  0  0  0  0
   -8.9453    0.4526   -4.1715 C   0  0  0  0  0  0  0  0  0  0  0  0
  -12.0797   -1.3923   -4.2987 O   0  0  0  0  0  0  0  0  0  0  0  0
   -4.8158    2.8080   -2.0360 C   0  0  2  0  0  0  0  0  0  0  0  0
   -3.7117    2.8859   -3.0578 C   0  0  0  0  0  0  0  0  0  0  0  0
   -4.6021    3.7003   -0.9153 N   0  0  0  0  0  0  0  0  0  0  0  0
   -3.4151    3.8470   -0.1785 C   0  0  0  0  0  0  0  0  0  0  0  0
   -2.4279    3.1926   -0.4740 O   0  0  0  0  0  0  0  0  0  0  0  0
   -3.2407    4.7915    1.0055 C   0  0  1  0  0  0  0  0  0  0  0  0
   -1.8214    4.6707    1.3909 N   0  0  0  0  0  0  0  0  0  0  0  0
   -0.8046    5.1114    0.4663 C   0  0  0  0  0  0  0  0  0  0  0  0
   -1.2454    5.7037   -0.5305 O   0  0  0  0  0  0  0  0  0  0  0  0
    0.6216    4.9231    0.6174 C   0  0  1  0  0  0  0  0  0  0  0  0
    1.0466    4.1284    1.7564 N   0  0  0  0  0  0  0  0  0  0  0  0
    2.4381    4.0033    1.9690 C   0  0  0  0  0  0  0  0  0  0  0  0
    3.1878    4.5926    1.1855 O   0  0  0  0  0  0  0  0  0  0  0  0
    3.0377    3.1811    3.0923 C   0  0  1  0  0  0  0  0  0  0  0  0
    4.4396    2.9214    2.7063 N   0  0  0  0  0  0  0  0  0  0  0  0
    4.7026    1.6294    2.2166 C   0  0  0  0  0  0  0  0  0  0  0  0
    3.7974    0.7987    2.2380 O   0  0  0  0  0  0  0  0  0  0  0  0
    6.0422    1.1723    1.6543 C   0  0  1  0  0  0  0  0  0  0  0  0
    5.8807   -0.2172    1.2524 N   0  0  0  0  0  0  0  0  0  0  0  0
    6.5327   -1.2916    1.9846 C   0  0  0  0  0  0  0  0  0  0  0  0
    7.2951   -0.8874    2.8727 O   0  0  0  0  0  0  0  0  0  0  0  0
    6.4078    2.1329    0.5839 C   0  0  0  0  0  0  0  0  0  0  0  0
    7.6560    1.8978   -0.1331 C   0  0  0  0  0  0  0  0  0  0  0  0
    8.8619    2.5316    0.1882 C   0  0  0  0  0  0  0  0  0  0  0  0
    9.8335    2.0899   -0.6489 N   0  0  0  0  0  0  0  0  0  0  0  0
    9.3041    1.2007   -1.4934 C   0  0  0  0  0  0  0  0  0  0  0  0
    7.9701    1.0681   -1.1935 C   0  0  0  0  0  0  0  0  0  0  0  0
    7.1627    0.2111   -1.9244 C   0  0  0  0  0  0  0  0  0  0  0  0
    7.7554   -0.5072   -2.9704 C   0  0  0  0  0  0  0  0  0  0  0  0
    9.1087   -0.3482   -3.2464 C   0  0  0  0  0  0  0  0  0  0  0  0
    9.9167    0.5069   -2.5177 C   0  0  0  0  0  0  0  0  0  0  0  0
    2.9260    3.9042    4.4005 C   0  0  0  0  0  0  0  0  0  0  0  0
    3.6205    5.2096    4.3905 C   0  0  0  0  0  0  0  0  0  0  0  0
    4.8582    5.3329    4.2312 O   0  0  0  0  0  0  0  0  0  0  0  0
    2.8893    6.4295    4.5661 N   0  0  0  0  0  0  0  0  0  0  0  0
    1.0512    4.1063   -0.6610 C   0  0  0  0  0  0  0  0  0  0  0  0
   -3.7123    6.1460    0.6987 C   0  0  0  0  0  0  0  0  0  0  0  0
   -3.5416    7.0737    1.8430 C   0  0  0  0  0  0  0  0  0  0  0  0
   -4.5370    7.2339    2.8015 C   0  0  0  0  0  0  0  0  0  0  0  0
   -4.4199    8.0805    3.8576 C   0  0  0  0  0  0  0  0  0  0  0  0
   -3.2822    8.8320    4.0262 C   0  0  0  0  0  0  0  0  0  0  0  0
   -2.2451    8.7099    3.0905 C   0  0  0  0  0  0  0  0  0  0  0  0
   -2.3952    7.8391    2.0249 C   0  0  0  0  0  0  0  0  0  0  0  0
   -5.9631    3.5505   -2.7718 C   0  0  0  0  0  0  0  0  0  0  0  0
   -6.5077    4.4924   -2.1438 O   0  0  0  0  0  0  0  0  0  0  0  0
   -6.3551    3.2038   -4.0362 O   0  0  0  0  0  0  0  0  0  0  0  0
   11.5734   -3.6074    0.4269 N   0  0  0  0  0  0  0  0  0  0  0  0
   12.0855   -3.9462   -2.3766 H   0  0  0  0  0  0  0  0  0  0  0  0
   12.2373   -2.1082   -2.2618 H   0  0  0  0  0  0  0  0  0  0  0  0
    8.3833   -1.4084    0.1277 H   0  0  0  0  0  0  0  0  0  0  0  0
    9.7321   -2.0619    1.1982 H   0  0  0  0  0  0  0  0  0  0  0  0
    8.0385   -3.9940   -0.4220 H   0  0  0  0  0  0  0  0  0  0  0  0
    9.2539   -4.2375    0.8157 H   0  0  0  0  0  0  0  0  0  0  0  0
    8.0504   -3.3611    2.5840 H   0  0  0  0  0  0  0  0  0  0  0  0
    7.1610   -4.6649    1.8068 H   0  0  0  0  0  0  0  0  0  0  0  0
    5.6860   -3.0577    2.5970 H   0  0  0  0  0  0  0  0  0  0  0  0
    5.5421   -2.7534   -0.4050 H   0  0  0  0  0  0  0  0  0  0  0  0
    2.7013   -2.6743   -0.8389 H   0  0  0  0  0  0  0  0  0  0  0  0
    2.9697   -5.6267   -0.2928 H   0  0  0  0  0  0  0  0  0  0  0  0
    2.0769   -4.7780   -1.5728 H   0  0  0  0  0  0  0  0  0  0  0  0
    3.1664   -3.5913   -3.3365 H   0  0  0  0  0  0  0  0  0  0  0  0
    4.9802   -3.5263   -4.8970 H   0  0  0  0  0  0  0  0  0  0  0  0
    7.1368   -4.6026   -4.4001 H   0  0  0  0  0  0  0  0  0  0  0  0
    7.4190   -5.7752   -2.2315 H   0  0  0  0  0  0  0  0  0  0  0  0
    5.5284   -5.8488   -0.5790 H   0  0  0  0  0  0  0  0  0  0  0  0
    1.6253   -4.0539    1.6069 H   0  0  0  0  0  0  0  0  0  0  0  0
   -0.7807   -2.3911    1.5732 H   0  0  0  0  0  0  0  0  0  0  0  0
   -0.3296   -4.1728    2.9289 H   0  0  0  0  0  0  0  0  0  0  0  0
   -1.7634   -4.9442    2.1767 H   0  0  0  0  0  0  0  0  0  0  0  0
   -0.1559   -5.3184    1.5307 H   0  0  0  0  0  0  0  0  0  0  0  0
   -2.6525   -4.0575    0.0623 H   0  0  0  0  0  0  0  0  0  0  0  0
   -3.7639   -2.1740   -1.9695 H   0  0  0  0  0  0  0  0  0  0  0  0
   -4.5139   -3.4861    0.5561 H   0  0  0  0  0  0  0  0  0  0  0  0
   -6.0213   -5.9835   -1.7102 H   0  0  0  0  0  0  0  0  0  0  0  0
   -8.0803   -4.6406   -1.2358 H   0  0  0  0  0  0  0  0  0  0  0  0
   -7.9489   -6.1061   -0.2321 H   0  0  0  0  0  0  0  0  0  0  0  0
   -7.7971   -2.3639    0.0707 H   0  0  0  0  0  0  0  0  0  0  0  0
   -8.0556   -1.2883    2.3128 H   0  0  0  0  0  0  0  0  0  0  0  0
   -7.7465   -5.0205    4.1870 H   0  0  0  0  0  0  0  0  0  0  0  0
   -7.5025   -6.1127    2.0259 H   0  0  0  0  0  0  0  0  0  0  0  0
   -8.1703   -2.9855    5.4524 H   0  0  0  0  0  0  0  0  0  0  0  0
   -5.3797   -5.2341    1.0950 H   0  0  0  0  0  0  0  0  0  0  0  0
   -4.3275   -6.0089   -0.0478 H   0  0  0  0  0  0  0  0  0  0  0  0
   -5.8918   -1.1153   -0.8060 H   0  0  0  0  0  0  0  0  0  0  0  0
   -4.7757   -0.6376    0.4743 H   0  0  0  0  0  0  0  0  0  0  0  0
   -7.1872    2.0181   -2.3308 H   0  0  0  0  0  0  0  0  0  0  0  0
   -6.2429    2.0178    0.5898 H   0  0  0  0  0  0  0  0  0  0  0  0
   -6.9491    0.6054    1.4094 H   0  0  0  0  0  0  0  0  0  0  0  0
   -6.0679   -0.7238   -2.9494 H   0  0  0  0  0  0  0  0  0  0  0  0
   -6.3557    0.6127   -4.0211 H   0  0  0  0  0  0  0  0  0  0  0  0
   -8.0890   -2.1155   -2.2210 H   0  0  0  0  0  0  0  0  0  0  0  0
  -10.4624   -2.7937   -2.7537 H   0  0  0  0  0  0  0  0  0  0  0  0
  -10.7761    0.7975   -5.1422 H   0  0  0  0  0  0  0  0  0  0  0  0
   -8.5315    1.3798   -4.5844 H   0  0  0  0  0  0  0  0  0  0  0  0
  -12.7273   -0.6542   -4.5133 H   0  0  0  0  0  0  0  0  0  0  0  0
   -3.6780    3.9446   -3.3970 H   0  0  0  0  0  0  0  0  0  0  0  0
   -4.0223    2.3131   -3.9680 H   0  0  0  0  0  0  0  0  0  0  0  0
   -2.7478    2.5343   -2.6817 H   0  0  0  0  0  0  0  0  0  0  0  0
   -5.3749    4.3156   -0.5710 H   0  0  0  0  0  0  0  0  0  0  0  0
   -3.8710    4.3453    1.8110 H   0  0  0  0  0  0  0  0  0  0  0  0
   -1.4807    4.3029    2.2649 H   0  0  0  0  0  0  0  0  0  0  0  0
    1.2130    5.8444    0.5579 H   0  0  0  0  0  0  0  0  0  0  0  0
    0.4463    3.6467    2.4187 H   0  0  0  0  0  0  0  0  0  0  0  0
    2.5022    2.2271    3.1602 H   0  0  0  0  0  0  0  0  0  0  0  0
    5.2030    3.5715    2.7663 H   0  0  0  0  0  0  0  0  0  0  0  0
    6.7282    1.2830    2.5027 H   0  0  0  0  0  0  0  0  0  0  0  0
    5.3272   -0.5431    0.4624 H   0  0  0  0  0  0  0  0  0  0  0  0
    5.5824    2.2321   -0.1915 H   0  0  0  0  0  0  0  0  0  0  0  0
    6.4307    3.1549    1.0400 H   0  0  0  0  0  0  0  0  0  0  0  0
    9.0251    3.2595    0.9703 H   0  0  0  0  0  0  0  0  0  0  0  0
   10.8225    2.4031   -0.6259 H   0  0  0  0  0  0  0  0  0  0  0  0
    6.1272    0.1112   -1.6927 H   0  0  0  0  0  0  0  0  0  0  0  0
    7.1231   -1.1828   -3.5474 H   0  0  0  0  0  0  0  0  0  0  0  0
    9.5442   -0.9124   -4.0550 H   0  0  0  0  0  0  0  0  0  0  0  0
   10.9763    0.6346   -2.7297 H   0  0  0  0  0  0  0  0  0  0  0  0
    3.3773    3.3250    5.2403 H   0  0  0  0  0  0  0  0  0  0  0  0
    1.8773    4.0792    4.7025 H   0  0  0  0  0  0  0  0  0  0  0  0
    3.2448    7.3406    4.1547 H   0  0  0  0  0  0  0  0  0  0  0  0
    1.9818    6.4086    5.1182 H   0  0  0  0  0  0  0  0  0  0  0  0
    0.8226    3.0619   -0.3960 H   0  0  0  0  0  0  0  0  0  0  0  0
    2.1105    4.3009   -0.8341 H   0  0  0  0  0  0  0  0  0  0  0  0
    0.4213    4.4902   -1.4624 H   0  0  0  0  0  0  0  0  0  0  0  0
   -4.8315    6.0751    0.5648 H   0  0  0  0  0  0  0  0  0  0  0  0
   -3.3363    6.5353   -0.2560 H   0  0  0  0  0  0  0  0  0  0  0  0
   -5.4298    6.6517    2.6812 H   0  0  0  0  0  0  0  0  0  0  0  0
   -5.2447    8.1401    4.5527 H   0  0  0  0  0  0  0  0  0  0  0  0
   -3.2266    9.4878    4.8687 H   0  0  0  0  0  0  0  0  0  0  0  0
   -1.3774    9.3140    3.2596 H   0  0  0  0  0  0  0  0  0  0  0  0
   -1.5797    7.7746    1.3297 H   0  0  0  0  0  0  0  0  0  0  0  0
   -6.9492    3.8710   -4.5483 H   0  0  0  0  0  0  0  0  0  0  0  0
   11.6766   -4.6563    0.4472 H   0  0  0  0  0  0  0  0  0  0  0  0
   11.8277   -2.9982    1.2438 H   0  0  0  0  0  0  0  0  0  0  0  0
  1  2  1  0
  2  3  2  3
  3  4  1  0
  4  5  1  0
  5  6  1  0
  6  7  1  0
  7  8  1  0
  8  9  1  0
  9 10  2  0
  9 11  1  0
 11 12  1  0
 12 13  1  0
 13 14  2  0
 14 15  1  0
 15 16  2  0
 16 17  1  0
 17 18  2  0
 11 19  1  0
 19 20  1  0
 20 21  2  0
 20 22  1  0
 22 23  1  0
 22 24  1  0
 24 25  1  0
 25 26  2  0
 25 27  1  0
 27 28  1  0
 28 29  1  0
 29 30  2  0
 29 31  1  0
 31 32  1  0
 32 33  1  0
 33 34  2  0
 34 35  1  0
 35 36  2  0
 36 37  1  0
 37 38  2  0
 36 39  1  0
 31 40  1  0
 27 41  1  0
 41 42  1  0
 42 43  2  0
 42 44  1  0
 44 45  1  0
 45 46  1  0
 46 47  2  0
 46 48  1  0
 45 49  1  0
 49 50  1  0
 50 51  2  0
 51 52  1  0
 52 53  2  0
 53 54  1  0
 54 55  2  0
 53 56  1  0
 44 57  1  0
 57 58  1  6
 57 59  1  0
 59 60  1  0
 60 61  2  0
 60 62  1  0
 62 63  1  0
 63 64  1  0
 64 65  2  0
 64 66  1  0
 66 67  1  0
 67 68  1  0
 68 69  2  0
 68 70  1  0
 70 71  1  0
 71 72  1  0
 72 73  2  0
 72 74  1  0
 74 75  1  0
 75 76  1  0
 76 77  2  0
 74 78  1  0
 78 79  1  0
 79 80  2  0
 80 81  1  0
 81 82  1  0
 82 83  2  0
 83 84  1  0
 84 85  2  0
 85 86  1  0
 86 87  2  0
 70 88  1  0
 88 89  1  0
 89 90  2  0
 89 91  1  0
 66 92  1  0
 62 93  1  0
 93 94  1  0
 94 95  2  0
 95 96  1  0
 96 97  2  0
 97 98  1  0
 98 99  2  0
 57100  1  0
100101  2  0
100102  1  0
  2103  1  0
 76  7  1  0
 83 79  1  0
 99 94  1  0
 18 13  1  0
 38 33  1  0
 55 50  1  0
 87 82  1  0
  1104  1  0
  1105  1  0
  4106  1  0
  4107  1  0
  5108  1  0
  5109  1  0
  6110  1  0
  6111  1  0
  7112  1  1
  8113  1  0
 11114  1  6
 12115  1  0
 12116  1  0
 14117  1  0
 15118  1  0
 16119  1  0
 17120  1  0
 18121  1  0
 19122  1  0
 22123  1  1
 23124  1  0
 23125  1  0
 23126  1  0
 24127  1  0
 27128  1  6
 28129  1  0
 31130  1  6
 32131  1  0
 32132  1  0
 34133  1  0
 35134  1  0
 37135  1  0
 38136  1  0
 39137  1  0
 40138  1  0
 40139  1  0
 41140  1  0
 41141  1  0
 45142  1  6
 48143  1  0
 48144  1  0
 49145  1  0
 49146  1  0
 51147  1  0
 52148  1  0
 54149  1  0
 55150  1  0
 56151  1  0
 58152  1  0
 58153  1  0
 58154  1  0
 59155  1  0
 62156  1  1
 63157  1  0
 66158  1  6
 67159  1  0
 70160  1  1
 71161  1  0
 74162  1  1
 75163  1  0
 78164  1  0
 78165  1  0
 80166  1  0
 81167  1  0
 84168  1  0
 85169  1  0
 86170  1  0
 87171  1  0
 88172  1  0
 88173  1  0
 91174  1  0
 91175  1  0
 92176  1  0
 92177  1  0
 92178  1  0
 93179  1  0
 93180  1  0
 95181  1  0
 96182  1  0
 97183  1  0
 98184  1  0
 99185  1  0
102186  1  0
103187  1  0
103188  1  0
M  END
>  <Ligand ID>  (1) 
LIG0001119

>  <Ligand>  (1) 
CHEMBL2369967

>  <SMILES>  (1) 
NC(=NCCC[C@@H]1NC(=O)[C@@H](Cc2ccccc2)NC(=O)[C@H](C)NC(=O)[C@@H](NC(=O)[C@H](Cc2ccc(cc2)O)N)CC(=O)N([C@H](C(=O)N)Cc2ccc(cc2)O)[C@](C)(NC(=O)[C@@H](NC(=O)[C@@H](NC(=O)[C@@H](NC(=O)[C@@H](NC1=O)Cc1c[nH]c2c1cccc2)CC(=O)N)C)Cc1ccccc1)C(=O)O)N

>  <CID>  (1) 
73356088.0

>  <ChEMBL ID>  (1) 
nan

>  <InChiKey>  (1) 
AHYBINIDLPZASF-HKVJYHDLSA-N

>  <InChi>  (1) 
InChI=1S/C70H85N17O16/c1-37-59(93)81-50(30-39-13-6-4-7-14-39)65(99)80-49(19-12-28-76-69(74)75)62(96)84-52(33-43-36-77-48-18-11-10-17-46(43)48)66(100)85-53(34-56(72)90)63(97)78-38(2)60(94)82-51(31-40-15-8-5-9-16-40)67(101)86-70(3,68(102)103)87(55(58(73)92)32-42-22-26-45(89)27-23-42)57(91)35-54(64(98)79-37)83-61(95)47(71)29-41-20-24-44(88)25-21-41/h4-11,13-18,20-27,36-38,47,49-55,77,88-89H,12,19,28-35,71H2,1-3H3,(H2,72,90)(H2,73,92)(H,78,97)(H,79,98)(H,80,99)(H,81,93)(H,82,94)(H,83,95)(H,84,96)(H,85,100)(H,86,101)(H,102,103)(H4,74,75,76)/t37-,38-,47-,49-,50+,51-,52-,53-,54-,55-,70-/m0/s1

>  <IUPAC Name>  (1) 
(2S,5S,8S,11S,14S,17S,20R,23S,26S)-1-[(2S)-1-amino-3-(4-hydroxyphenyl)-1-oxopropan-2-yl]-26-[[(2S)-2-amino-3-(4-hydroxyphenyl)propanoyl]amino]-11-(2-amino-2-oxoethyl)-5,20-dibenzyl-17-[3-(diaminomethylideneamino)propyl]-14-(1H-indol-3-ylmethyl)-2,8,23-trimethyl-4,7,10,13,16,19,22,25,28-nonaoxo-1,3,6,9,12,15,18,21,24-nonazacyclooctacosane-2-carboxylic acid

$$$$
