
     RDKit          3D

169172  0  0  0  0  0  0  0  0999 V2000
  -13.2968   -3.7561   -0.6212 C   0  0  0  0  0  0  0  0  0  0  0  0
  -12.4688   -3.0396    0.3295 N   0  0  0  0  0  0  0  0  0  0  0  0
  -11.3570   -3.4988    0.7719 C   0  0  0  0  0  0  0  0  0  0  0  0
  -10.5634   -2.7806    1.7013 N   0  0  0  0  0  0  0  0  0  0  0  0
  -10.9551   -1.4499    2.1985 C   0  0  0  0  0  0  0  0  0  0  0  0
   -9.8878   -0.9477    3.1674 C   0  0  0  0  0  0  0  0  0  0  0  0
   -8.5627   -0.8438    2.5099 C   0  0  0  0  0  0  0  0  0  0  0  0
   -8.4166    0.0729    1.3591 C   0  0  1  0  0  0  0  0  0  0  0  0
   -8.6483    1.5116    1.6122 C   0  0  0  0  0  0  0  0  0  0  0  0
   -7.6391    2.2785    1.4748 O   0  0  0  0  0  0  0  0  0  0  0  0
   -9.8737    2.0833    1.9790 N   0  0  0  0  0  0  0  0  0  0  0  0
  -10.1010    3.5069    2.2257 C   0  0  2  0  0  0  0  0  0  0  0  0
  -10.8234    3.8071    3.4269 C   0  0  0  0  0  0  0  0  0  0  0  0
  -10.9741    5.0262    3.7858 O   0  0  0  0  0  0  0  0  0  0  0  0
  -11.3882    2.7982    4.2499 N   0  0  0  0  0  0  0  0  0  0  0  0
  -10.7152    4.1308    0.9684 C   0  0  0  0  0  0  0  0  0  0  0  0
  -11.9717    3.5134    0.5313 C   0  0  0  0  0  0  0  0  0  0  0  0
  -11.9933    2.5636   -0.4957 C   0  0  0  0  0  0  0  0  0  0  0  0
  -13.2336    2.1328   -0.7177 N   0  0  0  0  0  0  0  0  0  0  0  0
  -14.0513    2.7629    0.1253 C   0  0  0  0  0  0  0  0  0  0  0  0
  -13.2777    3.6285    0.9148 C   0  0  0  0  0  0  0  0  0  0  0  0
  -13.8714    4.4127    1.8713 C   0  0  0  0  0  0  0  0  0  0  0  0
  -15.2480    4.3321    2.0446 C   0  0  0  0  0  0  0  0  0  0  0  0
  -16.0190    3.4859    1.2774 C   0  0  0  0  0  0  0  0  0  0  0  0
  -15.4129    2.6961    0.3108 C   0  0  0  0  0  0  0  0  0  0  0  0
   -7.0752   -0.1502    0.7834 N   0  0  0  0  0  0  0  0  0  0  0  0
   -6.9013    0.1716   -0.6384 C   0  0  0  0  0  0  0  0  0  0  0  0
   -7.9947    0.6481   -1.1089 O   0  0  0  0  0  0  0  0  0  0  0  0
   -5.6897   -0.0314   -1.3479 C   0  0  1  0  0  0  0  0  0  0  0  0
   -4.6687   -0.7456   -0.5402 N   0  0  0  0  0  0  0  0  0  0  0  0
   -3.3334   -0.5223   -0.9343 C   0  0  0  0  0  0  0  0  0  0  0  0
   -3.1788    0.2671   -1.9354 O   0  0  0  0  0  0  0  0  0  0  0  0
   -2.1971   -1.1099   -0.3083 N   0  0  0  0  0  0  0  0  0  0  0  0
   -0.9640   -0.8628   -0.8480 N   0  0  0  0  0  0  0  0  0  0  0  0
    0.3115   -1.3108   -0.4177 C   0  0  0  0  0  0  0  0  0  0  0  0
    0.3689   -2.0154    0.6108 O   0  0  0  0  0  0  0  0  0  0  0  0
    1.4413   -0.8882   -1.2512 C   0  0  1  0  0  0  0  0  0  0  0  0
    2.7646   -1.0636   -0.6995 N   0  0  0  0  0  0  0  0  0  0  0  0
    3.6552    0.0343   -0.7820 C   0  0  0  0  0  0  0  0  0  0  0  0
    3.1567    1.1124   -1.3101 O   0  0  0  0  0  0  0  0  0  0  0  0
    5.0334    0.1343   -0.3772 C   0  0  2  0  0  0  0  0  0  0  0  0
    5.8788    0.5166   -1.6803 C   0  0  2  0  0  0  0  0  0  0  0  0
    5.3167    1.6287   -2.2352 O   0  0  0  0  0  0  0  0  0  0  0  0
    5.9160   -0.7002   -2.5585 C   0  0  0  0  0  0  0  0  0  0  0  0
    5.6826   -1.0540    0.1500 N   0  0  0  0  0  0  0  0  0  0  0  0
    6.9274   -0.8419    0.7738 C   0  0  0  0  0  0  0  0  0  0  0  0
    7.4412    0.3326    0.8770 O   0  0  0  0  0  0  0  0  0  0  0  0
    7.8062   -1.9225    1.3610 C   0  0  1  0  0  0  0  0  0  0  0  0
    9.1817   -1.3603    1.1472 N   0  0  0  0  0  0  0  0  0  0  0  0
    9.6668   -1.5445   -0.1424 C   0  0  0  0  0  0  0  0  0  0  0  0
    8.9244   -2.1702   -0.9711 O   0  0  0  0  0  0  0  0  0  0  0  0
   10.9704   -1.0819   -0.6976 C   0  0  2  0  0  0  0  0  0  0  0  0
   11.8488   -0.6329    0.3648 N   0  0  0  0  0  0  0  0  0  0  0  0
   13.2490   -0.8438    0.4160 C   0  0  0  0  0  0  0  0  0  0  0  0
   13.8197   -1.4487   -0.5615 O   0  0  0  0  0  0  0  0  0  0  0  0
   14.1442   -0.4352    1.5083 C   0  0  1  0  0  0  0  0  0  0  0  0
   15.2367    0.5065    1.1687 C   0  0  0  0  0  0  0  0  0  0  0  0
   14.8853    1.8241    0.6711 C   0  0  0  0  0  0  0  0  0  0  0  0
   14.7712    2.2170   -0.6356 C   0  0  0  0  0  0  0  0  0  0  0  0
   14.4110    3.5077   -0.9662 C   0  0  0  0  0  0  0  0  0  0  0  0
   14.1476    4.4725   -0.0264 C   0  0  0  0  0  0  0  0  0  0  0  0
   14.2607    4.0893    1.3097 C   0  0  0  0  0  0  0  0  0  0  0  0
   14.6154    2.8172    1.6253 C   0  0  0  0  0  0  0  0  0  0  0  0
   13.7859    5.7595   -0.3974 O   0  0  0  0  0  0  0  0  0  0  0  0
   13.3821    0.0339    2.6759 N   0  0  0  0  0  0  0  0  0  0  0  0
   13.5852   -0.6538    3.9189 C   0  0  0  0  0  0  0  0  0  0  0  0
   14.3819   -1.6139    4.0194 O   0  0  0  0  0  0  0  0  0  0  0  0
   12.8490   -0.2578    5.1556 C   0  0  0  0  0  0  0  0  0  0  0  0
   10.6147    0.0285   -1.6827 C   0  0  0  0  0  0  0  0  0  0  0  0
   11.7888    0.5853   -2.3684 C   0  0  0  0  0  0  0  0  0  0  0  0
   12.4511   -0.4254   -3.2217 C   0  0  0  0  0  0  0  0  0  0  0  0
   12.0591   -1.5929   -3.4084 O   0  0  0  0  0  0  0  0  0  0  0  0
   13.6314   -0.0694   -3.8994 O   0  0  0  0  0  0  0  0  0  0  0  0
    7.5858   -1.9768    2.8276 C   0  0  0  0  0  0  0  0  0  0  0  0
    6.2207   -2.2982    3.2453 C   0  0  0  0  0  0  0  0  0  0  0  0
    5.2694   -2.6987    2.5884 O   0  0  0  0  0  0  0  0  0  0  0  0
    5.9650   -2.1043    4.6785 N   0  0  0  0  0  0  0  0  0  0  0  0
    1.4722   -1.7231   -2.5521 C   0  0  0  0  0  0  0  0  0  0  0  0
    0.2568   -1.6601   -3.3572 C   0  0  0  0  0  0  0  0  0  0  0  0
   -0.7098   -2.6505   -3.0943 C   0  0  0  0  0  0  0  0  0  0  0  0
   -1.8915   -2.7060   -3.7982 C   0  0  0  0  0  0  0  0  0  0  0  0
   -2.1210   -1.7755   -4.7695 C   0  0  0  0  0  0  0  0  0  0  0  0
   -1.1769   -0.8202   -5.0180 C   0  0  0  0  0  0  0  0  0  0  0  0
    0.0271   -0.7311   -4.3304 C   0  0  0  0  0  0  0  0  0  0  0  0
   -5.7907   -0.8316   -2.6174 C   0  0  0  0  0  0  0  0  0  0  0  0
   -6.5567   -0.4102   -3.7738 C   0  0  0  0  0  0  0  0  0  0  0  0
   -6.3758   -1.5193   -4.8833 C   0  0  0  0  0  0  0  0  0  0  0  0
   -8.0037   -0.1275   -3.7369 C   0  0  0  0  0  0  0  0  0  0  0  0
  -10.8728   -4.7625    0.3324 N   0  0  0  0  0  0  0  0  0  0  0  0
  -13.5425   -3.1171   -1.4922 H   0  0  0  0  0  0  0  0  0  0  0  0
  -12.7343   -4.6358   -1.0467 H   0  0  0  0  0  0  0  0  0  0  0  0
  -14.2112   -4.1695   -0.1624 H   0  0  0  0  0  0  0  0  0  0  0  0
   -9.6845   -3.2302    2.0286 H   0  0  0  0  0  0  0  0  0  0  0  0
  -11.0591   -0.7348    1.3911 H   0  0  0  0  0  0  0  0  0  0  0  0
  -11.9206   -1.5666    2.7237 H   0  0  0  0  0  0  0  0  0  0  0  0
   -9.7888   -1.7712    3.9444 H   0  0  0  0  0  0  0  0  0  0  0  0
  -10.1994   -0.0772    3.7258 H   0  0  0  0  0  0  0  0  0  0  0  0
   -8.2365   -1.8647    2.1396 H   0  0  0  0  0  0  0  0  0  0  0  0
   -7.7717   -0.6300    3.3024 H   0  0  0  0  0  0  0  0  0  0  0  0
   -9.1121   -0.1894    0.4889 H   0  0  0  0  0  0  0  0  0  0  0  0
  -10.7174    1.4820    2.0985 H   0  0  0  0  0  0  0  0  0  0  0  0
   -9.0666    4.0131    2.2470 H   0  0  0  0  0  0  0  0  0  0  0  0
  -11.7841    1.9377    3.8090 H   0  0  0  0  0  0  0  0  0  0  0  0
  -11.3924    2.9436    5.2842 H   0  0  0  0  0  0  0  0  0  0  0  0
   -9.9485    4.1303    0.1409 H   0  0  0  0  0  0  0  0  0  0  0  0
  -10.8941    5.2286    1.1536 H   0  0  0  0  0  0  0  0  0  0  0  0
  -11.1436    2.2025   -1.0618 H   0  0  0  0  0  0  0  0  0  0  0  0
  -13.5181    1.4214   -1.4263 H   0  0  0  0  0  0  0  0  0  0  0  0
  -13.2648    5.0739    2.4517 H   0  0  0  0  0  0  0  0  0  0  0  0
  -15.7516    4.9222    2.7912 H   0  0  0  0  0  0  0  0  0  0  0  0
  -17.1051    3.4063    1.4111 H   0  0  0  0  0  0  0  0  0  0  0  0
  -16.0112    2.0429   -0.2783 H   0  0  0  0  0  0  0  0  0  0  0  0
   -6.3100   -0.5012    1.3595 H   0  0  0  0  0  0  0  0  0  0  0  0
   -5.2181    0.9805   -1.6274 H   0  0  0  0  0  0  0  0  0  0  0  0
   -4.8795   -1.3665    0.2437 H   0  0  0  0  0  0  0  0  0  0  0  0
   -2.3768   -1.7085    0.5382 H   0  0  0  0  0  0  0  0  0  0  0  0
   -0.9297   -0.2155   -1.7024 H   0  0  0  0  0  0  0  0  0  0  0  0
    1.2891    0.1363   -1.5637 H   0  0  0  0  0  0  0  0  0  0  0  0
    3.1122   -1.9276   -0.2463 H   0  0  0  0  0  0  0  0  0  0  0  0
    5.2458    1.0093    0.2385 H   0  0  0  0  0  0  0  0  0  0  0  0
    6.8853    0.7347   -1.3231 H   0  0  0  0  0  0  0  0  0  0  0  0
    5.0789    1.5061   -3.1843 H   0  0  0  0  0  0  0  0  0  0  0  0
    6.7739   -0.6460   -3.2260 H   0  0  0  0  0  0  0  0  0  0  0  0
    4.9953   -0.6363   -3.1900 H   0  0  0  0  0  0  0  0  0  0  0  0
    5.7931   -1.6472   -1.9924 H   0  0  0  0  0  0  0  0  0  0  0  0
    5.2825   -2.0002    0.0644 H   0  0  0  0  0  0  0  0  0  0  0  0
    7.6221   -2.8196    0.8122 H   0  0  0  0  0  0  0  0  0  0  0  0
    9.7010   -0.8839    1.8896 H   0  0  0  0  0  0  0  0  0  0  0  0
   11.4352   -1.8710   -1.2596 H   0  0  0  0  0  0  0  0  0  0  0  0
   11.4389   -0.0951    1.1926 H   0  0  0  0  0  0  0  0  0  0  0  0
   14.6662   -1.3843    1.8672 H   0  0  0  0  0  0  0  0  0  0  0  0
   15.8732    0.6520    2.0932 H   0  0  0  0  0  0  0  0  0  0  0  0
   15.9539   -0.0367    0.4791 H   0  0  0  0  0  0  0  0  0  0  0  0
   14.9860    1.4576   -1.3994 H   0  0  0  0  0  0  0  0  0  0  0  0
   14.3257    3.8011   -2.0220 H   0  0  0  0  0  0  0  0  0  0  0  0
   14.0551    4.8677    2.0281 H   0  0  0  0  0  0  0  0  0  0  0  0
   14.6932    2.5735    2.6904 H   0  0  0  0  0  0  0  0  0  0  0  0
   13.5251    6.3920    0.3589 H   0  0  0  0  0  0  0  0  0  0  0  0
   12.7150    0.8264    2.6225 H   0  0  0  0  0  0  0  0  0  0  0  0
   12.3509   -1.1823    5.5401 H   0  0  0  0  0  0  0  0  0  0  0  0
   12.0836    0.4921    4.9591 H   0  0  0  0  0  0  0  0  0  0  0  0
   13.5668    0.1234    5.9018 H   0  0  0  0  0  0  0  0  0  0  0  0
    9.9147    0.7722   -1.2346 H   0  0  0  0  0  0  0  0  0  0  0  0
    9.9839   -0.4864   -2.4637 H   0  0  0  0  0  0  0  0  0  0  0  0
   12.5194    1.0718   -1.6779 H   0  0  0  0  0  0  0  0  0  0  0  0
   11.4317    1.4391   -3.0183 H   0  0  0  0  0  0  0  0  0  0  0  0
   13.7304   -0.3168   -4.8906 H   0  0  0  0  0  0  0  0  0  0  0  0
    8.3210   -2.6979    3.3190 H   0  0  0  0  0  0  0  0  0  0  0  0
    7.8735   -1.0016    3.3269 H   0  0  0  0  0  0  0  0  0  0  0  0
    5.3742   -2.8088    5.1881 H   0  0  0  0  0  0  0  0  0  0  0  0
    6.3838   -1.2690    5.1486 H   0  0  0  0  0  0  0  0  0  0  0  0
    2.3020   -1.2552   -3.1607 H   0  0  0  0  0  0  0  0  0  0  0  0
    1.7674   -2.7550   -2.3841 H   0  0  0  0  0  0  0  0  0  0  0  0
   -0.5369   -3.3996   -2.3228 H   0  0  0  0  0  0  0  0  0  0  0  0
   -2.6258   -3.4735   -3.5856 H   0  0  0  0  0  0  0  0  0  0  0  0
   -3.0707   -1.8526   -5.3083 H   0  0  0  0  0  0  0  0  0  0  0  0
   -1.3375   -0.0755   -5.7824 H   0  0  0  0  0  0  0  0  0  0  0  0
    0.7385    0.0301   -4.5643 H   0  0  0  0  0  0  0  0  0  0  0  0
   -6.1727   -1.8916   -2.3416 H   0  0  0  0  0  0  0  0  0  0  0  0
   -4.7485   -1.1033   -2.9876 H   0  0  0  0  0  0  0  0  0  0  0  0
   -6.0910    0.4811   -4.3231 H   0  0  0  0  0  0  0  0  0  0  0  0
   -7.2135   -1.4570   -5.5907 H   0  0  0  0  0  0  0  0  0  0  0  0
   -6.2589   -2.4507   -4.3330 H   0  0  0  0  0  0  0  0  0  0  0  0
   -5.4356   -1.3167   -5.4300 H   0  0  0  0  0  0  0  0  0  0  0  0
   -8.3368   -0.2150   -4.8540 H   0  0  0  0  0  0  0  0  0  0  0  0
   -8.2756    0.9618   -3.5785 H   0  0  0  0  0  0  0  0  0  0  0  0
   -8.6513   -0.8483   -3.2445 H   0  0  0  0  0  0  0  0  0  0  0  0
  -10.7607   -5.0504   -0.6552 H   0  0  0  0  0  0  0  0  0  0  0  0
  -10.6082   -5.4485    1.0983 H   0  0  0  0  0  0  0  0  0  0  0  0
  1  2  1  0
  2  3  2  3
  3  4  1  0
  4  5  1  0
  5  6  1  0
  6  7  1  0
  7  8  1  0
  8  9  1  0
  9 10  2  0
  9 11  1  0
 11 12  1  0
 12 13  1  0
 13 14  2  0
 13 15  1  0
 12 16  1  0
 16 17  1  0
 17 18  2  0
 18 19  1  0
 19 20  1  0
 20 21  2  0
 21 22  1  0
 22 23  2  0
 23 24  1  0
 24 25  2  0
  8 26  1  0
 26 27  1  0
 27 28  2  0
 27 29  1  0
 29 30  1  0
 30 31  1  0
 31 32  2  0
 31 33  1  0
 33 34  1  0
 34 35  1  0
 35 36  2  0
 35 37  1  0
 37 38  1  0
 38 39  1  0
 39 40  2  0
 39 41  1  0
 41 42  1  0
 42 43  1  0
 42 44  1  0
 41 45  1  0
 45 46  1  0
 46 47  2  0
 46 48  1  0
 48 49  1  0
 49 50  1  0
 50 51  2  0
 50 52  1  0
 52 53  1  0
 53 54  1  0
 54 55  2  0
 54 56  1  0
 56 57  1  0
 57 58  1  0
 58 59  2  0
 59 60  1  0
 60 61  2  0
 61 62  1  0
 62 63  2  0
 61 64  1  0
 56 65  1  0
 65 66  1  0
 66 67  2  0
 66 68  1  0
 52 69  1  0
 69 70  1  0
 70 71  1  0
 71 72  2  0
 71 73  1  0
 48 74  1  0
 74 75  1  0
 75 76  2  0
 75 77  1  0
 37 78  1  0
 78 79  1  0
 79 80  2  0
 80 81  1  0
 81 82  2  0
 82 83  1  0
 83 84  2  0
 29 85  1  0
 85 86  1  0
 86 87  1  0
 86 88  1  0
  3 89  1  0
 21 17  1  0
 63 58  1  0
 84 79  1  0
 25 20  1  0
  1 90  1  0
  1 91  1  0
  1 92  1  0
  4 93  1  0
  5 94  1  0
  5 95  1  0
  6 96  1  0
  6 97  1  0
  7 98  1  0
  7 99  1  0
  8100  1  6
 11101  1  0
 12102  1  1
 15103  1  0
 15104  1  0
 16105  1  0
 16106  1  0
 18107  1  0
 19108  1  0
 22109  1  0
 23110  1  0
 24111  1  0
 25112  1  0
 26113  1  0
 29114  1  6
 30115  1  0
 33116  1  0
 34117  1  0
 37118  1  6
 38119  1  0
 41120  1  1
 42121  1  1
 43122  1  0
 44123  1  0
 44124  1  0
 44125  1  0
 45126  1  0
 48127  1  6
 49128  1  0
 52129  1  6
 53130  1  0
 56131  1  1
 57132  1  0
 57133  1  0
 59134  1  0
 60135  1  0
 62136  1  0
 63137  1  0
 64138  1  0
 65139  1  0
 68140  1  0
 68141  1  0
 68142  1  0
 69143  1  0
 69144  1  0
 70145  1  0
 70146  1  0
 73147  1  0
 74148  1  0
 74149  1  0
 77150  1  0
 77151  1  0
 78152  1  0
 78153  1  0
 80154  1  0
 81155  1  0
 82156  1  0
 83157  1  0
 84158  1  0
 85159  1  0
 85160  1  0
 86161  1  0
 87162  1  0
 87163  1  0
 87164  1  0
 88165  1  0
 88166  1  0
 88167  1  0
 89168  1  0
 89169  1  0
M  END
>  <Ligand ID>  (1) 
LIG0005345

>  <Ligand>  (1) 
CHEMBL3984058

>  <SMILES>  (1) 
CN=C(NCCC[C@@H](C(=O)N[C@H](C(=O)N)Cc1c[nH]c2c1cccc2)NC(=O)[C@@H](NC(=O)NNC(=O)[C@@H](NC(=O)[C@H]([C@H](O)C)NC(=O)[C@@H](NC(=O)[C@H](NC(=O)[C@@H](Cc1ccc(cc1)O)NC(=O)C)CCC(=O)O)CC(=O)N)Cc1ccccc1)CC(C)C)N

>  <CID>  (1) 
134157281.0

>  <ChEMBL ID>  (1) 
nan

>  <InChiKey>  (1) 
NUBKQUNKDIZGRO-STRJIHFVSA-N

>  <InChi>  (1) 
InChI=1S/C58H80N16O15/c1-30(2)24-42(52(84)66-39(16-11-23-63-57(61)62-5)50(82)68-41(49(60)81)27-35-29-64-38-15-10-9-14-37(35)38)71-58(89)74-73-55(87)44(25-33-12-7-6-8-13-33)70-56(88)48(31(3)75)72-54(86)45(28-46(59)78)69-51(83)40(21-22-47(79)80)67-53(85)43(65-32(4)76)26-34-17-19-36(77)20-18-34/h6-10,12-15,17-20,29-31,39-45,48,64,75,77H,11,16,21-28H2,1-5H3,(H2,59,78)(H2,60,81)(H,65,76)(H,66,84)(H,67,85)(H,68,82)(H,69,83)(H,70,88)(H,72,86)(H,73,87)(H,79,80)(H3,61,62,63)(H2,71,74,89)/t31-,39+,40-,41+,42+,43-,44+,45+,48+/m1/s1

>  <IUPAC Name>  (1) 
(4R)-4-[[(2R)-2-acetamido-3-(4-hydroxyphenyl)propanoyl]amino]-5-[[(2S)-4-amino-1-[[(2S,3R)-1-[[(2S)-1-[2-[[(2S)-1-[[(2S)-1-[[(2S)-1-amino-3-(1H-indol-3-yl)-1-oxopropan-2-yl]amino]-5-[(N'-methylcarbamimidoyl)amino]-1-oxopentan-2-yl]amino]-4-methyl-1-oxopentan-2-yl]carbamoyl]hydrazinyl]-1-oxo-3-phenylpropan-2-yl]amino]-3-hydroxy-1-oxobutan-2-yl]amino]-1,4-dioxobutan-2-yl]amino]-5-oxopentanoic acid

$$$$
