
     RDKit          3D

 33 34  0  0  0  0  0  0  0  0999 V2000
    4.7017    1.6560    0.6660 C   0  0  0  0  0  0  0  0  0  0  0  0
    4.1761    0.7857   -0.8318 S   0  0  0  0  0  0  0  0  0  0  0  0
    2.7875   -0.2661   -0.5033 C   0  0  0  0  0  0  0  0  0  0  0  0
    3.0223   -1.5748   -0.1168 C   0  0  0  0  0  0  0  0  0  0  0  0
    1.9850   -2.4379    0.1519 C   0  0  0  0  0  0  0  0  0  0  0  0
    0.6778   -1.9646    0.0267 C   0  0  0  0  0  0  0  0  0  0  0  0
    0.3987   -0.6756   -0.3534 C   0  0  0  0  0  0  0  0  0  0  0  0
    1.4815    0.1525   -0.6125 C   0  0  0  0  0  0  0  0  0  0  0  0
   -1.0106   -0.4508   -0.4065 N   0  0  0  0  0  0  0  0  0  0  0  0
   -1.6201   -1.5997    0.1839 C   0  0  0  0  0  0  0  0  0  0  0  0
   -0.5809   -2.6825    0.2495 C   0  0  0  0  0  0  0  0  0  0  0  0
   -1.6108    0.7353   -0.9685 C   0  0  0  0  0  0  0  0  0  0  0  0
   -2.2708    1.5882    0.0751 C   0  0  1  0  0  0  0  0  0  0  0  0
   -2.8586    2.7750   -0.5293 N   0  0  0  0  0  0  0  0  0  0  0  0
   -3.3905    0.8684    0.8187 C   0  0  0  0  0  0  0  0  0  0  0  0
    4.3697    1.1020    1.5610 H   0  0  0  0  0  0  0  0  0  0  0  0
    4.1974    2.6649    0.6300 H   0  0  0  0  0  0  0  0  0  0  0  0
    5.8052    1.8116    0.6428 H   0  0  0  0  0  0  0  0  0  0  0  0
    4.0324   -1.9653   -0.0114 H   0  0  0  0  0  0  0  0  0  0  0  0
    2.1680   -3.4536    0.4514 H   0  0  0  0  0  0  0  0  0  0  0  0
    1.3164    1.1832   -0.9177 H   0  0  0  0  0  0  0  0  0  0  0  0
   -2.0076   -1.3584    1.1893 H   0  0  0  0  0  0  0  0  0  0  0  0
   -2.4409   -1.9760   -0.4410 H   0  0  0  0  0  0  0  0  0  0  0  0
   -0.7230   -3.4386   -0.5573 H   0  0  0  0  0  0  0  0  0  0  0  0
   -0.6502   -3.1528    1.2615 H   0  0  0  0  0  0  0  0  0  0  0  0
   -2.3148    0.4604   -1.7875 H   0  0  0  0  0  0  0  0  0  0  0  0
   -0.8392    1.3786   -1.4520 H   0  0  0  0  0  0  0  0  0  0  0  0
   -1.5121    1.9255    0.8064 H   0  0  0  0  0  0  0  0  0  0  0  0
   -2.3007    3.1725   -1.2965 H   0  0  0  0  0  0  0  0  0  0  0  0
   -3.8418    2.5479   -0.8020 H   0  0  0  0  0  0  0  0  0  0  0  0
   -3.7506   -0.0077    0.2580 H   0  0  0  0  0  0  0  0  0  0  0  0
   -4.3021    1.5343    0.9063 H   0  0  0  0  0  0  0  0  0  0  0  0
   -3.0944    0.6623    1.8523 H   0  0  0  0  0  0  0  0  0  0  0  0
  1  2  1  0
  2  3  1  0
  3  4  2  0
  4  5  1  0
  5  6  2  0
  6  7  1  0
  7  8  2  0
  7  9  1  0
  9 10  1  0
 10 11  1  0
  9 12  1  0
 12 13  1  0
 13 14  1  0
 13 15  1  0
  8  3  1  0
 11  6  1  0
  1 16  1  0
  1 17  1  0
  1 18  1  0
  4 19  1  0
  5 20  1  0
  8 21  1  0
 10 22  1  0
 10 23  1  0
 11 24  1  0
 11 25  1  0
 12 26  1  0
 12 27  1  0
 13 28  1  1
 14 29  1  0
 14 30  1  0
 15 31  1  0
 15 32  1  0
 15 33  1  0
M  END
>  <Ligand ID>  (1) 
LIG0002158

>  <Ligand>  (1) 
CHEMBL451543

>  <SMILES>  (1) 
CSc1ccc2c(c1)N(CC2)C[C@@H](N)C

>  <CID>  (1) 
44315993.0

>  <ChEMBL ID>  (1) 
nan

>  <InChiKey>  (1) 
MBDXWHFBIOEOHU-VIFPVBQESA-N

>  <InChi>  (1) 
InChI=1S/C12H18N2S/c1-9(13)8-14-6-5-10-3-4-11(15-2)7-12(10)14/h3-4,7,9H,5-6,8,13H2,1-2H3/t9-/m0/s1

>  <IUPAC Name>  (1) 
(2S)-1-(6-methylsulfanyl-2,3-dihydroindol-1-yl)propan-2-amine

$$$$
