
     RDKit          3D

182187  0  0  0  0  0  0  0  0999 V2000
   -8.9800   -5.0027   -0.5558 N   0  0  0  0  0  0  0  0  0  0  0  0
  -10.0121   -4.5033   -1.4079 C   0  0  0  0  0  0  0  0  0  0  0  0
   -9.8475   -3.0566   -1.7664 C   0  0  0  0  0  0  0  0  0  0  0  0
   -9.8435   -2.0981   -0.6271 C   0  0  0  0  0  0  0  0  0  0  0  0
   -8.7318   -2.2964    0.3704 C   0  0  0  0  0  0  0  0  0  0  0  0
   -7.3539   -2.1703   -0.1847 C   0  0  2  0  0  0  0  0  0  0  0  0
   -6.4013   -2.4016    0.9220 N   0  0  0  0  0  0  0  0  0  0  0  0
   -5.0801   -2.7674    0.6028 C   0  0  0  0  0  0  0  0  0  0  0  0
   -4.8429   -2.7233   -0.6618 O   0  0  0  0  0  0  0  0  0  0  0  0
   -3.9683   -3.1559    1.4377 C   0  0  1  0  0  0  0  0  0  0  0  0
   -2.6696   -2.8220    0.8393 N   0  0  0  0  0  0  0  0  0  0  0  0
   -1.8023   -3.7061    0.1789 C   0  0  0  0  0  0  0  0  0  0  0  0
   -2.2167   -4.8825    0.0615 O   0  0  0  0  0  0  0  0  0  0  0  0
   -0.4763   -3.3879   -0.3761 C   0  0  2  0  0  0  0  0  0  0  0  0
    0.5619   -4.0320    0.6040 C   0  0  0  0  0  0  0  0  0  0  0  0
    0.3729   -5.4911    0.6993 C   0  0  0  0  0  0  0  0  0  0  0  0
    0.9621   -6.3899   -0.1787 C   0  0  0  0  0  0  0  0  0  0  0  0
    0.7670   -7.7478   -0.0079 C   0  0  0  0  0  0  0  0  0  0  0  0
   -0.0180   -8.2196    1.0413 C   0  0  0  0  0  0  0  0  0  0  0  0
   -0.5806   -7.3196    1.8838 C   0  0  0  0  0  0  0  0  0  0  0  0
   -0.4033   -5.9649    1.7360 C   0  0  0  0  0  0  0  0  0  0  0  0
   -0.2483   -1.9512   -0.3416 N   0  0  0  0  0  0  0  0  0  0  0  0
    0.9958   -1.3596   -0.8157 C   0  0  0  0  0  0  0  0  0  0  0  0
    1.8138   -2.1547   -1.2309 O   0  0  0  0  0  0  0  0  0  0  0  0
    1.1386    0.1161   -0.7319 C   0  0  2  0  0  0  0  0  0  0  0  0
    0.7351    0.6475   -2.1359 C   0  0  0  0  0  0  0  0  0  0  0  0
    0.8072    2.4594   -2.0507 S   0  0  0  0  0  0  0  0  0  0  0  0
   -1.0318    3.0844   -1.1016 S   0  0  0  0  0  0  0  0  0  0  0  0
   -2.1132    3.5050   -2.4918 C   0  0  0  0  0  0  0  0  0  0  0  0
   -3.4420    3.9437   -2.0225 C   0  0  2  0  0  0  0  0  0  0  0  0
   -4.4910    3.0146   -1.8906 N   0  0  0  0  0  0  0  0  0  0  0  0
   -4.8230    2.0956   -0.8730 C   0  0  0  0  0  0  0  0  0  0  0  0
   -3.9851    1.9847    0.0404 O   0  0  0  0  0  0  0  0  0  0  0  0
   -6.0860    1.3638   -0.9871 C   0  0  1  0  0  0  0  0  0  0  0  0
   -6.2665    0.1789   -0.2121 N   0  0  0  0  0  0  0  0  0  0  0  0
   -7.1215   -0.8345   -0.7803 C   0  0  0  0  0  0  0  0  0  0  0  0
   -7.6829   -0.5230   -1.8358 O   0  0  0  0  0  0  0  0  0  0  0  0
   -7.2196    2.3756   -0.6717 C   0  0  0  0  0  0  0  0  0  0  0  0
   -7.0767    2.9292    0.6994 C   0  0  0  0  0  0  0  0  0  0  0  0
   -6.3183    4.0909    0.8124 C   0  0  0  0  0  0  0  0  0  0  0  0
   -6.1375    4.6704    2.0536 C   0  0  0  0  0  0  0  0  0  0  0  0
   -6.7083    4.0952    3.1691 C   0  0  0  0  0  0  0  0  0  0  0  0
   -7.4624    2.9417    3.0645 C   0  0  0  0  0  0  0  0  0  0  0  0
   -7.6507    2.3499    1.8152 C   0  0  0  0  0  0  0  0  0  0  0  0
   -6.4812    4.7389    4.3882 O   0  0  0  0  0  0  0  0  0  0  0  0
   -3.9438    5.1573   -2.7247 C   0  0  0  0  0  0  0  0  0  0  0  0
   -5.1630    5.1814   -3.0952 O   0  0  0  0  0  0  0  0  0  0  0  0
   -3.1486    6.2928   -3.0105 N   0  0  0  0  0  0  0  0  0  0  0  0
   -3.7251    7.4158   -3.7011 C   0  0  2  0  0  0  0  0  0  0  0  0
   -3.0651    7.7054   -4.9855 C   0  0  0  0  0  0  0  0  0  0  0  0
   -3.3954    8.6502   -5.7566 O   0  0  0  0  0  0  0  0  0  0  0  0
   -2.0019    6.8646   -5.3672 O   0  0  0  0  0  0  0  0  0  0  0  0
   -3.7042    8.6318   -2.7862 C   0  0  0  0  0  0  0  0  0  0  0  0
   -4.4979    8.3636   -1.5172 C   0  0  0  0  0  0  0  0  0  0  0  0
   -4.4090    9.7354   -3.5510 C   0  0  0  0  0  0  0  0  0  0  0  0
    2.5655    0.4688   -0.5812 N   0  0  0  0  0  0  0  0  0  0  0  0
    2.9207    1.0222    0.6798 C   0  0  0  0  0  0  0  0  0  0  0  0
    2.0287    1.1562    1.5526 O   0  0  0  0  0  0  0  0  0  0  0  0
    4.3238    1.4428    0.9901 C   0  0  1  0  0  0  0  0  0  0  0  0
    5.1507    1.3455   -0.1913 N   0  0  0  0  0  0  0  0  0  0  0  0
    6.2596    0.5029   -0.3760 C   0  0  0  0  0  0  0  0  0  0  0  0
    6.7013   -0.3072    0.4779 O   0  0  0  0  0  0  0  0  0  0  0  0
    6.9450    0.6073   -1.7178 C   0  0  2  0  0  0  0  0  0  0  0  0
    6.0545   -0.1385   -2.7132 C   0  0  0  0  0  0  0  0  0  0  0  0
    7.0964   -0.7905   -3.6197 C   0  0  0  0  0  0  0  0  0  0  0  0
    8.1677   -1.1988   -2.6522 C   0  0  0  0  0  0  0  0  0  0  0  0
    8.1999   -0.0717   -1.6923 N   0  0  0  0  0  0  0  0  0  0  0  0
    9.3941    0.1327   -0.9429 C   0  0  0  0  0  0  0  0  0  0  0  0
   10.3206   -0.7095   -1.2137 O   0  0  0  0  0  0  0  0  0  0  0  0
    9.6887    1.1348    0.0636 C   0  0  2  0  0  0  0  0  0  0  0  0
    9.8562    2.5452   -0.3883 C   0  0  2  0  0  0  0  0  0  0  0  0
    8.7759    3.1303   -1.0084 O   0  0  0  0  0  0  0  0  0  0  0  0
   11.0337    2.7066   -1.3394 C   0  0  0  0  0  0  0  0  0  0  0  0
   11.0119    0.8190    0.7049 N   0  0  0  0  0  0  0  0  0  0  0  0
   11.0792    0.1659    1.9390 C   0  0  0  0  0  0  0  0  0  0  0  0
    9.9921   -0.1814    2.4951 O   0  0  0  0  0  0  0  0  0  0  0  0
   12.3215   -0.1663    2.6765 C   0  0  2  0  0  0  0  0  0  0  0  0
   13.5301   -0.2552    1.8269 C   0  0  0  0  0  0  0  0  0  0  0  0
   13.5152   -1.2802    0.7406 C   0  0  0  0  0  0  0  0  0  0  0  0
   14.7797   -1.2609   -0.0468 C   0  0  0  0  0  0  0  0  0  0  0  0
   15.6795   -0.4256    0.2648 O   0  0  0  0  0  0  0  0  0  0  0  0
   15.0438   -2.0998   -1.1066 O   0  0  0  0  0  0  0  0  0  0  0  0
   12.1431   -1.3548    3.4780 N   0  0  0  0  0  0  0  0  0  0  0  0
    4.3723    2.8415    1.5074 C   0  0  0  0  0  0  0  0  0  0  0  0
    5.7626    3.2254    1.8202 C   0  0  0  0  0  0  0  0  0  0  0  0
    6.7619    2.4936    1.6811 O   0  0  0  0  0  0  0  0  0  0  0  0
    6.0012    4.5220    2.3201 O   0  0  0  0  0  0  0  0  0  0  0  0
   -4.0235   -3.0431    2.9014 C   0  0  0  0  0  0  0  0  0  0  0  0
   -5.0326   -3.8449    3.6105 C   0  0  0  0  0  0  0  0  0  0  0  0
   -6.2009   -3.5364    4.2494 C   0  0  0  0  0  0  0  0  0  0  0  0
   -6.7818   -4.6231    4.7882 N   0  0  0  0  0  0  0  0  0  0  0  0
   -5.9906   -5.6904    4.5089 C   0  0  0  0  0  0  0  0  0  0  0  0
   -4.8939   -5.2285    3.7753 C   0  0  0  0  0  0  0  0  0  0  0  0
   -3.9746   -6.1666    3.4003 C   0  0  0  0  0  0  0  0  0  0  0  0
   -4.1035   -7.5064    3.7203 C   0  0  0  0  0  0  0  0  0  0  0  0
   -5.1955   -7.9719    4.4511 C   0  0  0  0  0  0  0  0  0  0  0  0
   -6.1292   -7.0297    4.8339 C   0  0  0  0  0  0  0  0  0  0  0  0
   -9.4519   -5.4611    0.2732 H   0  0  0  0  0  0  0  0  0  0  0  0
   -8.3793   -5.7221   -0.9809 H   0  0  0  0  0  0  0  0  0  0  0  0
  -11.0339   -4.7231   -1.0214 H   0  0  0  0  0  0  0  0  0  0  0  0
   -9.9438   -5.0649   -2.3893 H   0  0  0  0  0  0  0  0  0  0  0  0
  -10.6900   -2.8291   -2.4889 H   0  0  0  0  0  0  0  0  0  0  0  0
   -8.8757   -2.9471   -2.3000 H   0  0  0  0  0  0  0  0  0  0  0  0
   -9.7402   -1.0745   -1.0510 H   0  0  0  0  0  0  0  0  0  0  0  0
  -10.8445   -2.0920   -0.1057 H   0  0  0  0  0  0  0  0  0  0  0  0
   -8.8923   -1.5145    1.1994 H   0  0  0  0  0  0  0  0  0  0  0  0
   -8.8526   -3.2506    0.9602 H   0  0  0  0  0  0  0  0  0  0  0  0
   -7.1768   -2.9176   -0.9871 H   0  0  0  0  0  0  0  0  0  0  0  0
   -6.6711   -2.2871    1.8705 H   0  0  0  0  0  0  0  0  0  0  0  0
   -3.9439   -4.3330    1.2687 H   0  0  0  0  0  0  0  0  0  0  0  0
   -2.3912   -1.8483    0.9197 H   0  0  0  0  0  0  0  0  0  0  0  0
   -0.1932   -3.8754   -1.3150 H   0  0  0  0  0  0  0  0  0  0  0  0
    1.5885   -3.8602    0.2450 H   0  0  0  0  0  0  0  0  0  0  0  0
    0.4511   -3.5248    1.5620 H   0  0  0  0  0  0  0  0  0  0  0  0
    1.5729   -5.9987   -0.9960 H   0  0  0  0  0  0  0  0  0  0  0  0
    1.2261   -8.4722   -0.6962 H   0  0  0  0  0  0  0  0  0  0  0  0
   -0.1716   -9.2719    1.1791 H   0  0  0  0  0  0  0  0  0  0  0  0
   -1.1952   -7.6479    2.7087 H   0  0  0  0  0  0  0  0  0  0  0  0
   -0.8550   -5.2651    2.4167 H   0  0  0  0  0  0  0  0  0  0  0  0
   -0.9038   -1.2469   -0.0051 H   0  0  0  0  0  0  0  0  0  0  0  0
    0.5108    0.5612   -0.0032 H   0  0  0  0  0  0  0  0  0  0  0  0
    1.4034    0.2112   -2.8978 H   0  0  0  0  0  0  0  0  0  0  0  0
   -0.2768    0.2476   -2.3111 H   0  0  0  0  0  0  0  0  0  0  0  0
   -2.1248    2.7135   -3.2677 H   0  0  0  0  0  0  0  0  0  0  0  0
   -1.6244    4.3693   -2.9838 H   0  0  0  0  0  0  0  0  0  0  0  0
   -3.2112    4.3243   -0.9482 H   0  0  0  0  0  0  0  0  0  0  0  0
   -5.1778    2.9774   -2.7123 H   0  0  0  0  0  0  0  0  0  0  0  0
   -6.2757    1.1260   -2.0521 H   0  0  0  0  0  0  0  0  0  0  0  0
   -5.8823   -0.0655    0.6942 H   0  0  0  0  0  0  0  0  0  0  0  0
   -7.1014    3.1686   -1.4355 H   0  0  0  0  0  0  0  0  0  0  0  0
   -8.1858    1.8804   -0.8553 H   0  0  0  0  0  0  0  0  0  0  0  0
   -5.8617    4.5682   -0.0425 H   0  0  0  0  0  0  0  0  0  0  0  0
   -5.5495    5.5656    2.1100 H   0  0  0  0  0  0  0  0  0  0  0  0
   -7.8974    2.5132    3.9691 H   0  0  0  0  0  0  0  0  0  0  0  0
   -8.2476    1.4304    1.7098 H   0  0  0  0  0  0  0  0  0  0  0  0
   -7.0294    5.5930    4.5479 H   0  0  0  0  0  0  0  0  0  0  0  0
   -2.1532    6.2868   -2.7038 H   0  0  0  0  0  0  0  0  0  0  0  0
   -4.8082    7.2170   -3.9118 H   0  0  0  0  0  0  0  0  0  0  0  0
   -1.2490    7.2173   -5.9654 H   0  0  0  0  0  0  0  0  0  0  0  0
   -2.7001    8.9518   -2.5019 H   0  0  0  0  0  0  0  0  0  0  0  0
   -4.5140    9.2752   -0.9272 H   0  0  0  0  0  0  0  0  0  0  0  0
   -3.9838    7.5757   -0.9073 H   0  0  0  0  0  0  0  0  0  0  0  0
   -5.5237    7.9912   -1.7581 H   0  0  0  0  0  0  0  0  0  0  0  0
   -4.9528   10.3720   -2.8294 H   0  0  0  0  0  0  0  0  0  0  0  0
   -5.0918    9.3040   -4.3104 H   0  0  0  0  0  0  0  0  0  0  0  0
   -3.6188   10.3342   -4.0610 H   0  0  0  0  0  0  0  0  0  0  0  0
    3.2575    0.3218   -1.3449 H   0  0  0  0  0  0  0  0  0  0  0  0
    4.6631    0.7580    1.7991 H   0  0  0  0  0  0  0  0  0  0  0  0
    4.8610    1.9904   -0.9881 H   0  0  0  0  0  0  0  0  0  0  0  0
    6.9526    1.6415   -2.0548 H   0  0  0  0  0  0  0  0  0  0  0  0
    5.4196    0.5561   -3.2720 H   0  0  0  0  0  0  0  0  0  0  0  0
    5.4318   -0.8520   -2.1743 H   0  0  0  0  0  0  0  0  0  0  0  0
    6.5793   -1.6788   -4.0564 H   0  0  0  0  0  0  0  0  0  0  0  0
    7.3991   -0.0516   -4.3611 H   0  0  0  0  0  0  0  0  0  0  0  0
    7.7721   -2.1003   -2.1174 H   0  0  0  0  0  0  0  0  0  0  0  0
    9.1399   -1.3909   -3.1081 H   0  0  0  0  0  0  0  0  0  0  0  0
    8.9930    1.0821    0.9128 H   0  0  0  0  0  0  0  0  0  0  0  0
   10.0980    3.2224    0.4870 H   0  0  0  0  0  0  0  0  0  0  0  0
    8.1763    3.6009   -0.3859 H   0  0  0  0  0  0  0  0  0  0  0  0
   11.9333    2.8791   -0.7240 H   0  0  0  0  0  0  0  0  0  0  0  0
   11.1961    1.7860   -1.9436 H   0  0  0  0  0  0  0  0  0  0  0  0
   10.9271    3.6002   -1.9913 H   0  0  0  0  0  0  0  0  0  0  0  0
   11.8902    1.0867    0.2318 H   0  0  0  0  0  0  0  0  0  0  0  0
   12.5228    0.6738    3.4332 H   0  0  0  0  0  0  0  0  0  0  0  0
   13.8372    0.7510    1.4196 H   0  0  0  0  0  0  0  0  0  0  0  0
   14.4095   -0.5252    2.4891 H   0  0  0  0  0  0  0  0  0  0  0  0
   12.6723   -1.1973    0.0409 H   0  0  0  0  0  0  0  0  0  0  0  0
   13.4467   -2.3237    1.1526 H   0  0  0  0  0  0  0  0  0  0  0  0
   15.5737   -1.7781   -1.9332 H   0  0  0  0  0  0  0  0  0  0  0  0
   12.9257   -2.0373    3.3946 H   0  0  0  0  0  0  0  0  0  0  0  0
   11.2588   -1.8521    3.3497 H   0  0  0  0  0  0  0  0  0  0  0  0
    3.6840    3.0176    2.3607 H   0  0  0  0  0  0  0  0  0  0  0  0
    4.0154    3.5184    0.6929 H   0  0  0  0  0  0  0  0  0  0  0  0
    6.9537    4.9162    2.3440 H   0  0  0  0  0  0  0  0  0  0  0  0
   -3.0125   -3.3469    3.3275 H   0  0  0  0  0  0  0  0  0  0  0  0
   -4.1330   -1.9842    3.2619 H   0  0  0  0  0  0  0  0  0  0  0  0
   -6.5987   -2.5357    4.3012 H   0  0  0  0  0  0  0  0  0  0  0  0
   -7.6839   -4.6403    5.3254 H   0  0  0  0  0  0  0  0  0  0  0  0
   -3.1020   -5.8916    2.8367 H   0  0  0  0  0  0  0  0  0  0  0  0
   -3.3854   -8.2601    3.4362 H   0  0  0  0  0  0  0  0  0  0  0  0
   -5.2790   -9.0295    4.6928 H   0  0  0  0  0  0  0  0  0  0  0  0
   -6.9778   -7.4111    5.4003 H   0  0  0  0  0  0  0  0  0  0  0  0
  1  2  1  0
  2  3  1  0
  3  4  1  0
  4  5  1  0
  5  6  1  0
  6  7  1  0
  7  8  1  0
  8  9  2  0
  8 10  1  0
 10 11  1  0
 11 12  1  0
 12 13  2  0
 12 14  1  0
 14 15  1  0
 15 16  1  0
 16 17  2  0
 17 18  1  0
 18 19  2  0
 19 20  1  0
 20 21  2  0
 14 22  1  0
 22 23  1  0
 23 24  2  0
 23 25  1  0
 25 26  1  0
 26 27  1  0
 27 28  1  0
 28 29  1  0
 29 30  1  0
 30 31  1  0
 31 32  1  0
 32 33  2  0
 32 34  1  0
 34 35  1  0
 35 36  1  0
 36 37  2  0
 34 38  1  0
 38 39  1  0
 39 40  2  0
 40 41  1  0
 41 42  2  0
 42 43  1  0
 43 44  2  0
 42 45  1  0
 30 46  1  0
 46 47  2  0
 46 48  1  0
 48 49  1  0
 49 50  1  0
 50 51  2  0
 50 52  1  0
 49 53  1  0
 53 54  1  0
 53 55  1  0
 25 56  1  0
 56 57  1  0
 57 58  2  0
 57 59  1  0
 59 60  1  0
 60 61  1  0
 61 62  2  0
 61 63  1  0
 63 64  1  0
 64 65  1  0
 65 66  1  0
 66 67  1  0
 67 68  1  0
 68 69  2  0
 68 70  1  0
 70 71  1  0
 71 72  1  0
 71 73  1  0
 70 74  1  0
 74 75  1  0
 75 76  2  0
 75 77  1  0
 77 78  1  0
 78 79  1  0
 79 80  1  0
 80 81  2  0
 80 82  1  0
 77 83  1  0
 59 84  1  0
 84 85  1  0
 85 86  2  0
 85 87  1  0
 10 88  1  0
 88 89  1  0
 89 90  2  0
 90 91  1  0
 91 92  1  0
 92 93  2  0
 93 94  1  0
 94 95  2  0
 95 96  1  0
 96 97  2  0
 36  6  1  0
 44 39  1  0
 67 63  1  0
 93 89  1  0
 21 16  1  0
 97 92  1  0
  1 98  1  0
  1 99  1  0
  2100  1  0
  2101  1  0
  3102  1  0
  3103  1  0
  4104  1  0
  4105  1  0
  5106  1  0
  5107  1  0
  6108  1  6
  7109  1  0
 10110  1  1
 11111  1  0
 14112  1  6
 15113  1  0
 15114  1  0
 17115  1  0
 18116  1  0
 19117  1  0
 20118  1  0
 21119  1  0
 22120  1  0
 25121  1  1
 26122  1  0
 26123  1  0
 29124  1  0
 29125  1  0
 30126  1  1
 31127  1  0
 34128  1  6
 35129  1  0
 38130  1  0
 38131  1  0
 40132  1  0
 41133  1  0
 43134  1  0
 44135  1  0
 45136  1  0
 48137  1  0
 49138  1  6
 52139  1  0
 53140  1  0
 54141  1  0
 54142  1  0
 54143  1  0
 55144  1  0
 55145  1  0
 55146  1  0
 56147  1  0
 59148  1  1
 60149  1  0
 63150  1  6
 64151  1  0
 64152  1  0
 65153  1  0
 65154  1  0
 66155  1  0
 66156  1  0
 70157  1  1
 71158  1  1
 72159  1  0
 73160  1  0
 73161  1  0
 73162  1  0
 74163  1  0
 77164  1  1
 78165  1  0
 78166  1  0
 79167  1  0
 79168  1  0
 82169  1  0
 83170  1  0
 83171  1  0
 84172  1  0
 84173  1  0
 87174  1  0
 88175  1  0
 88176  1  0
 90177  1  0
 91178  1  0
 94179  1  0
 95180  1  0
 96181  1  0
 97182  1  0
M  END
>  <Ligand ID>  (1) 
LIG0005360

>  <Ligand>  (1) 
CHEMBL593662

>  <SMILES>  (1) 
NCCCC[C@@H]1NC(=O)[C@@H](NC(=O)[C@H](Cc2ccccc2)NC(=O)[C@H](CSSC[C@H](NC(=O)[C@@H](NC1=O)Cc1ccc(cc1)O)C(=O)N[C@H](C(=O)O)C(C)C)NC(=O)[C@@H](NC(=O)[C@@H]1CCCN1C(=O)[C@H]([C@H](O)C)NC(=O)[C@H](CCC(=O)O)N)CC(=O)O)Cc1c[nH]c2c1cccc2

>  <CID>  (1) 
46225600.0

>  <ChEMBL ID>  (1) 
nan

>  <InChiKey>  (1) 
HFNHAPQMXICKCF-USJMABIRSA-N

>  <InChi>  (1) 
InChI=1S/C64H85N13O18S2/c1-33(2)52(64(94)95)75-61(91)48-32-97-96-31-47(73-59(89)46(29-51(82)83)72-62(92)49-17-11-25-77(49)63(93)53(34(3)78)76-54(84)40(66)22-23-50(80)81)60(90)70-43(26-35-12-5-4-6-13-35)56(86)71-45(28-37-30-67-41-15-8-7-14-39(37)41)58(88)68-42(16-9-10-24-65)55(85)69-44(57(87)74-48)27-36-18-20-38(79)21-19-36/h4-8,12-15,18-21,30,33-34,40,42-49,52-53,67,78-79H,9-11,16-17,22-29,31-32,65-66H2,1-3H3,(H,68,88)(H,69,85)(H,70,90)(H,71,86)(H,72,92)(H,73,89)(H,74,87)(H,75,91)(H,76,84)(H,80,81)(H,82,83)(H,94,95)/t34-,40+,42+,43+,44+,45+,46+,47+,48+,49+,52+,53+/m1/s1

>  <IUPAC Name>  (1) 
(4S)-4-amino-5-[[(2S,3R)-1-[(2S)-2-[[(2S)-1-[[(4R,7S,10S,13S,16S,19R)-10-(4-aminobutyl)-16-benzyl-4-[[(1S)-1-carboxy-2-methylpropyl]carbamoyl]-7-[(4-hydroxyphenyl)methyl]-13-(1H-indol-3-ylmethyl)-6,9,12,15,18-pentaoxo-1,2-dithia-5,8,11,14,17-pentazacycloicos-19-yl]amino]-3-carboxy-1-oxopropan-2-yl]carbamoyl]pyrrolidin-1-yl]-3-hydroxy-1-oxobutan-2-yl]amino]-5-oxopentanoic acid

$$$$
