
     RDKit          3D

115119  0  0  0  0  0  0  0  0999 V2000
    4.7689    1.1299   -0.1496 O   0  0  0  0  0  0  0  0  0  0  0  0
    4.7427   -0.0960   -0.3949 C   0  0  0  0  0  0  0  0  0  0  0  0
    4.1325   -0.9230    0.6074 N   0  0  0  0  0  0  0  0  0  0  0  0
    3.5628   -0.5551    1.8235 C   0  0  2  0  0  0  0  0  0  0  0  0
    2.0623   -0.7359    1.8276 C   0  0  0  0  0  0  0  0  0  0  0  0
    1.4801   -0.3892    2.8639 O   0  0  0  0  0  0  0  0  0  0  0  0
    1.4524   -1.2768    0.6719 N   0  0  0  0  0  0  0  0  0  0  0  0
    0.0917   -1.5558    0.4385 C   0  0  2  0  0  0  0  0  0  0  0  0
   -0.6803   -0.6106   -0.3473 C   0  0  0  0  0  0  0  0  0  0  0  0
   -0.2278    0.5025   -0.7657 O   0  0  0  0  0  0  0  0  0  0  0  0
   -2.0143   -0.9153   -0.6914 N   0  0  0  0  0  0  0  0  0  0  0  0
   -2.8706   -0.0352   -1.4909 C   0  0  2  0  0  0  0  0  0  0  0  0
   -4.0519    0.3519   -0.7537 C   0  0  0  0  0  0  0  0  0  0  0  0
   -4.1413   -0.0333    0.4687 O   0  0  0  0  0  0  0  0  0  0  0  0
   -5.1423    1.1196   -1.2229 N   0  0  0  0  0  0  0  0  0  0  0  0
   -6.2810    1.4857   -0.4350 C   0  0  2  0  0  0  0  0  0  0  0  0
   -7.5592    0.8568   -0.8379 C   0  0  0  0  0  0  0  0  0  0  0  0
   -8.6263    1.0898   -0.1787 O   0  0  0  0  0  0  0  0  0  0  0  0
   -7.7014   -0.0219   -1.9439 N   0  0  0  0  0  0  0  0  0  0  0  0
   -6.4740    2.9908   -0.5759 C   0  0  0  0  0  0  0  0  0  0  0  0
   -7.6357    3.4662    0.1940 C   0  0  0  0  0  0  0  0  0  0  0  0
   -8.8733    3.8126   -0.3570 C   0  0  0  0  0  0  0  0  0  0  0  0
   -9.7211    4.2021    0.5851 N   0  0  0  0  0  0  0  0  0  0  0  0
   -9.0809    4.1262    1.7652 C   0  0  0  0  0  0  0  0  0  0  0  0
   -7.7804    3.6704    1.5476 C   0  0  0  0  0  0  0  0  0  0  0  0
   -6.8980    3.5015    2.6027 C   0  0  0  0  0  0  0  0  0  0  0  0
   -7.3374    3.7965    3.8866 C   0  0  0  0  0  0  0  0  0  0  0  0
   -8.6203    4.2508    4.1434 C   0  0  0  0  0  0  0  0  0  0  0  0
   -9.4799    4.4081    3.0529 C   0  0  0  0  0  0  0  0  0  0  0  0
   -3.0261   -0.5751   -2.8679 C   0  0  0  0  0  0  0  0  0  0  0  0
   -3.6056   -1.9300   -3.0066 C   0  0  0  0  0  0  0  0  0  0  0  0
   -5.0095   -1.9864   -2.4730 C   0  0  0  0  0  0  0  0  0  0  0  0
   -5.4785   -3.3714   -2.6573 N   0  0  0  0  0  0  0  0  0  0  0  0
   -6.2012   -3.6244   -3.6847 C   0  0  0  0  0  0  0  0  0  0  0  0
   -6.6597   -4.9692   -3.8690 N   0  0  0  0  0  0  0  0  0  0  0  0
   -6.5632   -2.6053   -4.6428 N   0  0  0  0  0  0  0  0  0  0  0  0
   -0.6308   -2.0991    1.6738 C   0  0  0  0  0  0  0  0  0  0  0  0
   -0.0543   -3.3897    2.0856 C   0  0  0  0  0  0  0  0  0  0  0  0
    0.8862   -3.6255    3.0349 C   0  0  0  0  0  0  0  0  0  0  0  0
    1.3503   -4.9170    3.2943 C   0  0  0  0  0  0  0  0  0  0  0  0
    0.8918   -6.0205    2.6160 C   0  0  0  0  0  0  0  0  0  0  0  0
   -0.0736   -5.7830    1.6416 C   0  0  0  0  0  0  0  0  0  0  0  0
   -0.5265   -4.5154    1.3893 C   0  0  0  0  0  0  0  0  0  0  0  0
    4.0229    0.6051    2.6208 C   0  0  0  0  0  0  0  0  0  0  0  0
    5.4066    0.4956    3.0895 C   0  0  0  0  0  0  0  0  0  0  0  0
    5.6126   -0.3130    4.2239 C   0  0  0  0  0  0  0  0  0  0  0  0
    6.8740   -0.4507    4.7797 C   0  0  0  0  0  0  0  0  0  0  0  0
    7.9857    0.1794    4.2709 C   0  0  0  0  0  0  0  0  0  0  0  0
    7.7760    0.9760    3.1514 C   0  0  0  0  0  0  0  0  0  0  0  0
    6.5084    1.1164    2.5914 C   0  0  0  0  0  0  0  0  0  0  0  0
    9.5774    0.0087    4.9720 Cl  0  0  0  0  0  0  0  0  0  0  0  0
    5.2575   -0.7627   -1.5845 C   0  0  0  0  0  0  0  0  0  0  0  0
    5.9614   -0.0154   -2.6192 C   0  0  0  0  0  0  0  0  0  0  0  0
    7.2644    0.6168   -2.4174 C   0  0  0  0  0  0  0  0  0  0  0  0
    7.4548    1.6376   -1.3476 C   0  0  0  0  0  0  0  0  0  0  0  0
    8.8760    2.1857   -1.4330 C   0  0  0  0  0  0  0  0  0  0  0  0
    9.9056    1.5736   -0.7489 C   0  0  0  0  0  0  0  0  0  0  0  0
   11.1630    2.1649   -0.9054 C   0  0  0  0  0  0  0  0  0  0  0  0
   11.3151    3.2851   -1.7019 C   0  0  0  0  0  0  0  0  0  0  0  0
   10.2547    3.8610   -2.3662 C   0  0  0  0  0  0  0  0  0  0  0  0
    9.0262    3.2945   -2.2216 C   0  0  0  0  0  0  0  0  0  0  0  0
    4.1275   -1.9693    0.3521 H   0  0  0  0  0  0  0  0  0  0  0  0
    3.8872   -1.4316    2.5524 H   0  0  0  0  0  0  0  0  0  0  0  0
    2.1367   -1.4937   -0.1293 H   0  0  0  0  0  0  0  0  0  0  0  0
    0.1117   -2.5409   -0.1934 H   0  0  0  0  0  0  0  0  0  0  0  0
   -2.4900   -1.8121   -0.3954 H   0  0  0  0  0  0  0  0  0  0  0  0
   -2.2278    0.9166   -1.5728 H   0  0  0  0  0  0  0  0  0  0  0  0
   -5.1145    1.4437   -2.2175 H   0  0  0  0  0  0  0  0  0  0  0  0
   -6.1201    1.2053    0.6454 H   0  0  0  0  0  0  0  0  0  0  0  0
   -7.7641    0.3326   -2.9452 H   0  0  0  0  0  0  0  0  0  0  0  0
   -7.7443   -1.0628   -1.7352 H   0  0  0  0  0  0  0  0  0  0  0  0
   -5.5537    3.5315   -0.2497 H   0  0  0  0  0  0  0  0  0  0  0  0
   -6.6409    3.2016   -1.6473 H   0  0  0  0  0  0  0  0  0  0  0  0
   -9.0975    3.7628   -1.4270 H   0  0  0  0  0  0  0  0  0  0  0  0
  -10.6982    4.5089    0.4410 H   0  0  0  0  0  0  0  0  0  0  0  0
   -5.8883    3.1433    2.4106 H   0  0  0  0  0  0  0  0  0  0  0  0
   -6.6625    3.6693    4.7064 H   0  0  0  0  0  0  0  0  0  0  0  0
   -8.9732    4.4859    5.1530 H   0  0  0  0  0  0  0  0  0  0  0  0
  -10.5102    4.7629    3.1870 H   0  0  0  0  0  0  0  0  0  0  0  0
   -3.6855    0.1161   -3.4787 H   0  0  0  0  0  0  0  0  0  0  0  0
   -2.0334   -0.4736   -3.3719 H   0  0  0  0  0  0  0  0  0  0  0  0
   -3.6951   -2.1446   -4.1067 H   0  0  0  0  0  0  0  0  0  0  0  0
   -2.9798   -2.7265   -2.5253 H   0  0  0  0  0  0  0  0  0  0  0  0
   -5.6182   -1.3216   -3.1596 H   0  0  0  0  0  0  0  0  0  0  0  0
   -5.1228   -1.7374   -1.4156 H   0  0  0  0  0  0  0  0  0  0  0  0
   -7.6573   -5.1936   -3.6718 H   0  0  0  0  0  0  0  0  0  0  0  0
   -5.9836   -5.6955   -4.1971 H   0  0  0  0  0  0  0  0  0  0  0  0
   -7.5019   -2.1639   -4.4884 H   0  0  0  0  0  0  0  0  0  0  0  0
   -5.9502   -2.3275   -5.4249 H   0  0  0  0  0  0  0  0  0  0  0  0
   -0.5657   -1.4075    2.5406 H   0  0  0  0  0  0  0  0  0  0  0  0
   -1.6854   -2.2693    1.3791 H   0  0  0  0  0  0  0  0  0  0  0  0
    1.3116   -2.8537    3.6394 H   0  0  0  0  0  0  0  0  0  0  0  0
    2.0999   -5.0859    4.0514 H   0  0  0  0  0  0  0  0  0  0  0  0
    1.2635   -7.0081    2.8321 H   0  0  0  0  0  0  0  0  0  0  0  0
   -0.4419   -6.6507    1.1003 H   0  0  0  0  0  0  0  0  0  0  0  0
   -1.2900   -4.4009    0.6059 H   0  0  0  0  0  0  0  0  0  0  0  0
    3.3612    0.6268    3.5419 H   0  0  0  0  0  0  0  0  0  0  0  0
    3.8068    1.5934    2.1451 H   0  0  0  0  0  0  0  0  0  0  0  0
    4.7687   -0.8461    4.6820 H   0  0  0  0  0  0  0  0  0  0  0  0
    7.0459   -1.0792    5.6650 H   0  0  0  0  0  0  0  0  0  0  0  0
    8.6323    1.4799    2.7365 H   0  0  0  0  0  0  0  0  0  0  0  0
    6.4423    1.7694    1.7478 H   0  0  0  0  0  0  0  0  0  0  0  0
    4.4152   -1.3345   -2.1082 H   0  0  0  0  0  0  0  0  0  0  0  0
    5.8961   -1.6400   -1.2193 H   0  0  0  0  0  0  0  0  0  0  0  0
    6.0616   -0.7068   -3.5258 H   0  0  0  0  0  0  0  0  0  0  0  0
    5.2783    0.7955   -3.0789 H   0  0  0  0  0  0  0  0  0  0  0  0
    7.5985    1.1315   -3.3836 H   0  0  0  0  0  0  0  0  0  0  0  0
    8.1075   -0.1238   -2.2735 H   0  0  0  0  0  0  0  0  0  0  0  0
    7.3773    1.1755   -0.3153 H   0  0  0  0  0  0  0  0  0  0  0  0
    6.7699    2.4879   -1.3770 H   0  0  0  0  0  0  0  0  0  0  0  0
    9.7379    0.7031   -0.1408 H   0  0  0  0  0  0  0  0  0  0  0  0
   12.0173    1.7580   -0.4131 H   0  0  0  0  0  0  0  0  0  0  0  0
   12.2829    3.7686   -1.8420 H   0  0  0  0  0  0  0  0  0  0  0  0
   10.3527    4.7341   -2.9899 H   0  0  0  0  0  0  0  0  0  0  0  0
    8.1681    3.7371   -2.7409 H   0  0  0  0  0  0  0  0  0  0  0  0
  1  2  2  0
  2  3  1  0
  3  4  1  0
  4  5  1  0
  5  6  2  0
  5  7  1  0
  7  8  1  0
  8  9  1  0
  9 10  2  0
  9 11  1  0
 11 12  1  0
 12 13  1  0
 13 14  2  0
 13 15  1  0
 15 16  1  0
 16 17  1  0
 17 18  2  0
 17 19  1  0
 16 20  1  0
 20 21  1  0
 21 22  2  0
 22 23  1  0
 23 24  1  0
 24 25  2  0
 25 26  1  0
 26 27  2  0
 27 28  1  0
 28 29  2  0
 12 30  1  0
 30 31  1  0
 31 32  1  0
 32 33  1  0
 33 34  2  3
 34 35  1  0
 34 36  1  0
  8 37  1  0
 37 38  1  0
 38 39  2  0
 39 40  1  0
 40 41  2  0
 41 42  1  0
 42 43  2  0
  4 44  1  0
 44 45  1  0
 45 46  2  0
 46 47  1  0
 47 48  2  0
 48 49  1  0
 49 50  2  0
 48 51  1  0
  2 52  1  0
 52 53  1  0
 53 54  1  0
 54 55  1  0
 55 56  1  0
 56 57  2  0
 57 58  1  0
 58 59  2  0
 59 60  1  0
 60 61  2  0
 25 21  1  0
 43 38  1  0
 50 45  1  0
 61 56  1  0
 29 24  1  0
  3 62  1  0
  4 63  1  1
  7 64  1  0
  8 65  1  6
 11 66  1  0
 12 67  1  6
 15 68  1  0
 16 69  1  1
 19 70  1  0
 19 71  1  0
 20 72  1  0
 20 73  1  0
 22 74  1  0
 23 75  1  0
 26 76  1  0
 27 77  1  0
 28 78  1  0
 29 79  1  0
 30 80  1  0
 30 81  1  0
 31 82  1  0
 31 83  1  0
 32 84  1  0
 32 85  1  0
 35 86  1  0
 35 87  1  0
 36 88  1  0
 36 89  1  0
 37 90  1  0
 37 91  1  0
 39 92  1  0
 40 93  1  0
 41 94  1  0
 42 95  1  0
 43 96  1  0
 44 97  1  0
 44 98  1  0
 46 99  1  0
 47100  1  0
 49101  1  0
 50102  1  0
 52103  1  0
 52104  1  0
 53105  1  0
 53106  1  0
 54107  1  0
 54108  1  0
 55109  1  0
 55110  1  0
 57111  1  0
 58112  1  0
 59113  1  0
 60114  1  0
 61115  1  0
M  END
>  <Ligand ID>  (1) 
LIG0002675

>  <Ligand>  (1) 
CHEMBL365044

>  <SMILES>  (1) 
O=C(N[C@H](C(=O)N[C@H](C(=O)N[C@H](C(=O)N[C@H](C(=O)N)Cc1c[nH]c2c1cccc2)CCCN=C(N)N)Cc1ccccc1)Cc1ccc(cc1)Cl)CCCCc1ccccc1

>  <CID>  (1) 
44394783.0

>  <ChEMBL ID>  (1) 
nan

>  <InChiKey>  (1) 
SBGDEADNNXQBAR-YKKXUYLKSA-N

>  <InChi>  (1) 
InChI=1S/C46H54ClN9O5/c47-34-23-21-32(22-24-34)27-39(53-41(57)20-10-7-14-30-12-3-1-4-13-30)44(60)56-40(26-31-15-5-2-6-16-31)45(61)54-37(19-11-25-51-46(49)50)43(59)55-38(42(48)58)28-33-29-52-36-18-9-8-17-35(33)36/h1-6,8-9,12-13,15-18,21-24,29,37-40,52H,7,10-11,14,19-20,25-28H2,(H2,48,58)(H,53,57)(H,54,61)(H,55,59)(H,56,60)(H4,49,50,51)/t37-,38-,39-,40-/m0/s1

>  <IUPAC Name>  (1) 
(2S)-N-[(2S)-1-amino-3-(1H-indol-3-yl)-1-oxopropan-2-yl]-2-[[(2S)-2-[[(2S)-3-(4-chlorophenyl)-2-(5-phenylpentanoylamino)propanoyl]amino]-3-phenylpropanoyl]amino]-5-(diaminomethylideneamino)pentanamide

$$$$
