
     RDKit          3D

 46 48  0  0  0  0  0  0  0  0999 V2000
    6.2311    2.3471   -1.7240 O   0  0  0  0  0  0  0  0  0  0  0  0
    5.0002    1.7277   -1.5597 C   0  0  0  0  0  0  0  0  0  0  0  0
    4.2080    1.5796   -2.5217 O   0  0  0  0  0  0  0  0  0  0  0  0
    4.6209    1.2314   -0.2078 C   0  0  0  0  0  0  0  0  0  0  0  0
    4.8724   -0.2784   -0.2035 C   0  0  0  0  0  0  0  0  0  0  0  0
    4.5016   -0.8271    1.1497 C   0  0  0  0  0  0  0  0  0  0  0  0
    3.1980   -0.6260    1.4902 O   0  0  0  0  0  0  0  0  0  0  0  0
    2.0008   -1.0013    1.0110 C   0  0  0  0  0  0  0  0  0  0  0  0
    1.7487   -1.7993   -0.0826 C   0  0  0  0  0  0  0  0  0  0  0  0
    0.4752   -2.1335   -0.5059 C   0  0  0  0  0  0  0  0  0  0  0  0
   -0.6108   -1.6541    0.1887 C   0  0  0  0  0  0  0  0  0  0  0  0
   -0.4113   -0.8529    1.2896 C   0  0  0  0  0  0  0  0  0  0  0  0
    0.8647   -0.5358    1.6884 C   0  0  0  0  0  0  0  0  0  0  0  0
   -1.9302   -2.0352   -0.3017 C   0  0  0  0  0  0  0  0  0  0  0  0
   -2.1105   -3.3314   -0.6843 C   0  0  0  0  0  0  0  0  0  0  0  0
   -3.3233   -3.7457   -1.1586 C   0  0  0  0  0  0  0  0  0  0  0  0
   -4.3629   -2.8570   -1.2506 C   0  0  0  0  0  0  0  0  0  0  0  0
   -4.1619   -1.5522   -0.8594 C   0  0  0  0  0  0  0  0  0  0  0  0
   -2.9639   -1.0688   -0.3720 C   0  0  0  0  0  0  0  0  0  0  0  0
   -2.6640    0.1502    0.0283 O   0  0  0  0  0  0  0  0  0  0  0  0
   -3.0893    1.3819    0.2097 C   0  0  0  0  0  0  0  0  0  0  0  0
   -2.1597    2.3020    0.7594 C   0  0  0  0  0  0  0  0  0  0  0  0
   -2.4770    3.6070    0.9962 C   0  0  0  0  0  0  0  0  0  0  0  0
   -3.7124    4.0773    0.7097 C   0  0  0  0  0  0  0  0  0  0  0  0
   -4.6481    3.2501    0.1821 C   0  0  0  0  0  0  0  0  0  0  0  0
   -4.3262    1.9320   -0.0565 C   0  0  0  0  0  0  0  0  0  0  0  0
    6.3854    2.9486   -2.5149 H   0  0  0  0  0  0  0  0  0  0  0  0
    3.5341    1.3437   -0.1140 H   0  0  0  0  0  0  0  0  0  0  0  0
    5.1932    1.7146    0.5952 H   0  0  0  0  0  0  0  0  0  0  0  0
    5.9623   -0.4108   -0.4033 H   0  0  0  0  0  0  0  0  0  0  0  0
    4.2477   -0.6835   -1.0086 H   0  0  0  0  0  0  0  0  0  0  0  0
    5.1974   -0.3077    1.8805 H   0  0  0  0  0  0  0  0  0  0  0  0
    4.8226   -1.9089    1.1775 H   0  0  0  0  0  0  0  0  0  0  0  0
    2.5616   -2.2062   -0.6463 H   0  0  0  0  0  0  0  0  0  0  0  0
    0.3447   -2.7658   -1.3742 H   0  0  0  0  0  0  0  0  0  0  0  0
   -1.2976   -0.4973    1.8083 H   0  0  0  0  0  0  0  0  0  0  0  0
    0.9724    0.0974    2.5596 H   0  0  0  0  0  0  0  0  0  0  0  0
   -1.2879   -4.0448   -0.6149 H   0  0  0  0  0  0  0  0  0  0  0  0
   -3.5098   -4.7611   -1.4725 H   0  0  0  0  0  0  0  0  0  0  0  0
   -5.3233   -3.1889   -1.6277 H   0  0  0  0  0  0  0  0  0  0  0  0
   -5.0027   -0.8943   -0.9488 H   0  0  0  0  0  0  0  0  0  0  0  0
   -1.1549    1.9803    1.0092 H   0  0  0  0  0  0  0  0  0  0  0  0
   -1.7140    4.2743    1.4242 H   0  0  0  0  0  0  0  0  0  0  0  0
   -3.9598    5.0962    0.8953 H   0  0  0  0  0  0  0  0  0  0  0  0
   -5.6498    3.6085   -0.0568 H   0  0  0  0  0  0  0  0  0  0  0  0
   -5.0914    1.3182   -0.4734 H   0  0  0  0  0  0  0  0  0  0  0  0
  1  2  1  0
  2  3  2  0
  2  4  1  0
  4  5  1  0
  5  6  1  0
  6  7  1  0
  7  8  1  0
  8  9  2  0
  9 10  1  0
 10 11  2  0
 11 12  1  0
 12 13  2  0
 11 14  1  0
 14 15  2  0
 15 16  1  0
 16 17  2  0
 17 18  1  0
 18 19  2  0
 19 20  1  0
 20 21  1  0
 21 22  2  0
 22 23  1  0
 23 24  2  0
 24 25  1  0
 25 26  2  0
 13  8  1  0
 19 14  1  0
 26 21  1  0
  1 27  1  0
  4 28  1  0
  4 29  1  0
  5 30  1  0
  5 31  1  0
  6 32  1  0
  6 33  1  0
  9 34  1  0
 10 35  1  0
 12 36  1  0
 13 37  1  0
 15 38  1  0
 16 39  1  0
 17 40  1  0
 18 41  1  0
 22 42  1  0
 23 43  1  0
 24 44  1  0
 25 45  1  0
 26 46  1  0
M  END
>  <Ligand ID>  (1) 
LIG0002731

>  <Ligand>  (1) 
CHEMBL3940493

>  <SMILES>  (1) 
OC(=O)CCCOc1ccc(cc1)c1ccccc1Oc1ccccc1

>  <CID>  (1) 
87054900.0

>  <ChEMBL ID>  (1) 
nan

>  <InChiKey>  (1) 
RRKJCHFRHOQLNR-UHFFFAOYSA-N

>  <InChi>  (1) 
InChI=1S/C22H20O4/c23-22(24)11-6-16-25-18-14-12-17(13-15-18)20-9-4-5-10-21(20)26-19-7-2-1-3-8-19/h1-5,7-10,12-15H,6,11,16H2,(H,23,24)

>  <IUPAC Name>  (1) 
4-[4-(2-phenoxyphenyl)phenoxy]butanoic acid

$$$$
