
     RDKit          3D

 15 14  0  0  0  0  0  0  0  0999 V2000
   -1.8913    0.6522   -0.4052 C   0  0  0  0  0  0  0  0  0  0  0  0
   -0.3890    0.5360   -0.6028 C   0  0  0  0  0  0  0  0  0  0  0  0
    0.0028   -0.6295    0.2526 C   0  0  0  0  0  0  0  0  0  0  0  0
    1.4758   -0.9347    0.2116 C   0  0  0  0  0  0  0  0  0  0  0  0
    2.5173    0.3976    0.7612 S   0  0  0  0  0  0  0  0  0  0  0  0
   -2.0042    0.9451    0.6674 H   0  0  0  0  0  0  0  0  0  0  0  0
   -2.3471    1.3595   -1.0921 H   0  0  0  0  0  0  0  0  0  0  0  0
   -2.3608   -0.3625   -0.4614 H   0  0  0  0  0  0  0  0  0  0  0  0
    0.0902    1.4797   -0.3069 H   0  0  0  0  0  0  0  0  0  0  0  0
   -0.2223    0.2688   -1.6670 H   0  0  0  0  0  0  0  0  0  0  0  0
   -0.3844   -0.5296    1.2848 H   0  0  0  0  0  0  0  0  0  0  0  0
   -0.5001   -1.5259   -0.2172 H   0  0  0  0  0  0  0  0  0  0  0  0
    1.6236   -1.8078    0.8984 H   0  0  0  0  0  0  0  0  0  0  0  0
    1.7492   -1.2739   -0.8024 H   0  0  0  0  0  0  0  0  0  0  0  0
    2.6401    1.4249   -0.1814 H   0  0  0  0  0  0  0  0  0  0  0  0
  1  2  1  0
  2  3  1  0
  3  4  1  0
  4  5  1  0
  1  6  1  0
  1  7  1  0
  1  8  1  0
  2  9  1  0
  2 10  1  0
  3 11  1  0
  3 12  1  0
  4 13  1  0
  4 14  1  0
  5 15  1  0
M  END
>  <Ligand ID>  (1) 
LIG0000629

>  <Ligand>  (1) 
1-Butanethiol

>  <SMILES>  (1) 
CCCCS

>  <CID>  (1) 
8012.0

>  <ChEMBL ID>  (1) 
nan

>  <InChiKey>  (1) 
WQAQPCDUOCURKW-UHFFFAOYSA-N

>  <InChi>  (1) 
InChI=1S/C4H10S/c1-2-3-4-5/h5H,2-4H2,1H3

>  <IUPAC Name>  (1) 
butane-1-thiol

$$$$
