
     RDKit          3D

 27 28  0  0  0  0  0  0  0  0999 V2000
    4.1668    0.1685    0.8508 N   0  0  0  0  0  0  0  0  0  0  0  0
    3.9901   -0.5916   -0.3558 C   0  0  0  0  0  0  0  0  0  0  0  0
    2.8307   -0.1086   -1.1888 C   0  0  0  0  0  0  0  0  0  0  0  0
    1.5553   -0.2081   -0.4074 C   0  0  0  0  0  0  0  0  0  0  0  0
    1.4483   -0.6748    0.8917 C   0  0  0  0  0  0  0  0  0  0  0  0
    0.1419   -0.6004    1.2177 N   0  0  0  0  0  0  0  0  0  0  0  0
   -0.5743   -0.1136    0.1960 C   0  0  0  0  0  0  0  0  0  0  0  0
    0.3097    0.1193   -0.7868 N   0  0  0  0  0  0  0  0  0  0  0  0
   -2.0164    0.1149    0.1617 C   0  0  0  0  0  0  0  0  0  0  0  0
   -2.5929    0.6241   -0.9768 C   0  0  0  0  0  0  0  0  0  0  0  0
   -3.9517    0.8386   -1.0070 C   0  0  0  0  0  0  0  0  0  0  0  0
   -4.7092    0.5385    0.1060 C   0  0  0  0  0  0  0  0  0  0  0  0
   -4.1318    0.0220    1.2638 C   0  0  0  0  0  0  0  0  0  0  0  0
   -2.7685   -0.1883    1.2808 C   0  0  0  0  0  0  0  0  0  0  0  0
   -5.1956   -0.3789    2.7717 Br  0  0  0  0  0  0  0  0  0  0  0  0
    4.5433    1.1138    0.7417 H   0  0  0  0  0  0  0  0  0  0  0  0
    4.6172   -0.3348    1.6198 H   0  0  0  0  0  0  0  0  0  0  0  0
    4.9113   -0.4367   -0.9880 H   0  0  0  0  0  0  0  0  0  0  0  0
    3.8558   -1.6449   -0.1087 H   0  0  0  0  0  0  0  0  0  0  0  0
    2.9843    0.8959   -1.5983 H   0  0  0  0  0  0  0  0  0  0  0  0
    2.7239   -0.8568   -2.0221 H   0  0  0  0  0  0  0  0  0  0  0  0
    2.2194   -1.0386    1.5602 H   0  0  0  0  0  0  0  0  0  0  0  0
    0.0775    0.5106   -1.7465 H   0  0  0  0  0  0  0  0  0  0  0  0
   -1.9779    0.8556   -1.8476 H   0  0  0  0  0  0  0  0  0  0  0  0
   -4.4037    1.2404   -1.9064 H   0  0  0  0  0  0  0  0  0  0  0  0
   -5.7727    0.7196    0.0470 H   0  0  0  0  0  0  0  0  0  0  0  0
   -2.2808   -0.5856    2.1541 H   0  0  0  0  0  0  0  0  0  0  0  0
  1  2  1  0
  2  3  1  0
  3  4  1  0
  4  5  2  0
  5  6  1  0
  6  7  2  0
  7  8  1  0
  7  9  1  0
  9 10  2  0
 10 11  1  0
 11 12  2  0
 12 13  1  0
 13 14  2  0
 13 15  1  0
  8  4  1  0
 14  9  1  0
  1 16  1  0
  1 17  1  0
  2 18  1  0
  2 19  1  0
  3 20  1  0
  3 21  1  0
  5 22  1  0
  8 23  1  0
 10 24  1  0
 11 25  1  0
 12 26  1  0
 14 27  1  0
M  END
>  <Ligand ID>  (1) 
LIG0002493

>  <Ligand>  (1) 
2-(3-bromophenyl)histamine

>  <SMILES>  (1) 
NCCc1cnc([nH]1)c1cccc(c1)Br

>  <CID>  (1) 
23786499.0

>  <ChEMBL ID>  (1) 
nan

>  <InChiKey>  (1) 
VSKJPAMQPJDPLL-UHFFFAOYSA-N

>  <InChi>  (1) 
InChI=1S/C11H12BrN3/c12-9-3-1-2-8(6-9)11-14-7-10(15-11)4-5-13/h1-3,6-7H,4-5,13H2,(H,14,15)

>  <IUPAC Name>  (1) 
2-[2-(3-bromophenyl)-1H-imidazol-5-yl]ethanamine

$$$$
