
     RDKit          3D

 79 80  0  0  0  0  0  0  0  0999 V2000
    7.5951   -2.3494    3.5372 C   0  0  0  0  0  0  0  0  0  0  0  0
    8.7793   -2.6033    2.6231 C   0  0  0  0  0  0  0  0  0  0  0  0
    8.2352   -2.9181    1.3126 N   0  0  0  0  0  0  0  0  0  0  0  0
    7.4379   -1.9477    0.6816 C   0  0  0  0  0  0  0  0  0  0  0  0
    7.1847   -0.8273    1.2132 O   0  0  0  0  0  0  0  0  0  0  0  0
    6.8447   -2.1471   -0.6173 N   0  0  0  0  0  0  0  0  0  0  0  0
    6.0665   -1.0609   -1.1068 C   0  0  0  0  0  0  0  0  0  0  0  0
    6.6937   -0.0875   -1.8530 C   0  0  0  0  0  0  0  0  0  0  0  0
    5.9815    0.9810   -2.3384 C   0  0  0  0  0  0  0  0  0  0  0  0
    4.6068    1.1344   -2.1047 C   0  0  0  0  0  0  0  0  0  0  0  0
    4.0050    0.1674   -1.3686 C   0  0  0  0  0  0  0  0  0  0  0  0
    4.7161   -0.9247   -0.8689 C   0  0  0  0  0  0  0  0  0  0  0  0
    3.9936    2.3492   -2.6734 C   0  0  0  0  0  0  0  0  0  0  0  0
    3.5802    2.0956   -4.0863 C   0  0  0  0  0  0  0  0  0  0  0  0
    2.5285    1.0932   -4.3387 C   0  0  0  0  0  0  0  0  0  0  0  0
    1.1706    1.4328   -3.7874 C   0  0  0  0  0  0  0  0  0  0  0  0
    1.1979    1.5871   -2.4529 O   0  0  0  0  0  0  0  0  0  0  0  0
   -0.0306    1.9440   -1.8420 C   0  0  0  0  0  0  0  0  0  0  0  0
   -1.0911    0.9434   -2.0921 C   0  0  0  0  0  0  0  0  0  0  0  0
   -2.4198    1.2066   -1.5532 C   0  0  0  0  0  0  0  0  0  0  0  0
   -2.7561    1.3193   -0.1275 C   0  0  0  0  0  0  0  0  0  0  0  0
   -2.1968    2.3508    0.7398 C   0  0  0  0  0  0  0  0  0  0  0  0
   -2.6603    2.2805    2.1710 C   0  0  0  0  0  0  0  0  0  0  0  0
   -3.9717    2.3928    2.5518 N   0  0  0  0  0  0  0  0  0  0  0  0
   -4.9959    1.4759    2.3863 C   0  0  0  0  0  0  0  0  0  0  0  0
   -4.7712    0.2092    3.2403 C   0  0  1  0  0  0  0  0  0  0  0  0
   -5.8949   -0.7099    2.8552 C   0  0  0  0  0  0  0  0  0  0  0  0
   -6.9270   -1.0182    3.6936 C   0  0  0  0  0  0  0  0  0  0  0  0
   -7.9186   -1.8686    3.2496 C   0  0  0  0  0  0  0  0  0  0  0  0
   -7.8508   -2.3978    1.9551 C   0  0  0  0  0  0  0  0  0  0  0  0
   -6.8035   -2.0767    1.1224 C   0  0  0  0  0  0  0  0  0  0  0  0
   -5.8131   -1.2287    1.5635 C   0  0  0  0  0  0  0  0  0  0  0  0
   -6.7707   -2.6609   -0.2545 C   0  0  0  0  0  0  0  0  0  0  0  0
   -7.7168   -1.9406   -1.0031 O   0  0  0  0  0  0  0  0  0  0  0  0
   -8.8899   -3.2426    1.5948 O   0  0  0  0  0  0  0  0  0  0  0  0
   -3.5912   -0.4103    2.8716 O   0  0  0  0  0  0  0  0  0  0  0  0
    7.2879   -1.2660    3.4980 H   0  0  0  0  0  0  0  0  0  0  0  0
    7.7592   -2.7007    4.5770 H   0  0  0  0  0  0  0  0  0  0  0  0
    6.6849   -2.8955    3.1644 H   0  0  0  0  0  0  0  0  0  0  0  0
    9.4178   -3.4228    2.9747 H   0  0  0  0  0  0  0  0  0  0  0  0
    9.3203   -1.6284    2.5715 H   0  0  0  0  0  0  0  0  0  0  0  0
    8.4132   -3.8261    0.8313 H   0  0  0  0  0  0  0  0  0  0  0  0
    6.9976   -3.0376   -1.1293 H   0  0  0  0  0  0  0  0  0  0  0  0
    7.7706   -0.1488   -2.0718 H   0  0  0  0  0  0  0  0  0  0  0  0
    6.5337    1.7261   -2.9271 H   0  0  0  0  0  0  0  0  0  0  0  0
    2.9646    0.1928   -1.1262 H   0  0  0  0  0  0  0  0  0  0  0  0
    4.2375   -1.6888   -0.2866 H   0  0  0  0  0  0  0  0  0  0  0  0
    3.1653    2.6839   -2.0088 H   0  0  0  0  0  0  0  0  0  0  0  0
    4.7309    3.1948   -2.6209 H   0  0  0  0  0  0  0  0  0  0  0  0
    3.2782    3.0756   -4.5424 H   0  0  0  0  0  0  0  0  0  0  0  0
    4.5050    1.7414   -4.6412 H   0  0  0  0  0  0  0  0  0  0  0  0
    2.8733    0.0911   -3.9725 H   0  0  0  0  0  0  0  0  0  0  0  0
    2.4815    0.9485   -5.4601 H   0  0  0  0  0  0  0  0  0  0  0  0
    0.7096    2.2773   -4.3524 H   0  0  0  0  0  0  0  0  0  0  0  0
    0.5341    0.5266   -4.0251 H   0  0  0  0  0  0  0  0  0  0  0  0
   -0.3078    2.9728   -2.1261 H   0  0  0  0  0  0  0  0  0  0  0  0
    0.2392    1.9611   -0.7630 H   0  0  0  0  0  0  0  0  0  0  0  0
   -0.7244   -0.1090   -1.8994 H   0  0  0  0  0  0  0  0  0  0  0  0
   -1.2247    0.9325   -3.2369 H   0  0  0  0  0  0  0  0  0  0  0  0
   -3.1660    0.4211   -1.9687 H   0  0  0  0  0  0  0  0  0  0  0  0
   -2.8353    2.1325   -2.1171 H   0  0  0  0  0  0  0  0  0  0  0  0
   -3.8955    1.5296   -0.1479 H   0  0  0  0  0  0  0  0  0  0  0  0
   -2.6515    0.3255    0.4068 H   0  0  0  0  0  0  0  0  0  0  0  0
   -1.0642    2.3055    0.8528 H   0  0  0  0  0  0  0  0  0  0  0  0
   -2.4125    3.4022    0.3984 H   0  0  0  0  0  0  0  0  0  0  0  0
   -2.1209    1.3793    2.6256 H   0  0  0  0  0  0  0  0  0  0  0  0
   -2.0554    3.1273    2.6843 H   0  0  0  0  0  0  0  0  0  0  0  0
   -4.2574    3.2657    3.0554 H   0  0  0  0  0  0  0  0  0  0  0  0
   -5.9513    1.9576    2.8262 H   0  0  0  0  0  0  0  0  0  0  0  0
   -5.3078    1.1147    1.4230 H   0  0  0  0  0  0  0  0  0  0  0  0
   -4.8787    0.4290    4.3030 H   0  0  0  0  0  0  0  0  0  0  0  0
   -6.9294   -0.5818    4.6823 H   0  0  0  0  0  0  0  0  0  0  0  0
   -8.7305   -2.1069    3.9191 H   0  0  0  0  0  0  0  0  0  0  0  0
   -4.9922   -0.9796    0.9050 H   0  0  0  0  0  0  0  0  0  0  0  0
   -5.7913   -2.4996   -0.7304 H   0  0  0  0  0  0  0  0  0  0  0  0
   -7.0077   -3.7305   -0.2652 H   0  0  0  0  0  0  0  0  0  0  0  0
   -7.7281   -2.1992   -1.9457 H   0  0  0  0  0  0  0  0  0  0  0  0
   -9.7018   -2.8179    1.1614 H   0  0  0  0  0  0  0  0  0  0  0  0
   -3.7172   -1.3435    2.6108 H   0  0  0  0  0  0  0  0  0  0  0  0
  1  2  1  0
  2  3  1  0
  3  4  1  0
  4  5  2  0
  4  6  1  0
  6  7  1  0
  7  8  2  0
  8  9  1  0
  9 10  2  0
 10 11  1  0
 11 12  2  0
 10 13  1  0
 13 14  1  0
 14 15  1  0
 15 16  1  0
 16 17  1  0
 17 18  1  0
 18 19  1  0
 19 20  1  0
 20 21  1  0
 21 22  1  0
 22 23  1  0
 23 24  1  0
 24 25  1  0
 25 26  1  0
 26 27  1  0
 27 28  2  0
 28 29  1  0
 29 30  2  0
 30 31  1  0
 31 32  2  0
 31 33  1  0
 33 34  1  0
 30 35  1  0
 26 36  1  0
 12  7  1  0
 32 27  1  0
  1 37  1  0
  1 38  1  0
  1 39  1  0
  2 40  1  0
  2 41  1  0
  3 42  1  0
  6 43  1  0
  8 44  1  0
  9 45  1  0
 11 46  1  0
 12 47  1  0
 13 48  1  0
 13 49  1  0
 14 50  1  0
 14 51  1  0
 15 52  1  0
 15 53  1  0
 16 54  1  0
 16 55  1  0
 18 56  1  0
 18 57  1  0
 19 58  1  0
 19 59  1  0
 20 60  1  0
 20 61  1  0
 21 62  1  0
 21 63  1  0
 22 64  1  0
 22 65  1  0
 23 66  1  0
 23 67  1  0
 24 68  1  0
 25 69  1  0
 25 70  1  0
 26 71  1  1
 28 72  1  0
 29 73  1  0
 32 74  1  0
 33 75  1  0
 33 76  1  0
 34 77  1  0
 35 78  1  0
 36 79  1  0
M  END
>  <Ligand ID>  (1) 
LIG0004416

>  <Ligand>  (1) 
CHEMBL1835856

>  <SMILES>  (1) 
CCNC(=O)Nc1ccc(cc1)CCCCOCCCCCCNC[C@@H](c1ccc(c(c1)CO)O)O

>  <CID>  (1) 
56658405.0

>  <ChEMBL ID>  (1) 
nan

>  <InChiKey>  (1) 
CEZJVTMLAXZREH-MHZLTWQESA-N

>  <InChi>  (1) 
InChI=1S/C28H43N3O5/c1-2-30-28(35)31-25-13-10-22(11-14-25)9-5-8-18-36-17-7-4-3-6-16-29-20-27(34)23-12-15-26(33)24(19-23)21-32/h10-15,19,27,29,32-34H,2-9,16-18,20-21H2,1H3,(H2,30,31,35)/t27-/m0/s1

>  <IUPAC Name>  (1) 
1-ethyl-3-[4-[4-[6-[[(2R)-2-hydroxy-2-[4-hydroxy-3-(hydroxymethyl)phenyl]ethyl]amino]hexoxy]butyl]phenyl]urea

$$$$
