
     RDKit          3D

 72 76  0  0  0  0  0  0  0  0999 V2000
    6.9923   -5.1690   -1.4046 N   0  0  0  0  0  0  0  0  0  0  0  0
    6.4640   -3.7929   -1.3004 C   0  0  0  0  0  0  0  0  0  0  0  0
    6.9396   -3.1527   -0.0333 C   0  0  0  0  0  0  0  0  0  0  0  0
    6.4165   -1.7494    0.0558 C   0  0  0  0  0  0  0  0  0  0  0  0
    4.9286   -1.7554    0.0536 C   0  0  0  0  0  0  0  0  0  0  0  0
    4.3805   -0.4452    0.1539 O   0  0  0  0  0  0  0  0  0  0  0  0
    2.9957   -0.3388    0.1607 C   0  0  0  0  0  0  0  0  0  0  0  0
    2.4138    0.8708    0.2533 N   0  0  0  0  0  0  0  0  0  0  0  0
    1.0736    1.0546    0.2661 C   0  0  0  0  0  0  0  0  0  0  0  0
    0.5745    2.3798    0.3675 N   0  0  0  0  0  0  0  0  0  0  0  0
    1.5085    3.5136    0.4555 C   0  0  0  0  0  0  0  0  0  0  0  0
    0.8305    4.8070    0.5544 C   0  0  0  0  0  0  0  0  0  0  0  0
    0.5324    5.4706   -0.6331 C   0  0  0  0  0  0  0  0  0  0  0  0
   -0.1052    6.6956   -0.6488 C   0  0  0  0  0  0  0  0  0  0  0  0
   -0.4463    7.2569    0.5660 C   0  0  0  0  0  0  0  0  0  0  0  0
   -0.1543    6.6067    1.7287 C   0  0  0  0  0  0  0  0  0  0  0  0
    0.4860    5.3738    1.7807 C   0  0  0  0  0  0  0  0  0  0  0  0
   -0.5561    7.2793    3.0121 C   0  0  0  0  0  0  0  0  0  0  0  0
    0.4221    8.2415    3.2859 F   0  0  0  0  0  0  0  0  0  0  0  0
   -0.5665    6.4096    4.0727 F   0  0  0  0  0  0  0  0  0  0  0  0
   -1.7811    7.8734    2.7681 F   0  0  0  0  0  0  0  0  0  0  0  0
    0.2948   -0.0638    0.1792 C   0  0  0  0  0  0  0  0  0  0  0  0
    0.8502   -1.3028    0.0843 C   0  0  0  0  0  0  0  0  0  0  0  0
    2.1799   -1.4167    0.0769 N   0  0  0  0  0  0  0  0  0  0  0  0
    0.0517   -2.4174   -0.0024 C   0  0  0  0  0  0  0  0  0  0  0  0
   -1.3238   -2.3468    0.0016 C   0  0  0  0  0  0  0  0  0  0  0  0
   -1.8629   -1.0594    0.1002 C   0  0  0  0  0  0  0  0  0  0  0  0
   -1.0643    0.0612    0.1874 C   0  0  0  0  0  0  0  0  0  0  0  0
   -3.3527   -0.9918    0.1035 C   0  0  0  0  0  0  0  0  0  0  0  0
   -3.9086   -0.8542   -1.2432 C   0  0  0  0  0  0  0  0  0  0  0  0
   -3.6252   -1.7093   -2.2793 C   0  0  0  0  0  0  0  0  0  0  0  0
   -4.1760   -1.5676   -3.5497 C   0  0  0  0  0  0  0  0  0  0  0  0
   -5.0488   -0.5339   -3.8172 C   0  0  0  0  0  0  0  0  0  0  0  0
   -5.3493    0.3392   -2.7929 C   0  0  0  0  0  0  0  0  0  0  0  0
   -4.7965    0.1869   -1.5388 C   0  0  0  0  0  0  0  0  0  0  0  0
   -5.7842   -0.2854   -5.3854 Cl  0  0  0  0  0  0  0  0  0  0  0  0
   -3.8663   -2.1380    0.8657 C   0  0  0  0  0  0  0  0  0  0  0  0
   -4.4620   -3.2533    0.3451 C   0  0  0  0  0  0  0  0  0  0  0  0
   -4.9219   -4.3116    1.1150 C   0  0  0  0  0  0  0  0  0  0  0  0
   -4.7654   -4.2245    2.4804 C   0  0  0  0  0  0  0  0  0  0  0  0
   -4.1665   -3.1137    3.0699 C   0  0  0  0  0  0  0  0  0  0  0  0
   -3.7273   -2.0902    2.2562 C   0  0  0  0  0  0  0  0  0  0  0  0
   -5.3260   -5.5301    3.5118 Cl  0  0  0  0  0  0  0  0  0  0  0  0
    6.3403   -5.6611   -2.0685 H   0  0  0  0  0  0  0  0  0  0  0  0
    6.8415   -5.6257   -0.4620 H   0  0  0  0  0  0  0  0  0  0  0  0
    5.3448   -3.9319   -1.1987 H   0  0  0  0  0  0  0  0  0  0  0  0
    6.7529   -3.2041   -2.1727 H   0  0  0  0  0  0  0  0  0  0  0  0
    8.0408   -3.2107    0.0954 H   0  0  0  0  0  0  0  0  0  0  0  0
    6.5195   -3.7717    0.8069 H   0  0  0  0  0  0  0  0  0  0  0  0
    6.8086   -1.1160   -0.7692 H   0  0  0  0  0  0  0  0  0  0  0  0
    6.7462   -1.2838    1.0144 H   0  0  0  0  0  0  0  0  0  0  0  0
    4.5691   -2.3208    0.9367 H   0  0  0  0  0  0  0  0  0  0  0  0
    4.4866   -2.1755   -0.8906 H   0  0  0  0  0  0  0  0  0  0  0  0
   -0.4287    2.6407    0.3867 H   0  0  0  0  0  0  0  0  0  0  0  0
    2.2394    3.3333    1.2812 H   0  0  0  0  0  0  0  0  0  0  0  0
    2.1134    3.4549   -0.4915 H   0  0  0  0  0  0  0  0  0  0  0  0
    0.7997    5.0322   -1.6021 H   0  0  0  0  0  0  0  0  0  0  0  0
   -0.3164    7.1739   -1.5941 H   0  0  0  0  0  0  0  0  0  0  0  0
   -0.9480    8.2228    0.5248 H   0  0  0  0  0  0  0  0  0  0  0  0
    0.7138    4.8656    2.7005 H   0  0  0  0  0  0  0  0  0  0  0  0
    0.5552   -3.3913   -0.0769 H   0  0  0  0  0  0  0  0  0  0  0  0
   -1.9440   -3.2239   -0.0667 H   0  0  0  0  0  0  0  0  0  0  0  0
   -1.5604    1.0165    0.2604 H   0  0  0  0  0  0  0  0  0  0  0  0
   -3.6162   -0.0770    0.6968 H   0  0  0  0  0  0  0  0  0  0  0  0
   -2.9441   -2.5374   -2.1587 H   0  0  0  0  0  0  0  0  0  0  0  0
   -3.9440   -2.2519   -4.3626 H   0  0  0  0  0  0  0  0  0  0  0  0
   -6.0358    1.1737   -2.9576 H   0  0  0  0  0  0  0  0  0  0  0  0
   -5.0295    0.8725   -0.7262 H   0  0  0  0  0  0  0  0  0  0  0  0
   -4.6038   -3.3464   -0.7181 H   0  0  0  0  0  0  0  0  0  0  0  0
   -5.3923   -5.1849    0.6566 H   0  0  0  0  0  0  0  0  0  0  0  0
   -4.0436   -3.0482    4.1609 H   0  0  0  0  0  0  0  0  0  0  0  0
   -3.2628   -1.2303    2.7236 H   0  0  0  0  0  0  0  0  0  0  0  0
  1  2  1  0
  2  3  1  0
  3  4  1  0
  4  5  1  0
  5  6  1  0
  6  7  1  0
  7  8  2  0
  8  9  1  0
  9 10  1  0
 10 11  1  0
 11 12  1  0
 12 13  2  0
 13 14  1  0
 14 15  2  0
 15 16  1  0
 16 17  2  0
 16 18  1  0
 18 19  1  0
 18 20  1  0
 18 21  1  0
  9 22  2  0
 22 23  1  0
 23 24  2  0
 23 25  1  0
 25 26  2  0
 26 27  1  0
 27 28  2  0
 27 29  1  0
 29 30  1  0
 30 31  2  0
 31 32  1  0
 32 33  2  0
 33 34  1  0
 34 35  2  0
 33 36  1  0
 29 37  1  0
 37 38  2  0
 38 39  1  0
 39 40  2  0
 40 41  1  0
 41 42  2  0
 40 43  1  0
 24  7  1  0
 35 30  1  0
 42 37  1  0
 17 12  1  0
 28 22  1  0
  1 44  1  0
  1 45  1  0
  2 46  1  0
  2 47  1  0
  3 48  1  0
  3 49  1  0
  4 50  1  0
  4 51  1  0
  5 52  1  0
  5 53  1  0
 10 54  1  0
 11 55  1  0
 11 56  1  0
 13 57  1  0
 14 58  1  0
 15 59  1  0
 17 60  1  0
 25 61  1  0
 26 62  1  0
 28 63  1  0
 29 64  1  0
 31 65  1  0
 32 66  1  0
 34 67  1  0
 35 68  1  0
 38 69  1  0
 39 70  1  0
 41 71  1  0
 42 72  1  0
M  END
>  <Ligand ID>  (1) 
LIG0005808

>  <Ligand>  (1) 
SCHEMBL17557736

>  <SMILES>  (1) 
NCCCCOc1nc(NCc2cccc(c2)C(F)(F)F)c2c(n1)ccc(c2)C(c1ccc(cc1)Cl)c1ccc(cc1)Cl

>  <CID>  (1) 
118916212.0

>  <ChEMBL ID>  (1) 
nan

>  <InChiKey>  (1) 
YYUGMRZATHBVQM-UHFFFAOYSA-N

>  <InChi>  (1) 
InChI=1S/C33H29Cl2F3N4O/c34-26-11-6-22(7-12-26)30(23-8-13-27(35)14-9-23)24-10-15-29-28(19-24)31(42-32(41-29)43-17-2-1-16-39)40-20-21-4-3-5-25(18-21)33(36,37)38/h3-15,18-19,30H,1-2,16-17,20,39H2,(H,40,41,42)

>  <IUPAC Name>  (1) 
2-(4-aminobutoxy)-6-[bis(4-chlorophenyl)methyl]-N-[[3-(trifluoromethyl)phenyl]methyl]quinazolin-4-amine

$$$$
