
     RDKit          3D

 49 52  0  0  0  0  0  0  0  0999 V2000
    1.8588    2.4819   -2.5335 N   0  0  0  0  0  0  0  0  0  0  0  0
    1.9837    1.4432   -1.5716 C   0  0  0  0  0  0  0  0  0  0  0  0
    1.0673    1.2728   -0.6325 N   0  0  0  0  0  0  0  0  0  0  0  0
    1.0891    0.3195    0.3298 C   0  0  0  0  0  0  0  0  0  0  0  0
   -0.0230    0.2610    1.2762 C   0  0  0  0  0  0  0  0  0  0  0  0
   -1.0843   -0.6331    0.8619 N   0  0  0  0  0  0  0  0  0  0  0  0
   -1.6389   -0.3906   -0.4138 C   0  0  0  0  0  0  0  0  0  0  0  0
   -2.8123    0.5229   -0.4823 C   0  0  0  0  0  0  0  0  0  0  0  0
   -3.7822    0.0824    0.5093 N   0  0  0  0  0  0  0  0  0  0  0  0
   -3.3794   -0.3937    1.7891 C   0  0  0  0  0  0  0  0  0  0  0  0
   -1.9736   -0.8077    1.9516 C   0  0  0  0  0  0  0  0  0  0  0  0
   -5.1522    0.1515    0.1210 C   0  0  0  0  0  0  0  0  0  0  0  0
   -5.7896   -0.8609   -0.5619 C   0  0  0  0  0  0  0  0  0  0  0  0
   -7.1086   -0.7638   -0.9353 C   0  0  0  0  0  0  0  0  0  0  0  0
   -7.8357    0.3689   -0.6296 C   0  0  0  0  0  0  0  0  0  0  0  0
   -7.1789    1.3824    0.0614 C   0  0  0  0  0  0  0  0  0  0  0  0
   -5.8802    1.2544    0.4136 N   0  0  0  0  0  0  0  0  0  0  0  0
    2.1442   -0.5127    0.3080 N   0  0  0  0  0  0  0  0  0  0  0  0
    3.1200   -0.3910   -0.6309 C   0  0  0  0  0  0  0  0  0  0  0  0
    3.0400    0.5820   -1.5658 N   0  0  0  0  0  0  0  0  0  0  0  0
    4.2481   -1.2498   -0.6931 N   0  0  0  0  0  0  0  0  0  0  0  0
    5.5083   -0.9246   -0.1498 C   0  0  0  0  0  0  0  0  0  0  0  0
    5.6771    0.2936    0.5032 C   0  0  0  0  0  0  0  0  0  0  0  0
    6.9220    0.6372    1.0345 C   0  0  0  0  0  0  0  0  0  0  0  0
    7.9485   -0.2679    0.8827 C   0  0  0  0  0  0  0  0  0  0  0  0
    7.7855   -1.4776    0.2361 C   0  0  0  0  0  0  0  0  0  0  0  0
    6.5409   -1.8282   -0.2980 C   0  0  0  0  0  0  0  0  0  0  0  0
    9.5190    0.1843    1.5547 Cl  0  0  0  0  0  0  0  0  0  0  0  0
    2.7684    2.9212   -2.8697 H   0  0  0  0  0  0  0  0  0  0  0  0
    0.9256    2.8093   -2.8968 H   0  0  0  0  0  0  0  0  0  0  0  0
   -0.4877    1.2464    1.4749 H   0  0  0  0  0  0  0  0  0  0  0  0
    0.2914   -0.1042    2.2871 H   0  0  0  0  0  0  0  0  0  0  0  0
   -0.8487   -0.0171   -1.1014 H   0  0  0  0  0  0  0  0  0  0  0  0
   -1.9731   -1.3925   -0.8179 H   0  0  0  0  0  0  0  0  0  0  0  0
   -3.2428    0.3947   -1.5211 H   0  0  0  0  0  0  0  0  0  0  0  0
   -2.5370    1.5740   -0.3924 H   0  0  0  0  0  0  0  0  0  0  0  0
   -3.5954    0.4413    2.5186 H   0  0  0  0  0  0  0  0  0  0  0  0
   -4.1235   -1.1816    2.1042 H   0  0  0  0  0  0  0  0  0  0  0  0
   -1.9820   -1.9191    2.1703 H   0  0  0  0  0  0  0  0  0  0  0  0
   -1.5372   -0.3819    2.9042 H   0  0  0  0  0  0  0  0  0  0  0  0
   -5.2335   -1.7711   -0.8192 H   0  0  0  0  0  0  0  0  0  0  0  0
   -7.6401   -1.5471   -1.4770 H   0  0  0  0  0  0  0  0  0  0  0  0
   -8.8772    0.5045   -0.8967 H   0  0  0  0  0  0  0  0  0  0  0  0
   -7.7410    2.2740    0.3053 H   0  0  0  0  0  0  0  0  0  0  0  0
    4.0921   -2.1709   -1.1776 H   0  0  0  0  0  0  0  0  0  0  0  0
    4.8357    0.9494    0.5829 H   0  0  0  0  0  0  0  0  0  0  0  0
    7.0633    1.5784    1.5386 H   0  0  0  0  0  0  0  0  0  0  0  0
    8.6322   -2.1720    0.1371 H   0  0  0  0  0  0  0  0  0  0  0  0
    6.3968   -2.7721   -0.8036 H   0  0  0  0  0  0  0  0  0  0  0  0
  1  2  1  0
  2  3  2  0
  3  4  1  0
  4  5  1  0
  5  6  1  0
  6  7  1  0
  7  8  1  0
  8  9  1  0
  9 10  1  0
 10 11  1  0
  9 12  1  0
 12 13  2  0
 13 14  1  0
 14 15  2  0
 15 16  1  0
 16 17  2  0
  4 18  2  0
 18 19  1  0
 19 20  2  0
 19 21  1  0
 21 22  1  0
 22 23  2  0
 23 24  1  0
 24 25  2  0
 25 26  1  0
 26 27  2  0
 25 28  1  0
 20  2  1  0
 27 22  1  0
 11  6  1  0
 17 12  1  0
  1 29  1  0
  1 30  1  0
  5 31  1  0
  5 32  1  0
  7 33  1  0
  7 34  1  0
  8 35  1  0
  8 36  1  0
 10 37  1  0
 10 38  1  0
 11 39  1  0
 11 40  1  0
 13 41  1  0
 14 42  1  0
 15 43  1  0
 16 44  1  0
 21 45  1  0
 23 46  1  0
 24 47  1  0
 26 48  1  0
 27 49  1  0
M  END
>  <Ligand ID>  (1) 
LIG0003160

>  <Ligand>  (1) 
SMR000047376

>  <SMILES>  (1) 
Nc1nc(CN2CCN(CC2)c2ccccn2)nc(n1)Nc1ccc(cc1)Cl

>  <CID>  (1) 
666078.0

>  <ChEMBL ID>  (1) 
nan

>  <InChiKey>  (1) 
JBQYOMAORVUETK-UHFFFAOYSA-N

>  <InChi>  (1) 
InChI=1S/C19H21ClN8/c20-14-4-6-15(7-5-14)23-19-25-16(24-18(21)26-19)13-27-9-11-28(12-10-27)17-3-1-2-8-22-17/h1-8H,9-13H2,(H3,21,23,24,25,26)

>  <IUPAC Name>  (1) 
2-N-(4-chlorophenyl)-6-[(4-pyridin-2-ylpiperazin-1-yl)methyl]-1,3,5-triazine-2,4-diamine

$$$$
