
     RDKit          3D

 37 38  0  0  0  0  0  0  0  0999 V2000
    3.7906   -1.6000    0.8625 C   0  0  0  0  0  0  0  0  0  0  0  0
    3.2632   -1.3553   -0.5338 C   0  0  0  0  0  0  0  0  0  0  0  0
    2.0501   -0.5166   -0.5620 C   0  0  0  0  0  0  0  0  0  0  0  0
    0.7655   -1.0256   -0.4948 C   0  0  0  0  0  0  0  0  0  0  0  0
   -0.3370   -0.1643   -0.5272 C   0  0  0  0  0  0  0  0  0  0  0  0
   -1.6751   -0.7242   -0.4720 C   0  0  1  0  0  0  0  0  0  0  0  0
   -1.9092   -1.8928    0.4151 C   0  0  0  0  0  0  0  0  0  0  0  0
   -3.3466   -1.8443    0.7253 N   0  0  0  0  0  0  0  0  0  0  0  0
   -3.8256   -0.5378    0.2451 C   0  0  0  0  0  0  0  0  0  0  0  0
   -2.5850    0.2706    0.2719 C   0  0  2  0  0  0  0  0  0  0  0  0
   -2.5587    1.4557   -0.5483 N   0  0  0  0  0  0  0  0  0  0  0  0
   -1.2699    2.1102   -0.6434 C   0  0  0  0  0  0  0  0  0  0  0  0
   -1.1655    3.3567   -0.7329 O   0  0  0  0  0  0  0  0  0  0  0  0
   -0.0977    1.2136   -0.6283 C   0  0  0  0  0  0  0  0  0  0  0  0
    1.1731    1.7327   -0.6961 C   0  0  0  0  0  0  0  0  0  0  0  0
    2.2291    0.8541   -0.6616 C   0  0  0  0  0  0  0  0  0  0  0  0
    1.3707    3.1880   -0.8021 C   0  0  0  0  0  0  0  0  0  0  0  0
    0.6862    0.0000    0.0000 Cl  0  0  0  0  0  0  0  0  0  0  0  0
    3.0201   -2.0531    1.5158 H   0  0  0  0  0  0  0  0  0  0  0  0
    4.2713   -0.7085    1.2947 H   0  0  0  0  0  0  0  0  0  0  0  0
    4.5909   -2.3641    0.7732 H   0  0  0  0  0  0  0  0  0  0  0  0
    2.9580   -2.3725   -0.9105 H   0  0  0  0  0  0  0  0  0  0  0  0
    4.0721   -1.0219   -1.1833 H   0  0  0  0  0  0  0  0  0  0  0  0
    0.6394   -2.0993   -0.4171 H   0  0  0  0  0  0  0  0  0  0  0  0
   -2.1482   -0.8775   -1.4640 H   0  0  0  0  0  0  0  0  0  0  0  0
   -1.6119   -2.8692   -0.0142 H   0  0  0  0  0  0  0  0  0  0  0  0
   -1.3920   -1.7005    1.3892 H   0  0  0  0  0  0  0  0  0  0  0  0
   -3.5441   -1.8794    1.7342 H   0  0  0  0  0  0  0  0  0  0  0  0
   -4.6328   -0.1604    0.9051 H   0  0  0  0  0  0  0  0  0  0  0  0
   -4.1402   -0.7006   -0.8059 H   0  0  0  0  0  0  0  0  0  0  0  0
   -2.2591    0.4242    1.3004 H   0  0  0  0  0  0  0  0  0  0  0  0
   -3.3552    1.8640   -1.0543 H   0  0  0  0  0  0  0  0  0  0  0  0
    3.2254    1.2743   -0.7157 H   0  0  0  0  0  0  0  0  0  0  0  0
    1.0175    3.7331    0.0932 H   0  0  0  0  0  0  0  0  0  0  0  0
    2.4687    3.3843   -0.8801 H   0  0  0  0  0  0  0  0  0  0  0  0
    0.9478    3.6065   -1.7418 H   0  0  0  0  0  0  0  0  0  0  0  0
   -0.6862    0.0000    0.0000 H   0  0  0  0  0  0  0  0  0  0  0  0
  1  2  1  0
  2  3  1  0
  3  4  2  0
  4  5  1  0
  5  6  1  0
  6  7  1  0
  7  8  1  0
  8  9  1  0
  9 10  1  0
 10 11  1  0
 11 12  1  0
 12 13  2  0
 12 14  1  0
 14 15  1  0
 15 16  2  0
 15 17  1  0
 16  3  1  0
 14  5  2  0
 10  6  1  0
  1 19  1  0
  1 20  1  0
  1 21  1  0
  2 22  1  0
  2 23  1  0
  4 24  1  0
  6 25  1  6
  7 26  1  0
  7 27  1  0
  8 28  1  0
  9 29  1  0
  9 30  1  0
 10 31  1  1
 11 32  1  0
 16 33  1  0
 17 34  1  0
 17 35  1  0
 17 36  1  0
 18 37  1  0
M  END
>  <Ligand ID>  (1) 
LIG0004105

>  <Ligand>  (1) 
CHEMBL2337504

>  <SMILES>  (1) 
CCc1cc2[C@H]3CNC[C@@H]3NC(=O)c2c(c1)C.Cl

>  <CID>  (1) 
11579852.0

>  <ChEMBL ID>  (1) 
nan

>  <InChiKey>  (1) 
OYVMLFPEBRBZAD-LYCTWNKOSA-N

>  <InChi>  (1) 
InChI=1S/C14H18N2O.ClH/c1-3-9-4-8(2)13-10(5-9)11-6-15-7-12(11)16-14(13)17;/h4-5,11-12,15H,3,6-7H2,1-2H3,(H,16,17);1H/t11-,12+;/m1./s1

>  <IUPAC Name>  (1) 
(3aR,9bS)-8-ethyl-6-methyl-1,2,3,3a,4,9b-hexahydropyrrolo[3,4-c]isoquinolin-5-one;hydrochloride

$$$$
