
     RDKit          3D

 32 34  0  0  0  0  0  0  0  0999 V2000
    4.8477    0.6995    0.0852 C   0  0  0  0  0  0  0  0  0  0  0  0
    3.4826    0.1140    0.0172 C   0  0  0  0  0  0  0  0  0  0  0  0
    3.2826   -1.2503   -0.1987 C   0  0  0  0  0  0  0  0  0  0  0  0
    2.0060   -1.7572   -0.2558 C   0  0  0  0  0  0  0  0  0  0  0  0
    0.9110   -0.9277   -0.1011 C   0  0  0  0  0  0  0  0  0  0  0  0
    1.1115    0.3989    0.1088 C   0  0  0  0  0  0  0  0  0  0  0  0
    2.3988    0.9441    0.1718 C   0  0  0  0  0  0  0  0  0  0  0  0
   -0.0498    1.2967    0.2758 C   0  0  0  0  0  0  0  0  0  0  0  0
    0.0960    2.5285    0.4714 O   0  0  0  0  0  0  0  0  0  0  0  0
   -1.3483    0.7203    0.2080 N   0  0  0  0  0  0  0  0  0  0  0  0
   -1.5398   -0.7070    0.3427 C   0  0  2  0  0  0  0  0  0  0  0  0
   -0.4259   -1.5368   -0.1734 C   0  0  0  0  0  0  0  0  0  0  0  0
   -2.7865   -1.0111   -0.4974 C   0  0  0  0  0  0  0  0  0  0  0  0
   -3.8823   -0.3997    0.1932 N   0  0  0  0  0  0  0  0  0  0  0  0
   -3.8055    1.0249    0.2388 C   0  0  0  0  0  0  0  0  0  0  0  0
   -2.4608    1.6153    0.0001 C   0  0  0  0  0  0  0  0  0  0  0  0
    4.8607    1.5152    0.8391 H   0  0  0  0  0  0  0  0  0  0  0  0
    5.1337    1.0890   -0.9129 H   0  0  0  0  0  0  0  0  0  0  0  0
    5.5291   -0.1406    0.3628 H   0  0  0  0  0  0  0  0  0  0  0  0
    4.1376   -1.9132   -0.3220 H   0  0  0  0  0  0  0  0  0  0  0  0
    1.8877   -2.8382   -0.4277 H   0  0  0  0  0  0  0  0  0  0  0  0
    2.4730    2.0099    0.3421 H   0  0  0  0  0  0  0  0  0  0  0  0
   -1.7340   -0.9584    1.4093 H   0  0  0  0  0  0  0  0  0  0  0  0
   -0.6105   -1.8609   -1.2237 H   0  0  0  0  0  0  0  0  0  0  0  0
   -0.3638   -2.5084    0.3973 H   0  0  0  0  0  0  0  0  0  0  0  0
   -2.6641   -0.5245   -1.4645 H   0  0  0  0  0  0  0  0  0  0  0  0
   -2.9591   -2.0975   -0.5839 H   0  0  0  0  0  0  0  0  0  0  0  0
   -4.1083   -0.8359    1.1121 H   0  0  0  0  0  0  0  0  0  0  0  0
   -4.4890    1.4148   -0.5716 H   0  0  0  0  0  0  0  0  0  0  0  0
   -4.2687    1.4236    1.1835 H   0  0  0  0  0  0  0  0  0  0  0  0
   -2.3008    2.4632    0.7063 H   0  0  0  0  0  0  0  0  0  0  0  0
   -2.3608    2.0097   -1.0229 H   0  0  0  0  0  0  0  0  0  0  0  0
  1  2  1  0
  2  3  2  0
  3  4  1  0
  4  5  2  0
  5  6  1  0
  6  7  2  0
  6  8  1  0
  8  9  2  0
  8 10  1  0
 10 11  1  0
 11 12  1  0
 11 13  1  0
 13 14  1  0
 14 15  1  0
 15 16  1  0
  7  2  1  0
 16 10  1  0
 12  5  1  0
  1 17  1  0
  1 18  1  0
  1 19  1  0
  3 20  1  0
  4 21  1  0
  7 22  1  0
 11 23  1  1
 12 24  1  0
 12 25  1  0
 13 26  1  0
 13 27  1  0
 14 28  1  0
 15 29  1  0
 15 30  1  0
 16 31  1  0
 16 32  1  0
M  END
>  <Ligand ID>  (1) 
LIG0003890

>  <Ligand>  (1) 
CHEMBL2397896

>  <SMILES>  (1) 
Cc1ccc2c(c1)C(=O)N1[C@H](C2)CNCC1

>  <CID>  (1) 
11151653.0

>  <ChEMBL ID>  (1) 
nan

>  <InChiKey>  (1) 
YYGBLBKESVVWBU-LLVKDONJSA-N

>  <InChi>  (1) 
InChI=1S/C13H16N2O/c1-9-2-3-10-7-11-8-14-4-5-15(11)13(16)12(10)6-9/h2-3,6,11,14H,4-5,7-8H2,1H3/t11-/m1/s1

>  <IUPAC Name>  (1) 
(11aR)-8-methyl-1,2,3,4,11,11a-hexahydropyrazino[1,2-b]isoquinolin-6-one

$$$$
