
     RDKit          3D

 19 19  0  0  0  0  0  0  0  0999 V2000
    2.6943   -0.0298    0.5209 C   0  0  0  0  0  0  0  0  0  0  0  0
    1.8318    0.1918   -0.6873 C   0  0  0  0  0  0  0  0  0  0  0  0
    0.3765    0.0880   -0.4070 C   0  0  0  0  0  0  0  0  0  0  0  0
   -0.3248    1.2374   -0.0327 C   0  0  0  0  0  0  0  0  0  0  0  0
   -1.6786    1.1644    0.2327 C   0  0  0  0  0  0  0  0  0  0  0  0
   -2.3127   -0.0563    0.1204 C   0  0  0  0  0  0  0  0  0  0  0  0
   -1.6464   -1.2108   -0.2477 C   0  0  0  0  0  0  0  0  0  0  0  0
   -0.2946   -1.1090   -0.5070 C   0  0  0  0  0  0  0  0  0  0  0  0
   -3.6767   -0.1537    0.3830 O   0  0  0  0  0  0  0  0  0  0  0  0
    3.3993   -0.8649    0.3127 H   0  0  0  0  0  0  0  0  0  0  0  0
    2.0993   -0.2661    1.4349 H   0  0  0  0  0  0  0  0  0  0  0  0
    3.3241    0.8816    0.7308 H   0  0  0  0  0  0  0  0  0  0  0  0
    2.0725   -0.5642   -1.4852 H   0  0  0  0  0  0  0  0  0  0  0  0
    2.0118    1.2013   -1.1121 H   0  0  0  0  0  0  0  0  0  0  0  0
    0.1598    2.2006    0.0591 H   0  0  0  0  0  0  0  0  0  0  0  0
   -2.2368    2.0463    0.5240 H   0  0  0  0  0  0  0  0  0  0  0  0
   -2.1305   -2.1748   -0.3399 H   0  0  0  0  0  0  0  0  0  0  0  0
    0.2359   -2.0288   -0.8002 H   0  0  0  0  0  0  0  0  0  0  0  0
   -3.9045   -0.5532    1.3007 H   0  0  0  0  0  0  0  0  0  0  0  0
  1  2  1  0
  2  3  1  0
  3  4  2  0
  4  5  1  0
  5  6  2  0
  6  7  1  0
  7  8  2  0
  6  9  1  0
  8  3  1  0
  1 10  1  0
  1 11  1  0
  1 12  1  0
  2 13  1  0
  2 14  1  0
  4 15  1  0
  5 16  1  0
  7 17  1  0
  8 18  1  0
  9 19  1  0
M  END
>  <Ligand ID>  (1) 
LIG0000170

>  <Ligand>  (1) 
4-Ethylphenol

>  <SMILES>  (1) 
CCc1ccc(cc1)O

>  <CID>  (1) 
31242.0

>  <ChEMBL ID>  (1) 
nan

>  <InChiKey>  (1) 
HXDOZKJGKXYMEW-UHFFFAOYSA-N

>  <InChi>  (1) 
InChI=1S/C8H10O/c1-2-7-3-5-8(9)6-4-7/h3-6,9H,2H2,1H3

>  <IUPAC Name>  (1) 
4-ethylphenol

$$$$
