
     RDKit          3D

 36 38  0  0  0  0  0  0  0  0999 V2000
   -3.6440    1.1668   -3.7777 O   0  0  0  0  0  0  0  0  0  0  0  0
   -3.2531    0.7755   -2.6312 C   0  0  0  0  0  0  0  0  0  0  0  0
   -2.0423    0.1389   -2.4694 C   0  0  0  0  0  0  0  0  0  0  0  0
   -1.5976   -0.2980   -1.2108 C   0  0  0  0  0  0  0  0  0  0  0  0
   -0.2946   -0.9302   -1.0199 C   0  0  0  0  0  0  0  0  0  0  0  0
    0.8149   -0.0170   -0.5684 C   0  0  0  0  0  0  0  0  0  0  0  0
    2.0369   -0.8847   -0.4289 C   0  0  0  0  0  0  0  0  0  0  0  0
    3.2740   -0.1916    0.0068 C   0  0  0  0  0  0  0  0  0  0  0  0
    4.4685   -1.1516    0.1182 C   0  0  0  0  0  0  0  0  0  0  0  0
    3.1434    0.8489    1.0607 C   0  0  0  0  0  0  0  0  0  0  0  0
    3.6236    1.1821   -0.3901 C   0  0  0  0  0  0  0  0  0  0  0  0
   -2.4941   -0.0246   -0.1725 C   0  0  0  0  0  0  0  0  0  0  0  0
   -3.6920    0.6146   -0.3866 C   0  0  0  0  0  0  0  0  0  0  0  0
   -4.0513    1.0001   -1.5885 O   0  0  0  0  0  0  0  0  0  0  0  0
   -4.5650    0.8812    0.6100 N   0  0  0  0  0  0  0  0  0  0  0  0
   -4.2018    0.4825    1.8467 C   0  0  0  0  0  0  0  0  0  0  0  0
   -4.9596    0.6902    2.8491 O   0  0  0  0  0  0  0  0  0  0  0  0
   -3.0425   -0.1478    2.1071 N   0  0  0  0  0  0  0  0  0  0  0  0
   -2.1773   -0.4061    1.0892 C   0  0  0  0  0  0  0  0  0  0  0  0
   -1.1275   -0.9893    1.3785 O   0  0  0  0  0  0  0  0  0  0  0  0
   -1.4212   -0.0282   -3.3280 H   0  0  0  0  0  0  0  0  0  0  0  0
   -0.2906   -1.9322   -0.5452 H   0  0  0  0  0  0  0  0  0  0  0  0
    0.0363   -1.2320   -2.0647 H   0  0  0  0  0  0  0  0  0  0  0  0
    0.9552    0.6992   -1.4471 H   0  0  0  0  0  0  0  0  0  0  0  0
    0.6213    0.6461    0.2570 H   0  0  0  0  0  0  0  0  0  0  0  0
    1.7753   -1.7141    0.2831 H   0  0  0  0  0  0  0  0  0  0  0  0
    2.2537   -1.4057   -1.3942 H   0  0  0  0  0  0  0  0  0  0  0  0
    4.8404   -1.3807   -0.9014 H   0  0  0  0  0  0  0  0  0  0  0  0
    5.2878   -0.6811    0.7071 H   0  0  0  0  0  0  0  0  0  0  0  0
    4.1969   -2.0802    0.6190 H   0  0  0  0  0  0  0  0  0  0  0  0
    2.1843    1.2854    1.3540 H   0  0  0  0  0  0  0  0  0  0  0  0
    3.9570    0.8566    1.8206 H   0  0  0  0  0  0  0  0  0  0  0  0
    2.9604    1.8273   -0.9970 H   0  0  0  0  0  0  0  0  0  0  0  0
    4.6907    1.4772   -0.4705 H   0  0  0  0  0  0  0  0  0  0  0  0
   -5.4764    1.3690    0.4485 H   0  0  0  0  0  0  0  0  0  0  0  0
   -2.7898   -0.4464    3.0827 H   0  0  0  0  0  0  0  0  0  0  0  0
  1  2  2  0
  2  3  1  0
  3  4  2  0
  4  5  1  0
  5  6  1  0
  6  7  1  0
  7  8  1  0
  8  9  1  0
  8 10  1  0
 10 11  1  0
  4 12  1  0
 12 13  2  0
 13 14  1  0
 13 15  1  0
 15 16  1  0
 16 17  2  0
 16 18  1  0
 18 19  1  0
 19 20  2  0
 14  2  1  0
 11  8  1  0
 19 12  1  0
  3 21  1  0
  5 22  1  0
  5 23  1  0
  6 24  1  0
  6 25  1  0
  7 26  1  0
  7 27  1  0
  9 28  1  0
  9 29  1  0
  9 30  1  0
 10 31  1  0
 10 32  1  0
 11 33  1  0
 11 34  1  0
 15 35  1  0
 18 36  1  0
M  END
>  <Ligand ID>  (1) 
LIG0001661

>  <Ligand>  (1) 
SCH 900271

>  <SMILES>  (1) 
O=c1cc(CCCC2(C)CC2)c2c(o1)[nH]c(=O)[nH]c2=O

>  <CID>  (1) 
56950369.0

>  <ChEMBL ID>  (1) 
nan

>  <InChiKey>  (1) 
ARJKMWXLIHZLQZ-UHFFFAOYSA-N

>  <InChi>  (1) 
InChI=1S/C14H16N2O4/c1-14(5-6-14)4-2-3-8-7-9(17)20-12-10(8)11(18)15-13(19)16-12/h7H,2-6H2,1H3,(H2,15,16,18,19)

>  <IUPAC Name>  (1) 
5-[3-(1-methylcyclopropyl)propyl]-1H-pyrano[2,3-d]pyrimidine-2,4,7-trione

$$$$
