
     RDKit          3D

 31 32  0  0  0  0  0  0  0  0999 V2000
    4.5112   -0.2537    0.2306 C   0  0  0  0  0  0  0  0  0  0  0  0
    3.1169    0.1880    0.4995 C   0  0  0  0  0  0  0  0  0  0  0  0
    2.8275    1.0019    1.4262 O   0  0  0  0  0  0  0  0  0  0  0  0
    2.0660   -0.3395   -0.3354 N   0  0  0  0  0  0  0  0  0  0  0  0
    0.7371    0.0935   -0.0648 C   0  0  1  0  0  0  0  0  0  0  0  0
    0.0639    0.7802   -1.2284 C   0  0  0  0  0  0  0  0  0  0  0  0
   -1.3218    0.9523   -0.6028 C   0  0  1  0  0  0  0  0  0  0  0  0
   -1.6180   -0.4533   -0.1360 C   0  0  1  0  0  0  0  0  0  0  0  0
   -0.2271   -1.0616    0.1591 C   0  0  2  0  0  0  0  0  0  0  0  0
   -1.2178   -0.8934    1.2215 C   0  0  2  0  0  0  0  0  0  0  0  0
   -1.8334   -2.1434    1.7287 C   0  0  0  0  0  0  0  0  0  0  0  0
   -2.1311   -2.3238    2.9453 O   0  0  0  0  0  0  0  0  0  0  0  0
   -2.0772   -3.1441    0.7717 O   0  0  0  0  0  0  0  0  0  0  0  0
   -1.1271    1.7771    0.5619 N   0  0  0  0  0  0  0  0  0  0  0  0
   -2.3451    1.4136   -1.5329 C   0  0  0  0  0  0  0  0  0  0  0  0
   -2.6187    0.7848   -2.5957 O   0  0  0  0  0  0  0  0  0  0  0  0
   -3.0977    2.5801   -1.3220 O   0  0  0  0  0  0  0  0  0  0  0  0
    4.9885    0.5179   -0.3806 H   0  0  0  0  0  0  0  0  0  0  0  0
    4.5181   -1.2655   -0.2274 H   0  0  0  0  0  0  0  0  0  0  0  0
    5.0989   -0.3345    1.1871 H   0  0  0  0  0  0  0  0  0  0  0  0
    2.2697   -1.0129   -1.1090 H   0  0  0  0  0  0  0  0  0  0  0  0
    0.7149    0.8003    0.7834 H   0  0  0  0  0  0  0  0  0  0  0  0
   -0.0139    0.1362   -2.1119 H   0  0  0  0  0  0  0  0  0  0  0  0
    0.5316    1.7401   -1.4939 H   0  0  0  0  0  0  0  0  0  0  0  0
   -2.3504   -1.0684   -0.6818 H   0  0  0  0  0  0  0  0  0  0  0  0
   -0.0522   -2.0028   -0.3778 H   0  0  0  0  0  0  0  0  0  0  0  0
   -1.0409   -0.1316    1.9973 H   0  0  0  0  0  0  0  0  0  0  0  0
   -2.5158   -3.9809    1.1180 H   0  0  0  0  0  0  0  0  0  0  0  0
   -1.8411    1.6887    1.2886 H   0  0  0  0  0  0  0  0  0  0  0  0
   -0.7484    2.7117    0.3709 H   0  0  0  0  0  0  0  0  0  0  0  0
   -3.2667    3.2432   -2.0895 H   0  0  0  0  0  0  0  0  0  0  0  0
  1  2  1  0
  2  3  2  0
  2  4  1  0
  4  5  1  0
  5  6  1  0
  6  7  1  0
  7  8  1  0
  8  9  1  0
  9 10  1  0
 10 11  1  0
 11 12  2  0
 11 13  1  0
  7 14  1  1
  7 15  1  0
 15 16  2  0
 15 17  1  0
  9  5  1  0
 10  8  1  0
  1 18  1  0
  1 19  1  0
  1 20  1  0
  4 21  1  0
  5 22  1  1
  6 23  1  0
  6 24  1  0
  8 25  1  6
  9 26  1  6
 10 27  1  1
 13 28  1  0
 14 29  1  0
 14 30  1  0
 17 31  1  0
M  END
>  <Ligand ID>  (1) 
LIG0001458

>  <Ligand>  (1) 
CHEMBL2381649

>  <SMILES>  (1) 
CC(=O)N[C@H]1C[C@@]([C@H]2[C@@H]1[C@@H]2C(=O)O)(N)C(=O)O

>  <CID>  (1) 
60096211.0

>  <ChEMBL ID>  (1) 
nan

>  <InChiKey>  (1) 
APZIMAYYQKOWFP-ONZQZHTRSA-N

>  <InChi>  (1) 
InChI=1S/C10H14N2O5/c1-3(13)12-4-2-10(11,9(16)17)7-5(4)6(7)8(14)15/h4-7H,2,11H2,1H3,(H,12,13)(H,14,15)(H,16,17)/t4-,5-,6-,7-,10-/m0/s1

>  <IUPAC Name>  (1) 
(1S,2S,4S,5R,6S)-4-acetamido-2-aminobicyclo[3.1.0]hexane-2,6-dicarboxylic acid

$$$$
