
     RDKit          3D

137138  0  0  0  0  0  0  0  0999 V2000
    2.5243    1.8829   -2.5682 C   0  0  0  0  0  0  0  0  0  0  0  0
    2.3846    0.9976   -3.5285 O   0  0  0  0  0  0  0  0  0  0  0  0
    2.8996   -0.2090   -3.6784 C   0  0  0  0  0  0  0  0  0  0  0  0
    2.4656   -1.3144   -2.8165 C   0  0  0  0  0  0  0  0  0  0  0  0
    2.6061   -1.3184   -1.4034 N   0  0  0  0  0  0  0  0  0  0  0  0
    1.4976   -0.8094   -0.6348 C   0  0  0  0  0  0  0  0  0  0  0  0
    0.5054   -0.2574   -1.1580 O   0  0  0  0  0  0  0  0  0  0  0  0
    1.5126   -0.9406    0.8854 C   0  0  2  0  0  0  0  0  0  0  0  0
    0.7461   -2.2454    1.2115 C   0  0  0  0  0  0  0  0  0  0  0  0
    1.2751   -3.4992    0.0811 S   0  0  0  0  0  0  0  0  0  0  0  0
    0.5084   -5.0871    0.1623 C   0  0  0  0  0  0  0  0  0  0  0  0
   -0.9911   -5.0200   -0.0690 C   0  0  0  0  0  0  0  0  0  0  0  0
   -1.2153   -4.0553   -1.1967 C   0  0  0  0  0  0  0  0  0  0  0  0
   -2.6953   -3.9058   -1.4569 C   0  0  0  0  0  0  0  0  0  0  0  0
   -3.4967   -4.8253   -1.5138 O   0  0  0  0  0  0  0  0  0  0  0  0
   -3.1758   -2.5901   -1.6293 N   0  0  0  0  0  0  0  0  0  0  0  0
   -4.6033   -2.2332   -1.8896 C   0  0  1  0  0  0  0  0  0  0  0  0
   -5.3624   -2.7053   -0.6220 C   0  0  0  0  0  0  0  0  0  0  0  0
   -6.7955   -2.4659   -0.6654 C   0  0  0  0  0  0  0  0  0  0  0  0
   -7.5905   -3.3755   -1.3392 C   0  0  0  0  0  0  0  0  0  0  0  0
   -8.9579   -3.2824   -1.4245 C   0  0  0  0  0  0  0  0  0  0  0  0
   -9.6270   -2.2295   -0.8148 C   0  0  0  0  0  0  0  0  0  0  0  0
   -8.8349   -1.3059   -0.1326 C   0  0  0  0  0  0  0  0  0  0  0  0
   -7.4641   -1.4194   -0.0590 C   0  0  0  0  0  0  0  0  0  0  0  0
   -4.5576   -0.7789   -1.9527 C   0  0  0  0  0  0  0  0  0  0  0  0
   -3.3762   -0.2669   -1.8919 O   0  0  0  0  0  0  0  0  0  0  0  0
   -5.5709    0.1801   -2.0684 N   0  0  0  0  0  0  0  0  0  0  0  0
   -5.0891    1.5932   -1.9239 C   0  0  2  0  0  0  0  0  0  0  0  0
   -4.4781    1.6845   -0.5786 C   0  0  0  0  0  0  0  0  0  0  0  0
   -4.6200    0.6716    0.1513 O   0  0  0  0  0  0  0  0  0  0  0  0
   -3.7490    2.7284    0.0119 N   0  0  0  0  0  0  0  0  0  0  0  0
   -3.2021    2.6518    1.3585 C   0  0  2  0  0  0  0  0  0  0  0  0
   -1.7459    2.7097    1.3724 C   0  0  0  0  0  0  0  0  0  0  0  0
   -1.1570    3.0587    0.3184 O   0  0  0  0  0  0  0  0  0  0  0  0
   -0.8634    2.4067    2.4445 N   0  0  0  0  0  0  0  0  0  0  0  0
    0.5679    2.5622    2.3527 C   0  0  2  0  0  0  0  0  0  0  0  0
    1.2783    1.3549    1.8575 C   0  0  0  0  0  0  0  0  0  0  0  0
    2.5183    1.3560    1.8326 O   0  0  0  0  0  0  0  0  0  0  0  0
    0.6591    0.1620    1.3916 N   0  0  0  0  0  0  0  0  0  0  0  0
    1.2392    3.1922    3.5158 C   0  0  0  0  0  0  0  0  0  0  0  0
    1.0723    2.4602    4.7840 C   0  0  0  0  0  0  0  0  0  0  0  0
   -0.0942    2.2477    5.2647 O   0  0  0  0  0  0  0  0  0  0  0  0
    2.2012    1.9586    5.5209 N   0  0  0  0  0  0  0  0  0  0  0  0
   -3.7572    1.6618    2.2996 C   0  0  0  0  0  0  0  0  0  0  0  0
   -5.1992    1.8083    2.6839 C   0  0  0  0  0  0  0  0  0  0  0  0
   -5.4898    0.6595    3.6248 C   0  0  0  0  0  0  0  0  0  0  0  0
   -4.6144   -0.1876    3.9281 O   0  0  0  0  0  0  0  0  0  0  0  0
   -6.8272    0.5845    4.1607 N   0  0  0  0  0  0  0  0  0  0  0  0
   -6.1533    2.5465   -2.2217 C   0  0  2  0  0  0  0  0  0  0  0  0
   -5.8400    4.0114   -2.1167 C   0  0  0  0  0  0  0  0  0  0  0  0
   -4.7199    4.3669   -3.0555 C   0  0  0  0  0  0  0  0  0  0  0  0
   -7.4384    2.2824   -1.4495 C   0  0  0  0  0  0  0  0  0  0  0  0
    3.8354   -1.7778   -0.8145 C   0  0  0  0  0  0  0  0  0  0  0  0
    4.9015   -0.7594   -0.7485 C   0  0  0  0  0  0  0  0  0  0  0  0
    4.8712    0.4039   -1.1613 O   0  0  0  0  0  0  0  0  0  0  0  0
    6.1360   -1.1802   -0.1208 N   0  0  0  0  0  0  0  0  0  0  0  0
    7.2550   -0.2164   -0.0403 C   0  0  2  0  0  0  0  0  0  0  0  0
    8.4531   -0.9624   -0.4217 C   0  0  0  0  0  0  0  0  0  0  0  0
    8.3053   -2.2286   -0.5802 O   0  0  0  0  0  0  0  0  0  0  0  0
    9.7421   -0.4574   -0.6336 N   0  0  0  0  0  0  0  0  0  0  0  0
   10.8151   -1.3389   -0.9963 C   0  0  0  0  0  0  0  0  0  0  0  0
   10.5485   -2.0725   -2.2723 C   0  0  0  0  0  0  0  0  0  0  0  0
   11.4514   -2.8659   -2.6509 O   0  0  0  0  0  0  0  0  0  0  0  0
    9.3535   -1.8949   -3.0224 N   0  0  0  0  0  0  0  0  0  0  0  0
    7.2385    0.2498    1.4046 C   0  0  0  0  0  0  0  0  0  0  0  0
    8.2926    1.2471    1.7475 C   0  0  0  0  0  0  0  0  0  0  0  0
    8.0952    1.5896    3.2353 C   0  0  0  0  0  0  0  0  0  0  0  0
    8.2056    2.5373    1.0030 C   0  0  0  0  0  0  0  0  0  0  0  0
    1.8873    2.8136   -2.8100 H   0  0  0  0  0  0  0  0  0  0  0  0
    2.2797    1.6609   -1.5263 H   0  0  0  0  0  0  0  0  0  0  0  0
    3.5773    2.3738   -2.5692 H   0  0  0  0  0  0  0  0  0  0  0  0
    4.0544   -0.1822   -3.7443 H   0  0  0  0  0  0  0  0  0  0  0  0
    2.6754   -0.5165   -4.7859 H   0  0  0  0  0  0  0  0  0  0  0  0
    2.9665   -2.2529   -3.2640 H   0  0  0  0  0  0  0  0  0  0  0  0
    1.3638   -1.5877   -3.0641 H   0  0  0  0  0  0  0  0  0  0  0  0
    2.5033   -0.9773    1.2071 H   0  0  0  0  0  0  0  0  0  0  0  0
    1.1002   -2.5140    2.2396 H   0  0  0  0  0  0  0  0  0  0  0  0
   -0.3110   -1.9907    1.1798 H   0  0  0  0  0  0  0  0  0  0  0  0
    0.9710   -5.7438   -0.6114 H   0  0  0  0  0  0  0  0  0  0  0  0
    0.7204   -5.6242    1.1278 H   0  0  0  0  0  0  0  0  0  0  0  0
   -1.3480   -6.0194   -0.3933 H   0  0  0  0  0  0  0  0  0  0  0  0
   -1.5448   -4.7462    0.8398 H   0  0  0  0  0  0  0  0  0  0  0  0
   -0.7564   -4.4635   -2.1143 H   0  0  0  0  0  0  0  0  0  0  0  0
   -0.7818   -3.0723   -1.0295 H   0  0  0  0  0  0  0  0  0  0  0  0
   -2.4513   -1.8538   -1.5604 H   0  0  0  0  0  0  0  0  0  0  0  0
   -4.9278   -2.8306   -2.7196 H   0  0  0  0  0  0  0  0  0  0  0  0
   -5.1669   -3.7789   -0.4610 H   0  0  0  0  0  0  0  0  0  0  0  0
   -4.9371   -2.1267    0.2430 H   0  0  0  0  0  0  0  0  0  0  0  0
   -7.1387   -4.2335   -1.8418 H   0  0  0  0  0  0  0  0  0  0  0  0
   -9.5542   -4.0118   -1.9585 H   0  0  0  0  0  0  0  0  0  0  0  0
  -10.6962   -2.1438   -0.8744 H   0  0  0  0  0  0  0  0  0  0  0  0
   -9.3219   -0.4735    0.3511 H   0  0  0  0  0  0  0  0  0  0  0  0
   -6.9140   -0.6786    0.4872 H   0  0  0  0  0  0  0  0  0  0  0  0
   -6.5079   -0.0811   -2.2582 H   0  0  0  0  0  0  0  0  0  0  0  0
   -4.2537    1.6525   -2.6387 H   0  0  0  0  0  0  0  0  0  0  0  0
   -3.5845    3.5653   -0.5284 H   0  0  0  0  0  0  0  0  0  0  0  0
   -3.6133    3.6464    1.8048 H   0  0  0  0  0  0  0  0  0  0  0  0
   -1.2802    2.0642    3.2975 H   0  0  0  0  0  0  0  0  0  0  0  0
    0.6677    3.3471    1.5054 H   0  0  0  0  0  0  0  0  0  0  0  0
   -0.3489    0.1333    1.4335 H   0  0  0  0  0  0  0  0  0  0  0  0
    2.3177    3.3516    3.3308 H   0  0  0  0  0  0  0  0  0  0  0  0
    0.8465    4.2298    3.7145 H   0  0  0  0  0  0  0  0  0  0  0  0
    2.6040    2.4543    6.3425 H   0  0  0  0  0  0  0  0  0  0  0  0
    2.6363    1.0418    5.2046 H   0  0  0  0  0  0  0  0  0  0  0  0
   -3.4638    0.6023    2.1227 H   0  0  0  0  0  0  0  0  0  0  0  0
   -3.2135    1.8714    3.2797 H   0  0  0  0  0  0  0  0  0  0  0  0
   -5.2287    2.7523    3.3350 H   0  0  0  0  0  0  0  0  0  0  0  0
   -5.9517    1.8718    1.9247 H   0  0  0  0  0  0  0  0  0  0  0  0
   -6.9285    0.6382    5.2117 H   0  0  0  0  0  0  0  0  0  0  0  0
   -7.6625    0.4807    3.5343 H   0  0  0  0  0  0  0  0  0  0  0  0
   -6.4580    2.4020   -3.3106 H   0  0  0  0  0  0  0  0  0  0  0  0
   -6.7708    4.5634   -2.4704 H   0  0  0  0  0  0  0  0  0  0  0  0
   -5.6431    4.3851   -1.1173 H   0  0  0  0  0  0  0  0  0  0  0  0
   -4.2755    5.3587   -2.7939 H   0  0  0  0  0  0  0  0  0  0  0  0
   -3.9155    3.6215   -3.0160 H   0  0  0  0  0  0  0  0  0  0  0  0
   -5.0872    4.4712   -4.1065 H   0  0  0  0  0  0  0  0  0  0  0  0
   -8.0662    3.1868   -1.3462 H   0  0  0  0  0  0  0  0  0  0  0  0
   -7.1971    1.7828   -0.4891 H   0  0  0  0  0  0  0  0  0  0  0  0
   -8.0209    1.5399   -2.0260 H   0  0  0  0  0  0  0  0  0  0  0  0
    3.7336   -2.2305    0.2017 H   0  0  0  0  0  0  0  0  0  0  0  0
    4.2425   -2.5863   -1.5010 H   0  0  0  0  0  0  0  0  0  0  0  0
    6.2439   -2.1480    0.2730 H   0  0  0  0  0  0  0  0  0  0  0  0
    7.0222    0.5961   -0.7285 H   0  0  0  0  0  0  0  0  0  0  0  0
    9.9181    0.5453   -0.5388 H   0  0  0  0  0  0  0  0  0  0  0  0
   11.0570   -2.0691   -0.2156 H   0  0  0  0  0  0  0  0  0  0  0  0
   11.7464   -0.7683   -1.1880 H   0  0  0  0  0  0  0  0  0  0  0  0
    8.9255   -0.9799   -3.2064 H   0  0  0  0  0  0  0  0  0  0  0  0
    8.9137   -2.7817   -3.3948 H   0  0  0  0  0  0  0  0  0  0  0  0
    7.3880   -0.6537    2.0278 H   0  0  0  0  0  0  0  0  0  0  0  0
    6.2157    0.6223    1.6117 H   0  0  0  0  0  0  0  0  0  0  0  0
    9.3160    0.8392    1.7007 H   0  0  0  0  0  0  0  0  0  0  0  0
    7.2504    2.3130    3.3182 H   0  0  0  0  0  0  0  0  0  0  0  0
    7.9076    0.7106    3.8523 H   0  0  0  0  0  0  0  0  0  0  0  0
    8.9845    2.1365    3.6032 H   0  0  0  0  0  0  0  0  0  0  0  0
    8.7419    3.2973    1.6446 H   0  0  0  0  0  0  0  0  0  0  0  0
    8.7574    2.5548    0.0420 H   0  0  0  0  0  0  0  0  0  0  0  0
    7.1767    2.9168    0.9279 H   0  0  0  0  0  0  0  0  0  0  0  0
  1  2  1  0
  2  3  1  0
  3  4  1  0
  4  5  1  0
  5  6  1  0
  6  7  2  0
  6  8  1  0
  8  9  1  0
  9 10  1  0
 10 11  1  0
 11 12  1  0
 12 13  1  0
 13 14  1  0
 14 15  2  0
 14 16  1  0
 16 17  1  0
 17 18  1  0
 18 19  1  0
 19 20  2  0
 20 21  1  0
 21 22  2  0
 22 23  1  0
 23 24  2  0
 17 25  1  0
 25 26  2  0
 25 27  1  0
 27 28  1  0
 28 29  1  0
 29 30  2  0
 29 31  1  0
 31 32  1  0
 32 33  1  0
 33 34  2  0
 33 35  1  0
 35 36  1  0
 36 37  1  0
 37 38  2  0
 37 39  1  0
 36 40  1  0
 40 41  1  0
 41 42  2  0
 41 43  1  0
 32 44  1  0
 44 45  1  0
 45 46  1  0
 46 47  2  0
 46 48  1  0
 28 49  1  0
 49 50  1  0
 50 51  1  0
 49 52  1  0
  5 53  1  0
 53 54  1  0
 54 55  2  0
 54 56  1  0
 56 57  1  0
 57 58  1  0
 58 59  2  0
 58 60  1  0
 60 61  1  0
 61 62  1  0
 62 63  2  0
 62 64  1  0
 57 65  1  0
 65 66  1  0
 66 67  1  0
 66 68  1  0
 39  8  1  0
 24 19  1  0
  1 69  1  0
  1 70  1  0
  1 71  1  0
  3 72  1  0
  3 73  1  0
  4 74  1  0
  4 75  1  0
  8 76  1  1
  9 77  1  0
  9 78  1  0
 11 79  1  0
 11 80  1  0
 12 81  1  0
 12 82  1  0
 13 83  1  0
 13 84  1  0
 16 85  1  0
 17 86  1  6
 18 87  1  0
 18 88  1  0
 20 89  1  0
 21 90  1  0
 22 91  1  0
 23 92  1  0
 24 93  1  0
 27 94  1  0
 28 95  1  6
 31 96  1  0
 32 97  1  1
 35 98  1  0
 36 99  1  6
 39100  1  0
 40101  1  0
 40102  1  0
 43103  1  0
 43104  1  0
 44105  1  0
 44106  1  0
 45107  1  0
 45108  1  0
 48109  1  0
 48110  1  0
 49111  1  6
 50112  1  0
 50113  1  0
 51114  1  0
 51115  1  0
 51116  1  0
 52117  1  0
 52118  1  0
 52119  1  0
 53120  1  0
 53121  1  0
 56122  1  0
 57123  1  6
 60124  1  0
 61125  1  0
 61126  1  0
 64127  1  0
 64128  1  0
 65129  1  0
 65130  1  0
 66131  1  0
 67132  1  0
 67133  1  0
 67134  1  0
 68135  1  0
 68136  1  0
 68137  1  0
M  END
>  <Ligand ID>  (1) 
LIG0001581

>  <Ligand>  (1) 
CHEMBL3354577

>  <SMILES>  (1) 
COCCN(C(=O)[C@@H]1CSCCCC(=O)N[C@@H](Cc2ccccc2)C(=O)N[C@H](C(=O)N[C@H](C(=O)N[C@H](C(=O)N1)CC(=O)N)CCC(=O)N)[C@H](CC)C)CC(=O)N[C@H](C(=O)NCC(=O)N)CC(C)C

>  <CID>  (1) 
118720266.0

>  <ChEMBL ID>  (1) 
nan

>  <InChiKey>  (1) 
ZCJDMPAQQUQBRV-DHTODDSISA-N

>  <InChi>  (1) 
InChI=1S/C44H69N11O12S/c1-6-26(4)38-43(65)51-28(14-15-33(45)56)40(62)52-31(21-34(46)57)41(63)53-32(24-68-18-10-13-36(59)49-30(42(64)54-38)20-27-11-8-7-9-12-27)44(66)55(16-17-67-5)23-37(60)50-29(19-25(2)3)39(61)48-22-35(47)58/h7-9,11-12,25-26,28-32,38H,6,10,13-24H2,1-5H3,(H2,45,56)(H2,46,57)(H2,47,58)(H,48,61)(H,49,59)(H,50,60)(H,51,65)(H,52,62)(H,53,63)(H,54,64)/t26-,28-,29-,30-,31-,32-,38-/m0/s1

>  <IUPAC Name>  (1) 
(3R,6S,9S,12S,15S)-6-(2-amino-2-oxoethyl)-N-[2-[[(2S)-1-[(2-amino-2-oxoethyl)amino]-4-methyl-1-oxopentan-2-yl]amino]-2-oxoethyl]-9-(3-amino-3-oxopropyl)-15-benzyl-12-[(2S)-butan-2-yl]-N-(2-methoxyethyl)-5,8,11,14,17-pentaoxo-1-thia-4,7,10,13,16-pentazacycloicosane-3-carboxamide

$$$$
