
     RDKit          3D

 47 47  0  0  0  0  0  0  0  0999 V2000
   -4.1245   -0.5713    0.6543 C   0  0  0  0  0  0  0  0  0  0  0  0
   -3.2498    0.2828   -0.2176 C   0  0  2  0  0  0  0  0  0  0  0  0
   -2.2532   -0.5615   -0.9886 C   0  0  0  0  0  0  0  0  0  0  0  0
   -1.3611   -1.4014   -0.0967 C   0  0  0  0  0  0  0  0  0  0  0  0
   -0.3922   -2.1528   -1.0178 C   0  0  0  0  0  0  0  0  0  0  0  0
    0.4752   -3.1061   -0.2923 C   0  0  0  0  0  0  0  0  0  0  0  0
    1.3525   -2.6838    0.7977 C   0  0  0  0  0  0  0  0  0  0  0  0
    2.5198   -1.8107    0.6102 C   0  0  0  0  0  0  0  0  0  0  0  0
    2.1870   -0.4073    0.1099 C   0  0  0  0  0  0  0  0  0  0  0  0
    3.3933    0.4713    0.1312 C   0  0  0  0  0  0  0  0  0  0  0  0
    3.1726    1.8349   -0.3835 C   0  0  0  0  0  0  0  0  0  0  0  0
    2.0468    2.6387    0.1817 C   0  0  0  0  0  0  0  0  0  0  0  0
    0.7245    2.2813   -0.3556 C   0  0  0  0  0  0  0  0  0  0  0  0
   -0.4776    2.8948    0.3589 C   0  0  0  0  0  0  0  0  0  0  0  0
   -1.7089    2.2120   -0.2517 C   0  0  0  0  0  0  0  0  0  0  0  0
   -1.9945    2.3925   -1.4233 O   0  0  0  0  0  0  0  0  0  0  0  0
   -2.5414    1.3059    0.6357 C   0  0  0  0  0  0  0  0  0  0  0  0
   -4.5088   -1.4264    0.0509 H   0  0  0  0  0  0  0  0  0  0  0  0
   -5.0440    0.0395    0.8889 H   0  0  0  0  0  0  0  0  0  0  0  0
   -3.6535   -0.9001    1.5908 H   0  0  0  0  0  0  0  0  0  0  0  0
   -3.8881    0.8041   -0.9473 H   0  0  0  0  0  0  0  0  0  0  0  0
   -2.8247   -1.2658   -1.6189 H   0  0  0  0  0  0  0  0  0  0  0  0
   -1.6233    0.0473   -1.6342 H   0  0  0  0  0  0  0  0  0  0  0  0
   -0.7896   -0.8270    0.6289 H   0  0  0  0  0  0  0  0  0  0  0  0
   -1.9581   -2.2091    0.3826 H   0  0  0  0  0  0  0  0  0  0  0  0
   -1.0959   -2.8345   -1.6436 H   0  0  0  0  0  0  0  0  0  0  0  0
    0.0458   -1.5225   -1.7818 H   0  0  0  0  0  0  0  0  0  0  0  0
    1.0978   -3.7179   -1.0238 H   0  0  0  0  0  0  0  0  0  0  0  0
   -0.2285   -3.8985    0.1519 H   0  0  0  0  0  0  0  0  0  0  0  0
    1.7534   -3.6490    1.2869 H   0  0  0  0  0  0  0  0  0  0  0  0
    0.7006   -2.2537    1.6504 H   0  0  0  0  0  0  0  0  0  0  0  0
    3.2651   -2.2754   -0.1024 H   0  0  0  0  0  0  0  0  0  0  0  0
    3.1168   -1.6765    1.5503 H   0  0  0  0  0  0  0  0  0  0  0  0
    1.8478   -0.5109   -0.9223 H   0  0  0  0  0  0  0  0  0  0  0  0
    1.4304   -0.0060    0.8191 H   0  0  0  0  0  0  0  0  0  0  0  0
    4.1840    0.0030   -0.5219 H   0  0  0  0  0  0  0  0  0  0  0  0
    3.8329    0.4648    1.1687 H   0  0  0  0  0  0  0  0  0  0  0  0
    3.0098    1.7450   -1.5028 H   0  0  0  0  0  0  0  0  0  0  0  0
    4.1587    2.3833   -0.2968 H   0  0  0  0  0  0  0  0  0  0  0  0
    2.0606    2.5921    1.3171 H   0  0  0  0  0  0  0  0  0  0  0  0
    2.2356    3.7448   -0.0032 H   0  0  0  0  0  0  0  0  0  0  0  0
    0.5505    1.2714   -0.6221 H   0  0  0  0  0  0  0  0  0  0  0  0
    0.7326    2.8235   -1.4176 H   0  0  0  0  0  0  0  0  0  0  0  0
   -0.4581    2.6606    1.4142 H   0  0  0  0  0  0  0  0  0  0  0  0
   -0.5248    3.9586    0.1251 H   0  0  0  0  0  0  0  0  0  0  0  0
   -3.2698    1.9711    1.1309 H   0  0  0  0  0  0  0  0  0  0  0  0
   -1.9235    0.8450    1.4294 H   0  0  0  0  0  0  0  0  0  0  0  0
  1  2  1  0
  2  3  1  0
  3  4  1  0
  4  5  1  0
  5  6  1  0
  6  7  1  0
  7  8  1  0
  8  9  1  0
  9 10  1  0
 10 11  1  0
 11 12  1  0
 12 13  1  0
 13 14  1  0
 14 15  1  0
 15 16  2  0
 15 17  1  0
 17  2  1  0
  1 18  1  0
  1 19  1  0
  1 20  1  0
  2 21  1  6
  3 22  1  0
  3 23  1  0
  4 24  1  0
  4 25  1  0
  5 26  1  0
  5 27  1  0
  6 28  1  0
  6 29  1  0
  7 30  1  0
  7 31  1  0
  8 32  1  0
  8 33  1  0
  9 34  1  0
  9 35  1  0
 10 36  1  0
 10 37  1  0
 11 38  1  0
 11 39  1  0
 12 40  1  0
 12 41  1  0
 13 42  1  0
 13 43  1  0
 14 44  1  0
 14 45  1  0
 17 46  1  0
 17 47  1  0
M  END
>  <Ligand ID>  (1) 
LIG0004978

>  <Ligand>  (1) 
L-Muscone

>  <SMILES>  (1) 
C[C@@H]1CCCCCCCCCCCCC(=O)C1

>  <CID>  (1) 
7160826.0

>  <ChEMBL ID>  (1) 
nan

>  <InChiKey>  (1) 
ALHUZKCOMYUFRB-OAHLLOKOSA-N

>  <InChi>  (1) 
InChI=1S/C16H30O/c1-15-12-10-8-6-4-2-3-5-7-9-11-13-16(17)14-15/h15H,2-14H2,1H3/t15-/m1/s1

>  <IUPAC Name>  (1) 
(3R)-3-methylcyclopentadecan-1-one

$$$$
