
     RDKit          3D

 61 65  0  0  0  0  0  0  0  0999 V2000
  -10.3275   -0.9301    0.1346 F   0  0  0  0  0  0  0  0  0  0  0  0
   -9.0139   -0.5697    0.1297 C   0  0  0  0  0  0  0  0  0  0  0  0
   -8.5180    0.4185   -0.7127 C   0  0  0  0  0  0  0  0  0  0  0  0
   -7.1616    0.7533   -0.6822 C   0  0  0  0  0  0  0  0  0  0  0  0
   -6.2681    0.1364    0.1631 C   0  0  0  0  0  0  0  0  0  0  0  0
   -6.7688   -0.8420    0.9948 C   0  0  0  0  0  0  0  0  0  0  0  0
   -8.1239   -1.1915    0.9789 C   0  0  0  0  0  0  0  0  0  0  0  0
   -4.8938    0.4851    0.1700 N   0  0  0  0  0  0  0  0  0  0  0  0
   -4.2772    1.3854   -0.7785 C   0  0  0  0  0  0  0  0  0  0  0  0
   -3.0784    0.5695   -1.3101 C   0  0  0  0  0  0  0  0  0  0  0  0
   -2.1007    0.5045   -0.2743 N   0  0  0  0  0  0  0  0  0  0  0  0
   -2.5802    0.2394    1.0325 C   0  0  0  0  0  0  0  0  0  0  0  0
   -4.0041   -0.0762    1.1981 C   0  0  0  0  0  0  0  0  0  0  0  0
   -1.0677    1.4837   -0.3470 C   0  0  0  0  0  0  0  0  0  0  0  0
   -0.1822    1.2275   -1.5221 C   0  0  0  0  0  0  0  0  0  0  0  0
    0.4932   -0.1269   -1.4666 C   0  0  0  0  0  0  0  0  0  0  0  0
    1.3067   -0.2479   -0.2673 N   0  0  0  0  0  0  0  0  0  0  0  0
    2.0435   -1.4407   -0.0541 C   0  0  0  0  0  0  0  0  0  0  0  0
    1.9319   -2.3287   -0.9513 O   0  0  0  0  0  0  0  0  0  0  0  0
    2.9114   -1.6545    1.1525 C   0  0  0  0  0  0  0  0  0  0  0  0
    4.1454   -0.8829    0.9444 N   0  0  0  0  0  0  0  0  0  0  0  0
    4.2199    0.3465    1.4623 C   0  0  0  0  0  0  0  0  0  0  0  0
    3.3324    0.8907    2.1560 O   0  0  0  0  0  0  0  0  0  0  0  0
    5.3764    1.0688    1.2069 C   0  0  0  0  0  0  0  0  0  0  0  0
    5.7320    2.3621    1.6104 C   0  0  0  0  0  0  0  0  0  0  0  0
    6.9727    2.5920    1.0896 C   0  0  0  0  0  0  0  0  0  0  0  0
    7.3479    1.4465    0.3849 C   0  0  0  0  0  0  0  0  0  0  0  0
    6.3709    0.5380    0.4673 N   0  0  0  0  0  0  0  0  0  0  0  0
    6.2411   -0.7207   -0.0359 C   0  0  0  0  0  0  0  0  0  0  0  0
    5.1023   -1.4577    0.2044 C   0  0  0  0  0  0  0  0  0  0  0  0
    4.9112   -2.7081   -0.2690 N   0  0  0  0  0  0  0  0  0  0  0  0
    5.8492   -3.2883   -1.0089 C   0  0  0  0  0  0  0  0  0  0  0  0
    7.0312   -2.5944   -1.2908 C   0  0  0  0  0  0  0  0  0  0  0  0
    7.2267   -1.3085   -0.8032 C   0  0  0  0  0  0  0  0  0  0  0  0
   -9.1992    0.9401   -1.4075 H   0  0  0  0  0  0  0  0  0  0  0  0
   -6.8786    1.5402   -1.3799 H   0  0  0  0  0  0  0  0  0  0  0  0
   -6.1642   -1.3846    1.6917 H   0  0  0  0  0  0  0  0  0  0  0  0
   -8.5198   -1.9628    1.6350 H   0  0  0  0  0  0  0  0  0  0  0  0
   -3.8602    2.2496   -0.1791 H   0  0  0  0  0  0  0  0  0  0  0  0
   -4.9049    1.7371   -1.5847 H   0  0  0  0  0  0  0  0  0  0  0  0
   -3.4608   -0.4552   -1.5058 H   0  0  0  0  0  0  0  0  0  0  0  0
   -2.6806    1.0467   -2.2074 H   0  0  0  0  0  0  0  0  0  0  0  0
   -1.9793   -0.6016    1.4378 H   0  0  0  0  0  0  0  0  0  0  0  0
   -2.3159    1.1298    1.6545 H   0  0  0  0  0  0  0  0  0  0  0  0
   -4.1923   -1.1677    1.2973 H   0  0  0  0  0  0  0  0  0  0  0  0
   -4.3998    0.3734    2.1592 H   0  0  0  0  0  0  0  0  0  0  0  0
   -1.5641    2.4768   -0.5469 H   0  0  0  0  0  0  0  0  0  0  0  0
   -0.5265    1.6311    0.5969 H   0  0  0  0  0  0  0  0  0  0  0  0
   -0.7003    1.2960   -2.4916 H   0  0  0  0  0  0  0  0  0  0  0  0
    0.6514    1.9833   -1.5780 H   0  0  0  0  0  0  0  0  0  0  0  0
    1.1607   -0.1873   -2.3396 H   0  0  0  0  0  0  0  0  0  0  0  0
   -0.2451   -0.9477   -1.5495 H   0  0  0  0  0  0  0  0  0  0  0  0
    1.3188    0.5479    0.3990 H   0  0  0  0  0  0  0  0  0  0  0  0
    2.3902   -1.3522    2.0644 H   0  0  0  0  0  0  0  0  0  0  0  0
    3.1833   -2.7212    1.1680 H   0  0  0  0  0  0  0  0  0  0  0  0
    5.1863    3.0637    2.2012 H   0  0  0  0  0  0  0  0  0  0  0  0
    7.6185    3.4787    1.1639 H   0  0  0  0  0  0  0  0  0  0  0  0
    8.3028    1.3253   -0.1529 H   0  0  0  0  0  0  0  0  0  0  0  0
    5.6666   -4.2896   -1.3745 H   0  0  0  0  0  0  0  0  0  0  0  0
    7.7943   -3.0687   -1.8957 H   0  0  0  0  0  0  0  0  0  0  0  0
    8.1390   -0.7603   -1.0148 H   0  0  0  0  0  0  0  0  0  0  0  0
  1  2  1  0
  2  3  2  0
  3  4  1  0
  4  5  2  0
  5  6  1  0
  6  7  2  0
  5  8  1  0
  8  9  1  0
  9 10  1  0
 10 11  1  0
 11 12  1  0
 12 13  1  0
 11 14  1  0
 14 15  1  0
 15 16  1  0
 16 17  1  0
 17 18  1  0
 18 19  2  0
 18 20  1  0
 20 21  1  0
 21 22  1  0
 22 23  2  0
 22 24  1  0
 24 25  2  0
 25 26  1  0
 26 27  2  0
 27 28  1  0
 28 29  1  0
 29 30  2  0
 30 31  1  0
 31 32  2  0
 32 33  1  0
 33 34  2  0
  7  2  1  0
 13  8  1  0
 30 21  1  0
 28 24  1  0
 34 29  1  0
  3 35  1  0
  4 36  1  0
  6 37  1  0
  7 38  1  0
  9 39  1  0
  9 40  1  0
 10 41  1  0
 10 42  1  0
 12 43  1  0
 12 44  1  0
 13 45  1  0
 13 46  1  0
 14 47  1  0
 14 48  1  0
 15 49  1  0
 15 50  1  0
 16 51  1  0
 16 52  1  0
 17 53  1  0
 20 54  1  0
 20 55  1  0
 25 56  1  0
 26 57  1  0
 27 58  1  0
 32 59  1  0
 33 60  1  0
 34 61  1  0
M  END
>  <Ligand ID>  (1) 
LIG0003168

>  <Ligand>  (1) 
MLS-0371135.0001

>  <SMILES>  (1) 
Fc1ccc(cc1)N1CCN(CC1)CCCNC(=O)Cn1c(=O)c2cccn2c2c1nccc2

>  <CID>  (1) 
22553446.0

>  <ChEMBL ID>  (1) 
nan

>  <InChiKey>  (1) 
DDOZONCQZRKYCR-UHFFFAOYSA-N

>  <InChi>  (1) 
InChI=1S/C25H27FN6O2/c26-19-6-8-20(9-7-19)30-16-14-29(15-17-30)12-3-11-27-23(33)18-32-24-21(4-1-10-28-24)31-13-2-5-22(31)25(32)34/h1-2,4-10,13H,3,11-12,14-18H2,(H,27,33)

>  <IUPAC Name>  (1) 
N-[3-[4-(4-fluorophenyl)piperazin-1-yl]propyl]-2-(7-oxo-2,8,10-triazatricyclo[7.4.0.02,6]trideca-1(9),3,5,10,12-pentaen-8-yl)acetamide

$$$$
