
     RDKit          3D

 31 32  0  0  0  0  0  0  0  0999 V2000
   -4.9362    1.3338    0.5834 O   0  0  0  0  0  0  0  0  0  0  0  0
   -5.0624   -0.0033    0.2548 C   0  0  0  0  0  0  0  0  0  0  0  0
   -4.0254   -0.4770   -0.7123 C   0  0  0  0  0  0  0  0  0  0  0  0
   -2.6414   -0.3328   -0.2219 C   0  0  0  0  0  0  0  0  0  0  0  0
   -2.0820   -1.3963    0.4879 C   0  0  0  0  0  0  0  0  0  0  0  0
   -0.7950   -1.3459    0.9817 C   0  0  0  0  0  0  0  0  0  0  0  0
   -0.0291   -0.2132    0.7725 C   0  0  0  0  0  0  0  0  0  0  0  0
   -0.5835    0.8420    0.0691 C   0  0  0  0  0  0  0  0  0  0  0  0
   -1.8706    0.8022   -0.4299 C   0  0  0  0  0  0  0  0  0  0  0  0
    0.5012    2.6306   -0.2810 I   0  0  0  0  0  0  0  0  0  0  0  0
    1.2389   -0.1598    1.2581 O   0  0  0  0  0  0  0  0  0  0  0  0
    2.4250   -0.0354    0.6035 C   0  0  0  0  0  0  0  0  0  0  0  0
    3.5760    0.1138    1.3854 C   0  0  0  0  0  0  0  0  0  0  0  0
    4.8165    0.2447    0.7899 C   0  0  0  0  0  0  0  0  0  0  0  0
    4.9519    0.2320   -0.5744 C   0  0  0  0  0  0  0  0  0  0  0  0
    3.8289    0.0854   -1.3750 C   0  0  0  0  0  0  0  0  0  0  0  0
    2.6016   -0.0437   -0.7607 C   0  0  0  0  0  0  0  0  0  0  0  0
    6.1952    0.3632   -1.1782 O   0  0  0  0  0  0  0  0  0  0  0  0
   -5.1098    1.8392   -0.2453 H   0  0  0  0  0  0  0  0  0  0  0  0
   -5.0860   -0.6688    1.1528 H   0  0  0  0  0  0  0  0  0  0  0  0
   -6.0499   -0.1449   -0.2520 H   0  0  0  0  0  0  0  0  0  0  0  0
   -4.2268   -1.5601   -0.8820 H   0  0  0  0  0  0  0  0  0  0  0  0
   -4.1749    0.0416   -1.6900 H   0  0  0  0  0  0  0  0  0  0  0  0
   -2.6690   -2.2839    0.6571 H   0  0  0  0  0  0  0  0  0  0  0  0
   -0.3990   -2.1997    1.5302 H   0  0  0  0  0  0  0  0  0  0  0  0
   -2.3154    1.6014   -0.9731 H   0  0  0  0  0  0  0  0  0  0  0  0
    3.5062    0.1284    2.4757 H   0  0  0  0  0  0  0  0  0  0  0  0
    5.6701    0.3567    1.4331 H   0  0  0  0  0  0  0  0  0  0  0  0
    3.9619    0.0786   -2.4435 H   0  0  0  0  0  0  0  0  0  0  0  0
    1.7451   -0.1642   -1.4029 H   0  0  0  0  0  0  0  0  0  0  0  0
    7.0380    0.3355   -0.6185 H   0  0  0  0  0  0  0  0  0  0  0  0
  1  2  1  0
  2  3  1  0
  3  4  1  0
  4  5  2  0
  5  6  1  0
  6  7  2  0
  7  8  1  0
  8  9  2  0
  8 10  1  0
  7 11  1  0
 11 12  1  0
 12 13  2  0
 13 14  1  0
 14 15  2  0
 15 16  1  0
 16 17  2  0
 15 18  1  0
  9  4  1  0
 17 12  1  0
  1 19  1  0
  2 20  1  0
  2 21  1  0
  3 22  1  0
  3 23  1  0
  5 24  1  0
  6 25  1  0
  9 26  1  0
 13 27  1  0
 14 28  1  0
 16 29  1  0
 17 30  1  0
 18 31  1  0
M  END
>  <Ligand ID>  (1) 
LIG0005967

>  <Ligand>  (1) 
CHEMBL372534

>  <SMILES>  (1) 
OCCc1ccc(c(c1)I)Oc1ccc(cc1)O

>  <CID>  (1) 
11703145.0

>  <ChEMBL ID>  (1) 
nan

>  <InChiKey>  (1) 
NWGNKFQRSSQLAM-UHFFFAOYSA-N

>  <InChi>  (1) 
InChI=1S/C14H13IO3/c15-13-9-10(7-8-16)1-6-14(13)18-12-4-2-11(17)3-5-12/h1-6,9,16-17H,7-8H2

>  <IUPAC Name>  (1) 
4-[4-(2-hydroxyethyl)-2-iodophenoxy]phenol

$$$$
