
     RDKit          3D

 32 35  0  0  0  0  0  0  0  0999 V2000
    4.8646    0.8408    0.7570 C   0  0  0  0  0  0  0  0  0  0  0  0
    5.6458   -0.2349    0.5244 C   0  0  0  0  0  0  0  0  0  0  0  0
    4.4834   -1.4794   -0.0909 S   0  0  0  0  0  0  0  0  0  0  0  0
    3.0391   -0.2569    0.0802 C   0  0  0  0  0  0  0  0  0  0  0  0
    3.5883    0.6628    0.4830 N   0  0  0  0  0  0  0  0  0  0  0  0
    1.6907   -0.7833   -0.3236 C   0  0  0  0  0  0  0  0  0  0  0  0
    1.5183   -2.0461   -0.7792 C   0  0  0  0  0  0  0  0  0  0  0  0
    0.2428   -2.4522   -1.1301 C   0  0  0  0  0  0  0  0  0  0  0  0
   -0.8148   -1.5534   -1.0036 C   0  0  0  0  0  0  0  0  0  0  0  0
   -0.5942   -0.2585   -0.5291 C   0  0  0  0  0  0  0  0  0  0  0  0
    0.6735    0.1311   -0.1850 C   0  0  0  0  0  0  0  0  0  0  0  0
    0.6372    1.5591    0.2924 C   0  0  0  0  0  0  0  0  0  0  0  0
   -0.8035    1.6829    0.7490 C   0  0  0  0  0  0  0  0  0  0  0  0
   -1.5061    0.8828   -0.2971 C   0  0  0  0  0  0  0  0  0  0  0  0
   -2.8839    0.4807    0.0698 C   0  0  0  0  0  0  0  0  0  0  0  0
   -3.3864    0.2633    1.2987 N   0  0  0  0  0  0  0  0  0  0  0  0
   -4.6877   -0.0839    1.1416 C   0  0  0  0  0  0  0  0  0  0  0  0
   -4.9695   -0.0750   -0.1941 C   0  0  0  0  0  0  0  0  0  0  0  0
   -3.8679    0.2696   -0.8454 N   0  0  0  0  0  0  0  0  0  0  0  0
    5.2610    1.7940    1.1455 H   0  0  0  0  0  0  0  0  0  0  0  0
    6.7370   -0.4231    0.6436 H   0  0  0  0  0  0  0  0  0  0  0  0
    2.3260   -2.7328   -0.8759 H   0  0  0  0  0  0  0  0  0  0  0  0
    0.0377   -3.4534   -1.5028 H   0  0  0  0  0  0  0  0  0  0  0  0
   -1.8275   -1.8461   -1.2722 H   0  0  0  0  0  0  0  0  0  0  0  0
    1.3749    1.7402    1.0859 H   0  0  0  0  0  0  0  0  0  0  0  0
    0.8156    2.1712   -0.6254 H   0  0  0  0  0  0  0  0  0  0  0  0
   -0.8727    1.2490    1.7616 H   0  0  0  0  0  0  0  0  0  0  0  0
   -1.0487    2.7427    0.7940 H   0  0  0  0  0  0  0  0  0  0  0  0
   -1.4962    1.4931   -1.2365 H   0  0  0  0  0  0  0  0  0  0  0  0
   -2.8627    0.3484    2.2077 H   0  0  0  0  0  0  0  0  0  0  0  0
   -5.3957   -0.3284    1.9149 H   0  0  0  0  0  0  0  0  0  0  0  0
   -5.9184   -0.3044   -0.6761 H   0  0  0  0  0  0  0  0  0  0  0  0
  1  2  2  0
  2  3  1  0
  3  4  1  0
  4  5  2  0
  4  6  1  0
  6  7  2  0
  7  8  1  0
  8  9  2  0
  9 10  1  0
 10 11  2  0
 11 12  1  0
 12 13  1  0
 13 14  1  0
 14 15  1  0
 15 16  1  0
 16 17  1  0
 17 18  2  0
 18 19  1  0
  5  1  1  0
 11  6  1  0
 19 15  2  0
 14 10  1  0
  1 20  1  0
  2 21  1  0
  7 22  1  0
  8 23  1  0
  9 24  1  0
 12 25  1  0
 12 26  1  0
 13 27  1  0
 13 28  1  0
 14 29  1  0
 16 30  1  0
 17 31  1  0
 18 32  1  0
M  END
>  <Ligand ID>  (1) 
LIG0001343

>  <Ligand>  (1) 
CHEMBL260116

>  <SMILES>  (1) 
c1csc(n1)c1cccc2c1CCC2c1[nH]ccn1

>  <CID>  (1) 
44449686.0

>  <ChEMBL ID>  (1) 
nan

>  <InChiKey>  (1) 
CDJSNQBVAYXVIN-UHFFFAOYSA-N

>  <InChi>  (1) 
InChI=1S/C15H13N3S/c1-2-10-11(13(3-1)15-18-8-9-19-15)4-5-12(10)14-16-6-7-17-14/h1-3,6-9,12H,4-5H2,(H,16,17)

>  <IUPAC Name>  (1) 
2-[1-(1H-imidazol-2-yl)-2,3-dihydro-1H-inden-4-yl]-1,3-thiazole

$$$$
