
     RDKit          3D

 24 24  0  0  0  0  0  0  0  0999 V2000
   -3.7592    0.8518    0.5817 C   0  0  0  0  0  0  0  0  0  0  0  0
   -3.5124   -0.4693   -0.0517 C   0  0  0  0  0  0  0  0  0  0  0  0
   -2.2733   -1.0569    0.2488 O   0  0  0  0  0  0  0  0  0  0  0  0
   -1.0523   -0.4911   -0.0362 C   0  0  0  0  0  0  0  0  0  0  0  0
   -1.0215    0.6458   -0.6132 O   0  0  0  0  0  0  0  0  0  0  0  0
    0.1773   -1.2203    0.3362 C   0  0  0  0  0  0  0  0  0  0  0  0
    1.4108   -0.5160   -0.0191 C   0  0  0  0  0  0  0  0  0  0  0  0
    2.0709   -0.6496   -1.2127 C   0  0  0  0  0  0  0  0  0  0  0  0
    3.2332    0.0234   -1.5290 C   0  0  0  0  0  0  0  0  0  0  0  0
    3.7845    0.8907   -0.6013 C   0  0  0  0  0  0  0  0  0  0  0  0
    3.1401    1.0408    0.6027 C   0  0  0  0  0  0  0  0  0  0  0  0
    1.9746    0.3597    0.9075 C   0  0  0  0  0  0  0  0  0  0  0  0
   -3.4872    1.7140   -0.0757 H   0  0  0  0  0  0  0  0  0  0  0  0
   -4.8785    0.9649    0.6985 H   0  0  0  0  0  0  0  0  0  0  0  0
   -3.3759    0.9454    1.6117 H   0  0  0  0  0  0  0  0  0  0  0  0
   -4.2866   -1.1846    0.3485 H   0  0  0  0  0  0  0  0  0  0  0  0
   -3.7273   -0.3961   -1.1308 H   0  0  0  0  0  0  0  0  0  0  0  0
    0.2063   -1.4048    1.4335 H   0  0  0  0  0  0  0  0  0  0  0  0
    0.2442   -2.2451   -0.1186 H   0  0  0  0  0  0  0  0  0  0  0  0
    1.6647   -1.3229   -1.9636 H   0  0  0  0  0  0  0  0  0  0  0  0
    3.6867   -0.1410   -2.4918 H   0  0  0  0  0  0  0  0  0  0  0  0
    4.6992    1.4191   -0.8527 H   0  0  0  0  0  0  0  0  0  0  0  0
    3.5551    1.7102    1.3334 H   0  0  0  0  0  0  0  0  0  0  0  0
    1.5266    0.5319    1.8779 H   0  0  0  0  0  0  0  0  0  0  0  0
  1  2  1  0
  2  3  1  0
  3  4  1  0
  4  5  2  0
  4  6  1  0
  6  7  1  0
  7  8  2  0
  8  9  1  0
  9 10  2  0
 10 11  1  0
 11 12  2  0
 12  7  1  0
  1 13  1  0
  1 14  1  0
  1 15  1  0
  2 16  1  0
  2 17  1  0
  6 18  1  0
  6 19  1  0
  8 20  1  0
  9 21  1  0
 10 22  1  0
 11 23  1  0
 12 24  1  0
M  END
>  <Ligand ID>  (1) 
LIG0000559

>  <Ligand>  (1) 
Ethyl phenylacetate

>  <SMILES>  (1) 
CCOC(=O)Cc1ccccc1

>  <CID>  (1) 
7590.0

>  <ChEMBL ID>  (1) 
nan

>  <InChiKey>  (1) 
DULCUDSUACXJJC-UHFFFAOYSA-N

>  <InChi>  (1) 
InChI=1S/C10H12O2/c1-2-12-10(11)8-9-6-4-3-5-7-9/h3-7H,2,8H2,1H3

>  <IUPAC Name>  (1) 
ethyl 2-phenylacetate

$$$$
