
     RDKit          3D

 54 56  0  0  0  0  0  0  0  0999 V2000
    1.5169   -0.5683    0.5831 O   0  0  0  0  0  0  0  0  0  0  0  0
    0.9018   -1.3891   -0.0900 C   0  0  0  0  0  0  0  0  0  0  0  0
    1.6508   -2.3935   -0.7713 N   0  0  0  0  0  0  0  0  0  0  0  0
    3.0987   -2.4009   -0.5873 C   0  0  0  0  0  0  0  0  0  0  0  0
    3.7745   -1.8017    0.1790 N   0  0  0  0  0  0  0  0  0  0  0  0
    4.3783   -1.0410    1.1170 C   0  0  0  0  0  0  0  0  0  0  0  0
    5.6431   -0.2764    0.8269 C   0  0  0  0  0  0  0  0  0  0  0  0
    5.5697    0.7467   -0.2500 C   0  0  0  0  0  0  0  0  0  0  0  0
    6.9176    1.4279   -0.3225 C   0  0  0  0  0  0  0  0  0  0  0  0
    7.3421    2.4384   -1.1364 C   0  0  0  0  0  0  0  0  0  0  0  0
    8.6183    2.7359   -0.8306 N   0  0  0  0  0  0  0  0  0  0  0  0
    9.0106    1.9230    0.1716 C   0  0  0  0  0  0  0  0  0  0  0  0
    7.9722    1.1256    0.4805 N   0  0  0  0  0  0  0  0  0  0  0  0
    3.7496   -3.2971   -1.5553 N   0  0  0  0  0  0  0  0  0  0  0  0
   -0.5794   -1.2838   -0.1527 C   0  0  0  0  0  0  0  0  0  0  0  0
   -0.9933    0.1750   -0.0690 C   0  0  0  0  0  0  0  0  0  0  0  0
   -2.4194    0.2586   -0.0034 N   0  0  0  0  0  0  0  0  0  0  0  0
   -3.2930    0.2345   -1.1398 C   0  0  0  0  0  0  0  0  0  0  0  0
   -2.7503    0.1441   -2.2597 O   0  0  0  0  0  0  0  0  0  0  0  0
   -4.7181    0.3205   -0.8865 C   0  0  0  0  0  0  0  0  0  0  0  0
   -5.6543   -0.7220   -0.8873 C   0  0  0  0  0  0  0  0  0  0  0  0
   -6.8823   -0.1184   -0.5865 C   0  0  0  0  0  0  0  0  0  0  0  0
   -6.6722    1.2286   -0.4158 C   0  0  0  0  0  0  0  0  0  0  0  0
   -5.3610    1.4850   -0.5990 N   0  0  0  0  0  0  0  0  0  0  0  0
   -7.7288    2.0952   -0.1101 C   0  0  0  0  0  0  0  0  0  0  0  0
   -8.9895    1.5581    0.0142 C   0  0  0  0  0  0  0  0  0  0  0  0
   -9.1994    0.1974   -0.1601 C   0  0  0  0  0  0  0  0  0  0  0  0
   -8.1397   -0.6559   -0.4632 C   0  0  0  0  0  0  0  0  0  0  0  0
   -2.9853    0.4383    1.3527 C   0  0  0  0  0  0  0  0  0  0  0  0
    1.1655   -3.0804   -1.3601 H   0  0  0  0  0  0  0  0  0  0  0  0
    3.7537   -0.3626    1.7824 H   0  0  0  0  0  0  0  0  0  0  0  0
    4.7645   -1.7889    1.9503 H   0  0  0  0  0  0  0  0  0  0  0  0
    5.9171    0.2479    1.7940 H   0  0  0  0  0  0  0  0  0  0  0  0
    6.4737   -0.9948    0.6476 H   0  0  0  0  0  0  0  0  0  0  0  0
    5.4954    0.2164   -1.2421 H   0  0  0  0  0  0  0  0  0  0  0  0
    4.8104    1.5317   -0.1231 H   0  0  0  0  0  0  0  0  0  0  0  0
    6.7188    2.8920   -1.8882 H   0  0  0  0  0  0  0  0  0  0  0  0
    9.9812    1.8813    0.6680 H   0  0  0  0  0  0  0  0  0  0  0  0
    8.0107    0.3862    1.2452 H   0  0  0  0  0  0  0  0  0  0  0  0
    3.5803   -3.1078   -2.5841 H   0  0  0  0  0  0  0  0  0  0  0  0
    4.3467   -4.0786   -1.2111 H   0  0  0  0  0  0  0  0  0  0  0  0
   -1.0231   -1.7829    0.7463 H   0  0  0  0  0  0  0  0  0  0  0  0
   -0.9426   -1.6533   -1.1107 H   0  0  0  0  0  0  0  0  0  0  0  0
   -0.6782    0.6085   -1.0629 H   0  0  0  0  0  0  0  0  0  0  0  0
   -0.4675    0.7449    0.6967 H   0  0  0  0  0  0  0  0  0  0  0  0
   -5.4704   -1.7704   -1.0773 H   0  0  0  0  0  0  0  0  0  0  0  0
   -4.9380    2.4500   -0.5214 H   0  0  0  0  0  0  0  0  0  0  0  0
   -7.5219    3.1617    0.0159 H   0  0  0  0  0  0  0  0  0  0  0  0
   -9.8049    2.2396    0.2460 H   0  0  0  0  0  0  0  0  0  0  0  0
  -10.2176   -0.1593   -0.0452 H   0  0  0  0  0  0  0  0  0  0  0  0
   -8.3759   -1.6909   -0.5861 H   0  0  0  0  0  0  0  0  0  0  0  0
   -3.9403    0.9551    1.2791 H   0  0  0  0  0  0  0  0  0  0  0  0
   -3.1023   -0.5545    1.7896 H   0  0  0  0  0  0  0  0  0  0  0  0
   -2.3136    1.1244    1.9314 H   0  0  0  0  0  0  0  0  0  0  0  0
  1  2  2  0
  2  3  1  0
  3  4  1  0
  4  5  2  3
  5  6  1  0
  6  7  1  0
  7  8  1  0
  8  9  1  0
  9 10  2  0
 10 11  1  0
 11 12  2  0
 12 13  1  0
  4 14  1  0
  2 15  1  0
 15 16  1  0
 16 17  1  0
 17 18  1  0
 18 19  2  0
 18 20  1  0
 20 21  2  0
 21 22  1  0
 22 23  2  0
 23 24  1  0
 23 25  1  0
 25 26  2  0
 26 27  1  0
 27 28  2  0
 17 29  1  0
 13  9  1  0
 24 20  1  0
 28 22  1  0
  3 30  1  0
  6 31  1  0
  6 32  1  0
  7 33  1  0
  7 34  1  0
  8 35  1  0
  8 36  1  0
 10 37  1  0
 12 38  1  0
 13 39  1  0
 14 40  1  0
 14 41  1  0
 15 42  1  0
 15 43  1  0
 16 44  1  0
 16 45  1  0
 21 46  1  0
 24 47  1  0
 25 48  1  0
 26 49  1  0
 27 50  1  0
 28 51  1  0
 29 52  1  0
 29 53  1  0
 29 54  1  0
M  END
>  <Ligand ID>  (1) 
LIG0001968

>  <Ligand>  (1) 
CHEMBL474617

>  <SMILES>  (1) 
O=C(NC(=NCCCc1cnc[nH]1)N)CCN(C(=O)c1cc2c([nH]1)cccc2)C

>  <CID>  (1) 
42625223.0

>  <ChEMBL ID>  (1) 
nan

>  <InChiKey>  (1) 
HICAAISICQLQCN-UHFFFAOYSA-N

>  <InChi>  (1) 
InChI=1S/C20H25N7O2/c1-27(19(29)17-11-14-5-2-3-7-16(14)25-17)10-8-18(28)26-20(21)23-9-4-6-15-12-22-13-24-15/h2-3,5,7,11-13,25H,4,6,8-10H2,1H3,(H,22,24)(H3,21,23,26,28)

>  <IUPAC Name>  (1) 
N-[3-[[N'-[3-(1H-imidazol-5-yl)propyl]carbamimidoyl]amino]-3-oxopropyl]-N-methyl-1H-indole-2-carboxamide

$$$$
