
     RDKit          3D

 47 48  0  0  0  0  0  0  0  0999 V2000
   -0.9726   -0.1818    2.9599 O   0  0  0  0  0  0  0  0  0  0  0  0
   -1.0067   -0.6428    1.6391 C   0  0  2  0  0  0  0  0  0  0  0  0
   -0.7296    0.5193    0.7470 C   0  0  1  0  0  0  0  0  0  0  0  0
    0.3564    0.1727   -0.2650 C   0  0  0  0  0  0  0  0  0  0  0  0
    1.4982   -0.1675    0.4199 O   0  0  0  0  0  0  0  0  0  0  0  0
    2.7774   -0.5736   -0.6029 P   0  0  0  0  0  0  0  0  0  0  0  0
    2.2424   -1.5682   -1.6316 O   0  0  0  0  0  0  0  0  0  0  0  0
    3.2817    0.7929   -1.4450 O   0  0  0  0  0  0  0  0  0  0  0  0
    4.9436    0.7120   -1.7058 P   0  0  0  0  0  0  0  0  0  0  0  0
    5.2304    1.4968   -2.9767 O   0  0  0  0  0  0  0  0  0  0  0  0
    5.6984    1.4222   -0.3687 O   0  0  0  0  0  0  0  0  0  0  0  0
    7.2845    0.8673   -0.1598 P   0  0  0  0  0  0  0  0  0  0  0  0
    7.7508    1.3480    1.1912 O   0  0  0  0  0  0  0  0  0  0  0  0
    8.2612    1.5152   -1.3745 O   0  0  0  0  0  0  0  0  0  0  0  0
    7.2455   -0.8320   -0.2154 O   0  0  0  0  0  0  0  0  0  0  0  0
    5.3940   -0.8829   -1.9195 O   0  0  0  0  0  0  0  0  0  0  0  0
    4.0052   -1.3454    0.2277 O   0  0  0  0  0  0  0  0  0  0  0  0
   -1.9206    0.8754    0.1283 O   0  0  0  0  0  0  0  0  0  0  0  0
   -2.9456    0.4603    0.9863 C   0  0  2  0  0  0  0  0  0  0  0  0
   -2.4663   -0.9409    1.3202 C   0  0  1  0  0  0  0  0  0  0  0  0
   -2.6102   -1.8132    0.1039 C   0  0  0  0  0  0  0  0  0  0  0  0
   -3.0927   -1.4603    2.4350 O   0  0  0  0  0  0  0  0  0  0  0  0
   -4.2119    0.5007    0.3291 N   0  0  0  0  0  0  0  0  0  0  0  0
   -5.2472   -0.3173    0.5917 C   0  0  0  0  0  0  0  0  0  0  0  0
   -6.4532   -0.2111   -0.0980 C   0  0  0  0  0  0  0  0  0  0  0  0
   -6.6040    0.7580   -1.0827 C   0  0  0  0  0  0  0  0  0  0  0  0
   -7.6886    0.8630   -1.7118 O   0  0  0  0  0  0  0  0  0  0  0  0
   -5.5405    1.5628   -1.3192 N   0  0  0  0  0  0  0  0  0  0  0  0
   -4.3798    1.4444   -0.6402 C   0  0  0  0  0  0  0  0  0  0  0  0
   -3.4259    2.2357   -0.9176 O   0  0  0  0  0  0  0  0  0  0  0  0
   -0.0790    0.1994    3.1796 H   0  0  0  0  0  0  0  0  0  0  0  0
   -0.3611   -1.5167    1.4691 H   0  0  0  0  0  0  0  0  0  0  0  0
   -0.3584    1.3932    1.3049 H   0  0  0  0  0  0  0  0  0  0  0  0
   -0.0102   -0.7449   -0.7864 H   0  0  0  0  0  0  0  0  0  0  0  0
    0.5093    0.9707   -0.9926 H   0  0  0  0  0  0  0  0  0  0  0  0
    7.7336    1.7201   -2.2038 H   0  0  0  0  0  0  0  0  0  0  0  0
    7.0624   -1.2042    0.6851 H   0  0  0  0  0  0  0  0  0  0  0  0
    6.2712   -0.9699   -2.3841 H   0  0  0  0  0  0  0  0  0  0  0  0
    4.0459   -1.1126    1.1929 H   0  0  0  0  0  0  0  0  0  0  0  0
   -2.9036    1.0645    1.9148 H   0  0  0  0  0  0  0  0  0  0  0  0
   -3.0460   -1.2452   -0.7285 H   0  0  0  0  0  0  0  0  0  0  0  0
   -3.3555   -2.6161    0.3499 H   0  0  0  0  0  0  0  0  0  0  0  0
   -1.6845   -2.3526   -0.1632 H   0  0  0  0  0  0  0  0  0  0  0  0
   -2.4919   -1.9396    3.0417 H   0  0  0  0  0  0  0  0  0  0  0  0
   -5.1282   -1.0677    1.3553 H   0  0  0  0  0  0  0  0  0  0  0  0
   -7.2452   -0.9018    0.1641 H   0  0  0  0  0  0  0  0  0  0  0  0
   -5.6328    2.2853   -2.0435 H   0  0  0  0  0  0  0  0  0  0  0  0
  1  2  1  0
  2  3  1  0
  3  4  1  0
  4  5  1  0
  5  6  1  0
  6  7  2  0
  6  8  1  0
  8  9  1  0
  9 10  2  0
  9 11  1  0
 11 12  1  0
 12 13  2  0
 12 14  1  0
 12 15  1  0
  9 16  1  0
  6 17  1  0
  3 18  1  0
 18 19  1  0
 19 20  1  0
 20 21  1  0
 20 22  1  1
 19 23  1  0
 23 24  1  0
 24 25  2  0
 25 26  1  0
 26 27  2  0
 26 28  1  0
 28 29  1  0
 29 30  2  0
 20  2  1  0
 29 23  1  0
  1 31  1  0
  2 32  1  1
  3 33  1  1
  4 34  1  0
  4 35  1  0
 14 36  1  0
 15 37  1  0
 16 38  1  0
 17 39  1  0
 19 40  1  1
 21 41  1  0
 21 42  1  0
 21 43  1  0
 22 44  1  0
 24 45  1  0
 25 46  1  0
 28 47  1  0
M  END
>  <Ligand ID>  (1) 
LIG0005107

>  <Ligand>  (1) 
CHEMBL521487

>  <SMILES>  (1) 
O[C@@H]1[C@@H](COP(=O)(OP(=O)(OP(=O)(O)O)O)O)O[C@H]([C@]1(C)O)n1ccc(=O)[nH]c1=O

>  <CID>  (1) 
44586007.0

>  <ChEMBL ID>  (1) 
nan

>  <InChiKey>  (1) 
JPNBLHSBLCCTEO-VPCXQMTMSA-N

>  <InChi>  (1) 
InChI=1S/C10H17N2O15P3/c1-10(16)7(14)5(25-8(10)12-3-2-6(13)11-9(12)15)4-24-29(20,21)27-30(22,23)26-28(17,18)19/h2-3,5,7-8,14,16H,4H2,1H3,(H,20,21)(H,22,23)(H,11,13,15)(H2,17,18,19)/t5-,7-,8-,10-/m1/s1

>  <IUPAC Name>  (1) 
[[(2R,3R,4R,5R)-5-(2,4-dioxopyrimidin-1-yl)-3,4-dihydroxy-4-methyloxolan-2-yl]methoxy-hydroxyphosphoryl] phosphono hydrogen phosphate

$$$$
