
     RDKit          3D

 63 65  0  0  0  0  0  0  0  0999 V2000
   -1.1263   -0.3156   -0.2348 O   0  0  0  0  0  0  0  0  0  0  0  0
   -1.5606   -1.2594   -0.9484 C   0  0  0  0  0  0  0  0  0  0  0  0
   -0.7727   -2.3783   -1.3343 N   0  0  0  0  0  0  0  0  0  0  0  0
    0.5772   -2.5628   -0.9662 C   0  0  0  0  0  0  0  0  0  0  0  0
    0.9697   -3.2328    0.1726 C   0  0  0  0  0  0  0  0  0  0  0  0
    2.3142   -3.3834    0.4873 C   0  0  0  0  0  0  0  0  0  0  0  0
    3.3159   -2.8642   -0.3340 C   0  0  0  0  0  0  0  0  0  0  0  0
    2.8795   -2.2022   -1.4617 C   0  0  0  0  0  0  0  0  0  0  0  0
    1.5498   -2.0449   -1.7870 C   0  0  0  0  0  0  0  0  0  0  0  0
    4.9734   -3.0883    0.0948 S   0  0  0  0  0  0  0  0  0  0  0  0
    5.2055   -4.4571    0.6425 O   0  0  0  0  0  0  0  0  0  0  0  0
    5.8200   -2.9136   -1.1357 O   0  0  0  0  0  0  0  0  0  0  0  0
    5.4415   -1.8633    1.2083 N   0  0  0  0  0  0  0  0  0  0  0  0
    5.4204   -0.4658    0.8934 C   0  0  0  0  0  0  0  0  0  0  0  0
    5.1295   -0.2867   -0.3734 N   0  0  0  0  0  0  0  0  0  0  0  0
    5.0412    1.0678   -0.9683 C   0  0  0  0  0  0  0  0  0  0  0  0
    5.7253    1.9945   -0.1282 C   0  0  0  0  0  0  0  0  0  0  0  0
    6.4419    2.6018    0.9149 C   0  0  0  0  0  0  0  0  0  0  0  0
    6.7991    1.4755    1.9445 C   0  0  0  0  0  0  0  0  0  0  0  0
    5.7092    0.4373    2.0008 C   0  0  0  0  0  0  0  0  0  0  0  0
   -2.9959   -1.2501   -1.4493 C   0  0  0  0  0  0  0  0  0  0  0  0
   -3.7136   -0.2204   -1.0924 O   0  0  0  0  0  0  0  0  0  0  0  0
   -4.3659    0.8317   -0.7794 C   0  0  0  0  0  0  0  0  0  0  0  0
   -3.9470    2.1097   -1.1702 C   0  0  0  0  0  0  0  0  0  0  0  0
   -4.6372    3.2489   -0.8418 C   0  0  0  0  0  0  0  0  0  0  0  0
   -4.2066    4.6086   -1.2489 C   0  0  0  0  0  0  0  0  0  0  0  0
   -5.7849    3.0978   -0.0968 C   0  0  0  0  0  0  0  0  0  0  0  0
   -6.2643    1.8793    0.3266 C   0  0  0  0  0  0  0  0  0  0  0  0
   -5.5497    0.7635   -0.0195 C   0  0  0  0  0  0  0  0  0  0  0  0
   -6.0520   -0.5604    0.4286 C   0  0  0  0  0  0  0  0  0  0  0  0
   -5.5020   -0.9564    1.7767 C   0  0  0  0  0  0  0  0  0  0  0  0
   -7.5433   -0.5883    0.3373 C   0  0  0  0  0  0  0  0  0  0  0  0
   -6.6864    4.5295    0.3376 Cl  0  0  0  0  0  0  0  0  0  0  0  0
   -1.1971   -3.1410   -1.9384 H   0  0  0  0  0  0  0  0  0  0  0  0
    0.2089   -3.6475    0.8310 H   0  0  0  0  0  0  0  0  0  0  0  0
    2.5637   -3.9204    1.3958 H   0  0  0  0  0  0  0  0  0  0  0  0
    3.6055   -1.7808   -2.1418 H   0  0  0  0  0  0  0  0  0  0  0  0
    1.2584   -1.5080   -2.6991 H   0  0  0  0  0  0  0  0  0  0  0  0
    5.7576   -2.1811    2.1691 H   0  0  0  0  0  0  0  0  0  0  0  0
    5.4146    1.0396   -2.0434 H   0  0  0  0  0  0  0  0  0  0  0  0
    3.9571    1.3223   -1.1940 H   0  0  0  0  0  0  0  0  0  0  0  0
    6.6352    1.3623   -0.3078 H   0  0  0  0  0  0  0  0  0  0  0  0
    4.9571    1.7268    0.6439 H   0  0  0  0  0  0  0  0  0  0  0  0
    5.9164    3.4424    1.4588 H   0  0  0  0  0  0  0  0  0  0  0  0
    7.3771    3.1330    0.6246 H   0  0  0  0  0  0  0  0  0  0  0  0
    6.8333    1.9108    2.9380 H   0  0  0  0  0  0  0  0  0  0  0  0
    7.7023    0.9741    1.5822 H   0  0  0  0  0  0  0  0  0  0  0  0
    4.7655    0.8667    2.4653 H   0  0  0  0  0  0  0  0  0  0  0  0
    6.0635   -0.2003    2.8735 H   0  0  0  0  0  0  0  0  0  0  0  0
   -3.4784   -2.2171   -1.0812 H   0  0  0  0  0  0  0  0  0  0  0  0
   -2.8804   -1.4011   -2.5692 H   0  0  0  0  0  0  0  0  0  0  0  0
   -3.0498    2.2260   -1.7525 H   0  0  0  0  0  0  0  0  0  0  0  0
   -5.0987    5.2752   -1.2701 H   0  0  0  0  0  0  0  0  0  0  0  0
   -3.7396    4.6162   -2.2649 H   0  0  0  0  0  0  0  0  0  0  0  0
   -3.4930    5.0424   -0.5349 H   0  0  0  0  0  0  0  0  0  0  0  0
   -7.1710    1.8004    0.9110 H   0  0  0  0  0  0  0  0  0  0  0  0
   -5.6679   -1.3106   -0.3259 H   0  0  0  0  0  0  0  0  0  0  0  0
   -6.1127   -1.7734    2.1909 H   0  0  0  0  0  0  0  0  0  0  0  0
   -5.4609   -0.0518    2.4276 H   0  0  0  0  0  0  0  0  0  0  0  0
   -4.4409   -1.2898    1.6489 H   0  0  0  0  0  0  0  0  0  0  0  0
   -8.0631   -0.4666    1.2925 H   0  0  0  0  0  0  0  0  0  0  0  0
   -7.8990   -1.5476   -0.1093 H   0  0  0  0  0  0  0  0  0  0  0  0
   -7.8687    0.1879   -0.4165 H   0  0  0  0  0  0  0  0  0  0  0  0
  1  2  2  0
  2  3  1  0
  3  4  1  0
  4  5  2  0
  5  6  1  0
  6  7  2  0
  7  8  1  0
  8  9  2  0
  7 10  1  0
 10 11  2  0
 10 12  2  0
 10 13  1  0
 13 14  1  0
 14 15  2  0
 15 16  1  0
 16 17  1  0
 17 18  1  0
 18 19  1  0
 19 20  1  0
  2 21  1  0
 21 22  1  0
 22 23  1  0
 23 24  2  0
 24 25  1  0
 25 26  1  0
 25 27  2  0
 27 28  1  0
 28 29  2  0
 29 30  1  0
 30 31  1  0
 30 32  1  0
 27 33  1  0
  9  4  1  0
 20 14  1  0
 29 23  1  0
  3 34  1  0
  5 35  1  0
  6 36  1  0
  8 37  1  0
  9 38  1  0
 13 39  1  0
 16 40  1  0
 16 41  1  0
 17 42  1  0
 17 43  1  0
 18 44  1  0
 18 45  1  0
 19 46  1  0
 19 47  1  0
 20 48  1  0
 20 49  1  0
 21 50  1  0
 21 51  1  0
 24 52  1  0
 26 53  1  0
 26 54  1  0
 26 55  1  0
 28 56  1  0
 30 57  1  0
 31 58  1  0
 31 59  1  0
 31 60  1  0
 32 61  1  0
 32 62  1  0
 32 63  1  0
M  END
>  <Ligand ID>  (1) 
LIG0003717

>  <Ligand>  (1) 
MLS000393562

>  <SMILES>  (1) 
O=C(Nc1ccc(cc1)S(=O)(=O)NC1=NCCCCC1)COc1cc(C)c(cc1C(C)C)Cl

>  <CID>  (1) 
2161152.0

>  <ChEMBL ID>  (1) 
nan

>  <InChiKey>  (1) 
IJNBPYFLMYJQBE-UHFFFAOYSA-N

>  <InChi>  (1) 
InChI=1S/C24H30ClN3O4S/c1-16(2)20-14-21(25)17(3)13-22(20)32-15-24(29)27-18-8-10-19(11-9-18)33(30,31)28-23-7-5-4-6-12-26-23/h8-11,13-14,16H,4-7,12,15H2,1-3H3,(H,26,28)(H,27,29)

>  <IUPAC Name>  (1) 
2-(4-chloro-5-methyl-2-propan-2-ylphenoxy)-N-[4-(3,4,5,6-tetrahydro-2H-azepin-7-ylsulfamoyl)phenyl]acetamide

$$$$
