
     RDKit          3D

142147  0  0  0  0  0  0  0  0999 V2000
   -6.5735   -5.9416    4.6109 N   0  0  0  0  0  0  0  0  0  0  0  0
   -5.6514   -5.0934    5.3394 C   0  0  0  0  0  0  0  0  0  0  0  0
   -5.0173   -4.1696    4.6360 N   0  0  0  0  0  0  0  0  0  0  0  0
   -5.2531   -4.0549    3.2361 C   0  0  0  0  0  0  0  0  0  0  0  0
   -4.2729   -3.0436    2.6011 C   0  0  0  0  0  0  0  0  0  0  0  0
   -4.6167   -3.0644    1.1491 C   0  0  0  0  0  0  0  0  0  0  0  0
   -3.8810   -2.2731    0.1646 C   0  0  2  0  0  0  0  0  0  0  0  0
   -2.4659   -2.5427    0.0395 N   0  0  0  0  0  0  0  0  0  0  0  0
   -2.0127   -3.6639   -0.7718 C   0  0  0  0  0  0  0  0  0  0  0  0
   -2.9637   -4.3028   -1.2757 O   0  0  0  0  0  0  0  0  0  0  0  0
   -0.6616   -4.0485   -1.0083 C   0  0  1  0  0  0  0  0  0  0  0  0
   -0.3938   -4.1739   -2.5174 C   0  0  0  0  0  0  0  0  0  0  0  0
   -1.1878   -5.1644   -3.1959 C   0  0  0  0  0  0  0  0  0  0  0  0
   -0.7177   -6.4976   -3.1529 C   0  0  0  0  0  0  0  0  0  0  0  0
   -1.4284   -7.5030   -3.7980 C   0  0  0  0  0  0  0  0  0  0  0  0
   -2.5729   -7.2603   -4.4812 C   0  0  0  0  0  0  0  0  0  0  0  0
   -3.0392   -5.9347   -4.5255 C   0  0  0  0  0  0  0  0  0  0  0  0
   -2.3785   -4.9016   -3.9060 C   0  0  0  0  0  0  0  0  0  0  0  0
    0.4164   -3.2904   -0.3999 N   0  0  0  0  0  0  0  0  0  0  0  0
    1.5529   -4.0014    0.0171 C   0  0  0  0  0  0  0  0  0  0  0  0
    1.4745   -5.2595   -0.0874 O   0  0  0  0  0  0  0  0  0  0  0  0
    2.8271   -3.4947    0.5600 C   0  0  2  0  0  0  0  0  0  0  0  0
    3.2548   -4.2627    1.7563 C   0  0  0  0  0  0  0  0  0  0  0  0
    4.5183   -3.8881    2.3861 C   0  0  0  0  0  0  0  0  0  0  0  0
    5.4353   -2.9535    2.1181 N   0  0  0  0  0  0  0  0  0  0  0  0
    6.4526   -3.0345    3.0240 C   0  0  0  0  0  0  0  0  0  0  0  0
    6.1673   -4.0268    3.8636 N   0  0  0  0  0  0  0  0  0  0  0  0
    5.0033   -4.5655    3.5079 C   0  0  0  0  0  0  0  0  0  0  0  0
    3.0084   -2.0982    0.7210 N   0  0  0  0  0  0  0  0  0  0  0  0
    3.0438   -1.2846   -0.4471 C   0  0  0  0  0  0  0  0  0  0  0  0
    2.6655   -1.8455   -1.4948 O   0  0  0  0  0  0  0  0  0  0  0  0
    3.4578    0.1324   -0.5371 C   0  0  2  0  0  0  0  0  0  0  0  0
    3.5997    0.5709   -1.9563 C   0  0  0  0  0  0  0  0  0  0  0  0
    1.9628    1.1056   -2.6279 S   0  0  0  0  0  0  0  0  0  0  0  0
    1.6769    3.0650   -2.0071 S   0  0  0  0  0  0  0  0  0  0  0  0
    0.9196    3.5199   -0.5365 C   0  0  0  0  0  0  0  0  0  0  0  0
   -0.5254    3.5247   -0.3817 C   0  0  1  0  0  0  0  0  0  0  0  0
   -1.2857    2.3335   -0.3121 N   0  0  0  0  0  0  0  0  0  0  0  0
   -2.7403    2.5516   -0.2786 C   0  0  0  0  0  0  0  0  0  0  0  0
   -3.0521    3.7574   -0.3071 O   0  0  0  0  0  0  0  0  0  0  0  0
   -3.7636    1.5416   -0.2093 C   0  0  2  0  0  0  0  0  0  0  0  0
   -3.3450    0.1963   -0.4161 N   0  0  0  0  0  0  0  0  0  0  0  0
   -4.1415   -0.8388    0.1937 C   0  0  0  0  0  0  0  0  0  0  0  0
   -5.1555   -0.4317    0.7906 O   0  0  0  0  0  0  0  0  0  0  0  0
   -5.0124    2.0027   -0.9044 C   0  0  0  0  0  0  0  0  0  0  0  0
   -4.9659    2.3770   -2.3065 C   0  0  0  0  0  0  0  0  0  0  0  0
   -4.9657    3.7133   -2.7254 C   0  0  0  0  0  0  0  0  0  0  0  0
   -4.9378    3.7630   -4.0780 N   0  0  0  0  0  0  0  0  0  0  0  0
   -4.9189    2.5213   -4.5563 C   0  0  0  0  0  0  0  0  0  0  0  0
   -4.9362    1.6490   -3.4796 C   0  0  0  0  0  0  0  0  0  0  0  0
   -4.9180    0.2533   -3.6770 C   0  0  0  0  0  0  0  0  0  0  0  0
   -4.8827   -0.1740   -4.9716 C   0  0  0  0  0  0  0  0  0  0  0  0
   -4.8651    0.7071   -6.0448 C   0  0  0  0  0  0  0  0  0  0  0  0
   -4.8842    2.0652   -5.8531 C   0  0  0  0  0  0  0  0  0  0  0  0
   -0.8713    4.4129    0.8693 C   0  0  0  0  0  0  0  0  0  0  0  0
   -1.5299    3.9151    1.7924 O   0  0  0  0  0  0  0  0  0  0  0  0
   -0.3631    5.7140    0.7608 N   0  0  0  0  0  0  0  0  0  0  0  0
   -0.5138    6.7658    1.7720 C   0  0  2  0  0  0  0  0  0  0  0  0
   -1.3507    7.8762    1.2164 C   0  0  0  0  0  0  0  0  0  0  0  0
   -1.8858    7.7682    0.0630 O   0  0  0  0  0  0  0  0  0  0  0  0
   -1.5966    9.0826    1.9175 N   0  0  0  0  0  0  0  0  0  0  0  0
    0.8479    7.2985    2.0899 C   0  0  2  0  0  0  0  0  0  0  0  0
    1.4726    7.8248    0.9401 O   0  0  0  0  0  0  0  0  0  0  0  0
    1.7440    6.2163    2.6598 C   0  0  0  0  0  0  0  0  0  0  0  0
    4.5833    0.3831    0.2843 N   0  0  0  0  0  0  0  0  0  0  0  0
    4.6686    1.3737    1.3005 C   0  0  0  0  0  0  0  0  0  0  0  0
    3.6424    2.0883    1.4707 O   0  0  0  0  0  0  0  0  0  0  0  0
    5.8247    1.6359    2.1499 C   0  0  2  0  0  0  0  0  0  0  0  0
    6.4468    2.9987    1.8686 C   0  0  0  0  0  0  0  0  0  0  0  0
    6.9268    3.0828    0.4724 C   0  0  0  0  0  0  0  0  0  0  0  0
    8.2455    2.6714    0.2318 C   0  0  0  0  0  0  0  0  0  0  0  0
    8.7717    2.7174   -1.0359 C   0  0  0  0  0  0  0  0  0  0  0  0
    7.9648    3.1830   -2.0726 C   0  0  0  0  0  0  0  0  0  0  0  0
    6.6677    3.5919   -1.8664 C   0  0  0  0  0  0  0  0  0  0  0  0
    6.1516    3.5402   -0.5845 C   0  0  0  0  0  0  0  0  0  0  0  0
    6.8609    0.6008    2.0180 N   0  0  0  0  0  0  0  0  0  0  0  0
   -5.4476   -5.2628    6.7277 N   0  0  0  0  0  0  0  0  0  0  0  0
   -6.3986   -6.2002    3.6037 H   0  0  0  0  0  0  0  0  0  0  0  0
   -7.4217   -6.3112    5.0686 H   0  0  0  0  0  0  0  0  0  0  0  0
   -6.2947   -3.7778    3.0472 H   0  0  0  0  0  0  0  0  0  0  0  0
   -5.0512   -5.0251    2.7054 H   0  0  0  0  0  0  0  0  0  0  0  0
   -4.4352   -2.0777    3.1072 H   0  0  0  0  0  0  0  0  0  0  0  0
   -3.2700   -3.4342    2.8572 H   0  0  0  0  0  0  0  0  0  0  0  0
   -4.6190   -4.1674    0.8670 H   0  0  0  0  0  0  0  0  0  0  0  0
   -5.7007   -2.7860    1.0715 H   0  0  0  0  0  0  0  0  0  0  0  0
   -4.3565   -2.6844   -0.8526 H   0  0  0  0  0  0  0  0  0  0  0  0
   -1.7059   -2.0251    0.4683 H   0  0  0  0  0  0  0  0  0  0  0  0
   -0.5351   -5.1079   -0.5977 H   0  0  0  0  0  0  0  0  0  0  0  0
    0.6717   -4.2433   -2.6614 H   0  0  0  0  0  0  0  0  0  0  0  0
   -0.6843   -3.1526   -2.9143 H   0  0  0  0  0  0  0  0  0  0  0  0
    0.2071   -6.7226   -2.5991 H   0  0  0  0  0  0  0  0  0  0  0  0
   -0.9873   -8.5079   -3.6996 H   0  0  0  0  0  0  0  0  0  0  0  0
   -3.0951   -8.0672   -4.9590 H   0  0  0  0  0  0  0  0  0  0  0  0
   -3.9502   -5.6856   -5.0524 H   0  0  0  0  0  0  0  0  0  0  0  0
   -2.7140   -3.8655   -3.9256 H   0  0  0  0  0  0  0  0  0  0  0  0
    0.3895   -2.2917   -0.2331 H   0  0  0  0  0  0  0  0  0  0  0  0
    3.5463   -3.8563   -0.3030 H   0  0  0  0  0  0  0  0  0  0  0  0
    3.3621   -5.3539    1.4259 H   0  0  0  0  0  0  0  0  0  0  0  0
    2.4364   -4.3128    2.5399 H   0  0  0  0  0  0  0  0  0  0  0  0
    5.3371   -2.2930    1.3264 H   0  0  0  0  0  0  0  0  0  0  0  0
    7.3479   -2.4134    3.0699 H   0  0  0  0  0  0  0  0  0  0  0  0
    4.5239   -5.4037    4.0123 H   0  0  0  0  0  0  0  0  0  0  0  0
    3.1032   -1.5791    1.6017 H   0  0  0  0  0  0  0  0  0  0  0  0
    2.5381    0.7006   -0.1205 H   0  0  0  0  0  0  0  0  0  0  0  0
    4.2444    1.4635   -2.0003 H   0  0  0  0  0  0  0  0  0  0  0  0
    4.0588   -0.1783   -2.6314 H   0  0  0  0  0  0  0  0  0  0  0  0
    1.3080    4.5261   -0.1263 H   0  0  0  0  0  0  0  0  0  0  0  0
    1.3494    2.8447    0.3573 H   0  0  0  0  0  0  0  0  0  0  0  0
   -1.0194    4.1848   -1.1837 H   0  0  0  0  0  0  0  0  0  0  0  0
   -1.0249    1.3636   -0.2905 H   0  0  0  0  0  0  0  0  0  0  0  0
   -4.1905    1.5346    0.9219 H   0  0  0  0  0  0  0  0  0  0  0  0
   -2.5490   -0.1529   -0.9464 H   0  0  0  0  0  0  0  0  0  0  0  0
   -5.7968    1.1991   -0.7431 H   0  0  0  0  0  0  0  0  0  0  0  0
   -5.4361    2.8571   -0.2672 H   0  0  0  0  0  0  0  0  0  0  0  0
   -4.9865    4.5871   -2.0478 H   0  0  0  0  0  0  0  0  0  0  0  0
   -4.9359    4.6970   -4.5926 H   0  0  0  0  0  0  0  0  0  0  0  0
   -4.9328   -0.3985   -2.8103 H   0  0  0  0  0  0  0  0  0  0  0  0
   -4.8654   -1.2168   -5.2007 H   0  0  0  0  0  0  0  0  0  0  0  0
   -4.8323    0.3660   -7.0731 H   0  0  0  0  0  0  0  0  0  0  0  0
   -4.8769    2.7918   -6.6602 H   0  0  0  0  0  0  0  0  0  0  0  0
    0.1634    6.0461   -0.1006 H   0  0  0  0  0  0  0  0  0  0  0  0
   -1.0180    6.3877    2.6618 H   0  0  0  0  0  0  0  0  0  0  0  0
   -0.7818    9.7351    2.0812 H   0  0  0  0  0  0  0  0  0  0  0  0
   -2.5282    9.3604    2.2741 H   0  0  0  0  0  0  0  0  0  0  0  0
    0.8217    8.1397    2.8212 H   0  0  0  0  0  0  0  0  0  0  0  0
    2.1286    7.1556    0.6380 H   0  0  0  0  0  0  0  0  0  0  0  0
    2.6031    5.9730    1.9646 H   0  0  0  0  0  0  0  0  0  0  0  0
    1.1852    5.2674    2.8049 H   0  0  0  0  0  0  0  0  0  0  0  0
    2.1764    6.4540    3.6366 H   0  0  0  0  0  0  0  0  0  0  0  0
    5.4452   -0.2111    0.1451 H   0  0  0  0  0  0  0  0  0  0  0  0
    5.5252    1.6425    3.2117 H   0  0  0  0  0  0  0  0  0  0  0  0
    7.2732    3.1317    2.5661 H   0  0  0  0  0  0  0  0  0  0  0  0
    5.6592    3.7369    2.0879 H   0  0  0  0  0  0  0  0  0  0  0  0
    8.8631    2.3115    1.0167 H   0  0  0  0  0  0  0  0  0  0  0  0
    9.7990    2.3908   -1.2148 H   0  0  0  0  0  0  0  0  0  0  0  0
    8.3669    3.2377   -3.1005 H   0  0  0  0  0  0  0  0  0  0  0  0
    6.0079    3.9447   -2.6407 H   0  0  0  0  0  0  0  0  0  0  0  0
    5.1303    3.8620   -0.4011 H   0  0  0  0  0  0  0  0  0  0  0  0
    7.5400    0.7709    2.7990 H   0  0  0  0  0  0  0  0  0  0  0  0
    6.3589   -0.2999    2.1038 H   0  0  0  0  0  0  0  0  0  0  0  0
   -6.0251   -4.6883    7.4066 H   0  0  0  0  0  0  0  0  0  0  0  0
   -4.7658   -5.9183    7.1464 H   0  0  0  0  0  0  0  0  0  0  0  0
  1  2  1  0
  2  3  2  3
  3  4  1  0
  4  5  1  0
  5  6  1  0
  6  7  1  0
  7  8  1  0
  8  9  1  0
  9 10  2  0
  9 11  1  0
 11 12  1  0
 12 13  1  0
 13 14  2  0
 14 15  1  0
 15 16  2  0
 16 17  1  0
 17 18  2  0
 11 19  1  0
 19 20  1  0
 20 21  2  0
 20 22  1  0
 22 23  1  0
 23 24  1  0
 24 25  1  0
 25 26  1  0
 26 27  2  0
 27 28  1  0
 22 29  1  0
 29 30  1  0
 30 31  2  0
 30 32  1  0
 32 33  1  0
 33 34  1  0
 34 35  1  0
 35 36  1  0
 36 37  1  0
 37 38  1  0
 38 39  1  0
 39 40  2  0
 39 41  1  0
 41 42  1  0
 42 43  1  0
 43 44  2  0
 41 45  1  0
 45 46  1  0
 46 47  2  0
 47 48  1  0
 48 49  1  0
 49 50  2  0
 50 51  1  0
 51 52  2  0
 52 53  1  0
 53 54  2  0
 37 55  1  0
 55 56  2  0
 55 57  1  0
 57 58  1  0
 58 59  1  0
 59 60  2  0
 59 61  1  0
 58 62  1  0
 62 63  1  0
 62 64  1  0
 32 65  1  0
 65 66  1  0
 66 67  2  0
 66 68  1  0
 68 69  1  0
 69 70  1  0
 70 71  2  0
 71 72  1  0
 72 73  2  0
 73 74  1  0
 74 75  2  0
 68 76  1  0
  2 77  1  0
 43  7  1  0
 50 46  1  0
 75 70  1  0
 18 13  1  0
 28 24  2  0
 54 49  1  0
  1 78  1  0
  1 79  1  0
  4 80  1  0
  4 81  1  0
  5 82  1  0
  5 83  1  0
  6 84  1  0
  6 85  1  0
  7 86  1  6
  8 87  1  0
 11 88  1  1
 12 89  1  0
 12 90  1  0
 14 91  1  0
 15 92  1  0
 16 93  1  0
 17 94  1  0
 18 95  1  0
 19 96  1  0
 22 97  1  6
 23 98  1  0
 23 99  1  0
 25100  1  0
 26101  1  0
 28102  1  0
 29103  1  0
 32104  1  1
 33105  1  0
 33106  1  0
 36107  1  0
 36108  1  0
 37109  1  6
 38110  1  0
 41111  1  1
 42112  1  0
 45113  1  0
 45114  1  0
 47115  1  0
 48116  1  0
 51117  1  0
 52118  1  0
 53119  1  0
 54120  1  0
 57121  1  0
 58122  1  1
 61123  1  0
 61124  1  0
 62125  1  1
 63126  1  0
 64127  1  0
 64128  1  0
 64129  1  0
 65130  1  0
 68131  1  1
 69132  1  0
 69133  1  0
 71134  1  0
 72135  1  0
 73136  1  0
 74137  1  0
 75138  1  0
 76139  1  0
 76140  1  0
 77141  1  0
 77142  1  0
M  END
>  <Ligand ID>  (1) 
LIG0002189

>  <Ligand>  (1) 
CHEMBL407845

>  <SMILES>  (1) 
NC(=NCCC[C@@H]1NC(=O)[C@@H](Cc2ccccc2)NC(=O)[C@H](Cc2[nH]cnc2)NC(=O)[C@H](CSSC[C@@H](NC(=O)[C@H](NC1=O)Cc1c[nH]c2c1cccc2)C(=O)N[C@H](C(=O)N)[C@H](O)C)NC(=O)[C@H](Cc1ccccc1)N)N

>  <CID>  (1) 
44285236.0

>  <ChEMBL ID>  (1) 
nan

>  <InChiKey>  (1) 
HGUGDVPBNFFDAR-LGWFJKSVSA-N

>  <InChi>  (1) 
InChI=1S/C51H65N15O9S2/c1-28(67)42(43(53)68)66-50(75)41-26-77-76-25-40(64-44(69)34(52)19-29-11-4-2-5-12-29)49(74)63-39(22-32-24-56-27-59-32)48(73)61-37(20-30-13-6-3-7-14-30)46(71)60-36(17-10-18-57-51(54)55)45(70)62-38(47(72)65-41)21-31-23-58-35-16-9-8-15-33(31)35/h2-9,11-16,23-24,27-28,34,36-42,58,67H,10,17-22,25-26,52H2,1H3,(H2,53,68)(H,56,59)(H,60,71)(H,61,73)(H,62,70)(H,63,74)(H,64,69)(H,65,72)(H,66,75)(H4,54,55,57)/t28-,34+,36+,37-,38-,39+,40+,41-,42+/m1/s1

>  <IUPAC Name>  (1) 
(4S,7R,10S,13R,16S,19R)-N-[(2S,3R)-1-amino-3-hydroxy-1-oxobutan-2-yl]-19-[[(2S)-2-amino-3-phenylpropanoyl]amino]-13-benzyl-10-[3-(diaminomethylideneamino)propyl]-16-(1H-imidazol-5-ylmethyl)-7-(1H-indol-3-ylmethyl)-6,9,12,15,18-pentaoxo-1,2-dithia-5,8,11,14,17-pentazacycloicosane-4-carboxamide

$$$$
