
     RDKit          3D

 61 65  0  0  0  0  0  0  0  0999 V2000
    8.6888    1.8273    1.8944 O   0  0  0  0  0  0  0  0  0  0  0  0
    7.4089    1.5565    1.4318 C   0  0  0  0  0  0  0  0  0  0  0  0
    6.4470    1.8064    2.1862 O   0  0  0  0  0  0  0  0  0  0  0  0
    7.2902    0.9879    0.0676 C   0  0  0  0  0  0  0  0  0  0  0  0
    5.9909    0.6979   -0.3314 O   0  0  0  0  0  0  0  0  0  0  0  0
    5.1578   -0.2031    0.2881 C   0  0  0  0  0  0  0  0  0  0  0  0
    5.4895   -0.9575    1.3875 C   0  0  0  0  0  0  0  0  0  0  0  0
    4.6239   -1.8570    1.9854 C   0  0  0  0  0  0  0  0  0  0  0  0
    3.3536   -2.0378    1.4854 C   0  0  0  0  0  0  0  0  0  0  0  0
    3.0039   -1.2813    0.3726 C   0  0  0  0  0  0  0  0  0  0  0  0
    3.8638   -0.3954   -0.2118 C   0  0  0  0  0  0  0  0  0  0  0  0
    3.4755    0.3983   -1.3921 C   0  0  0  0  0  0  0  0  0  0  0  0
    2.0179    0.2725   -1.7275 C   0  0  0  0  0  0  0  0  0  0  0  0
    1.6534   -1.1746   -1.5990 C   0  0  0  0  0  0  0  0  0  0  0  0
    1.6050   -1.5151   -0.1363 C   0  0  0  0  0  0  0  0  0  0  0  0
    0.4286   -1.5621   -2.3693 C   0  0  0  0  0  0  0  0  0  0  0  0
   -0.7474   -0.8360   -1.9584 N   0  0  0  0  0  0  0  0  0  0  0  0
   -0.9837    0.3164   -2.6059 N   0  0  0  0  0  0  0  0  0  0  0  0
   -2.0541    1.0737   -2.3014 C   0  0  0  0  0  0  0  0  0  0  0  0
   -2.9400    0.6889   -1.3157 C   0  0  0  0  0  0  0  0  0  0  0  0
   -2.6960   -0.5040   -0.6450 C   0  0  0  0  0  0  0  0  0  0  0  0
   -1.5862   -1.2481   -0.9905 C   0  0  0  0  0  0  0  0  0  0  0  0
   -1.3542   -2.3236   -0.3956 O   0  0  0  0  0  0  0  0  0  0  0  0
   -3.6343   -0.9091    0.3974 C   0  0  0  0  0  0  0  0  0  0  0  0
   -3.2703   -1.0787    1.7159 C   0  0  0  0  0  0  0  0  0  0  0  0
   -4.2432   -1.4629    2.6097 C   0  0  0  0  0  0  0  0  0  0  0  0
   -5.5667   -1.6818    2.2228 C   0  0  0  0  0  0  0  0  0  0  0  0
   -5.9158   -1.5101    0.9106 C   0  0  0  0  0  0  0  0  0  0  0  0
   -4.9471   -1.1248    0.0064 C   0  0  0  0  0  0  0  0  0  0  0  0
   -4.0898    1.5350   -1.0123 C   0  0  0  0  0  0  0  0  0  0  0  0
   -4.1847    2.0947    0.2664 C   0  0  0  0  0  0  0  0  0  0  0  0
   -5.2565    2.8984    0.5880 C   0  0  0  0  0  0  0  0  0  0  0  0
   -6.2433    3.1518   -0.3612 C   0  0  0  0  0  0  0  0  0  0  0  0
   -6.1551    2.6025   -1.6242 C   0  0  0  0  0  0  0  0  0  0  0  0
   -5.0767    1.7939   -1.9475 C   0  0  0  0  0  0  0  0  0  0  0  0
   -7.1242    2.8601   -2.5337 F   0  0  0  0  0  0  0  0  0  0  0  0
    8.8965    2.5559    2.5741 H   0  0  0  0  0  0  0  0  0  0  0  0
    7.7252    1.7687   -0.6147 H   0  0  0  0  0  0  0  0  0  0  0  0
    7.9580    0.0825    0.0689 H   0  0  0  0  0  0  0  0  0  0  0  0
    6.4684   -0.8746    1.8280 H   0  0  0  0  0  0  0  0  0  0  0  0
    4.9342   -2.4281    2.8517 H   0  0  0  0  0  0  0  0  0  0  0  0
    2.7031   -2.7331    1.9582 H   0  0  0  0  0  0  0  0  0  0  0  0
    3.7163    1.4708   -1.2969 H   0  0  0  0  0  0  0  0  0  0  0  0
    4.0374    0.0294   -2.2930 H   0  0  0  0  0  0  0  0  0  0  0  0
    1.4304    0.8339   -0.9675 H   0  0  0  0  0  0  0  0  0  0  0  0
    1.8135    0.6739   -2.7308 H   0  0  0  0  0  0  0  0  0  0  0  0
    2.5195   -1.7473   -2.0183 H   0  0  0  0  0  0  0  0  0  0  0  0
    1.3606   -2.6086   -0.0818 H   0  0  0  0  0  0  0  0  0  0  0  0
    0.9468   -0.8893    0.4704 H   0  0  0  0  0  0  0  0  0  0  0  0
    0.2201   -2.6343   -2.0856 H   0  0  0  0  0  0  0  0  0  0  0  0
    0.6276   -1.5751   -3.4384 H   0  0  0  0  0  0  0  0  0  0  0  0
   -2.2373    2.0077   -2.8328 H   0  0  0  0  0  0  0  0  0  0  0  0
   -2.2466   -0.9089    2.0126 H   0  0  0  0  0  0  0  0  0  0  0  0
   -4.0159   -1.6127    3.6642 H   0  0  0  0  0  0  0  0  0  0  0  0
   -6.3069   -1.9834    2.9519 H   0  0  0  0  0  0  0  0  0  0  0  0
   -6.9484   -1.6837    0.6232 H   0  0  0  0  0  0  0  0  0  0  0  0
   -5.2611   -0.9973   -1.0318 H   0  0  0  0  0  0  0  0  0  0  0  0
   -3.4226    1.8971    0.9946 H   0  0  0  0  0  0  0  0  0  0  0  0
   -5.3056    3.3190    1.5845 H   0  0  0  0  0  0  0  0  0  0  0  0
   -7.0599    3.7893   -0.0519 H   0  0  0  0  0  0  0  0  0  0  0  0
   -4.9823    1.3490   -2.9332 H   0  0  0  0  0  0  0  0  0  0  0  0
  1  2  1  0
  2  3  2  0
  2  4  1  0
  4  5  1  0
  5  6  1  0
  6  7  2  0
  7  8  1  0
  8  9  2  0
  9 10  1  0
 10 11  2  0
 11 12  1  0
 12 13  1  0
 13 14  1  0
 14 15  1  0
 14 16  1  0
 16 17  1  0
 17 18  1  0
 18 19  2  0
 19 20  1  0
 20 21  2  0
 21 22  1  0
 22 23  2  0
 21 24  1  0
 24 25  2  0
 25 26  1  0
 26 27  2  0
 27 28  1  0
 28 29  2  0
 20 30  1  0
 30 31  2  0
 31 32  1  0
 32 33  2  0
 33 34  1  0
 34 35  2  0
 34 36  1  0
 11  6  1  0
 22 17  1  0
 29 24  1  0
 35 30  1  0
 15 10  1  0
  1 37  1  0
  4 38  1  0
  4 39  1  0
  7 40  1  0
  8 41  1  0
  9 42  1  0
 12 43  1  0
 12 44  1  0
 13 45  1  0
 13 46  1  0
 14 47  1  0
 15 48  1  0
 15 49  1  0
 16 50  1  0
 16 51  1  0
 19 52  1  0
 25 53  1  0
 26 54  1  0
 27 55  1  0
 28 56  1  0
 29 57  1  0
 31 58  1  0
 32 59  1  0
 33 60  1  0
 35 61  1  0
M  END
>  <Ligand ID>  (1) 
LIG0003013

>  <Ligand>  (1) 
CHEMBL3398224

>  <SMILES>  (1) 
OC(=O)COc1cccc2c1CCC(C2)Cn1ncc(c(c1=O)c1ccccc1)c1cccc(c1)F

>  <CID>  (1) 
118727303.0

>  <ChEMBL ID>  (1) 
nan

>  <InChiKey>  (1) 
JYRBQGHUNILISR-UHFFFAOYSA-N

>  <InChi>  (1) 
InChI=1S/C29H25FN2O4/c30-23-10-4-8-22(15-23)25-16-31-32(29(35)28(25)20-6-2-1-3-7-20)17-19-12-13-24-21(14-19)9-5-11-26(24)36-18-27(33)34/h1-11,15-16,19H,12-14,17-18H2,(H,33,34)

>  <IUPAC Name>  (1) 
2-[[6-[[4-(3-fluorophenyl)-6-oxo-5-phenylpyridazin-1-yl]methyl]-5,6,7,8-tetrahydronaphthalen-1-yl]oxy]acetic acid

$$$$
