
     RDKit          3D

 55 59  0  0  0  0  0  0  0  0999 V2000
    2.7768    0.3380   -2.8074 O   0  0  0  0  0  0  0  0  0  0  0  0
    3.5311    0.2179   -1.8145 C   0  0  0  0  0  0  0  0  0  0  0  0
    5.0125    0.2318   -1.9040 C   0  0  0  0  0  0  0  0  0  0  0  0
    5.4093    0.0585   -0.4847 C   0  0  0  0  0  0  0  0  0  0  0  0
    4.2957   -0.0427    0.3239 C   0  0  0  0  0  0  0  0  0  0  0  0
    3.1104    0.0516   -0.4638 N   0  0  0  0  0  0  0  0  0  0  0  0
    1.7241   -0.0035   -0.0352 C   0  0  0  0  0  0  0  0  0  0  0  0
    1.0010    1.2939   -0.3109 C   0  0  0  0  0  0  0  0  0  0  0  0
   -0.4261    1.1212    0.1849 C   0  0  0  0  0  0  0  0  0  0  0  0
   -1.0465    0.1784   -0.6107 N   0  0  0  0  0  0  0  0  0  0  0  0
   -0.2206   -0.5598   -1.5138 C   0  0  0  0  0  0  0  0  0  0  0  0
    0.9635   -1.1011   -0.7395 C   0  0  0  0  0  0  0  0  0  0  0  0
   -2.3887   -0.2063   -0.4941 C   0  0  0  0  0  0  0  0  0  0  0  0
   -3.4436    0.8407   -0.6722 C   0  0  0  0  0  0  0  0  0  0  0  0
   -4.7161    0.1585   -1.0801 C   0  0  0  0  0  0  0  0  0  0  0  0
   -4.8811   -1.2558   -0.7422 C   0  0  0  0  0  0  0  0  0  0  0  0
   -3.9599   -1.9045    0.2248 C   0  0  0  0  0  0  0  0  0  0  0  0
   -2.7859   -1.0514    0.6669 C   0  0  0  0  0  0  0  0  0  0  0  0
   -3.2037   -0.3303    1.9007 C   0  0  0  0  0  0  0  0  0  0  0  0
   -3.3257    1.1423    1.8374 C   0  0  0  0  0  0  0  0  0  0  0  0
   -3.6822    1.7224    0.5006 C   0  0  0  0  0  0  0  0  0  0  0  0
    4.4827   -0.2098    1.6904 C   0  0  0  0  0  0  0  0  0  0  0  0
    5.7470   -0.2750    2.2417 C   0  0  0  0  0  0  0  0  0  0  0  0
    6.8443   -0.1702    1.4038 C   0  0  0  0  0  0  0  0  0  0  0  0
    6.7039   -0.0033    0.0396 C   0  0  0  0  0  0  0  0  0  0  0  0
    5.4047   -0.5785   -2.5407 H   0  0  0  0  0  0  0  0  0  0  0  0
    5.3317    1.2180   -2.3071 H   0  0  0  0  0  0  0  0  0  0  0  0
    1.7168   -0.1389    1.0692 H   0  0  0  0  0  0  0  0  0  0  0  0
    1.5095    2.1315    0.2454 H   0  0  0  0  0  0  0  0  0  0  0  0
    1.0506    1.6088   -1.3721 H   0  0  0  0  0  0  0  0  0  0  0  0
   -0.8276    2.1673    0.1807 H   0  0  0  0  0  0  0  0  0  0  0  0
   -0.3199    0.8576    1.2755 H   0  0  0  0  0  0  0  0  0  0  0  0
   -0.8121   -1.4374   -1.8554 H   0  0  0  0  0  0  0  0  0  0  0  0
    0.0618    0.1133   -2.3471 H   0  0  0  0  0  0  0  0  0  0  0  0
    1.6129   -1.7611   -1.3483 H   0  0  0  0  0  0  0  0  0  0  0  0
    0.5301   -1.7584    0.0435 H   0  0  0  0  0  0  0  0  0  0  0  0
   -2.5289   -0.8409   -1.4079 H   0  0  0  0  0  0  0  0  0  0  0  0
   -3.0518    1.5161   -1.4799 H   0  0  0  0  0  0  0  0  0  0  0  0
   -4.8056    0.2881   -2.1891 H   0  0  0  0  0  0  0  0  0  0  0  0
   -5.5682    0.7985   -0.7015 H   0  0  0  0  0  0  0  0  0  0  0  0
   -4.9217   -1.9007   -1.6626 H   0  0  0  0  0  0  0  0  0  0  0  0
   -5.9267   -1.3957   -0.3294 H   0  0  0  0  0  0  0  0  0  0  0  0
   -3.5273   -2.8659   -0.1791 H   0  0  0  0  0  0  0  0  0  0  0  0
   -4.4762   -2.2534    1.1680 H   0  0  0  0  0  0  0  0  0  0  0  0
   -1.8967   -1.7183    0.8701 H   0  0  0  0  0  0  0  0  0  0  0  0
   -2.4769   -0.5868    2.7289 H   0  0  0  0  0  0  0  0  0  0  0  0
   -4.1685   -0.7371    2.3316 H   0  0  0  0  0  0  0  0  0  0  0  0
   -2.3895    1.6155    2.2604 H   0  0  0  0  0  0  0  0  0  0  0  0
   -4.1011    1.5044    2.5497 H   0  0  0  0  0  0  0  0  0  0  0  0
   -3.1510    2.7171    0.4256 H   0  0  0  0  0  0  0  0  0  0  0  0
   -4.7577    2.0267    0.4572 H   0  0  0  0  0  0  0  0  0  0  0  0
    3.6191   -0.2914    2.3434 H   0  0  0  0  0  0  0  0  0  0  0  0
    5.9195   -0.4044    3.3000 H   0  0  0  0  0  0  0  0  0  0  0  0
    7.8648   -0.2143    1.7791 H   0  0  0  0  0  0  0  0  0  0  0  0
    7.5634    0.0788   -0.6171 H   0  0  0  0  0  0  0  0  0  0  0  0
  1  2  2  0
  2  3  1  0
  3  4  1  0
  4  5  2  0
  5  6  1  0
  6  7  1  0
  7  8  1  0
  8  9  1  0
  9 10  1  0
 10 11  1  0
 11 12  1  0
 10 13  1  0
 13 14  1  0
 14 15  1  0
 15 16  1  0
 16 17  1  0
 17 18  1  0
 18 19  1  0
 19 20  1  0
 20 21  1  0
  5 22  1  0
 22 23  2  0
 23 24  1  0
 24 25  2  0
  6  2  1  0
 12  7  1  0
 18 13  1  0
 25  4  1  0
 21 14  1  0
  3 26  1  0
  3 27  1  0
  7 28  1  0
  8 29  1  0
  8 30  1  0
  9 31  1  0
  9 32  1  0
 11 33  1  0
 11 34  1  0
 12 35  1  0
 12 36  1  0
 13 37  1  0
 14 38  1  0
 15 39  1  0
 15 40  1  0
 16 41  1  0
 16 42  1  0
 17 43  1  0
 17 44  1  0
 18 45  1  0
 19 46  1  0
 19 47  1  0
 20 48  1  0
 20 49  1  0
 21 50  1  0
 21 51  1  0
 22 52  1  0
 23 53  1  0
 24 54  1  0
 25 55  1  0
M  END
>  <Ligand ID>  (1) 
LIG0003024

>  <Ligand>  (1) 
CHEMBL102900

>  <SMILES>  (1) 
O=C1Cc2c(N1C1CCN(CC1)C1C3CCCC1CCC3)cccc2

>  <CID>  (1) 
11461888.0

>  <ChEMBL ID>  (1) 
nan

>  <InChiKey>  (1) 
XVFXJQGBDPFCRF-UHFFFAOYSA-N

>  <InChi>  (1) 
InChI=1S/C22H30N2O/c25-21-15-18-5-1-2-10-20(18)24(21)19-11-13-23(14-12-19)22-16-6-3-7-17(22)9-4-8-16/h1-2,5,10,16-17,19,22H,3-4,6-9,11-15H2

>  <IUPAC Name>  (1) 
1-[1-(9-bicyclo[3.3.1]nonanyl)piperidin-4-yl]-3H-indol-2-one

$$$$
