
     RDKit          3D

 63 65  0  0  0  0  0  0  0  0999 V2000
    8.7373   -2.5492    2.3229 C   0  0  0  0  0  0  0  0  0  0  0  0
    8.7750   -1.1773    1.9109 O   0  0  0  0  0  0  0  0  0  0  0  0
    7.6525   -0.6048    1.3415 C   0  0  0  0  0  0  0  0  0  0  0  0
    6.5190   -1.3489    1.1762 C   0  0  0  0  0  0  0  0  0  0  0  0
    5.3788   -0.7706    0.5989 C   0  0  0  0  0  0  0  0  0  0  0  0
    5.3177    0.5252    0.1763 C   0  0  0  0  0  0  0  0  0  0  0  0
    6.5015    1.2683    0.3596 C   0  0  0  0  0  0  0  0  0  0  0  0
    7.6345    0.6977    0.9318 C   0  0  0  0  0  0  0  0  0  0  0  0
    6.6250    2.5927   -0.0074 O   0  0  0  0  0  0  0  0  0  0  0  0
    4.2208    1.2177   -0.4196 C   0  0  0  0  0  0  0  0  0  0  0  0
    4.5124    2.4785   -0.7032 O   0  0  0  0  0  0  0  0  0  0  0  0
    2.8881    0.8777   -0.7820 C   0  0  0  0  0  0  0  0  0  0  0  0
    2.1900   -0.2152   -0.6936 C   0  0  0  0  0  0  0  0  0  0  0  0
    0.8339   -0.4977   -1.0812 C   0  0  0  0  0  0  0  0  0  0  0  0
    0.4996   -1.7580   -0.8204 O   0  0  0  0  0  0  0  0  0  0  0  0
   -0.1912    0.2306   -1.6561 N   0  0  0  0  0  0  0  0  0  0  0  0
   -0.2796    1.5869   -2.0824 C   0  0  0  0  0  0  0  0  0  0  0  0
   -0.8363    2.5513   -1.1294 C   0  0  0  0  0  0  0  0  0  0  0  0
   -2.2129    2.8429   -1.1632 C   0  0  0  0  0  0  0  0  0  0  0  0
   -2.8092    3.7227   -0.3170 C   0  0  0  0  0  0  0  0  0  0  0  0
   -2.0923    4.3832    0.6285 C   0  0  0  0  0  0  0  0  0  0  0  0
   -0.7395    4.1380    0.7090 C   0  0  0  0  0  0  0  0  0  0  0  0
   -0.1289    3.2304   -0.1650 C   0  0  0  0  0  0  0  0  0  0  0  0
   -1.4562   -0.5511   -1.8897 C   0  0  0  0  0  0  0  0  0  0  0  0
   -2.3171   -0.5190   -0.6875 C   0  0  0  0  0  0  0  0  0  0  0  0
   -2.0273    0.0639    0.3844 O   0  0  0  0  0  0  0  0  0  0  0  0
   -3.5614   -1.1991   -0.7567 N   0  0  0  0  0  0  0  0  0  0  0  0
   -4.4792   -1.2294    0.3660 C   0  0  0  0  0  0  0  0  0  0  0  0
   -5.7512   -0.5473   -0.0980 C   0  0  0  0  0  0  0  0  0  0  0  0
   -6.7409   -1.5642   -0.6315 C   0  0  0  0  0  0  0  0  0  0  0  0
   -7.2355   -2.3617    0.5545 C   0  0  0  0  0  0  0  0  0  0  0  0
   -6.0904   -2.8914    1.3354 C   0  0  0  0  0  0  0  0  0  0  0  0
   -4.7294   -2.6741    0.7290 C   0  0  0  0  0  0  0  0  0  0  0  0
    8.4086   -3.1353    1.4443 H   0  0  0  0  0  0  0  0  0  0  0  0
    9.6892   -2.8781    2.7375 H   0  0  0  0  0  0  0  0  0  0  0  0
    7.9378   -2.6072    3.0978 H   0  0  0  0  0  0  0  0  0  0  0  0
    6.5202   -2.3785    1.4954 H   0  0  0  0  0  0  0  0  0  0  0  0
    4.5577   -1.4148    0.5122 H   0  0  0  0  0  0  0  0  0  0  0  0
    8.5415    1.2735    1.0699 H   0  0  0  0  0  0  0  0  0  0  0  0
    6.9713    2.7994   -0.9299 H   0  0  0  0  0  0  0  0  0  0  0  0
    2.3126    1.7213   -1.2429 H   0  0  0  0  0  0  0  0  0  0  0  0
    2.7287   -1.0611   -0.2492 H   0  0  0  0  0  0  0  0  0  0  0  0
    0.6431    1.9980   -2.5194 H   0  0  0  0  0  0  0  0  0  0  0  0
   -1.0556    1.5544   -2.9549 H   0  0  0  0  0  0  0  0  0  0  0  0
   -2.8412    2.3398   -1.9054 H   0  0  0  0  0  0  0  0  0  0  0  0
   -3.8898    3.8997   -0.4026 H   0  0  0  0  0  0  0  0  0  0  0  0
   -2.5561    5.0830    1.3042 H   0  0  0  0  0  0  0  0  0  0  0  0
   -0.1512    4.6511    1.4524 H   0  0  0  0  0  0  0  0  0  0  0  0
    0.9122    3.0959   -0.0414 H   0  0  0  0  0  0  0  0  0  0  0  0
   -1.9577   -0.1645   -2.7956 H   0  0  0  0  0  0  0  0  0  0  0  0
   -1.1574   -1.5906   -2.1173 H   0  0  0  0  0  0  0  0  0  0  0  0
   -3.8615   -1.7085   -1.6328 H   0  0  0  0  0  0  0  0  0  0  0  0
   -4.0071   -0.6534    1.1874 H   0  0  0  0  0  0  0  0  0  0  0  0
   -5.5777    0.2297   -0.8634 H   0  0  0  0  0  0  0  0  0  0  0  0
   -6.2346   -0.0681    0.7718 H   0  0  0  0  0  0  0  0  0  0  0  0
   -6.3301   -2.2564   -1.3663 H   0  0  0  0  0  0  0  0  0  0  0  0
   -7.5944   -0.9960   -1.0528 H   0  0  0  0  0  0  0  0  0  0  0  0
   -7.9060   -3.2013    0.2001 H   0  0  0  0  0  0  0  0  0  0  0  0
   -7.8451   -1.6928    1.2167 H   0  0  0  0  0  0  0  0  0  0  0  0
   -6.2035   -4.0145    1.3958 H   0  0  0  0  0  0  0  0  0  0  0  0
   -6.1497   -2.5543    2.3797 H   0  0  0  0  0  0  0  0  0  0  0  0
   -4.5338   -3.2987   -0.1406 H   0  0  0  0  0  0  0  0  0  0  0  0
   -3.9780   -2.9201    1.5082 H   0  0  0  0  0  0  0  0  0  0  0  0
  1  2  1  0
  2  3  1  0
  3  4  2  0
  4  5  1  0
  5  6  2  0
  6  7  1  0
  7  8  2  0
  7  9  1  0
  6 10  1  0
 10 11  2  0
 10 12  1  0
 12 13  2  0
 13 14  1  0
 14 15  2  0
 14 16  1  0
 16 17  1  0
 17 18  1  0
 18 19  2  0
 19 20  1  0
 20 21  2  0
 21 22  1  0
 22 23  2  0
 16 24  1  0
 24 25  1  0
 25 26  2  0
 25 27  1  0
 27 28  1  0
 28 29  1  0
 29 30  1  0
 30 31  1  0
 31 32  1  0
 32 33  1  0
  8  3  1  0
 23 18  1  0
 33 28  1  0
  1 34  1  0
  1 35  1  0
  1 36  1  0
  4 37  1  0
  5 38  1  0
  8 39  1  0
  9 40  1  0
 12 41  1  0
 13 42  1  0
 17 43  1  0
 17 44  1  0
 19 45  1  0
 20 46  1  0
 21 47  1  0
 22 48  1  0
 23 49  1  0
 24 50  1  0
 24 51  1  0
 27 52  1  0
 28 53  1  0
 29 54  1  0
 29 55  1  0
 30 56  1  0
 30 57  1  0
 31 58  1  0
 31 59  1  0
 32 60  1  0
 32 61  1  0
 33 62  1  0
 33 63  1  0
M  END
>  <Ligand ID>  (1) 
LIG0004782

>  <Ligand>  (1) 
MLS000714569

>  <SMILES>  (1) 
COc1ccc(c(c1)O)C(=O)/C=C/C(=O)N(Cc1ccccc1)CC(=O)NC1CCCCC1

>  <CID>  (1) 
5770963.0

>  <ChEMBL ID>  (1) 
nan

>  <InChiKey>  (1) 
YYCNMRGMZROVGP-CCEZHUSRSA-N

>  <InChi>  (1) 
InChI=1S/C26H30N2O5/c1-33-21-12-13-22(24(30)16-21)23(29)14-15-26(32)28(17-19-8-4-2-5-9-19)18-25(31)27-20-10-6-3-7-11-20/h2,4-5,8-9,12-16,20,30H,3,6-7,10-11,17-18H2,1H3,(H,27,31)/b15-14+

>  <IUPAC Name>  (1) 
(E)-N-benzyl-N-[2-(cyclohexylamino)-2-oxoethyl]-4-(2-hydroxy-4-methoxyphenyl)-4-oxobut-2-enamide

$$$$
