
     RDKit          3D

 30 32  0  0  0  0  0  0  0  0999 V2000
    3.3558   -1.9833   -0.3385 C   0  0  0  0  0  0  0  0  0  0  0  0
    2.0932   -1.4414   -0.0572 O   0  0  0  0  0  0  0  0  0  0  0  0
    1.8408   -0.0948   -0.1246 C   0  0  0  0  0  0  0  0  0  0  0  0
    2.8096    0.8453   -0.4759 C   0  0  0  0  0  0  0  0  0  0  0  0
    2.5216    2.1844   -0.5331 C   0  0  0  0  0  0  0  0  0  0  0  0
    1.2645    2.6553   -0.2464 C   0  0  0  0  0  0  0  0  0  0  0  0
    0.2882    1.7558    0.1026 C   0  0  0  0  0  0  0  0  0  0  0  0
    0.5886    0.4088    0.1578 C   0  0  0  0  0  0  0  0  0  0  0  0
   -0.6306   -0.3269    0.5686 C   0  0  2  0  0  0  0  0  0  0  0  0
   -1.0465   -1.4195   -0.3491 C   0  0  0  0  0  0  0  0  0  0  0  0
   -2.4349   -1.6685   -0.4634 N   0  0  0  0  0  0  0  0  0  0  0  0
   -3.3669   -0.6863   -0.1006 C   0  0  0  0  0  0  0  0  0  0  0  0
   -2.9902    0.1970    1.0656 C   0  0  0  0  0  0  0  0  0  0  0  0
   -1.6692    0.7047    0.7058 N   0  0  0  0  0  0  0  0  0  0  0  0
   -1.1132    1.9845    0.4394 C   0  0  0  0  0  0  0  0  0  0  0  0
   -1.7450    3.0718    0.4958 O   0  0  0  0  0  0  0  0  0  0  0  0
    0.8989    4.3670   -0.3202 Cl  0  0  0  0  0  0  0  0  0  0  0  0
    3.5339   -2.1492   -1.4297 H   0  0  0  0  0  0  0  0  0  0  0  0
    4.1755   -1.3455    0.0682 H   0  0  0  0  0  0  0  0  0  0  0  0
    3.4082   -2.9903    0.1467 H   0  0  0  0  0  0  0  0  0  0  0  0
    3.8187    0.5122   -0.7107 H   0  0  0  0  0  0  0  0  0  0  0  0
    3.3003    2.8797   -0.8092 H   0  0  0  0  0  0  0  0  0  0  0  0
   -0.4384   -0.6918    1.6057 H   0  0  0  0  0  0  0  0  0  0  0  0
   -0.6458   -1.1911   -1.3626 H   0  0  0  0  0  0  0  0  0  0  0  0
   -0.5419   -2.3541   -0.0244 H   0  0  0  0  0  0  0  0  0  0  0  0
   -2.7569   -2.6280   -0.3010 H   0  0  0  0  0  0  0  0  0  0  0  0
   -3.5404    0.0039   -0.9645 H   0  0  0  0  0  0  0  0  0  0  0  0
   -4.3712   -1.1436    0.1129 H   0  0  0  0  0  0  0  0  0  0  0  0
   -3.7260    0.9854    1.1878 H   0  0  0  0  0  0  0  0  0  0  0  0
   -2.8807   -0.4417    1.9542 H   0  0  0  0  0  0  0  0  0  0  0  0
  1  2  1  0
  2  3  1  0
  3  4  2  0
  4  5  1  0
  5  6  2  0
  6  7  1  0
  7  8  2  0
  8  9  1  0
  9 10  1  0
 10 11  1  0
 11 12  1  0
 12 13  1  0
 13 14  1  0
 14 15  1  0
 15 16  2  0
  6 17  1  0
  8  3  1  0
 14  9  1  0
 15  7  1  0
  1 18  1  0
  1 19  1  0
  1 20  1  0
  4 21  1  0
  5 22  1  0
  9 23  1  1
 10 24  1  0
 10 25  1  0
 11 26  1  0
 12 27  1  0
 12 28  1  0
 13 29  1  0
 13 30  1  0
M  END
>  <Ligand ID>  (1) 
LIG0004764

>  <Ligand>  (1) 
CHEMBL373531

>  <SMILES>  (1) 
COc1ccc(c2c1[C@@H]1CNCCN1C2=O)Cl

>  <CID>  (1) 
16115513.0

>  <ChEMBL ID>  (1) 
nan

>  <InChiKey>  (1) 
YRPQBHKMSHZJOE-QMMMGPOBSA-N

>  <InChi>  (1) 
InChI=1S/C12H13ClN2O2/c1-17-9-3-2-7(13)10-11(9)8-6-14-4-5-15(8)12(10)16/h2-3,8,14H,4-6H2,1H3/t8-/m0/s1

>  <IUPAC Name>  (1) 
(10bR)-7-chloro-10-methoxy-2,3,4,10b-tetrahydro-1H-pyrazino[1,2-b]isoindol-6-one

$$$$
