
     RDKit          3D

 19 20  0  0  0  0  0  0  0  0999 V2000
    3.1960    0.1544    0.0079 C   0  0  0  0  0  0  0  0  0  0  0  0
    1.7000    0.0979    0.0024 C   0  0  0  0  0  0  0  0  0  0  0  0
    0.9765   -1.0753    0.0461 C   0  0  0  0  0  0  0  0  0  0  0  0
   -0.3433   -0.6993    0.0241 C   0  0  0  0  0  0  0  0  0  0  0  0
   -0.3810    0.6964   -0.0326 C   0  0  0  0  0  0  0  0  0  0  0  0
    0.8805    1.1649   -0.0451 N   0  0  0  0  0  0  0  0  0  0  0  0
   -1.6255    1.3100   -0.0639 C   0  0  0  0  0  0  0  0  0  0  0  0
   -2.7709    0.5736   -0.0401 C   0  0  0  0  0  0  0  0  0  0  0  0
   -2.7478   -0.8054    0.0159 C   0  0  0  0  0  0  0  0  0  0  0  0
   -1.5087   -1.4405    0.0480 C   0  0  0  0  0  0  0  0  0  0  0  0
    3.5765    0.9567    0.6983 H   0  0  0  0  0  0  0  0  0  0  0  0
    3.6240   -0.7940    0.3976 H   0  0  0  0  0  0  0  0  0  0  0  0
    3.5466    0.2942   -1.0192 H   0  0  0  0  0  0  0  0  0  0  0  0
    1.3103   -2.1016    0.0894 H   0  0  0  0  0  0  0  0  0  0  0  0
    1.1818    2.1545   -0.0836 H   0  0  0  0  0  0  0  0  0  0  0  0
   -1.6820    2.3995   -0.1083 H   0  0  0  0  0  0  0  0  0  0  0  0
   -3.7512    1.0472   -0.0643 H   0  0  0  0  0  0  0  0  0  0  0  0
   -3.6584   -1.4117    0.0357 H   0  0  0  0  0  0  0  0  0  0  0  0
   -1.5233   -2.5216    0.0917 H   0  0  0  0  0  0  0  0  0  0  0  0
  1  2  1  0
  2  3  2  0
  3  4  1  0
  4  5  2  0
  5  6  1  0
  5  7  1  0
  7  8  2  0
  8  9  1  0
  9 10  2  0
  6  2  1  0
 10  4  1  0
  1 11  1  0
  1 12  1  0
  1 13  1  0
  3 14  1  0
  6 15  1  0
  7 16  1  0
  8 17  1  0
  9 18  1  0
 10 19  1  0
M  END
>  <Ligand ID>  (1) 
LIG0000332

>  <Ligand>  (1) 
2-Methylindole

>  <SMILES>  (1) 
Cc1cc2c([nH]1)cccc2

>  <CID>  (1) 
7224.0

>  <ChEMBL ID>  (1) 
nan

>  <InChiKey>  (1) 
BHNHHSOHWZKFOX-UHFFFAOYSA-N

>  <InChi>  (1) 
InChI=1S/C9H9N/c1-7-6-8-4-2-3-5-9(8)10-7/h2-6,10H,1H3

>  <IUPAC Name>  (1) 
2-methyl-1H-indole

$$$$
