
     RDKit          3D

 61 63  0  0  0  0  0  0  0  0999 V2000
   -2.2470   -2.3622    1.7365 C   0  0  0  0  0  0  0  0  0  0  0  0
   -2.1783   -1.0535    1.0082 C   0  0  2  0  0  0  0  0  0  0  0  0
   -3.0708   -1.2190   -0.2250 C   0  0  0  0  0  0  0  0  0  0  0  0
   -3.2126    0.0727   -0.8740 N   0  0  0  0  0  0  0  0  0  0  0  0
   -2.0916    0.9744   -0.7944 C   0  0  0  0  0  0  0  0  0  0  0  0
   -0.7926    0.2718   -0.5463 C   0  0  0  0  0  0  0  0  0  0  0  0
   -0.8642   -0.7447    0.4896 N   0  0  0  0  0  0  0  0  0  0  0  0
    0.3317   -1.3752    0.9314 C   0  0  0  0  0  0  0  0  0  0  0  0
    0.3371   -2.2270    1.9688 N   0  0  0  0  0  0  0  0  0  0  0  0
    1.4410   -2.8319    2.3916 C   0  0  0  0  0  0  0  0  0  0  0  0
    2.6358   -2.5850    1.7491 C   0  0  0  0  0  0  0  0  0  0  0  0
    2.6085   -1.7104    0.6902 C   0  0  0  0  0  0  0  0  0  0  0  0
    1.4795   -1.1129    0.2839 N   0  0  0  0  0  0  0  0  0  0  0  0
    3.7633   -3.2302    2.2119 O   0  0  0  0  0  0  0  0  0  0  0  0
    4.9987   -3.0162    1.6132 C   0  0  0  0  0  0  0  0  0  0  0  0
    5.4885   -1.6157    1.6733 C   0  0  0  0  0  0  0  0  0  0  0  0
    4.9293   -0.6445    2.4823 C   0  0  0  0  0  0  0  0  0  0  0  0
    5.4692    0.6482    2.4782 C   0  0  0  0  0  0  0  0  0  0  0  0
    6.5602    0.9622    1.6697 C   0  0  0  0  0  0  0  0  0  0  0  0
    7.0722   -0.0533    0.8849 C   0  0  0  0  0  0  0  0  0  0  0  0
    6.5574   -1.3022    0.8828 N   0  0  0  0  0  0  0  0  0  0  0  0
    7.2589    2.5655    1.6433 S   0  0  0  0  0  0  0  0  0  0  0  0
    8.7330    2.5607    1.4501 O   0  0  0  0  0  0  0  0  0  0  0  0
    6.9580    3.2124    2.9761 O   0  0  0  0  0  0  0  0  0  0  0  0
    6.4448    3.5774    0.4010 C   0  0  0  0  0  0  0  0  0  0  0  0
   -4.4307    0.3558   -1.5383 C   0  0  0  0  0  0  0  0  0  0  0  0
   -5.3041   -0.5771   -1.5131 O   0  0  0  0  0  0  0  0  0  0  0  0
   -4.7376    1.5193   -2.1874 O   0  0  0  0  0  0  0  0  0  0  0  0
   -5.9696    1.7616   -2.8419 C   0  0  0  0  0  0  0  0  0  0  0  0
   -6.2661    0.8123   -3.9554 C   0  0  0  0  0  0  0  0  0  0  0  0
   -7.0974    1.6062   -1.8077 C   0  0  0  0  0  0  0  0  0  0  0  0
   -5.9666    3.1659   -3.3562 C   0  0  0  0  0  0  0  0  0  0  0  0
   -1.8774   -2.3397    2.7698 H   0  0  0  0  0  0  0  0  0  0  0  0
   -1.6925   -3.1246    1.1753 H   0  0  0  0  0  0  0  0  0  0  0  0
   -3.3358   -2.6453    1.7874 H   0  0  0  0  0  0  0  0  0  0  0  0
   -2.6120   -0.2197    1.5975 H   0  0  0  0  0  0  0  0  0  0  0  0
   -2.7501   -2.0186   -0.8912 H   0  0  0  0  0  0  0  0  0  0  0  0
   -4.0502   -1.5595    0.2013 H   0  0  0  0  0  0  0  0  0  0  0  0
   -2.0084    1.4909   -1.7888 H   0  0  0  0  0  0  0  0  0  0  0  0
   -2.3188    1.7440   -0.0363 H   0  0  0  0  0  0  0  0  0  0  0  0
   -0.3494   -0.1094   -1.4860 H   0  0  0  0  0  0  0  0  0  0  0  0
   -0.0557    1.0318   -0.1508 H   0  0  0  0  0  0  0  0  0  0  0  0
    1.3691   -3.5179    3.2477 H   0  0  0  0  0  0  0  0  0  0  0  0
    3.5121   -1.4879    0.1506 H   0  0  0  0  0  0  0  0  0  0  0  0
    5.7554   -3.7162    2.0296 H   0  0  0  0  0  0  0  0  0  0  0  0
    4.9857   -3.2640    0.5086 H   0  0  0  0  0  0  0  0  0  0  0  0
    4.0886   -0.8940    3.1029 H   0  0  0  0  0  0  0  0  0  0  0  0
    5.0452    1.4326    3.1080 H   0  0  0  0  0  0  0  0  0  0  0  0
    7.9254    0.1154    0.2270 H   0  0  0  0  0  0  0  0  0  0  0  0
    5.3669    3.6307    0.6706 H   0  0  0  0  0  0  0  0  0  0  0  0
    6.8430    4.5913    0.3910 H   0  0  0  0  0  0  0  0  0  0  0  0
    6.4781    3.0727   -0.5957 H   0  0  0  0  0  0  0  0  0  0  0  0
   -6.9831    1.2944   -4.6630 H   0  0  0  0  0  0  0  0  0  0  0  0
   -6.8174   -0.0807   -3.5654 H   0  0  0  0  0  0  0  0  0  0  0  0
   -5.3756    0.5465   -4.5477 H   0  0  0  0  0  0  0  0  0  0  0  0
   -6.6886    1.7503   -0.7857 H   0  0  0  0  0  0  0  0  0  0  0  0
   -7.4695    0.5505   -1.8316 H   0  0  0  0  0  0  0  0  0  0  0  0
   -7.9128    2.3143   -2.0614 H   0  0  0  0  0  0  0  0  0  0  0  0
   -4.9398    3.5463   -3.5519 H   0  0  0  0  0  0  0  0  0  0  0  0
   -6.4505    3.8852   -2.6640 H   0  0  0  0  0  0  0  0  0  0  0  0
   -6.5198    3.2930   -4.3238 H   0  0  0  0  0  0  0  0  0  0  0  0
  1  2  1  0
  2  3  1  0
  3  4  1  0
  4  5  1  0
  5  6  1  0
  6  7  1  0
  7  8  1  0
  8  9  2  0
  9 10  1  0
 10 11  2  0
 11 12  1  0
 12 13  2  0
 11 14  1  0
 14 15  1  0
 15 16  1  0
 16 17  2  0
 17 18  1  0
 18 19  2  0
 19 20  1  0
 20 21  2  0
 19 22  1  0
 22 23  2  0
 22 24  2  0
 22 25  1  0
  4 26  1  0
 26 27  2  0
 26 28  1  0
 28 29  1  0
 29 30  1  0
 29 31  1  0
 29 32  1  0
  7  2  1  0
 13  8  1  0
 21 16  1  0
  1 33  1  0
  1 34  1  0
  1 35  1  0
  2 36  1  1
  3 37  1  0
  3 38  1  0
  5 39  1  0
  5 40  1  0
  6 41  1  0
  6 42  1  0
 10 43  1  0
 12 44  1  0
 15 45  1  0
 15 46  1  0
 17 47  1  0
 18 48  1  0
 20 49  1  0
 25 50  1  0
 25 51  1  0
 25 52  1  0
 30 53  1  0
 30 54  1  0
 30 55  1  0
 31 56  1  0
 31 57  1  0
 31 58  1  0
 32 59  1  0
 32 60  1  0
 32 61  1  0
M  END
>  <Ligand ID>  (1) 
LIG0005325

>  <Ligand>  (1) 
CHEMBL2086674

>  <SMILES>  (1) 
C[C@@H]1CN(CCN1c1ncc(cn1)OCc1ccc(cn1)S(=O)(=O)C)C(=O)OC(C)(C)C

>  <CID>  (1) 
51029964.0

>  <ChEMBL ID>  (1) 
nan

>  <InChiKey>  (1) 
RDCJWTSRPRQNRI-OAHLLOKOSA-N

>  <InChi>  (1) 
InChI=1S/C21H29N5O5S/c1-15-13-25(20(27)31-21(2,3)4)8-9-26(15)19-23-10-17(11-24-19)30-14-16-6-7-18(12-22-16)32(5,28)29/h6-7,10-12,15H,8-9,13-14H2,1-5H3/t15-/m1/s1

>  <IUPAC Name>  (1) 
tert-butyl (3R)-3-methyl-4-[5-[(5-methylsulfonylpyridin-2-yl)methoxy]pyrimidin-2-yl]piperazine-1-carboxylate

$$$$
