
     RDKit          3D

 58 60  0  0  0  0  0  0  0  0999 V2000
    1.5636   -1.2394   -1.6707 O   0  0  0  0  0  0  0  0  0  0  0  0
    2.1762   -0.2178   -1.2885 C   0  0  0  0  0  0  0  0  0  0  0  0
    3.6289   -0.3799   -0.9873 C   0  0  1  0  0  0  0  0  0  0  0  0
    3.8580    0.0154    0.4662 C   0  0  0  0  0  0  0  0  0  0  0  0
    5.2959   -0.1331    0.8041 C   0  0  0  0  0  0  0  0  0  0  0  0
    6.2262    0.8551    0.6604 C   0  0  0  0  0  0  0  0  0  0  0  0
    7.5426    0.5943    1.0115 C   0  0  0  0  0  0  0  0  0  0  0  0
    7.9482   -0.6352    1.5036 C   0  0  0  0  0  0  0  0  0  0  0  0
    6.9962   -1.6304    1.6453 C   0  0  0  0  0  0  0  0  0  0  0  0
    5.6870   -1.3732    1.2969 C   0  0  0  0  0  0  0  0  0  0  0  0
    9.2406   -0.8870    1.8469 F   0  0  0  0  0  0  0  0  0  0  0  0
    4.0723   -1.7304   -1.2001 N   0  0  0  0  0  0  0  0  0  0  0  0
    1.5462    1.0467   -1.1395 N   0  0  0  0  0  0  0  0  0  0  0  0
    0.1400    1.2754   -1.4132 C   0  0  0  0  0  0  0  0  0  0  0  0
   -0.7299    0.4430   -0.5545 C   0  0  0  0  0  0  0  0  0  0  0  0
   -2.2084    0.6259   -0.7799 C   0  0  0  0  0  0  0  0  0  0  0  0
   -3.0396   -0.2449    0.1204 C   0  0  0  0  0  0  0  0  0  0  0  0
   -2.8485   -0.0185    1.5725 C   0  0  0  0  0  0  0  0  0  0  0  0
   -4.0426   -0.6569    2.2739 C   0  0  0  0  0  0  0  0  0  0  0  0
   -4.8191   -1.5934    1.3881 C   0  0  0  0  0  0  0  0  0  0  0  0
   -3.9596   -2.4611    0.5171 C   0  0  0  0  0  0  0  0  0  0  0  0
   -2.7973   -1.7156   -0.1041 C   0  0  0  0  0  0  0  0  0  0  0  0
   -2.6181    2.0727   -0.7211 C   0  0  0  0  0  0  0  0  0  0  0  0
   -4.0415    2.2385   -0.9390 N   0  0  0  0  0  0  0  0  0  0  0  0
   -4.9517    2.2251    0.0776 C   0  0  0  0  0  0  0  0  0  0  0  0
   -6.1743    2.4050   -0.4717 N   0  0  0  0  0  0  0  0  0  0  0  0
   -6.0076    2.5256   -1.8012 C   0  0  0  0  0  0  0  0  0  0  0  0
   -4.6922    2.4194   -2.0557 N   0  0  0  0  0  0  0  0  0  0  0  0
    4.2149    0.2836   -1.6442 H   0  0  0  0  0  0  0  0  0  0  0  0
    3.6068    1.0800    0.6222 H   0  0  0  0  0  0  0  0  0  0  0  0
    3.2339   -0.6177    1.1176 H   0  0  0  0  0  0  0  0  0  0  0  0
    5.9116    1.8143    0.2769 H   0  0  0  0  0  0  0  0  0  0  0  0
    8.3016    1.3562    0.9091 H   0  0  0  0  0  0  0  0  0  0  0  0
    7.3086   -2.5861    2.0272 H   0  0  0  0  0  0  0  0  0  0  0  0
    4.9859   -2.1930    1.4302 H   0  0  0  0  0  0  0  0  0  0  0  0
    3.4822   -2.4348   -0.6983 H   0  0  0  0  0  0  0  0  0  0  0  0
    4.1066   -1.9402   -2.2238 H   0  0  0  0  0  0  0  0  0  0  0  0
    2.1844    1.8306   -0.8079 H   0  0  0  0  0  0  0  0  0  0  0  0
    0.0236    1.1113   -2.4996 H   0  0  0  0  0  0  0  0  0  0  0  0
   -0.0563    2.3491   -1.2305 H   0  0  0  0  0  0  0  0  0  0  0  0
   -0.4941    0.7257    0.5025 H   0  0  0  0  0  0  0  0  0  0  0  0
   -0.4213   -0.6174   -0.6371 H   0  0  0  0  0  0  0  0  0  0  0  0
   -2.4039    0.2971   -1.8239 H   0  0  0  0  0  0  0  0  0  0  0  0
   -4.1117   -0.0885   -0.1185 H   0  0  0  0  0  0  0  0  0  0  0  0
   -1.9632   -0.6181    1.9341 H   0  0  0  0  0  0  0  0  0  0  0  0
   -2.6509    1.0047    1.9011 H   0  0  0  0  0  0  0  0  0  0  0  0
   -4.7183    0.1763    2.5697 H   0  0  0  0  0  0  0  0  0  0  0  0
   -3.7529   -1.1425    3.2355 H   0  0  0  0  0  0  0  0  0  0  0  0
   -5.3668   -2.2728    2.0789 H   0  0  0  0  0  0  0  0  0  0  0  0
   -5.6379   -1.0672    0.8225 H   0  0  0  0  0  0  0  0  0  0  0  0
   -4.5959   -2.8372   -0.3212 H   0  0  0  0  0  0  0  0  0  0  0  0
   -3.6248   -3.3452    1.1274 H   0  0  0  0  0  0  0  0  0  0  0  0
   -1.9027   -2.0169    0.5124 H   0  0  0  0  0  0  0  0  0  0  0  0
   -2.6439   -1.9725   -1.1594 H   0  0  0  0  0  0  0  0  0  0  0  0
   -2.2751    2.5285    0.2276 H   0  0  0  0  0  0  0  0  0  0  0  0
   -2.1388    2.5858   -1.6065 H   0  0  0  0  0  0  0  0  0  0  0  0
   -4.7813    2.0988    1.1338 H   0  0  0  0  0  0  0  0  0  0  0  0
   -6.8121    2.6824   -2.5344 H   0  0  0  0  0  0  0  0  0  0  0  0
  1  2  2  0
  2  3  1  0
  3  4  1  0
  4  5  1  0
  5  6  2  0
  6  7  1  0
  7  8  2  0
  8  9  1  0
  9 10  2  0
  8 11  1  0
  3 12  1  0
  2 13  1  0
 13 14  1  0
 14 15  1  0
 15 16  1  0
 16 17  1  0
 17 18  1  0
 18 19  1  0
 19 20  1  0
 20 21  1  0
 21 22  1  0
 16 23  1  0
 23 24  1  0
 24 25  1  0
 25 26  2  0
 26 27  1  0
 27 28  2  0
 10  5  1  0
 22 17  1  0
 28 24  1  0
  3 29  1  6
  4 30  1  0
  4 31  1  0
  6 32  1  0
  7 33  1  0
  9 34  1  0
 10 35  1  0
 12 36  1  0
 12 37  1  0
 13 38  1  0
 14 39  1  0
 14 40  1  0
 15 41  1  0
 15 42  1  0
 16 43  1  0
 17 44  1  0
 18 45  1  0
 18 46  1  0
 19 47  1  0
 19 48  1  0
 20 49  1  0
 20 50  1  0
 21 51  1  0
 21 52  1  0
 22 53  1  0
 22 54  1  0
 23 55  1  0
 23 56  1  0
 25 57  1  0
 27 58  1  0
M  END
>  <Ligand ID>  (1) 
LIG0003049

>  <Ligand>  (1) 
CHEMBL403722

>  <SMILES>  (1) 
O=C([C@@H](Cc1ccc(cc1)F)N)NCCC(C1CCCCC1)Cn1cncn1

>  <CID>  (1) 
44453903.0

>  <ChEMBL ID>  (1) 
nan

>  <InChiKey>  (1) 
XDPKKXZLQXHONB-ROPPNANJSA-N

>  <InChi>  (1) 
InChI=1S/C21H30FN5O/c22-19-8-6-16(7-9-19)12-20(23)21(28)25-11-10-18(13-27-15-24-14-26-27)17-4-2-1-3-5-17/h6-9,14-15,17-18,20H,1-5,10-13,23H2,(H,25,28)/t18?,20-/m1/s1

>  <IUPAC Name>  (1) 
(2R)-2-amino-N-[3-cyclohexyl-4-(1,2,4-triazol-1-yl)butyl]-3-(4-fluorophenyl)propanamide

$$$$
