
     RDKit          3D

 45 46  0  0  0  0  0  0  0  0999 V2000
    4.6881   -0.1287    1.2195 C   0  0  0  0  0  0  0  0  0  0  0  0
    4.4989   -0.9539    0.2155 C   0  0  0  0  0  0  0  0  0  0  0  0
    3.2312   -1.1515   -0.5094 C   0  0  0  0  0  0  0  0  0  0  0  0
    2.1468   -0.3473   -0.0359 N   0  0  0  0  0  0  0  0  0  0  0  0
    2.2486    1.0419   -0.2593 C   0  0  0  0  0  0  0  0  0  0  0  0
    1.3087    1.6101   -1.2855 C   0  0  0  0  0  0  0  0  0  0  0  0
   -0.0143    1.7820   -0.6184 C   0  0  0  0  0  0  0  0  0  0  0  0
   -0.7051    0.8531    0.1383 C   0  0  0  0  0  0  0  0  0  0  0  0
   -0.2542   -0.5390    0.4371 C   0  0  0  0  0  0  0  0  0  0  0  0
    0.9047   -0.9563   -0.4238 C   0  0  0  0  0  0  0  0  0  0  0  0
   -1.3139   -1.5421    0.3364 C   0  0  0  0  0  0  0  0  0  0  0  0
   -2.0153   -1.9611    1.4691 C   0  0  0  0  0  0  0  0  0  0  0  0
   -3.0199   -2.9001    1.3857 C   0  0  0  0  0  0  0  0  0  0  0  0
   -3.3221   -3.4272    0.1324 C   0  0  0  0  0  0  0  0  0  0  0  0
   -2.6285   -3.0164   -0.9991 C   0  0  0  0  0  0  0  0  0  0  0  0
   -1.6179   -2.0683   -0.8993 C   0  0  0  0  0  0  0  0  0  0  0  0
   -1.9260    1.1482    0.7045 C   0  0  0  0  0  0  0  0  0  0  0  0
   -2.4846    2.3925    0.5212 C   0  0  0  0  0  0  0  0  0  0  0  0
   -1.7786    3.3003   -0.2362 C   0  0  0  0  0  0  0  0  0  0  0  0
   -0.5598    3.0369   -0.8133 C   0  0  0  0  0  0  0  0  0  0  0  0
   -2.3711    4.5615   -0.4078 O   0  0  0  0  0  0  0  0  0  0  0  0
   -3.7123    2.6802    1.0942 O   0  0  0  0  0  0  0  0  0  0  0  0
    0.7614    0.0000    0.0000 Br  0  0  0  0  0  0  0  0  0  0  0  0
    5.6687   -0.0335    1.7143 H   0  0  0  0  0  0  0  0  0  0  0  0
    3.9128    0.5031    1.6242 H   0  0  0  0  0  0  0  0  0  0  0  0
    5.3547   -1.5559   -0.1224 H   0  0  0  0  0  0  0  0  0  0  0  0
    3.3683   -1.0327   -1.6221 H   0  0  0  0  0  0  0  0  0  0  0  0
    2.9433   -2.2324   -0.4043 H   0  0  0  0  0  0  0  0  0  0  0  0
    3.2759    1.3336   -0.5689 H   0  0  0  0  0  0  0  0  0  0  0  0
    1.9804    1.5682    0.7044 H   0  0  0  0  0  0  0  0  0  0  0  0
    1.1847    1.0092   -2.1876 H   0  0  0  0  0  0  0  0  0  0  0  0
    1.6775    2.6247   -1.5247 H   0  0  0  0  0  0  0  0  0  0  0  0
    0.1080   -0.5530    1.4986 H   0  0  0  0  0  0  0  0  0  0  0  0
    0.6871   -0.8612   -1.5093 H   0  0  0  0  0  0  0  0  0  0  0  0
    1.0400   -2.0538   -0.2636 H   0  0  0  0  0  0  0  0  0  0  0  0
   -1.7805   -1.5560    2.4429 H   0  0  0  0  0  0  0  0  0  0  0  0
   -3.5779   -3.2381    2.2582 H   0  0  0  0  0  0  0  0  0  0  0  0
   -4.1051   -4.1709   -0.0035 H   0  0  0  0  0  0  0  0  0  0  0  0
   -2.8570   -3.4225   -1.9826 H   0  0  0  0  0  0  0  0  0  0  0  0
   -1.1141   -1.7851   -1.8095 H   0  0  0  0  0  0  0  0  0  0  0  0
   -2.4717    0.4428    1.2910 H   0  0  0  0  0  0  0  0  0  0  0  0
   -0.0098    3.7646   -1.4098 H   0  0  0  0  0  0  0  0  0  0  0  0
   -2.0409    5.3411    0.1445 H   0  0  0  0  0  0  0  0  0  0  0  0
   -4.5480    2.4929    0.5645 H   0  0  0  0  0  0  0  0  0  0  0  0
   -0.7614    0.0000    0.0000 H   0  0  0  0  0  0  0  0  0  0  0  0
  1  2  2  0
  2  3  1  0
  3  4  1  0
  4  5  1  0
  5  6  1  0
  6  7  1  0
  7  8  2  0
  8  9  1  0
  9 10  1  0
  9 11  1  0
 11 12  2  0
 12 13  1  0
 13 14  2  0
 14 15  1  0
 15 16  2  0
  8 17  1  0
 17 18  2  0
 18 19  1  0
 19 20  2  0
 19 21  1  0
 18 22  1  0
 10  4  1  0
 16 11  1  0
 20  7  1  0
  1 24  1  0
  1 25  1  0
  2 26  1  0
  3 27  1  0
  3 28  1  0
  5 29  1  0
  5 30  1  0
  6 31  1  0
  6 32  1  0
  9 33  1  0
 10 34  1  0
 10 35  1  0
 12 36  1  0
 13 37  1  0
 14 38  1  0
 15 39  1  0
 16 40  1  0
 17 41  1  0
 20 42  1  0
 21 43  1  0
 22 44  1  0
 23 45  1  0
M  END
>  <Ligand ID>  (1) 
LIG0005639

>  <Ligand>  (1) 
SKF 77434 hydrobromide

>  <SMILES>  (1) 
C=CCN1CCc2c(C(C1)c1ccccc1)cc(c(c2)O)O.Br

>  <CID>  (1) 
11957703.0

>  <ChEMBL ID>  (1) 
nan

>  <InChiKey>  (1) 
JWQRAXTWDYUBFI-UHFFFAOYSA-N

>  <InChi>  (1) 
InChI=1S/C19H21NO2.BrH/c1-2-9-20-10-8-15-11-18(21)19(22)12-16(15)17(13-20)14-6-4-3-5-7-14;/h2-7,11-12,17,21-22H,1,8-10,13H2;1H

>  <IUPAC Name>  (1) 
5-phenyl-3-prop-2-enyl-1,2,4,5-tetrahydro-3-benzazepine-7,8-diol;hydrobromide

$$$$
