
     RDKit          3D

 57 62  0  0  0  0  0  0  0  0999 V2000
    3.2445   -2.2414    0.4310 C   0  0  0  0  0  0  0  0  0  0  0  0
    2.9655   -0.9261    0.6547 O   0  0  0  0  0  0  0  0  0  0  0  0
    1.7413   -0.4637    0.2501 C   0  0  2  0  0  0  0  0  0  0  0  0
    1.4684   -0.5949   -1.2053 C   0  0  0  0  0  0  0  0  0  0  0  0
    1.2933   -1.9415   -1.5505 O   0  0  0  0  0  0  0  0  0  0  0  0
    0.2290    0.1401   -1.6173 C   0  0  0  0  0  0  0  0  0  0  0  0
   -0.4047    0.7378   -0.3932 C   0  0  2  0  0  0  0  0  0  0  0  0
    0.5395    1.7611    0.1627 C   0  0  0  0  0  0  0  0  0  0  0  0
    1.7418    1.0207    0.6820 C   0  0  2  0  0  0  0  0  0  0  0  0
    3.0481    1.6595    0.5514 C   0  0  2  0  0  0  0  0  0  0  0  0
    2.9310    3.0118    0.9846 O   0  0  0  0  0  0  0  0  0  0  0  0
    3.7661    1.6688   -0.7315 C   0  0  0  0  0  0  0  0  0  0  0  0
   -0.6385   -0.3390    0.6428 C   0  0  2  0  0  0  0  0  0  0  0  0
    0.6081   -1.0810    1.0414 C   0  0  1  0  0  0  0  0  0  0  0  0
    0.3598   -2.4435    0.7680 O   0  0  0  0  0  0  0  0  0  0  0  0
   -0.7942   -2.6146    0.0039 C   0  0  0  0  0  0  0  0  0  0  0  0
   -1.3647   -1.3889   -0.0988 C   0  0  0  0  0  0  0  0  0  0  0  0
   -2.5056   -1.0469   -0.7611 C   0  0  0  0  0  0  0  0  0  0  0  0
   -2.9004    0.3692   -0.7733 C   0  0  0  0  0  0  0  0  0  0  0  0
   -1.7627    1.3492   -0.6396 C   0  0  1  0  0  0  0  0  0  0  0  0
   -2.0182    2.1323    0.5302 N   0  0  0  0  0  0  0  0  0  0  0  0
   -2.1268    1.4055    1.7403 C   0  0  0  0  0  0  0  0  0  0  0  0
   -1.4220    0.0993    1.8144 C   0  0  0  0  0  0  0  0  0  0  0  0
   -2.7366    3.3086    0.3863 C   0  0  0  0  0  0  0  0  0  0  0  0
   -3.1643   -2.0764   -1.4019 C   0  0  0  0  0  0  0  0  0  0  0  0
   -2.6338   -3.3697   -1.3346 C   0  0  0  0  0  0  0  0  0  0  0  0
   -1.4526   -3.6476   -0.6365 C   0  0  0  0  0  0  0  0  0  0  0  0
   -0.9164   -4.9195   -0.5619 O   0  0  0  0  0  0  0  0  0  0  0  0
    4.2882   -2.4036    0.8421 H   0  0  0  0  0  0  0  0  0  0  0  0
    3.3578   -2.4927   -0.6490 H   0  0  0  0  0  0  0  0  0  0  0  0
    2.6219   -2.9485    1.0011 H   0  0  0  0  0  0  0  0  0  0  0  0
    2.3677   -0.2570   -1.7923 H   0  0  0  0  0  0  0  0  0  0  0  0
    0.8869   -1.9273   -2.4681 H   0  0  0  0  0  0  0  0  0  0  0  0
   -0.4630   -0.4834   -2.2122 H   0  0  0  0  0  0  0  0  0  0  0  0
    0.5420    0.9852   -2.2713 H   0  0  0  0  0  0  0  0  0  0  0  0
    0.8148    2.5379   -0.5843 H   0  0  0  0  0  0  0  0  0  0  0  0
    0.0147    2.3304    0.9626 H   0  0  0  0  0  0  0  0  0  0  0  0
    1.5614    0.9397    1.8080 H   0  0  0  0  0  0  0  0  0  0  0  0
    3.7363    1.2130    1.3273 H   0  0  0  0  0  0  0  0  0  0  0  0
    3.8626    3.3584    0.9595 H   0  0  0  0  0  0  0  0  0  0  0  0
    3.2043    1.9350   -1.6265 H   0  0  0  0  0  0  0  0  0  0  0  0
    4.5941    2.4511   -0.6800 H   0  0  0  0  0  0  0  0  0  0  0  0
    4.3283    0.7347   -0.9349 H   0  0  0  0  0  0  0  0  0  0  0  0
    0.8021   -0.9324    2.1376 H   0  0  0  0  0  0  0  0  0  0  0  0
   -3.6435    0.4903    0.0472 H   0  0  0  0  0  0  0  0  0  0  0  0
   -3.4794    0.5521   -1.7281 H   0  0  0  0  0  0  0  0  0  0  0  0
   -1.7752    2.0083   -1.5174 H   0  0  0  0  0  0  0  0  0  0  0  0
   -3.2320    1.3376    1.9702 H   0  0  0  0  0  0  0  0  0  0  0  0
   -1.7402    2.0519    2.5687 H   0  0  0  0  0  0  0  0  0  0  0  0
   -0.7792    0.0138    2.7387 H   0  0  0  0  0  0  0  0  0  0  0  0
   -2.2240   -0.6745    2.0152 H   0  0  0  0  0  0  0  0  0  0  0  0
   -2.5463    3.9828    1.2473 H   0  0  0  0  0  0  0  0  0  0  0  0
   -3.8301    3.2099    0.2952 H   0  0  0  0  0  0  0  0  0  0  0  0
   -2.3764    3.8537   -0.5150 H   0  0  0  0  0  0  0  0  0  0  0  0
   -4.0725   -1.8486   -1.9370 H   0  0  0  0  0  0  0  0  0  0  0  0
   -3.1583   -4.1934   -1.8443 H   0  0  0  0  0  0  0  0  0  0  0  0
   -0.7580   -5.3934    0.3206 H   0  0  0  0  0  0  0  0  0  0  0  0
  1  2  1  0
  3  2  1  6
  3  4  1  0
  4  5  1  0
  4  6  1  0
  7  6  1  6
  7  8  1  0
  8  9  1  0
  9 10  1  0
 10 11  1  0
 10 12  1  0
  7 13  1  0
 13 14  1  0
 14 15  1  0
 15 16  1  0
 16 17  2  0
 17 18  1  0
 18 19  1  0
 19 20  1  0
 20 21  1  0
 21 22  1  0
 22 23  1  0
 21 24  1  0
 18 25  2  0
 25 26  1  0
 26 27  2  0
 27 28  1  0
  9  3  1  0
 13 23  1  1
 14  3  1  0
 27 16  1  0
 20  7  1  0
 17 13  1  0
  1 29  1  0
  1 30  1  0
  1 31  1  0
  4 32  1  0
  5 33  1  0
  6 34  1  0
  6 35  1  0
  8 36  1  0
  8 37  1  0
  9 38  1  1
 10 39  1  1
 11 40  1  0
 12 41  1  0
 12 42  1  0
 12 43  1  0
 14 44  1  1
 19 45  1  0
 19 46  1  0
 20 47  1  6
 22 48  1  0
 22 49  1  0
 23 50  1  0
 23 51  1  0
 24 52  1  0
 24 53  1  0
 24 54  1  0
 25 55  1  0
 26 56  1  0
 28 57  1  0
M  END
>  <Ligand ID>  (1) 
LIG0002196

>  <Ligand>  (1) 
CHEMBL401245

>  <SMILES>  (1) 
CO[C@]12C(O)C[C@]3(C[C@@H]1[C@H](O)C)[C@@]14[C@H]2Oc2c4c(C[C@H]3N(CC1)C)ccc2O

>  <CID>  (1) 
44433400.0

>  <ChEMBL ID>  (1) 
nan

>  <InChiKey>  (1) 
KVRXULLNGOYSQO-RNFIBMNTSA-N

>  <InChi>  (1) 
InChI=1S/C22H29NO5/c1-11(24)13-9-20-10-16(26)22(13,27-3)19-21(20)6-7-23(2)15(20)8-12-4-5-14(25)18(28-19)17(12)21/h4-5,11,13,15-16,19,24-26H,6-10H2,1-3H3/t11-,13-,15-,16?,19-,20+,21+,22+/m1/s1

>  <IUPAC Name>  (1) 
(1R,2S,6R,14R,15S,19R)-19-[(1R)-1-hydroxyethyl]-15-methoxy-5-methyl-13-oxa-5-azahexacyclo[13.2.2.12,8.01,6.02,14.012,20]icosa-8(20),9,11-triene-11,16-diol

$$$$
