
     RDKit          3D

 66 69  0  0  0  0  0  0  0  0999 V2000
   -1.4560   -0.8201    0.8810 C   0  0  0  0  0  0  0  0  0  0  0  0
   -1.2831    0.6395    0.7351 C   0  0  2  0  0  0  0  0  0  0  0  0
   -2.2809    1.1660   -0.3078 C   0  0  0  0  0  0  0  0  0  0  0  0
   -3.6839    0.9580   -0.0034 C   0  0  0  0  0  0  0  0  0  0  0  0
   -4.4667    1.9473    0.6254 C   0  0  0  0  0  0  0  0  0  0  0  0
   -5.7127    1.4862    0.8084 N   0  0  0  0  0  0  0  0  0  0  0  0
   -5.7885    0.2353    0.3275 C   0  0  0  0  0  0  0  0  0  0  0  0
   -4.5502   -0.0925   -0.1702 C   0  0  0  0  0  0  0  0  0  0  0  0
   -4.3910   -1.3359   -0.7370 C   0  0  0  0  0  0  0  0  0  0  0  0
   -5.4682   -2.1928   -0.7801 C   0  0  0  0  0  0  0  0  0  0  0  0
   -6.7120   -1.8568   -0.2759 C   0  0  0  0  0  0  0  0  0  0  0  0
   -6.8803   -0.6051    0.2959 C   0  0  0  0  0  0  0  0  0  0  0  0
   -8.1016   -0.1855    0.8266 O   0  0  0  0  0  0  0  0  0  0  0  0
   -9.1654    0.6184   -0.2300 S   0  0  0  0  0  0  0  0  0  0  0  0
   -9.6038    1.9399    0.3383 O   0  0  0  0  0  0  0  0  0  0  0  0
   -8.4850    0.9355   -1.5528 O   0  0  0  0  0  0  0  0  0  0  0  0
  -10.5763   -0.3893   -0.6281 C   0  0  0  0  0  0  0  0  0  0  0  0
   -0.0386    1.1550    0.3774 N   0  0  0  0  0  0  0  0  0  0  0  0
    1.1145    1.1412    1.1225 C   0  0  0  0  0  0  0  0  0  0  0  0
    1.9067   -0.0724    1.4016 C   0  0  1  0  0  0  0  0  0  0  0  0
    2.5880   -0.6004    0.1660 C   0  0  0  0  0  0  0  0  0  0  0  0
    2.3183   -1.8435   -0.3538 C   0  0  0  0  0  0  0  0  0  0  0  0
    3.0120   -2.1939   -1.5040 C   0  0  0  0  0  0  0  0  0  0  0  0
    3.9248   -1.3543   -2.1062 C   0  0  0  0  0  0  0  0  0  0  0  0
    4.1922   -0.0907   -1.5696 C   0  0  0  0  0  0  0  0  0  0  0  0
    3.4972    0.2410   -0.4302 C   0  0  0  0  0  0  0  0  0  0  0  0
    5.1198    0.8048   -2.1632 N   0  0  0  0  0  0  0  0  0  0  0  0
    6.2907    1.6941   -1.2862 S   0  0  0  0  0  0  0  0  0  0  0  0
    7.0680    2.5697   -2.2279 O   0  0  0  0  0  0  0  0  0  0  0  0
    5.5907    2.5421   -0.2511 O   0  0  0  0  0  0  0  0  0  0  0  0
    7.4178    0.6784   -0.4529 C   0  0  0  0  0  0  0  0  0  0  0  0
    7.2564    0.2313    0.8389 C   0  0  0  0  0  0  0  0  0  0  0  0
    8.1859   -0.5805    1.4597 C   0  0  0  0  0  0  0  0  0  0  0  0
    9.3284   -0.9700    0.7746 C   0  0  0  0  0  0  0  0  0  0  0  0
    9.5130   -0.5288   -0.5365 C   0  0  0  0  0  0  0  0  0  0  0  0
    8.5695    0.2740   -1.1158 C   0  0  0  0  0  0  0  0  0  0  0  0
    3.0194    0.3973    2.1864 O   0  0  0  0  0  0  0  0  0  0  0  0
   -1.3151   -1.3987   -0.0500 H   0  0  0  0  0  0  0  0  0  0  0  0
   -0.6696   -1.2207    1.5749 H   0  0  0  0  0  0  0  0  0  0  0  0
   -2.4671   -1.1029    1.2784 H   0  0  0  0  0  0  0  0  0  0  0  0
   -1.6184    1.1905    1.6730 H   0  0  0  0  0  0  0  0  0  0  0  0
   -1.9803    0.6240   -1.2539 H   0  0  0  0  0  0  0  0  0  0  0  0
   -2.0332    2.2376   -0.5500 H   0  0  0  0  0  0  0  0  0  0  0  0
   -4.1373    2.9395    0.9270 H   0  0  0  0  0  0  0  0  0  0  0  0
   -6.4751    2.0394    1.2566 H   0  0  0  0  0  0  0  0  0  0  0  0
   -3.4164   -1.5727   -1.1256 H   0  0  0  0  0  0  0  0  0  0  0  0
   -5.3067   -3.1596   -1.2311 H   0  0  0  0  0  0  0  0  0  0  0  0
   -7.5396   -2.5499   -0.3232 H   0  0  0  0  0  0  0  0  0  0  0  0
  -11.1151    0.1160   -1.4742 H   0  0  0  0  0  0  0  0  0  0  0  0
  -10.2197   -1.3498   -1.0154 H   0  0  0  0  0  0  0  0  0  0  0  0
  -11.2667   -0.5009    0.2446 H   0  0  0  0  0  0  0  0  0  0  0  0
    0.0393    1.4884   -0.6183 H   0  0  0  0  0  0  0  0  0  0  0  0
    0.9417    1.6292    2.1509 H   0  0  0  0  0  0  0  0  0  0  0  0
    1.8505    1.8826    0.6517 H   0  0  0  0  0  0  0  0  0  0  0  0
    1.5021   -0.8649    2.0017 H   0  0  0  0  0  0  0  0  0  0  0  0
    1.6013   -2.4902    0.1278 H   0  0  0  0  0  0  0  0  0  0  0  0
    2.8433   -3.1587   -1.9598 H   0  0  0  0  0  0  0  0  0  0  0  0
    4.4333   -1.6827   -3.0007 H   0  0  0  0  0  0  0  0  0  0  0  0
    3.6954    1.2144   -0.0070 H   0  0  0  0  0  0  0  0  0  0  0  0
    5.0516    0.9013   -3.2156 H   0  0  0  0  0  0  0  0  0  0  0  0
    6.3582    0.5377    1.3758 H   0  0  0  0  0  0  0  0  0  0  0  0
    8.0752   -0.9358    2.4622 H   0  0  0  0  0  0  0  0  0  0  0  0
   10.0802   -1.5979    1.2091 H   0  0  0  0  0  0  0  0  0  0  0  0
   10.3910   -0.8119   -1.0991 H   0  0  0  0  0  0  0  0  0  0  0  0
    8.7495    0.6014   -2.1494 H   0  0  0  0  0  0  0  0  0  0  0  0
    2.6786    1.0527    2.8582 H   0  0  0  0  0  0  0  0  0  0  0  0
  1  2  1  0
  2  3  1  0
  3  4  1  0
  4  5  2  0
  5  6  1  0
  6  7  1  0
  7  8  2  0
  8  9  1  0
  9 10  2  0
 10 11  1  0
 11 12  2  0
 12 13  1  0
 13 14  1  0
 14 15  2  0
 14 16  2  0
 14 17  1  0
  2 18  1  0
 18 19  1  0
 19 20  1  0
 20 21  1  0
 21 22  2  0
 22 23  1  0
 23 24  2  0
 24 25  1  0
 25 26  2  0
 25 27  1  0
 27 28  1  0
 28 29  2  0
 28 30  2  0
 28 31  1  0
 31 32  2  0
 32 33  1  0
 33 34  2  0
 34 35  1  0
 35 36  2  0
 20 37  1  0
  8  4  1  0
 26 21  1  0
 36 31  1  0
 12  7  1  0
  1 38  1  0
  1 39  1  0
  1 40  1  0
  2 41  1  1
  3 42  1  0
  3 43  1  0
  5 44  1  0
  6 45  1  0
  9 46  1  0
 10 47  1  0
 11 48  1  0
 17 49  1  0
 17 50  1  0
 17 51  1  0
 18 52  1  0
 19 53  1  0
 19 54  1  0
 20 55  1  1
 22 56  1  0
 23 57  1  0
 24 58  1  0
 26 59  1  0
 27 60  1  0
 32 61  1  0
 33 62  1  0
 34 63  1  0
 35 64  1  0
 36 65  1  0
 37 66  1  0
M  END
>  <Ligand ID>  (1) 
LIG0002222

>  <Ligand>  (1) 
CHEMBL181440

>  <SMILES>  (1) 
C[C@H](Cc1c[nH]c2c1cccc2OS(=O)(=O)C)NC[C@@H](c1cccc(c1)NS(=O)(=O)c1ccccc1)O

>  <CID>  (1) 
44392552.0

>  <ChEMBL ID>  (1) 
nan

>  <InChiKey>  (1) 
BORUUXXGFWWZKT-KOSHJBKYSA-N

>  <InChi>  (1) 
InChI=1S/C26H29N3O6S2/c1-18(14-20-16-28-26-23(20)12-7-13-25(26)35-36(2,31)32)27-17-24(30)19-8-6-9-21(15-19)29-37(33,34)22-10-4-3-5-11-22/h3-13,15-16,18,24,27-30H,14,17H2,1-2H3/t18-,24+/m1/s1

>  <IUPAC Name>  (1) 
[3-[(2R)-2-[[(2R)-2-[3-(benzenesulfonamido)phenyl]-2-hydroxyethyl]amino]propyl]-1H-indol-7-yl] methanesulfonate

$$$$
