
     RDKit          3D

 53 57  0  0  0  0  0  0  0  0999 V2000
   -7.2283   -2.1234    1.1244 C   0  0  0  0  0  0  0  0  0  0  0  0
   -6.4735   -2.0265   -0.1739 C   0  0  0  0  0  0  0  0  0  0  0  0
   -5.5592   -0.8944   -0.1298 N   0  0  0  0  0  0  0  0  0  0  0  0
   -4.2826   -0.9101    0.2959 C   0  0  0  0  0  0  0  0  0  0  0  0
   -3.5578   -1.9808    0.7799 C   0  0  0  0  0  0  0  0  0  0  0  0
   -2.2594   -1.7552    1.1578 C   0  0  0  0  0  0  0  0  0  0  0  0
   -1.6956   -0.4789    1.0531 C   0  0  0  0  0  0  0  0  0  0  0  0
   -2.4129    0.5962    0.5706 C   0  0  0  0  0  0  0  0  0  0  0  0
   -3.7320    0.3675    0.1866 C   0  0  0  0  0  0  0  0  0  0  0  0
   -4.7146    1.1735   -0.3222 C   0  0  0  0  0  0  0  0  0  0  0  0
   -5.8357    0.3665   -0.5089 C   0  0  0  0  0  0  0  0  0  0  0  0
   -7.0019    0.8833   -1.0124 C   0  0  0  0  0  0  0  0  0  0  0  0
   -7.0252    2.2298   -1.3272 C   0  0  0  0  0  0  0  0  0  0  0  0
   -5.9126    3.0367   -1.1434 C   0  0  0  0  0  0  0  0  0  0  0  0
   -4.7241    2.5221   -0.6329 C   0  0  0  0  0  0  0  0  0  0  0  0
   -0.3374   -0.3779    1.4792 N   0  0  0  0  0  0  0  0  0  0  0  0
    0.6587   -0.6017    0.4918 C   0  0  0  0  0  0  0  0  0  0  0  0
    0.2905   -0.8691   -0.6709 O   0  0  0  0  0  0  0  0  0  0  0  0
    2.1145   -0.5344    0.7699 C   0  0  0  0  0  0  0  0  0  0  0  0
    2.7988   -0.8397   -0.5678 C   0  0  0  0  0  0  0  0  0  0  0  0
    4.2413   -0.8012   -0.4149 N   0  0  0  0  0  0  0  0  0  0  0  0
    4.9485   -1.8830   -0.0877 N   0  0  0  0  0  0  0  0  0  0  0  0
    6.2197   -1.5560   -0.0202 N   0  0  0  0  0  0  0  0  0  0  0  0
    6.3532   -0.2327   -0.3086 C   0  0  0  0  0  0  0  0  0  0  0  0
    5.0835    0.2021   -0.5506 N   0  0  0  0  0  0  0  0  0  0  0  0
    7.5774    0.5621   -0.3535 C   0  0  0  0  0  0  0  0  0  0  0  0
    7.5902    1.9079   -0.6608 C   0  0  0  0  0  0  0  0  0  0  0  0
    8.8135    2.5576   -0.6725 C   0  0  0  0  0  0  0  0  0  0  0  0
   10.0036    1.9283   -0.3947 C   0  0  0  0  0  0  0  0  0  0  0  0
    9.9764    0.5661   -0.0853 C   0  0  0  0  0  0  0  0  0  0  0  0
    8.7620   -0.0802   -0.0733 C   0  0  0  0  0  0  0  0  0  0  0  0
    8.7581   -1.4006    0.2291 F   0  0  0  0  0  0  0  0  0  0  0  0
   -6.6693   -1.7321    1.9959 H   0  0  0  0  0  0  0  0  0  0  0  0
   -8.1454   -1.5223    1.0448 H   0  0  0  0  0  0  0  0  0  0  0  0
   -7.4152   -3.2015    1.3219 H   0  0  0  0  0  0  0  0  0  0  0  0
   -7.1790   -1.9775   -1.0249 H   0  0  0  0  0  0  0  0  0  0  0  0
   -5.8339   -2.9376   -0.2637 H   0  0  0  0  0  0  0  0  0  0  0  0
   -3.9588   -2.9822    0.8757 H   0  0  0  0  0  0  0  0  0  0  0  0
   -1.6817   -2.5883    1.5389 H   0  0  0  0  0  0  0  0  0  0  0  0
   -1.9574    1.5587    0.5017 H   0  0  0  0  0  0  0  0  0  0  0  0
   -7.8762    0.2702   -1.1617 H   0  0  0  0  0  0  0  0  0  0  0  0
   -7.9560    2.6109   -1.7220 H   0  0  0  0  0  0  0  0  0  0  0  0
   -5.9465    4.0843   -1.3935 H   0  0  0  0  0  0  0  0  0  0  0  0
   -3.8431    3.1121   -0.4762 H   0  0  0  0  0  0  0  0  0  0  0  0
   -0.0562   -0.1550    2.4489 H   0  0  0  0  0  0  0  0  0  0  0  0
    2.3809    0.4937    1.0658 H   0  0  0  0  0  0  0  0  0  0  0  0
    2.4147   -1.2394    1.5505 H   0  0  0  0  0  0  0  0  0  0  0  0
    2.4698    0.0015   -1.2418 H   0  0  0  0  0  0  0  0  0  0  0  0
    2.5009   -1.8178   -0.9564 H   0  0  0  0  0  0  0  0  0  0  0  0
    6.6557    2.4073   -0.8801 H   0  0  0  0  0  0  0  0  0  0  0  0
    8.8093    3.6150   -0.9155 H   0  0  0  0  0  0  0  0  0  0  0  0
   10.9684    2.4324   -0.4021 H   0  0  0  0  0  0  0  0  0  0  0  0
   10.8821    0.0137    0.1430 H   0  0  0  0  0  0  0  0  0  0  0  0
  1  2  1  0
  2  3  1  0
  3  4  1  0
  4  5  2  0
  5  6  1  0
  6  7  2  0
  7  8  1  0
  8  9  2  0
  9 10  1  0
 10 11  2  0
 11 12  1  0
 12 13  2  0
 13 14  1  0
 14 15  2  0
  7 16  1  0
 16 17  1  0
 17 18  2  0
 17 19  1  0
 19 20  1  0
 20 21  1  0
 21 22  1  0
 22 23  2  0
 23 24  1  0
 24 25  2  0
 24 26  1  0
 26 27  2  0
 27 28  1  0
 28 29  2  0
 29 30  1  0
 30 31  2  0
 31 32  1  0
 11  3  1  0
 25 21  1  0
 31 26  1  0
  9  4  1  0
 15 10  1  0
  1 33  1  0
  1 34  1  0
  1 35  1  0
  2 36  1  0
  2 37  1  0
  5 38  1  0
  6 39  1  0
  8 40  1  0
 12 41  1  0
 13 42  1  0
 14 43  1  0
 15 44  1  0
 16 45  1  0
 19 46  1  0
 19 47  1  0
 20 48  1  0
 20 49  1  0
 27 50  1  0
 28 51  1  0
 29 52  1  0
 30 53  1  0
M  END
>  <Ligand ID>  (1) 
LIG0001918

>  <Ligand>  (1) 
CHEMBL499332

>  <SMILES>  (1) 
CCn1c2ccc(cc2c2c1cccc2)NC(=O)CCn1nnc(n1)c1ccccc1F

>  <CID>  (1) 
25034075.0

>  <ChEMBL ID>  (1) 
nan

>  <InChiKey>  (1) 
HMRUGQIFAQWKBQ-UHFFFAOYSA-N

>  <InChi>  (1) 
InChI=1S/C24H21FN6O/c1-2-30-21-10-6-4-7-17(21)19-15-16(11-12-22(19)30)26-23(32)13-14-31-28-24(27-29-31)18-8-3-5-9-20(18)25/h3-12,15H,2,13-14H2,1H3,(H,26,32)

>  <IUPAC Name>  (1) 
N-(9-ethylcarbazol-3-yl)-3-[5-(2-fluorophenyl)tetrazol-2-yl]propanamide

$$$$
