
     RDKit          3D

 33 34  0  0  0  0  0  0  0  0999 V2000
    4.5746   -2.7310   -0.4342 C   0  0  0  0  0  0  0  0  0  0  0  0
    3.2314   -2.6042   -0.8115 O   0  0  0  0  0  0  0  0  0  0  0  0
    2.4175   -1.5421   -0.5550 N   0  0  0  0  0  0  0  0  0  0  0  0
    2.4694   -0.4059   -1.0964 C   0  0  0  0  0  0  0  0  0  0  0  0
    1.6446    0.7574   -0.8744 C   0  0  0  0  0  0  0  0  0  0  0  0
    1.9048    1.9171   -1.6114 C   0  0  0  0  0  0  0  0  0  0  0  0
    1.1839    3.0745   -1.4825 C   0  0  0  0  0  0  0  0  0  0  0  0
    0.1422    3.1362   -0.5911 C   0  0  0  0  0  0  0  0  0  0  0  0
   -0.1315    2.0097    0.1435 C   0  0  0  0  0  0  0  0  0  0  0  0
    0.5989    0.8257    0.0180 C   0  0  0  0  0  0  0  0  0  0  0  0
    0.2478   -0.2613    0.8585 N   0  0  0  0  0  0  0  0  0  0  0  0
   -0.8382   -0.2678    1.7892 C   0  0  0  0  0  0  0  0  0  0  0  0
   -2.1581   -0.4893    1.1981 C   0  0  0  0  0  0  0  0  0  0  0  0
   -2.9605   -1.4388    1.6231 N   0  0  0  0  0  0  0  0  0  0  0  0
   -4.1975   -1.4813    0.9117 C   0  0  0  0  0  0  0  0  0  0  0  0
   -4.2860   -0.0480    0.3521 C   0  0  0  0  0  0  0  0  0  0  0  0
   -2.8420    0.1673    0.1533 N   0  0  0  0  0  0  0  0  0  0  0  0
    5.0115   -1.7999   -0.0412 H   0  0  0  0  0  0  0  0  0  0  0  0
    4.5994   -3.5409    0.3498 H   0  0  0  0  0  0  0  0  0  0  0  0
    5.2346   -3.0927   -1.2413 H   0  0  0  0  0  0  0  0  0  0  0  0
    3.2686   -0.2885   -1.8539 H   0  0  0  0  0  0  0  0  0  0  0  0
    2.7231    1.9474   -2.3460 H   0  0  0  0  0  0  0  0  0  0  0  0
    1.4100    3.9559   -2.0677 H   0  0  0  0  0  0  0  0  0  0  0  0
   -0.4251    4.0507   -0.4914 H   0  0  0  0  0  0  0  0  0  0  0  0
   -0.9651    2.0951    0.8428 H   0  0  0  0  0  0  0  0  0  0  0  0
    0.8127   -1.1646    0.8261 H   0  0  0  0  0  0  0  0  0  0  0  0
   -0.8182    0.7270    2.3002 H   0  0  0  0  0  0  0  0  0  0  0  0
   -0.6517   -1.0812    2.5504 H   0  0  0  0  0  0  0  0  0  0  0  0
   -5.0629   -1.6140    1.6057 H   0  0  0  0  0  0  0  0  0  0  0  0
   -4.2227   -2.1480    0.0364 H   0  0  0  0  0  0  0  0  0  0  0  0
   -4.8392    0.0022   -0.5848 H   0  0  0  0  0  0  0  0  0  0  0  0
   -4.6001    0.6321    1.1502 H   0  0  0  0  0  0  0  0  0  0  0  0
   -2.4765    0.7010   -0.6263 H   0  0  0  0  0  0  0  0  0  0  0  0
  1  2  1  0
  2  3  1  0
  3  4  2  0
  4  5  1  0
  5  6  2  0
  6  7  1  0
  7  8  2  0
  8  9  1  0
  9 10  2  0
 10 11  1  0
 11 12  1  0
 12 13  1  0
 13 14  2  0
 14 15  1  0
 15 16  1  0
 16 17  1  0
 10  5  1  0
 17 13  1  0
  1 18  1  0
  1 19  1  0
  1 20  1  0
  4 21  1  0
  6 22  1  0
  7 23  1  0
  8 24  1  0
  9 25  1  0
 11 26  1  0
 12 27  1  0
 12 28  1  0
 15 29  1  0
 15 30  1  0
 16 31  1  0
 16 32  1  0
 17 33  1  0
M  END
>  <Ligand ID>  (1) 
LIG0004706

>  <Ligand>  (1) 
CHEMBL351542

>  <SMILES>  (1) 
CO/N=C/c1ccccc1NCC1=NCCN1

>  <CID>  (1) 
10399043.0

>  <ChEMBL ID>  (1) 
nan

>  <InChiKey>  (1) 
PTJZNEIRBPOVRN-LZYBPNLTSA-N

>  <InChi>  (1) 
InChI=1S/C12H16N4O/c1-17-16-8-10-4-2-3-5-11(10)15-9-12-13-6-7-14-12/h2-5,8,15H,6-7,9H2,1H3,(H,13,14)/b16-8+

>  <IUPAC Name>  (1) 
N-(4,5-dihydro-1H-imidazol-2-ylmethyl)-2-[(E)-methoxyiminomethyl]aniline

$$$$
