
     RDKit          3D

 50 52  0  0  0  0  0  0  0  0999 V2000
   -7.2225    0.2167   -0.6228 O   0  0  0  0  0  0  0  0  0  0  0  0
   -5.9946   -0.4602   -0.6951 C   0  0  0  0  0  0  0  0  0  0  0  0
   -5.8271   -1.2252   -1.6724 O   0  0  0  0  0  0  0  0  0  0  0  0
   -4.9981   -0.2254    0.3735 C   0  0  0  0  0  0  0  0  0  0  0  0
   -3.9246    0.7733   -0.0186 C   0  0  0  0  0  0  0  0  0  0  0  0
   -3.1490    0.3233   -1.2120 C   0  0  0  0  0  0  0  0  0  0  0  0
   -2.1362   -0.7422   -0.8655 C   0  0  0  0  0  0  0  0  0  0  0  0
   -1.1445   -0.1686    0.1590 C   0  0  0  0  0  0  0  0  0  0  0  0
   -1.8571    0.3498    1.3716 C   0  0  0  0  0  0  0  0  0  0  0  0
   -3.0655    1.1631    1.1429 C   0  0  0  0  0  0  0  0  0  0  0  0
   -0.3327   -1.3809    0.6160 C   0  0  0  0  0  0  0  0  0  0  0  0
    0.7063   -0.8531    1.5800 C   0  0  0  0  0  0  0  0  0  0  0  0
    1.5951   -0.0373    0.7634 N   0  0  0  0  0  0  0  0  0  0  0  0
    1.1224    0.8910   -0.2355 C   0  0  0  0  0  0  0  0  0  0  0  0
   -0.3199    0.8387   -0.5493 C   0  0  0  0  0  0  0  0  0  0  0  0
    3.0280   -0.1169    0.9179 C   0  0  0  0  0  0  0  0  0  0  0  0
    3.7350   -0.5359   -0.1841 C   0  0  0  0  0  0  0  0  0  0  0  0
    5.1062   -0.6290   -0.0838 C   0  0  0  0  0  0  0  0  0  0  0  0
    5.7302   -0.3044    1.1017 C   0  0  0  0  0  0  0  0  0  0  0  0
    5.0454    0.1201    2.2262 C   0  0  0  0  0  0  0  0  0  0  0  0
    3.6529    0.2075    2.1030 C   0  0  0  0  0  0  0  0  0  0  0  0
    2.9109    0.6158    3.1601 F   0  0  0  0  0  0  0  0  0  0  0  0
    5.7951   -1.0532   -1.2058 O   0  0  0  0  0  0  0  0  0  0  0  0
    6.2703   -0.1393   -2.1776 C   0  0  0  0  0  0  0  0  0  0  0  0
    5.2565    0.5800   -2.7386 F   0  0  0  0  0  0  0  0  0  0  0  0
    7.1152    0.7466   -1.5354 F   0  0  0  0  0  0  0  0  0  0  0  0
    7.0225   -0.8424   -3.1040 F   0  0  0  0  0  0  0  0  0  0  0  0
   -7.7145    0.4775   -1.4674 H   0  0  0  0  0  0  0  0  0  0  0  0
   -5.5340    0.0955    1.2823 H   0  0  0  0  0  0  0  0  0  0  0  0
   -4.5211   -1.2376    0.5463 H   0  0  0  0  0  0  0  0  0  0  0  0
   -4.4756    1.7035   -0.3301 H   0  0  0  0  0  0  0  0  0  0  0  0
   -2.5824    1.1758   -1.6571 H   0  0  0  0  0  0  0  0  0  0  0  0
   -3.8274   -0.0943   -1.9780 H   0  0  0  0  0  0  0  0  0  0  0  0
   -1.5257   -0.8870   -1.7944 H   0  0  0  0  0  0  0  0  0  0  0  0
   -2.5569   -1.6903   -0.5403 H   0  0  0  0  0  0  0  0  0  0  0  0
   -1.1095    1.0139    1.8948 H   0  0  0  0  0  0  0  0  0  0  0  0
   -2.0574   -0.4894    2.0510 H   0  0  0  0  0  0  0  0  0  0  0  0
   -2.8013    2.2580    1.0804 H   0  0  0  0  0  0  0  0  0  0  0  0
   -3.7225    1.0870    2.0595 H   0  0  0  0  0  0  0  0  0  0  0  0
    0.1996   -1.8455   -0.2308 H   0  0  0  0  0  0  0  0  0  0  0  0
   -1.0151   -2.0430    1.1550 H   0  0  0  0  0  0  0  0  0  0  0  0
    1.2764   -1.7309    1.9727 H   0  0  0  0  0  0  0  0  0  0  0  0
    0.3011   -0.3456    2.4543 H   0  0  0  0  0  0  0  0  0  0  0  0
    1.4619    1.9010    0.1314 H   0  0  0  0  0  0  0  0  0  0  0  0
    1.7050    0.7186   -1.1786 H   0  0  0  0  0  0  0  0  0  0  0  0
   -0.4886    0.7961   -1.6662 H   0  0  0  0  0  0  0  0  0  0  0  0
   -0.7537    1.8475   -0.2799 H   0  0  0  0  0  0  0  0  0  0  0  0
    3.2397   -0.7838   -1.0965 H   0  0  0  0  0  0  0  0  0  0  0  0
    6.8242   -0.4055    1.1007 H   0  0  0  0  0  0  0  0  0  0  0  0
    5.5575    0.3670    3.1392 H   0  0  0  0  0  0  0  0  0  0  0  0
  1  2  1  0
  2  3  2  0
  2  4  1  0
  4  5  1  0
  5  6  1  0
  6  7  1  0
  7  8  1  0
  8  9  1  0
  9 10  1  0
  8 11  1  0
 11 12  1  0
 12 13  1  0
 13 14  1  0
 14 15  1  0
 13 16  1  0
 16 17  2  0
 17 18  1  0
 18 19  2  0
 19 20  1  0
 20 21  2  0
 21 22  1  0
 18 23  1  0
 23 24  1  0
 24 25  1  0
 24 26  1  0
 24 27  1  0
 10  5  1  0
 21 16  1  0
 15  8  1  0
  1 28  1  0
  4 29  1  0
  4 30  1  0
  5 31  1  0
  6 32  1  0
  6 33  1  0
  7 34  1  0
  7 35  1  0
  9 36  1  0
  9 37  1  0
 10 38  1  0
 10 39  1  0
 11 40  1  0
 11 41  1  0
 12 42  1  0
 12 43  1  0
 14 44  1  0
 14 45  1  0
 15 46  1  0
 15 47  1  0
 17 48  1  0
 19 49  1  0
 20 50  1  0
M  END
>  <Ligand ID>  (1) 
LIG0002979

>  <Ligand>  (1) 
CHEMBL3891920

>  <SMILES>  (1) 
OC(=O)CC1CCC2(CC1)CCN(CC2)c1cc(ccc1F)OC(F)(F)F

>  <CID>  (1) 
73777069.0

>  <ChEMBL ID>  (1) 
nan

>  <InChiKey>  (1) 
OBTYEVSIGAFZBO-UHFFFAOYSA-N

>  <InChi>  (1) 
InChI=1S/C19H23F4NO3/c20-15-2-1-14(27-19(21,22)23)12-16(15)24-9-7-18(8-10-24)5-3-13(4-6-18)11-17(25)26/h1-2,12-13H,3-11H2,(H,25,26)

>  <IUPAC Name>  (1) 
2-[3-[2-fluoro-5-(trifluoromethoxy)phenyl]-3-azaspiro[5.5]undecan-9-yl]acetic acid

$$$$
