
     RDKit          3D

 69 74  0  0  0  0  0  0  0  0999 V2000
    2.0250   -4.9055    0.5072 C   0  0  0  0  0  0  0  0  0  0  0  0
    0.9109   -4.2347   -0.0513 O   0  0  0  0  0  0  0  0  0  0  0  0
    1.0291   -3.0285   -0.7029 C   0  0  0  0  0  0  0  0  0  0  0  0
    2.1937   -2.5314   -0.7860 O   0  0  0  0  0  0  0  0  0  0  0  0
   -0.0764   -2.2650   -1.3135 C   0  0  2  0  0  0  0  0  0  0  0  0
    0.5407   -1.0665   -1.9741 C   0  0  0  0  0  0  0  0  0  0  0  0
    0.8805    0.0717   -1.0703 C   0  0  2  0  0  0  0  0  0  0  0  0
    2.1633    0.0953   -0.5454 O   0  0  0  0  0  0  0  0  0  0  0  0
    2.9812    1.1787   -0.8502 C   0  0  0  0  0  0  0  0  0  0  0  0
    2.5718    2.1215   -1.5866 O   0  0  0  0  0  0  0  0  0  0  0  0
    4.3431    1.2677   -0.3311 C   0  0  0  0  0  0  0  0  0  0  0  0
    5.1950    2.3152   -0.5999 C   0  0  0  0  0  0  0  0  0  0  0  0
    6.3872    2.0757    0.0446 C   0  0  0  0  0  0  0  0  0  0  0  0
    6.2119    0.8590    0.6992 C   0  0  0  0  0  0  0  0  0  0  0  0
    4.9929    0.4519    0.4303 O   0  0  0  0  0  0  0  0  0  0  0  0
    7.2747    0.3622    1.4434 C   0  0  0  0  0  0  0  0  0  0  0  0
    8.4739    1.0669    1.5259 C   0  0  0  0  0  0  0  0  0  0  0  0
    8.6008    2.2667    0.8610 C   0  0  0  0  0  0  0  0  0  0  0  0
    7.5739    2.7846    0.1193 C   0  0  0  0  0  0  0  0  0  0  0  0
   -0.2044    0.1628   -0.0217 C   0  0  0  0  0  0  0  0  0  0  0  0
    0.0210    0.7618    1.0011 O   0  0  0  0  0  0  0  0  0  0  0  0
   -1.4834   -0.5102   -0.3532 C   0  0  1  0  0  0  0  0  0  0  0  0
   -1.2396   -1.9780   -0.4421 C   0  0  2  0  0  0  0  0  0  0  0  0
   -1.0408   -2.6666    0.8645 C   0  0  0  0  0  0  0  0  0  0  0  0
   -2.5256   -2.5858   -1.0334 C   0  0  0  0  0  0  0  0  0  0  0  0
   -3.7165   -2.2181   -0.2008 C   0  0  0  0  0  0  0  0  0  0  0  0
   -3.8908   -0.7275   -0.1595 C   0  0  2  0  0  0  0  0  0  0  0  0
   -2.6507   -0.0299    0.3931 C   0  0  1  0  0  0  0  0  0  0  0  0
   -2.6097   -0.0182    1.8745 C   0  0  0  0  0  0  0  0  0  0  0  0
   -2.8527    1.4385   -0.0342 C   0  0  0  0  0  0  0  0  0  0  0  0
   -4.0810    2.0072    0.5932 C   0  0  2  0  0  0  0  0  0  0  0  0
   -5.0136    1.0776    1.0550 O   0  0  0  0  0  0  0  0  0  0  0  0
   -5.0115   -0.2711    0.6560 C   0  0  0  0  0  0  0  0  0  0  0  0
   -5.9523   -1.0321    1.0033 O   0  0  0  0  0  0  0  0  0  0  0  0
   -4.6532    2.9844   -0.3892 C   0  0  0  0  0  0  0  0  0  0  0  0
   -5.4831    2.7244   -1.4677 C   0  0  0  0  0  0  0  0  0  0  0  0
   -5.7640    3.8578   -2.0838 O   0  0  0  0  0  0  0  0  0  0  0  0
   -5.1776    4.8749   -1.4932 C   0  0  0  0  0  0  0  0  0  0  0  0
   -4.4689    4.3627   -0.4214 C   0  0  0  0  0  0  0  0  0  0  0  0
    2.4487   -5.5468   -0.2972 H   0  0  0  0  0  0  0  0  0  0  0  0
    1.6800   -5.5622    1.3077 H   0  0  0  0  0  0  0  0  0  0  0  0
    2.7923   -4.2051    0.8784 H   0  0  0  0  0  0  0  0  0  0  0  0
   -0.4356   -2.9100   -2.1705 H   0  0  0  0  0  0  0  0  0  0  0  0
   -0.1417   -0.7600   -2.7979 H   0  0  0  0  0  0  0  0  0  0  0  0
    1.4776   -1.4092   -2.4612 H   0  0  0  0  0  0  0  0  0  0  0  0
    0.7380    0.9979   -1.6847 H   0  0  0  0  0  0  0  0  0  0  0  0
    5.0148    3.1966   -1.2030 H   0  0  0  0  0  0  0  0  0  0  0  0
    7.1578   -0.5803    1.9584 H   0  0  0  0  0  0  0  0  0  0  0  0
    9.3205    0.6798    2.1136 H   0  0  0  0  0  0  0  0  0  0  0  0
    9.5223    2.8634    0.8913 H   0  0  0  0  0  0  0  0  0  0  0  0
    7.6559    3.7176   -0.4046 H   0  0  0  0  0  0  0  0  0  0  0  0
   -1.7047   -0.2077   -1.4240 H   0  0  0  0  0  0  0  0  0  0  0  0
   -1.8219   -2.4254    1.6182 H   0  0  0  0  0  0  0  0  0  0  0  0
   -0.0190   -2.6002    1.2876 H   0  0  0  0  0  0  0  0  0  0  0  0
   -1.2152   -3.7653    0.6834 H   0  0  0  0  0  0  0  0  0  0  0  0
   -2.4535   -3.6642   -1.1654 H   0  0  0  0  0  0  0  0  0  0  0  0
   -2.6606   -2.0462   -2.0078 H   0  0  0  0  0  0  0  0  0  0  0  0
   -3.7374   -2.6509    0.8088 H   0  0  0  0  0  0  0  0  0  0  0  0
   -4.6037   -2.6181   -0.7461 H   0  0  0  0  0  0  0  0  0  0  0  0
   -4.0218   -0.3488   -1.2025 H   0  0  0  0  0  0  0  0  0  0  0  0
   -2.9857    0.9548    2.3169 H   0  0  0  0  0  0  0  0  0  0  0  0
   -3.4051   -0.7400    2.2307 H   0  0  0  0  0  0  0  0  0  0  0  0
   -1.6397   -0.1605    2.3520 H   0  0  0  0  0  0  0  0  0  0  0  0
   -1.9526    1.9678    0.3786 H   0  0  0  0  0  0  0  0  0  0  0  0
   -2.7872    1.5454   -1.1269 H   0  0  0  0  0  0  0  0  0  0  0  0
   -3.7965    2.6318    1.4908 H   0  0  0  0  0  0  0  0  0  0  0  0
   -5.8463    1.7373   -1.7600 H   0  0  0  0  0  0  0  0  0  0  0  0
   -5.2000    5.9290   -1.7405 H   0  0  0  0  0  0  0  0  0  0  0  0
   -3.8543    4.8794    0.3103 H   0  0  0  0  0  0  0  0  0  0  0  0
  1  2  1  0
  2  3  1  0
  3  4  2  0
  3  5  1  0
  5  6  1  0
  6  7  1  0
  7  8  1  0
  8  9  1  0
  9 10  2  0
  9 11  1  0
 11 12  2  0
 12 13  1  0
 13 14  2  0
 14 15  1  0
 14 16  1  0
 16 17  2  0
 17 18  1  0
 18 19  2  0
  7 20  1  0
 20 21  2  0
 20 22  1  0
 22 23  1  0
 23 24  1  1
 23 25  1  0
 25 26  1  0
 26 27  1  0
 27 28  1  0
 28 29  1  1
 28 30  1  0
 30 31  1  0
 31 32  1  0
 32 33  1  0
 33 34  2  0
 31 35  1  0
 35 36  2  0
 36 37  1  0
 37 38  1  0
 38 39  2  0
 23  5  1  0
 33 27  1  0
 39 35  1  0
 15 11  1  0
 28 22  1  0
 19 13  1  0
  1 40  1  0
  1 41  1  0
  1 42  1  0
  5 43  1  6
  6 44  1  0
  6 45  1  0
  7 46  1  6
 12 47  1  0
 16 48  1  0
 17 49  1  0
 18 50  1  0
 19 51  1  0
 22 52  1  6
 24 53  1  0
 24 54  1  0
 24 55  1  0
 25 56  1  0
 25 57  1  0
 26 58  1  0
 26 59  1  0
 27 60  1  6
 29 61  1  0
 29 62  1  0
 29 63  1  0
 30 64  1  0
 30 65  1  0
 31 66  1  1
 36 67  1  0
 38 68  1  0
 39 69  1  0
M  END
>  <Ligand ID>  (1) 
LIG0005152

>  <Ligand>  (1) 
CHEMBL260121

>  <SMILES>  (1) 
COC(=O)[C@@H]1C[C@H](OC(=O)c2cc3c(o2)cccc3)C(=O)[C@H]2[C@@]1(C)CC[C@@H]1[C@]2(C)C[C@H](OC1=O)c1cocc1

>  <CID>  (1) 
24854180.0

>  <ChEMBL ID>  (1) 
nan

>  <InChiKey>  (1) 
LMEHDXHLTZLSLY-KJOAITKCSA-N

>  <InChi>  (1) 
InChI=1S/C30H30O9/c1-29-10-8-18-27(33)39-23(17-9-11-36-15-17)14-30(18,2)25(29)24(31)21(13-19(29)26(32)35-3)38-28(34)22-12-16-6-4-5-7-20(16)37-22/h4-7,9,11-12,15,18-19,21,23,25H,8,10,13-14H2,1-3H3/t18-,19-,21-,23-,25-,29-,30-/m0/s1

>  <IUPAC Name>  (1) 
methyl (2S,4aR,6aR,7R,9S,10aS,10bR)-9-(1-benzofuran-2-carbonyloxy)-2-(furan-3-yl)-6a,10b-dimethyl-4,10-dioxo-2,4a,5,6,7,8,9,10a-octahydro-1H-benzo[f]isochromene-7-carboxylate

$$$$
