
     RDKit          3D

 57 62  0  0  0  0  0  0  0  0999 V2000
    9.9653    1.9563   -0.3426 C   0  0  0  0  0  0  0  0  0  0  0  0
    9.7949    0.5678   -0.2270 O   0  0  0  0  0  0  0  0  0  0  0  0
    8.5555   -0.0216    0.0329 C   0  0  0  0  0  0  0  0  0  0  0  0
    7.4217    0.7586    0.1919 C   0  0  0  0  0  0  0  0  0  0  0  0
    6.2490    0.0872    0.4427 C   0  0  0  0  0  0  0  0  0  0  0  0
    6.1624   -1.2893    0.5382 C   0  0  0  0  0  0  0  0  0  0  0  0
    7.2786   -2.0575    0.3816 C   0  0  0  0  0  0  0  0  0  0  0  0
    8.4705   -1.3972    0.1279 C   0  0  0  0  0  0  0  0  0  0  0  0
    4.8437   -1.9406    0.8174 C   0  0  0  0  0  0  0  0  0  0  0  0
    4.7025   -3.2972    0.8783 C   0  0  0  0  0  0  0  0  0  0  0  0
    2.8517   -3.4445    1.2010 S   0  0  0  0  0  0  0  0  0  0  0  0
    2.6070   -1.6738    1.1960 C   0  0  0  0  0  0  0  0  0  0  0  0
    3.7787   -1.2149    0.9820 N   0  0  0  0  0  0  0  0  0  0  0  0
    1.4215   -0.9549    1.3717 N   0  0  0  0  0  0  0  0  0  0  0  0
    0.1118   -1.5604    1.4841 C   0  0  0  0  0  0  0  0  0  0  0  0
   -0.0929   -2.7724    1.4268 O   0  0  0  0  0  0  0  0  0  0  0  0
   -0.9607   -0.5217    1.6784 C   0  0  0  0  0  0  0  0  0  0  0  0
   -1.1274    0.4574    0.1619 S   0  0  0  0  0  0  0  0  0  0  0  0
   -1.9554   -0.4192   -1.1277 C   0  0  0  0  0  0  0  0  0  0  0  0
   -1.4713   -1.2425   -2.0698 N   0  0  0  0  0  0  0  0  0  0  0  0
   -2.4814   -1.6657   -2.8496 N   0  0  0  0  0  0  0  0  0  0  0  0
   -3.6343   -1.1032   -2.3999 C   0  0  0  0  0  0  0  0  0  0  0  0
   -3.3069   -0.3403   -1.3436 N   0  0  0  0  0  0  0  0  0  0  0  0
   -4.2950    0.3496   -0.7160 C   0  0  0  0  0  0  0  0  0  0  0  0
   -4.0667    1.1585    0.3702 C   0  0  0  0  0  0  0  0  0  0  0  0
   -5.0796    1.8684    1.0089 C   0  0  0  0  0  0  0  0  0  0  0  0
   -4.7073    2.6556    2.1017 O   0  0  0  0  0  0  0  0  0  0  0  0
   -5.6737    3.2572    2.9457 C   0  0  0  0  0  0  0  0  0  0  0  0
   -7.0347    3.3695    2.3580 C   0  0  0  0  0  0  0  0  0  0  0  0
   -7.3154    2.5313    1.2644 O   0  0  0  0  0  0  0  0  0  0  0  0
   -6.3693    1.7956    0.5798 C   0  0  0  0  0  0  0  0  0  0  0  0
   -6.6342    0.9919   -0.5070 C   0  0  0  0  0  0  0  0  0  0  0  0
   -5.6218    0.2769   -1.1505 C   0  0  0  0  0  0  0  0  0  0  0  0
   -5.9560   -0.5124   -2.2411 C   0  0  0  0  0  0  0  0  0  0  0  0
   -4.9251   -1.2084   -2.8628 C   0  0  0  0  0  0  0  0  0  0  0  0
   -5.3067   -2.0517   -4.0243 C   0  0  0  0  0  0  0  0  0  0  0  0
    9.7645    2.3337   -1.3457 H   0  0  0  0  0  0  0  0  0  0  0  0
   11.0382    2.2042   -0.1047 H   0  0  0  0  0  0  0  0  0  0  0  0
    9.3514    2.5217    0.4149 H   0  0  0  0  0  0  0  0  0  0  0  0
    7.4355    1.8439    0.1282 H   0  0  0  0  0  0  0  0  0  0  0  0
    5.3615    0.7125    0.5659 H   0  0  0  0  0  0  0  0  0  0  0  0
    7.2149   -3.1466    0.4591 H   0  0  0  0  0  0  0  0  0  0  0  0
    9.3379   -2.0359    0.0102 H   0  0  0  0  0  0  0  0  0  0  0  0
    5.3081   -4.1324    0.7919 H   0  0  0  0  0  0  0  0  0  0  0  0
    1.5186    0.1019    1.4233 H   0  0  0  0  0  0  0  0  0  0  0  0
   -1.9176   -1.0449    1.8306 H   0  0  0  0  0  0  0  0  0  0  0  0
   -0.7828    0.1326    2.5400 H   0  0  0  0  0  0  0  0  0  0  0  0
   -3.0946    1.2713    0.7556 H   0  0  0  0  0  0  0  0  0  0  0  0
   -5.2155    4.2384    3.2397 H   0  0  0  0  0  0  0  0  0  0  0  0
   -5.6796    2.6520    3.8891 H   0  0  0  0  0  0  0  0  0  0  0  0
   -7.2191    4.4539    2.1342 H   0  0  0  0  0  0  0  0  0  0  0  0
   -7.7634    3.0916    3.1545 H   0  0  0  0  0  0  0  0  0  0  0  0
   -7.6333    0.9170   -0.8588 H   0  0  0  0  0  0  0  0  0  0  0  0
   -6.9661   -0.5690   -2.5686 H   0  0  0  0  0  0  0  0  0  0  0  0
   -5.9848   -1.5100   -4.7240 H   0  0  0  0  0  0  0  0  0  0  0  0
   -5.8502   -2.9715   -3.6568 H   0  0  0  0  0  0  0  0  0  0  0  0
   -4.4222   -2.4571   -4.5689 H   0  0  0  0  0  0  0  0  0  0  0  0
  1  2  1  0
  2  3  1  0
  3  4  2  0
  4  5  1  0
  5  6  2  0
  6  7  1  0
  7  8  2  0
  6  9  1  0
  9 10  2  0
 10 11  1  0
 11 12  1  0
 12 13  2  0
 12 14  1  0
 14 15  1  0
 15 16  2  0
 15 17  1  0
 17 18  1  0
 18 19  1  0
 19 20  2  0
 20 21  1  0
 21 22  2  0
 22 23  1  0
 23 24  1  0
 24 25  2  0
 25 26  1  0
 26 27  1  0
 27 28  1  0
 28 29  1  0
 29 30  1  0
 30 31  1  0
 31 32  1  0
 32 33  2  0
 33 34  1  0
 34 35  2  0
 35 36  1  0
  8  3  1  0
 13  9  1  0
 23 19  1  0
 33 24  1  0
 35 22  1  0
 31 26  2  0
  1 37  1  0
  1 38  1  0
  1 39  1  0
  4 40  1  0
  5 41  1  0
  7 42  1  0
  8 43  1  0
 10 44  1  0
 14 45  1  0
 17 46  1  0
 17 47  1  0
 25 48  1  0
 28 49  1  0
 28 50  1  0
 29 51  1  0
 29 52  1  0
 32 53  1  0
 34 54  1  0
 36 55  1  0
 36 56  1  0
 36 57  1  0
M  END
>  <Ligand ID>  (1) 
LIG0001734

>  <Ligand>  (1) 
MLS-0435555.0001

>  <SMILES>  (1) 
COc1ccc(cc1)c1csc(n1)NC(=O)CSc1nnc2n1c1cc3OCCOc3cc1cc2C

>  <CID>  (1) 
3190037.0

>  <ChEMBL ID>  (1) 
nan

>  <InChiKey>  (1) 
PLKUYFLKWJFBTD-UHFFFAOYSA-N

>  <InChi>  (1) 
InChI=1S/C25H21N5O4S2/c1-14-9-16-10-20-21(34-8-7-33-20)11-19(16)30-23(14)28-29-25(30)36-13-22(31)27-24-26-18(12-35-24)15-3-5-17(32-2)6-4-15/h3-6,9-12H,7-8,13H2,1-2H3,(H,26,27,31)

>  <IUPAC Name>  (1) 
N-[4-(4-methoxyphenyl)-1,3-thiazol-2-yl]-2-[(16-methyl-4,7-dioxa-11,13,14-triazatetracyclo[8.7.0.03,8.011,15]heptadeca-1,3(8),9,12,14,16-hexaen-12-yl)sulfanyl]acetamide

$$$$
