
     RDKit          3D

145151  0  0  0  0  0  0  0  0999 V2000
   -3.0915    8.6898    1.9807 N   0  0  0  0  0  0  0  0  0  0  0  0
   -3.0280    8.3759    0.5969 C   0  0  0  0  0  0  0  0  0  0  0  0
   -2.6006    7.2601    0.1294 N   0  0  0  0  0  0  0  0  0  0  0  0
   -2.1309    6.1915    1.0261 C   0  0  0  0  0  0  0  0  0  0  0  0
   -0.8152    6.6387    1.6134 C   0  0  0  0  0  0  0  0  0  0  0  0
   -0.1934    5.6842    2.5611 C   0  0  0  0  0  0  0  0  0  0  0  0
    0.1359    4.3196    1.9877 C   0  0  2  0  0  0  0  0  0  0  0  0
    1.0487    4.5061    0.9205 N   0  0  0  0  0  0  0  0  0  0  0  0
    2.4765    4.2246    0.9751 C   0  0  0  0  0  0  0  0  0  0  0  0
    2.8238    3.7642    2.0703 O   0  0  0  0  0  0  0  0  0  0  0  0
    3.3071    4.4939   -0.1802 C   0  0  2  0  0  0  0  0  0  0  0  0
    2.5573    5.0778   -1.3728 C   0  0  0  0  0  0  0  0  0  0  0  0
    3.6929    5.0987   -2.4082 C   0  0  0  0  0  0  0  0  0  0  0  0
    4.7712    4.1619   -1.8839 C   0  0  0  0  0  0  0  0  0  0  0  0
    4.1730    3.5134   -0.7351 N   0  0  0  0  0  0  0  0  0  0  0  0
    4.3809    2.1778   -0.3081 C   0  0  0  0  0  0  0  0  0  0  0  0
    3.6646    1.8255    0.6378 O   0  0  0  0  0  0  0  0  0  0  0  0
    5.3920    1.2713   -0.9662 C   0  0  1  0  0  0  0  0  0  0  0  0
    6.7607    1.8754   -0.7361 C   0  0  0  0  0  0  0  0  0  0  0  0
    6.9143    1.6741    0.7629 C   0  0  0  0  0  0  0  0  0  0  0  0
    6.1128    0.4228    1.0945 C   0  0  0  0  0  0  0  0  0  0  0  0
    5.5595    0.0542   -0.1455 N   0  0  0  0  0  0  0  0  0  0  0  0
    5.1558   -1.1936   -0.6811 C   0  0  0  0  0  0  0  0  0  0  0  0
    4.6856   -1.1505   -1.8305 O   0  0  0  0  0  0  0  0  0  0  0  0
    5.2613   -2.5008    0.0552 C   0  0  2  0  0  0  0  0  0  0  0  0
    6.6595   -2.9408    0.2049 C   0  0  0  0  0  0  0  0  0  0  0  0
    6.7131   -4.2131    0.9672 C   0  0  0  0  0  0  0  0  0  0  0  0
    6.7451   -4.0800    2.3599 C   0  0  0  0  0  0  0  0  0  0  0  0
    6.8058   -5.2129    3.1515 C   0  0  0  0  0  0  0  0  0  0  0  0
    6.8366   -6.4746    2.6031 C   0  0  0  0  0  0  0  0  0  0  0  0
    6.8053   -6.6071    1.2207 C   0  0  0  0  0  0  0  0  0  0  0  0
    6.7443   -5.4607    0.4456 C   0  0  0  0  0  0  0  0  0  0  0  0
    4.4719   -3.5063   -0.7029 N   0  0  0  0  0  0  0  0  0  0  0  0
    3.0612   -3.3814   -0.8453 C   0  0  0  0  0  0  0  0  0  0  0  0
    2.5703   -2.3296   -0.4168 O   0  0  0  0  0  0  0  0  0  0  0  0
    2.2300   -4.4719   -1.4973 C   0  0  1  0  0  0  0  0  0  0  0  0
    0.9874   -3.9457   -1.9836 N   0  0  0  0  0  0  0  0  0  0  0  0
   -0.0821   -3.4296   -1.2093 C   0  0  0  0  0  0  0  0  0  0  0  0
    0.1244   -3.3648    0.0112 O   0  0  0  0  0  0  0  0  0  0  0  0
   -1.3796   -2.9796   -1.8483 C   0  0  1  0  0  0  0  0  0  0  0  0
   -2.1461   -2.1500   -1.0002 N   0  0  0  0  0  0  0  0  0  0  0  0
   -3.1459   -2.5741   -0.0545 C   0  0  0  0  0  0  0  0  0  0  0  0
   -3.3070   -3.7900    0.0175 O   0  0  0  0  0  0  0  0  0  0  0  0
   -3.8725   -1.5399    0.7357 C   0  0  1  0  0  0  0  0  0  0  0  0
   -3.5543   -0.2089    0.2424 N   0  0  0  0  0  0  0  0  0  0  0  0
   -2.4958    0.6109    0.7027 C   0  0  0  0  0  0  0  0  0  0  0  0
   -1.7626    0.1246    1.5624 O   0  0  0  0  0  0  0  0  0  0  0  0
   -2.3408    1.9758    0.1236 C   0  0  1  0  0  0  0  0  0  0  0  0
   -1.1441    2.6728    0.4921 N   0  0  0  0  0  0  0  0  0  0  0  0
   -1.0458    3.5013    1.6825 C   0  0  0  0  0  0  0  0  0  0  0  0
   -2.0600    3.4253    2.3990 O   0  0  0  0  0  0  0  0  0  0  0  0
   -2.4705    1.9373   -1.3638 C   0  0  0  0  0  0  0  0  0  0  0  0
   -2.3055    3.2753   -2.0195 C   0  0  0  0  0  0  0  0  0  0  0  0
   -3.3755    4.1237   -2.2177 C   0  0  0  0  0  0  0  0  0  0  0  0
   -3.2719    5.3576   -2.8218 C   0  0  0  0  0  0  0  0  0  0  0  0
   -2.0118    5.7750   -3.2584 C   0  0  0  0  0  0  0  0  0  0  0  0
   -0.9130    4.9515   -3.0776 C   0  0  0  0  0  0  0  0  0  0  0  0
   -1.0756    3.7240   -2.4661 C   0  0  0  0  0  0  0  0  0  0  0  0
   -5.3520   -1.6959    0.6175 C   0  0  0  0  0  0  0  0  0  0  0  0
   -5.9140   -2.9799    1.0635 C   0  0  0  0  0  0  0  0  0  0  0  0
   -6.2775   -3.1207    2.4050 C   0  0  0  0  0  0  0  0  0  0  0  0
   -6.8356   -4.3084    2.8361 C   0  0  0  0  0  0  0  0  0  0  0  0
   -7.0443   -5.3737    1.9569 C   0  0  0  0  0  0  0  0  0  0  0  0
   -6.6783   -5.2216    0.6274 C   0  0  0  0  0  0  0  0  0  0  0  0
   -6.1174   -4.0270    0.1953 C   0  0  0  0  0  0  0  0  0  0  0  0
   -7.6428   -6.6182    2.4170 C   0  0  0  0  0  0  0  0  0  0  0  0
   -7.4805   -7.1224    3.6888 C   0  0  0  0  0  0  0  0  0  0  0  0
   -8.0745   -8.2962    4.0500 C   0  0  0  0  0  0  0  0  0  0  0  0
   -8.8639   -9.0339    3.1626 C   0  0  0  0  0  0  0  0  0  0  0  0
   -9.0129   -8.5045    1.8809 C   0  0  0  0  0  0  0  0  0  0  0  0
   -8.4139   -7.3150    1.5085 C   0  0  0  0  0  0  0  0  0  0  0  0
   -1.2866   -2.6840   -3.2786 C   0  0  0  0  0  0  0  0  0  0  0  0
   -0.3727   -1.6510   -3.7418 C   0  0  0  0  0  0  0  0  0  0  0  0
   -0.3286   -1.4318   -5.0040 O   0  0  0  0  0  0  0  0  0  0  0  0
    0.4670   -0.8751   -2.9055 N   0  0  0  0  0  0  0  0  0  0  0  0
    2.9850   -5.1685   -2.5647 C   0  0  0  0  0  0  0  0  0  0  0  0
   -3.4672    9.3564   -0.3356 N   0  0  0  0  0  0  0  0  0  0  0  0
   -3.6875    8.1487    2.6406 H   0  0  0  0  0  0  0  0  0  0  0  0
   -2.5238    9.4794    2.3265 H   0  0  0  0  0  0  0  0  0  0  0  0
   -1.9677    5.3263    0.3623 H   0  0  0  0  0  0  0  0  0  0  0  0
   -2.8842    5.9708    1.8073 H   0  0  0  0  0  0  0  0  0  0  0  0
   -0.1617    6.8801    0.7475 H   0  0  0  0  0  0  0  0  0  0  0  0
   -0.9541    7.6323    2.1292 H   0  0  0  0  0  0  0  0  0  0  0  0
   -0.9297    5.5133    3.3958 H   0  0  0  0  0  0  0  0  0  0  0  0
    0.6879    6.1503    3.0457 H   0  0  0  0  0  0  0  0  0  0  0  0
    0.6262    3.7903    2.8717 H   0  0  0  0  0  0  0  0  0  0  0  0
    0.7336    4.8620    0.0203 H   0  0  0  0  0  0  0  0  0  0  0  0
    4.0195    5.3555    0.0991 H   0  0  0  0  0  0  0  0  0  0  0  0
    2.2662    6.1141   -1.1154 H   0  0  0  0  0  0  0  0  0  0  0  0
    1.7165    4.4773   -1.7088 H   0  0  0  0  0  0  0  0  0  0  0  0
    3.3818    4.7378   -3.3907 H   0  0  0  0  0  0  0  0  0  0  0  0
    4.0840    6.1331   -2.4866 H   0  0  0  0  0  0  0  0  0  0  0  0
    5.1797    3.5009   -2.6452 H   0  0  0  0  0  0  0  0  0  0  0  0
    5.5648    4.8351   -1.4753 H   0  0  0  0  0  0  0  0  0  0  0  0
    5.1677    1.0590   -2.0048 H   0  0  0  0  0  0  0  0  0  0  0  0
    6.8642    2.9151   -1.0298 H   0  0  0  0  0  0  0  0  0  0  0  0
    7.4935    1.2062   -1.2794 H   0  0  0  0  0  0  0  0  0  0  0  0
    6.4964    2.5789    1.2451 H   0  0  0  0  0  0  0  0  0  0  0  0
    7.9984    1.5615    1.0043 H   0  0  0  0  0  0  0  0  0  0  0  0
    5.2933    0.7855    1.7712 H   0  0  0  0  0  0  0  0  0  0  0  0
    6.7424   -0.3176    1.6261 H   0  0  0  0  0  0  0  0  0  0  0  0
    4.7432   -2.3418    0.9968 H   0  0  0  0  0  0  0  0  0  0  0  0
    7.1004   -3.2110   -0.8253 H   0  0  0  0  0  0  0  0  0  0  0  0
    7.3201   -2.1826    0.5890 H   0  0  0  0  0  0  0  0  0  0  0  0
    6.7233   -3.0902    2.8334 H   0  0  0  0  0  0  0  0  0  0  0  0
    6.8334   -5.1346    4.2478 H   0  0  0  0  0  0  0  0  0  0  0  0
    6.8820   -7.3551    3.2049 H   0  0  0  0  0  0  0  0  0  0  0  0
    6.8268   -7.5793    0.7822 H   0  0  0  0  0  0  0  0  0  0  0  0
    6.7355   -5.5946   -0.6113 H   0  0  0  0  0  0  0  0  0  0  0  0
    4.8858   -4.3141   -1.1599 H   0  0  0  0  0  0  0  0  0  0  0  0
    1.9835   -5.1340   -0.6046 H   0  0  0  0  0  0  0  0  0  0  0  0
    0.8327   -3.9280   -3.0012 H   0  0  0  0  0  0  0  0  0  0  0  0
   -1.9532   -3.9864   -1.8067 H   0  0  0  0  0  0  0  0  0  0  0  0
   -2.0082   -1.1300   -1.0252 H   0  0  0  0  0  0  0  0  0  0  0  0
   -3.5479   -1.7146    1.7659 H   0  0  0  0  0  0  0  0  0  0  0  0
   -4.1395    0.1699   -0.5008 H   0  0  0  0  0  0  0  0  0  0  0  0
   -3.2603    2.4956    0.5321 H   0  0  0  0  0  0  0  0  0  0  0  0
   -0.2739    2.6366   -0.0408 H   0  0  0  0  0  0  0  0  0  0  0  0
   -3.5214    1.6332   -1.6765 H   0  0  0  0  0  0  0  0  0  0  0  0
   -1.8324    1.1713   -1.8421 H   0  0  0  0  0  0  0  0  0  0  0  0
   -4.3386    3.7671   -1.8667 H   0  0  0  0  0  0  0  0  0  0  0  0
   -4.1152    6.0184   -2.9761 H   0  0  0  0  0  0  0  0  0  0  0  0
   -1.8728    6.7490   -3.7446 H   0  0  0  0  0  0  0  0  0  0  0  0
    0.0395    5.3251   -3.4331 H   0  0  0  0  0  0  0  0  0  0  0  0
   -0.1795    3.1250   -2.3593 H   0  0  0  0  0  0  0  0  0  0  0  0
   -5.9109   -0.9109    1.1827 H   0  0  0  0  0  0  0  0  0  0  0  0
   -5.6954   -1.5244   -0.4515 H   0  0  0  0  0  0  0  0  0  0  0  0
   -6.1099   -2.2801    3.0701 H   0  0  0  0  0  0  0  0  0  0  0  0
   -7.1313   -4.4573    3.8571 H   0  0  0  0  0  0  0  0  0  0  0  0
   -6.8291   -6.0249   -0.0665 H   0  0  0  0  0  0  0  0  0  0  0  0
   -5.8587   -3.9767   -0.8717 H   0  0  0  0  0  0  0  0  0  0  0  0
   -6.8554   -6.5298    4.3782 H   0  0  0  0  0  0  0  0  0  0  0  0
   -7.9444   -8.6970    5.0675 H   0  0  0  0  0  0  0  0  0  0  0  0
   -9.3359   -9.9605    3.4382 H   0  0  0  0  0  0  0  0  0  0  0  0
   -9.6065   -9.0090    1.1312 H   0  0  0  0  0  0  0  0  0  0  0  0
   -8.5574   -6.9404    0.5052 H   0  0  0  0  0  0  0  0  0  0  0  0
   -2.3428   -2.5264   -3.6477 H   0  0  0  0  0  0  0  0  0  0  0  0
   -1.0023   -3.6405   -3.8153 H   0  0  0  0  0  0  0  0  0  0  0  0
    1.4322   -1.1816   -2.6204 H   0  0  0  0  0  0  0  0  0  0  0  0
    0.1315    0.0412   -2.5531 H   0  0  0  0  0  0  0  0  0  0  0  0
    3.6357   -4.4704   -3.1258 H   0  0  0  0  0  0  0  0  0  0  0  0
    2.2352   -5.6024   -3.2801 H   0  0  0  0  0  0  0  0  0  0  0  0
    3.6084   -6.0198   -2.1720 H   0  0  0  0  0  0  0  0  0  0  0  0
   -4.3202    9.2123   -0.9389 H   0  0  0  0  0  0  0  0  0  0  0  0
   -2.9118   10.2283   -0.4043 H   0  0  0  0  0  0  0  0  0  0  0  0
  1  2  1  0
  2  3  2  3
  3  4  1  0
  4  5  1  0
  5  6  1  0
  6  7  1  0
  7  8  1  0
  8  9  1  0
  9 10  2  0
  9 11  1  0
 11 12  1  0
 12 13  1  0
 13 14  1  0
 14 15  1  0
 15 16  1  0
 16 17  2  0
 16 18  1  0
 18 19  1  0
 19 20  1  0
 20 21  1  0
 21 22  1  0
 22 23  1  0
 23 24  2  0
 23 25  1  0
 25 26  1  0
 26 27  1  0
 27 28  2  0
 28 29  1  0
 29 30  2  0
 30 31  1  0
 31 32  2  0
 25 33  1  0
 33 34  1  0
 34 35  2  0
 34 36  1  0
 36 37  1  0
 37 38  1  0
 38 39  2  0
 38 40  1  0
 40 41  1  0
 41 42  1  0
 42 43  2  0
 42 44  1  0
 44 45  1  0
 45 46  1  0
 46 47  2  0
 46 48  1  0
 48 49  1  0
 49 50  1  0
 50 51  2  0
 48 52  1  0
 52 53  1  0
 53 54  2  0
 54 55  1  0
 55 56  2  0
 56 57  1  0
 57 58  2  0
 44 59  1  0
 59 60  1  0
 60 61  2  0
 61 62  1  0
 62 63  2  0
 63 64  1  0
 64 65  2  0
 63 66  1  0
 66 67  2  0
 67 68  1  0
 68 69  2  0
 69 70  1  0
 70 71  2  0
 40 72  1  0
 72 73  1  0
 73 74  2  0
 73 75  1  0
 36 76  1  0
  2 77  1  0
 50  7  1  0
 58 53  1  0
 65 60  1  0
 71 66  1  0
 15 11  1  0
 22 18  1  0
 32 27  1  0
  1 78  1  0
  1 79  1  0
  4 80  1  0
  4 81  1  0
  5 82  1  0
  5 83  1  0
  6 84  1  0
  6 85  1  0
  7 86  1  1
  8 87  1  0
 11 88  1  1
 12 89  1  0
 12 90  1  0
 13 91  1  0
 13 92  1  0
 14 93  1  0
 14 94  1  0
 18 95  1  6
 19 96  1  0
 19 97  1  0
 20 98  1  0
 20 99  1  0
 21100  1  0
 21101  1  0
 25102  1  1
 26103  1  0
 26104  1  0
 28105  1  0
 29106  1  0
 30107  1  0
 31108  1  0
 32109  1  0
 33110  1  0
 36111  1  1
 37112  1  0
 40113  1  6
 41114  1  0
 44115  1  1
 45116  1  0
 48117  1  1
 49118  1  0
 52119  1  0
 52120  1  0
 54121  1  0
 55122  1  0
 56123  1  0
 57124  1  0
 58125  1  0
 59126  1  0
 59127  1  0
 61128  1  0
 62129  1  0
 64130  1  0
 65131  1  0
 67132  1  0
 68133  1  0
 69134  1  0
 70135  1  0
 71136  1  0
 72137  1  0
 72138  1  0
 75139  1  0
 75140  1  0
 76141  1  0
 76142  1  0
 76143  1  0
 77144  1  0
 77145  1  0
M  END
>  <Ligand ID>  (1) 
LIG0005497

>  <Ligand>  (1) 
CHEMBL3577988

>  <SMILES>  (1) 
NC(=NCCC[C@@H]1NC(=O)[C@@H]2CCCN2C(=O)[C@H]2CCCN2C(=O)[C@H](Cc2ccccc2)NC(=O)[C@@H](NC(=O)[C@@H](NC(=O)[C@@H](NC(=O)[C@@H](NC1=O)Cc1ccccc1)Cc1ccc(cc1)c1ccccc1)CC(=O)N)C)N

>  <CID>  (1) 
122178159.0

>  <ChEMBL ID>  (1) 
nan

>  <InChiKey>  (1) 
LSXYNCPPYBOAHI-DYRRNQNHSA-N

>  <InChi>  (1) 
InChI=1S/C56H68N12O9/c1-34-48(70)66-44(32-36-16-7-3-8-17-36)54(76)68-29-13-22-46(68)55(77)67-28-12-21-45(67)53(75)62-40(20-11-27-60-56(58)59)49(71)63-41(30-35-14-5-2-6-15-35)51(73)64-42(52(74)65-43(33-47(57)69)50(72)61-34)31-37-23-25-39(26-24-37)38-18-9-4-10-19-38/h2-10,14-19,23-26,34,40-46H,11-13,20-22,27-33H2,1H3,(H2,57,69)(H,61,72)(H,62,75)(H,63,71)(H,64,73)(H,65,74)(H,66,70)(H4,58,59,60)/t34-,40-,41-,42-,43-,44-,45-,46+/m0/s1

>  <IUPAC Name>  (1) 
2-[(3R,9S,12S,15S,18S,21S,24S,27S)-9,21-dibenzyl-24-[3-(diaminomethylideneamino)propyl]-12-methyl-2,8,11,14,17,20,23,26-octaoxo-18-[(4-phenylphenyl)methyl]-1,7,10,13,16,19,22,25-octazatricyclo[25.3.0.03,7]triacontan-15-yl]acetamide

$$$$
