
     RDKit          3D

102105  0  0  0  0  0  0  0  0999 V2000
    9.2821   -0.9016    1.4303 C   0  0  0  0  0  0  0  0  0  0  0  0
    8.1557    0.1152    1.4312 C   0  0  0  0  0  0  0  0  0  0  0  0
    7.0235   -0.3405    0.5350 C   0  0  0  0  0  0  0  0  0  0  0  0
    5.9488    0.6790    0.5646 C   0  0  0  0  0  0  0  0  0  0  0  0
    6.0035    1.7310    1.2328 O   0  0  0  0  0  0  0  0  0  0  0  0
    4.7888    0.3988   -0.2413 N   0  0  0  0  0  0  0  0  0  0  0  0
    3.7071    1.3513   -0.2570 C   0  0  2  0  0  0  0  0  0  0  0  0
    2.4835    0.6631    0.2686 C   0  0  0  0  0  0  0  0  0  0  0  0
    1.4403    1.3809    0.3136 O   0  0  0  0  0  0  0  0  0  0  0  0
    2.4954   -0.6977    0.6855 N   0  0  0  0  0  0  0  0  0  0  0  0
    1.3291   -1.3882    1.1887 C   0  0  2  0  0  0  0  0  0  0  0  0
    0.1869   -1.2318    0.2196 C   0  0  0  0  0  0  0  0  0  0  0  0
    0.3098   -0.6202   -0.8679 O   0  0  0  0  0  0  0  0  0  0  0  0
   -1.0869   -1.7811    0.5121 N   0  0  0  0  0  0  0  0  0  0  0  0
   -2.1985   -1.6279   -0.4391 C   0  0  2  0  0  0  0  0  0  0  0  0
   -3.1551   -0.6917    0.2510 C   0  0  0  0  0  0  0  0  0  0  0  0
   -2.7795   -0.3301    1.4179 O   0  0  0  0  0  0  0  0  0  0  0  0
   -4.3548   -0.2532   -0.3352 N   0  0  0  0  0  0  0  0  0  0  0  0
   -5.2123    0.6580    0.4259 C   0  0  2  0  0  0  0  0  0  0  0  0
   -6.4831   -0.0048    0.6843 C   0  0  0  0  0  0  0  0  0  0  0  0
   -7.4003    0.4151    1.4348 O   0  0  0  0  0  0  0  0  0  0  0  0
   -6.7685   -1.2704    0.0407 N   0  0  0  0  0  0  0  0  0  0  0  0
   -5.2864    1.9905   -0.1978 C   0  0  0  0  0  0  0  0  0  0  0  0
   -6.1595    2.9184    0.5221 C   0  0  0  0  0  0  0  0  0  0  0  0
   -5.7758    3.7847    1.5394 C   0  0  0  0  0  0  0  0  0  0  0  0
   -6.8389    4.4631    2.0039 N   0  0  0  0  0  0  0  0  0  0  0  0
   -7.9332    4.0808    1.3284 C   0  0  0  0  0  0  0  0  0  0  0  0
   -7.5372    3.1280    0.4083 C   0  0  0  0  0  0  0  0  0  0  0  0
   -8.5190    2.6058   -0.4206 C   0  0  0  0  0  0  0  0  0  0  0  0
   -9.8365    2.9952   -0.3555 C   0  0  0  0  0  0  0  0  0  0  0  0
  -10.2283    3.9595    0.5805 C   0  0  0  0  0  0  0  0  0  0  0  0
   -9.2490    4.4728    1.3977 C   0  0  0  0  0  0  0  0  0  0  0  0
   -2.8021   -2.9706   -0.6514 C   0  0  0  0  0  0  0  0  0  0  0  0
   -1.8000   -3.9412   -1.2111 C   0  0  0  0  0  0  0  0  0  0  0  0
   -1.2386   -3.5392   -2.5489 C   0  0  0  0  0  0  0  0  0  0  0  0
   -2.3446   -3.4430   -3.5055 N   0  0  0  0  0  0  0  0  0  0  0  0
   -2.3000   -4.2356   -4.5463 C   0  0  0  0  0  0  0  0  0  0  0  0
   -1.2052   -5.1345   -4.6991 N   0  0  0  0  0  0  0  0  0  0  0  0
   -3.3342   -4.2081   -5.5262 N   0  0  0  0  0  0  0  0  0  0  0  0
    0.9779   -0.8472    2.5472 C   0  0  0  0  0  0  0  0  0  0  0  0
    2.0765   -1.0293    3.5195 C   0  0  0  0  0  0  0  0  0  0  0  0
    3.0569   -0.0907    3.6980 C   0  0  0  0  0  0  0  0  0  0  0  0
    4.0452   -0.3249    4.6165 C   0  0  0  0  0  0  0  0  0  0  0  0
    4.1176   -1.4684    5.3888 C   0  0  0  0  0  0  0  0  0  0  0  0
    3.1056   -2.4057    5.1848 C   0  0  0  0  0  0  0  0  0  0  0  0
    2.0959   -2.2010    4.2680 C   0  0  0  0  0  0  0  0  0  0  0  0
    3.4286    1.8389   -1.6655 C   0  0  0  0  0  0  0  0  0  0  0  0
    4.6485    2.4884   -2.1996 C   0  0  0  0  0  0  0  0  0  0  0  0
    4.9176    3.8307   -2.0667 C   0  0  0  0  0  0  0  0  0  0  0  0
    6.0951    4.3106   -2.6125 C   0  0  0  0  0  0  0  0  0  0  0  0
    7.0014    3.5166   -3.2757 C   0  0  0  0  0  0  0  0  0  0  0  0
    6.7163    2.1818   -3.3981 C   0  0  0  0  0  0  0  0  0  0  0  0
    5.5479    1.6695   -2.8640 C   0  0  0  0  0  0  0  0  0  0  0  0
    8.4784    4.1159   -3.9609 Cl  0  0  0  0  0  0  0  0  0  0  0  0
    8.9818   -1.7791    2.0357 H   0  0  0  0  0  0  0  0  0  0  0  0
   10.1790   -0.4022    1.8257 H   0  0  0  0  0  0  0  0  0  0  0  0
    9.4711   -1.1890    0.3762 H   0  0  0  0  0  0  0  0  0  0  0  0
    7.8201    0.1957    2.4828 H   0  0  0  0  0  0  0  0  0  0  0  0
    8.5497    1.0761    1.0821 H   0  0  0  0  0  0  0  0  0  0  0  0
    6.6555   -1.3027    0.9371 H   0  0  0  0  0  0  0  0  0  0  0  0
    7.3882   -0.5110   -0.4893 H   0  0  0  0  0  0  0  0  0  0  0  0
    4.7055   -0.4608   -0.8084 H   0  0  0  0  0  0  0  0  0  0  0  0
    3.8948    2.2256    0.3780 H   0  0  0  0  0  0  0  0  0  0  0  0
    3.4131   -1.1922    0.6097 H   0  0  0  0  0  0  0  0  0  0  0  0
    1.5724   -2.4778    1.2771 H   0  0  0  0  0  0  0  0  0  0  0  0
   -1.2860   -2.3013    1.3874 H   0  0  0  0  0  0  0  0  0  0  0  0
   -1.8698   -1.1782   -1.3948 H   0  0  0  0  0  0  0  0  0  0  0  0
   -4.5957   -0.5895   -1.2904 H   0  0  0  0  0  0  0  0  0  0  0  0
   -4.6920    0.7835    1.4147 H   0  0  0  0  0  0  0  0  0  0  0  0
   -7.1529   -1.2269   -0.9285 H   0  0  0  0  0  0  0  0  0  0  0  0
   -6.6127   -2.1775    0.4869 H   0  0  0  0  0  0  0  0  0  0  0  0
   -4.2508    2.4593   -0.1728 H   0  0  0  0  0  0  0  0  0  0  0  0
   -5.6496    1.9714   -1.2580 H   0  0  0  0  0  0  0  0  0  0  0  0
   -4.7443    3.8961    1.9100 H   0  0  0  0  0  0  0  0  0  0  0  0
   -6.7498    5.1746    2.7857 H   0  0  0  0  0  0  0  0  0  0  0  0
   -8.1746    1.8592   -1.1337 H   0  0  0  0  0  0  0  0  0  0  0  0
  -10.5768    2.5657   -1.0196 H   0  0  0  0  0  0  0  0  0  0  0  0
  -11.2651    4.2635    0.6303 H   0  0  0  0  0  0  0  0  0  0  0  0
   -9.5195    5.2223    2.1350 H   0  0  0  0  0  0  0  0  0  0  0  0
   -3.1036   -3.3580    0.3518 H   0  0  0  0  0  0  0  0  0  0  0  0
   -3.6733   -2.9618   -1.3376 H   0  0  0  0  0  0  0  0  0  0  0  0
   -0.9308   -4.0668   -0.5238 H   0  0  0  0  0  0  0  0  0  0  0  0
   -2.3034   -4.9454   -1.2919 H   0  0  0  0  0  0  0  0  0  0  0  0
   -0.4824   -4.2811   -2.8980 H   0  0  0  0  0  0  0  0  0  0  0  0
   -0.7056   -2.5830   -2.4549 H   0  0  0  0  0  0  0  0  0  0  0  0
   -1.3281   -6.1877   -4.6654 H   0  0  0  0  0  0  0  0  0  0  0  0
   -0.2208   -4.8225   -4.8524 H   0  0  0  0  0  0  0  0  0  0  0  0
   -4.2069   -4.7686   -5.4609 H   0  0  0  0  0  0  0  0  0  0  0  0
   -3.1598   -3.5677   -6.3460 H   0  0  0  0  0  0  0  0  0  0  0  0
    0.7505    0.2390    2.4898 H   0  0  0  0  0  0  0  0  0  0  0  0
    0.0630   -1.3140    2.9664 H   0  0  0  0  0  0  0  0  0  0  0  0
    3.0729    0.8295    3.1338 H   0  0  0  0  0  0  0  0  0  0  0  0
    4.8091    0.4204    4.7461 H   0  0  0  0  0  0  0  0  0  0  0  0
    4.9004   -1.6339    6.1032 H   0  0  0  0  0  0  0  0  0  0  0  0
    3.1147   -3.3212    5.7650 H   0  0  0  0  0  0  0  0  0  0  0  0
    1.3014   -2.9342    4.1065 H   0  0  0  0  0  0  0  0  0  0  0  0
    3.0993    1.0361   -2.3431 H   0  0  0  0  0  0  0  0  0  0  0  0
    2.5931    2.5709   -1.5943 H   0  0  0  0  0  0  0  0  0  0  0  0
    4.2263    4.4589   -1.5567 H   0  0  0  0  0  0  0  0  0  0  0  0
    6.3201    5.3729   -2.5144 H   0  0  0  0  0  0  0  0  0  0  0  0
    7.3827    1.5220   -3.9013 H   0  0  0  0  0  0  0  0  0  0  0  0
    5.3533    0.6266   -2.9751 H   0  0  0  0  0  0  0  0  0  0  0  0
  1  2  1  0
  2  3  1  0
  3  4  1  0
  4  5  2  0
  4  6  1  0
  6  7  1  0
  7  8  1  0
  8  9  2  0
  8 10  1  0
 10 11  1  0
 11 12  1  0
 12 13  2  0
 12 14  1  0
 14 15  1  0
 15 16  1  0
 16 17  2  0
 16 18  1  0
 18 19  1  0
 19 20  1  0
 20 21  2  0
 20 22  1  0
 19 23  1  0
 23 24  1  0
 24 25  2  0
 25 26  1  0
 26 27  1  0
 27 28  2  0
 28 29  1  0
 29 30  2  0
 30 31  1  0
 31 32  2  0
 15 33  1  0
 33 34  1  0
 34 35  1  0
 35 36  1  0
 36 37  2  3
 37 38  1  0
 37 39  1  0
 11 40  1  0
 40 41  1  0
 41 42  2  0
 42 43  1  0
 43 44  2  0
 44 45  1  0
 45 46  2  0
  7 47  1  0
 47 48  1  0
 48 49  2  0
 49 50  1  0
 50 51  2  0
 51 52  1  0
 52 53  2  0
 51 54  1  0
 28 24  1  0
 46 41  1  0
 53 48  1  0
 32 27  1  0
  1 55  1  0
  1 56  1  0
  1 57  1  0
  2 58  1  0
  2 59  1  0
  3 60  1  0
  3 61  1  0
  6 62  1  0
  7 63  1  1
 10 64  1  0
 11 65  1  1
 14 66  1  0
 15 67  1  6
 18 68  1  0
 19 69  1  1
 22 70  1  0
 22 71  1  0
 23 72  1  0
 23 73  1  0
 25 74  1  0
 26 75  1  0
 29 76  1  0
 30 77  1  0
 31 78  1  0
 32 79  1  0
 33 80  1  0
 33 81  1  0
 34 82  1  0
 34 83  1  0
 35 84  1  0
 35 85  1  0
 38 86  1  0
 38 87  1  0
 39 88  1  0
 39 89  1  0
 40 90  1  0
 40 91  1  0
 42 92  1  0
 43 93  1  0
 44 94  1  0
 45 95  1  0
 46 96  1  0
 47 97  1  0
 47 98  1  0
 49 99  1  0
 50100  1  0
 52101  1  0
 53102  1  0
M  END
>  <Ligand ID>  (1) 
LIG0004139

>  <Ligand>  (1) 
CHEMBL363272

>  <SMILES>  (1) 
CCCC(=O)N[C@H](C(=O)N[C@H](C(=O)N[C@H](C(=O)N[C@H](C(=O)N)Cc1c[nH]c2c1cccc2)CCCN=C(N)N)Cc1ccccc1)Cc1ccc(cc1)Cl

>  <CID>  (1) 
44394627.0

>  <ChEMBL ID>  (1) 
nan

>  <InChiKey>  (1) 
JBHAIRRLXKTNIC-YRCZKMHPSA-N

>  <InChi>  (1) 
InChI=1S/C39H48ClN9O5/c1-2-9-34(50)46-32(21-25-15-17-27(40)18-16-25)37(53)49-33(20-24-10-4-3-5-11-24)38(54)47-30(14-8-19-44-39(42)43)36(52)48-31(35(41)51)22-26-23-45-29-13-7-6-12-28(26)29/h3-7,10-13,15-18,23,30-33,45H,2,8-9,14,19-22H2,1H3,(H2,41,51)(H,46,50)(H,47,54)(H,48,52)(H,49,53)(H4,42,43,44)/t30-,31-,32-,33-/m0/s1

>  <IUPAC Name>  (1) 
(2S)-N-[(2S)-1-amino-3-(1H-indol-3-yl)-1-oxopropan-2-yl]-2-[[(2S)-2-[[(2S)-2-(butanoylamino)-3-(4-chlorophenyl)propanoyl]amino]-3-phenylpropanoyl]amino]-5-(diaminomethylideneamino)pentanamide

$$$$
