
     RDKit          3D

118123  0  0  0  0  0  0  0  0999 V2000
    4.1454   -4.3798    1.1458 N   0  0  0  0  0  0  0  0  0  0  0  0
    3.5289   -4.3514   -0.1298 C   0  0  0  0  0  0  0  0  0  0  0  0
    4.0472   -4.9196   -1.1079 O   0  0  0  0  0  0  0  0  0  0  0  0
    2.2457   -3.6496   -0.3420 C   0  0  0  0  0  0  0  0  0  0  0  0
    1.7834   -2.9826    0.8251 N   0  0  0  0  0  0  0  0  0  0  0  0
    1.0765   -3.5760    1.9347 C   0  0  0  0  0  0  0  0  0  0  0  0
   -0.3593   -3.2933    2.0544 C   0  0  0  0  0  0  0  0  0  0  0  0
   -1.2097   -3.6360    0.9917 N   0  0  0  0  0  0  0  0  0  0  0  0
   -1.2533   -3.1907   -0.3376 C   0  0  0  0  0  0  0  0  0  0  0  0
   -0.4599   -2.3805   -0.7520 O   0  0  0  0  0  0  0  0  0  0  0  0
   -2.2561   -3.6663   -1.3262 C   0  0  0  0  0  0  0  0  0  0  0  0
   -1.7210   -4.6866   -2.1357 C   0  0  0  0  0  0  0  0  0  0  0  0
   -2.4767   -5.2839   -3.1136 C   0  0  0  0  0  0  0  0  0  0  0  0
   -3.7736   -4.8312   -3.2552 C   0  0  0  0  0  0  0  0  0  0  0  0
   -4.2846   -3.8343   -2.4619 C   0  0  0  0  0  0  0  0  0  0  0  0
   -3.5113   -3.2137   -1.4519 C   0  0  0  0  0  0  0  0  0  0  0  0
   -4.1780   -2.1483   -0.7465 C   0  0  0  0  0  0  0  0  0  0  0  0
   -5.4141   -1.9776   -0.8910 O   0  0  0  0  0  0  0  0  0  0  0  0
   -3.5871   -1.2033    0.1393 N   0  0  0  0  0  0  0  0  0  0  0  0
   -4.3246   -0.1358    0.7865 C   0  0  1  0  0  0  0  0  0  0  0  0
   -4.2398   -0.1194    2.2660 C   0  0  0  0  0  0  0  0  0  0  0  0
   -4.7708   -1.3638    2.8762 C   0  0  0  0  0  0  0  0  0  0  0  0
   -6.1331   -1.3609    3.1827 C   0  0  0  0  0  0  0  0  0  0  0  0
   -6.7434   -2.4761    3.7577 C   0  0  0  0  0  0  0  0  0  0  0  0
   -5.9523   -3.5804    4.0116 C   0  0  0  0  0  0  0  0  0  0  0  0
   -4.6036   -3.5924    3.7117 C   0  0  0  0  0  0  0  0  0  0  0  0
   -4.0007   -2.4703    3.1360 C   0  0  0  0  0  0  0  0  0  0  0  0
   -3.9123    1.1962    0.2567 C   0  0  0  0  0  0  0  0  0  0  0  0
   -4.4101    2.2790    0.5799 O   0  0  0  0  0  0  0  0  0  0  0  0
   -2.8459    1.3175   -0.7197 N   0  0  0  0  0  0  0  0  0  0  0  0
   -2.4810    2.5815   -1.3262 C   0  0  1  0  0  0  0  0  0  0  0  0
   -1.0751    2.9312   -1.3664 C   0  0  0  0  0  0  0  0  0  0  0  0
   -0.7130    3.9268   -2.0356 O   0  0  0  0  0  0  0  0  0  0  0  0
    0.0165    2.2677   -0.7042 N   0  0  0  0  0  0  0  0  0  0  0  0
    1.3811    2.7051   -1.0327 C   0  0  2  0  0  0  0  0  0  0  0  0
    2.3344    1.5574   -0.9872 C   0  0  0  0  0  0  0  0  0  0  0  0
    3.3166    1.4220   -1.7238 O   0  0  0  0  0  0  0  0  0  0  0  0
    2.1122    0.5610   -0.0231 N   0  0  0  0  0  0  0  0  0  0  0  0
    2.8806   -0.7330    0.0473 C   0  0  2  0  0  0  0  0  0  0  0  0
    2.1243   -1.6103    0.9403 C   0  0  0  0  0  0  0  0  0  0  0  0
    1.6686   -1.1033    1.9844 O   0  0  0  0  0  0  0  0  0  0  0  0
    4.2278   -0.2778    0.6130 C   0  0  0  0  0  0  0  0  0  0  0  0
    5.2459   -1.2668    0.8160 C   0  0  0  0  0  0  0  0  0  0  0  0
    5.7443   -1.7318    2.0404 C   0  0  0  0  0  0  0  0  0  0  0  0
    6.7272   -2.6181    1.7949 N   0  0  0  0  0  0  0  0  0  0  0  0
    6.9012   -2.7604    0.4681 C   0  0  0  0  0  0  0  0  0  0  0  0
    5.9896   -1.9295   -0.1348 C   0  0  0  0  0  0  0  0  0  0  0  0
    5.9415   -1.8745   -1.5179 C   0  0  0  0  0  0  0  0  0  0  0  0
    6.7790   -2.6271   -2.3233 C   0  0  0  0  0  0  0  0  0  0  0  0
    7.6965   -3.4636   -1.7179 C   0  0  0  0  0  0  0  0  0  0  0  0
    7.7437   -3.5172   -0.3334 C   0  0  0  0  0  0  0  0  0  0  0  0
    1.8775    3.6265    0.0837 C   0  0  0  0  0  0  0  0  0  0  0  0
    1.0433    4.8410    0.2894 C   0  0  0  0  0  0  0  0  0  0  0  0
    1.7012    5.6216    1.4249 C   0  0  0  0  0  0  0  0  0  0  0  0
    1.0092    6.8286    1.7599 N   0  0  0  0  0  0  0  0  0  0  0  0
    1.3214    7.3489    2.9219 C   0  0  0  0  0  0  0  0  0  0  0  0
    2.3034    6.6794    3.7312 N   0  0  0  0  0  0  0  0  0  0  0  0
    0.7134    8.5500    3.3937 N   0  0  0  0  0  0  0  0  0  0  0  0
   -2.9818    2.4133   -2.7786 C   0  0  0  0  0  0  0  0  0  0  0  0
   -2.7468    3.5480   -3.6481 C   0  0  0  0  0  0  0  0  0  0  0  0
   -3.6684    4.5836   -3.6512 C   0  0  0  0  0  0  0  0  0  0  0  0
   -3.5578    5.6933   -4.4534 C   0  0  0  0  0  0  0  0  0  0  0  0
   -2.4703    5.7747   -5.2970 C   0  0  0  0  0  0  0  0  0  0  0  0
   -1.5262    4.7782   -5.3356 C   0  0  0  0  0  0  0  0  0  0  0  0
   -1.6770    3.6908   -4.5192 C   0  0  0  0  0  0  0  0  0  0  0  0
    3.7422   -3.8060    1.9155 H   0  0  0  0  0  0  0  0  0  0  0  0
    4.9845   -4.9462    1.3629 H   0  0  0  0  0  0  0  0  0  0  0  0
    1.4199   -4.3506   -0.6222 H   0  0  0  0  0  0  0  0  0  0  0  0
    2.3207   -2.9680   -1.2307 H   0  0  0  0  0  0  0  0  0  0  0  0
    1.5967   -3.1728    2.8611 H   0  0  0  0  0  0  0  0  0  0  0  0
    1.3207   -4.6751    1.9907 H   0  0  0  0  0  0  0  0  0  0  0  0
   -0.4096   -2.1454    2.2516 H   0  0  0  0  0  0  0  0  0  0  0  0
   -0.7487   -3.7468    3.0325 H   0  0  0  0  0  0  0  0  0  0  0  0
   -1.9703   -4.3621    1.1926 H   0  0  0  0  0  0  0  0  0  0  0  0
   -0.6857   -4.9185   -1.9196 H   0  0  0  0  0  0  0  0  0  0  0  0
   -2.0398   -6.0640   -3.7157 H   0  0  0  0  0  0  0  0  0  0  0  0
   -4.3676   -5.3112   -4.0317 H   0  0  0  0  0  0  0  0  0  0  0  0
   -5.3072   -3.5425   -2.6445 H   0  0  0  0  0  0  0  0  0  0  0  0
   -2.6032   -1.2931    0.3221 H   0  0  0  0  0  0  0  0  0  0  0  0
   -5.4136   -0.2875    0.5076 H   0  0  0  0  0  0  0  0  0  0  0  0
   -4.7596    0.7332    2.7362 H   0  0  0  0  0  0  0  0  0  0  0  0
   -3.1604    0.0135    2.5822 H   0  0  0  0  0  0  0  0  0  0  0  0
   -6.7398   -0.4846    2.9755 H   0  0  0  0  0  0  0  0  0  0  0  0
   -7.8016   -2.4419    3.9829 H   0  0  0  0  0  0  0  0  0  0  0  0
   -6.4603   -4.4326    4.4597 H   0  0  0  0  0  0  0  0  0  0  0  0
   -4.0356   -4.4634    3.9237 H   0  0  0  0  0  0  0  0  0  0  0  0
   -2.9577   -2.4430    2.8943 H   0  0  0  0  0  0  0  0  0  0  0  0
   -2.3841    0.4334   -0.9301 H   0  0  0  0  0  0  0  0  0  0  0  0
   -3.0710    3.4224   -0.8712 H   0  0  0  0  0  0  0  0  0  0  0  0
   -0.2483    1.5500   -0.0546 H   0  0  0  0  0  0  0  0  0  0  0  0
    1.4901    3.2543   -1.9402 H   0  0  0  0  0  0  0  0  0  0  0  0
    1.3964    0.7295    0.6803 H   0  0  0  0  0  0  0  0  0  0  0  0
    3.1052   -1.1109   -0.9355 H   0  0  0  0  0  0  0  0  0  0  0  0
    4.5900    0.5827   -0.0116 H   0  0  0  0  0  0  0  0  0  0  0  0
    3.9707    0.1765    1.6145 H   0  0  0  0  0  0  0  0  0  0  0  0
    5.3798   -1.4112    2.9885 H   0  0  0  0  0  0  0  0  0  0  0  0
    7.3188   -3.1593    2.4793 H   0  0  0  0  0  0  0  0  0  0  0  0
    5.2316   -1.2267   -2.0331 H   0  0  0  0  0  0  0  0  0  0  0  0
    6.6995   -2.5466   -3.3968 H   0  0  0  0  0  0  0  0  0  0  0  0
    8.3597   -4.0593   -2.3276 H   0  0  0  0  0  0  0  0  0  0  0  0
    8.4620   -4.1703    0.1514 H   0  0  0  0  0  0  0  0  0  0  0  0
    1.9904    3.0413    1.0177 H   0  0  0  0  0  0  0  0  0  0  0  0
    2.9121    3.9644   -0.1981 H   0  0  0  0  0  0  0  0  0  0  0  0
   -0.0170    4.6187    0.5250 H   0  0  0  0  0  0  0  0  0  0  0  0
    1.0547    5.4859   -0.6108 H   0  0  0  0  0  0  0  0  0  0  0  0
    2.7216    5.8787    1.0466 H   0  0  0  0  0  0  0  0  0  0  0  0
    1.8456    4.9093    2.2578 H   0  0  0  0  0  0  0  0  0  0  0  0
    3.3077    6.9590    3.6418 H   0  0  0  0  0  0  0  0  0  0  0  0
    2.0135    5.9131    4.4111 H   0  0  0  0  0  0  0  0  0  0  0  0
    0.9877    9.4994    3.0601 H   0  0  0  0  0  0  0  0  0  0  0  0
   -0.0479    8.4102    4.1187 H   0  0  0  0  0  0  0  0  0  0  0  0
   -2.4839    1.4836   -3.1536 H   0  0  0  0  0  0  0  0  0  0  0  0
   -4.0600    2.1569   -2.6889 H   0  0  0  0  0  0  0  0  0  0  0  0
   -4.5250    4.5289   -2.9924 H   0  0  0  0  0  0  0  0  0  0  0  0
   -4.2875    6.4920   -4.4423 H   0  0  0  0  0  0  0  0  0  0  0  0
   -2.3557    6.6452   -5.9482 H   0  0  0  0  0  0  0  0  0  0  0  0
   -0.6590    4.8470   -6.0113 H   0  0  0  0  0  0  0  0  0  0  0  0
   -0.9300    2.9043   -4.5571 H   0  0  0  0  0  0  0  0  0  0  0  0
  1  2  1  0
  2  3  2  0
  2  4  1  0
  4  5  1  0
  5  6  1  0
  6  7  1  0
  7  8  1  0
  8  9  1  0
  9 10  2  0
  9 11  1  0
 11 12  2  0
 12 13  1  0
 13 14  2  0
 14 15  1  0
 15 16  2  0
 16 17  1  0
 17 18  2  0
 17 19  1  0
 19 20  1  0
 20 21  1  0
 21 22  1  0
 22 23  2  0
 23 24  1  0
 24 25  2  0
 25 26  1  0
 26 27  2  0
 20 28  1  0
 28 29  2  0
 28 30  1  0
 30 31  1  0
 31 32  1  0
 32 33  2  0
 32 34  1  0
 34 35  1  0
 35 36  1  0
 36 37  2  0
 36 38  1  0
 38 39  1  0
 39 40  1  0
 40 41  2  0
 39 42  1  0
 42 43  1  0
 43 44  2  0
 44 45  1  0
 45 46  1  0
 46 47  2  0
 47 48  1  0
 48 49  2  0
 49 50  1  0
 50 51  2  0
 35 52  1  0
 52 53  1  0
 53 54  1  0
 54 55  1  0
 55 56  2  3
 56 57  1  0
 56 58  1  0
 31 59  1  0
 59 60  1  0
 60 61  2  0
 61 62  1  0
 62 63  2  0
 63 64  1  0
 64 65  2  0
 40  5  1  0
 47 43  1  0
 65 60  1  0
 16 11  1  0
 27 22  1  0
 51 46  1  0
  1 66  1  0
  1 67  1  0
  4 68  1  0
  4 69  1  0
  6 70  1  0
  6 71  1  0
  7 72  1  0
  7 73  1  0
  8 74  1  0
 12 75  1  0
 13 76  1  0
 14 77  1  0
 15 78  1  0
 19 79  1  0
 20 80  1  1
 21 81  1  0
 21 82  1  0
 23 83  1  0
 24 84  1  0
 25 85  1  0
 26 86  1  0
 27 87  1  0
 30 88  1  0
 31 89  1  1
 34 90  1  0
 35 91  1  6
 38 92  1  0
 39 93  1  6
 42 94  1  0
 42 95  1  0
 44 96  1  0
 45 97  1  0
 48 98  1  0
 49 99  1  0
 50100  1  0
 51101  1  0
 52102  1  0
 52103  1  0
 53104  1  0
 53105  1  0
 54106  1  0
 54107  1  0
 57108  1  0
 57109  1  0
 58110  1  0
 58111  1  0
 59112  1  0
 59113  1  0
 61114  1  0
 62115  1  0
 63116  1  0
 64117  1  0
 65118  1  0
M  END
>  <Ligand ID>  (1) 
LIG0001374

>  <Ligand>  (1) 
CHEMBL270923

>  <SMILES>  (1) 
NC(=O)CN1CCNC(=O)c2ccccc2C(=O)N[C@@H](Cc2ccccc2)C(=O)N[C@@H](C(=O)N[C@H](C(=O)N[C@H](C1=O)Cc1c[nH]c2c1cccc2)CCCN=C(N)N)Cc1ccccc1

>  <CID>  (1) 
44457043.0

>  <ChEMBL ID>  (1) 
nan

>  <InChiKey>  (1) 
WUPNBGOBZWSAPY-RUPCYPOASA-N

>  <InChi>  (1) 
InChI=1S/C47H53N11O7/c48-40(59)28-58-23-22-51-41(60)33-17-7-8-18-34(33)42(61)55-37(24-29-12-3-1-4-13-29)45(64)56-38(25-30-14-5-2-6-15-30)44(63)54-36(20-11-21-52-47(49)50)43(62)57-39(46(58)65)26-31-27-53-35-19-10-9-16-32(31)35/h1-10,12-19,27,36-39,53H,11,20-26,28H2,(H2,48,59)(H,51,60)(H,54,63)(H,55,61)(H,56,64)(H,57,62)(H4,49,50,52)/t36-,37-,38+,39-/m0/s1

>  <IUPAC Name>  (1) 
2-[(8S,11S,14R,17S)-14,17-dibenzyl-11-[3-(diaminomethylideneamino)propyl]-8-(1H-indol-3-ylmethyl)-2,7,10,13,16,19-hexaoxo-3,6,9,12,15,18-hexazabicyclo[18.4.0]tetracosa-1(24),20,22-trien-6-yl]acetamide

$$$$
