
     RDKit          3D

 99103  0  0  0  0  0  0  0  0999 V2000
    1.4198    4.9413   -2.2768 N   0  0  0  0  0  0  0  0  0  0  0  0
    2.3433    5.1757   -3.3309 C   0  0  0  0  0  0  0  0  0  0  0  0
    3.0573    4.2569   -3.8791 N   0  0  0  0  0  0  0  0  0  0  0  0
    3.0069    2.8463   -3.4828 C   0  0  0  0  0  0  0  0  0  0  0  0
    1.6592    2.2509   -3.7893 C   0  0  0  0  0  0  0  0  0  0  0  0
    1.4741    0.8220   -3.4727 C   0  0  0  0  0  0  0  0  0  0  0  0
    1.6164    0.3604   -2.0723 C   0  0  1  0  0  0  0  0  0  0  0  0
    2.9212    0.5706   -1.4312 C   0  0  0  0  0  0  0  0  0  0  0  0
    3.9368    0.1854   -2.0988 O   0  0  0  0  0  0  0  0  0  0  0  0
    3.0036    1.1622   -0.1569 N   0  0  0  0  0  0  0  0  0  0  0  0
    4.1250    1.4302    0.6591 C   0  0  2  0  0  0  0  0  0  0  0  0
    4.4867    2.8411    0.6599 C   0  0  0  0  0  0  0  0  0  0  0  0
    3.9185    3.7616    0.0395 O   0  0  0  0  0  0  0  0  0  0  0  0
    5.6213    3.2309    1.4597 N   0  0  0  0  0  0  0  0  0  0  0  0
    5.2974    0.5018    0.4147 C   0  0  0  0  0  0  0  0  0  0  0  0
    5.0383   -0.9159    0.7049 C   0  0  0  0  0  0  0  0  0  0  0  0
    4.8756   -2.0300   -0.0677 C   0  0  0  0  0  0  0  0  0  0  0  0
    4.6830   -3.1373    0.6898 N   0  0  0  0  0  0  0  0  0  0  0  0
    4.7188   -2.7563    1.9743 C   0  0  0  0  0  0  0  0  0  0  0  0
    4.9362   -1.3925    2.0231 C   0  0  0  0  0  0  0  0  0  0  0  0
    5.0062   -0.8192    3.2678 C   0  0  0  0  0  0  0  0  0  0  0  0
    4.8615   -1.5926    4.4120 C   0  0  0  0  0  0  0  0  0  0  0  0
    4.6430   -2.9592    4.3603 C   0  0  0  0  0  0  0  0  0  0  0  0
    4.5737   -3.5331    3.1079 C   0  0  0  0  0  0  0  0  0  0  0  0
    0.4760    0.7923   -1.2758 N   0  0  0  0  0  0  0  0  0  0  0  0
   -0.6018   -0.1075   -0.9526 C   0  0  0  0  0  0  0  0  0  0  0  0
   -0.6174   -1.3022   -1.3387 O   0  0  0  0  0  0  0  0  0  0  0  0
   -1.7071    0.4863   -0.1256 C   0  0  2  0  0  0  0  0  0  0  0  0
   -1.2407    0.8277    1.2759 C   0  0  0  0  0  0  0  0  0  0  0  0
   -0.8033   -0.3011    2.0904 C   0  0  0  0  0  0  0  0  0  0  0  0
    0.5057   -0.7464    2.1461 C   0  0  0  0  0  0  0  0  0  0  0  0
    0.9015   -1.8523    2.8711 C   0  0  0  0  0  0  0  0  0  0  0  0
    0.0107   -2.5926    3.5947 C   0  0  0  0  0  0  0  0  0  0  0  0
   -1.3176   -2.1676    3.5604 C   0  0  0  0  0  0  0  0  0  0  0  0
   -1.7143   -1.0634    2.8372 C   0  0  0  0  0  0  0  0  0  0  0  0
   -3.0513   -0.7301    2.9064 C   0  0  0  0  0  0  0  0  0  0  0  0
   -3.9452   -1.4764    3.6654 C   0  0  0  0  0  0  0  0  0  0  0  0
   -3.5229   -2.5803    4.3792 C   0  0  0  0  0  0  0  0  0  0  0  0
   -2.1989   -2.9193    4.3196 C   0  0  0  0  0  0  0  0  0  0  0  0
   -2.7694   -0.5136   -0.0862 N   0  0  0  0  0  0  0  0  0  0  0  0
   -4.1176   -0.2199   -0.4356 C   0  0  0  0  0  0  0  0  0  0  0  0
   -4.4942    0.9227   -0.8118 O   0  0  0  0  0  0  0  0  0  0  0  0
   -5.0941   -1.3289   -0.3382 C   0  0  2  0  0  0  0  0  0  0  0  0
   -4.6793   -2.4166   -1.2986 C   0  0  0  0  0  0  0  0  0  0  0  0
   -4.6757   -1.8584   -2.6672 C   0  0  0  0  0  0  0  0  0  0  0  0
   -3.7342   -1.2608   -3.3849 N   0  0  0  0  0  0  0  0  0  0  0  0
   -4.2055   -0.9165   -4.6115 C   0  0  0  0  0  0  0  0  0  0  0  0
   -5.4923   -1.3169   -4.6569 N   0  0  0  0  0  0  0  0  0  0  0  0
   -5.8021   -1.8937   -3.4834 C   0  0  0  0  0  0  0  0  0  0  0  0
   -6.4033   -0.7995   -0.7087 N   0  0  0  0  0  0  0  0  0  0  0  0
   -7.3882   -0.8065    0.3448 C   0  0  0  0  0  0  0  0  0  0  0  0
   -7.1219   -1.2412    1.4935 O   0  0  0  0  0  0  0  0  0  0  0  0
   -8.7528   -0.2770    0.0313 C   0  0  0  0  0  0  0  0  0  0  0  0
    2.5093    6.4994   -3.8321 N   0  0  0  0  0  0  0  0  0  0  0  0
    0.3961    5.0850   -2.4530 H   0  0  0  0  0  0  0  0  0  0  0  0
    1.6805    4.6327   -1.3258 H   0  0  0  0  0  0  0  0  0  0  0  0
    3.1508    2.7805   -2.3860 H   0  0  0  0  0  0  0  0  0  0  0  0
    3.7783    2.3274   -4.0574 H   0  0  0  0  0  0  0  0  0  0  0  0
    0.8433    2.9065   -3.3899 H   0  0  0  0  0  0  0  0  0  0  0  0
    1.5414    2.3729   -4.9118 H   0  0  0  0  0  0  0  0  0  0  0  0
    0.4237    0.5165   -3.7868 H   0  0  0  0  0  0  0  0  0  0  0  0
    2.1130    0.1981   -4.1499 H   0  0  0  0  0  0  0  0  0  0  0  0
    1.5105   -0.7782   -2.1384 H   0  0  0  0  0  0  0  0  0  0  0  0
    2.0502    1.4723    0.2467 H   0  0  0  0  0  0  0  0  0  0  0  0
    3.7829    1.1646    1.7378 H   0  0  0  0  0  0  0  0  0  0  0  0
    5.5494    2.9702    2.4811 H   0  0  0  0  0  0  0  0  0  0  0  0
    6.4366    3.7244    1.0696 H   0  0  0  0  0  0  0  0  0  0  0  0
    5.6648    0.5829   -0.6224 H   0  0  0  0  0  0  0  0  0  0  0  0
    6.1307    0.9083    1.0487 H   0  0  0  0  0  0  0  0  0  0  0  0
    4.8973   -2.0812   -1.1376 H   0  0  0  0  0  0  0  0  0  0  0  0
    4.5337   -4.1124    0.3214 H   0  0  0  0  0  0  0  0  0  0  0  0
    5.1782    0.2362    3.4041 H   0  0  0  0  0  0  0  0  0  0  0  0
    4.9171   -1.1256    5.4083 H   0  0  0  0  0  0  0  0  0  0  0  0
    4.5261   -3.5917    5.2058 H   0  0  0  0  0  0  0  0  0  0  0  0
    4.4031   -4.6098    3.0094 H   0  0  0  0  0  0  0  0  0  0  0  0
    0.4487    1.7945   -0.9361 H   0  0  0  0  0  0  0  0  0  0  0  0
   -2.0943    1.3955   -0.5825 H   0  0  0  0  0  0  0  0  0  0  0  0
   -0.4400    1.5979    1.1468 H   0  0  0  0  0  0  0  0  0  0  0  0
   -2.0645    1.3591    1.7797 H   0  0  0  0  0  0  0  0  0  0  0  0
    1.2529   -0.2219    1.6109 H   0  0  0  0  0  0  0  0  0  0  0  0
    1.9451   -2.1518    2.8746 H   0  0  0  0  0  0  0  0  0  0  0  0
    0.2994   -3.4542    4.1636 H   0  0  0  0  0  0  0  0  0  0  0  0
   -3.4694    0.1237    2.4001 H   0  0  0  0  0  0  0  0  0  0  0  0
   -4.9908   -1.2037    3.7095 H   0  0  0  0  0  0  0  0  0  0  0  0
   -4.2089   -3.1549    4.9628 H   0  0  0  0  0  0  0  0  0  0  0  0
   -1.8818   -3.7943    4.8910 H   0  0  0  0  0  0  0  0  0  0  0  0
   -2.4611   -1.4856    0.2148 H   0  0  0  0  0  0  0  0  0  0  0  0
   -5.1159   -1.6652    0.7179 H   0  0  0  0  0  0  0  0  0  0  0  0
   -5.3574   -3.3004   -1.2193 H   0  0  0  0  0  0  0  0  0  0  0  0
   -3.6432   -2.7364   -1.0555 H   0  0  0  0  0  0  0  0  0  0  0  0
   -2.7646   -1.0834   -3.0453 H   0  0  0  0  0  0  0  0  0  0  0  0
   -3.6186   -0.4168   -5.3753 H   0  0  0  0  0  0  0  0  0  0  0  0
   -6.7861   -2.3098   -3.2441 H   0  0  0  0  0  0  0  0  0  0  0  0
   -6.6132   -0.4416   -1.6642 H   0  0  0  0  0  0  0  0  0  0  0  0
   -9.3407   -1.1501   -0.3248 H   0  0  0  0  0  0  0  0  0  0  0  0
   -9.2323    0.1892    0.9222 H   0  0  0  0  0  0  0  0  0  0  0  0
   -8.6954    0.4978   -0.7435 H   0  0  0  0  0  0  0  0  0  0  0  0
    2.7115    7.2742   -3.1438 H   0  0  0  0  0  0  0  0  0  0  0  0
    2.4369    6.7176   -4.8557 H   0  0  0  0  0  0  0  0  0  0  0  0
  1  2  1  0
  2  3  2  3
  3  4  1  0
  4  5  1  0
  5  6  1  0
  6  7  1  0
  7  8  1  0
  8  9  2  0
  8 10  1  0
 10 11  1  0
 11 12  1  0
 12 13  2  0
 12 14  1  0
 11 15  1  0
 15 16  1  0
 16 17  2  0
 17 18  1  0
 18 19  1  0
 19 20  2  0
 20 21  1  0
 21 22  2  0
 22 23  1  0
 23 24  2  0
  7 25  1  0
 25 26  1  0
 26 27  2  0
 26 28  1  0
 28 29  1  0
 29 30  1  0
 30 31  2  0
 31 32  1  0
 32 33  2  0
 33 34  1  0
 34 35  2  0
 35 36  1  0
 36 37  2  0
 37 38  1  0
 38 39  2  0
 28 40  1  0
 40 41  1  0
 41 42  2  0
 41 43  1  0
 43 44  1  0
 44 45  1  0
 45 46  1  0
 46 47  1  0
 47 48  2  0
 48 49  1  0
 43 50  1  0
 50 51  1  0
 51 52  2  0
 51 53  1  0
  2 54  1  0
 20 16  1  0
 35 30  1  0
 49 45  2  0
 24 19  1  0
 39 34  1  0
  1 55  1  0
  1 56  1  0
  4 57  1  0
  4 58  1  0
  5 59  1  0
  5 60  1  0
  6 61  1  0
  6 62  1  0
  7 63  1  6
 10 64  1  0
 11 65  1  1
 14 66  1  0
 14 67  1  0
 15 68  1  0
 15 69  1  0
 17 70  1  0
 18 71  1  0
 21 72  1  0
 22 73  1  0
 23 74  1  0
 24 75  1  0
 25 76  1  0
 28 77  1  6
 29 78  1  0
 29 79  1  0
 31 80  1  0
 32 81  1  0
 33 82  1  0
 36 83  1  0
 37 84  1  0
 38 85  1  0
 39 86  1  0
 40 87  1  0
 43 88  1  1
 44 89  1  0
 44 90  1  0
 46 91  1  0
 47 92  1  0
 49 93  1  0
 50 94  1  0
 53 95  1  0
 53 96  1  0
 53 97  1  0
 54 98  1  0
 54 99  1  0
M  END
>  <Ligand ID>  (1) 
LIG0001418

>  <Ligand>  (1) 
CHEMBL319922

>  <SMILES>  (1) 
NC(=NCCC[C@@H](C(=O)N[C@H](C(=O)N)Cc1c[nH]c2c1cccc2)NC(=O)[C@H](Cc1cccc2c1cccc2)NC(=O)[C@H](Cc1[nH]cnc1)NC(=O)C)N

>  <CID>  (1) 
11050892.0

>  <ChEMBL ID>  (1) 
nan

>  <InChiKey>  (1) 
ZJZJSTFJNWUUAH-YRCZKMHPSA-N

>  <InChi>  (1) 
InChI=1S/C38H45N11O5/c1-22(50)46-33(18-26-20-42-21-45-26)37(54)49-32(16-24-10-6-9-23-8-2-3-11-27(23)24)36(53)47-30(14-7-15-43-38(40)41)35(52)48-31(34(39)51)17-25-19-44-29-13-5-4-12-28(25)29/h2-6,8-13,19-21,30-33,44H,7,14-18H2,1H3,(H2,39,51)(H,42,45)(H,46,50)(H,47,53)(H,48,52)(H,49,54)(H4,40,41,43)/t30-,31-,32-,33-/m0/s1

>  <IUPAC Name>  (1) 
(2S)-2-[[(2S)-2-[[(2S)-2-acetamido-3-(1H-imidazol-5-yl)propanoyl]amino]-3-naphthalen-1-ylpropanoyl]amino]-N-[(2S)-1-amino-3-(1H-indol-3-yl)-1-oxopropan-2-yl]-5-(diaminomethylideneamino)pentanamide

$$$$
