
     RDKit          3D

 58 61  0  0  0  0  0  0  0  0999 V2000
    3.9995   -0.3632   -2.1058 C   0  0  0  0  0  0  0  0  0  0  0  0
    3.9368    0.7904   -1.1320 C   0  0  2  0  0  0  0  0  0  0  0  0
    5.3033    1.2686   -0.7006 C   0  0  0  0  0  0  0  0  0  0  0  0
    5.9930    0.1953   -0.0169 N   0  0  0  0  0  0  0  0  0  0  0  0
    5.3031   -0.5483    1.0206 C   0  0  0  0  0  0  0  0  0  0  0  0
    3.9281    0.0002    1.2828 C   0  0  0  0  0  0  0  0  0  0  0  0
    3.2276    0.3839    0.0851 N   0  0  0  0  0  0  0  0  0  0  0  0
    1.7976    0.3537    0.1111 C   0  0  0  0  0  0  0  0  0  0  0  0
    1.1806   -0.2369    1.1575 N   0  0  0  0  0  0  0  0  0  0  0  0
   -0.1887   -0.2692    1.1808 C   0  0  0  0  0  0  0  0  0  0  0  0
   -0.9492    0.2759    0.1809 C   0  0  0  0  0  0  0  0  0  0  0  0
   -0.2498    0.8779   -0.8816 C   0  0  0  0  0  0  0  0  0  0  0  0
    1.0903    0.9010   -0.8908 N   0  0  0  0  0  0  0  0  0  0  0  0
   -2.3093    0.2987    0.0948 O   0  0  0  0  0  0  0  0  0  0  0  0
   -3.1681   -0.2701    1.0462 C   0  0  0  0  0  0  0  0  0  0  0  0
   -4.5688   -0.0439    0.5299 C   0  0  0  0  0  0  0  0  0  0  0  0
   -5.0847   -1.1163   -0.2053 C   0  0  0  0  0  0  0  0  0  0  0  0
   -6.3238   -1.0327   -0.7898 C   0  0  0  0  0  0  0  0  0  0  0  0
   -7.0342    0.1642   -0.6146 C   0  0  0  0  0  0  0  0  0  0  0  0
   -6.5198    1.2161    0.1129 C   0  0  0  0  0  0  0  0  0  0  0  0
   -5.2498    1.1310    0.7134 C   0  0  0  0  0  0  0  0  0  0  0  0
   -4.7174    2.1258    1.4284 F   0  0  0  0  0  0  0  0  0  0  0  0
   -8.3479    0.2054   -1.3145 C   0  0  0  0  0  0  0  0  0  0  0  0
   -9.6471   -0.5748   -0.4020 S   0  0  0  0  0  0  0  0  0  0  0  0
  -10.9366   -0.4593   -1.1906 O   0  0  0  0  0  0  0  0  0  0  0  0
   -9.3685   -2.0397   -0.1994 O   0  0  0  0  0  0  0  0  0  0  0  0
   -9.8444    0.2414    1.1584 C   0  0  0  0  0  0  0  0  0  0  0  0
    7.3331   -0.1757   -0.2879 C   0  0  0  0  0  0  0  0  0  0  0  0
    7.8632   -0.8346   -1.3300 N   0  0  0  0  0  0  0  0  0  0  0  0
    9.1876   -0.9760   -1.1755 N   0  0  0  0  0  0  0  0  0  0  0  0
    9.4622   -0.3825   -0.0016 C   0  0  0  0  0  0  0  0  0  0  0  0
    8.3343    0.0955    0.5211 O   0  0  0  0  0  0  0  0  0  0  0  0
   10.7604   -0.2188    0.7068 C   0  0  0  0  0  0  0  0  0  0  0  0
   10.7360   -1.0378    1.8403 F   0  0  0  0  0  0  0  0  0  0  0  0
   10.8978    1.1023    1.0804 F   0  0  0  0  0  0  0  0  0  0  0  0
   11.7971   -0.6028   -0.0848 F   0  0  0  0  0  0  0  0  0  0  0  0
    2.9389   -0.5564   -2.4280 H   0  0  0  0  0  0  0  0  0  0  0  0
    4.5786   -0.0618   -2.9775 H   0  0  0  0  0  0  0  0  0  0  0  0
    4.3774   -1.3087   -1.6586 H   0  0  0  0  0  0  0  0  0  0  0  0
    3.3962    1.6064   -1.6092 H   0  0  0  0  0  0  0  0  0  0  0  0
    5.9032    1.6463   -1.5558 H   0  0  0  0  0  0  0  0  0  0  0  0
    5.1393    2.0858    0.0273 H   0  0  0  0  0  0  0  0  0  0  0  0
    5.8740   -0.4629    1.9940 H   0  0  0  0  0  0  0  0  0  0  0  0
    5.2226   -1.6306    0.8143 H   0  0  0  0  0  0  0  0  0  0  0  0
    4.0312    0.8436    2.0202 H   0  0  0  0  0  0  0  0  0  0  0  0
    3.3001   -0.7726    1.8059 H   0  0  0  0  0  0  0  0  0  0  0  0
   -0.6987   -0.7312    1.9972 H   0  0  0  0  0  0  0  0  0  0  0  0
   -0.8217    1.3258   -1.7052 H   0  0  0  0  0  0  0  0  0  0  0  0
   -3.1127    0.2718    2.0177 H   0  0  0  0  0  0  0  0  0  0  0  0
   -2.9621   -1.3255    1.1999 H   0  0  0  0  0  0  0  0  0  0  0  0
   -4.5260   -2.0307   -0.3301 H   0  0  0  0  0  0  0  0  0  0  0  0
   -6.7139   -1.8599   -1.3540 H   0  0  0  0  0  0  0  0  0  0  0  0
   -7.1072    2.1189    0.2215 H   0  0  0  0  0  0  0  0  0  0  0  0
   -8.5876    1.2950   -1.4826 H   0  0  0  0  0  0  0  0  0  0  0  0
   -8.2665   -0.2185   -2.3479 H   0  0  0  0  0  0  0  0  0  0  0  0
  -10.5607   -0.3298    1.7886 H   0  0  0  0  0  0  0  0  0  0  0  0
  -10.1603    1.2822    0.9464 H   0  0  0  0  0  0  0  0  0  0  0  0
   -8.8676    0.2220    1.6883 H   0  0  0  0  0  0  0  0  0  0  0  0
  1  2  1  0
  2  3  1  0
  3  4  1  0
  4  5  1  0
  5  6  1  0
  6  7  1  0
  7  8  1  0
  8  9  2  0
  9 10  1  0
 10 11  2  0
 11 12  1  0
 12 13  2  0
 11 14  1  0
 14 15  1  0
 15 16  1  0
 16 17  2  0
 17 18  1  0
 18 19  2  0
 19 20  1  0
 20 21  2  0
 21 22  1  0
 19 23  1  0
 23 24  1  0
 24 25  2  0
 24 26  2  0
 24 27  1  0
  4 28  1  0
 28 29  2  0
 29 30  1  0
 30 31  2  0
 31 32  1  0
 31 33  1  0
 33 34  1  0
 33 35  1  0
 33 36  1  0
  7  2  1  0
 13  8  1  0
 21 16  1  0
 32 28  1  0
  1 37  1  0
  1 38  1  0
  1 39  1  0
  2 40  1  6
  3 41  1  0
  3 42  1  0
  5 43  1  0
  5 44  1  0
  6 45  1  0
  6 46  1  0
 10 47  1  0
 12 48  1  0
 15 49  1  0
 15 50  1  0
 17 51  1  0
 18 52  1  0
 20 53  1  0
 23 54  1  0
 23 55  1  0
 27 56  1  0
 27 57  1  0
 27 58  1  0
M  END
>  <Ligand ID>  (1) 
LIG0005274

>  <Ligand>  (1) 
CHEMBL3358001

>  <SMILES>  (1) 
C[C@@H]1CN(CCN1c1ncc(cn1)OCc1ccc(cc1F)CS(=O)(=O)C)c1nnc(o1)C(F)(F)F

>  <CID>  (1) 
118722577.0

>  <ChEMBL ID>  (1) 
nan

>  <InChiKey>  (1) 
IXIWGIOCETWRTM-CYBMUJFWSA-N

>  <InChi>  (1) 
InChI=1S/C21H22F4N6O4S/c1-13-10-30(20-29-28-18(35-20)21(23,24)25)5-6-31(13)19-26-8-16(9-27-19)34-11-15-4-3-14(7-17(15)22)12-36(2,32)33/h3-4,7-9,13H,5-6,10-12H2,1-2H3/t13-/m1/s1

>  <IUPAC Name>  (1) 
2-[(3R)-4-[5-[[2-fluoro-4-(methylsulfonylmethyl)phenyl]methoxy]pyrimidin-2-yl]-3-methylpiperazin-1-yl]-5-(trifluoromethyl)-1,3,4-oxadiazole

$$$$
