
     RDKit          3D

 22 23  0  0  0  0  0  0  0  0999 V2000
    3.7969    0.8972   -0.8810 N   0  0  0  0  0  0  0  0  0  0  0  0
    2.6995    0.0933   -0.4248 C   0  0  0  0  0  0  0  0  0  0  0  0
    1.6759    0.5532    0.2027 N   0  0  0  0  0  0  0  0  0  0  0  0
    0.7744   -0.5202    0.5088 C   0  0  2  0  0  0  0  0  0  0  0  0
    1.1912   -1.6311   -0.3797 C   0  0  0  0  0  0  0  0  0  0  0  0
    2.5755   -1.3006   -0.5913 O   0  0  0  0  0  0  0  0  0  0  0  0
   -0.6500   -0.1600    0.4284 C   0  0  0  0  0  0  0  0  0  0  0  0
   -1.5917   -0.7723    1.2578 C   0  0  0  0  0  0  0  0  0  0  0  0
   -2.9204   -0.4490    1.1960 C   0  0  0  0  0  0  0  0  0  0  0  0
   -3.3114    0.5029    0.2887 C   0  0  0  0  0  0  0  0  0  0  0  0
   -2.4176    1.1422   -0.5588 C   0  0  0  0  0  0  0  0  0  0  0  0
   -1.0654    0.8053   -0.4877 C   0  0  0  0  0  0  0  0  0  0  0  0
    0.0965    1.5969   -1.5484 Cl  0  0  0  0  0  0  0  0  0  0  0  0
    3.5989    1.8604   -1.2353 H   0  0  0  0  0  0  0  0  0  0  0  0
    4.7842    0.5520   -0.8704 H   0  0  0  0  0  0  0  0  0  0  0  0
    1.0157   -0.8298    1.5609 H   0  0  0  0  0  0  0  0  0  0  0  0
    1.1558   -2.6470    0.0741 H   0  0  0  0  0  0  0  0  0  0  0  0
    0.6526   -1.6907   -1.3415 H   0  0  0  0  0  0  0  0  0  0  0  0
   -1.2874   -1.5335    1.9851 H   0  0  0  0  0  0  0  0  0  0  0  0
   -3.6678   -0.9130    1.8314 H   0  0  0  0  0  0  0  0  0  0  0  0
   -4.3739    0.7526    0.2484 H   0  0  0  0  0  0  0  0  0  0  0  0
   -2.7315    1.8833   -1.2632 H   0  0  0  0  0  0  0  0  0  0  0  0
  1  2  1  0
  2  3  2  0
  3  4  1  0
  4  5  1  0
  5  6  1  0
  4  7  1  0
  7  8  2  0
  8  9  1  0
  9 10  2  0
 10 11  1  0
 11 12  2  0
 12 13  1  0
  6  2  1  0
 12  7  1  0
  1 14  1  0
  1 15  1  0
  4 16  1  1
  5 17  1  0
  5 18  1  0
  8 19  1  0
  9 20  1  0
 10 21  1  0
 11 22  1  0
M  END
>  <Ligand ID>  (1) 
LIG0005701

>  <Ligand>  (1) 
SCHEMBL3607467

>  <SMILES>  (1) 
NC1=N[C@H](CO1)c1ccccc1Cl

>  <CID>  (1) 
24966106.0

>  <ChEMBL ID>  (1) 
nan

>  <InChiKey>  (1) 
QMVBXTOPWLYMTJ-MRVPVSSYSA-N

>  <InChi>  (1) 
InChI=1S/C9H9ClN2O/c10-7-4-2-1-3-6(7)8-5-13-9(11)12-8/h1-4,8H,5H2,(H2,11,12)/t8-/m1/s1

>  <IUPAC Name>  (1) 
(4S)-4-(2-chlorophenyl)-4,5-dihydro-1,3-oxazol-2-amine

$$$$
