
     RDKit          3D

 51 53  0  0  0  0  0  0  0  0999 V2000
   -5.5364    3.6593   -0.1233 C   0  0  0  0  0  0  0  0  0  0  0  0
   -4.3578    3.2939    0.5679 O   0  0  0  0  0  0  0  0  0  0  0  0
   -3.7997    2.0483    0.3255 C   0  0  0  0  0  0  0  0  0  0  0  0
   -2.6438    1.6471    0.9806 C   0  0  0  0  0  0  0  0  0  0  0  0
   -2.0782    0.4076    0.7470 C   0  0  0  0  0  0  0  0  0  0  0  0
   -2.6174   -0.4720   -0.1256 C   0  0  0  0  0  0  0  0  0  0  0  0
   -3.7807   -0.0851   -0.7938 C   0  0  0  0  0  0  0  0  0  0  0  0
   -4.3419    1.1431   -0.5627 C   0  0  0  0  0  0  0  0  0  0  0  0
   -2.0917   -1.8130   -0.4530 C   0  0  0  0  0  0  0  0  0  0  0  0
   -3.1345   -2.7560   -0.3756 N   0  0  0  0  0  0  0  0  0  0  0  0
   -3.6649   -3.0608    0.8911 C   0  0  0  0  0  0  0  0  0  0  0  0
   -3.2370   -3.7234   -1.3925 C   0  0  0  0  0  0  0  0  0  0  0  0
   -0.8828   -2.2209    0.3231 C   0  0  0  0  0  0  0  0  0  0  0  0
    0.2446   -1.3045    0.0929 N   0  0  0  0  0  0  0  0  0  0  0  0
    1.4371   -1.6061    0.7963 C   0  0  0  0  0  0  0  0  0  0  0  0
    1.4173   -2.6169    1.5412 O   0  0  0  0  0  0  0  0  0  0  0  0
    2.6638   -0.7900    0.6808 C   0  0  0  0  0  0  0  0  0  0  0  0
    2.7665    0.2671   -0.0652 C   0  0  0  0  0  0  0  0  0  0  0  0
    3.8694    1.1554   -0.2842 C   0  0  0  0  0  0  0  0  0  0  0  0
    3.7763    2.2633   -1.1464 C   0  0  0  0  0  0  0  0  0  0  0  0
    2.3795    2.7751   -2.0877 Cl  0  0  0  0  0  0  0  0  0  0  0  0
    4.9333    2.9247   -1.1747 N   0  0  0  0  0  0  0  0  0  0  0  0
    5.7774    2.2874   -0.3617 C   0  0  0  0  0  0  0  0  0  0  0  0
    5.1228    1.2187    0.1715 N   0  0  0  0  0  0  0  0  0  0  0  0
    5.8104    0.4637    1.0094 C   0  0  0  0  0  0  0  0  0  0  0  0
    7.1414    0.7231    1.3502 C   0  0  0  0  0  0  0  0  0  0  0  0
    7.7978    1.8049    0.8080 C   0  0  0  0  0  0  0  0  0  0  0  0
    7.0844    2.5925   -0.0646 C   0  0  0  0  0  0  0  0  0  0  0  0
   -6.3346    2.8689   -0.0170 H   0  0  0  0  0  0  0  0  0  0  0  0
   -5.2992    3.6819   -1.2086 H   0  0  0  0  0  0  0  0  0  0  0  0
   -5.9101    4.6440    0.2295 H   0  0  0  0  0  0  0  0  0  0  0  0
   -2.1791    2.3397    1.6976 H   0  0  0  0  0  0  0  0  0  0  0  0
   -1.1990    0.1586    1.2824 H   0  0  0  0  0  0  0  0  0  0  0  0
   -4.2591   -0.7651   -1.5144 H   0  0  0  0  0  0  0  0  0  0  0  0
   -5.2437    1.4490   -1.0775 H   0  0  0  0  0  0  0  0  0  0  0  0
   -1.7758   -1.7492   -1.5302 H   0  0  0  0  0  0  0  0  0  0  0  0
   -4.7140   -3.4180    0.8473 H   0  0  0  0  0  0  0  0  0  0  0  0
   -2.9987   -3.7267    1.4557 H   0  0  0  0  0  0  0  0  0  0  0  0
   -3.7152   -2.0997    1.4819 H   0  0  0  0  0  0  0  0  0  0  0  0
   -2.6423   -4.6341   -1.0909 H   0  0  0  0  0  0  0  0  0  0  0  0
   -4.2737   -4.0857   -1.5484 H   0  0  0  0  0  0  0  0  0  0  0  0
   -2.8119   -3.3443   -2.3198 H   0  0  0  0  0  0  0  0  0  0  0  0
   -1.0695   -2.3402    1.3994 H   0  0  0  0  0  0  0  0  0  0  0  0
   -0.5613   -3.2106   -0.0613 H   0  0  0  0  0  0  0  0  0  0  0  0
    0.1457   -0.4980   -0.5538 H   0  0  0  0  0  0  0  0  0  0  0  0
    3.4890   -1.1166    1.2553 H   0  0  0  0  0  0  0  0  0  0  0  0
    1.8356    0.5058   -0.6165 H   0  0  0  0  0  0  0  0  0  0  0  0
    5.3712   -0.3748    1.4575 H   0  0  0  0  0  0  0  0  0  0  0  0
    7.6687    0.0652    2.0515 H   0  0  0  0  0  0  0  0  0  0  0  0
    8.8248    1.9802    1.0895 H   0  0  0  0  0  0  0  0  0  0  0  0
    7.5971    3.4433   -0.4924 H   0  0  0  0  0  0  0  0  0  0  0  0
  1  2  1  0
  2  3  1  0
  3  4  2  0
  4  5  1  0
  5  6  2  0
  6  7  1  0
  7  8  2  0
  6  9  1  0
  9 10  1  0
 10 11  1  0
 10 12  1  0
  9 13  1  0
 13 14  1  0
 14 15  1  0
 15 16  2  0
 15 17  1  0
 17 18  2  0
 18 19  1  0
 19 20  2  0
 20 21  1  0
 20 22  1  0
 22 23  2  0
 23 24  1  0
 24 25  1  0
 25 26  2  0
 26 27  1  0
 27 28  2  0
  8  3  1  0
 24 19  1  0
 28 23  1  0
  1 29  1  0
  1 30  1  0
  1 31  1  0
  4 32  1  0
  5 33  1  0
  7 34  1  0
  8 35  1  0
  9 36  1  0
 11 37  1  0
 11 38  1  0
 11 39  1  0
 12 40  1  0
 12 41  1  0
 12 42  1  0
 13 43  1  0
 13 44  1  0
 14 45  1  0
 17 46  1  0
 18 47  1  0
 25 48  1  0
 26 49  1  0
 27 50  1  0
 28 51  1  0
M  END
>  <Ligand ID>  (1) 
LIG0004509

>  <Ligand>  (1) 
MLS000772218

>  <SMILES>  (1) 
COc1ccc(cc1)C(N(C)C)CNC(=O)/C=C/c1c(Cl)nc2n1cccc2

>  <CID>  (1) 
6223980.0

>  <ChEMBL ID>  (1) 
nan

>  <InChiKey>  (1) 
MIXBNEDTNYDYAG-VAWYXSNFSA-N

>  <InChi>  (1) 
InChI=1S/C21H23ClN4O2/c1-25(2)18(15-7-9-16(28-3)10-8-15)14-23-20(27)12-11-17-21(22)24-19-6-4-5-13-26(17)19/h4-13,18H,14H2,1-3H3,(H,23,27)/b12-11+

>  <IUPAC Name>  (1) 
(E)-3-(2-chloroimidazo[1,2-a]pyridin-3-yl)-N-[2-(dimethylamino)-2-(4-methoxyphenyl)ethyl]prop-2-enamide

$$$$
