
     RDKit          3D

 24 25  0  0  0  0  0  0  0  0999 V2000
    5.2154   -1.0820    0.3946 C   0  0  0  0  0  0  0  0  0  0  0  0
    4.1950   -0.4399    0.5364 C   0  0  0  0  0  0  0  0  0  0  0  0
    2.9666    0.3473    0.6854 C   0  0  0  0  0  0  0  0  0  0  0  0
    1.8997   -0.4613    1.2003 O   0  0  0  0  0  0  0  0  0  0  0  0
    0.6936    0.1606    1.3858 N   0  0  0  0  0  0  0  0  0  0  0  0
   -0.2450    0.1837    0.5064 C   0  0  0  0  0  0  0  0  0  0  0  0
   -0.1821   -0.4582   -0.8568 C   0  0  0  0  0  0  0  0  0  0  0  0
   -1.4108   -0.0198   -1.5201 N   0  0  0  0  0  0  0  0  0  0  0  0
   -1.6414    1.2933   -0.9017 C   0  0  0  0  0  0  0  0  0  0  0  0
   -1.5923    0.8080    0.5565 C   0  0  0  0  0  0  0  0  0  0  0  0
   -2.6801   -0.2160    0.4918 C   0  0  0  0  0  0  0  0  0  0  0  0
   -2.5036   -0.7824   -0.9175 C   0  0  0  0  0  0  0  0  0  0  0  0
    6.1280   -1.6347    0.2657 H   0  0  0  0  0  0  0  0  0  0  0  0
    2.6299    0.7312   -0.3114 H   0  0  0  0  0  0  0  0  0  0  0  0
    3.1887    1.1738    1.3785 H   0  0  0  0  0  0  0  0  0  0  0  0
    0.6797   -0.0939   -1.4416 H   0  0  0  0  0  0  0  0  0  0  0  0
   -0.2498   -1.5496   -0.7432 H   0  0  0  0  0  0  0  0  0  0  0  0
   -0.8403    1.9986   -1.1401 H   0  0  0  0  0  0  0  0  0  0  0  0
   -2.6559    1.6702   -1.1068 H   0  0  0  0  0  0  0  0  0  0  0  0
   -1.7120    1.6026    1.2878 H   0  0  0  0  0  0  0  0  0  0  0  0
   -2.6395   -0.9974    1.2700 H   0  0  0  0  0  0  0  0  0  0  0  0
   -3.6473    0.3504    0.4936 H   0  0  0  0  0  0  0  0  0  0  0  0
   -3.4331   -0.7491   -1.4953 H   0  0  0  0  0  0  0  0  0  0  0  0
   -2.1636   -1.8355   -0.8783 H   0  0  0  0  0  0  0  0  0  0  0  0
  1  2  3  0
  2  3  1  0
  3  4  1  0
  4  5  1  0
  5  6  2  0
  6  7  1  0
  7  8  1  0
  8  9  1  0
  9 10  1  0
 10 11  1  0
 11 12  1  0
 10  6  1  0
 12  8  1  0
  1 13  1  0
  3 14  1  0
  3 15  1  0
  7 16  1  0
  7 17  1  0
  9 18  1  0
  9 19  1  0
 10 20  1  0
 11 21  1  0
 11 22  1  0
 12 23  1  0
 12 24  1  0
M  END
>  <Ligand ID>  (1) 
LIG0005603

>  <Ligand>  (1) 
CHEMBL315676

>  <SMILES>  (1) 
C#CCO/N=C/1\CN2CC1CC2

>  <CID>  (1) 
10397133.0

>  <ChEMBL ID>  (1) 
nan

>  <InChiKey>  (1) 
NBYBORGTFLJPJT-MDZDMXLPSA-N

>  <InChi>  (1) 
InChI=1S/C9H12N2O/c1-2-5-12-10-9-7-11-4-3-8(9)6-11/h1,8H,3-7H2/b10-9+

>  <IUPAC Name>  (1) 
(Z)-N-prop-2-ynoxy-1-azabicyclo[2.2.1]heptan-3-imine

$$$$
