
     RDKit          3D

 45 48  0  0  0  0  0  0  0  0999 V2000
    6.2103    2.0273    1.3383 C   0  0  0  0  0  0  0  0  0  0  0  0
    6.1841    0.6249    1.5316 O   0  0  0  0  0  0  0  0  0  0  0  0
    5.2580   -0.0971    0.7661 C   0  0  0  0  0  0  0  0  0  0  0  0
    5.2170   -1.4707    0.9389 C   0  0  0  0  0  0  0  0  0  0  0  0
    4.3250   -2.2722    0.2176 C   0  0  0  0  0  0  0  0  0  0  0  0
    3.5012   -1.6134   -0.6641 C   0  0  0  0  0  0  0  0  0  0  0  0
    3.5016   -0.2595   -0.8723 C   0  0  0  0  0  0  0  0  0  0  0  0
    4.4109    0.4995   -0.1281 C   0  0  0  0  0  0  0  0  0  0  0  0
    2.6094    0.4476   -1.8210 C   0  0  0  0  0  0  0  0  0  0  0  0
    1.0709    0.9993   -1.0987 S   0  0  0  0  0  0  0  0  0  0  0  0
   -0.0156   -0.3244   -0.6248 C   0  0  0  0  0  0  0  0  0  0  0  0
    0.1352   -1.6542   -0.7321 N   0  0  0  0  0  0  0  0  0  0  0  0
   -0.9575   -2.1982   -0.2357 N   0  0  0  0  0  0  0  0  0  0  0  0
   -1.8187   -1.2688    0.1931 C   0  0  0  0  0  0  0  0  0  0  0  0
   -1.2301   -0.0875   -0.0496 N   0  0  0  0  0  0  0  0  0  0  0  0
   -1.8078    1.2053    0.2590 C   0  0  0  0  0  0  0  0  0  0  0  0
   -2.6112    1.7661   -0.8455 C   0  0  0  0  0  0  0  0  0  0  0  0
   -3.9577    1.6216   -1.0935 C   0  0  0  0  0  0  0  0  0  0  0  0
   -4.2031    2.3402   -2.2392 C   0  0  0  0  0  0  0  0  0  0  0  0
   -3.0116    2.8989   -2.6561 C   0  0  0  0  0  0  0  0  0  0  0  0
   -2.1036    2.5273   -1.7958 O   0  0  0  0  0  0  0  0  0  0  0  0
   -3.1239   -1.5248    0.7974 C   0  0  0  0  0  0  0  0  0  0  0  0
   -3.3125   -1.6393    2.1588 C   0  0  0  0  0  0  0  0  0  0  0  0
   -4.6073   -1.8820    2.5975 C   0  0  0  0  0  0  0  0  0  0  0  0
   -5.6492   -2.0012    1.7028 C   0  0  0  0  0  0  0  0  0  0  0  0
   -5.4243   -1.8801    0.3324 C   0  0  0  0  0  0  0  0  0  0  0  0
   -4.1649   -1.6453   -0.0747 N   0  0  0  0  0  0  0  0  0  0  0  0
    5.3053    2.5322    1.7409 H   0  0  0  0  0  0  0  0  0  0  0  0
    7.0747    2.4941    1.8756 H   0  0  0  0  0  0  0  0  0  0  0  0
    6.2414    2.2953    0.2432 H   0  0  0  0  0  0  0  0  0  0  0  0
    5.8791   -1.9883    1.6457 H   0  0  0  0  0  0  0  0  0  0  0  0
    4.3039   -3.3550    0.3648 H   0  0  0  0  0  0  0  0  0  0  0  0
    2.8064   -2.2354   -1.2309 H   0  0  0  0  0  0  0  0  0  0  0  0
    4.4206    1.5531   -0.2807 H   0  0  0  0  0  0  0  0  0  0  0  0
    3.1613    1.3643   -2.1714 H   0  0  0  0  0  0  0  0  0  0  0  0
    2.4935   -0.1674   -2.7369 H   0  0  0  0  0  0  0  0  0  0  0  0
   -2.4162    1.0748    1.1806 H   0  0  0  0  0  0  0  0  0  0  0  0
   -0.9325    1.8883    0.4620 H   0  0  0  0  0  0  0  0  0  0  0  0
   -4.6744    1.0651   -0.5158 H   0  0  0  0  0  0  0  0  0  0  0  0
   -5.1302    2.4903   -2.7780 H   0  0  0  0  0  0  0  0  0  0  0  0
   -2.7940    3.5268   -3.5087 H   0  0  0  0  0  0  0  0  0  0  0  0
   -2.4706   -1.5397    2.8323 H   0  0  0  0  0  0  0  0  0  0  0  0
   -4.7916   -1.9766    3.6393 H   0  0  0  0  0  0  0  0  0  0  0  0
   -6.6731   -2.1906    2.0113 H   0  0  0  0  0  0  0  0  0  0  0  0
   -6.2285   -1.9702   -0.3864 H   0  0  0  0  0  0  0  0  0  0  0  0
  1  2  1  0
  2  3  1  0
  3  4  2  0
  4  5  1  0
  5  6  2  0
  6  7  1  0
  7  8  2  0
  7  9  1  0
  9 10  1  0
 10 11  1  0
 11 12  2  0
 12 13  1  0
 13 14  2  0
 14 15  1  0
 15 16  1  0
 16 17  1  0
 17 18  2  0
 18 19  1  0
 19 20  2  0
 20 21  1  0
 14 22  1  0
 22 23  2  0
 23 24  1  0
 24 25  2  0
 25 26  1  0
 26 27  2  0
  8  3  1  0
 15 11  1  0
 21 17  1  0
 27 22  1  0
  1 28  1  0
  1 29  1  0
  1 30  1  0
  4 31  1  0
  5 32  1  0
  6 33  1  0
  8 34  1  0
  9 35  1  0
  9 36  1  0
 16 37  1  0
 16 38  1  0
 18 39  1  0
 19 40  1  0
 20 41  1  0
 23 42  1  0
 24 43  1  0
 25 44  1  0
 26 45  1  0
M  END
>  <Ligand ID>  (1) 
LIG0004851

>  <Ligand>  (1) 
KUC104183N

>  <SMILES>  (1) 
COc1cccc(c1)CSc1nnc(n1Cc1ccco1)c1ccccn1

>  <CID>  (1) 
44620913.0

>  <ChEMBL ID>  (1) 
nan

>  <InChiKey>  (1) 
QSNSXXYUVFWBMF-UHFFFAOYSA-N

>  <InChi>  (1) 
InChI=1S/C20H18N4O2S/c1-25-16-7-4-6-15(12-16)14-27-20-23-22-19(18-9-2-3-10-21-18)24(20)13-17-8-5-11-26-17/h2-12H,13-14H2,1H3

>  <IUPAC Name>  (1) 
2-[4-(furan-2-ylmethyl)-5-[(3-methoxyphenyl)methylsulfanyl]-1,2,4-triazol-3-yl]pyridine

$$$$
