
     RDKit          3D

 59 61  0  0  0  0  0  0  0  0999 V2000
   -4.1084   -1.5951    0.8944 O   0  0  0  0  0  0  0  0  0  0  0  0
   -4.5163   -0.2916    0.6654 C   0  0  2  0  0  0  0  0  0  0  0  0
   -5.9762   -0.3094    0.3742 C   0  0  0  0  0  0  0  0  0  0  0  0
   -6.6044   -1.5207    0.0569 C   0  0  0  0  0  0  0  0  0  0  0  0
   -7.9645   -1.4369   -0.1495 C   0  0  0  0  0  0  0  0  0  0  0  0
   -8.6897   -0.2762   -0.0611 C   0  0  0  0  0  0  0  0  0  0  0  0
   -8.0538    0.9552    0.2597 C   0  0  0  0  0  0  0  0  0  0  0  0
   -6.7241    0.8619    0.4593 C   0  0  0  0  0  0  0  0  0  0  0  0
   -6.1593    2.4984    0.8307 S   0  0  0  0  0  0  0  0  0  0  0  0
   -7.9088    3.1909    0.6630 C   0  0  0  0  0  0  0  0  0  0  0  0
   -8.1365    4.3896    0.8288 O   0  0  0  0  0  0  0  0  0  0  0  0
   -8.6394    2.1226    0.3621 N   0  0  0  0  0  0  0  0  0  0  0  0
  -10.0492   -0.3532   -0.2950 O   0  0  0  0  0  0  0  0  0  0  0  0
   -3.6808    0.3850   -0.3593 C   0  0  0  0  0  0  0  0  0  0  0  0
   -2.3253    0.4564    0.0397 N   0  0  0  0  0  0  0  0  0  0  0  0
   -1.4927   -0.6863   -0.0000 C   0  0  0  0  0  0  0  0  0  0  0  0
   -0.1647   -0.3767    0.7091 C   0  0  0  0  0  0  0  0  0  0  0  0
    0.7870   -1.5154    0.5977 C   0  0  0  0  0  0  0  0  0  0  0  0
    1.1767   -1.7333   -1.1783 S   0  0  0  0  0  0  0  0  0  0  0  0
    1.9861   -0.2614   -1.8222 C   0  0  0  0  0  0  0  0  0  0  0  0
    3.3492    0.0326   -1.2983 C   0  0  0  0  0  0  0  0  0  0  0  0
    4.2945   -1.0358   -1.6441 N   0  0  0  0  0  0  0  0  0  0  0  0
    5.5990   -0.5325   -1.2600 C   0  0  0  0  0  0  0  0  0  0  0  0
    5.8396   -0.4303    0.2040 C   0  0  0  0  0  0  0  0  0  0  0  0
    7.2178    0.1478    0.4074 C   0  0  0  0  0  0  0  0  0  0  0  0
    7.2888    1.4536    0.8783 C   0  0  0  0  0  0  0  0  0  0  0  0
    8.5051    2.0831    1.1149 C   0  0  0  0  0  0  0  0  0  0  0  0
    9.6659    1.3534    0.8618 C   0  0  0  0  0  0  0  0  0  0  0  0
    9.5985    0.0658    0.3980 C   0  0  0  0  0  0  0  0  0  0  0  0
    8.3677   -0.5513    0.1658 C   0  0  0  0  0  0  0  0  0  0  0  0
    8.3142   -2.1820   -0.4199 Cl  0  0  0  0  0  0  0  0  0  0  0  0
   11.1127   -0.7965    0.0891 Cl  0  0  0  0  0  0  0  0  0  0  0  0
   -4.4810   -1.8543    1.7998 H   0  0  0  0  0  0  0  0  0  0  0  0
   -4.3243    0.2431    1.6390 H   0  0  0  0  0  0  0  0  0  0  0  0
   -6.1029   -2.4450   -0.0233 H   0  0  0  0  0  0  0  0  0  0  0  0
   -8.4751   -2.3523   -0.3943 H   0  0  0  0  0  0  0  0  0  0  0  0
   -9.7063    2.2815    0.2173 H   0  0  0  0  0  0  0  0  0  0  0  0
  -10.6889   -0.6820    0.4423 H   0  0  0  0  0  0  0  0  0  0  0  0
   -4.1257    1.3904   -0.5304 H   0  0  0  0  0  0  0  0  0  0  0  0
   -3.7025   -0.1791   -1.3365 H   0  0  0  0  0  0  0  0  0  0  0  0
   -2.1210    1.0839    0.8454 H   0  0  0  0  0  0  0  0  0  0  0  0
   -1.8651   -1.6015    0.4835 H   0  0  0  0  0  0  0  0  0  0  0  0
   -1.2230   -0.9396   -1.0695 H   0  0  0  0  0  0  0  0  0  0  0  0
    0.2824    0.5730    0.3336 H   0  0  0  0  0  0  0  0  0  0  0  0
   -0.4060   -0.2359    1.7901 H   0  0  0  0  0  0  0  0  0  0  0  0
    1.7137   -1.3919    1.1782 H   0  0  0  0  0  0  0  0  0  0  0  0
    0.3107   -2.4695    0.9522 H   0  0  0  0  0  0  0  0  0  0  0  0
    2.0169   -0.3942   -2.9424 H   0  0  0  0  0  0  0  0  0  0  0  0
    1.3584    0.6621   -1.6412 H   0  0  0  0  0  0  0  0  0  0  0  0
    3.2937    0.0829   -0.1655 H   0  0  0  0  0  0  0  0  0  0  0  0
    3.7262    1.0215   -1.5930 H   0  0  0  0  0  0  0  0  0  0  0  0
    4.0502   -1.8979   -1.1025 H   0  0  0  0  0  0  0  0  0  0  0  0
    5.6555    0.5041   -1.7016 H   0  0  0  0  0  0  0  0  0  0  0  0
    6.4101   -1.1426   -1.7170 H   0  0  0  0  0  0  0  0  0  0  0  0
    5.0924    0.1658    0.7441 H   0  0  0  0  0  0  0  0  0  0  0  0
    5.8116   -1.4624    0.6390 H   0  0  0  0  0  0  0  0  0  0  0  0
    6.3758    2.0213    1.0743 H   0  0  0  0  0  0  0  0  0  0  0  0
    8.5547    3.1166    1.4875 H   0  0  0  0  0  0  0  0  0  0  0  0
   10.6606    1.7902    1.0286 H   0  0  0  0  0  0  0  0  0  0  0  0
  1  2  1  0
  2  3  1  0
  3  4  2  0
  4  5  1  0
  5  6  2  0
  6  7  1  0
  7  8  2  0
  8  9  1  0
  9 10  1  0
 10 11  2  0
 10 12  1  0
  6 13  1  0
  2 14  1  0
 14 15  1  0
 15 16  1  0
 16 17  1  0
 17 18  1  0
 18 19  1  0
 19 20  1  0
 20 21  1  0
 21 22  1  0
 22 23  1  0
 23 24  1  0
 24 25  1  0
 25 26  2  0
 26 27  1  0
 27 28  2  0
 28 29  1  0
 29 30  2  0
 30 31  1  0
 29 32  1  0
  8  3  1  0
 30 25  1  0
 12  7  1  0
  1 33  1  0
  2 34  1  1
  4 35  1  0
  5 36  1  0
 12 37  1  0
 13 38  1  0
 14 39  1  0
 14 40  1  0
 15 41  1  0
 16 42  1  0
 16 43  1  0
 17 44  1  0
 17 45  1  0
 18 46  1  0
 18 47  1  0
 20 48  1  0
 20 49  1  0
 21 50  1  0
 21 51  1  0
 22 52  1  0
 23 53  1  0
 23 54  1  0
 24 55  1  0
 24 56  1  0
 26 57  1  0
 27 58  1  0
 28 59  1  0
M  END
>  <Ligand ID>  (1) 
LIG0005772

>  <Ligand>  (1) 
CHEMBL1807871

>  <SMILES>  (1) 
O[C@H](c1ccc(c2c1sc(=O)[nH]2)O)CNCCCSCCNCCc1cccc(c1Cl)Cl

>  <CID>  (1) 
16049376.0

>  <ChEMBL ID>  (1) 
nan

>  <InChiKey>  (1) 
VSVCCWQJHSJDMV-SFHVURJKSA-N

>  <InChi>  (1) 
InChI=1S/C22H27Cl2N3O3S2/c23-16-4-1-3-14(19(16)24)7-9-25-10-12-31-11-2-8-26-13-18(29)15-5-6-17(28)20-21(15)32-22(30)27-20/h1,3-6,18,25-26,28-29H,2,7-13H2,(H,27,30)/t18-/m0/s1

>  <IUPAC Name>  (1) 
7-[(1R)-2-[3-[2-[2-(2,3-dichlorophenyl)ethylamino]ethylsulfanyl]propylamino]-1-hydroxyethyl]-4-hydroxy-3H-1,3-benzothiazol-2-one

$$$$
