
     RDKit          3D

 21 20  0  0  0  0  0  0  0  0999 V2000
   -2.7831    1.5326   -0.8000 O   0  0  0  0  0  0  0  0  0  0  0  0
   -2.5522    0.2564   -0.2948 C   0  0  0  0  0  0  0  0  0  0  0  0
   -3.3484   -0.7085   -0.5369 O   0  0  0  0  0  0  0  0  0  0  0  0
   -1.3776   -0.0764    0.5534 C   0  0  0  0  0  0  0  0  0  0  0  0
   -0.0651    0.2057   -0.1697 C   0  0  0  0  0  0  0  0  0  0  0  0
    1.0820   -0.1403    0.7122 C   0  0  0  0  0  0  0  0  0  0  0  0
    2.6921    0.1580   -0.0527 P   0  0  0  0  0  0  0  0  0  0  0  0
    3.7975   -0.2351    0.9016 O   0  0  0  0  0  0  0  0  0  0  0  0
    2.9052    1.8151   -0.3523 O   0  0  0  0  0  0  0  0  0  0  0  0
    2.9038   -0.6829   -1.4749 O   0  0  0  0  0  0  0  0  0  0  0  0
   -1.4784   -1.4856    0.8832 N   0  0  0  0  0  0  0  0  0  0  0  0
   -3.7670    1.8086   -0.9423 H   0  0  0  0  0  0  0  0  0  0  0  0
   -1.4174    0.4919    1.5218 H   0  0  0  0  0  0  0  0  0  0  0  0
   -0.0799    1.2785   -0.4501 H   0  0  0  0  0  0  0  0  0  0  0  0
   -0.0918   -0.3639   -1.1118 H   0  0  0  0  0  0  0  0  0  0  0  0
    1.0297   -1.2256    0.9194 H   0  0  0  0  0  0  0  0  0  0  0  0
    1.0048    0.3944    1.6599 H   0  0  0  0  0  0  0  0  0  0  0  0
    2.2740    2.3471    0.1791 H   0  0  0  0  0  0  0  0  0  0  0  0
    2.9194   -1.6518   -1.3797 H   0  0  0  0  0  0  0  0  0  0  0  0
   -1.1708   -2.0285    0.0432 H   0  0  0  0  0  0  0  0  0  0  0  0
   -2.4767   -1.6897    1.0799 H   0  0  0  0  0  0  0  0  0  0  0  0
  1  2  1  0
  2  3  2  0
  2  4  1  0
  4  5  1  0
  5  6  1  0
  6  7  1  0
  7  8  2  0
  7  9  1  0
  7 10  1  0
  4 11  1  0
  1 12  1  0
  4 13  1  0
  5 14  1  0
  5 15  1  0
  6 16  1  0
  6 17  1  0
  9 18  1  0
 10 19  1  0
 11 20  1  0
 11 21  1  0
M  END
>  <Ligand ID>  (1) 
LIG0002122

>  <Ligand>  (1) 
2-amino-4-phosphonobutanoic acid

>  <SMILES>  (1) 
OC(=O)C(CCP(=O)(O)O)N

>  <CID>  (1) 
2207.0

>  <ChEMBL ID>  (1) 
nan

>  <InChiKey>  (1) 
DDOQBQRIEWHWBT-UHFFFAOYSA-N

>  <InChi>  (1) 
InChI=1S/C4H10NO5P/c5-3(4(6)7)1-2-11(8,9)10/h3H,1-2,5H2,(H,6,7)(H2,8,9,10)

>  <IUPAC Name>  (1) 
2-amino-4-phosphonobutanoic acid

$$$$
