
     RDKit          3D

 56 58  0  0  0  0  0  0  0  0999 V2000
    6.9688   -0.1406    1.1766 C   0  0  0  0  0  0  0  0  0  0  0  0
    5.5096   -0.5416    1.4576 C   0  0  0  0  0  0  0  0  0  0  0  0
    4.5791    0.4643    0.8583 C   0  0  0  0  0  0  0  0  0  0  0  0
    3.1583    0.1560    1.0829 C   0  0  0  0  0  0  0  0  0  0  0  0
    2.5289   -0.7951    1.6843 O   0  0  0  0  0  0  0  0  0  0  0  0
    1.2394   -0.6877    1.6507 N   0  0  0  0  0  0  0  0  0  0  0  0
    0.9406    0.4249    0.9724 C   0  0  0  0  0  0  0  0  0  0  0  0
    2.1547    0.9951    0.5911 C   0  0  0  0  0  0  0  0  0  0  0  0
   -0.3231    1.0426    0.6285 C   0  0  0  0  0  0  0  0  0  0  0  0
   -0.4169    2.2945    0.8634 O   0  0  0  0  0  0  0  0  0  0  0  0
   -1.4367    0.3919    0.0669 N   0  0  0  0  0  0  0  0  0  0  0  0
   -1.3686   -1.0199   -0.2046 C   0  0  0  0  0  0  0  0  0  0  0  0
   -1.2366   -1.2064   -1.7653 C   0  0  0  0  0  0  0  0  0  0  0  0
   -1.1856   -2.6668   -2.0805 C   0  0  0  0  0  0  0  0  0  0  0  0
   -1.0733   -3.5281   -0.8511 C   0  0  0  0  0  0  0  0  0  0  0  0
   -2.1281   -3.2886    0.1773 C   0  0  0  0  0  0  0  0  0  0  0  0
   -2.5510   -1.8294    0.1607 C   0  0  0  0  0  0  0  0  0  0  0  0
   -2.6534    1.1032   -0.2543 C   0  0  0  0  0  0  0  0  0  0  0  0
   -2.4507    2.0234   -1.4387 C   0  0  0  0  0  0  0  0  0  0  0  0
   -2.9174    3.4227   -1.2169 C   0  0  0  0  0  0  0  0  0  0  0  0
   -4.2607    3.5681   -0.5888 C   0  0  0  0  0  0  0  0  0  0  0  0
   -4.5786    2.4376    0.3743 C   0  0  0  0  0  0  0  0  0  0  0  0
   -3.2207    1.9079    0.8711 C   0  0  0  0  0  0  0  0  0  0  0  0
    5.3415   -1.9338    0.9014 C   0  0  0  0  0  0  0  0  0  0  0  0
    7.2821    0.7312    1.7912 H   0  0  0  0  0  0  0  0  0  0  0  0
    6.9968    0.1437    0.0998 H   0  0  0  0  0  0  0  0  0  0  0  0
    7.5890   -1.0283    1.3658 H   0  0  0  0  0  0  0  0  0  0  0  0
    5.3521   -0.5839    2.5633 H   0  0  0  0  0  0  0  0  0  0  0  0
    4.7533    0.5599   -0.2433 H   0  0  0  0  0  0  0  0  0  0  0  0
    4.8160    1.4726    1.2711 H   0  0  0  0  0  0  0  0  0  0  0  0
    2.2928    1.9171    0.0122 H   0  0  0  0  0  0  0  0  0  0  0  0
   -0.4319   -1.4813    0.1419 H   0  0  0  0  0  0  0  0  0  0  0  0
   -2.1469   -0.7510   -2.1701 H   0  0  0  0  0  0  0  0  0  0  0  0
   -0.2921   -0.7383   -2.0807 H   0  0  0  0  0  0  0  0  0  0  0  0
   -0.2474   -2.8880   -2.6690 H   0  0  0  0  0  0  0  0  0  0  0  0
   -2.0333   -2.9844   -2.7231 H   0  0  0  0  0  0  0  0  0  0  0  0
   -1.2002   -4.5974   -1.1932 H   0  0  0  0  0  0  0  0  0  0  0  0
   -0.0433   -3.4773   -0.4330 H   0  0  0  0  0  0  0  0  0  0  0  0
   -1.6685   -3.4669    1.1865 H   0  0  0  0  0  0  0  0  0  0  0  0
   -3.0081   -3.9585    0.0701 H   0  0  0  0  0  0  0  0  0  0  0  0
   -3.3282   -1.6658   -0.6437 H   0  0  0  0  0  0  0  0  0  0  0  0
   -3.0523   -1.5777    1.1138 H   0  0  0  0  0  0  0  0  0  0  0  0
   -3.4237    0.3597   -0.6230 H   0  0  0  0  0  0  0  0  0  0  0  0
   -1.3368    2.0859   -1.5935 H   0  0  0  0  0  0  0  0  0  0  0  0
   -2.8328    1.5729   -2.3654 H   0  0  0  0  0  0  0  0  0  0  0  0
   -2.9817    3.9299   -2.2206 H   0  0  0  0  0  0  0  0  0  0  0  0
   -2.1484    4.0447   -0.6672 H   0  0  0  0  0  0  0  0  0  0  0  0
   -5.0698    3.7198   -1.3215 H   0  0  0  0  0  0  0  0  0  0  0  0
   -4.2350    4.5050    0.0155 H   0  0  0  0  0  0  0  0  0  0  0  0
   -5.0113    1.6169   -0.2364 H   0  0  0  0  0  0  0  0  0  0  0  0
   -5.2280    2.7394    1.1980 H   0  0  0  0  0  0  0  0  0  0  0  0
   -2.6295    2.8079    1.1160 H   0  0  0  0  0  0  0  0  0  0  0  0
   -3.3488    1.3275    1.8094 H   0  0  0  0  0  0  0  0  0  0  0  0
    6.2947   -2.4839    1.0604 H   0  0  0  0  0  0  0  0  0  0  0  0
    4.5650   -2.5024    1.4290 H   0  0  0  0  0  0  0  0  0  0  0  0
    5.1369   -1.9432   -0.1779 H   0  0  0  0  0  0  0  0  0  0  0  0
  1  2  1  0
  2  3  1  0
  3  4  1  0
  4  5  1  0
  5  6  1  0
  6  7  2  0
  7  8  1  0
  7  9  1  0
  9 10  2  0
  9 11  1  0
 11 12  1  0
 12 13  1  0
 13 14  1  0
 14 15  1  0
 15 16  1  0
 16 17  1  0
 11 18  1  0
 18 19  1  0
 19 20  1  0
 20 21  1  0
 21 22  1  0
 22 23  1  0
  2 24  1  0
  8  4  2  0
 17 12  1  0
 23 18  1  0
  1 25  1  0
  1 26  1  0
  1 27  1  0
  2 28  1  0
  3 29  1  0
  3 30  1  0
  8 31  1  0
 12 32  1  0
 13 33  1  0
 13 34  1  0
 14 35  1  0
 14 36  1  0
 15 37  1  0
 15 38  1  0
 16 39  1  0
 16 40  1  0
 17 41  1  0
 17 42  1  0
 18 43  1  0
 19 44  1  0
 19 45  1  0
 20 46  1  0
 20 47  1  0
 21 48  1  0
 21 49  1  0
 22 50  1  0
 22 51  1  0
 23 52  1  0
 23 53  1  0
 24 54  1  0
 24 55  1  0
 24 56  1  0
M  END
>  <Ligand ID>  (1) 
LIG0001514

>  <Ligand>  (1) 
CHEMBL1999116

>  <SMILES>  (1) 
CC(Cc1onc(c1)C(=O)N(C1CCCCC1)C1CCCCC1)C

>  <CID>  (1) 
25110485.0

>  <ChEMBL ID>  (1) 
nan

>  <InChiKey>  (1) 
XBSYYNWVLYLNAE-UHFFFAOYSA-N

>  <InChi>  (1) 
InChI=1S/C20H32N2O2/c1-15(2)13-18-14-19(21-24-18)20(23)22(16-9-5-3-6-10-16)17-11-7-4-8-12-17/h14-17H,3-13H2,1-2H3

>  <IUPAC Name>  (1) 
N,N-dicyclohexyl-5-(2-methylpropyl)-1,2-oxazole-3-carboxamide

$$$$
