
     RDKit          3D

 71 74  0  0  0  0  0  0  0  0999 V2000
   -7.3932   -1.6594   -1.5567 C   0  0  0  0  0  0  0  0  0  0  0  0
   -7.7892   -0.8346   -0.3508 C   0  0  0  0  0  0  0  0  0  0  0  0
   -7.9321    0.5758   -0.7249 N   0  0  0  0  0  0  0  0  0  0  0  0
   -9.0463    1.1893   -1.1612 C   0  0  0  0  0  0  0  0  0  0  0  0
  -10.1788    0.6598   -1.3255 O   0  0  0  0  0  0  0  0  0  0  0  0
   -8.7679    2.4870   -1.4029 N   0  0  0  0  0  0  0  0  0  0  0  0
   -7.4732    2.6821   -1.1156 C   0  0  0  0  0  0  0  0  0  0  0  0
   -6.9318    1.4760   -0.6838 C   0  0  0  0  0  0  0  0  0  0  0  0
   -5.6036    1.3959   -0.3221 C   0  0  0  0  0  0  0  0  0  0  0  0
   -5.0401    0.1829    0.1185 O   0  0  0  0  0  0  0  0  0  0  0  0
   -3.6742    0.1072    0.4851 C   0  0  0  0  0  0  0  0  0  0  0  0
   -3.3929   -1.3068    0.9201 C   0  0  2  0  0  0  0  0  0  0  0  0
   -1.9650   -1.5189    1.3879 C   0  0  0  0  0  0  0  0  0  0  0  0
   -1.0802   -1.2782    0.2987 N   0  0  0  0  0  0  0  0  0  0  0  0
    0.3313   -1.4302    0.6154 C   0  0  0  0  0  0  0  0  0  0  0  0
    1.0652   -1.1987   -0.6872 C   0  0  0  0  0  0  0  0  0  0  0  0
    2.5180   -1.2992   -0.6028 C   0  0  0  0  0  0  0  0  0  0  0  0
    3.2232   -2.4725   -0.7686 C   0  0  0  0  0  0  0  0  0  0  0  0
    4.5966   -2.5110   -0.6931 C   0  0  0  0  0  0  0  0  0  0  0  0
    5.3607   -1.3592   -0.4437 C   0  0  0  0  0  0  0  0  0  0  0  0
    4.6482   -0.2025   -0.2806 C   0  0  0  0  0  0  0  0  0  0  0  0
    3.2499   -0.1586   -0.3561 C   0  0  0  0  0  0  0  0  0  0  0  0
    6.7054   -1.5246   -0.3944 O   0  0  0  0  0  0  0  0  0  0  0  0
    7.6088   -0.5319   -0.1973 C   0  0  0  0  0  0  0  0  0  0  0  0
    8.9649   -0.9203   -0.1911 C   0  0  0  0  0  0  0  0  0  0  0  0
    9.9461    0.0349    0.0020 C   0  0  0  0  0  0  0  0  0  0  0  0
    9.6299    1.3623    0.1891 C   0  0  0  0  0  0  0  0  0  0  0  0
    8.3060    1.7165    0.1791 C   0  0  0  0  0  0  0  0  0  0  0  0
    7.3902    0.7660   -0.0100 N   0  0  0  0  0  0  0  0  0  0  0  0
   10.6943    2.3487    0.3885 C   0  0  0  0  0  0  0  0  0  0  0  0
   11.8946    2.0092    0.3697 O   0  0  0  0  0  0  0  0  0  0  0  0
   10.3663    3.7143    0.6072 N   0  0  0  0  0  0  0  0  0  0  0  0
    0.7070   -0.4051    1.6596 C   0  0  0  0  0  0  0  0  0  0  0  0
    0.6521   -2.7921    1.1671 C   0  0  0  0  0  0  0  0  0  0  0  0
   -3.6649   -2.1737   -0.1350 O   0  0  0  0  0  0  0  0  0  0  0  0
   -4.7855    2.5063   -0.3802 C   0  0  0  0  0  0  0  0  0  0  0  0
   -5.3151    3.7076   -0.8081 C   0  0  0  0  0  0  0  0  0  0  0  0
   -6.6498    3.7946   -1.1733 C   0  0  0  0  0  0  0  0  0  0  0  0
   -8.2810   -1.9044   -2.1564 H   0  0  0  0  0  0  0  0  0  0  0  0
   -6.7030   -1.1105   -2.2266 H   0  0  0  0  0  0  0  0  0  0  0  0
   -6.9055   -2.5918   -1.2420 H   0  0  0  0  0  0  0  0  0  0  0  0
   -7.0612   -0.9901    0.4605 H   0  0  0  0  0  0  0  0  0  0  0  0
   -8.7649   -1.2012    0.0229 H   0  0  0  0  0  0  0  0  0  0  0  0
   -9.4060    3.2446   -1.7501 H   0  0  0  0  0  0  0  0  0  0  0  0
   -3.4259    0.8028    1.3097 H   0  0  0  0  0  0  0  0  0  0  0  0
   -3.0277    0.3852   -0.3609 H   0  0  0  0  0  0  0  0  0  0  0  0
   -4.1135   -1.6175    1.7310 H   0  0  0  0  0  0  0  0  0  0  0  0
   -1.7681   -0.9054    2.2932 H   0  0  0  0  0  0  0  0  0  0  0  0
   -1.9079   -2.6141    1.6494 H   0  0  0  0  0  0  0  0  0  0  0  0
   -1.1776   -0.3669   -0.1597 H   0  0  0  0  0  0  0  0  0  0  0  0
    0.7858   -0.1804   -1.0484 H   0  0  0  0  0  0  0  0  0  0  0  0
    0.6604   -1.9363   -1.4306 H   0  0  0  0  0  0  0  0  0  0  0  0
    2.6592   -3.3612   -0.9602 H   0  0  0  0  0  0  0  0  0  0  0  0
    5.0857   -3.4771   -0.8347 H   0  0  0  0  0  0  0  0  0  0  0  0
    5.1196    0.7415   -0.0843 H   0  0  0  0  0  0  0  0  0  0  0  0
    2.7228    0.7834   -0.2217 H   0  0  0  0  0  0  0  0  0  0  0  0
    9.2366   -1.9676   -0.3369 H   0  0  0  0  0  0  0  0  0  0  0  0
   11.0013   -0.2661    0.0084 H   0  0  0  0  0  0  0  0  0  0  0  0
    8.0139    2.7611    0.3246 H   0  0  0  0  0  0  0  0  0  0  0  0
    9.6070    3.9900    1.2579 H   0  0  0  0  0  0  0  0  0  0  0  0
   10.9080    4.4666    0.0972 H   0  0  0  0  0  0  0  0  0  0  0  0
    0.1358    0.5447    1.5498 H   0  0  0  0  0  0  0  0  0  0  0  0
    0.4006   -0.8372    2.6504 H   0  0  0  0  0  0  0  0  0  0  0  0
    1.8051   -0.2505    1.7323 H   0  0  0  0  0  0  0  0  0  0  0  0
    0.1522   -2.9097    2.1670 H   0  0  0  0  0  0  0  0  0  0  0  0
    1.7444   -2.7877    1.4056 H   0  0  0  0  0  0  0  0  0  0  0  0
    0.3734   -3.6265    0.5086 H   0  0  0  0  0  0  0  0  0  0  0  0
   -3.5136   -1.7284   -1.0263 H   0  0  0  0  0  0  0  0  0  0  0  0
   -3.7335    2.4233   -0.0878 H   0  0  0  0  0  0  0  0  0  0  0  0
   -4.7186    4.6026   -0.8707 H   0  0  0  0  0  0  0  0  0  0  0  0
   -7.0787    4.7463   -1.5158 H   0  0  0  0  0  0  0  0  0  0  0  0
  1  2  1  0
  2  3  1  0
  3  4  1  0
  4  5  2  0
  4  6  1  0
  6  7  1  0
  7  8  2  0
  8  9  1  0
  9 10  1  0
 10 11  1  0
 11 12  1  0
 12 13  1  0
 13 14  1  0
 14 15  1  0
 15 16  1  0
 16 17  1  0
 17 18  2  0
 18 19  1  0
 19 20  2  0
 20 21  1  0
 21 22  2  0
 20 23  1  0
 23 24  1  0
 24 25  2  0
 25 26  1  0
 26 27  2  0
 27 28  1  0
 28 29  2  0
 27 30  1  0
 30 31  2  0
 30 32  1  0
 15 33  1  0
 15 34  1  0
 12 35  1  0
  9 36  2  0
 36 37  1  0
 37 38  2  0
  8  3  1  0
 22 17  1  0
 29 24  1  0
 38  7  1  0
  1 39  1  0
  1 40  1  0
  1 41  1  0
  2 42  1  0
  2 43  1  0
  6 44  1  0
 11 45  1  0
 11 46  1  0
 12 47  1  1
 13 48  1  0
 13 49  1  0
 14 50  1  0
 16 51  1  0
 16 52  1  0
 18 53  1  0
 19 54  1  0
 21 55  1  0
 22 56  1  0
 25 57  1  0
 26 58  1  0
 28 59  1  0
 32 60  1  0
 32 61  1  0
 33 62  1  0
 33 63  1  0
 33 64  1  0
 34 65  1  0
 34 66  1  0
 34 67  1  0
 35 68  1  0
 36 69  1  0
 37 70  1  0
 38 71  1  0
M  END
>  <Ligand ID>  (1) 
LIG0004397

>  <Ligand>  (1) 
CHEMBL384560

>  <SMILES>  (1) 
CCn1c(=O)[nH]c2c1c(OC[C@H](CNC(Cc1ccc(cc1)Oc1ccc(cn1)C(=O)N)(C)C)O)ccc2

>  <CID>  (1) 
44419315.0

>  <ChEMBL ID>  (1) 
nan

>  <InChiKey>  (1) 
XUDGCOWUVGYAJW-FQEVSTJZSA-N

>  <InChi>  (1) 
InChI=1S/C28H33N5O5/c1-4-33-25-22(32-27(33)36)6-5-7-23(25)37-17-20(34)16-31-28(2,3)14-18-8-11-21(12-9-18)38-24-13-10-19(15-30-24)26(29)35/h5-13,15,20,31,34H,4,14,16-17H2,1-3H3,(H2,29,35)(H,32,36)/t20-/m0/s1

>  <IUPAC Name>  (1) 
6-[4-[2-[[(2S)-3-[(3-ethyl-2-oxo-1H-benzimidazol-4-yl)oxy]-2-hydroxypropyl]amino]-2-methylpropyl]phenoxy]pyridine-3-carboxamide

$$$$
