
     RDKit          3D

 29 30  0  0  0  0  0  0  0  0999 V2000
    2.2276   -1.1768    0.9457 C   0  0  0  0  0  0  0  0  0  0  0  0
    1.9029   -0.1042   -0.0365 C   0  0  0  0  0  0  0  0  0  0  0  0
    0.4406   -0.0522   -0.3027 C   0  0  0  0  0  0  0  0  0  0  0  0
   -0.1577   -1.2969   -0.8622 C   0  0  0  0  0  0  0  0  0  0  0  0
   -1.5638   -1.3278   -0.2598 C   0  0  0  0  0  0  0  0  0  0  0  0
   -1.5928    0.0906    0.3059 C   0  0  0  0  0  0  0  0  0  0  0  0
   -0.3105    0.1228    0.8831 O   0  0  0  0  0  0  0  0  0  0  0  0
   -1.5300    1.0296   -0.8724 C   0  0  0  0  0  0  0  0  0  0  0  0
   -0.0113    1.1767   -1.0474 C   0  0  0  0  0  0  0  0  0  0  0  0
   -2.6969    0.3304    1.2558 C   0  0  0  0  0  0  0  0  0  0  0  0
    2.3892    1.2222    0.4389 C   0  0  0  0  0  0  0  0  0  0  0  0
    2.5993   -0.7279    1.9126 H   0  0  0  0  0  0  0  0  0  0  0  0
    3.0862   -1.7936    0.5864 H   0  0  0  0  0  0  0  0  0  0  0  0
    1.3822   -1.8363    1.2108 H   0  0  0  0  0  0  0  0  0  0  0  0
    2.4028   -0.3119   -0.9990 H   0  0  0  0  0  0  0  0  0  0  0  0
    0.3698   -2.2142   -0.6182 H   0  0  0  0  0  0  0  0  0  0  0  0
   -0.2873   -1.1480   -1.9658 H   0  0  0  0  0  0  0  0  0  0  0  0
   -1.6241   -2.0670    0.5657 H   0  0  0  0  0  0  0  0  0  0  0  0
   -2.3484   -1.4830   -1.0103 H   0  0  0  0  0  0  0  0  0  0  0  0
   -1.8671    0.5320   -1.8142 H   0  0  0  0  0  0  0  0  0  0  0  0
   -2.0276    1.9903   -0.6823 H   0  0  0  0  0  0  0  0  0  0  0  0
    0.2598    2.0961   -0.5070 H   0  0  0  0  0  0  0  0  0  0  0  0
    0.2858    1.1613   -2.1110 H   0  0  0  0  0  0  0  0  0  0  0  0
   -3.2894   -0.5963    1.4606 H   0  0  0  0  0  0  0  0  0  0  0  0
   -3.4449    1.0645    0.8749 H   0  0  0  0  0  0  0  0  0  0  0  0
   -2.3490    0.6785    2.2466 H   0  0  0  0  0  0  0  0  0  0  0  0
    3.5013    1.1393    0.6203 H   0  0  0  0  0  0  0  0  0  0  0  0
    2.2968    1.9776   -0.3557 H   0  0  0  0  0  0  0  0  0  0  0  0
    1.9567    1.5242    1.4094 H   0  0  0  0  0  0  0  0  0  0  0  0
  1  2  1  0
  2  3  1  0
  3  4  1  0
  4  5  1  0
  5  6  1  0
  6  7  1  0
  6  8  1  0
  8  9  1  0
  6 10  1  0
  2 11  1  0
  9  3  1  0
  7  3  1  0
  1 12  1  0
  1 13  1  0
  1 14  1  0
  2 15  1  0
  4 16  1  0
  4 17  1  0
  5 18  1  0
  5 19  1  0
  8 20  1  0
  8 21  1  0
  9 22  1  0
  9 23  1  0
 10 24  1  0
 10 25  1  0
 10 26  1  0
 11 27  1  0
 11 28  1  0
 11 29  1  0
M  END
>  <Ligand ID>  (1) 
LIG0000248

>  <Ligand>  (1) 
1,4-Cineole

>  <SMILES>  (1) 
CC(C12CCC(O2)(CC1)C)C

>  <CID>  (1) 
10106.0

>  <ChEMBL ID>  (1) 
nan

>  <InChiKey>  (1) 
RFFOTVCVTJUTAD-UHFFFAOYSA-N

>  <InChi>  (1) 
InChI=1S/C10H18O/c1-8(2)10-6-4-9(3,11-10)5-7-10/h8H,4-7H2,1-3H3

>  <IUPAC Name>  (1) 
1-methyl-4-propan-2-yl-7-oxabicyclo[2.2.1]heptane

$$$$
