
     RDKit          3D

 57 59  0  0  0  0  0  0  0  0999 V2000
   -6.4781    2.7627   -1.8331 C   0  0  0  0  0  0  0  0  0  0  0  0
   -5.3684    2.4077   -0.8659 C   0  0  0  0  0  0  0  0  0  0  0  0
   -5.1313    0.8924   -0.8553 C   0  0  0  0  0  0  0  0  0  0  0  0
   -4.0320    0.5874    0.1091 C   0  0  0  0  0  0  0  0  0  0  0  0
   -3.7053   -0.8767    0.2087 C   0  0  0  0  0  0  0  0  0  0  0  0
   -4.8894   -1.7326    0.6674 C   0  0  0  0  0  0  0  0  0  0  0  0
   -4.8251   -2.4011   -0.6934 C   0  0  0  0  0  0  0  0  0  0  0  0
   -3.5611   -1.6349   -1.0706 C   0  0  0  0  0  0  0  0  0  0  0  0
   -2.5521   -1.1314    1.1341 C   0  0  1  0  0  0  0  0  0  0  0  0
   -1.3059   -0.4458    0.6925 C   0  0  0  0  0  0  0  0  0  0  0  0
   -0.2225   -0.6157    1.4251 C   0  0  0  0  0  0  0  0  0  0  0  0
    1.0938    0.0037    1.1113 C   0  0  1  0  0  0  0  0  0  0  0  0
    1.5063    0.7632    2.3624 C   0  0  0  0  0  0  0  0  0  0  0  0
    1.6437   -0.3149    3.2721 O   0  0  0  0  0  0  0  0  0  0  0  0
    2.2437   -1.3421    2.5543 C   0  0  0  0  0  0  0  0  0  0  0  0
    2.8211   -2.3772    3.0119 O   0  0  0  0  0  0  0  0  0  0  0  0
    2.1127   -1.0543    1.1456 N   0  0  0  0  0  0  0  0  0  0  0  0
    2.8227   -1.6727    0.0704 C   0  0  0  0  0  0  0  0  0  0  0  0
    4.1251   -0.9654   -0.2794 C   0  0  0  0  0  0  0  0  0  0  0  0
    5.1681   -0.9974    1.1970 S   0  0  0  0  0  0  0  0  0  0  0  0
    6.6799   -0.1774    0.7940 C   0  0  0  0  0  0  0  0  0  0  0  0
    8.0761    0.0505    1.9759 S   0  0  0  0  0  0  0  0  0  0  0  0
    9.0933    0.9426    0.7059 C   0  0  0  0  0  0  0  0  0  0  0  0
    8.2597    0.9417   -0.3966 C   0  0  0  0  0  0  0  0  0  0  0  0
    7.1023    0.3595   -0.2220 N   0  0  0  0  0  0  0  0  0  0  0  0
    8.6708    1.5631   -1.6758 C   0  0  0  0  0  0  0  0  0  0  0  0
    7.9203    1.5680   -2.6849 O   0  0  0  0  0  0  0  0  0  0  0  0
    9.9073    2.1686   -1.8140 O   0  0  0  0  0  0  0  0  0  0  0  0
   -2.9149   -0.5997    2.3898 O   0  0  0  0  0  0  0  0  0  0  0  0
   -7.3991    2.2286   -1.5156 H   0  0  0  0  0  0  0  0  0  0  0  0
   -6.2597    2.5020   -2.8775 H   0  0  0  0  0  0  0  0  0  0  0  0
   -6.6932    3.8411   -1.6846 H   0  0  0  0  0  0  0  0  0  0  0  0
   -5.7259    2.7347    0.1299 H   0  0  0  0  0  0  0  0  0  0  0  0
   -4.4532    2.9641   -1.1037 H   0  0  0  0  0  0  0  0  0  0  0  0
   -6.0984    0.4411   -0.4917 H   0  0  0  0  0  0  0  0  0  0  0  0
   -4.9023    0.5461   -1.8719 H   0  0  0  0  0  0  0  0  0  0  0  0
   -3.1168    1.1225   -0.1785 H   0  0  0  0  0  0  0  0  0  0  0  0
   -4.3185    0.9128    1.1256 H   0  0  0  0  0  0  0  0  0  0  0  0
   -5.8062   -1.1796    0.8782 H   0  0  0  0  0  0  0  0  0  0  0  0
   -4.6844   -2.4397    1.4746 H   0  0  0  0  0  0  0  0  0  0  0  0
   -5.7289   -2.1410   -1.2743 H   0  0  0  0  0  0  0  0  0  0  0  0
   -4.6372   -3.4968   -0.6324 H   0  0  0  0  0  0  0  0  0  0  0  0
   -2.6713   -2.3020   -1.1190 H   0  0  0  0  0  0  0  0  0  0  0  0
   -3.6154   -1.0331   -1.9793 H   0  0  0  0  0  0  0  0  0  0  0  0
   -2.3231   -2.1988    1.2608 H   0  0  0  0  0  0  0  0  0  0  0  0
   -1.2517    0.1806   -0.1964 H   0  0  0  0  0  0  0  0  0  0  0  0
   -0.2620   -1.2402    2.3177 H   0  0  0  0  0  0  0  0  0  0  0  0
    1.1026    0.5916    0.1990 H   0  0  0  0  0  0  0  0  0  0  0  0
    2.4436    1.3245    2.2358 H   0  0  0  0  0  0  0  0  0  0  0  0
    0.6331    1.4046    2.6225 H   0  0  0  0  0  0  0  0  0  0  0  0
    2.1768   -1.7660   -0.8189 H   0  0  0  0  0  0  0  0  0  0  0  0
    3.1439   -2.6972    0.4034 H   0  0  0  0  0  0  0  0  0  0  0  0
    4.5833   -1.4991   -1.1184 H   0  0  0  0  0  0  0  0  0  0  0  0
    3.8853    0.1022   -0.4845 H   0  0  0  0  0  0  0  0  0  0  0  0
   10.0761    1.3182    0.9060 H   0  0  0  0  0  0  0  0  0  0  0  0
   10.1207    2.8420   -2.5366 H   0  0  0  0  0  0  0  0  0  0  0  0
   -2.4787    0.2648    2.5410 H   0  0  0  0  0  0  0  0  0  0  0  0
  1  2  1  0
  2  3  1  0
  3  4  1  0
  4  5  1  0
  5  6  1  0
  6  7  1  0
  7  8  1  0
  5  9  1  0
  9 10  1  0
 10 11  2  0
 11 12  1  0
 12 13  1  0
 13 14  1  0
 14 15  1  0
 15 16  2  0
 15 17  1  0
 17 18  1  0
 18 19  1  0
 19 20  1  0
 20 21  1  0
 21 22  1  0
 22 23  1  0
 23 24  2  0
 24 25  1  0
 24 26  1  0
 26 27  2  0
 26 28  1  0
  9 29  1  0
  8  5  1  0
 17 12  1  0
 25 21  2  0
  1 30  1  0
  1 31  1  0
  1 32  1  0
  2 33  1  0
  2 34  1  0
  3 35  1  0
  3 36  1  0
  4 37  1  0
  4 38  1  0
  6 39  1  0
  6 40  1  0
  7 41  1  0
  7 42  1  0
  8 43  1  0
  8 44  1  0
  9 45  1  1
 10 46  1  0
 11 47  1  0
 12 48  1  6
 13 49  1  0
 13 50  1  0
 18 51  1  0
 18 52  1  0
 19 53  1  0
 19 54  1  0
 23 55  1  0
 28 56  1  0
 29 57  1  0
M  END
>  <Ligand ID>  (1) 
LIG0004199

>  <Ligand>  (1) 
CHEMBL3753221

>  <SMILES>  (1) 
CCCCC1(CCC1)[C@@H](/C=C/[C@H]1COC(=O)N1CCSc1scc(n1)C(=O)O)O

>  <CID>  (1) 
59554822.0

>  <ChEMBL ID>  (1) 
nan

>  <InChiKey>  (1) 
RIWSCZBTNQWOHL-HMRWBYCRSA-N

>  <InChi>  (1) 
InChI=1S/C20H28N2O5S2/c1-2-3-7-20(8-4-9-20)16(23)6-5-14-12-27-19(26)22(14)10-11-28-18-21-15(13-29-18)17(24)25/h5-6,13-14,16,23H,2-4,7-12H2,1H3,(H,24,25)/b6-5+/t14-,16+/m0/s1

>  <IUPAC Name>  (1) 
2-[2-[(4S)-4-[(E,3R)-3-(1-butylcyclobutyl)-3-hydroxyprop-1-enyl]-2-oxo-1,3-oxazolidin-3-yl]ethylsulfanyl]-1,3-thiazole-4-carboxylic acid

$$$$
