
     RDKit          3D

 65 66  0  0  0  0  0  0  0  0999 V2000
    9.2918   -0.3608    1.4636 O   0  0  0  0  0  0  0  0  0  0  0  0
    8.2116    0.3499    1.9578 C   0  0  0  0  0  0  0  0  0  0  0  0
    7.3728    0.9509    0.8700 C   0  0  0  0  0  0  0  0  0  0  0  0
    6.1720    0.3616    0.5198 C   0  0  0  0  0  0  0  0  0  0  0  0
    5.3970    0.9057   -0.4818 C   0  0  0  0  0  0  0  0  0  0  0  0
    5.8146    2.0426   -1.1421 C   0  0  0  0  0  0  0  0  0  0  0  0
    7.0269    2.6370   -0.7877 C   0  0  0  0  0  0  0  0  0  0  0  0
    7.8213    2.1089    0.2140 C   0  0  0  0  0  0  0  0  0  0  0  0
    9.0401    2.6999    0.5750 O   0  0  0  0  0  0  0  0  0  0  0  0
    4.0818    0.2406   -0.8552 C   0  0  2  0  0  0  0  0  0  0  0  0
    3.1362    0.5820    0.2259 C   0  0  0  0  0  0  0  0  0  0  0  0
    1.8227    0.2283    0.1668 N   0  0  0  0  0  0  0  0  0  0  0  0
    1.1882   -0.9988    0.1715 C   0  0  0  0  0  0  0  0  0  0  0  0
    1.1626   -1.7241   -1.1385 C   0  0  0  0  0  0  0  0  0  0  0  0
    0.4709   -3.0628   -1.0606 C   0  0  0  0  0  0  0  0  0  0  0  0
   -0.9311   -2.9383   -0.6010 C   0  0  0  0  0  0  0  0  0  0  0  0
   -1.7476   -2.0567   -1.5091 C   0  0  0  0  0  0  0  0  0  0  0  0
   -3.1878   -1.9919   -1.0287 C   0  0  0  0  0  0  0  0  0  0  0  0
   -3.9706   -1.2137   -1.8036 O   0  0  0  0  0  0  0  0  0  0  0  0
   -3.6374    0.1142   -1.8849 C   0  0  0  0  0  0  0  0  0  0  0  0
   -3.6412    0.7843   -0.5169 C   0  0  0  0  0  0  0  0  0  0  0  0
   -4.8581    0.7096    0.1040 O   0  0  0  0  0  0  0  0  0  0  0  0
   -5.8426    1.3146   -0.6397 C   0  0  0  0  0  0  0  0  0  0  0  0
   -7.1059    1.1780    0.1848 C   0  0  0  0  0  0  0  0  0  0  0  0
   -7.6022    2.2836    0.8733 C   0  0  0  0  0  0  0  0  0  0  0  0
   -8.7447    2.1609    1.6216 C   0  0  0  0  0  0  0  0  0  0  0  0
   -9.4153    3.5329    2.5145 Cl  0  0  0  0  0  0  0  0  0  0  0  0
   -9.3852    0.9434    1.6815 C   0  0  0  0  0  0  0  0  0  0  0  0
   -8.9161   -0.1714    1.0091 C   0  0  0  0  0  0  0  0  0  0  0  0
   -7.7666   -0.0304    0.2611 C   0  0  0  0  0  0  0  0  0  0  0  0
   -7.1427   -1.4262   -0.6064 Cl  0  0  0  0  0  0  0  0  0  0  0  0
    4.3470   -1.1026   -1.0411 O   0  0  0  0  0  0  0  0  0  0  0  0
    9.0846   -1.3326    1.4905 H   0  0  0  0  0  0  0  0  0  0  0  0
    7.5447   -0.3435    2.5230 H   0  0  0  0  0  0  0  0  0  0  0  0
    8.5397    1.1867    2.6179 H   0  0  0  0  0  0  0  0  0  0  0  0
    5.7945   -0.5294    1.0040 H   0  0  0  0  0  0  0  0  0  0  0  0
    5.2191    2.4700   -1.9230 H   0  0  0  0  0  0  0  0  0  0  0  0
    7.3917    3.5325   -1.2831 H   0  0  0  0  0  0  0  0  0  0  0  0
    9.8700    2.5638   -0.0081 H   0  0  0  0  0  0  0  0  0  0  0  0
    3.7835    0.6875   -1.8415 H   0  0  0  0  0  0  0  0  0  0  0  0
    3.1677    1.7452    0.3300 H   0  0  0  0  0  0  0  0  0  0  0  0
    3.6555    0.2544    1.2029 H   0  0  0  0  0  0  0  0  0  0  0  0
    1.1393    1.0579    0.0659 H   0  0  0  0  0  0  0  0  0  0  0  0
    1.6776   -1.7228    0.9239 H   0  0  0  0  0  0  0  0  0  0  0  0
    0.1350   -0.9600    0.5934 H   0  0  0  0  0  0  0  0  0  0  0  0
    0.6328   -1.0506   -1.8734 H   0  0  0  0  0  0  0  0  0  0  0  0
    2.1332   -1.9279   -1.6090 H   0  0  0  0  0  0  0  0  0  0  0  0
    0.5139   -3.5588   -2.0688 H   0  0  0  0  0  0  0  0  0  0  0  0
    1.0628   -3.7332   -0.3864 H   0  0  0  0  0  0  0  0  0  0  0  0
   -0.9445   -2.6051    0.4607 H   0  0  0  0  0  0  0  0  0  0  0  0
   -1.4207   -3.9628   -0.6139 H   0  0  0  0  0  0  0  0  0  0  0  0
   -1.3044   -1.0599   -1.5809 H   0  0  0  0  0  0  0  0  0  0  0  0
   -1.7684   -2.5161   -2.5080 H   0  0  0  0  0  0  0  0  0  0  0  0
   -3.5847   -3.0501   -1.0352 H   0  0  0  0  0  0  0  0  0  0  0  0
   -3.2251   -1.6989    0.0566 H   0  0  0  0  0  0  0  0  0  0  0  0
   -2.5970    0.2692   -2.3156 H   0  0  0  0  0  0  0  0  0  0  0  0
   -4.3711    0.6629   -2.5195 H   0  0  0  0  0  0  0  0  0  0  0  0
   -3.3884    1.8708   -0.6644 H   0  0  0  0  0  0  0  0  0  0  0  0
   -2.8307    0.2911    0.0825 H   0  0  0  0  0  0  0  0  0  0  0  0
   -6.0777    0.6687   -1.5413 H   0  0  0  0  0  0  0  0  0  0  0  0
   -5.6475    2.3606   -0.8966 H   0  0  0  0  0  0  0  0  0  0  0  0
   -7.0987    3.2596    0.8296 H   0  0  0  0  0  0  0  0  0  0  0  0
  -10.2972    0.8540    2.2836 H   0  0  0  0  0  0  0  0  0  0  0  0
   -9.4132   -1.1390    1.0476 H   0  0  0  0  0  0  0  0  0  0  0  0
    4.1611   -1.5951   -0.1765 H   0  0  0  0  0  0  0  0  0  0  0  0
  1  2  1  0
  2  3  1  0
  3  4  2  0
  4  5  1  0
  5  6  2  0
  6  7  1  0
  7  8  2  0
  8  9  1  0
  5 10  1  0
 10 11  1  0
 11 12  1  0
 12 13  1  0
 13 14  1  0
 14 15  1  0
 15 16  1  0
 16 17  1  0
 17 18  1  0
 18 19  1  0
 19 20  1  0
 20 21  1  0
 21 22  1  0
 22 23  1  0
 23 24  1  0
 24 25  2  0
 25 26  1  0
 26 27  1  0
 26 28  2  0
 28 29  1  0
 29 30  2  0
 30 31  1  0
 10 32  1  0
  8  3  1  0
 30 24  1  0
  1 33  1  0
  2 34  1  0
  2 35  1  0
  4 36  1  0
  6 37  1  0
  7 38  1  0
  9 39  1  0
 10 40  1  6
 11 41  1  0
 11 42  1  0
 12 43  1  0
 13 44  1  0
 13 45  1  0
 14 46  1  0
 14 47  1  0
 15 48  1  0
 15 49  1  0
 16 50  1  0
 16 51  1  0
 17 52  1  0
 17 53  1  0
 18 54  1  0
 18 55  1  0
 20 56  1  0
 20 57  1  0
 21 58  1  0
 21 59  1  0
 23 60  1  0
 23 61  1  0
 25 62  1  0
 28 63  1  0
 29 64  1  0
 32 65  1  0
M  END
>  <Ligand ID>  (1) 
LIG0002467

>  <Ligand>  (1) 
CHEMBL1084648

>  <SMILES>  (1) 
OCc1cc(ccc1O)[C@H](CNCCCCCCOCCOCc1cc(Cl)ccc1Cl)O

>  <CID>  (1) 
46832798.0

>  <ChEMBL ID>  (1) 
nan

>  <InChiKey>  (1) 
WSRPIJNBYQUXPN-DEOSSOPVSA-N

>  <InChi>  (1) 
InChI=1S/C24H33Cl2NO5/c25-21-6-7-22(26)20(14-21)17-32-12-11-31-10-4-2-1-3-9-27-15-24(30)18-5-8-23(29)19(13-18)16-28/h5-8,13-14,24,27-30H,1-4,9-12,15-17H2/t24-/m0/s1

>  <IUPAC Name>  (1) 
4-[(1R)-2-[6-[2-[(2,5-dichlorophenyl)methoxy]ethoxy]hexylamino]-1-hydroxyethyl]-2-(hydroxymethyl)phenol

$$$$
