
     RDKit          3D

 41 43  0  0  0  0  0  0  0  0999 V2000
   -6.5747    3.0612   -0.7432 O   0  0  0  0  0  0  0  0  0  0  0  0
   -6.1479    1.9134   -0.0871 C   0  0  0  0  0  0  0  0  0  0  0  0
   -6.9697    1.2741    0.6288 O   0  0  0  0  0  0  0  0  0  0  0  0
   -4.7457    1.5034   -0.2661 C   0  0  0  0  0  0  0  0  0  0  0  0
   -4.3712    0.2666    0.4690 C   0  0  0  0  0  0  0  0  0  0  0  0
   -2.9321   -0.0037    0.1808 C   0  0  0  0  0  0  0  0  0  0  0  0
   -2.4839   -0.2974   -1.0250 O   0  0  0  0  0  0  0  0  0  0  0  0
   -1.1751   -0.4888   -0.9972 C   0  0  0  0  0  0  0  0  0  0  0  0
   -0.7251   -0.3101    0.3157 C   0  0  0  0  0  0  0  0  0  0  0  0
   -1.8570   -0.0046    1.0373 C   0  0  0  0  0  0  0  0  0  0  0  0
    0.6188   -0.4512    0.6398 C   0  0  0  0  0  0  0  0  0  0  0  0
    1.5308   -0.7737   -0.3484 C   0  0  0  0  0  0  0  0  0  0  0  0
    1.0754   -0.9494   -1.6493 C   0  0  0  0  0  0  0  0  0  0  0  0
   -0.2594   -0.8105   -1.9783 C   0  0  0  0  0  0  0  0  0  0  0  0
    2.9641   -0.9307   -0.0369 C   0  0  0  0  0  0  0  0  0  0  0  0
    3.9072   -0.3533   -0.8649 C   0  0  0  0  0  0  0  0  0  0  0  0
    5.2559   -0.4883   -0.5909 C   0  0  0  0  0  0  0  0  0  0  0  0
    5.6495   -1.2126    0.5284 C   0  0  0  0  0  0  0  0  0  0  0  0
    4.6993   -1.7990    1.3697 C   0  0  0  0  0  0  0  0  0  0  0  0
    3.3579   -1.6514    1.0771 C   0  0  0  0  0  0  0  0  0  0  0  0
    2.3965   -2.1995    1.8596 F   0  0  0  0  0  0  0  0  0  0  0  0
    6.1791    0.1038   -1.4423 O   0  0  0  0  0  0  0  0  0  0  0  0
    6.5652    1.4424   -1.1281 C   0  0  0  0  0  0  0  0  0  0  0  0
    7.1448    1.5378    0.1240 F   0  0  0  0  0  0  0  0  0  0  0  0
    7.5390    1.8819   -2.0198 F   0  0  0  0  0  0  0  0  0  0  0  0
    5.5042    2.3201   -1.1969 F   0  0  0  0  0  0  0  0  0  0  0  0
   -5.2471   -0.9172    0.1775 C   0  0  0  0  0  0  0  0  0  0  0  0
   -7.3390    3.6405   -0.3626 H   0  0  0  0  0  0  0  0  0  0  0  0
   -4.1165    2.3306    0.1789 H   0  0  0  0  0  0  0  0  0  0  0  0
   -4.4316    1.4664   -1.3467 H   0  0  0  0  0  0  0  0  0  0  0  0
   -4.4287    0.4809    1.5665 H   0  0  0  0  0  0  0  0  0  0  0  0
   -1.8971    0.2008    2.0996 H   0  0  0  0  0  0  0  0  0  0  0  0
    0.9309   -0.3078    1.6541 H   0  0  0  0  0  0  0  0  0  0  0  0
    1.8373   -1.2028   -2.3897 H   0  0  0  0  0  0  0  0  0  0  0  0
   -0.5377   -0.9618   -3.0074 H   0  0  0  0  0  0  0  0  0  0  0  0
    3.5802    0.1985   -1.7189 H   0  0  0  0  0  0  0  0  0  0  0  0
    6.7161   -1.3172    0.7417 H   0  0  0  0  0  0  0  0  0  0  0  0
    5.0327   -2.3577    2.2347 H   0  0  0  0  0  0  0  0  0  0  0  0
   -4.5521   -1.7881   -0.0120 H   0  0  0  0  0  0  0  0  0  0  0  0
   -5.8540   -0.8237   -0.7447 H   0  0  0  0  0  0  0  0  0  0  0  0
   -5.8389   -1.2218    1.0707 H   0  0  0  0  0  0  0  0  0  0  0  0
  1  2  1  0
  2  3  2  0
  2  4  1  0
  4  5  1  0
  5  6  1  0
  6  7  1  0
  7  8  1  0
  8  9  2  0
  9 10  1  0
  9 11  1  0
 11 12  2  0
 12 13  1  0
 13 14  2  0
 12 15  1  0
 15 16  2  0
 16 17  1  0
 17 18  2  0
 18 19  1  0
 19 20  2  0
 20 21  1  0
 17 22  1  0
 22 23  1  0
 23 24  1  0
 23 25  1  0
 23 26  1  0
  5 27  1  0
 10  6  2  0
 20 15  1  0
 14  8  1  0
  1 28  1  0
  4 29  1  0
  4 30  1  0
  5 31  1  0
 10 32  1  0
 11 33  1  0
 13 34  1  0
 14 35  1  0
 16 36  1  0
 18 37  1  0
 19 38  1  0
 27 39  1  0
 27 40  1  0
 27 41  1  0
M  END
>  <Ligand ID>  (1) 
LIG0003524

>  <Ligand>  (1) 
CHEMBL3914253

>  <SMILES>  (1) 
OC(=O)CC(c1oc2c(c1)cc(cc2)c1cc(ccc1F)OC(F)(F)F)C

>  <CID>  (1) 
134142450.0

>  <ChEMBL ID>  (1) 
nan

>  <InChiKey>  (1) 
UGMOVWRKXQKMDP-UHFFFAOYSA-N

>  <InChi>  (1) 
InChI=1S/C19H14F4O4/c1-10(6-18(24)25)17-8-12-7-11(2-5-16(12)26-17)14-9-13(3-4-15(14)20)27-19(21,22)23/h2-5,7-10H,6H2,1H3,(H,24,25)

>  <IUPAC Name>  (1) 
3-[5-[2-fluoro-5-(trifluoromethoxy)phenyl]-1-benzofuran-2-yl]butanoic acid

$$$$
