
     RDKit          3D

 32 31  0  0  0  0  0  0  0  0999 V2000
    4.9448    0.5111   -0.3373 C   0  0  0  0  0  0  0  0  0  0  0  0
    3.9375   -0.4015    0.1761 N   0  0  0  0  0  0  0  0  0  0  0  0
    2.6042    0.1175    0.3167 C   0  0  0  0  0  0  0  0  0  0  0  0
    2.4467    1.3115   -0.0202 O   0  0  0  0  0  0  0  0  0  0  0  0
    1.5830   -0.7921    0.8323 C   0  0  0  0  0  0  0  0  0  0  0  0
    0.2055   -0.2329    0.8779 C   0  0  0  0  0  0  0  0  0  0  0  0
   -0.2762    0.1331   -0.4938 C   0  0  1  0  0  0  0  0  0  0  0  0
   -0.3377   -0.9965   -1.4206 C   0  0  0  0  0  0  0  0  0  0  0  0
   -0.0787   -2.1913   -1.1627 O   0  0  0  0  0  0  0  0  0  0  0  0
   -0.7285   -0.7180   -2.7437 O   0  0  0  0  0  0  0  0  0  0  0  0
   -1.5937    0.8804   -0.3957 C   0  0  0  0  0  0  0  0  0  0  0  0
   -2.6918    0.0927    0.2598 C   0  0  1  0  0  0  0  0  0  0  0  0
   -3.9317    0.9426    0.2925 C   0  0  0  0  0  0  0  0  0  0  0  0
   -5.0186    0.5590   -0.2067 O   0  0  0  0  0  0  0  0  0  0  0  0
   -3.8186    2.1874    0.9080 O   0  0  0  0  0  0  0  0  0  0  0  0
   -3.0230   -1.1130   -0.4018 N   0  0  0  0  0  0  0  0  0  0  0  0
    4.4998    1.1017   -1.1477 H   0  0  0  0  0  0  0  0  0  0  0  0
    5.7848   -0.1248   -0.7395 H   0  0  0  0  0  0  0  0  0  0  0  0
    5.3274    1.2133    0.4263 H   0  0  0  0  0  0  0  0  0  0  0  0
    4.1482   -1.3859    0.4355 H   0  0  0  0  0  0  0  0  0  0  0  0
    1.6256   -1.7529    0.2707 H   0  0  0  0  0  0  0  0  0  0  0  0
    1.9140   -1.0828    1.8868 H   0  0  0  0  0  0  0  0  0  0  0  0
    0.1205    0.6502    1.5625 H   0  0  0  0  0  0  0  0  0  0  0  0
   -0.4686   -1.0596    1.2341 H   0  0  0  0  0  0  0  0  0  0  0  0
    0.4325    0.8644   -0.9329 H   0  0  0  0  0  0  0  0  0  0  0  0
   -0.4898   -1.3911   -3.4433 H   0  0  0  0  0  0  0  0  0  0  0  0
   -1.9447    1.1802   -1.4042 H   0  0  0  0  0  0  0  0  0  0  0  0
   -1.3941    1.7903    0.2067 H   0  0  0  0  0  0  0  0  0  0  0  0
   -2.4446   -0.1174    1.3274 H   0  0  0  0  0  0  0  0  0  0  0  0
   -4.5692    2.8670    0.8783 H   0  0  0  0  0  0  0  0  0  0  0  0
   -2.9712   -1.9738    0.1429 H   0  0  0  0  0  0  0  0  0  0  0  0
   -3.7938   -1.0687   -1.0941 H   0  0  0  0  0  0  0  0  0  0  0  0
  1  2  1  0
  2  3  1  0
  3  4  2  0
  3  5  1  0
  5  6  1  0
  6  7  1  0
  7  8  1  0
  8  9  2  0
  8 10  1  0
  7 11  1  0
 11 12  1  0
 12 13  1  0
 13 14  2  0
 13 15  1  0
 12 16  1  0
  1 17  1  0
  1 18  1  0
  1 19  1  0
  2 20  1  0
  5 21  1  0
  5 22  1  0
  6 23  1  0
  6 24  1  0
  7 25  1  6
 10 26  1  0
 11 27  1  0
 11 28  1  0
 12 29  1  1
 15 30  1  0
 16 31  1  0
 16 32  1  0
M  END
>  <Ligand ID>  (1) 
LIG0000711

>  <Ligand>  (1) 
CHEMBL500042

>  <SMILES>  (1) 
CNC(=O)CC[C@@H](C(=O)O)C[C@@H](C(=O)O)N

>  <CID>  (1) 
24905647.0

>  <ChEMBL ID>  (1) 
nan

>  <InChiKey>  (1) 
NIJAFEMYFNBSBE-RITPCOANSA-N

>  <InChi>  (1) 
InChI=1S/C9H16N2O5/c1-11-7(12)3-2-5(8(13)14)4-6(10)9(15)16/h5-6H,2-4,10H2,1H3,(H,11,12)(H,13,14)(H,15,16)/t5-,6+/m1/s1

>  <IUPAC Name>  (1) 
(2S,4R)-2-amino-4-[3-(methylamino)-3-oxopropyl]pentanedioic acid

$$$$
