
     RDKit          3D

 45 47  0  0  0  0  0  0  0  0999 V2000
   -0.1143   -0.6474    0.3739 O   0  0  0  0  0  0  0  0  0  0  0  0
   -0.3487   -1.7906   -0.0599 C   0  0  0  0  0  0  0  0  0  0  0  0
   -1.5371   -1.9817   -0.8134 N   0  0  0  0  0  0  0  0  0  0  0  0
   -2.4635   -0.9391   -1.0934 C   0  0  0  0  0  0  0  0  0  0  0  0
   -2.4702   -0.1034   -2.1511 N   0  0  0  0  0  0  0  0  0  0  0  0
   -3.4864    0.7161   -2.0451 O   0  0  0  0  0  0  0  0  0  0  0  0
   -4.1769    0.4741   -0.9547 C   0  0  0  0  0  0  0  0  0  0  0  0
   -3.5438   -0.5939   -0.3102 C   0  0  0  0  0  0  0  0  0  0  0  0
   -5.3853    1.1350   -0.4289 C   0  0  0  0  0  0  0  0  0  0  0  0
   -6.5996    0.4040   -1.0000 C   0  0  0  0  0  0  0  0  0  0  0  0
   -5.4883    2.5788   -0.9132 C   0  0  0  0  0  0  0  0  0  0  0  0
   -5.4265    1.1295    1.0734 C   0  0  0  0  0  0  0  0  0  0  0  0
    0.5215   -2.9691    0.1517 C   0  0  0  0  0  0  0  0  0  0  0  0
    1.7413   -2.6762    0.9499 C   0  0  0  0  0  0  0  0  0  0  0  0
    2.6104   -1.6530    0.3195 C   0  0  0  0  0  0  0  0  0  0  0  0
    2.4549   -0.9946   -0.8066 O   0  0  0  0  0  0  0  0  0  0  0  0
    3.4717   -0.1783   -0.9836 N   0  0  0  0  0  0  0  0  0  0  0  0
    4.3188   -0.3018    0.0519 C   0  0  0  0  0  0  0  0  0  0  0  0
    3.7670   -1.2270    0.8579 N   0  0  0  0  0  0  0  0  0  0  0  0
    5.5729    0.4146    0.2612 C   0  0  0  0  0  0  0  0  0  0  0  0
    6.3788    0.2164    1.3654 C   0  0  0  0  0  0  0  0  0  0  0  0
    7.5644    0.9035    1.5487 C   0  0  0  0  0  0  0  0  0  0  0  0
    7.9526    1.8198    0.5904 C   0  0  0  0  0  0  0  0  0  0  0  0
    7.1616    2.0324   -0.5200 C   0  0  0  0  0  0  0  0  0  0  0  0
    5.9763    1.3361   -0.6893 C   0  0  0  0  0  0  0  0  0  0  0  0
    4.9945    1.6132   -2.0872 Cl  0  0  0  0  0  0  0  0  0  0  0  0
    9.1273    2.5013    0.7710 F   0  0  0  0  0  0  0  0  0  0  0  0
   -1.7694   -2.9347   -1.1969 H   0  0  0  0  0  0  0  0  0  0  0  0
   -3.8786   -1.0362    0.6328 H   0  0  0  0  0  0  0  0  0  0  0  0
   -6.7061    0.7709   -2.0511 H   0  0  0  0  0  0  0  0  0  0  0  0
   -7.5088    0.6159   -0.4184 H   0  0  0  0  0  0  0  0  0  0  0  0
   -6.3417   -0.6848   -1.0435 H   0  0  0  0  0  0  0  0  0  0  0  0
   -6.5661    2.8355   -1.0837 H   0  0  0  0  0  0  0  0  0  0  0  0
   -5.0160    3.2068   -0.1400 H   0  0  0  0  0  0  0  0  0  0  0  0
   -4.9790    2.7157   -1.8844 H   0  0  0  0  0  0  0  0  0  0  0  0
   -4.3902    1.3937    1.4150 H   0  0  0  0  0  0  0  0  0  0  0  0
   -5.7230    0.1557    1.5101 H   0  0  0  0  0  0  0  0  0  0  0  0
   -6.1137    1.8927    1.4667 H   0  0  0  0  0  0  0  0  0  0  0  0
   -0.0674   -3.7285    0.7294 H   0  0  0  0  0  0  0  0  0  0  0  0
    0.8256   -3.4460   -0.7953 H   0  0  0  0  0  0  0  0  0  0  0  0
    1.5390   -2.3729    1.9933 H   0  0  0  0  0  0  0  0  0  0  0  0
    2.3418   -3.6096    0.9869 H   0  0  0  0  0  0  0  0  0  0  0  0
    6.0932   -0.4890    2.1165 H   0  0  0  0  0  0  0  0  0  0  0  0
    8.1790    0.7308    2.4228 H   0  0  0  0  0  0  0  0  0  0  0  0
    7.5081    2.7654   -1.2504 H   0  0  0  0  0  0  0  0  0  0  0  0
  1  2  2  0
  2  3  1  0
  3  4  1  0
  4  5  2  0
  5  6  1  0
  6  7  1  0
  7  8  2  0
  7  9  1  0
  9 10  1  0
  9 11  1  0
  9 12  1  0
  2 13  1  0
 13 14  1  0
 14 15  1  0
 15 16  1  0
 16 17  1  0
 17 18  2  0
 18 19  1  0
 18 20  1  0
 20 21  2  0
 21 22  1  0
 22 23  2  0
 23 24  1  0
 24 25  2  0
 25 26  1  0
 23 27  1  0
  8  4  1  0
 19 15  2  0
 25 20  1  0
  3 28  1  0
  8 29  1  0
 10 30  1  0
 10 31  1  0
 10 32  1  0
 11 33  1  0
 11 34  1  0
 11 35  1  0
 12 36  1  0
 12 37  1  0
 12 38  1  0
 13 39  1  0
 13 40  1  0
 14 41  1  0
 14 42  1  0
 21 43  1  0
 22 44  1  0
 24 45  1  0
M  END
>  <Ligand ID>  (1) 
LIG0003381

>  <Ligand>  (1) 
CHEMBL499060

>  <SMILES>  (1) 
O=C(Nc1noc(c1)C(C)(C)C)CCc1onc(n1)c1ccc(cc1Cl)F

>  <CID>  (1) 
25034005.0

>  <ChEMBL ID>  (1) 
nan

>  <InChiKey>  (1) 
LCXPPKCDKPVXLH-UHFFFAOYSA-N

>  <InChi>  (1) 
InChI=1S/C18H18ClFN4O3/c1-18(2,3)13-9-14(23-26-13)21-15(25)6-7-16-22-17(24-27-16)11-5-4-10(20)8-12(11)19/h4-5,8-9H,6-7H2,1-3H3,(H,21,23,25)

>  <IUPAC Name>  (1) 
N-(5-tert-butyl-1,2-oxazol-3-yl)-3-[3-(2-chloro-4-fluorophenyl)-1,2,4-oxadiazol-5-yl]propanamide

$$$$
