
     RDKit          3D

 52 55  0  0  0  0  0  0  0  0999 V2000
   -3.6632    0.9091   -2.4651 C   0  0  0  0  0  0  0  0  0  0  0  0
   -3.1900    0.8355   -1.0595 C   0  0  0  0  0  0  0  0  0  0  0  0
   -3.8357    0.1331   -0.1763 N   0  0  0  0  0  0  0  0  0  0  0  0
   -4.9896   -0.5592   -0.5578 C   0  0  0  0  0  0  0  0  0  0  0  0
   -6.1284    0.2131   -0.8215 C   0  0  0  0  0  0  0  0  0  0  0  0
   -7.3252   -0.3542   -1.1950 C   0  0  0  0  0  0  0  0  0  0  0  0
   -7.3869   -1.7259   -1.3083 C   0  0  0  0  0  0  0  0  0  0  0  0
   -6.2749   -2.5254   -1.0543 C   0  0  0  0  0  0  0  0  0  0  0  0
   -5.0727   -1.9417   -0.6782 C   0  0  0  0  0  0  0  0  0  0  0  0
   -8.5824   -2.2952   -1.6777 F   0  0  0  0  0  0  0  0  0  0  0  0
   -2.0335    1.5147   -0.5844 N   0  0  0  0  0  0  0  0  0  0  0  0
   -1.2481    0.9943    0.4807 C   0  0  0  0  0  0  0  0  0  0  0  0
   -1.8623    1.0164    1.7372 C   0  0  0  0  0  0  0  0  0  0  0  0
   -1.1757    0.5452    2.8364 C   0  0  0  0  0  0  0  0  0  0  0  0
    0.1009    0.0648    2.6611 C   0  0  0  0  0  0  0  0  0  0  0  0
    0.7389    0.0296    1.4286 C   0  0  0  0  0  0  0  0  0  0  0  0
    0.0334    0.5107    0.3152 C   0  0  0  0  0  0  0  0  0  0  0  0
    2.0771   -0.5263    1.6082 C   0  0  1  0  0  0  0  0  0  0  0  0
    3.0945    0.0150    0.7287 N   0  0  0  0  0  0  0  0  0  0  0  0
    4.1027   -0.7353    0.0950 C   0  0  0  0  0  0  0  0  0  0  0  0
    4.0989   -1.9955    0.3376 O   0  0  0  0  0  0  0  0  0  0  0  0
    5.1175   -0.1823   -0.7875 C   0  0  0  0  0  0  0  0  0  0  0  0
    5.0929    1.1360   -1.2294 C   0  0  0  0  0  0  0  0  0  0  0  0
    6.1036    1.6285   -2.0657 C   0  0  0  0  0  0  0  0  0  0  0  0
    7.1370    0.7658   -2.4444 C   0  0  0  0  0  0  0  0  0  0  0  0
    7.1821   -0.5466   -2.0173 C   0  0  0  0  0  0  0  0  0  0  0  0
    6.1670   -1.0077   -1.1908 C   0  0  0  0  0  0  0  0  0  0  0  0
    8.4976    1.4523   -3.5770 Br  0  0  0  0  0  0  0  0  0  0  0  0
    2.3787   -0.0545    3.0502 C   0  0  1  0  0  0  0  0  0  0  0  0
    1.0535   -0.5022    3.6770 C   0  0  0  0  0  0  0  0  0  0  0  0
    3.4668   -0.7204    3.5672 O   0  0  0  0  0  0  0  0  0  0  0  0
   -4.2416    0.0132   -2.7185 H   0  0  0  0  0  0  0  0  0  0  0  0
   -4.2662    1.8413   -2.5612 H   0  0  0  0  0  0  0  0  0  0  0  0
   -2.7499    0.9227   -3.1202 H   0  0  0  0  0  0  0  0  0  0  0  0
   -6.0755    1.2938   -0.7339 H   0  0  0  0  0  0  0  0  0  0  0  0
   -8.1826    0.2757   -1.3916 H   0  0  0  0  0  0  0  0  0  0  0  0
   -6.3283   -3.5873   -1.1424 H   0  0  0  0  0  0  0  0  0  0  0  0
   -4.1896   -2.5383   -0.4728 H   0  0  0  0  0  0  0  0  0  0  0  0
   -1.7834    2.4236   -1.0647 H   0  0  0  0  0  0  0  0  0  0  0  0
   -2.8789    1.4024    1.8638 H   0  0  0  0  0  0  0  0  0  0  0  0
   -1.6653    0.5676    3.8109 H   0  0  0  0  0  0  0  0  0  0  0  0
    0.4842    0.5117   -0.6799 H   0  0  0  0  0  0  0  0  0  0  0  0
    2.0397   -1.6086    1.6701 H   0  0  0  0  0  0  0  0  0  0  0  0
    3.0739    1.0412    0.5534 H   0  0  0  0  0  0  0  0  0  0  0  0
    4.2637    1.7910   -0.9167 H   0  0  0  0  0  0  0  0  0  0  0  0
    6.0358    2.6440   -2.3735 H   0  0  0  0  0  0  0  0  0  0  0  0
    7.9880   -1.2028   -2.3158 H   0  0  0  0  0  0  0  0  0  0  0  0
    6.1929   -2.0548   -0.8399 H   0  0  0  0  0  0  0  0  0  0  0  0
    2.4169    1.0364    3.0934 H   0  0  0  0  0  0  0  0  0  0  0  0
    0.9156   -0.0807    4.6800 H   0  0  0  0  0  0  0  0  0  0  0  0
    1.0228   -1.6004    3.6222 H   0  0  0  0  0  0  0  0  0  0  0  0
    4.2532   -0.1204    3.4042 H   0  0  0  0  0  0  0  0  0  0  0  0
  1  2  1  0
  2  3  2  3
  3  4  1  0
  4  5  2  0
  5  6  1  0
  6  7  2  0
  7  8  1  0
  8  9  2  0
  7 10  1  0
  2 11  1  0
 11 12  1  0
 12 13  2  0
 13 14  1  0
 14 15  2  0
 15 16  1  0
 16 17  2  0
 16 18  1  0
 18 19  1  0
 19 20  1  0
 20 21  2  0
 20 22  1  0
 22 23  2  0
 23 24  1  0
 24 25  2  0
 25 26  1  0
 26 27  2  0
 25 28  1  0
 18 29  1  0
 29 30  1  0
 29 31  1  0
  9  4  1  0
 17 12  1  0
 27 22  1  0
 30 15  1  0
  1 32  1  0
  1 33  1  0
  1 34  1  0
  5 35  1  0
  6 36  1  0
  8 37  1  0
  9 38  1  0
 11 39  1  0
 13 40  1  0
 14 41  1  0
 17 42  1  0
 18 43  1  1
 19 44  1  0
 23 45  1  0
 24 46  1  0
 26 47  1  0
 27 48  1  0
 29 49  1  6
 30 50  1  0
 30 51  1  0
 31 52  1  0
M  END
>  <Ligand ID>  (1) 
LIG0003260

>  <Ligand>  (1) 
CHEMBL3618436

>  <SMILES>  (1) 
CC(=Nc1ccc(cc1)F)Nc1ccc2c(c1)[C@@H](NC(=O)c1ccc(cc1)Br)[C@@H](C2)O

>  <CID>  (1) 
122190994.0

>  <ChEMBL ID>  (1) 
nan

>  <InChiKey>  (1) 
VWFBTZBIIDESPH-DHIUTWEWSA-N

>  <InChi>  (1) 
InChI=1S/C24H21BrFN3O2/c1-14(27-19-10-7-18(26)8-11-19)28-20-9-4-16-12-22(30)23(21(16)13-20)29-24(31)15-2-5-17(25)6-3-15/h2-11,13,22-23,30H,12H2,1H3,(H,27,28)(H,29,31)/t22-,23-/m1/s1

>  <IUPAC Name>  (1) 
4-bromo-N-[(1R,2R)-6-[[N-(4-fluorophenyl)-C-methylcarbonimidoyl]amino]-2-hydroxy-2,3-dihydro-1H-inden-1-yl]benzamide

$$$$
