
     RDKit          3D

 50 52  0  0  0  0  0  0  0  0999 V2000
    7.3462    1.4279    1.6960 C   0  0  0  0  0  0  0  0  0  0  0  0
    7.9670    1.0993    0.4564 O   0  0  0  0  0  0  0  0  0  0  0  0
    7.1655    0.6387   -0.5798 C   0  0  0  0  0  0  0  0  0  0  0  0
    7.7628    0.3218   -1.7742 C   0  0  0  0  0  0  0  0  0  0  0  0
    7.0232   -0.1355   -2.8261 C   0  0  0  0  0  0  0  0  0  0  0  0
    5.6570   -0.2734   -2.6638 C   0  0  0  0  0  0  0  0  0  0  0  0
    4.9927    0.0249   -1.4967 C   0  0  0  0  0  0  0  0  0  0  0  0
    5.8285    0.4930   -0.4529 C   0  0  0  0  0  0  0  0  0  0  0  0
    3.6975   -0.0643   -1.2185 O   0  0  0  0  0  0  0  0  0  0  0  0
    2.5079   -0.3967   -1.6708 C   0  0  0  0  0  0  0  0  0  0  0  0
    2.1462   -0.9036   -2.9013 C   0  0  0  0  0  0  0  0  0  0  0  0
    0.8541   -1.2149   -3.2595 C   0  0  0  0  0  0  0  0  0  0  0  0
   -0.1489   -1.0143   -2.3466 C   0  0  0  0  0  0  0  0  0  0  0  0
    0.1370   -0.5127   -1.1022 C   0  0  0  0  0  0  0  0  0  0  0  0
    1.4177   -0.2163   -0.7801 C   0  0  0  0  0  0  0  0  0  0  0  0
   -0.9445   -0.3042   -0.1391 C   0  0  0  0  0  0  0  0  0  0  0  0
   -2.0560   -1.1084   -0.1102 C   0  0  0  0  0  0  0  0  0  0  0  0
   -3.0747   -0.9063    0.8017 C   0  0  0  0  0  0  0  0  0  0  0  0
   -3.0312    0.1067    1.7241 C   0  0  0  0  0  0  0  0  0  0  0  0
   -1.8780    0.9144    1.6697 C   0  0  0  0  0  0  0  0  0  0  0  0
   -0.8736    0.7160    0.7724 C   0  0  0  0  0  0  0  0  0  0  0  0
   -3.9445    0.4260    2.6643 O   0  0  0  0  0  0  0  0  0  0  0  0
   -5.1574   -0.1512    2.9207 C   0  0  0  0  0  0  0  0  0  0  0  0
   -6.1199    0.0261    1.7813 C   0  0  0  0  0  0  0  0  0  0  0  0
   -7.4647   -0.6393    2.1021 C   0  0  0  0  0  0  0  0  0  0  0  0
   -8.3617   -0.4253    0.9382 C   0  0  0  0  0  0  0  0  0  0  0  0
   -7.9846    0.2115   -0.0966 O   0  0  0  0  0  0  0  0  0  0  0  0
   -9.6594   -0.9182    0.9369 O   0  0  0  0  0  0  0  0  0  0  0  0
    8.0507    1.8364    2.4204 H   0  0  0  0  0  0  0  0  0  0  0  0
    6.5628    2.1901    1.5055 H   0  0  0  0  0  0  0  0  0  0  0  0
    6.8337    0.5058    2.0647 H   0  0  0  0  0  0  0  0  0  0  0  0
    8.8261    0.4264   -1.9086 H   0  0  0  0  0  0  0  0  0  0  0  0
    7.5149   -0.3848   -3.7750 H   0  0  0  0  0  0  0  0  0  0  0  0
    5.1122   -0.6308   -3.5035 H   0  0  0  0  0  0  0  0  0  0  0  0
    5.3840    0.7558    0.5164 H   0  0  0  0  0  0  0  0  0  0  0  0
    2.9002   -1.0743   -3.6379 H   0  0  0  0  0  0  0  0  0  0  0  0
    0.6344   -1.6104   -4.2426 H   0  0  0  0  0  0  0  0  0  0  0  0
   -1.1564   -1.2436   -2.5897 H   0  0  0  0  0  0  0  0  0  0  0  0
    1.6034    0.1820    0.2237 H   0  0  0  0  0  0  0  0  0  0  0  0
   -2.1149   -1.9236   -0.8369 H   0  0  0  0  0  0  0  0  0  0  0  0
   -3.8908   -1.5990    0.7637 H   0  0  0  0  0  0  0  0  0  0  0  0
   -1.7652    1.7404    2.3685 H   0  0  0  0  0  0  0  0  0  0  0  0
   -0.0135    1.3622    0.7735 H   0  0  0  0  0  0  0  0  0  0  0  0
   -5.6403    0.3775    3.8007 H   0  0  0  0  0  0  0  0  0  0  0  0
   -5.0651   -1.2490    3.1889 H   0  0  0  0  0  0  0  0  0  0  0  0
   -6.3885    1.1207    1.6532 H   0  0  0  0  0  0  0  0  0  0  0  0
   -5.7716   -0.4027    0.8576 H   0  0  0  0  0  0  0  0  0  0  0  0
   -7.9264   -0.1683    3.0000 H   0  0  0  0  0  0  0  0  0  0  0  0
   -7.3166   -1.7302    2.2382 H   0  0  0  0  0  0  0  0  0  0  0  0
  -10.1771   -1.0912    0.0742 H   0  0  0  0  0  0  0  0  0  0  0  0
  1  2  1  0
  2  3  1  0
  3  4  2  0
  4  5  1  0
  5  6  2  0
  6  7  1  0
  7  8  2  0
  7  9  1  0
  9 10  1  0
 10 11  2  0
 11 12  1  0
 12 13  2  0
 13 14  1  0
 14 15  2  0
 14 16  1  0
 16 17  2  0
 17 18  1  0
 18 19  2  0
 19 20  1  0
 20 21  2  0
 19 22  1  0
 22 23  1  0
 23 24  1  0
 24 25  1  0
 25 26  1  0
 26 27  2  0
 26 28  1  0
  8  3  1  0
 15 10  1  0
 21 16  1  0
  1 29  1  0
  1 30  1  0
  1 31  1  0
  4 32  1  0
  5 33  1  0
  6 34  1  0
  8 35  1  0
 11 36  1  0
 12 37  1  0
 13 38  1  0
 15 39  1  0
 17 40  1  0
 18 41  1  0
 20 42  1  0
 21 43  1  0
 23 44  1  0
 23 45  1  0
 24 46  1  0
 24 47  1  0
 25 48  1  0
 25 49  1  0
 28 50  1  0
M  END
>  <Ligand ID>  (1) 
LIG0004852

>  <Ligand>  (1) 
CHEMBL3934450

>  <SMILES>  (1) 
COc1cccc(c1)Oc1cccc(c1)c1ccc(cc1)OCCCC(=O)O

>  <CID>  (1) 
134138318.0

>  <ChEMBL ID>  (1) 
nan

>  <InChiKey>  (1) 
JWRADTOPKFRUDM-UHFFFAOYSA-N

>  <InChi>  (1) 
InChI=1S/C23H22O5/c1-26-20-6-3-8-22(16-20)28-21-7-2-5-18(15-21)17-10-12-19(13-11-17)27-14-4-9-23(24)25/h2-3,5-8,10-13,15-16H,4,9,14H2,1H3,(H,24,25)

>  <IUPAC Name>  (1) 
4-[4-[3-(3-methoxyphenoxy)phenyl]phenoxy]butanoic acid

$$$$
