
     RDKit          3D

 45 50  0  0  0  0  0  0  0  0999 V2000
    5.2222    2.2759   -1.4139 O   0  0  0  0  0  0  0  0  0  0  0  0
    4.4215    1.4657   -0.8452 C   0  0  0  0  0  0  0  0  0  0  0  0
    4.8042    0.2465   -0.4693 N   0  0  0  0  0  0  0  0  0  0  0  0
    3.9148   -0.5788    0.1321 C   0  0  0  0  0  0  0  0  0  0  0  0
    2.6265   -0.1356    0.3428 C   0  0  0  0  0  0  0  0  0  0  0  0
    2.2404    1.1586   -0.0621 C   0  0  0  0  0  0  0  0  0  0  0  0
    3.1603    1.9400   -0.6552 N   0  0  0  0  0  0  0  0  0  0  0  0
    0.9001    1.5724    0.1798 C   0  0  0  0  0  0  0  0  0  0  0  0
    0.2096    2.4089   -0.7357 O   0  0  0  0  0  0  0  0  0  0  0  0
   -1.1394    2.2244   -0.4443 C   0  0  0  0  0  0  0  0  0  0  0  0
   -1.2461    0.9430    0.0085 C   0  0  0  0  0  0  0  0  0  0  0  0
    0.0786    0.3161   -0.0535 C   0  0  0  0  0  0  0  0  0  0  0  0
    0.2872   -0.5865    1.1271 C   0  0  0  0  0  0  0  0  0  0  0  0
    1.6850   -1.0686    0.9987 C   0  0  0  0  0  0  0  0  0  0  0  0
    0.1333    0.1306    2.3077 O   0  0  0  0  0  0  0  0  0  0  0  0
   -0.7895   -1.6302    0.9420 C   0  0  0  0  0  0  0  0  0  0  0  0
   -2.1634   -1.0949    0.9382 C   0  0  0  0  0  0  0  0  0  0  0  0
   -2.3427    0.2841    0.4294 C   0  0  0  0  0  0  0  0  0  0  0  0
   -3.5295    0.9850    0.3994 C   0  0  0  0  0  0  0  0  0  0  0  0
   -3.5208    2.3183   -0.0577 C   0  0  0  0  0  0  0  0  0  0  0  0
   -2.3252    2.9305   -0.4765 C   0  0  0  0  0  0  0  0  0  0  0  0
   -2.2730    4.2300   -0.9282 O   0  0  0  0  0  0  0  0  0  0  0  0
   -0.4322   -2.3408   -0.2678 N   0  0  0  0  0  0  0  0  0  0  0  0
   -0.5937   -1.5425   -1.4477 C   0  0  0  0  0  0  0  0  0  0  0  0
    0.2830   -0.3154   -1.3619 C   0  0  0  0  0  0  0  0  0  0  0  0
   -1.0182   -3.6417   -0.3533 C   0  0  0  0  0  0  0  0  0  0  0  0
    4.2569   -1.5627    0.4254 H   0  0  0  0  0  0  0  0  0  0  0  0
    2.9039    2.9075   -0.9678 H   0  0  0  0  0  0  0  0  0  0  0  0
    0.6681    1.9315    1.1992 H   0  0  0  0  0  0  0  0  0  0  0  0
    1.7353   -2.0171    0.3889 H   0  0  0  0  0  0  0  0  0  0  0  0
    2.0913   -1.3975    1.9981 H   0  0  0  0  0  0  0  0  0  0  0  0
    0.9228   -0.0065    2.8713 H   0  0  0  0  0  0  0  0  0  0  0  0
   -0.6762   -2.3576    1.7766 H   0  0  0  0  0  0  0  0  0  0  0  0
   -2.5773   -1.0882    1.9912 H   0  0  0  0  0  0  0  0  0  0  0  0
   -2.8692   -1.8002    0.4077 H   0  0  0  0  0  0  0  0  0  0  0  0
   -4.4270    0.4974    0.7245 H   0  0  0  0  0  0  0  0  0  0  0  0
   -4.4472    2.8844   -0.0887 H   0  0  0  0  0  0  0  0  0  0  0  0
   -1.9551    4.9432   -0.2764 H   0  0  0  0  0  0  0  0  0  0  0  0
   -0.3685   -2.1762   -2.3092 H   0  0  0  0  0  0  0  0  0  0  0  0
   -1.6371   -1.1572   -1.6015 H   0  0  0  0  0  0  0  0  0  0  0  0
    1.3208   -0.5342   -1.6750 H   0  0  0  0  0  0  0  0  0  0  0  0
   -0.0717    0.4259   -2.1449 H   0  0  0  0  0  0  0  0  0  0  0  0
   -1.9207   -3.6795    0.3204 H   0  0  0  0  0  0  0  0  0  0  0  0
   -0.3056   -4.3630    0.0997 H   0  0  0  0  0  0  0  0  0  0  0  0
   -1.2366   -3.9449   -1.3730 H   0  0  0  0  0  0  0  0  0  0  0  0
  1  2  2  0
  2  3  1  0
  3  4  2  0
  4  5  1  0
  5  6  2  0
  6  7  1  0
  6  8  1  0
  8  9  1  0
  9 10  1  0
 10 11  2  0
 11 12  1  0
 12 13  1  0
 13 14  1  0
 13 15  1  0
 13 16  1  0
 16 17  1  0
 17 18  1  0
 18 19  2  0
 19 20  1  0
 20 21  2  0
 21 22  1  0
 16 23  1  0
 23 24  1  0
 24 25  1  0
 23 26  1  0
  7  2  1  0
 12  8  1  0
 14  5  1  0
 21 10  1  0
 18 11  1  0
 25 12  1  0
  4 27  1  0
  7 28  1  0
  8 29  1  0
 14 30  1  0
 14 31  1  0
 15 32  1  0
 16 33  1  0
 17 34  1  0
 17 35  1  0
 19 36  1  0
 20 37  1  0
 22 38  1  0
 24 39  1  0
 24 40  1  0
 25 41  1  0
 25 42  1  0
 26 43  1  0
 26 44  1  0
 26 45  1  0
M  END
>  <Ligand ID>  (1) 
LIG0004628

>  <Ligand>  (1) 
CHEMBL114803

>  <SMILES>  (1) 
O=c1ncc2c([nH]1)C1Oc3c4C51C(C2)(O)C(Cc4ccc3O)N(CC5)C

>  <CID>  (1) 
44341722.0

>  <ChEMBL ID>  (1) 
nan

>  <InChiKey>  (1) 
LCNCABZWEXDLGV-UHFFFAOYSA-N

>  <InChi>  (1) 
InChI=1S/C19H19N3O4/c1-22-5-4-18-13-9-2-3-11(23)15(13)26-16(18)14-10(8-20-17(24)21-14)7-19(18,25)12(22)6-9/h2-3,8,12,16,23,25H,4-7H2,1H3,(H,20,21,24)

>  <IUPAC Name>  (1) 
2,13-dihydroxy-19-methyl-11-oxa-6,8,19-triazahexacyclo[10.9.1.01,10.02,18.04,9.016,22]docosa-4(9),5,12,14,16(22)-pentaen-7-one

$$$$
