
     RDKit          3D

 14 15  0  0  0  0  0  0  0  0999 V2000
   -2.0127    0.3137    0.1430 C   0  0  0  0  0  0  0  0  0  0  0  0
   -1.6246   -0.9805   -0.1148 C   0  0  0  0  0  0  0  0  0  0  0  0
   -0.3270   -1.3986   -0.2473 C   0  0  0  0  0  0  0  0  0  0  0  0
    0.7168   -0.4653   -0.1169 C   0  0  0  0  0  0  0  0  0  0  0  0
    0.2742    0.8328    0.1439 C   0  0  0  0  0  0  0  0  0  0  0  0
   -0.9971    1.2469    0.2746 C   0  0  0  0  0  0  0  0  0  0  0  0
    1.8636    1.8152    0.2605 S   0  0  0  0  0  0  0  0  0  0  0  0
    2.9038    0.2362   -0.0779 C   0  0  0  0  0  0  0  0  0  0  0  0
    1.9903   -0.6492   -0.2047 N   0  0  0  0  0  0  0  0  0  0  0  0
   -3.0346    0.6378    0.2465 H   0  0  0  0  0  0  0  0  0  0  0  0
   -2.3943   -1.7606   -0.2280 H   0  0  0  0  0  0  0  0  0  0  0  0
   -0.0890   -2.4299   -0.4497 H   0  0  0  0  0  0  0  0  0  0  0  0
   -1.1888    2.2982    0.4788 H   0  0  0  0  0  0  0  0  0  0  0  0
    3.9194    0.3034   -0.1080 H   0  0  0  0  0  0  0  0  0  0  0  0
  1  2  2  0
  2  3  1  0
  3  4  2  0
  4  5  1  0
  5  6  2  0
  5  7  1  0
  7  8  1  0
  8  9  2  0
  6  1  1  0
  9  4  1  0
  1 10  1  0
  2 11  1  0
  3 12  1  0
  6 13  1  0
  8 14  1  0
M  END
>  <Ligand ID>  (1) 
LIG0002046

>  <Ligand>  (1) 
1,3-benzothiazole

>  <SMILES>  (1) 
c1ccc2c(c1)scn2

>  <CID>  (1) 
7222.0

>  <ChEMBL ID>  (1) 
nan

>  <InChiKey>  (1) 
IOJUPLGTWVMSFF-UHFFFAOYSA-N

>  <InChi>  (1) 
InChI=1S/C7H5NS/c1-2-4-7-6(3-1)8-5-9-7/h1-5H

>  <IUPAC Name>  (1) 
1,3-benzothiazole

$$$$
