
     RDKit          3D

 68 72  0  0  0  0  0  0  0  0999 V2000
    2.5844    0.1574    0.2708 O   0  0  0  0  0  0  0  0  0  0  0  0
    2.4351    1.3357   -0.1424 C   0  0  0  0  0  0  0  0  0  0  0  0
    1.0071    1.7879   -0.3054 C   0  0  0  0  0  0  0  0  0  0  0  0
    0.1702    0.5953    0.1203 C   0  0  0  0  0  0  0  0  0  0  0  0
   -1.2617    0.9760   -0.0266 C   0  0  0  0  0  0  0  0  0  0  0  0
   -1.6015    2.1244   -0.4739 O   0  0  0  0  0  0  0  0  0  0  0  0
   -2.2920    0.0624    0.3301 N   0  0  0  0  0  0  0  0  0  0  0  0
   -1.9392   -1.2307    0.8428 C   0  0  0  0  0  0  0  0  0  0  0  0
   -2.7622   -2.3031    0.2134 C   0  0  2  0  0  0  0  0  0  0  0  0
   -2.2814   -2.7108   -1.1669 C   0  0  0  0  0  0  0  0  0  0  0  0
   -3.5481   -3.3485   -1.7288 C   0  0  0  0  0  0  0  0  0  0  0  0
   -4.5632   -2.3002   -1.2495 C   0  0  0  0  0  0  0  0  0  0  0  0
   -4.1577   -2.0235    0.1020 N   0  0  0  0  0  0  0  0  0  0  0  0
   -4.5491   -0.7507    0.6120 C   0  0  0  0  0  0  0  0  0  0  0  0
   -3.6778    0.4019    0.1858 C   0  0  1  0  0  0  0  0  0  0  0  0
   -4.0942    1.6228    0.9786 C   0  0  0  0  0  0  0  0  0  0  0  0
   -5.5574    1.8655    0.7380 C   0  0  0  0  0  0  0  0  0  0  0  0
   -5.9699    2.6777   -0.3213 C   0  0  0  0  0  0  0  0  0  0  0  0
   -7.3111    2.9141   -0.5603 C   0  0  0  0  0  0  0  0  0  0  0  0
   -8.2849    2.3499    0.2470 C   0  0  0  0  0  0  0  0  0  0  0  0
   -7.8762    1.5474    1.2936 C   0  0  0  0  0  0  0  0  0  0  0  0
   -6.5359    1.3115    1.5318 C   0  0  0  0  0  0  0  0  0  0  0  0
    3.5328    2.1850   -0.4369 N   0  0  0  0  0  0  0  0  0  0  0  0
    4.9185    1.7879   -0.2976 C   0  0  0  0  0  0  0  0  0  0  0  0
    5.1461    0.6004   -1.2255 C   0  0  0  0  0  0  0  0  0  0  0  0
    6.5600    0.1117   -1.1605 C   0  0  0  0  0  0  0  0  0  0  0  0
    7.5686    0.3134   -2.0822 C   0  0  0  0  0  0  0  0  0  0  0  0
    8.6595   -0.3109   -1.5977 N   0  0  0  0  0  0  0  0  0  0  0  0
    8.3559   -0.8920   -0.4052 C   0  0  0  0  0  0  0  0  0  0  0  0
    7.0290   -0.6435   -0.0963 C   0  0  0  0  0  0  0  0  0  0  0  0
    6.4271   -1.1072    1.0563 C   0  0  0  0  0  0  0  0  0  0  0  0
    7.2191   -1.8489    1.9142 C   0  0  0  0  0  0  0  0  0  0  0  0
    8.5424   -2.1323    1.6691 C   0  0  0  0  0  0  0  0  0  0  0  0
    9.0888   -1.6453    0.5067 C   0  0  0  0  0  0  0  0  0  0  0  0
    0.7896    2.0711   -1.3344 H   0  0  0  0  0  0  0  0  0  0  0  0
    0.8022    2.5762    0.4478 H   0  0  0  0  0  0  0  0  0  0  0  0
    0.3795   -0.2379   -0.5860 H   0  0  0  0  0  0  0  0  0  0  0  0
    0.4157    0.2480    1.1258 H   0  0  0  0  0  0  0  0  0  0  0  0
   -0.8718   -1.4891    0.6922 H   0  0  0  0  0  0  0  0  0  0  0  0
   -2.1571   -1.2302    1.9324 H   0  0  0  0  0  0  0  0  0  0  0  0
   -2.6263   -3.2283    0.8472 H   0  0  0  0  0  0  0  0  0  0  0  0
   -1.4468   -3.4353   -1.1336 H   0  0  0  0  0  0  0  0  0  0  0  0
   -2.0837   -1.8195   -1.7994 H   0  0  0  0  0  0  0  0  0  0  0  0
   -3.7678   -4.2723   -1.1611 H   0  0  0  0  0  0  0  0  0  0  0  0
   -3.5345   -3.4604   -2.8175 H   0  0  0  0  0  0  0  0  0  0  0  0
   -5.5977   -2.7301   -1.3167 H   0  0  0  0  0  0  0  0  0  0  0  0
   -4.4540   -1.4395   -1.9403 H   0  0  0  0  0  0  0  0  0  0  0  0
   -5.5738   -0.5453    0.2327 H   0  0  0  0  0  0  0  0  0  0  0  0
   -4.4955   -0.7982    1.7293 H   0  0  0  0  0  0  0  0  0  0  0  0
   -3.8601    0.6198   -0.8901 H   0  0  0  0  0  0  0  0  0  0  0  0
   -3.9198    1.4878    2.0654 H   0  0  0  0  0  0  0  0  0  0  0  0
   -3.5847    2.5430    0.6825 H   0  0  0  0  0  0  0  0  0  0  0  0
   -5.2352    3.1450   -0.9858 H   0  0  0  0  0  0  0  0  0  0  0  0
   -7.6274    3.5428   -1.3809 H   0  0  0  0  0  0  0  0  0  0  0  0
   -9.3366    2.5271    0.0699 H   0  0  0  0  0  0  0  0  0  0  0  0
   -8.6465    1.1044    1.9276 H   0  0  0  0  0  0  0  0  0  0  0  0
   -6.2757    0.6817    2.3562 H   0  0  0  0  0  0  0  0  0  0  0  0
    3.2753    3.1586   -0.7759 H   0  0  0  0  0  0  0  0  0  0  0  0
    5.5753    2.6289   -0.5520 H   0  0  0  0  0  0  0  0  0  0  0  0
    5.0252    1.4660    0.7694 H   0  0  0  0  0  0  0  0  0  0  0  0
    4.8322    0.8701   -2.2540 H   0  0  0  0  0  0  0  0  0  0  0  0
    4.5175   -0.2631   -0.9336 H   0  0  0  0  0  0  0  0  0  0  0  0
    7.4722    0.8759   -3.0175 H   0  0  0  0  0  0  0  0  0  0  0  0
    9.5974   -0.3647   -2.0310 H   0  0  0  0  0  0  0  0  0  0  0  0
    5.3761   -0.9023    1.2867 H   0  0  0  0  0  0  0  0  0  0  0  0
    6.8016   -2.2390    2.8332 H   0  0  0  0  0  0  0  0  0  0  0  0
    9.1239   -2.7223    2.3790 H   0  0  0  0  0  0  0  0  0  0  0  0
   10.1300   -1.8500    0.2814 H   0  0  0  0  0  0  0  0  0  0  0  0
  1  2  2  0
  2  3  1  0
  3  4  1  0
  4  5  1  0
  5  6  2  0
  5  7  1  0
  7  8  1  0
  8  9  1  0
  9 10  1  0
 10 11  1  0
 11 12  1  0
 12 13  1  0
 13 14  1  0
 14 15  1  0
 15 16  1  0
 16 17  1  0
 17 18  2  0
 18 19  1  0
 19 20  2  0
 20 21  1  0
 21 22  2  0
  2 23  1  0
 23 24  1  0
 24 25  1  0
 25 26  1  0
 26 27  2  0
 27 28  1  0
 28 29  1  0
 29 30  2  0
 30 31  1  0
 31 32  2  0
 32 33  1  0
 33 34  2  0
 15  7  1  0
 22 17  1  0
 30 26  1  0
 13  9  1  0
 34 29  1  0
  3 35  1  0
  3 36  1  0
  4 37  1  0
  4 38  1  0
  8 39  1  0
  8 40  1  0
  9 41  1  1
 10 42  1  0
 10 43  1  0
 11 44  1  0
 11 45  1  0
 12 46  1  0
 12 47  1  0
 14 48  1  0
 14 49  1  0
 15 50  1  6
 16 51  1  0
 16 52  1  0
 18 53  1  0
 19 54  1  0
 20 55  1  0
 21 56  1  0
 22 57  1  0
 23 58  1  0
 24 59  1  0
 24 60  1  0
 25 61  1  0
 25 62  1  0
 27 63  1  0
 28 64  1  0
 31 65  1  0
 32 66  1  0
 33 67  1  0
 34 68  1  0
M  END
>  <Ligand ID>  (1) 
LIG0001304

>  <Ligand>  (1) 
CHEMBL425442

>  <SMILES>  (1) 
O=C(CCC(=O)N1C[C@@H]2CCCN2C[C@H]1Cc1ccccc1)NCCc1c[nH]c2c1cccc2

>  <CID>  (1) 
44418438.0

>  <ChEMBL ID>  (1) 
nan

>  <InChiKey>  (1) 
PZWWUMRKSGYBFR-BJKOFHAPSA-N

>  <InChi>  (1) 
InChI=1S/C28H34N4O2/c33-27(29-15-14-22-18-30-26-11-5-4-10-25(22)26)12-13-28(34)32-20-23-9-6-16-31(23)19-24(32)17-21-7-2-1-3-8-21/h1-5,7-8,10-11,18,23-24,30H,6,9,12-17,19-20H2,(H,29,33)/t23-,24+/m0/s1

>  <IUPAC Name>  (1) 
4-[(3R,8aS)-3-benzyl-3,4,6,7,8,8a-hexahydro-1H-pyrrolo[1,2-a]pyrazin-2-yl]-N-[2-(1H-indol-3-yl)ethyl]-4-oxobutanamide

$$$$
