
     RDKit          3D

 55 56  0  0  0  0  0  0  0  0999 V2000
   -5.7572   -3.0524    1.3141 C   0  0  0  0  0  0  0  0  0  0  0  0
   -5.3275   -1.8813    0.5341 N   0  0  0  0  0  0  0  0  0  0  0  0
   -4.0252   -1.3529    0.6912 C   0  0  0  0  0  0  0  0  0  0  0  0
   -3.2741   -1.9529    1.5329 O   0  0  0  0  0  0  0  0  0  0  0  0
   -3.4651   -0.2024   -0.0095 C   0  0  0  0  0  0  0  0  0  0  0  0
   -4.1606    1.1153    0.2282 C   0  0  0  0  0  0  0  0  0  0  0  0
   -4.1574    1.5174    1.6735 C   0  0  0  0  0  0  0  0  0  0  0  0
   -3.4019    2.2087   -0.5355 C   0  0  0  0  0  0  0  0  0  0  0  0
   -5.5563    1.0872   -0.3383 C   0  0  0  0  0  0  0  0  0  0  0  0
   -2.0499   -0.0659    0.4065 N   0  0  0  0  0  0  0  0  0  0  0  0
   -1.0140   -0.2957   -0.5300 C   0  0  0  0  0  0  0  0  0  0  0  0
   -1.2717   -0.6089   -1.6979 O   0  0  0  0  0  0  0  0  0  0  0  0
    0.3773   -0.1522   -0.0743 C   0  0  0  0  0  0  0  0  0  0  0  0
    0.6752    0.2018    1.1781 N   0  0  0  0  0  0  0  0  0  0  0  0
    1.9307    0.3363    1.6315 C   0  0  0  0  0  0  0  0  0  0  0  0
    2.9949    0.1031    0.7787 C   0  0  0  0  0  0  0  0  0  0  0  0
    2.7677   -0.2758   -0.5573 C   0  0  0  0  0  0  0  0  0  0  0  0
    1.4039   -0.3897   -0.9373 C   0  0  0  0  0  0  0  0  0  0  0  0
    3.6595   -0.5374   -1.4770 O   0  0  0  0  0  0  0  0  0  0  0  0
    4.8262   -0.6999   -2.0504 C   0  0  2  0  0  0  0  0  0  0  0  0
    4.9481    0.1298   -3.3460 C   0  0  0  0  0  0  0  0  0  0  0  0
    3.9693   -0.2592   -4.2416 F   0  0  0  0  0  0  0  0  0  0  0  0
    6.2238   -0.0795   -3.8169 F   0  0  0  0  0  0  0  0  0  0  0  0
    4.7434    1.4437   -3.0297 F   0  0  0  0  0  0  0  0  0  0  0  0
    5.0997   -2.1760   -2.4445 C   0  0  0  0  0  0  0  0  0  0  0  0
    4.3475    0.2933    1.2990 C   0  0  0  0  0  0  0  0  0  0  0  0
    5.0599   -0.8853    1.4982 F   0  0  0  0  0  0  0  0  0  0  0  0
    5.1731    1.3790    0.6315 C   0  0  0  0  0  0  0  0  0  0  0  0
    4.6462    2.2822    1.5862 O   0  0  0  0  0  0  0  0  0  0  0  0
    4.5525    1.1999    2.4572 C   0  0  0  0  0  0  0  0  0  0  0  0
   -5.6352   -3.9933    0.7108 H   0  0  0  0  0  0  0  0  0  0  0  0
   -5.0874   -3.0871    2.1994 H   0  0  0  0  0  0  0  0  0  0  0  0
   -6.8159   -2.8794    1.6021 H   0  0  0  0  0  0  0  0  0  0  0  0
   -5.9817   -1.4580   -0.1244 H   0  0  0  0  0  0  0  0  0  0  0  0
   -3.4294   -0.4523   -1.0862 H   0  0  0  0  0  0  0  0  0  0  0  0
   -5.1745    1.9418    1.9053 H   0  0  0  0  0  0  0  0  0  0  0  0
   -3.4392    2.3299    1.9217 H   0  0  0  0  0  0  0  0  0  0  0  0
   -3.9510    0.6902    2.3675 H   0  0  0  0  0  0  0  0  0  0  0  0
   -2.6628    1.7553   -1.2293 H   0  0  0  0  0  0  0  0  0  0  0  0
   -4.0976    2.8015   -1.1621 H   0  0  0  0  0  0  0  0  0  0  0  0
   -2.9367    2.9344    0.1631 H   0  0  0  0  0  0  0  0  0  0  0  0
   -6.3249    0.8122    0.4230 H   0  0  0  0  0  0  0  0  0  0  0  0
   -5.6573    0.5927   -1.3013 H   0  0  0  0  0  0  0  0  0  0  0  0
   -5.7967    2.1778   -0.5536 H   0  0  0  0  0  0  0  0  0  0  0  0
   -1.8323    0.2014    1.3964 H   0  0  0  0  0  0  0  0  0  0  0  0
    2.0330    0.6240    2.6669 H   0  0  0  0  0  0  0  0  0  0  0  0
    1.1490   -0.6778   -1.9558 H   0  0  0  0  0  0  0  0  0  0  0  0
    5.7386   -0.4266   -1.4520 H   0  0  0  0  0  0  0  0  0  0  0  0
    5.3129   -2.7043   -1.4983 H   0  0  0  0  0  0  0  0  0  0  0  0
    5.9659   -2.2176   -3.1132 H   0  0  0  0  0  0  0  0  0  0  0  0
    4.2077   -2.5775   -2.9530 H   0  0  0  0  0  0  0  0  0  0  0  0
    6.2446    1.2277    0.7705 H   0  0  0  0  0  0  0  0  0  0  0  0
    4.9121    1.6435   -0.3954 H   0  0  0  0  0  0  0  0  0  0  0  0
    3.7837    1.3238    3.2142 H   0  0  0  0  0  0  0  0  0  0  0  0
    5.5368    0.9876    2.9725 H   0  0  0  0  0  0  0  0  0  0  0  0
  1  2  1  0
  2  3  1  0
  3  4  2  0
  3  5  1  0
  5  6  1  0
  6  7  1  0
  6  8  1  0
  6  9  1  0
  5 10  1  0
 10 11  1  0
 11 12  2  0
 11 13  1  0
 13 14  2  0
 14 15  1  0
 15 16  2  0
 16 17  1  0
 17 18  2  0
 17 19  1  0
 19 20  1  0
 20 21  1  0
 21 22  1  0
 21 23  1  0
 21 24  1  0
 20 25  1  0
 16 26  1  0
 26 27  1  0
 26 28  1  0
 28 29  1  0
 29 30  1  0
 18 13  1  0
 30 26  1  0
  1 31  1  0
  1 32  1  0
  1 33  1  0
  2 34  1  0
  5 35  1  0
  7 36  1  0
  7 37  1  0
  7 38  1  0
  8 39  1  0
  8 40  1  0
  8 41  1  0
  9 42  1  0
  9 43  1  0
  9 44  1  0
 10 45  1  0
 15 46  1  0
 18 47  1  0
 20 48  1  1
 25 49  1  0
 25 50  1  0
 25 51  1  0
 28 52  1  0
 28 53  1  0
 30 54  1  0
 30 55  1  0
M  END
>  <Ligand ID>  (1) 
LIG0005175

>  <Ligand>  (1) 
CHEMBL3930775

>  <SMILES>  (1) 
CNC(=O)C(C(C)(C)C)NC(=O)c1ncc(c(c1)O[C@H](C(F)(F)F)C)C1(F)COC1

>  <CID>  (1) 
90214968.0

>  <ChEMBL ID>  (1) 
nan

>  <InChiKey>  (1) 
OXRFXJJLBLXLSS-XLLULAGJSA-N

>  <InChi>  (1) 
InChI=1S/C19H25F4N3O4/c1-10(19(21,22)23)30-13-6-12(25-7-11(13)18(20)8-29-9-18)15(27)26-14(16(28)24-5)17(2,3)4/h6-7,10,14H,8-9H2,1-5H3,(H,24,28)(H,26,27)/t10-,14?/m0/s1

>  <IUPAC Name>  (1) 
N-[3,3-dimethyl-1-(methylamino)-1-oxobutan-2-yl]-5-(3-fluorooxetan-3-yl)-4-[(2S)-1,1,1-trifluoropropan-2-yl]oxypyridine-2-carboxamide

$$$$
