
     RDKit          3D

 77 80  0  0  0  0  0  0  0  0999 V2000
    9.2240   -3.2781    3.3304 O   0  0  0  0  0  0  0  0  0  0  0  0
    8.1490   -2.8739    2.5179 C   0  0  0  0  0  0  0  0  0  0  0  0
    7.5239   -1.6849    2.8529 C   0  0  0  0  0  0  0  0  0  0  0  0
    6.4565   -1.1934    2.1211 C   0  0  0  0  0  0  0  0  0  0  0  0
    6.0292   -1.9436    1.0263 C   0  0  0  0  0  0  0  0  0  0  0  0
    6.6666   -3.1282    0.7085 C   0  0  0  0  0  0  0  0  0  0  0  0
    7.7292   -3.6162    1.4375 C   0  0  0  0  0  0  0  0  0  0  0  0
    4.8967   -1.4983    0.1852 C   0  0  0  0  0  0  0  0  0  0  0  0
    3.5558   -1.9938    0.6574 C   0  0  1  0  0  0  0  0  0  0  0  0
    2.4661   -1.5101   -0.2337 C   0  0  0  0  0  0  0  0  0  0  0  0
    1.7602   -2.4100   -0.7815 O   0  0  0  0  0  0  0  0  0  0  0  0
    2.2240   -0.1262   -0.4624 N   0  0  0  0  0  0  0  0  0  0  0  0
    1.1241    0.1983   -1.3558 C   0  0  1  0  0  0  0  0  0  0  0  0
    0.2219    1.1159   -0.6587 C   0  0  0  0  0  0  0  0  0  0  0  0
    0.5053    1.5119    0.5080 O   0  0  0  0  0  0  0  0  0  0  0  0
   -0.9809    1.5858   -1.2549 N   0  0  0  0  0  0  0  0  0  0  0  0
   -1.8533    2.4948   -0.5472 C   0  0  2  0  0  0  0  0  0  0  0  0
   -3.0301    1.6768   -0.0797 C   0  0  0  0  0  0  0  0  0  0  0  0
   -3.9258    2.2869    0.5590 O   0  0  0  0  0  0  0  0  0  0  0  0
   -3.1263    0.3186   -0.3367 O   0  0  0  0  0  0  0  0  0  0  0  0
   -4.2080   -0.4976    0.0811 C   0  0  0  0  0  0  0  0  0  0  0  0
   -3.8649   -1.8747   -0.4248 C   0  0  0  0  0  0  0  0  0  0  0  0
   -3.1279   -2.7615    0.3336 C   0  0  0  0  0  0  0  0  0  0  0  0
   -2.8434   -4.0087   -0.1847 C   0  0  0  0  0  0  0  0  0  0  0  0
   -3.3033   -4.3535   -1.4628 C   0  0  0  0  0  0  0  0  0  0  0  0
   -4.0322   -3.4389   -2.1795 C   0  0  0  0  0  0  0  0  0  0  0  0
   -4.3305   -2.2027   -1.7002 C   0  0  0  0  0  0  0  0  0  0  0  0
   -4.5082   -3.8260   -3.5309 C   0  0  0  0  0  0  0  0  0  0  0  0
   -5.5608   -3.0196   -3.9496 F   0  0  0  0  0  0  0  0  0  0  0  0
   -3.4824   -3.8182   -4.4552 F   0  0  0  0  0  0  0  0  0  0  0  0
   -4.9906   -5.1304   -3.4811 F   0  0  0  0  0  0  0  0  0  0  0  0
   -2.0580   -5.0326    0.5467 C   0  0  0  0  0  0  0  0  0  0  0  0
   -2.7053   -6.2620    0.5247 F   0  0  0  0  0  0  0  0  0  0  0  0
   -0.8135   -5.1790   -0.0685 F   0  0  0  0  0  0  0  0  0  0  0  0
   -1.8289   -4.5965    1.8293 F   0  0  0  0  0  0  0  0  0  0  0  0
   -2.2522    3.6831   -1.3438 C   0  0  0  0  0  0  0  0  0  0  0  0
   -3.1441    4.5578   -0.5314 C   0  0  0  0  0  0  0  0  0  0  0  0
   -4.5092    4.7297   -0.6101 C   0  0  0  0  0  0  0  0  0  0  0  0
   -4.8834    5.6285    0.3272 N   0  0  0  0  0  0  0  0  0  0  0  0
   -3.7989    6.0451    1.0127 C   0  0  0  0  0  0  0  0  0  0  0  0
   -2.6918    5.3902    0.4960 C   0  0  0  0  0  0  0  0  0  0  0  0
   -1.4551    5.6512    1.0375 C   0  0  0  0  0  0  0  0  0  0  0  0
   -1.2515    6.5383    2.0783 C   0  0  0  0  0  0  0  0  0  0  0  0
   -2.3824    7.1726    2.5673 C   0  0  0  0  0  0  0  0  0  0  0  0
   -3.6474    6.9448    2.0574 C   0  0  0  0  0  0  0  0  0  0  0  0
    1.6327    0.8449   -2.6310 C   0  0  0  0  0  0  0  0  0  0  0  0
    3.5559   -3.4414    0.5874 N   0  0  0  0  0  0  0  0  0  0  0  0
    9.5072   -4.2460    3.2298 H   0  0  0  0  0  0  0  0  0  0  0  0
    7.8830   -1.1278    3.7112 H   0  0  0  0  0  0  0  0  0  0  0  0
    5.9552   -0.2596    2.3725 H   0  0  0  0  0  0  0  0  0  0  0  0
    6.3239   -3.7143   -0.1582 H   0  0  0  0  0  0  0  0  0  0  0  0
    8.2270   -4.5494    1.1817 H   0  0  0  0  0  0  0  0  0  0  0  0
    5.0906   -1.7612   -0.8697 H   0  0  0  0  0  0  0  0  0  0  0  0
    4.9281   -0.3693    0.2230 H   0  0  0  0  0  0  0  0  0  0  0  0
    3.3566   -1.7187    1.7139 H   0  0  0  0  0  0  0  0  0  0  0  0
    2.8173    0.5958   -0.0041 H   0  0  0  0  0  0  0  0  0  0  0  0
    0.6167   -0.7280   -1.6665 H   0  0  0  0  0  0  0  0  0  0  0  0
   -1.1966    1.2409   -2.2228 H   0  0  0  0  0  0  0  0  0  0  0  0
   -1.3217    2.7643    0.4035 H   0  0  0  0  0  0  0  0  0  0  0  0
   -4.3586   -0.4738    1.1665 H   0  0  0  0  0  0  0  0  0  0  0  0
   -5.1089   -0.1271   -0.4522 H   0  0  0  0  0  0  0  0  0  0  0  0
   -2.7795   -2.4944    1.3068 H   0  0  0  0  0  0  0  0  0  0  0  0
   -3.0782   -5.3299   -1.8657 H   0  0  0  0  0  0  0  0  0  0  0  0
   -4.9059   -1.4887   -2.2711 H   0  0  0  0  0  0  0  0  0  0  0  0
   -2.8635    3.3475   -2.2074 H   0  0  0  0  0  0  0  0  0  0  0  0
   -1.3542    4.2286   -1.6274 H   0  0  0  0  0  0  0  0  0  0  0  0
   -5.1314    4.2060   -1.3243 H   0  0  0  0  0  0  0  0  0  0  0  0
   -5.8698    5.9453    0.4872 H   0  0  0  0  0  0  0  0  0  0  0  0
   -0.5920    5.1400    0.6343 H   0  0  0  0  0  0  0  0  0  0  0  0
   -0.2809    6.7402    2.5005 H   0  0  0  0  0  0  0  0  0  0  0  0
   -2.3275    7.8840    3.3823 H   0  0  0  0  0  0  0  0  0  0  0  0
   -4.5189    7.4710    2.4746 H   0  0  0  0  0  0  0  0  0  0  0  0
    2.1614    0.0237   -3.1942 H   0  0  0  0  0  0  0  0  0  0  0  0
    2.2527    1.7187   -2.4420 H   0  0  0  0  0  0  0  0  0  0  0  0
    0.7573    1.1509   -3.2274 H   0  0  0  0  0  0  0  0  0  0  0  0
    4.0076   -3.8958    1.3835 H   0  0  0  0  0  0  0  0  0  0  0  0
    2.6724   -3.8478    0.2426 H   0  0  0  0  0  0  0  0  0  0  0  0
  1  2  1  0
  2  3  2  0
  3  4  1  0
  4  5  2  0
  5  6  1  0
  6  7  2  0
  5  8  1  0
  8  9  1  0
  9 10  1  0
 10 11  2  0
 10 12  1  0
 12 13  1  0
 13 14  1  0
 14 15  2  0
 14 16  1  0
 16 17  1  0
 17 18  1  0
 18 19  2  0
 18 20  1  0
 20 21  1  0
 21 22  1  0
 22 23  2  0
 23 24  1  0
 24 25  2  0
 25 26  1  0
 26 27  2  0
 26 28  1  0
 28 29  1  0
 28 30  1  0
 28 31  1  0
 24 32  1  0
 32 33  1  0
 32 34  1  0
 32 35  1  0
 17 36  1  0
 36 37  1  0
 37 38  2  0
 38 39  1  0
 39 40  1  0
 40 41  2  0
 41 42  1  0
 42 43  2  0
 43 44  1  0
 44 45  2  0
 13 46  1  0
  9 47  1  0
  7  2  1  0
 27 22  1  0
 41 37  1  0
 45 40  1  0
  1 48  1  0
  3 49  1  0
  4 50  1  0
  6 51  1  0
  7 52  1  0
  8 53  1  0
  8 54  1  0
  9 55  1  1
 12 56  1  0
 13 57  1  6
 16 58  1  0
 17 59  1  1
 21 60  1  0
 21 61  1  0
 23 62  1  0
 25 63  1  0
 27 64  1  0
 36 65  1  0
 36 66  1  0
 38 67  1  0
 39 68  1  0
 42 69  1  0
 43 70  1  0
 44 71  1  0
 45 72  1  0
 46 73  1  0
 46 74  1  0
 46 75  1  0
 47 76  1  0
 47 77  1  0
M  END
>  <Ligand ID>  (1) 
LIG0005366

>  <Ligand>  (1) 
CHEMBL3609619

>  <SMILES>  (1) 
Oc1ccc(cc1)C[C@@H](C(=O)N[C@@H](C(=O)N[C@H](C(=O)OCc1cc(cc(c1)C(F)(F)F)C(F)(F)F)Cc1c[nH]c2c1cccc2)C)N

>  <CID>  (1) 
44176458.0

>  <ChEMBL ID>  (1) 
nan

>  <InChiKey>  (1) 
ADPQCWUGLGBPRO-ISCRSJHHSA-N

>  <InChi>  (1) 
InChI=1S/C32H30F6N4O5/c1-17(41-29(45)25(39)12-18-6-8-23(43)9-7-18)28(44)42-27(13-20-15-40-26-5-3-2-4-24(20)26)30(46)47-16-19-10-21(31(33,34)35)14-22(11-19)32(36,37)38/h2-11,14-15,17,25,27,40,43H,12-13,16,39H2,1H3,(H,41,45)(H,42,44)/t17-,25+,27+/m1/s1

>  <IUPAC Name>  (1) 
[3,5-bis(trifluoromethyl)phenyl]methyl (2S)-2-[[(2R)-2-[[(2S)-2-amino-3-(4-hydroxyphenyl)propanoyl]amino]propanoyl]amino]-3-(1H-indol-3-yl)propanoate

$$$$
