
     RDKit          3D

 19 19  0  0  0  0  0  0  0  0999 V2000
   -2.7937   -0.4205    0.1880 C   0  0  0  0  0  0  0  0  0  0  0  0
   -1.3866    0.0739    0.1583 C   0  0  0  0  0  0  0  0  0  0  0  0
   -1.0578    1.4088    0.2031 C   0  0  0  0  0  0  0  0  0  0  0  0
    0.2660    1.8396    0.1738 C   0  0  0  0  0  0  0  0  0  0  0  0
    1.2413    0.8553    0.0969 C   0  0  0  0  0  0  0  0  0  0  0  0
    0.9414   -0.4876    0.0507 C   0  0  0  0  0  0  0  0  0  0  0  0
   -0.3845   -0.8692    0.0823 C   0  0  0  0  0  0  0  0  0  0  0  0
    2.0608   -1.4716   -0.0314 C   0  0  0  0  0  0  0  0  0  0  0  0
    2.5620    1.3117    0.0687 O   0  0  0  0  0  0  0  0  0  0  0  0
   -2.9945   -0.9167    1.1531 H   0  0  0  0  0  0  0  0  0  0  0  0
   -2.9439   -1.1820   -0.6218 H   0  0  0  0  0  0  0  0  0  0  0  0
   -3.4954    0.4075   -0.0478 H   0  0  0  0  0  0  0  0  0  0  0  0
   -1.8459    2.1419    0.2626 H   0  0  0  0  0  0  0  0  0  0  0  0
    0.5037    2.8979    0.2101 H   0  0  0  0  0  0  0  0  0  0  0  0
   -0.6280   -1.9291    0.0461 H   0  0  0  0  0  0  0  0  0  0  0  0
    1.6735   -2.4869   -0.2815 H   0  0  0  0  0  0  0  0  0  0  0  0
    2.8030   -1.2431   -0.8017 H   0  0  0  0  0  0  0  0  0  0  0  0
    2.4807   -1.5514    0.9865 H   0  0  0  0  0  0  0  0  0  0  0  0
    2.9978    1.6215   -0.7955 H   0  0  0  0  0  0  0  0  0  0  0  0
  1  2  1  0
  2  3  2  0
  3  4  1  0
  4  5  2  0
  5  6  1  0
  6  7  2  0
  6  8  1  0
  5  9  1  0
  7  2  1  0
  1 10  1  0
  1 11  1  0
  1 12  1  0
  3 13  1  0
  4 14  1  0
  7 15  1  0
  8 16  1  0
  8 17  1  0
  8 18  1  0
  9 19  1  0
M  END
>  <Ligand ID>  (1) 
LIG0000611

>  <Ligand>  (1) 
2,4-Dimethylphenol

>  <SMILES>  (1) 
Cc1ccc(c(c1)C)O

>  <CID>  (1) 
7771.0

>  <ChEMBL ID>  (1) 
nan

>  <InChiKey>  (1) 
KUFFULVDNCHOFZ-UHFFFAOYSA-N

>  <InChi>  (1) 
InChI=1S/C8H10O/c1-6-3-4-8(9)7(2)5-6/h3-5,9H,1-2H3

>  <IUPAC Name>  (1) 
2,4-dimethylphenol

$$$$
