
     RDKit          3D

 45 46  0  0  0  0  0  0  0  0999 V2000
   -2.0552   -2.6221   -0.1600 C   0  0  0  0  0  0  0  0  0  0  0  0
   -2.7434   -1.4026   -0.0399 N   0  0  0  0  0  0  0  0  0  0  0  0
   -2.0649   -0.2278    0.3447 C   0  0  0  0  0  0  0  0  0  0  0  0
   -3.1004    0.8742    0.3811 C   0  0  0  0  0  0  0  0  0  0  0  0
   -3.1896    1.7488    1.4379 C   0  0  0  0  0  0  0  0  0  0  0  0
   -4.1875    2.7167    1.3462 C   0  0  0  0  0  0  0  0  0  0  0  0
   -5.0320    2.7748    0.2395 C   0  0  0  0  0  0  0  0  0  0  0  0
   -4.9181    1.8808   -0.8099 C   0  0  0  0  0  0  0  0  0  0  0  0
   -3.9364    0.9252   -0.7238 C   0  0  0  0  0  0  0  0  0  0  0  0
   -0.9527    0.2865   -0.4782 C   0  0  0  0  0  0  0  0  0  0  0  0
    0.1794   -0.5810   -0.6545 N   0  0  0  0  0  0  0  0  0  0  0  0
    1.3039   -0.1155   -1.4271 C   0  0  0  0  0  0  0  0  0  0  0  0
    1.3333    1.0206   -1.9445 O   0  0  0  0  0  0  0  0  0  0  0  0
    2.4721   -1.0036   -1.6202 C   0  0  0  0  0  0  0  0  0  0  0  0
    3.6983   -0.5013   -0.9476 C   0  0  0  0  0  0  0  0  0  0  0  0
    3.9993   -1.0962    0.2797 C   0  0  0  0  0  0  0  0  0  0  0  0
    5.1045   -0.7042    0.9961 C   0  0  0  0  0  0  0  0  0  0  0  0
    5.9181    0.2836    0.4969 C   0  0  0  0  0  0  0  0  0  0  0  0
    5.6115    0.8764   -0.7336 C   0  0  0  0  0  0  0  0  0  0  0  0
    4.5051    0.4886   -1.4588 C   0  0  0  0  0  0  0  0  0  0  0  0
    7.0582    0.6989    1.2366 N   0  0  0  0  0  0  0  0  0  0  0  0
    7.3379    0.1502    2.3169 O   0  0  0  0  0  0  0  0  0  0  0  0
    7.8899    1.6992    0.8018 O   0  0  0  0  0  0  0  0  0  0  0  0
   -4.0684   -1.5254    0.5419 C   0  0  0  0  0  0  0  0  0  0  0  0
   -2.8463   -3.4381   -0.1017 H   0  0  0  0  0  0  0  0  0  0  0  0
   -1.5220   -2.8401   -1.0883 H   0  0  0  0  0  0  0  0  0  0  0  0
   -1.4325   -2.8243    0.7422 H   0  0  0  0  0  0  0  0  0  0  0  0
   -1.6805   -0.3624    1.3793 H   0  0  0  0  0  0  0  0  0  0  0  0
   -2.5186    1.6724    2.2769 H   0  0  0  0  0  0  0  0  0  0  0  0
   -4.3082    3.4363    2.1455 H   0  0  0  0  0  0  0  0  0  0  0  0
   -5.8148    3.5176    0.1436 H   0  0  0  0  0  0  0  0  0  0  0  0
   -5.5561    1.9045   -1.6747 H   0  0  0  0  0  0  0  0  0  0  0  0
   -3.8243    0.2034   -1.5428 H   0  0  0  0  0  0  0  0  0  0  0  0
   -0.5613    1.1944    0.0658 H   0  0  0  0  0  0  0  0  0  0  0  0
   -1.2913    0.7283   -1.4565 H   0  0  0  0  0  0  0  0  0  0  0  0
    0.2766   -1.5398   -0.2665 H   0  0  0  0  0  0  0  0  0  0  0  0
    2.6400   -1.0419   -2.7332 H   0  0  0  0  0  0  0  0  0  0  0  0
    2.2148   -2.0287   -1.3081 H   0  0  0  0  0  0  0  0  0  0  0  0
    3.3600   -1.8883    0.6944 H   0  0  0  0  0  0  0  0  0  0  0  0
    5.3257   -1.1694    1.9415 H   0  0  0  0  0  0  0  0  0  0  0  0
    6.2549    1.6683   -1.1415 H   0  0  0  0  0  0  0  0  0  0  0  0
    4.2602    0.9425   -2.4135 H   0  0  0  0  0  0  0  0  0  0  0  0
   -4.2813   -0.6270    1.1523 H   0  0  0  0  0  0  0  0  0  0  0  0
   -4.8542   -1.7245   -0.1933 H   0  0  0  0  0  0  0  0  0  0  0  0
   -4.0041   -2.4280    1.2115 H   0  0  0  0  0  0  0  0  0  0  0  0
  1  2  1  0
  2  3  1  0
  3  4  1  0
  4  5  2  0
  5  6  1  0
  6  7  2  0
  7  8  1  0
  8  9  2  0
  3 10  1  0
 10 11  1  0
 11 12  1  0
 12 13  2  0
 12 14  1  0
 14 15  1  0
 15 16  2  0
 16 17  1  0
 17 18  2  0
 18 19  1  0
 19 20  2  0
 18 21  1  0
 21 22  2  0
 21 23  1  0
  2 24  1  0
  9  4  1  0
 20 15  1  0
  1 25  1  0
  1 26  1  0
  1 27  1  0
  3 28  1  0
  5 29  1  0
  6 30  1  0
  7 31  1  0
  8 32  1  0
  9 33  1  0
 10 34  1  0
 10 35  1  0
 11 36  1  0
 14 37  1  0
 14 38  1  0
 16 39  1  0
 17 40  1  0
 19 41  1  0
 20 42  1  0
 24 43  1  0
 24 44  1  0
 24 45  1  0
M  CHG  2  21   1  23  -1
M  END
>  <Ligand ID>  (1) 
LIG0004522

>  <Ligand>  (1) 
MLS001033472

>  <SMILES>  (1) 
CN(C(c1ccccc1)CNC(=O)Cc1ccc(cc1)[N+](=O)[O-])C

>  <CID>  (1) 
4879431.0

>  <ChEMBL ID>  (1) 
nan

>  <InChiKey>  (1) 
UZYWUDBJEZPKHL-UHFFFAOYSA-N

>  <InChi>  (1) 
InChI=1S/C18H21N3O3/c1-20(2)17(15-6-4-3-5-7-15)13-19-18(22)12-14-8-10-16(11-9-14)21(23)24/h3-11,17H,12-13H2,1-2H3,(H,19,22)

>  <IUPAC Name>  (1) 
N-[2-(dimethylamino)-2-phenylethyl]-2-(4-nitrophenyl)acetamide

$$$$
