
     RDKit          3D

 53 57  0  0  0  0  0  0  0  0999 V2000
    2.9361    0.4712   -1.8880 O   0  0  0  0  0  0  0  0  0  0  0  0
    2.3976   -0.2601   -1.0169 C   0  0  0  0  0  0  0  0  0  0  0  0
    1.0042   -0.0161   -0.6731 C   0  0  0  0  0  0  0  0  0  0  0  0
    0.6296    1.3203   -0.5224 C   0  0  0  0  0  0  0  0  0  0  0  0
   -0.6975    1.5313   -0.2045 C   0  0  0  0  0  0  0  0  0  0  0  0
   -1.6032    0.5126   -0.0436 C   0  0  0  0  0  0  0  0  0  0  0  0
   -1.2067   -0.7862   -0.1976 N   0  0  0  0  0  0  0  0  0  0  0  0
    0.0836   -1.0375   -0.5089 C   0  0  0  0  0  0  0  0  0  0  0  0
    0.5029   -2.2246   -0.6364 N   0  0  0  0  0  0  0  0  0  0  0  0
   -2.1124   -1.8283   -0.0121 C   0  0  0  0  0  0  0  0  0  0  0  0
   -2.7354   -2.4815   -1.2015 C   0  0  0  0  0  0  0  0  0  0  0  0
   -3.4772   -3.6147   -0.4730 C   0  0  0  0  0  0  0  0  0  0  0  0
   -3.7867   -3.0826    0.9212 C   0  0  0  0  0  0  0  0  0  0  0  0
   -3.3205   -1.6117    0.8534 C   0  0  0  0  0  0  0  0  0  0  0  0
   -2.8608    0.8465    0.2693 N   0  0  0  0  0  0  0  0  0  0  0  0
   -3.2975    2.0871    0.4361 C   0  0  0  0  0  0  0  0  0  0  0  0
   -2.4209    3.0929    0.2812 N   0  0  0  0  0  0  0  0  0  0  0  0
   -1.1360    2.8394   -0.0343 C   0  0  0  0  0  0  0  0  0  0  0  0
   -0.3189    3.7862   -0.1776 O   0  0  0  0  0  0  0  0  0  0  0  0
   -2.7547    4.3902    0.4290 C   0  0  0  0  0  0  0  0  0  0  0  0
   -4.0490    4.7251    0.7544 C   0  0  0  0  0  0  0  0  0  0  0  0
   -4.9793    3.7286    0.9227 C   0  0  0  0  0  0  0  0  0  0  0  0
   -4.5915    2.4335    0.7621 C   0  0  0  0  0  0  0  0  0  0  0  0
    3.1415   -1.2942   -0.3919 N   0  0  0  0  0  0  0  0  0  0  0  0
    4.5125   -1.6095   -0.6614 C   0  0  0  0  0  0  0  0  0  0  0  0
    5.4508   -0.6549    0.0017 C   0  0  0  0  0  0  0  0  0  0  0  0
    5.9213    0.4820   -0.6089 C   0  0  0  0  0  0  0  0  0  0  0  0
    6.7845    1.2794    0.1385 C   0  0  0  0  0  0  0  0  0  0  0  0
    7.1518    0.9479    1.4278 C   0  0  0  0  0  0  0  0  0  0  0  0
    6.6737   -0.1846    2.0146 N   0  0  0  0  0  0  0  0  0  0  0  0
    5.8454   -0.9580    1.3101 C   0  0  0  0  0  0  0  0  0  0  0  0
    1.3538    2.1123   -0.6524 H   0  0  0  0  0  0  0  0  0  0  0  0
    0.0527   -3.1248   -0.5734 H   0  0  0  0  0  0  0  0  0  0  0  0
   -1.5600   -2.6716    0.5142 H   0  0  0  0  0  0  0  0  0  0  0  0
   -2.0321   -2.8506   -1.9552 H   0  0  0  0  0  0  0  0  0  0  0  0
   -3.5340   -1.8907   -1.6978 H   0  0  0  0  0  0  0  0  0  0  0  0
   -4.3682   -3.9348   -1.0085 H   0  0  0  0  0  0  0  0  0  0  0  0
   -2.7100   -4.4196   -0.3646 H   0  0  0  0  0  0  0  0  0  0  0  0
   -4.8677   -3.1339    1.1334 H   0  0  0  0  0  0  0  0  0  0  0  0
   -3.1925   -3.5782    1.6940 H   0  0  0  0  0  0  0  0  0  0  0  0
   -4.1749   -1.1213    0.3620 H   0  0  0  0  0  0  0  0  0  0  0  0
   -3.1188   -1.2938    1.8732 H   0  0  0  0  0  0  0  0  0  0  0  0
   -2.0408    5.1914    0.3000 H   0  0  0  0  0  0  0  0  0  0  0  0
   -4.3463    5.7525    0.8775 H   0  0  0  0  0  0  0  0  0  0  0  0
   -6.0075    4.0182    1.1838 H   0  0  0  0  0  0  0  0  0  0  0  0
   -5.3026    1.6159    0.8864 H   0  0  0  0  0  0  0  0  0  0  0  0
    2.6183   -1.8639    0.3299 H   0  0  0  0  0  0  0  0  0  0  0  0
    4.7266   -1.6721   -1.7603 H   0  0  0  0  0  0  0  0  0  0  0  0
    4.7560   -2.6098   -0.2737 H   0  0  0  0  0  0  0  0  0  0  0  0
    5.6322    0.7328   -1.6226 H   0  0  0  0  0  0  0  0  0  0  0  0
    7.1379    2.1703   -0.3695 H   0  0  0  0  0  0  0  0  0  0  0  0
    7.8334    1.6020    1.9824 H   0  0  0  0  0  0  0  0  0  0  0  0
    5.4572   -1.8602    1.7606 H   0  0  0  0  0  0  0  0  0  0  0  0
  1  2  2  0
  2  3  1  0
  3  4  2  0
  4  5  1  0
  5  6  2  0
  6  7  1  0
  7  8  1  0
  8  9  2  3
  7 10  1  0
 10 11  1  0
 11 12  1  0
 12 13  1  0
 13 14  1  0
  6 15  1  0
 15 16  2  0
 16 17  1  0
 17 18  1  0
 18 19  2  0
 17 20  1  0
 20 21  2  0
 21 22  1  0
 22 23  2  0
  2 24  1  0
 24 25  1  0
 25 26  1  0
 26 27  2  0
 27 28  1  0
 28 29  2  0
 29 30  1  0
 30 31  2  0
  8  3  1  0
 14 10  1  0
 23 16  1  0
 31 26  1  0
 18  5  1  0
  4 32  1  0
  9 33  1  0
 10 34  1  0
 11 35  1  0
 11 36  1  0
 12 37  1  0
 12 38  1  0
 13 39  1  0
 13 40  1  0
 14 41  1  0
 14 42  1  0
 20 43  1  0
 21 44  1  0
 22 45  1  0
 23 46  1  0
 24 47  1  0
 25 48  1  0
 25 49  1  0
 27 50  1  0
 28 51  1  0
 29 52  1  0
 31 53  1  0
M  END
>  <Ligand ID>  (1) 
LIG0003031

>  <Ligand>  (1) 
MLS-0437139.0001

>  <SMILES>  (1) 
O=C(c1cc2c(n(c1=N)C1CCCC1)nc1n(c2=O)cccc1)NCc1cccnc1

>  <CID>  (1) 
1077540.0

>  <ChEMBL ID>  (1) 
nan

>  <InChiKey>  (1) 
PXRYIQIOPUQBLS-UHFFFAOYSA-N

>  <InChi>  (1) 
InChI=1S/C23H22N6O2/c24-20-17(22(30)26-14-15-6-5-10-25-13-15)12-18-21(29(20)16-7-1-2-8-16)27-19-9-3-4-11-28(19)23(18)31/h3-6,9-13,16,24H,1-2,7-8,14H2,(H,26,30)

>  <IUPAC Name>  (1) 
7-cyclopentyl-6-imino-2-oxo-N-(pyridin-3-ylmethyl)-1,7,9-triazatricyclo[8.4.0.03,8]tetradeca-3(8),4,9,11,13-pentaene-5-carboxamide

$$$$
