
     RDKit          3D

 26 27  0  0  0  0  0  0  0  0999 V2000
    3.2673   -0.8025    0.1998 C   0  0  0  0  0  0  0  0  0  0  0  0
    2.0488   -0.3820   -0.0178 C   0  0  0  0  0  0  0  0  0  0  0  0
    1.6806    0.8104   -0.8426 C   0  0  0  0  0  0  0  0  0  0  0  0
    0.6420    1.4382    0.0660 C   0  0  0  0  0  0  0  0  0  0  0  0
   -0.1961    0.2114    0.4065 C   0  0  1  0  0  0  0  0  0  0  0  0
    0.7944   -0.9538    0.4738 C   0  0  2  0  0  0  0  0  0  0  0  0
    0.0625   -0.5121    1.6617 C   0  0  0  0  0  0  0  0  0  0  0  0
   -1.3258   -0.0423   -0.5193 C   0  0  0  0  0  0  0  0  0  0  0  0
   -2.1426   -1.2610   -0.1646 C   0  0  0  0  0  0  0  0  0  0  0  0
   -2.2447    1.1706   -0.5086 C   0  0  0  0  0  0  0  0  0  0  0  0
    3.4291   -1.6959    0.8253 H   0  0  0  0  0  0  0  0  0  0  0  0
    4.1560   -0.3315   -0.1956 H   0  0  0  0  0  0  0  0  0  0  0  0
    2.5407    1.4691   -1.0515 H   0  0  0  0  0  0  0  0  0  0  0  0
    1.1931    0.3984   -1.7493 H   0  0  0  0  0  0  0  0  0  0  0  0
    1.1759    1.8128    0.9648 H   0  0  0  0  0  0  0  0  0  0  0  0
    0.0563    2.2142   -0.4223 H   0  0  0  0  0  0  0  0  0  0  0  0
    0.5306   -1.9187   -0.0005 H   0  0  0  0  0  0  0  0  0  0  0  0
   -0.7268   -1.1883    2.0172 H   0  0  0  0  0  0  0  0  0  0  0  0
    0.5378    0.0830    2.4725 H   0  0  0  0  0  0  0  0  0  0  0  0
   -0.9699   -0.1545   -1.5648 H   0  0  0  0  0  0  0  0  0  0  0  0
   -1.5581   -2.1868   -0.3723 H   0  0  0  0  0  0  0  0  0  0  0  0
   -2.9778   -1.2911   -0.9165 H   0  0  0  0  0  0  0  0  0  0  0  0
   -2.5203   -1.2337    0.8595 H   0  0  0  0  0  0  0  0  0  0  0  0
   -3.2115    0.8795   -1.0116 H   0  0  0  0  0  0  0  0  0  0  0  0
   -1.8381    1.9755   -1.1407 H   0  0  0  0  0  0  0  0  0  0  0  0
   -2.4035    1.4908    0.5307 H   0  0  0  0  0  0  0  0  0  0  0  0
  1  2  2  0
  2  3  1  0
  3  4  1  0
  4  5  1  0
  5  6  1  0
  6  7  1  0
  5  8  1  6
  8  9  1  0
  8 10  1  0
  6  2  1  0
  7  5  1  0
  1 11  1  0
  1 12  1  0
  3 13  1  0
  3 14  1  0
  4 15  1  0
  4 16  1  0
  6 17  1  6
  7 18  1  0
  7 19  1  0
  8 20  1  0
  9 21  1  0
  9 22  1  0
  9 23  1  0
 10 24  1  0
 10 25  1  0
 10 26  1  0
M  END
>  <Ligand ID>  (1) 
LIG0000525

>  <Ligand>  (1) 
(+)-Sabinene

>  <SMILES>  (1) 
C=C1CC[C@]2([C@@H]1C2)C(C)C

>  <CID>  (1) 
10887971.0

>  <ChEMBL ID>  (1) 
nan

>  <InChiKey>  (1) 
NDVASEGYNIMXJL-NXEZZACHSA-N

>  <InChi>  (1) 
InChI=1S/C10H16/c1-7(2)10-5-4-8(3)9(10)6-10/h7,9H,3-6H2,1-2H3/t9-,10-/m1/s1

>  <IUPAC Name>  (1) 
(1R,5R)-4-methylidene-1-propan-2-ylbicyclo[3.1.0]hexane

$$$$
