
     RDKit          3D

129130  0  0  0  0  0  0  0  0999 V2000
    6.5470    0.9272   -2.3829 N   0  0  0  0  0  0  0  0  0  0  0  0
    7.9397    0.6887   -2.6175 C   0  0  0  0  0  0  0  0  0  0  0  0
    8.6101   -0.1838   -1.5891 C   0  0  0  0  0  0  0  0  0  0  0  0
    8.5769    0.3385   -0.1768 C   0  0  1  0  0  0  0  0  0  0  0  0
    9.2257    1.6555   -0.0118 C   0  0  0  0  0  0  0  0  0  0  0  0
   10.3452    1.8007   -0.5890 O   0  0  0  0  0  0  0  0  0  0  0  0
    8.7203    2.7439    0.7147 N   0  0  0  0  0  0  0  0  0  0  0  0
    9.4982    3.9590    0.7695 C   0  0  0  0  0  0  0  0  0  0  0  0
    9.7363    4.5471   -0.5576 C   0  0  0  0  0  0  0  0  0  0  0  0
    9.2436    3.9540   -1.5660 O   0  0  0  0  0  0  0  0  0  0  0  0
   10.5027    5.7531   -0.6952 N   0  0  0  0  0  0  0  0  0  0  0  0
    7.3254    0.1880    0.5046 N   0  0  0  0  0  0  0  0  0  0  0  0
    7.1238   -0.8405    1.4581 C   0  0  0  0  0  0  0  0  0  0  0  0
    8.1567   -1.5980    1.6368 O   0  0  0  0  0  0  0  0  0  0  0  0
    5.9651   -1.1544    2.2440 C   0  0  2  0  0  0  0  0  0  0  0  0
    6.1859   -2.4067    3.1255 C   0  0  0  0  0  0  0  0  0  0  0  0
    4.8770   -2.2830    3.9175 C   0  0  0  0  0  0  0  0  0  0  0  0
    3.8527   -1.8376    2.8675 C   0  0  0  0  0  0  0  0  0  0  0  0
    4.6720   -1.4200    1.7103 N   0  0  0  0  0  0  0  0  0  0  0  0
    4.1228   -1.3350    0.4091 C   0  0  0  0  0  0  0  0  0  0  0  0
    5.0209   -1.0503   -0.4969 O   0  0  0  0  0  0  0  0  0  0  0  0
    2.7915   -1.4968   -0.1003 C   0  0  2  0  0  0  0  0  0  0  0  0
    2.4583   -0.2049   -0.8860 C   0  0  0  0  0  0  0  0  0  0  0  0
    2.4694    1.1906    0.2480 S   0  0  0  0  0  0  0  0  0  0  0  0
    0.9284    0.9168    1.6827 S   0  0  0  0  0  0  0  0  0  0  0  0
   -0.6083    1.6023    1.0195 C   0  0  0  0  0  0  0  0  0  0  0  0
   -0.5302    3.0661    0.8815 C   0  0  2  0  0  0  0  0  0  0  0  0
   -0.2819    3.6841    2.1807 N   0  0  0  0  0  0  0  0  0  0  0  0
   -1.8443    3.6568    0.4029 C   0  0  0  0  0  0  0  0  0  0  0  0
   -2.1213    4.8596    0.4311 O   0  0  0  0  0  0  0  0  0  0  0  0
   -2.7901    2.7698   -0.0883 N   0  0  0  0  0  0  0  0  0  0  0  0
   -4.1710    3.1288   -0.5870 C   0  0  1  0  0  0  0  0  0  0  0  0
   -4.0850    3.0490   -2.0994 C   0  0  0  0  0  0  0  0  0  0  0  0
   -5.3677    3.3959   -2.7976 C   0  0  0  0  0  0  0  0  0  0  0  0
   -5.8137    4.7987   -2.4728 C   0  0  0  0  0  0  0  0  0  0  0  0
   -5.2262    3.2219   -4.3079 C   0  0  0  0  0  0  0  0  0  0  0  0
   -5.0388    2.1258    0.0410 C   0  0  0  0  0  0  0  0  0  0  0  0
   -4.3875    1.3157    0.8123 O   0  0  0  0  0  0  0  0  0  0  0  0
   -6.4157    1.8447   -0.0060 N   0  0  0  0  0  0  0  0  0  0  0  0
   -6.7279    0.6191    0.8475 C   0  0  2  0  0  0  0  0  0  0  0  0
   -5.9454   -0.4298    0.0220 C   0  0  0  0  0  0  0  0  0  0  0  0
   -6.0695   -0.3470   -1.1766 O   0  0  0  0  0  0  0  0  0  0  0  0
   -5.1413   -1.3854    0.6228 N   0  0  0  0  0  0  0  0  0  0  0  0
   -4.2768   -2.3803   -0.0963 C   0  0  2  0  0  0  0  0  0  0  0  0
   -2.9679   -2.3540    0.5650 C   0  0  0  0  0  0  0  0  0  0  0  0
   -2.8323   -1.4600    1.4554 O   0  0  0  0  0  0  0  0  0  0  0  0
   -1.8334   -3.1657    0.3798 N   0  0  0  0  0  0  0  0  0  0  0  0
   -0.6233   -2.8168    1.1269 C   0  0  2  0  0  0  0  0  0  0  0  0
    0.5119   -2.4820    0.2418 C   0  0  0  0  0  0  0  0  0  0  0  0
    0.6010   -2.7212   -0.9686 O   0  0  0  0  0  0  0  0  0  0  0  0
    1.6925   -1.7836    0.7757 N   0  0  0  0  0  0  0  0  0  0  0  0
   -0.3329   -3.9262    2.1142 C   0  0  0  0  0  0  0  0  0  0  0  0
   -0.1181   -5.2086    1.4475 C   0  0  0  0  0  0  0  0  0  0  0  0
   -0.1214   -5.3784    0.1925 O   0  0  0  0  0  0  0  0  0  0  0  0
    0.1161   -6.3645    2.2402 N   0  0  0  0  0  0  0  0  0  0  0  0
   -4.2017   -1.9334   -1.5590 C   0  0  0  0  0  0  0  0  0  0  0  0
   -3.3046   -2.7857   -2.4132 C   0  0  0  0  0  0  0  0  0  0  0  0
   -3.7565   -4.1809   -2.4326 C   0  0  0  0  0  0  0  0  0  0  0  0
   -4.7407   -4.6803   -1.8634 O   0  0  0  0  0  0  0  0  0  0  0  0
   -2.9645   -5.1046   -3.2129 N   0  0  0  0  0  0  0  0  0  0  0  0
   -8.1321    0.3163    0.9522 C   0  0  2  0  0  0  0  0  0  0  0  0
   -8.3270   -0.8972    1.8447 C   0  0  0  0  0  0  0  0  0  0  0  0
   -9.7808   -1.2495    1.9807 C   0  0  0  0  0  0  0  0  0  0  0  0
   -8.8732    0.1185   -0.3592 C   0  0  0  0  0  0  0  0  0  0  0  0
    5.9654    0.1246   -2.7619 H   0  0  0  0  0  0  0  0  0  0  0  0
    6.2651    1.8044   -2.8855 H   0  0  0  0  0  0  0  0  0  0  0  0
    7.9795    0.0736   -3.5755 H   0  0  0  0  0  0  0  0  0  0  0  0
    8.5203    1.6121   -2.8688 H   0  0  0  0  0  0  0  0  0  0  0  0
    9.6800   -0.2825   -1.9429 H   0  0  0  0  0  0  0  0  0  0  0  0
    8.1862   -1.2122   -1.6617 H   0  0  0  0  0  0  0  0  0  0  0  0
    9.2997   -0.3788    0.3613 H   0  0  0  0  0  0  0  0  0  0  0  0
    7.7830    2.6367    1.1996 H   0  0  0  0  0  0  0  0  0  0  0  0
    9.0116    4.6841    1.4270 H   0  0  0  0  0  0  0  0  0  0  0  0
   10.5133    3.7814    1.2104 H   0  0  0  0  0  0  0  0  0  0  0  0
   10.2338    6.4393   -1.4648 H   0  0  0  0  0  0  0  0  0  0  0  0
   11.3249    5.9568   -0.0460 H   0  0  0  0  0  0  0  0  0  0  0  0
    6.5388    0.8598    0.3338 H   0  0  0  0  0  0  0  0  0  0  0  0
    5.8269   -0.3210    3.0318 H   0  0  0  0  0  0  0  0  0  0  0  0
    7.0784   -2.2890    3.7378 H   0  0  0  0  0  0  0  0  0  0  0  0
    6.1201   -3.2835    2.4901 H   0  0  0  0  0  0  0  0  0  0  0  0
    4.5979   -3.2819    4.3517 H   0  0  0  0  0  0  0  0  0  0  0  0
    5.0326   -1.5436    4.7049 H   0  0  0  0  0  0  0  0  0  0  0  0
    3.2268   -1.0324    3.2412 H   0  0  0  0  0  0  0  0  0  0  0  0
    3.2784   -2.7422    2.6395 H   0  0  0  0  0  0  0  0  0  0  0  0
    2.7591   -2.2563   -0.9733 H   0  0  0  0  0  0  0  0  0  0  0  0
    3.2706   -0.1183   -1.6466 H   0  0  0  0  0  0  0  0  0  0  0  0
    1.4620   -0.2895   -1.3425 H   0  0  0  0  0  0  0  0  0  0  0  0
   -1.4572    1.3177    1.7115 H   0  0  0  0  0  0  0  0  0  0  0  0
   -0.8804    1.0839    0.0604 H   0  0  0  0  0  0  0  0  0  0  0  0
    0.2961    3.3486    0.1588 H   0  0  0  0  0  0  0  0  0  0  0  0
   -0.6118    3.0100    2.9430 H   0  0  0  0  0  0  0  0  0  0  0  0
    0.7474    3.7780    2.3314 H   0  0  0  0  0  0  0  0  0  0  0  0
   -2.6078    1.7776   -0.1277 H   0  0  0  0  0  0  0  0  0  0  0  0
   -4.2998    4.1658   -0.3211 H   0  0  0  0  0  0  0  0  0  0  0  0
   -3.7324    2.0608   -2.4589 H   0  0  0  0  0  0  0  0  0  0  0  0
   -3.3190    3.7959   -2.4585 H   0  0  0  0  0  0  0  0  0  0  0  0
   -6.1432    2.6681   -2.4995 H   0  0  0  0  0  0  0  0  0  0  0  0
   -6.6095    5.0937   -3.2142 H   0  0  0  0  0  0  0  0  0  0  0  0
   -6.2295    4.8545   -1.4432 H   0  0  0  0  0  0  0  0  0  0  0  0
   -4.9364    5.4764   -2.5271 H   0  0  0  0  0  0  0  0  0  0  0  0
   -5.0401    4.2217   -4.7354 H   0  0  0  0  0  0  0  0  0  0  0  0
   -6.1573    2.8191   -4.7462 H   0  0  0  0  0  0  0  0  0  0  0  0
   -4.3211    2.5860   -4.5253 H   0  0  0  0  0  0  0  0  0  0  0  0
   -7.1338    2.3319   -0.4905 H   0  0  0  0  0  0  0  0  0  0  0  0
   -6.1772    0.6320    1.7750 H   0  0  0  0  0  0  0  0  0  0  0  0
   -5.1408   -1.4094    1.6508 H   0  0  0  0  0  0  0  0  0  0  0  0
   -4.8391   -3.2982   -0.1211 H   0  0  0  0  0  0  0  0  0  0  0  0
   -1.9097   -3.9610   -0.2335 H   0  0  0  0  0  0  0  0  0  0  0  0
   -0.8248   -1.9079    1.7736 H   0  0  0  0  0  0  0  0  0  0  0  0
    1.5820   -1.5486    1.7501 H   0  0  0  0  0  0  0  0  0  0  0  0
   -1.0703   -3.9199    2.9336 H   0  0  0  0  0  0  0  0  0  0  0  0
    0.6542   -3.6607    2.5944 H   0  0  0  0  0  0  0  0  0  0  0  0
   -0.5005   -7.2252    2.1875 H   0  0  0  0  0  0  0  0  0  0  0  0
    0.9114   -6.4414    2.9203 H   0  0  0  0  0  0  0  0  0  0  0  0
   -5.2286   -2.0899   -2.0304 H   0  0  0  0  0  0  0  0  0  0  0  0
   -3.8566   -0.8979   -1.5815 H   0  0  0  0  0  0  0  0  0  0  0  0
   -2.2424   -2.7105   -2.1432 H   0  0  0  0  0  0  0  0  0  0  0  0
   -3.3595   -2.3730   -3.4796 H   0  0  0  0  0  0  0  0  0  0  0  0
   -2.0180   -5.3726   -2.8746 H   0  0  0  0  0  0  0  0  0  0  0  0
   -3.3662   -5.4764   -4.0967 H   0  0  0  0  0  0  0  0  0  0  0  0
   -8.6884    1.1505    1.4674 H   0  0  0  0  0  0  0  0  0  0  0  0
   -7.8263   -1.7594    1.3598 H   0  0  0  0  0  0  0  0  0  0  0  0
   -7.9201   -0.6436    2.8393 H   0  0  0  0  0  0  0  0  0  0  0  0
  -10.4202   -0.3245    1.8723 H   0  0  0  0  0  0  0  0  0  0  0  0
  -10.0992   -2.0387    1.2643 H   0  0  0  0  0  0  0  0  0  0  0  0
  -10.0164   -1.6641    2.9936 H   0  0  0  0  0  0  0  0  0  0  0  0
   -8.8620    1.0630   -0.8977 H   0  0  0  0  0  0  0  0  0  0  0  0
   -9.9162   -0.1330   -0.0801 H   0  0  0  0  0  0  0  0  0  0  0  0
   -8.4475   -0.7117   -0.9424 H   0  0  0  0  0  0  0  0  0  0  0  0
  1  2  1  0
  2  3  1  0
  3  4  1  0
  4  5  1  0
  5  6  2  0
  5  7  1  0
  7  8  1  0
  8  9  1  0
  9 10  2  0
  9 11  1  0
  4 12  1  0
 12 13  1  0
 13 14  2  0
 13 15  1  0
 15 16  1  0
 16 17  1  0
 17 18  1  0
 18 19  1  0
 19 20  1  0
 20 21  2  0
 20 22  1  0
 22 23  1  0
 23 24  1  0
 24 25  1  0
 25 26  1  0
 26 27  1  0
 27 28  1  0
 27 29  1  0
 29 30  2  0
 29 31  1  0
 31 32  1  0
 32 33  1  0
 33 34  1  0
 34 35  1  0
 34 36  1  0
 32 37  1  0
 37 38  2  0
 37 39  1  0
 39 40  1  0
 40 41  1  0
 41 42  2  0
 41 43  1  0
 43 44  1  0
 44 45  1  0
 45 46  2  0
 45 47  1  0
 47 48  1  0
 48 49  1  0
 49 50  2  0
 49 51  1  0
 48 52  1  0
 52 53  1  0
 53 54  2  0
 53 55  1  0
 44 56  1  0
 56 57  1  0
 57 58  1  0
 58 59  2  0
 58 60  1  0
 40 61  1  0
 61 62  1  0
 62 63  1  0
 61 64  1  0
 19 15  1  0
 51 22  1  0
  1 65  1  0
  1 66  1  0
  2 67  1  0
  2 68  1  0
  3 69  1  0
  3 70  1  0
  4 71  1  1
  7 72  1  0
  8 73  1  0
  8 74  1  0
 11 75  1  0
 11 76  1  0
 12 77  1  0
 15 78  1  1
 16 79  1  0
 16 80  1  0
 17 81  1  0
 17 82  1  0
 18 83  1  0
 18 84  1  0
 22 85  1  6
 23 86  1  0
 23 87  1  0
 26 88  1  0
 26 89  1  0
 27 90  1  6
 28 91  1  0
 28 92  1  0
 31 93  1  0
 32 94  1  6
 33 95  1  0
 33 96  1  0
 34 97  1  0
 35 98  1  0
 35 99  1  0
 35100  1  0
 36101  1  0
 36102  1  0
 36103  1  0
 39104  1  0
 40105  1  1
 43106  1  0
 44107  1  6
 47108  1  0
 48109  1  1
 51110  1  0
 52111  1  0
 52112  1  0
 55113  1  0
 55114  1  0
 56115  1  0
 56116  1  0
 57117  1  0
 57118  1  0
 60119  1  0
 60120  1  0
 61121  1  1
 62122  1  0
 62123  1  0
 63124  1  0
 63125  1  0
 63126  1  0
 64127  1  0
 64128  1  0
 64129  1  0
M  END
>  <Ligand ID>  (1) 
LIG0001584

>  <Ligand>  (1) 
CHEMBL1819553

>  <SMILES>  (1) 
NCC[C@@H](C(=O)NCC(=O)N)NC(=O)[C@@H]1CCCN1C(=O)[C@@H]1CSSC[C@H](N)C(=O)N[C@@H](CC(C)C)C(=O)N[C@H](C(=O)N[C@H](C(=O)N[C@H](C(=O)N1)CC(=O)N)CCC(=O)N)[C@H](CC)C

>  <CID>  (1) 
53362962.0

>  <ChEMBL ID>  (1) 
nan

>  <InChiKey>  (1) 
RVEZLDNCHVLZPH-IHEWHSJKSA-N

>  <InChi>  (1) 
InChI=1S/C38H65N13O11S2/c1-5-19(4)30-37(61)46-21(8-9-27(41)52)33(57)48-24(14-28(42)53)34(58)49-25(17-64-63-16-20(40)31(55)47-23(13-18(2)3)35(59)50-30)38(62)51-12-6-7-26(51)36(60)45-22(10-11-39)32(56)44-15-29(43)54/h18-26,30H,5-17,39-40H2,1-4H3,(H2,41,52)(H2,42,53)(H2,43,54)(H,44,56)(H,45,60)(H,46,61)(H,47,55)(H,48,57)(H,49,58)(H,50,59)/t19-,20-,21-,22-,23-,24-,25-,26-,30-/m0/s1

>  <IUPAC Name>  (1) 
(2S)-N-[(2S)-4-amino-1-[(2-amino-2-oxoethyl)amino]-1-oxobutan-2-yl]-1-[(4R,7S,10S,13S,16S,19R)-19-amino-7-(2-amino-2-oxoethyl)-10-(3-amino-3-oxopropyl)-13-[(2S)-butan-2-yl]-16-(2-methylpropyl)-6,9,12,15,18-pentaoxo-1,2-dithia-5,8,11,14,17-pentazacycloicosane-4-carbonyl]pyrrolidine-2-carboxamide

$$$$
