
     RDKit          3D

221227  0  0  0  0  0  0  0  0999 V2000
    4.0330   -7.5293   -0.6815 C   0  0  0  0  0  0  0  0  0  0  0  0
    4.0443   -6.1867    0.0521 C   0  0  0  0  0  0  0  0  0  0  0  0
    3.1397   -5.2518   -0.6635 C   0  0  0  0  0  0  0  0  0  0  0  0
    2.9886   -3.8851   -0.0767 C   0  0  0  0  0  0  0  0  0  0  0  0
    4.2342   -3.0696    0.0588 C   0  0  1  0  0  0  0  0  0  0  0  0
    3.7614   -1.7470    0.6539 C   0  0  0  0  0  0  0  0  0  0  0  0
    4.1124   -1.4696    1.8227 O   0  0  0  0  0  0  0  0  0  0  0  0
    2.9689   -0.9626   -0.1947 N   0  0  0  0  0  0  0  0  0  0  0  0
    2.3560    0.2982   -0.0265 C   0  0  1  0  0  0  0  0  0  0  0  0
    1.8510    0.5954    1.3922 C   0  0  0  0  0  0  0  0  0  0  0  0
    0.1549    0.0827    1.5808 S   0  0  0  0  0  0  0  0  0  0  0  0
   -0.2710   -1.9142    1.1639 S   0  0  0  0  0  0  0  0  0  0  0  0
   -0.7221   -2.1893   -0.5595 C   0  0  0  0  0  0  0  0  0  0  0  0
   -1.9995   -1.6123   -1.0129 C   0  0  2  0  0  0  0  0  0  0  0  0
   -2.0911   -0.1688   -0.8690 N   0  0  0  0  0  0  0  0  0  0  0  0
   -2.4320    0.6231   -1.9908 C   0  0  0  0  0  0  0  0  0  0  0  0
   -2.5371   -0.1087   -3.0682 O   0  0  0  0  0  0  0  0  0  0  0  0
   -2.6789    2.0162   -2.1942 C   0  0  1  0  0  0  0  0  0  0  0  0
   -2.6078    2.9843   -1.1456 N   0  0  0  0  0  0  0  0  0  0  0  0
   -3.7937    3.2676   -0.3840 C   0  0  0  0  0  0  0  0  0  0  0  0
   -4.7523    2.5263   -0.5979 O   0  0  0  0  0  0  0  0  0  0  0  0
   -3.8461    4.4084    0.6322 C   0  0  1  0  0  0  0  0  0  0  0  0
   -2.7860    5.3323    0.3238 N   0  0  0  0  0  0  0  0  0  0  0  0
   -1.5751    5.5036    1.0318 C   0  0  0  0  0  0  0  0  0  0  0  0
   -1.4702    4.7780    2.0465 O   0  0  0  0  0  0  0  0  0  0  0  0
   -0.4620    6.4128    0.7042 C   0  0  2  0  0  0  0  0  0  0  0  0
    0.7266    6.0006    1.5014 N   0  0  0  0  0  0  0  0  0  0  0  0
    1.8239    5.3477    0.8198 C   0  0  0  0  0  0  0  0  0  0  0  0
    1.7030    5.2822   -0.3977 O   0  0  0  0  0  0  0  0  0  0  0  0
    3.0095    4.7943    1.5859 C   0  0  1  0  0  0  0  0  0  0  0  0
    3.7090    3.8578    0.7358 N   0  0  0  0  0  0  0  0  0  0  0  0
    4.1648    4.0854   -0.5825 C   0  0  0  0  0  0  0  0  0  0  0  0
    4.1808    5.2384   -0.9915 O   0  0  0  0  0  0  0  0  0  0  0  0
    4.6456    3.0040   -1.4974 C   0  0  0  0  0  0  0  0  0  0  0  0
    4.3760    1.6884   -0.8865 N   0  0  0  0  0  0  0  0  0  0  0  0
    2.9986    1.4638   -0.6100 C   0  0  0  0  0  0  0  0  0  0  0  0
    2.2632    2.4351   -0.9226 O   0  0  0  0  0  0  0  0  0  0  0  0
    3.8024    5.7712    2.3288 C   0  0  0  0  0  0  0  0  0  0  0  0
    4.4517    6.8601    1.5805 C   0  0  0  0  0  0  0  0  0  0  0  0
    3.8632    8.0884    1.2852 C   0  0  0  0  0  0  0  0  0  0  0  0
    4.7714    8.8174    0.5747 N   0  0  0  0  0  0  0  0  0  0  0  0
    5.8932    8.0812    0.4236 C   0  0  0  0  0  0  0  0  0  0  0  0
    5.6938    6.9201    1.0249 N   0  0  0  0  0  0  0  0  0  0  0  0
   -0.6496    7.8629    0.8352 C   0  0  0  0  0  0  0  0  0  0  0  0
   -1.6966    8.4339    0.0029 C   0  0  0  0  0  0  0  0  0  0  0  0
   -2.9600    8.6688    0.4788 C   0  0  0  0  0  0  0  0  0  0  0  0
   -3.9378    9.1996   -0.3480 C   0  0  0  0  0  0  0  0  0  0  0  0
   -3.6989    9.5146   -1.6726 C   0  0  0  0  0  0  0  0  0  0  0  0
   -2.4216    9.2728   -2.1449 C   0  0  0  0  0  0  0  0  0  0  0  0
   -1.4417    8.7427   -1.3180 C   0  0  0  0  0  0  0  0  0  0  0  0
   -5.2382    4.9451    0.5606 C   0  0  0  0  0  0  0  0  0  0  0  0
   -5.5680    6.0679    1.4812 C   0  0  0  0  0  0  0  0  0  0  0  0
   -5.4044    5.7152    2.9392 C   0  0  0  0  0  0  0  0  0  0  0  0
   -5.7162    6.8186    3.7984 N   0  0  0  0  0  0  0  0  0  0  0  0
   -6.8408    7.4002    3.8244 C   0  0  0  0  0  0  0  0  0  0  0  0
   -7.9839    7.1139    3.0595 N   0  0  0  0  0  0  0  0  0  0  0  0
   -6.9648    8.5018    4.7591 N   0  0  0  0  0  0  0  0  0  0  0  0
   -1.9573    2.4957   -3.4461 C   0  0  0  0  0  0  0  0  0  0  0  0
   -2.1495    3.9117   -3.7449 C   0  0  0  0  0  0  0  0  0  0  0  0
   -1.2680    4.9663   -3.5269 C   0  0  0  0  0  0  0  0  0  0  0  0
   -1.8505    6.1130   -3.9556 N   0  0  0  0  0  0  0  0  0  0  0  0
   -3.0736    5.8567   -4.4464 C   0  0  0  0  0  0  0  0  0  0  0  0
   -3.2675    4.4939   -4.3199 C   0  0  0  0  0  0  0  0  0  0  0  0
   -4.4463    3.9116   -4.7494 C   0  0  0  0  0  0  0  0  0  0  0  0
   -5.4522    4.6969   -5.3156 C   0  0  0  0  0  0  0  0  0  0  0  0
   -5.2294    6.0534   -5.4281 C   0  0  0  0  0  0  0  0  0  0  0  0
   -4.0588    6.6556   -5.0058 C   0  0  0  0  0  0  0  0  0  0  0  0
   -3.2256   -2.2723   -0.4532 C   0  0  0  0  0  0  0  0  0  0  0  0
   -4.0432   -1.5179    0.1198 O   0  0  0  0  0  0  0  0  0  0  0  0
   -3.3815   -3.6647   -0.6087 N   0  0  0  0  0  0  0  0  0  0  0  0
   -4.4830   -4.4581   -0.1559 C   0  0  2  0  0  0  0  0  0  0  0  0
   -3.9468   -5.4908    0.7903 C   0  0  0  0  0  0  0  0  0  0  0  0
   -2.7195   -5.5365    1.0560 O   0  0  0  0  0  0  0  0  0  0  0  0
   -4.8868   -6.3901    1.3505 N   0  0  0  0  0  0  0  0  0  0  0  0
   -4.5442   -7.4484    2.2715 C   0  0  2  0  0  0  0  0  0  0  0  0
   -4.9568   -8.7567    1.7356 C   0  0  0  0  0  0  0  0  0  0  0  0
   -4.7474   -9.8292    2.3835 O   0  0  0  0  0  0  0  0  0  0  0  0
   -5.6083   -8.9010    0.4707 N   0  0  0  0  0  0  0  0  0  0  0  0
   -6.0185  -10.1802   -0.0668 C   0  0  0  0  0  0  0  0  0  0  0  0
   -6.6685  -10.0066   -1.3862 C   0  0  0  0  0  0  0  0  0  0  0  0
   -6.7806   -8.8274   -1.8665 O   0  0  0  0  0  0  0  0  0  0  0  0
   -7.1703  -11.1063   -2.1322 N   0  0  0  0  0  0  0  0  0  0  0  0
   -5.2390   -7.2452    3.6136 C   0  0  0  0  0  0  0  0  0  0  0  0
   -6.6965   -7.2235    3.4220 C   0  0  0  0  0  0  0  0  0  0  0  0
   -7.2930   -5.9867    3.1687 C   0  0  0  0  0  0  0  0  0  0  0  0
   -8.6389   -5.8324    2.9726 C   0  0  0  0  0  0  0  0  0  0  0  0
   -9.4403   -6.9499    3.0290 C   0  0  0  0  0  0  0  0  0  0  0  0
   -8.8687   -8.1649    3.2755 C   0  0  0  0  0  0  0  0  0  0  0  0
   -7.5157   -8.3264    3.4728 C   0  0  0  0  0  0  0  0  0  0  0  0
   -5.0994   -5.1625   -1.3613 C   0  0  0  0  0  0  0  0  0  0  0  0
   -5.5987   -4.1606   -2.3615 C   0  0  0  0  0  0  0  0  0  0  0  0
   -6.6962   -3.3125   -1.7306 C   0  0  0  0  0  0  0  0  0  0  0  0
   -7.7489   -4.1944   -1.3453 N   0  0  0  0  0  0  0  0  0  0  0  0
   -8.6931   -3.9605   -0.5231 C   0  0  0  0  0  0  0  0  0  0  0  0
   -8.7872   -2.7034    0.1386 N   0  0  0  0  0  0  0  0  0  0  0  0
   -9.6459   -5.0100   -0.2956 N   0  0  0  0  0  0  0  0  0  0  0  0
    5.2722   -3.6581    0.8675 N   0  0  0  0  0  0  0  0  0  0  0  0
    6.6226   -3.3951    0.4143 C   0  0  0  0  0  0  0  0  0  0  0  0
    6.8024   -2.6678   -0.6226 O   0  0  0  0  0  0  0  0  0  0  0  0
    7.8262   -3.9228    1.0843 C   0  0  2  0  0  0  0  0  0  0  0  0
    7.6932   -3.9184    2.5883 C   0  0  0  0  0  0  0  0  0  0  0  0
    8.8541   -4.5590    3.3073 C   0  0  0  0  0  0  0  0  0  0  0  0
    7.5172   -2.5210    3.1472 C   0  0  0  0  0  0  0  0  0  0  0  0
    9.0015   -3.3372    0.5198 N   0  0  0  0  0  0  0  0  0  0  0  0
   10.1406   -2.7479    1.0542 C   0  0  0  0  0  0  0  0  0  0  0  0
   10.3983   -2.5701    2.2846 O   0  0  0  0  0  0  0  0  0  0  0  0
   11.2479   -2.2361    0.1588 C   0  0  2  0  0  0  0  0  0  0  0  0
   11.5113   -0.7936    0.3974 C   0  0  0  0  0  0  0  0  0  0  0  0
   12.6008   -0.3071   -0.4793 C   0  0  0  0  0  0  0  0  0  0  0  0
   13.9213   -0.4018   -0.0371 C   0  0  0  0  0  0  0  0  0  0  0  0
   14.9852    0.0528   -0.7717 C   0  0  0  0  0  0  0  0  0  0  0  0
   14.7639    0.6255   -1.9903 C   0  0  0  0  0  0  0  0  0  0  0  0
   13.4769    0.7490   -2.4866 C   0  0  0  0  0  0  0  0  0  0  0  0
   12.4119    0.2723   -1.7090 C   0  0  0  0  0  0  0  0  0  0  0  0
   15.8655    1.0869   -2.7300 O   0  0  0  0  0  0  0  0  0  0  0  0
   10.9676   -2.4824   -1.2195 N   0  0  0  0  0  0  0  0  0  0  0  0
    3.8329   -7.3552   -1.7566 H   0  0  0  0  0  0  0  0  0  0  0  0
    5.0016   -8.0302   -0.5885 H   0  0  0  0  0  0  0  0  0  0  0  0
    3.2376   -8.1738   -0.2456 H   0  0  0  0  0  0  0  0  0  0  0  0
    3.7851   -6.3089    1.0997 H   0  0  0  0  0  0  0  0  0  0  0  0
    5.0970   -5.8095   -0.0515 H   0  0  0  0  0  0  0  0  0  0  0  0
    3.5617   -5.1113   -1.7088 H   0  0  0  0  0  0  0  0  0  0  0  0
    2.1285   -5.7267   -0.8482 H   0  0  0  0  0  0  0  0  0  0  0  0
    2.2324   -3.3481   -0.7006 H   0  0  0  0  0  0  0  0  0  0  0  0
    2.4975   -4.0390    0.9253 H   0  0  0  0  0  0  0  0  0  0  0  0
    4.6539   -2.8739   -0.9456 H   0  0  0  0  0  0  0  0  0  0  0  0
    2.8011   -1.4145   -1.1773 H   0  0  0  0  0  0  0  0  0  0  0  0
    1.3385    0.1815   -0.5696 H   0  0  0  0  0  0  0  0  0  0  0  0
    1.9831    1.6823    1.6228 H   0  0  0  0  0  0  0  0  0  0  0  0
    2.4756    0.0046    2.0818 H   0  0  0  0  0  0  0  0  0  0  0  0
    0.1466   -1.9008   -1.2234 H   0  0  0  0  0  0  0  0  0  0  0  0
   -0.7859   -3.3040   -0.6811 H   0  0  0  0  0  0  0  0  0  0  0  0
   -2.0546   -1.8789   -2.1303 H   0  0  0  0  0  0  0  0  0  0  0  0
   -1.9246    0.3362    0.0004 H   0  0  0  0  0  0  0  0  0  0  0  0
   -3.8099    2.0176   -2.5282 H   0  0  0  0  0  0  0  0  0  0  0  0
   -1.7872    3.5243   -0.8461 H   0  0  0  0  0  0  0  0  0  0  0  0
   -3.7128    3.9296    1.6300 H   0  0  0  0  0  0  0  0  0  0  0  0
   -2.9002    5.9435   -0.4964 H   0  0  0  0  0  0  0  0  0  0  0  0
   -0.1233    6.2086   -0.3702 H   0  0  0  0  0  0  0  0  0  0  0  0
    0.8404    6.1396    2.4842 H   0  0  0  0  0  0  0  0  0  0  0  0
    2.4564    4.1241    2.3456 H   0  0  0  0  0  0  0  0  0  0  0  0
    3.9398    2.9220    1.1097 H   0  0  0  0  0  0  0  0  0  0  0  0
    4.1056    3.1274   -2.4545 H   0  0  0  0  0  0  0  0  0  0  0  0
    5.7259    3.1134   -1.7168 H   0  0  0  0  0  0  0  0  0  0  0  0
    5.0337    0.9767   -0.6588 H   0  0  0  0  0  0  0  0  0  0  0  0
    3.1682    6.2103    3.1702 H   0  0  0  0  0  0  0  0  0  0  0  0
    4.5636    5.1810    2.9291 H   0  0  0  0  0  0  0  0  0  0  0  0
    2.8934    8.4621    1.5324 H   0  0  0  0  0  0  0  0  0  0  0  0
    4.6282    9.7908    0.2020 H   0  0  0  0  0  0  0  0  0  0  0  0
    6.8181    8.3423   -0.0883 H   0  0  0  0  0  0  0  0  0  0  0  0
    0.3128    8.3567    0.5666 H   0  0  0  0  0  0  0  0  0  0  0  0
   -0.8431    8.1614    1.8988 H   0  0  0  0  0  0  0  0  0  0  0  0
   -3.1941    8.4388    1.5251 H   0  0  0  0  0  0  0  0  0  0  0  0
   -4.9223    9.3795    0.0366 H   0  0  0  0  0  0  0  0  0  0  0  0
   -4.4572    9.9322   -2.3232 H   0  0  0  0  0  0  0  0  0  0  0  0
   -2.2557    9.5181   -3.1873 H   0  0  0  0  0  0  0  0  0  0  0  0
   -0.4575    8.5829   -1.7697 H   0  0  0  0  0  0  0  0  0  0  0  0
   -5.9101    4.0916    0.8281 H   0  0  0  0  0  0  0  0  0  0  0  0
   -5.5086    5.2323   -0.4838 H   0  0  0  0  0  0  0  0  0  0  0  0
   -6.6756    6.2469    1.3500 H   0  0  0  0  0  0  0  0  0  0  0  0
   -5.0466    6.9883    1.1986 H   0  0  0  0  0  0  0  0  0  0  0  0
   -4.3710    5.3508    3.1623 H   0  0  0  0  0  0  0  0  0  0  0  0
   -6.0740    4.8725    3.2103 H   0  0  0  0  0  0  0  0  0  0  0  0
   -8.3470    7.6783    2.2645 H   0  0  0  0  0  0  0  0  0  0  0  0
   -8.5199    6.2372    3.3261 H   0  0  0  0  0  0  0  0  0  0  0  0
   -7.2500    9.4521    4.4684 H   0  0  0  0  0  0  0  0  0  0  0  0
   -6.7489    8.2869    5.7542 H   0  0  0  0  0  0  0  0  0  0  0  0
   -2.3395    1.9334   -4.3527 H   0  0  0  0  0  0  0  0  0  0  0  0
   -0.8984    2.1811   -3.3585 H   0  0  0  0  0  0  0  0  0  0  0  0
   -0.2774    4.9022   -3.0878 H   0  0  0  0  0  0  0  0  0  0  0  0
   -1.3917    7.0375   -3.8960 H   0  0  0  0  0  0  0  0  0  0  0  0
   -4.6205    2.8476   -4.6570 H   0  0  0  0  0  0  0  0  0  0  0  0
   -6.3812    4.2337   -5.6524 H   0  0  0  0  0  0  0  0  0  0  0  0
   -5.9868    6.6838   -5.8613 H   0  0  0  0  0  0  0  0  0  0  0  0
   -3.8759    7.7238   -5.0937 H   0  0  0  0  0  0  0  0  0  0  0  0
   -2.6011   -4.1859   -1.1114 H   0  0  0  0  0  0  0  0  0  0  0  0
   -5.2530   -3.8888    0.3710 H   0  0  0  0  0  0  0  0  0  0  0  0
   -5.9086   -6.3084    1.0961 H   0  0  0  0  0  0  0  0  0  0  0  0
   -3.4377   -7.4362    2.4627 H   0  0  0  0  0  0  0  0  0  0  0  0
   -5.7994   -8.0285   -0.1040 H   0  0  0  0  0  0  0  0  0  0  0  0
   -6.7362  -10.6200    0.6783 H   0  0  0  0  0  0  0  0  0  0  0  0
   -5.1603  -10.8514   -0.1892 H   0  0  0  0  0  0  0  0  0  0  0  0
   -7.0485  -11.1867   -3.1840 H   0  0  0  0  0  0  0  0  0  0  0  0
   -7.6926  -11.9009   -1.6712 H   0  0  0  0  0  0  0  0  0  0  0  0
   -4.9256   -8.0487    4.2974 H   0  0  0  0  0  0  0  0  0  0  0  0
   -4.9189   -6.2794    4.0909 H   0  0  0  0  0  0  0  0  0  0  0  0
   -6.6724   -5.0999    3.1207 H   0  0  0  0  0  0  0  0  0  0  0  0
   -9.1017   -4.8713    2.7688 H   0  0  0  0  0  0  0  0  0  0  0  0
  -10.5069   -6.8574    2.8813 H   0  0  0  0  0  0  0  0  0  0  0  0
   -9.4928   -9.0493    3.3240 H   0  0  0  0  0  0  0  0  0  0  0  0
   -7.0980   -9.2865    3.6674 H   0  0  0  0  0  0  0  0  0  0  0  0
   -5.9100   -5.8435   -1.0880 H   0  0  0  0  0  0  0  0  0  0  0  0
   -4.3229   -5.7860   -1.8842 H   0  0  0  0  0  0  0  0  0  0  0  0
   -6.0033   -4.6530   -3.2702 H   0  0  0  0  0  0  0  0  0  0  0  0
   -4.7534   -3.4822   -2.6657 H   0  0  0  0  0  0  0  0  0  0  0  0
   -6.2535   -2.7236   -0.9214 H   0  0  0  0  0  0  0  0  0  0  0  0
   -7.0752   -2.6485   -2.5524 H   0  0  0  0  0  0  0  0  0  0  0  0
   -9.7204   -2.3701    0.4414 H   0  0  0  0  0  0  0  0  0  0  0  0
   -7.9541   -2.1013    0.3289 H   0  0  0  0  0  0  0  0  0  0  0  0
  -10.1538   -5.1413    0.6061 H   0  0  0  0  0  0  0  0  0  0  0  0
   -9.8513   -5.6865   -1.0629 H   0  0  0  0  0  0  0  0  0  0  0  0
    5.1204   -4.2325    1.7210 H   0  0  0  0  0  0  0  0  0  0  0  0
    7.9120   -5.0303    0.8632 H   0  0  0  0  0  0  0  0  0  0  0  0
    6.7702   -4.4908    2.8794 H   0  0  0  0  0  0  0  0  0  0  0  0
    8.4636   -5.5171    3.8395 H   0  0  0  0  0  0  0  0  0  0  0  0
    9.2574   -3.9883    4.1420 H   0  0  0  0  0  0  0  0  0  0  0  0
    9.5581   -4.9834    2.5813 H   0  0  0  0  0  0  0  0  0  0  0  0
    6.4802   -2.3242    3.5011 H   0  0  0  0  0  0  0  0  0  0  0  0
    7.7416   -1.7390    2.3869 H   0  0  0  0  0  0  0  0  0  0  0  0
    8.1932   -2.3207    4.0033 H   0  0  0  0  0  0  0  0  0  0  0  0
    8.9943   -3.3637   -0.5718 H   0  0  0  0  0  0  0  0  0  0  0  0
   12.1738   -2.8162    0.4399 H   0  0  0  0  0  0  0  0  0  0  0  0
   10.5986   -0.1910    0.1892 H   0  0  0  0  0  0  0  0  0  0  0  0
   11.8614   -0.6524    1.4442 H   0  0  0  0  0  0  0  0  0  0  0  0
   14.1440   -0.8465    0.9284 H   0  0  0  0  0  0  0  0  0  0  0  0
   16.0121   -0.0233   -0.4088 H   0  0  0  0  0  0  0  0  0  0  0  0
   13.2825    1.2144   -3.4681 H   0  0  0  0  0  0  0  0  0  0  0  0
   11.3888    0.3643   -2.0909 H   0  0  0  0  0  0  0  0  0  0  0  0
   16.7849    1.1693   -2.3060 H   0  0  0  0  0  0  0  0  0  0  0  0
   11.7778   -2.1996   -1.8470 H   0  0  0  0  0  0  0  0  0  0  0  0
   10.8690   -3.5184   -1.4262 H   0  0  0  0  0  0  0  0  0  0  0  0
  1  2  1  0
  2  3  1  0
  3  4  1  0
  4  5  1  0
  5  6  1  0
  6  7  2  0
  6  8  1  0
  8  9  1  0
  9 10  1  0
 10 11  1  0
 11 12  1  0
 12 13  1  0
 13 14  1  0
 14 15  1  0
 15 16  1  0
 16 17  2  0
 16 18  1  0
 18 19  1  0
 19 20  1  0
 20 21  2  0
 20 22  1  0
 22 23  1  0
 23 24  1  0
 24 25  2  0
 24 26  1  0
 26 27  1  0
 27 28  1  0
 28 29  2  0
 28 30  1  0
 30 31  1  0
 31 32  1  0
 32 33  2  0
 32 34  1  0
 34 35  1  0
 35 36  1  0
 36 37  2  0
 30 38  1  0
 38 39  1  0
 39 40  2  0
 40 41  1  0
 41 42  1  0
 42 43  2  0
 26 44  1  0
 44 45  1  0
 45 46  2  0
 46 47  1  0
 47 48  2  0
 48 49  1  0
 49 50  2  0
 22 51  1  0
 51 52  1  0
 52 53  1  0
 53 54  1  0
 54 55  2  3
 55 56  1  0
 55 57  1  0
 18 58  1  0
 58 59  1  0
 59 60  2  0
 60 61  1  0
 61 62  1  0
 62 63  2  0
 63 64  1  0
 64 65  2  0
 65 66  1  0
 66 67  2  0
 14 68  1  0
 68 69  2  0
 68 70  1  0
 70 71  1  0
 71 72  1  0
 72 73  2  0
 72 74  1  0
 74 75  1  0
 75 76  1  0
 76 77  2  0
 76 78  1  0
 78 79  1  0
 79 80  1  0
 80 81  2  0
 80 82  1  0
 75 83  1  0
 83 84  1  0
 84 85  2  0
 85 86  1  0
 86 87  2  0
 87 88  1  0
 88 89  2  0
 71 90  1  0
 90 91  1  0
 91 92  1  0
 92 93  1  0
 93 94  2  3
 94 95  1  0
 94 96  1  0
  5 97  1  0
 97 98  1  0
 98 99  2  0
 98100  1  0
100101  1  0
101102  1  0
101103  1  0
100104  1  0
104105  1  0
105106  2  0
105107  1  0
107108  1  0
108109  1  0
109110  2  0
110111  1  0
111112  2  0
112113  1  0
113114  2  0
112115  1  0
107116  1  0
 36  9  1  0
 43 39  1  0
 50 45  1  0
 63 59  1  0
 89 84  1  0
114109  1  0
 67 62  1  0
  1117  1  0
  1118  1  0
  1119  1  0
  2120  1  0
  2121  1  0
  3122  1  0
  3123  1  0
  4124  1  0
  4125  1  0
  5126  1  6
  8127  1  0
  9128  1  6
 10129  1  0
 10130  1  0
 13131  1  0
 13132  1  0
 14133  1  6
 15134  1  0
 18135  1  6
 19136  1  0
 22137  1  1
 23138  1  0
 26139  1  6
 27140  1  0
 30141  1  1
 31142  1  0
 34143  1  0
 34144  1  0
 35145  1  0
 38146  1  0
 38147  1  0
 40148  1  0
 41149  1  0
 42150  1  0
 44151  1  0
 44152  1  0
 46153  1  0
 47154  1  0
 48155  1  0
 49156  1  0
 50157  1  0
 51158  1  0
 51159  1  0
 52160  1  0
 52161  1  0
 53162  1  0
 53163  1  0
 56164  1  0
 56165  1  0
 57166  1  0
 57167  1  0
 58168  1  0
 58169  1  0
 60170  1  0
 61171  1  0
 64172  1  0
 65173  1  0
 66174  1  0
 67175  1  0
 70176  1  0
 71177  1  1
 74178  1  0
 75179  1  1
 78180  1  0
 79181  1  0
 79182  1  0
 82183  1  0
 82184  1  0
 83185  1  0
 83186  1  0
 85187  1  0
 86188  1  0
 87189  1  0
 88190  1  0
 89191  1  0
 90192  1  0
 90193  1  0
 91194  1  0
 91195  1  0
 92196  1  0
 92197  1  0
 95198  1  0
 95199  1  0
 96200  1  0
 96201  1  0
 97202  1  0
100203  1  6
101204  1  0
102205  1  0
102206  1  0
102207  1  0
103208  1  0
103209  1  0
103210  1  0
104211  1  0
107212  1  1
108213  1  0
108214  1  0
110215  1  0
111216  1  0
113217  1  0
114218  1  0
115219  1  0
116220  1  0
116221  1  0
M  END
>  <Ligand ID>  (1) 
LIG0004161

>  <Ligand>  (1) 
CID 44363977

>  <SMILES>  (1) 
CCCC[C@@H](C(=O)N[C@H]1CSSC[C@H](NC(=O)[C@@H](NC(=O)[C@@H](NC(=O)[C@H](NC(=O)[C@@H](NC(=O)CNC1=O)Cc1c[nH]cn1)Cc1ccccc1)CCCN=C(N)N)Cc1c[nH]c2c1cccc2)C(=O)N[C@H](C(=O)N[C@H](C(=O)NCC(=O)N)Cc1ccccc1)CCCN=C(N)N)NC(=O)[C@H](C(C)C)NC(=O)[C@H](Cc1ccc(cc1)O)N

>  <CID>  (1) 
44363977.0

>  <ChEMBL ID>  (1) 
nan

>  <InChiKey>  (1) 
UKCAJRRGLXHDRO-QKIWMXRMSA-N

>  <InChi>  (1) 
InChI=1S/C77H105N23O14S2/c1-4-5-21-53(94-75(114)64(43(2)3)100-65(104)51(78)31-46-25-27-49(101)28-26-46)70(109)98-60-40-115-116-41-61(74(113)93-55(24-15-30-86-77(82)83)68(107)95-56(66(105)88-38-62(79)102)32-44-16-8-6-9-17-44)99-72(111)58(34-47-36-87-52-22-13-12-20-50(47)52)97-69(108)54(23-14-29-85-76(80)81)92-71(110)57(33-45-18-10-7-11-19-45)96-73(112)59(35-48-37-84-42-90-48)91-63(103)39-89-67(60)106/h6-13,16-20,22,25-28,36-37,42-43,51,53-61,64,87,101H,4-5,14-15,21,23-24,29-35,38-41,78H2,1-3H3,(H2,79,102)(H,84,90)(H,88,105)(H,89,106)(H,91,103)(H,92,110)(H,93,113)(H,94,114)(H,95,107)(H,96,112)(H,97,108)(H,98,109)(H,99,111)(H,100,104)(H4,80,81,85)(H4,82,83,86)/t51-,53-,54-,55-,56-,57+,58-,59-,60-,61-,64-/m0/s1

>  <IUPAC Name>  (1) 
(4R,7S,10S,13R,16S,22R)-22-[[(2S)-2-[[(2S)-2-[[(2S)-2-amino-3-(4-hydroxyphenyl)propanoyl]amino]-3-methylbutanoyl]amino]hexanoyl]amino]-N-[(2S)-1-[[(2S)-1-[(2-amino-2-oxoethyl)amino]-1-oxo-3-phenylpropan-2-yl]amino]-5-(diaminomethylideneamino)-1-oxopentan-2-yl]-13-benzyl-10-[3-(diaminomethylideneamino)propyl]-16-(1H-imidazol-4-ylmethyl)-7-(1H-indol-3-ylmethyl)-6,9,12,15,18,21-hexaoxo-1,2-dithia-5,8,11,14,17,20-hexazacyclotricosane-4-carboxamide

$$$$
