
     RDKit          3D

 80 81  0  0  0  0  0  0  0  0999 V2000
   11.6993    0.9336   -1.0194 O   0  0  0  0  0  0  0  0  0  0  0  0
   10.5279    0.1684   -0.9043 C   0  0  0  0  0  0  0  0  0  0  0  0
   10.2116   -0.8015   -1.8577 C   0  0  0  0  0  0  0  0  0  0  0  0
    9.0505   -1.5492   -1.7309 C   0  0  0  0  0  0  0  0  0  0  0  0
    8.2116   -1.3175   -0.6428 C   0  0  0  0  0  0  0  0  0  0  0  0
    8.5562   -0.3385    0.2962 C   0  0  0  0  0  0  0  0  0  0  0  0
    9.7101    0.4097    0.1748 C   0  0  0  0  0  0  0  0  0  0  0  0
    6.9554   -2.0773   -0.4324 C   0  0  0  0  0  0  0  0  0  0  0  0
    5.8450   -1.3403   -1.1333 C   0  0  1  0  0  0  0  0  0  0  0  0
    4.5246   -2.0068   -0.9863 C   0  0  0  0  0  0  0  0  0  0  0  0
    4.3759   -3.2594   -1.1128 O   0  0  0  0  0  0  0  0  0  0  0  0
    3.3391   -1.2376   -0.6878 N   0  0  0  0  0  0  0  0  0  0  0  0
    2.0560   -1.8902   -0.5331 C   0  0  1  0  0  0  0  0  0  0  0  0
    1.4048   -1.4233    0.7293 C   0  0  0  0  0  0  0  0  0  0  0  0
    0.3078   -1.9985    1.0365 O   0  0  0  0  0  0  0  0  0  0  0  0
    1.9643   -0.4055    1.5366 N   0  0  0  0  0  0  0  0  0  0  0  0
    1.3664    0.0948    2.7512 C   0  0  0  0  0  0  0  0  0  0  0  0
    0.0516    0.7132    2.5098 C   0  0  0  0  0  0  0  0  0  0  0  0
   -0.5553    1.1799    3.5361 O   0  0  0  0  0  0  0  0  0  0  0  0
   -0.5982    0.8403    1.2762 N   0  0  0  0  0  0  0  0  0  0  0  0
   -1.9182    1.4626    1.1071 C   0  0  2  0  0  0  0  0  0  0  0  0
   -2.9569    0.4138    1.0060 C   0  0  0  0  0  0  0  0  0  0  0  0
   -2.5417   -0.7798    0.8643 O   0  0  0  0  0  0  0  0  0  0  0  0
   -4.3459    0.6505    1.0610 N   0  0  0  0  0  0  0  0  0  0  0  0
   -5.3148   -0.5078    0.9478 C   0  0  1  0  0  0  0  0  0  0  0  0
   -6.0175   -0.5601    2.2218 C   0  0  0  0  0  0  0  0  0  0  0  0
   -5.8500    0.4350    3.0068 O   0  0  0  0  0  0  0  0  0  0  0  0
   -6.8391   -1.5529    2.6964 O   0  0  0  0  0  0  0  0  0  0  0  0
   -6.0541   -0.3251   -0.3078 C   0  0  0  0  0  0  0  0  0  0  0  0
   -7.0932   -1.2909   -0.7248 C   0  0  0  0  0  0  0  0  0  0  0  0
   -8.2776   -1.4234    0.1734 C   0  0  0  0  0  0  0  0  0  0  0  0
   -6.5316   -2.6960   -0.9309 C   0  0  0  0  0  0  0  0  0  0  0  0
   -1.8967    2.4129   -0.0473 C   0  0  0  0  0  0  0  0  0  0  0  0
   -3.1469    3.0855   -0.3241 C   0  0  0  0  0  0  0  0  0  0  0  0
   -3.4869    4.2653    0.3581 C   0  0  0  0  0  0  0  0  0  0  0  0
   -4.6744    4.9288    0.0645 C   0  0  0  0  0  0  0  0  0  0  0  0
   -5.5522    4.4580   -0.8919 C   0  0  0  0  0  0  0  0  0  0  0  0
   -5.2145    3.3009   -1.5568 C   0  0  0  0  0  0  0  0  0  0  0  0
   -4.0399    2.6120   -1.2949 C   0  0  0  0  0  0  0  0  0  0  0  0
    1.1559   -1.5681   -1.7281 C   0  0  0  0  0  0  0  0  0  0  0  0
    5.8644    0.0343   -0.7710 N   0  0  0  0  0  0  0  0  0  0  0  0
   12.4882    0.6653   -0.4510 H   0  0  0  0  0  0  0  0  0  0  0  0
   10.8833   -0.9601   -2.6923 H   0  0  0  0  0  0  0  0  0  0  0  0
    8.7974   -2.3005   -2.4633 H   0  0  0  0  0  0  0  0  0  0  0  0
    7.8969   -0.1535    1.1545 H   0  0  0  0  0  0  0  0  0  0  0  0
    9.9197    1.1483    0.9384 H   0  0  0  0  0  0  0  0  0  0  0  0
    7.0495   -3.1282   -0.7856 H   0  0  0  0  0  0  0  0  0  0  0  0
    6.7374   -2.0679    0.6623 H   0  0  0  0  0  0  0  0  0  0  0  0
    6.0809   -1.4145   -2.2301 H   0  0  0  0  0  0  0  0  0  0  0  0
    3.4918   -0.2136   -0.6060 H   0  0  0  0  0  0  0  0  0  0  0  0
    2.1304   -2.9856   -0.5227 H   0  0  0  0  0  0  0  0  0  0  0  0
    2.8876    0.0444    1.2683 H   0  0  0  0  0  0  0  0  0  0  0  0
    2.0542    0.7815    3.2909 H   0  0  0  0  0  0  0  0  0  0  0  0
    1.1842   -0.8109    3.4103 H   0  0  0  0  0  0  0  0  0  0  0  0
   -0.1544    0.5062    0.3958 H   0  0  0  0  0  0  0  0  0  0  0  0
   -2.1317    2.0118    2.0386 H   0  0  0  0  0  0  0  0  0  0  0  0
   -4.7315    1.5862    1.1978 H   0  0  0  0  0  0  0  0  0  0  0  0
   -4.6915   -1.4475    0.8577 H   0  0  0  0  0  0  0  0  0  0  0  0
   -7.0509   -1.6966    3.6771 H   0  0  0  0  0  0  0  0  0  0  0  0
   -5.3435   -0.1019   -1.1702 H   0  0  0  0  0  0  0  0  0  0  0  0
   -6.5933    0.6894   -0.2110 H   0  0  0  0  0  0  0  0  0  0  0  0
   -7.4581   -0.9790   -1.7647 H   0  0  0  0  0  0  0  0  0  0  0  0
   -8.2717   -2.4012    0.6727 H   0  0  0  0  0  0  0  0  0  0  0  0
   -8.3597   -0.5382    0.8158 H   0  0  0  0  0  0  0  0  0  0  0  0
   -9.1862   -1.4688   -0.5089 H   0  0  0  0  0  0  0  0  0  0  0  0
   -7.3845   -3.4008   -0.8857 H   0  0  0  0  0  0  0  0  0  0  0  0
   -6.0791   -2.8180   -1.9382 H   0  0  0  0  0  0  0  0  0  0  0  0
   -5.8582   -2.9813   -0.0964 H   0  0  0  0  0  0  0  0  0  0  0  0
   -1.5661    1.9135   -0.9946 H   0  0  0  0  0  0  0  0  0  0  0  0
   -1.1154    3.1993    0.1242 H   0  0  0  0  0  0  0  0  0  0  0  0
   -2.7842    4.6135    1.0990 H   0  0  0  0  0  0  0  0  0  0  0  0
   -4.9110    5.8428    0.6109 H   0  0  0  0  0  0  0  0  0  0  0  0
   -6.4652    5.0095   -1.0891 H   0  0  0  0  0  0  0  0  0  0  0  0
   -5.8681    2.8715   -2.3304 H   0  0  0  0  0  0  0  0  0  0  0  0
   -3.8224    1.6980   -1.8548 H   0  0  0  0  0  0  0  0  0  0  0  0
    1.2006   -0.5093   -2.0227 H   0  0  0  0  0  0  0  0  0  0  0  0
    1.5079   -2.1833   -2.5623 H   0  0  0  0  0  0  0  0  0  0  0  0
    0.1409   -1.9159   -1.4731 H   0  0  0  0  0  0  0  0  0  0  0  0
    5.4997    0.2237    0.1915 H   0  0  0  0  0  0  0  0  0  0  0  0
    5.6032    0.7214   -1.4882 H   0  0  0  0  0  0  0  0  0  0  0  0
  1  2  1  0
  2  3  2  0
  3  4  1  0
  4  5  2  0
  5  6  1  0
  6  7  2  0
  5  8  1  0
  8  9  1  0
  9 10  1  0
 10 11  2  0
 10 12  1  0
 12 13  1  0
 13 14  1  0
 14 15  2  0
 14 16  1  0
 16 17  1  0
 17 18  1  0
 18 19  2  0
 18 20  1  0
 20 21  1  0
 21 22  1  0
 22 23  2  0
 22 24  1  0
 24 25  1  0
 25 26  1  0
 26 27  2  0
 26 28  1  0
 25 29  1  0
 29 30  1  0
 30 31  1  0
 30 32  1  0
 21 33  1  0
 33 34  1  0
 34 35  2  0
 35 36  1  0
 36 37  2  0
 37 38  1  0
 38 39  2  0
 13 40  1  0
  9 41  1  0
  7  2  1  0
 39 34  1  0
  1 42  1  0
  3 43  1  0
  4 44  1  0
  6 45  1  0
  7 46  1  0
  8 47  1  0
  8 48  1  0
  9 49  1  6
 12 50  1  0
 13 51  1  1
 16 52  1  0
 17 53  1  0
 17 54  1  0
 20 55  1  0
 21 56  1  1
 24 57  1  0
 25 58  1  6
 28 59  1  0
 29 60  1  0
 29 61  1  0
 30 62  1  0
 31 63  1  0
 31 64  1  0
 31 65  1  0
 32 66  1  0
 32 67  1  0
 32 68  1  0
 33 69  1  0
 33 70  1  0
 35 71  1  0
 36 72  1  0
 37 73  1  0
 38 74  1  0
 39 75  1  0
 40 76  1  0
 40 77  1  0
 40 78  1  0
 41 79  1  0
 41 80  1  0
M  END
>  <Ligand ID>  (1) 
LIG0005383

>  <Ligand>  (1) 
DADLE

>  <SMILES>  (1) 
Oc1ccc(cc1)C[C@@H](C(=O)N[C@@H](C(=O)NCC(=O)N[C@H](C(=O)N[C@@H](C(=O)O)CC(C)C)Cc1ccccc1)C)N

>  <CID>  (1) 
6917707.0

>  <ChEMBL ID>  (1) 
nan

>  <InChiKey>  (1) 
ZHUJMSMQIPIPTF-IBURTVSXSA-N

>  <InChi>  (1) 
InChI=1S/C29H39N5O7/c1-17(2)13-24(29(40)41)34-28(39)23(15-19-7-5-4-6-8-19)33-25(36)16-31-26(37)18(3)32-27(38)22(30)14-20-9-11-21(35)12-10-20/h4-12,17-18,22-24,35H,13-16,30H2,1-3H3,(H,31,37)(H,32,38)(H,33,36)(H,34,39)(H,40,41)/t18-,22+,23+,24-/m1/s1

>  <IUPAC Name>  (1) 
(2R)-2-[[(2S)-2-[[2-[[(2R)-2-[[(2S)-2-amino-3-(4-hydroxyphenyl)propanoyl]amino]propanoyl]amino]acetyl]amino]-3-phenylpropanoyl]amino]-4-methylpentanoic acid

$$$$
