
     RDKit          3D

 36 37  0  0  0  0  0  0  0  0999 V2000
    0.5755   -1.1041    1.8555 O   0  0  0  0  0  0  0  0  0  0  0  0
   -0.1626   -1.6402    0.8221 C   0  0  0  0  0  0  0  0  0  0  0  0
   -0.3876   -2.8960    0.8893 O   0  0  0  0  0  0  0  0  0  0  0  0
   -0.7085   -0.9260   -0.3275 C   0  0  1  0  0  0  0  0  0  0  0  0
   -2.2545   -0.9295   -0.2150 C   0  0  0  0  0  0  0  0  0  0  0  0
   -2.6494    0.5435   -0.1807 C   0  0  2  0  0  0  0  0  0  0  0  0
   -1.5352    1.1146   -1.0672 C   0  0  0  0  0  0  0  0  0  0  0  0
   -0.4145    0.4187   -0.5019 N   0  0  0  0  0  0  0  0  0  0  0  0
    0.8452    0.9040   -0.8478 C   0  0  0  0  0  0  0  0  0  0  0  0
    2.0528    0.3396   -0.2551 C   0  0  0  0  0  0  0  0  0  0  0  0
    2.6833    1.0507    0.7785 C   0  0  0  0  0  0  0  0  0  0  0  0
    3.8264    0.5804    1.3878 C   0  0  0  0  0  0  0  0  0  0  0  0
    4.3925   -0.6017    1.0073 C   0  0  0  0  0  0  0  0  0  0  0  0
    3.8073   -1.3193    0.0063 C   0  0  0  0  0  0  0  0  0  0  0  0
    2.6560   -0.8436   -0.6064 C   0  0  0  0  0  0  0  0  0  0  0  0
    2.1249   -1.6283   -1.6144 O   0  0  0  0  0  0  0  0  0  0  0  0
   -2.4064    1.0751    1.1379 N   0  0  0  0  0  0  0  0  0  0  0  0
   -3.9890    0.8048   -0.7031 C   0  0  0  0  0  0  0  0  0  0  0  0
   -4.4188    0.4409   -1.8211 O   0  0  0  0  0  0  0  0  0  0  0  0
   -4.8811    1.5225    0.1034 O   0  0  0  0  0  0  0  0  0  0  0  0
    0.4546   -1.3923    2.8231 H   0  0  0  0  0  0  0  0  0  0  0  0
   -0.5269   -1.4729   -1.3002 H   0  0  0  0  0  0  0  0  0  0  0  0
   -2.5884   -1.4874    0.6578 H   0  0  0  0  0  0  0  0  0  0  0  0
   -2.7318   -1.3466   -1.1010 H   0  0  0  0  0  0  0  0  0  0  0  0
   -1.4488    2.1978   -0.9815 H   0  0  0  0  0  0  0  0  0  0  0  0
   -1.7133    0.7507   -2.0984 H   0  0  0  0  0  0  0  0  0  0  0  0
    0.8470    2.0186   -0.6449 H   0  0  0  0  0  0  0  0  0  0  0  0
    0.8985    0.8771   -1.9841 H   0  0  0  0  0  0  0  0  0  0  0  0
    2.2599    2.0078    1.1146 H   0  0  0  0  0  0  0  0  0  0  0  0
    4.2573    1.1876    2.1809 H   0  0  0  0  0  0  0  0  0  0  0  0
    5.2951   -0.9167    1.5294 H   0  0  0  0  0  0  0  0  0  0  0  0
    4.2485   -2.2702   -0.3119 H   0  0  0  0  0  0  0  0  0  0  0  0
    2.5484   -1.6238   -2.5523 H   0  0  0  0  0  0  0  0  0  0  0  0
   -2.6510    0.4538    1.9141 H   0  0  0  0  0  0  0  0  0  0  0  0
   -2.6584    2.0655    1.2181 H   0  0  0  0  0  0  0  0  0  0  0  0
   -5.6467    2.0448   -0.3116 H   0  0  0  0  0  0  0  0  0  0  0  0
  1  2  1  0
  2  3  2  0
  2  4  1  0
  4  5  1  0
  5  6  1  0
  6  7  1  0
  7  8  1  0
  8  9  1  0
  9 10  1  0
 10 11  2  0
 11 12  1  0
 12 13  2  0
 13 14  1  0
 14 15  2  0
 15 16  1  0
  6 17  1  1
  6 18  1  0
 18 19  2  0
 18 20  1  0
  8  4  1  0
 15 10  1  0
  1 21  1  0
  4 22  1  6
  5 23  1  0
  5 24  1  0
  7 25  1  0
  7 26  1  0
  9 27  1  0
  9 28  1  0
 11 29  1  0
 12 30  1  0
 13 31  1  0
 14 32  1  0
 16 33  1  0
 17 34  1  0
 17 35  1  0
 20 36  1  0
M  END
>  <Ligand ID>  (1) 
LIG0005689

>  <Ligand>  (1) 
CHEMBL540015

>  <SMILES>  (1) 
OC(=O)[C@H]1C[C@](CN1Cc1ccccc1O)(N)C(=O)O

>  <CID>  (1) 
10473248.0

>  <ChEMBL ID>  (1) 
nan

>  <InChiKey>  (1) 
OGFMYVKVIGLMCE-NOZJJQNGSA-N

>  <InChi>  (1) 
InChI=1S/C13H16N2O5/c14-13(12(19)20)5-9(11(17)18)15(7-13)6-8-3-1-2-4-10(8)16/h1-4,9,16H,5-7,14H2,(H,17,18)(H,19,20)/t9-,13-/m1/s1

>  <IUPAC Name>  (1) 
(2R,4R)-4-amino-1-[(2-hydroxyphenyl)methyl]pyrrolidine-2,4-dicarboxylic acid

$$$$
