
     RDKit          3D

 19 20  0  0  0  0  0  0  0  0999 V2000
    2.9765   -0.3793    0.1776 C   0  0  0  0  0  0  0  0  0  0  0  0
    1.5310   -0.0215   -0.0353 C   0  0  0  0  0  0  0  0  0  0  0  0
    1.1893    1.0768   -0.8160 C   0  0  0  0  0  0  0  0  0  0  0  0
   -0.1580    1.3367   -0.9614 C   0  0  0  0  0  0  0  0  0  0  0  0
   -1.1247    0.5627   -0.3738 C   0  0  0  0  0  0  0  0  0  0  0  0
   -0.7874   -0.5343    0.4061 C   0  0  0  0  0  0  0  0  0  0  0  0
    0.5751   -0.8146    0.5658 C   0  0  0  0  0  0  0  0  0  0  0  0
   -1.9108   -1.1114    0.8567 N   0  0  0  0  0  0  0  0  0  0  0  0
   -2.9902   -0.4179    0.3907 C   0  0  0  0  0  0  0  0  0  0  0  0
   -2.5157    0.6434   -0.3888 C   0  0  0  0  0  0  0  0  0  0  0  0
    3.5674    0.5485   -0.0444 H   0  0  0  0  0  0  0  0  0  0  0  0
    3.3003   -1.1938   -0.5024 H   0  0  0  0  0  0  0  0  0  0  0  0
    3.1125   -0.6631    1.2323 H   0  0  0  0  0  0  0  0  0  0  0  0
    1.9426    1.6958   -1.2854 H   0  0  0  0  0  0  0  0  0  0  0  0
   -0.4329    2.1969   -1.5727 H   0  0  0  0  0  0  0  0  0  0  0  0
    0.8285   -1.6822    1.1830 H   0  0  0  0  0  0  0  0  0  0  0  0
   -1.9709   -1.9542    1.4659 H   0  0  0  0  0  0  0  0  0  0  0  0
   -4.0270   -0.6715    0.6056 H   0  0  0  0  0  0  0  0  0  0  0  0
   -3.1057    1.3831   -0.9033 H   0  0  0  0  0  0  0  0  0  0  0  0
  1  2  1  0
  2  3  2  0
  3  4  1  0
  4  5  2  0
  5  6  1  0
  6  7  2  0
  6  8  1  0
  8  9  1  0
  9 10  2  0
  7  2  1  0
 10  5  1  0
  1 11  1  0
  1 12  1  0
  1 13  1  0
  3 14  1  0
  4 15  1  0
  7 16  1  0
  8 17  1  0
  9 18  1  0
 10 19  1  0
M  END
>  <Ligand ID>  (1) 
LIG0000333

>  <Ligand>  (1) 
6-methyl-1H-indole

>  <SMILES>  (1) 
Cc1ccc2c(c1)[nH]cc2

>  <CID>  (1) 
137928.0

>  <ChEMBL ID>  (1) 
nan

>  <InChiKey>  (1) 
ONYNOPPOVKYGRS-UHFFFAOYSA-N

>  <InChi>  (1) 
InChI=1S/C9H9N/c1-7-2-3-8-4-5-10-9(8)6-7/h2-6,10H,1H3

>  <IUPAC Name>  (1) 
6-methyl-1H-indole

$$$$
