
     RDKit          3D

 73 77  0  0  0  0  0  0  0  0999 V2000
    5.3835   -0.6504   -0.7129 O   0  0  0  0  0  0  0  0  0  0  0  0
    5.1796   -1.7388   -1.2757 C   0  0  0  0  0  0  0  0  0  0  0  0
    6.0945   -2.8899   -0.9610 C   0  0  0  0  0  0  0  0  0  0  0  0
    6.7970   -3.4136   -2.1776 C   0  0  0  0  0  0  0  0  0  0  0  0
    7.9820   -2.5316   -1.8570 C   0  0  0  0  0  0  0  0  0  0  0  0
    7.4369   -2.3851   -0.4687 C   0  0  0  0  0  0  0  0  0  0  0  0
    4.1158   -1.9141   -2.1966 N   0  0  0  0  0  0  0  0  0  0  0  0
    3.1807   -0.8777   -2.5680 C   0  0  0  0  0  0  0  0  0  0  0  0
    2.4015   -0.3758   -1.3361 C   0  0  0  0  0  0  0  0  0  0  0  0
    1.4350    0.6871   -1.7112 C   0  0  0  0  0  0  0  0  0  0  0  0
    0.6629    1.2280   -0.5707 C   0  0  1  0  0  0  0  0  0  0  0  0
   -0.3015    2.3359   -1.0368 C   0  0  0  0  0  0  0  0  0  0  0  0
   -1.1581    2.5107    0.1150 N   0  0  0  0  0  0  0  0  0  0  0  0
   -1.1960    1.2553    0.7574 C   0  0  0  0  0  0  0  0  0  0  0  0
   -2.0206    1.2832    1.7243 N   0  0  0  0  0  0  0  0  0  0  0  0
   -2.6535    2.5564    1.8684 C   0  0  0  0  0  0  0  0  0  0  0  0
   -1.9783    3.4380    0.8660 C   0  0  2  0  0  0  0  0  0  0  0  0
   -3.0222    4.0879   -0.0075 C   0  0  0  0  0  0  0  0  0  0  0  0
   -3.8943    5.0510    0.6717 C   0  0  0  0  0  0  0  0  0  0  0  0
   -5.1273    4.7836    1.2053 C   0  0  0  0  0  0  0  0  0  0  0  0
   -5.9007    5.7531    1.8520 C   0  0  0  0  0  0  0  0  0  0  0  0
   -5.3764    7.0219    1.9417 C   0  0  0  0  0  0  0  0  0  0  0  0
   -4.1457    7.3447    1.4241 C   0  0  0  0  0  0  0  0  0  0  0  0
   -3.4161    6.3595    0.7949 C   0  0  0  0  0  0  0  0  0  0  0  0
   -6.1204    8.0096    2.5788 O   0  0  0  0  0  0  0  0  0  0  0  0
   -0.2699    0.3590    0.0783 N   0  0  0  0  0  0  0  0  0  0  0  0
   -0.4085   -1.0607    0.1681 C   0  0  0  0  0  0  0  0  0  0  0  0
   -1.6879   -1.4680    0.9258 C   0  0  0  0  0  0  0  0  0  0  0  0
   -1.8087   -2.9390    0.9996 C   0  0  0  0  0  0  0  0  0  0  0  0
   -2.4771   -3.5675   -0.0382 C   0  0  0  0  0  0  0  0  0  0  0  0
   -2.6617   -4.9139   -0.0973 C   0  0  0  0  0  0  0  0  0  0  0  0
   -2.1590   -5.6922    0.9258 C   0  0  0  0  0  0  0  0  0  0  0  0
   -1.4824   -5.1050    1.9859 C   0  0  0  0  0  0  0  0  0  0  0  0
   -1.3175   -3.7190    2.0032 C   0  0  0  0  0  0  0  0  0  0  0  0
   -2.3770   -7.1635    0.8339 C   0  0  0  0  0  0  0  0  0  0  0  0
    5.6407   -3.6230   -0.2834 H   0  0  0  0  0  0  0  0  0  0  0  0
    7.0423   -4.5052   -2.1036 H   0  0  0  0  0  0  0  0  0  0  0  0
    6.3112   -3.1802   -3.1591 H   0  0  0  0  0  0  0  0  0  0  0  0
    8.0093   -1.5974   -2.4595 H   0  0  0  0  0  0  0  0  0  0  0  0
    8.9607   -3.0767   -1.9283 H   0  0  0  0  0  0  0  0  0  0  0  0
    7.4292   -1.3404   -0.0951 H   0  0  0  0  0  0  0  0  0  0  0  0
    7.9010   -3.1068    0.2211 H   0  0  0  0  0  0  0  0  0  0  0  0
    4.0361   -2.8882   -2.6184 H   0  0  0  0  0  0  0  0  0  0  0  0
    3.6650   -0.0338   -3.0856 H   0  0  0  0  0  0  0  0  0  0  0  0
    2.4614   -1.3057   -3.2939 H   0  0  0  0  0  0  0  0  0  0  0  0
    1.9187   -1.2972   -0.9541 H   0  0  0  0  0  0  0  0  0  0  0  0
    3.1609    0.0204   -0.6354 H   0  0  0  0  0  0  0  0  0  0  0  0
    0.6941    0.3385   -2.4811 H   0  0  0  0  0  0  0  0  0  0  0  0
    1.9935    1.5296   -2.1905 H   0  0  0  0  0  0  0  0  0  0  0  0
    1.3236    1.7464    0.1678 H   0  0  0  0  0  0  0  0  0  0  0  0
    0.2476    3.2427   -1.3333 H   0  0  0  0  0  0  0  0  0  0  0  0
   -0.9340    1.9524   -1.8633 H   0  0  0  0  0  0  0  0  0  0  0  0
   -3.7593    2.4862    1.7249 H   0  0  0  0  0  0  0  0  0  0  0  0
   -2.4408    2.9786    2.8901 H   0  0  0  0  0  0  0  0  0  0  0  0
   -1.3486    4.2257    1.3562 H   0  0  0  0  0  0  0  0  0  0  0  0
   -2.5271    4.5564   -0.8849 H   0  0  0  0  0  0  0  0  0  0  0  0
   -3.7079    3.3195   -0.4614 H   0  0  0  0  0  0  0  0  0  0  0  0
   -5.5593    3.8148    1.1377 H   0  0  0  0  0  0  0  0  0  0  0  0
   -6.8738    5.4825    2.2571 H   0  0  0  0  0  0  0  0  0  0  0  0
   -3.7461    8.3522    1.5029 H   0  0  0  0  0  0  0  0  0  0  0  0
   -2.4388    6.6212    0.3848 H   0  0  0  0  0  0  0  0  0  0  0  0
   -5.6447    8.7215    3.1223 H   0  0  0  0  0  0  0  0  0  0  0  0
   -0.4401   -1.6037   -0.7909 H   0  0  0  0  0  0  0  0  0  0  0  0
    0.4162   -1.5074    0.7741 H   0  0  0  0  0  0  0  0  0  0  0  0
   -1.6848   -1.0759    1.9552 H   0  0  0  0  0  0  0  0  0  0  0  0
   -2.5128   -1.0196    0.3332 H   0  0  0  0  0  0  0  0  0  0  0  0
   -2.8855   -2.9726   -0.8628 H   0  0  0  0  0  0  0  0  0  0  0  0
   -3.1873   -5.3574   -0.9238 H   0  0  0  0  0  0  0  0  0  0  0  0
   -1.0957   -5.7233    2.7769 H   0  0  0  0  0  0  0  0  0  0  0  0
   -0.7931   -3.2437    2.8215 H   0  0  0  0  0  0  0  0  0  0  0  0
   -1.6466   -7.5960    0.1035 H   0  0  0  0  0  0  0  0  0  0  0  0
   -2.3106   -7.6570    1.8106 H   0  0  0  0  0  0  0  0  0  0  0  0
   -3.3834   -7.3361    0.3634 H   0  0  0  0  0  0  0  0  0  0  0  0
  1  2  2  0
  2  3  1  0
  3  4  1  0
  4  5  1  0
  5  6  1  0
  2  7  1  0
  7  8  1  0
  8  9  1  0
  9 10  1  0
 10 11  1  0
 11 12  1  0
 12 13  1  0
 13 14  1  0
 14 15  2  0
 15 16  1  0
 16 17  1  0
 17 18  1  0
 18 19  1  0
 19 20  2  0
 20 21  1  0
 21 22  2  0
 22 23  1  0
 23 24  2  0
 22 25  1  0
 14 26  1  0
 26 27  1  0
 27 28  1  0
 28 29  1  0
 29 30  2  0
 30 31  1  0
 31 32  2  0
 32 33  1  0
 33 34  2  0
 32 35  1  0
  6  3  1  0
 26 11  1  0
 34 29  1  0
 17 13  1  0
 24 19  1  0
  3 36  1  0
  4 37  1  0
  4 38  1  0
  5 39  1  0
  5 40  1  0
  6 41  1  0
  6 42  1  0
  7 43  1  0
  8 44  1  0
  8 45  1  0
  9 46  1  0
  9 47  1  0
 10 48  1  0
 10 49  1  0
 11 50  1  1
 12 51  1  0
 12 52  1  0
 16 53  1  0
 16 54  1  0
 17 55  1  1
 18 56  1  0
 18 57  1  0
 20 58  1  0
 21 59  1  0
 23 60  1  0
 24 61  1  0
 25 62  1  0
 27 63  1  0
 27 64  1  0
 28 65  1  0
 28 66  1  0
 30 67  1  0
 31 68  1  0
 33 69  1  0
 34 70  1  0
 35 71  1  0
 35 72  1  0
 35 73  1  0
M  END
>  <Ligand ID>  (1) 
LIG0003814

>  <Ligand>  (1) 
MLS000697875

>  <SMILES>  (1) 
O=C(C1CCC1)NCCC[C@H]1CN2C(=NC[C@@H]2Cc2ccc(cc2)O)N1CCc1ccc(cc1)C

>  <CID>  (1) 
16195712.0

>  <ChEMBL ID>  (1) 
nan

>  <InChiKey>  (1) 
MULFGPIFJIFKFH-UIOOFZCWSA-N

>  <InChi>  (1) 
InChI=1S/C29H38N4O2/c1-21-7-9-22(10-8-21)15-17-32-25(6-3-16-30-28(35)24-4-2-5-24)20-33-26(19-31-29(32)33)18-23-11-13-27(34)14-12-23/h7-14,24-26,34H,2-6,15-20H2,1H3,(H,30,35)/t25-,26-/m0/s1

>  <IUPAC Name>  (1) 
N-[3-[(3S,6S)-3-[(4-hydroxyphenyl)methyl]-7-[2-(4-methylphenyl)ethyl]-2,3,5,6-tetrahydroimidazo[1,2-a]imidazol-6-yl]propyl]cyclobutanecarboxamide

$$$$
