
     RDKit          3D

 48 49  0  0  0  0  0  0  0  0999 V2000
   -4.7631    2.5548   -1.2602 C   0  0  0  0  0  0  0  0  0  0  0  0
   -4.5490    1.2061   -0.7794 N   0  0  0  0  0  0  0  0  0  0  0  0
   -3.4832    0.4229   -1.2890 C   0  0  0  0  0  0  0  0  0  0  0  0
   -2.7590    0.9947   -2.1768 O   0  0  0  0  0  0  0  0  0  0  0  0
   -3.1874   -0.9450   -0.8667 C   0  0  1  0  0  0  0  0  0  0  0  0
   -2.8541   -1.1401    0.5692 C   0  0  0  0  0  0  0  0  0  0  0  0
   -1.6859   -0.3810    0.9670 N   0  0  0  0  0  0  0  0  0  0  0  0
   -0.4043   -0.5550    0.3902 C   0  0  0  0  0  0  0  0  0  0  0  0
   -0.1998   -1.3921   -0.5157 O   0  0  0  0  0  0  0  0  0  0  0  0
    0.6980    0.2678    0.8720 C   0  0  0  0  0  0  0  0  0  0  0  0
    0.5257    1.1814    1.8448 N   0  0  0  0  0  0  0  0  0  0  0  0
    1.5280    1.9507    2.3042 C   0  0  0  0  0  0  0  0  0  0  0  0
    2.7923    1.8048    1.7611 C   0  0  0  0  0  0  0  0  0  0  0  0
    3.0398    0.8841    0.7576 C   0  0  0  0  0  0  0  0  0  0  0  0
    1.9722    0.1239    0.3278 C   0  0  0  0  0  0  0  0  0  0  0  0
    4.3124    0.7799    0.2538 O   0  0  0  0  0  0  0  0  0  0  0  0
    4.7475   -0.0837   -0.7511 C   0  0  0  0  0  0  0  0  0  0  0  0
    6.2155    0.0625   -1.0643 C   0  0  0  0  0  0  0  0  0  0  0  0
    7.2158   -0.1893    0.0398 C   0  0  0  0  0  0  0  0  0  0  0  0
    7.0316    1.1687   -0.5383 C   0  0  0  0  0  0  0  0  0  0  0  0
    4.1186    2.8013    2.3474 Cl  0  0  0  0  0  0  0  0  0  0  0  0
   -2.4569   -2.6196    0.7165 C   0  0  0  0  0  0  0  0  0  0  0  0
   -3.9876   -0.9309    1.5283 C   0  0  0  0  0  0  0  0  0  0  0  0
   -4.3769   -1.8007   -1.2473 C   0  0  0  0  0  0  0  0  0  0  0  0
   -5.4749    2.6354   -2.0830 H   0  0  0  0  0  0  0  0  0  0  0  0
   -5.1764    3.1403   -0.3966 H   0  0  0  0  0  0  0  0  0  0  0  0
   -3.8329    3.0757   -1.5542 H   0  0  0  0  0  0  0  0  0  0  0  0
   -5.1882    0.8163   -0.0546 H   0  0  0  0  0  0  0  0  0  0  0  0
   -2.3283   -1.3345   -1.4635 H   0  0  0  0  0  0  0  0  0  0  0  0
   -1.8008    0.3353    1.7238 H   0  0  0  0  0  0  0  0  0  0  0  0
    1.3578    2.6888    3.0999 H   0  0  0  0  0  0  0  0  0  0  0  0
    2.1487   -0.6133   -0.4689 H   0  0  0  0  0  0  0  0  0  0  0  0
    4.6095   -1.1480   -0.4221 H   0  0  0  0  0  0  0  0  0  0  0  0
    4.1817    0.0005   -1.6883 H   0  0  0  0  0  0  0  0  0  0  0  0
    6.4952   -0.3711   -2.0594 H   0  0  0  0  0  0  0  0  0  0  0  0
    8.1380   -0.7573   -0.1972 H   0  0  0  0  0  0  0  0  0  0  0  0
    6.7737   -0.4580    1.0180 H   0  0  0  0  0  0  0  0  0  0  0  0
    6.5962    1.9686    0.0957 H   0  0  0  0  0  0  0  0  0  0  0  0
    7.8556    1.5401   -1.1886 H   0  0  0  0  0  0  0  0  0  0  0  0
   -3.2492   -3.2149    1.2042 H   0  0  0  0  0  0  0  0  0  0  0  0
   -2.2700   -3.1009   -0.2575 H   0  0  0  0  0  0  0  0  0  0  0  0
   -1.5561   -2.7409    1.3297 H   0  0  0  0  0  0  0  0  0  0  0  0
   -3.8516   -1.5465    2.4676 H   0  0  0  0  0  0  0  0  0  0  0  0
   -4.0008    0.1135    1.9011 H   0  0  0  0  0  0  0  0  0  0  0  0
   -4.9608   -1.2411    1.1395 H   0  0  0  0  0  0  0  0  0  0  0  0
   -4.4590   -1.6972   -2.3689 H   0  0  0  0  0  0  0  0  0  0  0  0
   -5.3227   -1.4005   -0.8642 H   0  0  0  0  0  0  0  0  0  0  0  0
   -4.1749   -2.8564   -1.0366 H   0  0  0  0  0  0  0  0  0  0  0  0
  1  2  1  0
  2  3  1  0
  3  4  2  0
  3  5  1  0
  5  6  1  0
  6  7  1  0
  7  8  1  0
  8  9  2  0
  8 10  1  0
 10 11  2  0
 11 12  1  0
 12 13  2  0
 13 14  1  0
 14 15  2  0
 14 16  1  0
 16 17  1  0
 17 18  1  0
 18 19  1  0
 19 20  1  0
 13 21  1  0
  6 22  1  0
  6 23  1  0
  5 24  1  0
 15 10  1  0
 20 18  1  0
  1 25  1  0
  1 26  1  0
  1 27  1  0
  2 28  1  0
  5 29  1  6
  7 30  1  0
 12 31  1  0
 15 32  1  0
 17 33  1  0
 17 34  1  0
 18 35  1  0
 19 36  1  0
 19 37  1  0
 20 38  1  0
 20 39  1  0
 22 40  1  0
 22 41  1  0
 22 42  1  0
 23 43  1  0
 23 44  1  0
 23 45  1  0
 24 46  1  0
 24 47  1  0
 24 48  1  0
M  END
>  <Ligand ID>  (1) 
LIG0005167

>  <Ligand>  (1) 
CHEMBL3890329

>  <SMILES>  (1) 
CNC(=O)[C@@H](C(NC(=O)c1ncc(c(c1)OCC1CC1)Cl)(C)C)C

>  <CID>  (1) 
76283446.0

>  <ChEMBL ID>  (1) 
nan

>  <InChiKey>  (1) 
QXOSSLGIOAMEQB-JTQLQIEISA-N

>  <InChi>  (1) 
InChI=1S/C17H24ClN3O3/c1-10(15(22)19-4)17(2,3)21-16(23)13-7-14(12(18)8-20-13)24-9-11-5-6-11/h7-8,10-11H,5-6,9H2,1-4H3,(H,19,22)(H,21,23)/t10-/m0/s1

>  <IUPAC Name>  (1) 
5-chloro-4-(cyclopropylmethoxy)-N-[(3R)-2,3-dimethyl-4-(methylamino)-4-oxobutan-2-yl]pyridine-2-carboxamide

$$$$
