
     RDKit          3D

185191  0  0  0  0  0  0  0  0999 V2000
   -7.5797    9.4440   -5.4988 O   0  0  0  0  0  0  0  0  0  0  0  0
   -7.1685    8.5158   -4.5485 C   0  0  0  0  0  0  0  0  0  0  0  0
   -5.9728    7.9274   -4.6821 C   0  0  0  0  0  0  0  0  0  0  0  0
   -5.5428    7.0056   -3.7570 C   0  0  0  0  0  0  0  0  0  0  0  0
   -6.3734    6.7172   -2.7055 C   0  0  0  0  0  0  0  0  0  0  0  0
   -7.6318    7.3367   -2.5609 C   0  0  0  0  0  0  0  0  0  0  0  0
   -8.0679    8.2744   -3.5063 C   0  0  0  0  0  0  0  0  0  0  0  0
   -5.9117    5.7404   -1.7106 C   0  0  0  0  0  0  0  0  0  0  0  0
   -6.3477    4.3210   -2.0677 C   0  0  1  0  0  0  0  0  0  0  0  0
   -5.8108    3.3906   -1.0004 C   0  0  0  0  0  0  0  0  0  0  0  0
   -6.5732    3.0300   -0.0764 O   0  0  0  0  0  0  0  0  0  0  0  0
   -4.4603    3.0064   -1.1499 N   0  0  0  0  0  0  0  0  0  0  0  0
   -3.7786    2.1114   -0.1800 C   0  0  1  0  0  0  0  0  0  0  0  0
   -3.8915    0.7604   -0.8639 C   0  0  0  0  0  0  0  0  0  0  0  0
   -3.3286   -0.3842   -0.1921 C   0  0  0  0  0  0  0  0  0  0  0  0
   -2.0844   -0.5215   -0.2378 O   0  0  0  0  0  0  0  0  0  0  0  0
   -3.8747   -1.4495    0.5483 N   0  0  0  0  0  0  0  0  0  0  0  0
   -5.2450   -1.6440    0.8229 C   0  0  2  0  0  0  0  0  0  0  0  0
   -6.0750   -1.9356   -0.3577 C   0  0  0  0  0  0  0  0  0  0  0  0
   -5.9553   -1.5262   -1.5134 O   0  0  0  0  0  0  0  0  0  0  0  0
   -7.1872   -2.8391   -0.1407 N   0  0  0  0  0  0  0  0  0  0  0  0
   -5.8238   -0.4502    1.5738 C   0  0  0  0  0  0  0  0  0  0  0  0
   -7.2332   -0.7615    1.8643 C   0  0  0  0  0  0  0  0  0  0  0  0
   -7.5122   -1.3456    3.0773 C   0  0  0  0  0  0  0  0  0  0  0  0
   -8.8115   -1.6579    3.4165 C   0  0  0  0  0  0  0  0  0  0  0  0
   -9.7803   -1.3663    2.5117 C   0  0  0  0  0  0  0  0  0  0  0  0
   -9.5178   -0.7688    1.2641 C   0  0  0  0  0  0  0  0  0  0  0  0
   -8.2049   -0.4589    0.9327 C   0  0  0  0  0  0  0  0  0  0  0  0
  -11.1353   -1.6341    2.7340 O   0  0  0  0  0  0  0  0  0  0  0  0
   -2.9505   -2.4140    1.1369 C   0  0  2  0  0  0  0  0  0  0  0  0
   -2.0736   -1.8335    2.2372 C   0  0  0  0  0  0  0  0  0  0  0  0
   -2.1502   -3.0064    0.1119 N   0  0  0  0  0  0  0  0  0  0  0  0
   -2.4728   -3.4555   -1.1787 C   0  0  0  0  0  0  0  0  0  0  0  0
   -3.5850   -3.3153   -1.6086 O   0  0  0  0  0  0  0  0  0  0  0  0
   -1.3631   -4.1023   -1.9621 C   0  0  2  0  0  0  0  0  0  0  0  0
   -1.8255   -4.8502   -3.1548 C   0  0  0  0  0  0  0  0  0  0  0  0
   -2.8015   -5.9232   -2.9712 C   0  0  0  0  0  0  0  0  0  0  0  0
   -4.1398   -5.6258   -3.3304 C   0  0  0  0  0  0  0  0  0  0  0  0
   -5.0942   -6.5695   -3.1859 C   0  0  0  0  0  0  0  0  0  0  0  0
   -4.8927   -7.8468   -2.7040 C   0  0  0  0  0  0  0  0  0  0  0  0
   -3.5791   -8.1433   -2.3500 C   0  0  0  0  0  0  0  0  0  0  0  0
   -2.5969   -7.1845   -2.4946 C   0  0  0  0  0  0  0  0  0  0  0  0
   -0.4100   -4.7241   -1.0896 N   0  0  0  0  0  0  0  0  0  0  0  0
    0.9403   -4.3010   -0.8827 C   0  0  0  0  0  0  0  0  0  0  0  0
    1.2968   -3.3444   -1.5727 O   0  0  0  0  0  0  0  0  0  0  0  0
    1.7262   -5.0416    0.1088 C   0  0  2  0  0  0  0  0  0  0  0  0
    1.0747   -4.8082    1.5110 C   0  0  0  0  0  0  0  0  0  0  0  0
    3.0730   -4.5454    0.2815 N   0  0  0  0  0  0  0  0  0  0  0  0
    4.0180   -5.4317    0.8770 C   0  0  0  0  0  0  0  0  0  0  0  0
    3.5330   -6.5607    1.1680 O   0  0  0  0  0  0  0  0  0  0  0  0
    5.4156   -5.1993    1.1892 C   0  0  2  0  0  0  0  0  0  0  0  0
    5.4521   -4.9223    2.7056 C   0  0  0  0  0  0  0  0  0  0  0  0
    4.9458   -6.0944    3.4208 C   0  0  0  0  0  0  0  0  0  0  0  0
    4.3242   -5.9006    4.5063 O   0  0  0  0  0  0  0  0  0  0  0  0
    5.0856   -7.4464    3.0171 N   0  0  0  0  0  0  0  0  0  0  0  0
    5.8635   -3.9680    0.5146 N   0  0  0  0  0  0  0  0  0  0  0  0
    7.1979   -3.9298    0.0020 C   0  0  0  0  0  0  0  0  0  0  0  0
    7.8421   -4.9928    0.1784 O   0  0  0  0  0  0  0  0  0  0  0  0
    7.8531   -2.8280   -0.6754 C   0  0  1  0  0  0  0  0  0  0  0  0
    7.1666   -1.5419   -0.4483 N   0  0  0  0  0  0  0  0  0  0  0  0
    6.5905   -0.8932   -1.5657 C   0  0  0  0  0  0  0  0  0  0  0  0
    6.8187   -1.4677   -2.6577 O   0  0  0  0  0  0  0  0  0  0  0  0
    5.7952    0.3248   -1.6057 C   0  0  1  0  0  0  0  0  0  0  0  0
    5.3486    0.8300   -0.3301 N   0  0  0  0  0  0  0  0  0  0  0  0
    3.9561    1.2363   -0.1389 C   0  0  0  0  0  0  0  0  0  0  0  0
    3.2636    1.2033   -1.1213 O   0  0  0  0  0  0  0  0  0  0  0  0
    3.4974    1.6726    1.2506 C   0  0  2  0  0  0  0  0  0  0  0  0
    2.3965    2.5980    1.0635 N   0  0  0  0  0  0  0  0  0  0  0  0
    1.0244    2.2006    1.1099 C   0  0  0  0  0  0  0  0  0  0  0  0
    0.8765    0.9842    1.4078 O   0  0  0  0  0  0  0  0  0  0  0  0
   -0.1424    3.0082    0.8577 C   0  0  1  0  0  0  0  0  0  0  0  0
   -1.4237    2.2661    0.8786 N   0  0  0  0  0  0  0  0  0  0  0  0
   -2.4238    2.6652   -0.0461 C   0  0  0  0  0  0  0  0  0  0  0  0
   -2.1070    3.5918   -0.8201 O   0  0  0  0  0  0  0  0  0  0  0  0
   -0.3801    4.1160    1.8504 C   0  0  0  0  0  0  0  0  0  0  0  0
    0.6235    5.1606    1.9635 C   0  0  0  0  0  0  0  0  0  0  0  0
    0.6101    6.3045    1.1445 C   0  0  0  0  0  0  0  0  0  0  0  0
    1.6258    7.1011    1.4342 N   0  0  0  0  0  0  0  0  0  0  0  0
    2.3053    6.5007    2.4315 C   0  0  0  0  0  0  0  0  0  0  0  0
    1.6964    5.3390    2.7405 N   0  0  0  0  0  0  0  0  0  0  0  0
    4.5618    2.1233    2.1397 C   0  0  0  0  0  0  0  0  0  0  0  0
    4.2169    2.5460    3.5021 C   0  0  0  0  0  0  0  0  0  0  0  0
    3.9980    1.4858    4.4155 C   0  0  0  0  0  0  0  0  0  0  0  0
    3.7231    1.7569    5.7362 C   0  0  0  0  0  0  0  0  0  0  0  0
    3.6555    3.0808    6.1964 C   0  0  0  0  0  0  0  0  0  0  0  0
    3.8755    4.0404    5.2619 C   0  0  0  0  0  0  0  0  0  0  0  0
    4.1534    3.8520    3.9363 C   0  0  0  0  0  0  0  0  0  0  0  0
    6.5214    1.3701   -2.4499 C   0  0  0  0  0  0  0  0  0  0  0  0
    5.7125    2.6350   -2.5313 C   0  0  0  0  0  0  0  0  0  0  0  0
    6.4467    3.6384   -3.3809 C   0  0  0  0  0  0  0  0  0  0  0  0
    7.7187    3.9465   -2.7994 N   0  0  0  0  0  0  0  0  0  0  0  0
    8.8018    3.9342   -3.4936 C   0  0  0  0  0  0  0  0  0  0  0  0
    8.8828    3.6264   -4.8736 N   0  0  0  0  0  0  0  0  0  0  0  0
   10.0241    4.2862   -2.8245 N   0  0  0  0  0  0  0  0  0  0  0  0
    7.3079   -1.2562    0.9281 C   0  0  0  0  0  0  0  0  0  0  0  0
    8.4281   -2.1522    1.4610 C   0  0  0  0  0  0  0  0  0  0  0  0
    9.1327   -2.5371    0.1518 C   0  0  0  0  0  0  0  0  0  0  0  0
   -3.6592   -3.5615    1.7967 C   0  0  0  0  0  0  0  0  0  0  0  0
   -3.6304   -4.6728    1.1869 O   0  0  0  0  0  0  0  0  0  0  0  0
   -4.3158   -3.4561    3.0059 O   0  0  0  0  0  0  0  0  0  0  0  0
   -7.8108    4.3261   -1.9612 N   0  0  0  0  0  0  0  0  0  0  0  0
   -8.1141    9.0799   -6.2789 H   0  0  0  0  0  0  0  0  0  0  0  0
   -5.2866    8.1451   -5.5109 H   0  0  0  0  0  0  0  0  0  0  0  0
   -4.5874    6.5457   -3.8654 H   0  0  0  0  0  0  0  0  0  0  0  0
   -8.2820    7.0831   -1.7090 H   0  0  0  0  0  0  0  0  0  0  0  0
   -9.0131    8.7577   -3.4194 H   0  0  0  0  0  0  0  0  0  0  0  0
   -4.8024    5.7575   -1.6733 H   0  0  0  0  0  0  0  0  0  0  0  0
   -6.3549    5.9396   -0.6929 H   0  0  0  0  0  0  0  0  0  0  0  0
   -6.0838    4.0338   -3.0786 H   0  0  0  0  0  0  0  0  0  0  0  0
   -3.8873    3.3505   -1.9790 H   0  0  0  0  0  0  0  0  0  0  0  0
   -4.3477    2.1021    0.7443 H   0  0  0  0  0  0  0  0  0  0  0  0
   -3.3449    0.9255   -1.8791 H   0  0  0  0  0  0  0  0  0  0  0  0
   -4.9406    0.7003   -1.2010 H   0  0  0  0  0  0  0  0  0  0  0  0
   -5.4108   -2.5253    1.4955 H   0  0  0  0  0  0  0  0  0  0  0  0
   -7.7732   -3.1792   -0.9278 H   0  0  0  0  0  0  0  0  0  0  0  0
   -7.4351   -3.1919    0.8079 H   0  0  0  0  0  0  0  0  0  0  0  0
   -5.8476    0.4589    0.9444 H   0  0  0  0  0  0  0  0  0  0  0  0
   -5.2834   -0.3372    2.5205 H   0  0  0  0  0  0  0  0  0  0  0  0
   -6.7438   -1.5721    3.7862 H   0  0  0  0  0  0  0  0  0  0  0  0
   -9.0368   -2.1137    4.3603 H   0  0  0  0  0  0  0  0  0  0  0  0
  -10.3277   -0.5499    0.5699 H   0  0  0  0  0  0  0  0  0  0  0  0
   -7.9336   -0.0100    0.0105 H   0  0  0  0  0  0  0  0  0  0  0  0
  -11.6917   -1.0057    3.3117 H   0  0  0  0  0  0  0  0  0  0  0  0
   -1.6486   -2.6969    2.7997 H   0  0  0  0  0  0  0  0  0  0  0  0
   -2.7498   -1.3031    2.9326 H   0  0  0  0  0  0  0  0  0  0  0  0
   -1.3114   -1.1221    1.8688 H   0  0  0  0  0  0  0  0  0  0  0  0
   -1.1228   -3.1139    0.3473 H   0  0  0  0  0  0  0  0  0  0  0  0
   -0.8547   -3.1575   -2.4204 H   0  0  0  0  0  0  0  0  0  0  0  0
   -2.2436   -4.1042   -3.9133 H   0  0  0  0  0  0  0  0  0  0  0  0
   -0.9550   -5.2846   -3.7244 H   0  0  0  0  0  0  0  0  0  0  0  0
   -4.4132   -4.6605   -3.7379 H   0  0  0  0  0  0  0  0  0  0  0  0
   -6.1216   -6.3070   -3.4870 H   0  0  0  0  0  0  0  0  0  0  0  0
   -5.6920   -8.5353   -2.6183 H   0  0  0  0  0  0  0  0  0  0  0  0
   -3.3126   -9.1299   -1.9655 H   0  0  0  0  0  0  0  0  0  0  0  0
   -1.5893   -7.4504   -2.2071 H   0  0  0  0  0  0  0  0  0  0  0  0
   -0.7030   -5.5524   -0.5630 H   0  0  0  0  0  0  0  0  0  0  0  0
    1.7846   -6.1366   -0.0191 H   0  0  0  0  0  0  0  0  0  0  0  0
    1.3371   -3.7980    1.8317 H   0  0  0  0  0  0  0  0  0  0  0  0
    0.0120   -5.0558    1.4687 H   0  0  0  0  0  0  0  0  0  0  0  0
    1.5671   -5.5248    2.1811 H   0  0  0  0  0  0  0  0  0  0  0  0
    3.4230   -3.6285    0.0173 H   0  0  0  0  0  0  0  0  0  0  0  0
    6.0826   -6.0483    1.0142 H   0  0  0  0  0  0  0  0  0  0  0  0
    4.7492   -4.0662    2.9171 H   0  0  0  0  0  0  0  0  0  0  0  0
    6.4415   -4.5980    3.0415 H   0  0  0  0  0  0  0  0  0  0  0  0
    5.8962   -7.7583    2.4479 H   0  0  0  0  0  0  0  0  0  0  0  0
    4.3589   -8.1707    3.2921 H   0  0  0  0  0  0  0  0  0  0  0  0
    5.3123   -3.1368    0.3856 H   0  0  0  0  0  0  0  0  0  0  0  0
    8.0963   -3.0272   -1.7031 H   0  0  0  0  0  0  0  0  0  0  0  0
    4.8483    0.1369   -2.1967 H   0  0  0  0  0  0  0  0  0  0  0  0
    5.9163    0.9583    0.4873 H   0  0  0  0  0  0  0  0  0  0  0  0
    3.0767    0.6896    1.6465 H   0  0  0  0  0  0  0  0  0  0  0  0
    2.5564    3.5815    0.8696 H   0  0  0  0  0  0  0  0  0  0  0  0
   -0.0596    3.4986   -0.1816 H   0  0  0  0  0  0  0  0  0  0  0  0
   -1.6440    1.5053    1.4992 H   0  0  0  0  0  0  0  0  0  0  0  0
   -1.3799    4.5869    1.6518 H   0  0  0  0  0  0  0  0  0  0  0  0
   -0.5297    3.6402    2.8658 H   0  0  0  0  0  0  0  0  0  0  0  0
   -0.1276    6.5135    0.3700 H   0  0  0  0  0  0  0  0  0  0  0  0
    1.8748    8.0015    1.0027 H   0  0  0  0  0  0  0  0  0  0  0  0
    3.2032    6.8253    2.9586 H   0  0  0  0  0  0  0  0  0  0  0  0
    5.2927    1.2437    2.2813 H   0  0  0  0  0  0  0  0  0  0  0  0
    5.2456    2.8980    1.6922 H   0  0  0  0  0  0  0  0  0  0  0  0
    4.0473    0.4586    4.0641 H   0  0  0  0  0  0  0  0  0  0  0  0
    3.5609    0.9129    6.3992 H   0  0  0  0  0  0  0  0  0  0  0  0
    3.4351    3.2388    7.2372 H   0  0  0  0  0  0  0  0  0  0  0  0
    3.8264    5.0818    5.5984 H   0  0  0  0  0  0  0  0  0  0  0  0
    4.3275    4.6167    3.2069 H   0  0  0  0  0  0  0  0  0  0  0  0
    7.5473    1.5387   -2.0844 H   0  0  0  0  0  0  0  0  0  0  0  0
    6.5973    0.9463   -3.4672 H   0  0  0  0  0  0  0  0  0  0  0  0
    4.7343    2.3629   -3.0100 H   0  0  0  0  0  0  0  0  0  0  0  0
    5.5641    3.0189   -1.4831 H   0  0  0  0  0  0  0  0  0  0  0  0
    5.8283    4.5513   -3.5653 H   0  0  0  0  0  0  0  0  0  0  0  0
    6.6275    3.1275   -4.3726 H   0  0  0  0  0  0  0  0  0  0  0  0
    8.2075    3.9690   -5.5943 H   0  0  0  0  0  0  0  0  0  0  0  0
    9.6880    3.0074   -5.1635 H   0  0  0  0  0  0  0  0  0  0  0  0
   10.0243    5.2516   -2.4108 H   0  0  0  0  0  0  0  0  0  0  0  0
   10.7775    3.6056   -2.7983 H   0  0  0  0  0  0  0  0  0  0  0  0
    6.3881   -1.3521    1.5062 H   0  0  0  0  0  0  0  0  0  0  0  0
    7.7020   -0.2217    1.1375 H   0  0  0  0  0  0  0  0  0  0  0  0
    9.1541   -1.6059    2.0822 H   0  0  0  0  0  0  0  0  0  0  0  0
    8.0824   -3.0317    1.9950 H   0  0  0  0  0  0  0  0  0  0  0  0
    9.7511   -3.4214    0.2746 H   0  0  0  0  0  0  0  0  0  0  0  0
    9.6209   -1.6552   -0.2925 H   0  0  0  0  0  0  0  0  0  0  0  0
   -4.9026   -4.2101    3.3351 H   0  0  0  0  0  0  0  0  0  0  0  0
   -8.1982    4.6108   -2.8941 H   0  0  0  0  0  0  0  0  0  0  0  0
   -8.1685    3.3509   -1.7743 H   0  0  0  0  0  0  0  0  0  0  0  0
  1  2  1  0
  2  3  2  0
  3  4  1  0
  4  5  2  0
  5  6  1  0
  6  7  2  0
  5  8  1  0
  8  9  1  0
  9 10  1  0
 10 11  2  0
 10 12  1  0
 12 13  1  0
 13 14  1  0
 14 15  1  0
 15 16  2  0
 15 17  1  0
 17 18  1  0
 18 19  1  0
 19 20  2  0
 19 21  1  0
 18 22  1  0
 22 23  1  0
 23 24  2  0
 24 25  1  0
 25 26  2  0
 26 27  1  0
 27 28  2  0
 26 29  1  0
 17 30  1  0
 30 31  1  1
 30 32  1  0
 32 33  1  0
 33 34  2  0
 33 35  1  0
 35 36  1  0
 36 37  1  0
 37 38  2  0
 38 39  1  0
 39 40  2  0
 40 41  1  0
 41 42  2  0
 35 43  1  0
 43 44  1  0
 44 45  2  0
 44 46  1  0
 46 47  1  0
 46 48  1  0
 48 49  1  0
 49 50  2  0
 49 51  1  0
 51 52  1  0
 52 53  1  0
 53 54  2  0
 53 55  1  0
 51 56  1  0
 56 57  1  0
 57 58  2  0
 57 59  1  0
 59 60  1  0
 60 61  1  0
 61 62  2  0
 61 63  1  0
 63 64  1  0
 64 65  1  0
 65 66  2  0
 65 67  1  0
 67 68  1  0
 68 69  1  0
 69 70  2  0
 69 71  1  0
 71 72  1  0
 72 73  1  0
 73 74  2  0
 71 75  1  0
 75 76  1  0
 76 77  2  0
 77 78  1  0
 78 79  1  0
 79 80  2  0
 67 81  1  0
 81 82  1  0
 82 83  2  0
 83 84  1  0
 84 85  2  0
 85 86  1  0
 86 87  2  0
 63 88  1  0
 88 89  1  0
 89 90  1  0
 90 91  1  0
 91 92  2  3
 92 93  1  0
 92 94  1  0
 60 95  1  0
 95 96  1  0
 96 97  1  0
 30 98  1  0
 98 99  2  0
 98100  1  0
  9101  1  0
  7  2  1  0
 73 13  1  0
 80 76  1  0
 87 82  1  0
 28 23  1  0
 42 37  1  0
 97 59  1  0
  1102  1  0
  3103  1  0
  4104  1  0
  6105  1  0
  7106  1  0
  8107  1  0
  8108  1  0
  9109  1  6
 12110  1  0
 13111  1  1
 14112  1  0
 14113  1  0
 18114  1  1
 21115  1  0
 21116  1  0
 22117  1  0
 22118  1  0
 24119  1  0
 25120  1  0
 27121  1  0
 28122  1  0
 29123  1  0
 31124  1  0
 31125  1  0
 31126  1  0
 32127  1  0
 35128  1  6
 36129  1  0
 36130  1  0
 38131  1  0
 39132  1  0
 40133  1  0
 41134  1  0
 42135  1  0
 43136  1  0
 46137  1  6
 47138  1  0
 47139  1  0
 47140  1  0
 48141  1  0
 51142  1  1
 52143  1  0
 52144  1  0
 55145  1  0
 55146  1  0
 56147  1  0
 59148  1  6
 63149  1  6
 64150  1  0
 67151  1  1
 68152  1  0
 71153  1  6
 72154  1  0
 75155  1  0
 75156  1  0
 77157  1  0
 78158  1  0
 79159  1  0
 81160  1  0
 81161  1  0
 83162  1  0
 84163  1  0
 85164  1  0
 86165  1  0
 87166  1  0
 88167  1  0
 88168  1  0
 89169  1  0
 89170  1  0
 90171  1  0
 90172  1  0
 93173  1  0
 93174  1  0
 94175  1  0
 94176  1  0
 95177  1  0
 95178  1  0
 96179  1  0
 96180  1  0
 97181  1  0
 97182  1  0
100183  1  0
101184  1  0
101185  1  0
M  END
>  <Ligand ID>  (1) 
LIG0001132

>  <Ligand>  (1) 
CHEMBL2369962

>  <SMILES>  (1) 
Oc1ccc(cc1)C[C@@H](C(=O)N[C@H]1CC(=O)N([C@H](C(=O)N)Cc2ccc(cc2)O)[C@](C)(NC(=O)[C@H](Cc2ccccc2)NC(=O)[C@H](C)NC(=O)[C@H](CC(=O)N)NC(=O)[C@H]2N(C(=O)[C@@H](NC(=O)[C@H](NC(=O)[C@@H](NC1=O)Cc1c[nH]cn1)Cc1ccccc1)CCCN=C(N)N)CCC2)C(=O)O)N

>  <CID>  (1) 
73346954.0

>  <ChEMBL ID>  (1) 
nan

>  <InChiKey>  (1) 
DFSDYEQMHZIDQN-WYGFDSBJSA-N

>  <InChi>  (1) 
InChI=1S/C67H84N18O16/c1-36-56(91)78-47(29-38-13-7-4-8-14-38)62(97)83-67(2,65(100)101)85(52(55(70)90)30-40-19-23-43(87)24-20-40)54(89)33-50(79-57(92)44(68)27-39-17-21-42(86)22-18-39)61(96)81-48(31-41-34-73-35-75-41)60(95)80-46(28-37-11-5-3-6-12-37)59(94)77-45(15-9-25-74-66(71)72)64(99)84-26-10-16-51(84)63(98)82-49(32-53(69)88)58(93)76-36/h3-8,11-14,17-24,34-36,44-52,86-87H,9-10,15-16,25-33,68H2,1-2H3,(H2,69,88)(H2,70,90)(H,73,75)(H,76,93)(H,77,94)(H,78,91)(H,79,92)(H,80,95)(H,81,96)(H,82,98)(H,83,97)(H,100,101)(H4,71,72,74)/t36-,44-,45-,46+,47-,48-,49-,50-,51-,52-,67-/m0/s1

>  <IUPAC Name>  (1) 
(3S,6R,9S,12S,16S,19S,22S,25S,28S)-15-[(2S)-1-amino-3-(4-hydroxyphenyl)-1-oxopropan-2-yl]-12-[[(2S)-2-amino-3-(4-hydroxyphenyl)propanoyl]amino]-25-(2-amino-2-oxoethyl)-6,19-dibenzyl-3-[3-(diaminomethylideneamino)propyl]-9-(1H-imidazol-4-ylmethyl)-16,22-dimethyl-2,5,8,11,14,18,21,24,27-nonaoxo-1,4,7,10,15,17,20,23,26-nonazabicyclo[26.3.0]hentriacontane-16-carboxylic acid

$$$$
