
     RDKit          3D

130132  0  0  0  0  0  0  0  0999 V2000
   10.5144   -2.0161    1.1374 N   0  0  0  0  0  0  0  0  0  0  0  0
    9.3065   -2.5263    0.5356 C   0  0  0  0  0  0  0  0  0  0  0  0
    8.0993   -1.7283    0.8542 C   0  0  0  0  0  0  0  0  0  0  0  0
    8.1972   -0.3167    0.4038 C   0  0  1  0  0  0  0  0  0  0  0  0
    8.3785   -0.0907   -1.0366 C   0  0  0  0  0  0  0  0  0  0  0  0
    7.4050    0.4366   -1.6802 O   0  0  0  0  0  0  0  0  0  0  0  0
    9.5278   -0.3933   -1.7958 N   0  0  0  0  0  0  0  0  0  0  0  0
    9.5769   -0.1203   -3.2158 C   0  0  0  0  0  0  0  0  0  0  0  0
    9.3989    1.3482   -3.4798 C   0  0  0  0  0  0  0  0  0  0  0  0
    9.4059    1.8051   -4.6493 O   0  0  0  0  0  0  0  0  0  0  0  0
    9.2172    2.2574   -2.3775 N   0  0  0  0  0  0  0  0  0  0  0  0
    6.9331    0.3331    0.8260 N   0  0  0  0  0  0  0  0  0  0  0  0
    6.9510    1.5490    1.5387 C   0  0  0  0  0  0  0  0  0  0  0  0
    8.1099    2.0531    1.7766 O   0  0  0  0  0  0  0  0  0  0  0  0
    5.8069    2.3028    2.0391 C   0  0  2  0  0  0  0  0  0  0  0  0
    5.8631    2.3906    3.5865 C   0  0  0  0  0  0  0  0  0  0  0  0
    5.5803    0.9237    3.8892 C   0  0  0  0  0  0  0  0  0  0  0  0
    4.3945    0.5984    2.9655 C   0  0  0  0  0  0  0  0  0  0  0  0
    4.5162    1.5892    1.9134 N   0  0  0  0  0  0  0  0  0  0  0  0
    3.6115    1.9295    0.8707 C   0  0  0  0  0  0  0  0  0  0  0  0
    3.9893    2.9057    0.0877 O   0  0  0  0  0  0  0  0  0  0  0  0
    2.3238    1.3653    0.5357 C   0  0  2  0  0  0  0  0  0  0  0  0
    1.2031    2.4343    0.7536 C   0  0  0  0  0  0  0  0  0  0  0  0
    1.6177    3.7618   -0.3818 S   0  0  0  0  0  0  0  0  0  0  0  0
   -0.0721    5.0874   -0.4095 S   0  0  0  0  0  0  0  0  0  0  0  0
   -1.1269    4.4823   -1.7526 C   0  0  0  0  0  0  0  0  0  0  0  0
   -1.6837    3.1179   -1.5283 C   0  0  2  0  0  0  0  0  0  0  0  0
   -2.5300    2.7734   -2.6688 N   0  0  0  0  0  0  0  0  0  0  0  0
   -2.5129    3.1211   -0.3046 C   0  0  0  0  0  0  0  0  0  0  0  0
   -2.0786    3.4527    0.8026 O   0  0  0  0  0  0  0  0  0  0  0  0
   -3.9112    2.7314   -0.3044 N   0  0  0  0  0  0  0  0  0  0  0  0
   -4.6531    2.7799    0.9301 C   0  0  1  0  0  0  0  0  0  0  0  0
   -5.7028    3.8749    0.7959 C   0  0  0  0  0  0  0  0  0  0  0  0
   -6.6458    3.6517   -0.3053 C   0  0  0  0  0  0  0  0  0  0  0  0
   -6.4266    4.1294   -1.6024 C   0  0  0  0  0  0  0  0  0  0  0  0
   -7.3481    3.8945   -2.6191 C   0  0  0  0  0  0  0  0  0  0  0  0
   -8.5068    3.1873   -2.3949 C   0  0  0  0  0  0  0  0  0  0  0  0
   -8.7334    2.7108   -1.1170 C   0  0  0  0  0  0  0  0  0  0  0  0
   -7.8254    2.9335   -0.0837 C   0  0  0  0  0  0  0  0  0  0  0  0
   -5.3301    1.5440    1.3304 C   0  0  0  0  0  0  0  0  0  0  0  0
   -5.9706    1.5349    2.3925 O   0  0  0  0  0  0  0  0  0  0  0  0
   -5.3323    0.3052    0.6030 N   0  0  0  0  0  0  0  0  0  0  0  0
   -6.0585   -0.8026    1.1737 C   0  0  2  0  0  0  0  0  0  0  0  0
   -5.2000   -1.9896    1.2283 C   0  0  0  0  0  0  0  0  0  0  0  0
   -5.6164   -2.9747    1.8735 O   0  0  0  0  0  0  0  0  0  0  0  0
   -3.9227   -2.1612    0.6155 N   0  0  0  0  0  0  0  0  0  0  0  0
   -3.2338   -3.4061    0.8851 C   0  0  2  0  0  0  0  0  0  0  0  0
   -1.7983   -3.1891    1.0265 C   0  0  0  0  0  0  0  0  0  0  0  0
   -1.1093   -4.0800    1.5686 O   0  0  0  0  0  0  0  0  0  0  0  0
   -1.0559   -2.0538    0.5996 N   0  0  0  0  0  0  0  0  0  0  0  0
    0.3993   -1.9364    0.9045 C   0  0  2  0  0  0  0  0  0  0  0  0
    0.8613   -0.6083    0.5112 C   0  0  0  0  0  0  0  0  0  0  0  0
    0.3116   -0.0268   -0.4316 O   0  0  0  0  0  0  0  0  0  0  0  0
    1.9300    0.1373    1.1477 N   0  0  0  0  0  0  0  0  0  0  0  0
    1.0283   -2.9679   -0.1152 C   0  0  0  0  0  0  0  0  0  0  0  0
    2.4633   -3.0649   -0.0188 C   0  0  0  0  0  0  0  0  0  0  0  0
    3.2247   -2.4769    0.7868 O   0  0  0  0  0  0  0  0  0  0  0  0
    3.1374   -3.9404   -0.9541 N   0  0  0  0  0  0  0  0  0  0  0  0
   -3.5594   -4.4392   -0.1908 C   0  0  0  0  0  0  0  0  0  0  0  0
   -3.1810   -4.0337   -1.5414 C   0  0  0  0  0  0  0  0  0  0  0  0
   -2.6133   -2.9603   -1.8571 O   0  0  0  0  0  0  0  0  0  0  0  0
   -3.4845   -4.9442   -2.6136 N   0  0  0  0  0  0  0  0  0  0  0  0
   -3.1562   -4.6415   -3.9949 C   0  0  0  0  0  0  0  0  0  0  0  0
   -7.3429   -1.0656    0.3972 C   0  0  2  0  0  0  0  0  0  0  0  0
   -8.1397   -2.2034    0.9405 C   0  0  0  0  0  0  0  0  0  0  0  0
   -8.5822   -2.0504    2.3492 C   0  0  0  0  0  0  0  0  0  0  0  0
   -7.0375   -1.2822   -1.0656 C   0  0  0  0  0  0  0  0  0  0  0  0
   10.5696   -0.9762    1.1593 H   0  0  0  0  0  0  0  0  0  0  0  0
   10.6376   -2.3364    2.1250 H   0  0  0  0  0  0  0  0  0  0  0  0
    9.2142   -3.5845    0.9771 H   0  0  0  0  0  0  0  0  0  0  0  0
    9.3728   -2.7205   -0.5437 H   0  0  0  0  0  0  0  0  0  0  0  0
    8.0327   -1.6936    1.9856 H   0  0  0  0  0  0  0  0  0  0  0  0
    7.1480   -2.2220    0.5568 H   0  0  0  0  0  0  0  0  0  0  0  0
    8.9942    0.2566    0.9154 H   0  0  0  0  0  0  0  0  0  0  0  0
   10.3620   -0.8033   -1.3319 H   0  0  0  0  0  0  0  0  0  0  0  0
    8.8464   -0.7044   -3.8112 H   0  0  0  0  0  0  0  0  0  0  0  0
   10.5788   -0.3891   -3.5914 H   0  0  0  0  0  0  0  0  0  0  0  0
    9.8333    2.1241   -1.5384 H   0  0  0  0  0  0  0  0  0  0  0  0
    8.5018    3.0066   -2.4271 H   0  0  0  0  0  0  0  0  0  0  0  0
    6.0074   -0.0855    0.6114 H   0  0  0  0  0  0  0  0  0  0  0  0
    5.7709    3.3033    1.6168 H   0  0  0  0  0  0  0  0  0  0  0  0
    6.8217    2.7483    3.9455 H   0  0  0  0  0  0  0  0  0  0  0  0
    4.9876    2.9844    3.9063 H   0  0  0  0  0  0  0  0  0  0  0  0
    5.2119    0.7926    4.9207 H   0  0  0  0  0  0  0  0  0  0  0  0
    6.4526    0.2960    3.6798 H   0  0  0  0  0  0  0  0  0  0  0  0
    3.4515    0.7485    3.5526 H   0  0  0  0  0  0  0  0  0  0  0  0
    4.5522   -0.4298    2.6086 H   0  0  0  0  0  0  0  0  0  0  0  0
    2.2397    1.1966   -0.5757 H   0  0  0  0  0  0  0  0  0  0  0  0
    0.2219    1.9746    0.6110 H   0  0  0  0  0  0  0  0  0  0  0  0
    1.3691    2.7871    1.8081 H   0  0  0  0  0  0  0  0  0  0  0  0
   -2.0070    5.1917   -1.7850 H   0  0  0  0  0  0  0  0  0  0  0  0
   -0.6620    4.5742   -2.7546 H   0  0  0  0  0  0  0  0  0  0  0  0
   -0.8915    2.3316   -1.4771 H   0  0  0  0  0  0  0  0  0  0  0  0
   -2.9099    1.8117   -2.6156 H   0  0  0  0  0  0  0  0  0  0  0  0
   -3.2762    3.5071   -2.7995 H   0  0  0  0  0  0  0  0  0  0  0  0
   -4.2532    2.4457   -1.2185 H   0  0  0  0  0  0  0  0  0  0  0  0
   -4.0071    3.1265    1.7793 H   0  0  0  0  0  0  0  0  0  0  0  0
   -5.1228    4.8260    0.6798 H   0  0  0  0  0  0  0  0  0  0  0  0
   -6.2023    3.9388    1.7788 H   0  0  0  0  0  0  0  0  0  0  0  0
   -5.5231    4.6892   -1.8081 H   0  0  0  0  0  0  0  0  0  0  0  0
   -7.1888    4.2602   -3.6251 H   0  0  0  0  0  0  0  0  0  0  0  0
   -9.2115    3.0116   -3.1878 H   0  0  0  0  0  0  0  0  0  0  0  0
   -9.6340    2.1455   -0.8818 H   0  0  0  0  0  0  0  0  0  0  0  0
   -8.0641    2.5340    0.8878 H   0  0  0  0  0  0  0  0  0  0  0  0
   -4.8113    0.3226   -0.2659 H   0  0  0  0  0  0  0  0  0  0  0  0
   -6.4487   -0.5348    2.2092 H   0  0  0  0  0  0  0  0  0  0  0  0
   -3.6077   -1.3912    0.0380 H   0  0  0  0  0  0  0  0  0  0  0  0
   -3.6478   -3.8454    1.8290 H   0  0  0  0  0  0  0  0  0  0  0  0
   -1.5728   -1.3484    0.0899 H   0  0  0  0  0  0  0  0  0  0  0  0
    0.6921   -2.3408    1.8437 H   0  0  0  0  0  0  0  0  0  0  0  0
    2.2712   -0.3117    1.9867 H   0  0  0  0  0  0  0  0  0  0  0  0
    0.4958   -3.9141   -0.0720 H   0  0  0  0  0  0  0  0  0  0  0  0
    0.7762   -2.4959   -1.1080 H   0  0  0  0  0  0  0  0  0  0  0  0
    2.8125   -4.9264   -1.0361 H   0  0  0  0  0  0  0  0  0  0  0  0
    3.9216   -3.5259   -1.5025 H   0  0  0  0  0  0  0  0  0  0  0  0
   -3.0355   -5.3857    0.1317 H   0  0  0  0  0  0  0  0  0  0  0  0
   -4.6323   -4.6621   -0.1294 H   0  0  0  0  0  0  0  0  0  0  0  0
   -3.9639   -5.8648   -2.3756 H   0  0  0  0  0  0  0  0  0  0  0  0
   -2.0794   -4.7356   -4.1853 H   0  0  0  0  0  0  0  0  0  0  0  0
   -3.7679   -5.3144   -4.6414 H   0  0  0  0  0  0  0  0  0  0  0  0
   -3.5662   -3.6202   -4.2007 H   0  0  0  0  0  0  0  0  0  0  0  0
   -7.9221   -0.1156    0.4574 H   0  0  0  0  0  0  0  0  0  0  0  0
   -9.0694   -2.2542    0.2980 H   0  0  0  0  0  0  0  0  0  0  0  0
   -7.6416   -3.1794    0.7538 H   0  0  0  0  0  0  0  0  0  0  0  0
   -8.2919   -1.1055    2.8498 H   0  0  0  0  0  0  0  0  0  0  0  0
   -8.2078   -2.9443    2.9225 H   0  0  0  0  0  0  0  0  0  0  0  0
   -9.6840   -2.1035    2.4498 H   0  0  0  0  0  0  0  0  0  0  0  0
   -7.9922   -1.1920   -1.6422 H   0  0  0  0  0  0  0  0  0  0  0  0
   -6.3770   -0.5069   -1.4817 H   0  0  0  0  0  0  0  0  0  0  0  0
   -6.6764   -2.3132   -1.2662 H   0  0  0  0  0  0  0  0  0  0  0  0
  1  2  1  0
  2  3  1  0
  3  4  1  0
  4  5  1  0
  5  6  2  0
  5  7  1  0
  7  8  1  0
  8  9  1  0
  9 10  2  0
  9 11  1  0
  4 12  1  0
 12 13  1  0
 13 14  2  0
 13 15  1  0
 15 16  1  0
 16 17  1  0
 17 18  1  0
 18 19  1  0
 19 20  1  0
 20 21  2  0
 20 22  1  0
 22 23  1  0
 23 24  1  0
 24 25  1  0
 25 26  1  0
 26 27  1  0
 27 28  1  0
 27 29  1  0
 29 30  2  0
 29 31  1  0
 31 32  1  0
 32 33  1  0
 33 34  1  0
 34 35  2  0
 35 36  1  0
 36 37  2  0
 37 38  1  0
 38 39  2  0
 32 40  1  0
 40 41  2  0
 40 42  1  0
 42 43  1  0
 43 44  1  0
 44 45  2  0
 44 46  1  0
 46 47  1  0
 47 48  1  0
 48 49  2  0
 48 50  1  0
 50 51  1  0
 51 52  1  0
 52 53  2  0
 52 54  1  0
 51 55  1  0
 55 56  1  0
 56 57  2  0
 56 58  1  0
 47 59  1  0
 59 60  1  0
 60 61  2  0
 60 62  1  0
 62 63  1  0
 43 64  1  0
 64 65  1  0
 65 66  1  0
 64 67  1  0
 19 15  1  0
 54 22  1  0
 39 34  1  0
  1 68  1  0
  1 69  1  0
  2 70  1  0
  2 71  1  0
  3 72  1  0
  3 73  1  0
  4 74  1  1
  7 75  1  0
  8 76  1  0
  8 77  1  0
 11 78  1  0
 11 79  1  0
 12 80  1  0
 15 81  1  6
 16 82  1  0
 16 83  1  0
 17 84  1  0
 17 85  1  0
 18 86  1  0
 18 87  1  0
 22 88  1  6
 23 89  1  0
 23 90  1  0
 26 91  1  0
 26 92  1  0
 27 93  1  1
 28 94  1  0
 28 95  1  0
 31 96  1  0
 32 97  1  1
 33 98  1  0
 33 99  1  0
 35100  1  0
 36101  1  0
 37102  1  0
 38103  1  0
 39104  1  0
 42105  1  0
 43106  1  1
 46107  1  0
 47108  1  1
 50109  1  0
 51110  1  1
 54111  1  0
 55112  1  0
 55113  1  0
 58114  1  0
 58115  1  0
 59116  1  0
 59117  1  0
 62118  1  0
 63119  1  0
 63120  1  0
 63121  1  0
 64122  1  6
 65123  1  0
 65124  1  0
 66125  1  0
 66126  1  0
 66127  1  0
 67128  1  0
 67129  1  0
 67130  1  0
M  END
>  <Ligand ID>  (1) 
LIG0001602

>  <Ligand>  (1) 
CHEMBL1817750

>  <SMILES>  (1) 
NCC[C@@H](C(=O)NCC(=O)N)NC(=O)[C@@H]1CCCN1C(=O)[C@@H]1CSSC[C@H](N)C(=O)N[C@@H](Cc2ccccc2)C(=O)N[C@H](C(=O)N[C@H](C(=O)N[C@H](C(=O)N1)CC(=O)N)CC(=O)NC)[C@H](CC)C

>  <CID>  (1) 
53362547.0

>  <ChEMBL ID>  (1) 
nan

>  <InChiKey>  (1) 
MLQGJWKVPTWZAE-VIZGXHJBSA-N

>  <InChi>  (1) 
InChI=1S/C41H63N13O11S2/c1-4-21(2)33-40(64)51-27(17-32(57)46-3)37(61)50-26(16-30(44)55)36(60)52-28(20-67-66-19-23(43)34(58)49-25(38(62)53-33)15-22-9-6-5-7-10-22)41(65)54-14-8-11-29(54)39(63)48-24(12-13-42)35(59)47-18-31(45)56/h5-7,9-10,21,23-29,33H,4,8,11-20,42-43H2,1-3H3,(H2,44,55)(H2,45,56)(H,46,57)(H,47,59)(H,48,63)(H,49,58)(H,50,61)(H,51,64)(H,52,60)(H,53,62)/t21-,23-,24-,25-,26-,27-,28-,29-,33-/m0/s1

>  <IUPAC Name>  (1) 
(2S)-N-[(2S)-4-amino-1-[(2-amino-2-oxoethyl)amino]-1-oxobutan-2-yl]-1-[(4R,7S,10S,13S,16S,19R)-19-amino-7-(2-amino-2-oxoethyl)-16-benzyl-13-[(2S)-butan-2-yl]-10-[2-(methylamino)-2-oxoethyl]-6,9,12,15,18-pentaoxo-1,2-dithia-5,8,11,14,17-pentazacycloicosane-4-carbonyl]pyrrolidine-2-carboxamide

$$$$
