
     RDKit          3D

120122  0  0  0  0  0  0  0  0999 V2000
    3.1172    0.3534   -3.1292 C   0  0  0  0  0  0  0  0  0  0  0  0
    2.3521    1.9379   -3.0064 S   0  0  0  0  0  0  0  0  0  0  0  0
    2.2440    2.7352   -1.4320 C   0  0  0  0  0  0  0  0  0  0  0  0
    1.3413    2.1812   -0.4069 C   0  0  0  0  0  0  0  0  0  0  0  0
    1.5485    0.8259    0.1335 C   0  0  1  0  0  0  0  0  0  0  0  0
    2.8120    0.5835    0.8357 C   0  0  0  0  0  0  0  0  0  0  0  0
    2.6775    0.3183    2.0923 O   0  0  0  0  0  0  0  0  0  0  0  0
    4.1223    0.5954    0.3562 N   0  0  0  0  0  0  0  0  0  0  0  0
    5.1959    0.3199    1.3191 C   0  0  2  0  0  0  0  0  0  0  0  0
    6.4185    1.0765    1.0778 C   0  0  0  0  0  0  0  0  0  0  0  0
    7.3601    0.9392    1.9322 O   0  0  0  0  0  0  0  0  0  0  0  0
    6.6754    1.9423    0.0012 N   0  0  0  0  0  0  0  0  0  0  0  0
    7.9805    2.6313   -0.0810 C   0  0  1  0  0  0  0  0  0  0  0  0
    8.7370    1.9775   -1.2376 C   0  0  0  0  0  0  0  0  0  0  0  0
    9.8849    2.3616   -1.5555 O   0  0  0  0  0  0  0  0  0  0  0  0
    8.1192    0.9093   -1.9664 N   0  0  0  0  0  0  0  0  0  0  0  0
    7.7124    4.0610   -0.4076 C   0  0  0  0  0  0  0  0  0  0  0  0
    8.9193    4.9472   -0.4977 C   0  0  0  0  0  0  0  0  0  0  0  0
    9.8409    5.1586    1.0058 S   0  0  0  0  0  0  0  0  0  0  0  0
   10.6421    3.7066    1.6608 C   0  0  0  0  0  0  0  0  0  0  0  0
    5.4317   -1.1870    1.2249 C   0  0  0  0  0  0  0  0  0  0  0  0
    5.8505   -1.6540   -0.1221 C   0  0  0  0  0  0  0  0  0  0  0  0
    6.4058   -1.6631    2.2618 C   0  0  0  0  0  0  0  0  0  0  0  0
    0.5065    0.5100    1.1558 N   0  0  0  0  0  0  0  0  0  0  0  0
   -0.6536   -0.2278    0.7982 C   0  0  0  0  0  0  0  0  0  0  0  0
   -0.7589   -0.5534   -0.4152 O   0  0  0  0  0  0  0  0  0  0  0  0
   -1.6260   -0.5574    1.8431 C   0  0  2  0  0  0  0  0  0  0  0  0
   -0.9387   -1.6855    2.6946 C   0  0  0  0  0  0  0  0  0  0  0  0
   -0.6405   -2.8302    1.7868 C   0  0  0  0  0  0  0  0  0  0  0  0
    0.5911   -2.9030    1.1461 C   0  0  0  0  0  0  0  0  0  0  0  0
    0.8670   -3.9704    0.2903 C   0  0  0  0  0  0  0  0  0  0  0  0
   -0.0473   -4.9693    0.0519 C   0  0  0  0  0  0  0  0  0  0  0  0
   -1.2725   -4.8667    0.7099 C   0  0  0  0  0  0  0  0  0  0  0  0
   -1.5822   -3.8378    1.5566 C   0  0  0  0  0  0  0  0  0  0  0  0
    0.2004   -6.0445   -0.7967 O   0  0  0  0  0  0  0  0  0  0  0  0
   -2.8141   -1.1458    1.2392 N   0  0  0  0  0  0  0  0  0  0  0  0
   -4.0021   -1.0953    2.0205 C   0  0  0  0  0  0  0  0  0  0  0  0
   -3.8826   -0.5625    3.1729 O   0  0  0  0  0  0  0  0  0  0  0  0
   -5.3164   -1.6176    1.5670 C   0  0  1  0  0  0  0  0  0  0  0  0
   -5.1793   -1.8555    0.1363 N   0  0  0  0  0  0  0  0  0  0  0  0
   -6.0444   -1.1120   -0.7037 C   0  0  0  0  0  0  0  0  0  0  0  0
   -6.8789   -0.3024   -0.1793 O   0  0  0  0  0  0  0  0  0  0  0  0
   -6.0723   -1.1898   -2.1844 C   0  0  2  0  0  0  0  0  0  0  0  0
   -4.8198   -0.5491   -2.7824 C   0  0  0  0  0  0  0  0  0  0  0  0
   -4.6667    0.8661   -2.4244 C   0  0  0  0  0  0  0  0  0  0  0  0
   -3.8096    1.3096   -1.4113 C   0  0  0  0  0  0  0  0  0  0  0  0
   -3.9046    2.6438   -1.3051 N   0  0  0  0  0  0  0  0  0  0  0  0
   -4.7853    3.1251   -2.1989 C   0  0  0  0  0  0  0  0  0  0  0  0
   -5.2572    2.0113   -2.8948 C   0  0  0  0  0  0  0  0  0  0  0  0
   -6.1769    2.2264   -3.8867 C   0  0  0  0  0  0  0  0  0  0  0  0
   -6.6008    3.5023   -4.1608 C   0  0  0  0  0  0  0  0  0  0  0  0
   -6.1537    4.6233   -3.4888 C   0  0  0  0  0  0  0  0  0  0  0  0
   -5.2153    4.4088   -2.4777 C   0  0  0  0  0  0  0  0  0  0  0  0
   -7.2730   -0.4740   -2.5975 N   0  0  0  0  0  0  0  0  0  0  0  0
   -5.6729   -2.9053    2.2875 C   0  0  0  0  0  0  0  0  0  0  0  0
   -6.9760   -3.4985    1.9131 C   0  0  0  0  0  0  0  0  0  0  0  0
   -8.2027   -2.7185    2.1572 C   0  0  0  0  0  0  0  0  0  0  0  0
   -8.4515   -2.3581    3.5971 C   0  0  0  0  0  0  0  0  0  0  0  0
   -9.6763   -1.5927    3.7461 N   0  0  0  0  0  0  0  0  0  0  0  0
    4.2247    0.4474   -3.2963 H   0  0  0  0  0  0  0  0  0  0  0  0
    2.9677   -0.3568   -2.2966 H   0  0  0  0  0  0  0  0  0  0  0  0
    2.6652   -0.1816   -4.0216 H   0  0  0  0  0  0  0  0  0  0  0  0
    1.9772    3.8322   -1.6540 H   0  0  0  0  0  0  0  0  0  0  0  0
    3.2988    2.8696   -1.0311 H   0  0  0  0  0  0  0  0  0  0  0  0
    1.4049    2.9041    0.4762 H   0  0  0  0  0  0  0  0  0  0  0  0
    0.2537    2.3468   -0.7218 H   0  0  0  0  0  0  0  0  0  0  0  0
    1.4141    0.0778   -0.6738 H   0  0  0  0  0  0  0  0  0  0  0  0
    4.3050    0.7893   -0.6330 H   0  0  0  0  0  0  0  0  0  0  0  0
    4.7834    0.4769    2.3252 H   0  0  0  0  0  0  0  0  0  0  0  0
    5.9368    2.0774   -0.7199 H   0  0  0  0  0  0  0  0  0  0  0  0
    8.4931    2.4907    0.8485 H   0  0  0  0  0  0  0  0  0  0  0  0
    8.0736   -0.0167   -1.5029 H   0  0  0  0  0  0  0  0  0  0  0  0
    7.7234    1.0648   -2.9432 H   0  0  0  0  0  0  0  0  0  0  0  0
    7.0946    4.1603   -1.3502 H   0  0  0  0  0  0  0  0  0  0  0  0
    7.0420    4.5163    0.3746 H   0  0  0  0  0  0  0  0  0  0  0  0
    9.6056    4.6567   -1.3238 H   0  0  0  0  0  0  0  0  0  0  0  0
    8.5450    5.9690   -0.8156 H   0  0  0  0  0  0  0  0  0  0  0  0
   10.0382    3.2286    2.4954 H   0  0  0  0  0  0  0  0  0  0  0  0
   10.8361    2.9480    0.8892 H   0  0  0  0  0  0  0  0  0  0  0  0
   11.6207    4.0205    2.1273 H   0  0  0  0  0  0  0  0  0  0  0  0
    4.4619   -1.7166    1.4574 H   0  0  0  0  0  0  0  0  0  0  0  0
    6.9671   -1.8262   -0.0702 H   0  0  0  0  0  0  0  0  0  0  0  0
    5.4183   -2.6508   -0.3579 H   0  0  0  0  0  0  0  0  0  0  0  0
    5.7247   -0.9237   -0.9429 H   0  0  0  0  0  0  0  0  0  0  0  0
    7.4563   -1.5647    1.9801 H   0  0  0  0  0  0  0  0  0  0  0  0
    6.2480   -2.7467    2.5085 H   0  0  0  0  0  0  0  0  0  0  0  0
    6.2084   -1.1382    3.2409 H   0  0  0  0  0  0  0  0  0  0  0  0
    0.6302    0.8309    2.1426 H   0  0  0  0  0  0  0  0  0  0  0  0
   -1.8985    0.2460    2.5234 H   0  0  0  0  0  0  0  0  0  0  0  0
   -0.0037   -1.2648    3.0647 H   0  0  0  0  0  0  0  0  0  0  0  0
   -1.5797   -1.9444    3.5441 H   0  0  0  0  0  0  0  0  0  0  0  0
    1.3463   -2.1435    1.2994 H   0  0  0  0  0  0  0  0  0  0  0  0
    1.8542   -3.9970   -0.1998 H   0  0  0  0  0  0  0  0  0  0  0  0
   -2.0041   -5.6336    0.5380 H   0  0  0  0  0  0  0  0  0  0  0  0
   -2.5130   -3.7219    2.0845 H   0  0  0  0  0  0  0  0  0  0  0  0
    0.3183   -5.8986   -1.8009 H   0  0  0  0  0  0  0  0  0  0  0  0
   -2.8221   -1.5825    0.2944 H   0  0  0  0  0  0  0  0  0  0  0  0
   -6.0745   -0.8507    1.7817 H   0  0  0  0  0  0  0  0  0  0  0  0
   -4.5058   -2.5211   -0.2853 H   0  0  0  0  0  0  0  0  0  0  0  0
   -6.0651   -2.2457   -2.5176 H   0  0  0  0  0  0  0  0  0  0  0  0
   -3.9579   -1.1411   -2.4302 H   0  0  0  0  0  0  0  0  0  0  0  0
   -4.9309   -0.6986   -3.8813 H   0  0  0  0  0  0  0  0  0  0  0  0
   -3.1744    0.6836   -0.8119 H   0  0  0  0  0  0  0  0  0  0  0  0
   -3.3751    3.2544   -0.6239 H   0  0  0  0  0  0  0  0  0  0  0  0
   -6.5527    1.3960   -4.4497 H   0  0  0  0  0  0  0  0  0  0  0  0
   -7.3388    3.6612   -4.9572 H   0  0  0  0  0  0  0  0  0  0  0  0
   -6.4862    5.6274   -3.7049 H   0  0  0  0  0  0  0  0  0  0  0  0
   -4.8077    5.2388   -1.8928 H   0  0  0  0  0  0  0  0  0  0  0  0
   -8.0355   -1.1808   -2.7885 H   0  0  0  0  0  0  0  0  0  0  0  0
   -7.6544    0.1483   -1.8521 H   0  0  0  0  0  0  0  0  0  0  0  0
   -4.8925   -3.6452    1.9307 H   0  0  0  0  0  0  0  0  0  0  0  0
   -5.5020   -2.8364    3.3837 H   0  0  0  0  0  0  0  0  0  0  0  0
   -7.0187   -4.5213    2.3467 H   0  0  0  0  0  0  0  0  0  0  0  0
   -6.9241   -3.6856    0.7953 H   0  0  0  0  0  0  0  0  0  0  0  0
   -8.3330   -1.8123    1.5380 H   0  0  0  0  0  0  0  0  0  0  0  0
   -9.0649   -3.3850    1.8534 H   0  0  0  0  0  0  0  0  0  0  0  0
   -7.6573   -1.7880    4.0697 H   0  0  0  0  0  0  0  0  0  0  0  0
   -8.5852   -3.2886    4.2220 H   0  0  0  0  0  0  0  0  0  0  0  0
   -9.7102   -0.9190    2.9517 H   0  0  0  0  0  0  0  0  0  0  0  0
   -9.6717   -0.9962    4.6183 H   0  0  0  0  0  0  0  0  0  0  0  0
  1  2  1  0
  2  3  1  0
  3  4  1  0
  4  5  1  0
  5  6  1  0
  6  7  2  0
  6  8  1  0
  8  9  1  0
  9 10  1  0
 10 11  2  0
 10 12  1  0
 12 13  1  0
 13 14  1  0
 14 15  2  0
 14 16  1  0
 13 17  1  0
 17 18  1  0
 18 19  1  0
 19 20  1  0
  9 21  1  0
 21 22  1  0
 21 23  1  0
  5 24  1  0
 24 25  1  0
 25 26  2  0
 25 27  1  0
 27 28  1  0
 28 29  1  0
 29 30  2  0
 30 31  1  0
 31 32  2  0
 32 33  1  0
 33 34  2  0
 32 35  1  0
 27 36  1  0
 36 37  1  0
 37 38  2  0
 37 39  1  0
 39 40  1  0
 40 41  1  0
 41 42  2  0
 41 43  1  0
 43 44  1  0
 44 45  1  0
 45 46  2  0
 46 47  1  0
 47 48  1  0
 48 49  2  0
 49 50  1  0
 50 51  2  0
 51 52  1  0
 52 53  2  0
 43 54  1  0
 39 55  1  0
 55 56  1  0
 56 57  1  0
 57 58  1  0
 58 59  1  0
 34 29  1  0
 49 45  1  0
 53 48  1  0
  1 60  1  0
  1 61  1  0
  1 62  1  0
  3 63  1  0
  3 64  1  0
  4 65  1  0
  4 66  1  0
  5 67  1  6
  8 68  1  0
  9 69  1  1
 12 70  1  0
 13 71  1  1
 16 72  1  0
 16 73  1  0
 17 74  1  0
 17 75  1  0
 18 76  1  0
 18 77  1  0
 20 78  1  0
 20 79  1  0
 20 80  1  0
 21 81  1  0
 22 82  1  0
 22 83  1  0
 22 84  1  0
 23 85  1  0
 23 86  1  0
 23 87  1  0
 24 88  1  0
 27 89  1  1
 28 90  1  0
 28 91  1  0
 30 92  1  0
 31 93  1  0
 33 94  1  0
 34 95  1  0
 35 96  1  0
 36 97  1  0
 39 98  1  6
 40 99  1  0
 43100  1  1
 44101  1  0
 44102  1  0
 46103  1  0
 47104  1  0
 50105  1  0
 51106  1  0
 52107  1  0
 53108  1  0
 54109  1  0
 54110  1  0
 55111  1  0
 55112  1  0
 56113  1  0
 56114  1  0
 57115  1  0
 57116  1  0
 58117  1  0
 58118  1  0
 59119  1  0
 59120  1  0
M  END
>  <Ligand ID>  (1) 
LIG0003413

>  <Ligand>  (1) 
WKYMVm

>  <SMILES>  (1) 
CSCC[C@@H](C(=O)N[C@H](C(=O)N[C@@H](C(=O)N)CCSC)C(C)C)NC(=O)[C@H](Cc1ccc(cc1)O)NC(=O)[C@@H](NC(=O)[C@H](Cc1c[nH]c2c1cccc2)N)CCCCN

>  <CID>  (1) 
457933.0

>  <ChEMBL ID>  (1) 
nan

>  <InChiKey>  (1) 
FMBGOORJEKQQLG-JUZZZACGSA-N

>  <InChi>  (1) 
InChI=1S/C41H61N9O7S2/c1-24(2)35(41(57)46-31(36(44)52)16-19-58-3)50-39(55)33(17-20-59-4)48-40(56)34(21-25-12-14-27(51)15-13-25)49-38(54)32(11-7-8-18-42)47-37(53)29(43)22-26-23-45-30-10-6-5-9-28(26)30/h5-6,9-10,12-15,23-24,29,31-35,45,51H,7-8,11,16-22,42-43H2,1-4H3,(H2,44,52)(H,46,57)(H,47,53)(H,48,56)(H,49,54)(H,50,55)/t29-,31+,32-,33-,34-,35-/m0/s1

>  <IUPAC Name>  (1) 
(2S)-6-amino-2-[[(2S)-2-amino-3-(1H-indol-3-yl)propanoyl]amino]-N-[(2S)-1-[[(2S)-1-[[(2S)-1-[[(2R)-1-amino-4-methylsulfanyl-1-oxobutan-2-yl]amino]-3-methyl-1-oxobutan-2-yl]amino]-4-methylsulfanyl-1-oxobutan-2-yl]amino]-3-(4-hydroxyphenyl)-1-oxopropan-2-yl]hexanamide

$$$$
