
     RDKit          3D

 52 53  0  0  0  0  0  0  0  0999 V2000
    7.8145    0.4408    1.4941 C   0  0  0  0  0  0  0  0  0  0  0  0
    8.3040   -0.8072    1.1000 O   0  0  0  0  0  0  0  0  0  0  0  0
    7.5109   -1.2086   -0.3428 P   0  0  0  0  0  0  0  0  0  0  0  0
    7.7683   -2.6600   -0.6598 O   0  0  0  0  0  0  0  0  0  0  0  0
    5.8494   -1.0359   -0.0760 O   0  0  0  0  0  0  0  0  0  0  0  0
    5.1187   -0.0896   -1.2709 P   0  0  0  0  0  0  0  0  0  0  0  0
    5.4960   -0.4899   -2.6618 O   0  0  0  0  0  0  0  0  0  0  0  0
    3.4348   -0.2237   -1.0116 O   0  0  0  0  0  0  0  0  0  0  0  0
    3.0103   -1.8601   -0.9533 P   0  0  0  0  0  0  0  0  0  0  0  0
    4.2655   -2.6739   -0.7433 O   0  0  0  0  0  0  0  0  0  0  0  0
    1.9473   -2.2101    0.3023 O   0  0  0  0  0  0  0  0  0  0  0  0
    0.3361   -2.2654   -0.1988 P   0  0  0  0  0  0  0  0  0  0  0  0
    0.3418   -2.2345   -1.7153 O   0  0  0  0  0  0  0  0  0  0  0  0
   -0.4289   -0.8489    0.3055 O   0  0  0  0  0  0  0  0  0  0  0  0
   -1.6613   -1.0931    0.8859 C   0  0  0  0  0  0  0  0  0  0  0  0
   -2.3384    0.1776    1.3424 C   0  0  1  0  0  0  0  0  0  0  0  0
   -2.5719    1.0779    0.3118 O   0  0  0  0  0  0  0  0  0  0  0  0
   -3.6448    1.8626    0.6722 C   0  0  2  0  0  0  0  0  0  0  0  0
   -4.2426    1.3184    1.9480 C   0  0  1  0  0  0  0  0  0  0  0  0
   -3.7085   -0.0981    1.9252 C   0  0  2  0  0  0  0  0  0  0  0  0
   -3.6436   -0.6533    3.1952 O   0  0  0  0  0  0  0  0  0  0  0  0
   -3.6886    2.0012    3.0131 O   0  0  0  0  0  0  0  0  0  0  0  0
   -4.6989    1.8575   -0.3238 N   0  0  0  0  0  0  0  0  0  0  0  0
   -5.7007    2.7395   -0.2333 C   0  0  0  0  0  0  0  0  0  0  0  0
   -6.7229    2.7460   -1.1848 C   0  0  0  0  0  0  0  0  0  0  0  0
   -6.6416    1.8186   -2.1918 C   0  0  0  0  0  0  0  0  0  0  0  0
   -7.5415    1.7688   -3.0944 O   0  0  0  0  0  0  0  0  0  0  0  0
   -5.6107    0.9599   -2.2276 N   0  0  0  0  0  0  0  0  0  0  0  0
   -4.6252    0.9465   -1.3187 C   0  0  0  0  0  0  0  0  0  0  0  0
   -3.6802    0.1192   -1.3985 O   0  0  0  0  0  0  0  0  0  0  0  0
   -0.4543   -3.6511    0.3603 O   0  0  0  0  0  0  0  0  0  0  0  0
    2.3862   -2.2842   -2.4673 O   0  0  0  0  0  0  0  0  0  0  0  0
    5.5658    1.5203   -1.0121 O   0  0  0  0  0  0  0  0  0  0  0  0
    8.0584   -0.2909   -1.6362 O   0  0  0  0  0  0  0  0  0  0  0  0
    6.7266    0.5520    1.2912 H   0  0  0  0  0  0  0  0  0  0  0  0
    8.0092    0.6129    2.5745 H   0  0  0  0  0  0  0  0  0  0  0  0
    8.3419    1.2181    0.9109 H   0  0  0  0  0  0  0  0  0  0  0  0
   -1.4607   -1.6950    1.8066 H   0  0  0  0  0  0  0  0  0  0  0  0
   -2.2692   -1.6685    0.1770 H   0  0  0  0  0  0  0  0  0  0  0  0
   -1.7183    0.6092    2.1557 H   0  0  0  0  0  0  0  0  0  0  0  0
   -3.3266    2.9205    0.7763 H   0  0  0  0  0  0  0  0  0  0  0  0
   -5.3488    1.3474    1.9414 H   0  0  0  0  0  0  0  0  0  0  0  0
   -4.3119   -0.6659    1.2043 H   0  0  0  0  0  0  0  0  0  0  0  0
   -3.1064   -0.0429    3.7428 H   0  0  0  0  0  0  0  0  0  0  0  0
   -3.0995    2.7371    2.7106 H   0  0  0  0  0  0  0  0  0  0  0  0
   -5.7329    3.4601    0.5780 H   0  0  0  0  0  0  0  0  0  0  0  0
   -7.5400    3.4653   -1.1113 H   0  0  0  0  0  0  0  0  0  0  0  0
   -5.5502    0.2517   -2.9978 H   0  0  0  0  0  0  0  0  0  0  0  0
   -1.1042   -3.9495   -0.3342 H   0  0  0  0  0  0  0  0  0  0  0  0
    2.2574   -3.2557   -2.5807 H   0  0  0  0  0  0  0  0  0  0  0  0
    5.1240    2.1306   -1.6439 H   0  0  0  0  0  0  0  0  0  0  0  0
    8.5062    0.5279   -1.3354 H   0  0  0  0  0  0  0  0  0  0  0  0
  1  2  1  0
  2  3  1  0
  3  4  2  0
  3  5  1  0
  5  6  1  0
  6  7  2  0
  6  8  1  0
  8  9  1  0
  9 10  2  0
  9 11  1  0
 11 12  1  0
 12 13  2  0
 12 14  1  0
 14 15  1  0
 15 16  1  0
 16 17  1  0
 17 18  1  0
 18 19  1  0
 19 20  1  0
 20 21  1  0
 19 22  1  0
 18 23  1  0
 23 24  1  0
 24 25  2  0
 25 26  1  0
 26 27  2  0
 26 28  1  0
 28 29  1  0
 29 30  2  0
 12 31  1  0
  9 32  1  0
  6 33  1  0
  3 34  1  0
 20 16  1  0
 29 23  1  0
  1 35  1  0
  1 36  1  0
  1 37  1  0
 15 38  1  0
 15 39  1  0
 16 40  1  1
 18 41  1  1
 19 42  1  6
 20 43  1  6
 21 44  1  0
 22 45  1  0
 24 46  1  0
 25 47  1  0
 28 48  1  0
 31 49  1  0
 32 50  1  0
 33 51  1  0
 34 52  1  0
M  END
>  <Ligand ID>  (1) 
LIG0004911

>  <Ligand>  (1) 
CHEMBL519991

>  <SMILES>  (1) 
COP(=O)(OP(=O)(OP(=O)(OP(=O)(OC[C@H]1O[C@H]([C@@H]([C@@H]1O)O)n1ccc(=O)[nH]c1=O)O)O)O)O

>  <CID>  (1) 
44586042.0

>  <ChEMBL ID>  (1) 
nan

>  <InChiKey>  (1) 
LRBUKMYVKOITTQ-ZOQUXTDFSA-N

>  <InChi>  (1) 
InChI=1S/C10H18N2O18P4/c1-25-31(17,18)28-33(21,22)30-34(23,24)29-32(19,20)26-4-5-7(14)8(15)9(27-5)12-3-2-6(13)11-10(12)16/h2-3,5,7-9,14-15H,4H2,1H3,(H,17,18)(H,19,20)(H,21,22)(H,23,24)(H,11,13,16)/t5-,7-,8-,9-/m1/s1

>  <IUPAC Name>  (1) 
[[(2R,3S,4R,5R)-5-(2,4-dioxopyrimidin-1-yl)-3,4-dihydroxyoxolan-2-yl]methoxy-hydroxyphosphoryl] [hydroxy-[hydroxy(methoxy)phosphoryl]oxyphosphoryl] hydrogen phosphate

$$$$
