
     RDKit          3D

 53 56  0  0  0  0  0  0  0  0999 V2000
    7.0280    1.4725    1.5715 O   0  0  0  0  0  0  0  0  0  0  0  0
    7.2344    0.4336    0.8941 C   0  0  0  0  0  0  0  0  0  0  0  0
    8.5361   -0.2342    0.6239 C   0  0  0  0  0  0  0  0  0  0  0  0
    8.1049   -1.6859    0.5022 C   0  0  0  0  0  0  0  0  0  0  0  0
    6.8387   -1.5440   -0.3083 C   0  0  0  0  0  0  0  0  0  0  0  0
    6.2550   -0.3422    0.2279 N   0  0  0  0  0  0  0  0  0  0  0  0
    4.8885    0.0378    0.1185 C   0  0  0  0  0  0  0  0  0  0  0  0
    3.9318   -0.3163    1.0514 C   0  0  0  0  0  0  0  0  0  0  0  0
    2.6109    0.0582    0.9337 C   0  0  0  0  0  0  0  0  0  0  0  0
    2.1917    0.8126   -0.1388 C   0  0  0  0  0  0  0  0  0  0  0  0
    3.1502    1.1637   -1.0674 C   0  0  0  0  0  0  0  0  0  0  0  0
    4.4690    0.7948   -0.9579 C   0  0  0  0  0  0  0  0  0  0  0  0
    0.8165    1.2466   -0.3337 C   0  0  0  0  0  0  0  0  0  0  0  0
    0.4964    1.9379   -1.3383 O   0  0  0  0  0  0  0  0  0  0  0  0
   -0.2127    0.9206    0.5779 N   0  0  0  0  0  0  0  0  0  0  0  0
   -1.5276    1.4190    0.2556 C   0  0  0  0  0  0  0  0  0  0  0  0
   -1.9564    2.6528    0.7030 C   0  0  0  0  0  0  0  0  0  0  0  0
   -3.2386    3.0535    0.3441 C   0  0  0  0  0  0  0  0  0  0  0  0
   -4.0574    2.2477   -0.4326 C   0  0  0  0  0  0  0  0  0  0  0  0
   -3.6358    1.0171   -0.8815 C   0  0  0  0  0  0  0  0  0  0  0  0
   -2.3562    0.6090   -0.5276 C   0  0  0  0  0  0  0  0  0  0  0  0
   -4.6404   -0.0260   -1.8639 S   0  0  0  0  0  0  0  0  0  0  0  0
   -3.8043   -0.7840   -2.8487 O   0  0  0  0  0  0  0  0  0  0  0  0
   -5.5951    0.8463   -2.6351 O   0  0  0  0  0  0  0  0  0  0  0  0
   -5.5442   -1.0244   -0.8384 N   0  0  0  0  0  0  0  0  0  0  0  0
   -4.8280   -1.9018    0.0057 C   0  0  0  0  0  0  0  0  0  0  0  0
   -5.4651   -2.0103    1.3718 C   0  0  0  0  0  0  0  0  0  0  0  0
   -6.8078   -2.3329    1.1619 O   0  0  0  0  0  0  0  0  0  0  0  0
   -7.5145   -1.2731    0.6139 C   0  0  0  0  0  0  0  0  0  0  0  0
   -6.7400   -0.4360   -0.3261 C   0  0  0  0  0  0  0  0  0  0  0  0
    8.9015    0.0967   -0.3595 H   0  0  0  0  0  0  0  0  0  0  0  0
    9.2271   -0.0771    1.4548 H   0  0  0  0  0  0  0  0  0  0  0  0
    8.8889   -2.2513   -0.0030 H   0  0  0  0  0  0  0  0  0  0  0  0
    7.8491   -2.0806    1.5159 H   0  0  0  0  0  0  0  0  0  0  0  0
    6.1637   -2.4043   -0.1540 H   0  0  0  0  0  0  0  0  0  0  0  0
    7.1027   -1.4274   -1.3798 H   0  0  0  0  0  0  0  0  0  0  0  0
    4.2663   -0.9127    1.8982 H   0  0  0  0  0  0  0  0  0  0  0  0
    1.8987   -0.2403    1.6851 H   0  0  0  0  0  0  0  0  0  0  0  0
    2.8376    1.7593   -1.9210 H   0  0  0  0  0  0  0  0  0  0  0  0
    5.1651    1.1123   -1.7343 H   0  0  0  0  0  0  0  0  0  0  0  0
   -0.0329    0.3567    1.4274 H   0  0  0  0  0  0  0  0  0  0  0  0
   -1.3302    3.2728    1.2990 H   0  0  0  0  0  0  0  0  0  0  0  0
   -3.6339    4.0158    0.6661 H   0  0  0  0  0  0  0  0  0  0  0  0
   -5.0494    2.5723   -0.7028 H   0  0  0  0  0  0  0  0  0  0  0  0
   -1.9525   -0.3571   -0.8483 H   0  0  0  0  0  0  0  0  0  0  0  0
   -3.8078   -1.4582    0.1994 H   0  0  0  0  0  0  0  0  0  0  0  0
   -4.6169   -2.9064   -0.4272 H   0  0  0  0  0  0  0  0  0  0  0  0
   -5.0030   -2.8457    1.9217 H   0  0  0  0  0  0  0  0  0  0  0  0
   -5.3597   -1.0298    1.8887 H   0  0  0  0  0  0  0  0  0  0  0  0
   -8.4213   -1.7242    0.1328 H   0  0  0  0  0  0  0  0  0  0  0  0
   -7.9001   -0.6465    1.4502 H   0  0  0  0  0  0  0  0  0  0  0  0
   -7.3832   -0.1749   -1.1942 H   0  0  0  0  0  0  0  0  0  0  0  0
   -6.4375    0.5380    0.1447 H   0  0  0  0  0  0  0  0  0  0  0  0
  1  2  2  0
  2  3  1  0
  3  4  1  0
  4  5  1  0
  5  6  1  0
  6  7  1  0
  7  8  2  0
  8  9  1  0
  9 10  2  0
 10 11  1  0
 11 12  2  0
 10 13  1  0
 13 14  2  0
 13 15  1  0
 15 16  1  0
 16 17  2  0
 17 18  1  0
 18 19  2  0
 19 20  1  0
 20 21  2  0
 20 22  1  0
 22 23  2  0
 22 24  2  0
 22 25  1  0
 25 26  1  0
 26 27  1  0
 27 28  1  0
 28 29  1  0
 29 30  1  0
  6  2  1  0
 12  7  1  0
 21 16  1  0
 30 25  1  0
  3 31  1  0
  3 32  1  0
  4 33  1  0
  4 34  1  0
  5 35  1  0
  5 36  1  0
  8 37  1  0
  9 38  1  0
 11 39  1  0
 12 40  1  0
 15 41  1  0
 17 42  1  0
 18 43  1  0
 19 44  1  0
 21 45  1  0
 26 46  1  0
 26 47  1  0
 27 48  1  0
 27 49  1  0
 29 50  1  0
 29 51  1  0
 30 52  1  0
 30 53  1  0
M  END
>  <Ligand ID>  (1) 
LIG0001319

>  <Ligand>  (1) 
N-(3-morpholin-4-ylsulfonylphenyl)-4-(2-oxopyrrolidin-1-yl)benzamide

>  <SMILES>  (1) 
O=C1CCCN1c1ccc(cc1)C(=O)Nc1cccc(c1)S(=O)(=O)N1CCOCC1

>  <CID>  (1) 
4292126.0

>  <ChEMBL ID>  (1) 
nan

>  <InChiKey>  (1) 
HCHQMTSFRNJTLA-UHFFFAOYSA-N

>  <InChi>  (1) 
InChI=1S/C21H23N3O5S/c25-20-5-2-10-24(20)18-8-6-16(7-9-18)21(26)22-17-3-1-4-19(15-17)30(27,28)23-11-13-29-14-12-23/h1,3-4,6-9,15H,2,5,10-14H2,(H,22,26)

>  <IUPAC Name>  (1) 
N-(3-morpholin-4-ylsulfonylphenyl)-4-(2-oxopyrrolidin-1-yl)benzamide

$$$$
