
     RDKit          3D

 65 71  0  0  0  0  0  0  0  0999 V2000
    0.2386   -4.9298    1.0278 O   0  0  0  0  0  0  0  0  0  0  0  0
   -0.5379   -3.9081    0.5116 C   0  0  0  0  0  0  0  0  0  0  0  0
   -1.5935   -4.1422   -0.3770 C   0  0  0  0  0  0  0  0  0  0  0  0
   -2.3667   -3.0933   -0.8871 C   0  0  0  0  0  0  0  0  0  0  0  0
   -2.0689   -1.7844   -0.4894 C   0  0  0  0  0  0  0  0  0  0  0  0
   -1.0436   -1.6382    0.3675 C   0  0  0  0  0  0  0  0  0  0  0  0
   -0.2520   -2.5964    0.8984 C   0  0  0  0  0  0  0  0  0  0  0  0
    0.6664   -1.9666    1.7163 O   0  0  0  0  0  0  0  0  0  0  0  0
    0.8098   -0.6128    1.2058 C   0  0  2  0  0  0  0  0  0  0  0  0
   -0.6424   -0.3392    0.8866 C   0  0  2  0  0  0  0  0  0  0  0  0
   -1.4596   -0.0383    2.0894 C   0  0  0  0  0  0  0  0  0  0  0  0
   -2.4964    0.9978    1.9572 C   0  0  0  0  0  0  0  0  0  0  0  0
   -3.1606    1.1756    0.6891 N   0  0  0  0  0  0  0  0  0  0  0  0
   -2.3692    0.6847   -0.4210 C   0  0  2  0  0  0  0  0  0  0  0  0
   -2.8003   -0.6047   -0.9998 C   0  0  0  0  0  0  0  0  0  0  0  0
   -0.8950    0.7361   -0.1097 C   0  0  1  0  0  0  0  0  0  0  0  0
   -0.6303    1.9656    0.5113 O   0  0  0  0  0  0  0  0  0  0  0  0
    0.0005    0.6562   -1.3138 C   0  0  0  0  0  0  0  0  0  0  0  0
    0.8934   -0.5437   -1.3263 C   0  0  0  0  0  0  0  0  0  0  0  0
    1.6577   -0.6990   -0.0085 C   0  0  1  0  0  0  0  0  0  0  0  0
    2.7556    0.2486   -0.0854 N   0  0  0  0  0  0  0  0  0  0  0  0
    4.0284   -0.2284   -0.5381 C   0  0  0  0  0  0  0  0  0  0  0  0
    4.1831   -1.4642   -0.8475 O   0  0  0  0  0  0  0  0  0  0  0  0
    5.1926    0.6081   -0.6817 C   0  0  0  0  0  0  0  0  0  0  0  0
    5.6110    0.8670   -1.9922 C   0  0  0  0  0  0  0  0  0  0  0  0
    6.7129    1.6621   -2.2422 C   0  0  0  0  0  0  0  0  0  0  0  0
    7.4248    2.2173   -1.2360 N   0  0  0  0  0  0  0  0  0  0  0  0
    7.0113    1.9625    0.0338 C   0  0  0  0  0  0  0  0  0  0  0  0
    5.9210    1.1768    0.3159 C   0  0  0  0  0  0  0  0  0  0  0  0
    5.5076    0.9190    1.7219 C   0  0  0  0  0  0  0  0  0  0  0  0
   -4.4713    0.5920    0.7322 C   0  0  0  0  0  0  0  0  0  0  0  0
   -5.4623    0.9588   -0.3032 C   0  0  0  0  0  0  0  0  0  0  0  0
   -5.9433    2.3694   -0.4529 C   0  0  0  0  0  0  0  0  0  0  0  0
   -5.2634    1.6112   -1.5837 C   0  0  0  0  0  0  0  0  0  0  0  0
    1.0797   -5.2988    0.5989 H   0  0  0  0  0  0  0  0  0  0  0  0
   -1.8159   -5.1653   -0.6777 H   0  0  0  0  0  0  0  0  0  0  0  0
   -3.1755   -3.2643   -1.5719 H   0  0  0  0  0  0  0  0  0  0  0  0
    1.2049   -0.0152    2.0423 H   0  0  0  0  0  0  0  0  0  0  0  0
   -0.7311    0.2633    2.9093 H   0  0  0  0  0  0  0  0  0  0  0  0
   -1.8792   -1.0025    2.5046 H   0  0  0  0  0  0  0  0  0  0  0  0
   -3.3139    0.7175    2.6885 H   0  0  0  0  0  0  0  0  0  0  0  0
   -2.1822    2.0026    2.3647 H   0  0  0  0  0  0  0  0  0  0  0  0
   -2.4735    1.4756   -1.2365 H   0  0  0  0  0  0  0  0  0  0  0  0
   -3.8919   -0.7796   -1.0195 H   0  0  0  0  0  0  0  0  0  0  0  0
   -2.5390   -0.5751   -2.1011 H   0  0  0  0  0  0  0  0  0  0  0  0
   -0.0409    1.8333    1.2935 H   0  0  0  0  0  0  0  0  0  0  0  0
   -0.5807    0.6692   -2.2711 H   0  0  0  0  0  0  0  0  0  0  0  0
    0.6591    1.5486   -1.4134 H   0  0  0  0  0  0  0  0  0  0  0  0
    1.7028   -0.2950   -2.0936 H   0  0  0  0  0  0  0  0  0  0  0  0
    0.4623   -1.4827   -1.6509 H   0  0  0  0  0  0  0  0  0  0  0  0
    2.1353   -1.7214   -0.1403 H   0  0  0  0  0  0  0  0  0  0  0  0
    2.6781    1.2499    0.1642 H   0  0  0  0  0  0  0  0  0  0  0  0
    5.0662    0.4458   -2.8284 H   0  0  0  0  0  0  0  0  0  0  0  0
    6.9692    1.8006   -3.2910 H   0  0  0  0  0  0  0  0  0  0  0  0
    7.6229    2.4369    0.8057 H   0  0  0  0  0  0  0  0  0  0  0  0
    4.5423    0.3825    1.7575 H   0  0  0  0  0  0  0  0  0  0  0  0
    6.2962    0.2202    2.1249 H   0  0  0  0  0  0  0  0  0  0  0  0
    5.5003    1.8472    2.3068 H   0  0  0  0  0  0  0  0  0  0  0  0
   -4.4546   -0.5051    0.9029 H   0  0  0  0  0  0  0  0  0  0  0  0
   -4.9176    0.9751    1.7111 H   0  0  0  0  0  0  0  0  0  0  0  0
   -6.3495    0.2358   -0.2927 H   0  0  0  0  0  0  0  0  0  0  0  0
   -6.9977    2.5997   -0.6187 H   0  0  0  0  0  0  0  0  0  0  0  0
   -5.3765    3.1409    0.0896 H   0  0  0  0  0  0  0  0  0  0  0  0
   -5.9375    1.2793   -2.4457 H   0  0  0  0  0  0  0  0  0  0  0  0
   -4.4202    2.1616   -1.9756 H   0  0  0  0  0  0  0  0  0  0  0  0
  1  2  1  0
  2  3  2  0
  3  4  1  0
  4  5  2  0
  5  6  1  0
  6  7  2  0
  7  8  1  0
  8  9  1  0
  9 10  1  0
 10 11  1  1
 11 12  1  0
 12 13  1  0
 13 14  1  0
 14 15  1  0
 14 16  1  0
 16 17  1  1
 16 18  1  0
 18 19  1  0
 19 20  1  0
 20 21  1  0
 21 22  1  0
 22 23  2  0
 22 24  1  0
 24 25  2  0
 25 26  1  0
 26 27  2  0
 27 28  1  0
 28 29  2  0
 29 30  1  0
 13 31  1  0
 31 32  1  0
 32 33  1  0
 33 34  1  0
  7  2  1  0
 20  9  1  0
 29 24  1  0
 34 32  1  0
 15  5  1  0
 10  6  1  0
 16 10  1  0
  1 35  1  0
  3 36  1  0
  4 37  1  0
  9 38  1  1
 11 39  1  0
 11 40  1  0
 12 41  1  0
 12 42  1  0
 14 43  1  6
 15 44  1  0
 15 45  1  0
 17 46  1  0
 18 47  1  0
 18 48  1  0
 19 49  1  0
 19 50  1  0
 20 51  1  6
 21 52  1  0
 25 53  1  0
 26 54  1  0
 28 55  1  0
 30 56  1  0
 30 57  1  0
 30 58  1  0
 31 59  1  0
 31 60  1  0
 32 61  1  0
 33 62  1  0
 33 63  1  0
 34 64  1  0
 34 65  1  0
M  END
>  <Ligand ID>  (1) 
LIG0003665

>  <Ligand>  (1) 
CHEMBL1852393

>  <SMILES>  (1) 
Oc1ccc2c3c1O[C@@H]1[C@@]43CCN([C@H](C2)[C@]4(O)CC[C@H]1NC(=O)c1ccncc1C)CC1CC1

>  <CID>  (1) 
53388149.0

>  <ChEMBL ID>  (1) 
nan

>  <InChiKey>  (1) 
COQZBDBMRLFDRK-XGTKUTNFSA-N

>  <InChi>  (1) 
InChI=1S/C27H31N3O4/c1-15-13-28-10-7-18(15)25(32)29-19-6-8-27(33)21-12-17-4-5-20(31)23-22(17)26(27,24(19)34-23)9-11-30(21)14-16-2-3-16/h4-5,7,10,13,16,19,21,24,31,33H,2-3,6,8-9,11-12,14H2,1H3,(H,29,32)/t19-,21-,24+,26+,27-/m1/s1

>  <IUPAC Name>  (1) 
N-[(4R,4aS,7R,7aR,12bS)-3-(cyclopropylmethyl)-4a,9-dihydroxy-1,2,4,5,6,7,7a,13-octahydro-4,12-methanobenzofuro[3,2-e]isoquinolin-7-yl]-3-methylpyridine-4-carboxamide

$$$$
