
     RDKit          3D

 20 20  0  0  0  0  0  0  0  0999 V2000
   -3.3849    0.3243   -0.8071 N   0  0  0  0  0  0  0  0  0  0  0  0
   -2.3042   -0.3760   -0.1292 C   0  0  0  0  0  0  0  0  0  0  0  0
   -0.9536    0.2335   -0.4433 C   0  0  0  0  0  0  0  0  0  0  0  0
    0.0658   -0.5585    0.2990 C   0  0  0  0  0  0  0  0  0  0  0  0
    1.4538   -0.0746    0.0876 C   0  0  0  0  0  0  0  0  0  0  0  0
    1.8848    0.9959   -0.6979 C   0  0  0  0  0  0  0  0  0  0  0  0
    3.2130    1.1058   -0.6239 N   0  0  0  0  0  0  0  0  0  0  0  0
    3.6184    0.1320    0.1867 C   0  0  0  0  0  0  0  0  0  0  0  0
    2.5848   -0.5768    0.6167 N   0  0  0  0  0  0  0  0  0  0  0  0
   -3.5988    1.2304   -0.3800 H   0  0  0  0  0  0  0  0  0  0  0  0
   -4.1988   -0.3329   -0.8923 H   0  0  0  0  0  0  0  0  0  0  0  0
   -2.5243   -0.2514    0.9683 H   0  0  0  0  0  0  0  0  0  0  0  0
   -2.3445   -1.4629   -0.2999 H   0  0  0  0  0  0  0  0  0  0  0  0
   -0.9956    1.2954   -0.1675 H   0  0  0  0  0  0  0  0  0  0  0  0
   -0.8369    0.1600   -1.5537 H   0  0  0  0  0  0  0  0  0  0  0  0
   -0.1457   -0.4370    1.3819 H   0  0  0  0  0  0  0  0  0  0  0  0
   -0.0257   -1.6146   -0.0469 H   0  0  0  0  0  0  0  0  0  0  0  0
    1.2436    1.6518   -1.2882 H   0  0  0  0  0  0  0  0  0  0  0  0
    4.6745   -0.0316    0.4418 H   0  0  0  0  0  0  0  0  0  0  0  0
    2.5744   -1.4129    1.2694 H   0  0  0  0  0  0  0  0  0  0  0  0
  1  2  1  0
  2  3  1  0
  3  4  1  0
  4  5  1  0
  5  6  2  0
  6  7  1  0
  7  8  2  0
  8  9  1  0
  9  5  1  0
  1 10  1  0
  1 11  1  0
  2 12  1  0
  2 13  1  0
  3 14  1  0
  3 15  1  0
  4 16  1  0
  4 17  1  0
  6 18  1  0
  8 19  1  0
  9 20  1  0
M  END
>  <Ligand ID>  (1) 
LIG0005761

>  <Ligand>  (1) 
1H-Imidazole-4-propanamine

>  <SMILES>  (1) 
NCCCc1cnc[nH]1

>  <CID>  (1) 
170389.0

>  <ChEMBL ID>  (1) 
nan

>  <InChiKey>  (1) 
IHDFTEVCMVTMSP-UHFFFAOYSA-N

>  <InChi>  (1) 
InChI=1S/C6H11N3/c7-3-1-2-6-4-8-5-9-6/h4-5H,1-3,7H2,(H,8,9)

>  <IUPAC Name>  (1) 
3-(1H-imidazol-5-yl)propan-1-amine

$$$$
