
     RDKit          3D

 35 36  0  0  0  0  0  0  0  0999 V2000
   -1.3808    3.2409   -0.6724 C   0  0  0  0  0  0  0  0  0  0  0  0
   -1.5186    1.7835   -0.3693 C   0  0  0  0  0  0  0  0  0  0  0  0
   -2.7004    1.3613    0.1847 C   0  0  0  0  0  0  0  0  0  0  0  0
   -2.8401    0.0289    0.4675 C   0  0  0  0  0  0  0  0  0  0  0  0
   -1.8214   -0.8594    0.2021 C   0  0  0  0  0  0  0  0  0  0  0  0
   -0.6105   -0.4693   -0.3582 C   0  0  0  0  0  0  0  0  0  0  0  0
   -0.4926    0.8858   -0.6360 C   0  0  0  0  0  0  0  0  0  0  0  0
    0.4390   -1.3857   -0.6378 N   0  0  0  0  0  0  0  0  0  0  0  0
    1.7041   -1.0233   -1.2092 C   0  0  0  0  0  0  0  0  0  0  0  0
    2.4896   -0.0901   -0.3266 C   0  0  0  0  0  0  0  0  0  0  0  0
    2.1756    0.3547    0.8424 N   0  0  0  0  0  0  0  0  0  0  0  0
    3.1981    1.2356    1.3694 C   0  0  0  0  0  0  0  0  0  0  0  0
    4.4199    0.7862    0.5963 C   0  0  0  0  0  0  0  0  0  0  0  0
    3.7728    0.4595   -0.6831 N   0  0  0  0  0  0  0  0  0  0  0  0
   -2.0207   -2.5503    0.5699 S   0  0  0  0  0  0  0  0  0  0  0  0
   -1.0253   -2.9542    1.6367 O   0  0  0  0  0  0  0  0  0  0  0  0
   -1.9061   -3.3762   -0.6617 O   0  0  0  0  0  0  0  0  0  0  0  0
   -3.6162   -2.8708    1.2753 C   0  0  0  0  0  0  0  0  0  0  0  0
   -2.3661    3.6794   -0.9161 H   0  0  0  0  0  0  0  0  0  0  0  0
   -0.9969    3.8048    0.1954 H   0  0  0  0  0  0  0  0  0  0  0  0
   -0.7513    3.3446   -1.5784 H   0  0  0  0  0  0  0  0  0  0  0  0
   -3.4945    2.0524    0.3919 H   0  0  0  0  0  0  0  0  0  0  0  0
   -3.7599   -0.3565    0.9081 H   0  0  0  0  0  0  0  0  0  0  0  0
    0.3952    1.2970   -1.0720 H   0  0  0  0  0  0  0  0  0  0  0  0
    0.2263   -2.3990   -0.3893 H   0  0  0  0  0  0  0  0  0  0  0  0
    2.2844   -1.9524   -1.3784 H   0  0  0  0  0  0  0  0  0  0  0  0
    1.5105   -0.5133   -2.1866 H   0  0  0  0  0  0  0  0  0  0  0  0
    2.9739    2.2724    1.0507 H   0  0  0  0  0  0  0  0  0  0  0  0
    3.3230    1.1595    2.4679 H   0  0  0  0  0  0  0  0  0  0  0  0
    4.7743   -0.1908    0.9844 H   0  0  0  0  0  0  0  0  0  0  0  0
    5.2006    1.5409    0.5041 H   0  0  0  0  0  0  0  0  0  0  0  0
    4.1598    0.5964   -1.6440 H   0  0  0  0  0  0  0  0  0  0  0  0
   -3.6905   -2.3123    2.2300 H   0  0  0  0  0  0  0  0  0  0  0  0
   -3.6217   -3.9560    1.5276 H   0  0  0  0  0  0  0  0  0  0  0  0
   -4.4335   -2.6244    0.5689 H   0  0  0  0  0  0  0  0  0  0  0  0
  1  2  1  0
  2  3  2  0
  3  4  1  0
  4  5  2  0
  5  6  1  0
  6  7  2  0
  6  8  1  0
  8  9  1  0
  9 10  1  0
 10 11  2  0
 11 12  1  0
 12 13  1  0
 13 14  1  0
  5 15  1  0
 15 16  2  0
 15 17  2  0
 15 18  1  0
  7  2  1  0
 14 10  1  0
  1 19  1  0
  1 20  1  0
  1 21  1  0
  3 22  1  0
  4 23  1  0
  7 24  1  0
  8 25  1  0
  9 26  1  0
  9 27  1  0
 12 28  1  0
 12 29  1  0
 13 30  1  0
 13 31  1  0
 14 32  1  0
 18 33  1  0
 18 34  1  0
 18 35  1  0
M  END
>  <Ligand ID>  (1) 
LIG0000952

>  <Ligand>  (1) 
CHEMBL71479

>  <SMILES>  (1) 
Cc1ccc(c(c1)NCC1=NCCN1)S(=O)(=O)C

>  <CID>  (1) 
10221005.0

>  <ChEMBL ID>  (1) 
nan

>  <InChiKey>  (1) 
NIILDWZATWLEEZ-UHFFFAOYSA-N

>  <InChi>  (1) 
InChI=1S/C12H17N3O2S/c1-9-3-4-11(18(2,16)17)10(7-9)15-8-12-13-5-6-14-12/h3-4,7,15H,5-6,8H2,1-2H3,(H,13,14)

>  <IUPAC Name>  (1) 
N-(4,5-dihydro-1H-imidazol-2-ylmethyl)-5-methyl-2-methylsulfonylaniline

$$$$
