
     RDKit          3D

 68 74  0  0  0  0  0  0  0  0999 V2000
   -6.2981   -3.6574    1.0172 C   0  0  0  0  0  0  0  0  0  0  0  0
   -4.9913   -3.2834    1.4092 O   0  0  0  0  0  0  0  0  0  0  0  0
   -4.3341   -2.2933    0.7283 C   0  0  0  0  0  0  0  0  0  0  0  0
   -4.8537   -1.6010   -0.3472 C   0  0  0  0  0  0  0  0  0  0  0  0
   -4.1416   -0.6015   -1.0054 C   0  0  0  0  0  0  0  0  0  0  0  0
   -2.8558   -0.2958   -0.5530 C   0  0  0  0  0  0  0  0  0  0  0  0
   -2.3824   -0.9912    0.4987 C   0  0  0  0  0  0  0  0  0  0  0  0
   -3.0475   -1.9663    1.1576 C   0  0  0  0  0  0  0  0  0  0  0  0
   -2.2129   -2.4300    2.1717 O   0  0  0  0  0  0  0  0  0  0  0  0
   -0.8565   -2.0720    1.7754 C   0  0  2  0  0  0  0  0  0  0  0  0
   -1.0195   -0.7427    1.1086 C   0  0  2  0  0  0  0  0  0  0  0  0
   -1.3088    0.3260    2.1054 C   0  0  0  0  0  0  0  0  0  0  0  0
   -1.5249    1.6930    1.5355 C   0  0  0  0  0  0  0  0  0  0  0  0
   -0.8198    1.9560    0.3423 N   0  0  0  0  0  0  0  0  0  0  0  0
   -0.7112    0.8999   -0.5781 C   0  0  2  0  0  0  0  0  0  0  0  0
   -2.0643    0.7527   -1.2458 C   0  0  0  0  0  0  0  0  0  0  0  0
   -0.1924   -0.4292   -0.0596 C   0  0  2  0  0  0  0  0  0  0  0  0
   -0.4964   -1.4677   -1.1604 C   0  0  0  0  0  0  0  0  0  0  0  0
   -0.8869   -2.8048   -0.6568 C   0  0  0  0  0  0  0  0  0  0  0  0
   -0.5238   -3.0900    0.7537 C   0  0  0  0  0  0  0  0  0  0  0  0
    0.0308   -4.1078    1.1265 O   0  0  0  0  0  0  0  0  0  0  0  0
    1.1956   -0.3729   -0.0058 N   0  0  0  0  0  0  0  0  0  0  0  0
    2.0800    0.3650    0.8125 C   0  0  0  0  0  0  0  0  0  0  0  0
    1.6064    1.1202    1.6862 O   0  0  0  0  0  0  0  0  0  0  0  0
    3.5351    0.3106    0.7115 C   0  0  0  0  0  0  0  0  0  0  0  0
    4.2145   -0.4183   -0.1408 C   0  0  0  0  0  0  0  0  0  0  0  0
    5.6705   -0.4556   -0.2224 C   0  0  0  0  0  0  0  0  0  0  0  0
    6.5011    0.2740    0.5967 C   0  0  0  0  0  0  0  0  0  0  0  0
    7.8846    0.2012    0.4716 C   0  0  0  0  0  0  0  0  0  0  0  0
    8.4854   -0.5983   -0.4704 C   0  0  0  0  0  0  0  0  0  0  0  0
    7.6637   -1.3355   -1.2985 C   0  0  0  0  0  0  0  0  0  0  0  0
    6.3079   -1.2586   -1.1694 C   0  0  0  0  0  0  0  0  0  0  0  0
    5.3165   -2.2163   -2.2458 Cl  0  0  0  0  0  0  0  0  0  0  0  0
   -0.2036    3.1864    0.1375 C   0  0  0  0  0  0  0  0  0  0  0  0
   -1.1522    4.3433   -0.0276 C   0  0  0  0  0  0  0  0  0  0  0  0
   -2.1463    4.4492   -1.1174 C   0  0  0  0  0  0  0  0  0  0  0  0
   -0.9582    5.3537   -1.1203 C   0  0  0  0  0  0  0  0  0  0  0  0
   -6.8851   -2.7462    0.8067 H   0  0  0  0  0  0  0  0  0  0  0  0
   -6.7879   -4.2899    1.7869 H   0  0  0  0  0  0  0  0  0  0  0  0
   -6.2026   -4.2059    0.0405 H   0  0  0  0  0  0  0  0  0  0  0  0
   -5.8437   -1.8381   -0.6937 H   0  0  0  0  0  0  0  0  0  0  0  0
   -4.5925   -0.0876   -1.8447 H   0  0  0  0  0  0  0  0  0  0  0  0
   -0.2965   -2.1049    2.6979 H   0  0  0  0  0  0  0  0  0  0  0  0
   -0.6354    0.4041    2.9695 H   0  0  0  0  0  0  0  0  0  0  0  0
   -2.2976    0.0588    2.6044 H   0  0  0  0  0  0  0  0  0  0  0  0
   -2.6028    1.8749    1.3432 H   0  0  0  0  0  0  0  0  0  0  0  0
   -1.2393    2.4630    2.2903 H   0  0  0  0  0  0  0  0  0  0  0  0
   -0.0172    1.2310   -1.4036 H   0  0  0  0  0  0  0  0  0  0  0  0
   -2.0262    0.6544   -2.3369 H   0  0  0  0  0  0  0  0  0  0  0  0
   -2.6389    1.6805   -1.0672 H   0  0  0  0  0  0  0  0  0  0  0  0
    0.4686   -1.6546   -1.7575 H   0  0  0  0  0  0  0  0  0  0  0  0
   -1.1827   -1.1284   -1.9180 H   0  0  0  0  0  0  0  0  0  0  0  0
   -1.9679   -3.0372   -0.7670 H   0  0  0  0  0  0  0  0  0  0  0  0
   -0.3925   -3.6404   -1.2493 H   0  0  0  0  0  0  0  0  0  0  0  0
    1.7415   -1.0030   -0.7138 H   0  0  0  0  0  0  0  0  0  0  0  0
    4.1337    0.9237    1.3978 H   0  0  0  0  0  0  0  0  0  0  0  0
    3.6819   -1.0416   -0.8399 H   0  0  0  0  0  0  0  0  0  0  0  0
    6.1243    0.9222    1.3575 H   0  0  0  0  0  0  0  0  0  0  0  0
    8.5269    0.7894    1.1324 H   0  0  0  0  0  0  0  0  0  0  0  0
    9.5574   -0.6710   -0.5859 H   0  0  0  0  0  0  0  0  0  0  0  0
    8.1319   -1.9574   -2.0315 H   0  0  0  0  0  0  0  0  0  0  0  0
    0.3506    3.1254   -0.8492 H   0  0  0  0  0  0  0  0  0  0  0  0
    0.5529    3.4227    0.9323 H   0  0  0  0  0  0  0  0  0  0  0  0
   -1.5133    4.8429    0.9282 H   0  0  0  0  0  0  0  0  0  0  0  0
   -3.1626    4.8957   -0.9080 H   0  0  0  0  0  0  0  0  0  0  0  0
   -2.1904    3.7832   -1.9878 H   0  0  0  0  0  0  0  0  0  0  0  0
   -0.1452    5.1742   -1.8437 H   0  0  0  0  0  0  0  0  0  0  0  0
   -1.1593    6.4189   -0.9622 H   0  0  0  0  0  0  0  0  0  0  0  0
  1  2  1  0
  2  3  1  0
  3  4  2  0
  4  5  1  0
  5  6  2  0
  6  7  1  0
  7  8  2  0
  8  9  1  0
  9 10  1  0
 10 11  1  0
 11 12  1  1
 12 13  1  0
 13 14  1  0
 14 15  1  0
 15 16  1  0
 15 17  1  0
 17 18  1  0
 18 19  1  0
 19 20  1  0
 20 21  2  0
 17 22  1  1
 22 23  1  0
 23 24  2  0
 23 25  1  0
 25 26  2  0
 26 27  1  0
 27 28  2  0
 28 29  1  0
 29 30  2  0
 30 31  1  0
 31 32  2  0
 32 33  1  0
 14 34  1  0
 34 35  1  0
 35 36  1  0
 36 37  1  0
  8  3  1  0
 20 10  1  0
 32 27  1  0
 37 35  1  0
 16  6  1  0
 11  7  1  0
 17 11  1  0
  1 38  1  0
  1 39  1  0
  1 40  1  0
  4 41  1  0
  5 42  1  0
 10 43  1  1
 12 44  1  0
 12 45  1  0
 13 46  1  0
 13 47  1  0
 15 48  1  6
 16 49  1  0
 16 50  1  0
 18 51  1  0
 18 52  1  0
 19 53  1  0
 19 54  1  0
 22 55  1  0
 25 56  1  0
 26 57  1  0
 28 58  1  0
 29 59  1  0
 30 60  1  0
 31 61  1  0
 34 62  1  0
 34 63  1  0
 35 64  1  0
 36 65  1  0
 36 66  1  0
 37 67  1  0
 37 68  1  0
M  END
>  <Ligand ID>  (1) 
LIG0004766

>  <Ligand>  (1) 
CHEMBL611139

>  <SMILES>  (1) 
COc1ccc2c3c1O[C@@H]1[C@@]43CCN([C@H](C2)[C@@]4(CCC1=O)NC(=O)/C=C/c1ccccc1Cl)CC1CC1

>  <CID>  (1) 
11849364.0

>  <ChEMBL ID>  (1) 
nan

>  <InChiKey>  (1) 
DAGJGFYYIBDDIY-JSZJOHKHSA-N

>  <InChi>  (1) 
InChI=1S/C30H31ClN2O4/c1-36-23-10-8-20-16-24-30(32-25(35)11-9-19-4-2-3-5-21(19)31)13-12-22(34)28-29(30,26(20)27(23)37-28)14-15-33(24)17-18-6-7-18/h2-5,8-11,18,24,28H,6-7,12-17H2,1H3,(H,32,35)/b11-9+/t24-,28+,29+,30-/m1/s1

>  <IUPAC Name>  (1) 
(E)-N-[(4R,4aS,7aR,12bR)-3-(cyclopropylmethyl)-9-methoxy-7-oxo-2,4,5,6,7a,13-hexahydro-1H-4,12-methanobenzofuro[3,2-e]isoquinolin-4a-yl]-3-(2-chlorophenyl)prop-2-enamide

$$$$
