
     RDKit          3D

 44 44  0  0  0  0  0  0  0  0999 V2000
   -2.3671   -0.4976   -3.1412 C   0  0  0  0  0  0  0  0  0  0  0  0
   -3.0292    0.0479   -2.0439 O   0  0  0  0  0  0  0  0  0  0  0  0
   -2.4528    0.3248   -0.8272 C   0  0  0  0  0  0  0  0  0  0  0  0
   -1.1143    0.0475   -0.6609 C   0  0  0  0  0  0  0  0  0  0  0  0
   -0.4728    0.2993    0.5300 C   0  0  0  0  0  0  0  0  0  0  0  0
   -1.2161    0.8410    1.5562 C   0  0  0  0  0  0  0  0  0  0  0  0
   -2.5740    1.1187    1.3756 C   0  0  0  0  0  0  0  0  0  0  0  0
   -3.2318    0.8752    0.2001 C   0  0  0  0  0  0  0  0  0  0  0  0
   -4.5366    1.1091   -0.0752 O   0  0  0  0  0  0  0  0  0  0  0  0
   -5.6421    0.2716   -0.0124 C   0  0  0  0  0  0  0  0  0  0  0  0
   -5.9923   -0.3380    1.2660 C   0  0  0  0  0  0  0  0  0  0  0  0
   -5.4201   -0.2239    2.3627 O   0  0  0  0  0  0  0  0  0  0  0  0
   -7.1365   -1.1734    1.2675 O   0  0  0  0  0  0  0  0  0  0  0  0
   -3.2015    1.6777    2.4331 F   0  0  0  0  0  0  0  0  0  0  0  0
    0.9717    0.0156    0.7561 C   0  0  0  0  0  0  0  0  0  0  0  0
    1.9756    1.4503    0.3138 P   0  0  0  0  0  0  0  0  0  0  0  0
    1.0051    2.5780   -0.0726 O   0  0  0  0  0  0  0  0  0  0  0  0
    3.0578    1.1730   -1.0824 C   0  0  0  0  0  0  0  0  0  0  0  0
    3.7275   -0.1634   -1.1172 C   0  0  0  0  0  0  0  0  0  0  0  0
    4.5997   -0.4190    0.0580 C   0  0  2  0  0  0  0  0  0  0  0  0
    5.2397   -1.7826   -0.0585 C   0  0  0  0  0  0  0  0  0  0  0  0
    5.9781   -2.0106   -1.0499 O   0  0  0  0  0  0  0  0  0  0  0  0
    5.0243   -2.7610    0.8963 O   0  0  0  0  0  0  0  0  0  0  0  0
    3.8053   -0.3941    1.2648 N   0  0  0  0  0  0  0  0  0  0  0  0
    2.8135    2.0276    1.6713 O   0  0  0  0  0  0  0  0  0  0  0  0
   -1.4566    0.1418   -3.3197 H   0  0  0  0  0  0  0  0  0  0  0  0
   -3.0143   -0.3929   -4.0442 H   0  0  0  0  0  0  0  0  0  0  0  0
   -2.0929   -1.5373   -2.9167 H   0  0  0  0  0  0  0  0  0  0  0  0
   -0.5282   -0.3757   -1.4601 H   0  0  0  0  0  0  0  0  0  0  0  0
   -0.7148    1.0386    2.4894 H   0  0  0  0  0  0  0  0  0  0  0  0
   -6.5319    0.8283   -0.4610 H   0  0  0  0  0  0  0  0  0  0  0  0
   -5.5039   -0.5884   -0.7574 H   0  0  0  0  0  0  0  0  0  0  0  0
   -7.2593   -1.8443    2.0271 H   0  0  0  0  0  0  0  0  0  0  0  0
    1.2759   -0.9070    0.2113 H   0  0  0  0  0  0  0  0  0  0  0  0
    1.0829   -0.2343    1.8528 H   0  0  0  0  0  0  0  0  0  0  0  0
    2.4922    1.3978   -2.0089 H   0  0  0  0  0  0  0  0  0  0  0  0
    3.8642    1.9622   -1.0293 H   0  0  0  0  0  0  0  0  0  0  0  0
    4.3636   -0.1765   -2.0370 H   0  0  0  0  0  0  0  0  0  0  0  0
    2.9973   -0.9966   -1.2794 H   0  0  0  0  0  0  0  0  0  0  0  0
    5.4280    0.3050    0.0727 H   0  0  0  0  0  0  0  0  0  0  0  0
    5.5865   -3.6191    0.8818 H   0  0  0  0  0  0  0  0  0  0  0  0
    3.4866   -1.3891    1.4309 H   0  0  0  0  0  0  0  0  0  0  0  0
    4.4534   -0.1566    2.0549 H   0  0  0  0  0  0  0  0  0  0  0  0
    2.2601    1.9048    2.4826 H   0  0  0  0  0  0  0  0  0  0  0  0
  1  2  1  0
  2  3  1  0
  3  4  2  0
  4  5  1  0
  5  6  2  0
  6  7  1  0
  7  8  2  0
  8  9  1  0
  9 10  1  0
 10 11  1  0
 11 12  2  0
 11 13  1  0
  7 14  1  0
  5 15  1  0
 15 16  1  0
 16 17  2  0
 16 18  1  0
 18 19  1  0
 19 20  1  0
 20 21  1  0
 21 22  2  0
 21 23  1  0
 20 24  1  0
 16 25  1  0
  8  3  1  0
  1 26  1  0
  1 27  1  0
  1 28  1  0
  4 29  1  0
  6 30  1  0
 10 31  1  0
 10 32  1  0
 13 33  1  0
 15 34  1  0
 15 35  1  0
 18 36  1  0
 18 37  1  0
 19 38  1  0
 19 39  1  0
 20 40  1  1
 23 41  1  0
 24 42  1  0
 24 43  1  0
 25 44  1  0
M  END
>  <Ligand ID>  (1) 
LIG0004730

>  <Ligand>  (1) 
US9212196, Derivative 34

>  <SMILES>  (1) 
COc1cc(cc(c1OCC(=O)O)F)CP(=O)(CC[C@H](C(=O)O)N)O

>  <CID>  (1) 
122197964.0

>  <ChEMBL ID>  (1) 
nan

>  <InChiKey>  (1) 
HLWOFNYCURCWQU-SNVBAGLBSA-N

>  <InChi>  (1) 
InChI=1S/C14H19FNO8P/c1-23-11-5-8(4-9(15)13(11)24-6-12(17)18)7-25(21,22)3-2-10(16)14(19)20/h4-5,10H,2-3,6-7,16H2,1H3,(H,17,18)(H,19,20)(H,21,22)/t10-/m1/s1

>  <IUPAC Name>  (1) 
(2R)-2-amino-4-[[4-(carboxymethoxy)-3-fluoro-5-methoxyphenyl]methyl-hydroxyphosphoryl]butanoic acid

$$$$
