
     RDKit          3D

 23 23  0  0  0  0  0  0  0  0999 V2000
    2.8224    0.8506   -1.6060 O   0  0  0  0  0  0  0  0  0  0  0  0
    2.0357    1.0373   -0.4627 C   0  0  0  0  0  0  0  0  0  0  0  0
    1.9053    2.1657    0.0372 O   0  0  0  0  0  0  0  0  0  0  0  0
    1.3332   -0.1083    0.1870 C   0  0  1  0  0  0  0  0  0  0  0  0
    0.5947    0.4478    1.3678 C   0  0  0  0  0  0  0  0  0  0  0  0
   -0.6049   -0.4398    1.4879 C   0  0  0  0  0  0  0  0  0  0  0  0
   -1.0204   -0.6687    0.0525 C   0  0  1  0  0  0  0  0  0  0  0  0
    0.2911   -0.7292   -0.6899 C   0  0  0  0  0  0  0  0  0  0  0  0
   -1.6548   -1.9640    0.0086 N   0  0  0  0  0  0  0  0  0  0  0  0
   -1.8987    0.4018   -0.4691 C   0  0  0  0  0  0  0  0  0  0  0  0
   -3.0696    0.1850   -0.8997 O   0  0  0  0  0  0  0  0  0  0  0  0
   -1.4158    1.6975   -0.4857 O   0  0  0  0  0  0  0  0  0  0  0  0
    3.4866    1.5785   -1.8923 H   0  0  0  0  0  0  0  0  0  0  0  0
    2.1119   -0.8061    0.5025 H   0  0  0  0  0  0  0  0  0  0  0  0
    0.3403    1.5165    1.2193 H   0  0  0  0  0  0  0  0  0  0  0  0
    1.2283    0.3328    2.2836 H   0  0  0  0  0  0  0  0  0  0  0  0
   -1.4244    0.0465    2.0604 H   0  0  0  0  0  0  0  0  0  0  0  0
   -0.2741   -1.4021    1.9288 H   0  0  0  0  0  0  0  0  0  0  0  0
    0.5344   -1.7894   -0.9629 H   0  0  0  0  0  0  0  0  0  0  0  0
    0.1425   -0.1929   -1.6509 H   0  0  0  0  0  0  0  0  0  0  0  0
   -1.0817   -2.6719   -0.4902 H   0  0  0  0  0  0  0  0  0  0  0  0
   -2.6252   -1.8966   -0.4008 H   0  0  0  0  0  0  0  0  0  0  0  0
   -1.7569    2.4089   -1.1254 H   0  0  0  0  0  0  0  0  0  0  0  0
  1  2  1  0
  2  3  2  0
  2  4  1  0
  4  5  1  0
  5  6  1  0
  6  7  1  0
  7  8  1  0
  7  9  1  1
  7 10  1  0
 10 11  2  0
 10 12  1  0
  8  4  1  0
  1 13  1  0
  4 14  1  1
  5 15  1  0
  5 16  1  0
  6 17  1  0
  6 18  1  0
  8 19  1  0
  8 20  1  0
  9 21  1  0
  9 22  1  0
 12 23  1  0
M  END
>  <Ligand ID>  (1) 
LIG0000662

>  <Ligand>  (1) 
(1S,3S)-1-aminocyclopentane-1,3-dicarboxylic acid

>  <SMILES>  (1) 
OC(=O)[C@H]1CC[C@@](C1)(N)C(=O)O

>  <CID>  (1) 
6604704.0

>  <ChEMBL ID>  (1) 
nan

>  <InChiKey>  (1) 
YFYNOWXBIBKGHB-FFWSUHOLSA-N

>  <InChi>  (1) 
InChI=1S/C7H11NO4/c8-7(6(11)12)2-1-4(3-7)5(9)10/h4H,1-3,8H2,(H,9,10)(H,11,12)/t4-,7-/m0/s1

>  <IUPAC Name>  (1) 
(1S,3S)-1-aminocyclopentane-1,3-dicarboxylic acid

$$$$
