
     RDKit          3D

102105  0  0  0  0  0  0  0  0999 V2000
   -3.7581    3.6318    3.2383 C   0  0  0  0  0  0  0  0  0  0  0  0
   -3.5036    2.8489    2.0894 O   0  0  0  0  0  0  0  0  0  0  0  0
   -4.9300    2.4066    1.3448 P   0  0  0  0  0  0  0  0  0  0  0  0
   -5.7756    3.6842    1.2182 O   0  0  0  0  0  0  0  0  0  0  0  0
   -4.7730    1.7641   -0.2361 N   0  0  0  0  0  0  0  0  0  0  0  0
   -3.5687    1.0750   -0.5514 C   0  0  2  0  0  0  0  0  0  0  0  0
   -3.2658   -0.0350    0.3882 C   0  0  0  0  0  0  0  0  0  0  0  0
   -3.9156   -0.2245    1.4533 O   0  0  0  0  0  0  0  0  0  0  0  0
   -2.2042   -0.9530    0.1118 N   0  0  0  0  0  0  0  0  0  0  0  0
   -1.9921   -2.0032    1.1142 C   0  0  2  0  0  0  0  0  0  0  0  0
   -0.6053   -2.4061    1.2792 C   0  0  0  0  0  0  0  0  0  0  0  0
   -0.2998   -3.2361    2.2048 O   0  0  0  0  0  0  0  0  0  0  0  0
    0.4895   -1.9582    0.4858 N   0  0  0  0  0  0  0  0  0  0  0  0
    1.8414   -2.4128    0.7206 C   0  0  2  0  0  0  0  0  0  0  0  0
    2.8208   -1.3306    0.7640 C   0  0  0  0  0  0  0  0  0  0  0  0
    4.0244   -1.6268    1.0043 O   0  0  0  0  0  0  0  0  0  0  0  0
    2.4543    0.0366    0.5423 N   0  0  0  0  0  0  0  0  0  0  0  0
    3.4750    1.1043    0.5958 C   0  0  2  0  0  0  0  0  0  0  0  0
    3.0533    2.0780    1.5990 C   0  0  0  0  0  0  0  0  0  0  0  0
    3.7353    3.0489    2.0120 O   0  0  0  0  0  0  0  0  0  0  0  0
    1.7437    1.9621    2.2047 N   0  0  0  0  0  0  0  0  0  0  0  0
    3.5787    1.6707   -0.7799 C   0  0  0  0  0  0  0  0  0  0  0  0
    4.5446    2.7525   -0.8728 C   0  0  0  0  0  0  0  0  0  0  0  0
    5.8894    2.5825   -1.1537 C   0  0  0  0  0  0  0  0  0  0  0  0
    6.5364    3.7579   -1.1238 N   0  0  0  0  0  0  0  0  0  0  0  0
    5.6468    4.7255   -0.8270 C   0  0  0  0  0  0  0  0  0  0  0  0
    4.4141    4.1261   -0.6691 C   0  0  0  0  0  0  0  0  0  0  0  0
    3.3198    4.9377   -0.3785 C   0  0  0  0  0  0  0  0  0  0  0  0
    3.5053    6.2901   -0.2587 C   0  0  0  0  0  0  0  0  0  0  0  0
    4.7463    6.9031   -0.4146 C   0  0  0  0  0  0  0  0  0  0  0  0
    5.8085    6.0865   -0.7012 C   0  0  0  0  0  0  0  0  0  0  0  0
    2.2316   -3.4615   -0.3104 C   0  0  0  0  0  0  0  0  0  0  0  0
    2.1778   -2.9873   -1.7218 C   0  0  0  0  0  0  0  0  0  0  0  0
    2.5826   -4.1265   -2.6714 C   0  0  0  0  0  0  0  0  0  0  0  0
    3.9228   -4.5953   -2.4170 N   0  0  0  0  0  0  0  0  0  0  0  0
    4.2394   -5.6312   -1.7378 C   0  0  0  0  0  0  0  0  0  0  0  0
    5.6513   -5.9003   -1.6201 N   0  0  0  0  0  0  0  0  0  0  0  0
    3.3099   -6.5032   -1.1116 N   0  0  0  0  0  0  0  0  0  0  0  0
   -2.8538   -3.1672    0.5788 C   0  0  0  0  0  0  0  0  0  0  0  0
   -2.7783   -4.3514    1.4620 C   0  0  0  0  0  0  0  0  0  0  0  0
   -1.8311   -5.3321    1.2653 C   0  0  0  0  0  0  0  0  0  0  0  0
   -1.7275   -6.4522    2.0657 C   0  0  0  0  0  0  0  0  0  0  0  0
   -2.6431   -6.5589    3.1115 C   0  0  0  0  0  0  0  0  0  0  0  0
   -3.6080   -5.5931    3.3388 C   0  0  0  0  0  0  0  0  0  0  0  0
   -3.6776   -4.4846    2.5125 C   0  0  0  0  0  0  0  0  0  0  0  0
   -2.3852    2.0111   -0.7055 C   0  0  0  0  0  0  0  0  0  0  0  0
   -2.6461    2.9809   -1.8068 C   0  0  0  0  0  0  0  0  0  0  0  0
   -3.2839    4.1931   -1.5460 C   0  0  0  0  0  0  0  0  0  0  0  0
   -3.5116    5.0757   -2.6077 C   0  0  0  0  0  0  0  0  0  0  0  0
   -3.1005    4.7303   -3.8922 C   0  0  0  0  0  0  0  0  0  0  0  0
   -2.4678    3.5201   -4.1302 C   0  0  0  0  0  0  0  0  0  0  0  0
   -2.2391    2.6349   -3.0702 C   0  0  0  0  0  0  0  0  0  0  0  0
   -3.4214    5.8867   -5.1780 Cl  0  0  0  0  0  0  0  0  0  0  0  0
   -5.8500    1.3885    2.3592 O   0  0  0  0  0  0  0  0  0  0  0  0
   -6.9208    0.9500    1.5433 C   0  0  0  0  0  0  0  0  0  0  0  0
   -4.8277    3.8735    3.3572 H   0  0  0  0  0  0  0  0  0  0  0  0
   -3.1089    4.5278    3.1670 H   0  0  0  0  0  0  0  0  0  0  0  0
   -3.3537    3.0522    4.0935 H   0  0  0  0  0  0  0  0  0  0  0  0
   -5.6200    1.1917   -0.4646 H   0  0  0  0  0  0  0  0  0  0  0  0
   -3.7089    0.6288   -1.5665 H   0  0  0  0  0  0  0  0  0  0  0  0
   -1.6250   -0.8739   -0.7482 H   0  0  0  0  0  0  0  0  0  0  0  0
   -2.4751   -1.7569    2.0763 H   0  0  0  0  0  0  0  0  0  0  0  0
    0.3072   -1.2834   -0.2861 H   0  0  0  0  0  0  0  0  0  0  0  0
    1.8297   -2.9806    1.6902 H   0  0  0  0  0  0  0  0  0  0  0  0
    1.4476    0.2969    0.3384 H   0  0  0  0  0  0  0  0  0  0  0  0
    4.4063    0.5564    0.8894 H   0  0  0  0  0  0  0  0  0  0  0  0
    1.3118    1.0279    2.3819 H   0  0  0  0  0  0  0  0  0  0  0  0
    1.2004    2.8143    2.4778 H   0  0  0  0  0  0  0  0  0  0  0  0
    2.5774    2.0202   -1.1553 H   0  0  0  0  0  0  0  0  0  0  0  0
    3.9298    0.8264   -1.4474 H   0  0  0  0  0  0  0  0  0  0  0  0
    6.3601    1.6374   -1.3683 H   0  0  0  0  0  0  0  0  0  0  0  0
    7.5788    3.8552   -1.3107 H   0  0  0  0  0  0  0  0  0  0  0  0
    2.3809    4.4266   -0.2681 H   0  0  0  0  0  0  0  0  0  0  0  0
    2.6579    6.9099   -0.0346 H   0  0  0  0  0  0  0  0  0  0  0  0
    4.8348    7.9899   -0.3073 H   0  0  0  0  0  0  0  0  0  0  0  0
    6.8040    6.5279   -0.8325 H   0  0  0  0  0  0  0  0  0  0  0  0
    1.6582   -4.3764   -0.1642 H   0  0  0  0  0  0  0  0  0  0  0  0
    3.3108   -3.6880   -0.0827 H   0  0  0  0  0  0  0  0  0  0  0  0
    2.9129   -2.1764   -1.9234 H   0  0  0  0  0  0  0  0  0  0  0  0
    1.1619   -2.6816   -2.0468 H   0  0  0  0  0  0  0  0  0  0  0  0
    1.8787   -4.9834   -2.5535 H   0  0  0  0  0  0  0  0  0  0  0  0
    2.5359   -3.7832   -3.7214 H   0  0  0  0  0  0  0  0  0  0  0  0
    6.1448   -5.9075   -0.7070 H   0  0  0  0  0  0  0  0  0  0  0  0
    6.1287   -6.0875   -2.5450 H   0  0  0  0  0  0  0  0  0  0  0  0
    3.2460   -6.6177   -0.0726 H   0  0  0  0  0  0  0  0  0  0  0  0
    2.6263   -7.0897   -1.6586 H   0  0  0  0  0  0  0  0  0  0  0  0
   -2.4616   -3.3995   -0.4267 H   0  0  0  0  0  0  0  0  0  0  0  0
   -3.8999   -2.8773    0.4898 H   0  0  0  0  0  0  0  0  0  0  0  0
   -1.1462   -5.1714    0.4191 H   0  0  0  0  0  0  0  0  0  0  0  0
   -0.9702   -7.2015    1.8806 H   0  0  0  0  0  0  0  0  0  0  0  0
   -2.6195   -7.3946    3.7654 H   0  0  0  0  0  0  0  0  0  0  0  0
   -4.3220   -5.7000    4.1716 H   0  0  0  0  0  0  0  0  0  0  0  0
   -4.4467   -3.7504    2.7235 H   0  0  0  0  0  0  0  0  0  0  0  0
   -2.1734    2.6076    0.2040 H   0  0  0  0  0  0  0  0  0  0  0  0
   -1.5005    1.4145   -0.9917 H   0  0  0  0  0  0  0  0  0  0  0  0
   -3.6050    4.4818   -0.5775 H   0  0  0  0  0  0  0  0  0  0  0  0
   -4.0077    6.0112   -2.3864 H   0  0  0  0  0  0  0  0  0  0  0  0
   -2.1581    3.2774   -5.1365 H   0  0  0  0  0  0  0  0  0  0  0  0
   -1.7409    1.7117   -3.3271 H   0  0  0  0  0  0  0  0  0  0  0  0
   -6.6410    0.0712    0.9325 H   0  0  0  0  0  0  0  0  0  0  0  0
   -7.1844    1.7631    0.8059 H   0  0  0  0  0  0  0  0  0  0  0  0
   -7.8395    0.7661    2.1322 H   0  0  0  0  0  0  0  0  0  0  0  0
  1  2  1  0
  2  3  1  0
  3  4  2  0
  3  5  1  0
  5  6  1  0
  6  7  1  0
  7  8  2  0
  7  9  1  0
  9 10  1  0
 10 11  1  0
 11 12  2  0
 11 13  1  0
 13 14  1  0
 14 15  1  0
 15 16  2  0
 15 17  1  0
 17 18  1  0
 18 19  1  0
 19 20  2  0
 19 21  1  0
 18 22  1  0
 22 23  1  0
 23 24  2  0
 24 25  1  0
 25 26  1  0
 26 27  2  0
 27 28  1  0
 28 29  2  0
 29 30  1  0
 30 31  2  0
 14 32  1  0
 32 33  1  0
 33 34  1  0
 34 35  1  0
 35 36  2  3
 36 37  1  0
 36 38  1  0
 10 39  1  0
 39 40  1  0
 40 41  2  0
 41 42  1  0
 42 43  2  0
 43 44  1  0
 44 45  2  0
  6 46  1  0
 46 47  1  0
 47 48  2  0
 48 49  1  0
 49 50  2  0
 50 51  1  0
 51 52  2  0
 50 53  1  0
  3 54  1  0
 54 55  1  0
 27 23  1  0
 45 40  1  0
 52 47  1  0
 31 26  1  0
  1 56  1  0
  1 57  1  0
  1 58  1  0
  5 59  1  0
  6 60  1  6
  9 61  1  0
 10 62  1  1
 13 63  1  0
 14 64  1  1
 17 65  1  0
 18 66  1  1
 21 67  1  0
 21 68  1  0
 22 69  1  0
 22 70  1  0
 24 71  1  0
 25 72  1  0
 28 73  1  0
 29 74  1  0
 30 75  1  0
 31 76  1  0
 32 77  1  0
 32 78  1  0
 33 79  1  0
 33 80  1  0
 34 81  1  0
 34 82  1  0
 37 83  1  0
 37 84  1  0
 38 85  1  0
 38 86  1  0
 39 87  1  0
 39 88  1  0
 41 89  1  0
 42 90  1  0
 43 91  1  0
 44 92  1  0
 45 93  1  0
 46 94  1  0
 46 95  1  0
 48 96  1  0
 49 97  1  0
 51 98  1  0
 52 99  1  0
 55100  1  0
 55101  1  0
 55102  1  0
M  END
>  <Ligand ID>  (1) 
LIG0004910

>  <Ligand>  (1) 
CHEMBL434357

>  <SMILES>  (1) 
COP(=O)(N[C@H](C(=O)N[C@H](C(=O)N[C@H](C(=O)N[C@H](C(=O)N)Cc1c[nH]c2c1cccc2)CCCN=C(N)N)Cc1ccccc1)Cc1ccc(cc1)Cl)OC

>  <CID>  (1) 
44394749.0

>  <ChEMBL ID>  (1) 
nan

>  <InChiKey>  (1) 
FRLWNJNLNAJEOE-YDPTYEFTSA-N

>  <InChi>  (1) 
InChI=1S/C37H47ClN9O7P/c1-53-55(52,54-2)47-32(20-24-14-16-26(38)17-15-24)36(51)46-31(19-23-9-4-3-5-10-23)35(50)44-29(13-8-18-42-37(40)41)34(49)45-30(33(39)48)21-25-22-43-28-12-7-6-11-27(25)28/h3-7,9-12,14-17,22,29-32,43H,8,13,18-21H2,1-2H3,(H2,39,48)(H,44,50)(H,45,49)(H,46,51)(H,47,52)(H4,40,41,42)/t29-,30-,31-,32-/m0/s1

>  <IUPAC Name>  (1) 
(2S)-N-[(2S)-1-amino-3-(1H-indol-3-yl)-1-oxopropan-2-yl]-2-[[(2S)-2-[[(2S)-3-(4-chlorophenyl)-2-(dimethoxyphosphorylamino)propanoyl]amino]-3-phenylpropanoyl]amino]-5-(diaminomethylideneamino)pentanamide

$$$$
