
     RDKit          3D

 49 53  0  0  0  0  0  0  0  0999 V2000
   -1.9658    1.2093    4.8869 C   0  0  0  0  0  0  0  0  0  0  0  0
   -2.1052    0.8341    3.4625 C   0  0  0  0  0  0  0  0  0  0  0  0
   -1.1036    0.5991    2.6321 N   0  0  0  0  0  0  0  0  0  0  0  0
   -1.2519    0.2570    1.3301 C   0  0  0  0  0  0  0  0  0  0  0  0
   -0.0435    0.1306    0.6045 N   0  0  0  0  0  0  0  0  0  0  0  0
    0.4233    1.2684   -0.2119 C   0  0  0  0  0  0  0  0  0  0  0  0
    1.7243    1.7149    0.4534 C   0  0  0  0  0  0  0  0  0  0  0  0
    2.6010    0.5412    0.3338 N   0  0  0  0  0  0  0  0  0  0  0  0
    2.2340   -0.7042    0.9642 C   0  0  0  0  0  0  0  0  0  0  0  0
    0.7986   -1.0369    0.6052 C   0  0  0  0  0  0  0  0  0  0  0  0
    3.7922    0.7224   -0.4215 C   0  0  0  0  0  0  0  0  0  0  0  0
    3.9963    1.8577   -0.9195 O   0  0  0  0  0  0  0  0  0  0  0  0
    4.7704   -0.3327   -0.6402 C   0  0  0  0  0  0  0  0  0  0  0  0
    6.1098   -0.2024   -0.3637 C   0  0  0  0  0  0  0  0  0  0  0  0
    6.7353   -1.3975   -0.6942 C   0  0  0  0  0  0  0  0  0  0  0  0
    5.7099   -2.2035   -1.1640 C   0  0  0  0  0  0  0  0  0  0  0  0
    4.5682   -1.5436   -1.1176 O   0  0  0  0  0  0  0  0  0  0  0  0
   -2.5304    0.1223    0.7581 C   0  0  0  0  0  0  0  0  0  0  0  0
   -3.5531    0.3781    1.6617 C   0  0  0  0  0  0  0  0  0  0  0  0
   -3.3561    0.7170    2.9488 N   0  0  0  0  0  0  0  0  0  0  0  0
   -5.0777    0.1579    0.7850 S   0  0  0  0  0  0  0  0  0  0  0  0
   -4.2570   -0.2791   -0.7854 C   0  0  0  0  0  0  0  0  0  0  0  0
   -2.8589   -0.2144   -0.4852 C   0  0  0  0  0  0  0  0  0  0  0  0
   -2.0851   -0.6107   -1.7392 C   0  0  0  0  0  0  0  0  0  0  0  0
   -2.5235    0.2189   -2.8901 C   0  0  0  0  0  0  0  0  0  0  0  0
   -3.9881    0.0646   -3.2214 C   0  0  0  0  0  0  0  0  0  0  0  0
   -4.7513   -0.6197   -2.1022 C   0  0  0  0  0  0  0  0  0  0  0  0
   -1.9230    2.3149    4.9662 H   0  0  0  0  0  0  0  0  0  0  0  0
   -1.0805    0.7505    5.3635 H   0  0  0  0  0  0  0  0  0  0  0  0
   -2.8647    0.8746    5.4581 H   0  0  0  0  0  0  0  0  0  0  0  0
    0.5906    1.0191   -1.2548 H   0  0  0  0  0  0  0  0  0  0  0  0
   -0.2774    2.1199   -0.1360 H   0  0  0  0  0  0  0  0  0  0  0  0
    1.5317    1.8618    1.5223 H   0  0  0  0  0  0  0  0  0  0  0  0
    2.1443    2.6032   -0.0217 H   0  0  0  0  0  0  0  0  0  0  0  0
    2.8572   -1.5401    0.5828 H   0  0  0  0  0  0  0  0  0  0  0  0
    2.3740   -0.6003    2.0603 H   0  0  0  0  0  0  0  0  0  0  0  0
    0.3849   -1.8162    1.2726 H   0  0  0  0  0  0  0  0  0  0  0  0
    0.8360   -1.4624   -0.4144 H   0  0  0  0  0  0  0  0  0  0  0  0
    6.6366    0.6535    0.0395 H   0  0  0  0  0  0  0  0  0  0  0  0
    7.7837   -1.6462   -0.6074 H   0  0  0  0  0  0  0  0  0  0  0  0
    5.8831   -3.2126   -1.5039 H   0  0  0  0  0  0  0  0  0  0  0  0
   -2.4880   -1.6586   -1.9539 H   0  0  0  0  0  0  0  0  0  0  0  0
   -1.0320   -0.6305   -1.6224 H   0  0  0  0  0  0  0  0  0  0  0  0
   -2.2712    1.2916   -2.7031 H   0  0  0  0  0  0  0  0  0  0  0  0
   -1.9312   -0.0979   -3.7714 H   0  0  0  0  0  0  0  0  0  0  0  0
   -4.4427    1.0505   -3.4225 H   0  0  0  0  0  0  0  0  0  0  0  0
   -4.1371   -0.5586   -4.1268 H   0  0  0  0  0  0  0  0  0  0  0  0
   -5.7971   -0.2576   -2.1816 H   0  0  0  0  0  0  0  0  0  0  0  0
   -4.7891   -1.7200   -2.2156 H   0  0  0  0  0  0  0  0  0  0  0  0
  1  2  1  0
  2  3  2  0
  3  4  1  0
  4  5  1  0
  5  6  1  0
  6  7  1  0
  7  8  1  0
  8  9  1  0
  9 10  1  0
  8 11  1  0
 11 12  2  0
 11 13  1  0
 13 14  2  0
 14 15  1  0
 15 16  2  0
 16 17  1  0
  4 18  2  0
 18 19  1  0
 19 20  2  0
 19 21  1  0
 21 22  1  0
 22 23  2  0
 23 24  1  0
 24 25  1  0
 25 26  1  0
 26 27  1  0
 20  2  1  0
 27 22  1  0
 10  5  1  0
 17 13  1  0
 23 18  1  0
  1 28  1  0
  1 29  1  0
  1 30  1  0
  6 31  1  0
  6 32  1  0
  7 33  1  0
  7 34  1  0
  9 35  1  0
  9 36  1  0
 10 37  1  0
 10 38  1  0
 14 39  1  0
 15 40  1  0
 16 41  1  0
 24 42  1  0
 24 43  1  0
 25 44  1  0
 25 45  1  0
 26 46  1  0
 26 47  1  0
 27 48  1  0
 27 49  1  0
M  END
>  <Ligand ID>  (1) 
LIG0003915

>  <Ligand>  (1) 
ML192

>  <SMILES>  (1) 
Cc1nc(N2CCN(CC2)C(=O)c2ccco2)c2c(n1)sc1c2CCCC1

>  <CID>  (1) 
1434953.0

>  <ChEMBL ID>  (1) 
nan

>  <InChiKey>  (1) 
GDPDARVUXXOYAJ-UHFFFAOYSA-N

>  <InChi>  (1) 
InChI=1S/C20H22N4O2S/c1-13-21-18(17-14-5-2-3-7-16(14)27-19(17)22-13)23-8-10-24(11-9-23)20(25)15-6-4-12-26-15/h4,6,12H,2-3,5,7-11H2,1H3

>  <IUPAC Name>  (1) 
furan-2-yl-[4-(2-methyl-5,6,7,8-tetrahydro-[1]benzothiolo[2,3-d]pyrimidin-4-yl)piperazin-1-yl]methanone

$$$$
