
     RDKit          3D

 73 77  0  0  0  0  0  0  0  0999 V2000
   -0.5666   -0.3923   -1.9079 C   0  0  0  0  0  0  0  0  0  0  0  0
   -1.0068    0.5695   -0.8347 C   0  0  2  0  0  0  0  0  0  0  0  0
    0.0413    1.5791   -0.5876 C   0  0  0  0  0  0  0  0  0  0  0  0
    1.3521    1.0795   -0.1480 C   0  0  0  0  0  0  0  0  0  0  0  0
    1.7341    1.0232    1.1976 C   0  0  0  0  0  0  0  0  0  0  0  0
    2.9739    0.4906    1.2835 N   0  0  0  0  0  0  0  0  0  0  0  0
    3.4043    0.2043    0.0639 C   0  0  0  0  0  0  0  0  0  0  0  0
    2.4225    0.5594   -0.8303 C   0  0  0  0  0  0  0  0  0  0  0  0
    2.6593    0.3630   -2.1528 C   0  0  0  0  0  0  0  0  0  0  0  0
    3.8217   -0.1714   -2.6482 C   0  0  0  0  0  0  0  0  0  0  0  0
    4.7950   -0.5238   -1.7449 C   0  0  0  0  0  0  0  0  0  0  0  0
    4.6258   -0.3507   -0.3601 C   0  0  0  0  0  0  0  0  0  0  0  0
    5.5375   -0.6815    0.4745 O   0  0  0  0  0  0  0  0  0  0  0  0
    6.6325   -1.1433    1.5028 S   0  0  0  0  0  0  0  0  0  0  0  0
    6.6685   -2.6258    1.8465 O   0  0  0  0  0  0  0  0  0  0  0  0
    6.4191   -0.4648    2.8686 O   0  0  0  0  0  0  0  0  0  0  0  0
    8.2715   -0.6439    1.0471 C   0  0  0  0  0  0  0  0  0  0  0  0
    8.8036    0.5538    1.4677 C   0  0  0  0  0  0  0  0  0  0  0  0
   10.0896    0.9346    1.1035 C   0  0  0  0  0  0  0  0  0  0  0  0
   10.8653    0.1122    0.3061 C   0  0  0  0  0  0  0  0  0  0  0  0
   10.3419   -1.0880   -0.1198 C   0  0  0  0  0  0  0  0  0  0  0  0
    9.0550   -1.4612    0.2490 C   0  0  0  0  0  0  0  0  0  0  0  0
   12.2207    0.5243   -0.0705 C   0  0  0  0  0  0  0  0  0  0  0  0
   12.6402    1.6301    0.3522 O   0  0  0  0  0  0  0  0  0  0  0  0
   12.9824   -0.3042   -0.8666 O   0  0  0  0  0  0  0  0  0  0  0  0
   -1.4446   -0.2129    0.2707 N   0  0  0  0  0  0  0  0  0  0  0  0
   -1.9584    0.4430    1.4101 C   0  0  0  0  0  0  0  0  0  0  0  0
   -3.2401    1.1526    1.3192 C   0  0  1  0  0  0  0  0  0  0  0  0
   -4.4314    0.3138    1.0297 C   0  0  0  0  0  0  0  0  0  0  0  0
   -4.3670   -0.9786    0.5754 C   0  0  0  0  0  0  0  0  0  0  0  0
   -5.5069   -1.7063    0.3208 C   0  0  0  0  0  0  0  0  0  0  0  0
   -6.7273   -1.0791    0.5424 C   0  0  0  0  0  0  0  0  0  0  0  0
   -6.8617    0.1963    0.9895 C   0  0  0  0  0  0  0  0  0  0  0  0
   -5.6660    0.8943    1.2346 C   0  0  0  0  0  0  0  0  0  0  0  0
   -8.0455    0.8920    1.2764 N   0  0  0  0  0  0  0  0  0  0  0  0
   -9.3458    1.3022    0.2975 S   0  0  0  0  0  0  0  0  0  0  0  0
  -10.3792    2.0858    1.0945 O   0  0  0  0  0  0  0  0  0  0  0  0
   -8.8125    2.2026   -0.8147 O   0  0  0  0  0  0  0  0  0  0  0  0
  -10.1813   -0.0557   -0.3813 C   0  0  0  0  0  0  0  0  0  0  0  0
  -11.4513   -0.5422   -0.1390 C   0  0  0  0  0  0  0  0  0  0  0  0
  -11.8993   -1.6014   -0.7696 C   0  0  0  0  0  0  0  0  0  0  0  0
  -11.0826   -2.2510   -1.7018 C   0  0  0  0  0  0  0  0  0  0  0  0
   -9.5164   -1.1988   -1.6356 S   0  0  0  0  0  0  0  0  0  0  0  0
   -3.5219    1.7310    2.5831 O   0  0  0  0  0  0  0  0  0  0  0  0
    0.2438   -1.0733   -1.5959 H   0  0  0  0  0  0  0  0  0  0  0  0
   -1.4806   -1.0396   -2.1097 H   0  0  0  0  0  0  0  0  0  0  0  0
   -0.3972    0.1143   -2.8804 H   0  0  0  0  0  0  0  0  0  0  0  0
   -1.8896    1.0938   -1.2671 H   0  0  0  0  0  0  0  0  0  0  0  0
    0.1764    2.1268   -1.5743 H   0  0  0  0  0  0  0  0  0  0  0  0
   -0.3040    2.4193    0.0870 H   0  0  0  0  0  0  0  0  0  0  0  0
    1.1899    1.3332    2.0692 H   0  0  0  0  0  0  0  0  0  0  0  0
    3.5249    0.3210    2.1553 H   0  0  0  0  0  0  0  0  0  0  0  0
    1.9086    0.6469   -2.8582 H   0  0  0  0  0  0  0  0  0  0  0  0
    3.9728   -0.3127   -3.7129 H   0  0  0  0  0  0  0  0  0  0  0  0
    5.7308   -0.9505   -2.0852 H   0  0  0  0  0  0  0  0  0  0  0  0
    8.2220    1.2172    2.0913 H   0  0  0  0  0  0  0  0  0  0  0  0
   10.4458    1.8751    1.4610 H   0  0  0  0  0  0  0  0  0  0  0  0
   10.8950   -1.7585   -0.7344 H   0  0  0  0  0  0  0  0  0  0  0  0
    8.6554   -2.4172   -0.0978 H   0  0  0  0  0  0  0  0  0  0  0  0
   13.8272    0.0423   -1.3201 H   0  0  0  0  0  0  0  0  0  0  0  0
   -0.7690   -0.9510    0.5594 H   0  0  0  0  0  0  0  0  0  0  0  0
   -2.0924   -0.3612    2.1964 H   0  0  0  0  0  0  0  0  0  0  0  0
   -1.1722    1.0914    1.8466 H   0  0  0  0  0  0  0  0  0  0  0  0
   -3.2824    1.9982    0.6185 H   0  0  0  0  0  0  0  0  0  0  0  0
   -3.4285   -1.4555    0.4083 H   0  0  0  0  0  0  0  0  0  0  0  0
   -5.4799   -2.7384   -0.0421 H   0  0  0  0  0  0  0  0  0  0  0  0
   -7.5999   -1.6707    0.3672 H   0  0  0  0  0  0  0  0  0  0  0  0
   -5.7155    1.9337    1.6000 H   0  0  0  0  0  0  0  0  0  0  0  0
   -8.1060    1.2080    2.3171 H   0  0  0  0  0  0  0  0  0  0  0  0
  -12.0710    0.0144    0.6207 H   0  0  0  0  0  0  0  0  0  0  0  0
  -12.9156   -2.0380   -0.6143 H   0  0  0  0  0  0  0  0  0  0  0  0
  -11.1713   -3.0646   -2.3140 H   0  0  0  0  0  0  0  0  0  0  0  0
   -3.2626    1.0352    3.2585 H   0  0  0  0  0  0  0  0  0  0  0  0
  1  2  1  0
  2  3  1  0
  3  4  1  0
  4  5  2  0
  5  6  1  0
  6  7  1  0
  7  8  2  0
  8  9  1  0
  9 10  2  0
 10 11  1  0
 11 12  2  0
 12 13  1  0
 13 14  1  0
 14 15  2  0
 14 16  2  0
 14 17  1  0
 17 18  2  0
 18 19  1  0
 19 20  2  0
 20 21  1  0
 21 22  2  0
 20 23  1  0
 23 24  2  0
 23 25  1  0
  2 26  1  0
 26 27  1  0
 27 28  1  0
 28 29  1  0
 29 30  2  0
 30 31  1  0
 31 32  2  0
 32 33  1  0
 33 34  2  0
 33 35  1  0
 35 36  1  0
 36 37  2  0
 36 38  2  0
 36 39  1  0
 39 40  2  0
 40 41  1  0
 41 42  2  0
 42 43  1  0
 28 44  1  0
  8  4  1  0
 22 17  1  0
 34 29  1  0
 43 39  1  0
 12  7  1  0
  1 45  1  0
  1 46  1  0
  1 47  1  0
  2 48  1  6
  3 49  1  0
  3 50  1  0
  5 51  1  0
  6 52  1  0
  9 53  1  0
 10 54  1  0
 11 55  1  0
 18 56  1  0
 19 57  1  0
 21 58  1  0
 22 59  1  0
 25 60  1  0
 26 61  1  0
 27 62  1  0
 27 63  1  0
 28 64  1  6
 30 65  1  0
 31 66  1  0
 32 67  1  0
 34 68  1  0
 35 69  1  0
 40 70  1  0
 41 71  1  0
 42 72  1  0
 44 73  1  0
M  END
>  <Ligand ID>  (1) 
LIG0002226

>  <Ligand>  (1) 
CHEMBL362763

>  <SMILES>  (1) 
C[C@H](Cc1c[nH]c2c1cccc2OS(=O)(=O)c1ccc(cc1)C(=O)O)NC[C@@H](c1cccc(c1)NS(=O)(=O)c1cccs1)O

>  <CID>  (1) 
44396738.0

>  <ChEMBL ID>  (1) 
nan

>  <InChiKey>  (1) 
BSGXQRKXXHVKLG-BCHFMIIMSA-N

>  <InChi>  (1) 
InChI=1S/C30H29N3O8S3/c1-19(31-18-26(34)21-5-2-6-23(16-21)33-43(37,38)28-9-4-14-42-28)15-22-17-32-29-25(22)7-3-8-27(29)41-44(39,40)24-12-10-20(11-13-24)30(35)36/h2-14,16-17,19,26,31-34H,15,18H2,1H3,(H,35,36)/t19-,26+/m1/s1

>  <IUPAC Name>  (1) 
4-[[3-[(2R)-2-[[(2R)-2-hydroxy-2-[3-(thiophen-2-ylsulfonylamino)phenyl]ethyl]amino]propyl]-1H-indol-7-yl]oxysulfonyl]benzoic acid

$$$$
