
     RDKit          3D

 24 23  0  0  0  0  0  0  0  0999 V2000
    3.2625    1.0800   -0.4383 C   0  0  0  0  0  0  0  0  0  0  0  0
    1.7281    1.0143   -0.3521 C   0  0  0  0  0  0  0  0  0  0  0  0
    1.4549    0.3913    0.9590 C   0  0  0  0  0  0  0  0  0  0  0  0
    0.7984   -0.7381    1.1505 C   0  0  0  0  0  0  0  0  0  0  0  0
    0.2183   -1.5821    0.0818 C   0  0  0  0  0  0  0  0  0  0  0  0
   -1.2867   -1.6499    0.3610 C   0  0  0  0  0  0  0  0  0  0  0  0
   -1.8672   -0.2870    0.3318 C   0  0  0  0  0  0  0  0  0  0  0  0
   -2.8146   -0.0398   -0.5531 C   0  0  0  0  0  0  0  0  0  0  0  0
   -3.4089    1.2718   -0.6184 C   0  0  0  0  0  0  0  0  0  0  0  0
   -3.0596    2.2082    0.1428 O   0  0  0  0  0  0  0  0  0  0  0  0
    3.5877    1.6827    0.4278 H   0  0  0  0  0  0  0  0  0  0  0  0
    3.5891    0.0106   -0.3260 H   0  0  0  0  0  0  0  0  0  0  0  0
    3.5779    1.4755   -1.4236 H   0  0  0  0  0  0  0  0  0  0  0  0
    1.3091    2.0600   -0.4140 H   0  0  0  0  0  0  0  0  0  0  0  0
    1.4392    0.4389   -1.2311 H   0  0  0  0  0  0  0  0  0  0  0  0
    1.8278    0.9098    1.8394 H   0  0  0  0  0  0  0  0  0  0  0  0
    0.6591   -1.1007    2.1789 H   0  0  0  0  0  0  0  0  0  0  0  0
    0.4125   -1.2735   -0.9367 H   0  0  0  0  0  0  0  0  0  0  0  0
    0.6317   -2.6182    0.2563 H   0  0  0  0  0  0  0  0  0  0  0  0
   -1.4829   -2.0967    1.3535 H   0  0  0  0  0  0  0  0  0  0  0  0
   -1.7242   -2.3068   -0.4051 H   0  0  0  0  0  0  0  0  0  0  0  0
   -1.5102    0.4496    1.0165 H   0  0  0  0  0  0  0  0  0  0  0  0
   -3.1511   -0.8090   -1.2302 H   0  0  0  0  0  0  0  0  0  0  0  0
   -4.1912    1.5094   -1.3348 H   0  0  0  0  0  0  0  0  0  0  0  0
  1  2  1  0
  2  3  1  0
  3  4  2  0
  4  5  1  0
  5  6  1  0
  6  7  1  0
  7  8  2  0
  8  9  1  0
  9 10  2  0
  1 11  1  0
  1 12  1  0
  1 13  1  0
  2 14  1  0
  2 15  1  0
  3 16  1  0
  4 17  1  0
  5 18  1  0
  5 19  1  0
  6 20  1  0
  6 21  1  0
  7 22  1  0
  8 23  1  0
  9 24  1  0
M  END
>  <Ligand ID>  (1) 
LIG0000167

>  <Ligand>  (1) 
trans-2,cis-6-Nonadienal

>  <SMILES>  (1) 
CC/C=C\CC/C=C/C=O

>  <CID>  (1) 
643731.0

>  <ChEMBL ID>  (1) 
nan

>  <InChiKey>  (1) 
HZYHMHHBBBSGHB-ODYTWBPASA-N

>  <InChi>  (1) 
InChI=1S/C9H14O/c1-2-3-4-5-6-7-8-9-10/h3-4,7-9H,2,5-6H2,1H3/b4-3-,8-7+

>  <IUPAC Name>  (1) 
(2E,6Z)-nona-2,6-dienal

$$$$
