
     RDKit          3D

 16 16  0  0  0  0  0  0  0  0999 V2000
    2.7261    1.4086   -0.3373 O   0  0  0  0  0  0  0  0  0  0  0  0
    1.6356    0.5306   -0.1819 C   0  0  0  0  0  0  0  0  0  0  0  0
    1.8836   -0.8172   -0.1032 C   0  0  0  0  0  0  0  0  0  0  0  0
    0.8264   -1.7069    0.0503 C   0  0  0  0  0  0  0  0  0  0  0  0
   -0.4671   -1.2924    0.1272 C   0  0  0  0  0  0  0  0  0  0  0  0
   -0.6935    0.0848    0.0445 C   0  0  0  0  0  0  0  0  0  0  0  0
    0.3379    0.9862   -0.1077 C   0  0  0  0  0  0  0  0  0  0  0  0
   -2.0513    0.5976    0.1195 C   0  0  0  0  0  0  0  0  0  0  0  0
   -2.2996    1.8474    0.0479 O   0  0  0  0  0  0  0  0  0  0  0  0
   -3.1557   -0.2255    0.2719 O   0  0  0  0  0  0  0  0  0  0  0  0
    2.5361    2.4102   -0.2802 H   0  0  0  0  0  0  0  0  0  0  0  0
    2.9072   -1.1776   -0.1616 H   0  0  0  0  0  0  0  0  0  0  0  0
    1.0428   -2.7613    0.1100 H   0  0  0  0  0  0  0  0  0  0  0  0
   -1.2998   -1.9924    0.2480 H   0  0  0  0  0  0  0  0  0  0  0  0
    0.1629    2.0523   -0.1717 H   0  0  0  0  0  0  0  0  0  0  0  0
   -4.0916    0.0557    0.0050 H   0  0  0  0  0  0  0  0  0  0  0  0
  1  2  1  0
  2  3  2  0
  3  4  1  0
  4  5  2  0
  5  6  1  0
  6  7  2  0
  6  8  1  0
  8  9  2  0
  8 10  1  0
  7  2  1  0
  1 11  1  0
  3 12  1  0
  4 13  1  0
  5 14  1  0
  7 15  1  0
 10 16  1  0
M  END
>  <Ligand ID>  (1) 
LIG0005865

>  <Ligand>  (1) 
3-Hydroxybenzoic acid

>  <SMILES>  (1) 
Oc1cccc(c1)C(=O)O

>  <CID>  (1) 
7420.0

>  <ChEMBL ID>  (1) 
nan

>  <InChiKey>  (1) 
IJFXRHURBJZNAO-UHFFFAOYSA-N

>  <InChi>  (1) 
InChI=1S/C7H6O3/c8-6-3-1-2-5(4-6)7(9)10/h1-4,8H,(H,9,10)

>  <IUPAC Name>  (1) 
3-hydroxybenzoic acid

$$$$
