
     RDKit          3D

209217  0  0  0  0  0  0  0  0999 V2000
   12.9363   -0.2760   -1.5409 N   0  0  0  0  0  0  0  0  0  0  0  0
   11.6347    0.3447   -1.6398 C   0  0  0  0  0  0  0  0  0  0  0  0
   11.4475    1.4882   -1.1143 N   0  0  0  0  0  0  0  0  0  0  0  0
   10.5569   -0.3070   -2.3142 N   0  0  0  0  0  0  0  0  0  0  0  0
    9.2086    0.2767   -2.2222 C   0  0  0  0  0  0  0  0  0  0  0  0
    8.6999    0.1424   -0.8037 C   0  0  0  0  0  0  0  0  0  0  0  0
    7.3144    0.7126   -0.6077 C   0  0  0  0  0  0  0  0  0  0  0  0
    6.2580    0.0800   -1.4293 C   0  0  2  0  0  0  0  0  0  0  0  0
    4.9145    0.5921   -1.3296 N   0  0  0  0  0  0  0  0  0  0  0  0
    4.4661    1.8742   -1.7145 C   0  0  0  0  0  0  0  0  0  0  0  0
    5.3203    2.6732   -2.1692 O   0  0  0  0  0  0  0  0  0  0  0  0
    3.0668    2.1914   -1.5510 C   0  0  1  0  0  0  0  0  0  0  0  0
    2.3792    1.3294   -0.5405 C   0  0  0  0  0  0  0  0  0  0  0  0
    3.1611    1.1565    0.9959 S   0  0  0  0  0  0  0  0  0  0  0  0
    3.7439   -0.3480    1.6371 C   0  0  0  0  0  0  0  0  0  0  0  0
    4.8190   -1.1838    1.2514 C   0  0  0  0  0  0  0  0  0  0  0  0
    4.9296   -2.1444    2.2195 O   0  0  0  0  0  0  0  0  0  0  0  0
    5.8230   -1.5380    0.3765 N   0  0  0  0  0  0  0  0  0  0  0  0
    5.9759   -1.3776   -1.0388 C   0  0  0  0  0  0  0  0  0  0  0  0
    6.8313   -2.5413    0.8989 C   0  0  1  0  0  0  0  0  0  0  0  0
    7.3576   -2.3462    2.2435 C   0  0  0  0  0  0  0  0  0  0  0  0
    8.0695   -1.1155    2.5868 C   0  0  0  0  0  0  0  0  0  0  0  0
    7.6229    0.0398    3.2277 C   0  0  0  0  0  0  0  0  0  0  0  0
    8.6508    0.9005    3.3074 N   0  0  0  0  0  0  0  0  0  0  0  0
    9.7638    0.3862    2.7568 C   0  0  0  0  0  0  0  0  0  0  0  0
    9.4168   -0.8588    2.3085 C   0  0  0  0  0  0  0  0  0  0  0  0
   10.3846   -1.6265    1.7012 C   0  0  0  0  0  0  0  0  0  0  0  0
   11.6862   -1.2217    1.5142 C   0  0  0  0  0  0  0  0  0  0  0  0
   12.0294    0.0262    1.9643 C   0  0  0  0  0  0  0  0  0  0  0  0
   11.0752    0.8215    2.5802 C   0  0  0  0  0  0  0  0  0  0  0  0
    6.1487   -3.9238    0.8505 C   0  0  0  0  0  0  0  0  0  0  0  0
    6.7953   -4.8286    1.3478 O   0  0  0  0  0  0  0  0  0  0  0  0
    4.9056   -4.1249    0.2992 N   0  0  0  0  0  0  0  0  0  0  0  0
    4.0790   -5.2499    0.0526 C   0  0  1  0  0  0  0  0  0  0  0  0
    4.1244   -6.3832    1.0149 C   0  0  0  0  0  0  0  0  0  0  0  0
    5.4246   -7.0778    0.9909 C   0  0  0  0  0  0  0  0  0  0  0  0
    5.9339   -7.5340    2.0805 O   0  0  0  0  0  0  0  0  0  0  0  0
    6.0993   -7.2387   -0.2596 N   0  0  0  0  0  0  0  0  0  0  0  0
    2.7028   -4.8602   -0.3341 C   0  0  0  0  0  0  0  0  0  0  0  0
    2.4705   -3.6218   -0.4773 O   0  0  0  0  0  0  0  0  0  0  0  0
    1.6820   -5.7763   -0.5376 N   0  0  0  0  0  0  0  0  0  0  0  0
    0.3070   -5.3801   -0.9077 C   0  0  1  0  0  0  0  0  0  0  0  0
   -0.1721   -6.3203   -1.9614 C   0  0  0  0  0  0  0  0  0  0  0  0
   -0.5534   -5.4993    0.3236 C   0  0  0  0  0  0  0  0  0  0  0  0
    0.1054   -5.7713    1.3772 O   0  0  0  0  0  0  0  0  0  0  0  0
   -1.9135   -5.3447    0.4181 N   0  0  0  0  0  0  0  0  0  0  0  0
   -2.8229   -5.5074    1.4822 C   0  0  1  0  0  0  0  0  0  0  0  0
   -2.4683   -6.2577    2.7313 C   0  0  0  0  0  0  0  0  0  0  0  0
   -2.1653   -7.6758    2.6006 C   0  0  0  0  0  0  0  0  0  0  0  0
   -0.9812   -8.3326    2.6672 C   0  0  0  0  0  0  0  0  0  0  0  0
   -0.8276   -9.6921    2.4703 C   0  0  0  0  0  0  0  0  0  0  0  0
   -1.9045  -10.4936    2.1846 C   0  0  0  0  0  0  0  0  0  0  0  0
   -3.1369   -9.8528    2.1105 C   0  0  0  0  0  0  0  0  0  0  0  0
   -3.2812   -8.5032    2.3064 C   0  0  0  0  0  0  0  0  0  0  0  0
   -3.6955   -4.3635    1.7897 C   0  0  0  0  0  0  0  0  0  0  0  0
   -4.4806   -4.3915    2.8018 O   0  0  0  0  0  0  0  0  0  0  0  0
   -3.7207   -3.1932    0.9992 N   0  0  0  0  0  0  0  0  0  0  0  0
   -4.5955   -2.0434    1.3408 C   0  0  1  0  0  0  0  0  0  0  0  0
   -3.8591   -0.7774    1.3707 C   0  0  0  0  0  0  0  0  0  0  0  0
   -4.8751    0.6127    1.8549 S   0  0  0  0  0  0  0  0  0  0  0  0
   -6.1470    1.4081    0.4018 S   0  0  0  0  0  0  0  0  0  0  0  0
   -5.2755    2.7979   -0.4639 C   0  0  0  0  0  0  0  0  0  0  0  0
   -5.0947    3.9307    0.5255 C   0  0  1  0  0  0  0  0  0  0  0  0
   -4.4516    5.1356    0.0206 C   0  0  0  0  0  0  0  0  0  0  0  0
   -5.1946    6.1639   -0.1590 O   0  0  0  0  0  0  0  0  0  0  0  0
   -3.0822    5.3100   -0.2916 N   0  0  0  0  0  0  0  0  0  0  0  0
   -2.5921    6.6381   -0.7593 C   0  0  2  0  0  0  0  0  0  0  0  0
   -1.2307    6.4595   -1.2998 C   0  0  0  0  0  0  0  0  0  0  0  0
   -0.4359    7.4519   -1.4367 O   0  0  0  0  0  0  0  0  0  0  0  0
   -0.6895    5.2088   -1.7173 N   0  0  0  0  0  0  0  0  0  0  0  0
    0.7578    5.2092   -2.0162 C   0  0  1  0  0  0  0  0  0  0  0  0
    1.2964    3.8361   -1.9138 C   0  0  0  0  0  0  0  0  0  0  0  0
    0.4754    2.8974   -2.1219 O   0  0  0  0  0  0  0  0  0  0  0  0
    2.6758    3.5685   -1.5847 N   0  0  0  0  0  0  0  0  0  0  0  0
    0.8085    5.5652   -3.5273 C   0  0  0  0  0  0  0  0  0  0  0  0
    2.2532    5.5989   -3.9524 C   0  0  0  0  0  0  0  0  0  0  0  0
    2.8841    4.4797   -4.4348 C   0  0  0  0  0  0  0  0  0  0  0  0
    4.2043    4.4397   -4.8255 C   0  0  0  0  0  0  0  0  0  0  0  0
    4.9278    5.6326   -4.7133 C   0  0  0  0  0  0  0  0  0  0  0  0
    4.3343    6.7838   -4.2328 C   0  0  0  0  0  0  0  0  0  0  0  0
    3.0031    6.7694   -3.8542 C   0  0  0  0  0  0  0  0  0  0  0  0
    6.9481    5.6470   -5.2846 I   0  0  0  0  0  0  0  0  0  0  0  0
   -2.5601    7.5126    0.4914 C   0  0  0  0  0  0  0  0  0  0  0  0
   -2.1961    8.9055    0.1991 C   0  0  0  0  0  0  0  0  0  0  0  0
   -2.0374    9.6134   -0.9533 C   0  0  0  0  0  0  0  0  0  0  0  0
   -1.7635   10.9210   -0.6872 N   0  0  0  0  0  0  0  0  0  0  0  0
   -1.7588   10.9991    0.6444 C   0  0  0  0  0  0  0  0  0  0  0  0
   -2.0143    9.8197    1.1993 N   0  0  0  0  0  0  0  0  0  0  0  0
   -6.4357    4.3414    0.9770 N   0  0  0  0  0  0  0  0  0  0  0  0
   -6.7063    4.1284    2.3518 C   0  0  0  0  0  0  0  0  0  0  0  0
   -5.8506    3.6033    3.1489 O   0  0  0  0  0  0  0  0  0  0  0  0
   -8.0021    4.4920    3.0076 C   0  0  2  0  0  0  0  0  0  0  0  0
   -8.2404    5.9872    2.9313 C   0  0  0  0  0  0  0  0  0  0  0  0
   -9.5049    6.3168    3.6068 C   0  0  0  0  0  0  0  0  0  0  0  0
  -10.7439    6.3307    3.0195 C   0  0  0  0  0  0  0  0  0  0  0  0
  -11.8336    6.6813    3.8041 C   0  0  0  0  0  0  0  0  0  0  0  0
  -11.7478    7.0106    5.1230 C   0  0  0  0  0  0  0  0  0  0  0  0
  -10.4904    6.9940    5.7136 C   0  0  0  0  0  0  0  0  0  0  0  0
   -9.4127    6.6541    4.9590 C   0  0  0  0  0  0  0  0  0  0  0  0
  -12.8186    7.3610    5.9250 O   0  0  0  0  0  0  0  0  0  0  0  0
   -7.9309    4.1115    4.4064 N   0  0  0  0  0  0  0  0  0  0  0  0
   -5.6965   -2.0864    0.3768 C   0  0  0  0  0  0  0  0  0  0  0  0
   -6.6148   -1.2331    0.2716 O   0  0  0  0  0  0  0  0  0  0  0  0
   -5.8119   -3.1843   -0.5701 N   0  0  0  0  0  0  0  0  0  0  0  0
   -6.8823   -3.2773   -1.5196 C   0  0  2  0  0  0  0  0  0  0  0  0
   -7.8619   -4.2911   -0.9753 C   0  0  0  0  0  0  0  0  0  0  0  0
   -8.9232   -4.5860   -1.5307 O   0  0  0  0  0  0  0  0  0  0  0  0
   -7.5654   -4.9625    0.2637 N   0  0  0  0  0  0  0  0  0  0  0  0
   -6.4134   -3.6498   -2.8789 C   0  0  0  0  0  0  0  0  0  0  0  0
   -7.5039   -3.7685   -3.8768 C   0  0  0  0  0  0  0  0  0  0  0  0
   -8.0572   -5.0399   -4.0758 C   0  0  0  0  0  0  0  0  0  0  0  0
   -9.0948   -5.2272   -4.9809 C   0  0  0  0  0  0  0  0  0  0  0  0
   -9.5955   -4.1731   -5.6974 C   0  0  0  0  0  0  0  0  0  0  0  0
   -9.0279   -2.9195   -5.4815 C   0  0  0  0  0  0  0  0  0  0  0  0
   -8.0018   -2.7083   -4.5909 C   0  0  0  0  0  0  0  0  0  0  0  0
  -10.6334   -4.3595   -6.6019 O   0  0  0  0  0  0  0  0  0  0  0  0
   13.5157   -0.1502   -0.6775 H   0  0  0  0  0  0  0  0  0  0  0  0
   13.3161   -0.8631   -2.3253 H   0  0  0  0  0  0  0  0  0  0  0  0
   12.2421    1.9558   -0.6207 H   0  0  0  0  0  0  0  0  0  0  0  0
   10.7351   -1.1847   -2.8653 H   0  0  0  0  0  0  0  0  0  0  0  0
    8.5853   -0.2301   -2.9517 H   0  0  0  0  0  0  0  0  0  0  0  0
    9.3642    1.3449   -2.4605 H   0  0  0  0  0  0  0  0  0  0  0  0
    9.3851    0.7440   -0.1448 H   0  0  0  0  0  0  0  0  0  0  0  0
    8.7703   -0.9046   -0.5319 H   0  0  0  0  0  0  0  0  0  0  0  0
    7.3498    1.8204   -0.6883 H   0  0  0  0  0  0  0  0  0  0  0  0
    7.0520    0.5367    0.4615 H   0  0  0  0  0  0  0  0  0  0  0  0
    6.5695    0.1672   -2.4672 H   0  0  0  0  0  0  0  0  0  0  0  0
    4.1269   -0.0476   -0.9749 H   0  0  0  0  0  0  0  0  0  0  0  0
    2.5881    1.7876   -2.5809 H   0  0  0  0  0  0  0  0  0  0  0  0
    1.3667    1.8544   -0.3517 H   0  0  0  0  0  0  0  0  0  0  0  0
    2.1095    0.3315   -1.0221 H   0  0  0  0  0  0  0  0  0  0  0  0
    2.8052   -1.0730    1.6033 H   0  0  0  0  0  0  0  0  0  0  0  0
    3.7158   -0.1885    2.7959 H   0  0  0  0  0  0  0  0  0  0  0  0
    5.1824   -1.7954   -1.6558 H   0  0  0  0  0  0  0  0  0  0  0  0
    6.9117   -1.9047   -1.4058 H   0  0  0  0  0  0  0  0  0  0  0  0
    7.6372   -2.7117    0.1836 H   0  0  0  0  0  0  0  0  0  0  0  0
    6.6647   -2.6600    3.0398 H   0  0  0  0  0  0  0  0  0  0  0  0
    8.1927   -3.1843    2.3879 H   0  0  0  0  0  0  0  0  0  0  0  0
    6.5996    0.1836    3.5841 H   0  0  0  0  0  0  0  0  0  0  0  0
    8.6529    1.8705    3.7337 H   0  0  0  0  0  0  0  0  0  0  0  0
   10.0844   -2.6188    1.3456 H   0  0  0  0  0  0  0  0  0  0  0  0
   12.4302   -1.8435    1.0356 H   0  0  0  0  0  0  0  0  0  0  0  0
   13.0371    0.4010    1.8462 H   0  0  0  0  0  0  0  0  0  0  0  0
   11.2976    1.7998    2.9432 H   0  0  0  0  0  0  0  0  0  0  0  0
    4.4253   -3.1985   -0.0645 H   0  0  0  0  0  0  0  0  0  0  0  0
    4.6112   -5.7791   -0.8757 H   0  0  0  0  0  0  0  0  0  0  0  0
    3.2749   -7.0993    0.8598 H   0  0  0  0  0  0  0  0  0  0  0  0
    3.9771   -6.0477    2.0804 H   0  0  0  0  0  0  0  0  0  0  0  0
    7.0027   -6.7714   -0.5022 H   0  0  0  0  0  0  0  0  0  0  0  0
    5.7220   -7.8537   -1.0337 H   0  0  0  0  0  0  0  0  0  0  0  0
    1.8003   -6.8230   -0.4521 H   0  0  0  0  0  0  0  0  0  0  0  0
    0.2666   -4.3289   -1.2653 H   0  0  0  0  0  0  0  0  0  0  0  0
   -0.7969   -5.8345   -2.7389 H   0  0  0  0  0  0  0  0  0  0  0  0
   -0.6557   -7.2213   -1.5176 H   0  0  0  0  0  0  0  0  0  0  0  0
    0.7283   -6.7344   -2.5009 H   0  0  0  0  0  0  0  0  0  0  0  0
   -2.3986   -5.0316   -0.5175 H   0  0  0  0  0  0  0  0  0  0  0  0
   -3.5516   -6.3478    1.0105 H   0  0  0  0  0  0  0  0  0  0  0  0
   -1.6319   -5.7084    3.2468 H   0  0  0  0  0  0  0  0  0  0  0  0
   -3.3294   -6.1937    3.4610 H   0  0  0  0  0  0  0  0  0  0  0  0
   -0.0909   -7.7843    2.9159 H   0  0  0  0  0  0  0  0  0  0  0  0
    0.1821  -10.1256    2.5411 H   0  0  0  0  0  0  0  0  0  0  0  0
   -1.7989  -11.5504    2.0263 H   0  0  0  0  0  0  0  0  0  0  0  0
   -3.9886  -10.4847    1.8891 H   0  0  0  0  0  0  0  0  0  0  0  0
   -4.2717   -8.0978    2.2290 H   0  0  0  0  0  0  0  0  0  0  0  0
   -3.1016   -3.1295    0.1415 H   0  0  0  0  0  0  0  0  0  0  0  0
   -4.9951   -2.2463    2.3850 H   0  0  0  0  0  0  0  0  0  0  0  0
   -2.9411   -0.8132    2.0243 H   0  0  0  0  0  0  0  0  0  0  0  0
   -3.4665   -0.5288    0.3321 H   0  0  0  0  0  0  0  0  0  0  0  0
   -4.3607    2.3726   -0.8555 H   0  0  0  0  0  0  0  0  0  0  0  0
   -5.8979    3.1630   -1.2955 H   0  0  0  0  0  0  0  0  0  0  0  0
   -4.5536    3.5360    1.4139 H   0  0  0  0  0  0  0  0  0  0  0  0
   -2.4316    4.5076   -0.1845 H   0  0  0  0  0  0  0  0  0  0  0  0
   -3.3179    7.0632   -1.4090 H   0  0  0  0  0  0  0  0  0  0  0  0
   -1.2636    4.3483   -1.8095 H   0  0  0  0  0  0  0  0  0  0  0  0
    1.2734    5.9864   -1.4838 H   0  0  0  0  0  0  0  0  0  0  0  0
    3.2888    4.3807   -1.3928 H   0  0  0  0  0  0  0  0  0  0  0  0
    0.3754    6.5770   -3.6392 H   0  0  0  0  0  0  0  0  0  0  0  0
    0.2427    4.8418   -4.1153 H   0  0  0  0  0  0  0  0  0  0  0  0
    2.2811    3.5729   -4.5013 H   0  0  0  0  0  0  0  0  0  0  0  0
    4.6917    3.5459   -5.2087 H   0  0  0  0  0  0  0  0  0  0  0  0
    4.9575    7.6777   -4.1666 H   0  0  0  0  0  0  0  0  0  0  0  0
    2.5593    7.6845   -3.4836 H   0  0  0  0  0  0  0  0  0  0  0  0
   -3.6204    7.5430    0.8736 H   0  0  0  0  0  0  0  0  0  0  0  0
   -1.9020    7.0688    1.2657 H   0  0  0  0  0  0  0  0  0  0  0  0
   -2.1283    9.2791   -1.9817 H   0  0  0  0  0  0  0  0  0  0  0  0
   -1.5904   11.7070   -1.3345 H   0  0  0  0  0  0  0  0  0  0  0  0
   -1.5691   11.9156    1.2212 H   0  0  0  0  0  0  0  0  0  0  0  0
   -7.1412    4.7536    0.3496 H   0  0  0  0  0  0  0  0  0  0  0  0
   -8.8210    3.9405    2.5375 H   0  0  0  0  0  0  0  0  0  0  0  0
   -8.3710    6.2444    1.8531 H   0  0  0  0  0  0  0  0  0  0  0  0
   -7.3681    6.4886    3.3983 H   0  0  0  0  0  0  0  0  0  0  0  0
  -10.8181    6.0690    1.9781 H   0  0  0  0  0  0  0  0  0  0  0  0
  -12.8395    6.6999    3.3591 H   0  0  0  0  0  0  0  0  0  0  0  0
  -10.3757    7.2521    6.7767 H   0  0  0  0  0  0  0  0  0  0  0  0
   -8.4413    6.6520    5.4528 H   0  0  0  0  0  0  0  0  0  0  0  0
  -12.8659    7.1996    6.9229 H   0  0  0  0  0  0  0  0  0  0  0  0
   -8.8406    4.2085    4.8906 H   0  0  0  0  0  0  0  0  0  0  0  0
   -7.2024    4.5889    4.9503 H   0  0  0  0  0  0  0  0  0  0  0  0
   -5.0899   -3.9591   -0.5766 H   0  0  0  0  0  0  0  0  0  0  0  0
   -7.4112   -2.2791   -1.5477 H   0  0  0  0  0  0  0  0  0  0  0  0
   -7.7904   -4.4000    1.1272 H   0  0  0  0  0  0  0  0  0  0  0  0
   -7.1704   -5.9074    0.3251 H   0  0  0  0  0  0  0  0  0  0  0  0
   -5.7332   -2.8563   -3.2768 H   0  0  0  0  0  0  0  0  0  0  0  0
   -5.8023   -4.5882   -2.8466 H   0  0  0  0  0  0  0  0  0  0  0  0
   -7.6951   -5.9118   -3.5501 H   0  0  0  0  0  0  0  0  0  0  0  0
   -9.5048   -6.2083   -5.1174 H   0  0  0  0  0  0  0  0  0  0  0  0
   -9.4143   -2.0864   -6.0491 H   0  0  0  0  0  0  0  0  0  0  0  0
   -7.5647   -1.7230   -4.4293 H   0  0  0  0  0  0  0  0  0  0  0  0
  -11.5449   -4.6454   -6.2525 H   0  0  0  0  0  0  0  0  0  0  0  0
  1  2  1  0
  2  3  2  3
  2  4  1  0
  4  5  1  0
  5  6  1  0
  6  7  1  0
  7  8  1  0
  8  9  1  0
  9 10  1  0
 10 11  2  0
 10 12  1  0
 12 13  1  0
 13 14  1  0
 14 15  1  0
 15 16  1  0
 16 17  2  0
 16 18  1  0
 18 19  1  0
 18 20  1  0
 20 21  1  0
 21 22  1  0
 22 23  2  0
 23 24  1  0
 24 25  1  0
 25 26  2  0
 26 27  1  0
 27 28  2  0
 28 29  1  0
 29 30  2  0
 20 31  1  0
 31 32  2  0
 31 33  1  0
 33 34  1  0
 34 35  1  0
 35 36  1  0
 36 37  2  0
 36 38  1  0
 34 39  1  0
 39 40  2  0
 39 41  1  0
 41 42  1  0
 42 43  1  0
 42 44  1  0
 44 45  2  0
 44 46  1  0
 46 47  1  0
 47 48  1  0
 48 49  1  0
 49 50  2  0
 50 51  1  0
 51 52  2  0
 52 53  1  0
 53 54  2  0
 47 55  1  0
 55 56  2  0
 55 57  1  0
 57 58  1  0
 58 59  1  0
 59 60  1  0
 60 61  1  0
 61 62  1  0
 62 63  1  0
 63 64  1  0
 64 65  2  0
 64 66  1  0
 66 67  1  0
 67 68  1  0
 68 69  2  0
 68 70  1  0
 70 71  1  0
 71 72  1  0
 72 73  2  0
 72 74  1  0
 71 75  1  0
 75 76  1  0
 76 77  2  0
 77 78  1  0
 78 79  2  0
 79 80  1  0
 80 81  2  0
 79 82  1  0
 67 83  1  0
 83 84  1  0
 84 85  2  0
 85 86  1  0
 86 87  1  0
 87 88  2  0
 63 89  1  0
 89 90  1  0
 90 91  2  0
 90 92  1  0
 92 93  1  0
 93 94  1  0
 94 95  2  0
 95 96  1  0
 96 97  2  0
 97 98  1  0
 98 99  2  0
 97100  1  0
 92101  1  0
 58102  1  0
102103  2  0
102104  1  0
104105  1  0
105106  1  0
106107  2  0
106108  1  0
105109  1  0
109110  1  0
110111  2  0
111112  1  0
112113  2  0
113114  1  0
114115  2  0
113116  1  0
 19  8  1  0
 26 22  1  0
 54 49  1  0
 81 76  1  0
 88 84  1  0
 99 94  1  0
115110  1  0
 74 12  1  0
 30 25  1  0
  1117  1  0
  1118  1  0
  3119  1  0
  4120  1  0
  5121  1  0
  5122  1  0
  6123  1  0
  6124  1  0
  7125  1  0
  7126  1  0
  8127  1  6
  9128  1  0
 12129  1  6
 13130  1  0
 13131  1  0
 15132  1  0
 15133  1  0
 19134  1  0
 19135  1  0
 20136  1  6
 21137  1  0
 21138  1  0
 23139  1  0
 24140  1  0
 27141  1  0
 28142  1  0
 29143  1  0
 30144  1  0
 33145  1  0
 34146  1  6
 35147  1  0
 35148  1  0
 38149  1  0
 38150  1  0
 41151  1  0
 42152  1  6
 43153  1  0
 43154  1  0
 43155  1  0
 46156  1  0
 47157  1  6
 48158  1  0
 48159  1  0
 50160  1  0
 51161  1  0
 52162  1  0
 53163  1  0
 54164  1  0
 57165  1  0
 58166  1  1
 59167  1  0
 59168  1  0
 62169  1  0
 62170  1  0
 63171  1  1
 66172  1  0
 67173  1  6
 70174  1  0
 71175  1  1
 74176  1  0
 75177  1  0
 75178  1  0
 77179  1  0
 78180  1  0
 80181  1  0
 81182  1  0
 83183  1  0
 83184  1  0
 85185  1  0
 86186  1  0
 87187  1  0
 89188  1  0
 92189  1  6
 93190  1  0
 93191  1  0
 95192  1  0
 96193  1  0
 98194  1  0
 99195  1  0
100196  1  0
101197  1  0
101198  1  0
104199  1  0
105200  1  6
108201  1  0
108202  1  0
109203  1  0
109204  1  0
111205  1  0
112206  1  0
114207  1  0
115208  1  0
116209  1  0
M  END
>  <Ligand ID>  (1) 
LIG0001144

>  <Ligand>  (1) 
CID 71606706

>  <SMILES>  (1) 
NC(=N)NCCC[C@@H]1NC(=O)[C@H]2CSCC(=O)N(C1)[C@@H](Cc1c[nH]c3c1cccc3)C(=O)N[C@@H](CC(=O)N)C(=O)N[C@@H](C)C(=O)N[C@@H](Cc1ccccc1)C(=O)N[C@@H](CSSC[C@@H](C(=O)N[C@H](C(=O)N[C@@H](C(=O)N2)Cc1ccc(cc1)I)Cc1c[nH]cn1)NC(=O)[C@H](Cc1ccc(cc1)O)N)C(=O)N[C@H](C(=O)N)Cc1ccc(cc1)O

>  <CID>  (1) 
71606706.0

>  <ChEMBL ID>  (1) 
nan

>  <InChiKey>  (1) 
DQERTDAJMWQGCP-JCSVUNJHSA-N

>  <InChi>  (1) 
InChI=1S/C77H93IN20O15S3/c1-41-67(104)91-56(28-42-8-3-2-4-9-42)70(107)97-62(74(111)90-55(66(81)103)27-45-17-23-51(100)24-18-45)38-116-115-37-61(95-68(105)53(79)26-43-15-21-50(99)22-16-43)75(112)93-58(31-49-34-84-40-87-49)72(109)92-57(29-44-13-19-47(78)20-14-44)71(108)96-60-36-114-39-65(102)98(35-48(89-73(60)110)10-7-25-85-77(82)83)63(30-46-33-86-54-12-6-5-11-52(46)54)76(113)94-59(32-64(80)101)69(106)88-41/h2-6,8-9,11-24,33-34,40-41,48,53,55-63,86,99-100H,7,10,25-32,35-39,79H2,1H3,(H2,80,101)(H2,81,103)(H,84,87)(H,88,106)(H,89,110)(H,90,111)(H,91,104)(H,92,109)(H,93,112)(H,94,113)(H,95,105)(H,96,108)(H,97,107)(H4,82,83,85)/t41-,48-,53-,55-,56-,57+,58-,59-,60+,61-,62-,63-/m0/s1

>  <IUPAC Name>  (1) 
(2S,5S,8S,11S,14R,19R,22S,25R,28S,34S)-N-[(2S)-1-amino-3-(4-hydroxyphenyl)-1-oxopropan-2-yl]-19-[[(2S)-2-amino-3-(4-hydroxyphenyl)propanoyl]amino]-5-(2-amino-2-oxoethyl)-11-benzyl-34-(3-carbamimidamidopropyl)-22-(1H-imidazol-4-ylmethyl)-2-(1H-indol-3-ylmethyl)-25-[(4-iodophenyl)methyl]-8-methyl-3,6,9,12,20,23,26,32,36-nonaoxo-16,17,30-trithia-1,4,7,10,13,21,24,27,35-nonazabicyclo[26.4.4]hexatriacontane-14-carboxamide

$$$$
