
     RDKit          3D

 62 61  0  0  0  0  0  0  0  0999 V2000
    1.4335   -0.7032    0.1000 O   0  0  0  0  0  0  0  0  0  0  0  0
    0.5053    0.3299   -0.0003 C   0  0  0  0  0  0  0  0  0  0  0  0
    0.8359    1.5458   -0.0468 O   0  0  0  0  0  0  0  0  0  0  0  0
   -0.9288   -0.0707   -0.0514 C   0  0  0  0  0  0  0  0  0  0  0  0
   -1.3170   -0.7688    1.0757 F   0  0  0  0  0  0  0  0  0  0  0  0
   -1.1814   -0.9458   -1.1082 F   0  0  0  0  0  0  0  0  0  0  0  0
   -1.7462    1.0208   -0.2655 F   0  0  0  0  0  0  0  0  0  0  0  0
    8.3217   -1.3601   -1.2367 C   0  0  0  0  0  0  0  0  0  0  0  0
    7.8624    0.0123   -0.8269 C   0  0  0  0  0  0  0  0  0  0  0  0
    6.4406   -0.0832   -0.2977 C   0  0  0  0  0  0  0  0  0  0  0  0
    5.5738   -0.6222   -1.3990 C   0  0  0  0  0  0  0  0  0  0  0  0
    4.1506   -0.7625   -0.9721 C   0  0  0  0  0  0  0  0  0  0  0  0
    3.6098    0.5864   -0.5706 C   0  0  0  0  0  0  0  0  0  0  0  0
    2.1466    0.3968   -0.1514 C   0  0  0  0  0  0  0  0  0  0  0  0
    1.6448    1.7714    0.2426 C   0  0  0  0  0  0  0  0  0  0  0  0
    0.2243    1.6558    0.6615 C   0  0  0  0  0  0  0  0  0  0  0  0
   -0.7491    1.8088   -0.3240 C   0  0  0  0  0  0  0  0  0  0  0  0
   -2.0843    1.7118    0.0052 C   0  0  0  0  0  0  0  0  0  0  0  0
   -2.4512    1.4608    1.3252 C   0  0  0  0  0  0  0  0  0  0  0  0
   -1.4899    1.3071    2.3129 C   0  0  0  0  0  0  0  0  0  0  0  0
   -0.1661    1.4085    1.9580 C   0  0  0  0  0  0  0  0  0  0  0  0
   -3.8397    1.3747    1.5864 N   0  0  0  0  0  0  0  0  0  0  0  0
   -4.4613    0.0966    1.4838 C   0  0  0  0  0  0  0  0  0  0  0  0
   -3.7355   -0.8892    1.1647 O   0  0  0  0  0  0  0  0  0  0  0  0
   -5.9073   -0.1175    1.7339 C   0  0  2  0  0  0  0  0  0  0  0  0
   -6.5622   -0.5480    0.4419 C   0  0  0  0  0  0  0  0  0  0  0  0
   -6.1235   -1.7677   -0.0236 O   0  0  0  0  0  0  0  0  0  0  0  0
   -6.8561   -2.2389   -1.4594 P   0  0  0  0  0  0  0  0  0  0  0  0
   -6.6990   -1.1732   -2.5179 O   0  0  0  0  0  0  0  0  0  0  0  0
   -8.4869   -2.6092   -1.2612 O   0  0  0  0  0  0  0  0  0  0  0  0
   -6.0780   -3.6360   -2.0150 O   0  0  0  0  0  0  0  0  0  0  0  0
   -6.4786    1.1720    2.0765 N   0  0  0  0  0  0  0  0  0  0  0  0
    2.3988   -0.4080    0.2964 H   0  0  0  0  0  0  0  0  0  0  0  0
    9.3722   -1.5085   -0.9011 H   0  0  0  0  0  0  0  0  0  0  0  0
    7.7182   -2.1509   -0.7407 H   0  0  0  0  0  0  0  0  0  0  0  0
    8.2898   -1.4809   -2.3366 H   0  0  0  0  0  0  0  0  0  0  0  0
    8.4981    0.4969   -0.0646 H   0  0  0  0  0  0  0  0  0  0  0  0
    7.8328    0.6819   -1.7289 H   0  0  0  0  0  0  0  0  0  0  0  0
    6.4463   -0.7352    0.5910 H   0  0  0  0  0  0  0  0  0  0  0  0
    6.0931    0.9516   -0.0080 H   0  0  0  0  0  0  0  0  0  0  0  0
    5.6638   -0.0070   -2.3110 H   0  0  0  0  0  0  0  0  0  0  0  0
    5.9715   -1.6286   -1.6675 H   0  0  0  0  0  0  0  0  0  0  0  0
    4.1382   -1.4209   -0.0566 H   0  0  0  0  0  0  0  0  0  0  0  0
    3.5055   -1.2035   -1.7458 H   0  0  0  0  0  0  0  0  0  0  0  0
    3.6941    1.3311   -1.3667 H   0  0  0  0  0  0  0  0  0  0  0  0
    4.1190    0.9803    0.3548 H   0  0  0  0  0  0  0  0  0  0  0  0
    1.6159    0.0156   -1.0472 H   0  0  0  0  0  0  0  0  0  0  0  0
    2.0962   -0.2733    0.7122 H   0  0  0  0  0  0  0  0  0  0  0  0
    2.2250    2.1752    1.0817 H   0  0  0  0  0  0  0  0  0  0  0  0
    1.6968    2.4732   -0.6114 H   0  0  0  0  0  0  0  0  0  0  0  0
   -0.4683    2.0052   -1.3581 H   0  0  0  0  0  0  0  0  0  0  0  0
   -2.8415    1.8300   -0.7570 H   0  0  0  0  0  0  0  0  0  0  0  0
   -1.8096    1.1111    3.3390 H   0  0  0  0  0  0  0  0  0  0  0  0
    0.5810    1.2893    2.7241 H   0  0  0  0  0  0  0  0  0  0  0  0
   -4.4214    2.2167    1.8514 H   0  0  0  0  0  0  0  0  0  0  0  0
   -6.0190   -0.8272    2.5584 H   0  0  0  0  0  0  0  0  0  0  0  0
   -7.6595   -0.4604    0.5001 H   0  0  0  0  0  0  0  0  0  0  0  0
   -6.2405    0.2183   -0.3237 H   0  0  0  0  0  0  0  0  0  0  0  0
   -8.6375   -3.4628   -0.8098 H   0  0  0  0  0  0  0  0  0  0  0  0
   -5.7231   -3.5174   -2.9480 H   0  0  0  0  0  0  0  0  0  0  0  0
   -6.0338    1.5164    2.9534 H   0  0  0  0  0  0  0  0  0  0  0  0
   -7.5095    1.0814    2.1796 H   0  0  0  0  0  0  0  0  0  0  0  0
  1  2  1  0
  2  3  2  0
  2  4  1  0
  4  5  1  0
  4  6  1  0
  4  7  1  0
  8  9  1  0
  9 10  1  0
 10 11  1  0
 11 12  1  0
 12 13  1  0
 13 14  1  0
 14 15  1  0
 15 16  1  0
 16 17  2  0
 17 18  1  0
 18 19  2  0
 19 20  1  0
 20 21  2  0
 19 22  1  0
 22 23  1  0
 23 24  2  0
 23 25  1  0
 25 26  1  0
 26 27  1  0
 27 28  1  0
 28 29  2  0
 28 30  1  0
 28 31  1  0
 25 32  1  0
 21 16  1  0
  1 33  1  0
  8 34  1  0
  8 35  1  0
  8 36  1  0
  9 37  1  0
  9 38  1  0
 10 39  1  0
 10 40  1  0
 11 41  1  0
 11 42  1  0
 12 43  1  0
 12 44  1  0
 13 45  1  0
 13 46  1  0
 14 47  1  0
 14 48  1  0
 15 49  1  0
 15 50  1  0
 17 51  1  0
 18 52  1  0
 20 53  1  0
 21 54  1  0
 22 55  1  0
 25 56  1  1
 26 57  1  0
 26 58  1  0
 30 59  1  0
 31 60  1  0
 32 61  1  0
 32 62  1  0
M  END
>  <Ligand ID>  (1) 
LIG0004253

>  <Ligand>  (1) 
CHEMBL332050

>  <SMILES>  (1) 
OC(=O)C(F)(F)F.CCCCCCCCc1ccc(cc1)NC(=O)[C@H](COP(=O)(O)O)N

>  <CID>  (1) 
44342467.0

>  <ChEMBL ID>  (1) 
nan

>  <InChiKey>  (1) 
RJKVTCBRUQDHFV-NTISSMGPSA-N

>  <InChi>  (1) 
InChI=1S/C17H29N2O5P.C2HF3O2/c1-2-3-4-5-6-7-8-14-9-11-15(12-10-14)19-17(20)16(18)13-24-25(21,22)23;3-2(4,5)1(6)7/h9-12,16H,2-8,13,18H2,1H3,(H,19,20)(H2,21,22,23);(H,6,7)/t16-;/m0./s1

>  <IUPAC Name>  (1) 
[(2S)-2-amino-3-(4-octylanilino)-3-oxopropyl] dihydrogen phosphate;2,2,2-trifluoroacetic acid

$$$$
