
     RDKit          3D

 48 51  0  0  0  0  0  0  0  0999 V2000
    7.3523   -3.3487   -0.2416 N   0  0  0  0  0  0  0  0  0  0  0  0
    6.5040   -2.8237    0.3407 C   0  0  0  0  0  0  0  0  0  0  0  0
    5.4459   -2.1576    1.0773 C   0  0  0  0  0  0  0  0  0  0  0  0
    5.2713   -2.3672    2.4325 C   0  0  0  0  0  0  0  0  0  0  0  0
    4.2577   -1.7211    3.0899 C   0  0  0  0  0  0  0  0  0  0  0  0
    3.3947   -0.8551    2.4256 C   0  0  0  0  0  0  0  0  0  0  0  0
    3.5799   -0.6546    1.0735 C   0  0  0  0  0  0  0  0  0  0  0  0
    4.5991   -1.2966    0.3842 C   0  0  0  0  0  0  0  0  0  0  0  0
    2.7121    0.2367    0.2965 C   0  0  0  0  0  0  0  0  0  0  0  0
    2.9047    0.4573   -0.9372 O   0  0  0  0  0  0  0  0  0  0  0  0
    1.6032    0.9042    0.8833 N   0  0  0  0  0  0  0  0  0  0  0  0
    0.8160    1.7555    0.0262 C   0  0  0  0  0  0  0  0  0  0  0  0
    0.9657    3.0517   -0.2101 N   0  0  0  0  0  0  0  0  0  0  0  0
    0.0194    3.4472   -1.0757 C   0  0  0  0  0  0  0  0  0  0  0  0
   -0.7185    2.3166   -1.3561 C   0  0  0  0  0  0  0  0  0  0  0  0
   -0.2403    1.2534   -0.6813 N   0  0  0  0  0  0  0  0  0  0  0  0
   -0.6996   -0.1161   -0.6768 C   0  0  0  0  0  0  0  0  0  0  0  0
   -1.7443   -0.4029    0.3783 C   0  0  0  0  0  0  0  0  0  0  0  0
   -2.1636   -1.7886    0.3434 N   0  0  0  0  0  0  0  0  0  0  0  0
   -2.8992   -2.1634   -0.8220 C   0  0  0  0  0  0  0  0  0  0  0  0
   -4.1784   -1.3949   -0.7660 C   0  0  0  0  0  0  0  0  0  0  0  0
   -4.4240   -1.3128    0.7244 C   0  0  0  0  0  0  0  0  0  0  0  0
   -3.1941   -1.9321    1.3793 C   0  0  0  0  0  0  0  0  0  0  0  0
   -1.7789    2.4070   -2.2281 C   0  0  0  0  0  0  0  0  0  0  0  0
   -2.1169    3.6182   -2.8300 C   0  0  0  0  0  0  0  0  0  0  0  0
   -1.3720    4.7479   -2.5445 C   0  0  0  0  0  0  0  0  0  0  0  0
   -0.3094    4.6618   -1.6715 C   0  0  0  0  0  0  0  0  0  0  0  0
    5.9385   -3.0426    2.9717 H   0  0  0  0  0  0  0  0  0  0  0  0
    4.0788   -1.8526    4.1473 H   0  0  0  0  0  0  0  0  0  0  0  0
    2.6191   -0.3684    2.9629 H   0  0  0  0  0  0  0  0  0  0  0  0
    4.7407   -1.1372   -0.6859 H   0  0  0  0  0  0  0  0  0  0  0  0
    1.3595    0.7954    1.8715 H   0  0  0  0  0  0  0  0  0  0  0  0
   -1.0636   -0.3822   -1.6886 H   0  0  0  0  0  0  0  0  0  0  0  0
    0.1850   -0.7387   -0.4254 H   0  0  0  0  0  0  0  0  0  0  0  0
   -1.3612   -0.2272    1.4000 H   0  0  0  0  0  0  0  0  0  0  0  0
   -2.6519    0.1962    0.1422 H   0  0  0  0  0  0  0  0  0  0  0  0
   -3.1055   -3.2543   -0.7275 H   0  0  0  0  0  0  0  0  0  0  0  0
   -2.3562   -2.0305   -1.7754 H   0  0  0  0  0  0  0  0  0  0  0  0
   -4.0712   -0.3984   -1.2120 H   0  0  0  0  0  0  0  0  0  0  0  0
   -4.9456   -2.0006   -1.2907 H   0  0  0  0  0  0  0  0  0  0  0  0
   -4.5338   -0.2410    1.0204 H   0  0  0  0  0  0  0  0  0  0  0  0
   -5.3587   -1.7993    1.0049 H   0  0  0  0  0  0  0  0  0  0  0  0
   -3.4163   -2.9815    1.6082 H   0  0  0  0  0  0  0  0  0  0  0  0
   -2.9152   -1.4130    2.3069 H   0  0  0  0  0  0  0  0  0  0  0  0
   -2.3788    1.5181   -2.4640 H   0  0  0  0  0  0  0  0  0  0  0  0
   -2.9562    3.6038   -3.4942 H   0  0  0  0  0  0  0  0  0  0  0  0
   -1.6538    5.6881   -3.0278 H   0  0  0  0  0  0  0  0  0  0  0  0
    0.2595    5.5438   -1.4588 H   0  0  0  0  0  0  0  0  0  0  0  0
  1  2  3  0
  2  3  1  0
  3  4  2  0
  4  5  1  0
  5  6  2  0
  6  7  1  0
  7  8  2  0
  7  9  1  0
  9 10  2  0
  9 11  1  0
 11 12  1  0
 12 13  2  0
 13 14  1  0
 14 15  2  0
 15 16  1  0
 16 17  1  0
 17 18  1  0
 18 19  1  0
 19 20  1  0
 20 21  1  0
 21 22  1  0
 22 23  1  0
 15 24  1  0
 24 25  2  0
 25 26  1  0
 26 27  2  0
  8  3  1  0
 16 12  1  0
 23 19  1  0
 27 14  1  0
  4 28  1  0
  5 29  1  0
  6 30  1  0
  8 31  1  0
 11 32  1  0
 17 33  1  0
 17 34  1  0
 18 35  1  0
 18 36  1  0
 20 37  1  0
 20 38  1  0
 21 39  1  0
 21 40  1  0
 22 41  1  0
 22 42  1  0
 23 43  1  0
 23 44  1  0
 24 45  1  0
 25 46  1  0
 26 47  1  0
 27 48  1  0
M  END
>  <Ligand ID>  (1) 
LIG0003086

>  <Ligand>  (1) 
CHEMBL3393885

>  <SMILES>  (1) 
N#Cc1cccc(c1)C(=O)Nc1nc2c(n1CCN1CCCC1)cccc2

>  <CID>  (1) 
118725745.0

>  <ChEMBL ID>  (1) 
nan

>  <InChiKey>  (1) 
UJROZOSIFQXQMZ-UHFFFAOYSA-N

>  <InChi>  (1) 
InChI=1S/C21H21N5O/c22-15-16-6-5-7-17(14-16)20(27)24-21-23-18-8-1-2-9-19(18)26(21)13-12-25-10-3-4-11-25/h1-2,5-9,14H,3-4,10-13H2,(H,23,24,27)

>  <IUPAC Name>  (1) 
3-cyano-N-[1-(2-pyrrolidin-1-ylethyl)benzimidazol-2-yl]benzamide

$$$$
