
     RDKit          3D

 16 15  0  0  0  0  0  0  0  0999 V2000
    2.2241    0.3103    0.1523 C   0  0  0  0  0  0  0  0  0  0  0  0
    1.6432   -0.0906   -1.1760 C   0  0  0  0  0  0  0  0  0  0  0  0
   -0.1249    0.3413   -1.3078 S   0  0  0  0  0  0  0  0  0  0  0  0
   -0.9639   -0.1494    0.2085 C   0  0  0  0  0  0  0  0  0  0  0  0
   -1.1981    1.3608    1.2072 S   0  0  0  0  0  0  0  0  0  0  0  0
   -2.3299   -0.7411   -0.0329 C   0  0  0  0  0  0  0  0  0  0  0  0
    2.7625   -0.5695    0.5891 H   0  0  0  0  0  0  0  0  0  0  0  0
    1.4466    0.6596    0.8790 H   0  0  0  0  0  0  0  0  0  0  0  0
    3.0095    1.0954    0.0528 H   0  0  0  0  0  0  0  0  0  0  0  0
    1.6793   -1.2044   -1.2891 H   0  0  0  0  0  0  0  0  0  0  0  0
    2.2260    0.3071   -2.0273 H   0  0  0  0  0  0  0  0  0  0  0  0
   -0.3256   -0.8053    0.8524 H   0  0  0  0  0  0  0  0  0  0  0  0
   -2.0215    2.2259    0.4593 H   0  0  0  0  0  0  0  0  0  0  0  0
   -3.1363    0.0081    0.0639 H   0  0  0  0  0  0  0  0  0  0  0  0
   -2.4066   -1.2602   -1.0033 H   0  0  0  0  0  0  0  0  0  0  0  0
   -2.4846   -1.4880    0.7872 H   0  0  0  0  0  0  0  0  0  0  0  0
  1  2  1  0
  2  3  1  0
  3  4  1  0
  4  5  1  0
  4  6  1  0
  1  7  1  0
  1  8  1  0
  1  9  1  0
  2 10  1  0
  2 11  1  0
  4 12  1  0
  5 13  1  0
  6 14  1  0
  6 15  1  0
  6 16  1  0
M  END
>  <Ligand ID>  (1) 
LIG0005036

>  <Ligand>  (1) 
1-ethylsulfanylethanethiol

>  <SMILES>  (1) 
CCSC(S)C

>  <CID>  (1) 
12499749.0

>  <ChEMBL ID>  (1) 
nan

>  <InChiKey>  (1) 
IPPGPVPRYJHZPW-UHFFFAOYSA-N

>  <InChi>  (1) 
InChI=1S/C4H10S2/c1-3-6-4(2)5/h4-5H,3H2,1-2H3

>  <IUPAC Name>  (1) 
1-ethylsulfanylethanethiol

$$$$
