
     RDKit          3D

 62 64  0  0  0  0  0  0  0  0999 V2000
   -1.6793   -2.4231   -0.0737 C   0  0  0  0  0  0  0  0  0  0  0  0
   -2.4981   -1.2275    0.3006 C   0  0  2  0  0  0  0  0  0  0  0  0
   -3.3961   -0.7638   -0.8259 C   0  0  0  0  0  0  0  0  0  0  0  0
   -4.2694    0.2444   -0.2160 N   0  0  0  0  0  0  0  0  0  0  0  0
   -3.6832    1.3905    0.4278 C   0  0  0  0  0  0  0  0  0  0  0  0
   -2.4447    1.0643    1.2153 C   0  0  0  0  0  0  0  0  0  0  0  0
   -1.7176   -0.0653    0.6745 N   0  0  0  0  0  0  0  0  0  0  0  0
   -0.2982   -0.0031    0.5293 C   0  0  0  0  0  0  0  0  0  0  0  0
    0.4342   -1.0133    0.0321 N   0  0  0  0  0  0  0  0  0  0  0  0
    1.7668   -0.9359   -0.0962 C   0  0  0  0  0  0  0  0  0  0  0  0
    2.4562    0.2115    0.2861 C   0  0  0  0  0  0  0  0  0  0  0  0
    1.6783    1.2357    0.7943 C   0  0  0  0  0  0  0  0  0  0  0  0
    0.3440    1.1156    0.9056 N   0  0  0  0  0  0  0  0  0  0  0  0
    3.8390    0.3175    0.1634 O   0  0  0  0  0  0  0  0  0  0  0  0
    4.5018   -0.8153   -0.3743 C   0  0  0  0  0  0  0  0  0  0  0  0
    5.9676   -0.5825   -0.4542 C   0  0  0  0  0  0  0  0  0  0  0  0
    6.7561   -1.2073    0.5077 C   0  0  0  0  0  0  0  0  0  0  0  0
    8.1244   -1.0397    0.5003 C   0  0  0  0  0  0  0  0  0  0  0  0
    8.6840   -0.2432   -0.4774 C   0  0  0  0  0  0  0  0  0  0  0  0
    7.8880    0.3697   -1.4246 C   0  0  0  0  0  0  0  0  0  0  0  0
    6.5025    0.2171   -1.4403 C   0  0  0  0  0  0  0  0  0  0  0  0
    5.7187    0.8098   -2.3590 F   0  0  0  0  0  0  0  0  0  0  0  0
   10.4287   -0.0566   -0.4495 S   0  0  0  0  0  0  0  0  0  0  0  0
   11.0468   -1.2669    0.1859 O   0  0  0  0  0  0  0  0  0  0  0  0
   10.9545    0.1696   -1.8389 O   0  0  0  0  0  0  0  0  0  0  0  0
   10.8068    1.3489    0.5671 C   0  0  0  0  0  0  0  0  0  0  0  0
   -5.6712    0.0181   -0.3024 C   0  0  0  0  0  0  0  0  0  0  0  0
   -6.0264   -1.0479   -0.9061 O   0  0  0  0  0  0  0  0  0  0  0  0
   -6.5962    0.8980    0.2342 O   0  0  0  0  0  0  0  0  0  0  0  0
   -8.0053    0.6674    0.1453 C   0  0  0  0  0  0  0  0  0  0  0  0
   -8.4972    0.5832   -1.2688 C   0  0  0  0  0  0  0  0  0  0  0  0
   -8.3870   -0.5929    0.8926 C   0  0  0  0  0  0  0  0  0  0  0  0
   -8.7075    1.8252    0.8290 C   0  0  0  0  0  0  0  0  0  0  0  0
   -2.4194   -3.2689   -0.1990 H   0  0  0  0  0  0  0  0  0  0  0  0
   -1.2262   -2.3062   -1.0664 H   0  0  0  0  0  0  0  0  0  0  0  0
   -1.0085   -2.7635    0.7259 H   0  0  0  0  0  0  0  0  0  0  0  0
   -3.1811   -1.4357    1.1550 H   0  0  0  0  0  0  0  0  0  0  0  0
   -3.9597   -1.5552   -1.3168 H   0  0  0  0  0  0  0  0  0  0  0  0
   -2.7067   -0.2384   -1.5459 H   0  0  0  0  0  0  0  0  0  0  0  0
   -3.3866    2.1059   -0.3695 H   0  0  0  0  0  0  0  0  0  0  0  0
   -4.4285    1.9133    1.0589 H   0  0  0  0  0  0  0  0  0  0  0  0
   -1.7901    1.9527    1.3236 H   0  0  0  0  0  0  0  0  0  0  0  0
   -2.7649    0.7778    2.2390 H   0  0  0  0  0  0  0  0  0  0  0  0
    2.3555   -1.7690   -0.5044 H   0  0  0  0  0  0  0  0  0  0  0  0
    2.1475    2.1672    1.1154 H   0  0  0  0  0  0  0  0  0  0  0  0
    4.2669   -1.7355    0.2061 H   0  0  0  0  0  0  0  0  0  0  0  0
    4.0426   -0.9956   -1.3867 H   0  0  0  0  0  0  0  0  0  0  0  0
    6.3387   -1.8283    1.2732 H   0  0  0  0  0  0  0  0  0  0  0  0
    8.7318   -1.5214    1.2414 H   0  0  0  0  0  0  0  0  0  0  0  0
    8.3400    0.9936   -2.1888 H   0  0  0  0  0  0  0  0  0  0  0  0
   10.5084    2.2981    0.0745 H   0  0  0  0  0  0  0  0  0  0  0  0
   11.8845    1.4299    0.8069 H   0  0  0  0  0  0  0  0  0  0  0  0
   10.1929    1.2973    1.5118 H   0  0  0  0  0  0  0  0  0  0  0  0
   -7.7996    0.0688   -1.9394 H   0  0  0  0  0  0  0  0  0  0  0  0
   -8.8689    1.5659   -1.6610 H   0  0  0  0  0  0  0  0  0  0  0  0
   -9.4195   -0.0656   -1.2434 H   0  0  0  0  0  0  0  0  0  0  0  0
   -9.3555   -0.4787    1.4230 H   0  0  0  0  0  0  0  0  0  0  0  0
   -7.5634   -0.7750    1.6366 H   0  0  0  0  0  0  0  0  0  0  0  0
   -8.3924   -1.4316    0.1788 H   0  0  0  0  0  0  0  0  0  0  0  0
   -8.9500    2.6334    0.0906 H   0  0  0  0  0  0  0  0  0  0  0  0
   -8.0044    2.2907    1.5510 H   0  0  0  0  0  0  0  0  0  0  0  0
   -9.6045    1.4719    1.3467 H   0  0  0  0  0  0  0  0  0  0  0  0
  1  2  1  0
  2  3  1  0
  3  4  1  0
  4  5  1  0
  5  6  1  0
  6  7  1  0
  7  8  1  0
  8  9  2  0
  9 10  1  0
 10 11  2  0
 11 12  1  0
 12 13  2  0
 11 14  1  0
 14 15  1  0
 15 16  1  0
 16 17  2  0
 17 18  1  0
 18 19  2  0
 19 20  1  0
 20 21  2  0
 21 22  1  0
 19 23  1  0
 23 24  2  0
 23 25  2  0
 23 26  1  0
  4 27  1  0
 27 28  2  0
 27 29  1  0
 29 30  1  0
 30 31  1  0
 30 32  1  0
 30 33  1  0
  7  2  1  0
 13  8  1  0
 21 16  1  0
  1 34  1  0
  1 35  1  0
  1 36  1  0
  2 37  1  1
  3 38  1  0
  3 39  1  0
  5 40  1  0
  5 41  1  0
  6 42  1  0
  6 43  1  0
 10 44  1  0
 12 45  1  0
 15 46  1  0
 15 47  1  0
 17 48  1  0
 18 49  1  0
 20 50  1  0
 26 51  1  0
 26 52  1  0
 26 53  1  0
 31 54  1  0
 31 55  1  0
 31 56  1  0
 32 57  1  0
 32 58  1  0
 32 59  1  0
 33 60  1  0
 33 61  1  0
 33 62  1  0
M  END
>  <Ligand ID>  (1) 
LIG0005283

>  <Ligand>  (1) 
CHEMBL2086672

>  <SMILES>  (1) 
C[C@@H]1CN(CCN1c1ncc(cn1)OCc1ccc(cc1F)S(=O)(=O)C)C(=O)OC(C)(C)C

>  <CID>  (1) 
51029965.0

>  <ChEMBL ID>  (1) 
nan

>  <InChiKey>  (1) 
KGJGWMONADZJGW-OAHLLOKOSA-N

>  <InChi>  (1) 
InChI=1S/C22H29FN4O5S/c1-15-13-26(21(28)32-22(2,3)4)8-9-27(15)20-24-11-17(12-25-20)31-14-16-6-7-18(10-19(16)23)33(5,29)30/h6-7,10-12,15H,8-9,13-14H2,1-5H3/t15-/m1/s1

>  <IUPAC Name>  (1) 
tert-butyl (3R)-4-[5-[(2-fluoro-4-methylsulfonylphenyl)methoxy]pyrimidin-2-yl]-3-methylpiperazine-1-carboxylate

$$$$
