
     RDKit          3D

 24 25  0  0  0  0  0  0  0  0999 V2000
    0.0386   -2.2981   -0.7806 O   0  0  0  0  0  0  0  0  0  0  0  0
    0.0273   -1.0773   -0.4005 C   0  0  0  0  0  0  0  0  0  0  0  0
    1.2868   -0.4194   -0.2215 C   0  0  0  0  0  0  0  0  0  0  0  0
    2.3903   -1.2194    0.0856 C   0  0  0  0  0  0  0  0  0  0  0  0
    3.6472   -0.7104    0.2737 C   0  0  0  0  0  0  0  0  0  0  0  0
    3.8551    0.6614    0.1583 C   0  0  0  0  0  0  0  0  0  0  0  0
    2.7800    1.4736   -0.1446 C   0  0  0  0  0  0  0  0  0  0  0  0
    1.5082    0.9352   -0.3323 C   0  0  0  0  0  0  0  0  0  0  0  0
   -1.2836   -0.4895   -0.1907 C   0  0  0  0  0  0  0  0  0  0  0  0
   -2.3491   -1.0106   -0.9046 C   0  0  0  0  0  0  0  0  0  0  0  0
   -3.6310   -0.5189   -0.7664 C   0  0  0  0  0  0  0  0  0  0  0  0
   -3.8777    0.5278    0.1087 C   0  0  0  0  0  0  0  0  0  0  0  0
   -2.8187    1.0739    0.8435 C   0  0  0  0  0  0  0  0  0  0  0  0
   -1.5302    0.5509    0.6790 C   0  0  0  0  0  0  0  0  0  0  0  0
    2.2709   -2.2919    0.1847 H   0  0  0  0  0  0  0  0  0  0  0  0
    4.5033   -1.3322    0.5122 H   0  0  0  0  0  0  0  0  0  0  0  0
    4.8332    1.0647    0.3035 H   0  0  0  0  0  0  0  0  0  0  0  0
    2.8754    2.5422   -0.2475 H   0  0  0  0  0  0  0  0  0  0  0  0
    0.6761    1.5777   -0.5716 H   0  0  0  0  0  0  0  0  0  0  0  0
   -2.1557   -1.8438   -1.6025 H   0  0  0  0  0  0  0  0  0  0  0  0
   -4.4327   -0.9664   -1.3533 H   0  0  0  0  0  0  0  0  0  0  0  0
   -4.8867    0.9033    0.2073 H   0  0  0  0  0  0  0  0  0  0  0  0
   -2.9882    1.8933    1.5339 H   0  0  0  0  0  0  0  0  0  0  0  0
   -0.7388    0.9740    1.2458 H   0  0  0  0  0  0  0  0  0  0  0  0
  1  2  2  0
  2  3  1  0
  3  4  2  0
  4  5  1  0
  5  6  2  0
  6  7  1  0
  7  8  2  0
  2  9  1  0
  9 10  2  0
 10 11  1  0
 11 12  2  0
 12 13  1  0
 13 14  2  0
  8  3  1  0
 14  9  1  0
  4 15  1  0
  5 16  1  0
  6 17  1  0
  7 18  1  0
  8 19  1  0
 10 20  1  0
 11 21  1  0
 12 22  1  0
 13 23  1  0
 14 24  1  0
M  END
>  <Ligand ID>  (1) 
LIG0000106

>  <Ligand>  (1) 
Benzophenone

>  <SMILES>  (1) 
O=C(c1ccccc1)c1ccccc1

>  <CID>  (1) 
3102.0

>  <ChEMBL ID>  (1) 
nan

>  <InChiKey>  (1) 
RWCCWEUUXYIKHB-UHFFFAOYSA-N

>  <InChi>  (1) 
InChI=1S/C13H10O/c14-13(11-7-3-1-4-8-11)12-9-5-2-6-10-12/h1-10H

>  <IUPAC Name>  (1) 
diphenylmethanone

$$$$
