
     RDKit          3D

 56 60  0  0  0  0  0  0  0  0999 V2000
   -0.4578    7.3644   -0.7129 C   0  0  0  0  0  0  0  0  0  0  0  0
   -1.0783    6.4112    0.1109 O   0  0  0  0  0  0  0  0  0  0  0  0
   -1.0213    5.0523   -0.0729 C   0  0  0  0  0  0  0  0  0  0  0  0
   -1.6505    4.1650    0.7681 C   0  0  0  0  0  0  0  0  0  0  0  0
   -1.5662    2.7907    0.5434 C   0  0  0  0  0  0  0  0  0  0  0  0
   -0.8616    2.2567   -0.5131 C   0  0  0  0  0  0  0  0  0  0  0  0
   -0.2360    3.1905   -1.3452 C   0  0  0  0  0  0  0  0  0  0  0  0
   -0.3152    4.5417   -1.1295 C   0  0  0  0  0  0  0  0  0  0  0  0
   -0.7564    0.7970   -0.7774 C   0  0  0  0  0  0  0  0  0  0  0  0
   -2.0394    0.0615   -0.6653 C   0  0  0  0  0  0  0  0  0  0  0  0
   -2.4221   -0.4865    0.6544 C   0  0  0  0  0  0  0  0  0  0  0  0
   -1.3186   -0.4925    1.5666 N   0  0  0  0  0  0  0  0  0  0  0  0
    0.0397   -0.4277    1.1635 C   0  0  0  0  0  0  0  0  0  0  0  0
    0.2939    0.2091    0.0071 N   0  0  0  0  0  0  0  0  0  0  0  0
    1.6008    0.1696   -0.2037 N   0  0  0  0  0  0  0  0  0  0  0  0
    2.2098   -0.4743    0.7809 C   0  0  0  0  0  0  0  0  0  0  0  0
    1.2209   -0.8507    1.6434 N   0  0  0  0  0  0  0  0  0  0  0  0
    3.6038   -0.7208    0.9152 N   0  0  0  0  0  0  0  0  0  0  0  0
    4.4599   -0.2293   -0.1063 C   0  0  0  0  0  0  0  0  0  0  0  0
    3.9925    0.4076   -1.1073 O   0  0  0  0  0  0  0  0  0  0  0  0
    5.8794   -0.4289   -0.0527 C   0  0  0  0  0  0  0  0  0  0  0  0
    6.9163   -0.0920   -0.8437 C   0  0  0  0  0  0  0  0  0  0  0  0
    8.1590   -0.4437   -0.4913 C   0  0  0  0  0  0  0  0  0  0  0  0
    8.3239   -1.1429    0.6784 C   0  0  0  0  0  0  0  0  0  0  0  0
    6.6715   -1.3613    1.3909 S   0  0  0  0  0  0  0  0  0  0  0  0
   -2.9265   -1.9008    0.4744 C   0  0  0  0  0  0  0  0  0  0  0  0
   -2.0689   -2.9524    0.2819 C   0  0  0  0  0  0  0  0  0  0  0  0
   -2.6225   -4.2153    0.1253 C   0  0  0  0  0  0  0  0  0  0  0  0
   -4.0041   -4.4142    0.1618 C   0  0  0  0  0  0  0  0  0  0  0  0
   -4.8675   -3.3542    0.3558 C   0  0  0  0  0  0  0  0  0  0  0  0
   -4.3085   -2.1025    0.5104 C   0  0  0  0  0  0  0  0  0  0  0  0
   -4.5755   -5.6667    0.0076 O   0  0  0  0  0  0  0  0  0  0  0  0
   -3.8257   -6.8404   -0.1975 C   0  0  0  0  0  0  0  0  0  0  0  0
    0.5882    7.0515   -0.9368 H   0  0  0  0  0  0  0  0  0  0  0  0
   -0.9958    7.5846   -1.6412 H   0  0  0  0  0  0  0  0  0  0  0  0
   -0.3579    8.2935   -0.1108 H   0  0  0  0  0  0  0  0  0  0  0  0
   -2.2027    4.5762    1.5952 H   0  0  0  0  0  0  0  0  0  0  0  0
   -2.0803    2.1699    1.2431 H   0  0  0  0  0  0  0  0  0  0  0  0
    0.3253    2.7944   -2.1844 H   0  0  0  0  0  0  0  0  0  0  0  0
    0.2019    5.1902   -1.8260 H   0  0  0  0  0  0  0  0  0  0  0  0
   -0.4673    0.7433   -1.8768 H   0  0  0  0  0  0  0  0  0  0  0  0
   -1.9653   -0.8179   -1.3822 H   0  0  0  0  0  0  0  0  0  0  0  0
   -2.8808    0.6605   -1.1313 H   0  0  0  0  0  0  0  0  0  0  0  0
   -3.2444    0.1222    1.1373 H   0  0  0  0  0  0  0  0  0  0  0  0
   -1.5111   -0.5491    2.6120 H   0  0  0  0  0  0  0  0  0  0  0  0
    3.9724   -1.2476    1.7460 H   0  0  0  0  0  0  0  0  0  0  0  0
    6.7226    0.4812   -1.7911 H   0  0  0  0  0  0  0  0  0  0  0  0
    9.0538   -0.1948   -1.1026 H   0  0  0  0  0  0  0  0  0  0  0  0
    9.2307   -1.5134    1.1314 H   0  0  0  0  0  0  0  0  0  0  0  0
   -1.0183   -2.7766    0.2577 H   0  0  0  0  0  0  0  0  0  0  0  0
   -1.9761   -5.0726   -0.0288 H   0  0  0  0  0  0  0  0  0  0  0  0
   -5.9386   -3.4850    0.3875 H   0  0  0  0  0  0  0  0  0  0  0  0
   -5.0056   -1.2843    0.6617 H   0  0  0  0  0  0  0  0  0  0  0  0
   -4.5089   -7.6288   -0.5956 H   0  0  0  0  0  0  0  0  0  0  0  0
   -2.9540   -6.6812   -0.8518 H   0  0  0  0  0  0  0  0  0  0  0  0
   -3.4363   -7.2364    0.7661 H   0  0  0  0  0  0  0  0  0  0  0  0
  1  2  1  0
  2  3  1  0
  3  4  2  0
  4  5  1  0
  5  6  2  0
  6  7  1  0
  7  8  2  0
  6  9  1  0
  9 10  1  0
 10 11  1  0
 11 12  1  0
 12 13  1  0
 13 14  1  0
 14 15  1  0
 15 16  2  0
 16 17  1  0
 16 18  1  0
 18 19  1  0
 19 20  2  0
 19 21  1  0
 21 22  2  0
 22 23  1  0
 23 24  2  0
 24 25  1  0
 11 26  1  0
 26 27  2  0
 27 28  1  0
 28 29  2  0
 29 30  1  0
 30 31  2  0
 29 32  1  0
 32 33  1  0
  8  3  1  0
 14  9  1  0
 25 21  1  0
 31 26  1  0
 17 13  2  0
  1 34  1  0
  1 35  1  0
  1 36  1  0
  4 37  1  0
  5 38  1  0
  7 39  1  0
  8 40  1  0
  9 41  1  0
 10 42  1  0
 10 43  1  0
 11 44  1  0
 12 45  1  0
 18 46  1  0
 22 47  1  0
 23 48  1  0
 24 49  1  0
 27 50  1  0
 28 51  1  0
 30 52  1  0
 31 53  1  0
 33 54  1  0
 33 55  1  0
 33 56  1  0
M  END
>  <Ligand ID>  (1) 
LIG0004805

>  <Ligand>  (1) 
MLS000558591

>  <SMILES>  (1) 
COc1ccc(cc1)C1CC(Nc2n1nc(n2)NC(=O)c1cccs1)c1ccc(cc1)OC

>  <CID>  (1) 
3287796.0

>  <ChEMBL ID>  (1) 
nan

>  <InChiKey>  (1) 
SWCOHECDPIAMAA-UHFFFAOYSA-N

>  <InChi>  (1) 
InChI=1S/C24H23N5O3S/c1-31-17-9-5-15(6-10-17)19-14-20(16-7-11-18(32-2)12-8-16)29-24(25-19)27-23(28-29)26-22(30)21-4-3-13-33-21/h3-13,19-20H,14H2,1-2H3,(H2,25,26,27,28,30)

>  <IUPAC Name>  (1) 
N-[5,7-bis(4-methoxyphenyl)-4,5,6,7-tetrahydro-[1,2,4]triazolo[1,5-a]pyrimidin-2-yl]thiophene-2-carboxamide

$$$$
