
     RDKit          3D

141147  0  0  0  0  0  0  0  0999 V2000
   -4.1539    9.5311   -0.1232 N   0  0  0  0  0  0  0  0  0  0  0  0
   -3.2262    9.1032    0.8950 C   0  0  0  0  0  0  0  0  0  0  0  0
   -2.7033    7.9249    0.8437 N   0  0  0  0  0  0  0  0  0  0  0  0
   -3.0141    6.9869   -0.2197 C   0  0  0  0  0  0  0  0  0  0  0  0
   -2.3291    5.6486   -0.0146 C   0  0  0  0  0  0  0  0  0  0  0  0
   -2.7610    5.0161    1.2540 C   0  0  0  0  0  0  0  0  0  0  0  0
   -2.1335    3.6794    1.5692 C   0  0  2  0  0  0  0  0  0  0  0  0
   -0.6940    3.7264    1.6986 N   0  0  0  0  0  0  0  0  0  0  0  0
    0.0616    3.7340    2.8906 C   0  0  0  0  0  0  0  0  0  0  0  0
   -0.5762    3.6668    3.9488 O   0  0  0  0  0  0  0  0  0  0  0  0
    1.5513    3.8175    2.8966 C   0  0  2  0  0  0  0  0  0  0  0  0
    1.8458    5.2833    3.2086 C   0  0  0  0  0  0  0  0  0  0  0  0
    1.4004    5.8935    1.8615 C   0  0  0  0  0  0  0  0  0  0  0  0
    2.0080    4.9131    0.8401 C   0  0  0  0  0  0  0  0  0  0  0  0
    2.0666    3.6682    1.5184 N   0  0  0  0  0  0  0  0  0  0  0  0
    2.5531    2.3905    1.0661 C   0  0  0  0  0  0  0  0  0  0  0  0
    2.5755    1.5455    1.9754 O   0  0  0  0  0  0  0  0  0  0  0  0
    2.9555    2.2124   -0.3355 C   0  0  1  0  0  0  0  0  0  0  0  0
    3.9777    3.2500   -0.7011 C   0  0  0  0  0  0  0  0  0  0  0  0
    4.9869    2.5078   -1.5497 C   0  0  0  0  0  0  0  0  0  0  0  0
    4.3329    1.1783   -1.8276 C   0  0  0  0  0  0  0  0  0  0  0  0
    3.4282    0.9285   -0.7549 N   0  0  0  0  0  0  0  0  0  0  0  0
    2.9529   -0.3325   -0.3008 C   0  0  0  0  0  0  0  0  0  0  0  0
    1.8830   -0.2001    0.3643 O   0  0  0  0  0  0  0  0  0  0  0  0
    3.4712   -1.6631   -0.5005 C   0  0  2  0  0  0  0  0  0  0  0  0
    4.8904   -1.9576   -0.7984 C   0  0  0  0  0  0  0  0  0  0  0  0
    5.8664   -1.5745    0.2433 C   0  0  0  0  0  0  0  0  0  0  0  0
    6.6427   -0.4499    0.2759 C   0  0  0  0  0  0  0  0  0  0  0  0
    7.5233   -0.1708    1.3311 C   0  0  0  0  0  0  0  0  0  0  0  0
    7.6506   -1.0257    2.3983 C   0  0  0  0  0  0  0  0  0  0  0  0
    6.8785   -2.1616    2.3821 C   0  0  0  0  0  0  0  0  0  0  0  0
    6.0000   -2.4379    1.3271 C   0  0  0  0  0  0  0  0  0  0  0  0
    2.4984   -2.6399   -1.0212 N   0  0  0  0  0  0  0  0  0  0  0  0
    2.4735   -4.0170   -0.6592 C   0  0  0  0  0  0  0  0  0  0  0  0
    3.3540   -4.3668    0.1474 O   0  0  0  0  0  0  0  0  0  0  0  0
    1.5387   -5.0213   -1.1523 C   0  0  1  0  0  0  0  0  0  0  0  0
    0.2650   -4.5585   -1.6447 N   0  0  0  0  0  0  0  0  0  0  0  0
   -0.7491   -5.5326   -2.0117 C   0  0  0  0  0  0  0  0  0  0  0  0
   -0.3443   -6.6989   -2.0053 O   0  0  0  0  0  0  0  0  0  0  0  0
   -2.1371   -5.1147   -2.3675 C   0  0  1  0  0  0  0  0  0  0  0  0
   -2.3538   -3.7361   -1.8796 N   0  0  0  0  0  0  0  0  0  0  0  0
   -2.9425   -3.5522   -0.5738 C   0  0  0  0  0  0  0  0  0  0  0  0
   -3.2306   -4.6229   -0.0009 O   0  0  0  0  0  0  0  0  0  0  0  0
   -3.2022   -2.2954    0.0823 C   0  0  0  0  0  0  0  0  0  0  0  0
   -3.1363   -1.1062   -0.7469 N   0  0  0  0  0  0  0  0  0  0  0  0
   -3.7355    0.0875   -0.3305 C   0  0  0  0  0  0  0  0  0  0  0  0
   -4.1652    0.0037    0.8955 O   0  0  0  0  0  0  0  0  0  0  0  0
   -3.9553    1.3642   -0.9604 C   0  0  1  0  0  0  0  0  0  0  0  0
   -3.7966    2.4848    0.0084 N   0  0  0  0  0  0  0  0  0  0  0  0
   -2.5058    2.6365    0.5954 C   0  0  0  0  0  0  0  0  0  0  0  0
   -1.6502    1.8195    0.2363 O   0  0  0  0  0  0  0  0  0  0  0  0
   -3.7276    1.6779   -2.3493 C   0  0  0  0  0  0  0  0  0  0  0  0
   -2.4130    1.5430   -2.9850 C   0  0  0  0  0  0  0  0  0  0  0  0
   -1.3889    2.4596   -2.9118 C   0  0  0  0  0  0  0  0  0  0  0  0
   -0.1929    2.2661   -3.6050 C   0  0  0  0  0  0  0  0  0  0  0  0
    0.0025    1.1352   -4.3963 C   0  0  0  0  0  0  0  0  0  0  0  0
   -1.0233    0.2032   -4.4780 C   0  0  0  0  0  0  0  0  0  0  0  0
   -2.1616    0.4282   -3.7923 C   0  0  0  0  0  0  0  0  0  0  0  0
   -2.1645   -2.1424    1.2378 C   0  0  0  0  0  0  0  0  0  0  0  0
   -2.2833   -3.2481    2.1993 C   0  0  0  0  0  0  0  0  0  0  0  0
   -3.1804   -3.1372    3.2493 C   0  0  0  0  0  0  0  0  0  0  0  0
   -3.3252   -4.1760    4.1779 C   0  0  0  0  0  0  0  0  0  0  0  0
   -2.5817   -5.3444    4.0812 C   0  0  0  0  0  0  0  0  0  0  0  0
   -1.7000   -5.4431    3.0450 C   0  0  0  0  0  0  0  0  0  0  0  0
   -1.5481   -4.4259    2.1223 C   0  0  0  0  0  0  0  0  0  0  0  0
   -0.9413   -6.5686    2.8998 C   0  0  0  0  0  0  0  0  0  0  0  0
   -1.0567   -7.6216    3.8000 C   0  0  0  0  0  0  0  0  0  0  0  0
   -1.9539   -7.5094    4.8491 C   0  0  0  0  0  0  0  0  0  0  0  0
   -2.7234   -6.3628    4.9917 C   0  0  0  0  0  0  0  0  0  0  0  0
   -2.4875   -5.2515   -3.7941 C   0  0  0  0  0  0  0  0  0  0  0  0
   -2.3952   -6.6432   -4.2407 C   0  0  0  0  0  0  0  0  0  0  0  0
   -2.4588   -6.8464   -5.5015 O   0  0  0  0  0  0  0  0  0  0  0  0
   -2.2494   -7.7840   -3.4270 N   0  0  0  0  0  0  0  0  0  0  0  0
    2.2956   -5.5485   -2.4528 C   0  0  0  0  0  0  0  0  0  0  0  0
   -2.8968    9.9922    1.9452 N   0  0  0  0  0  0  0  0  0  0  0  0
   -3.8647    9.6377   -1.1192 H   0  0  0  0  0  0  0  0  0  0  0  0
   -5.1494    9.7505    0.0886 H   0  0  0  0  0  0  0  0  0  0  0  0
   -4.1335    6.8616   -0.2075 H   0  0  0  0  0  0  0  0  0  0  0  0
   -2.7404    7.4564   -1.1728 H   0  0  0  0  0  0  0  0  0  0  0  0
   -2.5304    5.0318   -0.9186 H   0  0  0  0  0  0  0  0  0  0  0  0
   -1.2369    5.8353   -0.0467 H   0  0  0  0  0  0  0  0  0  0  0  0
   -3.8577    4.9646    1.3167 H   0  0  0  0  0  0  0  0  0  0  0  0
   -2.4326    5.6915    2.0982 H   0  0  0  0  0  0  0  0  0  0  0  0
   -2.5253    3.4073    2.5668 H   0  0  0  0  0  0  0  0  0  0  0  0
   -0.1557    3.7348    0.8228 H   0  0  0  0  0  0  0  0  0  0  0  0
    1.9466    3.1154    3.5975 H   0  0  0  0  0  0  0  0  0  0  0  0
    1.1681    5.6275    3.9929 H   0  0  0  0  0  0  0  0  0  0  0  0
    2.8953    5.4851    3.4279 H   0  0  0  0  0  0  0  0  0  0  0  0
    0.3124    5.9628    1.7841 H   0  0  0  0  0  0  0  0  0  0  0  0
    1.8816    6.8805    1.8281 H   0  0  0  0  0  0  0  0  0  0  0  0
    3.0131    5.3932    0.6374 H   0  0  0  0  0  0  0  0  0  0  0  0
    1.5114    4.9466   -0.1311 H   0  0  0  0  0  0  0  0  0  0  0  0
    2.0644    2.4233   -1.0128 H   0  0  0  0  0  0  0  0  0  0  0  0
    4.4504    3.6808    0.1963 H   0  0  0  0  0  0  0  0  0  0  0  0
    3.5270    4.0741   -1.2771 H   0  0  0  0  0  0  0  0  0  0  0  0
    5.9166    2.4467   -0.9678 H   0  0  0  0  0  0  0  0  0  0  0  0
    5.2170    3.0517   -2.4833 H   0  0  0  0  0  0  0  0  0  0  0  0
    5.0711    0.4678   -2.1069 H   0  0  0  0  0  0  0  0  0  0  0  0
    3.7303    1.3942   -2.7959 H   0  0  0  0  0  0  0  0  0  0  0  0
    3.4779   -2.1281    0.6387 H   0  0  0  0  0  0  0  0  0  0  0  0
    5.2248   -1.7332   -1.8383 H   0  0  0  0  0  0  0  0  0  0  0  0
    4.9528   -3.1082   -0.8117 H   0  0  0  0  0  0  0  0  0  0  0  0
    6.6365    0.2565   -0.5043 H   0  0  0  0  0  0  0  0  0  0  0  0
    8.1178    0.7556    1.2866 H   0  0  0  0  0  0  0  0  0  0  0  0
    8.3270   -0.7896    3.1960 H   0  0  0  0  0  0  0  0  0  0  0  0
    6.9618   -2.8688    3.2268 H   0  0  0  0  0  0  0  0  0  0  0  0
    5.4522   -3.3542    1.4298 H   0  0  0  0  0  0  0  0  0  0  0  0
    1.7678   -2.3651   -1.6861 H   0  0  0  0  0  0  0  0  0  0  0  0
    1.5372   -5.9181   -0.5549 H   0  0  0  0  0  0  0  0  0  0  0  0
   -0.0290   -3.5935   -1.7853 H   0  0  0  0  0  0  0  0  0  0  0  0
   -2.7783   -5.7641   -1.7486 H   0  0  0  0  0  0  0  0  0  0  0  0
   -2.1254   -2.8989   -2.3779 H   0  0  0  0  0  0  0  0  0  0  0  0
   -4.1754   -2.2827    0.6073 H   0  0  0  0  0  0  0  0  0  0  0  0
   -2.6450   -1.1442   -1.6140 H   0  0  0  0  0  0  0  0  0  0  0  0
   -5.1799    1.3626   -0.9222 H   0  0  0  0  0  0  0  0  0  0  0  0
   -4.5017    3.1370    0.2861 H   0  0  0  0  0  0  0  0  0  0  0  0
   -4.1518    2.7310   -2.5496 H   0  0  0  0  0  0  0  0  0  0  0  0
   -4.5004    1.0636   -2.9591 H   0  0  0  0  0  0  0  0  0  0  0  0
   -1.5441    3.3394   -2.2991 H   0  0  0  0  0  0  0  0  0  0  0  0
    0.6182    2.9741   -3.5552 H   0  0  0  0  0  0  0  0  0  0  0  0
    0.9346    1.0002   -4.9263 H   0  0  0  0  0  0  0  0  0  0  0  0
   -0.8883   -0.6797   -5.0890 H   0  0  0  0  0  0  0  0  0  0  0  0
   -2.9629   -0.3229   -3.8796 H   0  0  0  0  0  0  0  0  0  0  0  0
   -1.1780   -2.2063    0.7455 H   0  0  0  0  0  0  0  0  0  0  0  0
   -2.2799   -1.1395    1.6713 H   0  0  0  0  0  0  0  0  0  0  0  0
   -3.7904   -2.2677    3.4007 H   0  0  0  0  0  0  0  0  0  0  0  0
   -4.0119   -4.1202    5.0081 H   0  0  0  0  0  0  0  0  0  0  0  0
   -0.8345   -4.5078    1.2917 H   0  0  0  0  0  0  0  0  0  0  0  0
   -0.2263   -6.7030    2.0996 H   0  0  0  0  0  0  0  0  0  0  0  0
   -0.4819   -8.5290    3.7297 H   0  0  0  0  0  0  0  0  0  0  0  0
   -2.0778   -8.2984    5.5804 H   0  0  0  0  0  0  0  0  0  0  0  0
   -3.4423   -6.2423    5.8046 H   0  0  0  0  0  0  0  0  0  0  0  0
   -1.8482   -4.6485   -4.4800 H   0  0  0  0  0  0  0  0  0  0  0  0
   -3.5672   -4.9655   -3.9038 H   0  0  0  0  0  0  0  0  0  0  0  0
   -2.8170   -7.8980   -2.5333 H   0  0  0  0  0  0  0  0  0  0  0  0
   -1.5549   -8.5397   -3.7192 H   0  0  0  0  0  0  0  0  0  0  0  0
    1.8552   -6.5362   -2.6605 H   0  0  0  0  0  0  0  0  0  0  0  0
    3.3365   -5.6987   -2.1118 H   0  0  0  0  0  0  0  0  0  0  0  0
    2.1904   -4.8064   -3.2497 H   0  0  0  0  0  0  0  0  0  0  0  0
   -1.9059   10.3679    2.0247 H   0  0  0  0  0  0  0  0  0  0  0  0
   -3.5521   10.3309    2.6755 H   0  0  0  0  0  0  0  0  0  0  0  0
  1  2  1  0
  2  3  2  3
  3  4  1  0
  4  5  1  0
  5  6  1  0
  6  7  1  0
  7  8  1  0
  8  9  1  0
  9 10  2  0
  9 11  1  0
 11 12  1  0
 12 13  1  0
 13 14  1  0
 14 15  1  0
 15 16  1  0
 16 17  2  0
 16 18  1  0
 18 19  1  0
 19 20  1  0
 20 21  1  0
 21 22  1  0
 22 23  1  0
 23 24  2  0
 23 25  1  0
 25 26  1  0
 26 27  1  0
 27 28  2  0
 28 29  1  0
 29 30  2  0
 30 31  1  0
 31 32  2  0
 25 33  1  0
 33 34  1  0
 34 35  2  0
 34 36  1  0
 36 37  1  0
 37 38  1  0
 38 39  2  0
 38 40  1  0
 40 41  1  0
 41 42  1  0
 42 43  2  0
 42 44  1  0
 44 45  1  0
 45 46  1  0
 46 47  2  0
 46 48  1  0
 48 49  1  0
 49 50  1  0
 50 51  2  0
 48 52  1  0
 52 53  1  0
 53 54  2  0
 54 55  1  0
 55 56  2  0
 56 57  1  0
 57 58  2  0
 44 59  1  0
 59 60  1  0
 60 61  2  0
 61 62  1  0
 62 63  2  0
 63 64  1  0
 64 65  2  0
 64 66  1  0
 66 67  2  0
 67 68  1  0
 68 69  2  0
 40 70  1  0
 70 71  1  0
 71 72  2  0
 71 73  1  0
 36 74  1  0
  2 75  1  0
 50  7  1  0
 58 53  1  0
 65 60  1  0
 15 11  1  0
 22 18  1  0
 32 27  1  0
 69 63  1  0
  1 76  1  0
  1 77  1  0
  4 78  1  0
  4 79  1  0
  5 80  1  0
  5 81  1  0
  6 82  1  0
  6 83  1  0
  7 84  1  1
  8 85  1  0
 11 86  1  1
 12 87  1  0
 12 88  1  0
 13 89  1  0
 13 90  1  0
 14 91  1  0
 14 92  1  0
 18 93  1  6
 19 94  1  0
 19 95  1  0
 20 96  1  0
 20 97  1  0
 21 98  1  0
 21 99  1  0
 25100  1  1
 26101  1  0
 26102  1  0
 28103  1  0
 29104  1  0
 30105  1  0
 31106  1  0
 32107  1  0
 33108  1  0
 36109  1  1
 37110  1  0
 40111  1  1
 41112  1  0
 44113  1  0
 45114  1  0
 48115  1  6
 49116  1  0
 52117  1  0
 52118  1  0
 54119  1  0
 55120  1  0
 56121  1  0
 57122  1  0
 58123  1  0
 59124  1  0
 59125  1  0
 61126  1  0
 62127  1  0
 65128  1  0
 66129  1  0
 67130  1  0
 68131  1  0
 69132  1  0
 70133  1  0
 70134  1  0
 73135  1  0
 73136  1  0
 74137  1  0
 74138  1  0
 74139  1  0
 75140  1  0
 75141  1  0
M  END
>  <Ligand ID>  (1) 
LIG0005505

>  <Ligand>  (1) 
CHEMBL3577994

>  <SMILES>  (1) 
NC(=NCCC[C@@H]1NC(=O)[C@@H]2CCCN2C(=O)[C@H]2CCCN2C(=O)[C@H](Cc2ccccc2)NC(=O)[C@@H](NC(=O)[C@@H](NC(=O)C(NC(=O)[C@@H](NC1=O)Cc1ccccc1)Cc1ccc2c(c1)cccc2)CC(=O)N)C)N

>  <CID>  (1) 
122178165.0

>  <ChEMBL ID>  (1) 
nan

>  <InChiKey>  (1) 
DNVIWLKKWIYAKK-JHQNEBCVSA-N

>  <InChi>  (1) 
InChI=1S/C54H66N12O9/c1-32-46(68)64-42(29-34-15-6-3-7-16-34)52(74)66-26-12-21-44(66)53(75)65-25-11-20-43(65)51(73)60-38(19-10-24-58-54(56)57)47(69)61-39(28-33-13-4-2-5-14-33)49(71)62-40(50(72)63-41(31-45(55)67)48(70)59-32)30-35-22-23-36-17-8-9-18-37(36)27-35/h2-9,13-18,22-23,27,32,38-44H,10-12,19-21,24-26,28-31H2,1H3,(H2,55,67)(H,59,70)(H,60,73)(H,61,69)(H,62,71)(H,63,72)(H,64,68)(H4,56,57,58)/t32-,38-,39-,40?,41-,42-,43-,44+/m0/s1

>  <IUPAC Name>  (1) 
2-[(3R,9S,12S,15S,21S,24S,27S)-9,21-dibenzyl-24-[3-(diaminomethylideneamino)propyl]-12-methyl-18-(naphthalen-2-ylmethyl)-2,8,11,14,17,20,23,26-octaoxo-1,7,10,13,16,19,22,25-octazatricyclo[25.3.0.03,7]triacontan-15-yl]acetamide

$$$$
