
     RDKit          3D

 42 43  0  0  0  0  0  0  0  0999 V2000
   -7.3127    1.7776   -0.6938 C   0  0  0  0  0  0  0  0  0  0  0  0
   -6.0435    1.2980   -1.0347 O   0  0  0  0  0  0  0  0  0  0  0  0
   -5.2617    0.6198   -0.1102 C   0  0  0  0  0  0  0  0  0  0  0  0
   -5.6995    0.3901    1.1795 C   0  0  0  0  0  0  0  0  0  0  0  0
   -4.9347   -0.2756    2.0905 C   0  0  0  0  0  0  0  0  0  0  0  0
   -5.4741   -0.6257    3.8812 Br  0  0  0  0  0  0  0  0  0  0  0  0
   -3.6905   -0.7277    1.7017 C   0  0  0  0  0  0  0  0  0  0  0  0
   -3.1979   -0.5229    0.4093 C   0  0  0  0  0  0  0  0  0  0  0  0
   -4.0004    0.1545   -0.4841 C   0  0  0  0  0  0  0  0  0  0  0  0
   -3.5519    0.3825   -1.7839 O   0  0  0  0  0  0  0  0  0  0  0  0
   -1.8778   -1.0205    0.0453 C   0  0  0  0  0  0  0  0  0  0  0  0
   -1.3500   -0.8759   -1.1179 N   0  0  0  0  0  0  0  0  0  0  0  0
   -0.0583   -1.3842   -1.4118 N   0  0  0  0  0  0  0  0  0  0  0  0
    1.0895   -0.8280   -0.7882 C   0  0  0  0  0  0  0  0  0  0  0  0
    1.0278    0.1189    0.0362 O   0  0  0  0  0  0  0  0  0  0  0  0
    2.4126   -1.4367   -1.1673 C   0  0  0  0  0  0  0  0  0  0  0  0
    3.5496   -0.8181   -0.4883 C   0  0  0  0  0  0  0  0  0  0  0  0
    4.1683   -1.5184    0.5516 C   0  0  0  0  0  0  0  0  0  0  0  0
    5.2444   -1.0203    1.2437 C   0  0  0  0  0  0  0  0  0  0  0  0
    5.7171    0.2152    0.8862 C   0  0  0  0  0  0  0  0  0  0  0  0
    5.1075    0.9026   -0.1365 C   0  0  0  0  0  0  0  0  0  0  0  0
    4.0243    0.4244   -0.8481 C   0  0  0  0  0  0  0  0  0  0  0  0
    3.4784    1.2262   -1.8693 N   0  0  0  0  0  0  0  0  0  0  0  0
    3.6125    2.4715   -1.7432 O   0  0  0  0  0  0  0  0  0  0  0  0
    2.8224    0.7956   -2.9721 O   0  0  0  0  0  0  0  0  0  0  0  0
    6.8814    0.7875    1.6124 C   0  0  0  0  0  0  0  0  0  0  0  0
    7.4913    1.7336    0.8104 F   0  0  0  0  0  0  0  0  0  0  0  0
    7.8402   -0.1527    1.8990 F   0  0  0  0  0  0  0  0  0  0  0  0
    6.4522    1.4335    2.7399 F   0  0  0  0  0  0  0  0  0  0  0  0
   -7.3668    2.2363    0.3147 H   0  0  0  0  0  0  0  0  0  0  0  0
   -8.1006    0.9833   -0.7356 H   0  0  0  0  0  0  0  0  0  0  0  0
   -7.6343    2.6044   -1.3917 H   0  0  0  0  0  0  0  0  0  0  0  0
   -6.6755    0.7363    1.5102 H   0  0  0  0  0  0  0  0  0  0  0  0
   -3.0425   -1.2603    2.3806 H   0  0  0  0  0  0  0  0  0  0  0  0
   -4.2013    0.2807   -2.5718 H   0  0  0  0  0  0  0  0  0  0  0  0
   -1.2906   -1.5459    0.7839 H   0  0  0  0  0  0  0  0  0  0  0  0
   -0.0206   -2.1679   -2.0948 H   0  0  0  0  0  0  0  0  0  0  0  0
    2.3417   -2.5149   -0.8715 H   0  0  0  0  0  0  0  0  0  0  0  0
    2.4964   -1.3340   -2.2642 H   0  0  0  0  0  0  0  0  0  0  0  0
    3.7713   -2.5066    0.8200 H   0  0  0  0  0  0  0  0  0  0  0  0
    5.7163   -1.5768    2.0515 H   0  0  0  0  0  0  0  0  0  0  0  0
    5.5401    1.8871   -0.3685 H   0  0  0  0  0  0  0  0  0  0  0  0
  1  2  1  0
  2  3  1  0
  3  4  2  0
  4  5  1  0
  5  6  1  0
  5  7  2  0
  7  8  1  0
  8  9  2  0
  9 10  1  0
  8 11  1  0
 11 12  2  0
 12 13  1  0
 13 14  1  0
 14 15  2  0
 14 16  1  0
 16 17  1  0
 17 18  2  0
 18 19  1  0
 19 20  2  0
 20 21  1  0
 21 22  2  0
 22 23  1  0
 23 24  2  0
 23 25  1  0
 20 26  1  0
 26 27  1  0
 26 28  1  0
 26 29  1  0
  9  3  1  0
 22 17  1  0
  1 30  1  0
  1 31  1  0
  1 32  1  0
  4 33  1  0
  7 34  1  0
 10 35  1  0
 11 36  1  0
 13 37  1  0
 16 38  1  0
 16 39  1  0
 18 40  1  0
 19 41  1  0
 21 42  1  0
M  CHG  2  23   1  25  -1
M  END
>  <Ligand ID>  (1) 
LIG0004720

>  <Ligand>  (1) 
MLS000587743

>  <SMILES>  (1) 
COc1cc(Br)cc(c1O)/C=N/NC(=O)Cc1ccc(cc1[N+](=O)[O-])C(F)(F)F

>  <CID>  (1) 
135521517.0

>  <ChEMBL ID>  (1) 
nan

>  <InChiKey>  (1) 
BKBZUYLYUUBWOV-GZIVZEMBSA-N

>  <InChi>  (1) 
InChI=1S/C17H13BrF3N3O5/c1-29-14-7-12(18)4-10(16(14)26)8-22-23-15(25)5-9-2-3-11(17(19,20)21)6-13(9)24(27)28/h2-4,6-8,26H,5H2,1H3,(H,23,25)/b22-8+

>  <IUPAC Name>  (1) 
N-[(E)-(5-bromo-2-hydroxy-3-methoxyphenyl)methylideneamino]-2-[2-nitro-4-(trifluoromethyl)phenyl]acetamide

$$$$
