
     RDKit          3D

 57 60  0  0  0  0  0  0  0  0999 V2000
    6.8668   -1.3822    1.3689 C   0  0  0  0  0  0  0  0  0  0  0  0
    6.3557   -1.1092   -0.0283 C   0  0  0  0  0  0  0  0  0  0  0  0
    4.9886   -0.5168   -0.0378 C   0  0  0  0  0  0  0  0  0  0  0  0
    3.8822   -1.3050   -0.3475 C   0  0  0  0  0  0  0  0  0  0  0  0
    2.6183   -0.7580   -0.3397 C   0  0  0  0  0  0  0  0  0  0  0  0
    1.2349   -1.3001   -0.6159 C   0  0  0  0  0  0  0  0  0  0  0  0
    0.5866   -0.0573   -1.1091 C   0  0  0  0  0  0  0  0  0  0  0  0
    1.0767    0.9497   -0.0763 C   0  0  0  0  0  0  0  0  0  0  0  0
    2.5143    0.5781   -0.0169 C   0  0  0  0  0  0  0  0  0  0  0  0
    3.5938    1.3764    0.2924 C   0  0  0  0  0  0  0  0  0  0  0  0
    4.8521    0.8157    0.2804 C   0  0  0  0  0  0  0  0  0  0  0  0
    5.9931    1.7080    0.6033 C   0  0  0  0  0  0  0  0  0  0  0  0
    6.6979    2.1100   -0.6724 C   0  0  0  0  0  0  0  0  0  0  0  0
   -0.7889   -0.0282   -1.3271 N   0  0  0  0  0  0  0  0  0  0  0  0
   -1.6782   -0.2553   -0.2461 C   0  0  0  0  0  0  0  0  0  0  0  0
   -3.0914   -0.0853   -0.8285 C   0  0  1  0  0  0  0  0  0  0  0  0
   -4.1447   -0.2150    0.1900 C   0  0  0  0  0  0  0  0  0  0  0  0
   -3.8735   -0.4020    1.5413 C   0  0  0  0  0  0  0  0  0  0  0  0
   -4.9196   -0.5022    2.4056 C   0  0  0  0  0  0  0  0  0  0  0  0
   -6.2345   -0.4253    1.9858 C   0  0  0  0  0  0  0  0  0  0  0  0
   -6.5154   -0.2419    0.6551 C   0  0  0  0  0  0  0  0  0  0  0  0
   -5.4644   -0.1354   -0.2545 C   0  0  0  0  0  0  0  0  0  0  0  0
   -5.7765    0.0503   -1.5885 C   0  0  0  0  0  0  0  0  0  0  0  0
   -7.0956    0.1278   -2.0004 C   0  0  0  0  0  0  0  0  0  0  0  0
   -8.1053    0.0170   -1.0640 C   0  0  0  0  0  0  0  0  0  0  0  0
   -9.2984    0.0927   -1.4774 O   0  0  0  0  0  0  0  0  0  0  0  0
   -7.8003   -0.1633    0.2304 N   0  0  0  0  0  0  0  0  0  0  0  0
   -7.3042   -0.5262    2.8642 O   0  0  0  0  0  0  0  0  0  0  0  0
   -3.2015    1.2164   -1.3444 O   0  0  0  0  0  0  0  0  0  0  0  0
    7.9086   -1.0270    1.5000 H   0  0  0  0  0  0  0  0  0  0  0  0
    6.1838   -1.0272    2.1686 H   0  0  0  0  0  0  0  0  0  0  0  0
    6.9111   -2.4887    1.4839 H   0  0  0  0  0  0  0  0  0  0  0  0
    6.3349   -2.0276   -0.6505 H   0  0  0  0  0  0  0  0  0  0  0  0
    7.0674   -0.3803   -0.4811 H   0  0  0  0  0  0  0  0  0  0  0  0
    4.0299   -2.3347   -0.5909 H   0  0  0  0  0  0  0  0  0  0  0  0
    0.8850   -1.6954    0.3380 H   0  0  0  0  0  0  0  0  0  0  0  0
    1.2782   -2.1140   -1.3674 H   0  0  0  0  0  0  0  0  0  0  0  0
    1.1036    0.2311   -2.0659 H   0  0  0  0  0  0  0  0  0  0  0  0
    0.9171    1.9847   -0.3959 H   0  0  0  0  0  0  0  0  0  0  0  0
    0.5619    0.7852    0.8790 H   0  0  0  0  0  0  0  0  0  0  0  0
    3.4573    2.4213    0.5401 H   0  0  0  0  0  0  0  0  0  0  0  0
    5.6498    2.5721    1.2104 H   0  0  0  0  0  0  0  0  0  0  0  0
    6.7407    1.0737    1.1631 H   0  0  0  0  0  0  0  0  0  0  0  0
    7.7823    1.9045   -0.6459 H   0  0  0  0  0  0  0  0  0  0  0  0
    6.5675    3.2077   -0.7929 H   0  0  0  0  0  0  0  0  0  0  0  0
    6.2173    1.5810   -1.5092 H   0  0  0  0  0  0  0  0  0  0  0  0
   -1.1697   -0.3780   -2.2067 H   0  0  0  0  0  0  0  0  0  0  0  0
   -1.5701   -1.3041    0.0958 H   0  0  0  0  0  0  0  0  0  0  0  0
   -1.5482    0.4295    0.6108 H   0  0  0  0  0  0  0  0  0  0  0  0
   -3.2342   -0.7792   -1.6694 H   0  0  0  0  0  0  0  0  0  0  0  0
   -2.8534   -0.4665    1.8885 H   0  0  0  0  0  0  0  0  0  0  0  0
   -4.6861   -0.6488    3.4642 H   0  0  0  0  0  0  0  0  0  0  0  0
   -5.0023    0.1383   -2.3362 H   0  0  0  0  0  0  0  0  0  0  0  0
   -7.2806    0.2761   -3.0595 H   0  0  0  0  0  0  0  0  0  0  0  0
   -8.6144   -0.2386    0.8876 H   0  0  0  0  0  0  0  0  0  0  0  0
   -7.2757   -1.0048    3.7442 H   0  0  0  0  0  0  0  0  0  0  0  0
   -2.3302    1.6764   -1.2168 H   0  0  0  0  0  0  0  0  0  0  0  0
  1  2  1  0
  2  3  1  0
  3  4  2  0
  4  5  1  0
  5  6  1  0
  6  7  1  0
  7  8  1  0
  8  9  1  0
  9 10  1  0
 10 11  2  0
 11 12  1  0
 12 13  1  0
  7 14  1  0
 14 15  1  0
 15 16  1  0
 16 17  1  0
 17 18  2  0
 18 19  1  0
 19 20  2  0
 20 21  1  0
 21 22  2  0
 22 23  1  0
 23 24  2  0
 24 25  1  0
 25 26  2  0
 25 27  1  0
 20 28  1  0
 16 29  1  0
 11  3  1  0
 22 17  1  0
  9  5  2  0
 27 21  1  0
  1 30  1  0
  1 31  1  0
  1 32  1  0
  2 33  1  0
  2 34  1  0
  4 35  1  0
  6 36  1  0
  6 37  1  0
  7 38  1  0
  8 39  1  0
  8 40  1  0
 10 41  1  0
 12 42  1  0
 12 43  1  0
 13 44  1  0
 13 45  1  0
 13 46  1  0
 14 47  1  0
 15 48  1  0
 15 49  1  0
 16 50  1  6
 18 51  1  0
 19 52  1  0
 23 53  1  0
 24 54  1  0
 27 55  1  0
 28 56  1  0
 29 57  1  0
M  END
>  <Ligand ID>  (1) 
LIG0000966

>  <Ligand>  (1) 
indacaterol

>  <SMILES>  (1) 
CCc1cc2CC(Cc2cc1CC)NC[C@@H](c1ccc(c2c1ccc(=O)[nH]2)O)O

>  <CID>  (1) 
6918554.0

>  <ChEMBL ID>  (1) 
nan

>  <InChiKey>  (1) 
QZZUEBNBZAPZLX-QFIPXVFZSA-N

>  <InChi>  (1) 
InChI=1S/C24H28N2O3/c1-3-14-9-16-11-18(12-17(16)10-15(14)4-2)25-13-22(28)19-5-7-21(27)24-20(19)6-8-23(29)26-24/h5-10,18,22,25,27-28H,3-4,11-13H2,1-2H3,(H,26,29)/t22-/m0/s1

>  <IUPAC Name>  (1) 
5-[(1R)-2-[(5,6-diethyl-2,3-dihydro-1H-inden-2-yl)amino]-1-hydroxyethyl]-8-hydroxy-1H-quinolin-2-one

$$$$
