
     RDKit          3D

 65 67  0  0  0  0  0  0  0  0999 V2000
   -1.0050   -2.9127   -2.7320 O   0  0  0  0  0  0  0  0  0  0  0  0
   -0.9055   -2.6442   -1.3677 C   0  0  2  0  0  0  0  0  0  0  0  0
   -2.2752   -2.1807   -0.9097 C   0  0  2  0  0  0  0  0  0  0  0  0
   -3.3124   -2.7623   -1.5932 O   0  0  0  0  0  0  0  0  0  0  0  0
   -2.1476   -0.6776   -1.1855 C   0  0  2  0  0  0  0  0  0  0  0  0
   -0.8860   -0.4258   -0.6684 O   0  0  0  0  0  0  0  0  0  0  0  0
   -0.0794   -1.3933   -1.2082 C   0  0  1  0  0  0  0  0  0  0  0  0
    1.0419   -1.7344   -0.3297 N   0  0  0  0  0  0  0  0  0  0  0  0
    1.2455   -0.9584    0.7533 C   0  0  0  0  0  0  0  0  0  0  0  0
    2.3252   -1.3238    1.5594 C   0  0  0  0  0  0  0  0  0  0  0  0
    3.1251   -2.4115    1.2563 C   0  0  0  0  0  0  0  0  0  0  0  0
    2.8667   -3.1448    0.1589 N   0  0  0  0  0  0  0  0  0  0  0  0
    1.8131   -2.7936   -0.6336 C   0  0  0  0  0  0  0  0  0  0  0  0
    1.6285   -3.5221   -1.6428 O   0  0  0  0  0  0  0  0  0  0  0  0
    4.2292   -2.8101    2.0538 N   0  0  0  0  0  0  0  0  0  0  0  0
    5.4899   -2.3609    1.8709 O   0  0  0  0  0  0  0  0  0  0  0  0
    5.7695   -2.2405    0.5291 C   0  0  0  0  0  0  0  0  0  0  0  0
    7.1994   -1.7717    0.4092 C   0  0  0  0  0  0  0  0  0  0  0  0
    7.4144   -0.4505    1.0819 C   0  0  0  0  0  0  0  0  0  0  0  0
    6.6035    0.6520    0.5554 C   0  0  0  0  0  0  0  0  0  0  0  0
    7.1153    1.4172   -0.4830 C   0  0  0  0  0  0  0  0  0  0  0  0
    6.4027    2.4757   -1.0297 C   0  0  0  0  0  0  0  0  0  0  0  0
    5.1521    2.8077   -0.5583 C   0  0  0  0  0  0  0  0  0  0  0  0
    4.6296    2.0572    0.4729 C   0  0  0  0  0  0  0  0  0  0  0  0
    5.3489    0.9952    1.0189 C   0  0  0  0  0  0  0  0  0  0  0  0
    3.4156    2.3505    0.9571 F   0  0  0  0  0  0  0  0  0  0  0  0
   -3.2473    0.0890   -0.4950 C   0  0  0  0  0  0  0  0  0  0  0  0
   -4.4335   -0.2684   -1.1219 O   0  0  0  0  0  0  0  0  0  0  0  0
   -5.7639    0.5235   -0.4314 P   0  0  0  0  0  0  0  0  0  0  0  0
   -5.9233   -0.0546    0.9629 O   0  0  0  0  0  0  0  0  0  0  0  0
   -5.3928    2.1415   -0.2644 O   0  0  0  0  0  0  0  0  0  0  0  0
   -6.7828    3.1004   -0.0798 P   0  0  0  0  0  0  0  0  0  0  0  0
   -7.7925    2.7655   -1.1784 O   0  0  0  0  0  0  0  0  0  0  0  0
   -7.4092    2.7736    1.4515 O   0  0  0  0  0  0  0  0  0  0  0  0
   -8.7498    3.7311    1.8042 P   0  0  0  0  0  0  0  0  0  0  0  0
   -8.3664    4.6388    2.9637 O   0  0  0  0  0  0  0  0  0  0  0  0
   -9.2064    4.6883    0.4899 O   0  0  0  0  0  0  0  0  0  0  0  0
  -10.0063    2.7025    2.2833 O   0  0  0  0  0  0  0  0  0  0  0  0
   -6.4136    4.7343   -0.2255 O   0  0  0  0  0  0  0  0  0  0  0  0
   -7.1702    0.2450   -1.2857 O   0  0  0  0  0  0  0  0  0  0  0  0
   -0.6859   -2.1517   -3.2767 H   0  0  0  0  0  0  0  0  0  0  0  0
   -0.5416   -3.5053   -0.7725 H   0  0  0  0  0  0  0  0  0  0  0  0
   -2.3737   -2.2526    0.2016 H   0  0  0  0  0  0  0  0  0  0  0  0
   -3.8986   -3.2614   -0.9411 H   0  0  0  0  0  0  0  0  0  0  0  0
   -2.1100   -0.5540   -2.2719 H   0  0  0  0  0  0  0  0  0  0  0  0
    0.2965   -1.0044   -2.1794 H   0  0  0  0  0  0  0  0  0  0  0  0
    0.6208   -0.1081    0.9908 H   0  0  0  0  0  0  0  0  0  0  0  0
    2.5635   -0.7480    2.4604 H   0  0  0  0  0  0  0  0  0  0  0  0
    4.0544   -3.4876    2.8232 H   0  0  0  0  0  0  0  0  0  0  0  0
    5.6911   -3.2192   -0.0042 H   0  0  0  0  0  0  0  0  0  0  0  0
    5.0571   -1.5692    0.0218 H   0  0  0  0  0  0  0  0  0  0  0  0
    7.4921   -1.7214   -0.6466 H   0  0  0  0  0  0  0  0  0  0  0  0
    7.8130   -2.5160    0.9588 H   0  0  0  0  0  0  0  0  0  0  0  0
    7.1932   -0.5313    2.1694 H   0  0  0  0  0  0  0  0  0  0  0  0
    8.5117   -0.2274    1.0199 H   0  0  0  0  0  0  0  0  0  0  0  0
    8.0911    1.1837   -0.8749 H   0  0  0  0  0  0  0  0  0  0  0  0
    6.8628    3.0172   -1.8255 H   0  0  0  0  0  0  0  0  0  0  0  0
    4.6381    3.6417   -1.0183 H   0  0  0  0  0  0  0  0  0  0  0  0
    4.9192    0.4108    1.8358 H   0  0  0  0  0  0  0  0  0  0  0  0
   -3.0312    1.1587   -0.6524 H   0  0  0  0  0  0  0  0  0  0  0  0
   -3.2251   -0.1729    0.5696 H   0  0  0  0  0  0  0  0  0  0  0  0
  -10.1299    4.4494    0.2676 H   0  0  0  0  0  0  0  0  0  0  0  0
  -10.6702    2.6268    1.5479 H   0  0  0  0  0  0  0  0  0  0  0  0
   -5.5969    4.9163   -0.7172 H   0  0  0  0  0  0  0  0  0  0  0  0
   -7.0888   -0.4208   -2.0011 H   0  0  0  0  0  0  0  0  0  0  0  0
  1  2  1  0
  2  3  1  0
  3  4  1  0
  3  5  1  0
  5  6  1  0
  6  7  1  0
  7  8  1  0
  8  9  1  0
  9 10  2  0
 10 11  1  0
 11 12  2  0
 12 13  1  0
 13 14  2  0
 11 15  1  0
 15 16  1  0
 16 17  1  0
 17 18  1  0
 18 19  1  0
 19 20  1  0
 20 21  2  0
 21 22  1  0
 22 23  2  0
 23 24  1  0
 24 25  2  0
 24 26  1  0
  5 27  1  0
 27 28  1  0
 28 29  1  0
 29 30  2  0
 29 31  1  0
 31 32  1  0
 32 33  2  0
 32 34  1  0
 34 35  1  0
 35 36  2  0
 35 37  1  0
 35 38  1  0
 32 39  1  0
 29 40  1  0
  7  2  1  0
 13  8  1  0
 25 20  1  0
  1 41  1  0
  2 42  1  1
  3 43  1  1
  4 44  1  0
  5 45  1  6
  7 46  1  6
  9 47  1  0
 10 48  1  0
 15 49  1  0
 17 50  1  0
 17 51  1  0
 18 52  1  0
 18 53  1  0
 19 54  1  0
 19 55  1  0
 21 56  1  0
 22 57  1  0
 23 58  1  0
 25 59  1  0
 27 60  1  0
 27 61  1  0
 37 62  1  0
 38 63  1  0
 39 64  1  0
 40 65  1  0
M  END
>  <Ligand ID>  (1) 
LIG0002507

>  <Ligand>  (1) 
CHEMBL3261362

>  <SMILES>  (1) 
O[C@@H]1[C@H](O)[C@H](O[C@H]1n1ccc(nc1=O)NOCCCc1cccc(c1)F)COP(=O)(OP(=O)(OP(=O)(O)O)O)O

>  <CID>  (1) 
90656213.0

>  <ChEMBL ID>  (1) 
nan

>  <InChiKey>  (1) 
IVCDMZNEXSTYPU-MWQQHZPXSA-N

>  <InChi>  (1) 
InChI=1S/C18H25FN3O15P3/c19-12-5-1-3-11(9-12)4-2-8-33-21-14-6-7-22(18(25)20-14)17-16(24)15(23)13(35-17)10-34-39(29,30)37-40(31,32)36-38(26,27)28/h1,3,5-7,9,13,15-17,23-24H,2,4,8,10H2,(H,29,30)(H,31,32)(H,20,21,25)(H2,26,27,28)/t13-,15-,16-,17-/m1/s1

>  <IUPAC Name>  (1) 
[[(2R,3S,4R,5R)-5-[4-[3-(3-fluorophenyl)propoxyamino]-2-oxopyrimidin-1-yl]-3,4-dihydroxyoxolan-2-yl]methoxy-hydroxyphosphoryl] phosphono hydrogen phosphate

$$$$
