
     RDKit          3D

 23 24  0  0  0  0  0  0  0  0999 V2000
    3.7089    0.4476    0.4694 N   0  0  0  0  0  0  0  0  0  0  0  0
    2.7155   -0.5260    0.1057 C   0  0  0  0  0  0  0  0  0  0  0  0
    1.3765   -0.1049    0.6611 C   0  0  2  0  0  0  0  0  0  0  0  0
    0.3800   -1.0024    0.3441 O   0  0  0  0  0  0  0  0  0  0  0  0
   -0.4698   -0.4316   -0.5731 C   0  0  2  0  0  0  0  0  0  0  0  0
   -0.0565    0.9897   -0.7180 C   0  0  0  0  0  0  0  0  0  0  0  0
    1.0204    1.1799    0.0020 C   0  0  0  0  0  0  0  0  0  0  0  0
   -1.8818   -0.4157   -0.1221 C   0  0  0  0  0  0  0  0  0  0  0  0
   -2.5634   -1.4801    0.4720 C   0  0  0  0  0  0  0  0  0  0  0  0
   -3.8345   -1.0757    0.7411 N   0  0  0  0  0  0  0  0  0  0  0  0
   -3.9568    0.2153    0.3275 C   0  0  0  0  0  0  0  0  0  0  0  0
   -2.7792    0.6030   -0.1894 N   0  0  0  0  0  0  0  0  0  0  0  0
    4.6823    0.0881    0.4490 H   0  0  0  0  0  0  0  0  0  0  0  0
    3.4789    0.9857    1.3267 H   0  0  0  0  0  0  0  0  0  0  0  0
    2.6160   -0.6772   -0.9755 H   0  0  0  0  0  0  0  0  0  0  0  0
    3.0335   -1.5026    0.5362 H   0  0  0  0  0  0  0  0  0  0  0  0
    1.4898    0.0403    1.7617 H   0  0  0  0  0  0  0  0  0  0  0  0
   -0.4315   -0.9982   -1.5246 H   0  0  0  0  0  0  0  0  0  0  0  0
   -0.5890    1.7031   -1.3263 H   0  0  0  0  0  0  0  0  0  0  0  0
    1.6021    2.0830    0.1408 H   0  0  0  0  0  0  0  0  0  0  0  0
   -2.1796   -2.4528    0.6893 H   0  0  0  0  0  0  0  0  0  0  0  0
   -4.8540    0.8060    0.4104 H   0  0  0  0  0  0  0  0  0  0  0  0
   -2.5080    1.5256   -0.6009 H   0  0  0  0  0  0  0  0  0  0  0  0
  1  2  1  0
  2  3  1  0
  3  4  1  0
  4  5  1  0
  5  6  1  0
  6  7  2  0
  5  8  1  0
  8  9  2  0
  9 10  1  0
 10 11  2  0
 11 12  1  0
  7  3  1  0
 12  8  1  0
  1 13  1  0
  1 14  1  0
  2 15  1  0
  2 16  1  0
  3 17  1  1
  5 18  1  6
  6 19  1  0
  7 20  1  0
  9 21  1  0
 11 22  1  0
 12 23  1  0
M  END
>  <Ligand ID>  (1) 
LIG0005767

>  <Ligand>  (1) 
CHEMBL109130

>  <SMILES>  (1) 
NC[C@@H]1O[C@H](C=C1)c1cnc[nH]1

>  <CID>  (1) 
10773349.0

>  <ChEMBL ID>  (1) 
nan

>  <InChiKey>  (1) 
DCDBUDNURLZBED-HTRCEHHLSA-N

>  <InChi>  (1) 
InChI=1S/C8H11N3O/c9-3-6-1-2-8(12-6)7-4-10-5-11-7/h1-2,4-6,8H,3,9H2,(H,10,11)/t6-,8-/m1/s1

>  <IUPAC Name>  (1) 
[(2R,5R)-5-(1H-imidazol-5-yl)-2,5-dihydrofuran-2-yl]methanamine

$$$$
