
     RDKit          3D

 31 30  0  0  0  0  0  0  0  0999 V2000
   -3.4081   -1.3043    0.0188 C   0  0  0  0  0  0  0  0  0  0  0  0
   -3.7323    0.1280   -0.1885 C   0  0  0  0  0  0  0  0  0  0  0  0
   -2.9500    1.1263    0.5829 C   0  0  0  0  0  0  0  0  0  0  0  0
   -1.4874    1.1736    0.3573 C   0  0  0  0  0  0  0  0  0  0  0  0
   -0.7074   -0.0564    0.6496 C   0  0  0  0  0  0  0  0  0  0  0  0
    0.7642    0.3049    0.3429 C   0  0  0  0  0  0  0  0  0  0  0  0
    1.6488   -0.8765    0.6103 C   0  0  0  0  0  0  0  0  0  0  0  0
    3.0722   -0.4759    0.2967 C   0  0  0  0  0  0  0  0  0  0  0  0
    3.2516   -0.0675   -1.1283 C   0  0  0  0  0  0  0  0  0  0  0  0
    4.6987    0.3049   -1.3340 C   0  0  0  0  0  0  0  0  0  0  0  0
    5.0889    1.4354   -1.0282 O   0  0  0  0  0  0  0  0  0  0  0  0
   -4.3874   -1.8722    0.1062 H   0  0  0  0  0  0  0  0  0  0  0  0
   -2.9142   -1.8087   -0.8518 H   0  0  0  0  0  0  0  0  0  0  0  0
   -2.9113   -1.5324    0.9929 H   0  0  0  0  0  0  0  0  0  0  0  0
   -4.8106    0.3012    0.0742 H   0  0  0  0  0  0  0  0  0  0  0  0
   -3.6168    0.3633   -1.2693 H   0  0  0  0  0  0  0  0  0  0  0  0
   -3.1666    1.1163    1.6751 H   0  0  0  0  0  0  0  0  0  0  0  0
   -3.3505    2.1390    0.2656 H   0  0  0  0  0  0  0  0  0  0  0  0
   -1.2264    1.5274   -0.6733 H   0  0  0  0  0  0  0  0  0  0  0  0
   -1.0477    1.9799    1.0188 H   0  0  0  0  0  0  0  0  0  0  0  0
   -0.7726   -0.4320    1.6734 H   0  0  0  0  0  0  0  0  0  0  0  0
   -0.8851   -0.9036   -0.0504 H   0  0  0  0  0  0  0  0  0  0  0  0
    0.7699    0.6094   -0.7203 H   0  0  0  0  0  0  0  0  0  0  0  0
    0.9680    1.1642    1.0084 H   0  0  0  0  0  0  0  0  0  0  0  0
    1.5485   -1.2915    1.6105 H   0  0  0  0  0  0  0  0  0  0  0  0
    1.3779   -1.6357   -0.1775 H   0  0  0  0  0  0  0  0  0  0  0  0
    3.3119    0.4158    0.9355 H   0  0  0  0  0  0  0  0  0  0  0  0
    3.7521   -1.3127    0.5358 H   0  0  0  0  0  0  0  0  0  0  0  0
    2.6612    0.8233   -1.4159 H   0  0  0  0  0  0  0  0  0  0  0  0
    3.0552   -0.9105   -1.8242 H   0  0  0  0  0  0  0  0  0  0  0  0
    5.4052   -0.4330   -1.7571 H   0  0  0  0  0  0  0  0  0  0  0  0
  1  2  1  0
  2  3  1  0
  3  4  1  0
  4  5  1  0
  5  6  1  0
  6  7  1  0
  7  8  1  0
  8  9  1  0
  9 10  1  0
 10 11  2  0
  1 12  1  0
  1 13  1  0
  1 14  1  0
  2 15  1  0
  2 16  1  0
  3 17  1  0
  3 18  1  0
  4 19  1  0
  4 20  1  0
  5 21  1  0
  5 22  1  0
  6 23  1  0
  6 24  1  0
  7 25  1  0
  7 26  1  0
  8 27  1  0
  8 28  1  0
  9 29  1  0
  9 30  1  0
 10 31  1  0
M  END
>  <Ligand ID>  (1) 
LIG0000008

>  <Ligand>  (1) 
decyl aldehyde

>  <SMILES>  (1) 
CCCCCCCCCC=O

>  <CID>  (1) 
8175.0

>  <ChEMBL ID>  (1) 
nan

>  <InChiKey>  (1) 
KSMVZQYAVGTKIV-UHFFFAOYSA-N

>  <InChi>  (1) 
InChI=1S/C10H20O/c1-2-3-4-5-6-7-8-9-10-11/h10H,2-9H2,1H3

>  <IUPAC Name>  (1) 
decanal

$$$$
