
     RDKit          3D

 26 28  0  0  0  0  0  0  0  0999 V2000
   -3.5396   -1.0968    0.2509 C   0  0  0  0  0  0  0  0  0  0  0  0
   -3.6552    0.2198    0.6497 C   0  0  0  0  0  0  0  0  0  0  0  0
   -2.5790    1.0892    0.5141 C   0  0  0  0  0  0  0  0  0  0  0  0
   -1.3979    0.5834   -0.0327 C   0  0  0  0  0  0  0  0  0  0  0  0
   -1.2994   -0.7351   -0.4262 C   0  0  0  0  0  0  0  0  0  0  0  0
   -2.3622   -1.6021   -0.2945 C   0  0  0  0  0  0  0  0  0  0  0  0
    0.0591   -0.9998   -0.9688 C   0  0  0  0  0  0  0  0  0  0  0  0
    0.7434    0.3347   -1.0077 C   0  0  0  0  0  0  0  0  0  0  0  0
   -0.1298    1.2974   -0.2772 C   0  0  0  0  0  0  0  0  0  0  0  0
    2.0909    0.2890   -0.3602 C   0  0  0  0  0  0  0  0  0  0  0  0
    3.2926    0.5791   -0.8966 N   0  0  0  0  0  0  0  0  0  0  0  0
    4.2610    0.4117    0.0216 C   0  0  0  0  0  0  0  0  0  0  0  0
    3.6404    0.0025    1.1719 C   0  0  0  0  0  0  0  0  0  0  0  0
    2.3179   -0.0641    0.9117 N   0  0  0  0  0  0  0  0  0  0  0  0
   -4.4080   -1.7435    0.3753 H   0  0  0  0  0  0  0  0  0  0  0  0
   -4.5660    0.6282    1.0764 H   0  0  0  0  0  0  0  0  0  0  0  0
   -2.6466    2.1276    0.8205 H   0  0  0  0  0  0  0  0  0  0  0  0
   -2.3343   -2.6383   -0.5866 H   0  0  0  0  0  0  0  0  0  0  0  0
   -0.0461   -1.4042   -2.0132 H   0  0  0  0  0  0  0  0  0  0  0  0
    0.5634   -1.7350   -0.3135 H   0  0  0  0  0  0  0  0  0  0  0  0
    0.8846    0.6636   -2.0631 H   0  0  0  0  0  0  0  0  0  0  0  0
   -0.2713    2.2195   -0.8865 H   0  0  0  0  0  0  0  0  0  0  0  0
    0.3642    1.5920    0.6947 H   0  0  0  0  0  0  0  0  0  0  0  0
    5.3353    0.5686   -0.1130 H   0  0  0  0  0  0  0  0  0  0  0  0
    4.0944   -0.2363    2.1419 H   0  0  0  0  0  0  0  0  0  0  0  0
    1.5883   -0.3513    1.6111 H   0  0  0  0  0  0  0  0  0  0  0  0
  1  2  2  0
  2  3  1  0
  3  4  2  0
  4  5  1  0
  5  6  2  0
  5  7  1  0
  7  8  1  0
  8  9  1  0
  8 10  1  0
 10 11  2  0
 11 12  1  0
 12 13  2  0
 13 14  1  0
  6  1  1  0
 14 10  1  0
  9  4  1  0
  1 15  1  0
  2 16  1  0
  3 17  1  0
  6 18  1  0
  7 19  1  0
  7 20  1  0
  8 21  1  0
  9 22  1  0
  9 23  1  0
 12 24  1  0
 13 25  1  0
 14 26  1  0
M  END
>  <Ligand ID>  (1) 
LIG0001291

>  <Ligand>  (1) 
CHEMBL449279

>  <SMILES>  (1) 
c1ccc2c(c1)CC(C2)c1ncc[nH]1

>  <CID>  (1) 
44574834.0

>  <ChEMBL ID>  (1) 
nan

>  <InChiKey>  (1) 
KMKRWMBSKDDVCW-UHFFFAOYSA-N

>  <InChi>  (1) 
InChI=1S/C12H12N2/c1-2-4-10-8-11(7-9(10)3-1)12-13-5-6-14-12/h1-6,11H,7-8H2,(H,13,14)

>  <IUPAC Name>  (1) 
2-(2,3-dihydro-1H-inden-2-yl)-1H-imidazole

$$$$
