
     RDKit          3D

 76 83  0  0  0  0  0  0  0  0999 V2000
   -2.3387    6.1898   -0.5461 C   0  0  0  0  0  0  0  0  0  0  0  0
   -1.8068    4.9726   -0.1485 O   0  0  0  0  0  0  0  0  0  0  0  0
   -2.3246    3.7135   -0.3639 C   0  0  0  0  0  0  0  0  0  0  0  0
   -3.5081    3.4688   -1.0493 C   0  0  0  0  0  0  0  0  0  0  0  0
   -3.9786    2.1582   -1.2373 C   0  0  0  0  0  0  0  0  0  0  0  0
   -3.2539    1.0941   -0.7289 C   0  0  0  0  0  0  0  0  0  0  0  0
   -2.1048    1.4017   -0.0619 C   0  0  0  0  0  0  0  0  0  0  0  0
   -1.5954    2.6410    0.1475 C   0  0  0  0  0  0  0  0  0  0  0  0
   -0.4139    2.4772    0.8439 O   0  0  0  0  0  0  0  0  0  0  0  0
   -0.0740    1.1349    0.9587 C   0  0  1  0  0  0  0  0  0  0  0  0
   -1.3296    0.3459    0.6133 C   0  0  1  0  0  0  0  0  0  0  0  0
   -2.0419   -0.0645    1.8730 C   0  0  0  0  0  0  0  0  0  0  0  0
   -3.0777   -1.1396    1.7272 C   0  0  0  0  0  0  0  0  0  0  0  0
   -2.8934   -1.9653    0.6114 N   0  0  0  0  0  0  0  0  0  0  0  0
   -2.5431   -1.2991   -0.6002 C   0  0  1  0  0  0  0  0  0  0  0  0
   -3.6187   -0.3067   -0.9380 C   0  0  0  0  0  0  0  0  0  0  0  0
   -1.1630   -0.6917   -0.4353 C   0  0  1  0  0  0  0  0  0  0  0  0
   -0.6882   -0.0218   -1.7236 C   0  0  0  0  0  0  0  0  0  0  0  0
    0.5902    0.6945   -1.3941 C   0  0  0  0  0  0  0  0  0  0  0  0
    0.9989    0.5743    0.0658 C   0  0  1  0  0  0  0  0  0  0  0  0
    2.1910    1.2151    0.2084 O   0  0  0  0  0  0  0  0  0  0  0  0
    2.2863    2.5230   -0.1375 C   0  0  0  0  0  0  0  0  0  0  0  0
    1.1071   -0.8682    0.4084 C   0  0  1  0  0  0  0  0  0  0  0  0
   -0.1105   -1.6855   -0.1059 C   0  0  0  0  0  0  0  0  0  0  0  0
    2.3735   -1.6078    0.2021 C   0  0  0  0  0  0  0  0  0  0  0  0
    3.8026   -1.0063    1.0718 S   0  0  0  0  0  0  0  0  0  0  0  0
    4.7741    0.2847    0.3412 C   0  0  0  0  0  0  0  0  0  0  0  0
    6.1875   -0.1833    0.0526 C   0  0  0  0  0  0  0  0  0  0  0  0
    6.6037   -0.7112   -1.1298 C   0  0  0  0  0  0  0  0  0  0  0  0
    7.9546   -1.0731   -1.2034 C   0  0  0  0  0  0  0  0  0  0  0  0
    8.8182   -0.9049   -0.1399 C   0  0  0  0  0  0  0  0  0  0  0  0
    8.3902   -0.3720    1.0537 C   0  0  0  0  0  0  0  0  0  0  0  0
    7.0610   -0.0125    1.1358 C   0  0  0  0  0  0  0  0  0  0  0  0
   -2.8272   -3.3471    0.7145 C   0  0  0  0  0  0  0  0  0  0  0  0
   -4.0887   -4.1110    1.0093 C   0  0  0  0  0  0  0  0  0  0  0  0
   -5.2183   -3.9769   -0.0683 C   0  0  0  0  0  0  0  0  0  0  0  0
   -5.3873   -3.4394    1.2912 C   0  0  0  0  0  0  0  0  0  0  0  0
   -3.2432    6.1475   -1.1583 H   0  0  0  0  0  0  0  0  0  0  0  0
   -2.5335    6.7898    0.3724 H   0  0  0  0  0  0  0  0  0  0  0  0
   -1.5185    6.7287   -1.1051 H   0  0  0  0  0  0  0  0  0  0  0  0
   -4.0784    4.3136   -1.4390 H   0  0  0  0  0  0  0  0  0  0  0  0
   -4.9166    1.9811   -1.7873 H   0  0  0  0  0  0  0  0  0  0  0  0
    0.1724    0.8256    2.0027 H   0  0  0  0  0  0  0  0  0  0  0  0
   -2.4949    0.8440    2.3127 H   0  0  0  0  0  0  0  0  0  0  0  0
   -1.2486   -0.3733    2.5952 H   0  0  0  0  0  0  0  0  0  0  0  0
   -4.0589   -0.6263    1.6566 H   0  0  0  0  0  0  0  0  0  0  0  0
   -3.1006   -1.7357    2.6529 H   0  0  0  0  0  0  0  0  0  0  0  0
   -2.4838   -2.0328   -1.4140 H   0  0  0  0  0  0  0  0  0  0  0  0
   -3.9882   -0.4666   -1.9974 H   0  0  0  0  0  0  0  0  0  0  0  0
   -4.5071   -0.5277   -0.3148 H   0  0  0  0  0  0  0  0  0  0  0  0
   -1.3917    0.6827   -2.1563 H   0  0  0  0  0  0  0  0  0  0  0  0
   -0.5382   -0.8418   -2.4806 H   0  0  0  0  0  0  0  0  0  0  0  0
    1.3989    0.2441   -2.0027 H   0  0  0  0  0  0  0  0  0  0  0  0
    0.5121    1.7857   -1.6805 H   0  0  0  0  0  0  0  0  0  0  0  0
    1.6594    3.2541    0.3550 H   0  0  0  0  0  0  0  0  0  0  0  0
    3.3449    2.8327    0.1607 H   0  0  0  0  0  0  0  0  0  0  0  0
    2.3349    2.6327   -1.2642 H   0  0  0  0  0  0  0  0  0  0  0  0
    0.9525   -0.8962    1.5600 H   0  0  0  0  0  0  0  0  0  0  0  0
    0.1666   -2.2218   -1.0525 H   0  0  0  0  0  0  0  0  0  0  0  0
   -0.3399   -2.4229    0.6475 H   0  0  0  0  0  0  0  0  0  0  0  0
    2.2104   -2.6721    0.5238 H   0  0  0  0  0  0  0  0  0  0  0  0
    2.6081   -1.6058   -0.8942 H   0  0  0  0  0  0  0  0  0  0  0  0
    4.8617    1.1533    1.0062 H   0  0  0  0  0  0  0  0  0  0  0  0
    4.4234    0.5809   -0.6993 H   0  0  0  0  0  0  0  0  0  0  0  0
    5.9242   -0.8403   -1.9553 H   0  0  0  0  0  0  0  0  0  0  0  0
    8.3778   -1.5049   -2.1101 H   0  0  0  0  0  0  0  0  0  0  0  0
    9.8761   -1.1827   -0.1809 H   0  0  0  0  0  0  0  0  0  0  0  0
    9.0062   -0.2197    1.9185 H   0  0  0  0  0  0  0  0  0  0  0  0
    6.6972    0.4152    2.0833 H   0  0  0  0  0  0  0  0  0  0  0  0
   -2.1434   -3.5754    1.6057 H   0  0  0  0  0  0  0  0  0  0  0  0
   -2.3708   -3.8606   -0.1793 H   0  0  0  0  0  0  0  0  0  0  0  0
   -3.9916   -5.1256    1.4429 H   0  0  0  0  0  0  0  0  0  0  0  0
   -5.6930   -4.9351   -0.3711 H   0  0  0  0  0  0  0  0  0  0  0  0
   -4.9605   -3.3041   -0.9104 H   0  0  0  0  0  0  0  0  0  0  0  0
   -5.5375   -2.3540    1.3426 H   0  0  0  0  0  0  0  0  0  0  0  0
   -6.1405   -3.9879    1.9296 H   0  0  0  0  0  0  0  0  0  0  0  0
  1  2  1  0
  2  3  1  0
  3  4  2  0
  4  5  1  0
  5  6  2  0
  6  7  1  0
  7  8  2  0
  8  9  1  0
  9 10  1  0
 10 11  1  0
 11 12  1  1
 12 13  1  0
 13 14  1  0
 14 15  1  0
 15 16  1  0
 15 17  1  0
 17 18  1  6
 18 19  1  0
 19 20  1  0
 20 21  1  6
 21 22  1  0
 20 23  1  0
 23 24  1  0
 23 25  1  0
 25 26  1  0
 26 27  1  0
 27 28  1  0
 28 29  2  0
 29 30  1  0
 30 31  2  0
 31 32  1  0
 32 33  2  0
 14 34  1  0
 34 35  1  0
 35 36  1  0
 36 37  1  0
  8  3  1  0
 20 10  1  0
 33 28  1  0
 37 35  1  0
 16  6  1  0
 24 17  1  0
 11  7  1  0
 17 11  1  0
  1 38  1  0
  1 39  1  0
  1 40  1  0
  4 41  1  0
  5 42  1  0
 10 43  1  1
 12 44  1  0
 12 45  1  0
 13 46  1  0
 13 47  1  0
 15 48  1  6
 16 49  1  0
 16 50  1  0
 18 51  1  0
 18 52  1  0
 19 53  1  0
 19 54  1  0
 22 55  1  0
 22 56  1  0
 22 57  1  0
 23 58  1  1
 24 59  1  0
 24 60  1  0
 25 61  1  0
 25 62  1  0
 27 63  1  0
 27 64  1  0
 29 65  1  0
 30 66  1  0
 31 67  1  0
 32 68  1  0
 33 69  1  0
 34 70  1  0
 34 71  1  0
 35 72  1  0
 36 73  1  0
 36 74  1  0
 37 75  1  0
 37 76  1  0
M  END
>  <Ligand ID>  (1) 
LIG0004780

>  <Ligand>  (1) 
CHEMBL3976894

>  <SMILES>  (1) 
COc1ccc2c3c1O[C@H]1[C@]43CCN([C@@H](C2)[C@]24CC[C@]1(OC)[C@@H](C2)CSCc1ccccc1)CC1CC1

>  <CID>  (1) 
134151976.0

>  <ChEMBL ID>  (1) 
nan

>  <InChiKey>  (1) 
JSYKYDORIGJAKS-KUUCXNLBSA-N

>  <InChi>  (1) 
InChI=1S/C32H39NO3S/c1-34-25-11-10-23-16-26-30-12-13-32(35-2,24(17-30)20-37-19-22-6-4-3-5-7-22)29-31(30,27(23)28(25)36-29)14-15-33(26)18-21-8-9-21/h3-7,10-11,21,24,26,29H,8-9,12-20H2,1-2H3/t24-,26-,29-,30-,31+,32-/m0/s1

>  <IUPAC Name>  (1) 
(1R,2R,6S,14S,15S,16R)-16-(benzylsulfanylmethyl)-5-(cyclopropylmethyl)-11,15-dimethoxy-13-oxa-5-azahexacyclo[13.2.2.12,8.01,6.02,14.012,20]icosa-8(20),9,11-triene

$$$$
