
     RDKit          3D

 50 52  0  0  0  0  0  0  0  0999 V2000
    4.8440    0.3222   -3.5921 O   0  0  0  0  0  0  0  0  0  0  0  0
    4.5328   -1.0040   -3.2964 C   0  0  0  0  0  0  0  0  0  0  0  0
    4.2167   -1.1960   -1.8289 C   0  0  0  0  0  0  0  0  0  0  0  0
    3.0345   -0.3557   -1.3971 C   0  0  0  0  0  0  0  0  0  0  0  0
    2.7605   -0.5824    0.0711 C   0  0  0  0  0  0  0  0  0  0  0  0
    1.6365    0.1918    0.5623 N   0  0  0  0  0  0  0  0  0  0  0  0
    0.3411   -0.2003    0.5813 C   0  0  0  0  0  0  0  0  0  0  0  0
   -0.4758    0.7651    1.1099 C   0  0  0  0  0  0  0  0  0  0  0  0
    0.4088    1.8086    1.4274 C   0  0  0  0  0  0  0  0  0  0  0  0
    1.7043    1.4098    1.0714 C   0  0  0  0  0  0  0  0  0  0  0  0
    2.7842    2.2323    1.2668 C   0  0  0  0  0  0  0  0  0  0  0  0
    2.6604    3.4861    1.8189 C   0  0  0  0  0  0  0  0  0  0  0  0
    1.3994    3.8980    2.1754 C   0  0  0  0  0  0  0  0  0  0  0  0
    0.3132    3.0622    1.9753 C   0  0  0  0  0  0  0  0  0  0  0  0
   -1.8831    0.8454    1.3580 C   0  0  0  0  0  0  0  0  0  0  0  0
   -2.2446    1.9928    1.9201 O   0  0  0  0  0  0  0  0  0  0  0  0
   -3.0028   -0.0155    1.1484 C   0  0  0  0  0  0  0  0  0  0  0  0
   -3.1924   -1.4178    0.9104 C   0  0  0  0  0  0  0  0  0  0  0  0
   -3.2956   -0.5032   -0.2639 C   0  0  0  0  0  0  0  0  0  0  0  0
   -4.6984   -0.2122   -0.8093 C   0  0  0  0  0  0  0  0  0  0  0  0
   -2.2566   -0.4079   -1.3383 C   0  0  0  0  0  0  0  0  0  0  0  0
   -2.1965   -2.5076    0.8930 C   0  0  0  0  0  0  0  0  0  0  0  0
   -4.5969   -1.9663    1.3256 C   0  0  0  0  0  0  0  0  0  0  0  0
    4.9547    0.8862   -2.7856 H   0  0  0  0  0  0  0  0  0  0  0  0
    5.4132   -1.6099   -3.5565 H   0  0  0  0  0  0  0  0  0  0  0  0
    3.6503   -1.2433   -3.9244 H   0  0  0  0  0  0  0  0  0  0  0  0
    4.0585   -2.2808   -1.6799 H   0  0  0  0  0  0  0  0  0  0  0  0
    5.0912   -0.9264   -1.2174 H   0  0  0  0  0  0  0  0  0  0  0  0
    3.3654    0.7078   -1.4996 H   0  0  0  0  0  0  0  0  0  0  0  0
    2.2037   -0.6320   -2.0416 H   0  0  0  0  0  0  0  0  0  0  0  0
    2.4751   -1.6574    0.1763 H   0  0  0  0  0  0  0  0  0  0  0  0
    3.6866   -0.4489    0.6603 H   0  0  0  0  0  0  0  0  0  0  0  0
    0.0574   -1.1609    0.2113 H   0  0  0  0  0  0  0  0  0  0  0  0
    3.7540    1.9040    0.9877 H   0  0  0  0  0  0  0  0  0  0  0  0
    3.5016    4.1434    1.9782 H   0  0  0  0  0  0  0  0  0  0  0  0
    1.2649    4.8820    2.6140 H   0  0  0  0  0  0  0  0  0  0  0  0
   -0.6416    3.4607    2.2824 H   0  0  0  0  0  0  0  0  0  0  0  0
   -3.9547    0.5101    1.6184 H   0  0  0  0  0  0  0  0  0  0  0  0
   -5.4765   -0.2567   -0.0456 H   0  0  0  0  0  0  0  0  0  0  0  0
   -4.9053   -1.0183   -1.5443 H   0  0  0  0  0  0  0  0  0  0  0  0
   -4.6529    0.7572   -1.3254 H   0  0  0  0  0  0  0  0  0  0  0  0
   -1.7414    0.5826   -1.1730 H   0  0  0  0  0  0  0  0  0  0  0  0
   -1.5814   -1.2586   -1.4325 H   0  0  0  0  0  0  0  0  0  0  0  0
   -2.7349   -0.2332   -2.3602 H   0  0  0  0  0  0  0  0  0  0  0  0
   -1.7193   -2.7343   -0.0787 H   0  0  0  0  0  0  0  0  0  0  0  0
   -2.6583   -3.4580    1.2261 H   0  0  0  0  0  0  0  0  0  0  0  0
   -1.4086   -2.3126    1.6855 H   0  0  0  0  0  0  0  0  0  0  0  0
   -5.1836   -1.1476    1.7725 H   0  0  0  0  0  0  0  0  0  0  0  0
   -4.4700   -2.7624    2.0658 H   0  0  0  0  0  0  0  0  0  0  0  0
   -5.1418   -2.3378    0.4509 H   0  0  0  0  0  0  0  0  0  0  0  0
  1  2  1  0
  2  3  1  0
  3  4  1  0
  4  5  1  0
  5  6  1  0
  6  7  1  0
  7  8  2  0
  8  9  1  0
  9 10  2  0
 10 11  1  0
 11 12  2  0
 12 13  1  0
 13 14  2  0
  8 15  1  0
 15 16  2  0
 15 17  1  0
 17 18  1  0
 18 19  1  0
 19 20  1  0
 19 21  1  0
 18 22  1  0
 18 23  1  0
 10  6  1  0
 19 17  1  0
 14  9  1  0
  1 24  1  0
  2 25  1  0
  2 26  1  0
  3 27  1  0
  3 28  1  0
  4 29  1  0
  4 30  1  0
  5 31  1  0
  5 32  1  0
  7 33  1  0
 11 34  1  0
 12 35  1  0
 13 36  1  0
 14 37  1  0
 17 38  1  0
 20 39  1  0
 20 40  1  0
 20 41  1  0
 21 42  1  0
 21 43  1  0
 21 44  1  0
 22 45  1  0
 22 46  1  0
 22 47  1  0
 23 48  1  0
 23 49  1  0
 23 50  1  0
M  END
>  <Ligand ID>  (1) 
LIG0001657

>  <Ligand>  (1) 
CHEMBL576706

>  <SMILES>  (1) 
OCCCCn1cc(c2c1cccc2)C(=O)C1C(C1(C)C)(C)C

>  <CID>  (1) 
11580465.0

>  <ChEMBL ID>  (1) 
nan

>  <InChiKey>  (1) 
FLRZCGZOXGSCNM-UHFFFAOYSA-N

>  <InChi>  (1) 
InChI=1S/C20H27NO2/c1-19(2)18(20(19,3)4)17(23)15-13-21(11-7-8-12-22)16-10-6-5-9-14(15)16/h5-6,9-10,13,18,22H,7-8,11-12H2,1-4H3

>  <IUPAC Name>  (1) 
[1-(4-hydroxybutyl)indol-3-yl]-(2,2,3,3-tetramethylcyclopropyl)methanone

$$$$
