
     RDKit          3D

 69 69  0  0  0  0  0  0  0  0999 V2000
   -7.7143   -1.8794   -0.4062 C   0  0  0  0  0  0  0  0  0  0  0  0
   -6.8226   -0.7091    0.0544 C   0  0  0  0  0  0  0  0  0  0  0  0
   -5.7460   -0.5688   -0.9749 C   0  0  0  0  0  0  0  0  0  0  0  0
   -4.7545    0.4915   -0.7893 C   0  0  0  0  0  0  0  0  0  0  0  0
   -3.8978    0.4677    0.4562 C   0  0  0  0  0  0  0  0  0  0  0  0
   -3.0016    1.6677    0.3296 C   0  0  1  0  0  0  0  0  0  0  0  0
   -2.1080    1.7983   -0.8096 C   0  0  0  0  0  0  0  0  0  0  0  0
   -0.9985    0.8861   -1.1407 C   0  0  0  0  0  0  0  0  0  0  0  0
    0.1270    0.8526   -0.2015 C   0  0  1  0  0  0  0  0  0  0  0  0
   -0.0092    0.4504    1.1906 C   0  0  2  0  0  0  0  0  0  0  0  0
    0.6235    1.3363    2.0945 O   0  0  0  0  0  0  0  0  0  0  0  0
    0.7684   -0.8639    1.3817 C   0  0  0  0  0  0  0  0  0  0  0  0
    0.8984   -1.2841   -0.0764 C   0  0  1  0  0  0  0  0  0  0  0  0
    1.2924   -0.0559   -0.7899 C   0  0  2  0  0  0  0  0  0  0  0  0
    2.4913    0.6938   -0.4606 C   0  0  0  0  0  0  0  0  0  0  0  0
    3.8634    0.3625   -0.7928 C   0  0  0  0  0  0  0  0  0  0  0  0
    4.3631   -0.9210   -0.2475 C   0  0  0  0  0  0  0  0  0  0  0  0
    5.8419   -1.1515   -0.5922 C   0  0  0  0  0  0  0  0  0  0  0  0
    6.7423   -0.0935   -0.0545 C   0  0  0  0  0  0  0  0  0  0  0  0
    8.1652   -0.4825   -0.4822 C   0  0  0  0  0  0  0  0  0  0  0  0
    9.0830    0.5690    0.0480 C   0  0  0  0  0  0  0  0  0  0  0  0
    9.0950    1.6857   -0.5367 O   0  0  0  0  0  0  0  0  0  0  0  0
    9.9087    0.3705    1.1393 O   0  0  0  0  0  0  0  0  0  0  0  0
    1.4698   -2.4713   -0.3065 O   0  0  0  0  0  0  0  0  0  0  0  0
   -3.9115    2.7972    0.2590 O   0  0  0  0  0  0  0  0  0  0  0  0
   -4.7905    0.8362    1.6794 C   0  0  0  0  0  0  0  0  0  0  0  0
   -3.3317   -0.8406    0.7834 C   0  0  0  0  0  0  0  0  0  0  0  0
   -8.4389   -2.1632    0.3906 H   0  0  0  0  0  0  0  0  0  0  0  0
   -7.0778   -2.7059   -0.7311 H   0  0  0  0  0  0  0  0  0  0  0  0
   -8.2977   -1.4751   -1.2839 H   0  0  0  0  0  0  0  0  0  0  0  0
   -7.5128    0.1704    0.0971 H   0  0  0  0  0  0  0  0  0  0  0  0
   -6.4716   -1.0360    1.0529 H   0  0  0  0  0  0  0  0  0  0  0  0
   -5.3352   -1.5771   -1.1928 H   0  0  0  0  0  0  0  0  0  0  0  0
   -6.2956   -0.3165   -1.9337 H   0  0  0  0  0  0  0  0  0  0  0  0
   -4.0957    0.5569   -1.6525 H   0  0  0  0  0  0  0  0  0  0  0  0
   -5.3182    1.4680   -0.7329 H   0  0  0  0  0  0  0  0  0  0  0  0
   -2.4541    1.9185    1.2820 H   0  0  0  0  0  0  0  0  0  0  0  0
   -2.6831    2.0894   -1.7688 H   0  0  0  0  0  0  0  0  0  0  0  0
   -1.5698    2.8158   -0.6453 H   0  0  0  0  0  0  0  0  0  0  0  0
   -1.3190   -0.1534   -1.3913 H   0  0  0  0  0  0  0  0  0  0  0  0
   -0.5792    1.2461   -2.1538 H   0  0  0  0  0  0  0  0  0  0  0  0
    0.6053    1.9182   -0.1871 H   0  0  0  0  0  0  0  0  0  0  0  0
   -0.9840    0.2463    1.6243 H   0  0  0  0  0  0  0  0  0  0  0  0
    0.6688    2.2416    1.7445 H   0  0  0  0  0  0  0  0  0  0  0  0
    0.1986   -1.6161    1.9407 H   0  0  0  0  0  0  0  0  0  0  0  0
    1.7548   -0.7246    1.8082 H   0  0  0  0  0  0  0  0  0  0  0  0
   -0.2073   -1.4361   -0.3702 H   0  0  0  0  0  0  0  0  0  0  0  0
    1.0641   -0.0990   -1.8773 H   0  0  0  0  0  0  0  0  0  0  0  0
    2.2750    1.7682   -0.8410 H   0  0  0  0  0  0  0  0  0  0  0  0
    2.4227    0.9178    0.6752 H   0  0  0  0  0  0  0  0  0  0  0  0
    4.5327    1.1574   -0.3045 H   0  0  0  0  0  0  0  0  0  0  0  0
    4.1389    0.5078   -1.8725 H   0  0  0  0  0  0  0  0  0  0  0  0
    4.2762   -1.0470    0.8403 H   0  0  0  0  0  0  0  0  0  0  0  0
    3.8789   -1.8198   -0.7168 H   0  0  0  0  0  0  0  0  0  0  0  0
    5.9257   -1.3021   -1.6789 H   0  0  0  0  0  0  0  0  0  0  0  0
    6.1096   -2.1124   -0.1006 H   0  0  0  0  0  0  0  0  0  0  0  0
    6.6697    0.0065    1.0283 H   0  0  0  0  0  0  0  0  0  0  0  0
    6.5220    0.9031   -0.5240 H   0  0  0  0  0  0  0  0  0  0  0  0
    8.2336   -0.4904   -1.5784 H   0  0  0  0  0  0  0  0  0  0  0  0
    8.3623   -1.4660   -0.0270 H   0  0  0  0  0  0  0  0  0  0  0  0
   10.2944    1.1875    1.6223 H   0  0  0  0  0  0  0  0  0  0  0  0
    1.6851   -2.6224   -1.2548 H   0  0  0  0  0  0  0  0  0  0  0  0
   -3.9610    3.2719    1.0968 H   0  0  0  0  0  0  0  0  0  0  0  0
   -5.7582    1.2278    1.3680 H   0  0  0  0  0  0  0  0  0  0  0  0
   -4.8315   -0.0165    2.4006 H   0  0  0  0  0  0  0  0  0  0  0  0
   -4.3015    1.6452    2.2602 H   0  0  0  0  0  0  0  0  0  0  0  0
   -2.5315   -1.2589    0.1906 H   0  0  0  0  0  0  0  0  0  0  0  0
   -4.1597   -1.5969    0.7467 H   0  0  0  0  0  0  0  0  0  0  0  0
   -3.0816   -0.8484    1.8953 H   0  0  0  0  0  0  0  0  0  0  0  0
  1  2  1  0
  2  3  1  0
  3  4  1  0
  4  5  1  0
  5  6  1  0
  6  7  1  0
  7  8  1  0
  8  9  1  0
  9 10  1  0
 10 11  1  0
 10 12  1  0
 12 13  1  0
 13 14  1  0
 14 15  1  0
 15 16  1  0
 16 17  1  0
 17 18  1  0
 18 19  1  0
 19 20  1  0
 20 21  1  0
 21 22  2  0
 21 23  1  0
 13 24  1  0
  6 25  1  0
  5 26  1  0
  5 27  1  0
 14  9  1  0
  1 28  1  0
  1 29  1  0
  1 30  1  0
  2 31  1  0
  2 32  1  0
  3 33  1  0
  3 34  1  0
  4 35  1  0
  4 36  1  0
  6 37  1  1
  7 38  1  0
  7 39  1  0
  8 40  1  0
  8 41  1  0
  9 42  1  1
 10 43  1  1
 11 44  1  0
 12 45  1  0
 12 46  1  0
 13 47  1  6
 14 48  1  6
 15 49  1  0
 15 50  1  0
 16 51  1  0
 16 52  1  0
 17 53  1  0
 17 54  1  0
 18 55  1  0
 18 56  1  0
 19 57  1  0
 19 58  1  0
 20 59  1  0
 20 60  1  0
 23 61  1  0
 24 62  1  0
 25 63  1  0
 26 64  1  0
 26 65  1  0
 26 66  1  0
 27 67  1  0
 27 68  1  0
 27 69  1  0
M  END
>  <Ligand ID>  (1) 
LIG0001859

>  <Ligand>  (1) 
CHEMBL285412

>  <SMILES>  (1) 
CCCCC([C@@H](CC[C@H]1[C@H](O)C[C@@H]([C@@H]1CCCCCCC(=O)O)O)O)(C)C

>  <CID>  (1) 
44285310.0

>  <ChEMBL ID>  (1) 
nan

>  <InChiKey>  (1) 
NWYKVXPSSKITNL-OUUBHVDSSA-N

>  <InChi>  (1) 
InChI=1S/C22H42O5/c1-4-5-14-22(2,3)20(25)13-12-17-16(18(23)15-19(17)24)10-8-6-7-9-11-21(26)27/h16-20,23-25H,4-15H2,1-3H3,(H,26,27)/t16-,17-,18+,19-,20-/m1/s1

>  <IUPAC Name>  (1) 
7-[(1R,2R,3R,5S)-3,5-dihydroxy-2-[(3R)-3-hydroxy-4,4-dimethyloctyl]cyclopentyl]heptanoic acid

$$$$
