
     RDKit          3D

 75 77  0  0  0  0  0  0  0  0999 V2000
   -8.1310   -5.1884    0.4172 C   0  0  0  0  0  0  0  0  0  0  0  0
   -8.5187   -3.7851   -0.0458 C   0  0  0  0  0  0  0  0  0  0  0  0
   -7.2740   -3.0926   -0.4023 C   0  0  0  0  0  0  0  0  0  0  0  0
   -6.7714   -3.1359   -1.6774 C   0  0  0  0  0  0  0  0  0  0  0  0
   -5.6390   -2.5353   -2.0990 C   0  0  0  0  0  0  0  0  0  0  0  0
   -4.8640   -1.7845   -1.1923 C   0  0  0  0  0  0  0  0  0  0  0  0
   -5.4007   -1.7516    0.1246 C   0  0  0  0  0  0  0  0  0  0  0  0
   -6.5404   -2.3636    0.5221 C   0  0  0  0  0  0  0  0  0  0  0  0
   -4.1756   -0.7198    1.0008 S   0  0  0  0  0  0  0  0  0  0  0  0
   -3.0905   -0.4606   -0.5251 C   0  0  0  0  0  0  0  0  0  0  0  0
   -3.7739   -1.1469   -1.3996 N   0  0  0  0  0  0  0  0  0  0  0  0
   -1.9251    0.2971   -0.5104 N   0  0  0  0  0  0  0  0  0  0  0  0
   -0.7393   -0.3853   -0.0285 C   0  0  0  0  0  0  0  0  0  0  0  0
   -0.9300   -1.5662    0.4196 O   0  0  0  0  0  0  0  0  0  0  0  0
    0.5827    0.1733   -0.0342 C   0  0  0  0  0  0  0  0  0  0  0  0
    1.1496    0.9885    0.9017 C   0  0  0  0  0  0  0  0  0  0  0  0
    2.4447    1.4868    0.8145 C   0  0  0  0  0  0  0  0  0  0  0  0
    3.1928    1.1197   -0.3029 C   0  0  0  0  0  0  0  0  0  0  0  0
    2.6623    0.2932   -1.2806 C   0  0  0  0  0  0  0  0  0  0  0  0
    1.3852   -0.1644   -1.1412 C   0  0  0  0  0  0  0  0  0  0  0  0
    4.8299    1.6810   -0.5618 S   0  0  0  0  0  0  0  0  0  0  0  0
    5.1601    1.6193   -2.0290 O   0  0  0  0  0  0  0  0  0  0  0  0
    4.9292    3.0871   -0.0761 O   0  0  0  0  0  0  0  0  0  0  0  0
    5.8706    0.6644    0.3609 N   0  0  0  0  0  0  0  0  0  0  0  0
    5.8388   -0.7065   -0.0009 C   0  0  0  0  0  0  0  0  0  0  0  0
    7.1453   -1.3683   -0.2626 C   0  0  0  0  0  0  0  0  0  0  0  0
    8.1065   -1.0024    0.8019 C   0  0  0  0  0  0  0  0  0  0  0  0
    8.1235    0.3408    1.1796 C   0  0  0  0  0  0  0  0  0  0  0  0
    7.1942    1.2378    0.4890 C   0  0  0  0  0  0  0  0  0  0  0  0
    9.0061    0.7171    2.1643 C   0  0  0  0  0  0  0  0  0  0  0  0
    9.8451   -0.1921    2.7599 C   0  0  0  0  0  0  0  0  0  0  0  0
    9.8140   -1.5216    2.3724 C   0  0  0  0  0  0  0  0  0  0  0  0
    8.9325   -1.9434    1.3767 C   0  0  0  0  0  0  0  0  0  0  0  0
   -1.7549    1.6567   -0.9508 C   0  0  0  0  0  0  0  0  0  0  0  0
   -1.9408    2.7463    0.0163 C   0  0  0  0  0  0  0  0  0  0  0  0
   -3.2493    2.9821    0.6594 C   0  0  0  0  0  0  0  0  0  0  0  0
   -4.3568    3.3456   -0.1023 N   0  0  0  0  0  0  0  0  0  0  0  0
   -4.9896    2.4947   -1.0133 C   0  0  0  0  0  0  0  0  0  0  0  0
   -4.4965    4.7566   -0.3746 C   0  0  0  0  0  0  0  0  0  0  0  0
    0.0000    0.0000    0.0000 Cl  0  0  0  0  0  0  0  0  0  0  0  0
    0.0000    0.0000    0.0000 H   0  0  0  0  0 15  0  0  0  0  0  0
   -7.7915   -5.1426    1.4499 H   0  0  0  0  0  0  0  0  0  0  0  0
   -7.2720   -5.4795   -0.2254 H   0  0  0  0  0  0  0  0  0  0  0  0
   -9.0007   -5.8550    0.2273 H   0  0  0  0  0  0  0  0  0  0  0  0
   -9.1728   -3.2597    0.6481 H   0  0  0  0  0  0  0  0  0  0  0  0
   -9.1028   -3.9152   -1.0047 H   0  0  0  0  0  0  0  0  0  0  0  0
   -7.3468   -3.7112   -2.4126 H   0  0  0  0  0  0  0  0  0  0  0  0
   -5.3276   -2.6293   -3.1299 H   0  0  0  0  0  0  0  0  0  0  0  0
   -6.8550   -2.2748    1.5391 H   0  0  0  0  0  0  0  0  0  0  0  0
    0.5461    1.2510    1.7604 H   0  0  0  0  0  0  0  0  0  0  0  0
    2.8820    2.1270    1.5524 H   0  0  0  0  0  0  0  0  0  0  0  0
    3.2528    0.0041   -2.1584 H   0  0  0  0  0  0  0  0  0  0  0  0
    0.9816   -0.8207   -1.9300 H   0  0  0  0  0  0  0  0  0  0  0  0
    5.1738   -0.8075   -0.9043 H   0  0  0  0  0  0  0  0  0  0  0  0
    5.2812   -1.3023    0.7856 H   0  0  0  0  0  0  0  0  0  0  0  0
    6.9373   -2.4785   -0.2652 H   0  0  0  0  0  0  0  0  0  0  0  0
    7.4910   -1.0658   -1.2905 H   0  0  0  0  0  0  0  0  0  0  0  0
    7.0942    2.1700    1.0762 H   0  0  0  0  0  0  0  0  0  0  0  0
    7.5504    1.5599   -0.5161 H   0  0  0  0  0  0  0  0  0  0  0  0
    9.0210    1.7616    2.4592 H   0  0  0  0  0  0  0  0  0  0  0  0
   10.5527    0.0761    3.5398 H   0  0  0  0  0  0  0  0  0  0  0  0
   10.4948   -2.2202    2.8672 H   0  0  0  0  0  0  0  0  0  0  0  0
    8.9115   -2.9989    1.0740 H   0  0  0  0  0  0  0  0  0  0  0  0
   -2.3933    1.7563   -1.8754 H   0  0  0  0  0  0  0  0  0  0  0  0
   -0.6819    1.7748   -1.3382 H   0  0  0  0  0  0  0  0  0  0  0  0
   -1.1202    2.6445    0.7917 H   0  0  0  0  0  0  0  0  0  0  0  0
   -1.6413    3.7493   -0.4673 H   0  0  0  0  0  0  0  0  0  0  0  0
   -3.0716    3.8651    1.3838 H   0  0  0  0  0  0  0  0  0  0  0  0
   -3.4868    2.0865    1.2812 H   0  0  0  0  0  0  0  0  0  0  0  0
   -6.0414    2.9324   -1.1729 H   0  0  0  0  0  0  0  0  0  0  0  0
   -5.1969    1.4870   -0.6513 H   0  0  0  0  0  0  0  0  0  0  0  0
   -4.5828    2.4935   -2.0642 H   0  0  0  0  0  0  0  0  0  0  0  0
   -5.0760    5.2600    0.4181 H   0  0  0  0  0  0  0  0  0  0  0  0
   -3.5194    5.2557   -0.5197 H   0  0  0  0  0  0  0  0  0  0  0  0
   -5.1414    4.8329   -1.2978 H   0  0  0  0  0  0  0  0  0  0  0  0
  1  2  1  0
  2  3  1  0
  3  4  2  0
  4  5  1  0
  5  6  2  0
  6  7  1  0
  7  8  2  0
  7  9  1  0
  9 10  1  0
 10 11  2  0
 10 12  1  0
 12 13  1  0
 13 14  2  0
 13 15  1  0
 15 16  2  0
 16 17  1  0
 17 18  2  0
 18 19  1  0
 19 20  2  0
 18 21  1  0
 21 22  2  0
 21 23  2  0
 21 24  1  0
 24 25  1  0
 25 26  1  0
 26 27  1  0
 27 28  2  0
 28 29  1  0
 28 30  1  0
 30 31  2  0
 31 32  1  0
 32 33  2  0
 12 34  1  0
 34 35  1  0
 35 36  1  0
 36 37  1  0
 37 38  1  0
 37 39  1  0
  8  3  1  0
 20 15  1  0
 29 24  1  0
 11  6  1  0
 33 27  1  0
  1 42  1  0
  1 43  1  0
  1 44  1  0
  2 45  1  0
  2 46  1  0
  4 47  1  0
  5 48  1  0
  8 49  1  0
 16 50  1  0
 17 51  1  0
 19 52  1  0
 20 53  1  0
 25 54  1  0
 25 55  1  0
 26 56  1  0
 26 57  1  0
 29 58  1  0
 29 59  1  0
 30 60  1  0
 31 61  1  0
 32 62  1  0
 33 63  1  0
 34 64  1  0
 34 65  1  0
 35 66  1  0
 35 67  1  0
 36 68  1  0
 36 69  1  0
 38 70  1  0
 38 71  1  0
 38 72  1  0
 39 73  1  0
 39 74  1  0
 39 75  1  0
M  CHG  2  40  -1  41   1
M  END
>  <Ligand ID>  (1) 
LIG0001078

>  <Ligand>  (1) 
MLS-0378582.0001

>  <SMILES>  (1) 
CCc1ccc2c(c1)sc(n2)N(C(=O)c1ccc(cc1)S(=O)(=O)N1CCc2c(C1)cccc2)CCCN(C)C.[Cl-].[H+]

>  <CID>  (1) 
49852582.0

>  <ChEMBL ID>  (1) 
nan

>  <InChiKey>  (1) 
QFDAUVVIFYUWPQ-UHFFFAOYSA-N

>  <InChi>  (1) 
InChI=1S/C30H34N4O3S2.ClH/c1-4-22-10-15-27-28(20-22)38-30(31-27)34(18-7-17-32(2)3)29(35)24-11-13-26(14-12-24)39(36,37)33-19-16-23-8-5-6-9-25(23)21-33;/h5-6,8-15,20H,4,7,16-19,21H2,1-3H3;1H

>  <IUPAC Name>  (1) 
4-(3,4-dihydro-1H-isoquinolin-2-ylsulfonyl)-N-[3-(dimethylamino)propyl]-N-(6-ethyl-1,3-benzothiazol-2-yl)benzamide;hydron;chloride

$$$$
