
     RDKit          3D

 42 43  0  0  0  0  0  0  0  0999 V2000
   -4.8324   -2.6837   -0.3711 C   0  0  0  0  0  0  0  0  0  0  0  0
   -4.3711   -1.5605    0.5352 C   0  0  0  0  0  0  0  0  0  0  0  0
   -2.9892   -1.3609    0.4915 O   0  0  0  0  0  0  0  0  0  0  0  0
   -2.2621   -1.0268   -0.6475 C   0  0  0  0  0  0  0  0  0  0  0  0
   -2.8379   -0.8781   -1.7586 O   0  0  0  0  0  0  0  0  0  0  0  0
   -0.8199   -0.8639   -0.4715 C   0  0  0  0  0  0  0  0  0  0  0  0
   -0.2977    0.3779   -0.1491 C   0  0  0  0  0  0  0  0  0  0  0  0
   -1.1423    1.5105    0.0163 N   0  0  0  0  0  0  0  0  0  0  0  0
   -0.6511    2.8036    0.3470 C   0  0  0  0  0  0  0  0  0  0  0  0
    0.5867    2.9869    0.5076 O   0  0  0  0  0  0  0  0  0  0  0  0
   -1.6162    3.9113    0.4952 C   0  0  0  0  0  0  0  0  0  0  0  0
   -0.8697    5.1804    0.8454 C   0  0  0  0  0  0  0  0  0  0  0  0
    1.0376    0.4814    0.0036 N   0  0  0  0  0  0  0  0  0  0  0  0
    1.8437   -0.5991   -0.1541 C   0  0  0  0  0  0  0  0  0  0  0  0
    1.3019   -1.8017   -0.4698 N   0  0  0  0  0  0  0  0  0  0  0  0
   -0.0162   -1.9733   -0.6358 C   0  0  0  0  0  0  0  0  0  0  0  0
   -0.6020   -3.2965   -0.9822 C   0  0  0  0  0  0  0  0  0  0  0  0
    3.2947   -0.5173    0.0052 C   0  0  0  0  0  0  0  0  0  0  0  0
    3.8862    0.6883    0.3265 C   0  0  0  0  0  0  0  0  0  0  0  0
    5.2618    0.7984    0.4846 C   0  0  0  0  0  0  0  0  0  0  0  0
    6.0140   -0.3417    0.3086 C   0  0  0  0  0  0  0  0  0  0  0  0
    5.4679   -1.5571   -0.0104 C   0  0  0  0  0  0  0  0  0  0  0  0
    4.1010   -1.6251   -0.1585 C   0  0  0  0  0  0  0  0  0  0  0  0
   -4.6395   -3.6825    0.0819 H   0  0  0  0  0  0  0  0  0  0  0  0
   -5.9184   -2.5855   -0.5756 H   0  0  0  0  0  0  0  0  0  0  0  0
   -4.2605   -2.6819   -1.3271 H   0  0  0  0  0  0  0  0  0  0  0  0
   -4.6405   -1.8477    1.5553 H   0  0  0  0  0  0  0  0  0  0  0  0
   -4.9538   -0.6493    0.2531 H   0  0  0  0  0  0  0  0  0  0  0  0
   -2.1705    1.3868   -0.1109 H   0  0  0  0  0  0  0  0  0  0  0  0
   -2.1934    4.1221   -0.4326 H   0  0  0  0  0  0  0  0  0  0  0  0
   -2.3554    3.7385    1.3015 H   0  0  0  0  0  0  0  0  0  0  0  0
   -0.5794    5.2411    1.9142 H   0  0  0  0  0  0  0  0  0  0  0  0
    0.0438    5.3276    0.2318 H   0  0  0  0  0  0  0  0  0  0  0  0
   -1.5473    6.0446    0.6655 H   0  0  0  0  0  0  0  0  0  0  0  0
   -1.5131   -3.5187   -0.4251 H   0  0  0  0  0  0  0  0  0  0  0  0
    0.1557   -4.0661   -0.6557 H   0  0  0  0  0  0  0  0  0  0  0  0
   -0.7220   -3.4198   -2.0849 H   0  0  0  0  0  0  0  0  0  0  0  0
    3.2592    1.5641    0.4569 H   0  0  0  0  0  0  0  0  0  0  0  0
    5.7496    1.7312    0.7361 H   0  0  0  0  0  0  0  0  0  0  0  0
    7.1014   -0.3155    0.4203 H   0  0  0  0  0  0  0  0  0  0  0  0
    6.0443   -2.4664   -0.1530 H   0  0  0  0  0  0  0  0  0  0  0  0
    3.6518   -2.5756   -0.4101 H   0  0  0  0  0  0  0  0  0  0  0  0
  1  2  1  0
  2  3  1  0
  3  4  1  0
  4  5  2  0
  4  6  1  0
  6  7  2  0
  7  8  1  0
  8  9  1  0
  9 10  2  0
  9 11  1  0
 11 12  1  0
  7 13  1  0
 13 14  2  0
 14 15  1  0
 15 16  2  0
 16 17  1  0
 14 18  1  0
 18 19  2  0
 19 20  1  0
 20 21  2  0
 21 22  1  0
 22 23  2  0
 16  6  1  0
 23 18  1  0
  1 24  1  0
  1 25  1  0
  1 26  1  0
  2 27  1  0
  2 28  1  0
  8 29  1  0
 11 30  1  0
 11 31  1  0
 12 32  1  0
 12 33  1  0
 12 34  1  0
 17 35  1  0
 17 36  1  0
 17 37  1  0
 19 38  1  0
 20 39  1  0
 21 40  1  0
 22 41  1  0
 23 42  1  0
M  END
>  <Ligand ID>  (1) 
LIG0004042

>  <Ligand>  (1) 
SMR000020543

>  <SMILES>  (1) 
CCOC(=O)c1c(NC(=O)CC)nc(nc1C)c1ccccc1

>  <CID>  (1) 
830687.0

>  <ChEMBL ID>  (1) 
nan

>  <InChiKey>  (1) 
QJCGIXVMQIHNNV-UHFFFAOYSA-N

>  <InChi>  (1) 
InChI=1S/C17H19N3O3/c1-4-13(21)19-16-14(17(22)23-5-2)11(3)18-15(20-16)12-9-7-6-8-10-12/h6-10H,4-5H2,1-3H3,(H,18,19,20,21)

>  <IUPAC Name>  (1) 
ethyl 4-methyl-2-phenyl-6-(propanoylamino)pyrimidine-5-carboxylate

$$$$
