
     RDKit          3D

 60 64  0  0  0  0  0  0  0  0999 V2000
   -3.7571    1.1506   -0.7047 O   0  0  0  0  0  0  0  0  0  0  0  0
   -3.6278    1.1157    0.5365 C   0  0  0  0  0  0  0  0  0  0  0  0
   -4.8422    1.4311    1.3161 C   0  0  0  0  0  0  0  0  0  0  0  0
   -4.8378    2.5045    2.2225 C   0  0  0  0  0  0  0  0  0  0  0  0
   -5.9807    2.8054    2.9319 C   0  0  0  0  0  0  0  0  0  0  0  0
   -7.1539    2.0646    2.7745 C   0  0  0  0  0  0  0  0  0  0  0  0
   -7.1602    1.0149    1.8879 C   0  0  0  0  0  0  0  0  0  0  0  0
   -6.0060    0.6894    1.1520 C   0  0  0  0  0  0  0  0  0  0  0  0
   -5.9967   -0.4255    0.1989 C   0  0  0  0  0  0  0  0  0  0  0  0
   -6.9608   -0.5778   -0.7653 C   0  0  0  0  0  0  0  0  0  0  0  0
   -6.9383   -1.5971   -1.6819 C   0  0  0  0  0  0  0  0  0  0  0  0
   -5.8810   -2.5146   -1.6176 C   0  0  0  0  0  0  0  0  0  0  0  0
   -4.8843   -2.3920   -0.6507 C   0  0  0  0  0  0  0  0  0  0  0  0
   -4.9620   -1.3303    0.2563 C   0  0  0  0  0  0  0  0  0  0  0  0
   -2.3831    0.7987    1.1231 N   0  0  0  0  0  0  0  0  0  0  0  0
   -1.1882    0.4968    0.4506 C   0  0  0  0  0  0  0  0  0  0  0  0
   -0.0285    0.3253    1.2216 C   0  0  0  0  0  0  0  0  0  0  0  0
    1.1930    0.0485    0.6579 C   0  0  0  0  0  0  0  0  0  0  0  0
    1.3543   -0.0767   -0.7018 C   0  0  0  0  0  0  0  0  0  0  0  0
    0.2043    0.0860   -1.4924 C   0  0  0  0  0  0  0  0  0  0  0  0
   -1.0242    0.3666   -0.9015 C   0  0  0  0  0  0  0  0  0  0  0  0
    2.6431   -0.3128   -1.3494 C   0  0  0  0  0  0  0  0  0  0  0  0
    2.6093   -0.2312   -2.6362 O   0  0  0  0  0  0  0  0  0  0  0  0
    3.8541   -0.5910   -0.7471 N   0  0  0  0  0  0  0  0  0  0  0  0
    3.9303   -1.5582    0.3700 C   0  0  0  0  0  0  0  0  0  0  0  0
    4.8238   -0.9097    1.4021 C   0  0  0  0  0  0  0  0  0  0  0  0
    6.2456   -1.3532    1.2853 C   0  0  0  0  0  0  0  0  0  0  0  0
    6.8868   -1.3295   -0.0484 C   0  0  0  0  0  0  0  0  0  0  0  0
    6.3908   -0.3401   -1.0094 C   0  0  0  0  0  0  0  0  0  0  0  0
    5.0785   -0.0224   -1.2819 C   0  0  0  0  0  0  0  0  0  0  0  0
    4.8163    0.9877   -2.1855 C   0  0  0  0  0  0  0  0  0  0  0  0
    5.8484    1.6770   -2.8216 C   0  0  0  0  0  0  0  0  0  0  0  0
    7.1696    1.3454   -2.5377 C   0  0  0  0  0  0  0  0  0  0  0  0
    7.4276    0.3560   -1.6511 C   0  0  0  0  0  0  0  0  0  0  0  0
   -3.9237    3.1080    2.3648 H   0  0  0  0  0  0  0  0  0  0  0  0
   -6.0048    3.6336    3.6410 H   0  0  0  0  0  0  0  0  0  0  0  0
   -8.0511    2.2862    3.3079 H   0  0  0  0  0  0  0  0  0  0  0  0
   -8.0195    0.3873    1.7046 H   0  0  0  0  0  0  0  0  0  0  0  0
   -7.7795    0.1239   -0.8105 H   0  0  0  0  0  0  0  0  0  0  0  0
   -7.7111   -1.6968   -2.4163 H   0  0  0  0  0  0  0  0  0  0  0  0
   -5.8930   -3.2937   -2.3446 H   0  0  0  0  0  0  0  0  0  0  0  0
   -4.0685   -3.1107   -0.6171 H   0  0  0  0  0  0  0  0  0  0  0  0
   -4.1878   -1.2515    1.0235 H   0  0  0  0  0  0  0  0  0  0  0  0
   -2.3913    0.7932    2.1976 H   0  0  0  0  0  0  0  0  0  0  0  0
   -0.0972    0.4048    2.2699 H   0  0  0  0  0  0  0  0  0  0  0  0
    2.0305   -0.0474    1.3381 H   0  0  0  0  0  0  0  0  0  0  0  0
    0.2510   -0.0051   -2.5873 H   0  0  0  0  0  0  0  0  0  0  0  0
   -1.8492    0.4908   -1.5867 H   0  0  0  0  0  0  0  0  0  0  0  0
    4.5278   -2.4205   -0.0542 H   0  0  0  0  0  0  0  0  0  0  0  0
    3.0004   -1.9838    0.6924 H   0  0  0  0  0  0  0  0  0  0  0  0
    4.8171    0.2193    1.3234 H   0  0  0  0  0  0  0  0  0  0  0  0
    4.4959   -1.1401    2.4414 H   0  0  0  0  0  0  0  0  0  0  0  0
    6.3010   -2.4029    1.7080 H   0  0  0  0  0  0  0  0  0  0  0  0
    6.8155   -0.7673    2.0747 H   0  0  0  0  0  0  0  0  0  0  0  0
    6.9773   -2.3789   -0.4647 H   0  0  0  0  0  0  0  0  0  0  0  0
    7.9789   -1.0205    0.1519 H   0  0  0  0  0  0  0  0  0  0  0  0
    3.8254    1.3239   -2.4168 H   0  0  0  0  0  0  0  0  0  0  0  0
    5.6152    2.4637   -3.5201 H   0  0  0  0  0  0  0  0  0  0  0  0
    8.0113    1.8675   -2.9964 H   0  0  0  0  0  0  0  0  0  0  0  0
    8.4670    0.0857   -1.4273 H   0  0  0  0  0  0  0  0  0  0  0  0
  1  2  2  0
  2  3  1  0
  3  4  2  0
  4  5  1  0
  5  6  2  0
  6  7  1  0
  7  8  2  0
  8  9  1  0
  9 10  2  0
 10 11  1  0
 11 12  2  0
 12 13  1  0
 13 14  2  0
  2 15  1  0
 15 16  1  0
 16 17  2  0
 17 18  1  0
 18 19  2  0
 19 20  1  0
 20 21  2  0
 19 22  1  0
 22 23  2  0
 22 24  1  0
 24 25  1  0
 25 26  1  0
 26 27  1  0
 27 28  1  0
 28 29  1  0
 29 30  2  0
 30 31  1  0
 31 32  2  0
 32 33  1  0
 33 34  2  0
  8  3  1  0
 14  9  1  0
 21 16  1  0
 30 24  1  0
 34 29  1  0
  4 35  1  0
  5 36  1  0
  6 37  1  0
  7 38  1  0
 10 39  1  0
 11 40  1  0
 12 41  1  0
 13 42  1  0
 14 43  1  0
 15 44  1  0
 17 45  1  0
 18 46  1  0
 20 47  1  0
 21 48  1  0
 25 49  1  0
 25 50  1  0
 26 51  1  0
 26 52  1  0
 27 53  1  0
 27 54  1  0
 28 55  1  0
 28 56  1  0
 31 57  1  0
 32 58  1  0
 33 59  1  0
 34 60  1  0
M  END
>  <Ligand ID>  (1) 
LIG0003092

>  <Ligand>  (1) 
CHEMBL603708

>  <SMILES>  (1) 
O=C(c1ccccc1c1ccccc1)Nc1ccc(cc1)C(=O)N1CCCCc2c1cccc2

>  <CID>  (1) 
10411308.0

>  <ChEMBL ID>  (1) 
nan

>  <InChiKey>  (1) 
PHOVIPPURLHZTI-UHFFFAOYSA-N

>  <InChi>  (1) 
InChI=1S/C30H26N2O2/c33-29(27-15-6-5-14-26(27)22-10-2-1-3-11-22)31-25-19-17-24(18-20-25)30(34)32-21-9-8-13-23-12-4-7-16-28(23)32/h1-7,10-12,14-20H,8-9,13,21H2,(H,31,33)

>  <IUPAC Name>  (1) 
2-phenyl-N-[4-(2,3,4,5-tetrahydro-1-benzazepine-1-carbonyl)phenyl]benzamide

$$$$
