
     RDKit          3D

 42 43  0  0  0  0  0  0  0  0999 V2000
   -0.4083    1.5694    1.4830 O   0  0  0  0  0  0  0  0  0  0  0  0
   -0.9747    1.1203    0.4725 C   0  0  0  0  0  0  0  0  0  0  0  0
   -0.2843    0.9701   -0.7644 N   0  0  0  0  0  0  0  0  0  0  0  0
    1.1201    1.3392   -0.8929 C   0  0  0  0  0  0  0  0  0  0  0  0
    1.1824    2.5438   -1.7705 C   0  0  0  0  0  0  0  0  0  0  0  0
    0.2490    3.8812   -0.9850 Cl  0  0  0  0  0  0  0  0  0  0  0  0
    2.8778    3.0974   -1.9398 Cl  0  0  0  0  0  0  0  0  0  0  0  0
    0.4686    2.2710   -3.3526 Cl  0  0  0  0  0  0  0  0  0  0  0  0
    1.9978    0.2722   -1.1823 N   0  0  0  0  0  0  0  0  0  0  0  0
    1.9617   -0.6374   -2.2622 C   0  0  0  0  0  0  0  0  0  0  0  0
    0.8168   -0.6546   -3.4220 S   0  0  0  0  0  0  0  0  0  0  0  0
    2.9779   -1.6650   -2.3836 N   0  0  0  0  0  0  0  0  0  0  0  0
    4.0208   -1.7506   -1.3977 C   0  0  0  0  0  0  0  0  0  0  0  0
    3.8487   -2.5389   -0.2699 C   0  0  0  0  0  0  0  0  0  0  0  0
    4.8747   -2.6021    0.6661 C   0  0  0  0  0  0  0  0  0  0  0  0
    6.0333   -1.8828    0.4518 C   0  0  0  0  0  0  0  0  0  0  0  0
    6.1804   -1.1057   -0.6783 C   0  0  0  0  0  0  0  0  0  0  0  0
    5.1719   -1.0314   -1.6179 C   0  0  0  0  0  0  0  0  0  0  0  0
   -2.3314    0.7672    0.6087 O   0  0  0  0  0  0  0  0  0  0  0  0
   -2.9328    0.9517    1.8762 C   0  0  0  0  0  0  0  0  0  0  0  0
   -4.3416    0.5192    1.7853 C   0  0  0  0  0  0  0  0  0  0  0  0
   -4.6938   -0.7902    2.0539 C   0  0  0  0  0  0  0  0  0  0  0  0
   -6.0247   -1.1280    1.9509 C   0  0  0  0  0  0  0  0  0  0  0  0
   -7.0129   -0.2373    1.5976 C   0  0  0  0  0  0  0  0  0  0  0  0
   -6.6519    1.0775    1.3289 C   0  0  0  0  0  0  0  0  0  0  0  0
   -5.3101    1.4499    1.4251 C   0  0  0  0  0  0  0  0  0  0  0  0
   -0.7850    0.5899   -1.5983 H   0  0  0  0  0  0  0  0  0  0  0  0
    1.3712    1.7099    0.1617 H   0  0  0  0  0  0  0  0  0  0  0  0
    2.8134    0.1149   -0.4993 H   0  0  0  0  0  0  0  0  0  0  0  0
    3.0000   -2.3488   -3.1445 H   0  0  0  0  0  0  0  0  0  0  0  0
    2.9298   -3.0968   -0.1202 H   0  0  0  0  0  0  0  0  0  0  0  0
    4.7371   -3.2216    1.5506 H   0  0  0  0  0  0  0  0  0  0  0  0
    6.8152   -1.9445    1.1870 H   0  0  0  0  0  0  0  0  0  0  0  0
    7.0811   -0.5355   -0.8627 H   0  0  0  0  0  0  0  0  0  0  0  0
    5.2643   -0.4383   -2.4966 H   0  0  0  0  0  0  0  0  0  0  0  0
   -2.4246    0.3443    2.6487 H   0  0  0  0  0  0  0  0  0  0  0  0
   -2.8939    2.0319    2.1183 H   0  0  0  0  0  0  0  0  0  0  0  0
   -3.9167   -1.5051    2.3353 H   0  0  0  0  0  0  0  0  0  0  0  0
   -6.2961   -2.1489    2.1607 H   0  0  0  0  0  0  0  0  0  0  0  0
   -8.0658   -0.5188    1.5195 H   0  0  0  0  0  0  0  0  0  0  0  0
   -7.4120    1.8087    1.0460 H   0  0  0  0  0  0  0  0  0  0  0  0
   -5.0332    2.4832    1.2130 H   0  0  0  0  0  0  0  0  0  0  0  0
  1  2  2  0
  2  3  1  0
  3  4  1  0
  4  5  1  0
  5  6  1  0
  5  7  1  0
  5  8  1  0
  4  9  1  0
  9 10  1  0
 10 11  2  0
 10 12  1  0
 12 13  1  0
 13 14  2  0
 14 15  1  0
 15 16  2  0
 16 17  1  0
 17 18  2  0
  2 19  1  0
 19 20  1  0
 20 21  1  0
 21 22  2  0
 22 23  1  0
 23 24  2  0
 24 25  1  0
 25 26  2  0
 18 13  1  0
 26 21  1  0
  3 27  1  0
  4 28  1  0
  9 29  1  0
 12 30  1  0
 14 31  1  0
 15 32  1  0
 16 33  1  0
 17 34  1  0
 18 35  1  0
 20 36  1  0
 20 37  1  0
 22 38  1  0
 23 39  1  0
 24 40  1  0
 25 41  1  0
 26 42  1  0
M  END
>  <Ligand ID>  (1) 
LIG0002702

>  <Ligand>  (1) 
MLS-0425700.0001

>  <SMILES>  (1) 
O=C(NC(C(Cl)(Cl)Cl)NC(=S)Nc1ccccc1)OCc1ccccc1

>  <CID>  (1) 
4594209.0

>  <ChEMBL ID>  (1) 
nan

>  <InChiKey>  (1) 
KDVUKPVQKAFBHT-UHFFFAOYSA-N

>  <InChi>  (1) 
InChI=1S/C17H16Cl3N3O2S/c18-17(19,20)14(22-15(26)21-13-9-5-2-6-10-13)23-16(24)25-11-12-7-3-1-4-8-12/h1-10,14H,11H2,(H,23,24)(H2,21,22,26)

>  <IUPAC Name>  (1) 
benzyl N-[2,2,2-trichloro-1-(phenylcarbamothioylamino)ethyl]carbamate

$$$$
