
     RDKit          3D

 13 12  0  0  0  0  0  0  0  0999 V2000
    1.8777    0.0848    0.5350 C   0  0  0  0  0  0  0  0  0  0  0  0
    0.7686    0.5543   -0.4003 C   0  0  0  0  0  0  0  0  0  0  0  0
   -0.0443   -0.7987   -1.2449 S   0  0  0  0  0  0  0  0  0  0  0  0
   -1.7706   -1.0099   -0.8703 C   0  0  0  0  0  0  0  0  0  0  0  0
   -2.6136    0.4383   -0.2561 S   0  0  0  0  0  0  0  0  0  0  0  0
    1.4930   -0.4104    1.4358 H   0  0  0  0  0  0  0  0  0  0  0  0
    2.4932   -0.6476   -0.0336 H   0  0  0  0  0  0  0  0  0  0  0  0
    2.5217    0.9552    0.7205 H   0  0  0  0  0  0  0  0  0  0  0  0
    0.0684    1.2413    0.0939 H   0  0  0  0  0  0  0  0  0  0  0  0
    1.3093    1.1384   -1.1887 H   0  0  0  0  0  0  0  0  0  0  0  0
   -2.2859   -1.3192   -1.8153 H   0  0  0  0  0  0  0  0  0  0  0  0
   -1.9407   -1.8437   -0.1442 H   0  0  0  0  0  0  0  0  0  0  0  0
   -1.8768    1.6172   -0.3320 H   0  0  0  0  0  0  0  0  0  0  0  0
  1  2  1  0
  2  3  1  0
  3  4  1  0
  4  5  1  0
  1  6  1  0
  1  7  1  0
  1  8  1  0
  2  9  1  0
  2 10  1  0
  4 11  1  0
  4 12  1  0
  5 13  1  0
M  END
>  <Ligand ID>  (1) 
LIG0000755

>  <Ligand>  (1) 
ethylsulfanylmethanethiol

>  <SMILES>  (1) 
CCSCS

>  <CID>  (1) 
16722147.0

>  <ChEMBL ID>  (1) 
nan

>  <InChiKey>  (1) 
VRQFYSHDLYCPRC-UHFFFAOYSA-N

>  <InChi>  (1) 
InChI=1S/C3H8S2/c1-2-5-3-4/h4H,2-3H2,1H3

>  <IUPAC Name>  (1) 
ethylsulfanylmethanethiol

$$$$
