
     RDKit          3D

 71 75  0  0  0  0  0  0  0  0999 V2000
   -8.7348    0.1797   -1.2811 C   0  0  0  0  0  0  0  0  0  0  0  0
   -7.6515    0.7727   -0.3756 C   0  0  2  0  0  0  0  0  0  0  0  0
   -6.2842    0.3729   -0.8406 C   0  0  0  0  0  0  0  0  0  0  0  0
   -5.9841   -0.9744   -0.4396 N   0  0  0  0  0  0  0  0  0  0  0  0
   -6.2465   -1.2484    0.9371 C   0  0  0  0  0  0  0  0  0  0  0  0
   -6.6654    0.0423    1.6253 C   0  0  1  0  0  0  0  0  0  0  0  0
   -7.9357    0.4201    0.9899 N   0  0  0  0  0  0  0  0  0  0  0  0
   -6.8665   -0.1848    3.0982 C   0  0  0  0  0  0  0  0  0  0  0  0
   -4.7682   -1.4833   -0.9704 C   0  0  0  0  0  0  0  0  0  0  0  0
   -3.5558   -0.7432   -0.6136 C   0  0  0  0  0  0  0  0  0  0  0  0
   -3.1077    0.3086   -1.4152 C   0  0  0  0  0  0  0  0  0  0  0  0
   -1.9694    1.0225   -1.0994 C   0  0  0  0  0  0  0  0  0  0  0  0
   -1.2255    0.7087    0.0450 C   0  0  0  0  0  0  0  0  0  0  0  0
   -1.6723   -0.3150    0.8151 C   0  0  0  0  0  0  0  0  0  0  0  0
   -2.8140   -1.0498    0.5200 C   0  0  0  0  0  0  0  0  0  0  0  0
   -0.0519    1.4407    0.3810 N   0  0  0  0  0  0  0  0  0  0  0  0
   -0.1231    2.6057    1.0820 C   0  0  0  0  0  0  0  0  0  0  0  0
    1.1729    3.0527    1.2332 C   0  0  0  0  0  0  0  0  0  0  0  0
    1.9958    2.1708    0.6342 N   0  0  0  0  0  0  0  0  0  0  0  0
    1.2334    1.1886    0.1164 C   0  0  0  0  0  0  0  0  0  0  0  0
    1.7260    0.0306   -0.6188 C   0  0  0  0  0  0  0  0  0  0  0  0
    1.0748   -0.3146   -1.6401 O   0  0  0  0  0  0  0  0  0  0  0  0
    2.8805   -0.7008   -0.2385 N   0  0  0  0  0  0  0  0  0  0  0  0
    3.6890   -0.3668    0.9302 C   0  0  0  0  0  0  0  0  0  0  0  0
    5.0049    0.2004    0.3691 C   0  0  0  0  0  0  0  0  0  0  0  0
    5.5991   -0.8400   -0.5476 C   0  0  0  0  0  0  0  0  0  0  0  0
    4.7630   -2.1006   -0.6077 C   0  0  0  0  0  0  0  0  0  0  0  0
    3.3304   -1.8385   -1.0196 C   0  0  0  0  0  0  0  0  0  0  0  0
    6.9411   -1.1808   -0.1930 N   0  0  0  0  0  0  0  0  0  0  0  0
    8.0425   -0.2904   -0.1876 C   0  0  0  0  0  0  0  0  0  0  0  0
    7.9414    1.0485   -0.5435 C   0  0  0  0  0  0  0  0  0  0  0  0
    9.0198    1.9083   -0.5331 C   0  0  0  0  0  0  0  0  0  0  0  0
   10.2670    1.4520   -0.1579 C   0  0  0  0  0  0  0  0  0  0  0  0
   10.4001    0.1292    0.2003 C   0  0  0  0  0  0  0  0  0  0  0  0
    9.3117   -0.7121    0.1832 C   0  0  0  0  0  0  0  0  0  0  0  0
   11.6335   -0.3265    0.5683 F   0  0  0  0  0  0  0  0  0  0  0  0
   -8.8449   -0.9033   -1.0788 H   0  0  0  0  0  0  0  0  0  0  0  0
   -8.5301    0.4463   -2.3224 H   0  0  0  0  0  0  0  0  0  0  0  0
   -9.6789    0.7065   -0.9720 H   0  0  0  0  0  0  0  0  0  0  0  0
   -7.7479    1.8732   -0.4669 H   0  0  0  0  0  0  0  0  0  0  0  0
   -5.5453    1.1264   -0.5388 H   0  0  0  0  0  0  0  0  0  0  0  0
   -6.3016    0.3890   -1.9561 H   0  0  0  0  0  0  0  0  0  0  0  0
   -5.4819   -1.7989    1.4810 H   0  0  0  0  0  0  0  0  0  0  0  0
   -7.1632   -1.9073    0.9700 H   0  0  0  0  0  0  0  0  0  0  0  0
   -5.9618    0.8756    1.4512 H   0  0  0  0  0  0  0  0  0  0  0  0
   -8.5442   -0.4231    1.0867 H   0  0  0  0  0  0  0  0  0  0  0  0
   -7.5297   -1.0372    3.2804 H   0  0  0  0  0  0  0  0  0  0  0  0
   -7.2786    0.7393    3.5527 H   0  0  0  0  0  0  0  0  0  0  0  0
   -5.8704   -0.3515    3.5496 H   0  0  0  0  0  0  0  0  0  0  0  0
   -4.8331   -1.5239   -2.0678 H   0  0  0  0  0  0  0  0  0  0  0  0
   -4.6648   -2.5383   -0.6036 H   0  0  0  0  0  0  0  0  0  0  0  0
   -3.6881    0.5334   -2.2885 H   0  0  0  0  0  0  0  0  0  0  0  0
   -1.6675    1.8274   -1.7540 H   0  0  0  0  0  0  0  0  0  0  0  0
   -1.1056   -0.5817    1.7198 H   0  0  0  0  0  0  0  0  0  0  0  0
   -3.1036   -1.8544    1.1827 H   0  0  0  0  0  0  0  0  0  0  0  0
   -1.0118    3.0873    1.4481 H   0  0  0  0  0  0  0  0  0  0  0  0
    1.4188    3.9664    1.7555 H   0  0  0  0  0  0  0  0  0  0  0  0
    3.9125   -1.2589    1.5381 H   0  0  0  0  0  0  0  0  0  0  0  0
    3.2276    0.3771    1.5795 H   0  0  0  0  0  0  0  0  0  0  0  0
    5.6325    0.4771    1.2211 H   0  0  0  0  0  0  0  0  0  0  0  0
    4.7320    1.0842   -0.2539 H   0  0  0  0  0  0  0  0  0  0  0  0
    5.6410   -0.4583   -1.6125 H   0  0  0  0  0  0  0  0  0  0  0  0
    5.2413   -2.7355   -1.3856 H   0  0  0  0  0  0  0  0  0  0  0  0
    4.8110   -2.6754    0.3356 H   0  0  0  0  0  0  0  0  0  0  0  0
    2.7425   -2.7289   -0.6625 H   0  0  0  0  0  0  0  0  0  0  0  0
    3.2289   -1.6801   -2.0937 H   0  0  0  0  0  0  0  0  0  0  0  0
    7.1522   -2.1744    0.0925 H   0  0  0  0  0  0  0  0  0  0  0  0
    6.9954    1.4621   -0.8451 H   0  0  0  0  0  0  0  0  0  0  0  0
    8.8751    2.9517   -0.8212 H   0  0  0  0  0  0  0  0  0  0  0  0
   11.1330    2.0769   -0.1350 H   0  0  0  0  0  0  0  0  0  0  0  0
    9.4393   -1.7539    0.4686 H   0  0  0  0  0  0  0  0  0  0  0  0
  1  2  1  0
  2  3  1  0
  3  4  1  0
  4  5  1  0
  5  6  1  0
  6  7  1  0
  6  8  1  0
  4  9  1  0
  9 10  1  0
 10 11  2  0
 11 12  1  0
 12 13  2  0
 13 14  1  0
 14 15  2  0
 13 16  1  0
 16 17  1  0
 17 18  2  0
 18 19  1  0
 19 20  2  0
 20 21  1  0
 21 22  2  0
 21 23  1  0
 23 24  1  0
 24 25  1  0
 25 26  1  0
 26 27  1  0
 27 28  1  0
 26 29  1  0
 29 30  1  0
 30 31  2  0
 31 32  1  0
 32 33  2  0
 33 34  1  0
 34 35  2  0
 34 36  1  0
  7  2  1  0
 15 10  1  0
 20 16  1  0
 28 23  1  0
 35 30  1  0
  1 37  1  0
  1 38  1  0
  1 39  1  0
  2 40  1  1
  3 41  1  0
  3 42  1  0
  5 43  1  0
  5 44  1  0
  6 45  1  1
  7 46  1  0
  8 47  1  0
  8 48  1  0
  8 49  1  0
  9 50  1  0
  9 51  1  0
 11 52  1  0
 12 53  1  0
 14 54  1  0
 15 55  1  0
 17 56  1  0
 18 57  1  0
 24 58  1  0
 24 59  1  0
 25 60  1  0
 25 61  1  0
 26 62  1  0
 27 63  1  0
 27 64  1  0
 28 65  1  0
 28 66  1  0
 29 67  1  0
 31 68  1  0
 32 69  1  0
 33 70  1  0
 35 71  1  0
M  END
>  <Ligand ID>  (1) 
LIG0005258

>  <Ligand>  (1) 
CHEMBL480219

>  <SMILES>  (1) 
C[C@@H]1CN(C[C@@H](N1)C)Cc1ccc(cc1)n1ccnc1C(=O)N1CCC(CC1)Nc1cccc(c1)F

>  <CID>  (1) 
16041292.0

>  <ChEMBL ID>  (1) 
nan

>  <InChiKey>  (1) 
BKNPWPRZETXJRA-OYRHEFFESA-N

>  <InChi>  (1) 
InChI=1S/C28H35FN6O/c1-20-17-33(18-21(2)31-20)19-22-6-8-26(9-7-22)35-15-12-30-27(35)28(36)34-13-10-24(11-14-34)32-25-5-3-4-23(29)16-25/h3-9,12,15-16,20-21,24,31-32H,10-11,13-14,17-19H2,1-2H3/t20-,21+

>  <IUPAC Name>  (1) 
[1-[4-[[(3R,5S)-3,5-dimethylpiperazin-1-yl]methyl]phenyl]imidazol-2-yl]-[4-(3-fluoroanilino)piperidin-1-yl]methanone

$$$$
