
     RDKit          3D

183189  0  0  0  0  0  0  0  0999 V2000
    2.0392    3.5260   -4.7347 N   0  0  0  0  0  0  0  0  0  0  0  0
    1.7352    4.7193   -4.0750 N   0  0  0  0  0  0  0  0  0  0  0  0
    2.3743    4.8732   -2.7992 C   0  0  2  0  0  0  0  0  0  0  0  0
    1.8654    3.8266   -1.8490 C   0  0  0  0  0  0  0  0  0  0  0  0
    2.4030    3.6631   -0.7400 O   0  0  0  0  0  0  0  0  0  0  0  0
    0.7798    3.0537   -2.2362 N   0  0  0  0  0  0  0  0  0  0  0  0
    0.1223    1.9903   -1.4804 C   0  0  1  0  0  0  0  0  0  0  0  0
    1.1366    1.2111   -0.6681 C   0  0  0  0  0  0  0  0  0  0  0  0
    2.2931    0.7334   -1.4714 C   0  0  0  0  0  0  0  0  0  0  0  0
    2.6402    1.1806   -2.5687 O   0  0  0  0  0  0  0  0  0  0  0  0
    3.1142   -0.3487   -0.9856 N   0  0  0  0  0  0  0  0  0  0  0  0
    4.3077   -0.8267   -1.5640 C   0  0  0  0  0  0  0  0  0  0  0  0
    3.9790   -1.9764   -2.4402 N   0  0  0  0  0  0  0  0  0  0  0  0
    3.7911   -3.2913   -1.8597 C   0  0  0  0  0  0  0  0  0  0  0  0
    3.7717   -3.2669   -0.6148 O   0  0  0  0  0  0  0  0  0  0  0  0
    3.6340   -4.4821   -2.6800 C   0  0  0  0  0  0  0  0  0  0  0  0
    3.8026   -4.4840   -3.9273 O   0  0  0  0  0  0  0  0  0  0  0  0
    3.2574   -5.7944   -2.0654 C   0  0  1  0  0  0  0  0  0  0  0  0
    4.3754   -6.7746   -2.0217 C   0  0  0  0  0  0  0  0  0  0  0  0
    4.8794   -7.0911   -3.3688 C   0  0  0  0  0  0  0  0  0  0  0  0
    5.8812   -6.3466   -3.9698 C   0  0  0  0  0  0  0  0  0  0  0  0
    6.3678   -6.6491   -5.2264 C   0  0  0  0  0  0  0  0  0  0  0  0
    5.8072   -7.7526   -5.8906 C   0  0  0  0  0  0  0  0  0  0  0  0
    4.8142   -8.5138   -5.3294 C   0  0  0  0  0  0  0  0  0  0  0  0
    4.3534   -8.1796   -4.0680 C   0  0  0  0  0  0  0  0  0  0  0  0
    2.7086   -5.5307   -0.7360 N   0  0  0  0  0  0  0  0  0  0  0  0
    1.2979   -5.5523   -0.6249 C   0  0  0  0  0  0  0  0  0  0  0  0
    0.6448   -5.8280   -1.6309 O   0  0  0  0  0  0  0  0  0  0  0  0
    0.5317   -5.2653    0.6305 C   0  0  2  0  0  0  0  0  0  0  0  0
    0.8833   -6.3147    1.6439 C   0  0  0  0  0  0  0  0  0  0  0  0
   -0.8985   -5.3922    0.3416 N   0  0  0  0  0  0  0  0  0  0  0  0
   -1.7723   -4.2504    0.2868 C   0  0  0  0  0  0  0  0  0  0  0  0
   -1.1976   -3.1681    0.4825 O   0  0  0  0  0  0  0  0  0  0  0  0
   -3.2172   -4.4163    0.0104 C   0  0  2  0  0  0  0  0  0  0  0  0
   -3.8781   -3.1147   -0.2168 N   0  0  0  0  0  0  0  0  0  0  0  0
   -4.5884   -2.8369   -1.4357 C   0  0  0  0  0  0  0  0  0  0  0  0
   -4.4982   -3.7553   -2.2753 O   0  0  0  0  0  0  0  0  0  0  0  0
   -5.3476   -1.6489   -1.7336 C   0  0  2  0  0  0  0  0  0  0  0  0
   -5.3507   -0.6052   -0.7595 N   0  0  0  0  0  0  0  0  0  0  0  0
   -6.0063    0.6588   -0.8686 C   0  0  0  0  0  0  0  0  0  0  0  0
   -6.6750    0.8675   -1.8599 O   0  0  0  0  0  0  0  0  0  0  0  0
   -5.8055    1.5939    0.2921 C   0  0  2  0  0  0  0  0  0  0  0  0
   -4.4192    1.6784    0.6478 N   0  0  0  0  0  0  0  0  0  0  0  0
   -3.8160    2.8327    1.2809 C   0  0  0  0  0  0  0  0  0  0  0  0
   -4.6828    3.6355    1.6947 O   0  0  0  0  0  0  0  0  0  0  0  0
   -2.3787    3.0138    1.4261 C   0  0  1  0  0  0  0  0  0  0  0  0
   -1.6452    2.2023    0.4116 N   0  0  0  0  0  0  0  0  0  0  0  0
   -0.6894    2.7532   -0.4595 C   0  0  0  0  0  0  0  0  0  0  0  0
   -0.4753    3.9615   -0.4194 O   0  0  0  0  0  0  0  0  0  0  0  0
   -1.8155    4.3628    1.6302 C   0  0  0  0  0  0  0  0  0  0  0  0
   -2.2697    5.0473    2.8332 C   0  0  0  0  0  0  0  0  0  0  0  0
   -1.6684    4.8169    4.0919 C   0  0  0  0  0  0  0  0  0  0  0  0
   -2.3104    5.5241    5.0291 N   0  0  0  0  0  0  0  0  0  0  0  0
   -3.3118    6.2210    4.4740 C   0  0  0  0  0  0  0  0  0  0  0  0
   -3.2803    5.9216    3.1217 C   0  0  0  0  0  0  0  0  0  0  0  0
   -4.2092    6.5609    2.3340 C   0  0  0  0  0  0  0  0  0  0  0  0
   -5.1100    7.4413    2.8767 C   0  0  0  0  0  0  0  0  0  0  0  0
   -5.1409    7.7374    4.2300 C   0  0  0  0  0  0  0  0  0  0  0  0
   -4.2086    7.0992    5.0346 C   0  0  0  0  0  0  0  0  0  0  0  0
   -6.7079    1.0643    1.3975 C   0  0  0  0  0  0  0  0  0  0  0  0
   -6.7044    1.7995    2.6614 C   0  0  0  0  0  0  0  0  0  0  0  0
   -7.7312    1.0873    3.6074 C   0  0  0  0  0  0  0  0  0  0  0  0
   -8.9970    1.1361    2.9756 N   0  0  0  0  0  0  0  0  0  0  0  0
   -9.7444    2.1387    2.7910 C   0  0  0  0  0  0  0  0  0  0  0  0
   -9.4463    3.4733    3.2058 N   0  0  0  0  0  0  0  0  0  0  0  0
  -10.9986    1.9542    2.0956 N   0  0  0  0  0  0  0  0  0  0  0  0
   -6.8135   -2.0946   -2.0214 C   0  0  0  0  0  0  0  0  0  0  0  0
   -7.4543   -2.7756   -0.9222 C   0  0  0  0  0  0  0  0  0  0  0  0
   -8.1413   -2.0643    0.0458 C   0  0  0  0  0  0  0  0  0  0  0  0
   -8.7550   -2.7249    1.0892 C   0  0  0  0  0  0  0  0  0  0  0  0
   -8.7219   -4.0965    1.2261 C   0  0  0  0  0  0  0  0  0  0  0  0
   -8.0357   -4.8186    0.2611 C   0  0  0  0  0  0  0  0  0  0  0  0
   -7.4210   -4.1481   -0.7844 C   0  0  0  0  0  0  0  0  0  0  0  0
   -3.8783   -5.0808    1.2038 C   0  0  0  0  0  0  0  0  0  0  0  0
   -3.3505   -6.4013    1.5526 C   0  0  0  0  0  0  0  0  0  0  0  0
   -2.5279   -6.5402    2.5126 O   0  0  0  0  0  0  0  0  0  0  0  0
   -3.7558   -7.5561    0.8135 N   0  0  0  0  0  0  0  0  0  0  0  0
    5.3213   -1.2808   -0.5730 C   0  0  0  0  0  0  0  0  0  0  0  0
    6.3876   -1.7938   -1.0335 O   0  0  0  0  0  0  0  0  0  0  0  0
    5.1511   -1.1728    0.8392 N   0  0  0  0  0  0  0  0  0  0  0  0
    6.1801   -1.6747    1.6241 N   0  0  0  0  0  0  0  0  0  0  0  0
    7.2682   -0.7984    1.8865 C   0  0  1  0  0  0  0  0  0  0  0  0
    6.9187    0.2415    2.8591 C   0  0  0  0  0  0  0  0  0  0  0  0
    7.7556    1.1960    2.9810 O   0  0  0  0  0  0  0  0  0  0  0  0
    5.7352    0.2897    3.6889 C   0  0  0  0  0  0  0  0  0  0  0  0
    4.8392   -0.5790    3.7301 O   0  0  0  0  0  0  0  0  0  0  0  0
    5.5445    1.3957    4.5356 O   0  0  0  0  0  0  0  0  0  0  0  0
    8.4529   -1.5978    2.4634 C   0  0  0  0  0  0  0  0  0  0  0  0
    9.6236   -0.7591    2.7468 C   0  0  0  0  0  0  0  0  0  0  0  0
   10.5260   -0.5709    1.6974 C   0  0  0  0  0  0  0  0  0  0  0  0
   11.6607    0.1892    1.8766 C   0  0  0  0  0  0  0  0  0  0  0  0
   11.9086    0.7676    3.1015 C   0  0  0  0  0  0  0  0  0  0  0  0
   11.0396    0.6013    4.1586 C   0  0  0  0  0  0  0  0  0  0  0  0
    9.9074   -0.1653    3.9529 C   0  0  0  0  0  0  0  0  0  0  0  0
   13.0476    1.5337    3.2970 O   0  0  0  0  0  0  0  0  0  0  0  0
    1.9693    6.2586   -2.2961 C   0  0  0  0  0  0  0  0  0  0  0  0
    2.4480    7.2543   -3.2882 C   0  0  0  0  0  0  0  0  0  0  0  0
    3.7155    7.8170   -3.2324 C   0  0  0  0  0  0  0  0  0  0  0  0
    4.1486    8.7477   -4.1718 C   0  0  0  0  0  0  0  0  0  0  0  0
    3.3080    9.1366   -5.1998 C   0  0  0  0  0  0  0  0  0  0  0  0
    2.0508    8.5942   -5.2752 C   0  0  0  0  0  0  0  0  0  0  0  0
    1.6302    7.6677   -4.3328 C   0  0  0  0  0  0  0  0  0  0  0  0
    3.7030   10.0575   -6.1548 O   0  0  0  0  0  0  0  0  0  0  0  0
    3.0873    3.4345   -4.7257 H   0  0  0  0  0  0  0  0  0  0  0  0
    1.7753    3.7050   -5.7495 H   0  0  0  0  0  0  0  0  0  0  0  0
    0.7472    4.9749   -4.0868 H   0  0  0  0  0  0  0  0  0  0  0  0
    3.4748    4.8555   -2.8220 H   0  0  0  0  0  0  0  0  0  0  0  0
    0.3337    3.2347   -3.1817 H   0  0  0  0  0  0  0  0  0  0  0  0
   -0.4567    1.3158   -2.1022 H   0  0  0  0  0  0  0  0  0  0  0  0
    0.6123    0.2642   -0.3361 H   0  0  0  0  0  0  0  0  0  0  0  0
    1.4357    1.7824    0.2335 H   0  0  0  0  0  0  0  0  0  0  0  0
    2.7430   -0.7851   -0.1318 H   0  0  0  0  0  0  0  0  0  0  0  0
    4.8459   -0.0865   -2.2032 H   0  0  0  0  0  0  0  0  0  0  0  0
    3.8644   -1.9343   -3.4391 H   0  0  0  0  0  0  0  0  0  0  0  0
    2.4487   -6.1830   -2.7019 H   0  0  0  0  0  0  0  0  0  0  0  0
    4.0574   -7.6697   -1.4575 H   0  0  0  0  0  0  0  0  0  0  0  0
    5.2360   -6.2633   -1.4964 H   0  0  0  0  0  0  0  0  0  0  0  0
    6.3123   -5.4860   -3.4361 H   0  0  0  0  0  0  0  0  0  0  0  0
    7.1538   -6.0857   -5.7108 H   0  0  0  0  0  0  0  0  0  0  0  0
    6.1854   -7.9933   -6.8879 H   0  0  0  0  0  0  0  0  0  0  0  0
    4.3918   -9.3648   -5.8522 H   0  0  0  0  0  0  0  0  0  0  0  0
    3.5558   -8.7975   -3.6206 H   0  0  0  0  0  0  0  0  0  0  0  0
    3.2280   -5.3485    0.1091 H   0  0  0  0  0  0  0  0  0  0  0  0
    0.7551   -4.2322    0.9794 H   0  0  0  0  0  0  0  0  0  0  0  0
    0.5763   -7.2968    1.2040 H   0  0  0  0  0  0  0  0  0  0  0  0
    1.9698   -6.3646    1.8678 H   0  0  0  0  0  0  0  0  0  0  0  0
    0.2639   -6.2282    2.5662 H   0  0  0  0  0  0  0  0  0  0  0  0
   -1.3327   -6.2848    0.1463 H   0  0  0  0  0  0  0  0  0  0  0  0
   -3.3302   -5.0956   -0.8525 H   0  0  0  0  0  0  0  0  0  0  0  0
   -3.8566   -2.3745    0.4640 H   0  0  0  0  0  0  0  0  0  0  0  0
   -5.0820   -1.2230   -2.7026 H   0  0  0  0  0  0  0  0  0  0  0  0
   -4.8493   -0.7496    0.1233 H   0  0  0  0  0  0  0  0  0  0  0  0
   -6.2153    2.5618    0.0335 H   0  0  0  0  0  0  0  0  0  0  0  0
   -3.7728    0.9104    0.4831 H   0  0  0  0  0  0  0  0  0  0  0  0
   -1.9629    2.4754    2.3770 H   0  0  0  0  0  0  0  0  0  0  0  0
   -1.8072    1.1957    0.3087 H   0  0  0  0  0  0  0  0  0  0  0  0
   -1.9606    5.0649    0.7781 H   0  0  0  0  0  0  0  0  0  0  0  0
   -0.6989    4.2267    1.7282 H   0  0  0  0  0  0  0  0  0  0  0  0
   -0.8127    4.1660    4.2771 H   0  0  0  0  0  0  0  0  0  0  0  0
   -2.0665    5.5355    6.0659 H   0  0  0  0  0  0  0  0  0  0  0  0
   -4.1734    6.3125    1.2706 H   0  0  0  0  0  0  0  0  0  0  0  0
   -5.8128    7.9173    2.2100 H   0  0  0  0  0  0  0  0  0  0  0  0
   -5.8577    8.4343    4.6335 H   0  0  0  0  0  0  0  0  0  0  0  0
   -4.1983    7.3040    6.1135 H   0  0  0  0  0  0  0  0  0  0  0  0
   -7.7435    1.1730    0.9598 H   0  0  0  0  0  0  0  0  0  0  0  0
   -6.6052   -0.0430    1.4953 H   0  0  0  0  0  0  0  0  0  0  0  0
   -5.7794    1.7559    3.2626 H   0  0  0  0  0  0  0  0  0  0  0  0
   -7.1220    2.8119    2.5650 H   0  0  0  0  0  0  0  0  0  0  0  0
   -7.7089    1.5712    4.6043 H   0  0  0  0  0  0  0  0  0  0  0  0
   -7.4135    0.0300    3.7581 H   0  0  0  0  0  0  0  0  0  0  0  0
   -9.6766    4.3228    2.6576 H   0  0  0  0  0  0  0  0  0  0  0  0
   -8.9553    3.6468    4.1283 H   0  0  0  0  0  0  0  0  0  0  0  0
  -11.9124    1.9799    2.5686 H   0  0  0  0  0  0  0  0  0  0  0  0
  -10.8761    1.7925    1.0558 H   0  0  0  0  0  0  0  0  0  0  0  0
   -6.6871   -2.8314   -2.8381 H   0  0  0  0  0  0  0  0  0  0  0  0
   -7.3448   -1.2509   -2.4865 H   0  0  0  0  0  0  0  0  0  0  0  0
   -8.2230   -0.9894    0.0207 H   0  0  0  0  0  0  0  0  0  0  0  0
   -9.2995   -2.1927    1.8676 H   0  0  0  0  0  0  0  0  0  0  0  0
   -9.1990   -4.6391    2.0310 H   0  0  0  0  0  0  0  0  0  0  0  0
   -7.9844   -5.9122    0.3300 H   0  0  0  0  0  0  0  0  0  0  0  0
   -6.9006   -4.7918   -1.5010 H   0  0  0  0  0  0  0  0  0  0  0  0
   -4.9853   -5.1911    1.0177 H   0  0  0  0  0  0  0  0  0  0  0  0
   -3.7346   -4.4135    2.1055 H   0  0  0  0  0  0  0  0  0  0  0  0
   -4.7968   -7.7231    0.7213 H   0  0  0  0  0  0  0  0  0  0  0  0
   -3.0423   -8.2028    0.3818 H   0  0  0  0  0  0  0  0  0  0  0  0
    4.2756   -0.7276    1.1615 H   0  0  0  0  0  0  0  0  0  0  0  0
    6.5330   -2.5983    1.2442 H   0  0  0  0  0  0  0  0  0  0  0  0
    7.6827   -0.3533    0.9496 H   0  0  0  0  0  0  0  0  0  0  0  0
    4.6038    1.5818    4.9188 H   0  0  0  0  0  0  0  0  0  0  0  0
    8.0842   -2.0651    3.4206 H   0  0  0  0  0  0  0  0  0  0  0  0
    8.6795   -2.4823    1.8060 H   0  0  0  0  0  0  0  0  0  0  0  0
   10.3323   -1.0189    0.7486 H   0  0  0  0  0  0  0  0  0  0  0  0
   12.3118    0.2923    1.0256 H   0  0  0  0  0  0  0  0  0  0  0  0
   11.2266    1.0597    5.1431 H   0  0  0  0  0  0  0  0  0  0  0  0
    9.2143   -0.3178    4.7509 H   0  0  0  0  0  0  0  0  0  0  0  0
   13.9236    1.4057    2.7860 H   0  0  0  0  0  0  0  0  0  0  0  0
    2.3669    6.4869   -1.3099 H   0  0  0  0  0  0  0  0  0  0  0  0
    0.8546    6.3494   -2.2846 H   0  0  0  0  0  0  0  0  0  0  0  0
    4.3904    7.5174   -2.4237 H   0  0  0  0  0  0  0  0  0  0  0  0
    5.1216    9.1994   -4.1576 H   0  0  0  0  0  0  0  0  0  0  0  0
    1.3972    8.9051   -6.0904 H   0  0  0  0  0  0  0  0  0  0  0  0
    0.6162    7.3006   -4.4713 H   0  0  0  0  0  0  0  0  0  0  0  0
    3.5870    9.7790   -7.1413 H   0  0  0  0  0  0  0  0  0  0  0  0
  1  2  1  0
  2  3  1  0
  3  4  1  0
  4  5  2  0
  4  6  1  0
  6  7  1  0
  7  8  1  0
  8  9  1  0
  9 10  2  0
  9 11  1  0
 11 12  1  0
 12 13  1  0
 13 14  1  0
 14 15  2  0
 14 16  1  0
 16 17  2  0
 16 18  1  0
 18 19  1  0
 19 20  1  0
 20 21  2  0
 21 22  1  0
 22 23  2  0
 23 24  1  0
 24 25  2  0
 18 26  1  0
 26 27  1  0
 27 28  2  0
 27 29  1  0
 29 30  1  0
 29 31  1  0
 31 32  1  0
 32 33  2  0
 32 34  1  0
 34 35  1  0
 35 36  1  0
 36 37  2  0
 36 38  1  0
 38 39  1  0
 39 40  1  0
 40 41  2  0
 40 42  1  0
 42 43  1  0
 43 44  1  0
 44 45  2  0
 44 46  1  0
 46 47  1  0
 47 48  1  0
 48 49  2  0
 46 50  1  0
 50 51  1  0
 51 52  2  0
 52 53  1  0
 53 54  1  0
 54 55  2  0
 55 56  1  0
 56 57  2  0
 57 58  1  0
 58 59  2  0
 42 60  1  0
 60 61  1  0
 61 62  1  0
 62 63  1  0
 63 64  2  3
 64 65  1  0
 64 66  1  0
 38 67  1  0
 67 68  1  0
 68 69  2  0
 69 70  1  0
 70 71  2  0
 71 72  1  0
 72 73  2  0
 34 74  1  0
 74 75  1  0
 75 76  2  0
 75 77  1  0
 12 78  1  0
 78 79  2  0
 78 80  1  0
 80 81  1  0
 81 82  1  0
 82 83  1  0
 83 84  2  0
 83 85  1  0
 85 86  2  0
 85 87  1  0
 82 88  1  0
 88 89  1  0
 89 90  2  0
 90 91  1  0
 91 92  2  0
 92 93  1  0
 93 94  2  0
 92 95  1  0
  3 96  1  0
 96 97  1  0
 97 98  2  0
 98 99  1  0
 99100  2  0
100101  1  0
101102  2  0
100103  1  0
 48  7  1  0
 55 51  1  0
 73 68  1  0
 94 89  1  0
102 97  1  0
 25 20  1  0
 59 54  1  0
  1104  1  0
  1105  1  0
  2106  1  0
  3107  1  6
  6108  1  0
  7109  1  6
  8110  1  0
  8111  1  0
 11112  1  0
 12113  1  0
 13114  1  0
 18115  1  6
 19116  1  0
 19117  1  0
 21118  1  0
 22119  1  0
 23120  1  0
 24121  1  0
 25122  1  0
 26123  1  0
 29124  1  1
 30125  1  0
 30126  1  0
 30127  1  0
 31128  1  0
 34129  1  6
 35130  1  0
 38131  1  6
 39132  1  0
 42133  1  6
 43134  1  0
 46135  1  1
 47136  1  0
 50137  1  0
 50138  1  0
 52139  1  0
 53140  1  0
 56141  1  0
 57142  1  0
 58143  1  0
 59144  1  0
 60145  1  0
 60146  1  0
 61147  1  0
 61148  1  0
 62149  1  0
 62150  1  0
 65151  1  0
 65152  1  0
 66153  1  0
 66154  1  0
 67155  1  0
 67156  1  0
 69157  1  0
 70158  1  0
 71159  1  0
 72160  1  0
 73161  1  0
 74162  1  0
 74163  1  0
 77164  1  0
 77165  1  0
 80166  1  0
 81167  1  0
 82168  1  6
 87169  1  0
 88170  1  0
 88171  1  0
 90172  1  0
 91173  1  0
 93174  1  0
 94175  1  0
 95176  1  0
 96177  1  0
 96178  1  0
 98179  1  0
 99180  1  0
101181  1  0
102182  1  0
103183  1  0
M  END
>  <Ligand ID>  (1) 
LIG0002275

>  <Ligand>  (1) 
CID 44310258

>  <SMILES>  (1) 
NN[C@H](C(=O)N[C@H]1CC(=O)NC(NC(=O)C(=O)[C@@H](Cc2ccccc2)NC(=O)[C@H](C)NC(=O)[C@H](NC(=O)[C@H](NC(=O)[C@H](NC(=O)[C@@H](NC1=O)Cc1c[nH]c2c1cccc2)CCCN=C(N)N)Cc1ccccc1)CC(=O)N)C(=O)NN[C@@H](C(=O)C(=O)O)Cc1ccc(cc1)O)Cc1ccc(cc1)O

>  <CID>  (1) 
44310258.0

>  <ChEMBL ID>  (1) 
nan

>  <InChiKey>  (1) 
XEZOOYRFZJZPBS-UOCTVQLESA-N

>  <InChi>  (1) 
InChI=1S/C68H80N18O17/c1-35-58(93)77-46(27-36-11-4-2-5-12-36)55(91)65(100)83-57(66(101)86-85-47(56(92)67(102)103)28-38-18-22-41(87)23-19-38)82-54(90)33-51(81-64(99)52(84-72)30-39-20-24-42(88)25-21-39)63(98)79-49(31-40-34-74-44-16-9-8-15-43(40)44)62(97)76-45(17-10-26-73-68(70)71)59(94)78-48(29-37-13-6-3-7-14-37)61(96)80-50(32-53(69)89)60(95)75-35/h2-9,11-16,18-25,34-35,45-52,57,74,84-85,87-88H,10,17,26-33,72H2,1H3,(H2,69,89)(H,75,95)(H,76,97)(H,77,93)(H,78,94)(H,79,98)(H,80,96)(H,81,99)(H,82,90)(H,83,100)(H,86,101)(H,102,103)(H4,70,71,73)/t35-,45+,46+,47+,48+,49-,50+,51-,52-,57?/m0/s1

>  <IUPAC Name>  (1) 
(3R)-3-[2-[(6R,9S,12R,15R,18R,21S,24S)-12-(2-amino-2-oxoethyl)-6,15-dibenzyl-18-[3-(diaminomethylideneamino)propyl]-24-[[(2S)-2-hydrazinyl-3-(4-hydroxyphenyl)propanoyl]amino]-21-(1H-indol-3-ylmethyl)-9-methyl-4,5,8,11,14,17,20,23,26-nonaoxo-1,3,7,10,13,16,19,22-octazacyclohexacosane-2-carbonyl]hydrazinyl]-4-(4-hydroxyphenyl)-2-oxobutanoic acid

$$$$
