
     RDKit          3D

 59 64  0  0  0  0  0  0  0  0999 V2000
    3.9652   -3.2605   -0.1246 O   0  0  0  0  0  0  0  0  0  0  0  0
    4.5187   -2.1217    0.0237 C   0  0  0  0  0  0  0  0  0  0  0  0
    5.9658   -1.9595    0.1869 C   0  0  0  0  0  0  0  0  0  0  0  0
    6.1197   -0.4897    0.3179 C   0  0  0  0  0  0  0  0  0  0  0  0
    4.8853    0.1214    0.2391 C   0  0  0  0  0  0  0  0  0  0  0  0
    3.8543   -0.8401    0.0569 N   0  0  0  0  0  0  0  0  0  0  0  0
    2.4455   -0.6716   -0.0757 C   0  0  0  0  0  0  0  0  0  0  0  0
    2.0553    0.1080   -1.3105 C   0  0  0  0  0  0  0  0  0  0  0  0
    0.5906   -0.1790   -1.5574 C   0  0  0  0  0  0  0  0  0  0  0  0
   -0.1532   -0.4030   -0.3125 N   0  0  0  0  0  0  0  0  0  0  0  0
    0.4108    0.5680    0.6505 C   0  0  0  0  0  0  0  0  0  0  0  0
    1.7677    0.0058    1.0954 C   0  0  0  0  0  0  0  0  0  0  0  0
   -1.5032   -0.0325   -0.5794 C   0  0  0  0  0  0  0  0  0  0  0  0
   -2.0509   -0.5930   -1.8958 C   0  0  0  0  0  0  0  0  0  0  0  0
   -3.5192   -0.3214   -2.0780 C   0  0  0  0  0  0  0  0  0  0  0  0
   -3.9495    0.7195   -1.0644 C   0  0  2  0  0  0  0  0  0  0  0  0
   -3.7803    0.0341    0.2565 C   0  0  0  0  0  0  0  0  0  0  0  0
   -2.4646   -0.3926    0.5099 C   0  0  0  0  0  0  0  0  0  0  0  0
   -2.1292   -1.0623    1.6502 C   0  0  0  0  0  0  0  0  0  0  0  0
   -3.1719   -1.2985    2.5559 C   0  0  0  0  0  0  0  0  0  0  0  0
   -4.4615   -0.8790    2.3081 C   0  0  0  0  0  0  0  0  0  0  0  0
   -4.8043   -0.1923    1.1355 C   0  0  0  0  0  0  0  0  0  0  0  0
   -6.1688    0.2601    0.8560 C   0  0  0  0  0  0  0  0  0  0  0  0
   -6.1382    1.4501   -0.0925 C   0  0  0  0  0  0  0  0  0  0  0  0
   -5.4111    1.0044   -1.3415 C   0  0  0  0  0  0  0  0  0  0  0  0
    4.8565    1.4962    0.3439 C   0  0  0  0  0  0  0  0  0  0  0  0
    5.9936    2.2633    0.5208 C   0  0  0  0  0  0  0  0  0  0  0  0
    7.2288    1.6254    0.5976 C   0  0  0  0  0  0  0  0  0  0  0  0
    7.2896    0.2581    0.4966 C   0  0  0  0  0  0  0  0  0  0  0  0
    6.3542   -2.5261    1.0568 H   0  0  0  0  0  0  0  0  0  0  0  0
    6.4797   -2.3416   -0.7429 H   0  0  0  0  0  0  0  0  0  0  0  0
    1.9812   -1.6925   -0.2086 H   0  0  0  0  0  0  0  0  0  0  0  0
    2.2630    1.1916   -1.2432 H   0  0  0  0  0  0  0  0  0  0  0  0
    2.6031   -0.2397   -2.2121 H   0  0  0  0  0  0  0  0  0  0  0  0
    0.5345   -1.1319   -2.1212 H   0  0  0  0  0  0  0  0  0  0  0  0
    0.2175    0.6930   -2.1271 H   0  0  0  0  0  0  0  0  0  0  0  0
   -0.2064    0.6793    1.5358 H   0  0  0  0  0  0  0  0  0  0  0  0
    0.5264    1.5524    0.1713 H   0  0  0  0  0  0  0  0  0  0  0  0
    2.3617    0.7577    1.6037 H   0  0  0  0  0  0  0  0  0  0  0  0
    1.5217   -0.7853    1.8439 H   0  0  0  0  0  0  0  0  0  0  0  0
   -1.5242    1.0670   -0.6757 H   0  0  0  0  0  0  0  0  0  0  0  0
   -1.5272   -0.1381   -2.7622 H   0  0  0  0  0  0  0  0  0  0  0  0
   -1.9444   -1.7120   -1.9074 H   0  0  0  0  0  0  0  0  0  0  0  0
   -4.1405   -1.2246   -1.8426 H   0  0  0  0  0  0  0  0  0  0  0  0
   -3.7107    0.0187   -3.1180 H   0  0  0  0  0  0  0  0  0  0  0  0
   -3.3772    1.6411   -1.1606 H   0  0  0  0  0  0  0  0  0  0  0  0
   -1.1257   -1.4064    1.8439 H   0  0  0  0  0  0  0  0  0  0  0  0
   -2.9851   -1.8268    3.4904 H   0  0  0  0  0  0  0  0  0  0  0  0
   -5.2757   -1.0562    3.0023 H   0  0  0  0  0  0  0  0  0  0  0  0
   -6.7187   -0.5587    0.3108 H   0  0  0  0  0  0  0  0  0  0  0  0
   -6.7314    0.5599    1.7860 H   0  0  0  0  0  0  0  0  0  0  0  0
   -7.1353    1.7945   -0.3715 H   0  0  0  0  0  0  0  0  0  0  0  0
   -5.5296    2.2760    0.3608 H   0  0  0  0  0  0  0  0  0  0  0  0
   -5.4521    1.7306   -2.1682 H   0  0  0  0  0  0  0  0  0  0  0  0
   -5.8928    0.0722   -1.6985 H   0  0  0  0  0  0  0  0  0  0  0  0
    3.9087    2.0126    0.2864 H   0  0  0  0  0  0  0  0  0  0  0  0
    5.9048    3.3497    0.5969 H   0  0  0  0  0  0  0  0  0  0  0  0
    8.1142    2.2572    0.7380 H   0  0  0  0  0  0  0  0  0  0  0  0
    8.2648   -0.2311    0.5584 H   0  0  0  0  0  0  0  0  0  0  0  0
  1  2  2  0
  2  3  1  0
  3  4  1  0
  4  5  2  0
  5  6  1  0
  6  7  1  0
  7  8  1  0
  8  9  1  0
  9 10  1  0
 10 11  1  0
 11 12  1  0
 10 13  1  0
 13 14  1  0
 14 15  1  0
 15 16  1  0
 16 17  1  0
 17 18  2  0
 18 19  1  0
 19 20  2  0
 20 21  1  0
 21 22  2  0
 22 23  1  0
 23 24  1  0
 24 25  1  0
  5 26  1  0
 26 27  2  0
 27 28  1  0
 28 29  2  0
  6  2  1  0
 12  7  1  0
 18 13  1  0
 29  4  1  0
 25 16  1  0
 22 17  1  0
  3 30  1  0
  3 31  1  0
  7 32  1  0
  8 33  1  0
  8 34  1  0
  9 35  1  0
  9 36  1  0
 11 37  1  0
 11 38  1  0
 12 39  1  0
 12 40  1  0
 13 41  1  0
 14 42  1  0
 14 43  1  0
 15 44  1  0
 15 45  1  0
 16 46  1  1
 19 47  1  0
 20 48  1  0
 21 49  1  0
 23 50  1  0
 23 51  1  0
 24 52  1  0
 24 53  1  0
 25 54  1  0
 25 55  1  0
 26 56  1  0
 27 57  1  0
 28 58  1  0
 29 59  1  0
M  END
>  <Ligand ID>  (1) 
LIG0002896

>  <Ligand>  (1) 
CHEMBL2387193

>  <SMILES>  (1) 
O=C1Cc2c(N1C1CCN(CC1)C1CC[C@@H]3c4c1cccc4CCC3)cccc2

>  <CID>  (1) 
73350483.0

>  <ChEMBL ID>  (1) 
nan

>  <InChiKey>  (1) 
SZKWDIATUVLAAW-PHSANKKPSA-N

>  <InChi>  (1) 
InChI=1S/C26H30N2O/c29-25-17-20-5-1-2-10-23(20)28(25)21-13-15-27(16-14-21)24-12-11-19-7-3-6-18-8-4-9-22(24)26(18)19/h1-2,4-5,8-10,19,21,24H,3,6-7,11-17H2/t19-,24?/m1/s1

>  <IUPAC Name>  (1) 
1-[1-[(3aR)-2,3,3a,4,5,6-hexahydro-1H-phenalen-1-yl]piperidin-4-yl]-3H-indol-2-one

$$$$
