
     RDKit          3D

 58 62  0  0  0  0  0  0  0  0999 V2000
   -7.9355    2.7987    0.1729 Cl  0  0  0  0  0  0  0  0  0  0  0  0
   -6.4240    1.9237    0.0058 C   0  0  0  0  0  0  0  0  0  0  0  0
   -5.4095    2.4840   -0.7591 C   0  0  0  0  0  0  0  0  0  0  0  0
   -4.2166    1.8037   -0.8967 C   0  0  0  0  0  0  0  0  0  0  0  0
   -3.9596    0.5883   -0.3185 C   0  0  0  0  0  0  0  0  0  0  0  0
   -4.9969    0.0429    0.4479 C   0  0  0  0  0  0  0  0  0  0  0  0
   -6.2008    0.7019    0.6025 C   0  0  0  0  0  0  0  0  0  0  0  0
   -2.6821   -0.1502   -0.4608 C   0  0  0  0  0  0  0  0  0  0  0  0
   -1.6900    0.1842    0.5507 C   0  0  0  0  0  0  0  0  0  0  0  0
   -2.0325    0.0742    1.8822 C   0  0  0  0  0  0  0  0  0  0  0  0
   -1.0842    0.3801    2.8345 C   0  0  0  0  0  0  0  0  0  0  0  0
    0.1984    0.7939    2.4862 C   0  0  0  0  0  0  0  0  0  0  0  0
    0.5545    0.9088    1.1434 C   0  0  0  0  0  0  0  0  0  0  0  0
   -0.3910    0.6035    0.2224 C   0  0  0  0  0  0  0  0  0  0  0  0
    1.8494    1.3258    0.7934 C   0  0  0  0  0  0  0  0  0  0  0  0
    2.2272    1.4766   -0.5485 N   0  0  0  0  0  0  0  0  0  0  0  0
    3.4982    1.8623   -1.0760 C   0  0  0  0  0  0  0  0  0  0  0  0
    4.5506    0.8471   -1.0127 C   0  0  0  0  0  0  0  0  0  0  0  0
    4.5369   -0.1161   -2.0298 C   0  0  0  0  0  0  0  0  0  0  0  0
    5.4498   -1.0906   -2.1162 N   0  0  0  0  0  0  0  0  0  0  0  0
    6.4339   -1.1869   -1.2155 C   0  0  0  0  0  0  0  0  0  0  0  0
    6.4881   -0.2652   -0.2010 C   0  0  0  0  0  0  0  0  0  0  0  0
    5.5505    0.7442   -0.1040 C   0  0  0  0  0  0  0  0  0  0  0  0
    7.5791   -0.3563    0.8137 C   0  0  0  0  0  0  0  0  0  0  0  0
    7.1099   -1.2021    1.8076 F   0  0  0  0  0  0  0  0  0  0  0  0
    8.6487   -0.9951    0.2137 F   0  0  0  0  0  0  0  0  0  0  0  0
    7.9024    0.8965    1.2963 F   0  0  0  0  0  0  0  0  0  0  0  0
    2.6730    1.5913    1.8750 C   0  0  0  0  0  0  0  0  0  0  0  0
    2.2716    1.4614    3.1870 C   0  0  0  0  0  0  0  0  0  0  0  0
    3.0721    1.7187    4.1179 O   0  0  0  0  0  0  0  0  0  0  0  0
    1.0293    1.0611    3.4909 N   0  0  0  0  0  0  0  0  0  0  0  0
   -2.9741   -1.5780   -0.6643 C   0  0  0  0  0  0  0  0  0  0  0  0
   -3.3870   -1.9893   -1.9368 C   0  0  0  0  0  0  0  0  0  0  0  0
   -3.6702   -3.3288   -2.1895 C   0  0  0  0  0  0  0  0  0  0  0  0
   -3.5646   -4.2974   -1.2338 C   0  0  0  0  0  0  0  0  0  0  0  0
   -3.1540   -3.8969    0.0363 C   0  0  0  0  0  0  0  0  0  0  0  0
   -2.8726   -2.5612    0.2840 C   0  0  0  0  0  0  0  0  0  0  0  0
   -3.9069   -5.9823   -1.4998 Cl  0  0  0  0  0  0  0  0  0  0  0  0
   -5.5946    3.4446   -1.2239 H   0  0  0  0  0  0  0  0  0  0  0  0
   -3.4482    2.2506   -1.4888 H   0  0  0  0  0  0  0  0  0  0  0  0
   -4.9011   -0.9106    0.9477 H   0  0  0  0  0  0  0  0  0  0  0  0
   -7.0039    0.2819    1.1946 H   0  0  0  0  0  0  0  0  0  0  0  0
   -2.2674    0.2588   -1.4424 H   0  0  0  0  0  0  0  0  0  0  0  0
   -3.0002   -0.2279    2.2413 H   0  0  0  0  0  0  0  0  0  0  0  0
   -1.3500    0.2943    3.8873 H   0  0  0  0  0  0  0  0  0  0  0  0
   -0.2055    0.6614   -0.8389 H   0  0  0  0  0  0  0  0  0  0  0  0
    1.4816    1.2835   -1.2821 H   0  0  0  0  0  0  0  0  0  0  0  0
    3.4077    2.2049   -2.1278 H   0  0  0  0  0  0  0  0  0  0  0  0
    3.8424    2.7585   -0.4724 H   0  0  0  0  0  0  0  0  0  0  0  0
    3.7672   -0.1040   -2.8002 H   0  0  0  0  0  0  0  0  0  0  0  0
    7.1948   -1.9600   -1.2462 H   0  0  0  0  0  0  0  0  0  0  0  0
    5.6496    1.4340    0.6891 H   0  0  0  0  0  0  0  0  0  0  0  0
    3.6663    1.9280    1.7054 H   0  0  0  0  0  0  0  0  0  0  0  0
    0.7758    0.9790    4.4972 H   0  0  0  0  0  0  0  0  0  0  0  0
   -3.4833   -1.2368   -2.7317 H   0  0  0  0  0  0  0  0  0  0  0  0
   -3.9951   -3.6588   -3.1869 H   0  0  0  0  0  0  0  0  0  0  0  0
   -3.0514   -4.6341    0.8452 H   0  0  0  0  0  0  0  0  0  0  0  0
   -2.5561   -2.3234    1.2855 H   0  0  0  0  0  0  0  0  0  0  0  0
  1  2  1  0
  2  3  2  0
  3  4  1  0
  4  5  2  0
  5  6  1  0
  6  7  2  0
  5  8  1  0
  8  9  1  0
  9 10  2  0
 10 11  1  0
 11 12  2  0
 12 13  1  0
 13 14  2  0
 13 15  1  0
 15 16  1  0
 16 17  1  0
 17 18  1  0
 18 19  2  0
 19 20  1  0
 20 21  2  0
 21 22  1  0
 22 23  2  0
 22 24  1  0
 24 25  1  0
 24 26  1  0
 24 27  1  0
 15 28  2  0
 28 29  1  0
 29 30  2  0
 29 31  1  0
  8 32  1  0
 32 33  2  0
 33 34  1  0
 34 35  2  0
 35 36  1  0
 36 37  2  0
 35 38  1  0
  7  2  1  0
 14  9  1  0
 23 18  1  0
 37 32  1  0
 31 12  1  0
  3 39  1  0
  4 40  1  0
  6 41  1  0
  7 42  1  0
  8 43  1  0
 10 44  1  0
 11 45  1  0
 14 46  1  0
 16 47  1  0
 17 48  1  0
 17 49  1  0
 19 50  1  0
 21 51  1  0
 23 52  1  0
 28 53  1  0
 31 54  1  0
 33 55  1  0
 34 56  1  0
 36 57  1  0
 37 58  1  0
M  END
>  <Ligand ID>  (1) 
LIG0005900

>  <Ligand>  (1) 
CHEMBL3915356

>  <SMILES>  (1) 
Clc1ccc(cc1)C(c1ccc2c(c1)c(NCc1cncc(c1)C(F)(F)F)cc(=O)[nH]2)c1ccc(cc1)Cl

>  <CID>  (1) 
118329981.0

>  <ChEMBL ID>  (1) 
nan

>  <InChiKey>  (1) 
ABBJWXXPWGRDKF-UHFFFAOYSA-N

>  <InChi>  (1) 
InChI=1S/C29H20Cl2F3N3O/c30-22-6-1-18(2-7-22)28(19-3-8-23(31)9-4-19)20-5-10-25-24(12-20)26(13-27(38)37-25)36-15-17-11-21(16-35-14-17)29(32,33)34/h1-14,16,28H,15H2,(H2,36,37,38)

>  <IUPAC Name>  (1) 
6-[bis(4-chlorophenyl)methyl]-4-[[5-(trifluoromethyl)pyridin-3-yl]methylamino]-1H-quinolin-2-one

$$$$
