
     RDKit          3D

 60 61  0  0  0  0  0  0  0  0999 V2000
   -8.3712   -1.0068    1.4884 C   0  0  0  0  0  0  0  0  0  0  0  0
   -7.6361   -1.4620    0.2691 C   0  0  0  0  0  0  0  0  0  0  0  0
   -7.3084   -0.3428   -0.6739 C   0  0  0  0  0  0  0  0  0  0  0  0
   -6.4445    0.7215   -0.0645 C   0  0  0  0  0  0  0  0  0  0  0  0
   -5.1132    0.1733    0.4085 C   0  0  0  0  0  0  0  0  0  0  0  0
   -4.3162   -0.4324   -0.6882 C   0  0  0  0  0  0  0  0  0  0  0  0
   -3.9377    0.4350   -1.8211 C   0  0  0  0  0  0  0  0  0  0  0  0
   -3.0921    1.6188   -1.5385 C   0  0  0  0  0  0  0  0  0  0  0  0
   -1.7634    1.3149   -0.9610 C   0  0  0  0  0  0  0  0  0  0  0  0
   -1.4947    1.2426    0.3839 C   0  0  0  0  0  0  0  0  0  0  0  0
   -0.2201    0.9476    0.8612 C   0  0  0  0  0  0  0  0  0  0  0  0
    0.8091    0.7199   -0.0329 C   0  0  0  0  0  0  0  0  0  0  0  0
    0.5592    0.7883   -1.3980 C   0  0  0  0  0  0  0  0  0  0  0  0
   -0.7199    1.0840   -1.8469 C   0  0  0  0  0  0  0  0  0  0  0  0
    2.1715    0.4053    0.3940 C   0  0  0  0  0  0  0  0  0  0  0  0
    2.6050    0.2956    1.7091 C   0  0  0  0  0  0  0  0  0  0  0  0
    3.9353   -0.0080    1.6885 N   0  0  0  0  0  0  0  0  0  0  0  0
    4.3298   -0.0877    0.4206 C   0  0  0  0  0  0  0  0  0  0  0  0
    3.2550    0.1641   -0.3634 N   0  0  0  0  0  0  0  0  0  0  0  0
    5.6685   -0.3887   -0.1595 C   0  0  0  0  0  0  0  0  0  0  0  0
    6.6613   -0.6247    0.9850 C   0  0  0  0  0  0  0  0  0  0  0  0
    7.8979   -0.7854    0.3642 O   0  0  0  0  0  0  0  0  0  0  0  0
    9.0436   -1.0519    1.5909 P   0  0  0  0  0  0  0  0  0  0  0  0
    8.4403   -2.2353    2.6628 S   0  0  0  0  0  0  0  0  0  0  0  0
    9.2275    0.4514    2.3761 O   0  0  0  0  0  0  0  0  0  0  0  0
   10.5217   -1.4714    0.8909 O   0  0  0  0  0  0  0  0  0  0  0  0
    5.6676   -1.5136   -1.0433 N   0  0  0  0  0  0  0  0  0  0  0  0
    6.2126    0.8174   -0.9287 C   0  0  0  0  0  0  0  0  0  0  0  0
   -8.9245   -0.0581    1.2307 H   0  0  0  0  0  0  0  0  0  0  0  0
   -7.6598   -0.8134    2.3170 H   0  0  0  0  0  0  0  0  0  0  0  0
   -9.0857   -1.7995    1.7888 H   0  0  0  0  0  0  0  0  0  0  0  0
   -8.3202   -2.1496   -0.3044 H   0  0  0  0  0  0  0  0  0  0  0  0
   -6.7762   -2.0907    0.5546 H   0  0  0  0  0  0  0  0  0  0  0  0
   -8.2700    0.1343   -0.9485 H   0  0  0  0  0  0  0  0  0  0  0  0
   -6.8757   -0.7750   -1.5979 H   0  0  0  0  0  0  0  0  0  0  0  0
   -6.2151    1.4543   -0.8686 H   0  0  0  0  0  0  0  0  0  0  0  0
   -6.9985    1.2337    0.7188 H   0  0  0  0  0  0  0  0  0  0  0  0
   -5.3946   -0.6797    1.0903 H   0  0  0  0  0  0  0  0  0  0  0  0
   -4.5845    0.8774    1.0719 H   0  0  0  0  0  0  0  0  0  0  0  0
   -3.4260   -0.9142   -0.2256 H   0  0  0  0  0  0  0  0  0  0  0  0
   -4.9168   -1.2967   -1.0782 H   0  0  0  0  0  0  0  0  0  0  0  0
   -3.4071   -0.2318   -2.5638 H   0  0  0  0  0  0  0  0  0  0  0  0
   -4.8595    0.7453   -2.3792 H   0  0  0  0  0  0  0  0  0  0  0  0
   -3.5495    2.3633   -0.8713 H   0  0  0  0  0  0  0  0  0  0  0  0
   -2.9318    2.1784   -2.5056 H   0  0  0  0  0  0  0  0  0  0  0  0
   -2.2811    1.4194    1.1005 H   0  0  0  0  0  0  0  0  0  0  0  0
   -0.0130    0.8917    1.9069 H   0  0  0  0  0  0  0  0  0  0  0  0
    1.3494    0.6139   -2.1267 H   0  0  0  0  0  0  0  0  0  0  0  0
   -0.8688    1.1268   -2.9196 H   0  0  0  0  0  0  0  0  0  0  0  0
    1.9990    0.4268    2.5956 H   0  0  0  0  0  0  0  0  0  0  0  0
    3.2337    0.1775   -1.4132 H   0  0  0  0  0  0  0  0  0  0  0  0
    6.3745   -1.4920    1.6029 H   0  0  0  0  0  0  0  0  0  0  0  0
    6.6815    0.2580    1.6553 H   0  0  0  0  0  0  0  0  0  0  0  0
    9.0542    0.3205    3.3497 H   0  0  0  0  0  0  0  0  0  0  0  0
   10.5189   -1.3755   -0.0991 H   0  0  0  0  0  0  0  0  0  0  0  0
    5.0890   -2.3126   -0.7088 H   0  0  0  0  0  0  0  0  0  0  0  0
    5.5334   -1.2887   -2.0463 H   0  0  0  0  0  0  0  0  0  0  0  0
    6.9021    0.5092   -1.7311 H   0  0  0  0  0  0  0  0  0  0  0  0
    5.3416    1.3436   -1.3602 H   0  0  0  0  0  0  0  0  0  0  0  0
    6.6926    1.5227   -0.2082 H   0  0  0  0  0  0  0  0  0  0  0  0
  1  2  1  0
  2  3  1  0
  3  4  1  0
  4  5  1  0
  5  6  1  0
  6  7  1  0
  7  8  1  0
  8  9  1  0
  9 10  2  0
 10 11  1  0
 11 12  2  0
 12 13  1  0
 13 14  2  0
 12 15  1  0
 15 16  2  0
 16 17  1  0
 17 18  2  0
 18 19  1  0
 18 20  1  0
 20 21  1  0
 21 22  1  0
 22 23  1  0
 23 24  2  0
 23 25  1  0
 23 26  1  0
 20 27  1  0
 20 28  1  0
 14  9  1  0
 19 15  1  0
  1 29  1  0
  1 30  1  0
  1 31  1  0
  2 32  1  0
  2 33  1  0
  3 34  1  0
  3 35  1  0
  4 36  1  0
  4 37  1  0
  5 38  1  0
  5 39  1  0
  6 40  1  0
  6 41  1  0
  7 42  1  0
  7 43  1  0
  8 44  1  0
  8 45  1  0
 10 46  1  0
 11 47  1  0
 13 48  1  0
 14 49  1  0
 16 50  1  0
 19 51  1  0
 21 52  1  0
 21 53  1  0
 25 54  1  0
 26 55  1  0
 27 56  1  0
 27 57  1  0
 28 58  1  0
 28 59  1  0
 28 60  1  0
M  END
>  <Ligand ID>  (1) 
LIG0004245

>  <Ligand>  (1) 
CHEMBL364950

>  <SMILES>  (1) 
CCCCCCCCc1ccc(cc1)c1cnc([nH]1)C(COP(=S)(O)O)(N)C

>  <CID>  (1) 
44398012.0

>  <ChEMBL ID>  (1) 
nan

>  <InChiKey>  (1) 
BMWHKUCAPSSVAZ-UHFFFAOYSA-N

>  <InChi>  (1) 
InChI=1S/C20H32N3O3PS/c1-3-4-5-6-7-8-9-16-10-12-17(13-11-16)18-14-22-19(23-18)20(2,21)15-26-27(24,25)28/h10-14H,3-9,15,21H2,1-2H3,(H,22,23)(H2,24,25,28)

>  <IUPAC Name>  (1) 
1-dihydroxyphosphinothioyloxy-2-[5-(4-octylphenyl)-1H-imidazol-2-yl]propan-2-amine

$$$$
