
     RDKit          3D

 99102  0  0  0  0  0  0  0  0999 V2000
    5.8038    4.3736   -3.7117 N   0  0  0  0  0  0  0  0  0  0  0  0
    5.3574    3.8804   -2.4397 C   0  0  0  0  0  0  0  0  0  0  0  0
    4.2900    4.3814   -1.9170 N   0  0  0  0  0  0  0  0  0  0  0  0
    3.7518    3.9549   -0.6357 C   0  0  0  0  0  0  0  0  0  0  0  0
    2.3319    4.4424   -0.5324 C   0  0  0  0  0  0  0  0  0  0  0  0
    1.3893    3.9257   -1.5495 C   0  0  0  0  0  0  0  0  0  0  0  0
    1.1410    2.4666   -1.5938 C   0  0  1  0  0  0  0  0  0  0  0  0
    2.2630    1.5814   -1.8508 C   0  0  0  0  0  0  0  0  0  0  0  0
    3.0368    1.6735   -2.8386 O   0  0  0  0  0  0  0  0  0  0  0  0
    2.5444    0.5042   -0.9328 N   0  0  0  0  0  0  0  0  0  0  0  0
    3.6937   -0.4029   -1.2045 C   0  0  2  0  0  0  0  0  0  0  0  0
    3.0869   -1.7259   -1.3713 C   0  0  0  0  0  0  0  0  0  0  0  0
    1.8357   -1.8176   -1.1048 O   0  0  0  0  0  0  0  0  0  0  0  0
    3.7209   -2.8989   -1.7942 N   0  0  0  0  0  0  0  0  0  0  0  0
    4.6339   -0.3090   -0.0562 C   0  0  0  0  0  0  0  0  0  0  0  0
    5.8460   -1.1144   -0.0721 C   0  0  0  0  0  0  0  0  0  0  0  0
    7.0694   -0.6298   -0.5670 C   0  0  0  0  0  0  0  0  0  0  0  0
    8.0002   -1.5923   -0.4911 N   0  0  0  0  0  0  0  0  0  0  0  0
    7.4530   -2.6876    0.0296 C   0  0  0  0  0  0  0  0  0  0  0  0
    6.1256   -2.4078    0.2931 C   0  0  0  0  0  0  0  0  0  0  0  0
    5.3537   -3.3978    0.8575 C   0  0  0  0  0  0  0  0  0  0  0  0
    5.9252   -4.6139    1.1336 C   0  0  0  0  0  0  0  0  0  0  0  0
    7.2513   -4.9061    0.8741 C   0  0  0  0  0  0  0  0  0  0  0  0
    8.0227   -3.9116    0.3088 C   0  0  0  0  0  0  0  0  0  0  0  0
    0.4098    2.0856   -0.3660 N   0  0  0  0  0  0  0  0  0  0  0  0
   -0.8952    1.5774   -0.4069 C   0  0  0  0  0  0  0  0  0  0  0  0
   -1.4799    1.4313   -1.5202 O   0  0  0  0  0  0  0  0  0  0  0  0
   -1.6004    1.2069    0.8713 C   0  0  1  0  0  0  0  0  0  0  0  0
   -2.9012    0.6896    0.5224 N   0  0  0  0  0  0  0  0  0  0  0  0
   -4.1237    1.3672    0.7620 C   0  0  0  0  0  0  0  0  0  0  0  0
   -4.1577    2.4966    1.3077 O   0  0  0  0  0  0  0  0  0  0  0  0
   -5.4267    0.6943    0.3410 C   0  0  1  0  0  0  0  0  0  0  0  0
   -5.1202   -0.6006   -0.2253 N   0  0  0  0  0  0  0  0  0  0  0  0
   -5.1953   -0.9140   -1.6031 C   0  0  0  0  0  0  0  0  0  0  0  0
   -5.5390   -0.1003   -2.4978 O   0  0  0  0  0  0  0  0  0  0  0  0
   -4.8393   -2.3089   -2.0004 C   0  0  0  0  0  0  0  0  0  0  0  0
   -4.9962   -2.4190   -3.4960 C   0  0  0  0  0  0  0  0  0  0  0  0
   -5.8088   -3.3029   -1.3694 C   0  0  0  0  0  0  0  0  0  0  0  0
   -6.3350    0.6590    1.5280 C   0  0  0  0  0  0  0  0  0  0  0  0
   -7.6515    0.0595    1.3236 C   0  0  0  0  0  0  0  0  0  0  0  0
   -8.5631   -0.0350    2.3468 N   0  0  0  0  0  0  0  0  0  0  0  0
   -9.6663   -0.6161    1.8655 C   0  0  0  0  0  0  0  0  0  0  0  0
   -9.5255   -0.9094    0.5728 N   0  0  0  0  0  0  0  0  0  0  0  0
   -8.2813   -0.4883    0.2516 C   0  0  0  0  0  0  0  0  0  0  0  0
   -0.8405    0.2246    1.7004 C   0  0  0  0  0  0  0  0  0  0  0  0
   -1.6563   -0.0510    2.9369 C   0  0  0  0  0  0  0  0  0  0  0  0
   -1.4688    0.7413    4.0679 C   0  0  0  0  0  0  0  0  0  0  0  0
   -2.1933    0.5294    5.2274 C   0  0  0  0  0  0  0  0  0  0  0  0
   -3.1234   -0.4918    5.2642 C   0  0  0  0  0  0  0  0  0  0  0  0
   -3.3270   -1.2982    4.1419 C   0  0  0  0  0  0  0  0  0  0  0  0
   -2.5855   -1.0656    2.9843 C   0  0  0  0  0  0  0  0  0  0  0  0
    6.0965    2.8553   -1.7854 N   0  0  0  0  0  0  0  0  0  0  0  0
    5.6530    3.7850   -4.5673 H   0  0  0  0  0  0  0  0  0  0  0  0
    6.2590    5.3028   -3.7078 H   0  0  0  0  0  0  0  0  0  0  0  0
    4.3227    4.5615    0.1324 H   0  0  0  0  0  0  0  0  0  0  0  0
    3.8836    2.8880   -0.4796 H   0  0  0  0  0  0  0  0  0  0  0  0
    1.9486    4.3766    0.5121 H   0  0  0  0  0  0  0  0  0  0  0  0
    2.4016    5.5606   -0.7047 H   0  0  0  0  0  0  0  0  0  0  0  0
    1.7803    4.2798   -2.5527 H   0  0  0  0  0  0  0  0  0  0  0  0
    0.4190    4.4570   -1.4353 H   0  0  0  0  0  0  0  0  0  0  0  0
    0.4073    2.3021   -2.4431 H   0  0  0  0  0  0  0  0  0  0  0  0
    1.9838    0.3252   -0.0855 H   0  0  0  0  0  0  0  0  0  0  0  0
    4.1917   -0.0632   -2.1556 H   0  0  0  0  0  0  0  0  0  0  0  0
    3.4083   -3.8428   -1.5183 H   0  0  0  0  0  0  0  0  0  0  0  0
    4.5639   -2.8281   -2.4280 H   0  0  0  0  0  0  0  0  0  0  0  0
    4.8566    0.7846    0.0953 H   0  0  0  0  0  0  0  0  0  0  0  0
    4.0019   -0.5445    0.8646 H   0  0  0  0  0  0  0  0  0  0  0  0
    7.2589    0.3620   -0.9566 H   0  0  0  0  0  0  0  0  0  0  0  0
    8.9927   -1.4802   -0.7955 H   0  0  0  0  0  0  0  0  0  0  0  0
    4.3180   -3.1463    1.0515 H   0  0  0  0  0  0  0  0  0  0  0  0
    5.3284   -5.3944    1.5756 H   0  0  0  0  0  0  0  0  0  0  0  0
    7.7071   -5.8574    1.0888 H   0  0  0  0  0  0  0  0  0  0  0  0
    9.0798   -4.0866    0.0804 H   0  0  0  0  0  0  0  0  0  0  0  0
    0.8947    2.2044    0.5556 H   0  0  0  0  0  0  0  0  0  0  0  0
   -1.6922    2.1931    1.4161 H   0  0  0  0  0  0  0  0  0  0  0  0
   -2.9313   -0.2470    0.0636 H   0  0  0  0  0  0  0  0  0  0  0  0
   -5.8440    1.3748   -0.4171 H   0  0  0  0  0  0  0  0  0  0  0  0
   -4.8229   -1.3423    0.4647 H   0  0  0  0  0  0  0  0  0  0  0  0
   -3.7867   -2.5569   -1.7372 H   0  0  0  0  0  0  0  0  0  0  0  0
   -4.2400   -3.0930   -3.9506 H   0  0  0  0  0  0  0  0  0  0  0  0
   -4.9492   -1.4563   -4.0089 H   0  0  0  0  0  0  0  0  0  0  0  0
   -5.9855   -2.8915   -3.7667 H   0  0  0  0  0  0  0  0  0  0  0  0
   -5.6573   -4.2714   -1.8917 H   0  0  0  0  0  0  0  0  0  0  0  0
   -5.6186   -3.3959   -0.2773 H   0  0  0  0  0  0  0  0  0  0  0  0
   -6.8261   -2.9793   -1.6191 H   0  0  0  0  0  0  0  0  0  0  0  0
   -5.8319    0.2571    2.4426 H   0  0  0  0  0  0  0  0  0  0  0  0
   -6.5261    1.7414    1.7958 H   0  0  0  0  0  0  0  0  0  0  0  0
   -8.4342    0.2873    3.3356 H   0  0  0  0  0  0  0  0  0  0  0  0
  -10.5455   -0.8144    2.4580 H   0  0  0  0  0  0  0  0  0  0  0  0
   -7.8775   -0.5852   -0.7276 H   0  0  0  0  0  0  0  0  0  0  0  0
    0.1786    0.5259    1.9409 H   0  0  0  0  0  0  0  0  0  0  0  0
   -0.8047   -0.7572    1.1780 H   0  0  0  0  0  0  0  0  0  0  0  0
   -0.7537    1.5493    4.0863 H   0  0  0  0  0  0  0  0  0  0  0  0
   -2.0518    1.1491    6.1157 H   0  0  0  0  0  0  0  0  0  0  0  0
   -3.6819   -0.6456    6.1803 H   0  0  0  0  0  0  0  0  0  0  0  0
   -4.0623   -2.0863    4.2083 H   0  0  0  0  0  0  0  0  0  0  0  0
   -2.7464   -1.6949    2.1121 H   0  0  0  0  0  0  0  0  0  0  0  0
    6.7483    2.2591   -2.3473 H   0  0  0  0  0  0  0  0  0  0  0  0
    5.9494    2.7485   -0.7591 H   0  0  0  0  0  0  0  0  0  0  0  0
  1  2  1  0
  2  3  2  3
  3  4  1  0
  4  5  1  0
  5  6  1  0
  6  7  1  0
  7  8  1  0
  8  9  2  0
  8 10  1  0
 10 11  1  0
 11 12  1  0
 12 13  2  0
 12 14  1  0
 11 15  1  0
 15 16  1  0
 16 17  2  0
 17 18  1  0
 18 19  1  0
 19 20  2  0
 20 21  1  0
 21 22  2  0
 22 23  1  0
 23 24  2  0
  7 25  1  0
 25 26  1  0
 26 27  2  0
 26 28  1  0
 28 29  1  0
 29 30  1  0
 30 31  2  0
 30 32  1  0
 32 33  1  0
 33 34  1  0
 34 35  2  0
 34 36  1  0
 36 37  1  0
 36 38  1  0
 32 39  1  0
 39 40  1  0
 40 41  1  0
 41 42  1  0
 42 43  2  0
 43 44  1  0
 28 45  1  0
 45 46  1  0
 46 47  2  0
 47 48  1  0
 48 49  2  0
 49 50  1  0
 50 51  2  0
  2 52  1  0
 20 16  1  0
 44 40  2  0
 51 46  1  0
 24 19  1  0
  1 53  1  0
  1 54  1  0
  4 55  1  0
  4 56  1  0
  5 57  1  0
  5 58  1  0
  6 59  1  0
  6 60  1  0
  7 61  1  6
 10 62  1  0
 11 63  1  6
 14 64  1  0
 14 65  1  0
 15 66  1  0
 15 67  1  0
 17 68  1  0
 18 69  1  0
 21 70  1  0
 22 71  1  0
 23 72  1  0
 24 73  1  0
 25 74  1  0
 28 75  1  1
 29 76  1  0
 32 77  1  6
 33 78  1  0
 36 79  1  0
 37 80  1  0
 37 81  1  0
 37 82  1  0
 38 83  1  0
 38 84  1  0
 38 85  1  0
 39 86  1  0
 39 87  1  0
 41 88  1  0
 42 89  1  0
 44 90  1  0
 45 91  1  0
 45 92  1  0
 47 93  1  0
 48 94  1  0
 49 95  1  0
 50 96  1  0
 51 97  1  0
 52 98  1  0
 52 99  1  0
M  END
>  <Ligand ID>  (1) 
LIG0003420

>  <Ligand>  (1) 
CHEMBL313377

>  <SMILES>  (1) 
NC(=NCCC[C@@H](C(=O)N[C@H](C(=O)N)Cc1c[nH]c2c1cccc2)NC(=O)[C@@H](NC(=O)[C@@H](NC(=O)C(C)C)Cc1[nH]cnc1)Cc1ccccc1)N

>  <CID>  (1) 
44322986.0

>  <ChEMBL ID>  (1) 
nan

>  <InChiKey>  (1) 
LWRUHFMBKCOVAZ-KRCBVYEFSA-N

>  <InChi>  (1) 
InChI=1S/C36H47N11O5/c1-21(2)32(49)46-30(17-24-19-40-20-43-24)35(52)47-29(15-22-9-4-3-5-10-22)34(51)44-27(13-8-14-41-36(38)39)33(50)45-28(31(37)48)16-23-18-42-26-12-7-6-11-25(23)26/h3-7,9-12,18-21,27-30,42H,8,13-17H2,1-2H3,(H2,37,48)(H,40,43)(H,44,51)(H,45,50)(H,46,49)(H,47,52)(H4,38,39,41)/t27-,28-,29-,30-/m0/s1

>  <IUPAC Name>  (1) 
(2S)-N-[(2S)-1-amino-3-(1H-indol-3-yl)-1-oxopropan-2-yl]-5-(diaminomethylideneamino)-2-[[(2S)-2-[[(2S)-3-(1H-imidazol-5-yl)-2-(2-methylpropanoylamino)propanoyl]amino]-3-phenylpropanoyl]amino]pentanamide

$$$$
