
     RDKit          3D

 23 22  0  0  0  0  0  0  0  0999 V2000
   -2.8617    0.8200   -0.0827 C   0  0  0  0  0  0  0  0  0  0  0  0
   -1.4309    0.6007    0.3561 C   0  0  0  0  0  0  0  0  0  0  0  0
   -0.8424   -0.6576   -0.1998 C   0  0  0  0  0  0  0  0  0  0  0  0
    0.5852   -0.7944    0.2898 C   0  0  0  0  0  0  0  0  0  0  0  0
    1.3764    0.3194   -0.1368 O   0  0  0  0  0  0  0  0  0  0  0  0
    2.7088    0.4063    0.1942 C   0  0  0  0  0  0  0  0  0  0  0  0
    3.1813   -0.5535    0.8927 O   0  0  0  0  0  0  0  0  0  0  0  0
    3.6061    1.5098   -0.1960 C   0  0  0  0  0  0  0  0  0  0  0  0
   -1.5604   -1.8976    0.3438 C   0  0  0  0  0  0  0  0  0  0  0  0
   -3.5136   -0.0003    0.2835 H   0  0  0  0  0  0  0  0  0  0  0  0
   -3.2181    1.7329    0.4403 H   0  0  0  0  0  0  0  0  0  0  0  0
   -2.9700    0.9782   -1.1759 H   0  0  0  0  0  0  0  0  0  0  0  0
   -0.8254    1.4459    0.0255 H   0  0  0  0  0  0  0  0  0  0  0  0
   -1.4675    0.5064    1.4656 H   0  0  0  0  0  0  0  0  0  0  0  0
   -0.8493   -0.6615   -1.3112 H   0  0  0  0  0  0  0  0  0  0  0  0
    1.0271   -1.7443   -0.0722 H   0  0  0  0  0  0  0  0  0  0  0  0
    0.5573   -0.8752    1.3927 H   0  0  0  0  0  0  0  0  0  0  0  0
    4.5173    1.0702   -0.6493 H   0  0  0  0  0  0  0  0  0  0  0  0
    3.8973    2.1372    0.6898 H   0  0  0  0  0  0  0  0  0  0  0  0
    3.0701    2.1910   -0.8920 H   0  0  0  0  0  0  0  0  0  0  0  0
   -2.5680   -1.9993   -0.0600 H   0  0  0  0  0  0  0  0  0  0  0  0
   -0.8919   -2.7481    0.0909 H   0  0  0  0  0  0  0  0  0  0  0  0
   -1.5276   -1.7863    1.4607 H   0  0  0  0  0  0  0  0  0  0  0  0
  1  2  1  0
  2  3  1  0
  3  4  1  0
  4  5  1  0
  5  6  1  0
  6  7  2  0
  6  8  1  0
  3  9  1  0
  1 10  1  0
  1 11  1  0
  1 12  1  0
  2 13  1  0
  2 14  1  0
  3 15  1  0
  4 16  1  0
  4 17  1  0
  8 18  1  0
  8 19  1  0
  8 20  1  0
  9 21  1  0
  9 22  1  0
  9 23  1  0
M  END
>  <Ligand ID>  (1) 
LIG0002063

>  <Ligand>  (1) 
2-methylbutyl acetate

>  <SMILES>  (1) 
CCC(COC(=O)C)C

>  <CID>  (1) 
12209.0

>  <ChEMBL ID>  (1) 
nan

>  <InChiKey>  (1) 
XHIUFYZDQBSEMF-UHFFFAOYSA-N

>  <InChi>  (1) 
InChI=1S/C7H14O2/c1-4-6(2)5-9-7(3)8/h6H,4-5H2,1-3H3

>  <IUPAC Name>  (1) 
2-methylbutyl acetate

$$$$
