
     RDKit          3D

 96 99  0  0  0  0  0  0  0  0999 V2000
   -0.5572    2.0692   -0.8933 O   0  0  0  0  0  0  0  0  0  0  0  0
   -0.6915    0.9036   -0.4445 C   0  0  0  0  0  0  0  0  0  0  0  0
    0.4787    0.1808   -0.0219 N   0  0  0  0  0  0  0  0  0  0  0  0
    1.7892    0.8497   -0.1543 C   0  0  2  0  0  0  0  0  0  0  0  0
    2.7867   -0.0979   -0.6072 C   0  0  0  0  0  0  0  0  0  0  0  0
    2.4064   -1.3180   -0.7573 O   0  0  0  0  0  0  0  0  0  0  0  0
    4.1370    0.2131   -0.8983 N   0  0  0  0  0  0  0  0  0  0  0  0
    5.1377   -0.7106   -1.3583 C   0  0  2  0  0  0  0  0  0  0  0  0
    4.6706   -1.5682   -2.4700 C   0  0  0  0  0  0  0  0  0  0  0  0
    5.4483   -2.4830   -2.9085 O   0  0  0  0  0  0  0  0  0  0  0  0
    3.4165   -1.4727   -3.1152 N   0  0  0  0  0  0  0  0  0  0  0  0
    5.7129   -1.4953   -0.2120 C   0  0  0  0  0  0  0  0  0  0  0  0
    6.7496   -2.4745   -0.6163 C   0  0  0  0  0  0  0  0  0  0  0  0
    6.6457   -3.8611   -0.7335 C   0  0  0  0  0  0  0  0  0  0  0  0
    7.8378   -4.3465   -1.1298 N   0  0  0  0  0  0  0  0  0  0  0  0
    8.7339   -3.3596   -1.2845 C   0  0  0  0  0  0  0  0  0  0  0  0
    8.0539   -2.1930   -0.9636 C   0  0  0  0  0  0  0  0  0  0  0  0
    8.7619   -1.0121   -1.0427 C   0  0  0  0  0  0  0  0  0  0  0  0
   10.0834   -0.9688   -1.4210 C   0  0  0  0  0  0  0  0  0  0  0  0
   10.7503   -2.1484   -1.7396 C   0  0  0  0  0  0  0  0  0  0  0  0
   10.0723   -3.3465   -1.6708 C   0  0  0  0  0  0  0  0  0  0  0  0
    2.0790    1.6926    1.0341 C   0  0  0  0  0  0  0  0  0  0  0  0
    2.1365    1.0510    2.3629 C   0  0  0  0  0  0  0  0  0  0  0  0
    3.2450    0.0264    2.4560 C   0  0  0  0  0  0  0  0  0  0  0  0
    4.5300    0.6695    2.1998 N   0  0  0  0  0  0  0  0  0  0  0  0
    5.0339    1.4044    3.1534 C   0  0  0  0  0  0  0  0  0  0  0  0
    4.3894    1.5938    4.4036 N   0  0  0  0  0  0  0  0  0  0  0  0
    6.2943    2.0332    2.8506 N   0  0  0  0  0  0  0  0  0  0  0  0
   -2.0540    0.2755   -0.3506 C   0  0  0  0  0  0  0  0  0  0  0  0
   -3.0984    1.2968   -0.5479 C   0  0  1  0  0  0  0  0  0  0  0  0
   -4.4590    0.8067   -0.5033 N   0  0  0  0  0  0  0  0  0  0  0  0
   -5.5178    1.3915   -1.2720 C   0  0  0  0  0  0  0  0  0  0  0  0
   -5.3819    2.3620   -2.0272 O   0  0  0  0  0  0  0  0  0  0  0  0
   -6.8661    0.7311   -1.1034 C   0  0  2  0  0  0  0  0  0  0  0  0
   -6.7813   -0.6560   -1.6866 C   0  0  0  0  0  0  0  0  0  0  0  0
   -7.9920   -1.4686   -1.5969 C   0  0  0  0  0  0  0  0  0  0  0  0
   -9.2028   -1.2668   -1.0804 N   0  0  0  0  0  0  0  0  0  0  0  0
  -10.0067   -2.3326   -1.2613 C   0  0  0  0  0  0  0  0  0  0  0  0
   -9.2830   -3.2423   -1.9137 N   0  0  0  0  0  0  0  0  0  0  0  0
   -8.0531   -2.7622   -2.1393 C   0  0  0  0  0  0  0  0  0  0  0  0
   -7.8639    1.5364   -1.8160 N   0  0  0  0  0  0  0  0  0  0  0  0
   -8.8628    2.2912   -1.1599 C   0  0  0  0  0  0  0  0  0  0  0  0
   -8.8823    2.2569    0.0972 O   0  0  0  0  0  0  0  0  0  0  0  0
   -9.8808    3.1150   -1.8606 C   0  0  0  0  0  0  0  0  0  0  0  0
   -3.0329    2.2848    0.6414 C   0  0  0  0  0  0  0  0  0  0  0  0
   -3.2635    1.5555    1.9020 C   0  0  0  0  0  0  0  0  0  0  0  0
   -2.2729    1.0512    2.7090 C   0  0  0  0  0  0  0  0  0  0  0  0
   -2.5378    0.3646    3.8945 C   0  0  0  0  0  0  0  0  0  0  0  0
   -3.8439    0.1721    4.2931 C   0  0  0  0  0  0  0  0  0  0  0  0
   -4.8753    0.6741    3.4918 C   0  0  0  0  0  0  0  0  0  0  0  0
   -4.5680    1.3550    2.3136 C   0  0  0  0  0  0  0  0  0  0  0  0
    0.4101   -0.7934    0.3692 H   0  0  0  0  0  0  0  0  0  0  0  0
    1.5834    1.5960   -1.0012 H   0  0  0  0  0  0  0  0  0  0  0  0
    4.4001    1.2345   -0.7536 H   0  0  0  0  0  0  0  0  0  0  0  0
    5.9498   -0.0690   -1.8506 H   0  0  0  0  0  0  0  0  0  0  0  0
    2.7768   -2.2799   -3.2920 H   0  0  0  0  0  0  0  0  0  0  0  0
    3.1006   -0.5396   -3.4418 H   0  0  0  0  0  0  0  0  0  0  0  0
    6.2014   -0.7496    0.4813 H   0  0  0  0  0  0  0  0  0  0  0  0
    4.9309   -1.9782    0.3943 H   0  0  0  0  0  0  0  0  0  0  0  0
    5.7194   -4.3687   -0.5192 H   0  0  0  0  0  0  0  0  0  0  0  0
    7.9829   -5.3709   -1.2832 H   0  0  0  0  0  0  0  0  0  0  0  0
    8.2399   -0.0998   -0.7921 H   0  0  0  0  0  0  0  0  0  0  0  0
   10.6513   -0.0652   -1.4884 H   0  0  0  0  0  0  0  0  0  0  0  0
   11.8016   -2.1517   -2.0446 H   0  0  0  0  0  0  0  0  0  0  0  0
   10.5753   -4.2737   -1.9144 H   0  0  0  0  0  0  0  0  0  0  0  0
    1.2505    2.4683    1.0670 H   0  0  0  0  0  0  0  0  0  0  0  0
    2.9842    2.3097    0.8061 H   0  0  0  0  0  0  0  0  0  0  0  0
    2.3683    1.7962    3.1731 H   0  0  0  0  0  0  0  0  0  0  0  0
    1.1906    0.5521    2.6504 H   0  0  0  0  0  0  0  0  0  0  0  0
    3.2806   -0.3783    3.5057 H   0  0  0  0  0  0  0  0  0  0  0  0
    3.1217   -0.8049    1.7843 H   0  0  0  0  0  0  0  0  0  0  0  0
    4.1995    2.5756    4.6869 H   0  0  0  0  0  0  0  0  0  0  0  0
    4.1048    0.8040    5.0352 H   0  0  0  0  0  0  0  0  0  0  0  0
    6.2681    2.8273    2.1715 H   0  0  0  0  0  0  0  0  0  0  0  0
    7.1892    1.7499    3.2582 H   0  0  0  0  0  0  0  0  0  0  0  0
   -2.1037   -0.2118    0.6418 H   0  0  0  0  0  0  0  0  0  0  0  0
   -2.0968   -0.5697   -1.0733 H   0  0  0  0  0  0  0  0  0  0  0  0
   -2.9840    1.9247   -1.4349 H   0  0  0  0  0  0  0  0  0  0  0  0
   -4.6385   -0.0092    0.1279 H   0  0  0  0  0  0  0  0  0  0  0  0
   -7.1099    0.6764   -0.0461 H   0  0  0  0  0  0  0  0  0  0  0  0
   -5.9859   -1.2165   -1.1111 H   0  0  0  0  0  0  0  0  0  0  0  0
   -6.4001   -0.5678   -2.7354 H   0  0  0  0  0  0  0  0  0  0  0  0
   -9.5117   -0.4104   -0.5898 H   0  0  0  0  0  0  0  0  0  0  0  0
  -11.0415   -2.4736   -0.9561 H   0  0  0  0  0  0  0  0  0  0  0  0
   -7.2600   -3.3000   -2.6544 H   0  0  0  0  0  0  0  0  0  0  0  0
   -7.8761    1.5845   -2.8734 H   0  0  0  0  0  0  0  0  0  0  0  0
  -10.8933    2.6514   -1.6629 H   0  0  0  0  0  0  0  0  0  0  0  0
   -9.9159    4.1007   -1.3144 H   0  0  0  0  0  0  0  0  0  0  0  0
   -9.6818    3.2304   -2.9357 H   0  0  0  0  0  0  0  0  0  0  0  0
   -3.7891    3.0812    0.4589 H   0  0  0  0  0  0  0  0  0  0  0  0
   -2.0716    2.7945    0.7101 H   0  0  0  0  0  0  0  0  0  0  0  0
   -1.2432    1.2010    2.4047 H   0  0  0  0  0  0  0  0  0  0  0  0
   -1.7552   -0.0294    4.5279 H   0  0  0  0  0  0  0  0  0  0  0  0
   -4.1363   -0.3441    5.1941 H   0  0  0  0  0  0  0  0  0  0  0  0
   -5.9147    0.5512    3.7559 H   0  0  0  0  0  0  0  0  0  0  0  0
   -5.4240    1.7229    1.7308 H   0  0  0  0  0  0  0  0  0  0  0  0
  1  2  2  0
  2  3  1  0
  3  4  1  0
  4  5  1  0
  5  6  2  0
  5  7  1  0
  7  8  1  0
  8  9  1  0
  9 10  2  0
  9 11  1  0
  8 12  1  0
 12 13  1  0
 13 14  2  0
 14 15  1  0
 15 16  1  0
 16 17  2  0
 17 18  1  0
 18 19  2  0
 19 20  1  0
 20 21  2  0
  4 22  1  0
 22 23  1  0
 23 24  1  0
 24 25  1  0
 25 26  2  3
 26 27  1  0
 26 28  1  0
  2 29  1  0
 29 30  1  0
 30 31  1  0
 31 32  1  0
 32 33  2  0
 32 34  1  0
 34 35  1  0
 35 36  1  0
 36 37  1  0
 37 38  1  0
 38 39  2  0
 39 40  1  0
 34 41  1  0
 41 42  1  0
 42 43  2  0
 42 44  1  0
 30 45  1  0
 45 46  1  0
 46 47  2  0
 47 48  1  0
 48 49  2  0
 49 50  1  0
 50 51  2  0
 17 13  1  0
 40 36  2  0
 51 46  1  0
 21 16  1  0
  3 52  1  0
  4 53  1  6
  7 54  1  0
  8 55  1  6
 11 56  1  0
 11 57  1  0
 12 58  1  0
 12 59  1  0
 14 60  1  0
 15 61  1  0
 18 62  1  0
 19 63  1  0
 20 64  1  0
 21 65  1  0
 22 66  1  0
 22 67  1  0
 23 68  1  0
 23 69  1  0
 24 70  1  0
 24 71  1  0
 27 72  1  0
 27 73  1  0
 28 74  1  0
 28 75  1  0
 29 76  1  0
 29 77  1  0
 30 78  1  6
 31 79  1  0
 34 80  1  1
 35 81  1  0
 35 82  1  0
 37 83  1  0
 38 84  1  0
 40 85  1  0
 41 86  1  0
 44 87  1  0
 44 88  1  0
 44 89  1  0
 45 90  1  0
 45 91  1  0
 47 92  1  0
 48 93  1  0
 49 94  1  0
 50 95  1  0
 51 96  1  0
M  END
>  <Ligand ID>  (1) 
LIG0003296

>  <Ligand>  (1) 
CHEMBL3582443

>  <SMILES>  (1) 
O=C(N[C@H](C(=O)N[C@H](C(=O)N)Cc1c[nH]c2c1cccc2)CCCN=C(N)N)C[C@@H](NC(=O)[C@H](Cc1[nH]cnc1)NC(=O)C)Cc1ccccc1

>  <CID>  (1) 
122179549.0

>  <ChEMBL ID>  (1) 
nan

>  <InChiKey>  (1) 
LLXNMZKMMPPHTG-DFZCOPKLSA-N

>  <InChi>  (1) 
InChI=1S/C35H45N11O5/c1-21(47)43-30(16-25-19-39-20-42-25)34(51)44-24(14-22-8-3-2-4-9-22)17-31(48)45-28(12-7-13-40-35(37)38)33(50)46-29(32(36)49)15-23-18-41-27-11-6-5-10-26(23)27/h2-6,8-11,18-20,24,28-30,41H,7,12-17H2,1H3,(H2,36,49)(H,39,42)(H,43,47)(H,44,51)(H,45,48)(H,46,50)(H4,37,38,40)/t24-,28-,29-,30-/m0/s1

>  <IUPAC Name>  (1) 
(2S)-2-[[(3S)-3-[[(2S)-2-acetamido-3-(1H-imidazol-5-yl)propanoyl]amino]-4-phenylbutanoyl]amino]-N-[(2S)-1-amino-3-(1H-indol-3-yl)-1-oxopropan-2-yl]-5-(diaminomethylideneamino)pentanamide

$$$$
