
     RDKit          3D

 36 37  0  0  0  0  0  0  0  0999 V2000
    5.5703    2.2893   -0.2572 C   0  0  0  0  0  0  0  0  0  0  0  0
    4.7520    1.0020   -0.1908 C   0  0  0  0  0  0  0  0  0  0  0  0
    3.0038    1.4521   -0.2160 S   0  0  0  0  0  0  0  0  0  0  0  0
    1.9554    0.0288   -0.1399 C   0  0  0  0  0  0  0  0  0  0  0  0
    2.4117   -1.2713   -0.0771 C   0  0  0  0  0  0  0  0  0  0  0  0
    1.5327   -2.3422   -0.0185 C   0  0  0  0  0  0  0  0  0  0  0  0
    0.1564   -2.1583   -0.0207 C   0  0  0  0  0  0  0  0  0  0  0  0
   -0.3031   -0.8382   -0.0843 C   0  0  0  0  0  0  0  0  0  0  0  0
    0.5900    0.2299   -0.1427 C   0  0  0  0  0  0  0  0  0  0  0  0
   -1.7320   -0.9287   -0.0707 N   0  0  0  0  0  0  0  0  0  0  0  0
   -2.0599   -2.1470    0.6416 C   0  0  0  0  0  0  0  0  0  0  0  0
   -1.0161   -3.0795    0.0320 C   0  0  0  0  0  0  0  0  0  0  0  0
   -2.6183    0.0494   -0.6735 C   0  0  0  0  0  0  0  0  0  0  0  0
   -3.3879    0.7981    0.3583 C   0  0  1  0  0  0  0  0  0  0  0  0
   -2.4482    1.4848    1.2258 N   0  0  0  0  0  0  0  0  0  0  0  0
   -4.2973    1.7983   -0.3505 C   0  0  0  0  0  0  0  0  0  0  0  0
    5.4948    2.6778   -1.2924 H   0  0  0  0  0  0  0  0  0  0  0  0
    5.2177    3.0184    0.4964 H   0  0  0  0  0  0  0  0  0  0  0  0
    6.6325    1.9818   -0.0701 H   0  0  0  0  0  0  0  0  0  0  0  0
    4.9744    0.4541    0.7476 H   0  0  0  0  0  0  0  0  0  0  0  0
    4.9366    0.3920   -1.1123 H   0  0  0  0  0  0  0  0  0  0  0  0
    3.4929   -1.4397   -0.0749 H   0  0  0  0  0  0  0  0  0  0  0  0
    1.8751   -3.3666    0.0305 H   0  0  0  0  0  0  0  0  0  0  0  0
    0.1860    1.2243   -0.1915 H   0  0  0  0  0  0  0  0  0  0  0  0
   -1.7844   -2.0100    1.7121 H   0  0  0  0  0  0  0  0  0  0  0  0
   -3.0846   -2.4769    0.4956 H   0  0  0  0  0  0  0  0  0  0  0  0
   -0.8338   -3.9759    0.6532 H   0  0  0  0  0  0  0  0  0  0  0  0
   -1.3763   -3.3092   -0.9914 H   0  0  0  0  0  0  0  0  0  0  0  0
   -3.3303   -0.5299   -1.3195 H   0  0  0  0  0  0  0  0  0  0  0  0
   -2.0867    0.7715   -1.2987 H   0  0  0  0  0  0  0  0  0  0  0  0
   -3.9919    0.0926    0.9415 H   0  0  0  0  0  0  0  0  0  0  0  0
   -1.9870    2.2730    0.7383 H   0  0  0  0  0  0  0  0  0  0  0  0
   -2.8855    1.7397    2.1380 H   0  0  0  0  0  0  0  0  0  0  0  0
   -4.4896    2.6560    0.3246 H   0  0  0  0  0  0  0  0  0  0  0  0
   -3.8199    2.1488   -1.3056 H   0  0  0  0  0  0  0  0  0  0  0  0
   -5.2495    1.3107   -0.6373 H   0  0  0  0  0  0  0  0  0  0  0  0
  1  2  1  0
  2  3  1  0
  3  4  1  0
  4  5  2  0
  5  6  1  0
  6  7  2  0
  7  8  1  0
  8  9  2  0
  8 10  1  0
 10 11  1  0
 11 12  1  0
 10 13  1  0
 13 14  1  0
 14 15  1  0
 14 16  1  0
  9  4  1  0
 12  7  1  0
  1 17  1  0
  1 18  1  0
  1 19  1  0
  2 20  1  0
  2 21  1  0
  5 22  1  0
  6 23  1  0
  9 24  1  0
 11 25  1  0
 11 26  1  0
 12 27  1  0
 12 28  1  0
 13 29  1  0
 13 30  1  0
 14 31  1  1
 15 32  1  0
 15 33  1  0
 16 34  1  0
 16 35  1  0
 16 36  1  0
M  END
>  <Ligand ID>  (1) 
LIG0004498

>  <Ligand>  (1) 
CHEMBL80862

>  <SMILES>  (1) 
CCSc1ccc2c(c1)N(CC2)C[C@@H](N)C

>  <CID>  (1) 
44316027.0

>  <ChEMBL ID>  (1) 
nan

>  <InChiKey>  (1) 
ZATISPXVUJXJRK-JTQLQIEISA-N

>  <InChi>  (1) 
InChI=1S/C13H20N2S/c1-3-16-12-5-4-11-6-7-15(9-10(2)14)13(11)8-12/h4-5,8,10H,3,6-7,9,14H2,1-2H3/t10-/m0/s1

>  <IUPAC Name>  (1) 
(2S)-1-(6-ethylsulfanyl-2,3-dihydroindol-1-yl)propan-2-amine

$$$$
