
     RDKit          3D

 50 50  0  0  0  0  0  0  0  0999 V2000
   -7.0781    1.8021    1.7355 C   0  0  0  0  0  0  0  0  0  0  0  0
   -6.5072    1.4919    0.3907 C   0  0  0  0  0  0  0  0  0  0  0  0
   -5.1673    1.0147    0.5895 O   0  0  0  0  0  0  0  0  0  0  0  0
   -4.3648    0.6393   -0.4579 C   0  0  0  0  0  0  0  0  0  0  0  0
   -4.8065    0.7103   -1.6427 O   0  0  0  0  0  0  0  0  0  0  0  0
   -3.0305    0.1600   -0.3200 N   0  0  0  0  0  0  0  0  0  0  0  0
   -2.3299   -0.1927   -1.5312 C   0  0  0  0  0  0  0  0  0  0  0  0
   -0.8419   -0.3264   -1.1421 C   0  0  0  0  0  0  0  0  0  0  0  0
   -0.7430   -1.5258   -0.2643 C   0  0  0  0  0  0  0  0  0  0  0  0
   -1.6839   -1.3367    0.9451 C   0  0  0  0  0  0  0  0  0  0  0  0
   -2.3476    0.0053    0.9297 C   0  0  0  0  0  0  0  0  0  0  0  0
    0.5005   -1.9583    0.1854 N   0  0  0  0  0  0  0  0  0  0  0  0
    1.4594   -2.5886   -0.5910 C   0  0  0  0  0  0  0  0  0  0  0  0
    2.1936   -1.8805   -1.6591 C   0  0  0  0  0  0  0  0  0  0  0  0
    2.9474   -0.7219   -1.2632 N   0  0  0  0  0  0  0  0  0  0  0  0
    3.9908   -0.8125   -0.3176 C   0  0  0  0  0  0  0  0  0  0  0  0
    4.2143   -1.9783    0.1569 O   0  0  0  0  0  0  0  0  0  0  0  0
    4.7947    0.3230    0.1235 C   0  0  0  0  0  0  0  0  0  0  0  0
    4.6079    1.6062   -0.3406 C   0  0  0  0  0  0  0  0  0  0  0  0
    5.3985    2.6676    0.0991 C   0  0  0  0  0  0  0  0  0  0  0  0
    6.4030    2.4005    1.0374 C   0  0  0  0  0  0  0  0  0  0  0  0
    6.6104    1.1259    1.5176 C   0  0  0  0  0  0  0  0  0  0  0  0
    5.8003    0.0948    1.0536 C   0  0  0  0  0  0  0  0  0  0  0  0
    0.6876    0.0000    0.0000 Cl  0  0  0  0  0  0  0  0  0  0  0  0
   -7.8426    2.6094    1.7116 H   0  0  0  0  0  0  0  0  0  0  0  0
   -7.5199    0.8473    2.1220 H   0  0  0  0  0  0  0  0  0  0  0  0
   -6.2512    2.0556    2.4233 H   0  0  0  0  0  0  0  0  0  0  0  0
   -6.4052    2.4402   -0.2141 H   0  0  0  0  0  0  0  0  0  0  0  0
   -7.0888    0.7817   -0.2160 H   0  0  0  0  0  0  0  0  0  0  0  0
   -2.4602    0.5300   -2.3533 H   0  0  0  0  0  0  0  0  0  0  0  0
   -2.6479   -1.2054   -1.8225 H   0  0  0  0  0  0  0  0  0  0  0  0
   -0.5229    0.6160   -0.6119 H   0  0  0  0  0  0  0  0  0  0  0  0
   -0.3224   -0.4252   -2.0968 H   0  0  0  0  0  0  0  0  0  0  0  0
   -1.1870   -2.3773   -0.8928 H   0  0  0  0  0  0  0  0  0  0  0  0
   -2.4150   -2.1628    0.9432 H   0  0  0  0  0  0  0  0  0  0  0  0
   -1.0816   -1.4063    1.8851 H   0  0  0  0  0  0  0  0  0  0  0  0
   -3.1323   -0.0174    1.7203 H   0  0  0  0  0  0  0  0  0  0  0  0
   -1.5972    0.7893    1.1098 H   0  0  0  0  0  0  0  0  0  0  0  0
    0.7315   -1.7674    1.1856 H   0  0  0  0  0  0  0  0  0  0  0  0
    0.9221   -3.4523   -1.1289 H   0  0  0  0  0  0  0  0  0  0  0  0
    2.1671   -3.2007    0.0697 H   0  0  0  0  0  0  0  0  0  0  0  0
    1.5275   -1.6115   -2.4839 H   0  0  0  0  0  0  0  0  0  0  0  0
    2.8962   -2.6571   -2.1121 H   0  0  0  0  0  0  0  0  0  0  0  0
    2.7360    0.2186   -1.6704 H   0  0  0  0  0  0  0  0  0  0  0  0
    3.8407    1.8123   -1.0573 H   0  0  0  0  0  0  0  0  0  0  0  0
    5.2406    3.6759   -0.2766 H   0  0  0  0  0  0  0  0  0  0  0  0
    7.0463    3.2112    1.4077 H   0  0  0  0  0  0  0  0  0  0  0  0
    7.3815    0.8782    2.2471 H   0  0  0  0  0  0  0  0  0  0  0  0
    5.9649   -0.9021    1.4309 H   0  0  0  0  0  0  0  0  0  0  0  0
   -0.6876    0.0000    0.0000 H   0  0  0  0  0  0  0  0  0  0  0  0
  1  2  1  0
  2  3  1  0
  3  4  1  0
  4  5  2  0
  4  6  1  0
  6  7  1  0
  7  8  1  0
  8  9  1  0
  9 10  1  0
 10 11  1  0
  9 12  1  0
 12 13  1  0
 13 14  1  0
 14 15  1  0
 15 16  1  0
 16 17  2  0
 16 18  1  0
 18 19  2  0
 19 20  1  0
 20 21  2  0
 21 22  1  0
 22 23  2  0
 11  6  1  0
 23 18  1  0
  1 25  1  0
  1 26  1  0
  1 27  1  0
  2 28  1  0
  2 29  1  0
  7 30  1  0
  7 31  1  0
  8 32  1  0
  8 33  1  0
  9 34  1  0
 10 35  1  0
 10 36  1  0
 11 37  1  0
 11 38  1  0
 12 39  1  0
 13 40  1  0
 13 41  1  0
 14 42  1  0
 14 43  1  0
 15 44  1  0
 19 45  1  0
 20 46  1  0
 21 47  1  0
 22 48  1  0
 23 49  1  0
 24 50  1  0
M  END
>  <Ligand ID>  (1) 
LIG0001951

>  <Ligand>  (1) 
VU0184670

>  <SMILES>  (1) 
CCOC(=O)N1CCC(CC1)NCCNC(=O)c1ccccc1.Cl

>  <CID>  (1) 
25010774.0

>  <ChEMBL ID>  (1) 
nan

>  <InChiKey>  (1) 
YIWXEUIRYNIJHG-UHFFFAOYSA-N

>  <InChi>  (1) 
InChI=1S/C17H25N3O3.ClH/c1-2-23-17(22)20-12-8-15(9-13-20)18-10-11-19-16(21)14-6-4-3-5-7-14;/h3-7,15,18H,2,8-13H2,1H3,(H,19,21);1H

>  <IUPAC Name>  (1) 
ethyl 4-(2-benzamidoethylamino)piperidine-1-carboxylate;hydrochloride

$$$$
