
     RDKit          3D

 55 57  0  0  0  0  0  0  0  0999 V2000
    6.8054   -0.6887    1.9262 O   0  0  0  0  0  0  0  0  0  0  0  0
    5.5012   -1.1233    1.7524 C   0  0  0  0  0  0  0  0  0  0  0  0
    5.0660   -0.7241    0.3848 C   0  0  0  0  0  0  0  0  0  0  0  0
    5.2010    0.7889    0.1779 C   0  0  0  0  0  0  0  0  0  0  0  0
    4.8342    1.1623   -1.0906 O   0  0  0  0  0  0  0  0  0  0  0  0
    4.9676    2.8238   -1.3630 P   0  0  0  0  0  0  0  0  0  0  0  0
    4.6615    3.1175   -2.7995 O   0  0  0  0  0  0  0  0  0  0  0  0
    6.5707    3.2713   -1.0614 O   0  0  0  0  0  0  0  0  0  0  0  0
    3.9810    3.7047   -0.3090 O   0  0  0  0  0  0  0  0  0  0  0  0
    3.6527   -1.1443    0.0463 C   0  0  0  0  0  0  0  0  0  0  0  0
    2.6904   -0.5295    1.0018 C   0  0  0  0  0  0  0  0  0  0  0  0
    1.2747   -0.8623    0.7787 C   0  0  0  0  0  0  0  0  0  0  0  0
    0.6306   -1.9429    1.3480 C   0  0  0  0  0  0  0  0  0  0  0  0
   -0.7227   -2.1666    1.0666 C   0  0  0  0  0  0  0  0  0  0  0  0
   -1.4128   -1.3165    0.2268 C   0  0  0  0  0  0  0  0  0  0  0  0
   -0.7837   -0.2438   -0.3417 C   0  0  0  0  0  0  0  0  0  0  0  0
    0.5511   -0.0253   -0.0625 C   0  0  0  0  0  0  0  0  0  0  0  0
   -2.8214   -1.5667   -0.0536 C   0  0  0  0  0  0  0  0  0  0  0  0
   -3.5903   -2.5658    0.4160 N   0  0  0  0  0  0  0  0  0  0  0  0
   -4.8275   -2.4282   -0.0884 N   0  0  0  0  0  0  0  0  0  0  0  0
   -4.8787   -1.3718   -0.8679 N   0  0  0  0  0  0  0  0  0  0  0  0
   -3.6402   -0.8112   -0.8672 C   0  0  0  0  0  0  0  0  0  0  0  0
   -5.9691   -0.8091   -1.6312 C   0  0  0  0  0  0  0  0  0  0  0  0
   -6.6736    0.1729   -0.7496 C   0  0  0  0  0  0  0  0  0  0  0  0
   -7.7225   -0.1778    0.0676 C   0  0  0  0  0  0  0  0  0  0  0  0
   -8.3058    0.8217    0.8486 C   0  0  0  0  0  0  0  0  0  0  0  0
   -7.8358    2.1233    0.7951 C   0  0  0  0  0  0  0  0  0  0  0  0
   -6.7771    2.4832   -0.0281 C   0  0  0  0  0  0  0  0  0  0  0  0
   -6.2235    1.4701   -0.7869 C   0  0  0  0  0  0  0  0  0  0  0  0
   -8.5475    3.4005    1.7637 Cl  0  0  0  0  0  0  0  0  0  0  0  0
    5.9434   -1.3454   -0.5908 N   0  0  0  0  0  0  0  0  0  0  0  0
    7.4084   -1.3849    2.2922 H   0  0  0  0  0  0  0  0  0  0  0  0
    5.5468   -2.2359    1.7753 H   0  0  0  0  0  0  0  0  0  0  0  0
    4.9006   -0.6999    2.5598 H   0  0  0  0  0  0  0  0  0  0  0  0
    6.3062    1.0058    0.2549 H   0  0  0  0  0  0  0  0  0  0  0  0
    4.7151    1.3677    0.9722 H   0  0  0  0  0  0  0  0  0  0  0  0
    6.6186    4.0886   -0.4886 H   0  0  0  0  0  0  0  0  0  0  0  0
    3.1653    3.1394   -0.1257 H   0  0  0  0  0  0  0  0  0  0  0  0
    3.4678   -0.8228   -0.9879 H   0  0  0  0  0  0  0  0  0  0  0  0
    3.6091   -2.2560    0.0622 H   0  0  0  0  0  0  0  0  0  0  0  0
    2.9374   -0.8998    2.0384 H   0  0  0  0  0  0  0  0  0  0  0  0
    2.8019    0.5628    0.9892 H   0  0  0  0  0  0  0  0  0  0  0  0
    1.1913   -2.5984    2.0049 H   0  0  0  0  0  0  0  0  0  0  0  0
   -1.2214   -3.0075    1.5104 H   0  0  0  0  0  0  0  0  0  0  0  0
   -1.3103    0.4226   -0.9953 H   0  0  0  0  0  0  0  0  0  0  0  0
    1.0320    0.8253   -0.5192 H   0  0  0  0  0  0  0  0  0  0  0  0
   -3.3141    0.0687   -1.3958 H   0  0  0  0  0  0  0  0  0  0  0  0
   -5.5785   -0.2700   -2.5361 H   0  0  0  0  0  0  0  0  0  0  0  0
   -6.6593   -1.6186   -1.9298 H   0  0  0  0  0  0  0  0  0  0  0  0
   -8.0680   -1.2009    0.0888 H   0  0  0  0  0  0  0  0  0  0  0  0
   -9.1284    0.5906    1.5014 H   0  0  0  0  0  0  0  0  0  0  0  0
   -6.3990    3.4966   -0.0802 H   0  0  0  0  0  0  0  0  0  0  0  0
   -5.3846    1.7619   -1.4373 H   0  0  0  0  0  0  0  0  0  0  0  0
    5.4403   -1.5712   -1.4663 H   0  0  0  0  0  0  0  0  0  0  0  0
    6.3233   -2.2609   -0.2378 H   0  0  0  0  0  0  0  0  0  0  0  0
  1  2  1  0
  2  3  1  0
  3  4  1  0
  4  5  1  0
  5  6  1  0
  6  7  2  0
  6  8  1  0
  6  9  1  0
  3 10  1  0
 10 11  1  0
 11 12  1  0
 12 13  2  0
 13 14  1  0
 14 15  2  0
 15 16  1  0
 16 17  2  0
 15 18  1  0
 18 19  1  0
 19 20  2  0
 20 21  1  0
 21 22  1  0
 21 23  1  0
 23 24  1  0
 24 25  2  0
 25 26  1  0
 26 27  2  0
 27 28  1  0
 28 29  2  0
 27 30  1  0
  3 31  1  0
 17 12  1  0
 22 18  2  0
 29 24  1  0
  1 32  1  0
  2 33  1  0
  2 34  1  0
  4 35  1  0
  4 36  1  0
  8 37  1  0
  9 38  1  0
 10 39  1  0
 10 40  1  0
 11 41  1  0
 11 42  1  0
 13 43  1  0
 14 44  1  0
 16 45  1  0
 17 46  1  0
 22 47  1  0
 23 48  1  0
 23 49  1  0
 25 50  1  0
 26 51  1  0
 28 52  1  0
 29 53  1  0
 31 54  1  0
 31 55  1  0
M  END
>  <Ligand ID>  (1) 
LIG0005918

>  <Ligand>  (1) 
CHEMBL3342014

>  <SMILES>  (1) 
OCC(COP(=O)(O)O)(CCc1ccc(cc1)c1nnn(c1)Cc1ccc(cc1)Cl)N

>  <CID>  (1) 
118716189.0

>  <ChEMBL ID>  (1) 
nan

>  <InChiKey>  (1) 
SCEMWRORPVAYOY-UHFFFAOYSA-N

>  <InChi>  (1) 
InChI=1S/C20H24ClN4O5P/c21-18-7-3-16(4-8-18)11-25-12-19(23-24-25)17-5-1-15(2-6-17)9-10-20(22,13-26)14-30-31(27,28)29/h1-8,12,26H,9-11,13-14,22H2,(H2,27,28,29)

>  <IUPAC Name>  (1) 
[2-amino-4-[4-[1-[(4-chlorophenyl)methyl]triazol-4-yl]phenyl]-2-(hydroxymethyl)butyl] dihydrogen phosphate

$$$$
