
     RDKit          3D

155160  0  0  0  0  0  0  0  0999 V2000
   12.4897   -1.1005    1.1689 C   0  0  0  0  0  0  0  0  0  0  0  0
   11.1395   -0.3996    1.1998 C   0  0  0  0  0  0  0  0  0  0  0  0
   10.2960   -1.0337    0.1023 C   0  0  0  0  0  0  0  0  0  0  0  0
    8.9234   -0.4543   -0.0132 C   0  0  0  0  0  0  0  0  0  0  0  0
    8.1513   -1.2278   -1.0820 C   0  0  2  0  0  0  0  0  0  0  0  0
    6.8232   -0.6702   -1.3607 C   0  0  0  0  0  0  0  0  0  0  0  0
    6.7419    0.4356   -1.9518 O   0  0  0  0  0  0  0  0  0  0  0  0
    5.5948   -1.3538   -0.9740 N   0  0  0  0  0  0  0  0  0  0  0  0
    4.3386   -0.7442   -1.3094 C   0  0  1  0  0  0  0  0  0  0  0  0
    3.2980   -1.7575   -1.6951 C   0  0  0  0  0  0  0  0  0  0  0  0
    3.1719   -2.9145   -0.7765 C   0  0  0  0  0  0  0  0  0  0  0  0
    3.9382   -3.2134    0.1491 O   0  0  0  0  0  0  0  0  0  0  0  0
    2.0725   -3.8676   -0.8872 N   0  0  0  0  0  0  0  0  0  0  0  0
    2.0851   -4.9929    0.0198 C   0  0  0  0  0  0  0  0  0  0  0  0
    0.8276   -5.8140   -0.2074 C   0  0  0  0  0  0  0  0  0  0  0  0
   -0.3603   -5.0585    0.4303 C   0  0  0  0  0  0  0  0  0  0  0  0
   -1.6607   -5.6838    0.2222 C   0  0  0  0  0  0  0  0  0  0  0  0
   -2.8618   -5.2610    0.9992 C   0  0  1  0  0  0  0  0  0  0  0  0
   -2.7621   -5.5449    2.4378 C   0  0  0  0  0  0  0  0  0  0  0  0
   -3.1107   -4.7056    3.3151 O   0  0  0  0  0  0  0  0  0  0  0  0
   -2.2536   -6.8098    2.8374 N   0  0  0  0  0  0  0  0  0  0  0  0
   -3.3339   -3.9007    0.7556 N   0  0  0  0  0  0  0  0  0  0  0  0
   -2.6312   -2.8309    1.3531 C   0  0  0  0  0  0  0  0  0  0  0  0
   -4.4917   -3.6050   -0.0120 C   0  0  0  0  0  0  0  0  0  0  0  0
   -4.9998   -4.6474   -0.4797 O   0  0  0  0  0  0  0  0  0  0  0  0
   -5.1366   -2.3382   -0.3298 C   0  0  1  0  0  0  0  0  0  0  0  0
   -4.7086   -1.2962    0.5313 N   0  0  0  0  0  0  0  0  0  0  0  0
   -4.3881    0.0542    0.2369 C   0  0  0  0  0  0  0  0  0  0  0  0
   -4.4774    0.4225   -0.9266 O   0  0  0  0  0  0  0  0  0  0  0  0
   -3.9422    0.9755    1.3595 C   0  0  1  0  0  0  0  0  0  0  0  0
   -3.3604    2.1775    0.8034 N   0  0  0  0  0  0  0  0  0  0  0  0
   -1.9644    2.3584    0.9712 C   0  0  0  0  0  0  0  0  0  0  0  0
   -1.3385    1.5115    1.5957 O   0  0  0  0  0  0  0  0  0  0  0  0
   -1.2006    3.5419    0.4194 C   0  0  2  0  0  0  0  0  0  0  0  0
    0.2070    3.3490    0.7641 N   0  0  0  0  0  0  0  0  0  0  0  0
    1.0736    2.6048   -0.1148 C   0  0  0  0  0  0  0  0  0  0  0  0
    0.5066    2.1460   -1.1180 O   0  0  0  0  0  0  0  0  0  0  0  0
    2.5052    2.3875    0.1264 C   0  0  1  0  0  0  0  0  0  0  0  0
    3.0870    1.4368   -0.7919 N   0  0  0  0  0  0  0  0  0  0  0  0
    3.8561    0.2814   -0.3505 C   0  0  0  0  0  0  0  0  0  0  0  0
    4.0413    0.3073    0.8582 O   0  0  0  0  0  0  0  0  0  0  0  0
    2.9722    1.5792   -2.1963 C   0  0  0  0  0  0  0  0  0  0  0  0
    3.2645    3.7171    0.1576 C   0  0  0  0  0  0  0  0  0  0  0  0
    3.2253    4.5195   -1.0465 C   0  0  0  0  0  0  0  0  0  0  0  0
    4.1039    4.5260   -2.0946 N   0  0  0  0  0  0  0  0  0  0  0  0
    3.7129    5.4035   -3.0229 C   0  0  0  0  0  0  0  0  0  0  0  0
    2.5786    5.9928   -2.6185 N   0  0  0  0  0  0  0  0  0  0  0  0
    2.2746    5.4676   -1.4264 C   0  0  0  0  0  0  0  0  0  0  0  0
   -1.8301    4.7510    0.9802 C   0  0  0  0  0  0  0  0  0  0  0  0
   -1.2690    6.0465    0.5952 C   0  0  0  0  0  0  0  0  0  0  0  0
   -0.2650    6.7005    1.2761 C   0  0  0  0  0  0  0  0  0  0  0  0
    0.2045    7.9250    0.8530 C   0  0  0  0  0  0  0  0  0  0  0  0
   -0.3420    8.5205   -0.2852 C   0  0  0  0  0  0  0  0  0  0  0  0
   -1.3613    7.8787   -0.9939 C   0  0  0  0  0  0  0  0  0  0  0  0
   -1.7961    6.6638   -0.5380 C   0  0  0  0  0  0  0  0  0  0  0  0
   -1.8820    8.5063   -2.1186 C   0  0  0  0  0  0  0  0  0  0  0  0
   -1.3930    9.7408   -2.5177 C   0  0  0  0  0  0  0  0  0  0  0  0
   -0.3931   10.3753   -1.8262 C   0  0  0  0  0  0  0  0  0  0  0  0
    0.1457    9.7605   -0.6912 C   0  0  0  0  0  0  0  0  0  0  0  0
   -5.0127    1.2081    2.3687 C   0  0  0  0  0  0  0  0  0  0  0  0
   -6.2719    1.8332    1.8676 C   0  0  0  0  0  0  0  0  0  0  0  0
   -7.1971    1.9567    3.0916 C   0  0  0  0  0  0  0  0  0  0  0  0
   -7.4480    0.6411    3.6493 N   0  0  0  0  0  0  0  0  0  0  0  0
   -7.0763    0.3060    4.8457 C   0  0  0  0  0  0  0  0  0  0  0  0
   -7.3376   -1.0096    5.3751 N   0  0  0  0  0  0  0  0  0  0  0  0
   -6.3978    1.3003    5.6187 N   0  0  0  0  0  0  0  0  0  0  0  0
   -4.8472   -1.9860   -1.8195 C   0  0  0  0  0  0  0  0  0  0  0  0
   -5.4205   -3.1322   -2.5872 C   0  0  0  0  0  0  0  0  0  0  0  0
   -4.7858   -4.1970   -3.1842 C   0  0  0  0  0  0  0  0  0  0  0  0
   -5.7236   -4.9869   -3.7641 N   0  0  0  0  0  0  0  0  0  0  0  0
   -6.9508   -4.4770   -3.5684 C   0  0  0  0  0  0  0  0  0  0  0  0
   -6.7868   -3.3207   -2.8374 C   0  0  0  0  0  0  0  0  0  0  0  0
   -7.8993   -2.5749   -2.4880 C   0  0  0  0  0  0  0  0  0  0  0  0
   -9.1903   -2.9640   -2.8562 C   0  0  0  0  0  0  0  0  0  0  0  0
   -9.3269   -4.1304   -3.5893 C   0  0  0  0  0  0  0  0  0  0  0  0
   -8.2183   -4.8732   -3.9382 C   0  0  0  0  0  0  0  0  0  0  0  0
    7.9269   -2.5996   -0.6529 N   0  0  0  0  0  0  0  0  0  0  0  0
    8.1498   -3.1950    0.5768 C   0  0  0  0  0  0  0  0  0  0  0  0
    8.5829   -2.6925    1.6308 O   0  0  0  0  0  0  0  0  0  0  0  0
    7.8267   -4.6812    0.6763 C   0  0  0  0  0  0  0  0  0  0  0  0
   13.2893   -0.3662    1.3617 H   0  0  0  0  0  0  0  0  0  0  0  0
   12.7230   -1.5348    0.1644 H   0  0  0  0  0  0  0  0  0  0  0  0
   12.5688   -1.8779    1.9445 H   0  0  0  0  0  0  0  0  0  0  0  0
   10.6610   -0.5140    2.1930 H   0  0  0  0  0  0  0  0  0  0  0  0
   11.3100    0.6749    1.0235 H   0  0  0  0  0  0  0  0  0  0  0  0
   10.4223   -2.1097   -0.0039 H   0  0  0  0  0  0  0  0  0  0  0  0
   10.8787   -0.6618   -0.8475 H   0  0  0  0  0  0  0  0  0  0  0  0
    9.0233    0.5719   -0.4208 H   0  0  0  0  0  0  0  0  0  0  0  0
    8.3860   -0.3616    0.9387 H   0  0  0  0  0  0  0  0  0  0  0  0
    8.8270   -1.2407   -1.9221 H   0  0  0  0  0  0  0  0  0  0  0  0
    5.7617   -2.2414   -0.4798 H   0  0  0  0  0  0  0  0  0  0  0  0
    4.5199   -0.1179   -2.2525 H   0  0  0  0  0  0  0  0  0  0  0  0
    3.4161   -2.1001   -2.7606 H   0  0  0  0  0  0  0  0  0  0  0  0
    2.3017   -1.2079   -1.7127 H   0  0  0  0  0  0  0  0  0  0  0  0
    1.3989   -3.6395   -1.5991 H   0  0  0  0  0  0  0  0  0  0  0  0
    2.1913   -4.7027    1.0830 H   0  0  0  0  0  0  0  0  0  0  0  0
    2.9365   -5.6894   -0.2362 H   0  0  0  0  0  0  0  0  0  0  0  0
    0.6178   -5.9403   -1.2766 H   0  0  0  0  0  0  0  0  0  0  0  0
    0.9435   -6.7944    0.2876 H   0  0  0  0  0  0  0  0  0  0  0  0
   -0.0385   -4.8829    1.4499 H   0  0  0  0  0  0  0  0  0  0  0  0
   -0.3107   -4.0726   -0.1216 H   0  0  0  0  0  0  0  0  0  0  0  0
   -1.9823   -5.5989   -0.8727 H   0  0  0  0  0  0  0  0  0  0  0  0
   -1.5248   -6.8086    0.3176 H   0  0  0  0  0  0  0  0  0  0  0  0
   -3.6803   -5.9254    0.5655 H   0  0  0  0  0  0  0  0  0  0  0  0
   -2.6878   -7.3159    3.6609 H   0  0  0  0  0  0  0  0  0  0  0  0
   -1.4446   -7.2272    2.3002 H   0  0  0  0  0  0  0  0  0  0  0  0
   -3.0139   -2.5749    2.3808 H   0  0  0  0  0  0  0  0  0  0  0  0
   -1.5698   -3.2216    1.5029 H   0  0  0  0  0  0  0  0  0  0  0  0
   -2.4698   -1.9241    0.7799 H   0  0  0  0  0  0  0  0  0  0  0  0
   -6.2468   -2.4282   -0.3565 H   0  0  0  0  0  0  0  0  0  0  0  0
   -4.6644   -1.5091    1.5490 H   0  0  0  0  0  0  0  0  0  0  0  0
   -3.1343    0.4152    1.9104 H   0  0  0  0  0  0  0  0  0  0  0  0
   -3.8447    2.9164    0.2984 H   0  0  0  0  0  0  0  0  0  0  0  0
   -1.2347    3.4249   -0.6920 H   0  0  0  0  0  0  0  0  0  0  0  0
    0.6630    3.7020    1.6009 H   0  0  0  0  0  0  0  0  0  0  0  0
    2.6427    2.0374    1.1916 H   0  0  0  0  0  0  0  0  0  0  0  0
    4.0114    1.8069   -2.5884 H   0  0  0  0  0  0  0  0  0  0  0  0
    2.3654    2.4685   -2.4660 H   0  0  0  0  0  0  0  0  0  0  0  0
    2.6105    0.7383   -2.7824 H   0  0  0  0  0  0  0  0  0  0  0  0
    4.3114    3.4480    0.4017 H   0  0  0  0  0  0  0  0  0  0  0  0
    2.8826    4.2516    1.0656 H   0  0  0  0  0  0  0  0  0  0  0  0
    4.9717    3.9420   -2.1798 H   0  0  0  0  0  0  0  0  0  0  0  0
    4.2403    5.5987   -3.9544 H   0  0  0  0  0  0  0  0  0  0  0  0
    1.3961    5.7691   -0.8710 H   0  0  0  0  0  0  0  0  0  0  0  0
   -1.8436    4.6175    2.1056 H   0  0  0  0  0  0  0  0  0  0  0  0
   -2.9315    4.6783    0.7260 H   0  0  0  0  0  0  0  0  0  0  0  0
    0.1533    6.2118    2.1713 H   0  0  0  0  0  0  0  0  0  0  0  0
    1.0052    8.4356    1.4074 H   0  0  0  0  0  0  0  0  0  0  0  0
   -2.5837    6.1788   -1.0956 H   0  0  0  0  0  0  0  0  0  0  0  0
   -2.6644    7.9775   -2.6319 H   0  0  0  0  0  0  0  0  0  0  0  0
   -1.8160   10.2034   -3.3970 H   0  0  0  0  0  0  0  0  0  0  0  0
   -0.0107   11.3510   -2.1424 H   0  0  0  0  0  0  0  0  0  0  0  0
    0.9197   10.2779   -0.1777 H   0  0  0  0  0  0  0  0  0  0  0  0
   -5.3041    0.1810    2.7359 H   0  0  0  0  0  0  0  0  0  0  0  0
   -4.5794    1.7062    3.2344 H   0  0  0  0  0  0  0  0  0  0  0  0
   -6.1701    2.8180    1.4146 H   0  0  0  0  0  0  0  0  0  0  0  0
   -6.8033    1.1778    1.1529 H   0  0  0  0  0  0  0  0  0  0  0  0
   -8.1637    2.4251    2.8333 H   0  0  0  0  0  0  0  0  0  0  0  0
   -6.7357    2.5682    3.8933 H   0  0  0  0  0  0  0  0  0  0  0  0
   -7.7666   -1.1482    6.3088 H   0  0  0  0  0  0  0  0  0  0  0  0
   -7.0547   -1.8076    4.7348 H   0  0  0  0  0  0  0  0  0  0  0  0
   -6.9714    2.0913    6.0321 H   0  0  0  0  0  0  0  0  0  0  0  0
   -5.3527    1.2657    5.7828 H   0  0  0  0  0  0  0  0  0  0  0  0
   -3.8271   -1.7433   -2.0148 H   0  0  0  0  0  0  0  0  0  0  0  0
   -5.5148   -1.1397   -2.0469 H   0  0  0  0  0  0  0  0  0  0  0  0
   -3.7267   -4.3750   -3.1911 H   0  0  0  0  0  0  0  0  0  0  0  0
   -5.5847   -5.8798   -4.3039 H   0  0  0  0  0  0  0  0  0  0  0  0
   -7.8474   -1.6578   -1.9236 H   0  0  0  0  0  0  0  0  0  0  0  0
  -10.0500   -2.3532   -2.5680 H   0  0  0  0  0  0  0  0  0  0  0  0
  -10.3302   -4.4188   -3.8653 H   0  0  0  0  0  0  0  0  0  0  0  0
   -8.3961   -5.7777   -4.5157 H   0  0  0  0  0  0  0  0  0  0  0  0
    7.5241   -3.2175   -1.4402 H   0  0  0  0  0  0  0  0  0  0  0  0
    8.4694   -5.1458    1.4470 H   0  0  0  0  0  0  0  0  0  0  0  0
    8.0569   -5.1585   -0.2951 H   0  0  0  0  0  0  0  0  0  0  0  0
    6.7441   -4.7822    0.8762 H   0  0  0  0  0  0  0  0  0  0  0  0
  1  2  1  0
  2  3  1  0
  3  4  1  0
  4  5  1  0
  5  6  1  0
  6  7  2  0
  6  8  1  0
  8  9  1  0
  9 10  1  0
 10 11  1  0
 11 12  2  0
 11 13  1  0
 13 14  1  0
 14 15  1  0
 15 16  1  0
 16 17  1  0
 17 18  1  0
 18 19  1  0
 19 20  2  0
 19 21  1  0
 18 22  1  0
 22 23  1  0
 22 24  1  0
 24 25  2  0
 24 26  1  0
 26 27  1  0
 27 28  1  0
 28 29  2  0
 28 30  1  0
 30 31  1  0
 31 32  1  0
 32 33  2  0
 32 34  1  0
 34 35  1  0
 35 36  1  0
 36 37  2  0
 36 38  1  0
 38 39  1  0
 39 40  1  0
 40 41  2  0
 39 42  1  0
 38 43  1  0
 43 44  1  0
 44 45  1  0
 45 46  1  0
 46 47  2  0
 47 48  1  0
 34 49  1  0
 49 50  1  0
 50 51  2  0
 51 52  1  0
 52 53  2  0
 53 54  1  0
 54 55  2  0
 54 56  1  0
 56 57  2  0
 57 58  1  0
 58 59  2  0
 30 60  1  0
 60 61  1  0
 61 62  1  0
 62 63  1  0
 63 64  2  3
 64 65  1  0
 64 66  1  0
 26 67  1  0
 67 68  1  0
 68 69  2  0
 69 70  1  0
 70 71  1  0
 71 72  2  0
 72 73  1  0
 73 74  2  0
 74 75  1  0
 75 76  2  0
  5 77  1  0
 77 78  1  0
 78 79  2  0
 78 80  1  0
 40  9  1  0
 48 44  2  0
 55 50  1  0
 72 68  1  0
 59 53  1  0
 76 71  1  0
  1 81  1  0
  1 82  1  0
  1 83  1  0
  2 84  1  0
  2 85  1  0
  3 86  1  0
  3 87  1  0
  4 88  1  0
  4 89  1  0
  5 90  1  6
  8 91  1  0
  9 92  1  6
 10 93  1  0
 10 94  1  0
 13 95  1  0
 14 96  1  0
 14 97  1  0
 15 98  1  0
 15 99  1  0
 16100  1  0
 16101  1  0
 17102  1  0
 17103  1  0
 18104  1  6
 21105  1  0
 21106  1  0
 23107  1  0
 23108  1  0
 23109  1  0
 26110  1  6
 27111  1  0
 30112  1  1
 31113  1  0
 34114  1  6
 35115  1  0
 38116  1  1
 42117  1  0
 42118  1  0
 42119  1  0
 43120  1  0
 43121  1  0
 45122  1  0
 46123  1  0
 48124  1  0
 49125  1  0
 49126  1  0
 51127  1  0
 52128  1  0
 55129  1  0
 56130  1  0
 57131  1  0
 58132  1  0
 59133  1  0
 60134  1  0
 60135  1  0
 61136  1  0
 61137  1  0
 62138  1  0
 62139  1  0
 65140  1  0
 65141  1  0
 66142  1  0
 66143  1  0
 67144  1  0
 67145  1  0
 69146  1  0
 70147  1  0
 73148  1  0
 74149  1  0
 75150  1  0
 76151  1  0
 77152  1  0
 80153  1  0
 80154  1  0
 80155  1  0
M  END
>  <Ligand ID>  (1) 
LIG0001814

>  <Ligand>  (1) 
CHEMBL3600839

>  <SMILES>  (1) 
CCCC[C@H](C(=O)N[C@H]1CC(=O)NCCCC[C@@H](C(=O)N)N(C)C(=O)[C@@H](NC(=O)[C@@H](NC(=O)[C@H](NC(=O)[C@@H](N(C1=O)C)Cc1[nH]cnc1)Cc1ccc2c(c1)cccc2)CCCN=C(N)N)Cc1c[nH]c2c1cccc2)NC(=O)C

>  <CID>  (1) 
122184578.0

>  <ChEMBL ID>  (1) 
nan

>  <InChiKey>  (1) 
CQUKLRIOLMQYDE-STRGRRRESA-N

>  <InChi>  (1) 
InChI=1S/C56H75N15O9/c1-5-6-17-41(65-33(2)72)50(75)69-45-29-48(73)61-23-12-11-20-46(49(57)74)70(3)54(79)44(27-37-30-63-40-18-10-9-16-39(37)40)68-51(76)42(19-13-24-62-56(58)59)66-52(77)43(26-34-21-22-35-14-7-8-15-36(35)25-34)67-53(78)47(71(4)55(45)80)28-38-31-60-32-64-38/h7-10,14-16,18,21-22,25,30-32,41-47,63H,5-6,11-13,17,19-20,23-24,26-29H2,1-4H3,(H2,57,74)(H,60,64)(H,61,73)(H,65,72)(H,66,77)(H,67,78)(H,68,76)(H,69,75)(H4,58,59,62)/t41-,42+,43-,44+,45+,46+,47+/m1/s1

>  <IUPAC Name>  (1) 
(3S,6S,9R,12S,15S,23S)-15-[[(2R)-2-acetamidohexanoyl]amino]-6-[3-(diaminomethylideneamino)propyl]-12-(1H-imidazol-5-ylmethyl)-3-(1H-indol-3-ylmethyl)-1,13-dimethyl-9-(naphthalen-2-ylmethyl)-2,5,8,11,14,17-hexaoxo-1,4,7,10,13,18-hexazacyclotricosane-23-carboxamide

$$$$
