
     RDKit          3D

 36 38  0  0  0  0  0  0  0  0999 V2000
    4.0798   -2.2949   -0.0996 C   0  0  0  0  0  0  0  0  0  0  0  0
    3.2676   -1.1190   -0.1260 O   0  0  0  0  0  0  0  0  0  0  0  0
    1.9393   -1.1736    0.3106 C   0  0  0  0  0  0  0  0  0  0  0  0
    1.5409   -2.2987    0.7106 O   0  0  0  0  0  0  0  0  0  0  0  0
    1.0969    0.0167    0.2903 C   0  0  0  0  0  0  0  0  0  0  0  0
    1.4584    1.2235   -0.1166 C   0  0  0  0  0  0  0  0  0  0  0  0
    2.7627    1.5209   -0.6034 N   0  0  0  0  0  0  0  0  0  0  0  0
    0.3203    2.1235    0.0308 C   0  0  0  0  0  0  0  0  0  0  0  0
   -0.7720    1.4241    0.5493 C   0  0  0  0  0  0  0  0  0  0  0  0
   -0.3195    0.0384    0.7336 C   0  0  0  0  0  0  0  0  0  0  0  0
   -0.3012   -0.3139    2.1738 C   0  0  0  0  0  0  0  0  0  0  0  0
   -0.2835   -0.5726    3.3096 N   0  0  0  0  0  0  0  0  0  0  0  0
   -1.1742   -0.9505    0.0600 C   0  0  0  0  0  0  0  0  0  0  0  0
   -2.4229   -1.1941    0.5926 C   0  0  0  0  0  0  0  0  0  0  0  0
   -3.2718   -2.1091    0.0049 C   0  0  0  0  0  0  0  0  0  0  0  0
   -2.8790   -2.8041   -1.1405 C   0  0  0  0  0  0  0  0  0  0  0  0
   -1.6392   -2.5702   -1.6795 C   0  0  0  0  0  0  0  0  0  0  0  0
   -0.8221   -1.6534   -1.0681 C   0  0  0  0  0  0  0  0  0  0  0  0
   -1.9169    2.1490    0.7439 C   0  0  0  0  0  0  0  0  0  0  0  0
   -2.0069    3.4982    0.4498 C   0  0  0  0  0  0  0  0  0  0  0  0
   -0.9241    4.1826   -0.0622 C   0  0  0  0  0  0  0  0  0  0  0  0
    0.2360    3.4755   -0.2657 C   0  0  0  0  0  0  0  0  0  0  0  0
    4.8608   -2.2176    0.6882 H   0  0  0  0  0  0  0  0  0  0  0  0
    4.5926   -2.3727   -1.0603 H   0  0  0  0  0  0  0  0  0  0  0  0
    3.4252   -3.1515    0.0941 H   0  0  0  0  0  0  0  0  0  0  0  0
    2.9309    1.7320   -1.6160 H   0  0  0  0  0  0  0  0  0  0  0  0
    3.5837    1.5332    0.0519 H   0  0  0  0  0  0  0  0  0  0  0  0
   -2.8033   -0.6965    1.4807 H   0  0  0  0  0  0  0  0  0  0  0  0
   -4.2640   -2.2943    0.4385 H   0  0  0  0  0  0  0  0  0  0  0  0
   -3.5740   -3.5042   -1.5596 H   0  0  0  0  0  0  0  0  0  0  0  0
   -1.3085   -3.1060   -2.5815 H   0  0  0  0  0  0  0  0  0  0  0  0
    0.1477   -1.4831   -1.5080 H   0  0  0  0  0  0  0  0  0  0  0  0
   -2.7819    1.6739    1.1356 H   0  0  0  0  0  0  0  0  0  0  0  0
   -2.9347    4.0445    0.6171 H   0  0  0  0  0  0  0  0  0  0  0  0
   -0.9430    5.2373   -0.3086 H   0  0  0  0  0  0  0  0  0  0  0  0
    1.0997    4.0067   -0.6703 H   0  0  0  0  0  0  0  0  0  0  0  0
  1  2  1  0
  2  3  1  0
  3  4  2  0
  3  5  1  0
  5  6  2  0
  6  7  1  0
  6  8  1  0
  8  9  2  0
  9 10  1  0
 10 11  1  0
 11 12  3  0
 10 13  1  0
 13 14  2  0
 14 15  1  0
 15 16  2  0
 16 17  1  0
 17 18  2  0
  9 19  1  0
 19 20  2  0
 20 21  1  0
 21 22  2  0
 10  5  1  0
 18 13  1  0
 22  8  1  0
  1 23  1  0
  1 24  1  0
  1 25  1  0
  7 26  1  0
  7 27  1  0
 14 28  1  0
 15 29  1  0
 16 30  1  0
 17 31  1  0
 18 32  1  0
 19 33  1  0
 20 34  1  0
 21 35  1  0
 22 36  1  0
M  END
>  <Ligand ID>  (1) 
LIG0004710

>  <Ligand>  (1) 
116617-18-6

>  <SMILES>  (1) 
COC(=O)C1=C(N)c2c(C1(C#N)c1ccccc1)cccc2

>  <CID>  (1) 
2764499.0

>  <ChEMBL ID>  (1) 
nan

>  <InChiKey>  (1) 
KFLDWHRPRZSDAU-UHFFFAOYSA-N

>  <InChi>  (1) 
InChI=1S/C18H14N2O2/c1-22-17(21)15-16(20)13-9-5-6-10-14(13)18(15,11-19)12-7-3-2-4-8-12/h2-10H,20H2,1H3

>  <IUPAC Name>  (1) 
methyl 3-amino-1-cyano-1-phenylindene-2-carboxylate

$$$$
