
     RDKit          3D

 76 80  0  0  0  0  0  0  0  0999 V2000
   -7.7303    4.4543    2.3510 C   0  0  0  0  0  0  0  0  0  0  0  0
   -7.4967    3.8402    1.0990 O   0  0  0  0  0  0  0  0  0  0  0  0
   -6.3785    3.0553    0.9161 C   0  0  0  0  0  0  0  0  0  0  0  0
   -5.4288    2.7944    1.8562 C   0  0  0  0  0  0  0  0  0  0  0  0
   -4.3157    1.9982    1.6355 C   0  0  0  0  0  0  0  0  0  0  0  0
   -4.1634    1.4353    0.3807 C   0  0  0  0  0  0  0  0  0  0  0  0
   -5.1164    1.6883   -0.5867 C   0  0  0  0  0  0  0  0  0  0  0  0
   -6.2042    2.4775   -0.3401 C   0  0  0  0  0  0  0  0  0  0  0  0
   -3.0700    0.6006    0.0321 N   0  0  0  0  0  0  0  0  0  0  0  0
   -3.0742   -0.7860    0.1775 N   0  0  0  0  0  0  0  0  0  0  0  0
   -2.0961   -1.5480   -0.1309 C   0  0  0  0  0  0  0  0  0  0  0  0
   -2.1990   -3.3082    0.0906 S   0  0  0  0  0  0  0  0  0  0  0  0
   -3.7291   -3.8788    0.7368 C   0  0  0  0  0  0  0  0  0  0  0  0
   -4.8156   -3.1175    1.0703 C   0  0  0  0  0  0  0  0  0  0  0  0
   -5.9759   -3.6743    1.5748 C   0  0  0  0  0  0  0  0  0  0  0  0
   -6.1241   -5.0287    1.7778 C   0  0  0  0  0  0  0  0  0  0  0  0
   -5.0167   -5.8144    1.4383 C   0  0  0  0  0  0  0  0  0  0  0  0
   -3.8656   -5.2589    0.9380 C   0  0  0  0  0  0  0  0  0  0  0  0
   -7.5912   -5.7213    2.4146 Cl  0  0  0  0  0  0  0  0  0  0  0  0
   -0.8048   -1.0165   -0.6827 C   0  0  0  0  0  0  0  0  0  0  0  0
   -1.0674    0.2658   -1.3868 C   0  0  0  0  0  0  0  0  0  0  0  0
   -1.8551    1.1583   -0.5084 C   0  0  0  0  0  0  0  0  0  0  0  0
   -1.5335    2.3345   -0.2179 O   0  0  0  0  0  0  0  0  0  0  0  0
    0.2260    0.9420   -1.8332 C   0  0  0  0  0  0  0  0  0  0  0  0
    0.9337    0.0198   -2.7581 C   0  0  0  0  0  0  0  0  0  0  0  0
    2.2430    0.5728   -3.2809 C   0  0  2  0  0  0  0  0  0  0  0  0
    3.1780    0.8562   -2.2283 N   0  0  0  0  0  0  0  0  0  0  0  0
    4.4508    0.2214   -2.1101 C   0  0  0  0  0  0  0  0  0  0  0  0
    4.7442   -0.6262   -2.9915 O   0  0  0  0  0  0  0  0  0  0  0  0
    5.3480    0.5805   -0.9818 C   0  0  1  0  0  0  0  0  0  0  0  0
    5.7145    2.0220   -0.9161 C   0  0  0  0  0  0  0  0  0  0  0  0
    5.3254    2.5249    0.3828 N   0  0  0  0  0  0  0  0  0  0  0  0
    4.5862    1.4926    1.0661 C   0  0  0  0  0  0  0  0  0  0  0  0
    4.7762    0.2002    0.3522 C   0  0  2  0  0  0  0  0  0  0  0  0
    5.6146   -0.7842    1.0839 C   0  0  0  0  0  0  0  0  0  0  0  0
    6.8952   -0.3741    1.4206 C   0  0  0  0  0  0  0  0  0  0  0  0
    7.7297   -1.2503    2.1067 C   0  0  0  0  0  0  0  0  0  0  0  0
    7.2470   -2.5081    2.4300 C   0  0  0  0  0  0  0  0  0  0  0  0
    5.9868   -2.9006    2.0940 C   0  0  0  0  0  0  0  0  0  0  0  0
    5.1270   -2.0427    1.4054 C   0  0  0  0  0  0  0  0  0  0  0  0
    8.0833   -3.3499    3.1014 F   0  0  0  0  0  0  0  0  0  0  0  0
    2.0128    1.7530   -4.1935 C   0  0  0  0  0  0  0  0  0  0  0  0
   -8.2598    3.7560    3.0218 H   0  0  0  0  0  0  0  0  0  0  0  0
   -8.3917    5.3368    2.1755 H   0  0  0  0  0  0  0  0  0  0  0  0
   -6.7896    4.8209    2.8126 H   0  0  0  0  0  0  0  0  0  0  0  0
   -5.5278    3.2161    2.8311 H   0  0  0  0  0  0  0  0  0  0  0  0
   -3.5817    1.8098    2.3954 H   0  0  0  0  0  0  0  0  0  0  0  0
   -5.0014    1.2558   -1.5548 H   0  0  0  0  0  0  0  0  0  0  0  0
   -6.9150    2.6358   -1.1424 H   0  0  0  0  0  0  0  0  0  0  0  0
   -4.8017   -2.0573    0.9499 H   0  0  0  0  0  0  0  0  0  0  0  0
   -6.8186   -3.0208    1.8265 H   0  0  0  0  0  0  0  0  0  0  0  0
   -5.1020   -6.8873    1.5870 H   0  0  0  0  0  0  0  0  0  0  0  0
   -3.0567   -5.9243    0.6990 H   0  0  0  0  0  0  0  0  0  0  0  0
   -0.3905   -1.8122   -1.3348 H   0  0  0  0  0  0  0  0  0  0  0  0
   -0.0846   -0.8748    0.1438 H   0  0  0  0  0  0  0  0  0  0  0  0
   -1.6685    0.0768   -2.3034 H   0  0  0  0  0  0  0  0  0  0  0  0
   -0.0260    1.9202   -2.2691 H   0  0  0  0  0  0  0  0  0  0  0  0
    0.7815    1.1537   -0.8977 H   0  0  0  0  0  0  0  0  0  0  0  0
    0.2890   -0.1386   -3.6470 H   0  0  0  0  0  0  0  0  0  0  0  0
    1.1659   -0.9252   -2.2434 H   0  0  0  0  0  0  0  0  0  0  0  0
    2.6852   -0.2258   -3.9097 H   0  0  0  0  0  0  0  0  0  0  0  0
    2.9387    1.5652   -1.4910 H   0  0  0  0  0  0  0  0  0  0  0  0
    6.2644   -0.0514   -1.1199 H   0  0  0  0  0  0  0  0  0  0  0  0
    5.1460    2.6027   -1.6730 H   0  0  0  0  0  0  0  0  0  0  0  0
    6.8027    2.1976   -1.0687 H   0  0  0  0  0  0  0  0  0  0  0  0
    6.1048    2.9202    0.9271 H   0  0  0  0  0  0  0  0  0  0  0  0
    4.8788    1.4364    2.1517 H   0  0  0  0  0  0  0  0  0  0  0  0
    3.5182    1.7863    1.0688 H   0  0  0  0  0  0  0  0  0  0  0  0
    3.7844   -0.2665    0.1646 H   0  0  0  0  0  0  0  0  0  0  0  0
    7.2670    0.5967    1.1705 H   0  0  0  0  0  0  0  0  0  0  0  0
    8.7311   -0.9525    2.3780 H   0  0  0  0  0  0  0  0  0  0  0  0
    5.6233   -3.8891    2.3535 H   0  0  0  0  0  0  0  0  0  0  0  0
    4.1184   -2.3396    1.1311 H   0  0  0  0  0  0  0  0  0  0  0  0
    1.1776    1.4454   -4.8643 H   0  0  0  0  0  0  0  0  0  0  0  0
    1.6712    2.6494   -3.6617 H   0  0  0  0  0  0  0  0  0  0  0  0
    2.8970    1.8837   -4.8390 H   0  0  0  0  0  0  0  0  0  0  0  0
  1  2  1  0
  2  3  1  0
  3  4  2  0
  4  5  1  0
  5  6  2  0
  6  7  1  0
  7  8  2  0
  6  9  1  0
  9 10  1  0
 10 11  2  0
 11 12  1  0
 12 13  1  0
 13 14  2  0
 14 15  1  0
 15 16  2  0
 16 17  1  0
 17 18  2  0
 16 19  1  0
 11 20  1  0
 20 21  1  0
 21 22  1  0
 22 23  2  0
 21 24  1  0
 24 25  1  0
 25 26  1  0
 26 27  1  0
 27 28  1  0
 28 29  2  0
 28 30  1  0
 30 31  1  0
 31 32  1  0
 32 33  1  0
 33 34  1  0
 34 35  1  0
 35 36  2  0
 36 37  1  0
 37 38  2  0
 38 39  1  0
 39 40  2  0
 38 41  1  0
 26 42  1  0
  8  3  1  0
 22  9  1  0
 34 30  1  0
 40 35  1  0
 18 13  1  0
  1 43  1  0
  1 44  1  0
  1 45  1  0
  4 46  1  0
  5 47  1  0
  7 48  1  0
  8 49  1  0
 14 50  1  0
 15 51  1  0
 17 52  1  0
 18 53  1  0
 20 54  1  0
 20 55  1  0
 21 56  1  0
 24 57  1  0
 24 58  1  0
 25 59  1  0
 25 60  1  0
 26 61  1  6
 27 62  1  0
 30 63  1  6
 31 64  1  0
 31 65  1  0
 32 66  1  0
 33 67  1  0
 33 68  1  0
 34 69  1  6
 36 70  1  0
 37 71  1  0
 39 72  1  0
 40 73  1  0
 42 74  1  0
 42 75  1  0
 42 76  1  0
M  END
>  <Ligand ID>  (1) 
LIG0005477

>  <Ligand>  (1) 
CHEMBL2113039

>  <SMILES>  (1) 
COc1ccc(cc1)N1N=C(Sc2ccc(cc2)Cl)CC(C1=O)CC[C@H](NC(=O)[C@H]1CNC[C@@H]1c1ccc(cc1)F)C

>  <CID>  (1) 
71456245.0

>  <ChEMBL ID>  (1) 
nan

>  <InChiKey>  (1) 
JPRKCJZGKZFHOW-URFYWOEGSA-N

>  <InChi>  (1) 
InChI=1S/C32H34ClFN4O3S/c1-20(36-31(39)29-19-35-18-28(29)21-5-9-24(34)10-6-21)3-4-22-17-30(42-27-15-7-23(33)8-16-27)37-38(32(22)40)25-11-13-26(41-2)14-12-25/h5-16,20,22,28-29,35H,3-4,17-19H2,1-2H3,(H,36,39)/t20-,22?,28-,29+/m1/s1

>  <IUPAC Name>  (1) 
(3R,4S)-N-[(2R)-4-[6-(4-chlorophenyl)sulfanyl-2-(4-methoxyphenyl)-3-oxo-4,5-dihydropyridazin-4-yl]butan-2-yl]-4-(4-fluorophenyl)pyrrolidine-3-carboxamide

$$$$
