
     RDKit          3D

 21 21  0  0  0  0  0  0  0  0999 V2000
    3.4478    0.7277   -1.3065 O   0  0  0  0  0  0  0  0  0  0  0  0
    2.4427    0.4252   -0.3658 C   0  0  0  0  0  0  0  0  0  0  0  0
    2.1540    1.3374    0.4322 O   0  0  0  0  0  0  0  0  0  0  0  0
    1.8585   -0.9144   -0.4337 C   0  0  0  0  0  0  0  0  0  0  0  0
    0.7903   -1.2458    0.5442 C   0  0  0  0  0  0  0  0  0  0  0  0
   -0.4156   -0.4275    0.5085 C   0  0  0  0  0  0  0  0  0  0  0  0
   -1.4122   -0.7944   -0.4068 C   0  0  0  0  0  0  0  0  0  0  0  0
   -2.5974   -0.0987   -0.5109 C   0  0  0  0  0  0  0  0  0  0  0  0
   -2.8539    1.0094    0.2994 C   0  0  0  0  0  0  0  0  0  0  0  0
   -1.8693    1.3635    1.1969 C   0  0  0  0  0  0  0  0  0  0  0  0
   -0.6887    0.6572    1.2893 C   0  0  0  0  0  0  0  0  0  0  0  0
    3.7714    1.6851   -1.4251 H   0  0  0  0  0  0  0  0  0  0  0  0
    1.4588   -1.1470   -1.4459 H   0  0  0  0  0  0  0  0  0  0  0  0
    2.7109   -1.6463   -0.2851 H   0  0  0  0  0  0  0  0  0  0  0  0
    1.1843   -1.3361    1.5992 H   0  0  0  0  0  0  0  0  0  0  0  0
    0.4806   -2.3102    0.3136 H   0  0  0  0  0  0  0  0  0  0  0  0
   -1.2561   -1.6612   -1.0674 H   0  0  0  0  0  0  0  0  0  0  0  0
   -3.3788   -0.3726   -1.2165 H   0  0  0  0  0  0  0  0  0  0  0  0
   -3.7896    1.5396    0.2003 H   0  0  0  0  0  0  0  0  0  0  0  0
   -2.0611    2.2185    1.8258 H   0  0  0  0  0  0  0  0  0  0  0  0
    0.0233    0.9904    2.0226 H   0  0  0  0  0  0  0  0  0  0  0  0
  1  2  1  0
  2  3  2  0
  2  4  1  0
  4  5  1  0
  5  6  1  0
  6  7  2  0
  7  8  1  0
  8  9  2  0
  9 10  1  0
 10 11  2  0
 11  6  1  0
  1 12  1  0
  4 13  1  0
  4 14  1  0
  5 15  1  0
  5 16  1  0
  7 17  1  0
  8 18  1  0
  9 19  1  0
 10 20  1  0
 11 21  1  0
M  END
>  <Ligand ID>  (1) 
LIG0000569

>  <Ligand>  (1) 
Hydrocinnamic acid

>  <SMILES>  (1) 
OC(=O)CCc1ccccc1

>  <CID>  (1) 
107.0

>  <ChEMBL ID>  (1) 
nan

>  <InChiKey>  (1) 
XMIIGOLPHOKFCH-UHFFFAOYSA-N

>  <InChi>  (1) 
InChI=1S/C9H10O2/c10-9(11)7-6-8-4-2-1-3-5-8/h1-5H,6-7H2,(H,10,11)

>  <IUPAC Name>  (1) 
3-phenylpropanoic acid

$$$$
