
     RDKit          3D

 51 53  0  0  0  0  0  0  0  0999 V2000
    0.3638   -3.8224    0.9128 Cl  0  0  0  0  0  0  0  0  0  0  0  0
    1.7826   -2.7900    0.8410 C   0  0  0  0  0  0  0  0  0  0  0  0
    2.9042   -3.2247    0.1652 C   0  0  0  0  0  0  0  0  0  0  0  0
    4.0127   -2.4092    0.1134 C   0  0  0  0  0  0  0  0  0  0  0  0
    4.0096   -1.1578    0.7340 C   0  0  0  0  0  0  0  0  0  0  0  0
    2.8948   -0.7083    1.4144 C   0  0  0  0  0  0  0  0  0  0  0  0
    1.7930   -1.5407    1.4550 C   0  0  0  0  0  0  0  0  0  0  0  0
    0.5654   -1.1600    2.1475 C   0  0  0  0  0  0  0  0  0  0  0  0
    0.4458   -1.4704    3.3778 O   0  0  0  0  0  0  0  0  0  0  0  0
   -0.4627   -0.4582    1.4463 N   0  0  0  0  0  0  0  0  0  0  0  0
   -0.3103   -0.1114    0.0428 C   0  0  0  0  0  0  0  0  0  0  0  0
   -1.6324   -0.0467   -0.6792 C   0  0  0  0  0  0  0  0  0  0  0  0
   -2.6764    0.5288    0.1471 N   0  0  0  0  0  0  0  0  0  0  0  0
   -2.2941    1.0633    1.4259 C   0  0  0  0  0  0  0  0  0  0  0  0
   -1.6710   -0.1053    2.1994 C   0  0  0  0  0  0  0  0  0  0  0  0
   -3.9922    0.5200   -0.3699 C   0  0  0  0  0  0  0  0  0  0  0  0
   -4.2050   -0.0252   -1.6175 C   0  0  0  0  0  0  0  0  0  0  0  0
   -5.4901   -0.0550   -2.1673 C   0  0  0  0  0  0  0  0  0  0  0  0
   -6.5811    0.4479   -1.5036 C   0  0  0  0  0  0  0  0  0  0  0  0
   -6.3684    0.9934   -0.2552 C   0  0  0  0  0  0  0  0  0  0  0  0
   -5.0909    1.0223    0.2899 C   0  0  0  0  0  0  0  0  0  0  0  0
   -7.8797    0.4084   -2.0797 N   0  0  0  0  0  0  0  0  0  0  0  0
   -8.8423    0.8814   -1.4323 O   0  0  0  0  0  0  0  0  0  0  0  0
   -8.1228   -0.1331   -3.3306 O   0  0  0  0  0  0  0  0  0  0  0  0
    5.4590   -0.2124    0.6063 S   0  0  0  0  0  0  0  0  0  0  0  0
    5.5042    0.6579    1.8544 O   0  0  0  0  0  0  0  0  0  0  0  0
    6.6366   -1.1070    0.6204 O   0  0  0  0  0  0  0  0  0  0  0  0
    5.5107    0.8034   -0.7344 N   0  0  0  0  0  0  0  0  0  0  0  0
    4.5142    1.8111   -0.8320 C   0  0  0  0  0  0  0  0  0  0  0  0
    6.7889    1.1547   -1.2379 C   0  0  0  0  0  0  0  0  0  0  0  0
    2.9215   -4.1965   -0.3228 H   0  0  0  0  0  0  0  0  0  0  0  0
    4.8723   -2.7785   -0.4225 H   0  0  0  0  0  0  0  0  0  0  0  0
    2.8869    0.2519    1.8928 H   0  0  0  0  0  0  0  0  0  0  0  0
    0.2652    0.8033   -0.1224 H   0  0  0  0  0  0  0  0  0  0  0  0
    0.2888   -0.9487   -0.3969 H   0  0  0  0  0  0  0  0  0  0  0  0
   -1.5289    0.6053   -1.5706 H   0  0  0  0  0  0  0  0  0  0  0  0
   -1.9412   -1.0675   -0.9802 H   0  0  0  0  0  0  0  0  0  0  0  0
   -1.4461    1.7943    1.3022 H   0  0  0  0  0  0  0  0  0  0  0  0
   -3.0876    1.5570    1.9851 H   0  0  0  0  0  0  0  0  0  0  0  0
   -1.4479    0.3002    3.1989 H   0  0  0  0  0  0  0  0  0  0  0  0
   -2.3105   -0.9925    2.1967 H   0  0  0  0  0  0  0  0  0  0  0  0
   -3.4275   -0.4504   -2.2333 H   0  0  0  0  0  0  0  0  0  0  0  0
   -5.6496   -0.4824   -3.1432 H   0  0  0  0  0  0  0  0  0  0  0  0
   -7.2295    1.3952    0.2794 H   0  0  0  0  0  0  0  0  0  0  0  0
   -4.9780    1.4580    1.2658 H   0  0  0  0  0  0  0  0  0  0  0  0
    3.6161    1.5286   -0.2497 H   0  0  0  0  0  0  0  0  0  0  0  0
    4.9330    2.7251   -0.3165 H   0  0  0  0  0  0  0  0  0  0  0  0
    4.2530    2.1081   -1.8541 H   0  0  0  0  0  0  0  0  0  0  0  0
    6.8895    1.0569   -2.3485 H   0  0  0  0  0  0  0  0  0  0  0  0
    7.5574    0.5661   -0.7011 H   0  0  0  0  0  0  0  0  0  0  0  0
    6.9971    2.2224   -1.0129 H   0  0  0  0  0  0  0  0  0  0  0  0
  1  2  1  0
  2  3  2  0
  3  4  1  0
  4  5  2  0
  5  6  1  0
  6  7  2  0
  7  8  1  0
  8  9  2  0
  8 10  1  0
 10 11  1  0
 11 12  1  0
 12 13  1  0
 13 14  1  0
 14 15  1  0
 13 16  1  0
 16 17  2  0
 17 18  1  0
 18 19  2  0
 19 20  1  0
 20 21  2  0
 19 22  1  0
 22 23  2  0
 22 24  1  0
  5 25  1  0
 25 26  2  0
 25 27  2  0
 25 28  1  0
 28 29  1  0
 28 30  1  0
  7  2  1  0
 15 10  1  0
 21 16  1  0
  3 31  1  0
  4 32  1  0
  6 33  1  0
 11 34  1  0
 11 35  1  0
 12 36  1  0
 12 37  1  0
 14 38  1  0
 14 39  1  0
 15 40  1  0
 15 41  1  0
 17 42  1  0
 18 43  1  0
 20 44  1  0
 21 45  1  0
 29 46  1  0
 29 47  1  0
 29 48  1  0
 30 49  1  0
 30 50  1  0
 30 51  1  0
M  CHG  2  22   1  24  -1
M  END
>  <Ligand ID>  (1) 
LIG0001964

>  <Ligand>  (1) 
MLS-0435527.0001

>  <SMILES>  (1) 
Clc1ccc(cc1C(=O)N1CCN(CC1)c1ccc(cc1)[N+](=O)[O-])S(=O)(=O)N(C)C

>  <CID>  (1) 
3504306.0

>  <ChEMBL ID>  (1) 
nan

>  <InChiKey>  (1) 
GKNXJUJJBXPUBJ-UHFFFAOYSA-N

>  <InChi>  (1) 
InChI=1S/C19H21ClN4O5S/c1-21(2)30(28,29)16-7-8-18(20)17(13-16)19(25)23-11-9-22(10-12-23)14-3-5-15(6-4-14)24(26)27/h3-8,13H,9-12H2,1-2H3

>  <IUPAC Name>  (1) 
4-chloro-N,N-dimethyl-3-[4-(4-nitrophenyl)piperazine-1-carbonyl]benzenesulfonamide

$$$$
