
     RDKit          3D

114118  0  0  0  0  0  0  0  0999 V2000
    1.2429    6.3559    3.6949 N   0  0  0  0  0  0  0  0  0  0  0  0
    0.0198    6.4356    2.9618 C   0  0  0  0  0  0  0  0  0  0  0  0
    0.0272    6.0930    1.7347 N   0  0  0  0  0  0  0  0  0  0  0  0
    1.1889    5.6283    1.0307 C   0  0  0  0  0  0  0  0  0  0  0  0
    0.9056    4.3149    0.3027 C   0  0  0  0  0  0  0  0  0  0  0  0
    0.5050    3.3009    1.3173 C   0  0  0  0  0  0  0  0  0  0  0  0
    0.1738    1.9472    0.7902 C   0  0  1  0  0  0  0  0  0  0  0  0
   -0.9739    2.0204   -0.1548 N   0  0  0  0  0  0  0  0  0  0  0  0
   -2.2069    1.3827    0.1419 C   0  0  0  0  0  0  0  0  0  0  0  0
   -2.2332    0.7983    1.2453 O   0  0  0  0  0  0  0  0  0  0  0  0
   -3.4099    1.3457   -0.6964 C   0  0  2  0  0  0  0  0  0  0  0  0
   -4.0814    2.6469   -0.9696 C   0  0  0  0  0  0  0  0  0  0  0  0
   -3.3270    3.6921   -1.6594 C   0  0  0  0  0  0  0  0  0  0  0  0
   -3.3047    3.6383   -3.0607 C   0  0  0  0  0  0  0  0  0  0  0  0
   -2.6597    4.6050   -3.8013 C   0  0  0  0  0  0  0  0  0  0  0  0
   -2.0023    5.6755   -3.2041 C   0  0  0  0  0  0  0  0  0  0  0  0
   -2.0391    5.7044   -1.8217 C   0  0  0  0  0  0  0  0  0  0  0  0
   -2.6783    4.7478   -1.0627 C   0  0  0  0  0  0  0  0  0  0  0  0
   -4.4593    0.5354   -0.0378 N   0  0  0  0  0  0  0  0  0  0  0  0
   -5.0963   -0.5811   -0.7107 C   0  0  0  0  0  0  0  0  0  0  0  0
   -4.6490   -0.7790   -1.8515 O   0  0  0  0  0  0  0  0  0  0  0  0
   -6.1257   -1.2929   -0.0053 C   0  0  0  0  0  0  0  0  0  0  0  0
   -7.3881   -1.6250   -0.7655 C   0  0  0  0  0  0  0  0  0  0  0  0
   -8.0685   -2.6420    0.1071 C   0  0  0  0  0  0  0  0  0  0  0  0
   -7.0434   -2.9629    1.1942 C   0  0  0  0  0  0  0  0  0  0  0  0
   -5.7932   -2.5544    0.6365 N   0  0  0  0  0  0  0  0  0  0  0  0
   -4.5132   -3.1735    0.5833 C   0  0  0  0  0  0  0  0  0  0  0  0
   -3.7418   -2.6003   -0.2062 O   0  0  0  0  0  0  0  0  0  0  0  0
   -4.2564   -4.3425    1.4084 C   0  0  0  0  0  0  0  0  0  0  0  0
   -3.2552   -5.3492    1.0482 C   0  0  0  0  0  0  0  0  0  0  0  0
   -1.9213   -4.9037    0.6371 C   0  0  0  0  0  0  0  0  0  0  0  0
   -1.6471   -3.9828   -0.1530 O   0  0  0  0  0  0  0  0  0  0  0  0
   -0.7010   -5.5311    1.1515 N   0  0  0  0  0  0  0  0  0  0  0  0
    0.5685   -5.0397    0.6431 C   0  0  0  0  0  0  0  0  0  0  0  0
    1.7044   -5.5922    1.4272 C   0  0  0  0  0  0  0  0  0  0  0  0
    3.0702   -5.2737    0.9343 C   0  0  0  0  0  0  0  0  0  0  0  0
    3.3499   -3.8581    0.5970 C   0  0  0  0  0  0  0  0  0  0  0  0
    3.0760   -2.9269    1.7580 C   0  0  2  0  0  0  0  0  0  0  0  0
    3.2205   -1.5370    1.3511 N   0  0  0  0  0  0  0  0  0  0  0  0
    3.5602   -1.0711    0.0675 C   0  0  0  0  0  0  0  0  0  0  0  0
    3.9475   -1.8728   -0.7708 O   0  0  0  0  0  0  0  0  0  0  0  0
    3.4958    0.3745   -0.3506 C   0  0  1  0  0  0  0  0  0  0  0  0
    2.5715    1.0014    0.5740 N   0  0  0  0  0  0  0  0  0  0  0  0
    1.2796    1.3130    0.0561 C   0  0  0  0  0  0  0  0  0  0  0  0
    1.0875    1.0105   -1.1350 O   0  0  0  0  0  0  0  0  0  0  0  0
    4.8700    0.9916   -0.3548 C   0  0  0  0  0  0  0  0  0  0  0  0
    5.7333    0.2466   -1.3140 C   0  0  0  0  0  0  0  0  0  0  0  0
    6.7185   -0.6861   -1.0054 C   0  0  0  0  0  0  0  0  0  0  0  0
    7.2798   -1.1485   -2.1225 N   0  0  0  0  0  0  0  0  0  0  0  0
    6.6810   -0.5365   -3.1582 C   0  0  0  0  0  0  0  0  0  0  0  0
    5.7112    0.3417   -2.7082 C   0  0  0  0  0  0  0  0  0  0  0  0
    4.9647    1.0822   -3.5937 C   0  0  0  0  0  0  0  0  0  0  0  0
    5.1436    0.9879   -4.9678 C   0  0  0  0  0  0  0  0  0  0  0  0
    6.1194    0.1046   -5.4251 C   0  0  0  0  0  0  0  0  0  0  0  0
    6.8660   -0.6361   -4.5382 C   0  0  0  0  0  0  0  0  0  0  0  0
    3.9387   -3.1937    2.8965 C   0  0  0  0  0  0  0  0  0  0  0  0
    4.6615   -2.2304    3.3293 O   0  0  0  0  0  0  0  0  0  0  0  0
    4.0703   -4.4191    3.5904 N   0  0  0  0  0  0  0  0  0  0  0  0
   -1.1711    6.8798    3.5724 N   0  0  0  0  0  0  0  0  0  0  0  0
    1.5657    5.4126    3.9994 H   0  0  0  0  0  0  0  0  0  0  0  0
    1.7472    7.2476    3.8855 H   0  0  0  0  0  0  0  0  0  0  0  0
    1.4824    6.4409    0.3214 H   0  0  0  0  0  0  0  0  0  0  0  0
    2.0453    5.5138    1.7320 H   0  0  0  0  0  0  0  0  0  0  0  0
    1.8897    4.0037   -0.1530 H   0  0  0  0  0  0  0  0  0  0  0  0
    0.1360    4.4862   -0.4380 H   0  0  0  0  0  0  0  0  0  0  0  0
    1.2276    3.2591    2.1427 H   0  0  0  0  0  0  0  0  0  0  0  0
   -0.4444    3.6837    1.7999 H   0  0  0  0  0  0  0  0  0  0  0  0
   -0.1334    1.3301    1.6566 H   0  0  0  0  0  0  0  0  0  0  0  0
   -0.9270    2.5122   -1.0419 H   0  0  0  0  0  0  0  0  0  0  0  0
   -3.2083    0.8800   -1.6960 H   0  0  0  0  0  0  0  0  0  0  0  0
   -4.4964    3.0044    0.0152 H   0  0  0  0  0  0  0  0  0  0  0  0
   -5.0269    2.5018   -1.5818 H   0  0  0  0  0  0  0  0  0  0  0  0
   -3.8069    2.8144   -3.5912 H   0  0  0  0  0  0  0  0  0  0  0  0
   -2.6516    4.5474   -4.9007 H   0  0  0  0  0  0  0  0  0  0  0  0
   -1.4934    6.4411   -3.7698 H   0  0  0  0  0  0  0  0  0  0  0  0
   -1.5240    6.5426   -1.3528 H   0  0  0  0  0  0  0  0  0  0  0  0
   -2.6941    4.7918    0.0353 H   0  0  0  0  0  0  0  0  0  0  0  0
   -4.7865    0.7121    0.9042 H   0  0  0  0  0  0  0  0  0  0  0  0
   -6.4997   -0.6593    0.8641 H   0  0  0  0  0  0  0  0  0  0  0  0
   -7.1417   -2.0283   -1.7869 H   0  0  0  0  0  0  0  0  0  0  0  0
   -8.0431   -0.7450   -0.9276 H   0  0  0  0  0  0  0  0  0  0  0  0
   -8.9701   -2.1646    0.5550 H   0  0  0  0  0  0  0  0  0  0  0  0
   -8.3609   -3.5091   -0.4888 H   0  0  0  0  0  0  0  0  0  0  0  0
   -7.3079   -2.3202    2.0703 H   0  0  0  0  0  0  0  0  0  0  0  0
   -7.0875   -4.0366    1.4593 H   0  0  0  0  0  0  0  0  0  0  0  0
   -3.9922   -3.9479    2.4605 H   0  0  0  0  0  0  0  0  0  0  0  0
   -5.2783   -4.8511    1.5393 H   0  0  0  0  0  0  0  0  0  0  0  0
   -3.0810   -5.9734    1.9922 H   0  0  0  0  0  0  0  0  0  0  0  0
   -3.6456   -6.1352    0.3384 H   0  0  0  0  0  0  0  0  0  0  0  0
   -0.8633   -6.2579    1.8246 H   0  0  0  0  0  0  0  0  0  0  0  0
    0.5616   -3.9491    0.5637 H   0  0  0  0  0  0  0  0  0  0  0  0
    0.6836   -5.4130   -0.4325 H   0  0  0  0  0  0  0  0  0  0  0  0
    1.5927   -5.3874    2.5356 H   0  0  0  0  0  0  0  0  0  0  0  0
    1.6128   -6.7195    1.3863 H   0  0  0  0  0  0  0  0  0  0  0  0
    3.2105   -5.8779   -0.0103 H   0  0  0  0  0  0  0  0  0  0  0  0
    3.7957   -5.7276    1.6435 H   0  0  0  0  0  0  0  0  0  0  0  0
    4.4035   -3.7730    0.3236 H   0  0  0  0  0  0  0  0  0  0  0  0
    2.6683   -3.5828   -0.2431 H   0  0  0  0  0  0  0  0  0  0  0  0
    2.0087   -3.1368    2.0322 H   0  0  0  0  0  0  0  0  0  0  0  0
    3.0695   -0.8079    2.0589 H   0  0  0  0  0  0  0  0  0  0  0  0
    3.1311    0.3884   -1.4108 H   0  0  0  0  0  0  0  0  0  0  0  0
    2.7329    1.2432    1.5393 H   0  0  0  0  0  0  0  0  0  0  0  0
    4.8470    2.0637   -0.5945 H   0  0  0  0  0  0  0  0  0  0  0  0
    5.3039    0.8496    0.6657 H   0  0  0  0  0  0  0  0  0  0  0  0
    6.9355   -0.9436    0.0349 H   0  0  0  0  0  0  0  0  0  0  0  0
    8.0576   -1.8699   -2.1599 H   0  0  0  0  0  0  0  0  0  0  0  0
    4.2185    1.7552   -3.1894 H   0  0  0  0  0  0  0  0  0  0  0  0
    4.5759    1.5533   -5.6769 H   0  0  0  0  0  0  0  0  0  0  0  0
    6.2524    0.0378   -6.5077 H   0  0  0  0  0  0  0  0  0  0  0  0
    7.6282   -1.3233   -4.9369 H   0  0  0  0  0  0  0  0  0  0  0  0
    3.2864   -4.8617    4.1467 H   0  0  0  0  0  0  0  0  0  0  0  0
    4.9877   -4.9510    3.5756 H   0  0  0  0  0  0  0  0  0  0  0  0
   -1.9408    7.2777    2.9838 H   0  0  0  0  0  0  0  0  0  0  0  0
   -1.2586    6.7985    4.6268 H   0  0  0  0  0  0  0  0  0  0  0  0
  1  2  1  0
  2  3  2  3
  3  4  1  0
  4  5  1  0
  5  6  1  0
  6  7  1  0
  7  8  1  0
  8  9  1  0
  9 10  2  0
  9 11  1  0
 11 12  1  0
 12 13  1  0
 13 14  2  0
 14 15  1  0
 15 16  2  0
 16 17  1  0
 17 18  2  0
 11 19  1  0
 19 20  1  0
 20 21  2  0
 20 22  1  0
 22 23  1  0
 23 24  1  0
 24 25  1  0
 25 26  1  0
 26 27  1  0
 27 28  2  0
 27 29  1  0
 29 30  1  0
 30 31  1  0
 31 32  2  0
 31 33  1  0
 33 34  1  0
 34 35  1  0
 35 36  1  0
 36 37  1  0
 37 38  1  0
 38 39  1  0
 39 40  1  0
 40 41  2  0
 40 42  1  0
 42 43  1  0
 43 44  1  0
 44 45  2  0
 42 46  1  0
 46 47  1  0
 47 48  2  0
 48 49  1  0
 49 50  1  0
 50 51  2  0
 51 52  1  0
 52 53  2  0
 53 54  1  0
 54 55  2  0
 38 56  1  0
 56 57  2  0
 56 58  1  0
  2 59  1  0
 44  7  1  0
 51 47  1  0
 18 13  1  0
 26 22  1  0
 55 50  1  0
  1 60  1  0
  1 61  1  0
  4 62  1  0
  4 63  1  0
  5 64  1  0
  5 65  1  0
  6 66  1  0
  6 67  1  0
  7 68  1  1
  8 69  1  0
 11 70  1  6
 12 71  1  0
 12 72  1  0
 14 73  1  0
 15 74  1  0
 16 75  1  0
 17 76  1  0
 18 77  1  0
 19 78  1  0
 22 79  1  0
 23 80  1  0
 23 81  1  0
 24 82  1  0
 24 83  1  0
 25 84  1  0
 25 85  1  0
 29 86  1  0
 29 87  1  0
 30 88  1  0
 30 89  1  0
 33 90  1  0
 34 91  1  0
 34 92  1  0
 35 93  1  0
 35 94  1  0
 36 95  1  0
 36 96  1  0
 37 97  1  0
 37 98  1  0
 38 99  1  1
 39100  1  0
 42101  1  6
 43102  1  0
 46103  1  0
 46104  1  0
 48105  1  0
 49106  1  0
 52107  1  0
 53108  1  0
 54109  1  0
 55110  1  0
 58111  1  0
 58112  1  0
 59113  1  0
 59114  1  0
M  END
>  <Ligand ID>  (1) 
LIG0003112

>  <Ligand>  (1) 
MK-10

>  <SMILES>  (1) 
NC(=NCCC[C@H]1NC(=O)[C@H](Cc2ccccc2)NC(=O)C2CCCN2C(=O)CCC(=O)NCCCC[C@H](NC(=O)[C@@H](NC1=O)Cc1c[nH]c2c1cccc2)C(=O)N)N

>  <CID>  (1) 
44323204.0

>  <ChEMBL ID>  (1) 
nan

>  <InChiKey>  (1) 
RSZGGZUMSYSTES-HSVZMYSGSA-N

>  <InChi>  (1) 
InChI=1S/C41H55N11O7/c42-36(55)29-14-6-7-19-45-34(53)17-18-35(54)52-21-9-16-33(52)40(59)51-31(22-25-10-2-1-3-11-25)38(57)49-30(15-8-20-46-41(43)44)37(56)50-32(39(58)48-29)23-26-24-47-28-13-5-4-12-27(26)28/h1-5,10-13,24,29-33,47H,6-9,14-23H2,(H2,42,55)(H,45,53)(H,48,58)(H,49,57)(H,50,56)(H,51,59)(H4,43,44,46)/t29-,30+,31-,32-,33?/m0/s1

>  <IUPAC Name>  (1) 
(11S,14S,17R,20S)-20-benzyl-17-[3-(diaminomethylideneamino)propyl]-14-(1H-indol-3-ylmethyl)-2,5,13,16,19,22-hexaoxo-1,6,12,15,18,21-hexazabicyclo[21.3.0]hexacosane-11-carboxamide

$$$$
