
     RDKit          3D

 69 71  0  0  0  0  0  0  0  0999 V2000
  -11.2381   -1.2666   -0.7568 O   0  0  0  0  0  0  0  0  0  0  0  0
  -11.2960   -0.0492   -0.4218 C   0  0  0  0  0  0  0  0  0  0  0  0
  -10.1144    0.6089    0.0705 N   0  0  0  0  0  0  0  0  0  0  0  0
   -8.8706   -0.0635    0.1964 C   0  0  0  0  0  0  0  0  0  0  0  0
   -7.9348   -0.1014   -0.8399 C   0  0  0  0  0  0  0  0  0  0  0  0
   -6.7296   -0.7572   -0.7065 C   0  0  0  0  0  0  0  0  0  0  0  0
   -6.4911   -1.3767    0.5022 C   0  0  0  0  0  0  0  0  0  0  0  0
   -7.4164   -1.3479    1.5477 C   0  0  0  0  0  0  0  0  0  0  0  0
   -8.6184   -0.6881    1.4023 C   0  0  0  0  0  0  0  0  0  0  0  0
   -9.5303   -0.6613    2.4365 O   0  0  0  0  0  0  0  0  0  0  0  0
   -5.7584   -0.7944   -1.8234 C   0  0  2  0  0  0  0  0  0  0  0  0
   -4.3570   -1.1220   -1.4000 C   0  0  0  0  0  0  0  0  0  0  0  0
   -3.7225   -0.1891   -0.5464 N   0  0  0  0  0  0  0  0  0  0  0  0
   -3.3726    1.0797   -1.0763 C   0  0  0  0  0  0  0  0  0  0  0  0
   -2.6419    1.9064   -0.0020 C   0  0  0  0  0  0  0  0  0  0  0  0
   -1.4230    1.1434    0.3621 C   0  0  0  0  0  0  0  0  0  0  0  0
   -1.3702    0.2206    1.3820 C   0  0  0  0  0  0  0  0  0  0  0  0
   -0.1973   -0.4509    1.6554 C   0  0  0  0  0  0  0  0  0  0  0  0
    0.9734   -0.2457    0.9400 C   0  0  0  0  0  0  0  0  0  0  0  0
    0.9074    0.6805   -0.0787 C   0  0  0  0  0  0  0  0  0  0  0  0
   -0.2711    1.3643   -0.3634 C   0  0  0  0  0  0  0  0  0  0  0  0
    2.1278   -0.9898    1.2690 N   0  0  0  0  0  0  0  0  0  0  0  0
    3.4633   -0.6158    1.0191 C   0  0  0  0  0  0  0  0  0  0  0  0
    3.9066    0.6791    0.8800 C   0  0  0  0  0  0  0  0  0  0  0  0
    5.2297    1.0033    0.6157 C   0  0  0  0  0  0  0  0  0  0  0  0
    6.1849    0.0163    0.4778 C   0  0  0  0  0  0  0  0  0  0  0  0
    5.7593   -1.2886    0.6149 C   0  0  0  0  0  0  0  0  0  0  0  0
    4.4350   -1.6091    0.8788 C   0  0  0  0  0  0  0  0  0  0  0  0
    7.4779    0.3838    0.2173 O   0  0  0  0  0  0  0  0  0  0  0  0
    8.4583   -0.6238    0.0739 C   0  0  0  0  0  0  0  0  0  0  0  0
    9.7730    0.0755   -0.2026 C   0  0  0  0  0  0  0  0  0  0  0  0
   10.8011   -0.9085   -0.3580 N   0  0  0  0  0  0  0  0  0  0  0  0
    9.6305    1.0107   -1.3690 C   0  0  0  0  0  0  0  0  0  0  0  0
   10.1000    0.9025    1.0297 C   0  0  0  0  0  0  0  0  0  0  0  0
   -5.7035    0.4268   -2.4898 O   0  0  0  0  0  0  0  0  0  0  0  0
  -12.2086    0.5388   -0.4873 H   0  0  0  0  0  0  0  0  0  0  0  0
  -10.1325    1.6244    0.3569 H   0  0  0  0  0  0  0  0  0  0  0  0
   -8.2316    0.4162   -1.7403 H   0  0  0  0  0  0  0  0  0  0  0  0
   -5.5832   -1.9246    0.7053 H   0  0  0  0  0  0  0  0  0  0  0  0
   -7.1966   -1.8468    2.4866 H   0  0  0  0  0  0  0  0  0  0  0  0
   -9.9718    0.2158    2.7186 H   0  0  0  0  0  0  0  0  0  0  0  0
   -6.0834   -1.5276   -2.6111 H   0  0  0  0  0  0  0  0  0  0  0  0
   -4.2685   -2.1728   -1.0220 H   0  0  0  0  0  0  0  0  0  0  0  0
   -3.7548   -1.1463   -2.3552 H   0  0  0  0  0  0  0  0  0  0  0  0
   -4.0533   -0.1588    0.4438 H   0  0  0  0  0  0  0  0  0  0  0  0
   -4.1703    1.7253   -1.4319 H   0  0  0  0  0  0  0  0  0  0  0  0
   -2.6937    0.9026   -1.9425 H   0  0  0  0  0  0  0  0  0  0  0  0
   -2.3644    2.8998   -0.4129 H   0  0  0  0  0  0  0  0  0  0  0  0
   -3.3373    2.0352    0.8507 H   0  0  0  0  0  0  0  0  0  0  0  0
   -2.2471    0.0193    1.9765 H   0  0  0  0  0  0  0  0  0  0  0  0
   -0.2112   -1.1606    2.4618 H   0  0  0  0  0  0  0  0  0  0  0  0
    1.7474    0.9009   -0.6940 H   0  0  0  0  0  0  0  0  0  0  0  0
   -0.2959    2.0899   -1.1710 H   0  0  0  0  0  0  0  0  0  0  0  0
    1.9751   -1.9256    1.7528 H   0  0  0  0  0  0  0  0  0  0  0  0
    3.2307    1.5124    0.9861 H   0  0  0  0  0  0  0  0  0  0  0  0
    5.5339    2.0353    0.5132 H   0  0  0  0  0  0  0  0  0  0  0  0
    6.5202   -2.0780    0.5054 H   0  0  0  0  0  0  0  0  0  0  0  0
    4.1176   -2.6540    0.9842 H   0  0  0  0  0  0  0  0  0  0  0  0
    8.1316   -1.2324   -0.8093 H   0  0  0  0  0  0  0  0  0  0  0  0
    8.5464   -1.2974    0.9423 H   0  0  0  0  0  0  0  0  0  0  0  0
   11.6176   -0.4796   -0.8761 H   0  0  0  0  0  0  0  0  0  0  0  0
   10.4304   -1.7198   -0.9323 H   0  0  0  0  0  0  0  0  0  0  0  0
   10.6013    1.3591   -1.7572 H   0  0  0  0  0  0  0  0  0  0  0  0
    9.0161    0.4734   -2.1419 H   0  0  0  0  0  0  0  0  0  0  0  0
    8.9966    1.8731   -1.0461 H   0  0  0  0  0  0  0  0  0  0  0  0
   10.7417    1.7400    0.7136 H   0  0  0  0  0  0  0  0  0  0  0  0
    9.1692    1.2814    1.4958 H   0  0  0  0  0  0  0  0  0  0  0  0
   10.6148    0.2626    1.7542 H   0  0  0  0  0  0  0  0  0  0  0  0
   -6.3576    1.0665   -2.1227 H   0  0  0  0  0  0  0  0  0  0  0  0
  1  2  2  0
  2  3  1  0
  3  4  1  0
  4  5  2  0
  5  6  1  0
  6  7  2  0
  7  8  1  0
  8  9  2  0
  9 10  1  0
  6 11  1  0
 11 12  1  0
 12 13  1  0
 13 14  1  0
 14 15  1  0
 15 16  1  0
 16 17  2  0
 17 18  1  0
 18 19  2  0
 19 20  1  0
 20 21  2  0
 19 22  1  0
 22 23  1  0
 23 24  2  0
 24 25  1  0
 25 26  2  0
 26 27  1  0
 27 28  2  0
 26 29  1  0
 29 30  1  0
 30 31  1  0
 31 32  1  0
 31 33  1  0
 31 34  1  0
 11 35  1  0
  9  4  1  0
 21 16  1  0
 28 23  1  0
  2 36  1  0
  3 37  1  0
  5 38  1  0
  7 39  1  0
  8 40  1  0
 10 41  1  0
 11 42  1  6
 12 43  1  0
 12 44  1  0
 13 45  1  0
 14 46  1  0
 14 47  1  0
 15 48  1  0
 15 49  1  0
 17 50  1  0
 18 51  1  0
 20 52  1  0
 21 53  1  0
 22 54  1  0
 24 55  1  0
 25 56  1  0
 27 57  1  0
 28 58  1  0
 30 59  1  0
 30 60  1  0
 32 61  1  0
 32 62  1  0
 33 63  1  0
 33 64  1  0
 33 65  1  0
 34 66  1  0
 34 67  1  0
 34 68  1  0
 35 69  1  0
M  END
>  <Ligand ID>  (1) 
LIG0003408

>  <Ligand>  (1) 
CHEMBL3298213

>  <SMILES>  (1) 
O=CNc1cc(ccc1O)[C@H](CNCCc1ccc(cc1)Nc1ccc(cc1)OCC(N)(C)C)O

>  <CID>  (1) 
56943515.0

>  <ChEMBL ID>  (1) 
nan

>  <InChiKey>  (1) 
BOGKGWCOWBCLCB-SANMLTNESA-N

>  <InChi>  (1) 
InChI=1S/C27H34N4O4/c1-27(2,28)17-35-23-10-8-22(9-11-23)31-21-6-3-19(4-7-21)13-14-29-16-26(34)20-5-12-25(33)24(15-20)30-18-32/h3-12,15,18,26,29,31,33-34H,13-14,16-17,28H2,1-2H3,(H,30,32)/t26-/m0/s1

>  <IUPAC Name>  (1) 
N-[5-[(1R)-2-[2-[4-[4-(2-amino-2-methylpropoxy)anilino]phenyl]ethylamino]-1-hydroxyethyl]-2-hydroxyphenyl]formamide

$$$$
