
     RDKit          3D

 19 19  0  0  0  0  0  0  0  0999 V2000
    3.5008    0.0814    0.3063 C   0  0  0  0  0  0  0  0  0  0  0  0
    2.1039    0.2870    0.3169 O   0  0  0  0  0  0  0  0  0  0  0  0
    1.2071   -0.5900   -0.2755 C   0  0  0  0  0  0  0  0  0  0  0  0
    1.6593   -1.6104   -0.8454 O   0  0  0  0  0  0  0  0  0  0  0  0
   -0.2271   -0.3258   -0.2331 C   0  0  0  0  0  0  0  0  0  0  0  0
   -1.0918   -1.2199   -0.8331 C   0  0  0  0  0  0  0  0  0  0  0  0
   -2.4756   -1.0102   -0.8190 C   0  0  0  0  0  0  0  0  0  0  0  0
   -2.9750    0.1304   -0.1815 C   0  0  0  0  0  0  0  0  0  0  0  0
   -2.0836    1.0250    0.4209 C   0  0  0  0  0  0  0  0  0  0  0  0
   -0.7115    0.7924    0.3923 C   0  0  0  0  0  0  0  0  0  0  0  0
    0.1121    1.7171    1.0071 O   0  0  0  0  0  0  0  0  0  0  0  0
    3.9842    1.0800    0.3018 H   0  0  0  0  0  0  0  0  0  0  0  0
    3.8152   -0.5249    1.1537 H   0  0  0  0  0  0  0  0  0  0  0  0
    3.7218   -0.4067   -0.6872 H   0  0  0  0  0  0  0  0  0  0  0  0
   -0.6631   -2.0864   -1.3134 H   0  0  0  0  0  0  0  0  0  0  0  0
   -3.1291   -1.7302   -1.2987 H   0  0  0  0  0  0  0  0  0  0  0  0
   -4.0234    0.3144   -0.1560 H   0  0  0  0  0  0  0  0  0  0  0  0
   -2.5070    1.9021    0.9079 H   0  0  0  0  0  0  0  0  0  0  0  0
   -0.2170    2.1748    1.8360 H   0  0  0  0  0  0  0  0  0  0  0  0
  1  2  1  0
  2  3  1  0
  3  4  2  0
  3  5  1  0
  5  6  2  0
  6  7  1  0
  7  8  2  0
  8  9  1  0
  9 10  2  0
 10 11  1  0
 10  5  1  0
  1 12  1  0
  1 13  1  0
  1 14  1  0
  6 15  1  0
  7 16  1  0
  8 17  1  0
  9 18  1  0
 11 19  1  0
M  END
>  <Ligand ID>  (1) 
LIG0000013

>  <Ligand>  (1) 
methyl salicylate

>  <SMILES>  (1) 
COC(=O)c1ccccc1O

>  <CID>  (1) 
4133.0

>  <ChEMBL ID>  (1) 
nan

>  <InChiKey>  (1) 
OSWPMRLSEDHDFF-UHFFFAOYSA-N

>  <InChi>  (1) 
InChI=1S/C8H8O3/c1-11-8(10)6-4-2-3-5-7(6)9/h2-5,9H,1H3

>  <IUPAC Name>  (1) 
methyl 2-hydroxybenzoate

$$$$
