
     RDKit          3D

 42 44  0  0  0  0  0  0  0  0999 V2000
    4.7283   -0.1399    3.0303 O   0  0  0  0  0  0  0  0  0  0  0  0
    5.5669   -0.4083    1.9529 C   0  0  0  0  0  0  0  0  0  0  0  0
    6.8110   -0.2092    2.0925 O   0  0  0  0  0  0  0  0  0  0  0  0
    5.0985   -0.9131    0.6499 C   0  0  0  0  0  0  0  0  0  0  0  0
    5.0253    0.2779   -0.3091 C   0  0  0  0  0  0  0  0  0  0  0  0
    4.5548   -0.1655   -1.6567 C   0  0  0  0  0  0  0  0  0  0  0  0
    3.3151   -0.7641   -1.7159 O   0  0  0  0  0  0  0  0  0  0  0  0
    2.0948   -0.2706   -1.4186 C   0  0  0  0  0  0  0  0  0  0  0  0
    1.0047   -1.1469   -1.5625 C   0  0  0  0  0  0  0  0  0  0  0  0
   -0.2848   -0.7511   -1.2891 C   0  0  0  0  0  0  0  0  0  0  0  0
   -0.5612    0.5295   -0.8603 C   0  0  0  0  0  0  0  0  0  0  0  0
    0.4743    1.3970   -0.7131 C   0  0  0  0  0  0  0  0  0  0  0  0
    1.7774    0.9920   -0.9912 C   0  0  0  0  0  0  0  0  0  0  0  0
   -1.9600    0.8484   -0.5981 C   0  0  0  0  0  0  0  0  0  0  0  0
   -2.7062   -0.0820    0.1244 C   0  0  0  0  0  0  0  0  0  0  0  0
   -4.0270    0.1524    0.4061 C   0  0  0  0  0  0  0  0  0  0  0  0
   -4.6398    1.3064   -0.0174 C   0  0  0  0  0  0  0  0  0  0  0  0
   -3.8951    2.2246   -0.7332 C   0  0  0  0  0  0  0  0  0  0  0  0
   -2.5649    2.0111   -1.0285 C   0  0  0  0  0  0  0  0  0  0  0  0
   -1.6215    3.1709   -1.9324 Cl  0  0  0  0  0  0  0  0  0  0  0  0
   -4.8106   -0.8086    1.1563 N   0  0  0  0  0  0  0  0  0  0  0  0
   -5.7299   -0.5094    2.0236 C   0  0  0  0  0  0  0  0  0  0  0  0
   -6.4114   -1.4590    2.6788 C   0  0  0  0  0  0  0  0  0  0  0  0
   -5.7200   -3.0380    2.0407 S   0  0  0  0  0  0  0  0  0  0  0  0
   -4.5667   -2.1424    0.9392 C   0  0  0  0  0  0  0  0  0  0  0  0
    4.9241    0.6502    3.6620 H   0  0  0  0  0  0  0  0  0  0  0  0
    5.8862   -1.5871    0.2451 H   0  0  0  0  0  0  0  0  0  0  0  0
    4.1281   -1.4206    0.7642 H   0  0  0  0  0  0  0  0  0  0  0  0
    4.5185    1.1387    0.1286 H   0  0  0  0  0  0  0  0  0  0  0  0
    6.1048    0.5881   -0.4342 H   0  0  0  0  0  0  0  0  0  0  0  0
    4.6129    0.7565   -2.3170 H   0  0  0  0  0  0  0  0  0  0  0  0
    5.3308   -0.8554   -2.1088 H   0  0  0  0  0  0  0  0  0  0  0  0
    1.1636   -2.1695   -1.8974 H   0  0  0  0  0  0  0  0  0  0  0  0
   -1.0966   -1.4815   -1.4201 H   0  0  0  0  0  0  0  0  0  0  0  0
    0.2551    2.3975   -0.3773 H   0  0  0  0  0  0  0  0  0  0  0  0
    2.5357    1.7310   -0.8652 H   0  0  0  0  0  0  0  0  0  0  0  0
   -2.2416   -0.9980    0.4684 H   0  0  0  0  0  0  0  0  0  0  0  0
   -5.6784    1.4859    0.2069 H   0  0  0  0  0  0  0  0  0  0  0  0
   -4.3855    3.1404   -1.0686 H   0  0  0  0  0  0  0  0  0  0  0  0
   -5.9699    0.5788    2.2390 H   0  0  0  0  0  0  0  0  0  0  0  0
   -7.1898   -1.4266    3.4151 H   0  0  0  0  0  0  0  0  0  0  0  0
   -3.8499   -2.6307    0.2659 H   0  0  0  0  0  0  0  0  0  0  0  0
  1  2  1  0
  2  3  2  0
  2  4  1  0
  4  5  1  0
  5  6  1  0
  6  7  1  0
  7  8  1  0
  8  9  2  0
  9 10  1  0
 10 11  2  0
 11 12  1  0
 12 13  2  0
 11 14  1  0
 14 15  2  0
 15 16  1  0
 16 17  2  0
 17 18  1  0
 18 19  2  0
 19 20  1  0
 16 21  1  0
 21 22  1  0
 22 23  2  0
 23 24  1  0
 24 25  1  0
 13  8  1  0
 19 14  1  0
 25 21  2  0
  1 26  1  0
  4 27  1  0
  4 28  1  0
  5 29  1  0
  5 30  1  0
  6 31  1  0
  6 32  1  0
  9 33  1  0
 10 34  1  0
 12 35  1  0
 13 36  1  0
 15 37  1  0
 17 38  1  0
 18 39  1  0
 22 40  1  0
 23 41  1  0
 25 42  1  0
M  CHG  1  21   1
M  END
>  <Ligand ID>  (1) 
LIG0002541

>  <Ligand>  (1) 
CHEMBL3972973

>  <SMILES>  (1) 
OC(=O)CCCOc1ccc(cc1)c1cc(ccc1Cl)[n+]1ccsc1

>  <CID>  (1) 
134154417.0

>  <ChEMBL ID>  (1) 
nan

>  <InChiKey>  (1) 
ZCDOYWLFSUMNLJ-UHFFFAOYSA-O

>  <InChi>  (1) 
InChI=1S/C19H16ClNO3S/c20-18-8-5-15(21-9-11-25-13-21)12-17(18)14-3-6-16(7-4-14)24-10-1-2-19(22)23/h3-9,11-13H,1-2,10H2/p+1

>  <IUPAC Name>  (1) 
4-[4-[2-chloro-5-(1,3-thiazol-3-ium-3-yl)phenyl]phenoxy]butanoic acid

$$$$
