
     RDKit          3D

 29 30  0  0  0  0  0  0  0  0999 V2000
   -4.1064    1.5322    1.4803 C   0  0  0  0  0  0  0  0  0  0  0  0
   -4.3294    0.3256    0.8209 O   0  0  0  0  0  0  0  0  0  0  0  0
   -3.3214   -0.3387    0.1461 C   0  0  0  0  0  0  0  0  0  0  0  0
   -2.0229    0.1210    0.0627 C   0  0  0  0  0  0  0  0  0  0  0  0
   -1.0622   -0.6070   -0.6371 C   0  0  0  0  0  0  0  0  0  0  0  0
   -1.4376   -1.8081   -1.2511 C   0  0  0  0  0  0  0  0  0  0  0  0
   -2.7362   -2.2665   -1.1669 C   0  0  0  0  0  0  0  0  0  0  0  0
   -3.6865   -1.5390   -0.4703 C   0  0  0  0  0  0  0  0  0  0  0  0
   -5.3529   -2.1235   -0.3599 Cl  0  0  0  0  0  0  0  0  0  0  0  0
    0.2548   -0.1264   -0.7132 N   0  0  0  0  0  0  0  0  0  0  0  0
    1.2668   -0.4498    0.2364 C   0  0  0  0  0  0  0  0  0  0  0  0
    1.0441   -1.2073    1.2336 O   0  0  0  0  0  0  0  0  0  0  0  0
    2.6054    0.1175    0.0442 C   0  0  0  0  0  0  0  0  0  0  0  0
    3.6143   -0.1659    0.9341 C   0  0  0  0  0  0  0  0  0  0  0  0
    4.8779    0.3519    0.7786 C   0  0  0  0  0  0  0  0  0  0  0  0
    5.1350    1.1770   -0.3008 C   0  0  0  0  0  0  0  0  0  0  0  0
    4.1174    1.4577   -1.1911 C   0  0  0  0  0  0  0  0  0  0  0  0
    2.8835    0.9250   -0.9997 N   0  0  0  0  0  0  0  0  0  0  0  0
   -5.0928    2.0769    1.4885 H   0  0  0  0  0  0  0  0  0  0  0  0
   -3.4207    2.1771    0.8991 H   0  0  0  0  0  0  0  0  0  0  0  0
   -3.7587    1.3201    2.5095 H   0  0  0  0  0  0  0  0  0  0  0  0
   -1.7566    1.0516    0.5452 H   0  0  0  0  0  0  0  0  0  0  0  0
   -0.6781   -2.3596   -1.7900 H   0  0  0  0  0  0  0  0  0  0  0  0
   -3.0152   -3.1952   -1.6448 H   0  0  0  0  0  0  0  0  0  0  0  0
    0.5136    0.5073   -1.5132 H   0  0  0  0  0  0  0  0  0  0  0  0
    3.4102   -0.8206    1.7907 H   0  0  0  0  0  0  0  0  0  0  0  0
    5.6794    0.1358    1.4725 H   0  0  0  0  0  0  0  0  0  0  0  0
    6.0919    1.6238   -0.4983 H   0  0  0  0  0  0  0  0  0  0  0  0
    4.2834    2.1069   -2.0576 H   0  0  0  0  0  0  0  0  0  0  0  0
  1  2  1  0
  2  3  1  0
  3  4  2  0
  4  5  1  0
  5  6  2  0
  6  7  1  0
  7  8  2  0
  8  9  1  0
  5 10  1  0
 10 11  1  0
 11 12  2  0
 11 13  1  0
 13 14  2  0
 14 15  1  0
 15 16  2  0
 16 17  1  0
 17 18  2  0
  8  3  1  0
 18 13  1  0
  1 19  1  0
  1 20  1  0
  1 21  1  0
  4 22  1  0
  6 23  1  0
  7 24  1  0
 10 25  1  0
 14 26  1  0
 15 27  1  0
 16 28  1  0
 17 29  1  0
M  END
>  <Ligand ID>  (1) 
LIG0000598

>  <Ligand>  (1) 
VU 0361737

>  <SMILES>  (1) 
COc1cc(ccc1Cl)NC(=O)c1ccccn1

>  <CID>  (1) 
44191096.0

>  <ChEMBL ID>  (1) 
nan

>  <InChiKey>  (1) 
ARYUXFNGXHNNDM-UHFFFAOYSA-N

>  <InChi>  (1) 
InChI=1S/C13H11ClN2O2/c1-18-12-8-9(5-6-10(12)14)16-13(17)11-4-2-3-7-15-11/h2-8H,1H3,(H,16,17)

>  <IUPAC Name>  (1) 
N-(4-chloro-3-methoxyphenyl)pyridine-2-carboxamide

$$$$
