
     RDKit          3D

141147  0  0  0  0  0  0  0  0999 V2000
    2.9723   -6.8574    1.9477 N   0  0  0  0  0  0  0  0  0  0  0  0
    1.6115   -6.4652    2.1017 C   0  0  0  0  0  0  0  0  0  0  0  0
    0.6762   -7.2882    1.9331 O   0  0  0  0  0  0  0  0  0  0  0  0
    1.3630   -5.0511    2.4678 C   0  0  0  0  0  0  0  0  0  0  0  0
    0.9556   -4.2080    1.3209 C   0  0  2  0  0  0  0  0  0  0  0  0
   -0.2836   -4.6326    0.6616 N   0  0  0  0  0  0  0  0  0  0  0  0
   -1.1786   -3.5815    0.3558 C   0  0  0  0  0  0  0  0  0  0  0  0
   -0.8068   -2.4300    0.6706 O   0  0  0  0  0  0  0  0  0  0  0  0
   -2.5117   -3.6675   -0.2963 C   0  0  2  0  0  0  0  0  0  0  0  0
   -2.5113   -4.2651   -1.6514 C   0  0  0  0  0  0  0  0  0  0  0  0
   -3.8603   -4.3339   -2.2593 C   0  0  0  0  0  0  0  0  0  0  0  0
   -4.6065   -5.4747   -1.9664 C   0  0  0  0  0  0  0  0  0  0  0  0
   -5.8824   -5.6502   -2.4856 C   0  0  0  0  0  0  0  0  0  0  0  0
   -6.4390   -4.6971   -3.3028 C   0  0  0  0  0  0  0  0  0  0  0  0
   -5.6745   -3.5610   -3.5831 C   0  0  0  0  0  0  0  0  0  0  0  0
   -4.4074   -3.3823   -3.0704 C   0  0  0  0  0  0  0  0  0  0  0  0
   -2.9969   -2.2634   -0.4307 N   0  0  0  0  0  0  0  0  0  0  0  0
   -4.1316   -1.8008    0.2658 C   0  0  0  0  0  0  0  0  0  0  0  0
   -4.7607   -2.6633    0.9088 O   0  0  0  0  0  0  0  0  0  0  0  0
   -4.6372   -0.4130    0.3013 C   0  0  0  0  0  0  0  0  0  0  0  0
   -3.7420    0.5553   -0.3642 N   0  0  0  0  0  0  0  0  0  0  0  0
   -2.6196    1.1099    0.3202 C   0  0  0  0  0  0  0  0  0  0  0  0
   -2.4065    0.6193    1.4445 O   0  0  0  0  0  0  0  0  0  0  0  0
   -1.7319    2.1716   -0.1926 C   0  0  2  0  0  0  0  0  0  0  0  0
   -1.7071    2.4052   -1.6353 C   0  0  0  0  0  0  0  0  0  0  0  0
   -1.3042    1.3616   -2.5948 C   0  0  0  0  0  0  0  0  0  0  0  0
   -1.4307    2.0310   -3.9928 C   0  0  0  0  0  0  0  0  0  0  0  0
   -0.5776    3.2007   -4.0816 N   0  0  0  0  0  0  0  0  0  0  0  0
   -1.1395    4.3829   -4.2059 C   0  0  0  0  0  0  0  0  0  0  0  0
   -2.5608    4.5217   -4.2531 N   0  0  0  0  0  0  0  0  0  0  0  0
   -0.3558    5.5678   -4.2979 N   0  0  0  0  0  0  0  0  0  0  0  0
   -0.5302    2.3560    0.5751 N   0  0  0  0  0  0  0  0  0  0  0  0
   -0.4129    3.2396    1.7172 C   0  0  0  0  0  0  0  0  0  0  0  0
   -1.4797    3.8263    1.9762 O   0  0  0  0  0  0  0  0  0  0  0  0
    0.7633    3.4607    2.5097 C   0  0  1  0  0  0  0  0  0  0  0  0
    1.9694    3.9667    1.8722 N   0  0  0  0  0  0  0  0  0  0  0  0
    3.0970    3.1576    1.6264 C   0  0  0  0  0  0  0  0  0  0  0  0
    2.9050    1.9526    2.0323 O   0  0  0  0  0  0  0  0  0  0  0  0
    4.3715    3.4557    1.0193 C   0  0  2  0  0  0  0  0  0  0  0  0
    5.3819    2.4292    1.4074 N   0  0  0  0  0  0  0  0  0  0  0  0
    5.5074    1.3144    0.5628 C   0  0  0  0  0  0  0  0  0  0  0  0
    4.7778    1.2933   -0.4381 O   0  0  0  0  0  0  0  0  0  0  0  0
    6.4300    0.1462    0.7587 C   0  0  1  0  0  0  0  0  0  0  0  0
    5.9683   -0.9164   -0.1616 N   0  0  0  0  0  0  0  0  0  0  0  0
    4.9149   -1.7082    0.3586 C   0  0  0  0  0  0  0  0  0  0  0  0
    4.5838   -1.4576    1.5338 O   0  0  0  0  0  0  0  0  0  0  0  0
    4.1719   -2.7777   -0.3267 C   0  0  1  0  0  0  0  0  0  0  0  0
    3.0439   -3.1066    0.5642 N   0  0  0  0  0  0  0  0  0  0  0  0
    2.0296   -4.0449    0.2714 C   0  0  0  0  0  0  0  0  0  0  0  0
    2.0863   -4.6367   -0.7962 O   0  0  0  0  0  0  0  0  0  0  0  0
    3.4939   -2.1453   -1.5948 C   0  0  0  0  0  0  0  0  0  0  0  0
    7.8250    0.4718    0.3925 C   0  0  0  0  0  0  0  0  0  0  0  0
    8.0281    0.8821   -1.0264 C   0  0  0  0  0  0  0  0  0  0  0  0
    8.3886   -0.0561   -2.0089 C   0  0  0  0  0  0  0  0  0  0  0  0
    8.5685    0.3480   -3.3237 C   0  0  0  0  0  0  0  0  0  0  0  0
    8.4012    1.6783   -3.7123 C   0  0  0  0  0  0  0  0  0  0  0  0
    8.0485    2.5673   -2.7249 C   0  0  0  0  0  0  0  0  0  0  0  0
    7.8618    2.2105   -1.4208 C   0  0  0  0  0  0  0  0  0  0  0  0
    6.0299    2.7564    2.6168 C   0  0  0  0  0  0  0  0  0  0  0  0
    5.7340    4.2493    2.7613 C   0  0  0  0  0  0  0  0  0  0  0  0
    5.1445    4.6420    1.4419 C   0  0  0  0  0  0  0  0  0  0  0  0
    1.7258    5.3442    1.6215 C   0  0  0  0  0  0  0  0  0  0  0  0
    0.5796    5.7859    2.5222 C   0  0  0  0  0  0  0  0  0  0  0  0
    0.3974    4.6268    3.4762 C   0  0  0  0  0  0  0  0  0  0  0  0
   -6.0430   -0.2534   -0.1374 C   0  0  0  0  0  0  0  0  0  0  0  0
   -6.9584   -1.0133    0.7006 C   0  0  0  0  0  0  0  0  0  0  0  0
   -7.4397   -2.2587    0.2774 C   0  0  0  0  0  0  0  0  0  0  0  0
   -8.3077   -3.0037    1.0565 C   0  0  0  0  0  0  0  0  0  0  0  0
   -8.7366   -2.5491    2.2890 C   0  0  0  0  0  0  0  0  0  0  0  0
   -8.2629   -1.3163    2.7124 C   0  0  0  0  0  0  0  0  0  0  0  0
   -7.3859   -0.5577    1.9294 C   0  0  0  0  0  0  0  0  0  0  0  0
   -6.9421    0.6553    2.3828 C   0  0  0  0  0  0  0  0  0  0  0  0
   -7.3765    1.0999    3.6163 C   0  0  0  0  0  0  0  0  0  0  0  0
   -8.2548    0.3424    4.4034 C   0  0  0  0  0  0  0  0  0  0  0  0
   -8.7028   -0.8808    3.9432 C   0  0  0  0  0  0  0  0  0  0  0  0
    3.3994   -7.2147    1.0874 H   0  0  0  0  0  0  0  0  0  0  0  0
    3.5733   -6.7597    2.8053 H   0  0  0  0  0  0  0  0  0  0  0  0
    2.2312   -4.6163    3.0422 H   0  0  0  0  0  0  0  0  0  0  0  0
    0.5509   -5.1030    3.2532 H   0  0  0  0  0  0  0  0  0  0  0  0
    0.8401   -3.1587    1.7213 H   0  0  0  0  0  0  0  0  0  0  0  0
   -0.5516   -5.5675    0.4121 H   0  0  0  0  0  0  0  0  0  0  0  0
   -3.1539   -4.2342    0.3697 H   0  0  0  0  0  0  0  0  0  0  0  0
   -1.8836   -3.7004   -2.3965 H   0  0  0  0  0  0  0  0  0  0  0  0
   -2.0963   -5.2969   -1.6878 H   0  0  0  0  0  0  0  0  0  0  0  0
   -4.2398   -6.2658   -1.3305 H   0  0  0  0  0  0  0  0  0  0  0  0
   -6.4624   -6.5304   -2.2598 H   0  0  0  0  0  0  0  0  0  0  0  0
   -7.4199   -4.8327   -3.7022 H   0  0  0  0  0  0  0  0  0  0  0  0
   -6.1105   -2.7891   -4.2436 H   0  0  0  0  0  0  0  0  0  0  0  0
   -3.8265   -2.5003   -3.2922 H   0  0  0  0  0  0  0  0  0  0  0  0
   -2.5270   -1.5799   -1.0294 H   0  0  0  0  0  0  0  0  0  0  0  0
   -4.4817   -0.1336    1.4020 H   0  0  0  0  0  0  0  0  0  0  0  0
   -3.8645    0.8718   -1.3257 H   0  0  0  0  0  0  0  0  0  0  0  0
   -2.3355    3.1142    0.1963 H   0  0  0  0  0  0  0  0  0  0  0  0
   -1.0831    3.3272   -1.8818 H   0  0  0  0  0  0  0  0  0  0  0  0
   -2.7276    2.7567   -1.9972 H   0  0  0  0  0  0  0  0  0  0  0  0
   -0.2340    1.0548   -2.5862 H   0  0  0  0  0  0  0  0  0  0  0  0
   -1.9113    0.4584   -2.6536 H   0  0  0  0  0  0  0  0  0  0  0  0
   -2.4798    2.3419   -4.1512 H   0  0  0  0  0  0  0  0  0  0  0  0
   -1.2141    1.2769   -4.7773 H   0  0  0  0  0  0  0  0  0  0  0  0
   -3.1592    4.6401   -3.4116 H   0  0  0  0  0  0  0  0  0  0  0  0
   -3.0463    4.5014   -5.1930 H   0  0  0  0  0  0  0  0  0  0  0  0
   -0.1001    6.0540   -3.4072 H   0  0  0  0  0  0  0  0  0  0  0  0
   -0.0606    5.9191   -5.2342 H   0  0  0  0  0  0  0  0  0  0  0  0
    0.3394    1.8655    0.3563 H   0  0  0  0  0  0  0  0  0  0  0  0
    1.0846    2.6428    3.1754 H   0  0  0  0  0  0  0  0  0  0  0  0
    4.3478    3.4420   -0.1023 H   0  0  0  0  0  0  0  0  0  0  0  0
    6.3218   -0.1121    1.8055 H   0  0  0  0  0  0  0  0  0  0  0  0
    6.3123   -1.1143   -1.0724 H   0  0  0  0  0  0  0  0  0  0  0  0
    4.6928   -3.6075   -0.7202 H   0  0  0  0  0  0  0  0  0  0  0  0
    2.9654   -2.6281    1.4687 H   0  0  0  0  0  0  0  0  0  0  0  0
    4.2103   -1.4454   -2.0519 H   0  0  0  0  0  0  0  0  0  0  0  0
    3.3429   -2.9749   -2.3023 H   0  0  0  0  0  0  0  0  0  0  0  0
    2.5216   -1.7358   -1.3261 H   0  0  0  0  0  0  0  0  0  0  0  0
    8.2263    1.3550    0.9758 H   0  0  0  0  0  0  0  0  0  0  0  0
    8.5046   -0.4071    0.5538 H   0  0  0  0  0  0  0  0  0  0  0  0
    8.5443   -1.0979   -1.7563 H   0  0  0  0  0  0  0  0  0  0  0  0
    8.8462   -0.3505   -4.0988 H   0  0  0  0  0  0  0  0  0  0  0  0
    8.5510    1.9763   -4.7597 H   0  0  0  0  0  0  0  0  0  0  0  0
    7.9043    3.6134   -2.9814 H   0  0  0  0  0  0  0  0  0  0  0  0
    7.5769    2.9381   -0.6526 H   0  0  0  0  0  0  0  0  0  0  0  0
    5.5663    2.2241    3.5089 H   0  0  0  0  0  0  0  0  0  0  0  0
    7.1146    2.5541    2.6766 H   0  0  0  0  0  0  0  0  0  0  0  0
    5.1432    4.4724    3.6472 H   0  0  0  0  0  0  0  0  0  0  0  0
    6.7257    4.7424    2.9327 H   0  0  0  0  0  0  0  0  0  0  0  0
    6.0549    4.6631    0.7341 H   0  0  0  0  0  0  0  0  0  0  0  0
    4.7233    5.6187    1.3693 H   0  0  0  0  0  0  0  0  0  0  0  0
    1.3992    5.5632    0.5828 H   0  0  0  0  0  0  0  0  0  0  0  0
    2.5600    6.0320    1.9545 H   0  0  0  0  0  0  0  0  0  0  0  0
    0.8008    6.6658    3.1406 H   0  0  0  0  0  0  0  0  0  0  0  0
   -0.3619    5.9388    1.9619 H   0  0  0  0  0  0  0  0  0  0  0  0
    1.1378    4.6603    4.2908 H   0  0  0  0  0  0  0  0  0  0  0  0
   -0.6279    4.5395    3.8380 H   0  0  0  0  0  0  0  0  0  0  0  0
   -6.1276   -0.6569   -1.1756 H   0  0  0  0  0  0  0  0  0  0  0  0
   -6.3401    0.8159   -0.2686 H   0  0  0  0  0  0  0  0  0  0  0  0
   -7.0825   -2.5733   -0.6923 H   0  0  0  0  0  0  0  0  0  0  0  0
   -8.6207   -3.9488    0.6351 H   0  0  0  0  0  0  0  0  0  0  0  0
   -9.4182   -3.1481    2.8831 H   0  0  0  0  0  0  0  0  0  0  0  0
   -6.2740    1.3119    1.8373 H   0  0  0  0  0  0  0  0  0  0  0  0
   -7.0561    2.0447    4.0302 H   0  0  0  0  0  0  0  0  0  0  0  0
   -8.5607    0.7441    5.3762 H   0  0  0  0  0  0  0  0  0  0  0  0
   -9.3844   -1.4735    4.5432 H   0  0  0  0  0  0  0  0  0  0  0  0
  1  2  1  0
  2  3  2  0
  2  4  1  0
  4  5  1  0
  5  6  1  0
  6  7  1  0
  7  8  2  0
  7  9  1  0
  9 10  1  0
 10 11  1  0
 11 12  2  0
 12 13  1  0
 13 14  2  0
 14 15  1  0
 15 16  2  0
  9 17  1  0
 17 18  1  0
 18 19  2  0
 18 20  1  0
 20 21  1  0
 21 22  1  0
 22 23  2  0
 22 24  1  0
 24 25  1  0
 25 26  1  0
 26 27  1  0
 27 28  1  0
 28 29  2  3
 29 30  1  0
 29 31  1  0
 24 32  1  0
 32 33  1  0
 33 34  2  0
 33 35  1  0
 35 36  1  0
 36 37  1  0
 37 38  2  0
 37 39  1  0
 39 40  1  0
 40 41  1  0
 41 42  2  0
 41 43  1  0
 43 44  1  0
 44 45  1  0
 45 46  2  0
 45 47  1  0
 47 48  1  0
 48 49  1  0
 49 50  2  0
 47 51  1  0
 43 52  1  0
 52 53  1  0
 53 54  2  0
 54 55  1  0
 55 56  2  0
 56 57  1  0
 57 58  2  0
 40 59  1  0
 59 60  1  0
 60 61  1  0
 36 62  1  0
 62 63  1  0
 63 64  1  0
 20 65  1  0
 65 66  1  0
 66 67  2  0
 67 68  1  0
 68 69  2  0
 69 70  1  0
 70 71  2  0
 71 72  1  0
 72 73  2  0
 73 74  1  0
 74 75  2  0
 49  5  1  0
 58 53  1  0
 71 66  1  0
 16 11  1  0
 64 35  1  0
 75 70  1  0
 61 39  1  0
  1 76  1  0
  1 77  1  0
  4 78  1  0
  4 79  1  0
  5 80  1  1
  6 81  1  0
  9 82  1  1
 10 83  1  0
 10 84  1  0
 12 85  1  0
 13 86  1  0
 14 87  1  0
 15 88  1  0
 16 89  1  0
 17 90  1  0
 20 91  1  0
 21 92  1  0
 24 93  1  1
 25 94  1  0
 25 95  1  0
 26 96  1  0
 26 97  1  0
 27 98  1  0
 27 99  1  0
 30100  1  0
 30101  1  0
 31102  1  0
 31103  1  0
 32104  1  0
 35105  1  1
 39106  1  6
 43107  1  1
 44108  1  0
 47109  1  6
 48110  1  0
 51111  1  0
 51112  1  0
 51113  1  0
 52114  1  0
 52115  1  0
 54116  1  0
 55117  1  0
 56118  1  0
 57119  1  0
 58120  1  0
 59121  1  0
 59122  1  0
 60123  1  0
 60124  1  0
 61125  1  0
 61126  1  0
 62127  1  0
 62128  1  0
 63129  1  0
 63130  1  0
 64131  1  0
 64132  1  0
 65133  1  0
 65134  1  0
 67135  1  0
 68136  1  0
 69137  1  0
 72138  1  0
 73139  1  0
 74140  1  0
 75141  1  0
M  END
>  <Ligand ID>  (1) 
LIG0005510

>  <Ligand>  (1) 
CHEMBL3577986

>  <SMILES>  (1) 
NC(=O)C[C@@H]1NC(=O)[C@H](Cc2ccccc2)NC(=O)C(NC(=O)[C@H](CCCN=C(N)N)NC(=O)[C@H]2N(C(=O)[C@@H]3N(C(=O)[C@@H](NC(=O)[C@@H](NC1=O)C)Cc1ccccc1)CCC3)CCC2)Cc1cccc2c1cccc2

>  <CID>  (1) 
122178157.0

>  <ChEMBL ID>  (1) 
nan

>  <InChiKey>  (1) 
CUCIWQUVTBPPBH-JHQNEBCVSA-N

>  <InChi>  (1) 
InChI=1S/C54H66N12O9/c1-32-46(68)64-42(29-34-16-6-3-7-17-34)52(74)66-27-13-24-44(66)53(75)65-26-12-23-43(65)51(73)60-38(22-11-25-58-54(56)57)47(69)62-40(30-36-20-10-19-35-18-8-9-21-37(35)36)50(72)61-39(28-33-14-4-2-5-15-33)49(71)63-41(31-45(55)67)48(70)59-32/h2-10,14-21,32,38-44H,11-13,22-31H2,1H3,(H2,55,67)(H,59,70)(H,60,73)(H,61,72)(H,62,69)(H,63,71)(H,64,68)(H4,56,57,58)/t32-,38-,39-,40?,41-,42-,43-,44+/m0/s1

>  <IUPAC Name>  (1) 
2-[(3R,9S,12S,15S,18S,24S,27S)-9,18-dibenzyl-24-[3-(diaminomethylideneamino)propyl]-12-methyl-21-(naphthalen-1-ylmethyl)-2,8,11,14,17,20,23,26-octaoxo-1,7,10,13,16,19,22,25-octazatricyclo[25.3.0.03,7]triacontan-15-yl]acetamide

$$$$
