
     RDKit          3D

168172  0  0  0  0  0  0  0  0999 V2000
   -9.7209    2.3025    5.5567 C   0  0  0  0  0  0  0  0  0  0  0  0
   -9.6892    3.0641    4.3436 N   0  0  0  0  0  0  0  0  0  0  0  0
   -8.7508    3.8723    3.9788 C   0  0  0  0  0  0  0  0  0  0  0  0
   -8.8159    4.5952    2.7257 N   0  0  0  0  0  0  0  0  0  0  0  0
   -9.9123    4.2542    1.8566 C   0  0  0  0  0  0  0  0  0  0  0  0
   -9.7342    2.8407    1.2838 C   0  0  0  0  0  0  0  0  0  0  0  0
   -8.4843    2.7172    0.4465 C   0  0  0  0  0  0  0  0  0  0  0  0
   -8.2975    1.3813   -0.0847 C   0  0  1  0  0  0  0  0  0  0  0  0
   -9.1670    0.6981   -1.0082 C   0  0  0  0  0  0  0  0  0  0  0  0
   -8.5311   -0.2104   -1.7337 O   0  0  0  0  0  0  0  0  0  0  0  0
  -10.5189    0.7850   -1.3119 N   0  0  0  0  0  0  0  0  0  0  0  0
  -11.0642   -0.0890   -2.3297 C   0  0  2  0  0  0  0  0  0  0  0  0
  -10.9832    0.6085   -3.6767 C   0  0  0  0  0  0  0  0  0  0  0  0
  -10.5075    1.7675   -3.7460 O   0  0  0  0  0  0  0  0  0  0  0  0
  -11.4231    0.0037   -4.8714 N   0  0  0  0  0  0  0  0  0  0  0  0
  -12.4396   -0.6076   -2.0983 C   0  0  0  0  0  0  0  0  0  0  0  0
  -12.6124   -1.4162   -0.8893 C   0  0  0  0  0  0  0  0  0  0  0  0
  -12.5608   -2.8128   -0.8979 C   0  0  0  0  0  0  0  0  0  0  0  0
  -12.7282   -3.2740    0.3574 N   0  0  0  0  0  0  0  0  0  0  0  0
  -12.8918   -2.2402    1.2129 C   0  0  0  0  0  0  0  0  0  0  0  0
  -12.8189   -1.0957    0.4236 C   0  0  0  0  0  0  0  0  0  0  0  0
  -12.9781    0.0982    1.0700 C   0  0  0  0  0  0  0  0  0  0  0  0
  -13.1943    0.1837    2.4178 C   0  0  0  0  0  0  0  0  0  0  0  0
  -13.2635   -0.9577    3.1942 C   0  0  0  0  0  0  0  0  0  0  0  0
  -13.1082   -2.1855    2.5710 C   0  0  0  0  0  0  0  0  0  0  0  0
   -6.9481    1.0014   -0.4960 N   0  0  0  0  0  0  0  0  0  0  0  0
   -5.9724    0.4516    0.3653 C   0  0  0  0  0  0  0  0  0  0  0  0
   -6.1923    0.2894    1.5888 O   0  0  0  0  0  0  0  0  0  0  0  0
   -4.6812    0.0783   -0.2871 C   0  0  1  0  0  0  0  0  0  0  0  0
   -3.7044   -0.3127    0.7172 N   0  0  0  0  0  0  0  0  0  0  0  0
   -2.3260   -0.1863    0.5050 C   0  0  0  0  0  0  0  0  0  0  0  0
   -1.7945    0.2673   -0.5545 O   0  0  0  0  0  0  0  0  0  0  0  0
   -1.3347   -0.5765    1.4908 N   0  0  0  0  0  0  0  0  0  0  0  0
   -0.0048   -0.4364    0.9765 N   0  0  0  0  0  0  0  0  0  0  0  0
    0.4893   -1.6242    0.3941 C   0  0  0  0  0  0  0  0  0  0  0  0
   -0.3197   -2.6244    0.4541 O   0  0  0  0  0  0  0  0  0  0  0  0
    1.7621   -1.8788   -0.2569 C   0  0  1  0  0  0  0  0  0  0  0  0
    2.6450   -0.7863   -0.5058 N   0  0  0  0  0  0  0  0  0  0  0  0
    2.4098   -0.0086   -1.6680 C   0  0  0  0  0  0  0  0  0  0  0  0
    1.3586   -0.3630   -2.3379 O   0  0  0  0  0  0  0  0  0  0  0  0
    3.1609    1.1028   -2.2071 C   0  0  2  0  0  0  0  0  0  0  0  0
    3.2819    0.8020   -3.7434 C   0  0  2  0  0  0  0  0  0  0  0  0
    1.9558    0.7474   -4.1662 O   0  0  0  0  0  0  0  0  0  0  0  0
    3.9332   -0.5185   -3.9805 C   0  0  0  0  0  0  0  0  0  0  0  0
    4.4816    1.1819   -1.6603 N   0  0  0  0  0  0  0  0  0  0  0  0
    5.1988    2.4155   -1.9114 C   0  0  0  0  0  0  0  0  0  0  0  0
    4.4859    3.2561   -2.5731 O   0  0  0  0  0  0  0  0  0  0  0  0
    6.5639    2.6957   -1.4909 C   0  0  1  0  0  0  0  0  0  0  0  0
    7.0781    1.6020   -0.6755 N   0  0  0  0  0  0  0  0  0  0  0  0
    7.9827    1.8638    0.4064 C   0  0  0  0  0  0  0  0  0  0  0  0
    8.2882    3.0953    0.5788 O   0  0  0  0  0  0  0  0  0  0  0  0
    8.5313    0.7984    1.2640 C   0  0  2  0  0  0  0  0  0  0  0  0
    7.4491    0.2991    2.2429 C   0  0  0  0  0  0  0  0  0  0  0  0
    7.4786    1.4358    3.2488 C   0  0  2  0  0  0  0  0  0  0  0  0
    8.9430    1.6868    3.3948 C   0  0  0  0  0  0  0  0  0  0  0  0
    9.5855    1.2440    2.1242 N   0  0  0  0  0  0  0  0  0  0  0  0
   10.9932    1.3209    2.0037 C   0  0  0  0  0  0  0  0  0  0  0  0
   11.5818    1.7735    3.0702 O   0  0  0  0  0  0  0  0  0  0  0  0
   11.8520    0.9836    0.9008 C   0  0  1  0  0  0  0  0  0  0  0  0
   12.9679    0.0587    1.3674 C   0  0  0  0  0  0  0  0  0  0  0  0
   12.4884   -1.2085    1.9361 C   0  0  0  0  0  0  0  0  0  0  0  0
   12.2312   -1.4422    3.2677 C   0  0  0  0  0  0  0  0  0  0  0  0
   11.7797   -2.6665    3.7119 C   0  0  0  0  0  0  0  0  0  0  0  0
   11.5527   -3.7408    2.8660 C   0  0  0  0  0  0  0  0  0  0  0  0
   11.8164   -3.4960    1.5144 C   0  0  0  0  0  0  0  0  0  0  0  0
   12.2670   -2.2828    1.0559 C   0  0  0  0  0  0  0  0  0  0  0  0
   11.0987   -4.9694    3.3013 O   0  0  0  0  0  0  0  0  0  0  0  0
   11.2588    0.5246   -0.3116 N   0  0  0  0  0  0  0  0  0  0  0  0
   11.2894    1.3743   -1.4816 C   0  0  0  0  0  0  0  0  0  0  0  0
   11.8457    2.5315   -1.4282 O   0  0  0  0  0  0  0  0  0  0  0  0
   10.6608    0.8864   -2.7590 C   0  0  0  0  0  0  0  0  0  0  0  0
    6.8359    1.0464    4.4156 O   0  0  0  0  0  0  0  0  0  0  0  0
    7.4772    2.7079   -2.7695 C   0  0  0  0  0  0  0  0  0  0  0  0
    7.0207    3.7560   -3.6844 C   0  0  0  0  0  0  0  0  0  0  0  0
    7.2646    3.5643   -4.9333 O   0  0  0  0  0  0  0  0  0  0  0  0
    6.3477    4.9505   -3.3354 N   0  0  0  0  0  0  0  0  0  0  0  0
    2.4317   -3.0411    0.4416 C   0  0  0  0  0  0  0  0  0  0  0  0
    3.7504   -3.3832   -0.1363 C   0  0  0  0  0  0  0  0  0  0  0  0
    3.9315   -4.2564   -1.1645 C   0  0  0  0  0  0  0  0  0  0  0  0
    5.1894   -4.5762   -1.6843 C   0  0  0  0  0  0  0  0  0  0  0  0
    6.3310   -4.0026   -1.1582 C   0  0  0  0  0  0  0  0  0  0  0  0
    6.1675   -3.1133   -0.1133 C   0  0  0  0  0  0  0  0  0  0  0  0
    4.9086   -2.7932    0.4054 C   0  0  0  0  0  0  0  0  0  0  0  0
    7.2583   -2.5272    0.4318 F   0  0  0  0  0  0  0  0  0  0  0  0
   -4.9766   -1.2620   -1.0105 C   0  0  0  0  0  0  0  0  0  0  0  0
   -3.8602   -1.8314   -1.7774 C   0  0  0  0  0  0  0  0  0  0  0  0
   -3.3487   -0.9918   -2.9244 C   0  0  0  0  0  0  0  0  0  0  0  0
   -4.3396   -3.1441   -2.3706 C   0  0  0  0  0  0  0  0  0  0  0  0
   -7.6489    4.0261    4.8634 N   0  0  0  0  0  0  0  0  0  0  0  0
  -10.4258    2.7389    6.2963 H   0  0  0  0  0  0  0  0  0  0  0  0
   -8.6914    2.3059    6.0093 H   0  0  0  0  0  0  0  0  0  0  0  0
  -10.0070    1.2556    5.2579 H   0  0  0  0  0  0  0  0  0  0  0  0
   -8.1101    5.3175    2.4685 H   0  0  0  0  0  0  0  0  0  0  0  0
  -10.0644    4.9880    1.0350 H   0  0  0  0  0  0  0  0  0  0  0  0
  -10.8340    4.2211    2.4631 H   0  0  0  0  0  0  0  0  0  0  0  0
   -9.5669    2.1986    2.2138 H   0  0  0  0  0  0  0  0  0  0  0  0
  -10.6544    2.4711    0.8759 H   0  0  0  0  0  0  0  0  0  0  0  0
   -8.4664    3.5338   -0.3358 H   0  0  0  0  0  0  0  0  0  0  0  0
   -7.6489    2.9372    1.1746 H   0  0  0  0  0  0  0  0  0  0  0  0
   -8.3796    0.7141    0.8990 H   0  0  0  0  0  0  0  0  0  0  0  0
  -11.1181    1.4458   -0.8609 H   0  0  0  0  0  0  0  0  0  0  0  0
  -10.3932   -0.9925   -2.5128 H   0  0  0  0  0  0  0  0  0  0  0  0
  -11.6612    0.5346   -5.7142 H   0  0  0  0  0  0  0  0  0  0  0  0
  -11.5046   -1.0347   -4.8955 H   0  0  0  0  0  0  0  0  0  0  0  0
  -13.1694    0.2543   -2.0765 H   0  0  0  0  0  0  0  0  0  0  0  0
  -12.7582   -1.2334   -2.9909 H   0  0  0  0  0  0  0  0  0  0  0  0
  -12.4063   -3.4555   -1.7535 H   0  0  0  0  0  0  0  0  0  0  0  0
  -12.7237   -4.3027    0.6041 H   0  0  0  0  0  0  0  0  0  0  0  0
  -12.9408    0.9982    0.4918 H   0  0  0  0  0  0  0  0  0  0  0  0
  -13.3217    1.1623    2.8980 H   0  0  0  0  0  0  0  0  0  0  0  0
  -13.4430   -0.8910    4.2752 H   0  0  0  0  0  0  0  0  0  0  0  0
  -13.1759   -3.0592    3.2029 H   0  0  0  0  0  0  0  0  0  0  0  0
   -6.7378    1.1683   -1.5114 H   0  0  0  0  0  0  0  0  0  0  0  0
   -4.2911    0.8008   -0.9520 H   0  0  0  0  0  0  0  0  0  0  0  0
   -4.0014   -0.7147    1.6628 H   0  0  0  0  0  0  0  0  0  0  0  0
   -1.5748   -0.9104    2.4234 H   0  0  0  0  0  0  0  0  0  0  0  0
    0.5503    0.4186    1.0226 H   0  0  0  0  0  0  0  0  0  0  0  0
    1.5300   -2.3017   -1.3216 H   0  0  0  0  0  0  0  0  0  0  0  0
    3.4597   -0.4937    0.0800 H   0  0  0  0  0  0  0  0  0  0  0  0
    2.5937    2.0434   -2.2227 H   0  0  0  0  0  0  0  0  0  0  0  0
    3.7773    1.6714   -4.1673 H   0  0  0  0  0  0  0  0  0  0  0  0
    1.4051    1.5003   -3.7976 H   0  0  0  0  0  0  0  0  0  0  0  0
    4.6477   -0.8441   -3.2032 H   0  0  0  0  0  0  0  0  0  0  0  0
    4.4324   -0.4598   -4.9884 H   0  0  0  0  0  0  0  0  0  0  0  0
    3.1837   -1.3640   -4.0872 H   0  0  0  0  0  0  0  0  0  0  0  0
    4.8898    0.4001   -1.1173 H   0  0  0  0  0  0  0  0  0  0  0  0
    6.6816    3.6850   -1.0446 H   0  0  0  0  0  0  0  0  0  0  0  0
    6.8327    0.6051   -0.8260 H   0  0  0  0  0  0  0  0  0  0  0  0
    8.7498   -0.0833    0.6362 H   0  0  0  0  0  0  0  0  0  0  0  0
    7.8541   -0.5961    2.7396 H   0  0  0  0  0  0  0  0  0  0  0  0
    6.4935    0.1007    1.7788 H   0  0  0  0  0  0  0  0  0  0  0  0
    6.9960    2.3654    2.8620 H   0  0  0  0  0  0  0  0  0  0  0  0
    9.1487    2.7644    3.5756 H   0  0  0  0  0  0  0  0  0  0  0  0
    9.3390    1.0640    4.2266 H   0  0  0  0  0  0  0  0  0  0  0  0
   12.3962    1.9432    0.6142 H   0  0  0  0  0  0  0  0  0  0  0  0
   13.5791    0.5675    2.1754 H   0  0  0  0  0  0  0  0  0  0  0  0
   13.6697   -0.1716    0.5523 H   0  0  0  0  0  0  0  0  0  0  0  0
   12.3913   -0.6501    3.9867 H   0  0  0  0  0  0  0  0  0  0  0  0
   11.5961   -2.7942    4.7569 H   0  0  0  0  0  0  0  0  0  0  0  0
   11.6613   -4.2890    0.7627 H   0  0  0  0  0  0  0  0  0  0  0  0
   12.4747   -2.1130   -0.0066 H   0  0  0  0  0  0  0  0  0  0  0  0
   10.4081   -5.4431    2.6928 H   0  0  0  0  0  0  0  0  0  0  0  0
   10.7992   -0.4193   -0.4327 H   0  0  0  0  0  0  0  0  0  0  0  0
   11.4125    0.1641   -3.1991 H   0  0  0  0  0  0  0  0  0  0  0  0
   10.4233    1.6845   -3.4597 H   0  0  0  0  0  0  0  0  0  0  0  0
    9.7760    0.2523   -2.4764 H   0  0  0  0  0  0  0  0  0  0  0  0
    7.5002    0.7638    5.0911 H   0  0  0  0  0  0  0  0  0  0  0  0
    7.3807    1.7185   -3.2966 H   0  0  0  0  0  0  0  0  0  0  0  0
    8.5222    2.8734   -2.4476 H   0  0  0  0  0  0  0  0  0  0  0  0
    6.4809    5.4721   -2.4300 H   0  0  0  0  0  0  0  0  0  0  0  0
    5.6590    5.3694   -4.0002 H   0  0  0  0  0  0  0  0  0  0  0  0
    2.5089   -2.9013    1.5476 H   0  0  0  0  0  0  0  0  0  0  0  0
    1.8085   -3.9597    0.3193 H   0  0  0  0  0  0  0  0  0  0  0  0
    3.0917   -4.7339   -1.6145 H   0  0  0  0  0  0  0  0  0  0  0  0
    5.2945   -5.2798   -2.5100 H   0  0  0  0  0  0  0  0  0  0  0  0
    7.2917   -4.2471   -1.5642 H   0  0  0  0  0  0  0  0  0  0  0  0
    4.8389   -2.0860    1.2339 H   0  0  0  0  0  0  0  0  0  0  0  0
   -5.2358   -1.9477   -0.1917 H   0  0  0  0  0  0  0  0  0  0  0  0
   -5.8710   -1.1677   -1.6418 H   0  0  0  0  0  0  0  0  0  0  0  0
   -3.0044   -2.1465   -1.1031 H   0  0  0  0  0  0  0  0  0  0  0  0
   -3.5071    0.0883   -2.7318 H   0  0  0  0  0  0  0  0  0  0  0  0
   -3.8727   -1.1980   -3.8934 H   0  0  0  0  0  0  0  0  0  0  0  0
   -2.2713   -1.1851   -3.1080 H   0  0  0  0  0  0  0  0  0  0  0  0
   -5.2571   -3.0446   -2.9342 H   0  0  0  0  0  0  0  0  0  0  0  0
   -3.4861   -3.5336   -2.9806 H   0  0  0  0  0  0  0  0  0  0  0  0
   -4.4515   -3.8280   -1.4776 H   0  0  0  0  0  0  0  0  0  0  0  0
   -7.7244    4.8042    5.5815 H   0  0  0  0  0  0  0  0  0  0  0  0
   -6.7923    3.4387    4.8537 H   0  0  0  0  0  0  0  0  0  0  0  0
  1  2  1  0
  2  3  2  3
  3  4  1  0
  4  5  1  0
  5  6  1  0
  6  7  1  0
  7  8  1  0
  8  9  1  0
  9 10  2  0
  9 11  1  0
 11 12  1  0
 12 13  1  0
 13 14  2  0
 13 15  1  0
 12 16  1  0
 16 17  1  0
 17 18  2  0
 18 19  1  0
 19 20  1  0
 20 21  2  0
 21 22  1  0
 22 23  2  0
 23 24  1  0
 24 25  2  0
  8 26  1  0
 26 27  1  0
 27 28  2  0
 27 29  1  0
 29 30  1  0
 30 31  1  0
 31 32  2  0
 31 33  1  0
 33 34  1  0
 34 35  1  0
 35 36  2  0
 35 37  1  0
 37 38  1  0
 38 39  1  0
 39 40  2  0
 39 41  1  0
 41 42  1  0
 42 43  1  0
 42 44  1  0
 41 45  1  0
 45 46  1  0
 46 47  2  0
 46 48  1  0
 48 49  1  0
 49 50  1  0
 50 51  2  0
 50 52  1  0
 52 53  1  0
 53 54  1  0
 54 55  1  0
 55 56  1  0
 56 57  1  0
 57 58  2  0
 57 59  1  0
 59 60  1  0
 60 61  1  0
 61 62  2  0
 62 63  1  0
 63 64  2  0
 64 65  1  0
 65 66  2  0
 64 67  1  0
 59 68  1  0
 68 69  1  0
 69 70  2  0
 69 71  1  0
 54 72  1  0
 48 73  1  0
 73 74  1  0
 74 75  2  0
 74 76  1  0
 37 77  1  0
 77 78  1  0
 78 79  2  0
 79 80  1  0
 80 81  2  0
 81 82  1  0
 82 83  2  0
 82 84  1  0
 29 85  1  0
 85 86  1  0
 86 87  1  0
 86 88  1  0
  3 89  1  0
 21 17  1  0
 56 52  1  0
 66 61  1  0
 83 78  1  0
 25 20  1  0
  1 90  1  0
  1 91  1  0
  1 92  1  0
  4 93  1  0
  5 94  1  0
  5 95  1  0
  6 96  1  0
  6 97  1  0
  7 98  1  0
  7 99  1  0
  8100  1  1
 11101  1  0
 12102  1  6
 15103  1  0
 15104  1  0
 16105  1  0
 16106  1  0
 18107  1  0
 19108  1  0
 22109  1  0
 23110  1  0
 24111  1  0
 25112  1  0
 26113  1  0
 29114  1  6
 30115  1  0
 33116  1  0
 34117  1  0
 37118  1  6
 38119  1  0
 41120  1  6
 42121  1  6
 43122  1  0
 44123  1  0
 44124  1  0
 44125  1  0
 45126  1  0
 48127  1  1
 49128  1  0
 52129  1  6
 53130  1  0
 53131  1  0
 54132  1  6
 55133  1  0
 55134  1  0
 59135  1  6
 60136  1  0
 60137  1  0
 62138  1  0
 63139  1  0
 65140  1  0
 66141  1  0
 67142  1  0
 68143  1  0
 71144  1  0
 71145  1  0
 71146  1  0
 72147  1  0
 73148  1  0
 73149  1  0
 76150  1  0
 76151  1  0
 77152  1  0
 77153  1  0
 79154  1  0
 80155  1  0
 81156  1  0
 83157  1  0
 85158  1  0
 85159  1  0
 86160  1  0
 87161  1  0
 87162  1  0
 87163  1  0
 88164  1  0
 88165  1  0
 88166  1  0
 89167  1  0
 89168  1  0
M  END
>  <Ligand ID>  (1) 
LIG0005333

>  <Ligand>  (1) 
CHEMBL3967782

>  <SMILES>  (1) 
CN=C(NCCC[C@@H](C(=O)N[C@H](C(=O)N)Cc1c[nH]c2c1cccc2)NC(=O)[C@@H](NC(=O)NNC(=O)[C@@H](NC(=O)[C@H]([C@H](O)C)NC(=O)[C@@H](NC(=O)[C@@H]1C[C@H](CN1C(=O)[C@@H](Cc1ccc(cc1)O)NC(=O)C)O)CC(=O)N)Cc1cccc(c1)F)CC(C)C)N

>  <CID>  (1) 
57653049.0

>  <ChEMBL ID>  (1) 
nan

>  <InChiKey>  (1) 
YNDMRDKTWORCFO-BCGHIHGISA-N

>  <InChi>  (1) 
InChI=1S/C58H79FN16O14/c1-29(2)20-42(51(83)67-40(14-9-19-64-57(62)63-5)50(82)68-41(49(61)81)24-34-27-65-39-13-7-6-12-38(34)39)71-58(89)74-73-53(85)43(23-33-10-8-11-35(59)21-33)70-55(87)48(30(3)76)72-52(84)44(26-47(60)80)69-54(86)46-25-37(79)28-75(46)56(88)45(66-31(4)77)22-32-15-17-36(78)18-16-32/h6-8,10-13,15-18,21,27,29-30,37,40-46,48,65,76,78-79H,9,14,19-20,22-26,28H2,1-5H3,(H2,60,80)(H2,61,81)(H,66,77)(H,67,83)(H,68,82)(H,69,86)(H,70,87)(H,72,84)(H,73,85)(H3,62,63,64)(H2,71,74,89)/t30-,37-,40+,41+,42+,43+,44+,45-,46+,48+/m1/s1

>  <IUPAC Name>  (1) 
(2S)-2-[[(2S,4R)-1-[(2R)-2-acetamido-3-(4-hydroxyphenyl)propanoyl]-4-hydroxypyrrolidine-2-carbonyl]amino]-N-[(2S,3R)-1-[[(2S)-1-[2-[[(2S)-1-[[(2S)-1-[[(2S)-1-amino-3-(1H-indol-3-yl)-1-oxopropan-2-yl]amino]-5-[(N'-methylcarbamimidoyl)amino]-1-oxopentan-2-yl]amino]-4-methyl-1-oxopentan-2-yl]carbamoyl]hydrazinyl]-3-(3-fluorophenyl)-1-oxopropan-2-yl]amino]-3-hydroxy-1-oxobutan-2-yl]butanediamide

$$$$
