
     RDKit          3D

 72 74  0  0  0  0  0  0  0  0999 V2000
   10.2445   -2.1719   -0.6324 C   0  0  0  0  0  0  0  0  0  0  0  0
    9.5544   -1.7801    0.6528 C   0  0  0  0  0  0  0  0  0  0  0  0
    8.6119   -0.6281    0.5167 C   0  0  2  0  0  0  0  0  0  0  0  0
    8.0536   -0.3870    1.7892 O   0  0  0  0  0  0  0  0  0  0  0  0
    7.5715   -0.8411   -0.3736 O   0  0  0  0  0  0  0  0  0  0  0  0
    7.1590    0.3869   -0.8442 C   0  0  2  0  0  0  0  0  0  0  0  0
    8.0839    1.4502   -0.3600 C   0  0  1  0  0  0  0  0  0  0  0  0
    9.2878    0.6541    0.0996 C   0  0  1  0  0  0  0  0  0  0  0  0
    9.9371    1.2458    1.1704 O   0  0  0  0  0  0  0  0  0  0  0  0
    8.4274    2.3685   -1.3533 O   0  0  0  0  0  0  0  0  0  0  0  0
    5.7203    0.6929   -0.4850 C   0  0  0  0  0  0  0  0  0  0  0  0
    5.5054    0.7117    0.8733 O   0  0  0  0  0  0  0  0  0  0  0  0
    3.9372    1.0438    1.3429 P   0  0  0  0  0  0  0  0  0  0  0  0
    4.0403    2.0133    2.5251 O   0  0  0  0  0  0  0  0  0  0  0  0
    3.0507    1.8470    0.1578 O   0  0  0  0  0  0  0  0  0  0  0  0
    1.8601    0.8909   -0.5219 P   0  0  0  0  0  0  0  0  0  0  0  0
    2.1803    0.6557   -1.9814 O   0  0  0  0  0  0  0  0  0  0  0  0
    0.3408    1.6777   -0.5126 O   0  0  0  0  0  0  0  0  0  0  0  0
   -0.7406    0.6103   -1.2635 P   0  0  0  0  0  0  0  0  0  0  0  0
   -0.6549   -0.7498   -0.6335 O   0  0  0  0  0  0  0  0  0  0  0  0
   -2.3247    1.1805   -1.2153 O   0  0  0  0  0  0  0  0  0  0  0  0
   -2.9666    1.1897    0.3245 P   0  0  0  0  0  0  0  0  0  0  0  0
   -2.6253    2.4478    1.0863 O   0  0  0  0  0  0  0  0  0  0  0  0
   -4.6418    0.9738    0.2170 O   0  0  0  0  0  0  0  0  0  0  0  0
   -5.2268    1.7552   -0.7742 C   0  0  0  0  0  0  0  0  0  0  0  0
   -6.7233    1.5432   -0.8492 C   0  0  1  0  0  0  0  0  0  0  0  0
   -7.0671    0.2439   -1.1277 O   0  0  0  0  0  0  0  0  0  0  0  0
   -8.2805    0.0223   -0.4919 C   0  0  2  0  0  0  0  0  0  0  0  0
   -8.0454    0.6505    0.8651 C   0  0  1  0  0  0  0  0  0  0  0  0
   -7.3413    1.9317    0.4748 C   0  0  2  0  0  0  0  0  0  0  0  0
   -8.3057    2.9100    0.2535 O   0  0  0  0  0  0  0  0  0  0  0  0
   -9.2383    0.9051    1.5350 O   0  0  0  0  0  0  0  0  0  0  0  0
   -8.5909   -1.3873   -0.3838 N   0  0  0  0  0  0  0  0  0  0  0  0
   -7.5748   -2.2557   -0.4169 C   0  0  0  0  0  0  0  0  0  0  0  0
   -7.7584   -3.6134   -0.3223 C   0  0  0  0  0  0  0  0  0  0  0  0
   -9.0770   -4.0481   -0.1881 C   0  0  0  0  0  0  0  0  0  0  0  0
   -9.2454   -5.2892   -0.1016 O   0  0  0  0  0  0  0  0  0  0  0  0
  -10.0839   -3.1544   -0.1572 N   0  0  0  0  0  0  0  0  0  0  0  0
   -9.8528   -1.8327   -0.2536 C   0  0  0  0  0  0  0  0  0  0  0  0
  -10.7913   -0.9877   -0.2255 O   0  0  0  0  0  0  0  0  0  0  0  0
   -2.3702   -0.1779    1.1540 O   0  0  0  0  0  0  0  0  0  0  0  0
   -0.2779    0.5260   -2.8888 O   0  0  0  0  0  0  0  0  0  0  0  0
    1.6463   -0.5669    0.3099 O   0  0  0  0  0  0  0  0  0  0  0  0
    3.1424   -0.3151    1.9502 O   0  0  0  0  0  0  0  0  0  0  0  0
   10.1547   -1.4345   -1.4346 H   0  0  0  0  0  0  0  0  0  0  0  0
   11.3094   -2.4310   -0.4418 H   0  0  0  0  0  0  0  0  0  0  0  0
    9.7555   -3.1335   -0.9479 H   0  0  0  0  0  0  0  0  0  0  0  0
    8.9902   -2.6157    1.1225 H   0  0  0  0  0  0  0  0  0  0  0  0
   10.3242   -1.4931    1.3833 H   0  0  0  0  0  0  0  0  0  0  0  0
    7.3901   -1.1068    1.9791 H   0  0  0  0  0  0  0  0  0  0  0  0
    7.2196    0.3685   -1.9539 H   0  0  0  0  0  0  0  0  0  0  0  0
    7.6611    1.9775    0.5422 H   0  0  0  0  0  0  0  0  0  0  0  0
    9.9668    0.4920   -0.7724 H   0  0  0  0  0  0  0  0  0  0  0  0
    9.5900    0.9184    2.0341 H   0  0  0  0  0  0  0  0  0  0  0  0
    7.8203    3.1448   -1.2467 H   0  0  0  0  0  0  0  0  0  0  0  0
    5.5540    1.7485   -0.8412 H   0  0  0  0  0  0  0  0  0  0  0  0
    5.0505    0.0689   -1.0747 H   0  0  0  0  0  0  0  0  0  0  0  0
   -5.0606    2.8115   -0.4537 H   0  0  0  0  0  0  0  0  0  0  0  0
   -4.7806    1.6008   -1.7568 H   0  0  0  0  0  0  0  0  0  0  0  0
   -7.1031    2.1898   -1.6667 H   0  0  0  0  0  0  0  0  0  0  0  0
   -9.0763    0.5441   -1.0508 H   0  0  0  0  0  0  0  0  0  0  0  0
   -7.3514    0.0034    1.4177 H   0  0  0  0  0  0  0  0  0  0  0  0
   -6.5919    2.2447    1.2178 H   0  0  0  0  0  0  0  0  0  0  0  0
   -8.7011    2.8439   -0.6488 H   0  0  0  0  0  0  0  0  0  0  0  0
   -9.1027    0.6031    2.4688 H   0  0  0  0  0  0  0  0  0  0  0  0
   -6.5536   -1.8983   -0.5221 H   0  0  0  0  0  0  0  0  0  0  0  0
   -6.9208   -4.2783   -0.3526 H   0  0  0  0  0  0  0  0  0  0  0  0
  -11.0433   -3.5320   -0.0559 H   0  0  0  0  0  0  0  0  0  0  0  0
   -1.4895    0.0010    1.5688 H   0  0  0  0  0  0  0  0  0  0  0  0
   -0.0927   -0.4088   -3.1676 H   0  0  0  0  0  0  0  0  0  0  0  0
    0.9956   -0.4010    1.0280 H   0  0  0  0  0  0  0  0  0  0  0  0
    3.5355   -1.1702    1.6506 H   0  0  0  0  0  0  0  0  0  0  0  0
  1  2  1  0
  2  3  1  0
  3  4  1  1
  3  5  1  0
  5  6  1  0
  6  7  1  0
  7  8  1  0
  8  9  1  0
  7 10  1  0
  6 11  1  0
 11 12  1  0
 12 13  1  0
 13 14  2  0
 13 15  1  0
 15 16  1  0
 16 17  2  0
 16 18  1  0
 18 19  1  0
 19 20  2  0
 19 21  1  0
 21 22  1  0
 22 23  2  0
 22 24  1  0
 24 25  1  0
 25 26  1  0
 26 27  1  0
 27 28  1  0
 28 29  1  0
 29 30  1  0
 30 31  1  0
 29 32  1  0
 28 33  1  0
 33 34  1  0
 34 35  2  0
 35 36  1  0
 36 37  2  0
 36 38  1  0
 38 39  1  0
 39 40  2  0
 22 41  1  0
 19 42  1  0
 16 43  1  0
 13 44  1  0
  8  3  1  0
 30 26  1  0
 39 33  1  0
  1 45  1  0
  1 46  1  0
  1 47  1  0
  2 48  1  0
  2 49  1  0
  4 50  1  0
  6 51  1  6
  7 52  1  1
  8 53  1  6
  9 54  1  0
 10 55  1  0
 11 56  1  0
 11 57  1  0
 25 58  1  0
 25 59  1  0
 26 60  1  6
 28 61  1  6
 29 62  1  1
 30 63  1  1
 31 64  1  0
 32 65  1  0
 34 66  1  0
 35 67  1  0
 38 68  1  0
 41 69  1  0
 42 70  1  0
 43 71  1  0
 44 72  1  0
M  END
>  <Ligand ID>  (1) 
LIG0003535

>  <Ligand>  (1) 
CHEMBL500840

>  <SMILES>  (1) 
CC[C@]1(O)O[C@H]([C@@H]([C@H]1O)O)COP(=O)(OP(=O)(OP(=O)(OP(=O)(OC[C@H]1O[C@H]([C@@H]([C@@H]1O)O)n1ccc(=O)[nH]c1=O)O)O)O)O

>  <CID>  (1) 
44585517.0

>  <ChEMBL ID>  (1) 
nan

>  <InChiKey>  (1) 
IRHOAYPWMKMNPQ-MLTZJJJHSA-N

>  <InChi>  (1) 
InChI=1S/C16H28N2O22P4/c1-2-16(25)13(23)11(21)8(37-16)6-35-42(28,29)39-44(32,33)40-43(30,31)38-41(26,27)34-5-7-10(20)12(22)14(36-7)18-4-3-9(19)17-15(18)24/h3-4,7-8,10-14,20-23,25H,2,5-6H2,1H3,(H,26,27)(H,28,29)(H,30,31)(H,32,33)(H,17,19,24)/t7-,8+,10-,11+,12-,13-,14-,16+/m1/s1

>  <IUPAC Name>  (1) 
[[(2R,3S,4R,5R)-5-(2,4-dioxopyrimidin-1-yl)-3,4-dihydroxyoxolan-2-yl]methoxy-hydroxyphosphoryl] [[[(2S,3R,4R,5S)-5-ethyl-3,4,5-trihydroxyoxolan-2-yl]methoxy-hydroxyphosphoryl]oxy-hydroxyphosphoryl] hydrogen phosphate

$$$$
