
     RDKit          3D

 60 62  0  0  0  0  0  0  0  0999 V2000
    3.4320   -0.1517   -0.8400 O   0  0  0  0  0  0  0  0  0  0  0  0
    3.6637   -0.5097    0.3513 C   0  0  0  0  0  0  0  0  0  0  0  0
    2.6094   -0.7057    1.2792 N   0  0  0  0  0  0  0  0  0  0  0  0
    0.9244   -0.4542    0.8050 S   0  0  0  0  0  0  0  0  0  0  0  0
    0.9780   -0.6831   -0.7003 O   0  0  0  0  0  0  0  0  0  0  0  0
    0.1413   -1.5043    1.4415 O   0  0  0  0  0  0  0  0  0  0  0  0
    0.4892    1.1867    1.0818 C   0  0  0  0  0  0  0  0  0  0  0  0
    1.5331    2.0360    1.4812 C   0  0  0  0  0  0  0  0  0  0  0  0
    1.3769    3.3431    1.6913 N   0  0  0  0  0  0  0  0  0  0  0  0
    0.1875    3.8834    1.5198 C   0  0  0  0  0  0  0  0  0  0  0  0
   -0.8551    3.1006    1.1340 C   0  0  0  0  0  0  0  0  0  0  0  0
   -0.7621    1.7066    0.8942 C   0  0  0  0  0  0  0  0  0  0  0  0
   -1.9360    1.0557    0.5630 N   0  0  0  0  0  0  0  0  0  0  0  0
   -2.4514   -0.2288    0.3267 C   0  0  2  0  0  0  0  0  0  0  0  0
   -2.0610   -0.9809   -0.8915 C   0  0  0  0  0  0  0  0  0  0  0  0
   -3.3779   -1.4745   -1.4835 C   0  0  2  0  0  0  0  0  0  0  0  0
   -4.2624   -0.2745   -1.2564 C   0  0  0  0  0  0  0  0  0  0  0  0
   -3.9956   -0.2012    0.2225 C   0  0  2  0  0  0  0  0  0  0  0  0
   -4.6245    0.9201    0.9488 C   0  0  0  0  0  0  0  0  0  0  0  0
   -4.4385   -1.5646    0.6723 C   0  0  0  0  0  0  0  0  0  0  0  0
   -4.0226   -2.4332   -0.4984 C   0  0  0  0  0  0  0  0  0  0  0  0
   -5.7081   -0.5061   -1.5774 C   0  0  0  0  0  0  0  0  0  0  0  0
   -3.8244    0.9305   -2.0200 C   0  0  0  0  0  0  0  0  0  0  0  0
    4.9899   -0.7298    0.8069 N   0  0  0  0  0  0  0  0  0  0  0  0
    6.1264   -0.5584   -0.0571 C   0  0  0  0  0  0  0  0  0  0  0  0
    7.4255   -0.8606    0.6918 C   0  0  0  0  0  0  0  0  0  0  0  0
    6.0616   -1.5520   -1.2079 C   0  0  0  0  0  0  0  0  0  0  0  0
    6.2387    0.8413   -0.6163 C   0  0  0  0  0  0  0  0  0  0  0  0
    2.7926   -1.0019    2.2617 H   0  0  0  0  0  0  0  0  0  0  0  0
    2.5456    1.6489    1.6405 H   0  0  0  0  0  0  0  0  0  0  0  0
    0.0709    4.9433    1.6916 H   0  0  0  0  0  0  0  0  0  0  0  0
   -1.8106    3.6252    1.0139 H   0  0  0  0  0  0  0  0  0  0  0  0
   -2.7652    1.7936    0.4065 H   0  0  0  0  0  0  0  0  0  0  0  0
   -2.2285   -0.8812    1.2226 H   0  0  0  0  0  0  0  0  0  0  0  0
   -1.5490   -0.3596   -1.6578 H   0  0  0  0  0  0  0  0  0  0  0  0
   -1.4165   -1.8828   -0.7030 H   0  0  0  0  0  0  0  0  0  0  0  0
   -3.3125   -1.8284   -2.4979 H   0  0  0  0  0  0  0  0  0  0  0  0
   -5.6247    0.5824    1.2917 H   0  0  0  0  0  0  0  0  0  0  0  0
   -4.0365    1.1460    1.8596 H   0  0  0  0  0  0  0  0  0  0  0  0
   -4.7949    1.7550    0.2729 H   0  0  0  0  0  0  0  0  0  0  0  0
   -3.8308   -1.8085    1.5887 H   0  0  0  0  0  0  0  0  0  0  0  0
   -5.5198   -1.6328    0.8831 H   0  0  0  0  0  0  0  0  0  0  0  0
   -3.2391   -3.1543   -0.1499 H   0  0  0  0  0  0  0  0  0  0  0  0
   -4.8155   -3.0293   -0.9367 H   0  0  0  0  0  0  0  0  0  0  0  0
   -6.3961   -0.0453   -0.8172 H   0  0  0  0  0  0  0  0  0  0  0  0
   -5.9284   -1.5661   -1.7877 H   0  0  0  0  0  0  0  0  0  0  0  0
   -6.0029    0.0265   -2.5299 H   0  0  0  0  0  0  0  0  0  0  0  0
   -4.0255    0.7236   -3.0910 H   0  0  0  0  0  0  0  0  0  0  0  0
   -2.7892    1.2304   -1.9304 H   0  0  0  0  0  0  0  0  0  0  0  0
   -4.4702    1.7641   -1.7372 H   0  0  0  0  0  0  0  0  0  0  0  0
    5.1470   -1.0225    1.7895 H   0  0  0  0  0  0  0  0  0  0  0  0
    7.3193   -1.8095    1.2542 H   0  0  0  0  0  0  0  0  0  0  0  0
    8.2717   -0.9315    0.0094 H   0  0  0  0  0  0  0  0  0  0  0  0
    7.6353   -0.0693    1.4419 H   0  0  0  0  0  0  0  0  0  0  0  0
    6.6642   -2.4642   -0.9927 H   0  0  0  0  0  0  0  0  0  0  0  0
    6.4126   -1.0997   -2.1480 H   0  0  0  0  0  0  0  0  0  0  0  0
    5.0043   -1.8588   -1.3621 H   0  0  0  0  0  0  0  0  0  0  0  0
    7.3037    1.1512   -0.6563 H   0  0  0  0  0  0  0  0  0  0  0  0
    5.8309    0.9027   -1.6514 H   0  0  0  0  0  0  0  0  0  0  0  0
    5.6996    1.5220    0.0681 H   0  0  0  0  0  0  0  0  0  0  0  0
  1  2  2  0
  2  3  1  0
  3  4  1  0
  4  5  2  0
  4  6  2  0
  4  7  1  0
  7  8  2  0
  8  9  1  0
  9 10  2  0
 10 11  1  0
 11 12  2  0
 12 13  1  0
 13 14  1  0
 14 15  1  0
 15 16  1  0
 16 17  1  0
 17 18  1  0
 18 19  1  1
 18 20  1  0
 20 21  1  0
 17 22  1  0
 17 23  1  0
  2 24  1  0
 24 25  1  0
 25 26  1  0
 25 27  1  0
 25 28  1  0
 12  7  1  0
 18 14  1  0
 21 16  1  0
  3 29  1  0
  8 30  1  0
 10 31  1  0
 11 32  1  0
 13 33  1  0
 14 34  1  1
 15 35  1  0
 15 36  1  0
 16 37  1  6
 19 38  1  0
 19 39  1  0
 19 40  1  0
 20 41  1  0
 20 42  1  0
 21 43  1  0
 21 44  1  0
 22 45  1  0
 22 46  1  0
 22 47  1  0
 23 48  1  0
 23 49  1  0
 23 50  1  0
 24 51  1  0
 26 52  1  0
 26 53  1  0
 26 54  1  0
 27 55  1  0
 27 56  1  0
 27 57  1  0
 28 58  1  0
 28 59  1  0
 28 60  1  0
M  END
>  <Ligand ID>  (1) 
LIG0005145

>  <Ligand>  (1) 
CHEMBL1762254

>  <SMILES>  (1) 
O=C(NS(=O)(=O)c1cnccc1N[C@@H]1C[C@@H]2C([C@@]1(C)CC2)(C)C)NC(C)(C)C

>  <CID>  (1) 
54586335.0

>  <ChEMBL ID>  (1) 
nan

>  <InChiKey>  (1) 
SKRHDNAURICTLH-AUJRIZCKSA-N

>  <InChi>  (1) 
InChI=1S/C20H32N4O3S/c1-18(2,3)23-17(25)24-28(26,27)15-12-21-10-8-14(15)22-16-11-13-7-9-20(16,6)19(13,4)5/h8,10,12-13,16H,7,9,11H2,1-6H3,(H,21,22)(H2,23,24,25)/t13-,16-,20+/m1/s1

>  <IUPAC Name>  (1) 
1-tert-butyl-3-[4-[[(1R,2R,4R)-1,7,7-trimethyl-2-bicyclo[2.2.1]heptanyl]amino]pyridin-3-yl]sulfonylurea

$$$$
