
     RDKit          3D

 35 38  0  0  0  0  0  0  0  0999 V2000
   -6.0591   -0.6178    2.0768 C   0  0  0  0  0  0  0  0  0  0  0  0
   -4.9172   -0.3665    1.3573 O   0  0  0  0  0  0  0  0  0  0  0  0
   -4.7362   -0.0911    0.0298 C   0  0  0  0  0  0  0  0  0  0  0  0
   -5.7398   -0.0232   -0.8903 C   0  0  0  0  0  0  0  0  0  0  0  0
   -5.5367    0.2550   -2.2521 C   0  0  0  0  0  0  0  0  0  0  0  0
   -4.2383    0.4554   -2.6217 C   0  0  0  0  0  0  0  0  0  0  0  0
   -3.1684    0.4078   -1.7448 C   0  0  0  0  0  0  0  0  0  0  0  0
   -3.4078    0.1249   -0.3608 C   0  0  0  0  0  0  0  0  0  0  0  0
   -2.2751    0.1791    0.2436 N   0  0  0  0  0  0  0  0  0  0  0  0
   -1.1790    0.3795   -0.0123 C   0  0  0  0  0  0  0  0  0  0  0  0
   -1.4105    0.6813   -1.9183 S   0  0  0  0  0  0  0  0  0  0  0  0
    0.0948    0.5302    0.5366 N   0  0  0  0  0  0  0  0  0  0  0  0
    1.2166   -0.2985    0.5838 C   0  0  0  0  0  0  0  0  0  0  0  0
    1.3571   -2.0321    1.0561 S   0  0  0  0  0  0  0  0  0  0  0  0
    3.1464   -2.0891    0.8700 C   0  0  0  0  0  0  0  0  0  0  0  0
    3.4347   -0.7468    0.4574 C   0  0  0  0  0  0  0  0  0  0  0  0
    2.3962   -0.0039    0.3671 N   0  0  0  0  0  0  0  0  0  0  0  0
    4.8080   -0.2308    0.2298 C   0  0  0  0  0  0  0  0  0  0  0  0
    5.0044    1.0851   -0.1908 C   0  0  0  0  0  0  0  0  0  0  0  0
    6.2715    1.6106   -0.3978 C   0  0  0  0  0  0  0  0  0  0  0  0
    7.3559    0.7567   -0.1658 C   0  0  0  0  0  0  0  0  0  0  0  0
    7.1561   -0.5553    0.2519 C   0  0  0  0  0  0  0  0  0  0  0  0
    5.8948   -0.9629    0.4222 N   0  0  0  0  0  0  0  0  0  0  0  0
   -6.9685   -0.0544    1.7461 H   0  0  0  0  0  0  0  0  0  0  0  0
   -6.3519   -1.7009    2.1092 H   0  0  0  0  0  0  0  0  0  0  0  0
   -5.9283   -0.3442    3.1674 H   0  0  0  0  0  0  0  0  0  0  0  0
   -6.7612   -0.1610   -0.5974 H   0  0  0  0  0  0  0  0  0  0  0  0
   -6.3470    0.3083   -2.9602 H   0  0  0  0  0  0  0  0  0  0  0  0
   -4.0235    0.6550   -3.6485 H   0  0  0  0  0  0  0  0  0  0  0  0
    0.2294    1.4913    1.0382 H   0  0  0  0  0  0  0  0  0  0  0  0
    3.8044   -2.8934    1.0153 H   0  0  0  0  0  0  0  0  0  0  0  0
    4.0986    1.6734   -0.3631 H   0  0  0  0  0  0  0  0  0  0  0  0
    6.3897    2.6137   -0.7320 H   0  0  0  0  0  0  0  0  0  0  0  0
    8.3777    1.1417   -0.3115 H   0  0  0  0  0  0  0  0  0  0  0  0
    8.0126   -1.1773    0.4249 H   0  0  0  0  0  0  0  0  0  0  0  0
  1  2  1  0
  2  3  1  0
  3  4  2  0
  4  5  1  0
  5  6  2  0
  6  7  1  0
  7  8  2  0
  8  9  1  0
  9 10  2  0
 10 11  1  0
 10 12  1  0
 12 13  1  0
 13 14  1  0
 14 15  1  0
 15 16  2  0
 16 17  1  0
 16 18  1  0
 18 19  2  0
 19 20  1  0
 20 21  2  0
 21 22  1  0
 22 23  2  0
  8  3  1  0
 17 13  2  0
 23 18  1  0
 11  7  1  0
  1 24  1  0
  1 25  1  0
  1 26  1  0
  4 27  1  0
  5 28  1  0
  6 29  1  0
 12 30  1  0
 15 31  1  0
 19 32  1  0
 20 33  1  0
 21 34  1  0
 22 35  1  0
M  END
>  <Ligand ID>  (1) 
LIG0004765

>  <Ligand>  (1) 
TCMDC-125543

>  <SMILES>  (1) 
COc1cccc2c1nc(s2)Nc1scc(n1)c1ccccn1

>  <CID>  (1) 
3240629.0

>  <ChEMBL ID>  (1) 
nan

>  <InChiKey>  (1) 
WSJSWLQVPVZOKR-UHFFFAOYSA-N

>  <InChi>  (1) 
InChI=1S/C16H12N4OS2/c1-21-12-6-4-7-13-14(12)19-16(23-13)20-15-18-11(9-22-15)10-5-2-3-8-17-10/h2-9H,1H3,(H,18,19,20)

>  <IUPAC Name>  (1) 
4-methoxy-N-(4-pyridin-2-yl-1,3-thiazol-2-yl)-1,3-benzothiazol-2-amine

$$$$
