
     RDKit          3D

 43 45  0  0  0  0  0  0  0  0999 V2000
    5.8847    2.3317    1.4148 C   0  0  0  0  0  0  0  0  0  0  0  0
    5.3764    0.9741    1.3092 N   0  0  0  0  0  0  0  0  0  0  0  0
    4.4534    0.6978    0.2712 C   0  0  0  0  0  0  0  0  0  0  0  0
    4.1493    1.6734   -0.4832 O   0  0  0  0  0  0  0  0  0  0  0  0
    3.9054   -0.6345    0.1065 C   0  0  0  0  0  0  0  0  0  0  0  0
    4.2732   -1.6221    0.9501 N   0  0  0  0  0  0  0  0  0  0  0  0
    3.8018   -2.8663    0.8454 C   0  0  0  0  0  0  0  0  0  0  0  0
    2.9020   -3.1475   -0.1689 C   0  0  0  0  0  0  0  0  0  0  0  0
    2.4897   -2.1784   -1.0611 C   0  0  0  0  0  0  0  0  0  0  0  0
    3.0096   -0.9179   -0.9027 C   0  0  0  0  0  0  0  0  0  0  0  0
    1.5411   -2.5793   -2.1166 C   0  0  0  0  0  0  0  0  0  0  0  0
   -0.1470   -2.4757   -1.4977 S   0  0  0  0  0  0  0  0  0  0  0  0
   -0.7027   -0.8282   -1.1647 C   0  0  0  0  0  0  0  0  0  0  0  0
    0.0182    0.2841   -1.3398 N   0  0  0  0  0  0  0  0  0  0  0  0
   -0.4458    1.5314   -1.0770 C   0  0  0  0  0  0  0  0  0  0  0  0
   -1.7275    1.6944   -0.6020 C   0  0  0  0  0  0  0  0  0  0  0  0
   -2.5104    0.5708   -0.4054 C   0  0  0  0  0  0  0  0  0  0  0  0
   -2.0009   -0.6815   -0.6850 C   0  0  0  0  0  0  0  0  0  0  0  0
   -2.8418   -1.8501   -0.4711 C   0  0  0  0  0  0  0  0  0  0  0  0
   -3.5234   -2.7796   -0.3154 N   0  0  0  0  0  0  0  0  0  0  0  0
   -3.8660    0.6679    0.0894 C   0  0  0  0  0  0  0  0  0  0  0  0
   -4.1711    0.6388    1.4541 C   0  0  0  0  0  0  0  0  0  0  0  0
   -5.4948    0.7376    1.8390 C   0  0  0  0  0  0  0  0  0  0  0  0
   -6.5152    0.8641    0.8959 C   0  0  0  0  0  0  0  0  0  0  0  0
   -6.2230    0.8937   -0.4521 C   0  0  0  0  0  0  0  0  0  0  0  0
   -4.8896    0.7941   -0.8398 C   0  0  0  0  0  0  0  0  0  0  0  0
   -2.2973    2.9771   -0.2984 C   0  0  0  0  0  0  0  0  0  0  0  0
   -2.7693    4.0067   -0.0428 N   0  0  0  0  0  0  0  0  0  0  0  0
    5.0881    3.0247    1.0885 H   0  0  0  0  0  0  0  0  0  0  0  0
    6.7602    2.4032    0.7270 H   0  0  0  0  0  0  0  0  0  0  0  0
    6.2410    2.5826    2.4298 H   0  0  0  0  0  0  0  0  0  0  0  0
    5.6662    0.2154    1.9605 H   0  0  0  0  0  0  0  0  0  0  0  0
    4.0875   -3.6596    1.5103 H   0  0  0  0  0  0  0  0  0  0  0  0
    2.5206   -4.1652   -0.2496 H   0  0  0  0  0  0  0  0  0  0  0  0
    2.7240   -0.1307   -1.5803 H   0  0  0  0  0  0  0  0  0  0  0  0
    1.6732   -1.8712   -2.9902 H   0  0  0  0  0  0  0  0  0  0  0  0
    1.7394   -3.5973   -2.5093 H   0  0  0  0  0  0  0  0  0  0  0  0
    0.1553    2.4150   -1.2260 H   0  0  0  0  0  0  0  0  0  0  0  0
   -3.3627    0.5397    2.1868 H   0  0  0  0  0  0  0  0  0  0  0  0
   -5.7394    0.7160    2.9079 H   0  0  0  0  0  0  0  0  0  0  0  0
   -7.5626    0.9420    1.1996 H   0  0  0  0  0  0  0  0  0  0  0  0
   -7.0203    0.9922   -1.1664 H   0  0  0  0  0  0  0  0  0  0  0  0
   -4.6495    0.8171   -1.9127 H   0  0  0  0  0  0  0  0  0  0  0  0
  1  2  1  0
  2  3  1  0
  3  4  2  0
  3  5  1  0
  5  6  2  0
  6  7  1  0
  7  8  2  0
  8  9  1  0
  9 10  2  0
  9 11  1  0
 11 12  1  0
 12 13  1  0
 13 14  2  0
 14 15  1  0
 15 16  2  0
 16 17  1  0
 17 18  2  0
 18 19  1  0
 19 20  3  0
 17 21  1  0
 21 22  2  0
 22 23  1  0
 23 24  2  0
 24 25  1  0
 25 26  2  0
 16 27  1  0
 27 28  3  0
 10  5  1  0
 18 13  1  0
 26 21  1  0
  1 29  1  0
  1 30  1  0
  1 31  1  0
  2 32  1  0
  7 33  1  0
  8 34  1  0
 10 35  1  0
 11 36  1  0
 11 37  1  0
 15 38  1  0
 22 39  1  0
 23 40  1  0
 24 41  1  0
 25 42  1  0
 26 43  1  0
M  END
>  <Ligand ID>  (1) 
LIG0004679

>  <Ligand>  (1) 
SCHEMBL3365155

>  <SMILES>  (1) 
CNC(=O)c1nccc(c1)CSc1ncc(c(c1C#N)c1ccccc1)C#N

>  <CID>  (1) 
68614454.0

>  <ChEMBL ID>  (1) 
nan

>  <InChiKey>  (1) 
OEBWKIWBLVALPQ-UHFFFAOYSA-N

>  <InChi>  (1) 
InChI=1S/C21H15N5OS/c1-24-20(27)18-9-14(7-8-25-18)13-28-21-17(11-23)19(16(10-22)12-26-21)15-5-3-2-4-6-15/h2-9,12H,13H2,1H3,(H,24,27)

>  <IUPAC Name>  (1) 
4-[(3,5-dicyano-4-phenylpyridin-2-yl)sulfanylmethyl]-N-methylpyridine-2-carboxamide

$$$$
