
     RDKit          3D

 50 52  0  0  0  0  0  0  0  0999 V2000
   -3.7092    4.8883    1.4855 Cl  0  0  0  0  0  0  0  0  0  0  0  0
   -4.4505    3.3358    1.0852 C   0  0  0  0  0  0  0  0  0  0  0  0
   -5.7609    3.3150    0.6484 C   0  0  0  0  0  0  0  0  0  0  0  0
   -6.3840    2.1109    0.3234 C   0  0  0  0  0  0  0  0  0  0  0  0
   -5.6641    0.9216    0.4452 C   0  0  0  0  0  0  0  0  0  0  0  0
   -4.3513    0.9645    0.8850 C   0  0  0  0  0  0  0  0  0  0  0  0
   -3.7198    2.1508    1.2111 C   0  0  0  0  0  0  0  0  0  0  0  0
   -3.6466   -0.3455    0.9882 C   0  0  2  0  0  0  0  0  0  0  0  0
   -3.3351   -0.7461   -0.4541 C   0  0  0  0  0  0  0  0  0  0  0  0
   -2.4820    0.2393   -1.0444 N   0  0  0  0  0  0  0  0  0  0  0  0
   -2.1550   -0.0729   -2.3992 C   0  0  0  0  0  0  0  0  0  0  0  0
   -1.2693   -1.2686   -2.4579 C   0  0  0  0  0  0  0  0  0  0  0  0
    0.0247   -1.1154   -1.7536 C   0  0  0  0  0  0  0  0  0  0  0  0
    1.0970   -0.5962   -2.4879 C   0  0  0  0  0  0  0  0  0  0  0  0
    2.3394   -0.4345   -1.8750 C   0  0  0  0  0  0  0  0  0  0  0  0
    2.5359   -0.7797   -0.5440 C   0  0  0  0  0  0  0  0  0  0  0  0
    1.4719   -1.2965    0.1894 C   0  0  0  0  0  0  0  0  0  0  0  0
    0.2376   -1.4519   -0.4372 C   0  0  0  0  0  0  0  0  0  0  0  0
    3.8420   -0.6074    0.0981 C   0  0  0  0  0  0  0  0  0  0  0  0
    3.9936   -0.0614    1.3507 C   0  0  0  0  0  0  0  0  0  0  0  0
    5.2865    0.0425    1.8330 C   0  0  0  0  0  0  0  0  0  0  0  0
    6.3907   -0.3716    1.1192 C   0  0  0  0  0  0  0  0  0  0  0  0
    6.2099   -0.9166   -0.1363 C   0  0  0  0  0  0  0  0  0  0  0  0
    4.9382   -1.0399   -0.6587 C   0  0  0  0  0  0  0  0  0  0  0  0
    4.7652   -1.5802   -1.9003 F   0  0  0  0  0  0  0  0  0  0  0  0
    7.7522   -0.2588    1.6333 C   0  0  0  0  0  0  0  0  0  0  0  0
    8.7528   -0.6525    0.9397 O   0  0  0  0  0  0  0  0  0  0  0  0
    8.0003    0.2846    2.9014 O   0  0  0  0  0  0  0  0  0  0  0  0
   -4.4774   -1.2900    1.5877 O   0  0  0  0  0  0  0  0  0  0  0  0
   -6.3591    4.2286    0.5396 H   0  0  0  0  0  0  0  0  0  0  0  0
   -7.4102    2.0654   -0.0220 H   0  0  0  0  0  0  0  0  0  0  0  0
   -6.1532   -0.0106    0.1916 H   0  0  0  0  0  0  0  0  0  0  0  0
   -2.6879    2.1572    1.5538 H   0  0  0  0  0  0  0  0  0  0  0  0
   -2.7160   -0.2677    1.5558 H   0  0  0  0  0  0  0  0  0  0  0  0
   -4.2987   -0.7676   -1.0348 H   0  0  0  0  0  0  0  0  0  0  0  0
   -2.8857   -1.7561   -0.3904 H   0  0  0  0  0  0  0  0  0  0  0  0
   -1.6104    0.3320   -0.5025 H   0  0  0  0  0  0  0  0  0  0  0  0
   -3.0934   -0.3326   -2.9393 H   0  0  0  0  0  0  0  0  0  0  0  0
   -1.7342    0.7885   -2.9601 H   0  0  0  0  0  0  0  0  0  0  0  0
   -1.1195   -1.5023   -3.5462 H   0  0  0  0  0  0  0  0  0  0  0  0
   -1.8041   -2.1545   -2.0631 H   0  0  0  0  0  0  0  0  0  0  0  0
    0.9441   -0.3245   -3.5336 H   0  0  0  0  0  0  0  0  0  0  0  0
    3.1670   -0.0267   -2.4665 H   0  0  0  0  0  0  0  0  0  0  0  0
    1.6240   -1.5664    1.2325 H   0  0  0  0  0  0  0  0  0  0  0  0
   -0.5730   -1.8571    0.1503 H   0  0  0  0  0  0  0  0  0  0  0  0
    3.1353    0.2616    1.9094 H   0  0  0  0  0  0  0  0  0  0  0  0
    5.4288    0.4698    2.8179 H   0  0  0  0  0  0  0  0  0  0  0  0
    7.0470   -1.2641   -0.7517 H   0  0  0  0  0  0  0  0  0  0  0  0
    8.9213    0.3214    3.3266 H   0  0  0  0  0  0  0  0  0  0  0  0
   -4.0548   -2.1622    1.6663 H   0  0  0  0  0  0  0  0  0  0  0  0
  1  2  1  0
  2  3  2  0
  3  4  1  0
  4  5  2  0
  5  6  1  0
  6  7  2  0
  6  8  1  0
  8  9  1  0
  9 10  1  0
 10 11  1  0
 11 12  1  0
 12 13  1  0
 13 14  2  0
 14 15  1  0
 15 16  2  0
 16 17  1  0
 17 18  2  0
 16 19  1  0
 19 20  2  0
 20 21  1  0
 21 22  2  0
 22 23  1  0
 23 24  2  0
 24 25  1  0
 22 26  1  0
 26 27  2  0
 26 28  1  0
  8 29  1  0
  7  2  1  0
 18 13  1  0
 24 19  1  0
  3 30  1  0
  4 31  1  0
  5 32  1  0
  7 33  1  0
  8 34  1  1
  9 35  1  0
  9 36  1  0
 10 37  1  0
 11 38  1  0
 11 39  1  0
 12 40  1  0
 12 41  1  0
 14 42  1  0
 15 43  1  0
 17 44  1  0
 18 45  1  0
 20 46  1  0
 21 47  1  0
 23 48  1  0
 28 49  1  0
 29 50  1  0
M  END
>  <Ligand ID>  (1) 
LIG0005820

>  <Ligand>  (1) 
CHEMBL408145

>  <SMILES>  (1) 
Clc1cccc(c1)[C@H](CNCCc1ccc(cc1)c1ccc(cc1F)C(=O)O)O

>  <CID>  (1) 
24822643.0

>  <ChEMBL ID>  (1) 
nan

>  <InChiKey>  (1) 
XNRSXLNSTYMEFF-QFIPXVFZSA-N

>  <InChi>  (1) 
InChI=1S/C23H21ClFNO3/c24-19-3-1-2-17(12-19)22(27)14-26-11-10-15-4-6-16(7-5-15)20-9-8-18(23(28)29)13-21(20)25/h1-9,12-13,22,26-27H,10-11,14H2,(H,28,29)/t22-/m0/s1

>  <IUPAC Name>  (1) 
4-[4-[2-[[(2R)-2-(3-chlorophenyl)-2-hydroxyethyl]amino]ethyl]phenyl]-3-fluorobenzoic acid

$$$$
