
     RDKit          3D

 41 44  0  0  0  0  0  0  0  0999 V2000
    6.8036    2.6505   -1.4685 Br  0  0  0  0  0  0  0  0  0  0  0  0
    5.6246    1.4061   -0.6594 C   0  0  0  0  0  0  0  0  0  0  0  0
    5.9405    0.0653   -0.6667 C   0  0  0  0  0  0  0  0  0  0  0  0
    5.0516   -0.8196   -0.0633 C   0  0  0  0  0  0  0  0  0  0  0  0
    3.8878   -0.3725    0.5258 C   0  0  0  0  0  0  0  0  0  0  0  0
    3.6153    0.9949    0.5057 C   0  0  0  0  0  0  0  0  0  0  0  0
    4.4715    1.8946   -0.0815 C   0  0  0  0  0  0  0  0  0  0  0  0
    2.9308   -1.3102    1.1730 C   0  0  0  0  0  0  0  0  0  0  0  0
    1.6903   -1.9072   -0.0009 S   0  0  0  0  0  0  0  0  0  0  0  0
    0.6192   -0.5936   -0.5525 C   0  0  0  0  0  0  0  0  0  0  0  0
    0.8993    0.1698   -1.6431 N   0  0  0  0  0  0  0  0  0  0  0  0
   -0.1106    1.0466   -1.7590 N   0  0  0  0  0  0  0  0  0  0  0  0
   -0.9990    0.8405   -0.7706 C   0  0  0  0  0  0  0  0  0  0  0  0
   -0.5469   -0.1889   -0.0083 N   0  0  0  0  0  0  0  0  0  0  0  0
   -1.1826   -0.7494    1.1605 C   0  0  0  0  0  0  0  0  0  0  0  0
   -2.0686   -1.8087    0.8047 C   0  0  0  0  0  0  0  0  0  0  0  0
   -1.9498   -3.1770    0.6440 C   0  0  0  0  0  0  0  0  0  0  0  0
   -2.9634   -3.9274    0.3022 C   0  0  0  0  0  0  0  0  0  0  0  0
   -4.2392   -3.3146    0.0867 C   0  0  0  0  0  0  0  0  0  0  0  0
   -3.9020   -1.5194    0.4134 S   0  0  0  0  0  0  0  0  0  0  0  0
   -2.2173    1.6092   -0.5881 C   0  0  0  0  0  0  0  0  0  0  0  0
   -3.3286    1.4925   -1.3819 C   0  0  0  0  0  0  0  0  0  0  0  0
   -4.4834    2.2525   -1.1718 C   0  0  0  0  0  0  0  0  0  0  0  0
   -4.4403    3.1310   -0.1145 C   0  0  0  0  0  0  0  0  0  0  0  0
   -3.3370    3.2474    0.6743 C   0  0  0  0  0  0  0  0  0  0  0  0
   -2.2266    2.4912    0.4424 N   0  0  0  0  0  0  0  0  0  0  0  0
    6.8391   -0.3193   -1.1167 H   0  0  0  0  0  0  0  0  0  0  0  0
    5.3101   -1.8724   -0.0749 H   0  0  0  0  0  0  0  0  0  0  0  0
    2.6928    1.2979    0.9792 H   0  0  0  0  0  0  0  0  0  0  0  0
    4.2153    2.9292   -0.0694 H   0  0  0  0  0  0  0  0  0  0  0  0
    3.5146   -2.1919    1.5068 H   0  0  0  0  0  0  0  0  0  0  0  0
    2.5129   -0.8230    2.0521 H   0  0  0  0  0  0  0  0  0  0  0  0
   -1.7817    0.0998    1.6078 H   0  0  0  0  0  0  0  0  0  0  0  0
   -0.5049   -1.0524    1.9589 H   0  0  0  0  0  0  0  0  0  0  0  0
   -0.9203   -3.6068    0.8270 H   0  0  0  0  0  0  0  0  0  0  0  0
   -2.9388   -5.0242    0.1567 H   0  0  0  0  0  0  0  0  0  0  0  0
   -5.1628   -3.7099   -0.1849 H   0  0  0  0  0  0  0  0  0  0  0  0
   -3.3272    0.8033   -2.1904 H   0  0  0  0  0  0  0  0  0  0  0  0
   -5.3445    2.1585   -1.7912 H   0  0  0  0  0  0  0  0  0  0  0  0
   -5.2955    3.7520    0.1094 H   0  0  0  0  0  0  0  0  0  0  0  0
   -3.3484    3.9557    1.4995 H   0  0  0  0  0  0  0  0  0  0  0  0
  1  2  1  0
  2  3  2  0
  3  4  1  0
  4  5  2  0
  5  6  1  0
  6  7  2  0
  5  8  1  0
  8  9  1  0
  9 10  1  0
 10 11  2  0
 11 12  1  0
 12 13  2  0
 13 14  1  0
 14 15  1  0
 15 16  1  0
 16 17  2  0
 17 18  1  0
 18 19  2  0
 19 20  1  0
 13 21  1  0
 21 22  2  0
 22 23  1  0
 23 24  2  0
 24 25  1  0
 25 26  2  0
  7  2  1  0
 14 10  1  0
 20 16  1  0
 26 21  1  0
  3 27  1  0
  4 28  1  0
  6 29  1  0
  7 30  1  0
  8 31  1  0
  8 32  1  0
 15 33  1  0
 15 34  1  0
 17 35  1  0
 18 36  1  0
 19 37  1  0
 22 38  1  0
 23 39  1  0
 24 40  1  0
 25 41  1  0
M  END
>  <Ligand ID>  (1) 
LIG0002779

>  <Ligand>  (1) 
KSC-5-247C

>  <SMILES>  (1) 
Brc1ccc(cc1)CSc1nnc(n1Cc1cccs1)c1ccccn1

>  <CID>  (1) 
44601472.0

>  <ChEMBL ID>  (1) 
nan

>  <InChiKey>  (1) 
XGRJREIUXZWFGH-UHFFFAOYSA-N

>  <InChi>  (1) 
InChI=1S/C19H15BrN4S2/c20-15-8-6-14(7-9-15)13-26-19-23-22-18(17-5-1-2-10-21-17)24(19)12-16-4-3-11-25-16/h1-11H,12-13H2

>  <IUPAC Name>  (1) 
2-[5-[(4-bromophenyl)methylsulfanyl]-4-(thiophen-2-ylmethyl)-1,2,4-triazol-3-yl]pyridine

$$$$
