
     RDKit          3D

 20 20  0  0  0  0  0  0  0  0999 V2000
    3.9428   -0.3458    0.6551 C   0  0  0  0  0  0  0  0  0  0  0  0
    2.3623   -1.2132    0.3335 S   0  0  0  0  0  0  0  0  0  0  0  0
    1.6025   -0.6815   -1.5860 S   0  0  0  0  0  0  0  0  0  0  0  0
    0.5186    0.7799   -1.4682 C   0  0  0  0  0  0  0  0  0  0  0  0
   -0.6649    0.3851   -0.7038 C   0  0  0  0  0  0  0  0  0  0  0  0
   -0.7851    0.4563    0.6686 C   0  0  0  0  0  0  0  0  0  0  0  0
   -1.9511    0.0667    1.3186 C   0  0  0  0  0  0  0  0  0  0  0  0
   -3.0546   -0.4147    0.6136 C   0  0  0  0  0  0  0  0  0  0  0  0
   -2.9315   -0.4858   -0.7718 C   0  0  0  0  0  0  0  0  0  0  0  0
   -1.7602   -0.0939   -1.4164 C   0  0  0  0  0  0  0  0  0  0  0  0
    4.7535   -1.0521    0.9181 H   0  0  0  0  0  0  0  0  0  0  0  0
    3.8307    0.4708    1.3952 H   0  0  0  0  0  0  0  0  0  0  0  0
    4.2682    0.1579   -0.3029 H   0  0  0  0  0  0  0  0  0  0  0  0
    0.2530    1.1365   -2.4774 H   0  0  0  0  0  0  0  0  0  0  0  0
    1.0002    1.6152   -0.9005 H   0  0  0  0  0  0  0  0  0  0  0  0
    0.0792    0.8322    1.2411 H   0  0  0  0  0  0  0  0  0  0  0  0
   -2.0407    0.1249    2.4052 H   0  0  0  0  0  0  0  0  0  0  0  0
   -3.9649   -0.7230    1.0808 H   0  0  0  0  0  0  0  0  0  0  0  0
   -3.7556   -0.8519   -1.3739 H   0  0  0  0  0  0  0  0  0  0  0  0
   -1.7023   -0.1633   -2.5087 H   0  0  0  0  0  0  0  0  0  0  0  0
  1  2  1  0
  2  3  1  0
  3  4  1  0
  4  5  1  0
  5  6  2  0
  6  7  1  0
  7  8  2  0
  8  9  1  0
  9 10  2  0
 10  5  1  0
  1 11  1  0
  1 12  1  0
  1 13  1  0
  4 14  1  0
  4 15  1  0
  6 16  1  0
  7 17  1  0
  8 18  1  0
  9 19  1  0
 10 20  1  0
M  END
>  <Ligand ID>  (1) 
LIG0002091

>  <Ligand>  (1) 
Benzyl methyl disulfide

>  <SMILES>  (1) 
CSSCc1ccccc1

>  <CID>  (1) 
12779.0

>  <ChEMBL ID>  (1) 
nan

>  <InChiKey>  (1) 
NWYGPVZOBBHKLI-UHFFFAOYSA-N

>  <InChi>  (1) 
InChI=1S/C8H10S2/c1-9-10-7-8-5-3-2-4-6-8/h2-6H,7H2,1H3

>  <IUPAC Name>  (1) 
(methyldisulfanyl)methylbenzene

$$$$
