
     RDKit          3D

 60 63  0  0  0  0  0  0  0  0999 V2000
   -0.5755    1.2782   -1.9096 O   0  0  0  0  0  0  0  0  0  0  0  0
   -0.8553    0.6206   -0.8700 C   0  0  0  0  0  0  0  0  0  0  0  0
   -2.1905    0.7185   -0.3238 C   0  0  0  0  0  0  0  0  0  0  0  0
   -3.1221    1.5264   -0.9468 C   0  0  0  0  0  0  0  0  0  0  0  0
   -4.3994    1.6322   -0.4387 C   0  0  0  0  0  0  0  0  0  0  0  0
   -4.8280    0.9638    0.6884 C   0  0  0  0  0  0  0  0  0  0  0  0
   -3.8659    0.1517    1.3015 C   0  0  0  0  0  0  0  0  0  0  0  0
   -2.5848    0.0387    0.8015 C   0  0  0  0  0  0  0  0  0  0  0  0
   -6.1312    1.0632    1.2226 N   0  0  0  0  0  0  0  0  0  0  0  0
   -6.5741    0.3439    2.4102 C   0  0  0  0  0  0  0  0  0  0  0  0
   -8.0504    0.2108    2.1773 C   0  0  0  0  0  0  0  0  0  0  0  0
   -8.4758    1.4877    1.4588 C   0  0  0  0  0  0  0  0  0  0  0  0
   -7.2055    1.8435    0.7300 C   0  0  0  0  0  0  0  0  0  0  0  0
   -7.2013    2.7183   -0.1682 O   0  0  0  0  0  0  0  0  0  0  0  0
    0.1585   -0.1749   -0.3009 N   0  0  0  0  0  0  0  0  0  0  0  0
    1.4877   -0.2616   -0.8583 C   0  0  0  0  0  0  0  0  0  0  0  0
    2.4018    0.6278   -0.4188 C   0  0  0  0  0  0  0  0  0  0  0  0
    3.6809    0.5841   -0.9184 C   0  0  0  0  0  0  0  0  0  0  0  0
    4.0281   -0.3569   -1.8576 C   0  0  0  0  0  0  0  0  0  0  0  0
    3.0547   -1.2608   -2.2878 C   0  0  0  0  0  0  0  0  0  0  0  0
    1.7703   -1.2588   -1.8233 C   0  0  0  0  0  0  0  0  0  0  0  0
    0.7548   -2.0650   -2.1502 O   0  0  0  0  0  0  0  0  0  0  0  0
    0.4600   -3.1043   -2.9652 C   0  0  0  0  0  0  0  0  0  0  0  0
    0.5377   -2.7740   -4.4187 C   0  0  0  0  0  0  0  0  0  0  0  0
    0.2066   -3.9270   -5.1403 F   0  0  0  0  0  0  0  0  0  0  0  0
    1.7352   -2.3615   -4.9003 F   0  0  0  0  0  0  0  0  0  0  0  0
   -0.4293   -1.8024   -4.6993 F   0  0  0  0  0  0  0  0  0  0  0  0
    4.9018    1.7112   -0.3817 S   0  0  0  0  0  0  0  0  0  0  0  0
    4.2726    3.0564   -0.1673 O   0  0  0  0  0  0  0  0  0  0  0  0
    5.8782    1.9028   -1.5356 O   0  0  0  0  0  0  0  0  0  0  0  0
    5.8117    1.1833    0.9470 N   0  0  0  0  0  0  0  0  0  0  0  0
    4.9995    0.9758    2.0792 C   0  0  0  0  0  0  0  0  0  0  0  0
    5.4288   -0.0653    3.0585 C   0  0  0  0  0  0  0  0  0  0  0  0
    5.8127   -1.2562    2.4997 O   0  0  0  0  0  0  0  0  0  0  0  0
    6.1372   -1.1815    1.1624 C   0  0  0  0  0  0  0  0  0  0  0  0
    6.7064    0.1170    0.7339 C   0  0  0  0  0  0  0  0  0  0  0  0
   -2.8263    2.0742   -1.8430 H   0  0  0  0  0  0  0  0  0  0  0  0
   -5.0779    2.2796   -0.9732 H   0  0  0  0  0  0  0  0  0  0  0  0
   -4.1364   -0.3970    2.1852 H   0  0  0  0  0  0  0  0  0  0  0  0
   -1.9030   -0.6064    1.3310 H   0  0  0  0  0  0  0  0  0  0  0  0
   -6.1507   -0.6848    2.3162 H   0  0  0  0  0  0  0  0  0  0  0  0
   -6.3170    0.8352    3.3464 H   0  0  0  0  0  0  0  0  0  0  0  0
   -8.6128    0.1459    3.1439 H   0  0  0  0  0  0  0  0  0  0  0  0
   -8.3064   -0.6338    1.5124 H   0  0  0  0  0  0  0  0  0  0  0  0
   -9.3117    1.3278    0.7693 H   0  0  0  0  0  0  0  0  0  0  0  0
   -8.6388    2.3175    2.1670 H   0  0  0  0  0  0  0  0  0  0  0  0
   -0.0214   -0.7384    0.5591 H   0  0  0  0  0  0  0  0  0  0  0  0
    2.1314    1.3706    0.3190 H   0  0  0  0  0  0  0  0  0  0  0  0
    5.0464   -0.3980   -2.2610 H   0  0  0  0  0  0  0  0  0  0  0  0
    3.3790   -1.9815   -3.0000 H   0  0  0  0  0  0  0  0  0  0  0  0
    1.1281   -4.0165   -2.7704 H   0  0  0  0  0  0  0  0  0  0  0  0
   -0.5808   -3.5245   -2.7467 H   0  0  0  0  0  0  0  0  0  0  0  0
    3.9662    0.7176    1.7032 H   0  0  0  0  0  0  0  0  0  0  0  0
    4.8567    1.9457    2.6125 H   0  0  0  0  0  0  0  0  0  0  0  0
    6.2791    0.3340    3.6449 H   0  0  0  0  0  0  0  0  0  0  0  0
    4.6026   -0.2498    3.7707 H   0  0  0  0  0  0  0  0  0  0  0  0
    5.2627   -1.4304    0.5291 H   0  0  0  0  0  0  0  0  0  0  0  0
    6.8962   -1.9723    0.9685 H   0  0  0  0  0  0  0  0  0  0  0  0
    7.6501    0.3425    1.2844 H   0  0  0  0  0  0  0  0  0  0  0  0
    6.9486    0.0371   -0.3584 H   0  0  0  0  0  0  0  0  0  0  0  0
  1  2  2  0
  2  3  1  0
  3  4  2  0
  4  5  1  0
  5  6  2  0
  6  7  1  0
  7  8  2  0
  6  9  1  0
  9 10  1  0
 10 11  1  0
 11 12  1  0
 12 13  1  0
 13 14  2  0
  2 15  1  0
 15 16  1  0
 16 17  2  0
 17 18  1  0
 18 19  2  0
 19 20  1  0
 20 21  2  0
 21 22  1  0
 22 23  1  0
 23 24  1  0
 24 25  1  0
 24 26  1  0
 24 27  1  0
 18 28  1  0
 28 29  2  0
 28 30  2  0
 28 31  1  0
 31 32  1  0
 32 33  1  0
 33 34  1  0
 34 35  1  0
 35 36  1  0
  8  3  1  0
 13  9  1  0
 21 16  1  0
 36 31  1  0
  4 37  1  0
  5 38  1  0
  7 39  1  0
  8 40  1  0
 10 41  1  0
 10 42  1  0
 11 43  1  0
 11 44  1  0
 12 45  1  0
 12 46  1  0
 15 47  1  0
 17 48  1  0
 19 49  1  0
 20 50  1  0
 23 51  1  0
 23 52  1  0
 32 53  1  0
 32 54  1  0
 33 55  1  0
 33 56  1  0
 35 57  1  0
 35 58  1  0
 36 59  1  0
 36 60  1  0
M  END
>  <Ligand ID>  (1) 
LIG0001318

>  <Ligand>  (1) 
MLS-0409525.0001

>  <SMILES>  (1) 
O=C(c1ccc(cc1)N1CCCC1=O)Nc1cc(ccc1OCC(F)(F)F)S(=O)(=O)N1CCOCC1

>  <CID>  (1) 
24978824.0

>  <ChEMBL ID>  (1) 
nan

>  <InChiKey>  (1) 
NUQRZCQCNZXQOX-UHFFFAOYSA-N

>  <InChi>  (1) 
InChI=1S/C23H24F3N3O6S/c24-23(25,26)15-35-20-8-7-18(36(32,33)28-10-12-34-13-11-28)14-19(20)27-22(31)16-3-5-17(6-4-16)29-9-1-2-21(29)30/h3-8,14H,1-2,9-13,15H2,(H,27,31)

>  <IUPAC Name>  (1) 
N-[5-morpholin-4-ylsulfonyl-2-(2,2,2-trifluoroethoxy)phenyl]-4-(2-oxopyrrolidin-1-yl)benzamide

$$$$
