
     RDKit          3D

 36 36  0  0  0  0  0  0  0  0999 V2000
   -3.9992    1.9382   -1.3729 C   0  0  0  0  0  0  0  0  0  0  0  0
   -3.0607    1.0983   -0.5082 C   0  0  0  0  0  0  0  0  0  0  0  0
   -1.6976    1.0310   -1.1337 C   0  0  0  0  0  0  0  0  0  0  0  0
   -0.7356    0.3157   -0.4803 O   0  0  0  0  0  0  0  0  0  0  0  0
   -0.5597   -0.9630   -0.1171 C   0  0  0  0  0  0  0  0  0  0  0  0
   -1.4546   -1.9841   -0.3822 C   0  0  0  0  0  0  0  0  0  0  0  0
   -1.2509   -3.2926    0.0029 C   0  0  0  0  0  0  0  0  0  0  0  0
   -0.1128   -3.6459    0.6876 C   0  0  0  0  0  0  0  0  0  0  0  0
    0.7932   -2.6514    0.9634 C   0  0  0  0  0  0  0  0  0  0  0  0
    0.5864   -1.3197    0.5717 C   0  0  0  0  0  0  0  0  0  0  0  0
    1.6723   -0.3839    0.9382 C   0  0  1  0  0  0  0  0  0  0  0  0
    2.8943   -0.4475    0.0860 C   0  0  0  0  0  0  0  0  0  0  0  0
    1.9643    0.8022    0.1375 C   0  0  2  0  0  0  0  0  0  0  0  0
    2.6102    2.0295    0.7643 C   0  0  0  0  0  0  0  0  0  0  0  0
    3.9065    1.6769    1.3211 N   0  0  0  0  0  0  0  0  0  0  0  0
    0.0617   -4.9372    1.0537 F   0  0  0  0  0  0  0  0  0  0  0  0
    0.6861    0.0000    0.0000 Cl  0  0  0  0  0  0  0  0  0  0  0  0
   -4.5487    1.2886   -2.0910 H   0  0  0  0  0  0  0  0  0  0  0  0
   -3.4698    2.7304   -1.9213 H   0  0  0  0  0  0  0  0  0  0  0  0
   -4.7939    2.3814   -0.7167 H   0  0  0  0  0  0  0  0  0  0  0  0
   -3.0300    1.5800    0.4939 H   0  0  0  0  0  0  0  0  0  0  0  0
   -3.5327    0.1304   -0.3990 H   0  0  0  0  0  0  0  0  0  0  0  0
   -1.8306    0.7598   -2.2102 H   0  0  0  0  0  0  0  0  0  0  0  0
   -1.3511    2.1122   -1.1962 H   0  0  0  0  0  0  0  0  0  0  0  0
   -2.3752   -1.7974   -0.9284 H   0  0  0  0  0  0  0  0  0  0  0  0
   -1.9756   -4.0637   -0.2231 H   0  0  0  0  0  0  0  0  0  0  0  0
    1.6876   -2.9478    1.5051 H   0  0  0  0  0  0  0  0  0  0  0  0
    1.9307   -0.3554    2.0397 H   0  0  0  0  0  0  0  0  0  0  0  0
    3.9038   -0.3141    0.5276 H   0  0  0  0  0  0  0  0  0  0  0  0
    2.9186   -0.9437   -0.8876 H   0  0  0  0  0  0  0  0  0  0  0  0
    1.3871    0.9987   -0.7747 H   0  0  0  0  0  0  0  0  0  0  0  0
    1.9591    2.4616    1.5404 H   0  0  0  0  0  0  0  0  0  0  0  0
    2.6979    2.8083   -0.0195 H   0  0  0  0  0  0  0  0  0  0  0  0
    4.1598    2.3112    2.1167 H   0  0  0  0  0  0  0  0  0  0  0  0
    4.6451    1.5928    0.6123 H   0  0  0  0  0  0  0  0  0  0  0  0
   -0.6861    0.0000    0.0000 H   0  0  0  0  0  0  0  0  0  0  0  0
  1  2  1  0
  2  3  1  0
  3  4  1  0
  4  5  1  0
  5  6  2  0
  6  7  1  0
  7  8  2  0
  8  9  1  0
  9 10  2  0
 10 11  1  0
 11 12  1  0
 12 13  1  0
 13 14  1  0
 14 15  1  0
  8 16  1  0
 10  5  1  0
 13 11  1  0
  1 18  1  0
  1 19  1  0
  1 20  1  0
  2 21  1  0
  2 22  1  0
  3 23  1  0
  3 24  1  0
  6 25  1  0
  7 26  1  0
  9 27  1  0
 11 28  1  1
 12 29  1  0
 12 30  1  0
 13 31  1  6
 14 32  1  0
 14 33  1  0
 15 34  1  0
 15 35  1  0
 17 36  1  0
M  END
>  <Ligand ID>  (1) 
LIG0004354

>  <Ligand>  (1) 
CHEMBL3416061

>  <SMILES>  (1) 
CCCOc1ccc(cc1[C@H]1C[C@@H]1CN)F.Cl

>  <CID>  (1) 
118733817.0

>  <ChEMBL ID>  (1) 
nan

>  <InChiKey>  (1) 
WCMNEDKJLDBTFC-XQKZEKTMSA-N

>  <InChi>  (1) 
InChI=1S/C13H18FNO.ClH/c1-2-5-16-13-4-3-10(14)7-12(13)11-6-9(11)8-15;/h3-4,7,9,11H,2,5-6,8,15H2,1H3;1H/t9-,11+;/m1./s1

>  <IUPAC Name>  (1) 
[(1S,2S)-2-(5-fluoro-2-propoxyphenyl)cyclopropyl]methanamine;hydrochloride

$$$$
