
     RDKit          3D

 72 75  0  0  0  0  0  0  0  0999 V2000
    8.2796    2.2165    1.1763 C   0  0  0  0  0  0  0  0  0  0  0  0
    9.1242    1.2834    0.3984 C   0  0  0  0  0  0  0  0  0  0  0  0
    9.2348   -0.1191    0.7868 C   0  0  0  0  0  0  0  0  0  0  0  0
    8.1034   -1.0590    0.7263 C   0  0  0  0  0  0  0  0  0  0  0  0
    6.7206   -0.6613    1.7118 S   0  0  0  0  0  0  0  0  0  0  0  0
    7.1043   -0.4896    3.1256 O   0  0  0  0  0  0  0  0  0  0  0  0
    6.0279    0.5592    1.1222 O   0  0  0  0  0  0  0  0  0  0  0  0
    5.5800   -1.9655    1.5511 O   0  0  0  0  0  0  0  0  0  0  0  0
    4.6907   -1.9413    0.4720 C   0  0  0  0  0  0  0  0  0  0  0  0
    5.1255   -2.5589   -0.6834 C   0  0  0  0  0  0  0  0  0  0  0  0
    4.3265   -2.5895   -1.7983 C   0  0  0  0  0  0  0  0  0  0  0  0
    3.0810   -1.9864   -1.7280 C   0  0  0  0  0  0  0  0  0  0  0  0
    2.6610   -1.3734   -0.5659 C   0  0  0  0  0  0  0  0  0  0  0  0
    3.4562   -1.3364    0.5619 C   0  0  0  0  0  0  0  0  0  0  0  0
    2.8209   -0.6829    1.5626 N   0  0  0  0  0  0  0  0  0  0  0  0
    1.6105   -0.2952    1.0825 C   0  0  0  0  0  0  0  0  0  0  0  0
    1.4844   -0.7061   -0.2242 C   0  0  0  0  0  0  0  0  0  0  0  0
    0.3698   -0.5399   -1.1855 C   0  0  0  0  0  0  0  0  0  0  0  0
   -0.7299    0.2513   -0.5675 C   0  0  2  0  0  0  0  0  0  0  0  0
   -1.8651    0.4907   -1.3495 N   0  0  0  0  0  0  0  0  0  0  0  0
   -2.6307   -0.5656   -1.8656 C   0  0  0  0  0  0  0  0  0  0  0  0
   -3.8018    0.0111   -2.6364 C   0  0  1  0  0  0  0  0  0  0  0  0
   -4.7539    0.7610   -1.7957 C   0  0  0  0  0  0  0  0  0  0  0  0
   -5.6923    1.5425   -2.4332 C   0  0  0  0  0  0  0  0  0  0  0  0
   -6.6271    2.2742   -1.7318 C   0  0  0  0  0  0  0  0  0  0  0  0
   -6.6343    2.2312   -0.3404 C   0  0  0  0  0  0  0  0  0  0  0  0
   -5.7047    1.4559    0.3228 C   0  0  0  0  0  0  0  0  0  0  0  0
   -4.7774    0.7318   -0.4214 C   0  0  0  0  0  0  0  0  0  0  0  0
   -5.7052    1.4049    1.7623 N   0  0  0  0  0  0  0  0  0  0  0  0
   -7.1894    1.2193    2.6251 S   0  0  0  0  0  0  0  0  0  0  0  0
   -6.8588    1.1822    4.0977 O   0  0  0  0  0  0  0  0  0  0  0  0
   -8.1443    2.3432    2.3600 O   0  0  0  0  0  0  0  0  0  0  0  0
   -7.9654   -0.2863    2.2162 C   0  0  0  0  0  0  0  0  0  0  0  0
   -7.5704   -1.2606    1.3706 C   0  0  0  0  0  0  0  0  0  0  0  0
   -8.3356   -2.3446    1.2116 C   0  0  0  0  0  0  0  0  0  0  0  0
   -9.4992   -2.4119    1.9263 C   0  0  0  0  0  0  0  0  0  0  0  0
   -9.5608   -0.8413    2.9164 S   0  0  0  0  0  0  0  0  0  0  0  0
   -3.3416    0.8227   -3.6804 O   0  0  0  0  0  0  0  0  0  0  0  0
   -0.1225    1.6301   -0.2507 C   0  0  0  0  0  0  0  0  0  0  0  0
    8.0078    1.8896    2.1919 H   0  0  0  0  0  0  0  0  0  0  0  0
    7.4335    2.6780    0.6186 H   0  0  0  0  0  0  0  0  0  0  0  0
    8.9236    3.1562    1.4090 H   0  0  0  0  0  0  0  0  0  0  0  0
   10.1986    1.6881    0.3721 H   0  0  0  0  0  0  0  0  0  0  0  0
    8.7721    1.3202   -0.6970 H   0  0  0  0  0  0  0  0  0  0  0  0
   10.1263   -0.6251    0.2750 H   0  0  0  0  0  0  0  0  0  0  0  0
    9.6271   -0.1042    1.8804 H   0  0  0  0  0  0  0  0  0  0  0  0
    8.4628   -2.1221    0.9319 H   0  0  0  0  0  0  0  0  0  0  0  0
    7.7886   -1.1626   -0.3804 H   0  0  0  0  0  0  0  0  0  0  0  0
    6.0940   -3.0249   -0.7304 H   0  0  0  0  0  0  0  0  0  0  0  0
    4.6238   -3.0562   -2.7112 H   0  0  0  0  0  0  0  0  0  0  0  0
    2.4496   -2.0092   -2.6053 H   0  0  0  0  0  0  0  0  0  0  0  0
    3.2099   -0.5145    2.5322 H   0  0  0  0  0  0  0  0  0  0  0  0
    0.8698    0.2468    1.6423 H   0  0  0  0  0  0  0  0  0  0  0  0
    0.0706   -1.5309   -1.5602 H   0  0  0  0  0  0  0  0  0  0  0  0
    0.7980   -0.0069   -2.0621 H   0  0  0  0  0  0  0  0  0  0  0  0
   -1.0244   -0.1858    0.4090 H   0  0  0  0  0  0  0  0  0  0  0  0
   -2.4046    1.3262   -1.0799 H   0  0  0  0  0  0  0  0  0  0  0  0
   -3.0623   -1.1599   -1.0323 H   0  0  0  0  0  0  0  0  0  0  0  0
   -2.0711   -1.3095   -2.4681 H   0  0  0  0  0  0  0  0  0  0  0  0
   -4.3259   -0.8563   -3.0919 H   0  0  0  0  0  0  0  0  0  0  0  0
   -5.7332    1.6136   -3.5129 H   0  0  0  0  0  0  0  0  0  0  0  0
   -7.3633    2.8868   -2.2304 H   0  0  0  0  0  0  0  0  0  0  0  0
   -7.3796    2.8153    0.1941 H   0  0  0  0  0  0  0  0  0  0  0  0
   -4.0813    0.1459    0.1230 H   0  0  0  0  0  0  0  0  0  0  0  0
   -4.7823    1.4854    2.2132 H   0  0  0  0  0  0  0  0  0  0  0  0
   -6.6009   -1.1446    0.8123 H   0  0  0  0  0  0  0  0  0  0  0  0
   -8.0656   -3.1816    0.5303 H   0  0  0  0  0  0  0  0  0  0  0  0
  -10.3002   -3.1564    1.9960 H   0  0  0  0  0  0  0  0  0  0  0  0
   -2.6414    1.4674   -3.3569 H   0  0  0  0  0  0  0  0  0  0  0  0
    0.9742    1.6299   -0.3068 H   0  0  0  0  0  0  0  0  0  0  0  0
   -0.4496    2.3807   -1.0190 H   0  0  0  0  0  0  0  0  0  0  0  0
   -0.4354    2.0237    0.7138 H   0  0  0  0  0  0  0  0  0  0  0  0
  1  2  1  0
  2  3  1  0
  3  4  1  0
  4  5  1  0
  5  6  2  0
  5  7  2  0
  5  8  1  0
  8  9  1  0
  9 10  2  0
 10 11  1  0
 11 12  2  0
 12 13  1  0
 13 14  2  0
 14 15  1  0
 15 16  1  0
 16 17  2  0
 17 18  1  0
 18 19  1  0
 19 20  1  0
 20 21  1  0
 21 22  1  0
 22 23  1  0
 23 24  2  0
 24 25  1  0
 25 26  2  0
 26 27  1  0
 27 28  2  0
 27 29  1  0
 29 30  1  0
 30 31  2  0
 30 32  2  0
 30 33  1  0
 33 34  2  0
 34 35  1  0
 35 36  2  0
 36 37  1  0
 22 38  1  0
 19 39  1  0
 14  9  1  0
 28 23  1  0
 37 33  1  0
 17 13  1  0
  1 40  1  0
  1 41  1  0
  1 42  1  0
  2 43  1  0
  2 44  1  0
  3 45  1  0
  3 46  1  0
  4 47  1  0
  4 48  1  0
 10 49  1  0
 11 50  1  0
 12 51  1  0
 15 52  1  0
 16 53  1  0
 18 54  1  0
 18 55  1  0
 19 56  1  1
 20 57  1  0
 21 58  1  0
 21 59  1  0
 22 60  1  6
 24 61  1  0
 25 62  1  0
 26 63  1  0
 28 64  1  0
 29 65  1  0
 34 66  1  0
 35 67  1  0
 36 68  1  0
 38 69  1  0
 39 70  1  0
 39 71  1  0
 39 72  1  0
M  END
>  <Ligand ID>  (1) 
LIG0004335

>  <Ligand>  (1) 
CHEMBL187317

>  <SMILES>  (1) 
CCCCS(=O)(=O)Oc1cccc2c1[nH]cc2C[C@H](NC[C@@H](c1cccc(c1)NS(=O)(=O)c1cccs1)O)C

>  <CID>  (1) 
44396530.0

>  <ChEMBL ID>  (1) 
nan

>  <InChiKey>  (1) 
QFALEVXDVYDQBL-DVECYGJZSA-N

>  <InChi>  (1) 
InChI=1S/C27H33N3O6S3/c1-3-4-14-38(32,33)36-25-11-6-10-23-21(17-29-27(23)25)15-19(2)28-18-24(31)20-8-5-9-22(16-20)30-39(34,35)26-12-7-13-37-26/h5-13,16-17,19,24,28-31H,3-4,14-15,18H2,1-2H3/t19-,24+/m1/s1

>  <IUPAC Name>  (1) 
[3-[(2R)-2-[[(2R)-2-hydroxy-2-[3-(thiophen-2-ylsulfonylamino)phenyl]ethyl]amino]propyl]-1H-indol-7-yl] butane-1-sulfonate

$$$$
