
     RDKit          3D

 31 30  0  0  0  0  0  0  0  0999 V2000
   -4.1010    1.0451    0.1169 C   0  0  0  0  0  0  0  0  0  0  0  0
   -3.2320    0.1065    0.9148 C   0  0  0  0  0  0  0  0  0  0  0  0
   -1.9919   -0.2700    0.1229 C   0  0  0  0  0  0  0  0  0  0  0  0
   -1.8381    0.2337   -1.0837 C   0  0  0  0  0  0  0  0  0  0  0  0
   -1.0469   -1.1635    0.8249 C   0  0  0  0  0  0  0  0  0  0  0  0
    0.3143   -1.2939    0.2024 C   0  0  0  0  0  0  0  0  0  0  0  0
    1.0131    0.0099    0.2557 C   0  0  0  0  0  0  0  0  0  0  0  0
    2.3855    0.0203   -0.3603 C   0  0  0  0  0  0  0  0  0  0  0  0
    2.3437   -0.3199   -1.6950 O   0  0  0  0  0  0  0  0  0  0  0  0
    2.8924    1.4479   -0.2649 C   0  0  0  0  0  0  0  0  0  0  0  0
    3.3700   -0.8629    0.3419 C   0  0  0  0  0  0  0  0  0  0  0  0
   -5.0027    1.2283    0.7593 H   0  0  0  0  0  0  0  0  0  0  0  0
   -4.5091    0.5557   -0.7885 H   0  0  0  0  0  0  0  0  0  0  0  0
   -3.6478    2.0116   -0.0929 H   0  0  0  0  0  0  0  0  0  0  0  0
   -3.7972   -0.8294    1.0872 H   0  0  0  0  0  0  0  0  0  0  0  0
   -2.9002    0.5304    1.8660 H   0  0  0  0  0  0  0  0  0  0  0  0
   -1.0263    0.0631   -1.7608 H   0  0  0  0  0  0  0  0  0  0  0  0
   -2.6215    0.9145   -1.4687 H   0  0  0  0  0  0  0  0  0  0  0  0
   -0.8646   -0.7538    1.8660 H   0  0  0  0  0  0  0  0  0  0  0  0
   -1.5116   -2.1694    1.0009 H   0  0  0  0  0  0  0  0  0  0  0  0
    0.2738   -1.7390   -0.8169 H   0  0  0  0  0  0  0  0  0  0  0  0
    0.8254   -2.0798    0.8346 H   0  0  0  0  0  0  0  0  0  0  0  0
    1.1050    0.2956    1.3394 H   0  0  0  0  0  0  0  0  0  0  0  0
    0.4143    0.7996   -0.1989 H   0  0  0  0  0  0  0  0  0  0  0  0
    3.1722    0.0721   -2.1161 H   0  0  0  0  0  0  0  0  0  0  0  0
    2.1417    2.1033   -0.7249 H   0  0  0  0  0  0  0  0  0  0  0  0
    3.8692    1.5737   -0.7752 H   0  0  0  0  0  0  0  0  0  0  0  0
    2.9824    1.7671    0.8056 H   0  0  0  0  0  0  0  0  0  0  0  0
    4.1939   -1.1455   -0.3553 H   0  0  0  0  0  0  0  0  0  0  0  0
    3.8608   -0.3527    1.1986 H   0  0  0  0  0  0  0  0  0  0  0  0
    2.9331   -1.7989    0.7335 H   0  0  0  0  0  0  0  0  0  0  0  0
  1  2  1  0
  2  3  1  0
  3  4  2  0
  3  5  1  0
  5  6  1  0
  6  7  1  0
  7  8  1  0
  8  9  1  0
  8 10  1  0
  8 11  1  0
  1 12  1  0
  1 13  1  0
  1 14  1  0
  2 15  1  0
  2 16  1  0
  4 17  1  0
  4 18  1  0
  5 19  1  0
  5 20  1  0
  6 21  1  0
  6 22  1  0
  7 23  1  0
  7 24  1  0
  9 25  1  0
 10 26  1  0
 10 27  1  0
 10 28  1  0
 11 29  1  0
 11 30  1  0
 11 31  1  0
M  END
>  <Ligand ID>  (1) 
LIG0000209

>  <Ligand>  (1) 
Dihydro Myrcenol

>  <SMILES>  (1) 
CCC(=C)CCCC(O)(C)C

>  <CID>  (1) 
87671.0

>  <ChEMBL ID>  (1) 
nan

>  <InChiKey>  (1) 
VOATZOQREKBJMT-UHFFFAOYSA-N

>  <InChi>  (1) 
InChI=1S/C10H20O/c1-5-9(2)7-6-8-10(3,4)11/h11H,2,5-8H2,1,3-4H3

>  <IUPAC Name>  (1) 
2-methyl-6-methylideneoctan-2-ol

$$$$
