
     RDKit          3D

 52 56  0  0  0  0  0  0  0  0999 V2000
   -6.0033   -0.7366    2.8775 C   0  0  0  0  0  0  0  0  0  0  0  0
   -4.6713   -0.5369    2.2905 C   0  0  0  0  0  0  0  0  0  0  0  0
   -3.5437   -1.0561    2.7354 N   0  0  0  0  0  0  0  0  0  0  0  0
   -2.4729   -0.6807    1.9685 N   0  0  0  0  0  0  0  0  0  0  0  0
   -2.9761    0.1016    1.0142 C   0  0  0  0  0  0  0  0  0  0  0  0
   -4.3611    0.2104    1.1935 C   0  0  0  0  0  0  0  0  0  0  0  0
   -4.9791    1.0710    0.1738 C   0  0  1  0  0  0  0  0  0  0  0  0
   -3.8727    1.4760   -0.7135 C   0  0  1  0  0  0  0  0  0  0  0  0
   -2.6115    0.8844   -0.1682 C   0  0  0  0  0  0  0  0  0  0  0  0
   -4.9650    0.6174   -1.2306 C   0  0  0  0  0  0  0  0  0  0  0  0
   -4.8094   -0.8648   -1.4229 C   0  0  0  0  0  0  0  0  0  0  0  0
   -5.8798    1.2811   -2.2516 C   0  0  0  0  0  0  0  0  0  0  0  0
   -1.2144   -1.1708    2.3351 C   0  0  0  0  0  0  0  0  0  0  0  0
   -1.2878   -1.9745    3.3905 O   0  0  0  0  0  0  0  0  0  0  0  0
    0.1072   -1.0162    1.8552 C   0  0  0  0  0  0  0  0  0  0  0  0
    0.5899   -0.3135    0.8614 C   0  0  0  0  0  0  0  0  0  0  0  0
    2.0117   -0.2671    0.4954 C   0  0  0  0  0  0  0  0  0  0  0  0
    2.4221    0.5159   -0.5865 C   0  0  0  0  0  0  0  0  0  0  0  0
    3.7194    0.6142   -0.9922 C   0  0  0  0  0  0  0  0  0  0  0  0
    4.7095   -0.0777   -0.3294 C   0  0  0  0  0  0  0  0  0  0  0  0
    4.3267   -0.8568    0.7415 C   0  0  0  0  0  0  0  0  0  0  0  0
    2.9937   -0.9520    1.1510 C   0  0  0  0  0  0  0  0  0  0  0  0
    6.1041    0.0144   -0.7487 C   0  0  0  0  0  0  0  0  0  0  0  0
    6.3818    0.2007   -2.0865 C   0  0  0  0  0  0  0  0  0  0  0  0
    7.6620    0.2995   -2.5757 C   0  0  0  0  0  0  0  0  0  0  0  0
    8.7476    0.2100   -1.6969 C   0  0  0  0  0  0  0  0  0  0  0  0
    8.4409    0.0239   -0.3659 C   0  0  0  0  0  0  0  0  0  0  0  0
    7.1649   -0.0749    0.1243 C   0  0  0  0  0  0  0  0  0  0  0  0
   -6.6846   -1.2946    2.1836 H   0  0  0  0  0  0  0  0  0  0  0  0
   -6.4291    0.2259    3.1896 H   0  0  0  0  0  0  0  0  0  0  0  0
   -5.9466   -1.3644    3.7959 H   0  0  0  0  0  0  0  0  0  0  0  0
   -5.7484    1.8018    0.5152 H   0  0  0  0  0  0  0  0  0  0  0  0
   -3.8381    2.5312   -1.0283 H   0  0  0  0  0  0  0  0  0  0  0  0
   -1.9470    1.7143    0.1432 H   0  0  0  0  0  0  0  0  0  0  0  0
   -2.0639    0.2852   -0.9347 H   0  0  0  0  0  0  0  0  0  0  0  0
   -5.3994   -1.3514   -0.5924 H   0  0  0  0  0  0  0  0  0  0  0  0
   -3.7783   -1.2388   -1.3272 H   0  0  0  0  0  0  0  0  0  0  0  0
   -5.3255   -1.2234   -2.3482 H   0  0  0  0  0  0  0  0  0  0  0  0
   -5.7690    0.7137   -3.1982 H   0  0  0  0  0  0  0  0  0  0  0  0
   -6.9499    1.1813   -1.9639 H   0  0  0  0  0  0  0  0  0  0  0  0
   -5.5827    2.3260   -2.4655 H   0  0  0  0  0  0  0  0  0  0  0  0
    0.8995   -1.5824    2.4010 H   0  0  0  0  0  0  0  0  0  0  0  0
   -0.0680    0.2635    0.2844 H   0  0  0  0  0  0  0  0  0  0  0  0
    1.6658    1.0840   -1.1431 H   0  0  0  0  0  0  0  0  0  0  0  0
    3.9674    1.2442   -1.8446 H   0  0  0  0  0  0  0  0  0  0  0  0
    5.0947   -1.4061    1.2714 H   0  0  0  0  0  0  0  0  0  0  0  0
    2.8130   -1.5850    1.9928 H   0  0  0  0  0  0  0  0  0  0  0  0
    5.5534    0.2711   -2.7748 H   0  0  0  0  0  0  0  0  0  0  0  0
    7.8140    0.4449   -3.6337 H   0  0  0  0  0  0  0  0  0  0  0  0
    9.7466    0.2880   -2.0852 H   0  0  0  0  0  0  0  0  0  0  0  0
    9.2859   -0.0473    0.3291 H   0  0  0  0  0  0  0  0  0  0  0  0
    6.9568   -0.2233    1.1940 H   0  0  0  0  0  0  0  0  0  0  0  0
  1  2  1  0
  2  3  2  0
  3  4  1  0
  4  5  1  0
  5  6  2  0
  6  7  1  0
  7  8  1  0
  8  9  1  0
  8 10  1  0
 10 11  1  0
 10 12  1  0
  4 13  1  0
 13 14  2  0
 13 15  1  0
 15 16  2  0
 16 17  1  0
 17 18  2  0
 18 19  1  0
 19 20  2  0
 20 21  1  0
 21 22  2  0
 20 23  1  0
 23 24  2  0
 24 25  1  0
 25 26  2  0
 26 27  1  0
 27 28  2  0
  6  2  1  0
 10  7  1  0
 22 17  1  0
 28 23  1  0
  9  5  1  0
  1 29  1  0
  1 30  1  0
  1 31  1  0
  7 32  1  1
  8 33  1  6
  9 34  1  0
  9 35  1  0
 11 36  1  0
 11 37  1  0
 11 38  1  0
 12 39  1  0
 12 40  1  0
 12 41  1  0
 15 42  1  0
 16 43  1  0
 18 44  1  0
 19 45  1  0
 21 46  1  0
 22 47  1  0
 24 48  1  0
 25 49  1  0
 26 50  1  0
 27 51  1  0
 28 52  1  0
M  END
>  <Ligand ID>  (1) 
LIG0003967

>  <Ligand>  (1) 
CHEMBL603442

>  <SMILES>  (1) 
Cc1nn(c2c1[C@H]1[C@@H](C2)C1(C)C)C(=O)/C=C/c1ccc(cc1)c1ccccc1

>  <CID>  (1) 
46225284.0

>  <ChEMBL ID>  (1) 
nan

>  <InChiKey>  (1) 
FZOFYAKHPAXACJ-NQBQSDHDSA-N

>  <InChi>  (1) 
InChI=1S/C25H24N2O/c1-16-23-21(15-20-24(23)25(20,2)3)27(26-16)22(28)14-11-17-9-12-19(13-10-17)18-7-5-4-6-8-18/h4-14,20,24H,15H2,1-3H3/b14-11+/t20-,24-/m1/s1

>  <IUPAC Name>  (1) 
(E)-3-(4-phenylphenyl)-1-[(2S,4R)-3,3,9-trimethyl-7,8-diazatricyclo[4.3.0.02,4]nona-1(6),8-dien-7-yl]prop-2-en-1-one

$$$$
