
     RDKit          3D

113118  0  0  0  0  0  0  0  0999 V2000
    3.8342    7.6718   -1.2081 N   0  0  0  0  0  0  0  0  0  0  0  0
    4.7609    7.0964   -0.2990 C   0  0  0  0  0  0  0  0  0  0  0  0
    4.4159    6.1749    0.5657 N   0  0  0  0  0  0  0  0  0  0  0  0
    3.0385    5.7411    0.5805 C   0  0  0  0  0  0  0  0  0  0  0  0
    2.6956    5.1227    1.9111 C   0  0  0  0  0  0  0  0  0  0  0  0
    1.2810    4.6511    1.9676 C   0  0  0  0  0  0  0  0  0  0  0  0
    0.8892    3.6238    0.9899 C   0  0  2  0  0  0  0  0  0  0  0  0
   -0.5035    3.2541    1.1961 N   0  0  0  0  0  0  0  0  0  0  0  0
   -1.1703    2.3342    0.2746 C   0  0  0  0  0  0  0  0  0  0  0  0
   -0.3995    1.8924   -0.5935 O   0  0  0  0  0  0  0  0  0  0  0  0
   -2.5907    1.9895    0.4057 C   0  0  1  0  0  0  0  0  0  0  0  0
   -3.3287    3.1462   -0.2691 C   0  0  0  0  0  0  0  0  0  0  0  0
   -2.9335    3.2669   -1.6990 C   0  0  0  0  0  0  0  0  0  0  0  0
   -3.6459    2.6434   -2.7101 C   0  0  0  0  0  0  0  0  0  0  0  0
   -3.2723    2.7401   -4.0341 C   0  0  0  0  0  0  0  0  0  0  0  0
   -2.1476    3.4873   -4.3444 C   0  0  0  0  0  0  0  0  0  0  0  0
   -1.4027    4.1292   -3.3779 C   0  0  0  0  0  0  0  0  0  0  0  0
   -1.8242    3.9969   -2.0736 C   0  0  0  0  0  0  0  0  0  0  0  0
   -2.9289    0.7135   -0.1399 N   0  0  0  0  0  0  0  0  0  0  0  0
   -4.0810    0.0471    0.4432 C   0  0  0  0  0  0  0  0  0  0  0  0
   -4.6805    0.7747    1.2631 O   0  0  0  0  0  0  0  0  0  0  0  0
   -4.5605   -1.2729    0.1669 C   0  0  2  0  0  0  0  0  0  0  0  0
   -5.0887   -2.0556    1.3794 C   0  0  0  0  0  0  0  0  0  0  0  0
   -6.2036   -1.3362    2.0002 C   0  0  0  0  0  0  0  0  0  0  0  0
   -6.2195   -0.4489    3.0324 N   0  0  0  0  0  0  0  0  0  0  0  0
   -7.4637   -0.0117    3.2548 C   0  0  0  0  0  0  0  0  0  0  0  0
   -8.2857   -0.5885    2.3934 N   0  0  0  0  0  0  0  0  0  0  0  0
   -7.5350   -1.4085    1.6093 C   0  0  0  0  0  0  0  0  0  0  0  0
   -3.7423   -2.1758   -0.6286 N   0  0  0  0  0  0  0  0  0  0  0  0
   -4.1844   -2.8376   -1.7993 C   0  0  0  0  0  0  0  0  0  0  0  0
   -5.3519   -2.5727   -2.1496 O   0  0  0  0  0  0  0  0  0  0  0  0
   -3.4307   -3.7775   -2.6024 C   0  0  0  0  0  0  0  0  0  0  0  0
   -2.1409   -3.6142   -3.0480 C   0  0  0  0  0  0  0  0  0  0  0  0
   -1.2602   -2.1721   -2.6824 S   0  0  0  0  0  0  0  0  0  0  0  0
    0.3746   -2.2683   -2.0226 C   0  0  0  0  0  0  0  0  0  0  0  0
    0.4144   -2.9117   -0.6154 C   0  0  2  0  0  0  0  0  0  0  0  0
    1.5762   -2.2333    0.0437 N   0  0  0  0  0  0  0  0  0  0  0  0
    1.2476   -1.0719    0.7361 C   0  0  0  0  0  0  0  0  0  0  0  0
   -0.0114   -0.7784    0.7144 O   0  0  0  0  0  0  0  0  0  0  0  0
    2.0392   -0.0907    1.4906 C   0  0  1  0  0  0  0  0  0  0  0  0
    1.2258    1.1524    1.5878 N   0  0  0  0  0  0  0  0  0  0  0  0
    1.7623    2.3805    1.0962 C   0  0  0  0  0  0  0  0  0  0  0  0
    2.9503    2.3658    0.7828 O   0  0  0  0  0  0  0  0  0  0  0  0
    2.6386   -0.5075    2.7705 C   0  0  0  0  0  0  0  0  0  0  0  0
    3.6243   -1.5881    2.6018 C   0  0  0  0  0  0  0  0  0  0  0  0
    3.3808   -2.9324    2.6904 C   0  0  0  0  0  0  0  0  0  0  0  0
    4.4403   -3.8190    2.5239 C   0  0  0  0  0  0  0  0  0  0  0  0
    5.7088   -3.3968    2.2764 C   0  0  0  0  0  0  0  0  0  0  0  0
    5.9725   -2.0678    2.1843 C   0  0  0  0  0  0  0  0  0  0  0  0
    4.9454   -1.1713    2.3445 C   0  0  0  0  0  0  0  0  0  0  0  0
    7.2322   -1.5289    1.9337 C   0  0  0  0  0  0  0  0  0  0  0  0
    8.2707   -2.4354    1.7716 C   0  0  0  0  0  0  0  0  0  0  0  0
    8.0690   -3.7994    1.8535 C   0  0  0  0  0  0  0  0  0  0  0  0
    6.7819   -4.2791    2.1073 C   0  0  0  0  0  0  0  0  0  0  0  0
    0.6398   -4.3536   -0.6671 C   0  0  0  0  0  0  0  0  0  0  0  0
   -0.1307   -5.2385   -1.0544 O   0  0  0  0  0  0  0  0  0  0  0  0
    1.9417   -4.8151   -0.2039 N   0  0  0  0  0  0  0  0  0  0  0  0
   -1.5500   -4.6272   -3.8120 C   0  0  0  0  0  0  0  0  0  0  0  0
   -2.2451   -5.7940   -4.1261 C   0  0  0  0  0  0  0  0  0  0  0  0
   -3.5573   -5.9570   -3.6703 C   0  0  0  0  0  0  0  0  0  0  0  0
   -4.1319   -4.9580   -2.9216 C   0  0  0  0  0  0  0  0  0  0  0  0
   -4.2743   -7.1615   -3.9931 N   0  0  0  0  0  0  0  0  0  0  0  0
   -5.4431   -7.2681   -3.5700 O   0  0  0  0  0  0  0  0  0  0  0  0
   -3.6739   -8.1656   -4.7541 O   0  0  0  0  0  0  0  0  0  0  0  0
    6.1470    7.5008   -0.2806 N   0  0  0  0  0  0  0  0  0  0  0  0
    2.9070    8.0899   -0.8954 H   0  0  0  0  0  0  0  0  0  0  0  0
    4.0994    7.6701   -2.2140 H   0  0  0  0  0  0  0  0  0  0  0  0
    2.8586    4.9670   -0.1980 H   0  0  0  0  0  0  0  0  0  0  0  0
    2.3700    6.6271    0.4398 H   0  0  0  0  0  0  0  0  0  0  0  0
    3.4272    4.3157    2.1540 H   0  0  0  0  0  0  0  0  0  0  0  0
    2.8352    5.8966    2.7130 H   0  0  0  0  0  0  0  0  0  0  0  0
    1.1301    4.2094    3.0038 H   0  0  0  0  0  0  0  0  0  0  0  0
    0.6253    5.5496    1.9330 H   0  0  0  0  0  0  0  0  0  0  0  0
    1.0173    3.8845   -0.0821 H   0  0  0  0  0  0  0  0  0  0  0  0
   -1.1076    3.5744    1.9465 H   0  0  0  0  0  0  0  0  0  0  0  0
   -2.9138    2.0426    1.4492 H   0  0  0  0  0  0  0  0  0  0  0  0
   -2.9259    4.0479    0.2421 H   0  0  0  0  0  0  0  0  0  0  0  0
   -4.4038    3.1579   -0.0892 H   0  0  0  0  0  0  0  0  0  0  0  0
   -4.5091    2.0716   -2.4783 H   0  0  0  0  0  0  0  0  0  0  0  0
   -3.7977    2.2763   -4.8507 H   0  0  0  0  0  0  0  0  0  0  0  0
   -1.8157    3.5831   -5.3959 H   0  0  0  0  0  0  0  0  0  0  0  0
   -0.5193    4.7195   -3.6006 H   0  0  0  0  0  0  0  0  0  0  0  0
   -1.2203    4.5127   -1.3232 H   0  0  0  0  0  0  0  0  0  0  0  0
   -2.4872    0.1877   -0.8831 H   0  0  0  0  0  0  0  0  0  0  0  0
   -5.5238   -1.1400   -0.4421 H   0  0  0  0  0  0  0  0  0  0  0  0
   -5.5058   -2.9992    0.9517 H   0  0  0  0  0  0  0  0  0  0  0  0
   -4.2873   -2.2307    2.1154 H   0  0  0  0  0  0  0  0  0  0  0  0
   -5.4103   -0.1288    3.6185 H   0  0  0  0  0  0  0  0  0  0  0  0
   -7.7802    0.6981    4.0114 H   0  0  0  0  0  0  0  0  0  0  0  0
   -7.9932   -1.9920    0.8249 H   0  0  0  0  0  0  0  0  0  0  0  0
   -2.7841   -2.3608   -0.3496 H   0  0  0  0  0  0  0  0  0  0  0  0
    0.7685   -1.2361   -1.9052 H   0  0  0  0  0  0  0  0  0  0  0  0
    1.0404   -2.8816   -2.6733 H   0  0  0  0  0  0  0  0  0  0  0  0
   -0.4796   -2.6153   -0.0758 H   0  0  0  0  0  0  0  0  0  0  0  0
    2.5209   -2.5550    0.0032 H   0  0  0  0  0  0  0  0  0  0  0  0
    2.9059    0.2146    0.8278 H   0  0  0  0  0  0  0  0  0  0  0  0
    0.3018    1.1954    1.9900 H   0  0  0  0  0  0  0  0  0  0  0  0
    3.1847    0.3895    3.1742 H   0  0  0  0  0  0  0  0  0  0  0  0
    1.8681   -0.7966    3.5438 H   0  0  0  0  0  0  0  0  0  0  0  0
    2.3728   -3.2682    2.8903 H   0  0  0  0  0  0  0  0  0  0  0  0
    4.2750   -4.8905    2.5863 H   0  0  0  0  0  0  0  0  0  0  0  0
    5.1566   -0.1065    2.2678 H   0  0  0  0  0  0  0  0  0  0  0  0
    7.4047   -0.4592    1.8661 H   0  0  0  0  0  0  0  0  0  0  0  0
    9.2825   -2.0505    1.5684 H   0  0  0  0  0  0  0  0  0  0  0  0
    8.9173   -4.4561    1.7185 H   0  0  0  0  0  0  0  0  0  0  0  0
    6.6149   -5.3658    2.1749 H   0  0  0  0  0  0  0  0  0  0  0  0
    2.0350   -5.4813    0.5804 H   0  0  0  0  0  0  0  0  0  0  0  0
    2.7499   -4.4236   -0.7246 H   0  0  0  0  0  0  0  0  0  0  0  0
   -0.5308   -4.5186   -4.1745 H   0  0  0  0  0  0  0  0  0  0  0  0
   -1.7613   -6.5602   -4.7193 H   0  0  0  0  0  0  0  0  0  0  0  0
   -5.1673   -5.0922   -2.5683 H   0  0  0  0  0  0  0  0  0  0  0  0
    6.4390    8.4431    0.0631 H   0  0  0  0  0  0  0  0  0  0  0  0
    6.9118    6.8785   -0.6079 H   0  0  0  0  0  0  0  0  0  0  0  0
  1  2  1  0
  2  3  2  3
  3  4  1  0
  4  5  1  0
  5  6  1  0
  6  7  1  0
  7  8  1  0
  8  9  1  0
  9 10  2  0
  9 11  1  0
 11 12  1  0
 12 13  1  0
 13 14  2  0
 14 15  1  0
 15 16  2  0
 16 17  1  0
 17 18  2  0
 11 19  1  0
 19 20  1  0
 20 21  2  0
 20 22  1  0
 22 23  1  0
 23 24  1  0
 24 25  1  0
 25 26  1  0
 26 27  2  0
 27 28  1  0
 22 29  1  0
 29 30  1  0
 30 31  2  0
 30 32  1  0
 32 33  2  0
 33 34  1  0
 34 35  1  0
 35 36  1  0
 36 37  1  0
 37 38  1  0
 38 39  2  0
 38 40  1  0
 40 41  1  0
 41 42  1  0
 42 43  2  0
 40 44  1  0
 44 45  1  0
 45 46  2  0
 46 47  1  0
 47 48  2  0
 48 49  1  0
 49 50  2  0
 49 51  1  0
 51 52  2  0
 52 53  1  0
 53 54  2  0
 36 55  1  0
 55 56  2  0
 55 57  1  0
 33 58  1  0
 58 59  2  0
 59 60  1  0
 60 61  2  0
 60 62  1  0
 62 63  2  0
 62 64  1  0
  2 65  1  0
 42  7  1  0
 50 45  1  0
 18 13  1  0
 28 24  2  0
 61 32  1  0
 54 48  1  0
  1 66  1  0
  1 67  1  0
  4 68  1  0
  4 69  1  0
  5 70  1  0
  5 71  1  0
  6 72  1  0
  6 73  1  0
  7 74  1  6
  8 75  1  0
 11 76  1  1
 12 77  1  0
 12 78  1  0
 14 79  1  0
 15 80  1  0
 16 81  1  0
 17 82  1  0
 18 83  1  0
 19 84  1  0
 22 85  1  6
 23 86  1  0
 23 87  1  0
 25 88  1  0
 26 89  1  0
 28 90  1  0
 29 91  1  0
 35 92  1  0
 35 93  1  0
 36 94  1  1
 37 95  1  0
 40 96  1  6
 41 97  1  0
 44 98  1  0
 44 99  1  0
 46100  1  0
 47101  1  0
 50102  1  0
 51103  1  0
 52104  1  0
 53105  1  0
 54106  1  0
 57107  1  0
 57108  1  0
 58109  1  0
 59110  1  0
 61111  1  0
 65112  1  0
 65113  1  0
M  CHG  2  62   1  64  -1
M  END
>  <Ligand ID>  (1) 
LIG0005727

>  <Ligand>  (1) 
CHEMBL506274

>  <SMILES>  (1) 
NC(=NCCC[C@@H]1NC(=O)[C@@H](Cc2ccccc2)NC(=O)[C@H](Cc2[nH]cnc2)NC(=O)c2c(SC[C@H](NC(=O)[C@@H](NC1=O)Cc1ccc3c(c1)cccc3)C(=O)N)ccc(c2)[N+](=O)[O-])N

>  <CID>  (1) 
44577520.0

>  <ChEMBL ID>  (1) 
nan

>  <InChiKey>  (1) 
PRPVNAJQUHNHLC-YNOSRJHOSA-N

>  <InChi>  (1) 
InChI=1S/C44H48N12O8S/c45-38(57)36-23-65-37-15-14-30(56(63)64)21-31(37)39(58)52-35(20-29-22-48-24-50-29)43(62)54-33(18-25-7-2-1-3-8-25)41(60)51-32(11-6-16-49-44(46)47)40(59)53-34(42(61)55-36)19-26-12-13-27-9-4-5-10-28(27)17-26/h1-5,7-10,12-15,17,21-22,24,32-36H,6,11,16,18-20,23H2,(H2,45,57)(H,48,50)(H,51,60)(H,52,58)(H,53,59)(H,54,62)(H,55,61)(H4,46,47,49)/t32-,33+,34-,35-,36-/m0/s1

>  <IUPAC Name>  (1) 
(4R,7S,10S,13R,16S)-13-benzyl-10-[3-(diaminomethylideneamino)propyl]-16-(1H-imidazol-5-ylmethyl)-7-(naphthalen-2-ylmethyl)-21-nitro-6,9,12,15,18-pentaoxo-2-thia-5,8,11,14,17-pentazabicyclo[17.4.0]tricosa-1(19),20,22-triene-4-carboxamide

$$$$
