
     RDKit          3D

154159  0  0  0  0  0  0  0  0999 V2000
   -1.1194   -5.9460   -2.9211 C   0  0  0  0  0  0  0  0  0  0  0  0
   -1.2578   -4.3840   -3.7770 S   0  0  0  0  0  0  0  0  0  0  0  0
   -0.8541   -3.0409   -2.5676 C   0  0  0  0  0  0  0  0  0  0  0  0
    0.5409   -3.2223   -2.1888 C   0  0  0  0  0  0  0  0  0  0  0  0
    1.2155   -2.2500   -1.2407 C   0  0  1  0  0  0  0  0  0  0  0  0
    0.5190   -2.1845    0.0353 C   0  0  0  0  0  0  0  0  0  0  0  0
    0.8838   -2.9132    1.0184 O   0  0  0  0  0  0  0  0  0  0  0  0
   -0.5959   -1.3292    0.3568 N   0  0  0  0  0  0  0  0  0  0  0  0
   -1.1499   -1.3695    1.7188 C   0  0  0  0  0  0  0  0  0  0  0  0
   -1.9973   -0.1683    1.8677 C   0  0  0  0  0  0  0  0  0  0  0  0
   -1.6331    0.7189    0.7068 C   0  0  0  0  0  0  0  0  0  0  0  0
   -1.3070   -0.3369   -0.3828 C   0  0  2  0  0  0  0  0  0  0  0  0
   -2.5794   -0.7539   -1.0173 C   0  0  0  0  0  0  0  0  0  0  0  0
   -2.9239   -0.2206   -2.1307 O   0  0  0  0  0  0  0  0  0  0  0  0
   -3.4747   -1.7192   -0.5002 N   0  0  0  0  0  0  0  0  0  0  0  0
   -4.6747   -2.1756   -1.1355 C   0  0  2  0  0  0  0  0  0  0  0  0
   -5.8818   -1.4653   -0.7779 C   0  0  0  0  0  0  0  0  0  0  0  0
   -6.9779   -1.9183   -1.2947 O   0  0  0  0  0  0  0  0  0  0  0  0
   -6.0487   -0.3344    0.0607 N   0  0  0  0  0  0  0  0  0  0  0  0
   -7.3846    0.1667    0.2339 C   0  0  2  0  0  0  0  0  0  0  0  0
   -7.5351    1.4452   -0.5715 C   0  0  0  0  0  0  0  0  0  0  0  0
   -8.7358    1.8273   -0.6757 O   0  0  0  0  0  0  0  0  0  0  0  0
   -6.4697    2.1038   -1.1202 O   0  0  0  0  0  0  0  0  0  0  0  0
   -6.5922    3.2682   -1.8819 C   0  0  0  0  0  0  0  0  0  0  0  0
   -7.2919    4.3462   -1.1465 C   0  0  0  0  0  0  0  0  0  0  0  0
   -8.6484    4.5091   -1.4382 C   0  0  0  0  0  0  0  0  0  0  0  0
   -9.4257    5.4658   -0.8089 C   0  0  0  0  0  0  0  0  0  0  0  0
   -8.8159    6.2805    0.1383 C   0  0  0  0  0  0  0  0  0  0  0  0
   -7.4671    6.1295    0.4363 C   0  0  0  0  0  0  0  0  0  0  0  0
   -6.6920    5.1573   -0.2060 C   0  0  0  0  0  0  0  0  0  0  0  0
   -6.8735    7.0298    1.4433 C   0  0  0  0  0  0  0  0  0  0  0  0
   -5.9547    6.2867    2.1841 F   0  0  0  0  0  0  0  0  0  0  0  0
   -7.8740    7.5548    2.2266 F   0  0  0  0  0  0  0  0  0  0  0  0
   -6.2462    8.0741    0.7680 F   0  0  0  0  0  0  0  0  0  0  0  0
  -10.8707    5.6100   -1.1330 C   0  0  0  0  0  0  0  0  0  0  0  0
  -11.2428    4.4875   -1.8672 F   0  0  0  0  0  0  0  0  0  0  0  0
  -11.0578    6.7766   -1.8067 F   0  0  0  0  0  0  0  0  0  0  0  0
  -11.6207    5.5433    0.0374 F   0  0  0  0  0  0  0  0  0  0  0  0
   -7.7601    0.5392    1.6319 C   0  0  0  0  0  0  0  0  0  0  0  0
   -9.1625    1.0429    1.6940 C   0  0  0  0  0  0  0  0  0  0  0  0
   -9.6322    2.3250    1.8485 C   0  0  0  0  0  0  0  0  0  0  0  0
  -10.9773    2.3450    1.8603 N   0  0  0  0  0  0  0  0  0  0  0  0
  -11.4361    1.0806    1.7151 C   0  0  0  0  0  0  0  0  0  0  0  0
  -10.3243    0.2600    1.6097 C   0  0  0  0  0  0  0  0  0  0  0  0
  -10.5025   -1.1198    1.4464 C   0  0  0  0  0  0  0  0  0  0  0  0
  -11.7658   -1.6253    1.3923 C   0  0  0  0  0  0  0  0  0  0  0  0
  -12.8966   -0.8360    1.4937 C   0  0  0  0  0  0  0  0  0  0  0  0
  -12.7037    0.5154    1.6550 C   0  0  0  0  0  0  0  0  0  0  0  0
   -4.7838   -3.6589   -1.2159 C   0  0  0  0  0  0  0  0  0  0  0  0
   -4.7817   -4.4523    0.0241 C   0  0  0  0  0  0  0  0  0  0  0  0
   -5.9294   -4.1012    0.9641 C   0  0  0  0  0  0  0  0  0  0  0  0
   -3.4765   -4.6331    0.7311 C   0  0  0  0  0  0  0  0  0  0  0  0
    2.5889   -2.7962   -1.0903 N   0  0  0  0  0  0  0  0  0  0  0  0
    3.7691   -2.0580   -1.0194 C   0  0  0  0  0  0  0  0  0  0  0  0
    3.6560   -0.7730   -1.0385 O   0  0  0  0  0  0  0  0  0  0  0  0
    5.0551   -2.7441   -0.9452 C   0  0  2  0  0  0  0  0  0  0  0  0
    5.3028   -3.5826    0.2385 C   0  0  0  0  0  0  0  0  0  0  0  0
    4.4093   -4.7112    0.5094 C   0  0  0  0  0  0  0  0  0  0  0  0
    4.6338   -5.8828   -0.2228 C   0  0  0  0  0  0  0  0  0  0  0  0
    3.8947   -7.0263   -0.0179 C   0  0  0  0  0  0  0  0  0  0  0  0
    2.8886   -6.9968    0.9565 C   0  0  0  0  0  0  0  0  0  0  0  0
    2.6299   -5.8640    1.7042 C   0  0  0  0  0  0  0  0  0  0  0  0
    3.4177   -4.7590    1.4391 C   0  0  0  0  0  0  0  0  0  0  0  0
    6.2163   -1.8224   -1.0225 N   0  0  0  0  0  0  0  0  0  0  0  0
    6.6394   -1.2433   -2.2312 C   0  0  0  0  0  0  0  0  0  0  0  0
    5.9331   -1.5083   -3.2679 O   0  0  0  0  0  0  0  0  0  0  0  0
    7.7980   -0.3720   -2.4467 C   0  0  0  0  0  0  0  0  0  0  0  0
    8.5885   -0.2625   -1.2472 N   0  0  0  0  0  0  0  0  0  0  0  0
    9.7995    0.5347   -1.1923 C   0  0  0  0  0  0  0  0  0  0  0  0
   10.1496    1.1683   -2.2088 O   0  0  0  0  0  0  0  0  0  0  0  0
   10.5470    0.5254    0.0895 C   0  0  2  0  0  0  0  0  0  0  0  0
   11.7614    1.3001    0.0699 N   0  0  0  0  0  0  0  0  0  0  0  0
   12.1677    2.0487    1.1982 C   0  0  0  0  0  0  0  0  0  0  0  0
   11.3954    1.9901    2.2114 O   0  0  0  0  0  0  0  0  0  0  0  0
   13.3986    2.8621    1.2669 C   0  0  2  0  0  0  0  0  0  0  0  0
   13.2465    4.1764    1.9682 C   0  0  0  0  0  0  0  0  0  0  0  0
   12.2798    5.1163    1.3881 C   0  0  0  0  0  0  0  0  0  0  0  0
   10.9515    5.2012    1.7164 C   0  0  0  0  0  0  0  0  0  0  0  0
   10.1075    6.1363    1.1388 C   0  0  0  0  0  0  0  0  0  0  0  0
   10.5839    7.0372    0.1902 C   0  0  0  0  0  0  0  0  0  0  0  0
   11.9195    6.9614   -0.1504 C   0  0  0  0  0  0  0  0  0  0  0  0
   12.7407    6.0218    0.4384 C   0  0  0  0  0  0  0  0  0  0  0  0
    9.7793    7.9728   -0.3991 O   0  0  0  0  0  0  0  0  0  0  0  0
   14.0482    2.9616   -0.0316 N   0  0  0  0  0  0  0  0  0  0  0  0
   10.8953   -0.9462    0.4001 C   0  0  0  0  0  0  0  0  0  0  0  0
   -0.4182   -6.5965   -3.5098 H   0  0  0  0  0  0  0  0  0  0  0  0
   -0.7776   -5.7930   -1.8925 H   0  0  0  0  0  0  0  0  0  0  0  0
   -2.0941   -6.5164   -2.9145 H   0  0  0  0  0  0  0  0  0  0  0  0
   -1.1115   -2.1027   -3.0685 H   0  0  0  0  0  0  0  0  0  0  0  0
   -1.5226   -3.2061   -1.6762 H   0  0  0  0  0  0  0  0  0  0  0  0
    0.7472   -4.2461   -1.7465 H   0  0  0  0  0  0  0  0  0  0  0  0
    1.1971   -3.2072   -3.1236 H   0  0  0  0  0  0  0  0  0  0  0  0
    1.3099   -1.2715   -1.7272 H   0  0  0  0  0  0  0  0  0  0  0  0
   -0.2291   -1.2860    2.4066 H   0  0  0  0  0  0  0  0  0  0  0  0
   -1.5662   -2.3344    1.9975 H   0  0  0  0  0  0  0  0  0  0  0  0
   -3.0915   -0.3405    1.9487 H   0  0  0  0  0  0  0  0  0  0  0  0
   -1.6722    0.3781    2.8041 H   0  0  0  0  0  0  0  0  0  0  0  0
   -2.4241    1.3981    0.3996 H   0  0  0  0  0  0  0  0  0  0  0  0
   -0.7344    1.2938    0.9776 H   0  0  0  0  0  0  0  0  0  0  0  0
   -0.7033    0.2133   -1.1321 H   0  0  0  0  0  0  0  0  0  0  0  0
   -3.2469   -2.1470    0.4299 H   0  0  0  0  0  0  0  0  0  0  0  0
   -4.5181   -1.8805   -2.2433 H   0  0  0  0  0  0  0  0  0  0  0  0
   -5.1893    0.0609    0.4968 H   0  0  0  0  0  0  0  0  0  0  0  0
   -8.1024   -0.5176   -0.2453 H   0  0  0  0  0  0  0  0  0  0  0  0
   -5.5609    3.6318   -2.1961 H   0  0  0  0  0  0  0  0  0  0  0  0
   -7.1136    3.0349   -2.8376 H   0  0  0  0  0  0  0  0  0  0  0  0
   -9.1607    3.9163   -2.1872 H   0  0  0  0  0  0  0  0  0  0  0  0
   -9.4519    7.0143    0.6067 H   0  0  0  0  0  0  0  0  0  0  0  0
   -5.6472    5.0177    0.0087 H   0  0  0  0  0  0  0  0  0  0  0  0
   -7.6684   -0.2614    2.3852 H   0  0  0  0  0  0  0  0  0  0  0  0
   -7.1114    1.3595    1.9889 H   0  0  0  0  0  0  0  0  0  0  0  0
   -9.0224    3.2050    1.9441 H   0  0  0  0  0  0  0  0  0  0  0  0
  -11.6378    3.1485    1.9605 H   0  0  0  0  0  0  0  0  0  0  0  0
   -9.6497   -1.7955    1.3554 H   0  0  0  0  0  0  0  0  0  0  0  0
  -11.9039   -2.7008    1.2612 H   0  0  0  0  0  0  0  0  0  0  0  0
  -13.9112   -1.2590    1.4470 H   0  0  0  0  0  0  0  0  0  0  0  0
  -13.5463    1.1606    1.7382 H   0  0  0  0  0  0  0  0  0  0  0  0
   -3.9297   -4.0295   -1.8430 H   0  0  0  0  0  0  0  0  0  0  0  0
   -5.7014   -3.9361   -1.7797 H   0  0  0  0  0  0  0  0  0  0  0  0
   -5.0565   -5.5015   -0.3202 H   0  0  0  0  0  0  0  0  0  0  0  0
   -6.9155   -4.3963    0.5283 H   0  0  0  0  0  0  0  0  0  0  0  0
   -5.8948   -3.0594    1.3314 H   0  0  0  0  0  0  0  0  0  0  0  0
   -5.8740   -4.7308    1.9006 H   0  0  0  0  0  0  0  0  0  0  0  0
   -3.4414   -4.1130    1.7388 H   0  0  0  0  0  0  0  0  0  0  0  0
   -3.3031   -5.7083    1.0484 H   0  0  0  0  0  0  0  0  0  0  0  0
   -2.5971   -4.4096    0.0987 H   0  0  0  0  0  0  0  0  0  0  0  0
    2.6502   -3.8364   -1.0532 H   0  0  0  0  0  0  0  0  0  0  0  0
    5.1392   -3.4259   -1.8856 H   0  0  0  0  0  0  0  0  0  0  0  0
    5.1702   -2.8935    1.1515 H   0  0  0  0  0  0  0  0  0  0  0  0
    6.3903   -3.9023    0.3083 H   0  0  0  0  0  0  0  0  0  0  0  0
    5.4007   -5.9381   -0.9896 H   0  0  0  0  0  0  0  0  0  0  0  0
    4.0778   -7.9290   -0.5913 H   0  0  0  0  0  0  0  0  0  0  0  0
    2.3431   -7.9055    1.0782 H   0  0  0  0  0  0  0  0  0  0  0  0
    1.8541   -5.8467    2.4560 H   0  0  0  0  0  0  0  0  0  0  0  0
    3.2374   -3.8459    2.0167 H   0  0  0  0  0  0  0  0  0  0  0  0
    6.7094   -1.6153   -0.1306 H   0  0  0  0  0  0  0  0  0  0  0  0
    8.4349   -0.8936   -3.2280 H   0  0  0  0  0  0  0  0  0  0  0  0
    7.5146    0.6328   -2.8350 H   0  0  0  0  0  0  0  0  0  0  0  0
    8.3567   -0.7398   -0.3554 H   0  0  0  0  0  0  0  0  0  0  0  0
    9.8935    0.8411    0.9081 H   0  0  0  0  0  0  0  0  0  0  0  0
   12.3848    1.3306   -0.7835 H   0  0  0  0  0  0  0  0  0  0  0  0
   14.1005    2.2617    1.9435 H   0  0  0  0  0  0  0  0  0  0  0  0
   12.9116    3.9295    3.0146 H   0  0  0  0  0  0  0  0  0  0  0  0
   14.2746    4.6470    2.0237 H   0  0  0  0  0  0  0  0  0  0  0  0
   10.5450    4.5341    2.4410 H   0  0  0  0  0  0  0  0  0  0  0  0
    9.0747    6.1474    1.4408 H   0  0  0  0  0  0  0  0  0  0  0  0
   12.3823    7.6227   -0.8767 H   0  0  0  0  0  0  0  0  0  0  0  0
   13.7983    5.9851    0.1529 H   0  0  0  0  0  0  0  0  0  0  0  0
   10.0599    8.4448   -1.2479 H   0  0  0  0  0  0  0  0  0  0  0  0
   14.3400    2.0121   -0.3044 H   0  0  0  0  0  0  0  0  0  0  0  0
   13.3359    3.2861   -0.7218 H   0  0  0  0  0  0  0  0  0  0  0  0
   11.8592   -0.9599    0.9177 H   0  0  0  0  0  0  0  0  0  0  0  0
   10.9841   -1.4887   -0.5712 H   0  0  0  0  0  0  0  0  0  0  0  0
   10.0785   -1.3369    1.0314 H   0  0  0  0  0  0  0  0  0  0  0  0
  1  2  1  0
  2  3  1  0
  3  4  1  0
  4  5  1  0
  5  6  1  0
  6  7  2  0
  6  8  1  0
  8  9  1  0
  9 10  1  0
 10 11  1  0
 11 12  1  0
 12 13  1  0
 13 14  2  0
 13 15  1  0
 15 16  1  0
 16 17  1  0
 17 18  2  0
 17 19  1  0
 19 20  1  0
 20 21  1  0
 21 22  2  0
 21 23  1  0
 23 24  1  0
 24 25  1  0
 25 26  2  0
 26 27  1  0
 27 28  2  0
 28 29  1  0
 29 30  2  0
 29 31  1  0
 31 32  1  0
 31 33  1  0
 31 34  1  0
 27 35  1  0
 35 36  1  0
 35 37  1  0
 35 38  1  0
 20 39  1  0
 39 40  1  0
 40 41  2  0
 41 42  1  0
 42 43  1  0
 43 44  2  0
 44 45  1  0
 45 46  2  0
 46 47  1  0
 47 48  2  0
 16 49  1  0
 49 50  1  0
 50 51  1  0
 50 52  1  0
  5 53  1  0
 53 54  1  0
 54 55  2  0
 54 56  1  0
 56 57  1  0
 57 58  1  0
 58 59  2  0
 59 60  1  0
 60 61  2  0
 61 62  1  0
 62 63  2  0
 56 64  1  0
 64 65  1  0
 65 66  2  0
 65 67  1  0
 67 68  1  0
 68 69  1  0
 69 70  2  0
 69 71  1  0
 71 72  1  0
 72 73  1  0
 73 74  2  0
 73 75  1  0
 75 76  1  0
 76 77  1  0
 77 78  2  0
 78 79  1  0
 79 80  2  0
 80 81  1  0
 81 82  2  0
 80 83  1  0
 75 84  1  0
 71 85  1  0
 12  8  1  0
 30 25  1  0
 44 40  1  0
 63 58  1  0
 82 77  1  0
 48 43  1  0
  1 86  1  0
  1 87  1  0
  1 88  1  0
  3 89  1  0
  3 90  1  0
  4 91  1  0
  4 92  1  0
  5 93  1  6
  9 94  1  0
  9 95  1  0
 10 96  1  0
 10 97  1  0
 11 98  1  0
 11 99  1  0
 12100  1  6
 15101  1  0
 16102  1  6
 19103  1  0
 20104  1  6
 24105  1  0
 24106  1  0
 26107  1  0
 28108  1  0
 30109  1  0
 39110  1  0
 39111  1  0
 41112  1  0
 42113  1  0
 45114  1  0
 46115  1  0
 47116  1  0
 48117  1  0
 49118  1  0
 49119  1  0
 50120  1  0
 51121  1  0
 51122  1  0
 51123  1  0
 52124  1  0
 52125  1  0
 52126  1  0
 53127  1  0
 56128  1  6
 57129  1  0
 57130  1  0
 59131  1  0
 60132  1  0
 61133  1  0
 62134  1  0
 63135  1  0
 64136  1  0
 67137  1  0
 67138  1  0
 68139  1  0
 71140  1  1
 72141  1  0
 75142  1  1
 76143  1  0
 76144  1  0
 78145  1  0
 79146  1  0
 81147  1  0
 82148  1  0
 83149  1  0
 84150  1  0
 84151  1  0
 85152  1  0
 85153  1  0
 85154  1  0
M  END
>  <Ligand ID>  (1) 
LIG0005378

>  <Ligand>  (1) 
CHEMBL2419540

>  <SMILES>  (1) 
CSCC[C@@H](C(=O)N1CCC[C@@H]1C(=O)N[C@H](C(=O)N[C@H](C(=O)OCc1cc(cc(c1)C(F)(F)F)C(F)(F)F)Cc1c[nH]c2c1cccc2)CC(C)C)NC(=O)[C@H](Cc1ccccc1)NC(=O)CNC(=O)[C@H](NC(=O)[C@H](Cc1ccc(cc1)O)N)C

>  <CID>  (1) 
44177768.0

>  <ChEMBL ID>  (1) 
nan

>  <InChiKey>  (1) 
TWBCIHKYFTWYCV-KVJHGWDUSA-N

>  <InChi>  (1) 
InChI=1S/C59H69F6N9O10S/c1-33(2)23-46(53(79)73-48(28-38-30-67-44-14-9-8-13-42(38)44)57(83)84-32-37-24-39(58(60,61)62)29-40(25-37)59(63,64)65)72-55(81)49-15-10-21-74(49)56(82)45(20-22-85-4)71-54(80)47(27-35-11-6-5-7-12-35)70-50(76)31-68-51(77)34(3)69-52(78)43(66)26-36-16-18-41(75)19-17-36/h5-9,11-14,16-19,24-25,29-30,33-34,43,45-49,67,75H,10,15,20-23,26-28,31-32,66H2,1-4H3,(H,68,77)(H,69,78)(H,70,76)(H,71,80)(H,72,81)(H,73,79)/t34-,43+,45+,46+,47+,48+,49-/m1/s1

>  <IUPAC Name>  (1) 
[3,5-bis(trifluoromethyl)phenyl]methyl (2S)-2-[[(2S)-2-[[(2R)-1-[(2S)-2-[[(2S)-2-[[2-[[(2R)-2-[[(2S)-2-amino-3-(4-hydroxyphenyl)propanoyl]amino]propanoyl]amino]acetyl]amino]-3-phenylpropanoyl]amino]-4-methylsulfanylbutanoyl]pyrrolidine-2-carbonyl]amino]-4-methylpentanoyl]amino]-3-(1H-indol-3-yl)propanoate

$$$$
