
     RDKit          3D

 32 32  0  0  0  0  0  0  0  0999 V2000
    4.2920    0.9972    0.1757 C   0  0  0  0  0  0  0  0  0  0  0  0
    2.9302    0.5059   -0.2940 C   0  0  0  0  0  0  0  0  0  0  0  0
    2.2536   -0.0615    0.8354 N   0  0  0  0  0  0  0  0  0  0  0  0
    0.9330   -0.5855    0.5538 C   0  0  0  0  0  0  0  0  0  0  0  0
   -0.0034    0.5447    0.2310 C   0  0  1  0  0  0  0  0  0  0  0  0
   -1.3675    0.0233   -0.0147 C   0  0  0  0  0  0  0  0  0  0  0  0
   -1.6749   -1.2863   -0.2554 C   0  0  0  0  0  0  0  0  0  0  0  0
   -2.9802   -1.6666   -0.4693 C   0  0  0  0  0  0  0  0  0  0  0  0
   -4.0149   -0.7421   -0.4476 C   0  0  0  0  0  0  0  0  0  0  0  0
   -3.7162    0.5943   -0.2036 C   0  0  0  0  0  0  0  0  0  0  0  0
   -2.4048    0.9426    0.0060 C   0  0  0  0  0  0  0  0  0  0  0  0
   -4.6998    1.5681   -0.1676 O   0  0  0  0  0  0  0  0  0  0  0  0
   -5.3310   -1.1006   -0.6597 O   0  0  0  0  0  0  0  0  0  0  0  0
   -0.0675    1.4394    1.3305 O   0  0  0  0  0  0  0  0  0  0  0  0
    3.1796   -0.6389   -1.2803 C   0  0  0  0  0  0  0  0  0  0  0  0
    4.2846    1.3524    1.2202 H   0  0  0  0  0  0  0  0  0  0  0  0
    5.0286    0.1681    0.1023 H   0  0  0  0  0  0  0  0  0  0  0  0
    4.6549    1.8365   -0.4624 H   0  0  0  0  0  0  0  0  0  0  0  0
    2.3628    1.2747   -0.8189 H   0  0  0  0  0  0  0  0  0  0  0  0
    2.8252   -0.6665    1.4221 H   0  0  0  0  0  0  0  0  0  0  0  0
    0.5926   -1.1114    1.4655 H   0  0  0  0  0  0  0  0  0  0  0  0
    0.9558   -1.3048   -0.2869 H   0  0  0  0  0  0  0  0  0  0  0  0
    0.3423    1.1247   -0.6451 H   0  0  0  0  0  0  0  0  0  0  0  0
   -0.9070   -2.0404   -0.2811 H   0  0  0  0  0  0  0  0  0  0  0  0
   -3.2404   -2.6957   -0.6601 H   0  0  0  0  0  0  0  0  0  0  0  0
   -2.1960    1.9876    0.1938 H   0  0  0  0  0  0  0  0  0  0  0  0
   -5.2003    1.8677   -0.9773 H   0  0  0  0  0  0  0  0  0  0  0  0
   -6.0801   -0.5409   -0.2967 H   0  0  0  0  0  0  0  0  0  0  0  0
   -0.4920    0.9532    2.0873 H   0  0  0  0  0  0  0  0  0  0  0  0
    2.3730   -0.6791   -2.0218 H   0  0  0  0  0  0  0  0  0  0  0  0
    3.2191   -1.5984   -0.7200 H   0  0  0  0  0  0  0  0  0  0  0  0
    4.1489   -0.4616   -1.8086 H   0  0  0  0  0  0  0  0  0  0  0  0
  1  2  1  0
  2  3  1  0
  3  4  1  0
  4  5  1  0
  5  6  1  0
  6  7  2  0
  7  8  1  0
  8  9  2  0
  9 10  1  0
 10 11  2  0
 10 12  1  0
  9 13  1  0
  5 14  1  0
  2 15  1  0
 11  6  1  0
  1 16  1  0
  1 17  1  0
  1 18  1  0
  2 19  1  0
  3 20  1  0
  4 21  1  0
  4 22  1  0
  5 23  1  6
  7 24  1  0
  8 25  1  0
 11 26  1  0
 12 27  1  0
 13 28  1  0
 14 29  1  0
 15 30  1  0
 15 31  1  0
 15 32  1  0
M  END
>  <Ligand ID>  (1) 
LIG0000910

>  <Ligand>  (1) 
LEVISOPRENALINE

>  <SMILES>  (1) 
CC(NC[C@@H](c1ccc(c(c1)O)O)O)C

>  <CID>  (1) 
443372.0

>  <ChEMBL ID>  (1) 
nan

>  <InChiKey>  (1) 
JWZZKOKVBUJMES-NSHDSACASA-N

>  <InChi>  (1) 
InChI=1S/C11H17NO3/c1-7(2)12-6-11(15)8-3-4-9(13)10(14)5-8/h3-5,7,11-15H,6H2,1-2H3/t11-/m0/s1

>  <IUPAC Name>  (1) 
4-[(1R)-1-hydroxy-2-(propan-2-ylamino)ethyl]benzene-1,2-diol

$$$$
