
     RDKit          3D

 42 43  0  0  0  0  0  0  0  0999 V2000
    0.4710    4.1042   -0.2625 C   0  0  0  0  0  0  0  0  0  0  0  0
   -0.6510    3.1552   -0.1945 C   0  0  0  0  0  0  0  0  0  0  0  0
   -1.8364    3.5582   -0.2158 O   0  0  0  0  0  0  0  0  0  0  0  0
   -0.3816    1.7241   -0.1009 C   0  0  0  0  0  0  0  0  0  0  0  0
    0.9196    1.2534   -0.0757 C   0  0  0  0  0  0  0  0  0  0  0  0
    1.2322   -0.0871    0.0117 C   0  0  0  0  0  0  0  0  0  0  0  0
    0.1966   -0.9944    0.0765 C   0  0  0  0  0  0  0  0  0  0  0  0
   -1.1038   -0.5285    0.0516 C   0  0  0  0  0  0  0  0  0  0  0  0
   -1.4270    0.8088   -0.0355 C   0  0  0  0  0  0  0  0  0  0  0  0
   -2.9024    0.9676   -0.0394 C   0  0  0  0  0  0  0  0  0  0  0  0
   -3.4075   -0.3146    0.5569 C   0  0  0  0  0  0  0  0  0  0  0  0
   -2.3614   -1.3125    0.1092 C   0  0  0  0  0  0  0  0  0  0  0  0
   -2.7473   -1.8384   -1.2768 C   0  0  0  0  0  0  0  0  0  0  0  0
   -2.2970   -2.4358    1.1083 C   0  0  0  0  0  0  0  0  0  0  0  0
    2.6507   -0.5339    0.0349 C   0  0  0  0  0  0  0  0  0  0  0  0
    3.0763   -0.5707    1.4815 C   0  0  0  0  0  0  0  0  0  0  0  0
    2.7976   -1.8774   -0.6355 C   0  0  0  0  0  0  0  0  0  0  0  0
    3.5610    0.4160   -0.7090 C   0  0  0  0  0  0  0  0  0  0  0  0
    1.1960    3.8241    0.5470 H   0  0  0  0  0  0  0  0  0  0  0  0
    0.0883    5.1339   -0.1268 H   0  0  0  0  0  0  0  0  0  0  0  0
    0.9719    3.9826   -1.2336 H   0  0  0  0  0  0  0  0  0  0  0  0
    1.7514    1.9637   -0.1265 H   0  0  0  0  0  0  0  0  0  0  0  0
    0.4021   -2.0682    0.1468 H   0  0  0  0  0  0  0  0  0  0  0  0
   -3.3278    1.0501   -1.0615 H   0  0  0  0  0  0  0  0  0  0  0  0
   -3.1654    1.8223    0.6115 H   0  0  0  0  0  0  0  0  0  0  0  0
   -4.3666   -0.5957    0.0790 H   0  0  0  0  0  0  0  0  0  0  0  0
   -3.4823   -0.2886    1.6552 H   0  0  0  0  0  0  0  0  0  0  0  0
   -2.1805   -1.1967   -2.0048 H   0  0  0  0  0  0  0  0  0  0  0  0
   -3.8273   -1.7644   -1.3921 H   0  0  0  0  0  0  0  0  0  0  0  0
   -2.3351   -2.8531   -1.4135 H   0  0  0  0  0  0  0  0  0  0  0  0
   -3.1913   -3.0690    0.9224 H   0  0  0  0  0  0  0  0  0  0  0  0
   -1.3976   -3.0640    0.9785 H   0  0  0  0  0  0  0  0  0  0  0  0
   -2.4078   -2.0097    2.1185 H   0  0  0  0  0  0  0  0  0  0  0  0
    3.2192    0.5049    1.7825 H   0  0  0  0  0  0  0  0  0  0  0  0
    3.9925   -1.1571    1.5941 H   0  0  0  0  0  0  0  0  0  0  0  0
    2.2763   -0.9517    2.1482 H   0  0  0  0  0  0  0  0  0  0  0  0
    3.8588   -2.0920   -0.7750 H   0  0  0  0  0  0  0  0  0  0  0  0
    2.3746   -2.7014   -0.0296 H   0  0  0  0  0  0  0  0  0  0  0  0
    2.3023   -1.8293   -1.6100 H   0  0  0  0  0  0  0  0  0  0  0  0
    4.5349   -0.1274   -0.8327 H   0  0  0  0  0  0  0  0  0  0  0  0
    3.7526    1.3315   -0.1435 H   0  0  0  0  0  0  0  0  0  0  0  0
    3.1713    0.6612   -1.7191 H   0  0  0  0  0  0  0  0  0  0  0  0
  1  2  1  0
  2  3  2  0
  2  4  1  0
  4  5  2  0
  5  6  1  0
  6  7  2  0
  7  8  1  0
  8  9  2  0
  9 10  1  0
 10 11  1  0
 11 12  1  0
 12 13  1  0
 12 14  1  0
  6 15  1  0
 15 16  1  0
 15 17  1  0
 15 18  1  0
  9  4  1  0
 12  8  1  0
  1 19  1  0
  1 20  1  0
  1 21  1  0
  5 22  1  0
  7 23  1  0
 10 24  1  0
 10 25  1  0
 11 26  1  0
 11 27  1  0
 13 28  1  0
 13 29  1  0
 13 30  1  0
 14 31  1  0
 14 32  1  0
 14 33  1  0
 16 34  1  0
 16 35  1  0
 16 36  1  0
 17 37  1  0
 17 38  1  0
 17 39  1  0
 18 40  1  0
 18 41  1  0
 18 42  1  0
M  END
>  <Ligand ID>  (1) 
LIG0000365

>  <Ligand>  (1) 
Celestolide

>  <SMILES>  (1) 
CC(=O)c1cc(cc2c1CCC2(C)C)C(C)(C)C

>  <CID>  (1) 
61585.0

>  <ChEMBL ID>  (1) 
nan

>  <InChiKey>  (1) 
IKTHMQYJOWTSJO-UHFFFAOYSA-N

>  <InChi>  (1) 
InChI=1S/C17H24O/c1-11(18)14-9-12(16(2,3)4)10-15-13(14)7-8-17(15,5)6/h9-10H,7-8H2,1-6H3

>  <IUPAC Name>  (1) 
1-(6-tert-butyl-1,1-dimethyl-2,3-dihydroinden-4-yl)ethanone

$$$$
