
     RDKit          3D

 30 31  0  0  0  0  0  0  0  0999 V2000
    3.6834   -2.8572    0.4028 Cl  0  0  0  0  0  0  0  0  0  0  0  0
    2.6749   -1.4343    0.3278 C   0  0  0  0  0  0  0  0  0  0  0  0
    3.2228   -0.1905    0.5263 C   0  0  0  0  0  0  0  0  0  0  0  0
    2.4273    0.9453    0.4682 C   0  0  0  0  0  0  0  0  0  0  0  0
    1.0719    0.8037    0.2067 C   0  0  0  0  0  0  0  0  0  0  0  0
    0.5429   -0.4582    0.0102 C   0  0  0  0  0  0  0  0  0  0  0  0
    1.3306   -1.5722    0.0686 C   0  0  0  0  0  0  0  0  0  0  0  0
   -0.9013   -0.7379   -0.2785 C   0  0  0  0  0  0  0  0  0  0  0  0
   -1.7188   -0.8841    0.9791 C   0  0  0  0  0  0  0  0  0  0  0  0
   -1.0506   -2.0523   -1.0453 C   0  0  0  0  0  0  0  0  0  0  0  0
   -1.3980    0.3532   -1.1893 C   0  0  0  0  0  0  0  0  0  0  0  0
   -1.8404    1.5148   -0.5175 N   0  0  0  0  0  0  0  0  0  0  0  0
   -1.0175    2.1186    0.4428 C   0  0  0  0  0  0  0  0  0  0  0  0
    0.4506    2.1538    0.1975 C   0  0  0  0  0  0  0  0  0  0  0  0
    4.2795   -0.0854    0.7298 H   0  0  0  0  0  0  0  0  0  0  0  0
    2.8582    1.9266    0.6245 H   0  0  0  0  0  0  0  0  0  0  0  0
    0.9041   -2.5386   -0.0858 H   0  0  0  0  0  0  0  0  0  0  0  0
   -2.1678   -1.8897    1.0967 H   0  0  0  0  0  0  0  0  0  0  0  0
   -1.0265   -0.7642    1.8365 H   0  0  0  0  0  0  0  0  0  0  0  0
   -2.5602   -0.1618    1.0229 H   0  0  0  0  0  0  0  0  0  0  0  0
   -1.0793   -2.9265   -0.3641 H   0  0  0  0  0  0  0  0  0  0  0  0
   -0.3222   -2.1232   -1.8552 H   0  0  0  0  0  0  0  0  0  0  0  0
   -2.0755   -2.0124   -1.4944 H   0  0  0  0  0  0  0  0  0  0  0  0
   -0.5966    0.5326   -1.9410 H   0  0  0  0  0  0  0  0  0  0  0  0
   -2.2642   -0.0661   -1.7501 H   0  0  0  0  0  0  0  0  0  0  0  0
   -2.6006    2.0429   -0.9366 H   0  0  0  0  0  0  0  0  0  0  0  0
   -1.1466    1.7218    1.4924 H   0  0  0  0  0  0  0  0  0  0  0  0
   -1.3407    3.1936    0.5524 H   0  0  0  0  0  0  0  0  0  0  0  0
    0.8856    2.6586    1.1106 H   0  0  0  0  0  0  0  0  0  0  0  0
    0.7751    2.7892   -0.6380 H   0  0  0  0  0  0  0  0  0  0  0  0
  1  2  1  0
  2  3  2  0
  3  4  1  0
  4  5  2  0
  5  6  1  0
  6  7  2  0
  6  8  1  0
  8  9  1  0
  8 10  1  0
  8 11  1  0
 11 12  1  0
 12 13  1  0
 13 14  1  0
  7  2  1  0
 14  5  1  0
  3 15  1  0
  4 16  1  0
  7 17  1  0
  9 18  1  0
  9 19  1  0
  9 20  1  0
 10 21  1  0
 10 22  1  0
 10 23  1  0
 11 24  1  0
 11 25  1  0
 12 26  1  0
 13 27  1  0
 13 28  1  0
 14 29  1  0
 14 30  1  0
M  END
>  <Ligand ID>  (1) 
LIG0003575

>  <Ligand>  (1) 
CHEMBL398926

>  <SMILES>  (1) 
Clc1ccc2c(c1)C(C)(C)CNCC2

>  <CID>  (1) 
24773978.0

>  <ChEMBL ID>  (1) 
nan

>  <InChiKey>  (1) 
VLULSRBHNANFHE-UHFFFAOYSA-N

>  <InChi>  (1) 
InChI=1S/C12H16ClN/c1-12(2)8-14-6-5-9-3-4-10(13)7-11(9)12/h3-4,7,14H,5-6,8H2,1-2H3

>  <IUPAC Name>  (1) 
7-chloro-5,5-dimethyl-1,2,3,4-tetrahydro-3-benzazepine

$$$$
