
     RDKit          3D

 17 17  0  0  0  0  0  0  0  0999 V2000
   -3.8703   -1.6070   -0.9483 N   0  0  0  0  0  0  0  0  0  0  0  0
   -2.8857   -1.0772   -0.7054 C   0  0  0  0  0  0  0  0  0  0  0  0
   -1.6540   -0.4063   -0.3773 C   0  0  0  0  0  0  0  0  0  0  0  0
   -1.6436    0.9481   -0.0329 C   0  0  0  0  0  0  0  0  0  0  0  0
   -0.4455    1.5778    0.2805 C   0  0  0  0  0  0  0  0  0  0  0  0
   -0.4532    2.9319    0.6225 O   0  0  0  0  0  0  0  0  0  0  0  0
    0.7206    0.8687    0.2507 C   0  0  0  0  0  0  0  0  0  0  0  0
    0.7326   -0.4665   -0.0860 C   0  0  0  0  0  0  0  0  0  0  0  0
   -0.4470   -1.1107   -0.4007 C   0  0  0  0  0  0  0  0  0  0  0  0
    1.9637   -1.2611   -0.1291 C   0  0  0  0  0  0  0  0  0  0  0  0
    1.9901   -2.4638   -0.4304 O   0  0  0  0  0  0  0  0  0  0  0  0
    3.1953   -0.6613    0.1810 O   0  0  0  0  0  0  0  0  0  0  0  0
   -2.5888    1.4609   -0.0244 H   0  0  0  0  0  0  0  0  0  0  0  0
    0.3137    3.2587    1.2094 H   0  0  0  0  0  0  0  0  0  0  0  0
    1.6480    1.3547    0.4929 H   0  0  0  0  0  0  0  0  0  0  0  0
   -0.4415   -2.1621   -0.6663 H   0  0  0  0  0  0  0  0  0  0  0  0
    3.8657   -1.1847    0.7639 H   0  0  0  0  0  0  0  0  0  0  0  0
  1  2  3  0
  2  3  1  0
  3  4  2  0
  4  5  1  0
  5  6  1  0
  5  7  2  0
  7  8  1  0
  8  9  2  0
  8 10  1  0
 10 11  2  0
 10 12  1  0
  9  3  1  0
  4 13  1  0
  6 14  1  0
  7 15  1  0
  9 16  1  0
 12 17  1  0
M  END
>  <Ligand ID>  (1) 
LIG0005746

>  <Ligand>  (1) 
3-CYANO-5-HYDROXYBENZOIC ACID

>  <SMILES>  (1) 
N#Cc1cc(O)cc(c1)C(=O)O

>  <CID>  (1) 
19359201.0

>  <ChEMBL ID>  (1) 
nan

>  <InChiKey>  (1) 
AIJZBNIPPCUFCO-UHFFFAOYSA-N

>  <InChi>  (1) 
InChI=1S/C8H5NO3/c9-4-5-1-6(8(11)12)3-7(10)2-5/h1-3,10H,(H,11,12)

>  <IUPAC Name>  (1) 
3-cyano-5-hydroxybenzoic acid

$$$$
