
     RDKit          3D

 41 42  0  0  0  0  0  0  0  0999 V2000
   -5.5636   -1.0174   -0.1065 C   0  0  0  0  0  0  0  0  0  0  0  0
   -4.1957   -0.5741    0.3884 C   0  0  0  0  0  0  0  0  0  0  0  0
   -3.2608   -0.3844   -0.8068 C   0  0  0  0  0  0  0  0  0  0  0  0
   -1.9826    0.0288   -0.3597 O   0  0  0  0  0  0  0  0  0  0  0  0
   -1.4428    1.1802   -0.8366 C   0  0  0  0  0  0  0  0  0  0  0  0
   -2.1649    1.8199   -1.6842 O   0  0  0  0  0  0  0  0  0  0  0  0
   -0.1621    1.7685   -0.5075 C   0  0  0  0  0  0  0  0  0  0  0  0
    0.2036    2.9619   -1.1173 C   0  0  0  0  0  0  0  0  0  0  0  0
    1.3935    3.6066   -0.8814 C   0  0  0  0  0  0  0  0  0  0  0  0
    2.2962    3.0660    0.0038 C   0  0  0  0  0  0  0  0  0  0  0  0
    1.9411    1.8818    0.6136 C   0  0  0  0  0  0  0  0  0  0  0  0
    0.7441    1.2306    0.3777 C   0  0  0  0  0  0  0  0  0  0  0  0
    0.4714    0.0271    1.0668 N   0  0  0  0  0  0  0  0  0  0  0  0
    1.4729   -0.5084    1.9828 C   0  0  0  0  0  0  0  0  0  0  0  0
    2.7124   -0.9419    1.2864 C   0  0  0  0  0  0  0  0  0  0  0  0
    2.9876   -0.9451    0.0210 N   0  0  0  0  0  0  0  0  0  0  0  0
    4.3116   -1.4497   -0.2275 C   0  0  0  0  0  0  0  0  0  0  0  0
    4.9849   -1.4620    1.1333 C   0  0  0  0  0  0  0  0  0  0  0  0
    3.8402   -1.4586    2.0233 N   0  0  0  0  0  0  0  0  0  0  0  0
   -3.1754   -1.7703   -1.4598 C   0  0  0  0  0  0  0  0  0  0  0  0
   -6.1465   -1.4996    0.6981 H   0  0  0  0  0  0  0  0  0  0  0  0
   -5.4690   -1.8004   -0.9114 H   0  0  0  0  0  0  0  0  0  0  0  0
   -6.1695   -0.1539   -0.4639 H   0  0  0  0  0  0  0  0  0  0  0  0
   -3.8026   -1.4018    1.0102 H   0  0  0  0  0  0  0  0  0  0  0  0
   -4.2849    0.3775    0.9102 H   0  0  0  0  0  0  0  0  0  0  0  0
   -3.6887    0.3124   -1.5257 H   0  0  0  0  0  0  0  0  0  0  0  0
   -0.4623    3.4628   -1.8401 H   0  0  0  0  0  0  0  0  0  0  0  0
    1.6661    4.5337   -1.3619 H   0  0  0  0  0  0  0  0  0  0  0  0
    3.2408    3.5512    0.2094 H   0  0  0  0  0  0  0  0  0  0  0  0
    2.6904    1.4897    1.3208 H   0  0  0  0  0  0  0  0  0  0  0  0
   -0.3966   -0.5360    0.9880 H   0  0  0  0  0  0  0  0  0  0  0  0
    1.0611   -1.3593    2.5542 H   0  0  0  0  0  0  0  0  0  0  0  0
    1.7366    0.2719    2.7342 H   0  0  0  0  0  0  0  0  0  0  0  0
    4.2191   -2.4650   -0.6617 H   0  0  0  0  0  0  0  0  0  0  0  0
    4.8706   -0.8083   -0.9560 H   0  0  0  0  0  0  0  0  0  0  0  0
    5.5645   -2.4052    1.2104 H   0  0  0  0  0  0  0  0  0  0  0  0
    5.5895   -0.5494    1.2353 H   0  0  0  0  0  0  0  0  0  0  0  0
    3.8754   -1.7816    3.0109 H   0  0  0  0  0  0  0  0  0  0  0  0
   -3.9393   -1.8032   -2.2606 H   0  0  0  0  0  0  0  0  0  0  0  0
   -3.4272   -2.5761   -0.7399 H   0  0  0  0  0  0  0  0  0  0  0  0
   -2.1392   -1.9191   -1.8605 H   0  0  0  0  0  0  0  0  0  0  0  0
  1  2  1  0
  2  3  1  0
  3  4  1  0
  4  5  1  0
  5  6  2  0
  5  7  1  0
  7  8  2  0
  8  9  1  0
  9 10  2  0
 10 11  1  0
 11 12  2  0
 12 13  1  0
 13 14  1  0
 14 15  1  0
 15 16  2  0
 16 17  1  0
 17 18  1  0
 18 19  1  0
  3 20  1  0
 12  7  1  0
 19 15  1  0
  1 21  1  0
  1 22  1  0
  1 23  1  0
  2 24  1  0
  2 25  1  0
  3 26  1  0
  8 27  1  0
  9 28  1  0
 10 29  1  0
 11 30  1  0
 13 31  1  0
 14 32  1  0
 14 33  1  0
 17 34  1  0
 17 35  1  0
 18 36  1  0
 18 37  1  0
 19 38  1  0
 20 39  1  0
 20 40  1  0
 20 41  1  0
M  END
>  <Ligand ID>  (1) 
LIG0004057

>  <Ligand>  (1) 
CHEMBL97859

>  <SMILES>  (1) 
CCC(OC(=O)c1ccccc1NCC1=NCCN1)C

>  <CID>  (1) 
44329788.0

>  <ChEMBL ID>  (1) 
nan

>  <InChiKey>  (1) 
ASOZEEQINAQAHV-UHFFFAOYSA-N

>  <InChi>  (1) 
InChI=1S/C15H21N3O2/c1-3-11(2)20-15(19)12-6-4-5-7-13(12)18-10-14-16-8-9-17-14/h4-7,11,18H,3,8-10H2,1-2H3,(H,16,17)

>  <IUPAC Name>  (1) 
butan-2-yl 2-(4,5-dihydro-1H-imidazol-2-ylmethylamino)benzoate

$$$$
