
     RDKit          3D

 27 27  0  0  0  0  0  0  0  0999 V2000
    4.6219    0.1690   -0.6090 C   0  0  0  0  0  0  0  0  0  0  0  0
    3.6741   -0.8650   -0.7627 O   0  0  0  0  0  0  0  0  0  0  0  0
    2.3737   -0.6082   -0.3341 C   0  0  0  0  0  0  0  0  0  0  0  0
    1.9955    0.6002    0.2231 C   0  0  0  0  0  0  0  0  0  0  0  0
    0.6870    0.8224    0.6405 C   0  0  0  0  0  0  0  0  0  0  0  0
   -0.2634   -0.1644    0.5056 C   0  0  0  0  0  0  0  0  0  0  0  0
    0.1299   -1.3641   -0.0521 C   0  0  0  0  0  0  0  0  0  0  0  0
    1.4217   -1.6119   -0.4750 C   0  0  0  0  0  0  0  0  0  0  0  0
   -1.6551    0.1005    0.9604 C   0  0  0  0  0  0  0  0  0  0  0  0
   -2.5286    0.6892   -0.1267 C   0  0  0  0  0  0  0  0  0  0  0  0
   -3.8808    0.8862    0.5116 C   0  0  0  0  0  0  0  0  0  0  0  0
   -4.3968    1.9906    0.5902 O   0  0  0  0  0  0  0  0  0  0  0  0
   -2.6830   -0.2673   -1.2618 C   0  0  0  0  0  0  0  0  0  0  0  0
    4.4267    0.9964   -1.3260 H   0  0  0  0  0  0  0  0  0  0  0  0
    5.6363   -0.2217   -0.8478 H   0  0  0  0  0  0  0  0  0  0  0  0
    4.6119    0.5447    0.4309 H   0  0  0  0  0  0  0  0  0  0  0  0
    2.7530    1.3891    0.3315 H   0  0  0  0  0  0  0  0  0  0  0  0
    0.4685    1.7950    1.0671 H   0  0  0  0  0  0  0  0  0  0  0  0
   -0.5886   -2.1590   -0.1728 H   0  0  0  0  0  0  0  0  0  0  0  0
    1.6618   -2.5797   -0.9053 H   0  0  0  0  0  0  0  0  0  0  0  0
   -2.1347   -0.8607    1.2680 H   0  0  0  0  0  0  0  0  0  0  0  0
   -1.6734    0.7284    1.8723 H   0  0  0  0  0  0  0  0  0  0  0  0
   -2.0790    1.6273   -0.4602 H   0  0  0  0  0  0  0  0  0  0  0  0
   -4.3499   -0.0157    0.8886 H   0  0  0  0  0  0  0  0  0  0  0  0
   -3.6481   -0.0740   -1.7899 H   0  0  0  0  0  0  0  0  0  0  0  0
   -1.8573   -0.2352   -2.0021 H   0  0  0  0  0  0  0  0  0  0  0  0
   -2.7230   -1.3122   -0.8756 H   0  0  0  0  0  0  0  0  0  0  0  0
  1  2  1  0
  2  3  1  0
  3  4  2  0
  4  5  1  0
  5  6  2  0
  6  7  1  0
  7  8  2  0
  6  9  1  0
  9 10  1  0
 10 11  1  0
 11 12  2  0
 10 13  1  0
  8  3  1  0
  1 14  1  0
  1 15  1  0
  1 16  1  0
  4 17  1  0
  5 18  1  0
  7 19  1  0
  8 20  1  0
  9 21  1  0
  9 22  1  0
 10 23  1  0
 11 24  1  0
 13 25  1  0
 13 26  1  0
 13 27  1  0
M  END
>  <Ligand ID>  (1) 
LIG0005041

>  <Ligand>  (1) 
2-Methyl-3-(p-methoxyphenyl)propanal

>  <SMILES>  (1) 
COc1ccc(cc1)CC(C=O)C

>  <CID>  (1) 
64813.0

>  <ChEMBL ID>  (1) 
nan

>  <InChiKey>  (1) 
VLFBSPUPYFTTNF-UHFFFAOYSA-N

>  <InChi>  (1) 
InChI=1S/C11H14O2/c1-9(8-12)7-10-3-5-11(13-2)6-4-10/h3-6,8-9H,7H2,1-2H3

>  <IUPAC Name>  (1) 
3-(4-methoxyphenyl)-2-methylpropanal

$$$$
