
     RDKit          3D

 52 55  0  0  0  0  0  0  0  0999 V2000
   -7.1360   -2.7732    0.1637 C   0  0  0  0  0  0  0  0  0  0  0  0
   -6.7438   -1.4392    0.2428 O   0  0  0  0  0  0  0  0  0  0  0  0
   -5.5007   -1.0285    0.6451 C   0  0  0  0  0  0  0  0  0  0  0  0
   -4.4622   -1.8320    1.0265 C   0  0  0  0  0  0  0  0  0  0  0  0
   -3.2319   -1.3281    1.4216 C   0  0  0  0  0  0  0  0  0  0  0  0
   -2.9954    0.0468    1.4474 C   0  0  0  0  0  0  0  0  0  0  0  0
   -4.0518    0.8692    1.0593 C   0  0  0  0  0  0  0  0  0  0  0  0
   -5.2670    0.3454    0.6703 C   0  0  0  0  0  0  0  0  0  0  0  0
   -1.6906    0.6191    1.8576 C   0  0  0  0  0  0  0  0  0  0  0  0
   -0.8462    0.8905    0.6915 C   0  0  0  0  0  0  0  0  0  0  0  0
   -0.6972    2.2164    0.2622 C   0  0  0  0  0  0  0  0  0  0  0  0
    0.0920    2.4979   -0.8290 C   0  0  0  0  0  0  0  0  0  0  0  0
    0.7118    1.4977   -1.4719 N   0  0  0  0  0  0  0  0  0  0  0  0
    0.6028    0.2305   -1.1058 N   0  0  0  0  0  0  0  0  0  0  0  0
   -0.1670   -0.0514   -0.0399 C   0  0  0  0  0  0  0  0  0  0  0  0
   -0.2574   -1.2558    0.2918 O   0  0  0  0  0  0  0  0  0  0  0  0
    1.3124   -0.7551   -1.8744 C   0  0  0  0  0  0  0  0  0  0  0  0
    2.6876   -1.0276   -1.3697 C   0  0  0  0  0  0  0  0  0  0  0  0
    3.6832   -0.3540   -1.7322 O   0  0  0  0  0  0  0  0  0  0  0  0
    2.9462   -2.0846   -0.4352 N   0  0  0  0  0  0  0  0  0  0  0  0
    4.3006   -2.2496   -0.0236 C   0  0  0  0  0  0  0  0  0  0  0  0
    5.1786   -3.0794   -0.7313 C   0  0  0  0  0  0  0  0  0  0  0  0
    6.4822   -3.2158   -0.3015 C   0  0  0  0  0  0  0  0  0  0  0  0
    6.9381   -2.5479    0.8161 C   0  0  0  0  0  0  0  0  0  0  0  0
    6.0541   -1.7198    1.5185 C   0  0  0  0  0  0  0  0  0  0  0  0
    4.7432   -1.5645    1.1107 C   0  0  0  0  0  0  0  0  0  0  0  0
    8.7483   -2.7434    1.4057 Br  0  0  0  0  0  0  0  0  0  0  0  0
    0.2748    3.8398   -1.3026 C   0  0  0  0  0  0  0  0  0  0  0  0
    0.9710    4.3963   -2.3201 C   0  0  0  0  0  0  0  0  0  0  0  0
    0.9420    5.7128   -2.5076 C   0  0  0  0  0  0  0  0  0  0  0  0
    0.1697    6.4572   -1.6120 C   0  0  0  0  0  0  0  0  0  0  0  0
   -0.5357    5.2466   -0.4703 S   0  0  0  0  0  0  0  0  0  0  0  0
   -7.4756   -3.0031   -0.8827 H   0  0  0  0  0  0  0  0  0  0  0  0
   -6.3751   -3.5149    0.4428 H   0  0  0  0  0  0  0  0  0  0  0  0
   -8.0235   -2.9860    0.8041 H   0  0  0  0  0  0  0  0  0  0  0  0
   -4.5727   -2.8932    1.0294 H   0  0  0  0  0  0  0  0  0  0  0  0
   -2.4549   -2.0189    1.7150 H   0  0  0  0  0  0  0  0  0  0  0  0
   -3.9350    1.9399    1.0566 H   0  0  0  0  0  0  0  0  0  0  0  0
   -6.0573    1.0311    0.3768 H   0  0  0  0  0  0  0  0  0  0  0  0
   -1.8498    1.5535    2.4219 H   0  0  0  0  0  0  0  0  0  0  0  0
   -1.1616   -0.1079    2.5103 H   0  0  0  0  0  0  0  0  0  0  0  0
   -1.1911    3.0101    0.7750 H   0  0  0  0  0  0  0  0  0  0  0  0
    1.4232   -0.3831   -2.9129 H   0  0  0  0  0  0  0  0  0  0  0  0
    0.7289   -1.7056   -1.9826 H   0  0  0  0  0  0  0  0  0  0  0  0
    2.1666   -2.6900   -0.0886 H   0  0  0  0  0  0  0  0  0  0  0  0
    4.8503   -3.6151   -1.6101 H   0  0  0  0  0  0  0  0  0  0  0  0
    7.1898   -3.8503   -0.8251 H   0  0  0  0  0  0  0  0  0  0  0  0
    6.3845   -1.1864    2.3945 H   0  0  0  0  0  0  0  0  0  0  0  0
    4.0546   -0.9263    1.6486 H   0  0  0  0  0  0  0  0  0  0  0  0
    1.5708    3.7257   -2.9998 H   0  0  0  0  0  0  0  0  0  0  0  0
    1.4772    6.2532   -3.3093 H   0  0  0  0  0  0  0  0  0  0  0  0
   -0.0053    7.5513   -1.5677 H   0  0  0  0  0  0  0  0  0  0  0  0
  1  2  1  0
  2  3  1  0
  3  4  2  0
  4  5  1  0
  5  6  2  0
  6  7  1  0
  7  8  2  0
  6  9  1  0
  9 10  1  0
 10 11  2  0
 11 12  1  0
 12 13  2  0
 13 14  1  0
 14 15  1  0
 15 16  2  0
 14 17  1  0
 17 18  1  0
 18 19  2  0
 18 20  1  0
 20 21  1  0
 21 22  2  0
 22 23  1  0
 23 24  2  0
 24 25  1  0
 25 26  2  0
 24 27  1  0
 12 28  1  0
 28 29  2  0
 29 30  1  0
 30 31  2  0
 31 32  1  0
  8  3  1  0
 15 10  1  0
 26 21  1  0
 32 28  1  0
  1 33  1  0
  1 34  1  0
  1 35  1  0
  4 36  1  0
  5 37  1  0
  7 38  1  0
  8 39  1  0
  9 40  1  0
  9 41  1  0
 11 42  1  0
 17 43  1  0
 17 44  1  0
 20 45  1  0
 22 46  1  0
 23 47  1  0
 25 48  1  0
 26 49  1  0
 29 50  1  0
 30 51  1  0
 31 52  1  0
M  END
>  <Ligand ID>  (1) 
LIG0004811

>  <Ligand>  (1) 
CHEMBL2391261

>  <SMILES>  (1) 
COc1ccc(cc1)Cc1cc(nn(c1=O)CC(=O)Nc1ccc(cc1)Br)c1cccs1

>  <CID>  (1) 
71698621.0

>  <ChEMBL ID>  (1) 
nan

>  <InChiKey>  (1) 
VROSUPCUGJFTRW-UHFFFAOYSA-N

>  <InChi>  (1) 
InChI=1S/C24H20BrN3O3S/c1-31-20-10-4-16(5-11-20)13-17-14-21(22-3-2-12-32-22)27-28(24(17)30)15-23(29)26-19-8-6-18(25)7-9-19/h2-12,14H,13,15H2,1H3,(H,26,29)

>  <IUPAC Name>  (1) 
N-(4-bromophenyl)-2-[5-[(4-methoxyphenyl)methyl]-6-oxo-3-thiophen-2-ylpyridazin-1-yl]acetamide

$$$$
