
     RDKit          3D

 43 46  0  0  0  0  0  0  0  0999 V2000
    2.5920    1.3287   -2.9435 Cl  0  0  0  0  0  0  0  0  0  0  0  0
    3.6758    0.3793   -1.9529 C   0  0  0  0  0  0  0  0  0  0  0  0
    4.7004   -0.2787   -2.6523 C   0  0  0  0  0  0  0  0  0  0  0  0
    5.6271   -1.0608   -2.0081 C   0  0  0  0  0  0  0  0  0  0  0  0
    5.5050   -1.1705   -0.6398 C   0  0  0  0  0  0  0  0  0  0  0  0
    4.5135   -0.5339    0.0385 C   0  0  0  0  0  0  0  0  0  0  0  0
    3.5413    0.2798   -0.5911 C   0  0  0  0  0  0  0  0  0  0  0  0
    2.6319    0.8366    0.2164 O   0  0  0  0  0  0  0  0  0  0  0  0
    1.5794    1.6483    0.0072 C   0  0  0  0  0  0  0  0  0  0  0  0
    1.7015    2.9112    0.9078 C   0  0  0  0  0  0  0  0  0  0  0  0
    1.5704    2.1976    2.2626 C   0  0  0  0  0  0  0  0  0  0  0  0
    0.3098    1.4219    1.9898 C   0  0  0  0  0  0  0  0  0  0  0  0
    0.3096    1.0985    0.6509 C   0  0  0  0  0  0  0  0  0  0  0  0
   -0.7037    0.4002    0.1056 N   0  0  0  0  0  0  0  0  0  0  0  0
   -1.7606   -0.0174    0.8253 C   0  0  0  0  0  0  0  0  0  0  0  0
   -1.7838    0.2939    2.1692 C   0  0  0  0  0  0  0  0  0  0  0  0
   -0.7529    1.0166    2.7743 C   0  0  0  0  0  0  0  0  0  0  0  0
   -2.8215   -0.7549    0.2282 N   0  0  0  0  0  0  0  0  0  0  0  0
   -3.9758   -1.2290    0.9393 C   0  0  0  0  0  0  0  0  0  0  0  0
   -5.0677   -1.5023   -0.0717 C   0  0  0  0  0  0  0  0  0  0  0  0
   -5.1432   -0.4852   -1.1017 N   0  0  0  0  0  0  0  0  0  0  0  0
   -3.9289   -0.3723   -1.8561 C   0  0  0  0  0  0  0  0  0  0  0  0
   -2.7418   -1.0537   -1.1950 C   0  0  0  0  0  0  0  0  0  0  0  0
    4.7969   -0.1932   -3.7259 H   0  0  0  0  0  0  0  0  0  0  0  0
    6.4297   -1.5881   -2.4751 H   0  0  0  0  0  0  0  0  0  0  0  0
    6.2304   -1.7891   -0.0915 H   0  0  0  0  0  0  0  0  0  0  0  0
    4.4869   -0.6729    1.1231 H   0  0  0  0  0  0  0  0  0  0  0  0
    1.3678    1.9548   -1.0138 H   0  0  0  0  0  0  0  0  0  0  0  0
    0.8058    3.5084    0.7229 H   0  0  0  0  0  0  0  0  0  0  0  0
    2.6637    3.4017    0.7766 H   0  0  0  0  0  0  0  0  0  0  0  0
    1.4568    2.8988    3.0932 H   0  0  0  0  0  0  0  0  0  0  0  0
    2.3802    1.4794    2.4014 H   0  0  0  0  0  0  0  0  0  0  0  0
   -2.6027   -0.0091    2.8123 H   0  0  0  0  0  0  0  0  0  0  0  0
   -0.7732    1.2611    3.8345 H   0  0  0  0  0  0  0  0  0  0  0  0
   -4.2748   -0.5223    1.7151 H   0  0  0  0  0  0  0  0  0  0  0  0
   -3.7058   -2.2008    1.4076 H   0  0  0  0  0  0  0  0  0  0  0  0
   -4.9343   -2.5001   -0.4942 H   0  0  0  0  0  0  0  0  0  0  0  0
   -6.0217   -1.4843    0.4897 H   0  0  0  0  0  0  0  0  0  0  0  0
   -5.5033    0.4076   -0.7207 H   0  0  0  0  0  0  0  0  0  0  0  0
   -3.7001    0.7018   -2.0105 H   0  0  0  0  0  0  0  0  0  0  0  0
   -4.1079   -0.8133   -2.8621 H   0  0  0  0  0  0  0  0  0  0  0  0
   -2.7330   -2.1210   -1.4240 H   0  0  0  0  0  0  0  0  0  0  0  0
   -1.8393   -0.5956   -1.6615 H   0  0  0  0  0  0  0  0  0  0  0  0
  1  2  1  0
  2  3  2  0
  3  4  1  0
  4  5  2  0
  5  6  1  0
  6  7  2  0
  7  8  1  0
  8  9  1  0
  9 10  1  0
 10 11  1  0
 11 12  1  0
 12 13  2  0
 13 14  1  0
 14 15  2  0
 15 16  1  0
 16 17  2  0
 15 18  1  0
 18 19  1  0
 19 20  1  0
 20 21  1  0
 21 22  1  0
 22 23  1  0
  7  2  1  0
 13  9  1  0
 23 18  1  0
 17 12  1  0
  3 24  1  0
  4 25  1  0
  5 26  1  0
  6 27  1  0
  9 28  1  0
 10 29  1  0
 10 30  1  0
 11 31  1  0
 11 32  1  0
 16 33  1  0
 17 34  1  0
 19 35  1  0
 19 36  1  0
 20 37  1  0
 20 38  1  0
 21 39  1  0
 22 40  1  0
 22 41  1  0
 23 42  1  0
 23 43  1  0
M  END
>  <Ligand ID>  (1) 
LIG0003006

>  <Ligand>  (1) 
CHEMBL595195

>  <SMILES>  (1) 
Clc1ccccc1OC1CCc2c1nc(cc2)N1CCNCC1

>  <CID>  (1) 
46228438.0

>  <ChEMBL ID>  (1) 
nan

>  <InChiKey>  (1) 
HUUPVTVQRVHGPI-UHFFFAOYSA-N

>  <InChi>  (1) 
InChI=1S/C18H20ClN3O/c19-14-3-1-2-4-15(14)23-16-7-5-13-6-8-17(21-18(13)16)22-11-9-20-10-12-22/h1-4,6,8,16,20H,5,7,9-12H2

>  <IUPAC Name>  (1) 
7-(2-chlorophenoxy)-2-piperazin-1-yl-6,7-dihydro-5H-cyclopenta[b]pyridine

$$$$
