
     RDKit          3D

 43 44  0  0  0  0  0  0  0  0999 V2000
   -1.3084    2.7148    0.9816 C   0  0  0  0  0  0  0  0  0  0  0  0
   -2.5056    1.9647    0.5604 C   0  0  0  0  0  0  0  0  0  0  0  0
   -2.5523    0.4871    0.5758 C   0  0  0  0  0  0  0  0  0  0  0  0
   -1.6984   -0.2939   -0.2422 N   0  0  0  0  0  0  0  0  0  0  0  0
   -2.1017   -1.6929   -0.2116 C   0  0  0  0  0  0  0  0  0  0  0  0
   -3.2694   -2.1816   -0.9208 C   0  0  0  0  0  0  0  0  0  0  0  0
   -4.6505   -1.7239   -0.6127 C   0  0  0  0  0  0  0  0  0  0  0  0
   -0.3138   -0.2381    0.2187 C   0  0  0  0  0  0  0  0  0  0  0  0
    0.6725   -0.8028   -0.7706 C   0  0  0  0  0  0  0  0  0  0  0  0
    2.0900   -0.7566   -0.3086 C   0  0  0  0  0  0  0  0  0  0  0  0
    2.6841   -1.9600    0.1160 C   0  0  0  0  0  0  0  0  0  0  0  0
    3.9935   -1.9713    0.5390 C   0  0  0  0  0  0  0  0  0  0  0  0
    4.7558   -0.8167    0.5609 C   0  0  0  0  0  0  0  0  0  0  0  0
    4.1692    0.3657    0.1424 C   0  0  0  0  0  0  0  0  0  0  0  0
    2.8415    0.4119   -0.2927 C   0  0  0  0  0  0  0  0  0  0  0  0
    2.4839    1.8072   -0.6673 C   0  0  0  0  0  0  0  0  0  0  0  0
    3.7649    2.5590   -0.4454 C   0  0  0  0  0  0  0  0  0  0  0  0
    3.9906    3.7807   -0.6496 O   0  0  0  0  0  0  0  0  0  0  0  0
    4.7395    1.6621    0.0541 N   0  0  0  0  0  0  0  0  0  0  0  0
   -1.6706    3.7428    1.3343 H   0  0  0  0  0  0  0  0  0  0  0  0
   -0.7712    2.3326    1.8463 H   0  0  0  0  0  0  0  0  0  0  0  0
   -0.5883    2.9922    0.1862 H   0  0  0  0  0  0  0  0  0  0  0  0
   -2.8320    2.3768   -0.4579 H   0  0  0  0  0  0  0  0  0  0  0  0
   -3.3654    2.3555    1.2073 H   0  0  0  0  0  0  0  0  0  0  0  0
   -2.4400    0.1938    1.6754 H   0  0  0  0  0  0  0  0  0  0  0  0
   -3.6321    0.1939    0.3925 H   0  0  0  0  0  0  0  0  0  0  0  0
   -1.2475   -2.3597   -0.3987 H   0  0  0  0  0  0  0  0  0  0  0  0
   -2.3132   -1.9247    0.9143 H   0  0  0  0  0  0  0  0  0  0  0  0
   -3.1728   -2.1155   -2.0518 H   0  0  0  0  0  0  0  0  0  0  0  0
   -3.2383   -3.3348   -0.7977 H   0  0  0  0  0  0  0  0  0  0  0  0
   -4.8437   -1.6926    0.4591 H   0  0  0  0  0  0  0  0  0  0  0  0
   -5.3240   -2.5613   -1.0584 H   0  0  0  0  0  0  0  0  0  0  0  0
   -4.8810   -0.8248   -1.2037 H   0  0  0  0  0  0  0  0  0  0  0  0
   -0.2350   -0.7916    1.1980 H   0  0  0  0  0  0  0  0  0  0  0  0
   -0.0306    0.7903    0.3723 H   0  0  0  0  0  0  0  0  0  0  0  0
    0.5732   -0.2636   -1.7626 H   0  0  0  0  0  0  0  0  0  0  0  0
    0.4309   -1.8395   -1.0007 H   0  0  0  0  0  0  0  0  0  0  0  0
    2.0550   -2.8629    0.0902 H   0  0  0  0  0  0  0  0  0  0  0  0
    4.4159   -2.9181    0.8598 H   0  0  0  0  0  0  0  0  0  0  0  0
    5.7800   -0.8515    0.8947 H   0  0  0  0  0  0  0  0  0  0  0  0
    1.7528    2.2790    0.0307 H   0  0  0  0  0  0  0  0  0  0  0  0
    2.0928    1.8700   -1.6736 H   0  0  0  0  0  0  0  0  0  0  0  0
    5.6996    1.8983    0.3168 H   0  0  0  0  0  0  0  0  0  0  0  0
  1  2  1  0
  2  3  1  0
  3  4  1  0
  4  5  1  0
  5  6  1  0
  6  7  1  0
  4  8  1  0
  8  9  1  0
  9 10  1  0
 10 11  2  0
 11 12  1  0
 12 13  2  0
 13 14  1  0
 14 15  2  0
 15 16  1  0
 16 17  1  0
 17 18  2  0
 17 19  1  0
 15 10  1  0
 19 14  1  0
  1 20  1  0
  1 21  1  0
  1 22  1  0
  2 23  1  0
  2 24  1  0
  3 25  1  0
  3 26  1  0
  5 27  1  0
  5 28  1  0
  6 29  1  0
  6 30  1  0
  7 31  1  0
  7 32  1  0
  7 33  1  0
  8 34  1  0
  8 35  1  0
  9 36  1  0
  9 37  1  0
 11 38  1  0
 12 39  1  0
 13 40  1  0
 16 41  1  0
 16 42  1  0
 19 43  1  0
M  END
>  <Ligand ID>  (1) 
LIG0001905

>  <Ligand>  (1) 
ropinirole

>  <SMILES>  (1) 
CCCN(CCC)CCc1cccc2c1CC(=O)N2

>  <CID>  (1) 
5095.0

>  <ChEMBL ID>  (1) 
nan

>  <InChiKey>  (1) 
UHSKFQJFRQCDBE-UHFFFAOYSA-N

>  <InChi>  (1) 
InChI=1S/C16H24N2O/c1-3-9-18(10-4-2)11-8-13-6-5-7-15-14(13)12-16(19)17-15/h5-7H,3-4,8-12H2,1-2H3,(H,17,19)

>  <IUPAC Name>  (1) 
4-[2-(dipropylamino)ethyl]-1,3-dihydroindol-2-one

$$$$
