
     RDKit          3D

126129  0  0  0  0  0  0  0  0999 V2000
    5.6116   -5.5709    1.5617 C   0  0  0  0  0  0  0  0  0  0  0  0
    5.9887   -4.2347    0.9413 C   0  0  0  0  0  0  0  0  0  0  0  0
    4.7918   -3.6314    0.1969 C   0  0  0  0  0  0  0  0  0  0  0  0
    3.6540   -3.4105    1.1352 C   0  0  0  0  0  0  0  0  0  0  0  0
    2.4638   -2.8149    0.4355 C   0  0  2  0  0  0  0  0  0  0  0  0
    2.0279   -3.7219   -0.6113 N   0  0  0  0  0  0  0  0  0  0  0  0
    0.6205   -4.0812   -0.7448 C   0  0  0  0  0  0  0  0  0  0  0  0
   -0.0998   -3.5967    0.1216 O   0  0  0  0  0  0  0  0  0  0  0  0
    0.2796   -4.9457   -1.8654 C   0  0  0  0  0  0  0  0  0  0  0  0
   -1.1097   -5.2964   -2.1498 C   0  0  0  0  0  0  0  0  0  0  0  0
   -2.1037   -4.2173   -2.4574 C   0  0  2  0  0  0  0  0  0  0  0  0
   -2.5924   -3.4324   -1.3674 N   0  0  0  0  0  0  0  0  0  0  0  0
   -2.5087   -2.0141   -1.2458 C   0  0  0  0  0  0  0  0  0  0  0  0
   -1.8967   -1.4631   -2.1858 O   0  0  0  0  0  0  0  0  0  0  0  0
   -3.0456   -1.2014   -0.1692 C   0  0  1  0  0  0  0  0  0  0  0  0
   -2.6291    0.2191   -0.2564 N   0  0  0  0  0  0  0  0  0  0  0  0
   -2.6705    1.0421    0.9245 C   0  0  0  0  0  0  0  0  0  0  0  0
   -3.1208    0.4753    1.9285 O   0  0  0  0  0  0  0  0  0  0  0  0
   -2.2060    2.4739    0.9128 C   0  0  1  0  0  0  0  0  0  0  0  0
   -1.5317    2.7231   -0.3562 N   0  0  0  0  0  0  0  0  0  0  0  0
   -0.1204    2.7816   -0.3183 C   0  0  0  0  0  0  0  0  0  0  0  0
    0.4321    2.6888    0.7754 O   0  0  0  0  0  0  0  0  0  0  0  0
    0.7513    2.9470   -1.5491 C   0  0  2  0  0  0  0  0  0  0  0  0
    2.1450    2.7411   -1.0941 N   0  0  0  0  0  0  0  0  0  0  0  0
    2.4004    1.4421   -0.6120 C   0  0  0  0  0  0  0  0  0  0  0  0
    1.4178    0.6685   -0.5733 O   0  0  0  0  0  0  0  0  0  0  0  0
    3.6917    0.8733   -0.1328 C   0  0  2  0  0  0  0  0  0  0  0  0
    3.2808   -0.3853    0.5440 N   0  0  0  0  0  0  0  0  0  0  0  0
    2.9458   -1.5361   -0.2194 C   0  0  0  0  0  0  0  0  0  0  0  0
    3.0714   -1.4156   -1.4455 O   0  0  0  0  0  0  0  0  0  0  0  0
    4.5405    1.7424    0.6786 C   0  0  0  0  0  0  0  0  0  0  0  0
    5.7995    0.9598    1.0541 C   0  0  0  0  0  0  0  0  0  0  0  0
    6.7287    1.7942    1.8942 C   0  0  0  0  0  0  0  0  0  0  0  0
    7.8947    0.9937    2.2123 N   0  0  0  0  0  0  0  0  0  0  0  0
    9.0945    1.2769    1.9003 C   0  0  0  0  0  0  0  0  0  0  0  0
    9.4974    2.4362    1.1809 N   0  0  0  0  0  0  0  0  0  0  0  0
   10.1162    0.3674    2.2989 N   0  0  0  0  0  0  0  0  0  0  0  0
    0.5990    4.2512   -2.2013 C   0  0  0  0  0  0  0  0  0  0  0  0
    0.9356    5.4131   -1.3483 C   0  0  0  0  0  0  0  0  0  0  0  0
   -0.0477    5.9659   -0.5403 C   0  0  0  0  0  0  0  0  0  0  0  0
    0.1898    7.0576    0.2757 C   0  0  0  0  0  0  0  0  0  0  0  0
    1.4618    7.6347    0.2970 C   0  0  0  0  0  0  0  0  0  0  0  0
    2.4541    7.1014   -0.4982 C   0  0  0  0  0  0  0  0  0  0  0  0
    2.1769    6.0056   -1.3036 C   0  0  0  0  0  0  0  0  0  0  0  0
   -3.3147    3.4292    1.1900 C   0  0  0  0  0  0  0  0  0  0  0  0
   -4.4366    3.3448    0.1830 C   0  0  0  0  0  0  0  0  0  0  0  0
   -5.5298    4.3592    0.5484 C   0  0  0  0  0  0  0  0  0  0  0  0
   -6.6170    4.2965   -0.4032 N   0  0  0  0  0  0  0  0  0  0  0  0
   -6.8120    5.1538   -1.3412 C   0  0  0  0  0  0  0  0  0  0  0  0
   -7.9533    4.9144   -2.1867 N   0  0  0  0  0  0  0  0  0  0  0  0
   -5.9559    6.2771   -1.5402 N   0  0  0  0  0  0  0  0  0  0  0  0
   -4.5646   -1.2117   -0.0391 C   0  0  0  0  0  0  0  0  0  0  0  0
   -5.1153   -2.5328    0.2294 C   0  0  0  0  0  0  0  0  0  0  0  0
   -5.8590   -3.3518   -0.5907 C   0  0  0  0  0  0  0  0  0  0  0  0
   -6.2119   -4.4837    0.0404 N   0  0  0  0  0  0  0  0  0  0  0  0
   -5.7140   -4.4402    1.2850 C   0  0  0  0  0  0  0  0  0  0  0  0
   -5.0285   -3.2425    1.4336 C   0  0  0  0  0  0  0  0  0  0  0  0
   -4.4476   -3.0136    2.6545 C   0  0  0  0  0  0  0  0  0  0  0  0
   -4.5327   -3.9129    3.6794 C   0  0  0  0  0  0  0  0  0  0  0  0
   -5.2125   -5.0980    3.5267 C   0  0  0  0  0  0  0  0  0  0  0  0
   -5.8170   -5.3691    2.3034 C   0  0  0  0  0  0  0  0  0  0  0  0
   -3.1519   -4.7591   -3.3688 C   0  0  0  0  0  0  0  0  0  0  0  0
   -2.7218   -5.4644   -4.3440 O   0  0  0  0  0  0  0  0  0  0  0  0
   -4.5272   -4.5769   -3.2657 N   0  0  0  0  0  0  0  0  0  0  0  0
    4.6311   -5.9501    1.2157 H   0  0  0  0  0  0  0  0  0  0  0  0
    5.6071   -5.4942    2.6535 H   0  0  0  0  0  0  0  0  0  0  0  0
    6.3932   -6.3457    1.3144 H   0  0  0  0  0  0  0  0  0  0  0  0
    6.8325   -4.4016    0.2524 H   0  0  0  0  0  0  0  0  0  0  0  0
    6.2552   -3.4937    1.7360 H   0  0  0  0  0  0  0  0  0  0  0  0
    4.5178   -4.3860   -0.5578 H   0  0  0  0  0  0  0  0  0  0  0  0
    5.1809   -2.7089   -0.2612 H   0  0  0  0  0  0  0  0  0  0  0  0
    3.3157   -4.4195    1.4990 H   0  0  0  0  0  0  0  0  0  0  0  0
    3.9336   -2.8585    2.0525 H   0  0  0  0  0  0  0  0  0  0  0  0
    1.6293   -2.5676    1.1168 H   0  0  0  0  0  0  0  0  0  0  0  0
    2.6409   -4.1516   -1.2910 H   0  0  0  0  0  0  0  0  0  0  0  0
    0.8149   -4.6236   -2.8143 H   0  0  0  0  0  0  0  0  0  0  0  0
    0.8200   -5.9421   -1.6623 H   0  0  0  0  0  0  0  0  0  0  0  0
   -1.4940   -5.8973   -1.2513 H   0  0  0  0  0  0  0  0  0  0  0  0
   -1.1791   -6.0941   -2.9645 H   0  0  0  0  0  0  0  0  0  0  0  0
   -1.5192   -3.5158   -3.1792 H   0  0  0  0  0  0  0  0  0  0  0  0
   -3.0458   -3.8997   -0.5767 H   0  0  0  0  0  0  0  0  0  0  0  0
   -2.7151   -1.5465    0.8522 H   0  0  0  0  0  0  0  0  0  0  0  0
   -2.3106    0.6773   -1.0951 H   0  0  0  0  0  0  0  0  0  0  0  0
   -1.4750    2.5358    1.7702 H   0  0  0  0  0  0  0  0  0  0  0  0
   -1.9712    2.8596   -1.2561 H   0  0  0  0  0  0  0  0  0  0  0  0
    0.4491    2.1015   -2.2102 H   0  0  0  0  0  0  0  0  0  0  0  0
    2.8824    3.4103   -1.0972 H   0  0  0  0  0  0  0  0  0  0  0  0
    4.2196    0.4822   -1.0597 H   0  0  0  0  0  0  0  0  0  0  0  0
    3.2220   -0.4841    1.5520 H   0  0  0  0  0  0  0  0  0  0  0  0
    4.8278    2.6967    0.2027 H   0  0  0  0  0  0  0  0  0  0  0  0
    4.0366    1.9879    1.6459 H   0  0  0  0  0  0  0  0  0  0  0  0
    5.4503    0.1227    1.6861 H   0  0  0  0  0  0  0  0  0  0  0  0
    6.3422    0.5699    0.1883 H   0  0  0  0  0  0  0  0  0  0  0  0
    6.2604    2.2113    2.7851 H   0  0  0  0  0  0  0  0  0  0  0  0
    7.1131    2.6139    1.2211 H   0  0  0  0  0  0  0  0  0  0  0  0
    9.5844    3.3849    1.6078 H   0  0  0  0  0  0  0  0  0  0  0  0
    9.7207    2.3223    0.1505 H   0  0  0  0  0  0  0  0  0  0  0  0
   10.5263    0.5307    3.2490 H   0  0  0  0  0  0  0  0  0  0  0  0
   10.4341   -0.4186    1.6706 H   0  0  0  0  0  0  0  0  0  0  0  0
   -0.4537    4.4270   -2.5668 H   0  0  0  0  0  0  0  0  0  0  0  0
    1.2487    4.2846   -3.1281 H   0  0  0  0  0  0  0  0  0  0  0  0
   -1.0378    5.5341   -0.5426 H   0  0  0  0  0  0  0  0  0  0  0  0
   -0.5564    7.5046    0.9114 H   0  0  0  0  0  0  0  0  0  0  0  0
    1.7042    8.4853    0.9125 H   0  0  0  0  0  0  0  0  0  0  0  0
    3.4411    7.5491   -0.4819 H   0  0  0  0  0  0  0  0  0  0  0  0
    2.9811    5.6310   -1.9083 H   0  0  0  0  0  0  0  0  0  0  0  0
   -2.8823    4.4588    1.0573 H   0  0  0  0  0  0  0  0  0  0  0  0
   -3.7182    3.2960    2.1922 H   0  0  0  0  0  0  0  0  0  0  0  0
   -4.0864    3.6592   -0.8408 H   0  0  0  0  0  0  0  0  0  0  0  0
   -4.8512    2.3277    0.2017 H   0  0  0  0  0  0  0  0  0  0  0  0
   -5.1187    5.3885    0.5471 H   0  0  0  0  0  0  0  0  0  0  0  0
   -5.8791    4.1523    1.5771 H   0  0  0  0  0  0  0  0  0  0  0  0
   -8.8983    4.6857   -1.7842 H   0  0  0  0  0  0  0  0  0  0  0  0
   -7.8481    4.9681   -3.2405 H   0  0  0  0  0  0  0  0  0  0  0  0
   -4.9176    6.2133   -1.4734 H   0  0  0  0  0  0  0  0  0  0  0  0
   -6.4400    7.1950   -1.7634 H   0  0  0  0  0  0  0  0  0  0  0  0
   -4.9680   -0.8828   -1.0398 H   0  0  0  0  0  0  0  0  0  0  0  0
   -4.9099   -0.4327    0.6666 H   0  0  0  0  0  0  0  0  0  0  0  0
   -6.0996   -3.0433   -1.6173 H   0  0  0  0  0  0  0  0  0  0  0  0
   -6.7778   -5.2243   -0.4235 H   0  0  0  0  0  0  0  0  0  0  0  0
   -3.9120   -2.0987    2.8153 H   0  0  0  0  0  0  0  0  0  0  0  0
   -4.0454   -3.6663    4.6272 H   0  0  0  0  0  0  0  0  0  0  0  0
   -5.2502   -5.7727    4.3656 H   0  0  0  0  0  0  0  0  0  0  0  0
   -6.3550   -6.2963    2.1679 H   0  0  0  0  0  0  0  0  0  0  0  0
   -5.0649   -5.2412   -2.6399 H   0  0  0  0  0  0  0  0  0  0  0  0
   -5.0925   -3.8347   -3.7547 H   0  0  0  0  0  0  0  0  0  0  0  0
  1  2  1  0
  2  3  1  0
  3  4  1  0
  4  5  1  0
  5  6  1  0
  6  7  1  0
  7  8  2  0
  7  9  1  0
  9 10  1  0
 10 11  1  0
 11 12  1  0
 12 13  1  0
 13 14  2  0
 13 15  1  0
 15 16  1  0
 16 17  1  0
 17 18  2  0
 17 19  1  0
 19 20  1  0
 20 21  1  0
 21 22  2  0
 21 23  1  0
 23 24  1  0
 24 25  1  0
 25 26  2  0
 25 27  1  0
 27 28  1  0
 28 29  1  0
 29 30  2  0
 27 31  1  0
 31 32  1  0
 32 33  1  0
 33 34  1  0
 34 35  2  3
 35 36  1  0
 35 37  1  0
 23 38  1  0
 38 39  1  0
 39 40  2  0
 40 41  1  0
 41 42  2  0
 42 43  1  0
 43 44  2  0
 19 45  1  0
 45 46  1  0
 46 47  1  0
 47 48  1  0
 48 49  2  3
 49 50  1  0
 49 51  1  0
 15 52  1  0
 52 53  1  0
 53 54  2  0
 54 55  1  0
 55 56  1  0
 56 57  2  0
 57 58  1  0
 58 59  2  0
 59 60  1  0
 60 61  2  0
 11 62  1  0
 62 63  2  0
 62 64  1  0
 29  5  1  0
 44 39  1  0
 57 53  1  0
 61 56  1  0
  1 65  1  0
  1 66  1  0
  1 67  1  0
  2 68  1  0
  2 69  1  0
  3 70  1  0
  3 71  1  0
  4 72  1  0
  4 73  1  0
  5 74  1  1
  6 75  1  0
  9 76  1  0
  9 77  1  0
 10 78  1  0
 10 79  1  0
 11 80  1  6
 12 81  1  0
 15 82  1  1
 16 83  1  0
 19 84  1  1
 20 85  1  0
 23 86  1  6
 24 87  1  0
 27 88  1  6
 28 89  1  0
 31 90  1  0
 31 91  1  0
 32 92  1  0
 32 93  1  0
 33 94  1  0
 33 95  1  0
 36 96  1  0
 36 97  1  0
 37 98  1  0
 37 99  1  0
 38100  1  0
 38101  1  0
 40102  1  0
 41103  1  0
 42104  1  0
 43105  1  0
 44106  1  0
 45107  1  0
 45108  1  0
 46109  1  0
 46110  1  0
 47111  1  0
 47112  1  0
 50113  1  0
 50114  1  0
 51115  1  0
 51116  1  0
 52117  1  0
 52118  1  0
 54119  1  0
 55120  1  0
 58121  1  0
 59122  1  0
 60123  1  0
 61124  1  0
 64125  1  0
 64126  1  0
M  END
>  <Ligand ID>  (1) 
LIG0001835

>  <Ligand>  (1) 
CHEMBL263822

>  <SMILES>  (1) 
CCCC[C@@H]1NC(=O)CC[C@H](NC(=O)[C@@H](NC(=O)[C@@H](NC(=O)[C@H](NC(=O)[C@H](NC1=O)CCCN=C(N)N)Cc1ccccc1)CCCN=C(N)N)Cc1c[nH]c2c1cccc2)C(=O)N

>  <CID>  (1) 
44408443.0

>  <ChEMBL ID>  (1) 
nan

>  <InChiKey>  (1) 
OVCXMKITXFVUSL-AIQTWYNVSA-N

>  <InChi>  (1) 
InChI=1S/C43H62N14O7/c1-2-3-14-30-37(60)54-31(16-9-20-49-42(45)46)38(61)56-33(22-25-11-5-4-6-12-25)40(63)55-32(17-10-21-50-43(47)48)39(62)57-34(23-26-24-51-28-15-8-7-13-27(26)28)41(64)53-29(36(44)59)18-19-35(58)52-30/h4-8,11-13,15,24,29-34,51H,2-3,9-10,14,16-23H2,1H3,(H2,44,59)(H,52,58)(H,53,64)(H,54,60)(H,55,63)(H,56,61)(H,57,62)(H4,45,46,49)(H4,47,48,50)/t29-,30-,31+,32-,33+,34-/m0/s1

>  <IUPAC Name>  (1) 
(2S,5R,8R,11S,14S,17S)-8-benzyl-2-butyl-5,11-bis[3-(diaminomethylideneamino)propyl]-14-(1H-indol-3-ylmethyl)-3,6,9,12,15,20-hexaoxo-1,4,7,10,13,16-hexazacycloicosane-17-carboxamide

$$$$
