
     RDKit          3D

181186  0  0  0  0  0  0  0  0999 V2000
    8.4156   -3.2930    3.9412 N   0  0  0  0  0  0  0  0  0  0  0  0
    8.0701   -2.0266    3.3810 C   0  0  0  0  0  0  0  0  0  0  0  0
    7.4910   -1.1563    4.1301 N   0  0  0  0  0  0  0  0  0  0  0  0
    8.3511   -1.7040    2.0074 N   0  0  0  0  0  0  0  0  0  0  0  0
    7.9866   -0.3961    1.5516 C   0  0  0  0  0  0  0  0  0  0  0  0
    8.3583   -0.2579    0.0839 C   0  0  0  0  0  0  0  0  0  0  0  0
    7.6520   -1.2594   -0.7676 C   0  0  0  0  0  0  0  0  0  0  0  0
    6.1757   -1.1611   -0.7191 C   0  0  2  0  0  0  0  0  0  0  0  0
    5.5907   -2.2070   -1.5994 N   0  0  0  0  0  0  0  0  0  0  0  0
    4.4633   -2.9104   -1.0931 C   0  0  0  0  0  0  0  0  0  0  0  0
    4.1043   -2.6191    0.0511 O   0  0  0  0  0  0  0  0  0  0  0  0
    3.7338   -3.9565   -1.9045 C   0  0  1  0  0  0  0  0  0  0  0  0
    4.5127   -5.1935   -2.1325 C   0  0  0  0  0  0  0  0  0  0  0  0
    5.7947   -5.0796   -2.8159 C   0  0  0  0  0  0  0  0  0  0  0  0
    5.9495   -5.0731   -4.1850 C   0  0  0  0  0  0  0  0  0  0  0  0
    7.2295   -4.9915   -4.7304 C   0  0  0  0  0  0  0  0  0  0  0  0
    8.3350   -4.9176   -3.9386 C   0  0  0  0  0  0  0  0  0  0  0  0
    8.2063   -4.9221   -2.5598 C   0  0  0  0  0  0  0  0  0  0  0  0
    6.9439   -5.0028   -2.0147 C   0  0  0  0  0  0  0  0  0  0  0  0
    2.5574   -4.2433   -1.0510 N   0  0  0  0  0  0  0  0  0  0  0  0
    1.3262   -3.5119   -1.2308 C   0  0  0  0  0  0  0  0  0  0  0  0
    1.4015   -2.6160   -2.0882 O   0  0  0  0  0  0  0  0  0  0  0  0
    0.1151   -3.7876   -0.4761 C   0  0  2  0  0  0  0  0  0  0  0  0
   -0.5688   -5.0042   -1.1971 C   0  0  0  0  0  0  0  0  0  0  0  0
    0.3185   -6.1454   -1.1800 C   0  0  0  0  0  0  0  0  0  0  0  0
    0.3536   -7.0859   -0.1426 C   0  0  0  0  0  0  0  0  0  0  0  0
    1.2848   -8.0242   -0.4298 N   0  0  0  0  0  0  0  0  0  0  0  0
    1.8381   -7.6992   -1.6215 C   0  0  0  0  0  0  0  0  0  0  0  0
    1.2426   -6.5745   -2.0459 N   0  0  0  0  0  0  0  0  0  0  0  0
   -0.9198   -2.7350   -0.5969 N   0  0  0  0  0  0  0  0  0  0  0  0
   -1.9908   -2.8354    0.3218 C   0  0  0  0  0  0  0  0  0  0  0  0
   -1.8889   -3.7734    1.1528 O   0  0  0  0  0  0  0  0  0  0  0  0
   -3.1877   -1.9998    0.4125 C   0  0  1  0  0  0  0  0  0  0  0  0
   -4.1771   -2.8158    1.2208 N   0  0  0  0  0  0  0  0  0  0  0  0
   -5.3273   -3.3401    0.5617 C   0  0  0  0  0  0  0  0  0  0  0  0
   -5.5254   -3.1365   -0.6623 O   0  0  0  0  0  0  0  0  0  0  0  0
   -6.2647   -4.1362    1.4133 C   0  0  2  0  0  0  0  0  0  0  0  0
   -5.5453   -5.2988    2.0614 C   0  0  0  0  0  0  0  0  0  0  0  0
   -6.5633   -6.0132    2.8754 C   0  0  0  0  0  0  0  0  0  0  0  0
   -7.2917   -7.0351    2.2905 C   0  0  0  0  0  0  0  0  0  0  0  0
   -8.2499   -7.7210    3.0125 C   0  0  0  0  0  0  0  0  0  0  0  0
   -8.4646   -7.3581    4.3437 C   0  0  0  0  0  0  0  0  0  0  0  0
   -7.7174   -6.3266    4.9048 C   0  0  0  0  0  0  0  0  0  0  0  0
   -6.7598   -5.6383    4.1905 C   0  0  0  0  0  0  0  0  0  0  0  0
   -9.4129   -8.0032    5.1320 O   0  0  0  0  0  0  0  0  0  0  0  0
   -7.3534   -4.6107    0.5973 N   0  0  0  0  0  0  0  0  0  0  0  0
   -3.1432   -0.6668    1.0207 C   0  0  0  0  0  0  0  0  0  0  0  0
   -2.3772    0.4398    0.5293 C   0  0  0  0  0  0  0  0  0  0  0  0
   -1.2614    0.7084    0.9175 O   0  0  0  0  0  0  0  0  0  0  0  0
   -2.8024    1.4059   -0.4996 N   0  0  0  0  0  0  0  0  0  0  0  0
   -4.0429    1.0217   -1.0675 C   0  0  2  0  0  0  0  0  0  0  0  0
   -3.8489    0.3745   -2.3971 C   0  0  0  0  0  0  0  0  0  0  0  0
   -2.6599    0.3783   -2.8534 O   0  0  0  0  0  0  0  0  0  0  0  0
   -4.8246   -0.2350   -3.1857 N   0  0  0  0  0  0  0  0  0  0  0  0
   -5.2014    1.8653   -0.8519 C   0  0  0  0  0  0  0  0  0  0  0  0
   -6.3744    1.2817   -1.5102 C   0  0  0  0  0  0  0  0  0  0  0  0
   -6.6818    1.7128   -2.7851 C   0  0  0  0  0  0  0  0  0  0  0  0
   -7.7846    1.1576   -3.3812 C   0  0  0  0  0  0  0  0  0  0  0  0
   -8.5453    0.2144   -2.7327 C   0  0  0  0  0  0  0  0  0  0  0  0
   -8.2572   -0.2373   -1.4481 C   0  0  0  0  0  0  0  0  0  0  0  0
   -7.1423    0.3284   -0.8533 C   0  0  0  0  0  0  0  0  0  0  0  0
   -9.6823   -0.3689   -3.3269 O   0  0  0  0  0  0  0  0  0  0  0  0
   -2.0092    2.5678   -0.8027 C   0  0  0  0  0  0  0  0  0  0  0  0
   -0.6664    2.1520   -1.4330 C   0  0  0  0  0  0  0  0  0  0  0  0
   -1.5686    3.2155    0.4698 N   0  0  0  0  0  0  0  0  0  0  0  0
   -2.4925    3.8272    1.3567 C   0  0  0  0  0  0  0  0  0  0  0  0
   -3.6794    3.7734    0.9803 O   0  0  0  0  0  0  0  0  0  0  0  0
   -2.2253    4.4920    2.6305 C   0  0  1  0  0  0  0  0  0  0  0  0
   -0.8594    4.7279    2.9930 N   0  0  0  0  0  0  0  0  0  0  0  0
    0.0988    5.4329    2.1923 C   0  0  0  0  0  0  0  0  0  0  0  0
   -0.3134    5.8751    1.1216 O   0  0  0  0  0  0  0  0  0  0  0  0
    1.5096    5.5870    2.6904 C   0  0  1  0  0  0  0  0  0  0  0  0
    2.3556    6.2979    1.7355 N   0  0  0  0  0  0  0  0  0  0  0  0
    3.0031    5.5069    0.7780 C   0  0  0  0  0  0  0  0  0  0  0  0
    2.7364    4.2947    0.7695 O   0  0  0  0  0  0  0  0  0  0  0  0
    3.9969    5.9631   -0.2662 C   0  0  1  0  0  0  0  0  0  0  0  0
    4.1507    4.7771   -1.1383 N   0  0  0  0  0  0  0  0  0  0  0  0
    4.9403    3.6557   -0.6833 C   0  0  0  0  0  0  0  0  0  0  0  0
    5.5252    3.8508    0.3888 O   0  0  0  0  0  0  0  0  0  0  0  0
    4.9629    2.4446   -1.5013 C   0  0  1  0  0  0  0  0  0  0  0  0
    5.5901    1.3576   -0.7253 N   0  0  0  0  0  0  0  0  0  0  0  0
    5.6206    0.0964   -1.3400 C   0  0  0  0  0  0  0  0  0  0  0  0
    5.1502   -0.0023   -2.4759 O   0  0  0  0  0  0  0  0  0  0  0  0
    3.4744    2.0040   -1.7286 C   0  0  0  0  0  0  0  0  0  0  0  0
    3.6608    7.2057   -0.9562 C   0  0  0  0  0  0  0  0  0  0  0  0
    4.6958    7.5926   -1.9810 C   0  0  0  0  0  0  0  0  0  0  0  0
    5.7042    6.8217   -2.1195 O   0  0  0  0  0  0  0  0  0  0  0  0
    4.5698    8.7649   -2.7704 N   0  0  0  0  0  0  0  0  0  0  0  0
    1.4592    6.2457    4.0238 C   0  0  0  0  0  0  0  0  0  0  0  0
   -3.1730    5.5515    3.0565 C   0  0  0  0  0  0  0  0  0  0  0  0
   -3.3529    6.7202    2.2165 C   0  0  0  0  0  0  0  0  0  0  0  0
   -4.2924    6.8841    1.2259 C   0  0  0  0  0  0  0  0  0  0  0  0
   -4.4150    8.0307    0.4648 C   0  0  0  0  0  0  0  0  0  0  0  0
   -3.5598    9.0923    0.6877 C   0  0  0  0  0  0  0  0  0  0  0  0
   -2.6107    8.9661    1.6670 C   0  0  0  0  0  0  0  0  0  0  0  0
   -2.4995    7.8158    2.4188 C   0  0  0  0  0  0  0  0  0  0  0  0
   -2.5837    3.5500   -1.7014 C   0  0  0  0  0  0  0  0  0  0  0  0
   -3.0409    3.3641   -2.8539 O   0  0  0  0  0  0  0  0  0  0  0  0
   -2.6528    4.8945   -1.2562 O   0  0  0  0  0  0  0  0  0  0  0  0
    8.7934   -3.2805    4.9058 H   0  0  0  0  0  0  0  0  0  0  0  0
    8.2857   -4.1571    3.3945 H   0  0  0  0  0  0  0  0  0  0  0  0
    7.2909   -1.4007    5.1245 H   0  0  0  0  0  0  0  0  0  0  0  0
    8.8004   -2.4465    1.4425 H   0  0  0  0  0  0  0  0  0  0  0  0
    6.9231   -0.1673    1.6751 H   0  0  0  0  0  0  0  0  0  0  0  0
    8.5412    0.3391    2.1760 H   0  0  0  0  0  0  0  0  0  0  0  0
    9.4639   -0.4675   -0.0526 H   0  0  0  0  0  0  0  0  0  0  0  0
    8.2395    0.7880   -0.2021 H   0  0  0  0  0  0  0  0  0  0  0  0
    8.0201   -1.2572   -1.8223 H   0  0  0  0  0  0  0  0  0  0  0  0
    7.9293   -2.2655   -0.3845 H   0  0  0  0  0  0  0  0  0  0  0  0
    5.7673   -1.1947    0.2887 H   0  0  0  0  0  0  0  0  0  0  0  0
    5.9182   -2.4398   -2.5136 H   0  0  0  0  0  0  0  0  0  0  0  0
    3.3533   -3.4530   -2.8080 H   0  0  0  0  0  0  0  0  0  0  0  0
    4.6207   -5.7046   -1.1284 H   0  0  0  0  0  0  0  0  0  0  0  0
    3.8216   -5.9025   -2.6837 H   0  0  0  0  0  0  0  0  0  0  0  0
    5.0634   -5.1336   -4.7952 H   0  0  0  0  0  0  0  0  0  0  0  0
    7.3658   -4.9880   -5.7986 H   0  0  0  0  0  0  0  0  0  0  0  0
    9.3316   -4.8555   -4.3807 H   0  0  0  0  0  0  0  0  0  0  0  0
    9.1066   -4.8611   -1.9745 H   0  0  0  0  0  0  0  0  0  0  0  0
    6.8763   -5.0037   -0.9328 H   0  0  0  0  0  0  0  0  0  0  0  0
    2.5442   -4.9279   -0.3070 H   0  0  0  0  0  0  0  0  0  0  0  0
    0.2075   -4.0538    0.5811 H   0  0  0  0  0  0  0  0  0  0  0  0
   -1.5272   -5.1416   -0.6791 H   0  0  0  0  0  0  0  0  0  0  0  0
   -0.7174   -4.5948   -2.2390 H   0  0  0  0  0  0  0  0  0  0  0  0
   -0.2840   -7.0484    0.7538 H   0  0  0  0  0  0  0  0  0  0  0  0
    2.6105   -8.2849   -2.0828 H   0  0  0  0  0  0  0  0  0  0  0  0
    1.4458   -6.0622   -2.9407 H   0  0  0  0  0  0  0  0  0  0  0  0
   -0.9240   -1.9810   -1.2535 H   0  0  0  0  0  0  0  0  0  0  0  0
   -3.6415   -1.9911   -0.5902 H   0  0  0  0  0  0  0  0  0  0  0  0
   -3.9775   -2.9641    2.2372 H   0  0  0  0  0  0  0  0  0  0  0  0
   -6.6715   -3.4328    2.1751 H   0  0  0  0  0  0  0  0  0  0  0  0
   -5.0594   -5.9422    1.3286 H   0  0  0  0  0  0  0  0  0  0  0  0
   -4.7288   -4.9065    2.7187 H   0  0  0  0  0  0  0  0  0  0  0  0
   -7.1046   -7.2964    1.2564 H   0  0  0  0  0  0  0  0  0  0  0  0
   -8.8387   -8.5183    2.6101 H   0  0  0  0  0  0  0  0  0  0  0  0
   -7.8654   -6.0264    5.9322 H   0  0  0  0  0  0  0  0  0  0  0  0
   -6.1873   -4.8324    4.6557 H   0  0  0  0  0  0  0  0  0  0  0  0
   -9.2472   -8.2222    6.1025 H   0  0  0  0  0  0  0  0  0  0  0  0
   -7.2515   -4.2769   -0.3920 H   0  0  0  0  0  0  0  0  0  0  0  0
   -8.2924   -4.3361    0.9380 H   0  0  0  0  0  0  0  0  0  0  0  0
   -2.6550   -0.8833    2.0781 H   0  0  0  0  0  0  0  0  0  0  0  0
   -4.1675   -0.3554    1.4234 H   0  0  0  0  0  0  0  0  0  0  0  0
   -4.3160    0.0866   -0.4383 H   0  0  0  0  0  0  0  0  0  0  0  0
   -5.5337   -0.9321   -2.8769 H   0  0  0  0  0  0  0  0  0  0  0  0
   -4.8582    0.0248   -4.2167 H   0  0  0  0  0  0  0  0  0  0  0  0
   -5.4910    1.9172    0.2492 H   0  0  0  0  0  0  0  0  0  0  0  0
   -5.1504    2.9173   -1.1624 H   0  0  0  0  0  0  0  0  0  0  0  0
   -6.1108    2.4450   -3.3151 H   0  0  0  0  0  0  0  0  0  0  0  0
   -8.0777    1.4544   -4.3819 H   0  0  0  0  0  0  0  0  0  0  0  0
   -8.8761   -0.9796   -0.9674 H   0  0  0  0  0  0  0  0  0  0  0  0
   -6.8991   -0.0052    0.1415 H   0  0  0  0  0  0  0  0  0  0  0  0
   -9.7273   -0.6465   -4.2868 H   0  0  0  0  0  0  0  0  0  0  0  0
   -0.7330    2.2982   -2.5352 H   0  0  0  0  0  0  0  0  0  0  0  0
   -0.5412    1.0693   -1.2312 H   0  0  0  0  0  0  0  0  0  0  0  0
    0.1818    2.6742   -0.9883 H   0  0  0  0  0  0  0  0  0  0  0  0
   -0.5942    3.2395    0.7654 H   0  0  0  0  0  0  0  0  0  0  0  0
   -2.5003    3.6109    3.3715 H   0  0  0  0  0  0  0  0  0  0  0  0
   -0.4713    4.3950    3.8900 H   0  0  0  0  0  0  0  0  0  0  0  0
    1.8567    4.5257    2.7979 H   0  0  0  0  0  0  0  0  0  0  0  0
    2.5124    7.2979    1.7029 H   0  0  0  0  0  0  0  0  0  0  0  0
    4.9230    6.1040    0.3715 H   0  0  0  0  0  0  0  0  0  0  0  0
    3.7414    4.6842   -2.0546 H   0  0  0  0  0  0  0  0  0  0  0  0
    5.3774    2.4424   -2.4866 H   0  0  0  0  0  0  0  0  0  0  0  0
    5.9893    1.4512    0.1941 H   0  0  0  0  0  0  0  0  0  0  0  0
    3.4047    1.6187   -2.7432 H   0  0  0  0  0  0  0  0  0  0  0  0
    2.8477    2.9115   -1.6321 H   0  0  0  0  0  0  0  0  0  0  0  0
    3.1797    1.2949   -0.9434 H   0  0  0  0  0  0  0  0  0  0  0  0
    3.5721    8.0989   -0.3047 H   0  0  0  0  0  0  0  0  0  0  0  0
    2.6655    7.1279   -1.4683 H   0  0  0  0  0  0  0  0  0  0  0  0
    4.2347    9.6495   -2.3414 H   0  0  0  0  0  0  0  0  0  0  0  0
    4.8334    8.6642   -3.7858 H   0  0  0  0  0  0  0  0  0  0  0  0
    1.3208    5.4281    4.7889 H   0  0  0  0  0  0  0  0  0  0  0  0
    0.5286    6.8643    4.0816 H   0  0  0  0  0  0  0  0  0  0  0  0
    2.3555    6.8430    4.2915 H   0  0  0  0  0  0  0  0  0  0  0  0
   -4.2142    5.1323    3.2389 H   0  0  0  0  0  0  0  0  0  0  0  0
   -2.8639    5.8290    4.1140 H   0  0  0  0  0  0  0  0  0  0  0  0
   -4.9969    6.0951    1.0108 H   0  0  0  0  0  0  0  0  0  0  0  0
   -5.1816    8.1108   -0.3145 H   0  0  0  0  0  0  0  0  0  0  0  0
   -3.6952    9.9664    0.0665 H   0  0  0  0  0  0  0  0  0  0  0  0
   -1.9427    9.7896    1.8474 H   0  0  0  0  0  0  0  0  0  0  0  0
   -1.7222    7.7602    3.1970 H   0  0  0  0  0  0  0  0  0  0  0  0
   -3.3803    5.4898   -1.6459 H   0  0  0  0  0  0  0  0  0  0  0  0
  1  2  1  0
  2  3  2  3
  2  4  1  0
  4  5  1  0
  5  6  1  0
  6  7  1  0
  7  8  1  0
  8  9  1  0
  9 10  1  0
 10 11  2  0
 10 12  1  0
 12 13  1  0
 13 14  1  0
 14 15  2  0
 15 16  1  0
 16 17  2  0
 17 18  1  0
 18 19  2  0
 12 20  1  0
 20 21  1  0
 21 22  2  0
 21 23  1  0
 23 24  1  0
 24 25  1  0
 25 26  2  0
 26 27  1  0
 27 28  2  0
 28 29  1  0
 23 30  1  0
 30 31  1  0
 31 32  2  0
 31 33  1  0
 33 34  1  0
 34 35  1  0
 35 36  2  0
 35 37  1  0
 37 38  1  0
 38 39  1  0
 39 40  2  0
 40 41  1  0
 41 42  2  0
 42 43  1  0
 43 44  2  0
 42 45  1  0
 37 46  1  0
 33 47  1  0
 47 48  1  0
 48 49  2  0
 48 50  1  0
 50 51  1  0
 51 52  1  0
 52 53  2  0
 52 54  1  0
 51 55  1  0
 55 56  1  0
 56 57  2  0
 57 58  1  0
 58 59  2  0
 59 60  1  0
 60 61  2  0
 59 62  1  0
 50 63  1  0
 63 64  1  0
 63 65  1  0
 65 66  1  0
 66 67  2  0
 66 68  1  0
 68 69  1  0
 69 70  1  0
 70 71  2  0
 70 72  1  0
 72 73  1  0
 73 74  1  0
 74 75  2  0
 74 76  1  0
 76 77  1  0
 77 78  1  0
 78 79  2  0
 78 80  1  0
 80 81  1  0
 81 82  1  0
 82 83  2  0
 80 84  1  0
 76 85  1  0
 85 86  1  0
 86 87  2  0
 86 88  1  0
 72 89  1  0
 68 90  1  0
 90 91  1  0
 91 92  2  0
 92 93  1  0
 93 94  2  0
 94 95  1  0
 95 96  2  0
 63 97  1  0
 97 98  2  0
 97 99  1  0
 82  8  1  0
 96 91  1  0
 19 14  1  0
 29 25  1  0
 44 39  1  0
 61 56  1  0
  1100  1  0
  1101  1  0
  3102  1  0
  4103  1  0
  5104  1  0
  5105  1  0
  6106  1  0
  6107  1  0
  7108  1  0
  7109  1  0
  8110  1  1
  9111  1  0
 12112  1  6
 13113  1  0
 13114  1  0
 15115  1  0
 16116  1  0
 17117  1  0
 18118  1  0
 19119  1  0
 20120  1  0
 23121  1  1
 24122  1  0
 24123  1  0
 26124  1  0
 28125  1  0
 29126  1  0
 30127  1  0
 33128  1  6
 34129  1  0
 37130  1  1
 38131  1  0
 38132  1  0
 40133  1  0
 41134  1  0
 43135  1  0
 44136  1  0
 45137  1  0
 46138  1  0
 46139  1  0
 47140  1  0
 47141  1  0
 51142  1  1
 54143  1  0
 54144  1  0
 55145  1  0
 55146  1  0
 57147  1  0
 58148  1  0
 60149  1  0
 61150  1  0
 62151  1  0
 64152  1  0
 64153  1  0
 64154  1  0
 65155  1  0
 68156  1  1
 69157  1  0
 72158  1  1
 73159  1  0
 76160  1  1
 77161  1  0
 80162  1  6
 81163  1  0
 84164  1  0
 84165  1  0
 84166  1  0
 85167  1  0
 85168  1  0
 88169  1  0
 88170  1  0
 89171  1  0
 89172  1  0
 89173  1  0
 90174  1  0
 90175  1  0
 92176  1  0
 93177  1  0
 94178  1  0
 95179  1  0
 96180  1  0
 99181  1  0
M  END
>  <Ligand ID>  (1) 
LIG0001157

>  <Ligand>  (1) 
CHEMBL2096724

>  <SMILES>  (1) 
NC(=N)NCCC[C@@H]1NC(=O)[C@@H](Cc2ccccc2)NC(=O)[C@H](Cc2cnc[nH]2)NC(=O)[C@@H](NC(=O)[C@H](Cc2ccc(cc2)O)N)CC(=O)N([C@H](C(=O)N)Cc2ccc(cc2)O)C(C)(NC(=O)[C@@H](NC(=O)[C@@H](NC(=O)[C@@H](NC(=O)[C@@H](NC1=O)C)CC(=O)N)C)Cc1ccccc1)C(=O)O

>  <CID>  (1) 
91900703.0

>  <ChEMBL ID>  (1) 
nan

>  <InChiKey>  (1) 
LCUVTXMIBHENSA-CUHJIAEXSA-N

>  <InChi>  (1) 
InChI=1S/C65H82N18O16/c1-34-55(90)78-48(30-51(67)86)58(93)75-35(2)54(89)77-46(27-37-13-8-5-9-14-37)62(97)82-65(3,63(98)99)83(50(53(68)88)28-39-18-22-42(85)23-19-39)52(87)31-49(79-56(91)43(66)25-38-16-20-41(84)21-17-38)61(96)81-47(29-40-32-71-33-73-40)60(95)80-45(26-36-11-6-4-7-12-36)59(94)76-44(57(92)74-34)15-10-24-72-64(69)70/h4-9,11-14,16-23,32-35,43-50,84-85H,10,15,24-31,66H2,1-3H3,(H2,67,86)(H2,68,88)(H,71,73)(H,74,92)(H,75,93)(H,76,94)(H,77,89)(H,78,90)(H,79,91)(H,80,95)(H,81,96)(H,82,97)(H,98,99)(H4,69,70,72)/t34-,35-,43-,44-,45+,46-,47-,48-,49-,50-,65?/m0/s1

>  <IUPAC Name>  (1) 
(5S,8S,11S,14S,17S,20R,23S,26S)-1-[(2S)-1-amino-3-(4-hydroxyphenyl)-1-oxopropan-2-yl]-26-[[(2S)-2-amino-3-(4-hydroxyphenyl)propanoyl]amino]-11-(2-amino-2-oxoethyl)-5,20-dibenzyl-17-(3-carbamimidamidopropyl)-23-(1H-imidazol-5-ylmethyl)-2,8,14-trimethyl-4,7,10,13,16,19,22,25,28-nonaoxo-1,3,6,9,12,15,18,21,24-nonazacyclooctacosane-2-carboxylic acid

$$$$
