
     RDKit          3D

 44 47  0  0  0  0  0  0  0  0999 V2000
   -5.4106   -0.8752    1.8843 O   0  0  0  0  0  0  0  0  0  0  0  0
   -4.0358   -0.9194    1.6664 C   0  0  0  0  0  0  0  0  0  0  0  0
   -3.3297   -1.8344    2.4424 C   0  0  0  0  0  0  0  0  0  0  0  0
   -1.9619   -1.9239    2.2704 C   0  0  0  0  0  0  0  0  0  0  0  0
   -1.3523   -1.1062    1.3398 C   0  0  0  0  0  0  0  0  0  0  0  0
   -2.0450   -0.1924    0.5635 C   0  0  0  0  0  0  0  0  0  0  0  0
   -3.4062   -0.1068    0.7387 C   0  0  0  0  0  0  0  0  0  0  0  0
   -1.3053    0.6563   -0.4239 C   0  0  1  0  0  0  0  0  0  0  0  0
   -2.2611    1.0610   -1.5349 C   0  0  0  0  0  0  0  0  0  0  0  0
   -0.7865    1.8885    0.2154 C   0  0  0  0  0  0  0  0  0  0  0  0
    0.5948    1.8804    0.6993 C   0  0  0  0  0  0  0  0  0  0  0  0
    1.3689    0.6946    0.6832 N   0  0  0  0  0  0  0  0  0  0  0  0
    0.7585   -0.4592    0.1096 C   0  0  0  0  0  0  0  0  0  0  0  0
    0.0869   -1.2356    1.1898 C   0  0  0  0  0  0  0  0  0  0  0  0
    0.7915   -1.9689    1.9179 O   0  0  0  0  0  0  0  0  0  0  0  0
   -0.2207   -0.2263   -0.9810 C   0  0  2  0  0  0  0  0  0  0  0  0
    0.3457    0.2316   -2.2833 C   0  0  0  0  0  0  0  0  0  0  0  0
    2.7197    0.9036    0.1963 C   0  0  0  0  0  0  0  0  0  0  0  0
    3.5605   -0.2888    0.4695 C   0  0  0  0  0  0  0  0  0  0  0  0
    4.9947   -0.2934    0.0344 C   0  0  0  0  0  0  0  0  0  0  0  0
    3.9496   -1.1744   -0.6455 C   0  0  0  0  0  0  0  0  0  0  0  0
   -6.1044   -0.8854    1.1522 H   0  0  0  0  0  0  0  0  0  0  0  0
   -3.8425   -2.4610    3.1728 H   0  0  0  0  0  0  0  0  0  0  0  0
   -1.3836   -2.6200    2.8499 H   0  0  0  0  0  0  0  0  0  0  0  0
   -3.9755    0.5986    0.1382 H   0  0  0  0  0  0  0  0  0  0  0  0
   -1.6976    1.1682   -2.5030 H   0  0  0  0  0  0  0  0  0  0  0  0
   -3.0391    0.3062   -1.6937 H   0  0  0  0  0  0  0  0  0  0  0  0
   -2.7710    2.0440   -1.3172 H   0  0  0  0  0  0  0  0  0  0  0  0
   -0.9849    2.7651   -0.4713 H   0  0  0  0  0  0  0  0  0  0  0  0
   -1.4799    2.1115    1.0817 H   0  0  0  0  0  0  0  0  0  0  0  0
    1.1546    2.6797    0.1296 H   0  0  0  0  0  0  0  0  0  0  0  0
    0.6528    2.2678    1.7616 H   0  0  0  0  0  0  0  0  0  0  0  0
    1.5492   -1.1267   -0.2888 H   0  0  0  0  0  0  0  0  0  0  0  0
   -0.7161   -1.2264   -1.1779 H   0  0  0  0  0  0  0  0  0  0  0  0
    1.3556   -0.1387   -2.4779 H   0  0  0  0  0  0  0  0  0  0  0  0
    0.3652    1.3391   -2.3801 H   0  0  0  0  0  0  0  0  0  0  0  0
   -0.2682   -0.1378   -3.1577 H   0  0  0  0  0  0  0  0  0  0  0  0
    2.7097    1.1037   -0.9155 H   0  0  0  0  0  0  0  0  0  0  0  0
    3.1119    1.7905    0.7278 H   0  0  0  0  0  0  0  0  0  0  0  0
    3.4292   -0.7808    1.4749 H   0  0  0  0  0  0  0  0  0  0  0  0
    5.7389   -0.8425    0.5917 H   0  0  0  0  0  0  0  0  0  0  0  0
    5.3679    0.5841   -0.5362 H   0  0  0  0  0  0  0  0  0  0  0  0
    3.9838   -2.2741   -0.4252 H   0  0  0  0  0  0  0  0  0  0  0  0
    3.7884   -0.9759   -1.7022 H   0  0  0  0  0  0  0  0  0  0  0  0
  1  2  1  0
  2  3  2  0
  3  4  1  0
  4  5  2  0
  5  6  1  0
  6  7  2  0
  6  8  1  0
  8  9  1  6
  8 10  1  0
 10 11  1  0
 11 12  1  0
 12 13  1  0
 13 14  1  0
 14 15  2  0
 13 16  1  0
 16 17  1  0
 12 18  1  0
 18 19  1  0
 19 20  1  0
 20 21  1  0
  7  2  1  0
 16  8  1  0
 21 19  1  0
 14  5  1  0
  1 22  1  0
  3 23  1  0
  4 24  1  0
  7 25  1  0
  9 26  1  0
  9 27  1  0
  9 28  1  0
 10 29  1  0
 10 30  1  0
 11 31  1  0
 11 32  1  0
 13 33  1  0
 16 34  1  6
 17 35  1  0
 17 36  1  0
 17 37  1  0
 18 38  1  0
 18 39  1  0
 19 40  1  0
 20 41  1  0
 20 42  1  0
 21 43  1  0
 21 44  1  0
M  END
>  <Ligand ID>  (1) 
LIG0005518

>  <Ligand>  (1) 
Ketazocine

>  <SMILES>  (1) 
Oc1ccc2c(c1)[C@@]1(C)CCN(C(C2=O)[C@@H]1C)CC1CC1

>  <CID>  (1) 
44380980.0

>  <ChEMBL ID>  (1) 
nan

>  <InChiKey>  (1) 
HQBZLVPZOGIAIQ-GQWBRKQSSA-N

>  <InChi>  (1) 
InChI=1S/C18H23NO2/c1-11-16-17(21)14-6-5-13(20)9-15(14)18(11,2)7-8-19(16)10-12-3-4-12/h5-6,9,11-12,16,20H,3-4,7-8,10H2,1-2H3/t11-,16?,18-/m0/s1

>  <IUPAC Name>  (1) 
(1S,13R)-10-(cyclopropylmethyl)-4-hydroxy-1,13-dimethyl-10-azatricyclo[7.3.1.02,7]trideca-2(7),3,5-trien-8-one

$$$$
