
     RDKit          3D

127129  0  0  0  0  0  0  0  0999 V2000
   10.6826    1.1840    0.3185 N   0  0  0  0  0  0  0  0  0  0  0  0
    9.3132    1.5984    0.1022 C   0  0  0  0  0  0  0  0  0  0  0  0
    8.8359    1.3694   -1.2834 C   0  0  0  0  0  0  0  0  0  0  0  0
    8.8211    0.0117   -1.8315 C   0  0  0  0  0  0  0  0  0  0  0  0
    8.0173   -1.0557   -1.2435 C   0  0  1  0  0  0  0  0  0  0  0  0
    8.2836   -1.4817    0.1343 C   0  0  0  0  0  0  0  0  0  0  0  0
    7.2902   -1.6115    0.9029 O   0  0  0  0  0  0  0  0  0  0  0  0
    9.5519   -1.7687    0.6569 N   0  0  0  0  0  0  0  0  0  0  0  0
    9.8927   -2.2405    1.9558 C   0  0  0  0  0  0  0  0  0  0  0  0
    9.4873   -1.3761    3.0496 C   0  0  0  0  0  0  0  0  0  0  0  0
    9.8055   -1.8077    4.2350 O   0  0  0  0  0  0  0  0  0  0  0  0
    8.8096   -0.1540    3.0487 N   0  0  0  0  0  0  0  0  0  0  0  0
    6.5785   -0.8527   -1.4691 N   0  0  0  0  0  0  0  0  0  0  0  0
    5.8493   -1.7878   -2.2492 C   0  0  0  0  0  0  0  0  0  0  0  0
    6.4204   -2.8134   -2.7480 O   0  0  0  0  0  0  0  0  0  0  0  0
    4.3972   -1.6549   -2.5457 C   0  0  2  0  0  0  0  0  0  0  0  0
    4.3146   -1.6661   -4.0816 C   0  0  0  0  0  0  0  0  0  0  0  0
    4.6849   -0.2536   -4.3969 C   0  0  0  0  0  0  0  0  0  0  0  0
    4.3224    0.5469   -3.1921 C   0  0  0  0  0  0  0  0  0  0  0  0
    3.8403   -0.4174   -2.1679 N   0  0  0  0  0  0  0  0  0  0  0  0
    3.0219    0.0578   -1.1078 C   0  0  0  0  0  0  0  0  0  0  0  0
    2.8312    1.3311   -1.1367 O   0  0  0  0  0  0  0  0  0  0  0  0
    2.4349   -0.8031   -0.0554 C   0  0  2  0  0  0  0  0  0  0  0  0
    1.3934   -1.7758   -0.5429 C   0  0  0  0  0  0  0  0  0  0  0  0
    0.9218   -2.7553    0.9121 S   0  0  0  0  0  0  0  0  0  0  0  0
   -0.2526   -4.3486    0.2157 S   0  0  0  0  0  0  0  0  0  0  0  0
   -1.9382   -3.9714    0.2396 C   0  0  0  0  0  0  0  0  0  0  0  0
   -2.4931   -2.8481   -0.5872 C   0  0  2  0  0  0  0  0  0  0  0  0
   -2.0127   -1.5646   -0.1264 N   0  0  0  0  0  0  0  0  0  0  0  0
   -3.9584   -2.8342   -0.6164 C   0  0  0  0  0  0  0  0  0  0  0  0
   -4.5456   -3.6013   -1.4023 O   0  0  0  0  0  0  0  0  0  0  0  0
   -4.8203   -2.0217    0.1778 N   0  0  0  0  0  0  0  0  0  0  0  0
   -6.2592   -2.0649    0.0900 C   0  0  1  0  0  0  0  0  0  0  0  0
   -6.9852   -2.5138    1.2977 C   0  0  0  0  0  0  0  0  0  0  0  0
   -6.6056   -3.8943    1.6901 C   0  0  0  0  0  0  0  0  0  0  0  0
   -7.1678   -4.5309    2.7849 C   0  0  0  0  0  0  0  0  0  0  0  0
   -6.6156   -5.7713    2.8714 C   0  0  0  0  0  0  0  0  0  0  0  0
   -5.7166   -5.8676    1.8158 C   0  0  0  0  0  0  0  0  0  0  0  0
   -5.7592   -4.7321    1.1612 O   0  0  0  0  0  0  0  0  0  0  0  0
   -6.8179   -0.7569   -0.4478 C   0  0  0  0  0  0  0  0  0  0  0  0
   -8.0173   -0.6729   -0.5450 O   0  0  0  0  0  0  0  0  0  0  0  0
   -6.0065    0.3152   -0.8110 N   0  0  0  0  0  0  0  0  0  0  0  0
   -6.1923    1.5712   -1.4295 C   0  0  2  0  0  0  0  0  0  0  0  0
   -5.1315    2.5394   -1.0445 C   0  0  0  0  0  0  0  0  0  0  0  0
   -4.9208    3.5576   -1.7049 O   0  0  0  0  0  0  0  0  0  0  0  0
   -4.2981    2.3746    0.1036 N   0  0  0  0  0  0  0  0  0  0  0  0
   -3.1699    3.2919    0.3827 C   0  0  2  0  0  0  0  0  0  0  0  0
   -2.1352    2.3979    0.9339 C   0  0  0  0  0  0  0  0  0  0  0  0
   -2.4706    1.2356    1.2008 O   0  0  0  0  0  0  0  0  0  0  0  0
   -0.7838    2.7259    1.1871 N   0  0  0  0  0  0  0  0  0  0  0  0
    0.2011    1.8489    1.7702 C   0  0  2  0  0  0  0  0  0  0  0  0
    0.8006    0.9957    0.7224 C   0  0  0  0  0  0  0  0  0  0  0  0
    0.4240    1.1355   -0.4423 O   0  0  0  0  0  0  0  0  0  0  0  0
    1.7925    0.0073    0.9590 N   0  0  0  0  0  0  0  0  0  0  0  0
   -0.3365    0.9391    2.8579 C   0  0  0  0  0  0  0  0  0  0  0  0
   -0.9004    1.7792    3.9259 C   0  0  0  0  0  0  0  0  0  0  0  0
   -1.3782    1.2141    4.9404 O   0  0  0  0  0  0  0  0  0  0  0  0
   -0.9392    3.1975    3.8848 N   0  0  0  0  0  0  0  0  0  0  0  0
   -3.6041    4.3443    1.3859 C   0  0  0  0  0  0  0  0  0  0  0  0
   -4.0439    3.8028    2.6735 C   0  0  0  0  0  0  0  0  0  0  0  0
   -4.0307    2.5491    2.8718 O   0  0  0  0  0  0  0  0  0  0  0  0
   -4.4768    4.7245    3.6703 N   0  0  0  0  0  0  0  0  0  0  0  0
   -7.5486    2.1933   -1.5171 C   0  0  2  0  0  0  0  0  0  0  0  0
   -8.5053    1.5086   -2.4051 C   0  0  0  0  0  0  0  0  0  0  0  0
   -9.8561    2.2304   -2.3263 C   0  0  0  0  0  0  0  0  0  0  0  0
   -7.3652    3.6143   -2.0765 C   0  0  0  0  0  0  0  0  0  0  0  0
   10.8258    0.6577    1.1838 H   0  0  0  0  0  0  0  0  0  0  0  0
   11.0031    0.6579   -0.5037 H   0  0  0  0  0  0  0  0  0  0  0  0
    9.3676    2.7396    0.2075 H   0  0  0  0  0  0  0  0  0  0  0  0
    8.5992    1.3140    0.8711 H   0  0  0  0  0  0  0  0  0  0  0  0
    9.5089    1.9898   -1.9568 H   0  0  0  0  0  0  0  0  0  0  0  0
    7.8524    1.9089   -1.3748 H   0  0  0  0  0  0  0  0  0  0  0  0
    9.8928   -0.3487   -1.8672 H   0  0  0  0  0  0  0  0  0  0  0  0
    8.4753    0.1162   -2.9186 H   0  0  0  0  0  0  0  0  0  0  0  0
    8.2611   -2.0008   -1.8604 H   0  0  0  0  0  0  0  0  0  0  0  0
   10.3678   -1.6092   -0.0182 H   0  0  0  0  0  0  0  0  0  0  0  0
   11.0065   -2.4212    2.0383 H   0  0  0  0  0  0  0  0  0  0  0  0
    9.3870   -3.2375    2.1490 H   0  0  0  0  0  0  0  0  0  0  0  0
    7.7779   -0.0158    3.0412 H   0  0  0  0  0  0  0  0  0  0  0  0
    9.3777    0.7215    3.0596 H   0  0  0  0  0  0  0  0  0  0  0  0
    6.1069   -0.0226   -1.0466 H   0  0  0  0  0  0  0  0  0  0  0  0
    3.9057   -2.5761   -2.2337 H   0  0  0  0  0  0  0  0  0  0  0  0
    3.2813   -1.8958   -4.3888 H   0  0  0  0  0  0  0  0  0  0  0  0
    5.0750   -2.3355   -4.5052 H   0  0  0  0  0  0  0  0  0  0  0  0
    5.7903   -0.1869   -4.6184 H   0  0  0  0  0  0  0  0  0  0  0  0
    4.1914    0.1396   -5.3233 H   0  0  0  0  0  0  0  0  0  0  0  0
    5.1071    1.2024   -2.8045 H   0  0  0  0  0  0  0  0  0  0  0  0
    3.4776    1.2212   -3.4832 H   0  0  0  0  0  0  0  0  0  0  0  0
    3.3218   -1.3301    0.4095 H   0  0  0  0  0  0  0  0  0  0  0  0
    0.5704   -1.1335   -0.9297 H   0  0  0  0  0  0  0  0  0  0  0  0
    1.8035   -2.3786   -1.3445 H   0  0  0  0  0  0  0  0  0  0  0  0
   -2.2387   -3.6959    1.3046 H   0  0  0  0  0  0  0  0  0  0  0  0
   -2.5477   -4.9104    0.0617 H   0  0  0  0  0  0  0  0  0  0  0  0
   -2.0779   -2.9798   -1.6278 H   0  0  0  0  0  0  0  0  0  0  0  0
   -2.2348   -1.4376    0.8890 H   0  0  0  0  0  0  0  0  0  0  0  0
   -2.4646   -0.7757   -0.6331 H   0  0  0  0  0  0  0  0  0  0  0  0
   -4.3327   -1.3986    0.8266 H   0  0  0  0  0  0  0  0  0  0  0  0
   -6.4910   -2.8291   -0.7184 H   0  0  0  0  0  0  0  0  0  0  0  0
   -6.8377   -1.8679    2.1897 H   0  0  0  0  0  0  0  0  0  0  0  0
   -8.0806   -2.4794    1.0743 H   0  0  0  0  0  0  0  0  0  0  0  0
   -7.9132   -4.1454    3.4710 H   0  0  0  0  0  0  0  0  0  0  0  0
   -6.8354   -6.5286    3.6151 H   0  0  0  0  0  0  0  0  0  0  0  0
   -5.1260   -6.7597    1.6390 H   0  0  0  0  0  0  0  0  0  0  0  0
   -4.9728    0.1167   -0.5381 H   0  0  0  0  0  0  0  0  0  0  0  0
   -6.0648    1.2866   -2.5715 H   0  0  0  0  0  0  0  0  0  0  0  0
   -4.5411    1.5954    0.7116 H   0  0  0  0  0  0  0  0  0  0  0  0
   -2.9022    3.7811   -0.5549 H   0  0  0  0  0  0  0  0  0  0  0  0
   -0.5158    3.6823    0.9184 H   0  0  0  0  0  0  0  0  0  0  0  0
    1.0042    2.4854    2.2180 H   0  0  0  0  0  0  0  0  0  0  0  0
    2.0467   -0.1161    1.9442 H   0  0  0  0  0  0  0  0  0  0  0  0
   -1.0139    0.1969    2.4773 H   0  0  0  0  0  0  0  0  0  0  0  0
    0.5752    0.3996    3.2384 H   0  0  0  0  0  0  0  0  0  0  0  0
   -1.7105    3.7120    4.3924 H   0  0  0  0  0  0  0  0  0  0  0  0
   -0.1989    3.7089    3.3490 H   0  0  0  0  0  0  0  0  0  0  0  0
   -4.3685    4.9769    0.8801 H   0  0  0  0  0  0  0  0  0  0  0  0
   -2.7259    4.9980    1.5591 H   0  0  0  0  0  0  0  0  0  0  0  0
   -4.0171    4.7514    4.6282 H   0  0  0  0  0  0  0  0  0  0  0  0
   -5.2526    5.4050    3.5018 H   0  0  0  0  0  0  0  0  0  0  0  0
   -7.9806    2.3796   -0.4878 H   0  0  0  0  0  0  0  0  0  0  0  0
   -8.1908    1.7832   -3.5147 H   0  0  0  0  0  0  0  0  0  0  0  0
   -8.5655    0.4561   -2.4518 H   0  0  0  0  0  0  0  0  0  0  0  0
   -9.8753    2.7448   -1.3245 H   0  0  0  0  0  0  0  0  0  0  0  0
   -9.9362    2.9813   -3.1085 H   0  0  0  0  0  0  0  0  0  0  0  0
  -10.6862    1.4660   -2.3686 H   0  0  0  0  0  0  0  0  0  0  0  0
   -6.8159    3.6089   -3.0249 H   0  0  0  0  0  0  0  0  0  0  0  0
   -7.0039    4.3147   -1.3061 H   0  0  0  0  0  0  0  0  0  0  0  0
   -8.4025    3.9947   -2.3370 H   0  0  0  0  0  0  0  0  0  0  0  0
  1  2  1  0
  2  3  1  0
  3  4  1  0
  4  5  1  0
  5  6  1  0
  6  7  2  0
  6  8  1  0
  8  9  1  0
  9 10  1  0
 10 11  2  0
 10 12  1  0
  5 13  1  0
 13 14  1  0
 14 15  2  0
 14 16  1  0
 16 17  1  0
 17 18  1  0
 18 19  1  0
 19 20  1  0
 20 21  1  0
 21 22  2  0
 21 23  1  0
 23 24  1  0
 24 25  1  0
 25 26  1  0
 26 27  1  0
 27 28  1  0
 28 29  1  0
 28 30  1  0
 30 31  2  0
 30 32  1  0
 32 33  1  0
 33 34  1  0
 34 35  1  0
 35 36  2  0
 36 37  1  0
 37 38  2  0
 38 39  1  0
 33 40  1  0
 40 41  2  0
 40 42  1  0
 42 43  1  0
 43 44  1  0
 44 45  2  0
 44 46  1  0
 46 47  1  0
 47 48  1  0
 48 49  2  0
 48 50  1  0
 50 51  1  0
 51 52  1  0
 52 53  2  0
 52 54  1  0
 51 55  1  0
 55 56  1  0
 56 57  2  0
 56 58  1  0
 47 59  1  0
 59 60  1  0
 60 61  2  0
 60 62  1  0
 43 63  1  0
 63 64  1  0
 64 65  1  0
 63 66  1  0
 20 16  1  0
 54 23  1  0
 39 35  1  0
  1 67  1  0
  1 68  1  0
  2 69  1  0
  2 70  1  0
  3 71  1  0
  3 72  1  0
  4 73  1  0
  4 74  1  0
  5 75  1  6
  8 76  1  0
  9 77  1  0
  9 78  1  0
 12 79  1  0
 12 80  1  0
 13 81  1  0
 16 82  1  1
 17 83  1  0
 17 84  1  0
 18 85  1  0
 18 86  1  0
 19 87  1  0
 19 88  1  0
 23 89  1  1
 24 90  1  0
 24 91  1  0
 27 92  1  0
 27 93  1  0
 28 94  1  6
 29 95  1  0
 29 96  1  0
 32 97  1  0
 33 98  1  6
 34 99  1  0
 34100  1  0
 36101  1  0
 37102  1  0
 38103  1  0
 42104  1  0
 43105  1  6
 46106  1  0
 47107  1  6
 50108  1  0
 51109  1  1
 54110  1  0
 55111  1  0
 55112  1  0
 58113  1  0
 58114  1  0
 59115  1  0
 59116  1  0
 62117  1  0
 62118  1  0
 63119  1  1
 64120  1  0
 64121  1  0
 65122  1  0
 65123  1  0
 65124  1  0
 66125  1  0
 66126  1  0
 66127  1  0
M  END
>  <Ligand ID>  (1) 
LIG0001606

>  <Ligand>  (1) 
CHEMBL1817757

>  <SMILES>  (1) 
NCCC[C@@H](C(=O)NCC(=O)N)NC(=O)[C@@H]1CCCN1C(=O)[C@@H]1CSSC[C@H](N)C(=O)N[C@@H](Cc2ccco2)C(=O)N[C@H](C(=O)N[C@H](C(=O)N[C@H](C(=O)N1)CC(=O)N)CC(=O)N)[C@H](CC)C

>  <CID>  (1) 
53362672.0

>  <ChEMBL ID>  (1) 
nan

>  <InChiKey>  (1) 
HYLBIYFIXBKQIV-DSMBUKBGSA-N

>  <InChi>  (1) 
InChI=1S/C39H61N13O12S2/c1-3-19(2)31-38(62)49-25(15-29(43)54)34(58)48-24(14-28(42)53)35(59)50-26(18-66-65-17-21(41)32(56)47-23(36(60)51-31)13-20-7-6-12-64-20)39(63)52-11-5-9-27(52)37(61)46-22(8-4-10-40)33(57)45-16-30(44)55/h6-7,12,19,21-27,31H,3-5,8-11,13-18,40-41H2,1-2H3,(H2,42,53)(H2,43,54)(H2,44,55)(H,45,57)(H,46,61)(H,47,56)(H,48,58)(H,49,62)(H,50,59)(H,51,60)/t19-,21-,22-,23-,24-,25-,26-,27-,31-/m0/s1

>  <IUPAC Name>  (1) 
(2S)-N-[(2S)-5-amino-1-[(2-amino-2-oxoethyl)amino]-1-oxopentan-2-yl]-1-[(4R,7S,10S,13S,16S,19R)-19-amino-7,10-bis(2-amino-2-oxoethyl)-13-[(2S)-butan-2-yl]-16-(furan-2-ylmethyl)-6,9,12,15,18-pentaoxo-1,2-dithia-5,8,11,14,17-pentazacycloicosane-4-carbonyl]pyrrolidine-2-carboxamide

$$$$
