
     RDKit          3D

 61 64  0  0  0  0  0  0  0  0999 V2000
   -3.5924    1.6710    0.3263 O   0  0  0  0  0  0  0  0  0  0  0  0
   -3.3975    0.5932   -0.5226 C   0  0  2  0  0  0  0  0  0  0  0  0
   -3.8941   -0.6963    0.0734 C   0  0  0  0  0  0  0  0  0  0  0  0
   -5.2150   -0.7244    0.3845 O   0  0  0  0  0  0  0  0  0  0  0  0
   -6.3850   -0.6233   -0.2643 C   0  0  0  0  0  0  0  0  0  0  0  0
   -6.6002   -0.4501   -1.6061 C   0  0  0  0  0  0  0  0  0  0  0  0
   -7.8532   -0.3580   -2.1842 C   0  0  0  0  0  0  0  0  0  0  0  0
   -8.9770   -0.4418   -1.3920 C   0  0  0  0  0  0  0  0  0  0  0  0
   -8.8059   -0.6163   -0.0368 C   0  0  0  0  0  0  0  0  0  0  0  0
   -7.5542   -0.7058    0.5219 C   0  0  0  0  0  0  0  0  0  0  0  0
   -7.7245   -0.8778    1.8989 C   0  0  0  0  0  0  0  0  0  0  0  0
   -9.0832   -0.8891    2.1457 C   0  0  0  0  0  0  0  0  0  0  0  0
   -9.7308   -0.7294    0.9610 N   0  0  0  0  0  0  0  0  0  0  0  0
   -1.9400    0.4578   -0.9275 C   0  0  0  0  0  0  0  0  0  0  0  0
   -1.0346    0.2520    0.1396 N   0  0  0  0  0  0  0  0  0  0  0  0
   -0.8037    1.3138    1.0440 C   0  0  0  0  0  0  0  0  0  0  0  0
   -0.0371    2.4377    0.3436 C   0  0  0  0  0  0  0  0  0  0  0  0
    1.2419    1.8132   -0.0818 C   0  0  0  0  0  0  0  0  0  0  0  0
    2.3122    1.8219    0.7883 C   0  0  0  0  0  0  0  0  0  0  0  0
    3.5312    1.2350    0.4174 C   0  0  0  0  0  0  0  0  0  0  0  0
    3.7137    0.6366   -0.8035 C   0  0  0  0  0  0  0  0  0  0  0  0
    2.6354    0.6353   -1.6647 C   0  0  0  0  0  0  0  0  0  0  0  0
    1.4372    1.2112   -1.3023 C   0  0  0  0  0  0  0  0  0  0  0  0
    4.9009    0.0178   -1.2438 N   0  0  0  0  0  0  0  0  0  0  0  0
    6.0956   -0.1142   -0.5007 C   0  0  0  0  0  0  0  0  0  0  0  0
    6.2411    0.3150    0.6645 O   0  0  0  0  0  0  0  0  0  0  0  0
    7.3007   -0.8043   -1.0913 C   0  0  0  0  0  0  0  0  0  0  0  0
    8.3340   -0.7630   -0.0266 C   0  0  0  0  0  0  0  0  0  0  0  0
    9.2574    0.2513    0.1014 C   0  0  0  0  0  0  0  0  0  0  0  0
   10.1812    0.1928    1.1418 C   0  0  0  0  0  0  0  0  0  0  0  0
   10.1690   -0.8782    2.0393 C   0  0  0  0  0  0  0  0  0  0  0  0
    9.2050   -1.8723    1.8501 C   0  0  0  0  0  0  0  0  0  0  0  0
    8.3237   -1.8072    0.8496 N   0  0  0  0  0  0  0  0  0  0  0  0
   -3.4318    2.4952   -0.2099 H   0  0  0  0  0  0  0  0  0  0  0  0
   -3.9455    0.7914   -1.4542 H   0  0  0  0  0  0  0  0  0  0  0  0
   -3.5927   -1.5759   -0.5775 H   0  0  0  0  0  0  0  0  0  0  0  0
   -3.3157   -0.9136    1.0272 H   0  0  0  0  0  0  0  0  0  0  0  0
   -5.7622   -0.3875   -2.2722 H   0  0  0  0  0  0  0  0  0  0  0  0
   -7.9692   -0.2202   -3.2545 H   0  0  0  0  0  0  0  0  0  0  0  0
   -9.9591   -0.3713   -1.8372 H   0  0  0  0  0  0  0  0  0  0  0  0
   -6.9508   -0.9840    2.6514 H   0  0  0  0  0  0  0  0  0  0  0  0
   -9.5606   -1.0063    3.1237 H   0  0  0  0  0  0  0  0  0  0  0  0
  -10.7674   -0.6947    0.8004 H   0  0  0  0  0  0  0  0  0  0  0  0
   -1.8743   -0.4249   -1.6005 H   0  0  0  0  0  0  0  0  0  0  0  0
   -1.6956    1.3481   -1.5405 H   0  0  0  0  0  0  0  0  0  0  0  0
   -0.8873   -0.7048    0.4614 H   0  0  0  0  0  0  0  0  0  0  0  0
   -0.0956    0.9324    1.8239 H   0  0  0  0  0  0  0  0  0  0  0  0
   -1.6527    1.7419    1.5681 H   0  0  0  0  0  0  0  0  0  0  0  0
   -0.6067    2.8457   -0.5078 H   0  0  0  0  0  0  0  0  0  0  0  0
    0.1624    3.2163    1.1121 H   0  0  0  0  0  0  0  0  0  0  0  0
    2.1957    2.2912    1.7650 H   0  0  0  0  0  0  0  0  0  0  0  0
    4.3033    1.2804    1.1324 H   0  0  0  0  0  0  0  0  0  0  0  0
    2.7136    0.1788   -2.6476 H   0  0  0  0  0  0  0  0  0  0  0  0
    0.6343    1.1795   -2.0202 H   0  0  0  0  0  0  0  0  0  0  0  0
    4.9357   -0.3997   -2.2221 H   0  0  0  0  0  0  0  0  0  0  0  0
    7.0306   -1.8046   -1.4285 H   0  0  0  0  0  0  0  0  0  0  0  0
    7.6252   -0.2193   -1.9775 H   0  0  0  0  0  0  0  0  0  0  0  0
    9.2532    1.0665   -0.5970 H   0  0  0  0  0  0  0  0  0  0  0  0
   10.9150    0.9727    1.2664 H   0  0  0  0  0  0  0  0  0  0  0  0
   10.8904   -0.9237    2.8502 H   0  0  0  0  0  0  0  0  0  0  0  0
    9.1559   -2.7247    2.5219 H   0  0  0  0  0  0  0  0  0  0  0  0
  1  2  1  0
  2  3  1  0
  3  4  1  0
  4  5  1  0
  5  6  2  0
  6  7  1  0
  7  8  2  0
  8  9  1  0
  9 10  2  0
 10 11  1  0
 11 12  2  0
 12 13  1  0
  2 14  1  0
 14 15  1  0
 15 16  1  0
 16 17  1  0
 17 18  1  0
 18 19  2  0
 19 20  1  0
 20 21  2  0
 21 22  1  0
 22 23  2  0
 21 24  1  0
 24 25  1  0
 25 26  2  0
 25 27  1  0
 27 28  1  0
 28 29  2  0
 29 30  1  0
 30 31  2  0
 31 32  1  0
 32 33  2  0
 10  5  1  0
 23 18  1  0
 33 28  1  0
 13  9  1  0
  1 34  1  0
  2 35  1  6
  3 36  1  0
  3 37  1  0
  6 38  1  0
  7 39  1  0
  8 40  1  0
 11 41  1  0
 12 42  1  0
 13 43  1  0
 14 44  1  0
 14 45  1  0
 15 46  1  0
 16 47  1  0
 16 48  1  0
 17 49  1  0
 17 50  1  0
 19 51  1  0
 20 52  1  0
 22 53  1  0
 23 54  1  0
 24 55  1  0
 27 56  1  0
 27 57  1  0
 29 58  1  0
 30 59  1  0
 31 60  1  0
 32 61  1  0
M  END
>  <Ligand ID>  (1) 
LIG0002783

>  <Ligand>  (1) 
CHEMBL466704

>  <SMILES>  (1) 
O[C@H](COc1cccc2c1cc[nH]2)CNCCc1ccc(cc1)NC(=O)Cc1ccccn1

>  <CID>  (1) 
44574651.0

>  <ChEMBL ID>  (1) 
nan

>  <InChiKey>  (1) 
CCCJIBQGIOQMQF-QFIPXVFZSA-N

>  <InChi>  (1) 
InChI=1S/C26H28N4O3/c31-22(18-33-25-6-3-5-24-23(25)12-15-29-24)17-27-14-11-19-7-9-20(10-8-19)30-26(32)16-21-4-1-2-13-28-21/h1-10,12-13,15,22,27,29,31H,11,14,16-18H2,(H,30,32)/t22-/m0/s1

>  <IUPAC Name>  (1) 
N-[4-[2-[[(2S)-2-hydroxy-3-(1H-indol-4-yloxy)propyl]amino]ethyl]phenyl]-2-pyridin-2-ylacetamide

$$$$
