
     RDKit          3D

 49 52  0  0  0  0  0  0  0  0999 V2000
    0.4647    2.1499   -0.6131 O   0  0  0  0  0  0  0  0  0  0  0  0
    0.5471    0.9410   -0.2549 C   0  0  0  0  0  0  0  0  0  0  0  0
   -0.6443    0.2398    0.0701 N   0  0  0  0  0  0  0  0  0  0  0  0
   -0.4605   -1.1672    0.4556 C   0  0  0  0  0  0  0  0  0  0  0  0
   -0.8149   -1.4174    1.9061 C   0  0  0  0  0  0  0  0  0  0  0  0
   -0.6384   -2.9092    2.1007 C   0  0  0  0  0  0  0  0  0  0  0  0
   -1.7089   -3.5767    1.5141 O   0  0  0  0  0  0  0  0  0  0  0  0
   -2.2743   -2.8865    0.4616 C   0  0  0  0  0  0  0  0  0  0  0  0
   -1.2617   -2.1098   -0.3661 C   0  0  0  0  0  0  0  0  0  0  0  0
   -1.9513    0.8044    0.0528 C   0  0  0  0  0  0  0  0  0  0  0  0
   -2.4306    1.3201   -1.2696 C   0  0  0  0  0  0  0  0  0  0  0  0
   -3.8801    1.7644   -1.0082 C   0  0  0  0  0  0  0  0  0  0  0  0
   -3.9204    3.0349   -0.2020 C   0  0  0  0  0  0  0  0  0  0  0  0
   -2.5510    3.2293    0.3814 C   0  0  0  0  0  0  0  0  0  0  0  0
   -2.1186    1.9395    1.0538 C   0  0  0  0  0  0  0  0  0  0  0  0
    1.8791    0.3714   -0.2028 C   0  0  0  0  0  0  0  0  0  0  0  0
    2.4493   -0.0113    0.9722 N   0  0  0  0  0  0  0  0  0  0  0  0
    3.6183   -0.4562    0.6925 O   0  0  0  0  0  0  0  0  0  0  0  0
    3.8862   -0.4076   -0.5703 C   0  0  0  0  0  0  0  0  0  0  0  0
    2.7917    0.1203   -1.2039 C   0  0  0  0  0  0  0  0  0  0  0  0
    5.1957   -0.8670   -1.1492 C   0  0  0  0  0  0  0  0  0  0  0  0
    6.3098   -1.2177   -0.2763 C   0  0  0  0  0  0  0  0  0  0  0  0
    6.3597    0.1680   -0.8814 C   0  0  0  0  0  0  0  0  0  0  0  0
    0.6153   -1.3807    0.3758 H   0  0  0  0  0  0  0  0  0  0  0  0
   -0.1803   -0.8573    2.6000 H   0  0  0  0  0  0  0  0  0  0  0  0
   -1.8792   -1.2250    2.1222 H   0  0  0  0  0  0  0  0  0  0  0  0
    0.3296   -3.1521    1.5840 H   0  0  0  0  0  0  0  0  0  0  0  0
   -0.5055   -3.2008    3.1464 H   0  0  0  0  0  0  0  0  0  0  0  0
   -3.1544   -2.2902    0.7588 H   0  0  0  0  0  0  0  0  0  0  0  0
   -2.6930   -3.6421   -0.2632 H   0  0  0  0  0  0  0  0  0  0  0  0
   -1.8548   -1.5752   -1.1505 H   0  0  0  0  0  0  0  0  0  0  0  0
   -0.6282   -2.8717   -0.8832 H   0  0  0  0  0  0  0  0  0  0  0  0
   -2.6794    0.0161    0.3564 H   0  0  0  0  0  0  0  0  0  0  0  0
   -1.8284    2.1399   -1.6994 H   0  0  0  0  0  0  0  0  0  0  0  0
   -2.5295    0.5516   -2.0644 H   0  0  0  0  0  0  0  0  0  0  0  0
   -4.3601    1.9088   -1.9854 H   0  0  0  0  0  0  0  0  0  0  0  0
   -4.3125    0.9118   -0.4278 H   0  0  0  0  0  0  0  0  0  0  0  0
   -4.6169    2.9237    0.6810 H   0  0  0  0  0  0  0  0  0  0  0  0
   -4.2784    3.8721   -0.8054 H   0  0  0  0  0  0  0  0  0  0  0  0
   -2.6608    3.9617    1.2283 H   0  0  0  0  0  0  0  0  0  0  0  0
   -1.8156    3.6484   -0.3083 H   0  0  0  0  0  0  0  0  0  0  0  0
   -2.9064    1.7096    1.8100 H   0  0  0  0  0  0  0  0  0  0  0  0
   -1.1768    2.1716    1.5938 H   0  0  0  0  0  0  0  0  0  0  0  0
    2.6650    0.3004   -2.2576 H   0  0  0  0  0  0  0  0  0  0  0  0
    5.1910   -1.2057   -2.1940 H   0  0  0  0  0  0  0  0  0  0  0  0
    7.1118   -1.9104   -0.6053 H   0  0  0  0  0  0  0  0  0  0  0  0
    6.1838   -1.2174    0.8467 H   0  0  0  0  0  0  0  0  0  0  0  0
    6.0511    1.0438   -0.3140 H   0  0  0  0  0  0  0  0  0  0  0  0
    7.0657    0.3126   -1.7406 H   0  0  0  0  0  0  0  0  0  0  0  0
  1  2  2  0
  2  3  1  0
  3  4  1  0
  4  5  1  0
  5  6  1  0
  6  7  1  0
  7  8  1  0
  8  9  1  0
  3 10  1  0
 10 11  1  0
 11 12  1  0
 12 13  1  0
 13 14  1  0
 14 15  1  0
  2 16  1  0
 16 17  2  0
 17 18  1  0
 18 19  1  0
 19 20  2  0
 19 21  1  0
 21 22  1  0
 22 23  1  0
  9  4  1  0
 15 10  1  0
 20 16  1  0
 23 21  1  0
  4 24  1  0
  5 25  1  0
  5 26  1  0
  6 27  1  0
  6 28  1  0
  8 29  1  0
  8 30  1  0
  9 31  1  0
  9 32  1  0
 10 33  1  0
 11 34  1  0
 11 35  1  0
 12 36  1  0
 12 37  1  0
 13 38  1  0
 13 39  1  0
 14 40  1  0
 14 41  1  0
 15 42  1  0
 15 43  1  0
 20 44  1  0
 21 45  1  0
 22 46  1  0
 22 47  1  0
 23 48  1  0
 23 49  1  0
M  END
>  <Ligand ID>  (1) 
LIG0001366

>  <Ligand>  (1) 
MLS003675925

>  <SMILES>  (1) 
O=C(N(C1CCOCC1)C1CCCCC1)c1noc(c1)C1CC1

>  <CID>  (1) 
25110500.0

>  <ChEMBL ID>  (1) 
nan

>  <InChiKey>  (1) 
VCKBQXZZHJAFAK-UHFFFAOYSA-N

>  <InChi>  (1) 
InChI=1S/C18H26N2O3/c21-18(16-12-17(23-19-16)13-6-7-13)20(14-4-2-1-3-5-14)15-8-10-22-11-9-15/h12-15H,1-11H2

>  <IUPAC Name>  (1) 
N-cyclohexyl-5-cyclopropyl-N-(oxan-4-yl)-1,2-oxazole-3-carboxamide

$$$$
