
     RDKit          3D

 64 68  0  0  0  0  0  0  0  0999 V2000
   -9.1797    4.3249    0.5018 Cl  0  0  0  0  0  0  0  0  0  0  0  0
   -8.1239    2.9620    0.2544 C   0  0  0  0  0  0  0  0  0  0  0  0
   -6.7680    3.1208    0.4383 C   0  0  0  0  0  0  0  0  0  0  0  0
   -5.9013    2.0798    0.2556 C   0  0  0  0  0  0  0  0  0  0  0  0
   -6.3212    0.8045   -0.1235 C   0  0  0  0  0  0  0  0  0  0  0  0
   -7.6889    0.6625   -0.3042 C   0  0  0  0  0  0  0  0  0  0  0  0
   -8.5718    1.7095   -0.1217 C   0  0  0  0  0  0  0  0  0  0  0  0
   -7.8738   -0.6207   -0.6608 N   0  0  0  0  0  0  0  0  0  0  0  0
   -6.6895   -1.2337   -0.6977 C   0  0  0  0  0  0  0  0  0  0  0  0
   -6.4889   -2.4538   -0.9972 O   0  0  0  0  0  0  0  0  0  0  0  0
   -5.6928   -0.3612   -0.3639 N   0  0  0  0  0  0  0  0  0  0  0  0
   -4.2881   -0.6085   -0.2816 C   0  0  0  0  0  0  0  0  0  0  0  0
   -3.4318    0.1575   -1.2374 C   0  0  0  0  0  0  0  0  0  0  0  0
   -2.0885   -0.5853   -1.2883 C   0  0  0  0  0  0  0  0  0  0  0  0
   -1.5085   -0.5706    0.0075 N   0  0  0  0  0  0  0  0  0  0  0  0
   -2.3334   -1.1529    0.9910 C   0  0  0  0  0  0  0  0  0  0  0  0
   -3.7050   -0.4641    1.0949 C   0  0  0  0  0  0  0  0  0  0  0  0
   -0.1217   -0.5788    0.1243 C   0  0  0  0  0  0  0  0  0  0  0  0
    0.4804   -0.5630    1.4755 C   0  0  0  0  0  0  0  0  0  0  0  0
    1.9596   -0.2718    1.2924 C   0  0  0  0  0  0  0  0  0  0  0  0
    2.4816   -1.3337    0.4543 N   0  0  0  0  0  0  0  0  0  0  0  0
    1.5992   -2.4062    0.0340 C   0  0  0  0  0  0  0  0  0  0  0  0
    0.4207   -1.7555   -0.6583 C   0  0  0  0  0  0  0  0  0  0  0  0
    3.8429   -1.3354    0.0415 C   0  0  0  0  0  0  0  0  0  0  0  0
    4.3462   -2.2314   -0.6847 O   0  0  0  0  0  0  0  0  0  0  0  0
    4.6952   -0.2776    0.4615 N   0  0  0  0  0  0  0  0  0  0  0  0
    6.0651   -0.1845    0.1070 C   0  0  0  0  0  0  0  0  0  0  0  0
    6.9701   -0.7925    0.9650 C   0  0  0  0  0  0  0  0  0  0  0  0
    8.3240   -0.7828    0.7490 C   0  0  0  0  0  0  0  0  0  0  0  0
    8.7952   -0.1333   -0.3799 C   0  0  0  0  0  0  0  0  0  0  0  0
    7.8847    0.4771   -1.2410 C   0  0  0  0  0  0  0  0  0  0  0  0
    6.5274    0.4614   -1.0148 C   0  0  0  0  0  0  0  0  0  0  0  0
    8.5598    1.2926   -2.6708 S   0  0  0  0  0  0  0  0  0  0  0  0
    8.9447    3.0394   -2.3281 C   0  0  0  0  0  0  0  0  0  0  0  0
    9.4631    3.5926   -3.4918 F   0  0  0  0  0  0  0  0  0  0  0  0
    7.8496    3.7331   -1.8977 F   0  0  0  0  0  0  0  0  0  0  0  0
    9.9432    3.1143   -1.3627 F   0  0  0  0  0  0  0  0  0  0  0  0
   -6.3673    4.0874    0.7343 H   0  0  0  0  0  0  0  0  0  0  0  0
   -4.8591    2.2468    0.4087 H   0  0  0  0  0  0  0  0  0  0  0  0
   -9.6373    1.5947   -0.2636 H   0  0  0  0  0  0  0  0  0  0  0  0
   -8.8195   -1.0239   -0.8659 H   0  0  0  0  0  0  0  0  0  0  0  0
   -4.1241   -1.6951   -0.5434 H   0  0  0  0  0  0  0  0  0  0  0  0
   -3.8622    0.1252   -2.2562 H   0  0  0  0  0  0  0  0  0  0  0  0
   -3.1609    1.1805   -0.9099 H   0  0  0  0  0  0  0  0  0  0  0  0
   -1.4523   -0.0641   -2.0100 H   0  0  0  0  0  0  0  0  0  0  0  0
   -2.3598   -1.6254   -1.5721 H   0  0  0  0  0  0  0  0  0  0  0  0
   -2.6080   -2.1787    0.6011 H   0  0  0  0  0  0  0  0  0  0  0  0
   -1.8724   -1.3249    1.9587 H   0  0  0  0  0  0  0  0  0  0  0  0
   -3.4794    0.5566    1.4085 H   0  0  0  0  0  0  0  0  0  0  0  0
   -4.3030   -1.0382    1.8149 H   0  0  0  0  0  0  0  0  0  0  0  0
    0.2822    0.3268   -0.4179 H   0  0  0  0  0  0  0  0  0  0  0  0
    0.4241   -1.4877    2.0605 H   0  0  0  0  0  0  0  0  0  0  0  0
    0.0731    0.3143    2.0256 H   0  0  0  0  0  0  0  0  0  0  0  0
    2.0901    0.7114    0.7614 H   0  0  0  0  0  0  0  0  0  0  0  0
    2.4889   -0.1830    2.2578 H   0  0  0  0  0  0  0  0  0  0  0  0
    2.0917   -3.0862   -0.6897 H   0  0  0  0  0  0  0  0  0  0  0  0
    1.1945   -2.9778    0.9055 H   0  0  0  0  0  0  0  0  0  0  0  0
   -0.3939   -2.5169   -0.8184 H   0  0  0  0  0  0  0  0  0  0  0  0
    0.7051   -1.4695   -1.7127 H   0  0  0  0  0  0  0  0  0  0  0  0
    4.2735    0.4702    1.0680 H   0  0  0  0  0  0  0  0  0  0  0  0
    6.6231   -1.3104    1.8609 H   0  0  0  0  0  0  0  0  0  0  0  0
    9.0067   -1.2730    1.4478 H   0  0  0  0  0  0  0  0  0  0  0  0
    9.8546   -0.1294   -0.5430 H   0  0  0  0  0  0  0  0  0  0  0  0
    5.8157    0.9354   -1.6828 H   0  0  0  0  0  0  0  0  0  0  0  0
  1  2  1  0
  2  3  2  0
  3  4  1  0
  4  5  2  0
  5  6  1  0
  6  7  2  0
  6  8  1  0
  8  9  1  0
  9 10  2  0
  9 11  1  0
 11 12  1  0
 12 13  1  0
 13 14  1  0
 14 15  1  0
 15 16  1  0
 16 17  1  0
 15 18  1  0
 18 19  1  0
 19 20  1  0
 20 21  1  0
 21 22  1  0
 22 23  1  0
 21 24  1  0
 24 25  2  0
 24 26  1  0
 26 27  1  0
 27 28  2  0
 28 29  1  0
 29 30  2  0
 30 31  1  0
 31 32  2  0
 31 33  1  0
 33 34  1  0
 34 35  1  0
 34 36  1  0
 34 37  1  0
  7  2  1  0
 17 12  1  0
 23 18  1  0
 32 27  1  0
 11  5  1  0
  3 38  1  0
  4 39  1  0
  7 40  1  0
  8 41  1  0
 12 42  1  0
 13 43  1  0
 13 44  1  0
 14 45  1  0
 14 46  1  0
 16 47  1  0
 16 48  1  0
 17 49  1  0
 17 50  1  0
 18 51  1  0
 19 52  1  0
 19 53  1  0
 20 54  1  0
 20 55  1  0
 22 56  1  0
 22 57  1  0
 23 58  1  0
 23 59  1  0
 26 60  1  0
 28 61  1  0
 29 62  1  0
 30 63  1  0
 32 64  1  0
M  END
>  <Ligand ID>  (1) 
LIG0000856

>  <Ligand>  (1) 
CHEMBL487986

>  <SMILES>  (1) 
Clc1ccc2c(c1)[nH]c(=O)n2C1CCN(CC1)C1CCN(CC1)C(=O)Nc1cccc(c1)SC(F)(F)F

>  <CID>  (1) 
44589646.0

>  <ChEMBL ID>  (1) 
nan

>  <InChiKey>  (1) 
GIWVDIDTRYDGRF-UHFFFAOYSA-N

>  <InChi>  (1) 
InChI=1S/C25H27ClF3N5O2S/c26-16-4-5-22-21(14-16)31-24(36)34(22)19-8-10-32(11-9-19)18-6-12-33(13-7-18)23(35)30-17-2-1-3-20(15-17)37-25(27,28)29/h1-5,14-15,18-19H,6-13H2,(H,30,35)(H,31,36)

>  <IUPAC Name>  (1) 
4-[4-(5-chloro-2-oxo-3H-benzimidazol-1-yl)piperidin-1-yl]-N-[3-(trifluoromethylsulfanyl)phenyl]piperidine-1-carboxamide

$$$$
