
     RDKit          3D

 62 64  0  0  0  0  0  0  0  0999 V2000
   -6.8064   -2.0493    0.6651 O   0  0  0  0  0  0  0  0  0  0  0  0
   -5.4413   -1.7508    0.7658 C   0  0  0  0  0  0  0  0  0  0  0  0
   -5.2389   -0.2769    0.6039 C   0  0  0  0  0  0  0  0  0  0  0  0
   -5.6680    0.1431   -0.7827 C   0  0  0  0  0  0  0  0  0  0  0  0
   -7.0337   -0.1090   -0.8631 O   0  0  0  0  0  0  0  0  0  0  0  0
   -7.6521    0.1834   -2.3997 P   0  0  0  0  0  0  0  0  0  0  0  0
   -7.5767    1.7577   -2.7007 C   0  0  0  0  0  0  0  0  0  0  0  0
   -9.2558   -0.3822   -2.3911 O   0  0  0  0  0  0  0  0  0  0  0  0
   -6.7887   -0.6705   -3.6018 O   0  0  0  0  0  0  0  0  0  0  0  0
   -3.7786    0.0785    0.7647 C   0  0  0  0  0  0  0  0  0  0  0  0
   -2.8725   -0.5811   -0.2229 C   0  0  0  0  0  0  0  0  0  0  0  0
   -1.4686   -0.1503    0.0485 C   0  0  0  0  0  0  0  0  0  0  0  0
   -1.1060    0.6781    1.0657 C   0  0  0  0  0  0  0  0  0  0  0  0
    0.2074    1.0435    1.2724 C   0  0  0  0  0  0  0  0  0  0  0  0
    1.2026    0.5725    0.4415 C   0  0  0  0  0  0  0  0  0  0  0  0
    0.8463   -0.2629   -0.5864 C   0  0  0  0  0  0  0  0  0  0  0  0
   -0.4724   -0.6350   -0.8005 C   0  0  0  0  0  0  0  0  0  0  0  0
   -0.9255   -1.7079   -2.1221 Cl  0  0  0  0  0  0  0  0  0  0  0  0
    2.5791    0.9835    0.6947 C   0  0  0  0  0  0  0  0  0  0  0  0
    3.5184    1.1338   -0.3053 C   0  0  0  0  0  0  0  0  0  0  0  0
    4.8284    1.5327   -0.0161 C   0  0  0  0  0  0  0  0  0  0  0  0
    5.1820    1.7788    1.2929 C   0  0  0  0  0  0  0  0  0  0  0  0
    4.2464    1.6326    2.3237 C   0  0  0  0  0  0  0  0  0  0  0  0
    2.9592    1.2367    2.0048 C   0  0  0  0  0  0  0  0  0  0  0  0
    6.8167    2.3030    1.7825 S   0  0  0  0  0  0  0  0  0  0  0  0
    7.8012    0.8131    2.0943 C   0  0  0  0  0  0  0  0  0  0  0  0
    7.9811    0.1033    0.8031 C   0  0  0  0  0  0  0  0  0  0  0  0
    7.1237   -0.8648    0.3370 C   0  0  0  0  0  0  0  0  0  0  0  0
    7.3660   -1.4836   -0.8938 C   0  0  0  0  0  0  0  0  0  0  0  0
    8.4874   -1.0975   -1.6287 C   0  0  0  0  0  0  0  0  0  0  0  0
    9.3606   -0.1260   -1.1763 C   0  0  0  0  0  0  0  0  0  0  0  0
    9.0942    0.4636    0.0389 C   0  0  0  0  0  0  0  0  0  0  0  0
   -5.9538    0.4751    1.6273 N   0  0  0  0  0  0  0  0  0  0  0  0
   -6.8979   -3.0092    0.4493 H   0  0  0  0  0  0  0  0  0  0  0  0
   -4.8857   -2.2794   -0.0320 H   0  0  0  0  0  0  0  0  0  0  0  0
   -5.0999   -2.1545    1.7209 H   0  0  0  0  0  0  0  0  0  0  0  0
   -5.0909   -0.4056   -1.5433 H   0  0  0  0  0  0  0  0  0  0  0  0
   -5.5171    1.2231   -0.9599 H   0  0  0  0  0  0  0  0  0  0  0  0
   -8.1935    2.1400   -3.5323 H   0  0  0  0  0  0  0  0  0  0  0  0
   -6.9767    2.4746   -2.1631 H   0  0  0  0  0  0  0  0  0  0  0  0
   -9.6924   -0.0062   -1.5855 H   0  0  0  0  0  0  0  0  0  0  0  0
   -7.1686   -1.6019   -3.5861 H   0  0  0  0  0  0  0  0  0  0  0  0
   -3.5155   -0.2102    1.8240 H   0  0  0  0  0  0  0  0  0  0  0  0
   -3.6587    1.1909    0.7679 H   0  0  0  0  0  0  0  0  0  0  0  0
   -2.9554   -1.6725   -0.2430 H   0  0  0  0  0  0  0  0  0  0  0  0
   -3.1093   -0.1276   -1.2267 H   0  0  0  0  0  0  0  0  0  0  0  0
   -1.8558    1.0560    1.7223 H   0  0  0  0  0  0  0  0  0  0  0  0
    0.4189    1.7166    2.1174 H   0  0  0  0  0  0  0  0  0  0  0  0
    1.5934   -0.6483   -1.2517 H   0  0  0  0  0  0  0  0  0  0  0  0
    3.2098    0.9309   -1.3402 H   0  0  0  0  0  0  0  0  0  0  0  0
    5.5641    1.6505   -0.7951 H   0  0  0  0  0  0  0  0  0  0  0  0
    4.5292    1.8289    3.3685 H   0  0  0  0  0  0  0  0  0  0  0  0
    2.2672    1.1374    2.8431 H   0  0  0  0  0  0  0  0  0  0  0  0
    7.2565    0.1090    2.7829 H   0  0  0  0  0  0  0  0  0  0  0  0
    8.8030    1.0600    2.5312 H   0  0  0  0  0  0  0  0  0  0  0  0
    6.2551   -1.1433    0.9379 H   0  0  0  0  0  0  0  0  0  0  0  0
    6.7043   -2.2507   -1.2834 H   0  0  0  0  0  0  0  0  0  0  0  0
    8.6868   -1.5722   -2.5895 H   0  0  0  0  0  0  0  0  0  0  0  0
   10.2380    0.1862   -1.7365 H   0  0  0  0  0  0  0  0  0  0  0  0
    9.7922    1.2311    0.3872 H   0  0  0  0  0  0  0  0  0  0  0  0
   -6.9103    0.0894    1.8060 H   0  0  0  0  0  0  0  0  0  0  0  0
   -5.3528    0.4771    2.4743 H   0  0  0  0  0  0  0  0  0  0  0  0
  1  2  1  0
  2  3  1  0
  3  4  1  0
  4  5  1  0
  5  6  1  0
  6  7  2  0
  6  8  1  0
  6  9  1  0
  3 10  1  0
 10 11  1  0
 11 12  1  0
 12 13  2  0
 13 14  1  0
 14 15  2  0
 15 16  1  0
 16 17  2  0
 17 18  1  0
 15 19  1  0
 19 20  2  0
 20 21  1  0
 21 22  2  0
 22 23  1  0
 23 24  2  0
 22 25  1  0
 25 26  1  0
 26 27  1  0
 27 28  2  0
 28 29  1  0
 29 30  2  0
 30 31  1  0
 31 32  2  0
  3 33  1  0
 17 12  1  0
 24 19  1  0
 32 27  1  0
  1 34  1  0
  2 35  1  0
  2 36  1  0
  4 37  1  0
  4 38  1  0
  7 39  1  0
  7 40  1  0
  8 41  1  0
  9 42  1  0
 10 43  1  0
 10 44  1  0
 11 45  1  0
 11 46  1  0
 13 47  1  0
 14 48  1  0
 16 49  1  0
 20 50  1  0
 21 51  1  0
 23 52  1  0
 24 53  1  0
 26 54  1  0
 26 55  1  0
 28 56  1  0
 29 57  1  0
 30 58  1  0
 31 59  1  0
 32 60  1  0
 33 61  1  0
 33 62  1  0
M  END
>  <Ligand ID>  (1) 
LIG0005658

>  <Ligand>  (1) 
CID 46886020

>  <SMILES>  (1) 
OCC(COP(=C)(O)O)(CCc1ccc(cc1Cl)c1ccc(cc1)SCc1ccccc1)N

>  <CID>  (1) 
46886020.0

>  <ChEMBL ID>  (1) 
nan

>  <InChiKey>  (1) 
WEYWOPITACEWLF-UHFFFAOYSA-N

>  <InChi>  (1) 
InChI=1S/C25H29ClNO4PS/c1-32(29,30)31-18-25(27,17-28)14-13-21-7-8-22(15-24(21)26)20-9-11-23(12-10-20)33-16-19-5-3-2-4-6-19/h2-12,15,28-30H,1,13-14,16-18,27H2

>  <IUPAC Name>  (1) 
2-amino-4-[4-(4-benzylsulfanylphenyl)-2-chlorophenyl]-2-[[dihydroxy(methylidene)-lambda5-phosphanyl]oxymethyl]butan-1-ol

$$$$
