
     RDKit          3D

 31 33  0  0  0  0  0  0  0  0999 V2000
    5.7519   -0.1535   -0.0559 F   0  0  0  0  0  0  0  0  0  0  0  0
    4.6146   -0.9331    0.0047 C   0  0  0  0  0  0  0  0  0  0  0  0
    3.4235   -0.0340    0.0973 C   0  0  0  0  0  0  0  0  0  0  0  0
    3.6040    1.3382    0.2991 C   0  0  0  0  0  0  0  0  0  0  0  0
    2.5287    2.2010    0.3900 C   0  0  0  0  0  0  0  0  0  0  0  0
    1.3025    1.6686    0.2767 N   0  0  0  0  0  0  0  0  0  0  0  0
    1.1120    0.3326    0.0798 C   0  0  0  0  0  0  0  0  0  0  0  0
    2.1720   -0.5164   -0.0095 N   0  0  0  0  0  0  0  0  0  0  0  0
   -0.2098   -0.1893   -0.0348 N   0  0  0  0  0  0  0  0  0  0  0  0
   -0.6265   -1.5707   -0.2451 C   0  0  0  0  0  0  0  0  0  0  0  0
   -1.9771   -1.4914   -0.9279 C   0  0  0  0  0  0  0  0  0  0  0  0
   -2.3462   -0.0240   -1.0074 C   0  0  0  0  0  0  0  0  0  0  0  0
   -1.4269    0.5758    0.0378 C   0  0  0  0  0  0  0  0  0  0  0  0
   -2.2138    0.3010    1.3013 C   0  0  0  0  0  0  0  0  0  0  0  0
   -3.5325    0.7609    0.9011 N   0  0  0  0  0  0  0  0  0  0  0  0
   -3.7141    0.2675   -0.4542 C   0  0  0  0  0  0  0  0  0  0  0  0
    4.4920   -1.7006   -1.1508 F   0  0  0  0  0  0  0  0  0  0  0  0
    4.6768   -1.8278    1.0620 F   0  0  0  0  0  0  0  0  0  0  0  0
    4.6256    1.7253    0.3854 H   0  0  0  0  0  0  0  0  0  0  0  0
    2.6546    3.2758    0.5476 H   0  0  0  0  0  0  0  0  0  0  0  0
   -0.6660   -2.1288    0.7036 H   0  0  0  0  0  0  0  0  0  0  0  0
    0.0706   -2.1157   -0.9100 H   0  0  0  0  0  0  0  0  0  0  0  0
   -1.9917   -1.9904   -1.9085 H   0  0  0  0  0  0  0  0  0  0  0  0
   -2.7712   -1.9709   -0.2889 H   0  0  0  0  0  0  0  0  0  0  0  0
   -2.1876    0.4017   -2.0153 H   0  0  0  0  0  0  0  0  0  0  0  0
   -1.2978    1.6616   -0.0607 H   0  0  0  0  0  0  0  0  0  0  0  0
   -1.8436    0.8442    2.1717 H   0  0  0  0  0  0  0  0  0  0  0  0
   -2.2596   -0.8064    1.4933 H   0  0  0  0  0  0  0  0  0  0  0  0
   -3.4688    1.8148    0.8068 H   0  0  0  0  0  0  0  0  0  0  0  0
   -4.2356    0.9883   -1.1176 H   0  0  0  0  0  0  0  0  0  0  0  0
   -4.2600   -0.7043   -0.3717 H   0  0  0  0  0  0  0  0  0  0  0  0
  1  2  1  0
  2  3  1  0
  3  4  2  0
  4  5  1  0
  5  6  2  0
  6  7  1  0
  7  8  2  0
  7  9  1  0
  9 10  1  0
 10 11  1  0
 11 12  1  0
 12 13  1  0
 13 14  1  0
 14 15  1  0
 15 16  1  0
  2 17  1  0
  2 18  1  0
  8  3  1  0
 13  9  1  0
 16 12  1  0
  4 19  1  0
  5 20  1  0
 10 21  1  0
 10 22  1  0
 11 23  1  0
 11 24  1  0
 12 25  1  0
 13 26  1  0
 14 27  1  0
 14 28  1  0
 15 29  1  0
 16 30  1  0
 16 31  1  0
M  END
>  <Ligand ID>  (1) 
LIG0003128

>  <Ligand>  (1) 
CHEMBL208936

>  <SMILES>  (1) 
FC(c1ccnc(n1)N1CCC2C1CNC2)(F)F

>  <CID>  (1) 
44412150.0

>  <ChEMBL ID>  (1) 
nan

>  <InChiKey>  (1) 
LGUHTSNWHUTCTC-UHFFFAOYSA-N

>  <InChi>  (1) 
InChI=1S/C11H13F3N4/c12-11(13,14)9-1-3-16-10(17-9)18-4-2-7-5-15-6-8(7)18/h1,3,7-8,15H,2,4-6H2

>  <IUPAC Name>  (1) 
1-[4-(trifluoromethyl)pyrimidin-2-yl]-3,3a,4,5,6,6a-hexahydro-2H-pyrrolo[2,3-c]pyrrole

$$$$
