
     RDKit          3D

 26 28  0  0  0  0  0  0  0  0999 V2000
   -2.2818    1.9685   -0.9281 C   0  0  0  0  0  0  0  0  0  0  0  0
   -2.8674    1.7597    0.3094 C   0  0  0  0  0  0  0  0  0  0  0  0
   -2.4508    0.7028    1.1215 C   0  0  0  0  0  0  0  0  0  0  0  0
   -1.4409   -0.1543    0.6961 C   0  0  0  0  0  0  0  0  0  0  0  0
   -0.8619    0.0577   -0.5352 C   0  0  0  0  0  0  0  0  0  0  0  0
   -1.2718    1.1119   -1.3541 C   0  0  0  0  0  0  0  0  0  0  0  0
    0.1906   -0.9480   -0.8181 C   0  0  0  0  0  0  0  0  0  0  0  0
   -0.0604   -1.9987    0.2151 C   0  0  0  0  0  0  0  0  0  0  0  0
   -0.8163   -1.3352    1.3444 C   0  0  0  0  0  0  0  0  0  0  0  0
    1.5488   -0.3582   -0.5582 C   0  0  0  0  0  0  0  0  0  0  0  0
    2.2481    0.2862   -1.5121 N   0  0  0  0  0  0  0  0  0  0  0  0
    3.4304    0.7063   -0.9886 C   0  0  0  0  0  0  0  0  0  0  0  0
    3.4286    0.2935    0.3262 C   0  0  0  0  0  0  0  0  0  0  0  0
    2.2729   -0.3481    0.5516 N   0  0  0  0  0  0  0  0  0  0  0  0
   -2.5993    2.7869   -1.5652 H   0  0  0  0  0  0  0  0  0  0  0  0
   -3.6522    2.4320    0.6313 H   0  0  0  0  0  0  0  0  0  0  0  0
   -2.9182    0.5477    2.0930 H   0  0  0  0  0  0  0  0  0  0  0  0
   -0.8138    1.2830   -2.3330 H   0  0  0  0  0  0  0  0  0  0  0  0
    0.1337   -1.3332   -1.8568 H   0  0  0  0  0  0  0  0  0  0  0  0
    0.8864   -2.4231    0.6054 H   0  0  0  0  0  0  0  0  0  0  0  0
   -0.6561   -2.8167   -0.2616 H   0  0  0  0  0  0  0  0  0  0  0  0
   -0.2269   -1.1207    2.2318 H   0  0  0  0  0  0  0  0  0  0  0  0
   -1.6286   -2.0486    1.6337 H   0  0  0  0  0  0  0  0  0  0  0  0
    4.1784    1.2503   -1.5454 H   0  0  0  0  0  0  0  0  0  0  0  0
    4.2165    0.4573    1.0458 H   0  0  0  0  0  0  0  0  0  0  0  0
    2.0119   -0.7589    1.4509 H   0  0  0  0  0  0  0  0  0  0  0  0
  1  2  2  0
  2  3  1  0
  3  4  2  0
  4  5  1  0
  5  6  2  0
  5  7  1  0
  7  8  1  0
  8  9  1  0
  7 10  1  0
 10 11  2  0
 11 12  1  0
 12 13  2  0
 13 14  1  0
  6  1  1  0
 14 10  1  0
  9  4  1  0
  1 15  1  0
  2 16  1  0
  3 17  1  0
  6 18  1  0
  7 19  1  0
  8 20  1  0
  8 21  1  0
  9 22  1  0
  9 23  1  0
 12 24  1  0
 13 25  1  0
 14 26  1  0
M  END
>  <Ligand ID>  (1) 
LIG0003020

>  <Ligand>  (1) 
CHEMBL258178

>  <SMILES>  (1) 
c1ccc2c(c1)C(CC2)c1ncc[nH]1

>  <CID>  (1) 
44449338.0

>  <ChEMBL ID>  (1) 
nan

>  <InChiKey>  (1) 
FSOUVFKZLYLZCE-UHFFFAOYSA-N

>  <InChi>  (1) 
InChI=1S/C12H12N2/c1-2-4-10-9(3-1)5-6-11(10)12-13-7-8-14-12/h1-4,7-8,11H,5-6H2,(H,13,14)

>  <IUPAC Name>  (1) 
2-(2,3-dihydro-1H-inden-1-yl)-1H-imidazole

$$$$
