
     RDKit          3D

133135  0  0  0  0  0  0  0  0999 V2000
    3.5572   -4.2345   -0.1563 N   0  0  0  0  0  0  0  0  0  0  0  0
    4.5671   -4.4682   -1.1337 C   0  0  0  0  0  0  0  0  0  0  0  0
    5.4691   -3.3005   -1.2816 C   0  0  0  0  0  0  0  0  0  0  0  0
    4.8271   -2.0349   -1.7487 C   0  0  0  0  0  0  0  0  0  0  0  0
    3.7770   -1.4743   -0.8608 C   0  0  0  0  0  0  0  0  0  0  0  0
    3.2086   -0.1583   -1.4211 C   0  0  1  0  0  0  0  0  0  0  0  0
    2.1889    0.3154   -0.4481 C   0  0  0  0  0  0  0  0  0  0  0  0
    2.2662    1.4380    0.1269 O   0  0  0  0  0  0  0  0  0  0  0  0
    1.1024   -0.5915   -0.2043 N   0  0  0  0  0  0  0  0  0  0  0  0
    0.0110   -0.3156    0.6931 C   0  0  1  0  0  0  0  0  0  0  0  0
   -1.2126   -0.2011   -0.1036 C   0  0  0  0  0  0  0  0  0  0  0  0
   -1.0538   -0.0372   -1.3608 O   0  0  0  0  0  0  0  0  0  0  0  0
   -2.5318   -0.2545    0.3558 N   0  0  0  0  0  0  0  0  0  0  0  0
   -3.6925   -0.0867   -0.6075 C   0  0  2  0  0  0  0  0  0  0  0  0
   -4.7462    0.4584    0.1793 C   0  0  0  0  0  0  0  0  0  0  0  0
   -4.5026    0.4207    1.4819 O   0  0  0  0  0  0  0  0  0  0  0  0
   -5.9867    1.0482   -0.1210 N   0  0  0  0  0  0  0  0  0  0  0  0
   -6.6184    1.1369   -1.4187 C   0  0  0  0  0  0  0  0  0  0  0  0
   -7.6933    0.1277   -1.6000 C   0  0  0  0  0  0  0  0  0  0  0  0
   -8.3363    0.0103   -2.6917 O   0  0  0  0  0  0  0  0  0  0  0  0
   -8.0786   -0.7593   -0.5601 N   0  0  0  0  0  0  0  0  0  0  0  0
   -9.1394   -1.7384   -0.6854 C   0  0  0  0  0  0  0  0  0  0  0  0
   -9.3264   -2.5426    0.5515 C   0  0  0  0  0  0  0  0  0  0  0  0
  -10.2155   -3.4438    0.5815 O   0  0  0  0  0  0  0  0  0  0  0  0
   -8.5220   -2.3180    1.7076 N   0  0  0  0  0  0  0  0  0  0  0  0
   -6.7589    1.6348    0.9713 C   0  0  0  0  0  0  0  0  0  0  0  0
   -6.5131    3.0554    1.2828 C   0  0  0  0  0  0  0  0  0  0  0  0
   -5.1381    3.3985    1.6970 C   0  0  0  0  0  0  0  0  0  0  0  0
   -4.7673    3.5470    3.0435 C   0  0  0  0  0  0  0  0  0  0  0  0
   -3.4459    3.8398    3.1042 N   0  0  0  0  0  0  0  0  0  0  0  0
   -2.9316    3.8900    1.8538 C   0  0  0  0  0  0  0  0  0  0  0  0
   -3.9915    3.6146    0.9910 C   0  0  0  0  0  0  0  0  0  0  0  0
   -3.7363    3.6164   -0.3522 C   0  0  0  0  0  0  0  0  0  0  0  0
   -2.4579    3.8863   -0.8240 C   0  0  0  0  0  0  0  0  0  0  0  0
   -1.3986    4.1609    0.0375 C   0  0  0  0  0  0  0  0  0  0  0  0
   -1.6604    4.1578    1.4022 C   0  0  0  0  0  0  0  0  0  0  0  0
   -3.7217   -1.2185   -1.5264 C   0  0  0  0  0  0  0  0  0  0  0  0
   -3.8296   -2.6106   -1.0686 C   0  0  0  0  0  0  0  0  0  0  0  0
   -5.1185   -3.0483   -0.4401 C   0  0  0  0  0  0  0  0  0  0  0  0
   -6.2059   -2.9566   -1.4291 N   0  0  0  0  0  0  0  0  0  0  0  0
   -6.2512   -3.7665   -2.4293 C   0  0  0  0  0  0  0  0  0  0  0  0
   -5.3018   -4.7919   -2.6773 N   0  0  0  0  0  0  0  0  0  0  0  0
   -7.3081   -3.6360   -3.3766 N   0  0  0  0  0  0  0  0  0  0  0  0
   -0.0592   -1.0631    1.9476 C   0  0  0  0  0  0  0  0  0  0  0  0
   -0.1706   -2.5067    1.9477 C   0  0  0  0  0  0  0  0  0  0  0  0
   -1.3665   -3.1955    1.9752 C   0  0  0  0  0  0  0  0  0  0  0  0
   -1.4616   -4.5674    2.0015 C   0  0  0  0  0  0  0  0  0  0  0  0
   -0.2962   -5.3453    2.0012 C   0  0  0  0  0  0  0  0  0  0  0  0
    0.9152   -4.6816    1.9740 C   0  0  0  0  0  0  0  0  0  0  0  0
    0.9758   -3.2876    1.9478 C   0  0  0  0  0  0  0  0  0  0  0  0
    4.2887    0.7155   -1.6833 N   0  0  0  0  0  0  0  0  0  0  0  0
    4.3902    1.3559   -2.9339 C   0  0  0  0  0  0  0  0  0  0  0  0
    3.4567    1.1099   -3.7707 O   0  0  0  0  0  0  0  0  0  0  0  0
    5.4490    2.2705   -3.3835 C   0  0  0  0  0  0  0  0  0  0  0  0
    6.4982    2.5169   -2.4221 N   0  0  0  0  0  0  0  0  0  0  0  0
    6.3024    3.1322   -1.1567 C   0  0  0  0  0  0  0  0  0  0  0  0
    5.2128    3.5423   -0.7356 O   0  0  0  0  0  0  0  0  0  0  0  0
    7.5939    3.2525   -0.3269 C   0  0  1  0  0  0  0  0  0  0  0  0
    7.1702    3.8680    0.9142 N   0  0  0  0  0  0  0  0  0  0  0  0
    6.1399    3.3426    1.7451 C   0  0  0  0  0  0  0  0  0  0  0  0
    5.5146    2.2889    1.4626 O   0  0  0  0  0  0  0  0  0  0  0  0
    5.7429    4.0209    3.0061 C   0  0  0  0  0  0  0  0  0  0  0  0
    8.1245    1.8970   -0.0943 C   0  0  0  0  0  0  0  0  0  0  0  0
    9.3665    1.7754    0.6764 C   0  0  0  0  0  0  0  0  0  0  0  0
   10.6231    2.3634    0.1619 C   0  0  0  0  0  0  0  0  0  0  0  0
   10.6017    3.8517    0.0149 C   0  0  0  0  0  0  0  0  0  0  0  0
    3.9002   -4.0037    0.7880 H   0  0  0  0  0  0  0  0  0  0  0  0
    2.7623   -4.8875   -0.2100 H   0  0  0  0  0  0  0  0  0  0  0  0
    5.2014   -5.3662   -0.8657 H   0  0  0  0  0  0  0  0  0  0  0  0
    4.1377   -4.7184   -2.1416 H   0  0  0  0  0  0  0  0  0  0  0  0
    5.8648   -3.0902   -0.2303 H   0  0  0  0  0  0  0  0  0  0  0  0
    6.3875   -3.5354   -1.8813 H   0  0  0  0  0  0  0  0  0  0  0  0
    4.4775   -2.1286   -2.8184 H   0  0  0  0  0  0  0  0  0  0  0  0
    5.6566   -1.2543   -1.7712 H   0  0  0  0  0  0  0  0  0  0  0  0
    4.1233   -1.3464    0.1830 H   0  0  0  0  0  0  0  0  0  0  0  0
    2.9300   -2.2228   -0.8089 H   0  0  0  0  0  0  0  0  0  0  0  0
    2.7354   -0.4172   -2.3939 H   0  0  0  0  0  0  0  0  0  0  0  0
    1.0594   -1.5373   -0.6974 H   0  0  0  0  0  0  0  0  0  0  0  0
    0.2064    0.7819    1.0266 H   0  0  0  0  0  0  0  0  0  0  0  0
   -2.7236   -0.4043    1.3613 H   0  0  0  0  0  0  0  0  0  0  0  0
   -3.2483    0.7986   -1.2516 H   0  0  0  0  0  0  0  0  0  0  0  0
   -7.0672    2.1569   -1.4963 H   0  0  0  0  0  0  0  0  0  0  0  0
   -5.9051    0.9978   -2.2492 H   0  0  0  0  0  0  0  0  0  0  0  0
   -7.5872   -0.7554    0.3821 H   0  0  0  0  0  0  0  0  0  0  0  0
   -8.9611   -2.4411   -1.5141 H   0  0  0  0  0  0  0  0  0  0  0  0
  -10.0883   -1.1996   -0.9534 H   0  0  0  0  0  0  0  0  0  0  0  0
   -8.6383   -1.4442    2.2684 H   0  0  0  0  0  0  0  0  0  0  0  0
   -7.8041   -3.0523    1.9900 H   0  0  0  0  0  0  0  0  0  0  0  0
   -7.8523    1.4987    0.8479 H   0  0  0  0  0  0  0  0  0  0  0  0
   -6.4735    1.0489    1.8869 H   0  0  0  0  0  0  0  0  0  0  0  0
   -6.8904    3.7575    0.4878 H   0  0  0  0  0  0  0  0  0  0  0  0
   -7.1959    3.3021    2.1502 H   0  0  0  0  0  0  0  0  0  0  0  0
   -5.4341    3.4427    3.8844 H   0  0  0  0  0  0  0  0  0  0  0  0
   -2.9555    3.9935    4.0181 H   0  0  0  0  0  0  0  0  0  0  0  0
   -4.5603    3.4051   -1.0195 H   0  0  0  0  0  0  0  0  0  0  0  0
   -2.3095    3.8755   -1.9143 H   0  0  0  0  0  0  0  0  0  0  0  0
   -0.3966    4.3728   -0.3387 H   0  0  0  0  0  0  0  0  0  0  0  0
   -0.8260    4.3748    2.0743 H   0  0  0  0  0  0  0  0  0  0  0  0
   -2.8496   -1.1850   -2.2447 H   0  0  0  0  0  0  0  0  0  0  0  0
   -4.5867   -1.0002   -2.2611 H   0  0  0  0  0  0  0  0  0  0  0  0
   -2.9586   -2.9045   -0.3902 H   0  0  0  0  0  0  0  0  0  0  0  0
   -3.6517   -3.3235   -1.9412 H   0  0  0  0  0  0  0  0  0  0  0  0
   -5.3622   -2.3760    0.4174 H   0  0  0  0  0  0  0  0  0  0  0  0
   -5.0780   -4.0709   -0.0406 H   0  0  0  0  0  0  0  0  0  0  0  0
   -5.1766   -5.4940   -1.9129 H   0  0  0  0  0  0  0  0  0  0  0  0
   -4.7844   -4.8039   -3.5821 H   0  0  0  0  0  0  0  0  0  0  0  0
   -8.2811   -3.9595   -3.2261 H   0  0  0  0  0  0  0  0  0  0  0  0
   -7.0156   -3.1562   -4.2896 H   0  0  0  0  0  0  0  0  0  0  0  0
    0.8584   -0.8062    2.5664 H   0  0  0  0  0  0  0  0  0  0  0  0
   -0.9458   -0.6594    2.5326 H   0  0  0  0  0  0  0  0  0  0  0  0
   -2.2952   -2.6478    1.9784 H   0  0  0  0  0  0  0  0  0  0  0  0
   -2.4370   -5.0808    2.0271 H   0  0  0  0  0  0  0  0  0  0  0  0
   -0.3975   -6.4181    2.0231 H   0  0  0  0  0  0  0  0  0  0  0  0
    1.7978   -5.2984    1.9788 H   0  0  0  0  0  0  0  0  0  0  0  0
    1.9735   -2.8553    1.9230 H   0  0  0  0  0  0  0  0  0  0  0  0
    5.0109    0.8835   -0.9634 H   0  0  0  0  0  0  0  0  0  0  0  0
    5.9115    1.8186   -4.2840 H   0  0  0  0  0  0  0  0  0  0  0  0
    5.0201    3.2432   -3.7546 H   0  0  0  0  0  0  0  0  0  0  0  0
    7.4817    2.2160   -2.7033 H   0  0  0  0  0  0  0  0  0  0  0  0
    8.2076    3.8881   -0.9721 H   0  0  0  0  0  0  0  0  0  0  0  0
    7.6144    4.7641    1.2761 H   0  0  0  0  0  0  0  0  0  0  0  0
    4.6218    4.0962    3.0507 H   0  0  0  0  0  0  0  0  0  0  0  0
    6.1620    3.5068    3.8926 H   0  0  0  0  0  0  0  0  0  0  0  0
    6.0995    5.0624    2.9839 H   0  0  0  0  0  0  0  0  0  0  0  0
    7.3330    1.2869    0.4298 H   0  0  0  0  0  0  0  0  0  0  0  0
    8.2641    1.3306   -1.0627 H   0  0  0  0  0  0  0  0  0  0  0  0
    9.5464    0.6595    0.8292 H   0  0  0  0  0  0  0  0  0  0  0  0
    9.2281    2.1166    1.7571 H   0  0  0  0  0  0  0  0  0  0  0  0
   10.9238    1.8606   -0.8027 H   0  0  0  0  0  0  0  0  0  0  0  0
   11.4782    2.0910    0.8586 H   0  0  0  0  0  0  0  0  0  0  0  0
    9.8596    4.3743    0.6258 H   0  0  0  0  0  0  0  0  0  0  0  0
   11.6069    4.2222    0.4149 H   0  0  0  0  0  0  0  0  0  0  0  0
   10.5010    4.1918   -1.0379 H   0  0  0  0  0  0  0  0  0  0  0  0
  1  2  1  0
  2  3  1  0
  3  4  1  0
  4  5  1  0
  5  6  1  0
  6  7  1  0
  7  8  2  0
  7  9  1  0
  9 10  1  0
 10 11  1  0
 11 12  2  0
 11 13  1  0
 13 14  1  0
 14 15  1  0
 15 16  2  0
 15 17  1  0
 17 18  1  0
 18 19  1  0
 19 20  2  0
 19 21  1  0
 21 22  1  0
 22 23  1  0
 23 24  2  0
 23 25  1  0
 17 26  1  0
 26 27  1  0
 27 28  1  0
 28 29  2  0
 29 30  1  0
 30 31  1  0
 31 32  2  0
 32 33  1  0
 33 34  2  0
 34 35  1  0
 35 36  2  0
 14 37  1  0
 37 38  1  0
 38 39  1  0
 39 40  1  0
 40 41  2  3
 41 42  1  0
 41 43  1  0
 10 44  1  0
 44 45  1  0
 45 46  2  0
 46 47  1  0
 47 48  2  0
 48 49  1  0
 49 50  2  0
  6 51  1  0
 51 52  1  0
 52 53  2  0
 52 54  1  0
 54 55  1  0
 55 56  1  0
 56 57  2  0
 56 58  1  0
 58 59  1  0
 59 60  1  0
 60 61  2  0
 60 62  1  0
 58 63  1  0
 63 64  1  0
 64 65  1  0
 65 66  1  0
 32 28  1  0
 50 45  1  0
 36 31  1  0
  1 67  1  0
  1 68  1  0
  2 69  1  0
  2 70  1  0
  3 71  1  0
  3 72  1  0
  4 73  1  0
  4 74  1  0
  5 75  1  0
  5 76  1  0
  6 77  1  6
  9 78  1  0
 10 79  1  1
 13 80  1  0
 14 81  1  6
 18 82  1  0
 18 83  1  0
 21 84  1  0
 22 85  1  0
 22 86  1  0
 25 87  1  0
 25 88  1  0
 26 89  1  0
 26 90  1  0
 27 91  1  0
 27 92  1  0
 29 93  1  0
 30 94  1  0
 33 95  1  0
 34 96  1  0
 35 97  1  0
 36 98  1  0
 37 99  1  0
 37100  1  0
 38101  1  0
 38102  1  0
 39103  1  0
 39104  1  0
 42105  1  0
 42106  1  0
 43107  1  0
 43108  1  0
 44109  1  0
 44110  1  0
 46111  1  0
 47112  1  0
 48113  1  0
 49114  1  0
 50115  1  0
 51116  1  0
 54117  1  0
 54118  1  0
 55119  1  0
 58120  1  6
 59121  1  0
 62122  1  0
 62123  1  0
 62124  1  0
 63125  1  0
 63126  1  0
 64127  1  0
 64128  1  0
 65129  1  0
 65130  1  0
 66131  1  0
 66132  1  0
 66133  1  0
M  END
>  <Ligand ID>  (1) 
LIG0004163

>  <Ligand>  (1) 
CHEMBL372237

>  <SMILES>  (1) 
NCCCC[C@@H](C(=O)N[C@@H](C(=O)N[C@H](C(=O)N(CC(=O)NCC(=O)N)CCc1c[nH]c2c1cccc2)CCCN=C(N)N)Cc1ccccc1)NC(=O)CNC(=O)[C@@H](NC(=O)C)CCCC

>  <CID>  (1) 
11787864.0

>  <ChEMBL ID>  (1) 
nan

>  <InChiKey>  (1) 
PNJHRYWDWYTSBM-MYOMABOUSA-N

>  <InChi>  (1) 
InChI=1S/C45H67N13O8/c1-3-4-16-34(54-29(2)59)41(63)53-27-39(61)55-35(18-10-11-21-46)42(64)57-37(24-30-13-6-5-7-14-30)43(65)56-36(19-12-22-50-45(48)49)44(66)58(28-40(62)52-26-38(47)60)23-20-31-25-51-33-17-9-8-15-32(31)33/h5-9,13-15,17,25,34-37,51H,3-4,10-12,16,18-24,26-28,46H2,1-2H3,(H2,47,60)(H,52,62)(H,53,63)(H,54,59)(H,55,61)(H,56,65)(H,57,64)(H4,48,49,50)/t34-,35-,36-,37+/m0/s1

>  <IUPAC Name>  (1) 
(2S)-2-[[2-[[(2S)-2-acetamidohexanoyl]amino]acetyl]amino]-6-amino-N-[(2R)-1-[[(2S)-1-[[2-[(2-amino-2-oxoethyl)amino]-2-oxoethyl]-[2-(1H-indol-3-yl)ethyl]amino]-5-(diaminomethylideneamino)-1-oxopentan-2-yl]amino]-1-oxo-3-phenylpropan-2-yl]hexanamide

$$$$
