
     RDKit          3D

 35 37  0  0  0  0  0  0  0  0999 V2000
    5.4300   -2.0088   -0.1962 C   0  0  0  0  0  0  0  0  0  0  0  0
    4.0936   -1.4606    0.1074 C   0  0  0  0  0  0  0  0  0  0  0  0
    3.1968   -1.9070    1.0283 N   0  0  0  0  0  0  0  0  0  0  0  0
    2.1408   -1.1783    1.0075 O   0  0  0  0  0  0  0  0  0  0  0  0
    2.1925   -0.2166    0.1297 C   0  0  0  0  0  0  0  0  0  0  0  0
    3.4408   -0.3676   -0.4716 C   0  0  0  0  0  0  0  0  0  0  0  0
    1.2634    0.8294   -0.2451 C   0  0  0  0  0  0  0  0  0  0  0  0
    1.6105    1.7375   -1.2537 C   0  0  0  0  0  0  0  0  0  0  0  0
    0.7962    2.7490   -1.6673 C   0  0  0  0  0  0  0  0  0  0  0  0
   -0.4351    2.9246   -1.0948 C   0  0  0  0  0  0  0  0  0  0  0  0
   -0.7997    2.0306   -0.0881 C   0  0  0  0  0  0  0  0  0  0  0  0
    0.0235    1.0076    0.3300 C   0  0  0  0  0  0  0  0  0  0  0  0
   -0.4277    0.1614    1.3694 N   0  0  0  0  0  0  0  0  0  0  0  0
   -1.7290    0.2821    2.0086 C   0  0  0  0  0  0  0  0  0  0  0  0
   -2.8638   -0.0445    1.1159 C   0  0  0  0  0  0  0  0  0  0  0  0
   -3.9253    0.6121    0.8192 N   0  0  0  0  0  0  0  0  0  0  0  0
   -4.7767   -0.0973   -0.1104 C   0  0  0  0  0  0  0  0  0  0  0  0
   -3.9476   -1.2637   -0.5937 C   0  0  0  0  0  0  0  0  0  0  0  0
   -2.9117   -1.3056    0.4068 N   0  0  0  0  0  0  0  0  0  0  0  0
    6.2261   -1.6274    0.4746 H   0  0  0  0  0  0  0  0  0  0  0  0
    5.4566   -3.1257   -0.0907 H   0  0  0  0  0  0  0  0  0  0  0  0
    5.7033   -1.8448   -1.2755 H   0  0  0  0  0  0  0  0  0  0  0  0
    3.9049    0.2041   -1.2483 H   0  0  0  0  0  0  0  0  0  0  0  0
    2.5738    1.6471   -1.7429 H   0  0  0  0  0  0  0  0  0  0  0  0
    1.1042    3.4296   -2.4517 H   0  0  0  0  0  0  0  0  0  0  0  0
   -1.0904    3.7107   -1.4030 H   0  0  0  0  0  0  0  0  0  0  0  0
   -1.7740    2.2099    0.3428 H   0  0  0  0  0  0  0  0  0  0  0  0
    0.1608   -0.6346    1.7637 H   0  0  0  0  0  0  0  0  0  0  0  0
   -1.7897   -0.2702    2.9664 H   0  0  0  0  0  0  0  0  0  0  0  0
   -1.8676    1.3512    2.2899 H   0  0  0  0  0  0  0  0  0  0  0  0
   -5.6875   -0.4312    0.4299 H   0  0  0  0  0  0  0  0  0  0  0  0
   -4.9797    0.5639   -0.9677 H   0  0  0  0  0  0  0  0  0  0  0  0
   -4.5202   -2.2101   -0.6653 H   0  0  0  0  0  0  0  0  0  0  0  0
   -3.4953   -1.0862   -1.5976 H   0  0  0  0  0  0  0  0  0  0  0  0
   -2.2967   -2.1448    0.5735 H   0  0  0  0  0  0  0  0  0  0  0  0
  1  2  1  0
  2  3  2  0
  3  4  1  0
  4  5  1  0
  5  6  2  0
  5  7  1  0
  7  8  2  0
  8  9  1  0
  9 10  2  0
 10 11  1  0
 11 12  2  0
 12 13  1  0
 13 14  1  0
 14 15  1  0
 15 16  2  0
 16 17  1  0
 17 18  1  0
 18 19  1  0
  6  2  1  0
 12  7  1  0
 19 15  1  0
  1 20  1  0
  1 21  1  0
  1 22  1  0
  6 23  1  0
  8 24  1  0
  9 25  1  0
 10 26  1  0
 11 27  1  0
 13 28  1  0
 14 29  1  0
 14 30  1  0
 17 31  1  0
 17 32  1  0
 18 33  1  0
 18 34  1  0
 19 35  1  0
M  END
>  <Ligand ID>  (1) 
LIG0003986

>  <Ligand>  (1) 
CHEMBL347268

>  <SMILES>  (1) 
Cc1noc(c1)c1ccccc1NCC1=NCCN1

>  <CID>  (1) 
22493349.0

>  <ChEMBL ID>  (1) 
nan

>  <InChiKey>  (1) 
SPPYMDUFKYIYOR-UHFFFAOYSA-N

>  <InChi>  (1) 
InChI=1S/C14H16N4O/c1-10-8-13(19-18-10)11-4-2-3-5-12(11)17-9-14-15-6-7-16-14/h2-5,8,17H,6-7,9H2,1H3,(H,15,16)

>  <IUPAC Name>  (1) 
N-(4,5-dihydro-1H-imidazol-2-ylmethyl)-2-(3-methyl-1,2-oxazol-5-yl)aniline

$$$$
