
     RDKit          3D

 50 53  0  0  0  0  0  0  0  0999 V2000
    1.8375   -2.3580   -1.2153 O   0  0  0  0  0  0  0  0  0  0  0  0
    0.5848   -2.0910   -0.7403 C   0  0  2  0  0  0  0  0  0  0  0  0
   -0.3669   -1.5984   -1.8399 C   0  0  0  0  0  0  0  0  0  0  0  0
   -1.5437   -1.1789   -0.9598 C   0  0  1  0  0  0  0  0  0  0  0  0
   -0.9848   -0.7918    0.3433 C   0  0  1  0  0  0  0  0  0  0  0  0
    0.5443   -0.8354    0.1461 C   0  0  1  0  0  0  0  0  0  0  0  0
    1.2416   -1.0510    1.4405 C   0  0  0  0  0  0  0  0  0  0  0  0
    2.5648   -1.3768    1.3000 O   0  0  0  0  0  0  0  0  0  0  0  0
    3.6296   -0.7399    0.7823 C   0  0  0  0  0  0  0  0  0  0  0  0
    4.8605   -1.4237    0.8034 C   0  0  0  0  0  0  0  0  0  0  0  0
    6.0089   -0.8825    0.3101 C   0  0  0  0  0  0  0  0  0  0  0  0
    6.0029    0.3660   -0.2316 C   0  0  0  0  0  0  0  0  0  0  0  0
    4.8337    1.0829   -0.2807 C   0  0  0  0  0  0  0  0  0  0  0  0
    3.6748    0.5152    0.2267 C   0  0  0  0  0  0  0  0  0  0  0  0
    4.8481    2.4390   -0.8738 C   0  0  0  0  0  0  0  0  0  0  0  0
    7.4774    1.0462   -0.8589 Cl  0  0  0  0  0  0  0  0  0  0  0  0
   -1.4156    0.5471    0.8640 C   0  0  0  0  0  0  0  0  0  0  0  0
   -1.5064    1.4755   -0.3176 C   0  0  0  0  0  0  0  0  0  0  0  0
   -2.4847    0.9378   -1.3129 C   0  0  1  0  0  0  0  0  0  0  0  0
   -2.3710   -0.3696   -1.6282 O   0  0  0  0  0  0  0  0  0  0  0  0
   -3.8613    1.1901   -0.7941 C   0  0  0  0  0  0  0  0  0  0  0  0
   -4.8852    2.6066   -1.3023 S   0  0  0  0  0  0  0  0  0  0  0  0
   -6.2988    2.0954   -0.2091 C   0  0  0  0  0  0  0  0  0  0  0  0
   -5.8072    0.9381    0.3821 C   0  0  0  0  0  0  0  0  0  0  0  0
   -4.6210    0.5782    0.0388 N   0  0  0  0  0  0  0  0  0  0  0  0
   -6.6546    0.1981    1.3530 C   0  0  0  0  0  0  0  0  0  0  0  0
   -7.7896    0.6816    1.5803 O   0  0  0  0  0  0  0  0  0  0  0  0
   -6.2103   -0.9589    1.9681 O   0  0  0  0  0  0  0  0  0  0  0  0
    2.2473   -3.1948   -0.8264 H   0  0  0  0  0  0  0  0  0  0  0  0
    0.0905   -2.8905   -0.1826 H   0  0  0  0  0  0  0  0  0  0  0  0
   -0.6268   -2.4402   -2.5014 H   0  0  0  0  0  0  0  0  0  0  0  0
    0.1288   -0.7630   -2.3365 H   0  0  0  0  0  0  0  0  0  0  0  0
   -2.0978   -2.1513   -0.8076 H   0  0  0  0  0  0  0  0  0  0  0  0
   -1.1777   -1.5272    1.1540 H   0  0  0  0  0  0  0  0  0  0  0  0
    0.8868   -0.0257   -0.4806 H   0  0  0  0  0  0  0  0  0  0  0  0
    1.1137   -0.1191    2.0448 H   0  0  0  0  0  0  0  0  0  0  0  0
    0.6818   -1.8433    1.9876 H   0  0  0  0  0  0  0  0  0  0  0  0
    4.9095   -2.4348    1.2323 H   0  0  0  0  0  0  0  0  0  0  0  0
    6.9315   -1.4390    0.3451 H   0  0  0  0  0  0  0  0  0  0  0  0
    2.7894    1.1170    0.1764 H   0  0  0  0  0  0  0  0  0  0  0  0
    5.1918    3.1488   -0.0859 H   0  0  0  0  0  0  0  0  0  0  0  0
    3.8418    2.7299   -1.1968 H   0  0  0  0  0  0  0  0  0  0  0  0
    5.5956    2.5114   -1.7100 H   0  0  0  0  0  0  0  0  0  0  0  0
   -0.6206    0.8873    1.5733 H   0  0  0  0  0  0  0  0  0  0  0  0
   -2.3681    0.4722    1.3894 H   0  0  0  0  0  0  0  0  0  0  0  0
   -0.5100    1.7131   -0.7239 H   0  0  0  0  0  0  0  0  0  0  0  0
   -1.9265    2.4423    0.0672 H   0  0  0  0  0  0  0  0  0  0  0  0
   -2.3764    1.5451   -2.2385 H   0  0  0  0  0  0  0  0  0  0  0  0
   -7.2365    2.6635   -0.1440 H   0  0  0  0  0  0  0  0  0  0  0  0
   -6.7758   -1.4438    2.6809 H   0  0  0  0  0  0  0  0  0  0  0  0
  1  2  1  0
  2  3  1  0
  3  4  1  0
  4  5  1  0
  5  6  1  0
  6  7  1  0
  7  8  1  0
  8  9  1  0
  9 10  2  0
 10 11  1  0
 11 12  2  0
 12 13  1  0
 13 14  2  0
 13 15  1  0
 12 16  1  0
  5 17  1  0
 17 18  1  0
 18 19  1  0
 19 20  1  0
 19 21  1  0
 21 22  1  0
 22 23  1  0
 23 24  2  0
 24 25  1  0
 24 26  1  0
 26 27  2  0
 26 28  1  0
  6  2  1  0
 14  9  1  0
 25 21  2  0
 20  4  1  0
  1 29  1  0
  2 30  1  1
  3 31  1  0
  3 32  1  0
  4 33  1  1
  5 34  1  1
  6 35  1  6
  7 36  1  0
  7 37  1  0
 10 38  1  0
 11 39  1  0
 14 40  1  0
 15 41  1  0
 15 42  1  0
 15 43  1  0
 17 44  1  0
 17 45  1  0
 18 46  1  0
 18 47  1  0
 19 48  1  6
 23 49  1  0
 28 50  1  0
M  END
>  <Ligand ID>  (1) 
LIG0000942

>  <Ligand>  (1) 
CHEMBL3793892

>  <SMILES>  (1) 
O[C@@H]1C[C@H]2[C@@H]([C@H]1COc1ccc(c(c1)C)Cl)CC[C@@H](O2)c1scc(n1)C(=O)O

>  <CID>  (1) 
118352160.0

>  <ChEMBL ID>  (1) 
nan

>  <InChiKey>  (1) 
GZTLLBIEEIZFFD-BSPHMWTBSA-N

>  <InChi>  (1) 
InChI=1S/C20H22ClNO5S/c1-10-6-11(2-4-14(10)21)26-8-13-12-3-5-17(27-18(12)7-16(13)23)19-22-15(9-28-19)20(24)25/h2,4,6,9,12-13,16-18,23H,3,5,7-8H2,1H3,(H,24,25)/t12-,13-,16-,17-,18+/m1/s1

>  <IUPAC Name>  (1) 
2-[(2R,4aR,5S,6R,7aS)-5-[(4-chloro-3-methylphenoxy)methyl]-6-hydroxy-2,3,4,4a,5,6,7,7a-octahydrocyclopenta[b]pyran-2-yl]-1,3-thiazole-4-carboxylic acid

$$$$
