
     RDKit          3D

 49 51  0  0  0  0  0  0  0  0999 V2000
    9.3390    0.5562    1.0277 O   0  0  0  0  0  0  0  0  0  0  0  0
    7.9968    0.3240    0.6849 C   0  0  0  0  0  0  0  0  0  0  0  0
    7.1481    0.9547    1.3459 O   0  0  0  0  0  0  0  0  0  0  0  0
    7.7467   -0.6272   -0.4039 C   0  0  0  0  0  0  0  0  0  0  0  0
    6.2853   -0.7340   -0.7571 C   0  0  0  0  0  0  0  0  0  0  0  0
    5.7385    0.5599   -1.2537 C   0  0  0  0  0  0  0  0  0  0  0  0
    4.4121    0.5922   -1.6201 O   0  0  0  0  0  0  0  0  0  0  0  0
    3.2523    0.4002   -0.9566 C   0  0  0  0  0  0  0  0  0  0  0  0
    3.0700    0.1158    0.3635 C   0  0  0  0  0  0  0  0  0  0  0  0
    1.8284   -0.0678    0.9569 C   0  0  0  0  0  0  0  0  0  0  0  0
    0.7086    0.0445    0.1645 C   0  0  0  0  0  0  0  0  0  0  0  0
    0.8298    0.3303   -1.1732 C   0  0  0  0  0  0  0  0  0  0  0  0
    2.0744    0.5050   -1.7250 C   0  0  0  0  0  0  0  0  0  0  0  0
   -0.6344   -0.1276    0.6941 C   0  0  0  0  0  0  0  0  0  0  0  0
   -0.8817    0.2459    1.9953 C   0  0  0  0  0  0  0  0  0  0  0  0
   -2.1498    0.0867    2.5050 C   0  0  0  0  0  0  0  0  0  0  0  0
   -3.1350   -0.4410    1.7009 C   0  0  0  0  0  0  0  0  0  0  0  0
   -2.9464   -0.8300    0.3984 C   0  0  0  0  0  0  0  0  0  0  0  0
   -1.6334   -0.6512   -0.0873 C   0  0  0  0  0  0  0  0  0  0  0  0
   -3.8367   -1.3484   -0.4557 O   0  0  0  0  0  0  0  0  0  0  0  0
   -5.1547   -1.6753   -0.4380 C   0  0  0  0  0  0  0  0  0  0  0  0
   -6.1319   -0.6058   -0.2024 C   0  0  0  0  0  0  0  0  0  0  0  0
   -6.6976   -0.2694    0.9955 C   0  0  0  0  0  0  0  0  0  0  0  0
   -7.6064    0.7757    1.0850 C   0  0  0  0  0  0  0  0  0  0  0  0
   -7.9873    1.5238   -0.0067 C   0  0  0  0  0  0  0  0  0  0  0  0
   -7.4157    1.1852   -1.2245 C   0  0  0  0  0  0  0  0  0  0  0  0
   -6.5180    0.1514   -1.3061 C   0  0  0  0  0  0  0  0  0  0  0  0
    9.6005    1.4449    1.4670 H   0  0  0  0  0  0  0  0  0  0  0  0
    8.1418   -1.6212   -0.0320 H   0  0  0  0  0  0  0  0  0  0  0  0
    8.3689   -0.3687   -1.2925 H   0  0  0  0  0  0  0  0  0  0  0  0
    5.7207   -1.0890    0.1268 H   0  0  0  0  0  0  0  0  0  0  0  0
    6.1840   -1.5541   -1.5159 H   0  0  0  0  0  0  0  0  0  0  0  0
    5.8688    1.3373   -0.4438 H   0  0  0  0  0  0  0  0  0  0  0  0
    6.4084    0.9432   -2.0806 H   0  0  0  0  0  0  0  0  0  0  0  0
    3.9167    0.0342    1.0082 H   0  0  0  0  0  0  0  0  0  0  0  0
    1.7378   -0.2939    2.0165 H   0  0  0  0  0  0  0  0  0  0  0  0
   -0.0415    0.4212   -1.8034 H   0  0  0  0  0  0  0  0  0  0  0  0
    2.1267    0.7280   -2.7780 H   0  0  0  0  0  0  0  0  0  0  0  0
   -0.0993    0.6592    2.6153 H   0  0  0  0  0  0  0  0  0  0  0  0
   -2.3490    0.3782    3.5246 H   0  0  0  0  0  0  0  0  0  0  0  0
   -4.1076   -0.5549    2.1386 H   0  0  0  0  0  0  0  0  0  0  0  0
   -1.3928   -0.9333   -1.1094 H   0  0  0  0  0  0  0  0  0  0  0  0
   -5.4105   -2.4763    0.3361 H   0  0  0  0  0  0  0  0  0  0  0  0
   -5.4263   -2.2184   -1.4024 H   0  0  0  0  0  0  0  0  0  0  0  0
   -6.4308   -0.8365    1.8734 H   0  0  0  0  0  0  0  0  0  0  0  0
   -8.0320    1.0071    2.0656 H   0  0  0  0  0  0  0  0  0  0  0  0
   -8.6887    2.3319    0.0560 H   0  0  0  0  0  0  0  0  0  0  0  0
   -7.6935    1.7545   -2.1067 H   0  0  0  0  0  0  0  0  0  0  0  0
   -6.1035   -0.0674   -2.2855 H   0  0  0  0  0  0  0  0  0  0  0  0
  1  2  1  0
  2  3  2  0
  2  4  1  0
  4  5  1  0
  5  6  1  0
  6  7  1  0
  7  8  1  0
  8  9  2  0
  9 10  1  0
 10 11  2  0
 11 12  1  0
 12 13  2  0
 11 14  1  0
 14 15  2  0
 15 16  1  0
 16 17  2  0
 17 18  1  0
 18 19  2  0
 18 20  1  0
 20 21  1  0
 21 22  1  0
 22 23  2  0
 23 24  1  0
 24 25  2  0
 25 26  1  0
 26 27  2  0
 13  8  1  0
 19 14  1  0
 27 22  1  0
  1 28  1  0
  4 29  1  0
  4 30  1  0
  5 31  1  0
  5 32  1  0
  6 33  1  0
  6 34  1  0
  9 35  1  0
 10 36  1  0
 12 37  1  0
 13 38  1  0
 15 39  1  0
 16 40  1  0
 17 41  1  0
 19 42  1  0
 21 43  1  0
 21 44  1  0
 23 45  1  0
 24 46  1  0
 25 47  1  0
 26 48  1  0
 27 49  1  0
M  END
>  <Ligand ID>  (1) 
LIG0002703

>  <Ligand>  (1) 
CHEMBL3980036

>  <SMILES>  (1) 
OC(=O)CCCOc1ccc(cc1)c1cccc(c1)OCc1ccccc1

>  <CID>  (1) 
134152845.0

>  <ChEMBL ID>  (1) 
nan

>  <InChiKey>  (1) 
AUGWGYBCOXUNBR-UHFFFAOYSA-N

>  <InChi>  (1) 
InChI=1S/C23H22O4/c24-23(25)10-5-15-26-21-13-11-19(12-14-21)20-8-4-9-22(16-20)27-17-18-6-2-1-3-7-18/h1-4,6-9,11-14,16H,5,10,15,17H2,(H,24,25)

>  <IUPAC Name>  (1) 
4-[4-(3-phenylmethoxyphenyl)phenoxy]butanoic acid

$$$$
