
     RDKit          3D

 68 70  0  0  0  0  0  0  0  0999 V2000
   -1.9060   -2.6123   -0.8052 O   0  0  0  0  0  0  0  0  0  0  0  0
   -1.5686   -1.7131   -1.7854 C   0  0  1  0  0  0  0  0  0  0  0  0
   -2.6132   -0.6366   -1.9816 C   0  0  2  0  0  0  0  0  0  0  0  0
   -2.8264    0.1619   -0.7020 C   0  0  0  0  0  0  0  0  0  0  0  0
   -3.8663    1.2443   -0.8711 C   0  0  0  0  0  0  0  0  0  0  0  0
   -4.0394    2.0060    0.4143 C   0  0  0  0  0  0  0  0  0  0  0  0
   -4.5266    1.1373    1.5249 C   0  0  0  0  0  0  0  0  0  0  0  0
   -5.8514    0.5357    1.2513 C   0  0  0  0  0  0  0  0  0  0  0  0
   -6.9680    1.2537    1.6303 C   0  0  0  0  0  0  0  0  0  0  0  0
   -8.2523    0.7824    1.4248 C   0  0  0  0  0  0  0  0  0  0  0  0
   -8.4427   -0.4591    0.8149 C   0  0  0  0  0  0  0  0  0  0  0  0
   -7.3366   -1.1883    0.4306 C   0  0  0  0  0  0  0  0  0  0  0  0
   -6.0571   -0.6798    0.6547 C   0  0  0  0  0  0  0  0  0  0  0  0
   -3.8986   -1.2306   -2.5065 C   0  0  0  0  0  0  0  0  0  0  0  0
   -0.2534   -1.0775   -1.6460 C   0  0  0  0  0  0  0  0  0  0  0  0
    0.2917   -0.6891   -0.4987 C   0  0  0  0  0  0  0  0  0  0  0  0
    1.6450   -0.0490   -0.4718 C   0  0  1  0  0  0  0  0  0  0  0  0
    1.6338    1.4145   -0.7213 C   0  0  0  0  0  0  0  0  0  0  0  0
    1.2993    2.0292    0.5967 C   0  0  0  0  0  0  0  0  0  0  0  0
    1.6099    0.9595    1.5731 C   0  0  0  0  0  0  0  0  0  0  0  0
    1.4006    1.0931    2.8113 O   0  0  0  0  0  0  0  0  0  0  0  0
    2.1492   -0.1588    0.8827 N   0  0  0  0  0  0  0  0  0  0  0  0
    3.0070   -1.1529    1.4669 C   0  0  0  0  0  0  0  0  0  0  0  0
    4.4674   -0.8566    1.3843 C   0  0  0  0  0  0  0  0  0  0  0  0
    4.9703   -0.7158   -0.0334 C   0  0  0  0  0  0  0  0  0  0  0  0
    6.4361   -0.4213   -0.0587 C   0  0  0  0  0  0  0  0  0  0  0  0
    7.1022    0.7833   -0.0464 C   0  0  0  0  0  0  0  0  0  0  0  0
    8.4352    0.7592   -0.0765 C   0  0  0  0  0  0  0  0  0  0  0  0
    9.0703   -0.4579   -0.1180 C   0  0  0  0  0  0  0  0  0  0  0  0
    7.7388   -1.6819   -0.1160 S   0  0  0  0  0  0  0  0  0  0  0  0
   10.4615   -0.8172   -0.1567 C   0  0  0  0  0  0  0  0  0  0  0  0
   10.7780   -2.0333   -0.1907 O   0  0  0  0  0  0  0  0  0  0  0  0
   11.4124    0.1618   -0.1559 O   0  0  0  0  0  0  0  0  0  0  0  0
   -0.0679    2.3189    0.7034 F   0  0  0  0  0  0  0  0  0  0  0  0
    2.0251    3.1796    0.8492 F   0  0  0  0  0  0  0  0  0  0  0  0
   -1.8960   -2.2855    0.1112 H   0  0  0  0  0  0  0  0  0  0  0  0
   -1.5498   -2.3087   -2.7471 H   0  0  0  0  0  0  0  0  0  0  0  0
   -2.2648    0.1058   -2.7278 H   0  0  0  0  0  0  0  0  0  0  0  0
   -1.8801    0.7001   -0.4488 H   0  0  0  0  0  0  0  0  0  0  0  0
   -3.0087   -0.5378    0.1130 H   0  0  0  0  0  0  0  0  0  0  0  0
   -3.5897    1.9245   -1.7019 H   0  0  0  0  0  0  0  0  0  0  0  0
   -4.8252    0.7718   -1.1756 H   0  0  0  0  0  0  0  0  0  0  0  0
   -3.0388    2.4361    0.6884 H   0  0  0  0  0  0  0  0  0  0  0  0
   -4.6845    2.9032    0.2607 H   0  0  0  0  0  0  0  0  0  0  0  0
   -3.8404    0.3116    1.7294 H   0  0  0  0  0  0  0  0  0  0  0  0
   -4.5831    1.7450    2.4724 H   0  0  0  0  0  0  0  0  0  0  0  0
   -6.8560    2.2191    2.1054 H   0  0  0  0  0  0  0  0  0  0  0  0
   -9.1237    1.3597    1.7293 H   0  0  0  0  0  0  0  0  0  0  0  0
   -9.4438   -0.8580    0.6393 H   0  0  0  0  0  0  0  0  0  0  0  0
   -7.4891   -2.1538   -0.0438 H   0  0  0  0  0  0  0  0  0  0  0  0
   -5.2303   -1.2834    0.3417 H   0  0  0  0  0  0  0  0  0  0  0  0
   -4.3800   -1.9273   -1.8012 H   0  0  0  0  0  0  0  0  0  0  0  0
   -4.6026   -0.4373   -2.7961 H   0  0  0  0  0  0  0  0  0  0  0  0
   -3.6149   -1.7891   -3.4286 H   0  0  0  0  0  0  0  0  0  0  0  0
    0.3669   -0.8877   -2.5410 H   0  0  0  0  0  0  0  0  0  0  0  0
   -0.2598   -0.8451    0.4055 H   0  0  0  0  0  0  0  0  0  0  0  0
    2.3020   -0.6155   -1.1695 H   0  0  0  0  0  0  0  0  0  0  0  0
    2.6651    1.7153   -0.9981 H   0  0  0  0  0  0  0  0  0  0  0  0
    0.9592    1.7311   -1.5413 H   0  0  0  0  0  0  0  0  0  0  0  0
    2.7567   -2.1587    1.0398 H   0  0  0  0  0  0  0  0  0  0  0  0
    2.7501   -1.2279    2.5482 H   0  0  0  0  0  0  0  0  0  0  0  0
    5.0020   -1.7131    1.8309 H   0  0  0  0  0  0  0  0  0  0  0  0
    4.6826    0.0112    2.0065 H   0  0  0  0  0  0  0  0  0  0  0  0
    4.7312   -1.6129   -0.6169 H   0  0  0  0  0  0  0  0  0  0  0  0
    4.4979    0.1347   -0.5659 H   0  0  0  0  0  0  0  0  0  0  0  0
    6.5117    1.7247   -0.0123 H   0  0  0  0  0  0  0  0  0  0  0  0
    9.0541    1.6875   -0.0695 H   0  0  0  0  0  0  0  0  0  0  0  0
   12.4222   -0.0285   -0.0471 H   0  0  0  0  0  0  0  0  0  0  0  0
  1  2  1  0
  2  3  1  0
  3  4  1  0
  4  5  1  0
  5  6  1  0
  6  7  1  0
  7  8  1  0
  8  9  2  0
  9 10  1  0
 10 11  2  0
 11 12  1  0
 12 13  2  0
  3 14  1  0
  2 15  1  0
 15 16  2  0
 16 17  1  0
 17 18  1  0
 18 19  1  0
 19 20  1  0
 20 21  2  0
 20 22  1  0
 22 23  1  0
 23 24  1  0
 24 25  1  0
 25 26  1  0
 26 27  2  0
 27 28  1  0
 28 29  2  0
 29 30  1  0
 29 31  1  0
 31 32  2  0
 31 33  1  0
 19 34  1  0
 19 35  1  0
 13  8  1  0
 22 17  1  0
 30 26  1  0
  1 36  1  0
  2 37  1  6
  3 38  1  6
  4 39  1  0
  4 40  1  0
  5 41  1  0
  5 42  1  0
  6 43  1  0
  6 44  1  0
  7 45  1  0
  7 46  1  0
  9 47  1  0
 10 48  1  0
 11 49  1  0
 12 50  1  0
 13 51  1  0
 14 52  1  0
 14 53  1  0
 14 54  1  0
 15 55  1  0
 16 56  1  0
 17 57  1  6
 18 58  1  0
 18 59  1  0
 23 60  1  0
 23 61  1  0
 24 62  1  0
 24 63  1  0
 25 64  1  0
 25 65  1  0
 27 66  1  0
 28 67  1  0
 33 68  1  0
M  END
>  <Ligand ID>  (1) 
LIG0005223

>  <Ligand>  (1) 
CHEMBL3945327

>  <SMILES>  (1) 
O[C@@H]([C@H](CCCCc1ccccc1)C)/C=C/[C@H]1CC(C(=O)N1CCCc1ccc(s1)C(=O)O)(F)F

>  <CID>  (1) 
90054430.0

>  <ChEMBL ID>  (1) 
nan

>  <InChiKey>  (1) 
WQNDXGHRPMQDFT-LKLUEYJESA-N

>  <InChi>  (1) 
InChI=1S/C27H33F2NO4S/c1-19(8-5-6-11-20-9-3-2-4-10-20)23(31)15-13-21-18-27(28,29)26(34)30(21)17-7-12-22-14-16-24(35-22)25(32)33/h2-4,9-10,13-16,19,21,23,31H,5-8,11-12,17-18H2,1H3,(H,32,33)/b15-13+/t19-,21-,23+/m0/s1

>  <IUPAC Name>  (1) 
5-[3-[(5R)-3,3-difluoro-5-[(E,3S,4S)-3-hydroxy-4-methyl-8-phenyloct-1-enyl]-2-oxopyrrolidin-1-yl]propyl]thiophene-2-carboxylic acid

$$$$
