
     RDKit          3D

 42 45  0  0  0  0  0  0  0  0999 V2000
    6.2601    2.0131    0.4358 C   0  0  0  0  0  0  0  0  0  0  0  0
    5.5821    0.7866   -0.0018 N   0  0  0  0  0  0  0  0  0  0  0  0
    4.1620    0.7445    0.0799 C   0  0  0  0  0  0  0  0  0  0  0  0
    3.4498    1.7848    0.5403 N   0  0  0  0  0  0  0  0  0  0  0  0
    2.1008    1.7857    0.6341 C   0  0  0  0  0  0  0  0  0  0  0  0
    1.1986    3.1589    1.2392 Cl  0  0  0  0  0  0  0  0  0  0  0  0
    1.4032    0.6993    0.2533 N   0  0  0  0  0  0  0  0  0  0  0  0
    2.0608   -0.3842   -0.2204 C   0  0  0  0  0  0  0  0  0  0  0  0
    3.4437   -0.3770   -0.3134 C   0  0  0  0  0  0  0  0  0  0  0  0
    3.8275   -1.5824   -0.8162 N   0  0  0  0  0  0  0  0  0  0  0  0
    2.6966   -2.3184   -1.0286 C   0  0  0  0  0  0  0  0  0  0  0  0
    1.6180   -1.5821   -0.6630 N   0  0  0  0  0  0  0  0  0  0  0  0
    0.2205   -1.9352   -0.7057 C   0  0  2  0  0  0  0  0  0  0  0  0
   -0.6060   -0.8506   -0.9766 O   0  0  0  0  0  0  0  0  0  0  0  0
   -1.8609   -1.4470   -0.8091 C   0  0  1  0  0  0  0  0  0  0  0  0
   -1.7060   -1.9649    0.6248 C   0  0  2  0  0  0  0  0  0  0  0  0
   -0.2372   -2.3170    0.6775 C   0  0  1  0  0  0  0  0  0  0  0  0
   -0.0052   -3.6627    0.8805 O   0  0  0  0  0  0  0  0  0  0  0  0
   -2.5159   -3.0447    0.8820 O   0  0  0  0  0  0  0  0  0  0  0  0
   -2.9175   -0.3968   -0.8720 C   0  0  0  0  0  0  0  0  0  0  0  0
   -4.0798   -0.4613   -1.5538 N   0  0  0  0  0  0  0  0  0  0  0  0
   -4.7146    0.6789   -1.3359 N   0  0  0  0  0  0  0  0  0  0  0  0
   -3.9887    1.4478   -0.5441 N   0  0  0  0  0  0  0  0  0  0  0  0
   -2.8649    0.7915   -0.2458 N   0  0  0  0  0  0  0  0  0  0  0  0
   -4.4110    2.7641   -0.1190 C   0  0  0  0  0  0  0  0  0  0  0  0
   -5.2041    2.7312    1.1676 C   0  0  0  0  0  0  0  0  0  0  0  0
    6.1585    2.0171    1.5322 H   0  0  0  0  0  0  0  0  0  0  0  0
    5.6588    2.8576    0.0583 H   0  0  0  0  0  0  0  0  0  0  0  0
    7.2909    2.0799    0.0843 H   0  0  0  0  0  0  0  0  0  0  0  0
    6.0990   -0.0279   -0.3595 H   0  0  0  0  0  0  0  0  0  0  0  0
    2.6388   -3.3266   -1.4230 H   0  0  0  0  0  0  0  0  0  0  0  0
   -0.0308   -2.7346   -1.4023 H   0  0  0  0  0  0  0  0  0  0  0  0
   -2.0228   -2.2370   -1.5407 H   0  0  0  0  0  0  0  0  0  0  0  0
   -1.9296   -1.1079    1.2875 H   0  0  0  0  0  0  0  0  0  0  0  0
    0.3185   -1.6654    1.3874 H   0  0  0  0  0  0  0  0  0  0  0  0
   -0.0967   -4.1192    0.0077 H   0  0  0  0  0  0  0  0  0  0  0  0
   -2.4213   -3.6733    0.1312 H   0  0  0  0  0  0  0  0  0  0  0  0
   -3.4706    3.3252    0.1016 H   0  0  0  0  0  0  0  0  0  0  0  0
   -4.9593    3.2951   -0.9087 H   0  0  0  0  0  0  0  0  0  0  0  0
   -4.5925    2.2282    1.9285 H   0  0  0  0  0  0  0  0  0  0  0  0
   -5.3578    3.7859    1.4766 H   0  0  0  0  0  0  0  0  0  0  0  0
   -6.1952    2.2407    1.0293 H   0  0  0  0  0  0  0  0  0  0  0  0
  1  2  1  0
  2  3  1  0
  3  4  2  0
  4  5  1  0
  5  6  1  0
  5  7  2  0
  7  8  1  0
  8  9  2  0
  9 10  1  0
 10 11  2  0
 11 12  1  0
 12 13  1  0
 13 14  1  0
 14 15  1  0
 15 16  1  0
 16 17  1  0
 17 18  1  0
 16 19  1  0
 15 20  1  0
 20 21  1  0
 21 22  2  0
 22 23  1  0
 23 24  1  0
 23 25  1  0
 25 26  1  0
  9  3  1  0
 17 13  1  0
 24 20  2  0
 12  8  1  0
  1 27  1  0
  1 28  1  0
  1 29  1  0
  2 30  1  0
 11 31  1  0
 13 32  1  6
 15 33  1  6
 16 34  1  1
 17 35  1  1
 18 36  1  0
 19 37  1  0
 25 38  1  0
 25 39  1  0
 26 40  1  0
 26 41  1  0
 26 42  1  0
M  END
>  <Ligand ID>  (1) 
LIG0001920

>  <Ligand>  (1) 
CHEMBL3414939

>  <SMILES>  (1) 
CNc1nc(Cl)nc2c1ncn2[C@@H]1O[C@@H]([C@H]([C@H]1O)O)c1nnn(n1)CC

>  <CID>  (1) 
118732973.0

>  <ChEMBL ID>  (1) 
nan

>  <InChiKey>  (1) 
PCCBWJONNFIZJH-FLNNQWSLSA-N

>  <InChi>  (1) 
InChI=1S/C13H16ClN9O3/c1-3-23-20-10(19-21-23)8-6(24)7(25)12(26-8)22-4-16-5-9(15-2)17-13(14)18-11(5)22/h4,6-8,12,24-25H,3H2,1-2H3,(H,15,17,18)/t6-,7+,8-,12+/m0/s1

>  <IUPAC Name>  (1) 
(2R,3R,4S,5R)-2-[2-chloro-6-(methylamino)purin-9-yl]-5-(2-ethyltetrazol-5-yl)oxolane-3,4-diol

$$$$
