
     RDKit          3D

 56 60  0  0  0  0  0  0  0  0999 V2000
    9.0570   -1.4707   -1.7880 Cl  0  0  0  0  0  0  0  0  0  0  0  0
    7.3555   -1.2630   -1.8203 C   0  0  0  0  0  0  0  0  0  0  0  0
    6.4904   -1.2171   -2.8877 C   0  0  0  0  0  0  0  0  0  0  0  0
    5.1901   -1.0431   -2.6574 C   0  0  0  0  0  0  0  0  0  0  0  0
    4.7551   -0.9140   -1.3636 C   0  0  0  0  0  0  0  0  0  0  0  0
    6.3127   -1.0478   -0.3233 S   0  0  0  0  0  0  0  0  0  0  0  0
    3.4647   -0.6918   -0.7603 C   0  0  0  0  0  0  0  0  0  0  0  0
    2.5892    0.2169   -1.1123 C   0  0  0  0  0  0  0  0  0  0  0  0
    2.7600    1.2038   -2.2082 C   0  0  0  0  0  0  0  0  0  0  0  0
    1.6064    1.1426   -3.1755 C   0  0  0  0  0  0  0  0  0  0  0  0
    0.2679    1.1735   -2.5267 C   0  0  0  0  0  0  0  0  0  0  0  0
    0.2114    0.7609   -1.1283 C   0  0  0  0  0  0  0  0  0  0  0  0
    1.3072    0.2918   -0.3949 C   0  0  0  0  0  0  0  0  0  0  0  0
    0.9398   -0.0037    0.8518 N   0  0  0  0  0  0  0  0  0  0  0  0
   -0.3730    0.2627    0.9454 N   0  0  0  0  0  0  0  0  0  0  0  0
   -0.8334    0.7262   -0.2408 C   0  0  0  0  0  0  0  0  0  0  0  0
   -2.2118    1.1243   -0.5273 C   0  0  0  0  0  0  0  0  0  0  0  0
   -2.5285    1.5580   -1.6576 O   0  0  0  0  0  0  0  0  0  0  0  0
   -3.2058    1.0114    0.5095 N   0  0  0  0  0  0  0  0  0  0  0  0
   -4.5960    1.3968    0.2741 C   0  0  1  0  0  0  0  0  0  0  0  0
   -5.4955    0.2091    0.4216 C   0  0  0  0  0  0  0  0  0  0  0  0
   -6.6788    0.2554    1.1211 C   0  0  0  0  0  0  0  0  0  0  0  0
   -7.4055   -0.9368    1.1672 C   0  0  0  0  0  0  0  0  0  0  0  0
   -6.9675   -2.0891    0.5517 C   0  0  0  0  0  0  0  0  0  0  0  0
   -5.7698   -2.0681   -0.1350 C   0  0  0  0  0  0  0  0  0  0  0  0
   -5.0560   -0.9280   -0.1902 N   0  0  0  0  0  0  0  0  0  0  0  0
   -4.9444    2.4988    1.2494 C   0  0  0  0  0  0  0  0  0  0  0  0
    1.7998   -0.5032    1.8822 C   0  0  0  0  0  0  0  0  0  0  0  0
    2.8455    0.2780    2.3915 C   0  0  0  0  0  0  0  0  0  0  0  0
    3.6701   -0.1921    3.3881 C   0  0  0  0  0  0  0  0  0  0  0  0
    3.4697   -1.4592    3.9022 C   0  0  0  0  0  0  0  0  0  0  0  0
    2.4554   -2.2419    3.4220 C   0  0  0  0  0  0  0  0  0  0  0  0
    1.6170   -1.7835    2.4197 C   0  0  0  0  0  0  0  0  0  0  0  0
    2.2348   -3.8422    4.0997 Cl  0  0  0  0  0  0  0  0  0  0  0  0
    4.5475   -2.0168    5.1712 Cl  0  0  0  0  0  0  0  0  0  0  0  0
    6.9098   -1.3288   -3.9153 H   0  0  0  0  0  0  0  0  0  0  0  0
    4.4400   -1.0148   -3.4834 H   0  0  0  0  0  0  0  0  0  0  0  0
    3.2058   -1.3593    0.0650 H   0  0  0  0  0  0  0  0  0  0  0  0
    2.8018    2.1997   -1.7048 H   0  0  0  0  0  0  0  0  0  0  0  0
    3.6895    1.0327   -2.7316 H   0  0  0  0  0  0  0  0  0  0  0  0
    1.7426    0.2555   -3.8305 H   0  0  0  0  0  0  0  0  0  0  0  0
    1.6828    2.0465   -3.8468 H   0  0  0  0  0  0  0  0  0  0  0  0
   -0.4137    0.4706   -3.0879 H   0  0  0  0  0  0  0  0  0  0  0  0
   -0.2328    2.1665   -2.6327 H   0  0  0  0  0  0  0  0  0  0  0  0
   -2.9808    0.6537    1.4621 H   0  0  0  0  0  0  0  0  0  0  0  0
   -4.7489    1.7956   -0.7519 H   0  0  0  0  0  0  0  0  0  0  0  0
   -7.0000    1.1569    1.5905 H   0  0  0  0  0  0  0  0  0  0  0  0
   -8.3443   -0.9798    1.6962 H   0  0  0  0  0  0  0  0  0  0  0  0
   -7.5083   -3.0242    0.5702 H   0  0  0  0  0  0  0  0  0  0  0  0
   -5.3707   -2.9407   -0.6401 H   0  0  0  0  0  0  0  0  0  0  0  0
   -5.2932    2.0717    2.2150 H   0  0  0  0  0  0  0  0  0  0  0  0
   -5.7131    3.1695    0.8279 H   0  0  0  0  0  0  0  0  0  0  0  0
   -4.0601    3.1237    1.4980 H   0  0  0  0  0  0  0  0  0  0  0  0
    3.0254    1.2857    1.9996 H   0  0  0  0  0  0  0  0  0  0  0  0
    4.4737    0.4054    3.7819 H   0  0  0  0  0  0  0  0  0  0  0  0
    0.8138   -2.4175    2.0478 H   0  0  0  0  0  0  0  0  0  0  0  0
  1  2  1  0
  2  3  2  0
  3  4  1  0
  4  5  2  0
  5  6  1  0
  5  7  1  0
  7  8  2  0
  8  9  1  0
  9 10  1  0
 10 11  1  0
 11 12  1  0
 12 13  2  0
 13 14  1  0
 14 15  1  0
 15 16  2  0
 16 17  1  0
 17 18  2  0
 17 19  1  0
 19 20  1  0
 20 21  1  0
 21 22  2  0
 22 23  1  0
 23 24  2  0
 24 25  1  0
 25 26  2  0
 20 27  1  0
 14 28  1  0
 28 29  2  0
 29 30  1  0
 30 31  2  0
 31 32  1  0
 32 33  2  0
 32 34  1  0
 31 35  1  0
  6  2  1  0
 13  8  1  0
 26 21  1  0
 33 28  1  0
 16 12  1  0
  3 36  1  0
  4 37  1  0
  7 38  1  0
  9 39  1  0
  9 40  1  0
 10 41  1  0
 10 42  1  0
 11 43  1  0
 11 44  1  0
 19 45  1  0
 20 46  1  6
 22 47  1  0
 23 48  1  0
 24 49  1  0
 25 50  1  0
 27 51  1  0
 27 52  1  0
 27 53  1  0
 29 54  1  0
 30 55  1  0
 33 56  1  0
M  END
>  <Ligand ID>  (1) 
LIG0005421

>  <Ligand>  (1) 
CHEMBL3955683

>  <SMILES>  (1) 
Clc1ccc(s1)/C=C/1\CCCc2c1n(nc2C(=O)N[C@@H](c1ccccn1)C)c1ccc(c(c1)Cl)Cl

>  <CID>  (1) 
134145050.0

>  <ChEMBL ID>  (1) 
nan

>  <InChiKey>  (1) 
YOYNENLNPUELRK-WTNDLDAUSA-N

>  <InChi>  (1) 
InChI=1S/C26H21Cl3N4OS/c1-15(22-7-2-3-12-30-22)31-26(34)24-19-6-4-5-16(13-18-9-11-23(29)35-18)25(19)33(32-24)17-8-10-20(27)21(28)14-17/h2-3,7-15H,4-6H2,1H3,(H,31,34)/b16-13+/t15-/m1/s1

>  <IUPAC Name>  (1) 
(7E)-7-[(5-chlorothiophen-2-yl)methylidene]-1-(3,4-dichlorophenyl)-N-[(1R)-1-pyridin-2-ylethyl]-5,6-dihydro-4H-indazole-3-carboxamide

$$$$
