
     RDKit          3D

 27 28  0  0  0  0  0  0  0  0999 V2000
   -2.4329   -1.1161   -0.9101 N   0  0  0  0  0  0  0  0  0  0  0  0
   -2.7356    0.0544   -0.0645 C   0  0  0  0  0  0  0  0  0  0  0  0
   -1.6634    0.1650    0.9943 C   0  0  0  0  0  0  0  0  0  0  0  0
   -0.3122    0.3507    0.4575 C   0  0  0  0  0  0  0  0  0  0  0  0
    0.1546    1.5785   -0.0092 C   0  0  0  0  0  0  0  0  0  0  0  0
   -0.5890    2.8732   -0.0368 C   0  0  0  0  0  0  0  0  0  0  0  0
    1.4388    1.4236   -0.4493 N   0  0  0  0  0  0  0  0  0  0  0  0
    1.8000    0.1414   -0.2776 C   0  0  0  0  0  0  0  0  0  0  0  0
    0.7331   -0.5297    0.2788 C   0  0  0  0  0  0  0  0  0  0  0  0
    0.8436   -1.8732    0.5516 C   0  0  0  0  0  0  0  0  0  0  0  0
    2.0322   -2.5358    0.2610 C   0  0  0  0  0  0  0  0  0  0  0  0
    3.1093   -1.8532   -0.3023 C   0  0  0  0  0  0  0  0  0  0  0  0
    2.9906   -0.4869   -0.5766 C   0  0  0  0  0  0  0  0  0  0  0  0
    4.3354    0.3853   -1.2852 Cl  0  0  0  0  0  0  0  0  0  0  0  0
   -2.0183   -1.8765   -0.2942 H   0  0  0  0  0  0  0  0  0  0  0  0
   -3.3567   -1.4771   -1.3019 H   0  0  0  0  0  0  0  0  0  0  0  0
   -2.8467    0.9530   -0.6873 H   0  0  0  0  0  0  0  0  0  0  0  0
   -3.6973   -0.1384    0.4473 H   0  0  0  0  0  0  0  0  0  0  0  0
   -1.9130    1.0567    1.6385 H   0  0  0  0  0  0  0  0  0  0  0  0
   -1.7752   -0.7212    1.6595 H   0  0  0  0  0  0  0  0  0  0  0  0
   -1.2158    2.9484   -0.9498 H   0  0  0  0  0  0  0  0  0  0  0  0
   -1.2107    3.0342    0.8713 H   0  0  0  0  0  0  0  0  0  0  0  0
    0.1329    3.7285   -0.0777 H   0  0  0  0  0  0  0  0  0  0  0  0
    2.0100    2.1931   -0.8447 H   0  0  0  0  0  0  0  0  0  0  0  0
   -0.0001   -2.3766    0.9847 H   0  0  0  0  0  0  0  0  0  0  0  0
    2.1493   -3.5908    0.4652 H   0  0  0  0  0  0  0  0  0  0  0  0
    4.0370   -2.3104   -0.5426 H   0  0  0  0  0  0  0  0  0  0  0  0
  1  2  1  0
  2  3  1  0
  3  4  1  0
  4  5  2  0
  5  6  1  0
  5  7  1  0
  7  8  1  0
  8  9  2  0
  9 10  1  0
 10 11  2  0
 11 12  1  0
 12 13  2  0
 13 14  1  0
  9  4  1  0
 13  8  1  0
  1 15  1  0
  1 16  1  0
  2 17  1  0
  2 18  1  0
  3 19  1  0
  3 20  1  0
  6 21  1  0
  6 22  1  0
  6 23  1  0
  7 24  1  0
 10 25  1  0
 11 26  1  0
 12 27  1  0
M  END
>  <Ligand ID>  (1) 
LIG0003670

>  <Ligand>  (1) 
2-(7-Chloro-2-methyl-1H-indol-3-yl)ethanamine

>  <SMILES>  (1) 
NCCc1c(C)[nH]c2c1cccc2Cl

>  <CID>  (1) 
601380.0

>  <ChEMBL ID>  (1) 
nan

>  <InChiKey>  (1) 
ONHHERXYVWROCY-UHFFFAOYSA-N

>  <InChi>  (1) 
InChI=1S/C11H13ClN2/c1-7-8(5-6-13)9-3-2-4-10(12)11(9)14-7/h2-4,14H,5-6,13H2,1H3

>  <IUPAC Name>  (1) 
2-(7-chloro-2-methyl-1H-indol-3-yl)ethanamine

$$$$
