
     RDKit          3D

 21 21  0  0  0  0  0  0  0  0999 V2000
   -1.8273   -0.3113   -1.8402 N   0  0  0  0  0  0  0  0  0  0  0  0
   -1.2470    0.3102   -0.6547 C   0  0  2  0  0  0  0  0  0  0  0  0
    0.2225    0.4763   -0.7621 C   0  0  2  0  0  0  0  0  0  0  0  0
    1.1876   -0.6063   -0.9513 C   0  0  1  0  0  0  0  0  0  0  0  0
    0.9852   -0.1472    0.4158 C   0  0  1  0  0  0  0  0  0  0  0  0
    1.8308    0.8406    1.1102 C   0  0  0  0  0  0  0  0  0  0  0  0
    2.4538    1.7281    0.4582 O   0  0  0  0  0  0  0  0  0  0  0  0
    2.0000    0.8680    2.4898 O   0  0  0  0  0  0  0  0  0  0  0  0
    0.7682   -1.8983   -1.2954 O   0  0  0  0  0  0  0  0  0  0  0  0
   -1.7394   -0.3185    0.5839 C   0  0  0  0  0  0  0  0  0  0  0  0
   -2.5040   -1.3335    0.4503 O   0  0  0  0  0  0  0  0  0  0  0  0
   -1.4295    0.1183    1.8610 O   0  0  0  0  0  0  0  0  0  0  0  0
   -1.3489    0.1032   -2.6731 H   0  0  0  0  0  0  0  0  0  0  0  0
   -2.8468   -0.1207   -1.9246 H   0  0  0  0  0  0  0  0  0  0  0  0
   -1.6883    1.3510   -0.6595 H   0  0  0  0  0  0  0  0  0  0  0  0
    0.5534    1.4727   -1.1290 H   0  0  0  0  0  0  0  0  0  0  0  0
    2.1499   -0.3702   -1.4355 H   0  0  0  0  0  0  0  0  0  0  0  0
    0.5071   -0.8518    1.0905 H   0  0  0  0  0  0  0  0  0  0  0  0
    2.4070    1.6143    3.0158 H   0  0  0  0  0  0  0  0  0  0  0  0
    1.3035   -2.5788   -0.8562 H   0  0  0  0  0  0  0  0  0  0  0  0
   -1.7379   -0.3462    2.7062 H   0  0  0  0  0  0  0  0  0  0  0  0
  1  2  1  0
  2  3  1  0
  3  4  1  0
  4  5  1  0
  5  6  1  0
  6  7  2  0
  6  8  1  0
  4  9  1  0
  2 10  1  0
 10 11  2  0
 10 12  1  0
  5  3  1  0
  1 13  1  0
  1 14  1  0
  2 15  1  1
  3 16  1  6
  4 17  1  6
  5 18  1  1
  8 19  1  0
  9 20  1  0
 12 21  1  0
M  END
>  <Ligand ID>  (1) 
LIG0001076

>  <Ligand>  (1) 
CHEMBL357043

>  <SMILES>  (1) 
N[C@H]([C@@H]1[C@@H]([C@H]1C(=O)O)O)C(=O)O

>  <CID>  (1) 
44361402.0

>  <ChEMBL ID>  (1) 
nan

>  <InChiKey>  (1) 
LGSORWLWDBCUMM-XHGCLVTGSA-N

>  <InChi>  (1) 
InChI=1S/C6H9NO5/c7-3(6(11)12)1-2(4(1)8)5(9)10/h1-4,8H,7H2,(H,9,10)(H,11,12)/t1-,2+,3-,4+/m1/s1

>  <IUPAC Name>  (1) 
(1S,2R,3S)-2-[(R)-amino(carboxy)methyl]-3-hydroxycyclopropane-1-carboxylic acid

$$$$
