
     RDKit          3D

 34 33  0  0  0  0  0  0  0  0999 V2000
    1.1161   -2.0302   -0.3637 C   0  0  0  0  0  0  0  0  0  0  0  0
    0.6837   -0.6088   -0.4509 C   0  0  0  0  0  0  0  0  0  0  0  0
    1.4621    0.3165   -0.9987 C   0  0  0  0  0  0  0  0  0  0  0  0
    2.7936    0.0725   -1.5661 C   0  0  0  0  0  0  0  0  0  0  0  0
    3.8407    0.7793   -0.9733 O   0  0  0  0  0  0  0  0  0  0  0  0
    4.2307    0.7126    0.3508 C   0  0  0  0  0  0  0  0  0  0  0  0
    3.6090   -0.0474    1.1373 O   0  0  0  0  0  0  0  0  0  0  0  0
    5.3792    1.5202    0.8919 C   0  0  0  0  0  0  0  0  0  0  0  0
   -0.6917   -0.2356    0.1107 C   0  0  0  0  0  0  0  0  0  0  0  0
   -1.7573   -0.9904   -0.5934 C   0  0  0  0  0  0  0  0  0  0  0  0
   -3.1174   -0.6827   -0.1526 C   0  0  0  0  0  0  0  0  0  0  0  0
   -3.6124    0.1829    0.6742 C   0  0  0  0  0  0  0  0  0  0  0  0
   -5.1329    0.1568    0.8429 C   0  0  0  0  0  0  0  0  0  0  0  0
   -2.9286    1.2143    1.4695 C   0  0  0  0  0  0  0  0  0  0  0  0
    2.1809   -2.0606   -0.0682 H   0  0  0  0  0  0  0  0  0  0  0  0
    0.9245   -2.5796   -1.3100 H   0  0  0  0  0  0  0  0  0  0  0  0
    0.4948   -2.5467    0.3952 H   0  0  0  0  0  0  0  0  0  0  0  0
    1.0724    1.3310   -1.0235 H   0  0  0  0  0  0  0  0  0  0  0  0
    2.9907   -1.0117   -1.6160 H   0  0  0  0  0  0  0  0  0  0  0  0
    2.7746    0.4084   -2.6445 H   0  0  0  0  0  0  0  0  0  0  0  0
    5.6969    2.1948    0.0665 H   0  0  0  0  0  0  0  0  0  0  0  0
    5.1129    2.0555    1.8131 H   0  0  0  0  0  0  0  0  0  0  0  0
    6.1969    0.7997    1.1243 H   0  0  0  0  0  0  0  0  0  0  0  0
   -0.6342   -0.5728    1.1935 H   0  0  0  0  0  0  0  0  0  0  0  0
   -0.7326    0.8486    0.0819 H   0  0  0  0  0  0  0  0  0  0  0  0
   -1.6772   -0.8978   -1.7131 H   0  0  0  0  0  0  0  0  0  0  0  0
   -1.6060   -2.0911   -0.3483 H   0  0  0  0  0  0  0  0  0  0  0  0
   -3.8902   -1.3516   -0.6485 H   0  0  0  0  0  0  0  0  0  0  0  0
   -5.5113    0.9268    0.1375 H   0  0  0  0  0  0  0  0  0  0  0  0
   -5.4971   -0.8420    0.6035 H   0  0  0  0  0  0  0  0  0  0  0  0
   -5.3653    0.4080    1.8773 H   0  0  0  0  0  0  0  0  0  0  0  0
   -2.5752    2.0464    0.8132 H   0  0  0  0  0  0  0  0  0  0  0  0
   -2.1486    0.8246    2.1383 H   0  0  0  0  0  0  0  0  0  0  0  0
   -3.6815    1.7502    2.1417 H   0  0  0  0  0  0  0  0  0  0  0  0
  1  2  1  0
  2  3  2  0
  3  4  1  0
  4  5  1  0
  5  6  1  0
  6  7  2  0
  6  8  1  0
  2  9  1  0
  9 10  1  0
 10 11  1  0
 11 12  2  3
 12 13  1  0
 12 14  1  0
  1 15  1  0
  1 16  1  0
  1 17  1  0
  3 18  1  0
  4 19  1  0
  4 20  1  0
  8 21  1  0
  8 22  1  0
  8 23  1  0
  9 24  1  0
  9 25  1  0
 10 26  1  0
 10 27  1  0
 11 28  1  0
 13 29  1  0
 13 30  1  0
 13 31  1  0
 14 32  1  0
 14 33  1  0
 14 34  1  0
M  END
>  <Ligand ID>  (1) 
LIG0000015

>  <Ligand>  (1) 
geranyl acetate

>  <SMILES>  (1) 
C/C(=C\COC(=O)C)/CCC=C(C)C

>  <CID>  (1) 
1549026.0

>  <ChEMBL ID>  (1) 
nan

>  <InChiKey>  (1) 
HIGQPQRQIQDZMP-DHZHZOJOSA-N

>  <InChi>  (1) 
InChI=1S/C12H20O2/c1-10(2)6-5-7-11(3)8-9-14-12(4)13/h6,8H,5,7,9H2,1-4H3/b11-8+

>  <IUPAC Name>  (1) 
[(2E)-3,7-dimethylocta-2,6-dienyl] acetate

$$$$
