
     RDKit          3D

133137  0  0  0  0  0  0  0  0999 V2000
    9.9711   -3.6733   -0.4934 C   0  0  0  0  0  0  0  0  0  0  0  0
   10.2288   -2.6574    0.6120 C   0  0  0  0  0  0  0  0  0  0  0  0
    8.9051   -2.0791    1.0441 C   0  0  0  0  0  0  0  0  0  0  0  0
    8.2724   -1.4072   -0.1587 C   0  0  0  0  0  0  0  0  0  0  0  0
    6.9386   -0.8288    0.2156 C   0  0  0  0  0  0  0  0  0  0  0  0
    6.5635   -1.0472    1.3935 O   0  0  0  0  0  0  0  0  0  0  0  0
    6.1572   -0.0793   -0.7272 N   0  0  0  0  0  0  0  0  0  0  0  0
    4.9079    0.4251   -0.3126 C   0  0  2  0  0  0  0  0  0  0  0  0
    3.7900   -0.1391   -1.1580 C   0  0  0  0  0  0  0  0  0  0  0  0
    3.4703   -1.5358   -0.7864 C   0  0  0  0  0  0  0  0  0  0  0  0
    3.9481   -2.1424    0.1913 O   0  0  0  0  0  0  0  0  0  0  0  0
    2.5361   -2.3401   -1.5422 N   0  0  0  0  0  0  0  0  0  0  0  0
    2.2338   -3.6788   -1.0546 C   0  0  0  0  0  0  0  0  0  0  0  0
    1.2354   -4.2554   -2.0184 C   0  0  0  0  0  0  0  0  0  0  0  0
    0.4118   -5.4110   -1.3553 C   0  0  0  0  0  0  0  0  0  0  0  0
   -0.3049   -4.7726   -0.1832 C   0  0  0  0  0  0  0  0  0  0  0  0
   -1.4584   -5.6425    0.3626 C   0  0  2  0  0  0  0  0  0  0  0  0
   -2.0995   -4.7926    1.4137 N   0  0  0  0  0  0  0  0  0  0  0  0
   -2.8342   -3.7125    0.9082 C   0  0  0  0  0  0  0  0  0  0  0  0
   -2.8962   -3.5992   -0.3325 O   0  0  0  0  0  0  0  0  0  0  0  0
   -3.5645   -2.6530    1.6876 C   0  0  1  0  0  0  0  0  0  0  0  0
   -3.9251   -1.5917    0.7420 N   0  0  0  0  0  0  0  0  0  0  0  0
   -3.3378   -0.2872    0.8123 C   0  0  0  0  0  0  0  0  0  0  0  0
   -2.5909   -0.0917    1.7689 O   0  0  0  0  0  0  0  0  0  0  0  0
   -3.6361    0.7686   -0.2474 C   0  0  2  0  0  0  0  0  0  0  0  0
   -2.8365    1.9470    0.0251 N   0  0  0  0  0  0  0  0  0  0  0  0
   -1.4303    1.9975   -0.3599 C   0  0  0  0  0  0  0  0  0  0  0  0
   -0.9955    0.9033   -0.7505 O   0  0  0  0  0  0  0  0  0  0  0  0
   -0.6332    3.2435   -0.2661 C   0  0  1  0  0  0  0  0  0  0  0  0
    0.8122    2.9772   -0.2434 N   0  0  0  0  0  0  0  0  0  0  0  0
    1.7100    3.8743    0.4233 C   0  0  0  0  0  0  0  0  0  0  0  0
    1.1676    4.8968    0.8806 O   0  0  0  0  0  0  0  0  0  0  0  0
    3.1527    3.7041    0.5976 C   0  0  2  0  0  0  0  0  0  0  0  0
    3.5276    2.3438    0.3892 N   0  0  0  0  0  0  0  0  0  0  0  0
    4.7250    1.8797   -0.2594 C   0  0  0  0  0  0  0  0  0  0  0  0
    5.4631    2.7605   -0.6913 O   0  0  0  0  0  0  0  0  0  0  0  0
    3.5992    4.1890    1.9916 C   0  0  0  0  0  0  0  0  0  0  0  0
    5.0765    3.9752    2.0555 C   0  0  0  0  0  0  0  0  0  0  0  0
    5.7638    2.8982    2.4781 N   0  0  0  0  0  0  0  0  0  0  0  0
    7.0763    3.1841    2.3364 C   0  0  0  0  0  0  0  0  0  0  0  0
    7.2458    4.4041    1.8394 N   0  0  0  0  0  0  0  0  0  0  0  0
    6.0086    4.9380    1.6477 C   0  0  0  0  0  0  0  0  0  0  0  0
   -0.9397    4.0264   -1.5707 C   0  0  0  0  0  0  0  0  0  0  0  0
   -0.2286    5.3032   -1.6513 C   0  0  0  0  0  0  0  0  0  0  0  0
   -0.8605    6.4230   -1.0965 C   0  0  0  0  0  0  0  0  0  0  0  0
   -0.2961    7.6664   -1.1329 C   0  0  0  0  0  0  0  0  0  0  0  0
    0.9347    7.8210   -1.7351 C   0  0  0  0  0  0  0  0  0  0  0  0
    1.5817    6.7400   -2.2899 C   0  0  0  0  0  0  0  0  0  0  0  0
    1.0012    5.4900   -2.2470 C   0  0  0  0  0  0  0  0  0  0  0  0
   -5.0804    0.9418   -0.3732 C   0  0  0  0  0  0  0  0  0  0  0  0
   -5.6699    1.8866   -1.3415 C   0  0  0  0  0  0  0  0  0  0  0  0
   -5.2977    3.3009   -1.1259 C   0  0  0  0  0  0  0  0  0  0  0  0
   -5.6587    3.8229    0.1611 N   0  0  0  0  0  0  0  0  0  0  0  0
   -6.2998    4.8958    0.3972 C   0  0  0  0  0  0  0  0  0  0  0  0
   -6.5794    5.2749    1.7588 N   0  0  0  0  0  0  0  0  0  0  0  0
   -6.7738    5.7715   -0.6489 N   0  0  0  0  0  0  0  0  0  0  0  0
   -4.7531   -3.1760    2.3786 C   0  0  0  0  0  0  0  0  0  0  0  0
   -5.8029   -3.7875    1.5748 C   0  0  0  0  0  0  0  0  0  0  0  0
   -5.8707   -5.1798    1.3662 C   0  0  0  0  0  0  0  0  0  0  0  0
   -6.9049   -5.4480    0.5589 N   0  0  0  0  0  0  0  0  0  0  0  0
   -7.5243   -4.3288    0.2220 C   0  0  0  0  0  0  0  0  0  0  0  0
   -6.8511   -3.2929    0.8459 C   0  0  0  0  0  0  0  0  0  0  0  0
   -7.3131   -2.0301    0.6536 C   0  0  0  0  0  0  0  0  0  0  0  0
   -8.4086   -1.7414   -0.1274 C   0  0  0  0  0  0  0  0  0  0  0  0
   -9.0464   -2.8137   -0.7305 C   0  0  0  0  0  0  0  0  0  0  0  0
   -8.6314   -4.1043   -0.5755 C   0  0  0  0  0  0  0  0  0  0  0  0
   -0.9160   -6.8473    0.9204 C   0  0  0  0  0  0  0  0  0  0  0  0
   -1.0280   -7.0800    2.1717 O   0  0  0  0  0  0  0  0  0  0  0  0
   -0.2537   -7.7907    0.1106 N   0  0  0  0  0  0  0  0  0  0  0  0
   10.7794   -4.4437   -0.4511 H   0  0  0  0  0  0  0  0  0  0  0  0
    9.0034   -4.1417   -0.3038 H   0  0  0  0  0  0  0  0  0  0  0  0
   10.0589   -3.1920   -1.4723 H   0  0  0  0  0  0  0  0  0  0  0  0
   10.7790   -3.1212    1.4503 H   0  0  0  0  0  0  0  0  0  0  0  0
   10.8952   -1.8910    0.1721 H   0  0  0  0  0  0  0  0  0  0  0  0
    9.0464   -1.3410    1.8816 H   0  0  0  0  0  0  0  0  0  0  0  0
    8.2458   -2.8791    1.4275 H   0  0  0  0  0  0  0  0  0  0  0  0
    8.8821   -0.6039   -0.5819 H   0  0  0  0  0  0  0  0  0  0  0  0
    8.1145   -2.1845   -0.9211 H   0  0  0  0  0  0  0  0  0  0  0  0
    6.5099    0.0890   -1.6991 H   0  0  0  0  0  0  0  0  0  0  0  0
    4.6701    0.0377    0.7378 H   0  0  0  0  0  0  0  0  0  0  0  0
    3.9962   -0.0312   -2.2449 H   0  0  0  0  0  0  0  0  0  0  0  0
    2.8824    0.4560   -0.9506 H   0  0  0  0  0  0  0  0  0  0  0  0
    2.1628   -1.8966   -2.3701 H   0  0  0  0  0  0  0  0  0  0  0  0
    1.8198   -3.6725   -0.0537 H   0  0  0  0  0  0  0  0  0  0  0  0
    3.1465   -4.3131   -1.0166 H   0  0  0  0  0  0  0  0  0  0  0  0
    0.4476   -3.5352   -2.3027 H   0  0  0  0  0  0  0  0  0  0  0  0
    1.7532   -4.6430   -2.9130 H   0  0  0  0  0  0  0  0  0  0  0  0
    1.1527   -6.1510   -1.0510 H   0  0  0  0  0  0  0  0  0  0  0  0
   -0.2909   -5.7288   -2.1489 H   0  0  0  0  0  0  0  0  0  0  0  0
   -0.6219   -3.7458   -0.4085 H   0  0  0  0  0  0  0  0  0  0  0  0
    0.4179   -4.7822    0.6875 H   0  0  0  0  0  0  0  0  0  0  0  0
   -2.1678   -5.7753   -0.5000 H   0  0  0  0  0  0  0  0  0  0  0  0
   -2.0350   -4.9445    2.3935 H   0  0  0  0  0  0  0  0  0  0  0  0
   -2.8618   -2.2034    2.4128 H   0  0  0  0  0  0  0  0  0  0  0  0
   -4.5869   -1.7395   -0.0069 H   0  0  0  0  0  0  0  0  0  0  0  0
   -3.2332    0.2457   -1.1769 H   0  0  0  0  0  0  0  0  0  0  0  0
   -3.1397    2.7900    0.5080 H   0  0  0  0  0  0  0  0  0  0  0  0
   -0.9068    3.8971    0.5407 H   0  0  0  0  0  0  0  0  0  0  0  0
    1.2594    2.1759   -0.6824 H   0  0  0  0  0  0  0  0  0  0  0  0
    3.7122    4.3321   -0.1420 H   0  0  0  0  0  0  0  0  0  0  0  0
    2.9027    1.6037    0.7201 H   0  0  0  0  0  0  0  0  0  0  0  0
    3.4109    5.2618    2.1111 H   0  0  0  0  0  0  0  0  0  0  0  0
    3.1364    3.5487    2.7412 H   0  0  0  0  0  0  0  0  0  0  0  0
    5.3351    2.0194    2.8454 H   0  0  0  0  0  0  0  0  0  0  0  0
    7.8930    2.5001    2.5972 H   0  0  0  0  0  0  0  0  0  0  0  0
    5.8120    5.9256    1.2502 H   0  0  0  0  0  0  0  0  0  0  0  0
   -2.0168    4.2217   -1.6248 H   0  0  0  0  0  0  0  0  0  0  0  0
   -0.6618    3.4057   -2.4426 H   0  0  0  0  0  0  0  0  0  0  0  0
   -1.8284    6.3076   -0.6220 H   0  0  0  0  0  0  0  0  0  0  0  0
   -0.8356    8.4903   -0.6857 H   0  0  0  0  0  0  0  0  0  0  0  0
    1.3396    8.8281   -1.7376 H   0  0  0  0  0  0  0  0  0  0  0  0
    2.5442    6.8976   -2.7531 H   0  0  0  0  0  0  0  0  0  0  0  0
    1.4875    4.6264   -2.6760 H   0  0  0  0  0  0  0  0  0  0  0  0
   -5.4754    1.2147    0.6588 H   0  0  0  0  0  0  0  0  0  0  0  0
   -5.5157   -0.1055   -0.5164 H   0  0  0  0  0  0  0  0  0  0  0  0
   -6.7977    1.8339   -1.1932 H   0  0  0  0  0  0  0  0  0  0  0  0
   -5.5515    1.5586   -2.4043 H   0  0  0  0  0  0  0  0  0  0  0  0
   -4.2515    3.5490   -1.3450 H   0  0  0  0  0  0  0  0  0  0  0  0
   -5.8867    3.9109   -1.8877 H   0  0  0  0  0  0  0  0  0  0  0  0
   -6.6068    4.5246    2.5116 H   0  0  0  0  0  0  0  0  0  0  0  0
   -6.7569    6.2692    2.0320 H   0  0  0  0  0  0  0  0  0  0  0  0
   -7.5017    5.3882   -1.2886 H   0  0  0  0  0  0  0  0  0  0  0  0
   -6.4069    6.7453   -0.7615 H   0  0  0  0  0  0  0  0  0  0  0  0
   -5.2101   -2.3116    2.9507 H   0  0  0  0  0  0  0  0  0  0  0  0
   -4.3859   -3.8735    3.1937 H   0  0  0  0  0  0  0  0  0  0  0  0
   -5.2071   -5.9234    1.7808 H   0  0  0  0  0  0  0  0  0  0  0  0
   -7.1622   -6.4161    0.2558 H   0  0  0  0  0  0  0  0  0  0  0  0
   -6.7641   -1.2257    1.1661 H   0  0  0  0  0  0  0  0  0  0  0  0
   -8.7502   -0.7246   -0.2581 H   0  0  0  0  0  0  0  0  0  0  0  0
   -9.9071   -2.5636   -1.3437 H   0  0  0  0  0  0  0  0  0  0  0  0
   -9.1818   -4.8755   -1.0752 H   0  0  0  0  0  0  0  0  0  0  0  0
   -0.5131   -7.9796   -0.9024 H   0  0  0  0  0  0  0  0  0  0  0  0
    0.5377   -8.3312    0.5404 H   0  0  0  0  0  0  0  0  0  0  0  0
  1  2  1  0
  2  3  1  0
  3  4  1  0
  4  5  1  0
  5  6  2  0
  5  7  1  0
  7  8  1  0
  8  9  1  0
  9 10  1  0
 10 11  2  0
 10 12  1  0
 12 13  1  0
 13 14  1  0
 14 15  1  0
 15 16  1  0
 16 17  1  0
 17 18  1  0
 18 19  1  0
 19 20  2  0
 19 21  1  0
 21 22  1  0
 22 23  1  0
 23 24  2  0
 23 25  1  0
 25 26  1  0
 26 27  1  0
 27 28  2  0
 27 29  1  0
 29 30  1  0
 30 31  1  0
 31 32  2  0
 31 33  1  0
 33 34  1  0
 34 35  1  0
 35 36  2  0
 33 37  1  0
 37 38  1  0
 38 39  1  0
 39 40  1  0
 40 41  2  0
 41 42  1  0
 29 43  1  0
 43 44  1  0
 44 45  2  0
 45 46  1  0
 46 47  2  0
 47 48  1  0
 48 49  2  0
 25 50  1  0
 50 51  1  0
 51 52  1  0
 52 53  1  0
 53 54  2  3
 54 55  1  0
 54 56  1  0
 21 57  1  0
 57 58  1  0
 58 59  2  0
 59 60  1  0
 60 61  1  0
 61 62  2  0
 62 63  1  0
 63 64  2  0
 64 65  1  0
 65 66  2  0
 17 67  1  0
 67 68  2  0
 67 69  1  0
 35  8  1  0
 42 38  2  0
 49 44  1  0
 62 58  1  0
 66 61  1  0
  1 70  1  0
  1 71  1  0
  1 72  1  0
  2 73  1  0
  2 74  1  0
  3 75  1  0
  3 76  1  0
  4 77  1  0
  4 78  1  0
  7 79  1  0
  8 80  1  1
  9 81  1  0
  9 82  1  0
 12 83  1  0
 13 84  1  0
 13 85  1  0
 14 86  1  0
 14 87  1  0
 15 88  1  0
 15 89  1  0
 16 90  1  0
 16 91  1  0
 17 92  1  6
 18 93  1  0
 21 94  1  1
 22 95  1  0
 25 96  1  6
 26 97  1  0
 29 98  1  1
 30 99  1  0
 33100  1  6
 34101  1  0
 37102  1  0
 37103  1  0
 39104  1  0
 40105  1  0
 42106  1  0
 43107  1  0
 43108  1  0
 45109  1  0
 46110  1  0
 47111  1  0
 48112  1  0
 49113  1  0
 50114  1  0
 50115  1  0
 51116  1  0
 51117  1  0
 52118  1  0
 52119  1  0
 55120  1  0
 55121  1  0
 56122  1  0
 56123  1  0
 57124  1  0
 57125  1  0
 59126  1  0
 60127  1  0
 63128  1  0
 64129  1  0
 65130  1  0
 66131  1  0
 69132  1  0
 69133  1  0
M  END
>  <Ligand ID>  (1) 
LIG0001855

>  <Ligand>  (1) 
CHEMBL24892

>  <SMILES>  (1) 
CCCCC(=O)N[C@@H]1CC(=O)NCCCC[C@H](NC(=O)[C@@H](NC(=O)[C@H](NC(=O)[C@@H](NC(=O)[C@H](NC1=O)Cc1[nH]cnc1)Cc1ccccc1)CCCN=C(N)N)Cc1c[nH]c2c1cccc2)C(=O)N

>  <CID>  (1) 
44275650.0

>  <ChEMBL ID>  (1) 
nan

>  <InChiKey>  (1) 
NMAOMCVHZQOUKD-TVSIWPERSA-N

>  <InChi>  (1) 
InChI=1S/C47H64N14O8/c1-2-3-18-39(62)56-38-24-40(63)52-19-10-9-16-33(41(48)64)57-44(67)36(22-29-25-54-32-15-8-7-14-31(29)32)60-42(65)34(17-11-20-53-47(49)50)58-43(66)35(21-28-12-5-4-6-13-28)59-45(68)37(61-46(38)69)23-30-26-51-27-55-30/h4-8,12-15,25-27,33-38,54H,2-3,9-11,16-24H2,1H3,(H2,48,64)(H,51,55)(H,52,63)(H,56,62)(H,57,67)(H,58,66)(H,59,68)(H,60,65)(H,61,69)(H4,49,50,53)/t33-,34+,35-,36-,37+,38+/m0/s1

>  <IUPAC Name>  (1) 
(3S,6R,9S,12R,15R,23S)-9-benzyl-6-[3-(diaminomethylideneamino)propyl]-12-(1H-imidazol-5-ylmethyl)-3-(1H-indol-3-ylmethyl)-2,5,8,11,14,17-hexaoxo-15-(pentanoylamino)-1,4,7,10,13,18-hexazacyclotricosane-23-carboxamide

$$$$
