
     RDKit          3D

 76 78  0  0  0  0  0  0  0  0999 V2000
   -5.5010   -3.8845    1.9571 C   0  0  0  0  0  0  0  0  0  0  0  0
   -5.5209   -2.4496    1.8318 N   0  0  0  0  0  0  0  0  0  0  0  0
   -5.0104   -1.9728    0.5516 C   0  0  0  0  0  0  0  0  0  0  0  0
   -5.0843   -0.4701    0.5023 C   0  0  0  0  0  0  0  0  0  0  0  0
   -4.5700    0.1236   -0.7608 C   0  0  2  0  0  0  0  0  0  0  0  0
   -4.6806    1.5970   -0.7202 N   0  0  0  0  0  0  0  0  0  0  0  0
   -3.5945    2.4677   -0.8792 C   0  0  0  0  0  0  0  0  0  0  0  0
   -3.8311    3.7276   -0.8204 O   0  0  0  0  0  0  0  0  0  0  0  0
   -2.2132    2.1062   -1.1068 C   0  0  0  0  0  0  0  0  0  0  0  0
   -1.6822    2.4014   -2.3600 C   0  0  0  0  0  0  0  0  0  0  0  0
   -2.5592    3.0573   -3.3978 C   0  0  0  0  0  0  0  0  0  0  0  0
   -0.3757    2.1240   -2.6912 C   0  0  0  0  0  0  0  0  0  0  0  0
    0.4479    1.5326   -1.7544 C   0  0  0  0  0  0  0  0  0  0  0  0
   -0.0808    1.2384   -0.5089 C   0  0  0  0  0  0  0  0  0  0  0  0
   -1.3894    1.5145   -0.1747 C   0  0  0  0  0  0  0  0  0  0  0  0
   -1.9232    1.1909    1.1733 C   0  0  0  0  0  0  0  0  0  0  0  0
    1.8408    1.2766   -2.1093 C   0  0  0  0  0  0  0  0  0  0  0  0
    2.4044    2.2071   -2.9949 C   0  0  0  0  0  0  0  0  0  0  0  0
    3.7118    2.1012   -3.4045 C   0  0  0  0  0  0  0  0  0  0  0  0
    4.4383    1.0378   -2.9032 C   0  0  0  0  0  0  0  0  0  0  0  0
    3.8788    0.1134   -2.0235 C   0  0  0  0  0  0  0  0  0  0  0  0
    2.5704    0.2181   -1.6131 C   0  0  0  0  0  0  0  0  0  0  0  0
    4.7593   -0.9322   -1.5961 N   0  0  0  0  0  0  0  0  0  0  0  0
    6.3538   -0.5322   -1.0240 S   0  0  0  0  0  0  0  0  0  0  0  0
    6.5512    0.9523   -1.2135 O   0  0  0  0  0  0  0  0  0  0  0  0
    7.3665   -1.2071   -1.8762 O   0  0  0  0  0  0  0  0  0  0  0  0
    6.5397   -0.9422    0.6648 C   0  0  0  0  0  0  0  0  0  0  0  0
    7.5751   -1.7815    1.0203 C   0  0  0  0  0  0  0  0  0  0  0  0
    7.8381   -2.1613    2.3171 C   0  0  0  0  0  0  0  0  0  0  0  0
    8.9676   -3.0639    2.6891 C   0  0  0  0  0  0  0  0  0  0  0  0
    7.0060   -1.6662    3.3205 C   0  0  0  0  0  0  0  0  0  0  0  0
    5.9846   -0.8350    2.9430 C   0  0  0  0  0  0  0  0  0  0  0  0
    5.7141   -0.4503    1.6531 C   0  0  0  0  0  0  0  0  0  0  0  0
    4.5975    0.4444    1.3152 C   0  0  0  0  0  0  0  0  0  0  0  0
    7.3268   -2.1389    4.9610 Cl  0  0  0  0  0  0  0  0  0  0  0  0
   -6.0199    2.1047   -0.4895 C   0  0  0  0  0  0  0  0  0  0  0  0
   -5.2591   -0.3837   -1.9923 C   0  0  0  0  0  0  0  0  0  0  0  0
   -5.2816   -1.5971   -2.3123 O   0  0  0  0  0  0  0  0  0  0  0  0
   -5.9137    0.5004   -2.8432 O   0  0  0  0  0  0  0  0  0  0  0  0
   -6.8156   -1.8851    2.1229 C   0  0  0  0  0  0  0  0  0  0  0  0
   -5.2803   -4.3259    0.9585 H   0  0  0  0  0  0  0  0  0  0  0  0
   -6.5108   -4.2294    2.2937 H   0  0  0  0  0  0  0  0  0  0  0  0
   -4.7151   -4.1990    2.6585 H   0  0  0  0  0  0  0  0  0  0  0  0
   -3.9468   -2.2456    0.4492 H   0  0  0  0  0  0  0  0  0  0  0  0
   -5.6641   -2.4018   -0.2170 H   0  0  0  0  0  0  0  0  0  0  0  0
   -6.1415   -0.1726    0.7165 H   0  0  0  0  0  0  0  0  0  0  0  0
   -4.5136   -0.0397    1.3707 H   0  0  0  0  0  0  0  0  0  0  0  0
   -3.4958   -0.0841   -0.9177 H   0  0  0  0  0  0  0  0  0  0  0  0
   -2.2296    4.1202   -3.4135 H   0  0  0  0  0  0  0  0  0  0  0  0
   -2.2798    2.6600   -4.3975 H   0  0  0  0  0  0  0  0  0  0  0  0
   -3.6142    2.9534   -3.1615 H   0  0  0  0  0  0  0  0  0  0  0  0
   -0.0542    2.3885   -3.6902 H   0  0  0  0  0  0  0  0  0  0  0  0
    0.5740    0.7740    0.2215 H   0  0  0  0  0  0  0  0  0  0  0  0
   -2.8476    1.7534    1.3914 H   0  0  0  0  0  0  0  0  0  0  0  0
   -1.1319    1.3640    1.9536 H   0  0  0  0  0  0  0  0  0  0  0  0
   -2.1383    0.0985    1.2563 H   0  0  0  0  0  0  0  0  0  0  0  0
    1.8379    3.0406   -3.3879 H   0  0  0  0  0  0  0  0  0  0  0  0
    4.1238    2.8232   -4.0816 H   0  0  0  0  0  0  0  0  0  0  0  0
    5.4669    0.9705   -3.2458 H   0  0  0  0  0  0  0  0  0  0  0  0
    2.1358   -0.4789   -0.9444 H   0  0  0  0  0  0  0  0  0  0  0  0
    4.4712   -1.9271   -1.6180 H   0  0  0  0  0  0  0  0  0  0  0  0
    8.2439   -2.1844    0.2518 H   0  0  0  0  0  0  0  0  0  0  0  0
    9.4256   -2.6177    3.5993 H   0  0  0  0  0  0  0  0  0  0  0  0
    9.6976   -3.1446    1.8638 H   0  0  0  0  0  0  0  0  0  0  0  0
    8.5383   -4.0577    2.9325 H   0  0  0  0  0  0  0  0  0  0  0  0
    5.3308   -0.4461    3.7235 H   0  0  0  0  0  0  0  0  0  0  0  0
    4.8626    1.1426    0.4980 H   0  0  0  0  0  0  0  0  0  0  0  0
    3.6669   -0.1116    1.0553 H   0  0  0  0  0  0  0  0  0  0  0  0
    4.3002    1.0569    2.2172 H   0  0  0  0  0  0  0  0  0  0  0  0
   -6.8182    1.5260   -0.9652 H   0  0  0  0  0  0  0  0  0  0  0  0
   -6.1900    2.2223    0.6149 H   0  0  0  0  0  0  0  0  0  0  0  0
   -6.0647    3.1402   -0.8864 H   0  0  0  0  0  0  0  0  0  0  0  0
   -6.0682    0.2763   -3.8173 H   0  0  0  0  0  0  0  0  0  0  0  0
   -6.7726   -0.9038    2.6263 H   0  0  0  0  0  0  0  0  0  0  0  0
   -7.3945   -1.8303    1.1604 H   0  0  0  0  0  0  0  0  0  0  0  0
   -7.3703   -2.5938    2.7555 H   0  0  0  0  0  0  0  0  0  0  0  0
  1  2  1  0
  2  3  1  0
  3  4  1  0
  4  5  1  0
  5  6  1  0
  6  7  1  0
  7  8  2  0
  7  9  1  0
  9 10  2  0
 10 11  1  0
 10 12  1  0
 12 13  2  0
 13 14  1  0
 14 15  2  0
 15 16  1  0
 13 17  1  0
 17 18  2  0
 18 19  1  0
 19 20  2  0
 20 21  1  0
 21 22  2  0
 21 23  1  0
 23 24  1  0
 24 25  2  0
 24 26  2  0
 24 27  1  0
 27 28  2  0
 28 29  1  0
 29 30  1  0
 29 31  2  0
 31 32  1  0
 32 33  2  0
 33 34  1  0
 31 35  1  0
  6 36  1  0
  5 37  1  0
 37 38  2  0
 37 39  1  0
  2 40  1  0
 15  9  1  0
 22 17  1  0
 33 27  1  0
  1 41  1  0
  1 42  1  0
  1 43  1  0
  3 44  1  0
  3 45  1  0
  4 46  1  0
  4 47  1  0
  5 48  1  6
 11 49  1  0
 11 50  1  0
 11 51  1  0
 12 52  1  0
 14 53  1  0
 16 54  1  0
 16 55  1  0
 16 56  1  0
 18 57  1  0
 19 58  1  0
 20 59  1  0
 22 60  1  0
 23 61  1  0
 28 62  1  0
 30 63  1  0
 30 64  1  0
 30 65  1  0
 32 66  1  0
 34 67  1  0
 34 68  1  0
 34 69  1  0
 36 70  1  0
 36 71  1  0
 36 72  1  0
 39 73  1  0
 40 74  1  0
 40 75  1  0
 40 76  1  0
M  END
>  <Ligand ID>  (1) 
LIG0001716

>  <Ligand>  (1) 
CHEMBL2178814

>  <SMILES>  (1) 
CN(CC[C@H](N(C(=O)c1c(C)cc(cc1C)c1cccc(c1)NS(=O)(=O)c1cc(C)c(cc1C)Cl)C)C(=O)O)C

>  <CID>  (1) 
71450073.0

>  <ChEMBL ID>  (1) 
nan

>  <InChiKey>  (1) 
LDWAKTDSZSERFS-SANMLTNESA-N

>  <InChi>  (1) 
InChI=1S/C30H36ClN3O5S/c1-18-16-27(19(2)15-25(18)31)40(38,39)32-24-10-8-9-22(17-24)23-13-20(3)28(21(4)14-23)29(35)34(7)26(30(36)37)11-12-33(5)6/h8-10,13-17,26,32H,11-12H2,1-7H3,(H,36,37)/t26-/m0/s1

>  <IUPAC Name>  (1) 
(2S)-2-[[4-[3-[(4-chloro-2,5-dimethylphenyl)sulfonylamino]phenyl]-2,6-dimethylbenzoyl]-methylamino]-4-(dimethylamino)butanoic acid

$$$$
