
     RDKit          3D

 27 29  0  0  0  0  0  0  0  0999 V2000
    0.9441    2.8019   -2.1384 N   0  0  0  0  0  0  0  0  0  0  0  0
    1.3915    1.9887   -1.4650 C   0  0  0  0  0  0  0  0  0  0  0  0
    1.9644    0.9786   -0.6159 C   0  0  0  0  0  0  0  0  0  0  0  0
    3.3474    0.8032   -0.6448 C   0  0  0  0  0  0  0  0  0  0  0  0
    3.9783   -0.1455    0.1398 C   0  0  0  0  0  0  0  0  0  0  0  0
    3.1800   -0.9187    0.9597 C   0  0  0  0  0  0  0  0  0  0  0  0
    1.8146   -0.7384    0.9817 C   0  0  0  0  0  0  0  0  0  0  0  0
    1.1684    0.1971    0.2112 C   0  0  0  0  0  0  0  0  0  0  0  0
   -0.2774    0.4342    0.1928 C   0  0  1  0  0  0  0  0  0  0  0  0
   -0.9251   -0.4581   -0.8801 C   0  0  0  0  0  0  0  0  0  0  0  0
   -2.3244   -0.4134   -0.5016 N   0  0  0  0  0  0  0  0  0  0  0  0
   -2.4135   -0.1477    0.8154 C   0  0  0  0  0  0  0  0  0  0  0  0
   -1.0291   -0.0014    1.3965 C   0  0  0  0  0  0  0  0  0  0  0  0
   -3.7064   -0.1013    1.1820 N   0  0  0  0  0  0  0  0  0  0  0  0
   -4.4557   -0.3443    0.0672 C   0  0  0  0  0  0  0  0  0  0  0  0
   -3.5717   -0.5381   -0.9809 C   0  0  0  0  0  0  0  0  0  0  0  0
    3.9384    1.4285   -1.3005 H   0  0  0  0  0  0  0  0  0  0  0  0
    5.0364   -0.3065    0.1424 H   0  0  0  0  0  0  0  0  0  0  0  0
    3.6505   -1.6818    1.5959 H   0  0  0  0  0  0  0  0  0  0  0  0
    1.2461   -1.3704    1.6400 H   0  0  0  0  0  0  0  0  0  0  0  0
   -0.5320    1.4885   -0.0887 H   0  0  0  0  0  0  0  0  0  0  0  0
   -0.7129   -0.0393   -1.8761 H   0  0  0  0  0  0  0  0  0  0  0  0
   -0.5384   -1.4862   -0.7450 H   0  0  0  0  0  0  0  0  0  0  0  0
   -0.7394   -1.0238    1.6755 H   0  0  0  0  0  0  0  0  0  0  0  0
   -1.0274    0.7261    2.2292 H   0  0  0  0  0  0  0  0  0  0  0  0
   -5.5392   -0.3773    0.0210 H   0  0  0  0  0  0  0  0  0  0  0  0
   -3.8673   -0.7545   -2.0132 H   0  0  0  0  0  0  0  0  0  0  0  0
  1  2  3  0
  2  3  1  0
  3  4  2  0
  4  5  1  0
  5  6  2  0
  6  7  1  0
  7  8  2  0
  8  9  1  0
  9 10  1  0
 10 11  1  0
 11 12  1  0
 12 13  1  0
 12 14  2  0
 14 15  1  0
 15 16  2  0
  8  3  1  0
 13  9  1  0
 16 11  1  0
  4 17  1  0
  5 18  1  0
  6 19  1  0
  7 20  1  0
  9 21  1  6
 10 22  1  0
 10 23  1  0
 13 24  1  0
 13 25  1  0
 15 26  1  0
 16 27  1  0
M  END
>  <Ligand ID>  (1) 
LIG0002427

>  <Ligand>  (1) 
CHEMBL466046

>  <SMILES>  (1) 
N#Cc1ccccc1[C@H]1Cn2c(C1)ncc2

>  <CID>  (1) 
44574044.0

>  <ChEMBL ID>  (1) 
nan

>  <InChiKey>  (1) 
KMOFNRDXTFJLAO-LLVKDONJSA-N

>  <InChi>  (1) 
InChI=1S/C13H11N3/c14-8-10-3-1-2-4-12(10)11-7-13-15-5-6-16(13)9-11/h1-6,11H,7,9H2/t11-/m1/s1

>  <IUPAC Name>  (1) 
2-[(6S)-6,7-dihydro-5H-pyrrolo[1,2-a]imidazol-6-yl]benzonitrile

$$$$
