
     RDKit          3D

 14 14  0  0  0  0  0  0  0  0999 V2000
   -2.3626    0.6382    0.8791 C   0  0  0  0  0  0  0  0  0  0  0  0
   -1.7497   -0.3056    0.1793 C   0  0  0  0  0  0  0  0  0  0  0  0
   -0.3171   -0.2274   -0.0718 C   0  0  0  0  0  0  0  0  0  0  0  0
    0.3432   -1.2147   -0.8079 C   0  0  0  0  0  0  0  0  0  0  0  0
    1.6670   -1.1409   -1.0389 N   0  0  0  0  0  0  0  0  0  0  0  0
    2.3495   -0.0902   -0.5442 C   0  0  0  0  0  0  0  0  0  0  0  0
    1.7223    0.9063    0.1906 C   0  0  0  0  0  0  0  0  0  0  0  0
    0.3922    0.8128    0.4110 N   0  0  0  0  0  0  0  0  0  0  0  0
   -1.7954    1.4743    1.2678 H   0  0  0  0  0  0  0  0  0  0  0  0
   -3.4228    0.5669    1.0568 H   0  0  0  0  0  0  0  0  0  0  0  0
   -2.3022   -1.1417   -0.2125 H   0  0  0  0  0  0  0  0  0  0  0  0
   -0.2485   -2.0393   -1.1845 H   0  0  0  0  0  0  0  0  0  0  0  0
    3.4161    0.0241   -0.6971 H   0  0  0  0  0  0  0  0  0  0  0  0
    2.3081    1.7373    0.5723 H   0  0  0  0  0  0  0  0  0  0  0  0
  1  2  2  0
  2  3  1  0
  3  4  2  0
  4  5  1  0
  5  6  2  0
  6  7  1  0
  7  8  2  0
  8  3  1  0
  1  9  1  0
  1 10  1  0
  2 11  1  0
  4 12  1  0
  6 13  1  0
  7 14  1  0
M  END
>  <Ligand ID>  (1) 
LIG0000298

>  <Ligand>  (1) 
2-Vinylpyrazine

>  <SMILES>  (1) 
C=Cc1cnccn1

>  <CID>  (1) 
77840.0

>  <ChEMBL ID>  (1) 
nan

>  <InChiKey>  (1) 
KANZWHBYRHQMKZ-UHFFFAOYSA-N

>  <InChi>  (1) 
InChI=1S/C6H6N2/c1-2-6-5-7-3-4-8-6/h2-5H,1H2

>  <IUPAC Name>  (1) 
2-ethenylpyrazine

$$$$
