
     RDKit          3D

 76 77  0  0  0  0  0  0  0  0999 V2000
    7.9448    0.1412   -3.4371 O   0  0  0  0  0  0  0  0  0  0  0  0
    8.0569    1.2514   -2.6086 C   0  0  0  0  0  0  0  0  0  0  0  0
    8.3244    0.7503   -1.2369 C   0  0  0  0  0  0  0  0  0  0  0  0
    7.3364    0.7369   -0.2566 C   0  0  0  0  0  0  0  0  0  0  0  0
    7.5804    0.2772    1.0141 C   0  0  0  0  0  0  0  0  0  0  0  0
    8.8690   -0.1755    1.2705 C   0  0  0  0  0  0  0  0  0  0  0  0
    9.8625   -0.1727    0.3178 C   0  0  0  0  0  0  0  0  0  0  0  0
    9.5892    0.2983   -0.9606 C   0  0  0  0  0  0  0  0  0  0  0  0
   10.6187    0.2882   -1.9036 O   0  0  0  0  0  0  0  0  0  0  0  0
    6.5241    0.2517    2.0870 C   0  0  2  0  0  0  0  0  0  0  0  0
    5.7447   -1.0162    1.9294 C   0  0  0  0  0  0  0  0  0  0  0  0
    5.0863   -1.1606    0.7043 N   0  0  0  0  0  0  0  0  0  0  0  0
    3.9755   -0.2963    0.5130 C   0  0  0  0  0  0  0  0  0  0  0  0
    3.3579   -0.6626   -0.8438 C   0  0  0  0  0  0  0  0  0  0  0  0
    2.1910    0.2085   -1.1452 C   0  0  0  0  0  0  0  0  0  0  0  0
    1.1295    0.0756   -0.1212 C   0  0  0  0  0  0  0  0  0  0  0  0
    0.5603   -1.3150    0.0449 C   0  0  0  0  0  0  0  0  0  0  0  0
   -0.5308   -1.1461    1.1289 C   0  0  0  0  0  0  0  0  0  0  0  0
   -1.4142   -0.2459    0.5918 O   0  0  0  0  0  0  0  0  0  0  0  0
   -2.5005    0.0939    1.3692 C   0  0  0  0  0  0  0  0  0  0  0  0
   -3.3489    1.1006    0.5872 C   0  0  0  0  0  0  0  0  0  0  0  0
   -3.8193    0.4631   -0.6845 C   0  0  0  0  0  0  0  0  0  0  0  0
   -4.7309   -0.7111   -0.5108 C   0  0  0  0  0  0  0  0  0  0  0  0
   -5.9577   -0.2034    0.1808 C   0  0  0  0  0  0  0  0  0  0  0  0
   -6.1017   -0.1725    1.5449 C   0  0  0  0  0  0  0  0  0  0  0  0
   -7.2909    0.3341    2.0443 C   0  0  0  0  0  0  0  0  0  0  0  0
   -8.3025    0.7950    1.1956 C   0  0  0  0  0  0  0  0  0  0  0  0
   -8.1624    0.7655   -0.1726 C   0  0  0  0  0  0  0  0  0  0  0  0
   -6.9669    0.2554   -0.6612 C   0  0  0  0  0  0  0  0  0  0  0  0
   -9.1576    1.2307   -1.1387 C   0  0  0  0  0  0  0  0  0  0  0  0
  -10.0354    0.1517   -1.5101 N   0  0  0  0  0  0  0  0  0  0  0  0
  -11.0988   -0.3543   -0.7405 C   0  0  0  0  0  0  0  0  0  0  0  0
  -11.3870    0.1060    0.3824 O   0  0  0  0  0  0  0  0  0  0  0  0
  -11.8946   -1.4291   -1.2277 N   0  0  0  0  0  0  0  0  0  0  0  0
    5.7769    1.4000    2.0059 O   0  0  0  0  0  0  0  0  0  0  0  0
    7.3498   -0.5405   -3.0743 H   0  0  0  0  0  0  0  0  0  0  0  0
    8.9385    1.8598   -2.9034 H   0  0  0  0  0  0  0  0  0  0  0  0
    7.1073    1.7995   -2.6189 H   0  0  0  0  0  0  0  0  0  0  0  0
    6.3694    1.1071   -0.5456 H   0  0  0  0  0  0  0  0  0  0  0  0
    9.1374   -0.5542    2.2554 H   0  0  0  0  0  0  0  0  0  0  0  0
   10.8611   -0.5242    0.5176 H   0  0  0  0  0  0  0  0  0  0  0  0
   10.5968   -0.4391   -2.6286 H   0  0  0  0  0  0  0  0  0  0  0  0
    7.0847    0.2313    3.0762 H   0  0  0  0  0  0  0  0  0  0  0  0
    6.4787   -1.8676    2.1084 H   0  0  0  0  0  0  0  0  0  0  0  0
    5.0310   -1.0695    2.8230 H   0  0  0  0  0  0  0  0  0  0  0  0
    4.9153   -2.1017    0.3382 H   0  0  0  0  0  0  0  0  0  0  0  0
    4.2882    0.7511    0.5076 H   0  0  0  0  0  0  0  0  0  0  0  0
    3.2217   -0.5136    1.3064 H   0  0  0  0  0  0  0  0  0  0  0  0
    2.9996   -1.7106   -0.7749 H   0  0  0  0  0  0  0  0  0  0  0  0
    4.1293   -0.5479   -1.6404 H   0  0  0  0  0  0  0  0  0  0  0  0
    1.7362   -0.0045   -2.1364 H   0  0  0  0  0  0  0  0  0  0  0  0
    2.4833    1.3023   -1.1545 H   0  0  0  0  0  0  0  0  0  0  0  0
    1.4374    0.3980    0.8958 H   0  0  0  0  0  0  0  0  0  0  0  0
    0.2381    0.7267   -0.3632 H   0  0  0  0  0  0  0  0  0  0  0  0
    1.3064   -2.0387    0.3780 H   0  0  0  0  0  0  0  0  0  0  0  0
   -0.0080   -1.6369   -0.8493 H   0  0  0  0  0  0  0  0  0  0  0  0
   -0.0243   -0.7393    2.0206 H   0  0  0  0  0  0  0  0  0  0  0  0
   -1.0167   -2.1137    1.3053 H   0  0  0  0  0  0  0  0  0  0  0  0
   -2.2080    0.5158    2.3549 H   0  0  0  0  0  0  0  0  0  0  0  0
   -3.1129   -0.8062    1.5101 H   0  0  0  0  0  0  0  0  0  0  0  0
   -2.6961    1.9545    0.3085 H   0  0  0  0  0  0  0  0  0  0  0  0
   -4.1965    1.4710    1.1982 H   0  0  0  0  0  0  0  0  0  0  0  0
   -4.2120    1.2022   -1.4096 H   0  0  0  0  0  0  0  0  0  0  0  0
   -2.8856    0.0617   -1.1839 H   0  0  0  0  0  0  0  0  0  0  0  0
   -4.3337   -1.5328    0.1066 H   0  0  0  0  0  0  0  0  0  0  0  0
   -5.0102   -1.1390   -1.5140 H   0  0  0  0  0  0  0  0  0  0  0  0
   -5.3444   -0.5209    2.2066 H   0  0  0  0  0  0  0  0  0  0  0  0
   -7.5100    0.4047    3.0989 H   0  0  0  0  0  0  0  0  0  0  0  0
   -9.2183    1.1895    1.6161 H   0  0  0  0  0  0  0  0  0  0  0  0
   -6.8289    0.2209   -1.7513 H   0  0  0  0  0  0  0  0  0  0  0  0
   -9.7122    2.0689   -0.6662 H   0  0  0  0  0  0  0  0  0  0  0  0
   -8.6700    1.6521   -2.0621 H   0  0  0  0  0  0  0  0  0  0  0  0
   -9.8780   -0.3158   -2.4525 H   0  0  0  0  0  0  0  0  0  0  0  0
  -12.6944   -1.1751   -1.8651 H   0  0  0  0  0  0  0  0  0  0  0  0
  -11.7140   -2.4254   -0.9787 H   0  0  0  0  0  0  0  0  0  0  0  0
    5.7360    1.8494    2.8886 H   0  0  0  0  0  0  0  0  0  0  0  0
  1  2  1  0
  2  3  1  0
  3  4  2  0
  4  5  1  0
  5  6  2  0
  6  7  1  0
  7  8  2  0
  8  9  1  0
  5 10  1  0
 10 11  1  0
 11 12  1  0
 12 13  1  0
 13 14  1  0
 14 15  1  0
 15 16  1  0
 16 17  1  0
 17 18  1  0
 18 19  1  0
 19 20  1  0
 20 21  1  0
 21 22  1  0
 22 23  1  0
 23 24  1  0
 24 25  2  0
 25 26  1  0
 26 27  2  0
 27 28  1  0
 28 29  2  0
 28 30  1  0
 30 31  1  0
 31 32  1  0
 32 33  2  0
 32 34  1  0
 10 35  1  0
  8  3  1  0
 29 24  1  0
  1 36  1  0
  2 37  1  0
  2 38  1  0
  4 39  1  0
  6 40  1  0
  7 41  1  0
  9 42  1  0
 10 43  1  1
 11 44  1  0
 11 45  1  0
 12 46  1  0
 13 47  1  0
 13 48  1  0
 14 49  1  0
 14 50  1  0
 15 51  1  0
 15 52  1  0
 16 53  1  0
 16 54  1  0
 17 55  1  0
 17 56  1  0
 18 57  1  0
 18 58  1  0
 20 59  1  0
 20 60  1  0
 21 61  1  0
 21 62  1  0
 22 63  1  0
 22 64  1  0
 23 65  1  0
 23 66  1  0
 25 67  1  0
 26 68  1  0
 27 69  1  0
 29 70  1  0
 30 71  1  0
 30 72  1  0
 31 73  1  0
 34 74  1  0
 34 75  1  0
 35 76  1  0
M  END
>  <Ligand ID>  (1) 
LIG0002503

>  <Ligand>  (1) 
CHEMBL1835857

>  <SMILES>  (1) 
OCc1cc(ccc1O)[C@H](CNCCCCCCOCCCCc1cccc(c1)CNC(=O)N)O

>  <CID>  (1) 
56658407.0

>  <ChEMBL ID>  (1) 
nan

>  <InChiKey>  (1) 
HGTBEBAYXNNEDQ-SANMLTNESA-N

>  <InChi>  (1) 
InChI=1S/C27H41N3O5/c28-27(34)30-18-22-10-7-9-21(16-22)8-3-6-15-35-14-5-2-1-4-13-29-19-26(33)23-11-12-25(32)24(17-23)20-31/h7,9-12,16-17,26,29,31-33H,1-6,8,13-15,18-20H2,(H3,28,30,34)/t26-/m0/s1

>  <IUPAC Name>  (1) 
[3-[4-[6-[[(2R)-2-hydroxy-2-[4-hydroxy-3-(hydroxymethyl)phenyl]ethyl]amino]hexoxy]butyl]phenyl]methylurea

$$$$
