
     RDKit          3D

 56 57  0  0  0  0  0  0  0  0999 V2000
    7.2563   -0.4807   -2.8655 O   0  0  0  0  0  0  0  0  0  0  0  0
    6.4642    0.4515   -2.2135 C   0  0  0  0  0  0  0  0  0  0  0  0
    6.2586    1.5851   -2.7032 O   0  0  0  0  0  0  0  0  0  0  0  0
    5.8719    0.0381   -0.9052 C   0  0  0  0  0  0  0  0  0  0  0  0
    5.0572    1.2074   -0.3901 C   0  0  0  0  0  0  0  0  0  0  0  0
    4.4127    0.9077    0.9223 C   0  0  0  0  0  0  0  0  0  0  0  0
    3.4661   -0.2993    0.8608 C   0  0  0  0  0  0  0  0  0  0  0  0
    2.3564   -0.0792   -0.1118 C   0  0  0  0  0  0  0  0  0  0  0  0
    1.4222   -1.1841   -0.3129 C   0  0  0  0  0  0  0  0  0  0  0  0
    0.5943   -1.7788    0.7304 C   0  0  1  0  0  0  0  0  0  0  0  0
    1.2596   -2.4447    1.8866 C   0  0  0  0  0  0  0  0  0  0  0  0
    0.9211   -1.6740    3.1382 C   0  0  0  0  0  0  0  0  0  0  0  0
    0.2057   -0.4659    2.6003 C   0  0  0  0  0  0  0  0  0  0  0  0
    0.1009    0.6747    3.1322 O   0  0  0  0  0  0  0  0  0  0  0  0
   -0.3441   -0.8543    1.3527 N   0  0  0  0  0  0  0  0  0  0  0  0
   -1.5984   -0.4060    0.8120 C   0  0  0  0  0  0  0  0  0  0  0  0
   -2.3909    0.4943    1.4803 C   0  0  0  0  0  0  0  0  0  0  0  0
   -3.6115    0.9273    0.9566 C   0  0  0  0  0  0  0  0  0  0  0  0
   -4.0537    0.4537   -0.2601 C   0  0  0  0  0  0  0  0  0  0  0  0
   -3.2711   -0.4518   -0.9468 C   0  0  0  0  0  0  0  0  0  0  0  0
   -2.0528   -0.8698   -0.4008 C   0  0  0  0  0  0  0  0  0  0  0  0
   -5.3446    0.9427   -0.7636 C   0  0  0  0  0  0  0  0  0  0  0  0
   -5.6536    0.3180   -2.0924 C   0  0  0  0  0  0  0  0  0  0  0  0
   -5.2069    2.4414   -0.9462 C   0  0  0  0  0  0  0  0  0  0  0  0
   -6.4543    0.6931    0.2124 C   0  0  0  0  0  0  0  0  0  0  0  0
    7.8775   -0.1834   -3.6134 H   0  0  0  0  0  0  0  0  0  0  0  0
    6.6864   -0.1803   -0.1901 H   0  0  0  0  0  0  0  0  0  0  0  0
    5.2524   -0.8710   -1.0273 H   0  0  0  0  0  0  0  0  0  0  0  0
    5.7720    2.0581   -0.2679 H   0  0  0  0  0  0  0  0  0  0  0  0
    4.3001    1.5180   -1.1297 H   0  0  0  0  0  0  0  0  0  0  0  0
    5.2026    0.6731    1.6410 H   0  0  0  0  0  0  0  0  0  0  0  0
    3.8527    1.8055    1.2428 H   0  0  0  0  0  0  0  0  0  0  0  0
    4.0535   -1.1958    0.6829 H   0  0  0  0  0  0  0  0  0  0  0  0
    3.0332   -0.3593    1.9018 H   0  0  0  0  0  0  0  0  0  0  0  0
    2.8791    0.1257   -1.1128 H   0  0  0  0  0  0  0  0  0  0  0  0
    1.8501    0.9136    0.0652 H   0  0  0  0  0  0  0  0  0  0  0  0
    2.0107   -2.0592   -0.7887 H   0  0  0  0  0  0  0  0  0  0  0  0
    0.7681   -0.8892   -1.2177 H   0  0  0  0  0  0  0  0  0  0  0  0
   -0.0093   -2.6058    0.2261 H   0  0  0  0  0  0  0  0  0  0  0  0
    0.8845   -3.5248    2.0035 H   0  0  0  0  0  0  0  0  0  0  0  0
    2.3359   -2.4903    1.7631 H   0  0  0  0  0  0  0  0  0  0  0  0
    1.8216   -1.3695    3.7193 H   0  0  0  0  0  0  0  0  0  0  0  0
    0.2143   -2.2711    3.7540 H   0  0  0  0  0  0  0  0  0  0  0  0
   -2.1118    0.8990    2.4208 H   0  0  0  0  0  0  0  0  0  0  0  0
   -4.2111    1.6364    1.5078 H   0  0  0  0  0  0  0  0  0  0  0  0
   -3.5988   -0.8376   -1.9053 H   0  0  0  0  0  0  0  0  0  0  0  0
   -1.5038   -1.5778   -0.9962 H   0  0  0  0  0  0  0  0  0  0  0  0
   -5.6365   -0.8051   -1.9954 H   0  0  0  0  0  0  0  0  0  0  0  0
   -4.9175    0.5836   -2.8619 H   0  0  0  0  0  0  0  0  0  0  0  0
   -6.6806    0.5708   -2.4370 H   0  0  0  0  0  0  0  0  0  0  0  0
   -4.8310    2.8728    0.0080 H   0  0  0  0  0  0  0  0  0  0  0  0
   -4.5341    2.6984   -1.7800 H   0  0  0  0  0  0  0  0  0  0  0  0
   -6.2182    2.8253   -1.1104 H   0  0  0  0  0  0  0  0  0  0  0  0
   -6.3871   -0.3535    0.5683 H   0  0  0  0  0  0  0  0  0  0  0  0
   -7.4190    0.8199   -0.3357 H   0  0  0  0  0  0  0  0  0  0  0  0
   -6.4016    1.4273    1.0437 H   0  0  0  0  0  0  0  0  0  0  0  0
  1  2  1  0
  2  3  2  0
  2  4  1  0
  4  5  1  0
  5  6  1  0
  6  7  1  0
  7  8  1  0
  8  9  1  0
  9 10  1  0
 10 11  1  0
 11 12  1  0
 12 13  1  0
 13 14  2  0
 13 15  1  0
 15 16  1  0
 16 17  2  0
 17 18  1  0
 18 19  2  0
 19 20  1  0
 20 21  2  0
 19 22  1  0
 22 23  1  0
 22 24  1  0
 22 25  1  0
 15 10  1  0
 21 16  1  0
  1 26  1  0
  4 27  1  0
  4 28  1  0
  5 29  1  0
  5 30  1  0
  6 31  1  0
  6 32  1  0
  7 33  1  0
  7 34  1  0
  8 35  1  0
  8 36  1  0
  9 37  1  0
  9 38  1  0
 10 39  1  6
 11 40  1  0
 11 41  1  0
 12 42  1  0
 12 43  1  0
 17 44  1  0
 18 45  1  0
 20 46  1  0
 21 47  1  0
 23 48  1  0
 23 49  1  0
 23 50  1  0
 24 51  1  0
 24 52  1  0
 24 53  1  0
 25 54  1  0
 25 55  1  0
 25 56  1  0
M  END
>  <Ligand ID>  (1) 
LIG0000899

>  <Ligand>  (1) 
SCHEMBL1310058

>  <SMILES>  (1) 
OC(=O)CCCCCC[C@H]1CCC(=O)N1c1ccc(cc1)C(C)(C)C

>  <CID>  (1) 
11855588.0

>  <ChEMBL ID>  (1) 
nan

>  <InChiKey>  (1) 
SLJMALBBLCTSGB-KRWDZBQOSA-N

>  <InChi>  (1) 
InChI=1S/C21H31NO3/c1-21(2,3)16-10-12-18(13-11-16)22-17(14-15-19(22)23)8-6-4-5-7-9-20(24)25/h10-13,17H,4-9,14-15H2,1-3H3,(H,24,25)/t17-/m0/s1

>  <IUPAC Name>  (1) 
7-[(2S)-1-(4-tert-butylphenyl)-5-oxopyrrolidin-2-yl]heptanoic acid

$$$$
