
     RDKit          3D

 49 51  0  0  0  0  0  0  0  0999 V2000
    6.4213    2.0654   -2.6219 Cl  0  0  0  0  0  0  0  0  0  0  0  0
    6.0999    1.7120   -0.9218 C   0  0  0  0  0  0  0  0  0  0  0  0
    6.4274    2.6013    0.0804 C   0  0  0  0  0  0  0  0  0  0  0  0
    6.1401    2.2487    1.4031 C   0  0  0  0  0  0  0  0  0  0  0  0
    5.5432    1.0347    1.6725 C   0  0  0  0  0  0  0  0  0  0  0  0
    5.2093    0.1345    0.6857 C   0  0  0  0  0  0  0  0  0  0  0  0
    5.5037    0.5064   -0.6164 C   0  0  0  0  0  0  0  0  0  0  0  0
    4.5743   -1.1650    0.9172 C   0  0  2  0  0  0  0  0  0  0  0  0
    3.0821   -0.9259    1.1696 C   0  0  0  0  0  0  0  0  0  0  0  0
    2.4907   -0.2559    0.0537 N   0  0  0  0  0  0  0  0  0  0  0  0
    1.0867   -0.0128    0.2521 C   0  0  0  0  0  0  0  0  0  0  0  0
    0.3305   -1.3073    0.2341 C   0  0  0  0  0  0  0  0  0  0  0  0
   -1.0648   -1.0540    0.4206 N   0  0  0  0  0  0  0  0  0  0  0  0
   -1.9279   -0.4658   -0.5405 C   0  0  0  0  0  0  0  0  0  0  0  0
   -1.4996   -0.1389   -1.7866 C   0  0  0  0  0  0  0  0  0  0  0  0
   -2.3783    0.4435   -2.6555 C   0  0  0  0  0  0  0  0  0  0  0  0
   -3.6828    0.7053   -2.3025 C   0  0  0  0  0  0  0  0  0  0  0  0
   -4.1566    0.3789   -1.0273 C   0  0  0  0  0  0  0  0  0  0  0  0
   -3.2574   -0.1961   -0.1873 C   0  0  0  0  0  0  0  0  0  0  0  0
   -5.5215    0.7590   -0.7355 C   0  0  0  0  0  0  0  0  0  0  0  0
   -6.1053    1.7515   -1.4023 O   0  0  0  0  0  0  0  0  0  0  0  0
   -7.3203    1.9475   -1.0066 C   0  0  0  0  0  0  0  0  0  0  0  0
   -7.5702    1.0331   -0.0171 C   0  0  0  0  0  0  0  0  0  0  0  0
   -6.4197    0.2514    0.1722 C   0  0  0  0  0  0  0  0  0  0  0  0
   -6.3860   -0.8705    1.0589 C   0  0  0  0  0  0  0  0  0  0  0  0
   -7.3938   -1.0090    1.8504 O   0  0  0  0  0  0  0  0  0  0  0  0
   -5.4363   -1.8432    1.1976 O   0  0  0  0  0  0  0  0  0  0  0  0
    5.1760   -1.8096    1.9806 O   0  0  0  0  0  0  0  0  0  0  0  0
    6.8985    3.5529   -0.1658 H   0  0  0  0  0  0  0  0  0  0  0  0
    6.3815    2.9185    2.2180 H   0  0  0  0  0  0  0  0  0  0  0  0
    5.3172    0.7533    2.6916 H   0  0  0  0  0  0  0  0  0  0  0  0
    5.2538   -0.1799   -1.4195 H   0  0  0  0  0  0  0  0  0  0  0  0
    4.6689   -1.8122    0.0271 H   0  0  0  0  0  0  0  0  0  0  0  0
    2.9538   -0.2883    2.0901 H   0  0  0  0  0  0  0  0  0  0  0  0
    2.6751   -1.9054    1.4195 H   0  0  0  0  0  0  0  0  0  0  0  0
    2.7348   -0.6825   -0.8484 H   0  0  0  0  0  0  0  0  0  0  0  0
    1.0285    0.4562    1.2905 H   0  0  0  0  0  0  0  0  0  0  0  0
    0.7324    0.7118   -0.4829 H   0  0  0  0  0  0  0  0  0  0  0  0
    0.4379   -1.7648   -0.7880 H   0  0  0  0  0  0  0  0  0  0  0  0
    0.7384   -2.0625    0.9167 H   0  0  0  0  0  0  0  0  0  0  0  0
   -1.4627   -1.3409    1.3674 H   0  0  0  0  0  0  0  0  0  0  0  0
   -0.4995   -0.3252   -2.1415 H   0  0  0  0  0  0  0  0  0  0  0  0
   -2.0440    0.7047   -3.6425 H   0  0  0  0  0  0  0  0  0  0  0  0
   -4.3060    1.1663   -3.0514 H   0  0  0  0  0  0  0  0  0  0  0  0
   -3.5135   -0.4317    0.8216 H   0  0  0  0  0  0  0  0  0  0  0  0
   -7.9761    2.7084   -1.4161 H   0  0  0  0  0  0  0  0  0  0  0  0
   -8.5172    0.9731    0.4949 H   0  0  0  0  0  0  0  0  0  0  0  0
   -5.6173   -2.8352    1.3512 H   0  0  0  0  0  0  0  0  0  0  0  0
    6.1505   -1.6983    1.9398 H   0  0  0  0  0  0  0  0  0  0  0  0
  1  2  1  0
  2  3  2  0
  3  4  1  0
  4  5  2  0
  5  6  1  0
  6  7  2  0
  6  8  1  0
  8  9  1  0
  9 10  1  0
 10 11  1  0
 11 12  1  0
 12 13  1  0
 13 14  1  0
 14 15  2  0
 15 16  1  0
 16 17  2  0
 17 18  1  0
 18 19  2  0
 18 20  1  0
 20 21  1  0
 21 22  1  0
 22 23  2  0
 23 24  1  0
 24 25  1  0
 25 26  2  0
 25 27  1  0
  8 28  1  0
  7  2  1  0
 19 14  1  0
 24 20  2  0
  3 29  1  0
  4 30  1  0
  5 31  1  0
  7 32  1  0
  8 33  1  6
  9 34  1  0
  9 35  1  0
 10 36  1  0
 11 37  1  0
 11 38  1  0
 12 39  1  0
 12 40  1  0
 13 41  1  0
 15 42  1  0
 16 43  1  0
 17 44  1  0
 19 45  1  0
 22 46  1  0
 23 47  1  0
 27 48  1  0
 28 49  1  0
M  END
>  <Ligand ID>  (1) 
LIG0002517

>  <Ligand>  (1) 
CHEMBL245874

>  <SMILES>  (1) 
Clc1cccc(c1)[C@H](CNCCNc1cccc(c1)c1occc1C(=O)O)O

>  <CID>  (1) 
9801145.0

>  <ChEMBL ID>  (1) 
nan

>  <InChiKey>  (1) 
HMWZLYLDLHPPCO-IBGZPJMESA-N

>  <InChi>  (1) 
InChI=1S/C21H21ClN2O4/c22-16-5-1-3-14(11-16)19(25)13-23-8-9-24-17-6-2-4-15(12-17)20-18(21(26)27)7-10-28-20/h1-7,10-12,19,23-25H,8-9,13H2,(H,26,27)/t19-/m0/s1

>  <IUPAC Name>  (1) 
2-[3-[2-[[(2R)-2-(3-chlorophenyl)-2-hydroxyethyl]amino]ethylamino]phenyl]furan-3-carboxylic acid

$$$$
