
     RDKit          3D

 78 83  0  0  0  0  0  0  0  0999 V2000
   10.9067    2.2723    1.3117 C   0  0  0  0  0  0  0  0  0  0  0  0
   11.5474    1.4788    0.3225 O   0  0  0  0  0  0  0  0  0  0  0  0
   10.7554    0.5937   -0.3987 C   0  0  0  0  0  0  0  0  0  0  0  0
   11.3765   -0.1813   -1.3655 C   0  0  0  0  0  0  0  0  0  0  0  0
   10.6598   -1.0845   -2.1258 C   0  0  0  0  0  0  0  0  0  0  0  0
    9.2959   -1.2246   -1.9246 C   0  0  0  0  0  0  0  0  0  0  0  0
    8.7017   -0.4282   -0.9420 C   0  0  0  0  0  0  0  0  0  0  0  0
    9.3967    0.4633   -0.1891 C   0  0  0  0  0  0  0  0  0  0  0  0
    7.2711   -0.5801   -0.7337 C   0  0  0  0  0  0  0  0  0  0  0  0
    6.4065   -0.9048   -1.7577 C   0  0  0  0  0  0  0  0  0  0  0  0
    5.0729   -1.0315   -1.4787 C   0  0  0  0  0  0  0  0  0  0  0  0
    4.5703   -0.8401   -0.1829 C   0  0  0  0  0  0  0  0  0  0  0  0
    5.4455   -0.5165    0.8299 C   0  0  0  0  0  0  0  0  0  0  0  0
    6.8007   -0.3834    0.5668 C   0  0  0  0  0  0  0  0  0  0  0  0
    3.1197   -1.0111   -0.0184 C   0  0  0  0  0  0  0  0  0  0  0  0
    2.4522    0.3295   -0.2451 C   0  0  0  0  0  0  0  0  0  0  0  0
    0.9954    0.2200   -0.1145 N   0  0  0  0  0  0  0  0  0  0  0  0
    0.1467    1.3297   -0.2879 C   0  0  0  0  0  0  0  0  0  0  0  0
    0.6209    2.4590   -0.5573 O   0  0  0  0  0  0  0  0  0  0  0  0
   -1.3023    1.2342   -0.1686 C   0  0  0  0  0  0  0  0  0  0  0  0
   -2.0948    2.3452   -0.3931 C   0  0  0  0  0  0  0  0  0  0  0  0
   -3.4715    2.3079   -0.3078 C   0  0  0  0  0  0  0  0  0  0  0  0
   -4.1021    1.1285    0.0119 C   0  0  0  0  0  0  0  0  0  0  0  0
   -3.3236    0.0290    0.2349 C   0  0  0  0  0  0  0  0  0  0  0  0
   -1.9573    0.0573    0.1529 C   0  0  0  0  0  0  0  0  0  0  0  0
   -4.0882   -1.2323    0.5660 C   0  0  0  0  0  0  0  0  0  0  0  0
   -3.1531   -2.1851    1.2635 C   0  0  0  0  0  0  0  0  0  0  0  0
   -4.5896   -1.7590   -0.7618 C   0  0  0  0  0  0  0  0  0  0  0  0
   -6.0334   -2.0316   -0.7325 C   0  0  0  0  0  0  0  0  0  0  0  0
   -6.9065   -0.9439   -0.3098 N   0  0  0  0  0  0  0  0  0  0  0  0
   -6.2402   -0.0652    0.6128 C   0  0  0  0  0  0  0  0  0  0  0  0
   -5.5718    1.1305    0.0848 C   0  0  0  0  0  0  0  0  0  0  0  0
   -5.2777   -0.9105    1.4066 C   0  0  0  0  0  0  0  0  0  0  0  0
   -4.9654   -0.3558    2.7586 C   0  0  0  0  0  0  0  0  0  0  0  0
   -7.5936   -0.3593   -1.3992 C   0  0  0  0  0  0  0  0  0  0  0  0
   -8.7784    0.4329   -0.9925 C   0  0  0  0  0  0  0  0  0  0  0  0
   -8.8505    1.6071   -0.1276 C   0  0  0  0  0  0  0  0  0  0  0  0
   -9.0966    1.7384   -1.6293 C   0  0  0  0  0  0  0  0  0  0  0  0
   10.0363    2.7528    0.8116 H   0  0  0  0  0  0  0  0  0  0  0  0
   11.6091    3.0063    1.7675 H   0  0  0  0  0  0  0  0  0  0  0  0
   10.4859    1.5701    2.0590 H   0  0  0  0  0  0  0  0  0  0  0  0
   12.4274   -0.0694   -1.5171 H   0  0  0  0  0  0  0  0  0  0  0  0
   11.1279   -1.6989   -2.8880 H   0  0  0  0  0  0  0  0  0  0  0  0
    8.6824   -1.9183   -2.4916 H   0  0  0  0  0  0  0  0  0  0  0  0
    8.9103    1.0630    0.5597 H   0  0  0  0  0  0  0  0  0  0  0  0
    6.7641   -1.0583   -2.7672 H   0  0  0  0  0  0  0  0  0  0  0  0
    4.3940   -1.2916   -2.3039 H   0  0  0  0  0  0  0  0  0  0  0  0
    5.0583   -0.3712    1.8205 H   0  0  0  0  0  0  0  0  0  0  0  0
    7.4703   -0.1306    1.3652 H   0  0  0  0  0  0  0  0  0  0  0  0
    2.7612   -1.7926   -0.7005 H   0  0  0  0  0  0  0  0  0  0  0  0
    2.9516   -1.3593    1.0281 H   0  0  0  0  0  0  0  0  0  0  0  0
    2.7795    1.0035    0.5731 H   0  0  0  0  0  0  0  0  0  0  0  0
    2.7365    0.7755   -1.1922 H   0  0  0  0  0  0  0  0  0  0  0  0
    0.6152   -0.7170    0.1106 H   0  0  0  0  0  0  0  0  0  0  0  0
   -1.6098    3.2879   -0.6479 H   0  0  0  0  0  0  0  0  0  0  0  0
   -4.0207    3.2247   -0.4990 H   0  0  0  0  0  0  0  0  0  0  0  0
   -1.4027   -0.8292    0.3374 H   0  0  0  0  0  0  0  0  0  0  0  0
   -2.4740   -1.6200    1.9252 H   0  0  0  0  0  0  0  0  0  0  0  0
   -2.5195   -2.7075    0.5293 H   0  0  0  0  0  0  0  0  0  0  0  0
   -3.7586   -2.9375    1.8063 H   0  0  0  0  0  0  0  0  0  0  0  0
   -4.2458   -1.1498   -1.6201 H   0  0  0  0  0  0  0  0  0  0  0  0
   -4.0680   -2.7532   -0.8917 H   0  0  0  0  0  0  0  0  0  0  0  0
   -6.3556   -2.2974   -1.7814 H   0  0  0  0  0  0  0  0  0  0  0  0
   -6.2609   -2.9725   -0.1493 H   0  0  0  0  0  0  0  0  0  0  0  0
   -7.0518    0.2627    1.3361 H   0  0  0  0  0  0  0  0  0  0  0  0
   -5.8036    1.9870    0.8042 H   0  0  0  0  0  0  0  0  0  0  0  0
   -6.0330    1.5253   -0.8693 H   0  0  0  0  0  0  0  0  0  0  0  0
   -5.8070   -1.8880    1.5879 H   0  0  0  0  0  0  0  0  0  0  0  0
   -5.9058   -0.3652    3.3515 H   0  0  0  0  0  0  0  0  0  0  0  0
   -4.4448    0.5983    2.7550 H   0  0  0  0  0  0  0  0  0  0  0  0
   -4.3024   -1.1071    3.2569 H   0  0  0  0  0  0  0  0  0  0  0  0
   -7.9540   -1.2279   -2.0370 H   0  0  0  0  0  0  0  0  0  0  0  0
   -6.9239    0.1867   -2.1132 H   0  0  0  0  0  0  0  0  0  0  0  0
   -9.7146   -0.2442   -0.8759 H   0  0  0  0  0  0  0  0  0  0  0  0
   -8.0654    2.2723    0.2066 H   0  0  0  0  0  0  0  0  0  0  0  0
   -9.7840    1.7388    0.5277 H   0  0  0  0  0  0  0  0  0  0  0  0
   -8.3022    2.1860   -2.2616 H   0  0  0  0  0  0  0  0  0  0  0  0
  -10.1472    1.9374   -1.8975 H   0  0  0  0  0  0  0  0  0  0  0  0
  1  2  1  0
  2  3  1  0
  3  4  2  0
  4  5  1  0
  5  6  2  0
  6  7  1  0
  7  8  2  0
  7  9  1  0
  9 10  2  0
 10 11  1  0
 11 12  2  0
 12 13  1  0
 13 14  2  0
 12 15  1  0
 15 16  1  0
 16 17  1  0
 17 18  1  0
 18 19  2  0
 18 20  1  0
 20 21  2  0
 21 22  1  0
 22 23  2  0
 23 24  1  0
 24 25  2  0
 24 26  1  0
 26 27  1  0
 26 28  1  0
 28 29  1  0
 29 30  1  0
 30 31  1  0
 31 32  1  0
 31 33  1  0
 33 34  1  0
 30 35  1  0
 35 36  1  0
 36 37  1  0
 37 38  1  0
  8  3  1  0
 14  9  1  0
 25 20  1  0
 33 26  1  0
 38 36  1  0
 32 23  1  0
  1 39  1  0
  1 40  1  0
  1 41  1  0
  4 42  1  0
  5 43  1  0
  6 44  1  0
  8 45  1  0
 10 46  1  0
 11 47  1  0
 13 48  1  0
 14 49  1  0
 15 50  1  0
 15 51  1  0
 16 52  1  0
 16 53  1  0
 17 54  1  0
 21 55  1  0
 22 56  1  0
 25 57  1  0
 27 58  1  0
 27 59  1  0
 27 60  1  0
 28 61  1  0
 28 62  1  0
 29 63  1  0
 29 64  1  0
 31 65  1  0
 32 66  1  0
 32 67  1  0
 33 68  1  0
 34 69  1  0
 34 70  1  0
 34 71  1  0
 35 72  1  0
 35 73  1  0
 36 74  1  0
 37 75  1  0
 37 76  1  0
 38 77  1  0
 38 78  1  0
M  END
>  <Ligand ID>  (1) 
LIG0003995

>  <Ligand>  (1) 
CHEMBL2208358

>  <SMILES>  (1) 
COc1cccc(c1)c1ccc(cc1)CCNC(=O)c1ccc2c(c1)C1(C)CCN(C(C2)C1C)CC1CC1

>  <CID>  (1) 
24873473.0

>  <ChEMBL ID>  (1) 
nan

>  <InChiKey>  (1) 
JWRIEQXHORQLBO-UHFFFAOYSA-N

>  <InChi>  (1) 
InChI=1S/C34H40N2O2/c1-23-32-21-28-13-14-29(20-31(28)34(23,2)16-18-36(32)22-25-7-8-25)33(37)35-17-15-24-9-11-26(12-10-24)27-5-4-6-30(19-27)38-3/h4-6,9-14,19-20,23,25,32H,7-8,15-18,21-22H2,1-3H3,(H,35,37)

>  <IUPAC Name>  (1) 
10-(cyclopropylmethyl)-N-[2-[4-(3-methoxyphenyl)phenyl]ethyl]-1,13-dimethyl-10-azatricyclo[7.3.1.02,7]trideca-2(7),3,5-triene-4-carboxamide

$$$$
