
     RDKit          3D

 13 13  0  0  0  0  0  0  0  0999 V2000
    1.5076   -1.9418   -0.0549 O   0  0  0  0  0  0  0  0  0  0  0  0
    0.6591   -0.8432   -0.0509 C   0  0  0  0  0  0  0  0  0  0  0  0
   -0.6955   -1.0807   -0.0543 C   0  0  0  0  0  0  0  0  0  0  0  0
   -1.6465   -0.0807   -0.0509 C   0  0  0  0  0  0  0  0  0  0  0  0
   -1.1889    1.2200   -0.0437 C   0  0  0  0  0  0  0  0  0  0  0  0
    0.1622    1.4765   -0.0402 C   0  0  0  0  0  0  0  0  0  0  0  0
    1.1144    0.4588   -0.0437 C   0  0  0  0  0  0  0  0  0  0  0  0
    2.9805    0.8076   -0.0389 Br  0  0  0  0  0  0  0  0  0  0  0  0
    2.2741   -2.0832    0.5673 H   0  0  0  0  0  0  0  0  0  0  0  0
   -1.0563   -2.0995   -0.0600 H   0  0  0  0  0  0  0  0  0  0  0  0
   -2.6955   -0.3379   -0.0540 H   0  0  0  0  0  0  0  0  0  0  0  0
   -1.9418    1.9992   -0.0412 H   0  0  0  0  0  0  0  0  0  0  0  0
    0.5265    2.5049   -0.0345 H   0  0  0  0  0  0  0  0  0  0  0  0
  1  2  1  0
  2  3  2  0
  3  4  1  0
  4  5  2  0
  5  6  1  0
  6  7  2  0
  7  8  1  0
  7  2  1  0
  1  9  1  0
  3 10  1  0
  4 11  1  0
  5 12  1  0
  6 13  1  0
M  END
>  <Ligand ID>  (1) 
LIG0000196

>  <Ligand>  (1) 
2-bromophenol

>  <SMILES>  (1) 
Oc1ccccc1Br

>  <CID>  (1) 
7244.0

>  <ChEMBL ID>  (1) 
nan

>  <InChiKey>  (1) 
VADKRMSMGWJZCF-UHFFFAOYSA-N

>  <InChi>  (1) 
InChI=1S/C6H5BrO/c7-5-3-1-2-4-6(5)8/h1-4,8H

>  <IUPAC Name>  (1) 
2-bromophenol

$$$$
