
     RDKit          3D

 46 48  0  0  0  0  0  0  0  0999 V2000
   -5.1565   -1.0441    0.6306 C   0  0  0  0  0  0  0  0  0  0  0  0
   -3.9063   -1.1133   -0.2217 C   0  0  0  0  0  0  0  0  0  0  0  0
   -2.6736   -0.6483    0.5248 C   0  0  0  0  0  0  0  0  0  0  0  0
   -1.5494   -0.7480   -0.2944 N   0  0  0  0  0  0  0  0  0  0  0  0
   -1.4959    0.1574   -1.3774 C   0  0  0  0  0  0  0  0  0  0  0  0
   -0.7619    1.4285   -1.0092 C   0  0  0  0  0  0  0  0  0  0  0  0
   -1.0501    2.6235   -1.6534 C   0  0  0  0  0  0  0  0  0  0  0  0
   -0.4227    3.8068   -1.3511 C   0  0  0  0  0  0  0  0  0  0  0  0
    0.5378    3.7937   -0.3568 C   0  0  0  0  0  0  0  0  0  0  0  0
    0.8162    2.5975    0.2792 C   0  0  0  0  0  0  0  0  0  0  0  0
    0.2011    1.4233   -0.0140 C   0  0  0  0  0  0  0  0  0  0  0  0
    0.5171    0.2090    0.6907 C   0  0  0  0  0  0  0  0  0  0  0  0
   -0.2808   -1.0242    0.2273 C   0  0  0  0  0  0  0  0  0  0  0  0
   -0.1550   -2.0694    1.2819 C   0  0  0  0  0  0  0  0  0  0  0  0
    1.1680   -1.9617    1.8585 O   0  0  0  0  0  0  0  0  0  0  0  0
    2.2402   -1.4285    1.1352 C   0  0  0  0  0  0  0  0  0  0  0  0
    1.9231   -0.2146    0.4767 C   0  0  0  0  0  0  0  0  0  0  0  0
    2.8499    0.4457   -0.2780 C   0  0  0  0  0  0  0  0  0  0  0  0
    4.1187   -0.1360   -0.3666 C   0  0  0  0  0  0  0  0  0  0  0  0
    4.4221   -1.3223    0.2792 C   0  0  0  0  0  0  0  0  0  0  0  0
    3.4763   -1.9932    1.0484 C   0  0  0  0  0  0  0  0  0  0  0  0
    5.6822   -1.9146    0.1988 O   0  0  0  0  0  0  0  0  0  0  0  0
    5.1168    0.4838   -1.1233 O   0  0  0  0  0  0  0  0  0  0  0  0
    0.6914    0.0000    0.0000 Cl  0  0  0  0  0  0  0  0  0  0  0  0
   -5.0106   -1.3843    1.6726 H   0  0  0  0  0  0  0  0  0  0  0  0
   -5.8578   -1.8026    0.1670 H   0  0  0  0  0  0  0  0  0  0  0  0
   -5.6369   -0.0771    0.5219 H   0  0  0  0  0  0  0  0  0  0  0  0
   -4.0859   -0.4085   -1.0577 H   0  0  0  0  0  0  0  0  0  0  0  0
   -3.7778   -2.0980   -0.7061 H   0  0  0  0  0  0  0  0  0  0  0  0
   -2.8820    0.4345    0.7638 H   0  0  0  0  0  0  0  0  0  0  0  0
   -2.5902   -1.1290    1.5211 H   0  0  0  0  0  0  0  0  0  0  0  0
   -1.0238   -0.2853   -2.2915 H   0  0  0  0  0  0  0  0  0  0  0  0
   -2.4854    0.5006   -1.7027 H   0  0  0  0  0  0  0  0  0  0  0  0
   -1.8016    2.6502   -2.4358 H   0  0  0  0  0  0  0  0  0  0  0  0
   -0.6651    4.7464   -1.8703 H   0  0  0  0  0  0  0  0  0  0  0  0
    1.0534    4.7076   -0.0888 H   0  0  0  0  0  0  0  0  0  0  0  0
    1.5687    2.5894    1.0619 H   0  0  0  0  0  0  0  0  0  0  0  0
    0.4065    0.3017    1.8021 H   0  0  0  0  0  0  0  0  0  0  0  0
    0.3288   -1.4327   -0.6429 H   0  0  0  0  0  0  0  0  0  0  0  0
   -0.8440   -2.0007    2.1187 H   0  0  0  0  0  0  0  0  0  0  0  0
   -0.1745   -3.1098    0.8603 H   0  0  0  0  0  0  0  0  0  0  0  0
    2.5969    1.3633   -0.7778 H   0  0  0  0  0  0  0  0  0  0  0  0
    3.6861   -2.9202    1.5635 H   0  0  0  0  0  0  0  0  0  0  0  0
    6.2534   -2.1089    1.0032 H   0  0  0  0  0  0  0  0  0  0  0  0
    5.3246    0.1118   -2.0677 H   0  0  0  0  0  0  0  0  0  0  0  0
   -0.6914    0.0000    0.0000 H   0  0  0  0  0  0  0  0  0  0  0  0
  1  2  1  0
  2  3  1  0
  3  4  1  0
  4  5  1  0
  5  6  1  0
  6  7  2  0
  7  8  1  0
  8  9  2  0
  9 10  1  0
 10 11  2  0
 11 12  1  0
 12 13  1  0
 13 14  1  0
 14 15  1  0
 15 16  1  0
 16 17  2  0
 17 18  1  0
 18 19  2  0
 19 20  1  0
 20 21  2  0
 20 22  1  0
 19 23  1  0
 13  4  1  0
 21 16  1  0
 11  6  1  0
 17 12  1  0
  1 25  1  0
  1 26  1  0
  1 27  1  0
  2 28  1  0
  2 29  1  0
  3 30  1  0
  3 31  1  0
  5 32  1  0
  5 33  1  0
  7 34  1  0
  8 35  1  0
  9 36  1  0
 10 37  1  0
 12 38  1  0
 13 39  1  0
 14 40  1  0
 14 41  1  0
 18 42  1  0
 21 43  1  0
 22 44  1  0
 23 45  1  0
 24 46  1  0
M  END
>  <Ligand ID>  (1) 
LIG0004349

>  <Ligand>  (1) 
CHEMBL1203924

>  <SMILES>  (1) 
CCCN1Cc2ccccc2C2C1COc1c2cc(c(c1)O)O.Cl

>  <CID>  (1) 
49861266.0

>  <ChEMBL ID>  (1) 
nan

>  <InChiKey>  (1) 
JJVMZJUGBIGJRB-UHFFFAOYSA-N

>  <InChi>  (1) 
InChI=1S/C19H21NO3.ClH/c1-2-7-20-10-12-5-3-4-6-13(12)19-14-8-16(21)17(22)9-18(14)23-11-15(19)20;/h3-6,8-9,15,19,21-22H,2,7,10-11H2,1H3;1H

>  <IUPAC Name>  (1) 
7-propyl-6,6a,8,12b-tetrahydrochromeno[3,4-c]isoquinoline-2,3-diol;hydrochloride

$$$$
