
     RDKit          3D

 51 53  0  0  0  0  0  0  0  0999 V2000
   -2.0993   -3.9879   -0.6089 C   0  0  0  0  0  0  0  0  0  0  0  0
   -1.7916   -2.5265   -0.8570 C   0  0  2  0  0  0  0  0  0  0  0  0
   -0.3526   -2.2704   -0.5563 C   0  0  0  0  0  0  0  0  0  0  0  0
    0.0158   -0.8736   -0.7750 N   0  0  0  0  0  0  0  0  0  0  0  0
    1.3335   -0.3875   -0.5553 C   0  0  0  0  0  0  0  0  0  0  0  0
    1.6123    0.9449   -0.7820 C   0  0  0  0  0  0  0  0  0  0  0  0
    2.8962    1.3999   -0.5637 C   0  0  0  0  0  0  0  0  0  0  0  0
    3.8640    0.5494   -0.1342 C   0  0  0  0  0  0  0  0  0  0  0  0
    3.5941   -0.7680    0.0913 C   0  0  0  0  0  0  0  0  0  0  0  0
    2.3203   -1.2389   -0.1208 C   0  0  0  0  0  0  0  0  0  0  0  0
    5.2355    1.1257    0.0790 C   0  0  0  0  0  0  0  0  0  0  0  0
    6.5773   -0.1127    0.6876 S   0  0  0  0  0  0  0  0  0  0  0  0
    7.7924    1.2799    0.6807 C   0  0  0  0  0  0  0  0  0  0  0  0
    7.0961    2.3705    0.2654 C   0  0  0  0  0  0  0  0  0  0  0  0
    5.8343    2.0769    0.0167 N   0  0  0  0  0  0  0  0  0  0  0  0
    7.7067    3.6988    0.1224 C   0  0  0  0  0  0  0  0  0  0  0  0
    7.0654    4.7078   -0.2611 O   0  0  0  0  0  0  0  0  0  0  0  0
    9.0500    3.8925    0.4135 O   0  0  0  0  0  0  0  0  0  0  0  0
   -2.6864   -1.7582   -0.0082 N   0  0  0  0  0  0  0  0  0  0  0  0
   -4.0690   -2.0644   -0.3604 C   0  0  0  0  0  0  0  0  0  0  0  0
   -4.9609   -1.2308    0.5595 C   0  0  1  0  0  0  0  0  0  0  0  0
   -4.6407    0.2098    0.3923 C   0  0  0  0  0  0  0  0  0  0  0  0
   -3.9187    0.8913    1.3695 C   0  0  0  0  0  0  0  0  0  0  0  0
   -3.5980    2.2084    1.2683 C   0  0  0  0  0  0  0  0  0  0  0  0
   -3.9927    2.9128    0.1659 C   0  0  0  0  0  0  0  0  0  0  0  0
   -4.7167    2.2741   -0.8375 C   0  0  0  0  0  0  0  0  0  0  0  0
   -5.0365    0.9275   -0.7190 C   0  0  0  0  0  0  0  0  0  0  0  0
   -5.2097    3.2082   -2.2431 Cl  0  0  0  0  0  0  0  0  0  0  0  0
   -6.2984   -1.5148    0.2324 O   0  0  0  0  0  0  0  0  0  0  0  0
   -1.1608   -4.5491   -0.6652 H   0  0  0  0  0  0  0  0  0  0  0  0
   -2.5935   -4.1161    0.3882 H   0  0  0  0  0  0  0  0  0  0  0  0
   -2.7684   -4.3894   -1.4004 H   0  0  0  0  0  0  0  0  0  0  0  0
   -2.0175   -2.3292   -1.9253 H   0  0  0  0  0  0  0  0  0  0  0  0
    0.2633   -2.9630   -1.1417 H   0  0  0  0  0  0  0  0  0  0  0  0
   -0.1934   -2.5161    0.5251 H   0  0  0  0  0  0  0  0  0  0  0  0
   -0.7389   -0.2330   -1.1049 H   0  0  0  0  0  0  0  0  0  0  0  0
    0.8767    1.6574   -1.1231 H   0  0  0  0  0  0  0  0  0  0  0  0
    3.1670    2.4351   -0.7263 H   0  0  0  0  0  0  0  0  0  0  0  0
    4.3522   -1.4567    0.4328 H   0  0  0  0  0  0  0  0  0  0  0  0
    2.1271   -2.2984    0.0664 H   0  0  0  0  0  0  0  0  0  0  0  0
    8.8813    1.1117    0.9888 H   0  0  0  0  0  0  0  0  0  0  0  0
    9.4081    4.8235    0.5841 H   0  0  0  0  0  0  0  0  0  0  0  0
   -2.5038   -0.7478    0.0041 H   0  0  0  0  0  0  0  0  0  0  0  0
   -4.2923   -3.1369   -0.2328 H   0  0  0  0  0  0  0  0  0  0  0  0
   -4.2404   -1.7386   -1.4033 H   0  0  0  0  0  0  0  0  0  0  0  0
   -4.8160   -1.4842    1.6088 H   0  0  0  0  0  0  0  0  0  0  0  0
   -3.6249    0.3004    2.2251 H   0  0  0  0  0  0  0  0  0  0  0  0
   -3.0349    2.6838    2.0599 H   0  0  0  0  0  0  0  0  0  0  0  0
   -3.7654    3.9704    0.0287 H   0  0  0  0  0  0  0  0  0  0  0  0
   -5.5939    0.4637   -1.5064 H   0  0  0  0  0  0  0  0  0  0  0  0
   -6.3546   -1.4324   -0.7613 H   0  0  0  0  0  0  0  0  0  0  0  0
  1  2  1  0
  2  3  1  0
  3  4  1  0
  4  5  1  0
  5  6  2  0
  6  7  1  0
  7  8  2  0
  8  9  1  0
  9 10  2  0
  8 11  1  0
 11 12  1  0
 12 13  1  0
 13 14  2  0
 14 15  1  0
 14 16  1  0
 16 17  2  0
 16 18  1  0
  2 19  1  0
 19 20  1  0
 20 21  1  0
 21 22  1  0
 22 23  2  0
 23 24  1  0
 24 25  2  0
 25 26  1  0
 26 27  2  0
 26 28  1  0
 21 29  1  0
 10  5  1  0
 15 11  2  0
 27 22  1  0
  1 30  1  0
  1 31  1  0
  1 32  1  0
  2 33  1  6
  3 34  1  0
  3 35  1  0
  4 36  1  0
  6 37  1  0
  7 38  1  0
  9 39  1  0
 10 40  1  0
 13 41  1  0
 18 42  1  0
 19 43  1  0
 20 44  1  0
 20 45  1  0
 21 46  1  1
 23 47  1  0
 24 48  1  0
 25 49  1  0
 27 50  1  0
 29 51  1  0
M  END
>  <Ligand ID>  (1) 
LIG0002241

>  <Ligand>  (1) 
CHEMBL430390

>  <SMILES>  (1) 
C[C@H](CNc1ccc(cc1)c1scc(n1)C(=O)O)NC[C@@H](c1cccc(c1)Cl)O

>  <CID>  (1) 
44441228.0

>  <ChEMBL ID>  (1) 
nan

>  <InChiKey>  (1) 
QHQNSVGZDQRIHI-YJYMSZOUSA-N

>  <InChi>  (1) 
InChI=1S/C21H22ClN3O3S/c1-13(23-11-19(26)15-3-2-4-16(22)9-15)10-24-17-7-5-14(6-8-17)20-25-18(12-29-20)21(27)28/h2-9,12-13,19,23-24,26H,10-11H2,1H3,(H,27,28)/t13-,19+/m1/s1

>  <IUPAC Name>  (1) 
2-[4-[[(2R)-2-[[(2R)-2-(3-chlorophenyl)-2-hydroxyethyl]amino]propyl]amino]phenyl]-1,3-thiazole-4-carboxylic acid

$$$$
