
     RDKit          3D

195204  0  0  0  0  0  0  0  0999 V2000
  -10.3636   -4.9127   -4.8335 O   0  0  0  0  0  0  0  0  0  0  0  0
  -10.0844   -5.1831   -3.4964 C   0  0  0  0  0  0  0  0  0  0  0  0
   -8.8423   -5.7030   -3.1903 C   0  0  0  0  0  0  0  0  0  0  0  0
   -8.5834   -5.9656   -1.8722 C   0  0  0  0  0  0  0  0  0  0  0  0
   -9.4900   -5.7397   -0.8457 C   0  0  0  0  0  0  0  0  0  0  0  0
  -10.7208   -5.2229   -1.1634 C   0  0  0  0  0  0  0  0  0  0  0  0
  -11.0001   -4.9504   -2.4977 C   0  0  0  0  0  0  0  0  0  0  0  0
   -9.1138   -6.0745    0.5317 C   0  0  0  0  0  0  0  0  0  0  0  0
   -8.4491   -4.9675    1.2995 C   0  0  1  0  0  0  0  0  0  0  0  0
   -8.1531   -5.5307    2.6589 C   0  0  0  0  0  0  0  0  0  0  0  0
   -6.9598   -5.6583    3.0548 O   0  0  0  0  0  0  0  0  0  0  0  0
   -9.2488   -5.9160    3.4953 N   0  0  0  0  0  0  0  0  0  0  0  0
   -7.1811   -4.6508    0.6509 N   0  0  0  0  0  0  0  0  0  0  0  0
   -6.7137   -3.3576    0.4156 C   0  0  0  0  0  0  0  0  0  0  0  0
   -7.5220   -2.4144    0.8204 O   0  0  0  0  0  0  0  0  0  0  0  0
   -5.4870   -2.9086   -0.1980 C   0  0  2  0  0  0  0  0  0  0  0  0
   -5.7344   -1.8245   -1.2479 C   0  0  0  0  0  0  0  0  0  0  0  0
   -6.1436   -0.2595   -0.4197 S   0  0  0  0  0  0  0  0  0  0  0  0
   -6.3156    1.2623   -1.9235 S   0  0  0  0  0  0  0  0  0  0  0  0
   -4.6642    1.9147   -2.2550 C   0  0  0  0  0  0  0  0  0  0  0  0
   -4.0678    2.4853   -1.0243 C   0  0  2  0  0  0  0  0  0  0  0  0
   -4.7801    3.6501   -0.5731 N   0  0  0  0  0  0  0  0  0  0  0  0
   -5.6242    3.6596    0.5654 C   0  0  0  0  0  0  0  0  0  0  0  0
   -5.7598    2.5931    1.1982 O   0  0  0  0  0  0  0  0  0  0  0  0
   -6.3581    4.8439    1.0573 C   0  0  2  0  0  0  0  0  0  0  0  0
   -7.7137    4.9263    0.3509 C   0  0  0  0  0  0  0  0  0  0  0  0
   -8.4231    6.1085    0.8742 C   0  0  0  0  0  0  0  0  0  0  0  0
   -9.3061    6.0010    1.9371 C   0  0  0  0  0  0  0  0  0  0  0  0
   -9.9510    7.1443    2.4012 C   0  0  0  0  0  0  0  0  0  0  0  0
   -9.7062    8.3786    1.8036 C   0  0  0  0  0  0  0  0  0  0  0  0
   -8.8221    8.4892    0.7387 C   0  0  0  0  0  0  0  0  0  0  0  0
   -8.1855    7.3390    0.2819 C   0  0  0  0  0  0  0  0  0  0  0  0
  -10.3279    9.5396    2.2368 O   0  0  0  0  0  0  0  0  0  0  0  0
   -5.6989    6.0987    0.7270 N   0  0  0  0  0  0  0  0  0  0  0  0
   -2.6341    2.8182   -1.1987 C   0  0  0  0  0  0  0  0  0  0  0  0
   -1.8750    1.9665   -1.6871 O   0  0  0  0  0  0  0  0  0  0  0  0
   -2.0333    4.0555   -0.8433 N   0  0  0  0  0  0  0  0  0  0  0  0
   -0.6234    4.2362   -1.1491 C   0  0  1  0  0  0  0  0  0  0  0  0
   -0.4181    5.6220   -1.7078 C   0  0  0  0  0  0  0  0  0  0  0  0
   -1.2392    5.8078   -2.9539 C   0  0  0  0  0  0  0  0  0  0  0  0
   -2.5447    6.3075   -2.8569 C   0  0  0  0  0  0  0  0  0  0  0  0
   -3.0077    6.3495   -4.1433 N   0  0  0  0  0  0  0  0  0  0  0  0
   -2.0390    5.9082   -4.9253 C   0  0  0  0  0  0  0  0  0  0  0  0
   -0.9375    5.5670   -4.2278 N   0  0  0  0  0  0  0  0  0  0  0  0
    0.1813    4.1396    0.1123 C   0  0  0  0  0  0  0  0  0  0  0  0
   -0.2924    3.9062    1.2303 O   0  0  0  0  0  0  0  0  0  0  0  0
    1.6205    4.3222    0.1047 N   0  0  0  0  0  0  0  0  0  0  0  0
    2.3929    4.2039    1.3156 C   0  0  2  0  0  0  0  0  0  0  0  0
    2.6583    5.6762    1.7259 C   0  0  0  0  0  0  0  0  0  0  0  0
    3.3605    6.4324    0.6882 C   0  0  0  0  0  0  0  0  0  0  0  0
    4.7116    6.5189    0.5174 C   0  0  0  0  0  0  0  0  0  0  0  0
    5.3353    7.2575   -0.4683 C   0  0  0  0  0  0  0  0  0  0  0  0
    4.5156    7.9522   -1.3364 C   0  0  0  0  0  0  0  0  0  0  0  0
    3.1430    7.9014   -1.2139 C   0  0  0  0  0  0  0  0  0  0  0  0
    2.5604    7.1529   -0.2150 C   0  0  0  0  0  0  0  0  0  0  0  0
    3.6491    3.4510    1.2191 C   0  0  0  0  0  0  0  0  0  0  0  0
    4.1690    2.9835    0.2046 O   0  0  0  0  0  0  0  0  0  0  0  0
    4.4124    3.1940    2.4322 N   0  0  0  0  0  0  0  0  0  0  0  0
    5.6553    2.5354    2.4948 C   0  0  2  0  0  0  0  0  0  0  0  0
    6.8122    3.3695    1.9613 C   0  0  0  0  0  0  0  0  0  0  0  0
    6.9967    3.3171    0.2038 S   0  0  0  0  0  0  0  0  0  0  0  0
    8.1914    2.1608   -0.4471 C   0  0  0  0  0  0  0  0  0  0  0  0
    7.7241    0.7544   -0.1031 C   0  0  0  0  0  0  0  0  0  0  0  0
    7.0719    0.3597   -1.0434 O   0  0  0  0  0  0  0  0  0  0  0  0
    7.8891   -0.1466    1.0540 C   0  0  1  0  0  0  0  0  0  0  0  0
    8.0897   -1.5448    0.8828 C   0  0  1  0  0  0  0  0  0  0  0  0
    6.8896   -2.4861    0.8328 C   0  0  0  0  0  0  0  0  0  0  0  0
    6.5157   -3.1541    1.7982 O   0  0  0  0  0  0  0  0  0  0  0  0
    6.1381   -2.6529   -0.3549 N   0  0  0  0  0  0  0  0  0  0  0  0
    5.0278   -3.5363   -0.5902 C   0  0  2  0  0  0  0  0  0  0  0  0
    3.8899   -3.4683    0.3218 C   0  0  0  0  0  0  0  0  0  0  0  0
    3.8887   -3.1316    1.5089 O   0  0  0  0  0  0  0  0  0  0  0  0
    2.6057   -3.8088   -0.2029 N   0  0  0  0  0  0  0  0  0  0  0  0
    1.3897   -3.8721    0.5725 C   0  0  2  0  0  0  0  0  0  0  0  0
    0.2321   -4.2668   -0.2481 C   0  0  0  0  0  0  0  0  0  0  0  0
    0.3629   -4.3349   -1.4773 O   0  0  0  0  0  0  0  0  0  0  0  0
   -1.0543   -4.5924    0.2536 N   0  0  0  0  0  0  0  0  0  0  0  0
   -2.1937   -4.8359   -0.6811 C   0  0  2  0  0  0  0  0  0  0  0  0
   -3.3144   -4.0116   -0.2421 C   0  0  0  0  0  0  0  0  0  0  0  0
   -3.0816   -3.2730    0.7581 O   0  0  0  0  0  0  0  0  0  0  0  0
   -4.6352   -3.9021   -0.7535 N   0  0  0  0  0  0  0  0  0  0  0  0
   -2.5111   -6.2525   -0.8772 C   0  0  0  0  0  0  0  0  0  0  0  0
   -2.9271   -7.0517    0.2759 C   0  0  0  0  0  0  0  0  0  0  0  0
   -4.3041   -7.2315    0.4730 C   0  0  0  0  0  0  0  0  0  0  0  0
   -4.8050   -7.9385    1.5407 C   0  0  0  0  0  0  0  0  0  0  0  0
   -3.9149   -8.4839    2.4392 C   0  0  0  0  0  0  0  0  0  0  0  0
   -2.5431   -8.3199    2.2625 C   0  0  0  0  0  0  0  0  0  0  0  0
   -2.0568   -7.6110    1.1914 C   0  0  0  0  0  0  0  0  0  0  0  0
    1.0849   -2.4427    1.0989 C   0  0  0  0  0  0  0  0  0  0  0  0
    5.5306   -4.9945   -0.4813 C   0  0  0  0  0  0  0  0  0  0  0  0
    4.4312   -5.9375   -0.7096 C   0  0  0  0  0  0  0  0  0  0  0  0
    3.5941   -6.2272    0.1900 O   0  0  0  0  0  0  0  0  0  0  0  0
    4.2288   -6.5985   -1.9721 N   0  0  0  0  0  0  0  0  0  0  0  0
    8.9285   -2.0300   -0.2671 C   0  0  0  0  0  0  0  0  0  0  0  0
   10.3118   -1.6553   -0.4333 C   0  0  0  0  0  0  0  0  0  0  0  0
   11.3634   -2.2966    0.2594 C   0  0  0  0  0  0  0  0  0  0  0  0
   12.5281   -1.6961   -0.0369 N   0  0  0  0  0  0  0  0  0  0  0  0
   12.3196   -0.6861   -0.8942 C   0  0  0  0  0  0  0  0  0  0  0  0
   10.9665   -0.6658   -1.1333 C   0  0  0  0  0  0  0  0  0  0  0  0
   10.5007    0.2772   -2.0147 C   0  0  0  0  0  0  0  0  0  0  0  0
   11.2998    1.1874   -2.6592 C   0  0  0  0  0  0  0  0  0  0  0  0
   12.6507    1.1736   -2.4274 C   0  0  0  0  0  0  0  0  0  0  0  0
   13.1314    0.2342   -1.5467 C   0  0  0  0  0  0  0  0  0  0  0  0
    9.1619    0.3907    1.8039 C   0  0  0  0  0  0  0  0  0  0  0  0
    8.9596   -0.1416    3.1897 C   0  0  0  0  0  0  0  0  0  0  0  0
    7.4531   -0.2608    3.3116 C   0  0  0  0  0  0  0  0  0  0  0  0
    6.9364    0.2923    2.0963 N   0  0  0  0  0  0  0  0  0  0  0  0
    5.7656    1.1331    2.0767 C   0  0  0  0  0  0  0  0  0  0  0  0
    4.8169    0.5152    1.6487 O   0  0  0  0  0  0  0  0  0  0  0  0
   -9.9707   -5.5550   -5.5236 H   0  0  0  0  0  0  0  0  0  0  0  0
   -8.1227   -5.8873   -3.9710 H   0  0  0  0  0  0  0  0  0  0  0  0
   -7.6284   -6.3651   -1.6146 H   0  0  0  0  0  0  0  0  0  0  0  0
  -11.4327   -5.0488   -0.3716 H   0  0  0  0  0  0  0  0  0  0  0  0
  -11.9595   -4.5403   -2.8039 H   0  0  0  0  0  0  0  0  0  0  0  0
   -9.9979   -6.4899    1.1028 H   0  0  0  0  0  0  0  0  0  0  0  0
   -8.4208   -6.9582    0.4631 H   0  0  0  0  0  0  0  0  0  0  0  0
   -9.0300   -4.0424    1.3772 H   0  0  0  0  0  0  0  0  0  0  0  0
  -10.1341   -5.3684    3.4372 H   0  0  0  0  0  0  0  0  0  0  0  0
   -9.1859   -6.7322    4.1570 H   0  0  0  0  0  0  0  0  0  0  0  0
   -6.6088   -5.4493    0.3562 H   0  0  0  0  0  0  0  0  0  0  0  0
   -4.9118   -2.3537    0.6576 H   0  0  0  0  0  0  0  0  0  0  0  0
   -6.5180   -2.1908   -1.9131 H   0  0  0  0  0  0  0  0  0  0  0  0
   -4.7802   -1.6971   -1.7906 H   0  0  0  0  0  0  0  0  0  0  0  0
   -4.0077    1.0696   -2.5962 H   0  0  0  0  0  0  0  0  0  0  0  0
   -4.7306    2.6546   -3.0825 H   0  0  0  0  0  0  0  0  0  0  0  0
   -4.1375    1.6821   -0.2143 H   0  0  0  0  0  0  0  0  0  0  0  0
   -4.6497    4.5199   -1.1508 H   0  0  0  0  0  0  0  0  0  0  0  0
   -6.5370    4.7865    2.1359 H   0  0  0  0  0  0  0  0  0  0  0  0
   -7.5470    5.0516   -0.7404 H   0  0  0  0  0  0  0  0  0  0  0  0
   -8.2628    3.9990    0.5519 H   0  0  0  0  0  0  0  0  0  0  0  0
   -9.4847    5.0239    2.3874 H   0  0  0  0  0  0  0  0  0  0  0  0
  -10.6570    7.0747    3.2266 H   0  0  0  0  0  0  0  0  0  0  0  0
   -8.6137    9.4426    0.2537 H   0  0  0  0  0  0  0  0  0  0  0  0
   -7.4962    7.4464   -0.5527 H   0  0  0  0  0  0  0  0  0  0  0  0
  -10.3879    9.7722    3.2292 H   0  0  0  0  0  0  0  0  0  0  0  0
   -4.8960    6.0312    0.1088 H   0  0  0  0  0  0  0  0  0  0  0  0
   -5.3952    6.5541    1.6257 H   0  0  0  0  0  0  0  0  0  0  0  0
   -2.6441    4.7353   -0.3988 H   0  0  0  0  0  0  0  0  0  0  0  0
   -0.2690    3.4652   -1.8702 H   0  0  0  0  0  0  0  0  0  0  0  0
    0.6464    5.7980   -1.9602 H   0  0  0  0  0  0  0  0  0  0  0  0
   -0.6881    6.3602   -0.9369 H   0  0  0  0  0  0  0  0  0  0  0  0
   -3.0657    6.5914   -1.9561 H   0  0  0  0  0  0  0  0  0  0  0  0
   -2.1060    5.8219   -5.9989 H   0  0  0  0  0  0  0  0  0  0  0  0
   -0.0188    5.1921   -4.5467 H   0  0  0  0  0  0  0  0  0  0  0  0
    2.0006    4.5338   -0.8149 H   0  0  0  0  0  0  0  0  0  0  0  0
    1.7803    3.7470    2.1427 H   0  0  0  0  0  0  0  0  0  0  0  0
    3.1429    5.6262    2.7036 H   0  0  0  0  0  0  0  0  0  0  0  0
    1.6342    6.1251    1.8925 H   0  0  0  0  0  0  0  0  0  0  0  0
    5.3429    5.9792    1.1934 H   0  0  0  0  0  0  0  0  0  0  0  0
    6.4139    7.2792   -0.5419 H   0  0  0  0  0  0  0  0  0  0  0  0
    4.9566    8.5534   -2.1212 H   0  0  0  0  0  0  0  0  0  0  0  0
    2.5434    8.4662   -1.9251 H   0  0  0  0  0  0  0  0  0  0  0  0
    1.4850    7.1159   -0.1227 H   0  0  0  0  0  0  0  0  0  0  0  0
    3.9438    3.5508    3.2732 H   0  0  0  0  0  0  0  0  0  0  0  0
    5.8978    2.4877    3.6112 H   0  0  0  0  0  0  0  0  0  0  0  0
    6.5842    4.4088    2.3083 H   0  0  0  0  0  0  0  0  0  0  0  0
    7.7163    3.0833    2.5112 H   0  0  0  0  0  0  0  0  0  0  0  0
    9.1896    2.3584   -0.0293 H   0  0  0  0  0  0  0  0  0  0  0  0
    8.1983    2.2901   -1.5512 H   0  0  0  0  0  0  0  0  0  0  0  0
    8.6432   -1.9893    1.8047 H   0  0  0  0  0  0  0  0  0  0  0  0
    6.4520   -2.0802   -1.1531 H   0  0  0  0  0  0  0  0  0  0  0  0
    4.6810   -3.4200   -1.6302 H   0  0  0  0  0  0  0  0  0  0  0  0
    2.5648   -4.0113   -1.1960 H   0  0  0  0  0  0  0  0  0  0  0  0
    1.5143   -4.4760    1.4628 H   0  0  0  0  0  0  0  0  0  0  0  0
   -1.1459   -4.6512    1.2607 H   0  0  0  0  0  0  0  0  0  0  0  0
   -1.8283   -4.4396   -1.6917 H   0  0  0  0  0  0  0  0  0  0  0  0
   -4.8730   -4.5663   -1.4897 H   0  0  0  0  0  0  0  0  0  0  0  0
   -3.3033   -6.4111   -1.6838 H   0  0  0  0  0  0  0  0  0  0  0  0
   -1.6227   -6.7913   -1.3571 H   0  0  0  0  0  0  0  0  0  0  0  0
   -4.9330   -6.8011   -0.2795 H   0  0  0  0  0  0  0  0  0  0  0  0
   -5.8494   -8.0538    1.6580 H   0  0  0  0  0  0  0  0  0  0  0  0
   -4.3367   -9.0333    3.2696 H   0  0  0  0  0  0  0  0  0  0  0  0
   -1.8574   -8.7683    2.9842 H   0  0  0  0  0  0  0  0  0  0  0  0
   -0.9740   -7.4823    1.0373 H   0  0  0  0  0  0  0  0  0  0  0  0
    1.6259   -1.7267    0.4609 H   0  0  0  0  0  0  0  0  0  0  0  0
   -0.0075   -2.3435    1.0768 H   0  0  0  0  0  0  0  0  0  0  0  0
    1.4425   -2.4064    2.1271 H   0  0  0  0  0  0  0  0  0  0  0  0
    5.9426   -5.1392    0.5556 H   0  0  0  0  0  0  0  0  0  0  0  0
    6.3426   -5.1610   -1.1901 H   0  0  0  0  0  0  0  0  0  0  0  0
    5.1160   -6.8522   -2.4867 H   0  0  0  0  0  0  0  0  0  0  0  0
    3.2768   -6.8078   -2.3396 H   0  0  0  0  0  0  0  0  0  0  0  0
    8.4205   -1.7766   -1.2566 H   0  0  0  0  0  0  0  0  0  0  0  0
    8.9141   -3.1823   -0.2687 H   0  0  0  0  0  0  0  0  0  0  0  0
   11.2867   -3.1402    0.9272 H   0  0  0  0  0  0  0  0  0  0  0  0
   13.4975   -1.9249    0.3104 H   0  0  0  0  0  0  0  0  0  0  0  0
    9.4540    0.2955   -2.2453 H   0  0  0  0  0  0  0  0  0  0  0  0
   10.8628    1.8976   -3.3314 H   0  0  0  0  0  0  0  0  0  0  0  0
   13.3161    1.8872   -2.9290 H   0  0  0  0  0  0  0  0  0  0  0  0
   14.2072    0.1987   -1.3388 H   0  0  0  0  0  0  0  0  0  0  0  0
   10.0300   -0.1018    1.3901 H   0  0  0  0  0  0  0  0  0  0  0  0
    9.2024    1.4810    1.7565 H   0  0  0  0  0  0  0  0  0  0  0  0
    9.3829    0.6256    3.9057 H   0  0  0  0  0  0  0  0  0  0  0  0
    9.5043   -1.0602    3.3897 H   0  0  0  0  0  0  0  0  0  0  0  0
    7.1896    0.3834    4.2096 H   0  0  0  0  0  0  0  0  0  0  0  0
    7.1184   -1.2552    3.5879 H   0  0  0  0  0  0  0  0  0  0  0  0
  1  2  1  0
  2  3  2  0
  3  4  1  0
  4  5  2  0
  5  6  1  0
  6  7  2  0
  5  8  1  0
  8  9  1  0
  9 10  1  0
 10 11  2  0
 10 12  1  0
  9 13  1  0
 13 14  1  0
 14 15  2  0
 14 16  1  0
 16 17  1  0
 17 18  1  0
 18 19  1  0
 19 20  1  0
 20 21  1  0
 21 22  1  0
 22 23  1  0
 23 24  2  0
 23 25  1  0
 25 26  1  0
 26 27  1  0
 27 28  2  0
 28 29  1  0
 29 30  2  0
 30 31  1  0
 31 32  2  0
 30 33  1  0
 25 34  1  0
 21 35  1  0
 35 36  2  0
 35 37  1  0
 37 38  1  0
 38 39  1  0
 39 40  1  0
 40 41  2  0
 41 42  1  0
 42 43  2  0
 43 44  1  0
 38 45  1  0
 45 46  2  0
 45 47  1  0
 47 48  1  0
 48 49  1  0
 49 50  1  0
 50 51  2  0
 51 52  1  0
 52 53  2  0
 53 54  1  0
 54 55  2  0
 48 56  1  0
 56 57  2  0
 56 58  1  0
 58 59  1  0
 59 60  1  0
 60 61  1  0
 61 62  1  0
 62 63  1  0
 63 64  2  0
 63 65  1  0
 65 66  1  0
 66 67  1  0
 67 68  2  0
 67 69  1  0
 69 70  1  0
 70 71  1  0
 71 72  2  0
 71 73  1  0
 73 74  1  0
 74 75  1  0
 75 76  2  0
 75 77  1  0
 77 78  1  0
 78 79  1  0
 79 80  2  0
 79 81  1  0
 78 82  1  0
 82 83  1  0
 83 84  2  0
 84 85  1  0
 85 86  2  0
 86 87  1  0
 87 88  2  0
 74 89  1  0
 70 90  1  0
 90 91  1  0
 91 92  2  0
 91 93  1  0
 66 94  1  0
 94 95  1  0
 95 96  2  0
 96 97  1  0
 97 98  1  0
 98 99  2  0
 99100  1  0
100101  2  0
101102  1  0
102103  2  0
 65104  1  1
104105  1  0
105106  1  0
106107  1  0
107108  1  0
108109  2  0
  7  2  1  0
 81 16  1  0
 88 83  1  0
 99 95  1  0
 32 27  1  0
 44 40  1  0
 55 50  1  0
108 59  1  0
107 65  1  0
103 98  1  0
  1110  1  0
  3111  1  0
  4112  1  0
  6113  1  0
  7114  1  0
  8115  1  0
  8116  1  0
  9117  1  1
 12118  1  0
 12119  1  0
 13120  1  0
 16121  1  1
 17122  1  0
 17123  1  0
 20124  1  0
 20125  1  0
 21126  1  1
 22127  1  0
 25128  1  1
 26129  1  0
 26130  1  0
 28131  1  0
 29132  1  0
 31133  1  0
 32134  1  0
 33135  1  0
 34136  1  0
 34137  1  0
 37138  1  0
 38139  1  6
 39140  1  0
 39141  1  0
 41142  1  0
 43143  1  0
 44144  1  0
 47145  1  0
 48146  1  1
 49147  1  0
 49148  1  0
 51149  1  0
 52150  1  0
 53151  1  0
 54152  1  0
 55153  1  0
 58154  1  0
 59155  1  1
 60156  1  0
 60157  1  0
 62158  1  0
 62159  1  0
 66160  1  1
 69161  1  0
 70162  1  6
 73163  1  0
 74164  1  1
 77165  1  0
 78166  1  6
 81167  1  0
 82168  1  0
 82169  1  0
 84170  1  0
 85171  1  0
 86172  1  0
 87173  1  0
 88174  1  0
 89175  1  0
 89176  1  0
 89177  1  0
 90178  1  0
 90179  1  0
 93180  1  0
 93181  1  0
 94182  1  0
 94183  1  0
 96184  1  0
 97185  1  0
100186  1  0
101187  1  0
102188  1  0
103189  1  0
104190  1  0
104191  1  0
105192  1  0
105193  1  0
106194  1  0
106195  1  0
M  END
>  <Ligand ID>  (1) 
LIG0001136

>  <Ligand>  (1) 
CHEMBL2323800

>  <SMILES>  (1) 
Oc1ccc(cc1)C[C@@H](C(=O)N)NC(=O)[C@@H]1CSSC[C@H](NC(=O)[C@H](Cc2ccc(cc2)O)N)C(=O)N[C@@H](Cc2cnc[nH]2)C(=O)N[C@H](Cc2ccccc2)C(=O)N[C@@H]2CSCC(=O)[C@@]3([C@@H](C(=O)N[C@H](C(=O)N[C@H](C(=O)N[C@H](C(=O)N1)Cc1ccccc1)C)CC(=O)N)Cc1c[nH]c4c1cccc4)CCCN3C2=O

>  <CID>  (1) 
71720503.0

>  <ChEMBL ID>  (1) 
nan

>  <InChiKey>  (1) 
UPVUZHSJQHSUQD-DQRIJPQFSA-N

>  <InChi>  (1) 
InChI=1S/C75H86N16O15S3/c1-41-65(97)84-55(29-42-11-4-2-5-12-42)69(101)89-60(72(104)83-54(64(78)96)28-45-19-23-49(93)24-20-45)38-109-108-37-59(88-67(99)52(76)27-44-17-21-48(92)22-18-44)73(105)87-57(32-47-35-79-40-81-47)71(103)86-56(30-43-13-6-3-7-14-43)70(102)90-61-36-107-39-62(94)75(25-10-26-91(75)74(61)106)51(31-46-34-80-53-16-9-8-15-50(46)53)66(98)85-58(33-63(77)95)68(100)82-41/h2-9,11-24,34-35,40-41,51-52,54-61,80,92-93H,10,25-33,36-39,76H2,1H3,(H2,77,95)(H2,78,96)(H,79,81)(H,82,100)(H,83,104)(H,84,97)(H,85,98)(H,86,103)(H,87,105)(H,88,99)(H,89,101)(H,90,102)/t41-,51+,52-,54-,55-,56+,57-,58-,59-,60-,61+,75-/m0/s1

>  <IUPAC Name>  (1) 
(1S,2S,5S,8S,11S,14R,19R,22S,25R,28S)-N-[(2S)-1-amino-3-(4-hydroxyphenyl)-1-oxopropan-2-yl]-19-[[(2S)-2-amino-3-(4-hydroxyphenyl)propanoyl]amino]-5-(2-amino-2-oxoethyl)-11,25-dibenzyl-22-(1H-imidazol-5-ylmethyl)-2-(1H-indol-3-ylmethyl)-8-methyl-3,6,9,12,20,23,26,29,34-nonaoxo-16,17,36-trithia-4,7,10,13,21,24,27,30-octazatricyclo[26.5.4.01,30]heptatriacontane-14-carboxamide

$$$$
