
     RDKit          3D

 12 11  0  0  0  0  0  0  0  0999 V2000
   -1.3187   -0.0419    0.1410 C   0  0  0  0  0  0  0  0  0  0  0  0
   -0.0650   -0.5249   -0.5479 C   0  0  0  0  0  0  0  0  0  0  0  0
    1.1322   -0.3450    0.3832 C   0  0  0  0  0  0  0  0  0  0  0  0
    1.1967    1.4462    0.7215 S   0  0  0  0  0  0  0  0  0  0  0  0
   -1.0814    0.1719    1.2157 H   0  0  0  0  0  0  0  0  0  0  0  0
   -2.1280   -0.8098    0.0432 H   0  0  0  0  0  0  0  0  0  0  0  0
   -1.7126    0.9045   -0.2698 H   0  0  0  0  0  0  0  0  0  0  0  0
   -0.1310   -1.5249   -0.9728 H   0  0  0  0  0  0  0  0  0  0  0  0
    0.1809    0.1814   -1.3953 H   0  0  0  0  0  0  0  0  0  0  0  0
    0.9999   -0.9265    1.3169 H   0  0  0  0  0  0  0  0  0  0  0  0
    2.0403   -0.6789   -0.1632 H   0  0  0  0  0  0  0  0  0  0  0  0
    0.8866    2.1478   -0.4725 H   0  0  0  0  0  0  0  0  0  0  0  0
  1  2  1  0
  2  3  1  0
  3  4  1  0
  1  5  1  0
  1  6  1  0
  1  7  1  0
  2  8  1  0
  2  9  1  0
  3 10  1  0
  3 11  1  0
  4 12  1  0
M  END
>  <Ligand ID>  (1) 
LIG0000555

>  <Ligand>  (1) 
Propyl mercaptan

>  <SMILES>  (1) 
CCCS

>  <CID>  (1) 
7848.0

>  <ChEMBL ID>  (1) 
nan

>  <InChiKey>  (1) 
SUVIGLJNEAMWEG-UHFFFAOYSA-N

>  <InChi>  (1) 
InChI=1S/C3H8S/c1-2-3-4/h4H,2-3H2,1H3

>  <IUPAC Name>  (1) 
propane-1-thiol

$$$$
