
     RDKit          3D

 14 13  0  0  0  0  0  0  0  0999 V2000
   -1.1923   -0.9036    0.1727 C   0  0  0  0  0  0  0  0  0  0  0  0
   -0.2232    0.0250   -0.5022 C   0  0  0  0  0  0  0  0  0  0  0  0
    1.1780   -0.4895   -0.5062 C   0  0  0  0  0  0  0  0  0  0  0  0
    1.7966   -0.6999   -1.6051 O   0  0  0  0  0  0  0  0  0  0  0  0
    1.8263   -0.7463    0.7160 O   0  0  0  0  0  0  0  0  0  0  0  0
   -0.2989    1.3667    0.2234 C   0  0  0  0  0  0  0  0  0  0  0  0
   -1.2869   -0.6322    1.2557 H   0  0  0  0  0  0  0  0  0  0  0  0
   -0.9465   -1.9679    0.0863 H   0  0  0  0  0  0  0  0  0  0  0  0
   -2.1852   -0.7291   -0.3290 H   0  0  0  0  0  0  0  0  0  0  0  0
   -0.5184    0.2040   -1.5499 H   0  0  0  0  0  0  0  0  0  0  0  0
    2.8328   -0.5216    0.7591 H   0  0  0  0  0  0  0  0  0  0  0  0
   -1.0743    1.3613    1.0196 H   0  0  0  0  0  0  0  0  0  0  0  0
    0.6776    1.5465    0.7292 H   0  0  0  0  0  0  0  0  0  0  0  0
   -0.5857    2.1866   -0.4696 H   0  0  0  0  0  0  0  0  0  0  0  0
  1  2  1  0
  2  3  1  0
  3  4  2  0
  3  5  1  0
  2  6  1  0
  1  7  1  0
  1  8  1  0
  1  9  1  0
  2 10  1  0
  5 11  1  0
  6 12  1  0
  6 13  1  0
  6 14  1  0
M  END
>  <Ligand ID>  (1) 
LIG0000041

>  <Ligand>  (1) 
isobutyric acid

>  <SMILES>  (1) 
CC(C(=O)O)C

>  <CID>  (1) 
6590.0

>  <ChEMBL ID>  (1) 
nan

>  <InChiKey>  (1) 
KQNPFQTWMSNSAP-UHFFFAOYSA-N

>  <InChi>  (1) 
InChI=1S/C4H8O2/c1-3(2)4(5)6/h3H,1-2H3,(H,5,6)

>  <IUPAC Name>  (1) 
2-methylpropanoic acid

$$$$
