
     RDKit          3D

 61 65  0  0  0  0  0  0  0  0999 V2000
   -2.0779    0.5992    2.8322 O   0  0  0  0  0  0  0  0  0  0  0  0
   -1.5526    0.2176    1.7434 C   0  0  0  0  0  0  0  0  0  0  0  0
   -2.3545   -0.5821    0.8976 N   0  0  0  0  0  0  0  0  0  0  0  0
   -3.7400   -0.8988    1.2752 C   0  0  0  0  0  0  0  0  0  0  0  0
   -4.3154   -1.3358   -0.0743 C   0  0  2  0  0  0  0  0  0  0  0  0
   -3.1722   -2.1761   -0.5903 C   0  0  0  0  0  0  0  0  0  0  0  0
   -2.0223   -1.1973   -0.3776 C   0  0  1  0  0  0  0  0  0  0  0  0
   -2.0551   -0.0968   -1.4134 C   0  0  0  0  0  0  0  0  0  0  0  0
   -3.4046    0.4970   -1.5918 C   0  0  0  0  0  0  0  0  0  0  0  0
   -4.5497   -0.2120   -1.0109 C   0  0  0  0  0  0  0  0  0  0  0  0
   -3.6359    0.6449   -3.0983 C   0  0  0  0  0  0  0  0  0  0  0  0
   -3.4178    1.9364   -1.0559 C   0  0  0  0  0  0  0  0  0  0  0  0
   -5.5888   -2.1277    0.1137 C   0  0  0  0  0  0  0  0  0  0  0  0
   -0.2023    0.6419    1.4913 C   0  0  0  0  0  0  0  0  0  0  0  0
    0.0891    1.9759    1.7540 C   0  0  0  0  0  0  0  0  0  0  0  0
    1.3336    2.5403    1.5888 C   0  0  0  0  0  0  0  0  0  0  0  0
    2.3435    1.7465    1.1415 C   0  0  0  0  0  0  0  0  0  0  0  0
    2.0404    0.4001    0.8833 C   0  0  0  0  0  0  0  0  0  0  0  0
    0.8054   -0.1109    1.0567 N   0  0  0  0  0  0  0  0  0  0  0  0
    3.0358   -0.3509    0.4644 O   0  0  0  0  0  0  0  0  0  0  0  0
    3.7758   -1.2799    0.0520 C   0  0  0  0  0  0  0  0  0  0  0  0
    4.6379   -2.3469   -0.4238 C   0  0  0  0  0  0  0  0  0  0  0  0
    4.1299   -3.7058   -0.7777 C   0  0  0  0  0  0  0  0  0  0  0  0
    4.9928   -3.5123    0.4651 C   0  0  0  0  0  0  0  0  0  0  0  0
    3.6211    2.2993    0.9525 N   0  0  0  0  0  0  0  0  0  0  0  0
    4.4417    2.5963   -0.2233 C   0  0  0  0  0  0  0  0  0  0  0  0
    5.5517    3.1572    0.6121 C   0  0  0  0  0  0  0  0  0  0  0  0
    4.6961    2.7737    1.7849 C   0  0  0  0  0  0  0  0  0  0  0  0
    5.7445    4.5161    0.4966 F   0  0  0  0  0  0  0  0  0  0  0  0
    6.6985    2.3861    0.4724 F   0  0  0  0  0  0  0  0  0  0  0  0
   -4.2692   -0.0256    1.7080 H   0  0  0  0  0  0  0  0  0  0  0  0
   -3.7449   -1.7461    1.9459 H   0  0  0  0  0  0  0  0  0  0  0  0
   -2.9554   -3.0335    0.0929 H   0  0  0  0  0  0  0  0  0  0  0  0
   -3.2416   -2.4406   -1.6569 H   0  0  0  0  0  0  0  0  0  0  0  0
   -1.0851   -1.7337   -0.3964 H   0  0  0  0  0  0  0  0  0  0  0  0
   -1.3328    0.6740   -1.0947 H   0  0  0  0  0  0  0  0  0  0  0  0
   -1.6615   -0.5482   -2.3440 H   0  0  0  0  0  0  0  0  0  0  0  0
   -5.2435    0.5061   -0.4433 H   0  0  0  0  0  0  0  0  0  0  0  0
   -5.2387   -0.6080   -1.8026 H   0  0  0  0  0  0  0  0  0  0  0  0
   -4.6151    1.1031   -3.2913 H   0  0  0  0  0  0  0  0  0  0  0  0
   -3.5034   -0.3220   -3.6036 H   0  0  0  0  0  0  0  0  0  0  0  0
   -2.8411    1.3297   -3.4601 H   0  0  0  0  0  0  0  0  0  0  0  0
   -4.2682    2.1109   -0.3687 H   0  0  0  0  0  0  0  0  0  0  0  0
   -3.4562    2.6869   -1.8483 H   0  0  0  0  0  0  0  0  0  0  0  0
   -2.4449    2.1157   -0.5068 H   0  0  0  0  0  0  0  0  0  0  0  0
   -5.5424   -2.8254    0.9535 H   0  0  0  0  0  0  0  0  0  0  0  0
   -6.4177   -1.3781    0.2839 H   0  0  0  0  0  0  0  0  0  0  0  0
   -5.7765   -2.7275   -0.7925 H   0  0  0  0  0  0  0  0  0  0  0  0
   -0.6908    2.6186    2.1080 H   0  0  0  0  0  0  0  0  0  0  0  0
    1.5117    3.5985    1.7963 H   0  0  0  0  0  0  0  0  0  0  0  0
    4.8758   -0.6109    0.4755 H   0  0  0  0  0  0  0  0  0  0  0  0
    3.9283   -0.6544   -1.1334 H   0  0  0  0  0  0  0  0  0  0  0  0
    5.5366   -2.0621   -1.0664 H   0  0  0  0  0  0  0  0  0  0  0  0
    3.1190   -4.0459   -0.5426 H   0  0  0  0  0  0  0  0  0  0  0  0
    4.6373   -4.2646   -1.6078 H   0  0  0  0  0  0  0  0  0  0  0  0
    4.5252   -3.4450    1.4693 H   0  0  0  0  0  0  0  0  0  0  0  0
    6.0095   -3.9010    0.4930 H   0  0  0  0  0  0  0  0  0  0  0  0
    4.7153    1.6418   -0.7268 H   0  0  0  0  0  0  0  0  0  0  0  0
    3.9699    3.3552   -0.8979 H   0  0  0  0  0  0  0  0  0  0  0  0
    5.2051    1.9749    2.3909 H   0  0  0  0  0  0  0  0  0  0  0  0
    4.4463    3.6619    2.4042 H   0  0  0  0  0  0  0  0  0  0  0  0
  1  2  2  0
  2  3  1  0
  3  4  1  0
  4  5  1  0
  5  6  1  0
  6  7  1  0
  7  8  1  0
  8  9  1  0
  9 10  1  0
  9 11  1  0
  9 12  1  0
  5 13  1  1
  2 14  1  0
 14 15  2  0
 15 16  1  0
 16 17  2  0
 17 18  1  0
 18 19  2  0
 18 20  1  0
 20 21  1  0
 21 22  1  0
 22 23  1  0
 23 24  1  0
 17 25  1  0
 25 26  1  0
 26 27  1  0
 27 28  1  0
 27 29  1  0
 27 30  1  0
  7  3  1  0
 19 14  1  0
 24 22  1  0
 28 25  1  0
 10  5  1  0
  4 31  1  0
  4 32  1  0
  6 33  1  0
  6 34  1  0
  7 35  1  1
  8 36  1  0
  8 37  1  0
 10 38  1  0
 10 39  1  0
 11 40  1  0
 11 41  1  0
 11 42  1  0
 12 43  1  0
 12 44  1  0
 12 45  1  0
 13 46  1  0
 13 47  1  0
 13 48  1  0
 15 49  1  0
 16 50  1  0
 21 51  1  0
 21 52  1  0
 22 53  1  0
 23 54  1  0
 23 55  1  0
 24 56  1  0
 24 57  1  0
 26 58  1  0
 26 59  1  0
 28 60  1  0
 28 61  1  0
M  END
>  <Ligand ID>  (1) 
LIG0005143

>  <Ligand>  (1) 
SCHEMBL15790598

>  <SMILES>  (1) 
O=C(N1C[C@@]2(C[C@H]1CC(C2)(C)C)C)c1ccc(c(n1)OCC1CC1)N1CC(C1)(F)F

>  <CID>  (1) 
90215307.0

>  <ChEMBL ID>  (1) 
nan

>  <InChiKey>  (1) 
DMJFIKAISKBQHN-OPAMFIHVSA-N

>  <InChi>  (1) 
InChI=1S/C23H31F2N3O2/c1-21(2)8-16-9-22(3,11-21)12-28(16)20(29)17-6-7-18(27-13-23(24,25)14-27)19(26-17)30-10-15-4-5-15/h6-7,15-16H,4-5,8-14H2,1-3H3/t16-,22-/m1/s1

>  <IUPAC Name>  (1) 
[6-(cyclopropylmethoxy)-5-(3,3-difluoroazetidin-1-yl)pyridin-2-yl]-[(1S,5R)-1,3,3-trimethyl-6-azabicyclo[3.2.1]octan-6-yl]methanone

$$$$
