
     RDKit          3D

 95 98  0  0  0  0  0  0  0  0999 V2000
   -4.4166    3.0099   -2.2786 C   0  0  0  0  0  0  0  0  0  0  0  0
   -3.8447    2.7522   -0.9116 C   0  0  0  0  0  0  0  0  0  0  0  0
   -3.1213    3.6003   -0.3695 O   0  0  0  0  0  0  0  0  0  0  0  0
   -4.1965    1.4981   -0.3234 N   0  0  0  0  0  0  0  0  0  0  0  0
   -3.6914    1.1919    0.9656 C   0  0  2  0  0  0  0  0  0  0  0  0
   -2.5445    0.2089    0.7371 C   0  0  0  0  0  0  0  0  0  0  0  0
   -2.0010   -0.1807    1.8014 O   0  0  0  0  0  0  0  0  0  0  0  0
   -2.1645   -0.1957   -0.5561 N   0  0  0  0  0  0  0  0  0  0  0  0
   -1.1354   -1.1020   -0.9290 C   0  0  1  0  0  0  0  0  0  0  0  0
    0.2130   -0.4991   -0.9614 C   0  0  0  0  0  0  0  0  0  0  0  0
    0.2947    0.6690   -0.4297 O   0  0  0  0  0  0  0  0  0  0  0  0
    1.3612   -1.0835   -1.5065 N   0  0  0  0  0  0  0  0  0  0  0  0
    1.3988   -2.3443   -2.2316 C   0  0  0  0  0  0  0  0  0  0  0  0
    2.3716   -3.2251   -1.5368 C   0  0  0  0  0  0  0  0  0  0  0  0
    2.0728   -4.4908   -1.0895 C   0  0  0  0  0  0  0  0  0  0  0  0
    3.0898   -5.1915   -0.4634 C   0  0  0  0  0  0  0  0  0  0  0  0
    4.3550   -4.6312   -0.2992 C   0  0  0  0  0  0  0  0  0  0  0  0
    4.6464   -3.3492   -0.7560 C   0  0  0  0  0  0  0  0  0  0  0  0
    3.6509   -2.6629   -1.3688 C   0  0  0  0  0  0  0  0  0  0  0  0
    3.7861   -1.2792   -1.9140 C   0  0  0  0  0  0  0  0  0  0  0  0
    2.6624   -0.4235   -1.3380 C   0  0  0  0  0  0  0  0  0  0  0  0
    2.9432   -0.0748    0.0714 C   0  0  0  0  0  0  0  0  0  0  0  0
    2.1643   -0.3372    1.0313 O   0  0  0  0  0  0  0  0  0  0  0  0
    4.1461    0.5900    0.3862 N   0  0  0  0  0  0  0  0  0  0  0  0
    4.4358    0.9439    1.7860 C   0  0  1  0  0  0  0  0  0  0  0  0
    5.6484    0.1522    2.1337 C   0  0  0  0  0  0  0  0  0  0  0  0
    6.1264   -0.5620    1.1866 O   0  0  0  0  0  0  0  0  0  0  0  0
    6.2469    0.1748    3.4232 N   0  0  0  0  0  0  0  0  0  0  0  0
    4.7701    2.3982    1.9160 C   0  0  0  0  0  0  0  0  0  0  0  0
    5.9419    2.8344    1.1404 C   0  0  0  0  0  0  0  0  0  0  0  0
    7.2322    2.8621    1.6173 C   0  0  0  0  0  0  0  0  0  0  0  0
    8.3178    3.2708    0.8718 C   0  0  0  0  0  0  0  0  0  0  0  0
    8.1369    3.6825   -0.4315 C   0  0  0  0  0  0  0  0  0  0  0  0
    6.8632    3.6704   -0.9477 C   0  0  0  0  0  0  0  0  0  0  0  0
    5.7774    3.2556   -0.1840 C   0  0  0  0  0  0  0  0  0  0  0  0
    9.2463    4.1072   -1.2125 N   0  0  0  0  0  0  0  0  0  0  0  0
   10.3869    4.1027   -0.7084 O   0  0  0  0  0  0  0  0  0  0  0  0
    9.0336    4.5134   -2.5077 O   0  0  0  0  0  0  0  0  0  0  0  0
   -1.1337   -2.3941   -0.1050 C   0  0  0  0  0  0  0  0  0  0  0  0
   -2.3917   -3.1631   -0.2543 C   0  0  0  0  0  0  0  0  0  0  0  0
   -3.4767   -3.0735    0.5527 C   0  0  0  0  0  0  0  0  0  0  0  0
   -4.6241   -3.8295    0.3360 C   0  0  0  0  0  0  0  0  0  0  0  0
   -4.6935   -4.7106   -0.7272 C   0  0  0  0  0  0  0  0  0  0  0  0
   -3.5818   -4.8084   -1.5613 C   0  0  0  0  0  0  0  0  0  0  0  0
   -2.4527   -4.0441   -1.3227 C   0  0  0  0  0  0  0  0  0  0  0  0
   -6.4044   -5.8841   -1.1066 I   0  0  0  0  0  0  0  0  0  0  0  0
   -4.7167    0.5058    1.8116 C   0  0  0  0  0  0  0  0  0  0  0  0
   -5.9738    1.2312    2.0958 C   0  0  0  0  0  0  0  0  0  0  0  0
   -6.8267    1.5946    0.9237 C   0  0  0  0  0  0  0  0  0  0  0  0
   -8.0120    2.2863    1.4704 N   0  0  0  0  0  0  0  0  0  0  0  0
   -8.9545    2.5068    0.5927 C   0  0  0  0  0  0  0  0  0  0  0  0
   -8.6927    2.0520   -0.7332 N   0  0  0  0  0  0  0  0  0  0  0  0
  -10.1693    3.1648    0.9545 N   0  0  0  0  0  0  0  0  0  0  0  0
   -5.4070    3.4647   -2.1437 H   0  0  0  0  0  0  0  0  0  0  0  0
   -4.5281    2.0422   -2.8073 H   0  0  0  0  0  0  0  0  0  0  0  0
   -3.7063    3.6347   -2.8539 H   0  0  0  0  0  0  0  0  0  0  0  0
   -4.8062    0.8046   -0.8055 H   0  0  0  0  0  0  0  0  0  0  0  0
   -3.2044    2.0613    1.4707 H   0  0  0  0  0  0  0  0  0  0  0  0
   -2.7293    0.2438   -1.3525 H   0  0  0  0  0  0  0  0  0  0  0  0
   -1.3660   -1.4839   -1.9625 H   0  0  0  0  0  0  0  0  0  0  0  0
    1.8665   -2.1768   -3.2528 H   0  0  0  0  0  0  0  0  0  0  0  0
    0.4547   -2.8380   -2.3853 H   0  0  0  0  0  0  0  0  0  0  0  0
    1.0840   -4.8669   -1.2450 H   0  0  0  0  0  0  0  0  0  0  0  0
    2.8475   -6.1835   -0.1149 H   0  0  0  0  0  0  0  0  0  0  0  0
    5.1478   -5.1924    0.1946 H   0  0  0  0  0  0  0  0  0  0  0  0
    5.6147   -2.8901   -0.6432 H   0  0  0  0  0  0  0  0  0  0  0  0
    3.8077   -1.2889   -3.0066 H   0  0  0  0  0  0  0  0  0  0  0  0
    4.7395   -0.8596   -1.5402 H   0  0  0  0  0  0  0  0  0  0  0  0
    2.6290    0.5063   -1.9263 H   0  0  0  0  0  0  0  0  0  0  0  0
    4.8165    0.8220   -0.3804 H   0  0  0  0  0  0  0  0  0  0  0  0
    3.5701    0.6594    2.3940 H   0  0  0  0  0  0  0  0  0  0  0  0
    6.2074    1.0170    4.0248 H   0  0  0  0  0  0  0  0  0  0  0  0
    6.7402   -0.7066    3.7527 H   0  0  0  0  0  0  0  0  0  0  0  0
    3.9219    3.0658    1.6884 H   0  0  0  0  0  0  0  0  0  0  0  0
    5.0174    2.5630    2.9966 H   0  0  0  0  0  0  0  0  0  0  0  0
    7.4293    2.5549    2.6289 H   0  0  0  0  0  0  0  0  0  0  0  0
    9.3183    3.2614    1.3336 H   0  0  0  0  0  0  0  0  0  0  0  0
    6.7534    3.9992   -1.9737 H   0  0  0  0  0  0  0  0  0  0  0  0
    4.8088    3.2753   -0.6632 H   0  0  0  0  0  0  0  0  0  0  0  0
   -1.1397   -2.0582    0.9762 H   0  0  0  0  0  0  0  0  0  0  0  0
   -0.2204   -2.9765   -0.2005 H   0  0  0  0  0  0  0  0  0  0  0  0
   -3.4879   -2.4202    1.3922 H   0  0  0  0  0  0  0  0  0  0  0  0
   -5.4769   -3.7257    1.0129 H   0  0  0  0  0  0  0  0  0  0  0  0
   -3.6113   -5.4939   -2.4044 H   0  0  0  0  0  0  0  0  0  0  0  0
   -1.5932   -4.1468   -2.0016 H   0  0  0  0  0  0  0  0  0  0  0  0
   -4.2856    0.1387    2.7787 H   0  0  0  0  0  0  0  0  0  0  0  0
   -5.0239   -0.4621    1.2939 H   0  0  0  0  0  0  0  0  0  0  0  0
   -5.7804    2.1718    2.6981 H   0  0  0  0  0  0  0  0  0  0  0  0
   -6.6016    0.5913    2.7682 H   0  0  0  0  0  0  0  0  0  0  0  0
   -6.3703    2.3001    0.2141 H   0  0  0  0  0  0  0  0  0  0  0  0
   -7.2018    0.6841    0.4161 H   0  0  0  0  0  0  0  0  0  0  0  0
   -8.0140    2.6400   -1.2991 H   0  0  0  0  0  0  0  0  0  0  0  0
   -9.1123    1.2116   -1.1581 H   0  0  0  0  0  0  0  0  0  0  0  0
  -10.7607    2.7048    1.7030 H   0  0  0  0  0  0  0  0  0  0  0  0
  -10.4472    4.0626    0.4894 H   0  0  0  0  0  0  0  0  0  0  0  0
  1  2  1  0
  2  3  2  0
  2  4  1  0
  4  5  1  0
  5  6  1  0
  6  7  2  0
  6  8  1  0
  8  9  1  0
  9 10  1  0
 10 11  2  0
 10 12  1  0
 12 13  1  0
 13 14  1  0
 14 15  2  0
 15 16  1  0
 16 17  2  0
 17 18  1  0
 18 19  2  0
 19 20  1  0
 20 21  1  0
 21 22  1  0
 22 23  2  0
 22 24  1  0
 24 25  1  0
 25 26  1  0
 26 27  2  0
 26 28  1  0
 25 29  1  0
 29 30  1  0
 30 31  2  0
 31 32  1  0
 32 33  2  0
 33 34  1  0
 34 35  2  0
 33 36  1  0
 36 37  2  0
 36 38  1  0
  9 39  1  0
 39 40  1  0
 40 41  2  0
 41 42  1  0
 42 43  2  0
 43 44  1  0
 44 45  2  0
 43 46  1  0
  5 47  1  0
 47 48  1  0
 48 49  1  0
 49 50  1  0
 50 51  2  3
 51 52  1  0
 51 53  1  0
 21 12  1  0
 35 30  1  0
 45 40  1  0
 19 14  1  0
  1 54  1  0
  1 55  1  0
  1 56  1  0
  4 57  1  0
  5 58  1  1
  8 59  1  0
  9 60  1  6
 13 61  1  0
 13 62  1  0
 15 63  1  0
 16 64  1  0
 17 65  1  0
 18 66  1  0
 20 67  1  0
 20 68  1  0
 21 69  1  0
 24 70  1  0
 25 71  1  1
 28 72  1  0
 28 73  1  0
 29 74  1  0
 29 75  1  0
 31 76  1  0
 32 77  1  0
 34 78  1  0
 35 79  1  0
 39 80  1  0
 39 81  1  0
 41 82  1  0
 42 83  1  0
 44 84  1  0
 45 85  1  0
 47 86  1  0
 47 87  1  0
 48 88  1  0
 48 89  1  0
 49 90  1  0
 49 91  1  0
 52 92  1  0
 52 93  1  0
 53 94  1  0
 53 95  1  0
M  CHG  2  36   1  38  -1
M  END
>  <Ligand ID>  (1) 
LIG0000892

>  <Ligand>  (1) 
CHEMBL3287324

>  <SMILES>  (1) 
CC(=O)N[C@H](C(=O)N[C@@H](C(=O)N1Cc2ccccc2CC1C(=O)N[C@@H](C(=O)N)Cc1ccc(cc1)[N+](=O)[O-])Cc1ccc(cc1)I)CCCN=C(N)N

>  <CID>  (1) 
90643804.0

>  <ChEMBL ID>  (1) 
nan

>  <InChiKey>  (1) 
LVZVUZUDRDMDPR-LVCGBWMPSA-N

>  <InChi>  (1) 
InChI=1S/C36H42IN9O7/c1-21(47)42-28(7-4-16-41-36(39)40)33(49)44-30(18-22-8-12-26(37)13-9-22)35(51)45-20-25-6-3-2-5-24(25)19-31(45)34(50)43-29(32(38)48)17-23-10-14-27(15-11-23)46(52)53/h2-3,5-6,8-15,28-31H,4,7,16-20H2,1H3,(H2,38,48)(H,42,47)(H,43,50)(H,44,49)(H4,39,40,41)/t28-,29+,30+,31?/m0/s1

>  <IUPAC Name>  (1) 
2-[(2R)-2-[[(2S)-2-acetamido-5-(diaminomethylideneamino)pentanoyl]amino]-3-(4-iodophenyl)propanoyl]-N-[(2R)-1-amino-3-(4-nitrophenyl)-1-oxopropan-2-yl]-3,4-dihydro-1H-isoquinoline-3-carboxamide

$$$$
