
     RDKit          3D

 57 61  0  0  0  0  0  0  0  0999 V2000
   -5.8806    0.8365   -4.8627 Cl  0  0  0  0  0  0  0  0  0  0  0  0
   -4.8923    0.6675   -3.4251 C   0  0  0  0  0  0  0  0  0  0  0  0
   -5.4208    0.1272   -2.2618 C   0  0  0  0  0  0  0  0  0  0  0  0
   -4.6133    0.0032   -1.1301 C   0  0  0  0  0  0  0  0  0  0  0  0
   -3.3034    0.4299   -1.2180 C   0  0  0  0  0  0  0  0  0  0  0  0
   -2.7927    0.9693   -2.3954 C   0  0  0  0  0  0  0  0  0  0  0  0
   -3.5857    1.0916   -3.5082 C   0  0  0  0  0  0  0  0  0  0  0  0
   -2.3652    0.3296   -0.0384 C   0  0  0  0  0  0  0  0  0  0  0  0
   -1.6494   -0.9443   -0.0345 C   0  0  0  0  0  0  0  0  0  0  0  0
   -2.3246   -2.1599   -0.0710 C   0  0  0  0  0  0  0  0  0  0  0  0
   -1.6742   -3.3741   -0.0562 C   0  0  0  0  0  0  0  0  0  0  0  0
   -0.2976   -3.3814   -0.0034 C   0  0  0  0  0  0  0  0  0  0  0  0
    0.4230   -2.2115    0.0340 C   0  0  0  0  0  0  0  0  0  0  0  0
   -0.2519   -1.0133    0.0183 C   0  0  0  0  0  0  0  0  0  0  0  0
    1.7991   -2.2144    0.0868 C   0  0  0  0  0  0  0  0  0  0  0  0
    2.4015   -3.4180    0.0998 N   0  0  0  0  0  0  0  0  0  0  0  0
    1.7053   -4.5665    0.0635 C   0  0  0  0  0  0  0  0  0  0  0  0
    0.3516   -4.5526    0.0117 N   0  0  0  0  0  0  0  0  0  0  0  0
    2.5885   -1.0339    0.1270 N   0  0  0  0  0  0  0  0  0  0  0  0
    4.0512   -1.1692    0.1821 C   0  0  0  0  0  0  0  0  0  0  0  0
    4.7169    0.1543    0.2189 C   0  0  0  0  0  0  0  0  0  0  0  0
    5.0176    0.8299    1.3752 C   0  0  0  0  0  0  0  0  0  0  0  0
    5.6474    2.0768    1.3404 C   0  0  0  0  0  0  0  0  0  0  0  0
    5.9597    2.6119    0.1038 C   0  0  0  0  0  0  0  0  0  0  0  0
    5.6681    1.9531   -1.0724 C   0  0  0  0  0  0  0  0  0  0  0  0
    5.0462    0.7241   -1.0039 C   0  0  0  0  0  0  0  0  0  0  0  0
    5.9855    2.4911   -2.4145 C   0  0  0  0  0  0  0  0  0  0  0  0
    6.4071    3.8062   -2.3473 F   0  0  0  0  0  0  0  0  0  0  0  0
    7.0357    1.7657   -2.9641 F   0  0  0  0  0  0  0  0  0  0  0  0
    4.9180    2.4436   -3.2842 F   0  0  0  0  0  0  0  0  0  0  0  0
   -3.0599    0.6421    1.2190 C   0  0  0  0  0  0  0  0  0  0  0  0
   -3.3478    1.9823    1.4843 C   0  0  0  0  0  0  0  0  0  0  0  0
   -3.9952    2.3639    2.6546 C   0  0  0  0  0  0  0  0  0  0  0  0
   -4.3756    1.4167    3.5975 C   0  0  0  0  0  0  0  0  0  0  0  0
   -4.0976    0.1076    3.3448 C   0  0  0  0  0  0  0  0  0  0  0  0
   -3.4494   -0.2617    2.1707 C   0  0  0  0  0  0  0  0  0  0  0  0
   -5.1925    1.8588    5.0824 Cl  0  0  0  0  0  0  0  0  0  0  0  0
   -6.4530   -0.1983   -2.2253 H   0  0  0  0  0  0  0  0  0  0  0  0
   -5.0030   -0.4153   -0.2102 H   0  0  0  0  0  0  0  0  0  0  0  0
   -1.7563    1.2882   -2.4076 H   0  0  0  0  0  0  0  0  0  0  0  0
   -3.1704    1.5142   -4.4164 H   0  0  0  0  0  0  0  0  0  0  0  0
   -1.5714    1.1343   -0.1626 H   0  0  0  0  0  0  0  0  0  0  0  0
   -3.4168   -2.2131   -0.1237 H   0  0  0  0  0  0  0  0  0  0  0  0
   -2.1803   -4.3268   -0.0835 H   0  0  0  0  0  0  0  0  0  0  0  0
    0.2532   -0.0754    0.0456 H   0  0  0  0  0  0  0  0  0  0  0  0
    2.2090   -5.5413    0.0747 H   0  0  0  0  0  0  0  0  0  0  0  0
    2.2314   -0.0711    0.1212 H   0  0  0  0  0  0  0  0  0  0  0  0
    4.4275   -1.7560   -0.6830 H   0  0  0  0  0  0  0  0  0  0  0  0
    4.3405   -1.6850    1.1400 H   0  0  0  0  0  0  0  0  0  0  0  0
    4.7492    0.3624    2.3248 H   0  0  0  0  0  0  0  0  0  0  0  0
    5.8801    2.6012    2.2578 H   0  0  0  0  0  0  0  0  0  0  0  0
    6.4512    3.5809    0.0154 H   0  0  0  0  0  0  0  0  0  0  0  0
    4.8099    0.1916   -1.9328 H   0  0  0  0  0  0  0  0  0  0  0  0
   -3.0817    2.7733    0.7966 H   0  0  0  0  0  0  0  0  0  0  0  0
   -4.2262    3.4051    2.8748 H   0  0  0  0  0  0  0  0  0  0  0  0
   -4.3894   -0.6382    4.0724 H   0  0  0  0  0  0  0  0  0  0  0  0
   -3.2563   -1.3125    2.0389 H   0  0  0  0  0  0  0  0  0  0  0  0
  1  2  1  0
  2  3  2  0
  3  4  1  0
  4  5  2  0
  5  6  1  0
  6  7  2  0
  5  8  1  0
  8  9  1  0
  9 10  2  0
 10 11  1  0
 11 12  2  0
 12 13  1  0
 13 14  2  0
 13 15  1  0
 15 16  2  0
 16 17  1  0
 17 18  2  0
 15 19  1  0
 19 20  1  0
 20 21  1  0
 21 22  2  0
 22 23  1  0
 23 24  2  0
 24 25  1  0
 25 26  2  0
 25 27  1  0
 27 28  1  0
 27 29  1  0
 27 30  1  0
  8 31  1  0
 31 32  2  0
 32 33  1  0
 33 34  2  0
 34 35  1  0
 35 36  2  0
 34 37  1  0
  7  2  1  0
 14  9  1  0
 26 21  1  0
 36 31  1  0
 18 12  1  0
  3 38  1  0
  4 39  1  0
  6 40  1  0
  7 41  1  0
  8 42  1  0
 10 43  1  0
 11 44  1  0
 14 45  1  0
 17 46  1  0
 19 47  1  0
 20 48  1  0
 20 49  1  0
 22 50  1  0
 23 51  1  0
 24 52  1  0
 26 53  1  0
 32 54  1  0
 33 55  1  0
 35 56  1  0
 36 57  1  0
M  END
>  <Ligand ID>  (1) 
LIG0005813

>  <Ligand>  (1) 
SCHEMBL17557541

>  <SMILES>  (1) 
Clc1ccc(cc1)C(c1ccc2c(c1)c(ncn2)NCc1cccc(c1)C(F)(F)F)c1ccc(cc1)Cl

>  <CID>  (1) 
118916027.0

>  <ChEMBL ID>  (1) 
nan

>  <InChiKey>  (1) 
JWYGNPDEMSPNOL-UHFFFAOYSA-N

>  <InChi>  (1) 
InChI=1S/C29H20Cl2F3N3/c30-23-9-4-19(5-10-23)27(20-6-11-24(31)12-7-20)21-8-13-26-25(15-21)28(37-17-36-26)35-16-18-2-1-3-22(14-18)29(32,33)34/h1-15,17,27H,16H2,(H,35,36,37)

>  <IUPAC Name>  (1) 
6-[bis(4-chlorophenyl)methyl]-N-[[3-(trifluoromethyl)phenyl]methyl]quinazolin-4-amine

$$$$
