
     RDKit          3D

 37 38  0  0  0  0  0  0  0  0999 V2000
    4.1694    0.8283   -0.2380 C   0  0  0  0  0  0  0  0  0  0  0  0
    3.8431   -0.3583   -1.1660 C   0  0  0  0  0  0  0  0  0  0  0  0
    2.5378   -0.9693   -0.7443 C   0  0  0  0  0  0  0  0  0  0  0  0
    2.4530   -2.1111   -0.2349 O   0  0  0  0  0  0  0  0  0  0  0  0
    1.4172   -0.1470   -0.9702 O   0  0  0  0  0  0  0  0  0  0  0  0
    0.1468   -0.5731   -0.6271 C   0  0  0  0  0  0  0  0  0  0  0  0
   -0.9109   -0.4889   -1.6643 C   0  0  0  0  0  0  0  0  0  0  0  0
   -2.1627    0.0035   -0.9505 C   0  0  0  0  0  0  0  0  0  0  0  0
   -1.8360   -0.3681    0.4862 C   0  0  0  0  0  0  0  0  0  0  0  0
   -0.4730    0.2907    0.4839 C   0  0  0  0  0  0  0  0  0  0  0  0
    0.3007    0.2225    1.7256 C   0  0  0  0  0  0  0  0  0  0  0  0
   -0.7909    1.6606   -0.0330 C   0  0  0  0  0  0  0  0  0  0  0  0
   -2.0388    1.4993   -0.8919 C   0  0  0  0  0  0  0  0  0  0  0  0
   -1.7284   -1.8518    0.7072 C   0  0  0  0  0  0  0  0  0  0  0  0
   -2.7798    0.2142    1.4903 C   0  0  0  0  0  0  0  0  0  0  0  0
    3.8052    1.7114   -0.8115 H   0  0  0  0  0  0  0  0  0  0  0  0
    5.2536    0.8789   -0.0672 H   0  0  0  0  0  0  0  0  0  0  0  0
    3.5883    0.6563    0.6841 H   0  0  0  0  0  0  0  0  0  0  0  0
    4.6822   -1.0713   -1.0293 H   0  0  0  0  0  0  0  0  0  0  0  0
    3.7878   -0.0727   -2.2142 H   0  0  0  0  0  0  0  0  0  0  0  0
    0.1794   -1.6175   -0.2176 H   0  0  0  0  0  0  0  0  0  0  0  0
   -0.5951    0.3139   -2.3949 H   0  0  0  0  0  0  0  0  0  0  0  0
   -1.0589   -1.3906   -2.2586 H   0  0  0  0  0  0  0  0  0  0  0  0
   -3.0888   -0.4045   -1.3204 H   0  0  0  0  0  0  0  0  0  0  0  0
    1.1444    0.9376    1.6396 H   0  0  0  0  0  0  0  0  0  0  0  0
    0.7337   -0.7722    1.8619 H   0  0  0  0  0  0  0  0  0  0  0  0
   -0.2803    0.4763    2.6262 H   0  0  0  0  0  0  0  0  0  0  0  0
    0.0025    2.0719   -0.6809 H   0  0  0  0  0  0  0  0  0  0  0  0
   -1.0538    2.2989    0.8220 H   0  0  0  0  0  0  0  0  0  0  0  0
   -1.8680    1.8393   -1.9435 H   0  0  0  0  0  0  0  0  0  0  0  0
   -2.8960    2.0451   -0.5219 H   0  0  0  0  0  0  0  0  0  0  0  0
   -2.6509   -2.1870    1.2699 H   0  0  0  0  0  0  0  0  0  0  0  0
   -0.8957   -2.1297    1.4095 H   0  0  0  0  0  0  0  0  0  0  0  0
   -1.6988   -2.3995   -0.2364 H   0  0  0  0  0  0  0  0  0  0  0  0
   -3.4634   -0.6121    1.8270 H   0  0  0  0  0  0  0  0  0  0  0  0
   -2.3188    0.5865    2.4090 H   0  0  0  0  0  0  0  0  0  0  0  0
   -3.4560    0.9894    1.1202 H   0  0  0  0  0  0  0  0  0  0  0  0
  1  2  1  0
  2  3  1  0
  3  4  2  0
  3  5  1  0
  5  6  1  0
  6  7  1  0
  7  8  1  0
  8  9  1  0
  9 10  1  0
 10 11  1  0
 10 12  1  0
 12 13  1  0
  9 14  1  0
  9 15  1  0
 10  6  1  0
 13  8  1  0
  1 16  1  0
  1 17  1  0
  1 18  1  0
  2 19  1  0
  2 20  1  0
  6 21  1  0
  7 22  1  0
  7 23  1  0
  8 24  1  0
 11 25  1  0
 11 26  1  0
 11 27  1  0
 12 28  1  0
 12 29  1  0
 13 30  1  0
 13 31  1  0
 14 32  1  0
 14 33  1  0
 14 34  1  0
 15 35  1  0
 15 36  1  0
 15 37  1  0
M  END
>  <Ligand ID>  (1) 
LIG0001037

>  <Ligand>  (1) 
Borneol propionate

>  <SMILES>  (1) 
CCC(=O)OC1CC2C(C1(C)CC2)(C)C

>  <CID>  (1) 
89306.0

>  <ChEMBL ID>  (1) 
nan

>  <InChiKey>  (1) 
FAFMZORPAAGQFV-UHFFFAOYSA-N

>  <InChi>  (1) 
InChI=1S/C13H22O2/c1-5-11(14)15-10-8-9-6-7-13(10,4)12(9,2)3/h9-10H,5-8H2,1-4H3

>  <IUPAC Name>  (1) 
(1,7,7-trimethyl-2-bicyclo[2.2.1]heptanyl) propanoate

$$$$
