
     RDKit          3D

 33 35  0  0  0  0  0  0  0  0999 V2000
    4.0054   -1.7143   -1.1280 C   0  0  0  0  0  0  0  0  0  0  0  0
    3.9038   -0.4447   -0.5499 O   0  0  0  0  0  0  0  0  0  0  0  0
    2.6487    0.0009   -0.1461 C   0  0  0  0  0  0  0  0  0  0  0  0
    1.5016   -0.7523   -0.2901 C   0  0  0  0  0  0  0  0  0  0  0  0
    0.3028   -0.2364    0.1355 C   0  0  0  0  0  0  0  0  0  0  0  0
   -1.0460   -0.8181    0.1020 C   0  0  2  0  0  0  0  0  0  0  0  0
   -1.4486   -1.1504   -1.2988 C   0  0  0  0  0  0  0  0  0  0  0  0
   -2.8400   -0.7917   -1.5116 N   0  0  0  0  0  0  0  0  0  0  0  0
   -3.6800   -1.0994   -0.3720 C   0  0  0  0  0  0  0  0  0  0  0  0
   -3.3326   -0.1553    0.7633 C   0  0  0  0  0  0  0  0  0  0  0  0
   -1.9158    0.1932    0.6886 N   0  0  0  0  0  0  0  0  0  0  0  0
   -1.1530    1.3341    1.0684 C   0  0  0  0  0  0  0  0  0  0  0  0
   -1.6249    2.3709    1.6042 O   0  0  0  0  0  0  0  0  0  0  0  0
    0.2324    1.0298    0.7069 C   0  0  0  0  0  0  0  0  0  0  0  0
    1.4046    1.7810    0.8460 C   0  0  0  0  0  0  0  0  0  0  0  0
    2.6071    1.2676    0.4209 C   0  0  0  0  0  0  0  0  0  0  0  0
    1.3583    3.1362    1.4529 C   0  0  0  0  0  0  0  0  0  0  0  0
    2.6298    3.6833    1.4854 F   0  0  0  0  0  0  0  0  0  0  0  0
    0.5353    3.9973    0.7445 F   0  0  0  0  0  0  0  0  0  0  0  0
    0.8625    3.0142    2.7434 F   0  0  0  0  0  0  0  0  0  0  0  0
    3.5568   -1.7207   -2.1432 H   0  0  0  0  0  0  0  0  0  0  0  0
    3.4907   -2.4523   -0.4632 H   0  0  0  0  0  0  0  0  0  0  0  0
    5.0796   -1.9952   -1.1477 H   0  0  0  0  0  0  0  0  0  0  0  0
    1.5804   -1.7274   -0.7343 H   0  0  0  0  0  0  0  0  0  0  0  0
   -1.0587   -1.7175    0.7710 H   0  0  0  0  0  0  0  0  0  0  0  0
   -0.8487   -0.5638   -2.0230 H   0  0  0  0  0  0  0  0  0  0  0  0
   -1.2597   -2.2234   -1.5081 H   0  0  0  0  0  0  0  0  0  0  0  0
   -3.1824   -1.1948   -2.4026 H   0  0  0  0  0  0  0  0  0  0  0  0
   -4.7290   -0.9042   -0.7323 H   0  0  0  0  0  0  0  0  0  0  0  0
   -3.5938   -2.1388   -0.0349 H   0  0  0  0  0  0  0  0  0  0  0  0
   -3.9755    0.7451    0.6670 H   0  0  0  0  0  0  0  0  0  0  0  0
   -3.5012   -0.6293    1.7415 H   0  0  0  0  0  0  0  0  0  0  0  0
    3.4904    1.8762    0.5445 H   0  0  0  0  0  0  0  0  0  0  0  0
  1  2  1  0
  2  3  1  0
  3  4  2  0
  4  5  1  0
  5  6  1  0
  6  7  1  0
  7  8  1  0
  8  9  1  0
  9 10  1  0
 10 11  1  0
 11 12  1  0
 12 13  2  0
 12 14  1  0
 14 15  1  0
 15 16  2  0
 15 17  1  0
 17 18  1  0
 17 19  1  0
 17 20  1  0
 16  3  1  0
 14  5  2  0
 11  6  1  0
  1 21  1  0
  1 22  1  0
  1 23  1  0
  4 24  1  0
  6 25  1  1
  7 26  1  0
  7 27  1  0
  8 28  1  0
  9 29  1  0
  9 30  1  0
 10 31  1  0
 10 32  1  0
 16 33  1  0
M  END
>  <Ligand ID>  (1) 
LIG0004790

>  <Ligand>  (1) 
CHEMBL220211

>  <SMILES>  (1) 
COc1cc2[C@@H]3CNCCN3C(=O)c2c(c1)C(F)(F)F

>  <CID>  (1) 
16115652.0

>  <ChEMBL ID>  (1) 
nan

>  <InChiKey>  (1) 
JCBSTVSERURFTA-JTQLQIEISA-N

>  <InChi>  (1) 
InChI=1S/C13H13F3N2O2/c1-20-7-4-8-10-6-17-2-3-18(10)12(19)11(8)9(5-7)13(14,15)16/h4-5,10,17H,2-3,6H2,1H3/t10-/m0/s1

>  <IUPAC Name>  (1) 
(10bR)-9-methoxy-7-(trifluoromethyl)-2,3,4,10b-tetrahydro-1H-pyrazino[1,2-b]isoindol-6-one

$$$$
