
     RDKit          3D

 49 51  0  0  0  0  0  0  0  0999 V2000
   -8.5180    0.3027    0.2090 C   0  0  0  0  0  0  0  0  0  0  0  0
   -7.4404    0.2611    1.1205 O   0  0  0  0  0  0  0  0  0  0  0  0
   -6.1225    0.0941    0.7359 C   0  0  0  0  0  0  0  0  0  0  0  0
   -5.7837   -0.0437   -0.5904 C   0  0  0  0  0  0  0  0  0  0  0  0
   -4.4553   -0.2070   -0.9143 C   0  0  0  0  0  0  0  0  0  0  0  0
   -3.4522   -0.2359    0.0629 C   0  0  0  0  0  0  0  0  0  0  0  0
   -3.8165   -0.0949    1.3961 C   0  0  0  0  0  0  0  0  0  0  0  0
   -5.1655    0.0717    1.7352 C   0  0  0  0  0  0  0  0  0  0  0  0
   -2.1031   -0.4095   -0.3933 C   0  0  0  0  0  0  0  0  0  0  0  0
   -1.2728    0.6650   -0.7169 C   0  0  0  0  0  0  0  0  0  0  0  0
   -1.8134    2.0080   -0.5781 C   0  0  0  0  0  0  0  0  0  0  0  0
   -2.2545    3.0756   -0.4846 N   0  0  0  0  0  0  0  0  0  0  0  0
    0.0202    0.4728   -1.1552 C   0  0  0  0  0  0  0  0  0  0  0  0
    1.0157    1.8983   -1.5455 S   0  0  0  0  0  0  0  0  0  0  0  0
    1.9087    2.4544   -0.0817 C   0  0  0  0  0  0  0  0  0  0  0  0
    2.9019    1.4110    0.3087 C   0  0  0  0  0  0  0  0  0  0  0  0
    2.6136    0.3899    1.1842 C   0  0  0  0  0  0  0  0  0  0  0  0
    3.5727   -0.5589    1.5130 C   0  0  0  0  0  0  0  0  0  0  0  0
    4.7968   -0.4468    0.9458 N   0  0  0  0  0  0  0  0  0  0  0  0
    5.0953    0.5428    0.0896 C   0  0  0  0  0  0  0  0  0  0  0  0
    4.1670    1.5091   -0.2643 C   0  0  0  0  0  0  0  0  0  0  0  0
    6.4271    0.6444   -0.5159 C   0  0  0  0  0  0  0  0  0  0  0  0
    6.7216    1.5808   -1.3297 O   0  0  0  0  0  0  0  0  0  0  0  0
    7.4626   -0.2881   -0.2344 N   0  0  0  0  0  0  0  0  0  0  0  0
    8.7862   -0.2074   -0.8216 C   0  0  0  0  0  0  0  0  0  0  0  0
    0.5014   -0.7813   -1.2769 N   0  0  0  0  0  0  0  0  0  0  0  0
   -0.2505   -1.8449   -0.9806 C   0  0  0  0  0  0  0  0  0  0  0  0
   -1.5566   -1.6705   -0.5370 C   0  0  0  0  0  0  0  0  0  0  0  0
   -2.3905   -2.8179   -0.2097 C   0  0  0  0  0  0  0  0  0  0  0  0
   -3.0683   -3.7195    0.0583 N   0  0  0  0  0  0  0  0  0  0  0  0
    0.2950   -3.1698   -1.1221 N   0  0  0  0  0  0  0  0  0  0  0  0
   -9.4600    0.3142    0.7538 H   0  0  0  0  0  0  0  0  0  0  0  0
   -8.3961   -0.5673   -0.4815 H   0  0  0  0  0  0  0  0  0  0  0  0
   -8.3633    1.2249   -0.4168 H   0  0  0  0  0  0  0  0  0  0  0  0
   -6.5160   -0.0279   -1.3696 H   0  0  0  0  0  0  0  0  0  0  0  0
   -4.1908   -0.3165   -1.9754 H   0  0  0  0  0  0  0  0  0  0  0  0
   -3.0385   -0.1172    2.1574 H   0  0  0  0  0  0  0  0  0  0  0  0
   -5.4490    0.1840    2.7933 H   0  0  0  0  0  0  0  0  0  0  0  0
    2.4181    3.4130   -0.2734 H   0  0  0  0  0  0  0  0  0  0  0  0
    1.2204    2.6256    0.7850 H   0  0  0  0  0  0  0  0  0  0  0  0
    1.6120    0.3658    1.5976 H   0  0  0  0  0  0  0  0  0  0  0  0
    3.3345   -1.3562    2.2013 H   0  0  0  0  0  0  0  0  0  0  0  0
    4.3986    2.3073   -0.9514 H   0  0  0  0  0  0  0  0  0  0  0  0
    7.2984   -1.0884    0.4259 H   0  0  0  0  0  0  0  0  0  0  0  0
    8.7200    0.5696   -1.6069 H   0  0  0  0  0  0  0  0  0  0  0  0
    9.5487    0.0470   -0.0628 H   0  0  0  0  0  0  0  0  0  0  0  0
    9.0265   -1.2074   -1.2517 H   0  0  0  0  0  0  0  0  0  0  0  0
    1.0034   -3.4412   -0.3993 H   0  0  0  0  0  0  0  0  0  0  0  0
    0.0112   -3.8150   -1.8834 H   0  0  0  0  0  0  0  0  0  0  0  0
  1  2  1  0
  2  3  1  0
  3  4  2  0
  4  5  1  0
  5  6  2  0
  6  7  1  0
  7  8  2  0
  6  9  1  0
  9 10  2  0
 10 11  1  0
 11 12  3  0
 10 13  1  0
 13 14  1  0
 14 15  1  0
 15 16  1  0
 16 17  2  0
 17 18  1  0
 18 19  2  0
 19 20  1  0
 20 21  2  0
 20 22  1  0
 22 23  2  0
 22 24  1  0
 24 25  1  0
 13 26  2  0
 26 27  1  0
 27 28  2  0
 28 29  1  0
 29 30  3  0
 27 31  1  0
  8  3  1  0
 28  9  1  0
 21 16  1  0
  1 32  1  0
  1 33  1  0
  1 34  1  0
  4 35  1  0
  5 36  1  0
  7 37  1  0
  8 38  1  0
 15 39  1  0
 15 40  1  0
 17 41  1  0
 18 42  1  0
 21 43  1  0
 24 44  1  0
 25 45  1  0
 25 46  1  0
 25 47  1  0
 31 48  1  0
 31 49  1  0
M  END
>  <Ligand ID>  (1) 
LIG0004664

>  <Ligand>  (1) 
SCHEMBL3376931

>  <SMILES>  (1) 
COc1ccc(cc1)c1c(C#N)c(SCc2ccnc(c2)C(=O)NC)nc(c1C#N)N

>  <CID>  (1) 
68619112.0

>  <ChEMBL ID>  (1) 
nan

>  <InChiKey>  (1) 
TZRCHVDHHHPQKY-UHFFFAOYSA-N

>  <InChi>  (1) 
InChI=1S/C22H18N6O2S/c1-26-21(29)18-9-13(7-8-27-18)12-31-22-17(11-24)19(16(10-23)20(25)28-22)14-3-5-15(30-2)6-4-14/h3-9H,12H2,1-2H3,(H2,25,28)(H,26,29)

>  <IUPAC Name>  (1) 
4-[[6-amino-3,5-dicyano-4-(4-methoxyphenyl)pyridin-2-yl]sulfanylmethyl]-N-methylpyridine-2-carboxamide

$$$$
