
     RDKit          3D

 74 80  0  0  0  0  0  0  0  0999 V2000
   -6.5400    5.2381    1.1201 C   0  0  0  0  0  0  0  0  0  0  0  0
   -5.6467    4.1132    0.7525 C   0  0  0  0  0  0  0  0  0  0  0  0
   -5.5099    2.9757    1.5289 C   0  0  0  0  0  0  0  0  0  0  0  0
   -4.6584    1.9301    1.1605 C   0  0  0  0  0  0  0  0  0  0  0  0
   -3.9146    1.9881    0.0028 C   0  0  0  0  0  0  0  0  0  0  0  0
   -4.0521    3.1372   -0.7856 C   0  0  0  0  0  0  0  0  0  0  0  0
   -4.8966    4.1603   -0.4094 C   0  0  0  0  0  0  0  0  0  0  0  0
   -3.3573    3.2855   -1.9455 F   0  0  0  0  0  0  0  0  0  0  0  0
   -2.9954    0.9415   -0.4232 C   0  0  0  0  0  0  0  0  0  0  0  0
   -1.6891    1.2811   -0.6359 N   0  0  0  0  0  0  0  0  0  0  0  0
   -0.7934    0.3591   -1.0504 C   0  0  0  0  0  0  0  0  0  0  0  0
   -1.1986   -0.9164   -1.2547 N   0  0  0  0  0  0  0  0  0  0  0  0
   -2.4771   -1.2668   -1.0519 C   0  0  0  0  0  0  0  0  0  0  0  0
   -3.4277   -0.3442   -0.6268 C   0  0  0  0  0  0  0  0  0  0  0  0
   -4.7954   -0.7978   -0.4581 C   0  0  0  0  0  0  0  0  0  0  0  0
   -5.7734   -0.1383   -1.2147 C   0  0  0  0  0  0  0  0  0  0  0  0
   -7.1135   -0.5243   -1.1533 C   0  0  0  0  0  0  0  0  0  0  0  0
   -7.4168   -1.5765   -0.3167 C   0  0  0  0  0  0  0  0  0  0  0  0
   -6.4385   -2.2334    0.4370 C   0  0  0  0  0  0  0  0  0  0  0  0
   -5.1326   -1.8442    0.3662 C   0  0  0  0  0  0  0  0  0  0  0  0
   -6.9189   -3.2796    1.2252 O   0  0  0  0  0  0  0  0  0  0  0  0
   -7.8625   -4.2049    0.6583 C   0  0  0  0  0  0  0  0  0  0  0  0
   -8.9887   -3.4605   -0.0168 C   0  0  0  0  0  0  0  0  0  0  0  0
   -8.7126   -2.0734   -0.1504 O   0  0  0  0  0  0  0  0  0  0  0  0
    0.5821    0.6631   -1.3637 C   0  0  0  0  0  0  0  0  0  0  0  0
    0.7560    1.3986   -2.4047 O   0  0  0  0  0  0  0  0  0  0  0  0
    1.7539    0.2748   -0.7003 N   0  0  0  0  0  0  0  0  0  0  0  0
    3.0036    0.7521   -1.3239 C   0  0  0  0  0  0  0  0  0  0  0  0
    3.9422   -0.4753   -1.4617 C   0  0  0  0  0  0  0  0  0  0  0  0
    4.3143   -0.6858   -0.0472 N   0  0  0  0  0  0  0  0  0  0  0  0
    3.2497   -0.9577    0.8599 C   0  0  0  0  0  0  0  0  0  0  0  0
    1.8908   -0.5014    0.4803 C   0  0  0  0  0  0  0  0  0  0  0  0
    5.6902   -0.5996    0.2538 C   0  0  0  0  0  0  0  0  0  0  0  0
    6.5486   -1.3301   -0.5711 C   0  0  0  0  0  0  0  0  0  0  0  0
    7.9022   -1.2345   -0.3364 C   0  0  0  0  0  0  0  0  0  0  0  0
    8.7494   -1.9665   -1.1551 C   0  0  0  0  0  0  0  0  0  0  0  0
   10.1284   -1.9273   -0.9793 C   0  0  0  0  0  0  0  0  0  0  0  0
   10.5766   -1.1171    0.0550 C   0  0  0  0  0  0  0  0  0  0  0  0
    9.7366   -0.3916    0.8670 C   0  0  0  0  0  0  0  0  0  0  0  0
    8.3866   -0.4352    0.6882 C   0  0  0  0  0  0  0  0  0  0  0  0
    7.5733    0.2933    1.5123 C   0  0  0  0  0  0  0  0  0  0  0  0
    6.1970    0.1780    1.2537 C   0  0  0  0  0  0  0  0  0  0  0  0
    7.9839    1.1761    2.5682 C   0  0  0  0  0  0  0  0  0  0  0  0
    7.0718    1.7634    3.2585 O   0  0  0  0  0  0  0  0  0  0  0  0
    9.2660    1.4978    2.9609 O   0  0  0  0  0  0  0  0  0  0  0  0
   -7.3891    5.2335    0.4082 H   0  0  0  0  0  0  0  0  0  0  0  0
   -6.0165    6.2086    0.9855 H   0  0  0  0  0  0  0  0  0  0  0  0
   -6.8590    5.0741    2.1682 H   0  0  0  0  0  0  0  0  0  0  0  0
   -6.0807    2.9013    2.4422 H   0  0  0  0  0  0  0  0  0  0  0  0
   -4.5881    1.0625    1.7984 H   0  0  0  0  0  0  0  0  0  0  0  0
   -5.0084    5.0547   -1.0187 H   0  0  0  0  0  0  0  0  0  0  0  0
   -2.7374   -2.3105   -1.2390 H   0  0  0  0  0  0  0  0  0  0  0  0
   -5.4982    0.6955   -1.8737 H   0  0  0  0  0  0  0  0  0  0  0  0
   -7.8887   -0.0505   -1.7114 H   0  0  0  0  0  0  0  0  0  0  0  0
   -4.3881   -2.3631    0.9530 H   0  0  0  0  0  0  0  0  0  0  0  0
   -8.2232   -4.8330    1.4822 H   0  0  0  0  0  0  0  0  0  0  0  0
   -7.3358   -4.8309   -0.0898 H   0  0  0  0  0  0  0  0  0  0  0  0
   -9.9252   -3.5470    0.5645 H   0  0  0  0  0  0  0  0  0  0  0  0
   -9.1860   -3.8858   -1.0196 H   0  0  0  0  0  0  0  0  0  0  0  0
    3.4872    1.4805   -0.6806 H   0  0  0  0  0  0  0  0  0  0  0  0
    2.8688    1.1524   -2.3242 H   0  0  0  0  0  0  0  0  0  0  0  0
    4.7990   -0.1329   -2.0331 H   0  0  0  0  0  0  0  0  0  0  0  0
    3.4118   -1.3360   -1.8598 H   0  0  0  0  0  0  0  0  0  0  0  0
    3.4701   -0.5609    1.8929 H   0  0  0  0  0  0  0  0  0  0  0  0
    3.2684   -2.0815    1.0330 H   0  0  0  0  0  0  0  0  0  0  0  0
    1.2301   -1.4129    0.3772 H   0  0  0  0  0  0  0  0  0  0  0  0
    1.3805    0.0691    1.3157 H   0  0  0  0  0  0  0  0  0  0  0  0
    6.1850   -1.9584   -1.3725 H   0  0  0  0  0  0  0  0  0  0  0  0
    8.3588   -2.6025   -1.9669 H   0  0  0  0  0  0  0  0  0  0  0  0
   10.8001   -2.4892   -1.6056 H   0  0  0  0  0  0  0  0  0  0  0  0
   11.6496   -1.0613    0.2245 H   0  0  0  0  0  0  0  0  0  0  0  0
   10.1763    0.1922    1.6323 H   0  0  0  0  0  0  0  0  0  0  0  0
    5.4842    0.7217    1.8634 H   0  0  0  0  0  0  0  0  0  0  0  0
    9.5611    2.4858    3.0460 H   0  0  0  0  0  0  0  0  0  0  0  0
  1  2  1  0
  2  3  2  0
  3  4  1  0
  4  5  2  0
  5  6  1  0
  6  7  2  0
  6  8  1  0
  5  9  1  0
  9 10  2  0
 10 11  1  0
 11 12  2  0
 12 13  1  0
 13 14  2  0
 14 15  1  0
 15 16  2  0
 16 17  1  0
 17 18  2  0
 18 19  1  0
 19 20  2  0
 19 21  1  0
 21 22  1  0
 22 23  1  0
 23 24  1  0
 11 25  1  0
 25 26  2  0
 25 27  1  0
 27 28  1  0
 28 29  1  0
 29 30  1  0
 30 31  1  0
 31 32  1  0
 30 33  1  0
 33 34  2  0
 34 35  1  0
 35 36  2  0
 36 37  1  0
 37 38  2  0
 38 39  1  0
 39 40  2  0
 40 41  1  0
 41 42  2  0
 41 43  1  0
 43 44  2  0
 43 45  1  0
  7  2  1  0
 14  9  1  0
 20 15  1  0
 32 27  1  0
 42 33  1  0
 24 18  1  0
 40 35  1  0
  1 46  1  0
  1 47  1  0
  1 48  1  0
  3 49  1  0
  4 50  1  0
  7 51  1  0
 13 52  1  0
 16 53  1  0
 17 54  1  0
 20 55  1  0
 22 56  1  0
 22 57  1  0
 23 58  1  0
 23 59  1  0
 28 60  1  0
 28 61  1  0
 29 62  1  0
 29 63  1  0
 31 64  1  0
 31 65  1  0
 32 66  1  0
 32 67  1  0
 34 68  1  0
 36 69  1  0
 37 70  1  0
 38 71  1  0
 39 72  1  0
 42 73  1  0
 45 74  1  0
M  END
>  <Ligand ID>  (1) 
LIG0003711

>  <Ligand>  (1) 
CHEMBL1773877

>  <SMILES>  (1) 
Cc1ccc(c(c1)F)c1nc(ncc1c1ccc2c(c1)OCCO2)C(=O)N1CCN(CC1)c1cc2ccccc2c(c1)C(=O)O

>  <CID>  (1) 
53233689.0

>  <ChEMBL ID>  (1) 
nan

>  <InChiKey>  (1) 
MAZYNSFCRNJVOU-UHFFFAOYSA-N

>  <InChi>  (1) 
InChI=1S/C35H29FN4O5/c1-21-6-8-26(29(36)16-21)32-28(23-7-9-30-31(18-23)45-15-14-44-30)20-37-33(38-32)34(41)40-12-10-39(11-13-40)24-17-22-4-2-3-5-25(22)27(19-24)35(42)43/h2-9,16-20H,10-15H2,1H3,(H,42,43)

>  <IUPAC Name>  (1) 
3-[4-[5-(2,3-dihydro-1,4-benzodioxin-6-yl)-4-(2-fluoro-4-methylphenyl)pyrimidine-2-carbonyl]piperazin-1-yl]naphthalene-1-carboxylic acid

$$$$
