
     RDKit          3D

 61 62  0  0  0  0  0  0  0  0999 V2000
   -7.4971   -1.2779    1.0864 C   0  0  0  0  0  0  0  0  0  0  0  0
   -7.3841   -1.5515   -0.3917 C   0  0  0  0  0  0  0  0  0  0  0  0
   -7.4508   -0.3167   -1.2074 C   0  0  0  0  0  0  0  0  0  0  0  0
   -6.4762    0.7703   -1.0446 C   0  0  0  0  0  0  0  0  0  0  0  0
   -5.0535    0.5132   -1.3158 C   0  0  0  0  0  0  0  0  0  0  0  0
   -4.2845   -0.3916   -0.4431 C   0  0  0  0  0  0  0  0  0  0  0  0
   -4.1959    0.1386    0.9741 C   0  0  0  0  0  0  0  0  0  0  0  0
   -3.4462    1.4412    1.0495 C   0  0  0  0  0  0  0  0  0  0  0  0
   -2.0567    1.2548    0.6107 C   0  0  0  0  0  0  0  0  0  0  0  0
   -1.1392    0.8532    1.5838 C   0  0  0  0  0  0  0  0  0  0  0  0
    0.1946    0.6553    1.2987 C   0  0  0  0  0  0  0  0  0  0  0  0
    0.6807    0.8489    0.0242 C   0  0  0  0  0  0  0  0  0  0  0  0
   -0.2173    1.2456   -0.9440 C   0  0  0  0  0  0  0  0  0  0  0  0
   -1.5657    1.4429   -0.6429 C   0  0  0  0  0  0  0  0  0  0  0  0
    2.0890    0.6424   -0.2886 C   0  0  0  0  0  0  0  0  0  0  0  0
    2.6599    0.8117   -1.5297 C   0  0  0  0  0  0  0  0  0  0  0  0
    3.9603    0.5195   -1.3712 N   0  0  0  0  0  0  0  0  0  0  0  0
    4.1653    0.1857   -0.0793 C   0  0  0  0  0  0  0  0  0  0  0  0
    3.0148    0.2549    0.6141 N   0  0  0  0  0  0  0  0  0  0  0  0
    5.4547   -0.2055    0.5245 C   0  0  0  0  0  0  0  0  0  0  0  0
    6.5634   -0.1871   -0.5177 C   0  0  0  0  0  0  0  0  0  0  0  0
    7.7265   -0.6954    0.0077 O   0  0  0  0  0  0  0  0  0  0  0  0
    8.9943   -0.6950   -1.1186 P   0  0  0  0  0  0  0  0  0  0  0  0
    8.8092   -1.9379   -2.2966 S   0  0  0  0  0  0  0  0  0  0  0  0
   10.4891   -0.8393   -0.3425 O   0  0  0  0  0  0  0  0  0  0  0  0
    9.0066    0.8491   -1.8566 O   0  0  0  0  0  0  0  0  0  0  0  0
    5.2521   -1.6336    1.0469 C   0  0  0  0  0  0  0  0  0  0  0  0
    4.8713   -2.5107    0.0573 O   0  0  0  0  0  0  0  0  0  0  0  0
    5.8444    0.5901    1.6478 N   0  0  0  0  0  0  0  0  0  0  0  0
   -7.5565   -0.1863    1.2713 H   0  0  0  0  0  0  0  0  0  0  0  0
   -6.5787   -1.7105    1.5647 H   0  0  0  0  0  0  0  0  0  0  0  0
   -8.4015   -1.7195    1.5126 H   0  0  0  0  0  0  0  0  0  0  0  0
   -8.3449   -2.1472   -0.6646 H   0  0  0  0  0  0  0  0  0  0  0  0
   -6.5697   -2.2226   -0.6859 H   0  0  0  0  0  0  0  0  0  0  0  0
   -8.5163    0.0947   -1.0292 H   0  0  0  0  0  0  0  0  0  0  0  0
   -7.5209   -0.6347   -2.3137 H   0  0  0  0  0  0  0  0  0  0  0  0
   -6.7739    1.6791   -1.6790 H   0  0  0  0  0  0  0  0  0  0  0  0
   -6.5620    1.2040    0.0037 H   0  0  0  0  0  0  0  0  0  0  0  0
   -4.4837    1.4873   -1.3556 H   0  0  0  0  0  0  0  0  0  0  0  0
   -4.9503    0.1106   -2.3809 H   0  0  0  0  0  0  0  0  0  0  0  0
   -3.1965   -0.3751   -0.8508 H   0  0  0  0  0  0  0  0  0  0  0  0
   -4.5333   -1.4538   -0.4549 H   0  0  0  0  0  0  0  0  0  0  0  0
   -3.6148   -0.6229    1.5577 H   0  0  0  0  0  0  0  0  0  0  0  0
   -5.1968    0.2444    1.4039 H   0  0  0  0  0  0  0  0  0  0  0  0
   -3.9673    2.2347    0.4566 H   0  0  0  0  0  0  0  0  0  0  0  0
   -3.4357    1.7364    2.1342 H   0  0  0  0  0  0  0  0  0  0  0  0
   -1.4734    0.6863    2.6090 H   0  0  0  0  0  0  0  0  0  0  0  0
    0.8903    0.3420    2.0746 H   0  0  0  0  0  0  0  0  0  0  0  0
    0.1638    1.3960   -1.9368 H   0  0  0  0  0  0  0  0  0  0  0  0
   -2.1856    1.7546   -1.4541 H   0  0  0  0  0  0  0  0  0  0  0  0
    2.2147    1.1125   -2.4675 H   0  0  0  0  0  0  0  0  0  0  0  0
    2.8761    0.0487    1.6424 H   0  0  0  0  0  0  0  0  0  0  0  0
    6.7127    0.9013   -0.7485 H   0  0  0  0  0  0  0  0  0  0  0  0
    6.2420   -0.6567   -1.4661 H   0  0  0  0  0  0  0  0  0  0  0  0
   10.4695   -0.6133    0.6067 H   0  0  0  0  0  0  0  0  0  0  0  0
    9.1572    1.4877   -1.0918 H   0  0  0  0  0  0  0  0  0  0  0  0
    6.1386   -1.9887    1.6058 H   0  0  0  0  0  0  0  0  0  0  0  0
    4.4455   -1.5420    1.8095 H   0  0  0  0  0  0  0  0  0  0  0  0
    4.3085   -3.2353    0.4722 H   0  0  0  0  0  0  0  0  0  0  0  0
    5.6202    0.2118    2.5770 H   0  0  0  0  0  0  0  0  0  0  0  0
    5.6136    1.6014    1.5421 H   0  0  0  0  0  0  0  0  0  0  0  0
  1  2  1  0
  2  3  1  0
  3  4  1  0
  4  5  1  0
  5  6  1  0
  6  7  1  0
  7  8  1  0
  8  9  1  0
  9 10  2  0
 10 11  1  0
 11 12  2  0
 12 13  1  0
 13 14  2  0
 12 15  1  0
 15 16  2  0
 16 17  1  0
 17 18  2  0
 18 19  1  0
 18 20  1  0
 20 21  1  0
 21 22  1  0
 22 23  1  0
 23 24  2  0
 23 25  1  0
 23 26  1  0
 20 27  1  0
 27 28  1  0
 20 29  1  0
 14  9  1  0
 19 15  1  0
  1 30  1  0
  1 31  1  0
  1 32  1  0
  2 33  1  0
  2 34  1  0
  3 35  1  0
  3 36  1  0
  4 37  1  0
  4 38  1  0
  5 39  1  0
  5 40  1  0
  6 41  1  0
  6 42  1  0
  7 43  1  0
  7 44  1  0
  8 45  1  0
  8 46  1  0
 10 47  1  0
 11 48  1  0
 13 49  1  0
 14 50  1  0
 16 51  1  0
 19 52  1  0
 21 53  1  0
 21 54  1  0
 25 55  1  0
 26 56  1  0
 27 57  1  0
 27 58  1  0
 28 59  1  0
 29 60  1  0
 29 61  1  0
M  END
>  <Ligand ID>  (1) 
LIG0004247

>  <Ligand>  (1) 
CHEMBL541890

>  <SMILES>  (1) 
CCCCCCCCc1ccc(cc1)c1cnc([nH]1)C(COP(=S)(O)O)(CO)N

>  <CID>  (1) 
44398049.0

>  <ChEMBL ID>  (1) 
nan

>  <InChiKey>  (1) 
UGVPRQYVHOQSAP-UHFFFAOYSA-N

>  <InChi>  (1) 
InChI=1S/C20H32N3O4PS/c1-2-3-4-5-6-7-8-16-9-11-17(12-10-16)18-13-22-19(23-18)20(21,14-24)15-27-28(25,26)29/h9-13,24H,2-8,14-15,21H2,1H3,(H,22,23)(H2,25,26,29)

>  <IUPAC Name>  (1) 
2-amino-3-dihydroxyphosphinothioyloxy-2-[5-(4-octylphenyl)-1H-imidazol-2-yl]propan-1-ol

$$$$
