
     RDKit          3D

 42 43  0  0  0  0  0  0  0  0999 V2000
    2.8562   -2.2125    1.0943 S   0  0  0  0  0  0  0  0  0  0  0  0
    1.8994   -0.9739    0.6135 C   0  0  0  0  0  0  0  0  0  0  0  0
    2.5037    0.1314   -0.0509 N   0  0  0  0  0  0  0  0  0  0  0  0
    3.9090    0.1784   -0.2806 C   0  0  0  0  0  0  0  0  0  0  0  0
    4.4735    0.4606   -1.5050 C   0  0  0  0  0  0  0  0  0  0  0  0
    5.8590    0.4957   -1.6480 C   0  0  0  0  0  0  0  0  0  0  0  0
    6.6600    0.2450   -0.5496 C   0  0  0  0  0  0  0  0  0  0  0  0
    6.1121   -0.0379    0.6794 C   0  0  0  0  0  0  0  0  0  0  0  0
    4.7195   -0.0731    0.8209 C   0  0  0  0  0  0  0  0  0  0  0  0
    7.1723   -0.3433    2.0286 Cl  0  0  0  0  0  0  0  0  0  0  0  0
    0.4974   -1.0448    0.8668 N   0  0  0  0  0  0  0  0  0  0  0  0
   -0.4326   -0.0066    0.4760 C   0  0  0  0  0  0  0  0  0  0  0  0
   -1.8332   -0.3740    0.8986 C   0  0  0  0  0  0  0  0  0  0  0  0
   -2.7545    0.7088    0.4913 C   0  0  0  0  0  0  0  0  0  0  0  0
   -2.9968    1.7890    1.3500 C   0  0  0  0  0  0  0  0  0  0  0  0
   -3.8564    2.8113    1.0201 C   0  0  0  0  0  0  0  0  0  0  0  0
   -4.5092    2.7981   -0.1764 C   0  0  0  0  0  0  0  0  0  0  0  0
   -4.3060    1.7533   -1.0605 C   0  0  0  0  0  0  0  0  0  0  0  0
   -3.4330    0.7291   -0.7107 C   0  0  0  0  0  0  0  0  0  0  0  0
   -2.2722   -1.6674    0.5010 N   0  0  0  0  0  0  0  0  0  0  0  0
   -3.6256   -1.9568    0.8204 C   0  0  0  0  0  0  0  0  0  0  0  0
   -1.7628   -2.1944   -0.7114 C   0  0  0  0  0  0  0  0  0  0  0  0
    1.9165    0.9172   -0.3765 H   0  0  0  0  0  0  0  0  0  0  0  0
    3.7936    0.6467   -2.3208 H   0  0  0  0  0  0  0  0  0  0  0  0
    6.2873    0.7240   -2.6241 H   0  0  0  0  0  0  0  0  0  0  0  0
    7.7335    0.2820   -0.6915 H   0  0  0  0  0  0  0  0  0  0  0  0
    4.3326   -0.2946    1.8002 H   0  0  0  0  0  0  0  0  0  0  0  0
    0.1125   -1.8856    1.3587 H   0  0  0  0  0  0  0  0  0  0  0  0
   -0.1487    0.8995    1.0847 H   0  0  0  0  0  0  0  0  0  0  0  0
   -0.4397    0.2124   -0.6008 H   0  0  0  0  0  0  0  0  0  0  0  0
   -1.8022   -0.2978    2.0407 H   0  0  0  0  0  0  0  0  0  0  0  0
   -2.4559    1.7792    2.3126 H   0  0  0  0  0  0  0  0  0  0  0  0
   -3.9800    3.6168    1.7613 H   0  0  0  0  0  0  0  0  0  0  0  0
   -5.1777    3.6257   -0.3889 H   0  0  0  0  0  0  0  0  0  0  0  0
   -4.8143    1.7246   -2.0115 H   0  0  0  0  0  0  0  0  0  0  0  0
   -3.3091   -0.0649   -1.4276 H   0  0  0  0  0  0  0  0  0  0  0  0
   -3.6906   -2.8105    1.5360 H   0  0  0  0  0  0  0  0  0  0  0  0
   -4.0696   -1.0818    1.3419 H   0  0  0  0  0  0  0  0  0  0  0  0
   -4.2045   -2.1644   -0.1132 H   0  0  0  0  0  0  0  0  0  0  0  0
   -1.3594   -1.4219   -1.4000 H   0  0  0  0  0  0  0  0  0  0  0  0
   -2.6240   -2.6486   -1.2679 H   0  0  0  0  0  0  0  0  0  0  0  0
   -0.9799   -2.9740   -0.6254 H   0  0  0  0  0  0  0  0  0  0  0  0
  1  2  2  0
  2  3  1  0
  3  4  1  0
  4  5  2  0
  5  6  1  0
  6  7  2  0
  7  8  1  0
  8  9  2  0
  8 10  1  0
  2 11  1  0
 11 12  1  0
 12 13  1  0
 13 14  1  0
 14 15  2  0
 15 16  1  0
 16 17  2  0
 17 18  1  0
 18 19  2  0
 13 20  1  0
 20 21  1  0
 20 22  1  0
  9  4  1  0
 19 14  1  0
  3 23  1  0
  5 24  1  0
  6 25  1  0
  7 26  1  0
  9 27  1  0
 11 28  1  0
 12 29  1  0
 12 30  1  0
 13 31  1  0
 15 32  1  0
 16 33  1  0
 17 34  1  0
 18 35  1  0
 19 36  1  0
 21 37  1  0
 21 38  1  0
 21 39  1  0
 22 40  1  0
 22 41  1  0
 22 42  1  0
M  END
>  <Ligand ID>  (1) 
LIG0004528

>  <Ligand>  (1) 
MLS000771752

>  <SMILES>  (1) 
S=C(Nc1cccc(c1)Cl)NCC(c1ccccc1)N(C)C

>  <CID>  (1) 
4391932.0

>  <ChEMBL ID>  (1) 
nan

>  <InChiKey>  (1) 
WPWDZSOOCOBLJC-UHFFFAOYSA-N

>  <InChi>  (1) 
InChI=1S/C17H20ClN3S/c1-21(2)16(13-7-4-3-5-8-13)12-19-17(22)20-15-10-6-9-14(18)11-15/h3-11,16H,12H2,1-2H3,(H2,19,20,22)

>  <IUPAC Name>  (1) 
1-(3-chlorophenyl)-3-[2-(dimethylamino)-2-phenylethyl]thiourea

$$$$
