
     RDKit          3D

 73 75  0  0  0  0  0  0  0  0999 V2000
    7.5855   -0.6329   -3.1268 C   0  0  0  0  0  0  0  0  0  0  0  0
    6.1111   -0.3997   -2.8651 C   0  0  0  0  0  0  0  0  0  0  0  0
    5.9476    0.6222   -1.7618 C   0  0  0  0  0  0  0  0  0  0  0  0
    6.5462    0.2473   -0.4797 C   0  0  0  0  0  0  0  0  0  0  0  0
    6.1786   -0.9691    0.2422 C   0  0  0  0  0  0  0  0  0  0  0  0
    4.8001   -1.1959    0.7375 C   0  0  0  0  0  0  0  0  0  0  0  0
    3.7302   -1.2532   -0.2895 C   0  0  0  0  0  0  0  0  0  0  0  0
    2.3876   -1.5501    0.3689 C   0  0  0  0  0  0  0  0  0  0  0  0
    1.3277   -1.6297   -0.6920 C   0  0  0  0  0  0  0  0  0  0  0  0
    1.2305   -0.3249   -1.4381 C   0  0  0  0  0  0  0  0  0  0  0  0
    0.9268    0.6991   -0.5114 O   0  0  0  0  0  0  0  0  0  0  0  0
   -0.2440    0.6429    0.2154 C   0  0  0  0  0  0  0  0  0  0  0  0
   -1.1031   -0.2658    0.1299 O   0  0  0  0  0  0  0  0  0  0  0  0
   -0.5069    1.7473    1.1753 C   0  0  0  0  0  0  0  0  0  0  0  0
   -1.7690    1.5694    1.8730 N   0  0  0  0  0  0  0  0  0  0  0  0
   -2.9689    2.0339    1.4686 C   0  0  0  0  0  0  0  0  0  0  0  0
   -3.1334    2.8460    0.2392 C   0  0  0  0  0  0  0  0  0  0  0  0
   -3.1002    2.1618   -0.9362 O   0  0  0  0  0  0  0  0  0  0  0  0
   -3.8055    1.1906   -1.5044 C   0  0  0  0  0  0  0  0  0  0  0  0
   -4.8995    0.5121   -1.0314 C   0  0  0  0  0  0  0  0  0  0  0  0
   -5.5574   -0.4870   -1.7124 C   0  0  0  0  0  0  0  0  0  0  0  0
   -5.1308   -0.8681   -2.9519 C   0  0  0  0  0  0  0  0  0  0  0  0
   -4.0348   -0.2198   -3.4774 C   0  0  0  0  0  0  0  0  0  0  0  0
   -3.3830    0.7757   -2.7934 C   0  0  0  0  0  0  0  0  0  0  0  0
   -5.7737   -1.8641   -3.6496 O   0  0  0  0  0  0  0  0  0  0  0  0
   -6.8979   -2.5263   -3.1062 C   0  0  0  0  0  0  0  0  0  0  0  0
   -3.8496    1.6480    2.3968 N   0  0  0  0  0  0  0  0  0  0  0  0
   -3.2105    0.9439    3.3790 C   0  0  0  0  0  0  0  0  0  0  0  0
   -1.8790    0.9010    3.0319 C   0  0  0  0  0  0  0  0  0  0  0  0
   -1.0188    0.2335    3.8835 C   0  0  0  0  0  0  0  0  0  0  0  0
   -1.4449   -0.3795    5.0483 C   0  0  0  0  0  0  0  0  0  0  0  0
   -2.7835   -0.3236    5.3755 C   0  0  0  0  0  0  0  0  0  0  0  0
   -3.6762    0.3349    4.5494 C   0  0  0  0  0  0  0  0  0  0  0  0
   -5.2587    1.9145    2.4551 C   0  0  0  0  0  0  0  0  0  0  0  0
    7.7501   -1.5900   -3.6838 H   0  0  0  0  0  0  0  0  0  0  0  0
    7.9584    0.1722   -3.8121 H   0  0  0  0  0  0  0  0  0  0  0  0
    8.1909   -0.7252   -2.2152 H   0  0  0  0  0  0  0  0  0  0  0  0
    5.6942    0.0648   -3.7849 H   0  0  0  0  0  0  0  0  0  0  0  0
    5.5528   -1.3267   -2.7201 H   0  0  0  0  0  0  0  0  0  0  0  0
    4.9711    1.0673   -1.8214 H   0  0  0  0  0  0  0  0  0  0  0  0
    6.6264    1.4884   -2.1484 H   0  0  0  0  0  0  0  0  0  0  0  0
    7.6879    0.3401   -0.5485 H   0  0  0  0  0  0  0  0  0  0  0  0
    6.3283    1.1191    0.2347 H   0  0  0  0  0  0  0  0  0  0  0  0
    6.5889   -1.9120   -0.2443 H   0  0  0  0  0  0  0  0  0  0  0  0
    6.8192   -0.9581    1.2001 H   0  0  0  0  0  0  0  0  0  0  0  0
    4.5364   -0.3529    1.4389 H   0  0  0  0  0  0  0  0  0  0  0  0
    4.8119   -2.1302    1.3861 H   0  0  0  0  0  0  0  0  0  0  0  0
    3.5986   -0.1942   -0.6529 H   0  0  0  0  0  0  0  0  0  0  0  0
    3.9577   -1.9801   -1.0563 H   0  0  0  0  0  0  0  0  0  0  0  0
    2.1669   -0.6638    1.0330 H   0  0  0  0  0  0  0  0  0  0  0  0
    2.4760   -2.4717    0.9484 H   0  0  0  0  0  0  0  0  0  0  0  0
    0.3582   -2.0010   -0.3008 H   0  0  0  0  0  0  0  0  0  0  0  0
    1.6835   -2.3762   -1.4726 H   0  0  0  0  0  0  0  0  0  0  0  0
    0.4283   -0.3808   -2.2287 H   0  0  0  0  0  0  0  0  0  0  0  0
    2.1615   -0.1419   -1.9930 H   0  0  0  0  0  0  0  0  0  0  0  0
   -0.4900    2.7291    0.6468 H   0  0  0  0  0  0  0  0  0  0  0  0
    0.2919    1.8126    1.9404 H   0  0  0  0  0  0  0  0  0  0  0  0
   -2.3026    3.6070    0.2198 H   0  0  0  0  0  0  0  0  0  0  0  0
   -4.0881    3.4633    0.3124 H   0  0  0  0  0  0  0  0  0  0  0  0
   -5.2753    0.7746   -0.0662 H   0  0  0  0  0  0  0  0  0  0  0  0
   -6.4212   -0.9765   -1.2632 H   0  0  0  0  0  0  0  0  0  0  0  0
   -3.6920   -0.5183   -4.4607 H   0  0  0  0  0  0  0  0  0  0  0  0
   -2.5295    1.2414   -3.2665 H   0  0  0  0  0  0  0  0  0  0  0  0
   -7.2839   -3.2469   -3.8541 H   0  0  0  0  0  0  0  0  0  0  0  0
   -7.6687   -1.8025   -2.7689 H   0  0  0  0  0  0  0  0  0  0  0  0
   -6.6171   -3.1129   -2.2046 H   0  0  0  0  0  0  0  0  0  0  0  0
    0.0219    0.1825    3.6418 H   0  0  0  0  0  0  0  0  0  0  0  0
   -0.7585   -0.9045    5.7150 H   0  0  0  0  0  0  0  0  0  0  0  0
   -3.1618   -0.7959    6.2886 H   0  0  0  0  0  0  0  0  0  0  0  0
   -4.7299    0.3868    4.7936 H   0  0  0  0  0  0  0  0  0  0  0  0
   -5.5575    2.5011    3.3396 H   0  0  0  0  0  0  0  0  0  0  0  0
   -5.5805    2.5172    1.5686 H   0  0  0  0  0  0  0  0  0  0  0  0
   -5.8472    0.9604    2.3844 H   0  0  0  0  0  0  0  0  0  0  0  0
  1  2  1  0
  2  3  1  0
  3  4  1  0
  4  5  1  0
  5  6  1  0
  6  7  1  0
  7  8  1  0
  8  9  1  0
  9 10  1  0
 10 11  1  0
 11 12  1  0
 12 13  2  0
 12 14  1  0
 14 15  1  0
 15 16  1  0
 16 17  1  0
 17 18  1  0
 18 19  1  0
 19 20  2  0
 20 21  1  0
 21 22  2  0
 22 23  1  0
 23 24  2  0
 22 25  1  0
 25 26  1  0
 16 27  2  0
 27 28  1  0
 28 29  2  0
 29 30  1  0
 30 31  2  0
 31 32  1  0
 32 33  2  0
 27 34  1  0
 29 15  1  0
 24 19  1  0
 33 28  1  0
  1 35  1  0
  1 36  1  0
  1 37  1  0
  2 38  1  0
  2 39  1  0
  3 40  1  0
  3 41  1  0
  4 42  1  0
  4 43  1  0
  5 44  1  0
  5 45  1  0
  6 46  1  0
  6 47  1  0
  7 48  1  0
  7 49  1  0
  8 50  1  0
  8 51  1  0
  9 52  1  0
  9 53  1  0
 10 54  1  0
 10 55  1  0
 14 56  1  0
 14 57  1  0
 17 58  1  0
 17 59  1  0
 20 60  1  0
 21 61  1  0
 23 62  1  0
 24 63  1  0
 26 64  1  0
 26 65  1  0
 26 66  1  0
 30 67  1  0
 31 68  1  0
 32 69  1  0
 33 70  1  0
 34 71  1  0
 34 72  1  0
 34 73  1  0
M  CHG  1  27   1
M  END
>  <Ligand ID>  (1) 
LIG0004286

>  <Ligand>  (1) 
MLS001202706

>  <SMILES>  (1) 
CCCCCCCCCCOC(=O)Cn1c(COc2ccc(cc2)OC)[n+](c2c1cccc2)C

>  <CID>  (1) 
3092507.0

>  <ChEMBL ID>  (1) 
nan

>  <InChiKey>  (1) 
YNPKYHWFTVWXMK-UHFFFAOYSA-N

>  <InChi>  (1) 
InChI=1S/C28H39N2O4/c1-4-5-6-7-8-9-10-13-20-33-28(31)21-30-26-15-12-11-14-25(26)29(2)27(30)22-34-24-18-16-23(32-3)17-19-24/h11-12,14-19H,4-10,13,20-22H2,1-3H3/q+1

>  <IUPAC Name>  (1) 
decyl 2-[2-[(4-methoxyphenoxy)methyl]-3-methylbenzimidazol-3-ium-1-yl]acetate

$$$$
