
     RDKit          3D

 62 64  0  0  0  0  0  0  0  0999 V2000
   -5.9572   -1.6624    0.3186 N   0  0  0  0  0  0  0  0  0  0  0  0
   -5.6835   -0.2552    0.5471 C   0  0  0  0  0  0  0  0  0  0  0  0
   -4.6435    0.1778   -0.4443 C   0  0  0  0  0  0  0  0  0  0  0  0
   -3.3998   -0.6307   -0.2547 C   0  0  0  0  0  0  0  0  0  0  0  0
   -2.7938   -0.4908    1.1192 C   0  0  0  0  0  0  0  0  0  0  0  0
   -1.5387   -1.3316    1.2325 C   0  0  0  0  0  0  0  0  0  0  0  0
   -0.5257   -0.9529    0.2696 N   0  0  0  0  0  0  0  0  0  0  0  0
    0.0429    0.3766    0.2451 C   0  0  0  0  0  0  0  0  0  0  0  0
   -0.4050    1.1558    1.1168 O   0  0  0  0  0  0  0  0  0  0  0  0
    1.0670    0.7825   -0.7295 C   0  0  2  0  0  0  0  0  0  0  0  0
    0.7152    1.8927   -1.6060 C   0  0  0  0  0  0  0  0  0  0  0  0
    0.3836    3.1682   -0.9766 C   0  0  0  0  0  0  0  0  0  0  0  0
    1.3420    4.1620   -0.7311 C   0  0  0  0  0  0  0  0  0  0  0  0
    0.7651    5.2026   -0.1110 N   0  0  0  0  0  0  0  0  0  0  0  0
   -0.5276    4.9372    0.0610 C   0  0  0  0  0  0  0  0  0  0  0  0
   -0.7804    3.6904   -0.4655 C   0  0  0  0  0  0  0  0  0  0  0  0
   -2.0748    3.2252   -0.4093 C   0  0  0  0  0  0  0  0  0  0  0  0
   -3.0538    3.9833    0.1510 C   0  0  0  0  0  0  0  0  0  0  0  0
   -2.7893    5.2251    0.6746 C   0  0  0  0  0  0  0  0  0  0  0  0
   -1.5085    5.7211    0.6347 C   0  0  0  0  0  0  0  0  0  0  0  0
    1.4463   -0.4391   -1.4186 N   0  0  0  0  0  0  0  0  0  0  0  0
    2.7871   -0.9699   -1.3222 C   0  0  0  0  0  0  0  0  0  0  0  0
    3.5834   -0.3167   -0.6295 O   0  0  0  0  0  0  0  0  0  0  0  0
    3.1643   -2.1644   -1.9807 N   0  0  0  0  0  0  0  0  0  0  0  0
    4.4861   -2.7474   -1.9306 C   0  0  0  0  0  0  0  0  0  0  0  0
    4.8071   -3.4300   -0.6772 C   0  0  0  0  0  0  0  0  0  0  0  0
    5.4382   -2.7646    0.3754 C   0  0  0  0  0  0  0  0  0  0  0  0
    5.7328   -3.4037    1.5453 C   0  0  0  0  0  0  0  0  0  0  0  0
    5.4324   -4.7370    1.7696 C   0  0  0  0  0  0  0  0  0  0  0  0
    4.8070   -5.4006    0.7291 C   0  0  0  0  0  0  0  0  0  0  0  0
    4.5090   -4.7553   -0.4529 C   0  0  0  0  0  0  0  0  0  0  0  0
   -6.6554   -1.7931   -0.4428 H   0  0  0  0  0  0  0  0  0  0  0  0
   -6.1744   -2.1818    1.1831 H   0  0  0  0  0  0  0  0  0  0  0  0
   -6.6328    0.2938    0.3224 H   0  0  0  0  0  0  0  0  0  0  0  0
   -5.3373   -0.0669    1.5609 H   0  0  0  0  0  0  0  0  0  0  0  0
   -5.0176    0.0857   -1.4689 H   0  0  0  0  0  0  0  0  0  0  0  0
   -4.4115    1.2622   -0.2489 H   0  0  0  0  0  0  0  0  0  0  0  0
   -2.6395   -0.3231   -1.0018 H   0  0  0  0  0  0  0  0  0  0  0  0
   -3.6004   -1.7086   -0.4337 H   0  0  0  0  0  0  0  0  0  0  0  0
   -2.6258    0.5564    1.4061 H   0  0  0  0  0  0  0  0  0  0  0  0
   -3.5159   -0.9076    1.8628 H   0  0  0  0  0  0  0  0  0  0  0  0
   -1.1137   -1.2180    2.2562 H   0  0  0  0  0  0  0  0  0  0  0  0
   -1.8285   -2.3842    1.1359 H   0  0  0  0  0  0  0  0  0  0  0  0
   -0.2196   -1.6673   -0.4037 H   0  0  0  0  0  0  0  0  0  0  0  0
    1.9718    1.0879   -0.1344 H   0  0  0  0  0  0  0  0  0  0  0  0
    1.3629    2.0089   -2.5116 H   0  0  0  0  0  0  0  0  0  0  0  0
   -0.2610    1.5896   -2.1231 H   0  0  0  0  0  0  0  0  0  0  0  0
    2.3911    4.1187   -0.9929 H   0  0  0  0  0  0  0  0  0  0  0  0
    1.2593    6.0703    0.1829 H   0  0  0  0  0  0  0  0  0  0  0  0
   -2.2324    2.2276   -0.8417 H   0  0  0  0  0  0  0  0  0  0  0  0
   -4.0652    3.5946    0.1835 H   0  0  0  0  0  0  0  0  0  0  0  0
   -3.5411    5.8566    1.1292 H   0  0  0  0  0  0  0  0  0  0  0  0
   -1.2650    6.6978    1.0391 H   0  0  0  0  0  0  0  0  0  0  0  0
    0.7863   -0.9894   -2.0136 H   0  0  0  0  0  0  0  0  0  0  0  0
    2.4477   -2.6846   -2.5549 H   0  0  0  0  0  0  0  0  0  0  0  0
    4.6672   -3.3793   -2.8416 H   0  0  0  0  0  0  0  0  0  0  0  0
    5.1982   -1.8917   -2.0246 H   0  0  0  0  0  0  0  0  0  0  0  0
    5.7225   -1.7162    0.3039 H   0  0  0  0  0  0  0  0  0  0  0  0
    6.2288   -2.8728    2.3666 H   0  0  0  0  0  0  0  0  0  0  0  0
    5.6879   -5.1870    2.7082 H   0  0  0  0  0  0  0  0  0  0  0  0
    4.5712   -6.4409    0.9007 H   0  0  0  0  0  0  0  0  0  0  0  0
    4.0146   -5.2858   -1.2712 H   0  0  0  0  0  0  0  0  0  0  0  0
  1  2  1  0
  2  3  1  0
  3  4  1  0
  4  5  1  0
  5  6  1  0
  6  7  1  0
  7  8  1  0
  8  9  2  0
  8 10  1  0
 10 11  1  0
 11 12  1  0
 12 13  2  0
 13 14  1  0
 14 15  1  0
 15 16  2  0
 16 17  1  0
 17 18  2  0
 18 19  1  0
 19 20  2  0
 10 21  1  0
 21 22  1  0
 22 23  2  0
 22 24  1  0
 24 25  1  0
 25 26  1  0
 26 27  2  0
 27 28  1  0
 28 29  2  0
 29 30  1  0
 30 31  2  0
 16 12  1  0
 31 26  1  0
 20 15  1  0
  1 32  1  0
  1 33  1  0
  2 34  1  0
  2 35  1  0
  3 36  1  0
  3 37  1  0
  4 38  1  0
  4 39  1  0
  5 40  1  0
  5 41  1  0
  6 42  1  0
  6 43  1  0
  7 44  1  0
 10 45  1  1
 11 46  1  0
 11 47  1  0
 13 48  1  0
 14 49  1  0
 17 50  1  0
 18 51  1  0
 19 52  1  0
 20 53  1  0
 21 54  1  0
 24 55  1  0
 25 56  1  0
 25 57  1  0
 27 58  1  0
 28 59  1  0
 29 60  1  0
 30 61  1  0
 31 62  1  0
M  END
>  <Ligand ID>  (1) 
LIG0001268

>  <Ligand>  (1) 
CHEMBL305391

>  <SMILES>  (1) 
NCCCCCNC(=O)[C@H](Cc1c[nH]c2c1cccc2)NC(=O)NCc1ccccc1

>  <CID>  (1) 
44305712.0

>  <ChEMBL ID>  (1) 
nan

>  <InChiKey>  (1) 
CWJHVSDNADCVQK-QFIPXVFZSA-N

>  <InChi>  (1) 
InChI=1S/C24H31N5O2/c25-13-7-2-8-14-26-23(30)22(15-19-17-27-21-12-6-5-11-20(19)21)29-24(31)28-16-18-9-3-1-4-10-18/h1,3-6,9-12,17,22,27H,2,7-8,13-16,25H2,(H,26,30)(H2,28,29,31)/t22-/m0/s1

>  <IUPAC Name>  (1) 
(2S)-N-(5-aminopentyl)-2-(benzylcarbamoylamino)-3-(1H-indol-3-yl)propanamide

$$$$
