
     RDKit          3D

 57 60  0  0  0  0  0  0  0  0999 V2000
    3.8073   -0.0616    3.1885 O   0  0  0  0  0  0  0  0  0  0  0  0
    3.5760   -0.5512    1.8967 C   0  0  2  0  0  0  0  0  0  0  0  0
    4.8298   -0.3168    1.1556 C   0  0  0  0  0  0  0  0  0  0  0  0
    4.9385    0.2711   -0.0718 C   0  0  0  0  0  0  0  0  0  0  0  0
    6.1778    0.4430   -0.6967 C   0  0  0  0  0  0  0  0  0  0  0  0
    7.3459    0.0238   -0.0955 C   0  0  0  0  0  0  0  0  0  0  0  0
    7.2276   -0.5707    1.1479 C   0  0  0  0  0  0  0  0  0  0  0  0
    6.0051   -0.7386    1.7609 C   0  0  0  0  0  0  0  0  0  0  0  0
    8.6554    0.2138   -0.7721 C   0  0  0  0  0  0  0  0  0  0  0  0
    8.9712   -0.8056   -1.6366 F   0  0  0  0  0  0  0  0  0  0  0  0
    9.6839    0.3789    0.1566 F   0  0  0  0  0  0  0  0  0  0  0  0
    8.5904    1.4391   -1.4404 F   0  0  0  0  0  0  0  0  0  0  0  0
    2.3558    0.0589    1.2657 C   0  0  0  0  0  0  0  0  0  0  0  0
    2.1583   -0.5041   -0.0289 N   0  0  0  0  0  0  0  0  0  0  0  0
    1.0267    0.0039   -0.7369 C   0  0  1  0  0  0  0  0  0  0  0  0
    0.9648   -0.7021   -2.0765 C   0  0  0  0  0  0  0  0  0  0  0  0
   -0.0500   -0.0784   -2.9965 C   0  0  0  0  0  0  0  0  0  0  0  0
   -1.3373   -0.0172   -2.2641 C   0  0  0  0  0  0  0  0  0  0  0  0
   -1.4466   -0.0503   -0.8942 C   0  0  0  0  0  0  0  0  0  0  0  0
   -0.2738   -0.1527    0.0194 C   0  0  0  0  0  0  0  0  0  0  0  0
   -2.6928    0.0124   -0.2685 C   0  0  0  0  0  0  0  0  0  0  0  0
   -3.8336    0.1092   -1.0432 C   0  0  0  0  0  0  0  0  0  0  0  0
   -3.7519    0.1443   -2.4203 C   0  0  0  0  0  0  0  0  0  0  0  0
   -2.4891    0.0791   -2.9952 C   0  0  0  0  0  0  0  0  0  0  0  0
   -5.1200    0.1726   -0.3323 C   0  0  0  0  0  0  0  0  0  0  0  0
   -6.1369    0.8941   -0.9309 C   0  0  0  0  0  0  0  0  0  0  0  0
   -7.3831    1.0164   -0.3470 C   0  0  0  0  0  0  0  0  0  0  0  0
   -7.5565    0.3775    0.8684 C   0  0  0  0  0  0  0  0  0  0  0  0
   -6.5578   -0.3473    1.4845 C   0  0  0  0  0  0  0  0  0  0  0  0
   -5.3222   -0.4512    0.8754 C   0  0  0  0  0  0  0  0  0  0  0  0
   -8.8666    0.4996    1.4941 C   0  0  0  0  0  0  0  0  0  0  0  0
   -9.7757    1.1607    0.9323 O   0  0  0  0  0  0  0  0  0  0  0  0
   -9.1718   -0.0950    2.7164 O   0  0  0  0  0  0  0  0  0  0  0  0
    3.2112    0.6885    3.4116 H   0  0  0  0  0  0  0  0  0  0  0  0
    3.4813   -1.6627    1.9963 H   0  0  0  0  0  0  0  0  0  0  0  0
    4.0925    0.6253   -0.5978 H   0  0  0  0  0  0  0  0  0  0  0  0
    6.2202    0.9141   -1.6707 H   0  0  0  0  0  0  0  0  0  0  0  0
    8.1137   -0.9111    1.6503 H   0  0  0  0  0  0  0  0  0  0  0  0
    5.9920   -1.2123    2.7335 H   0  0  0  0  0  0  0  0  0  0  0  0
    1.4991   -0.0813    1.9440 H   0  0  0  0  0  0  0  0  0  0  0  0
    2.5987    1.1443    1.1190 H   0  0  0  0  0  0  0  0  0  0  0  0
    2.2789   -1.5304   -0.0880 H   0  0  0  0  0  0  0  0  0  0  0  0
    1.1583    1.0848   -0.9464 H   0  0  0  0  0  0  0  0  0  0  0  0
    0.5505   -1.7254   -1.8371 H   0  0  0  0  0  0  0  0  0  0  0  0
    1.9733   -0.7721   -2.4932 H   0  0  0  0  0  0  0  0  0  0  0  0
   -0.1078   -0.7289   -3.8851 H   0  0  0  0  0  0  0  0  0  0  0  0
    0.2260    0.9707   -3.2585 H   0  0  0  0  0  0  0  0  0  0  0  0
   -0.3849    0.6740    0.7601 H   0  0  0  0  0  0  0  0  0  0  0  0
   -0.3404   -1.1135    0.5715 H   0  0  0  0  0  0  0  0  0  0  0  0
   -2.7778   -0.0135    0.8018 H   0  0  0  0  0  0  0  0  0  0  0  0
   -4.6497    0.2202   -3.0207 H   0  0  0  0  0  0  0  0  0  0  0  0
   -2.4721    0.1099   -4.0849 H   0  0  0  0  0  0  0  0  0  0  0  0
   -6.0064    1.3964   -1.8829 H   0  0  0  0  0  0  0  0  0  0  0  0
   -8.1735    1.5861   -0.8276 H   0  0  0  0  0  0  0  0  0  0  0  0
   -6.6900   -0.8466    2.4323 H   0  0  0  0  0  0  0  0  0  0  0  0
   -4.5356   -1.0085    1.3373 H   0  0  0  0  0  0  0  0  0  0  0  0
   -9.8063    0.3366    3.3842 H   0  0  0  0  0  0  0  0  0  0  0  0
  1  2  1  0
  2  3  1  0
  3  4  2  0
  4  5  1  0
  5  6  2  0
  6  7  1  0
  7  8  2  0
  6  9  1  0
  9 10  1  0
  9 11  1  0
  9 12  1  0
  2 13  1  0
 13 14  1  0
 14 15  1  0
 15 16  1  0
 16 17  1  0
 17 18  1  0
 18 19  2  0
 19 20  1  0
 19 21  1  0
 21 22  2  0
 22 23  1  0
 23 24  2  0
 22 25  1  0
 25 26  2  0
 26 27  1  0
 27 28  2  0
 28 29  1  0
 29 30  2  0
 28 31  1  0
 31 32  2  0
 31 33  1  0
  8  3  1  0
 20 15  1  0
 30 25  1  0
 24 18  1  0
  1 34  1  0
  2 35  1  1
  4 36  1  0
  5 37  1  0
  7 38  1  0
  8 39  1  0
 13 40  1  0
 13 41  1  0
 14 42  1  0
 15 43  1  6
 16 44  1  0
 16 45  1  0
 17 46  1  0
 17 47  1  0
 20 48  1  0
 20 49  1  0
 21 50  1  0
 23 51  1  0
 24 52  1  0
 26 53  1  0
 27 54  1  0
 29 55  1  0
 30 56  1  0
 33 57  1  0
M  END
>  <Ligand ID>  (1) 
LIG0002995

>  <Ligand>  (1) 
CHEMBL457839

>  <SMILES>  (1) 
O[C@H](c1ccc(cc1)C(F)(F)F)CN[C@H]1CCc2c(C1)cc(cc2)c1ccc(cc1)C(=O)O

>  <CID>  (1) 
24949722.0

>  <ChEMBL ID>  (1) 
nan

>  <InChiKey>  (1) 
NMTYYCKPWNJZSQ-ZEQRLZLVSA-N

>  <InChi>  (1) 
InChI=1S/C26H24F3NO3/c27-26(28,29)22-10-7-18(8-11-22)24(31)15-30-23-12-9-17-3-6-20(13-21(17)14-23)16-1-4-19(5-2-16)25(32)33/h1-8,10-11,13,23-24,30-31H,9,12,14-15H2,(H,32,33)/t23-,24-/m0/s1

>  <IUPAC Name>  (1) 
4-[(7S)-7-[[(2R)-2-hydroxy-2-[4-(trifluoromethyl)phenyl]ethyl]amino]-5,6,7,8-tetrahydronaphthalen-2-yl]benzoic acid

$$$$
