
     RDKit          3D

 24 24  0  0  0  0  0  0  0  0999 V2000
   -3.3296    0.2862    0.1094 C   0  0  0  0  0  0  0  0  0  0  0  0
   -1.9229    0.0427    0.6302 C   0  0  2  0  0  0  0  0  0  0  0  0
   -1.0103    0.3624   -0.4937 C   0  0  0  0  0  0  0  0  0  0  0  0
    0.4205    0.2126   -0.2632 C   0  0  0  0  0  0  0  0  0  0  0  0
    1.1345   -0.9495   -0.4924 C   0  0  0  0  0  0  0  0  0  0  0  0
    2.5098   -1.0252   -0.2491 C   0  0  0  0  0  0  0  0  0  0  0  0
    3.1703    0.1001    0.2355 C   0  0  0  0  0  0  0  0  0  0  0  0
    2.4632    1.2545    0.4637 C   0  0  0  0  0  0  0  0  0  0  0  0
    1.1223    1.3201    0.2239 C   0  0  0  0  0  0  0  0  0  0  0  0
    4.5314    0.0640    0.4886 O   0  0  0  0  0  0  0  0  0  0  0  0
   -1.8864   -1.3362    1.0500 N   0  0  0  0  0  0  0  0  0  0  0  0
   -3.4439    1.3905    0.0296 H   0  0  0  0  0  0  0  0  0  0  0  0
   -3.3476   -0.1031   -0.9360 H   0  0  0  0  0  0  0  0  0  0  0  0
   -4.1079   -0.2068    0.7192 H   0  0  0  0  0  0  0  0  0  0  0  0
   -1.7047    0.6790    1.5215 H   0  0  0  0  0  0  0  0  0  0  0  0
   -1.2713   -0.3237   -1.3454 H   0  0  0  0  0  0  0  0  0  0  0  0
   -1.2247    1.3802   -0.8527 H   0  0  0  0  0  0  0  0  0  0  0  0
    0.6068   -1.8175   -0.8698 H   0  0  0  0  0  0  0  0  0  0  0  0
    3.0699   -1.9161   -0.4224 H   0  0  0  0  0  0  0  0  0  0  0  0
    3.0046    2.1019    0.8373 H   0  0  0  0  0  0  0  0  0  0  0  0
    0.5889    2.2637    0.4191 H   0  0  0  0  0  0  0  0  0  0  0  0
    5.1861   -0.1656   -0.2318 H   0  0  0  0  0  0  0  0  0  0  0  0
   -2.7564   -1.6095    1.5538 H   0  0  0  0  0  0  0  0  0  0  0  0
   -1.8027   -2.0045    0.2550 H   0  0  0  0  0  0  0  0  0  0  0  0
  1  2  1  0
  2  3  1  0
  3  4  1  0
  4  5  2  0
  5  6  1  0
  6  7  2  0
  7  8  1  0
  8  9  2  0
  7 10  1  0
  2 11  1  0
  9  4  1  0
  1 12  1  0
  1 13  1  0
  1 14  1  0
  2 15  1  1
  3 16  1  0
  3 17  1  0
  5 18  1  0
  6 19  1  0
  8 20  1  0
  9 21  1  0
 10 22  1  0
 11 23  1  0
 11 24  1  0
M  END
>  <Ligand ID>  (1) 
LIG0001106

>  <Ligand>  (1) 
(R)-P-Hydroxyamphetamine

>  <SMILES>  (1) 
C[C@H](Cc1ccc(cc1)O)N

>  <CID>  (1) 
12234986.0

>  <ChEMBL ID>  (1) 
nan

>  <InChiKey>  (1) 
GIKNHHRFLCDOEU-SSDOTTSWSA-N

>  <InChi>  (1) 
InChI=1S/C9H13NO/c1-7(10)6-8-2-4-9(11)5-3-8/h2-5,7,11H,6,10H2,1H3/t7-/m1/s1

>  <IUPAC Name>  (1) 
4-[(2R)-2-aminopropyl]phenol

$$$$
