
     RDKit          3D

 43 45  0  0  0  0  0  0  0  0999 V2000
    6.8620    2.2402    0.3503 O   0  0  0  0  0  0  0  0  0  0  0  0
    6.7326    0.9307    0.8092 C   0  0  0  0  0  0  0  0  0  0  0  0
    6.6164    0.8143    2.0755 O   0  0  0  0  0  0  0  0  0  0  0  0
    6.7293   -0.2428   -0.0989 C   0  0  0  0  0  0  0  0  0  0  0  0
    5.3217   -0.7656   -0.3353 C   0  0  0  0  0  0  0  0  0  0  0  0
    4.6567   -1.2052    0.9264 C   0  0  0  0  0  0  0  0  0  0  0  0
    3.3764   -1.6936    0.8353 O   0  0  0  0  0  0  0  0  0  0  0  0
    2.2017   -1.1602    0.4418 C   0  0  0  0  0  0  0  0  0  0  0  0
    1.0754   -1.9924    0.4756 C   0  0  0  0  0  0  0  0  0  0  0  0
   -0.1699   -1.5590    0.0999 C   0  0  0  0  0  0  0  0  0  0  0  0
   -0.3279   -0.2584   -0.3275 C   0  0  0  0  0  0  0  0  0  0  0  0
    0.7361    0.5962   -0.3799 C   0  0  0  0  0  0  0  0  0  0  0  0
    1.9713    0.1237    0.0057 C   0  0  0  0  0  0  0  0  0  0  0  0
   -1.6748    0.1539   -0.7058 C   0  0  0  0  0  0  0  0  0  0  0  0
   -2.7045   -0.1252    0.1776 C   0  0  0  0  0  0  0  0  0  0  0  0
   -4.0225    0.2453   -0.1064 C   0  0  0  0  0  0  0  0  0  0  0  0
   -4.2268    0.8897   -1.2924 C   0  0  0  0  0  0  0  0  0  0  0  0
   -3.2290    1.1879   -2.2027 C   0  0  0  0  0  0  0  0  0  0  0  0
   -1.9160    0.8125   -1.9067 C   0  0  0  0  0  0  0  0  0  0  0  0
   -0.8842    1.0659   -2.7404 F   0  0  0  0  0  0  0  0  0  0  0  0
   -4.9672   -0.0711    0.8262 O   0  0  0  0  0  0  0  0  0  0  0  0
   -6.3339    0.2270    0.6545 C   0  0  0  0  0  0  0  0  0  0  0  0
   -7.3144   -0.4715    1.5024 C   0  0  0  0  0  0  0  0  0  0  0  0
   -6.9314    0.9490    1.8303 C   0  0  0  0  0  0  0  0  0  0  0  0
    7.2408    2.9787    0.9309 H   0  0  0  0  0  0  0  0  0  0  0  0
    7.1604    0.0800   -1.0668 H   0  0  0  0  0  0  0  0  0  0  0  0
    7.3988   -1.0554    0.2780 H   0  0  0  0  0  0  0  0  0  0  0  0
    5.4301   -1.6180   -1.0617 H   0  0  0  0  0  0  0  0  0  0  0  0
    4.7839    0.0308   -0.8657 H   0  0  0  0  0  0  0  0  0  0  0  0
    4.6224   -0.3047    1.6175 H   0  0  0  0  0  0  0  0  0  0  0  0
    5.3206   -1.9139    1.4930 H   0  0  0  0  0  0  0  0  0  0  0  0
    1.1720   -3.0213    0.8083 H   0  0  0  0  0  0  0  0  0  0  0  0
   -1.0032   -2.2668    0.1519 H   0  0  0  0  0  0  0  0  0  0  0  0
    0.6304    1.6122   -0.7091 H   0  0  0  0  0  0  0  0  0  0  0  0
    2.7870    0.8260   -0.0340 H   0  0  0  0  0  0  0  0  0  0  0  0
   -2.4586   -0.6371    1.0917 H   0  0  0  0  0  0  0  0  0  0  0  0
   -5.2240    1.1984   -1.5610 H   0  0  0  0  0  0  0  0  0  0  0  0
   -3.4374    1.7081   -3.1462 H   0  0  0  0  0  0  0  0  0  0  0  0
   -6.6908    0.5945   -0.3383 H   0  0  0  0  0  0  0  0  0  0  0  0
   -8.3760   -0.5885    1.1676 H   0  0  0  0  0  0  0  0  0  0  0  0
   -6.9711   -1.2474    2.2201 H   0  0  0  0  0  0  0  0  0  0  0  0
   -7.6595    1.7583    1.6180 H   0  0  0  0  0  0  0  0  0  0  0  0
   -6.3027    1.1749    2.7071 H   0  0  0  0  0  0  0  0  0  0  0  0
  1  2  1  0
  2  3  2  0
  2  4  1  0
  4  5  1  0
  5  6  1  0
  6  7  1  0
  7  8  1  0
  8  9  2  0
  9 10  1  0
 10 11  2  0
 11 12  1  0
 12 13  2  0
 11 14  1  0
 14 15  2  0
 15 16  1  0
 16 17  2  0
 17 18  1  0
 18 19  2  0
 19 20  1  0
 16 21  1  0
 21 22  1  0
 22 23  1  0
 23 24  1  0
 13  8  1  0
 19 14  1  0
 24 22  1  0
  1 25  1  0
  4 26  1  0
  4 27  1  0
  5 28  1  0
  5 29  1  0
  6 30  1  0
  6 31  1  0
  9 32  1  0
 10 33  1  0
 12 34  1  0
 13 35  1  0
 15 36  1  0
 17 37  1  0
 18 38  1  0
 22 39  1  0
 23 40  1  0
 23 41  1  0
 24 42  1  0
 24 43  1  0
M  END
>  <Ligand ID>  (1) 
LIG0002975

>  <Ligand>  (1) 
CHEMBL3944507

>  <SMILES>  (1) 
OC(=O)CCCOc1ccc(cc1)c1cc(ccc1F)OC1CC1

>  <CID>  (1) 
134145412.0

>  <ChEMBL ID>  (1) 
nan

>  <InChiKey>  (1) 
AQNIDUQNJARXRU-UHFFFAOYSA-N

>  <InChi>  (1) 
InChI=1S/C19H19FO4/c20-18-10-9-16(24-15-7-8-15)12-17(18)13-3-5-14(6-4-13)23-11-1-2-19(21)22/h3-6,9-10,12,15H,1-2,7-8,11H2,(H,21,22)

>  <IUPAC Name>  (1) 
4-[4-(5-cyclopropyloxy-2-fluorophenyl)phenoxy]butanoic acid

$$$$
