
     RDKit          3D

 43 45  0  0  0  0  0  0  0  0999 V2000
   -3.3826   -4.3847   -0.4065 C   0  0  0  0  0  0  0  0  0  0  0  0
   -3.4635   -3.0472   -0.3447 C   0  0  0  0  0  0  0  0  0  0  0  0
   -2.6863   -2.2309    0.5851 C   0  0  0  0  0  0  0  0  0  0  0  0
   -1.8703   -1.3249   -0.2355 N   0  0  0  0  0  0  0  0  0  0  0  0
   -0.8526   -2.1458   -0.9527 C   0  0  0  0  0  0  0  0  0  0  0  0
    0.4357   -2.2718   -0.2192 C   0  0  0  0  0  0  0  0  0  0  0  0
    1.3306   -1.1214   -0.0576 C   0  0  0  0  0  0  0  0  0  0  0  0
    1.0571    0.1871    0.4273 C   0  0  0  0  0  0  0  0  0  0  0  0
   -0.3328    0.6392    0.8923 C   0  0  0  0  0  0  0  0  0  0  0  0
   -1.2957   -0.2816    0.3917 C   0  0  0  0  0  0  0  0  0  0  0  0
   -0.4299    2.0681    0.4879 C   0  0  0  0  0  0  0  0  0  0  0  0
   -0.4216    3.1184    1.3869 C   0  0  0  0  0  0  0  0  0  0  0  0
   -0.5066    4.4406    1.0089 C   0  0  0  0  0  0  0  0  0  0  0  0
   -0.6047    4.7785   -0.2999 C   0  0  0  0  0  0  0  0  0  0  0  0
   -0.6174    3.7701   -1.2367 C   0  0  0  0  0  0  0  0  0  0  0  0
   -0.5323    2.4440   -0.8595 C   0  0  0  0  0  0  0  0  0  0  0  0
    1.9974    1.1440    0.5167 C   0  0  0  0  0  0  0  0  0  0  0  0
    3.2869    0.8909    0.1352 C   0  0  0  0  0  0  0  0  0  0  0  0
    3.5889   -0.3671   -0.3400 C   0  0  0  0  0  0  0  0  0  0  0  0
    2.6496   -1.3703   -0.4445 C   0  0  0  0  0  0  0  0  0  0  0  0
    4.9059   -0.6300   -0.7304 O   0  0  0  0  0  0  0  0  0  0  0  0
    4.2476    1.8723    0.2277 O   0  0  0  0  0  0  0  0  0  0  0  0
   -3.9669   -4.9594   -1.1008 H   0  0  0  0  0  0  0  0  0  0  0  0
   -2.6892   -4.8498    0.2905 H   0  0  0  0  0  0  0  0  0  0  0  0
   -4.1458   -2.5551   -1.0259 H   0  0  0  0  0  0  0  0  0  0  0  0
   -1.9270   -2.8280    1.1550 H   0  0  0  0  0  0  0  0  0  0  0  0
   -3.3231   -1.6803    1.2753 H   0  0  0  0  0  0  0  0  0  0  0  0
   -1.2135   -3.1447   -1.1574 H   0  0  0  0  0  0  0  0  0  0  0  0
   -0.6633   -1.5428   -1.8789 H   0  0  0  0  0  0  0  0  0  0  0  0
    1.0023   -3.0315   -0.8085 H   0  0  0  0  0  0  0  0  0  0  0  0
    0.2611   -2.8190    0.7545 H   0  0  0  0  0  0  0  0  0  0  0  0
   -0.3095    0.7212    2.0237 H   0  0  0  0  0  0  0  0  0  0  0  0
   -0.7615   -1.0698    0.9729 H   0  0  0  0  0  0  0  0  0  0  0  0
   -0.9904    0.0609   -0.6221 H   0  0  0  0  0  0  0  0  0  0  0  0
   -0.3439    2.8751    2.4475 H   0  0  0  0  0  0  0  0  0  0  0  0
   -0.4913    5.1992    1.7957 H   0  0  0  0  0  0  0  0  0  0  0  0
   -0.6750    5.8019   -0.6463 H   0  0  0  0  0  0  0  0  0  0  0  0
   -0.6966    4.0307   -2.2992 H   0  0  0  0  0  0  0  0  0  0  0  0
   -0.5454    1.7183   -1.6481 H   0  0  0  0  0  0  0  0  0  0  0  0
    1.7191    2.1152    0.8926 H   0  0  0  0  0  0  0  0  0  0  0  0
    2.8634   -2.3640   -0.8139 H   0  0  0  0  0  0  0  0  0  0  0  0
    5.6554    0.0099   -0.6068 H   0  0  0  0  0  0  0  0  0  0  0  0
    4.7374    2.1346    1.0675 H   0  0  0  0  0  0  0  0  0  0  0  0
  1  2  2  0
  2  3  1  0
  3  4  1  0
  4  5  1  0
  5  6  1  0
  6  7  1  0
  7  8  2  0
  8  9  1  0
  9 10  1  0
  9 11  1  0
 11 12  2  0
 12 13  1  0
 13 14  2  0
 14 15  1  0
 15 16  2  0
  8 17  1  0
 17 18  2  0
 18 19  1  0
 19 20  2  0
 19 21  1  0
 18 22  1  0
 10  4  1  0
 16 11  1  0
 20  7  1  0
  1 23  1  0
  1 24  1  0
  2 25  1  0
  3 26  1  0
  3 27  1  0
  5 28  1  0
  5 29  1  0
  6 30  1  0
  6 31  1  0
  9 32  1  0
 10 33  1  0
 10 34  1  0
 12 35  1  0
 13 36  1  0
 14 37  1  0
 15 38  1  0
 16 39  1  0
 17 40  1  0
 20 41  1  0
 21 42  1  0
 22 43  1  0
M  END
>  <Ligand ID>  (1) 
LIG0005638

>  <Ligand>  (1) 
Skf-77434

>  <SMILES>  (1) 
C=CCN1CCc2c(C(C1)c1ccccc1)cc(c(c2)O)O

>  <CID>  (1) 
1241.0

>  <ChEMBL ID>  (1) 
nan

>  <InChiKey>  (1) 
QBUVZVXIRYFENV-UHFFFAOYSA-N

>  <InChi>  (1) 
InChI=1S/C19H21NO2/c1-2-9-20-10-8-15-11-18(21)19(22)12-16(15)17(13-20)14-6-4-3-5-7-14/h2-7,11-12,17,21-22H,1,8-10,13H2

>  <IUPAC Name>  (1) 
5-phenyl-3-prop-2-enyl-1,2,4,5-tetrahydro-3-benzazepine-7,8-diol

$$$$
