
     RDKit          3D

170175  0  0  0  0  0  0  0  0999 V2000
   12.9376   -0.7372   -3.1664 C   0  0  0  0  0  0  0  0  0  0  0  0
   11.8692   -1.7238   -3.0739 N   0  0  0  0  0  0  0  0  0  0  0  0
   10.7646   -1.5489   -3.7316 C   0  0  0  0  0  0  0  0  0  0  0  0
    9.7760   -2.5453   -3.5966 N   0  0  0  0  0  0  0  0  0  0  0  0
    9.5538   -3.3028   -2.3845 C   0  0  0  0  0  0  0  0  0  0  0  0
    8.9737   -2.4154   -1.2906 C   0  0  0  0  0  0  0  0  0  0  0  0
    8.7589   -3.2655   -0.0725 C   0  0  0  0  0  0  0  0  0  0  0  0
    8.1338   -2.4484    1.0957 C   0  0  1  0  0  0  0  0  0  0  0  0
    9.0367   -1.3580    1.4547 C   0  0  0  0  0  0  0  0  0  0  0  0
    9.8906   -1.6000    2.3747 O   0  0  0  0  0  0  0  0  0  0  0  0
    9.0847   -0.0599    0.8950 N   0  0  0  0  0  0  0  0  0  0  0  0
   10.0811    0.8432    1.4766 C   0  0  2  0  0  0  0  0  0  0  0  0
    9.8711    2.2436    1.1991 C   0  0  0  0  0  0  0  0  0  0  0  0
    9.0333    2.7280    0.3718 O   0  0  0  0  0  0  0  0  0  0  0  0
   10.6518    3.2273    1.9069 N   0  0  0  0  0  0  0  0  0  0  0  0
   11.4737    0.4045    1.0264 C   0  0  0  0  0  0  0  0  0  0  0  0
   12.5672    1.2432    1.5182 C   0  0  0  0  0  0  0  0  0  0  0  0
   13.1783    1.0232    2.7590 C   0  0  0  0  0  0  0  0  0  0  0  0
   14.1017    1.9761    2.9729 N   0  0  0  0  0  0  0  0  0  0  0  0
   14.1317    2.8252    1.9205 C   0  0  0  0  0  0  0  0  0  0  0  0
   13.1791    2.3667    1.0181 C   0  0  0  0  0  0  0  0  0  0  0  0
   13.0087    3.0458   -0.1854 C   0  0  0  0  0  0  0  0  0  0  0  0
   13.7955    4.1640   -0.4531 C   0  0  0  0  0  0  0  0  0  0  0  0
   14.7380    4.5926    0.4766 C   0  0  0  0  0  0  0  0  0  0  0  0
   14.9097    3.9251    1.6680 C   0  0  0  0  0  0  0  0  0  0  0  0
    6.8358   -2.0671    0.5840 N   0  0  0  0  0  0  0  0  0  0  0  0
    5.6972   -2.4474    1.3437 C   0  0  0  0  0  0  0  0  0  0  0  0
    5.9928   -3.0960    2.4372 O   0  0  0  0  0  0  0  0  0  0  0  0
    4.3059   -2.2349    1.1081 C   0  0  1  0  0  0  0  0  0  0  0  0
    3.9585   -1.5803   -0.1254 N   0  0  0  0  0  0  0  0  0  0  0  0
    2.6705   -0.9578   -0.2069 C   0  0  0  0  0  0  0  0  0  0  0  0
    1.9631   -1.0134    0.8158 O   0  0  0  0  0  0  0  0  0  0  0  0
    2.1928   -0.3219   -1.3734 N   0  0  0  0  0  0  0  0  0  0  0  0
    0.9760    0.2225   -1.6460 N   0  0  0  0  0  0  0  0  0  0  0  0
   -0.1910    0.2502   -0.8673 C   0  0  0  0  0  0  0  0  0  0  0  0
   -0.2901   -0.2253    0.2948 O   0  0  0  0  0  0  0  0  0  0  0  0
   -1.4586    0.8611   -1.3991 C   0  0  1  0  0  0  0  0  0  0  0  0
   -2.5413    0.6484   -0.4525 N   0  0  0  0  0  0  0  0  0  0  0  0
   -2.8872   -0.7247   -0.2340 C   0  0  0  0  0  0  0  0  0  0  0  0
   -2.2053   -1.5664   -0.8713 O   0  0  0  0  0  0  0  0  0  0  0  0
   -3.9760   -1.1605    0.6872 C   0  0  2  0  0  0  0  0  0  0  0  0
   -4.6146   -2.4388    0.2676 C   0  0  2  0  0  0  0  0  0  0  0  0
   -3.6814   -3.4334   -0.0585 O   0  0  0  0  0  0  0  0  0  0  0  0
   -5.5740   -2.2141   -0.8883 C   0  0  0  0  0  0  0  0  0  0  0  0
   -4.9424   -0.1727    1.0097 N   0  0  0  0  0  0  0  0  0  0  0  0
   -4.9500    0.7313    2.0881 C   0  0  0  0  0  0  0  0  0  0  0  0
   -4.0085    0.7855    2.9495 O   0  0  0  0  0  0  0  0  0  0  0  0
   -6.1295    1.6620    2.2071 C   0  0  1  0  0  0  0  0  0  0  0  0
   -7.2156    1.1988    1.3843 N   0  0  0  0  0  0  0  0  0  0  0  0
   -7.6541    1.7546    0.1631 C   0  0  0  0  0  0  0  0  0  0  0  0
   -7.0358    2.7576   -0.2644 O   0  0  0  0  0  0  0  0  0  0  0  0
   -8.8031    1.1746   -0.5960 C   0  0  1  0  0  0  0  0  0  0  0  0
   -8.4056    0.7713   -2.0093 C   0  0  0  0  0  0  0  0  0  0  0  0
   -9.6125    0.2105   -2.6658 C   0  0  0  0  0  0  0  0  0  0  0  0
  -10.4555    0.9284   -3.4879 C   0  0  0  0  0  0  0  0  0  0  0  0
  -11.4759    0.1277   -3.8760 N   0  0  0  0  0  0  0  0  0  0  0  0
  -11.3345   -1.0945   -3.3374 C   0  0  0  0  0  0  0  0  0  0  0  0
  -10.1606   -1.0411   -2.5771 C   0  0  0  0  0  0  0  0  0  0  0  0
   -9.7950   -2.1896   -1.9282 C   0  0  0  0  0  0  0  0  0  0  0  0
  -10.5470   -3.3500   -2.0130 C   0  0  0  0  0  0  0  0  0  0  0  0
  -11.7086   -3.3831   -2.7704 C   0  0  0  0  0  0  0  0  0  0  0  0
  -12.0935   -2.2408   -3.4321 C   0  0  0  0  0  0  0  0  0  0  0  0
   -9.3928    0.0823    0.1250 N   0  0  0  0  0  0  0  0  0  0  0  0
  -10.8513    0.1269    0.3194 C   0  0  0  0  0  0  0  0  0  0  0  0
  -11.3997    1.1028   -0.1699 O   0  0  0  0  0  0  0  0  0  0  0  0
  -11.4059   -0.9995    1.0606 C   0  0  0  0  0  0  0  0  0  0  0  0
  -12.9000   -0.9501    1.1433 C   0  0  0  0  0  0  0  0  0  0  0  0
  -13.3633    0.2524    1.8268 C   0  0  0  0  0  0  0  0  0  0  0  0
  -13.3297    0.2613    3.2127 C   0  0  0  0  0  0  0  0  0  0  0  0
  -13.7724    1.3174    3.9784 C   0  0  0  0  0  0  0  0  0  0  0  0
  -14.2870    2.4561    3.3545 C   0  0  0  0  0  0  0  0  0  0  0  0
  -14.3310    2.4655    1.9638 C   0  0  0  0  0  0  0  0  0  0  0  0
  -13.8740    1.3744    1.2229 C   0  0  0  0  0  0  0  0  0  0  0  0
  -14.7396    3.5356    4.1002 O   0  0  0  0  0  0  0  0  0  0  0  0
   -6.4878    1.8312    3.6466 C   0  0  0  0  0  0  0  0  0  0  0  0
   -7.6472    2.7436    3.8297 C   0  0  0  0  0  0  0  0  0  0  0  0
   -8.1520    3.0053    4.9571 O   0  0  0  0  0  0  0  0  0  0  0  0
   -8.2827    3.4011    2.7157 N   0  0  0  0  0  0  0  0  0  0  0  0
   -1.3197    2.1686   -2.0053 C   0  0  0  0  0  0  0  0  0  0  0  0
   -0.8071    3.2848   -1.2114 C   0  0  0  0  0  0  0  0  0  0  0  0
   -1.7480    4.0440   -0.5019 C   0  0  0  0  0  0  0  0  0  0  0  0
   -1.3085    5.1198    0.2544 C   0  0  0  0  0  0  0  0  0  0  0  0
    0.0281    5.4620    0.3266 C   0  0  0  0  0  0  0  0  0  0  0  0
    0.9643    4.7176   -0.3697 C   0  0  0  0  0  0  0  0  0  0  0  0
    0.4965    3.6426   -1.1211 C   0  0  0  0  0  0  0  0  0  0  0  0
    3.4541   -3.4901    1.2866 C   0  0  0  0  0  0  0  0  0  0  0  0
    3.7145   -4.6326    0.4251 C   0  0  0  0  0  0  0  0  0  0  0  0
    5.0957   -5.2226    0.5226 C   0  0  0  0  0  0  0  0  0  0  0  0
    3.3998   -4.4286   -1.0386 C   0  0  0  0  0  0  0  0  0  0  0  0
   10.5184   -0.4280   -4.5632 N   0  0  0  0  0  0  0  0  0  0  0  0
   13.7610   -1.0557   -3.8564 H   0  0  0  0  0  0  0  0  0  0  0  0
   12.5097    0.2025   -3.5623 H   0  0  0  0  0  0  0  0  0  0  0  0
   13.3091   -0.5600   -2.1485 H   0  0  0  0  0  0  0  0  0  0  0  0
    9.1533   -2.7659   -4.4195 H   0  0  0  0  0  0  0  0  0  0  0  0
    8.9118   -4.1700   -2.5506 H   0  0  0  0  0  0  0  0  0  0  0  0
   10.5514   -3.7237   -2.0682 H   0  0  0  0  0  0  0  0  0  0  0  0
    9.6862   -1.5799   -1.1242 H   0  0  0  0  0  0  0  0  0  0  0  0
    8.0395   -1.9808   -1.6813 H   0  0  0  0  0  0  0  0  0  0  0  0
    8.0437   -4.0534   -0.3109 H   0  0  0  0  0  0  0  0  0  0  0  0
    9.7247   -3.6526    0.3158 H   0  0  0  0  0  0  0  0  0  0  0  0
    8.0209   -3.1351    1.9302 H   0  0  0  0  0  0  0  0  0  0  0  0
    8.4466    0.1889    0.1269 H   0  0  0  0  0  0  0  0  0  0  0  0
   10.1012    0.5631    2.5731 H   0  0  0  0  0  0  0  0  0  0  0  0
   10.9611    2.9936    2.8691 H   0  0  0  0  0  0  0  0  0  0  0  0
   10.8930    4.1409    1.4486 H   0  0  0  0  0  0  0  0  0  0  0  0
   11.5466    0.4147   -0.1021 H   0  0  0  0  0  0  0  0  0  0  0  0
   11.6756   -0.6694    1.2825 H   0  0  0  0  0  0  0  0  0  0  0  0
   12.9651    0.2174    3.4696 H   0  0  0  0  0  0  0  0  0  0  0  0
   14.7063    2.0507    3.8274 H   0  0  0  0  0  0  0  0  0  0  0  0
   12.2652    2.6741   -0.8837 H   0  0  0  0  0  0  0  0  0  0  0  0
   13.6287    4.6409   -1.3972 H   0  0  0  0  0  0  0  0  0  0  0  0
   15.3336    5.4718    0.2218 H   0  0  0  0  0  0  0  0  0  0  0  0
   15.6468    4.2627    2.3975 H   0  0  0  0  0  0  0  0  0  0  0  0
    6.6611   -1.5353   -0.2859 H   0  0  0  0  0  0  0  0  0  0  0  0
    3.8635   -1.5652    1.9066 H   0  0  0  0  0  0  0  0  0  0  0  0
    4.5567   -1.5161   -0.9703 H   0  0  0  0  0  0  0  0  0  0  0  0
    2.9229   -0.2724   -2.1596 H   0  0  0  0  0  0  0  0  0  0  0  0
    0.8815    0.7129   -2.5948 H   0  0  0  0  0  0  0  0  0  0  0  0
   -1.7039    0.0976   -2.2229 H   0  0  0  0  0  0  0  0  0  0  0  0
   -3.0479    1.4009    0.0441 H   0  0  0  0  0  0  0  0  0  0  0  0
   -3.4251   -1.3574    1.6657 H   0  0  0  0  0  0  0  0  0  0  0  0
   -5.1781   -2.8339    1.1248 H   0  0  0  0  0  0  0  0  0  0  0  0
   -4.0911   -3.9771   -0.7885 H   0  0  0  0  0  0  0  0  0  0  0  0
   -5.4040   -3.0332   -1.6106 H   0  0  0  0  0  0  0  0  0  0  0  0
   -5.2233   -1.2458   -1.3542 H   0  0  0  0  0  0  0  0  0  0  0  0
   -6.5996   -2.1233   -0.5155 H   0  0  0  0  0  0  0  0  0  0  0  0
   -5.7738   -0.1018    0.3440 H   0  0  0  0  0  0  0  0  0  0  0  0
   -5.8328    2.6663    1.7980 H   0  0  0  0  0  0  0  0  0  0  0  0
   -7.7302    0.3432    1.7521 H   0  0  0  0  0  0  0  0  0  0  0  0
   -9.5383    2.0087   -0.7259 H   0  0  0  0  0  0  0  0  0  0  0  0
   -7.6002    0.0094   -2.0110 H   0  0  0  0  0  0  0  0  0  0  0  0
   -8.0801    1.6924   -2.5406 H   0  0  0  0  0  0  0  0  0  0  0  0
  -10.3343    1.9671   -3.7849 H   0  0  0  0  0  0  0  0  0  0  0  0
  -12.2924    0.3727   -4.5116 H   0  0  0  0  0  0  0  0  0  0  0  0
   -8.8971   -2.2027   -1.3456 H   0  0  0  0  0  0  0  0  0  0  0  0
  -10.2935   -4.2678   -1.5132 H   0  0  0  0  0  0  0  0  0  0  0  0
  -12.3262   -4.2656   -2.8601 H   0  0  0  0  0  0  0  0  0  0  0  0
  -12.9960   -2.2616   -4.0162 H   0  0  0  0  0  0  0  0  0  0  0  0
   -8.8608   -0.7159    0.5144 H   0  0  0  0  0  0  0  0  0  0  0  0
  -10.9501   -1.0369    2.0976 H   0  0  0  0  0  0  0  0  0  0  0  0
  -11.1644   -1.9890    0.5742 H   0  0  0  0  0  0  0  0  0  0  0  0
  -13.3143   -1.8793    1.6097 H   0  0  0  0  0  0  0  0  0  0  0  0
  -13.2691   -0.9945    0.0781 H   0  0  0  0  0  0  0  0  0  0  0  0
  -12.9446   -0.5973    3.7792 H   0  0  0  0  0  0  0  0  0  0  0  0
  -13.7395    1.3097    5.0559 H   0  0  0  0  0  0  0  0  0  0  0  0
  -14.7292    3.3228    1.4072 H   0  0  0  0  0  0  0  0  0  0  0  0
  -13.9674    1.4463    0.1605 H   0  0  0  0  0  0  0  0  0  0  0  0
  -14.4495    4.4784    3.9563 H   0  0  0  0  0  0  0  0  0  0  0  0
   -5.5779    2.1707    4.1842 H   0  0  0  0  0  0  0  0  0  0  0  0
   -6.8281    0.8280    4.0129 H   0  0  0  0  0  0  0  0  0  0  0  0
   -9.2650    3.1065    2.5373 H   0  0  0  0  0  0  0  0  0  0  0  0
   -7.7467    4.1085    2.1779 H   0  0  0  0  0  0  0  0  0  0  0  0
   -0.7411    2.0435   -2.9708 H   0  0  0  0  0  0  0  0  0  0  0  0
   -2.3408    2.4829   -2.3954 H   0  0  0  0  0  0  0  0  0  0  0  0
   -2.8013    3.7926   -0.5435 H   0  0  0  0  0  0  0  0  0  0  0  0
   -2.0060    5.7366    0.8213 H   0  0  0  0  0  0  0  0  0  0  0  0
    0.3531    6.3080    0.9246 H   0  0  0  0  0  0  0  0  0  0  0  0
    2.0270    4.9575   -0.3343 H   0  0  0  0  0  0  0  0  0  0  0  0
    1.2500    3.0906   -1.6553 H   0  0  0  0  0  0  0  0  0  0  0  0
    3.7051   -3.8034    2.3515 H   0  0  0  0  0  0  0  0  0  0  0  0
    2.3990   -3.1824    1.3526 H   0  0  0  0  0  0  0  0  0  0  0  0
    3.0172   -5.4669    0.7636 H   0  0  0  0  0  0  0  0  0  0  0  0
    5.0730   -6.1733   -0.1011 H   0  0  0  0  0  0  0  0  0  0  0  0
    5.3173   -5.6012    1.5446 H   0  0  0  0  0  0  0  0  0  0  0  0
    5.8556   -4.6001    0.0622 H   0  0  0  0  0  0  0  0  0  0  0  0
    3.2896   -5.4330   -1.4959 H   0  0  0  0  0  0  0  0  0  0  0  0
    4.1598   -3.8883   -1.5996 H   0  0  0  0  0  0  0  0  0  0  0  0
    2.3747   -3.9698   -1.1240 H   0  0  0  0  0  0  0  0  0  0  0  0
   10.3692    0.5266   -4.1834 H   0  0  0  0  0  0  0  0  0  0  0  0
   10.4886   -0.5426   -5.6049 H   0  0  0  0  0  0  0  0  0  0  0  0
  1  2  1  0
  2  3  2  3
  3  4  1  0
  4  5  1  0
  5  6  1  0
  6  7  1  0
  7  8  1  0
  8  9  1  0
  9 10  2  0
  9 11  1  0
 11 12  1  0
 12 13  1  0
 13 14  2  0
 13 15  1  0
 12 16  1  0
 16 17  1  0
 17 18  2  0
 18 19  1  0
 19 20  1  0
 20 21  2  0
 21 22  1  0
 22 23  2  0
 23 24  1  0
 24 25  2  0
  8 26  1  0
 26 27  1  0
 27 28  2  0
 27 29  1  0
 29 30  1  0
 30 31  1  0
 31 32  2  0
 31 33  1  0
 33 34  1  0
 34 35  1  0
 35 36  2  0
 35 37  1  0
 37 38  1  0
 38 39  1  0
 39 40  2  0
 39 41  1  0
 41 42  1  0
 42 43  1  0
 42 44  1  0
 41 45  1  0
 45 46  1  0
 46 47  2  0
 46 48  1  0
 48 49  1  0
 49 50  1  0
 50 51  2  0
 50 52  1  0
 52 53  1  0
 53 54  1  0
 54 55  2  0
 55 56  1  0
 56 57  1  0
 57 58  2  0
 58 59  1  0
 59 60  2  0
 60 61  1  0
 61 62  2  0
 52 63  1  0
 63 64  1  0
 64 65  2  0
 64 66  1  0
 66 67  1  0
 67 68  1  0
 68 69  2  0
 69 70  1  0
 70 71  2  0
 71 72  1  0
 72 73  2  0
 71 74  1  0
 48 75  1  0
 75 76  1  0
 76 77  2  0
 76 78  1  0
 37 79  1  0
 79 80  1  0
 80 81  2  0
 81 82  1  0
 82 83  2  0
 83 84  1  0
 84 85  2  0
 29 86  1  0
 86 87  1  0
 87 88  1  0
 87 89  1  0
  3 90  1  0
 21 17  1  0
 58 54  1  0
 73 68  1  0
 85 80  1  0
 25 20  1  0
 62 57  1  0
  1 91  1  0
  1 92  1  0
  1 93  1  0
  4 94  1  0
  5 95  1  0
  5 96  1  0
  6 97  1  0
  6 98  1  0
  7 99  1  0
  7100  1  0
  8101  1  1
 11102  1  0
 12103  1  1
 15104  1  0
 15105  1  0
 16106  1  0
 16107  1  0
 18108  1  0
 19109  1  0
 22110  1  0
 23111  1  0
 24112  1  0
 25113  1  0
 26114  1  0
 29115  1  1
 30116  1  0
 33117  1  0
 34118  1  0
 37119  1  6
 38120  1  0
 41121  1  1
 42122  1  1
 43123  1  0
 44124  1  0
 44125  1  0
 44126  1  0
 45127  1  0
 48128  1  6
 49129  1  0
 52130  1  6
 53131  1  0
 53132  1  0
 55133  1  0
 56134  1  0
 59135  1  0
 60136  1  0
 61137  1  0
 62138  1  0
 63139  1  0
 66140  1  0
 66141  1  0
 67142  1  0
 67143  1  0
 69144  1  0
 70145  1  0
 72146  1  0
 73147  1  0
 74148  1  0
 75149  1  0
 75150  1  0
 78151  1  0
 78152  1  0
 79153  1  0
 79154  1  0
 81155  1  0
 82156  1  0
 83157  1  0
 84158  1  0
 85159  1  0
 86160  1  0
 86161  1  0
 87162  1  0
 88163  1  0
 88164  1  0
 88165  1  0
 89166  1  0
 89167  1  0
 89168  1  0
 90169  1  0
 90170  1  0
M  END
>  <Ligand ID>  (1) 
LIG0005344

>  <Ligand>  (1) 
CHEMBL3314223

>  <SMILES>  (1) 
CN=C(NCCC[C@@H](C(=O)N[C@H](C(=O)N)Cc1c[nH]c2c1cccc2)NC(=O)[C@@H](NC(=O)NNC(=O)[C@@H](NC(=O)[C@H]([C@H](O)C)NC(=O)[C@@H](NC(=O)[C@@H](Cc1c[nH]c2c1cccc2)NC(=O)CCc1ccc(cc1)O)CC(=O)N)Cc1ccccc1)CC(C)C)N

>  <CID>  (1) 
118707492.0

>  <ChEMBL ID>  (1) 
nan

>  <InChiKey>  (1) 
XJNLUQXTCXBGRF-UNALUGIBSA-N

>  <InChi>  (1) 
InChI=1S/C62H80N16O12/c1-34(2)27-47(56(85)71-45(19-12-26-67-61(65)66-4)55(84)72-46(54(64)83)29-38-32-68-43-17-10-8-15-41(38)43)75-62(90)78-77-59(88)48(28-37-13-6-5-7-14-37)74-60(89)53(35(3)79)76-58(87)50(31-51(63)81)73-57(86)49(30-39-33-69-44-18-11-9-16-42(39)44)70-52(82)25-22-36-20-23-40(80)24-21-36/h5-11,13-18,20-21,23-24,32-35,45-50,53,68-69,79-80H,12,19,22,25-31H2,1-4H3,(H2,63,81)(H2,64,83)(H,70,82)(H,71,85)(H,72,84)(H,73,86)(H,74,89)(H,76,87)(H,77,88)(H3,65,66,67)(H2,75,78,90)/t35-,45+,46+,47+,48+,49-,50+,53+/m1/s1

>  <IUPAC Name>  (1) 
(2S)-N-[(2S,3R)-1-[[(2S)-1-[2-[[(2S)-1-[[(2S)-1-[[(2S)-1-amino-3-(1H-indol-3-yl)-1-oxopropan-2-yl]amino]-5-[(N'-methylcarbamimidoyl)amino]-1-oxopentan-2-yl]amino]-4-methyl-1-oxopentan-2-yl]carbamoyl]hydrazinyl]-1-oxo-3-phenylpropan-2-yl]amino]-3-hydroxy-1-oxobutan-2-yl]-2-[[(2R)-2-[3-(4-hydroxyphenyl)propanoylamino]-3-(1H-indol-3-yl)propanoyl]amino]butanediamide

$$$$
