
     RDKit          3D

 20 19  0  0  0  0  0  0  0  0999 V2000
   -2.5416    0.8730   -0.6460 C   0  0  0  0  0  0  0  0  0  0  0  0
   -2.2690   -0.3790    0.1221 C   0  0  0  0  0  0  0  0  0  0  0  0
   -0.7955   -0.6888    0.2449 C   0  0  0  0  0  0  0  0  0  0  0  0
   -0.0444    0.4153    0.9528 C   0  0  0  0  0  0  0  0  0  0  0  0
    1.3393    0.1345    1.0732 O   0  0  0  0  0  0  0  0  0  0  0  0
    2.1870   -0.0735   -0.0069 C   0  0  0  0  0  0  0  0  0  0  0  0
    1.7436   -0.0191   -1.1874 O   0  0  0  0  0  0  0  0  0  0  0  0
    3.6160   -0.3576    0.3043 C   0  0  0  0  0  0  0  0  0  0  0  0
   -3.4937    0.7272   -1.2327 H   0  0  0  0  0  0  0  0  0  0  0  0
   -2.7975    1.7103    0.0512 H   0  0  0  0  0  0  0  0  0  0  0  0
   -1.7721    1.1462   -1.3668 H   0  0  0  0  0  0  0  0  0  0  0  0
   -2.6648   -0.3087    1.1740 H   0  0  0  0  0  0  0  0  0  0  0  0
   -2.7534   -1.2550   -0.3556 H   0  0  0  0  0  0  0  0  0  0  0  0
   -0.3964   -0.8734   -0.7719 H   0  0  0  0  0  0  0  0  0  0  0  0
   -0.6926   -1.6389    0.8014 H   0  0  0  0  0  0  0  0  0  0  0  0
   -0.2474    1.3486    0.4155 H   0  0  0  0  0  0  0  0  0  0  0  0
   -0.4183    0.4720    1.9959 H   0  0  0  0  0  0  0  0  0  0  0  0
    3.7584   -1.2023    1.0043 H   0  0  0  0  0  0  0  0  0  0  0  0
    4.1214    0.5217    0.7658 H   0  0  0  0  0  0  0  0  0  0  0  0
    4.1211   -0.5526   -0.6608 H   0  0  0  0  0  0  0  0  0  0  0  0
  1  2  1  0
  2  3  1  0
  3  4  1  0
  4  5  1  0
  5  6  1  0
  6  7  2  0
  6  8  1  0
  1  9  1  0
  1 10  1  0
  1 11  1  0
  2 12  1  0
  2 13  1  0
  3 14  1  0
  3 15  1  0
  4 16  1  0
  4 17  1  0
  8 18  1  0
  8 19  1  0
  8 20  1  0
M  END
>  <Ligand ID>  (1) 
LIG0000044

>  <Ligand>  (1) 
butyl acetate

>  <SMILES>  (1) 
CCCCOC(=O)C

>  <CID>  (1) 
31272.0

>  <ChEMBL ID>  (1) 
nan

>  <InChiKey>  (1) 
DKPFZGUDAPQIHT-UHFFFAOYSA-N

>  <InChi>  (1) 
InChI=1S/C6H12O2/c1-3-4-5-8-6(2)7/h3-5H2,1-2H3

>  <IUPAC Name>  (1) 
butyl acetate

$$$$
