
     RDKit          3D

 16 15  0  0  0  0  0  0  0  0999 V2000
    2.4331    0.0334   -0.0226 C   0  0  0  0  0  0  0  0  0  0  0  0
    1.1394   -0.5376    0.5149 C   0  0  0  0  0  0  0  0  0  0  0  0
   -0.0611    0.2433    0.0398 C   0  0  0  0  0  0  0  0  0  0  0  0
   -1.3285   -0.3134    0.5643 C   0  0  0  0  0  0  0  0  0  0  0  0
   -1.3468   -1.2915    1.2924 O   0  0  0  0  0  0  0  0  0  0  0  0
   -2.5988    0.3548    0.1793 C   0  0  0  0  0  0  0  0  0  0  0  0
    3.2487   -0.6987    0.1487 H   0  0  0  0  0  0  0  0  0  0  0  0
    2.6153    0.9976    0.4845 H   0  0  0  0  0  0  0  0  0  0  0  0
    2.4072    0.2174   -1.1132 H   0  0  0  0  0  0  0  0  0  0  0  0
    1.1753   -0.4669    1.6195 H   0  0  0  0  0  0  0  0  0  0  0  0
    1.0148   -1.6005    0.2218 H   0  0  0  0  0  0  0  0  0  0  0  0
    0.0931    1.3011    0.3340 H   0  0  0  0  0  0  0  0  0  0  0  0
   -0.0493    0.2165   -1.0665 H   0  0  0  0  0  0  0  0  0  0  0  0
   -3.3821   -0.4207    0.0652 H   0  0  0  0  0  0  0  0  0  0  0  0
   -2.8668    1.0078    1.0525 H   0  0  0  0  0  0  0  0  0  0  0  0
   -2.4935    0.9574   -0.7435 H   0  0  0  0  0  0  0  0  0  0  0  0
  1  2  1  0
  2  3  1  0
  3  4  1  0
  4  5  2  0
  4  6  1  0
  1  7  1  0
  1  8  1  0
  1  9  1  0
  2 10  1  0
  2 11  1  0
  3 12  1  0
  3 13  1  0
  6 14  1  0
  6 15  1  0
  6 16  1  0
M  END
>  <Ligand ID>  (1) 
LIG0000123

>  <Ligand>  (1) 
2-Pentanone

>  <SMILES>  (1) 
CCCC(=O)C

>  <CID>  (1) 
7895.0

>  <ChEMBL ID>  (1) 
nan

>  <InChiKey>  (1) 
XNLICIUVMPYHGG-UHFFFAOYSA-N

>  <InChi>  (1) 
InChI=1S/C5H10O/c1-3-4-5(2)6/h3-4H2,1-2H3

>  <IUPAC Name>  (1) 
pentan-2-one

$$$$
