
     RDKit          3D

 23 24  0  0  0  0  0  0  0  0999 V2000
   -2.7376    1.1310   -0.4103 N   0  0  0  0  0  0  0  0  0  0  0  0
   -1.3027    1.1611   -0.1220 C   0  0  0  0  0  0  0  0  0  0  0  0
   -1.1670    0.3293    1.1642 C   0  0  2  0  0  0  0  0  0  0  0  0
    0.1279    0.2367    1.6093 O   0  0  0  0  0  0  0  0  0  0  0  0
    0.7311   -0.8389    0.9953 C   0  0  1  0  0  0  0  0  0  0  0  0
   -0.3740   -1.7947    0.6546 C   0  0  0  0  0  0  0  0  0  0  0  0
   -1.4802   -1.0676    0.7656 C   0  0  0  0  0  0  0  0  0  0  0  0
    1.4762   -0.3789   -0.1783 C   0  0  0  0  0  0  0  0  0  0  0  0
    1.5519   -0.9154   -1.4642 C   0  0  0  0  0  0  0  0  0  0  0  0
    2.3617   -0.1388   -2.1879 N   0  0  0  0  0  0  0  0  0  0  0  0
    2.7955    0.8628   -1.4044 C   0  0  0  0  0  0  0  0  0  0  0  0
    2.2598    0.7156   -0.1928 N   0  0  0  0  0  0  0  0  0  0  0  0
   -2.9923    0.1247   -0.5256 H   0  0  0  0  0  0  0  0  0  0  0  0
   -3.2689    1.5278    0.3974 H   0  0  0  0  0  0  0  0  0  0  0  0
   -0.9290    2.1652    0.0593 H   0  0  0  0  0  0  0  0  0  0  0  0
   -0.8275    0.6364   -0.9600 H   0  0  0  0  0  0  0  0  0  0  0  0
   -1.8678    0.7084    1.9368 H   0  0  0  0  0  0  0  0  0  0  0  0
    1.4086   -1.3586    1.7214 H   0  0  0  0  0  0  0  0  0  0  0  0
   -0.2260   -2.8263    0.3888 H   0  0  0  0  0  0  0  0  0  0  0  0
   -2.4666   -1.5133    0.5710 H   0  0  0  0  0  0  0  0  0  0  0  0
    1.0315   -1.8024   -1.7749 H   0  0  0  0  0  0  0  0  0  0  0  0
    3.4712    1.6772   -1.6754 H   0  0  0  0  0  0  0  0  0  0  0  0
    2.4240    1.3588    0.6321 H   0  0  0  0  0  0  0  0  0  0  0  0
  1  2  1  0
  2  3  1  0
  3  4  1  0
  4  5  1  0
  5  6  1  0
  6  7  2  0
  5  8  1  0
  8  9  2  0
  9 10  1  0
 10 11  2  0
 11 12  1  0
  7  3  1  0
 12  8  1  0
  1 13  1  0
  1 14  1  0
  2 15  1  0
  2 16  1  0
  3 17  1  1
  5 18  1  1
  6 19  1  0
  7 20  1  0
  9 21  1  0
 11 22  1  0
 12 23  1  0
M  END
>  <Ligand ID>  (1) 
LIG0005769

>  <Ligand>  (1) 
CHEMBL107877

>  <SMILES>  (1) 
NC[C@@H]1O[C@@H](C=C1)c1cnc[nH]1

>  <CID>  (1) 
10820930.0

>  <ChEMBL ID>  (1) 
nan

>  <InChiKey>  (1) 
DCDBUDNURLZBED-SVRRBLITSA-N

>  <InChi>  (1) 
InChI=1S/C8H11N3O/c9-3-6-1-2-8(12-6)7-4-10-5-11-7/h1-2,4-6,8H,3,9H2,(H,10,11)/t6-,8+/m1/s1

>  <IUPAC Name>  (1) 
[(2R,5S)-5-(1H-imidazol-5-yl)-2,5-dihydrofuran-2-yl]methanamine

$$$$
