
     RDKit          3D

 24 23  0  0  0  0  0  0  0  0999 V2000
    3.6750    1.2530    0.4495 C   0  0  0  0  0  0  0  0  0  0  0  0
    2.6093    0.8072   -0.5511 C   0  0  0  0  0  0  0  0  0  0  0  0
    2.3142   -0.6210   -0.2777 C   0  0  0  0  0  0  0  0  0  0  0  0
    1.1381   -1.1076    0.0621 C   0  0  0  0  0  0  0  0  0  0  0  0
   -0.1079   -0.3457    0.2379 C   0  0  0  0  0  0  0  0  0  0  0  0
   -1.1217   -0.9092   -0.7631 C   0  0  0  0  0  0  0  0  0  0  0  0
   -2.3620   -0.2813   -0.7153 O   0  0  0  0  0  0  0  0  0  0  0  0
   -3.1312   -0.2820    0.4383 C   0  0  0  0  0  0  0  0  0  0  0  0
   -2.7839   -0.8360    1.5121 O   0  0  0  0  0  0  0  0  0  0  0  0
   -4.4676    0.4043    0.4643 C   0  0  0  0  0  0  0  0  0  0  0  0
    4.6991    0.9512    0.0986 H   0  0  0  0  0  0  0  0  0  0  0  0
    3.6043    2.3272    0.6839 H   0  0  0  0  0  0  0  0  0  0  0  0
    3.4929    0.6936    1.3971 H   0  0  0  0  0  0  0  0  0  0  0  0
    3.1446    0.8407   -1.5476 H   0  0  0  0  0  0  0  0  0  0  0  0
    1.7447    1.4619   -0.5472 H   0  0  0  0  0  0  0  0  0  0  0  0
    3.1749   -1.3081   -0.3760 H   0  0  0  0  0  0  0  0  0  0  0  0
    1.0843   -2.1893    0.2301 H   0  0  0  0  0  0  0  0  0  0  0  0
   -0.0406    0.7325    0.0147 H   0  0  0  0  0  0  0  0  0  0  0  0
   -0.5103   -0.3999    1.2720 H   0  0  0  0  0  0  0  0  0  0  0  0
   -1.2215   -1.9875   -0.5122 H   0  0  0  0  0  0  0  0  0  0  0  0
   -0.6789   -0.8164   -1.7671 H   0  0  0  0  0  0  0  0  0  0  0  0
   -5.1548   -0.2793    1.0137 H   0  0  0  0  0  0  0  0  0  0  0  0
   -4.7870    0.5112   -0.5853 H   0  0  0  0  0  0  0  0  0  0  0  0
   -4.3141    1.3806    0.9621 H   0  0  0  0  0  0  0  0  0  0  0  0
  1  2  1  0
  2  3  1  0
  3  4  2  0
  4  5  1  0
  5  6  1  0
  6  7  1  0
  7  8  1  0
  8  9  2  0
  8 10  1  0
  1 11  1  0
  1 12  1  0
  1 13  1  0
  2 14  1  0
  2 15  1  0
  3 16  1  0
  4 17  1  0
  5 18  1  0
  5 19  1  0
  6 20  1  0
  6 21  1  0
 10 22  1  0
 10 23  1  0
 10 24  1  0
M  END
>  <Ligand ID>  (1) 
LIG0000531

>  <Ligand>  (1) 
(Z)-3-Hexen-1-yl acetate

>  <SMILES>  (1) 
CC/C=C\CCOC(=O)C

>  <CID>  (1) 
5363388.0

>  <ChEMBL ID>  (1) 
nan

>  <InChiKey>  (1) 
NPFVOOAXDOBMCE-PLNGDYQASA-N

>  <InChi>  (1) 
InChI=1S/C8H14O2/c1-3-4-5-6-7-10-8(2)9/h4-5H,3,6-7H2,1-2H3/b5-4-

>  <IUPAC Name>  (1) 
[(Z)-hex-3-enyl] acetate

$$$$
