
     RDKit          3D

 62 64  0  0  0  0  0  0  0  0999 V2000
   -7.4914    2.6081   -0.0127 C   0  0  0  0  0  0  0  0  0  0  0  0
   -7.0688    1.6944   -1.0830 C   0  0  0  0  0  0  0  0  0  0  0  0
   -6.1270    0.7921   -0.8629 C   0  0  0  0  0  0  0  0  0  0  0  0
   -5.4285    0.6149    0.4303 C   0  0  0  0  0  0  0  0  0  0  0  0
   -3.9438    0.8188    0.3205 C   0  0  0  0  0  0  0  0  0  0  0  0
   -3.2844   -0.1279   -0.6342 C   0  0  0  0  0  0  0  0  0  0  0  0
   -3.5026   -1.5583   -0.2110 C   0  0  1  0  0  0  0  0  0  0  0  0
   -2.8098   -2.4347   -1.2177 C   0  0  0  0  0  0  0  0  0  0  0  0
   -1.3693   -2.6939   -0.9162 C   0  0  0  0  0  0  0  0  0  0  0  0
   -0.7891   -1.8278    0.1303 C   0  0  0  0  0  0  0  0  0  0  0  0
   -1.5525   -1.3337    1.1762 C   0  0  0  0  0  0  0  0  0  0  0  0
   -2.9988   -1.7374    1.1791 C   0  0  0  0  0  0  0  0  0  0  0  0
   -1.0474   -0.5254    2.1632 C   0  0  0  0  0  0  0  0  0  0  0  0
    0.3093   -0.1943    2.0927 C   0  0  0  0  0  0  0  0  0  0  0  0
    1.0939   -0.6717    1.0631 C   0  0  0  0  0  0  0  0  0  0  0  0
    0.5432   -1.4946    0.0735 C   0  0  0  0  0  0  0  0  0  0  0  0
    2.5293   -0.3129    1.0014 C   0  0  1  0  0  0  0  0  0  0  0  0
    3.4333   -1.5017    0.9466 C   0  0  0  0  0  0  0  0  0  0  0  0
    4.7612   -0.8716    0.5815 C   0  0  0  0  0  0  0  0  0  0  0  0
    4.3384    0.1105   -0.5137 C   0  0  2  0  0  0  0  0  0  0  0  0
    2.8850    0.4439   -0.2560 C   0  0  0  0  0  0  0  0  0  0  0  0
    4.4883   -0.5805   -1.7725 N   0  0  0  0  0  0  0  0  0  0  0  0
    5.1673    1.3754   -0.4390 C   0  0  0  0  0  0  0  0  0  0  0  0
    6.5192    1.0407   -0.5952 O   0  0  0  0  0  0  0  0  0  0  0  0
    7.5374    2.3697   -0.5212 P   0  0  0  0  0  0  0  0  0  0  0  0
    7.8897    2.6554    0.9347 O   0  0  0  0  0  0  0  0  0  0  0  0
    6.8661    3.7691   -1.1804 O   0  0  0  0  0  0  0  0  0  0  0  0
    8.9977    1.9680   -1.2917 O   0  0  0  0  0  0  0  0  0  0  0  0
   -8.4375    3.1169   -0.3573 H   0  0  0  0  0  0  0  0  0  0  0  0
   -6.7582    3.4509    0.1057 H   0  0  0  0  0  0  0  0  0  0  0  0
   -7.7436    2.1305    0.9394 H   0  0  0  0  0  0  0  0  0  0  0  0
   -7.5057    1.7234   -2.0808 H   0  0  0  0  0  0  0  0  0  0  0  0
   -5.8278    0.1223   -1.6736 H   0  0  0  0  0  0  0  0  0  0  0  0
   -5.6107   -0.4047    0.8173 H   0  0  0  0  0  0  0  0  0  0  0  0
   -5.8057    1.3086    1.2119 H   0  0  0  0  0  0  0  0  0  0  0  0
   -3.5151    0.7667    1.3404 H   0  0  0  0  0  0  0  0  0  0  0  0
   -3.7037    1.8491   -0.0494 H   0  0  0  0  0  0  0  0  0  0  0  0
   -3.6001    0.0489   -1.6867 H   0  0  0  0  0  0  0  0  0  0  0  0
   -2.1728    0.0350   -0.6583 H   0  0  0  0  0  0  0  0  0  0  0  0
   -4.6066   -1.7569   -0.3017 H   0  0  0  0  0  0  0  0  0  0  0  0
   -3.3436   -3.4081   -1.1933 H   0  0  0  0  0  0  0  0  0  0  0  0
   -2.9646   -1.9982   -2.2198 H   0  0  0  0  0  0  0  0  0  0  0  0
   -0.7883   -2.4846   -1.8629 H   0  0  0  0  0  0  0  0  0  0  0  0
   -1.1556   -3.7503   -0.6584 H   0  0  0  0  0  0  0  0  0  0  0  0
   -2.9777   -2.8275    1.4079 H   0  0  0  0  0  0  0  0  0  0  0  0
   -3.5910   -1.1626    1.8887 H   0  0  0  0  0  0  0  0  0  0  0  0
   -1.6713   -0.1438    2.9843 H   0  0  0  0  0  0  0  0  0  0  0  0
    0.7361    0.4496    2.8673 H   0  0  0  0  0  0  0  0  0  0  0  0
    1.1813   -1.8673   -0.7414 H   0  0  0  0  0  0  0  0  0  0  0  0
    2.7889    0.3248    1.8443 H   0  0  0  0  0  0  0  0  0  0  0  0
    3.4810   -2.0499    1.9183 H   0  0  0  0  0  0  0  0  0  0  0  0
    3.0994   -2.1830    0.1146 H   0  0  0  0  0  0  0  0  0  0  0  0
    5.0821   -0.3055    1.4788 H   0  0  0  0  0  0  0  0  0  0  0  0
    5.4974   -1.5979    0.2071 H   0  0  0  0  0  0  0  0  0  0  0  0
    2.7397    1.5323   -0.0617 H   0  0  0  0  0  0  0  0  0  0  0  0
    2.2061    0.1105   -1.0646 H   0  0  0  0  0  0  0  0  0  0  0  0
    4.4575   -1.6066   -1.6436 H   0  0  0  0  0  0  0  0  0  0  0  0
    5.3318   -0.2918   -2.2795 H   0  0  0  0  0  0  0  0  0  0  0  0
    5.0297    1.7988    0.5681 H   0  0  0  0  0  0  0  0  0  0  0  0
    4.8219    2.0530   -1.2329 H   0  0  0  0  0  0  0  0  0  0  0  0
    6.4454    3.5377   -2.0624 H   0  0  0  0  0  0  0  0  0  0  0  0
    8.9351    1.0854   -1.7361 H   0  0  0  0  0  0  0  0  0  0  0  0
  1  2  1  0
  2  3  2  0
  3  4  1  0
  4  5  1  0
  5  6  1  0
  6  7  1  0
  7  8  1  0
  8  9  1  0
  9 10  1  0
 10 11  2  0
 11 12  1  0
 11 13  1  0
 13 14  2  0
 14 15  1  0
 15 16  2  0
 15 17  1  0
 17 18  1  0
 18 19  1  0
 19 20  1  0
 20 21  1  0
 20 22  1  6
 20 23  1  0
 23 24  1  0
 24 25  1  0
 25 26  2  0
 25 27  1  0
 25 28  1  0
 12  7  1  0
 21 17  1  0
 16 10  1  0
  1 29  1  0
  1 30  1  0
  1 31  1  0
  2 32  1  0
  3 33  1  0
  4 34  1  0
  4 35  1  0
  5 36  1  0
  5 37  1  0
  6 38  1  0
  6 39  1  0
  7 40  1  1
  8 41  1  0
  8 42  1  0
  9 43  1  0
  9 44  1  0
 12 45  1  0
 12 46  1  0
 13 47  1  0
 14 48  1  0
 16 49  1  0
 17 50  1  1
 18 51  1  0
 18 52  1  0
 19 53  1  0
 19 54  1  0
 21 55  1  0
 21 56  1  0
 22 57  1  0
 22 58  1  0
 23 59  1  0
 23 60  1  0
 27 61  1  0
 28 62  1  0
M  END
>  <Ligand ID>  (1) 
LIG0005590

>  <Ligand>  (1) 
BDBM65349

>  <SMILES>  (1) 
C/C=C\CCC[C@H]1CCc2c(C1)ccc(c2)[C@H]1CC[C@](C1)(N)COP(=O)(O)O

>  <CID>  (1) 
131953780.0

>  <ChEMBL ID>  (1) 
nan

>  <InChiKey>  (1) 
SUDIYZHHZHUABB-JQIHXWGVSA-N

>  <InChi>  (1) 
InChI=1S/C22H34NO4P/c1-2-3-4-5-6-17-7-8-19-14-20(10-9-18(19)13-17)21-11-12-22(23,15-21)16-27-28(24,25)26/h2-3,9-10,14,17,21H,4-8,11-13,15-16,23H2,1H3,(H2,24,25,26)/b3-2-/t17-,21-,22+/m0/s1

>  <IUPAC Name>  (1) 
[(1R,3S)-1-amino-3-[(6S)-6-[(Z)-hex-4-enyl]-5,6,7,8-tetrahydronaphthalen-2-yl]cyclopentyl]methyl dihydrogen phosphate

$$$$
