
     RDKit          3D

 35 37  0  0  0  0  0  0  0  0999 V2000
   -5.1283   -1.9901    0.7020 C   0  0  0  0  0  0  0  0  0  0  0  0
   -3.7603   -1.4450    0.5245 C   0  0  0  0  0  0  0  0  0  0  0  0
   -2.5820   -2.0753    0.4256 N   0  0  0  0  0  0  0  0  0  0  0  0
   -1.6299   -1.2040    0.2779 N   0  0  0  0  0  0  0  0  0  0  0  0
   -2.1388    0.0273    0.2735 C   0  0  0  0  0  0  0  0  0  0  0  0
   -3.4726   -0.1396    0.4286 N   0  0  0  0  0  0  0  0  0  0  0  0
   -1.5325    1.3390    0.1423 C   0  0  0  0  0  0  0  0  0  0  0  0
   -2.3113    2.4854    0.1717 C   0  0  0  0  0  0  0  0  0  0  0  0
   -1.8342    3.7523    0.0569 C   0  0  0  0  0  0  0  0  0  0  0  0
   -0.4802    3.9308   -0.1011 C   0  0  0  0  0  0  0  0  0  0  0  0
    0.3128    2.8274   -0.1342 C   0  0  0  0  0  0  0  0  0  0  0  0
   -0.1772    1.5220   -0.0160 C   0  0  0  0  0  0  0  0  0  0  0  0
    0.7344    0.4433   -0.0634 N   0  0  0  0  0  0  0  0  0  0  0  0
    2.1634    0.7510   -0.2359 C   0  0  0  0  0  0  0  0  0  0  0  0
    3.0083   -0.4442   -0.2700 C   0  0  0  0  0  0  0  0  0  0  0  0
    3.7762   -0.8080   -1.2592 N   0  0  0  0  0  0  0  0  0  0  0  0
    4.4586   -2.0562   -0.9115 C   0  0  0  0  0  0  0  0  0  0  0  0
    4.3707   -2.1082    0.5996 C   0  0  0  0  0  0  0  0  0  0  0  0
    3.1046   -1.3852    0.7935 N   0  0  0  0  0  0  0  0  0  0  0  0
   -5.7409   -1.7198   -0.1994 H   0  0  0  0  0  0  0  0  0  0  0  0
   -5.0508   -3.0883    0.7904 H   0  0  0  0  0  0  0  0  0  0  0  0
   -5.6130   -1.5480    1.5950 H   0  0  0  0  0  0  0  0  0  0  0  0
   -2.4575   -3.1063    0.4626 H   0  0  0  0  0  0  0  0  0  0  0  0
   -3.3931    2.3753    0.2963 H   0  0  0  0  0  0  0  0  0  0  0  0
   -2.4900    4.6020    0.0873 H   0  0  0  0  0  0  0  0  0  0  0  0
   -0.1173    4.9373   -0.1905 H   0  0  0  0  0  0  0  0  0  0  0  0
    1.3892    2.9967   -0.2611 H   0  0  0  0  0  0  0  0  0  0  0  0
    0.5138   -0.5571    0.0102 H   0  0  0  0  0  0  0  0  0  0  0  0
    2.2810    1.3807   -1.1431 H   0  0  0  0  0  0  0  0  0  0  0  0
    2.3808    1.4360    0.6274 H   0  0  0  0  0  0  0  0  0  0  0  0
    3.9364   -2.9475   -1.3227 H   0  0  0  0  0  0  0  0  0  0  0  0
    5.5013   -2.0635   -1.2905 H   0  0  0  0  0  0  0  0  0  0  0  0
    5.2023   -1.4599    0.9929 H   0  0  0  0  0  0  0  0  0  0  0  0
    4.3645   -3.1111    1.0245 H   0  0  0  0  0  0  0  0  0  0  0  0
    2.4118   -1.5493    1.5807 H   0  0  0  0  0  0  0  0  0  0  0  0
  1  2  1  0
  2  3  1  0
  3  4  1  0
  4  5  2  0
  5  6  1  0
  5  7  1  0
  7  8  2  0
  8  9  1  0
  9 10  2  0
 10 11  1  0
 11 12  2  0
 12 13  1  0
 13 14  1  0
 14 15  1  0
 15 16  2  0
 16 17  1  0
 17 18  1  0
 18 19  1  0
  6  2  2  0
 12  7  1  0
 19 15  1  0
  1 20  1  0
  1 21  1  0
  1 22  1  0
  3 23  1  0
  8 24  1  0
  9 25  1  0
 10 26  1  0
 11 27  1  0
 13 28  1  0
 14 29  1  0
 14 30  1  0
 17 31  1  0
 17 32  1  0
 18 33  1  0
 18 34  1  0
 19 35  1  0
M  END
>  <Ligand ID>  (1) 
LIG0003924

>  <Ligand>  (1) 
CHEMBL17657

>  <SMILES>  (1) 
Cc1[nH]nc(n1)c1ccccc1NCC1=NCCN1

>  <CID>  (1) 
22493408.0

>  <ChEMBL ID>  (1) 
nan

>  <InChiKey>  (1) 
LXHKMUZCGIOORY-UHFFFAOYSA-N

>  <InChi>  (1) 
InChI=1S/C13H16N6/c1-9-17-13(19-18-9)10-4-2-3-5-11(10)16-8-12-14-6-7-15-12/h2-5,16H,6-8H2,1H3,(H,14,15)(H,17,18,19)

>  <IUPAC Name>  (1) 
N-(4,5-dihydro-1H-imidazol-2-ylmethyl)-2-(5-methyl-1H-1,2,4-triazol-3-yl)aniline

$$$$
