
     RDKit          3D

 71 73  0  0  0  0  0  0  0  0999 V2000
   10.2725    0.1104    0.4286 O   0  0  0  0  0  0  0  0  0  0  0  0
    9.4850   -0.9768    0.0738 C   0  0  0  0  0  0  0  0  0  0  0  0
    8.0586   -0.6507    0.3339 C   0  0  0  0  0  0  0  0  0  0  0  0
    7.2461   -0.3412   -0.7353 C   0  0  0  0  0  0  0  0  0  0  0  0
    5.9021   -0.0240   -0.5935 C   0  0  0  0  0  0  0  0  0  0  0  0
    5.3997   -0.0298    0.6812 C   0  0  0  0  0  0  0  0  0  0  0  0
    6.2008   -0.3390    1.7770 C   0  0  0  0  0  0  0  0  0  0  0  0
    7.5515   -0.6560    1.6167 C   0  0  0  0  0  0  0  0  0  0  0  0
    8.3357   -0.9610    2.7114 O   0  0  0  0  0  0  0  0  0  0  0  0
    5.1474    0.2880   -1.8086 C   0  0  2  0  0  0  0  0  0  0  0  0
    3.6204    0.1883   -1.5911 C   0  0  0  0  0  0  0  0  0  0  0  0
    3.3468   -1.1507   -1.2662 N   0  0  0  0  0  0  0  0  0  0  0  0
    2.0243   -1.5848   -1.0308 C   0  0  0  0  0  0  0  0  0  0  0  0
    1.2936   -1.1886    0.1685 C   0  0  0  0  0  0  0  0  0  0  0  0
    1.0069    0.1983    0.5137 C   0  0  0  0  0  0  0  0  0  0  0  0
    0.2424    1.0167   -0.4561 C   0  0  0  0  0  0  0  0  0  0  0  0
   -1.1250    0.5256   -0.8116 C   0  0  0  0  0  0  0  0  0  0  0  0
   -2.0361    0.4289    0.3655 C   0  0  0  0  0  0  0  0  0  0  0  0
   -2.2515    1.5955    1.0231 O   0  0  0  0  0  0  0  0  0  0  0  0
   -2.8113    2.6435    0.3807 C   0  0  0  0  0  0  0  0  0  0  0  0
   -4.2005    2.4601   -0.1615 C   0  0  0  0  0  0  0  0  0  0  0  0
   -4.2251    1.4451   -1.0702 O   0  0  0  0  0  0  0  0  0  0  0  0
   -5.4755    1.2142   -1.6267 C   0  0  0  0  0  0  0  0  0  0  0  0
   -6.4977    0.8538   -0.6439 C   0  0  0  0  0  0  0  0  0  0  0  0
   -7.4691    1.7701   -0.2246 C   0  0  0  0  0  0  0  0  0  0  0  0
   -8.4340    1.4724    0.6845 C   0  0  0  0  0  0  0  0  0  0  0  0
   -8.5097    0.2232    1.2557 C   0  0  0  0  0  0  0  0  0  0  0  0
   -7.5649   -0.7155    0.8675 C   0  0  0  0  0  0  0  0  0  0  0  0
   -6.5777   -0.3991   -0.0675 C   0  0  0  0  0  0  0  0  0  0  0  0
   -5.6560   -1.3636   -0.4274 C   0  0  0  0  0  0  0  0  0  0  0  0
   -5.7160   -2.6113    0.1296 C   0  0  0  0  0  0  0  0  0  0  0  0
   -6.6933   -2.9398    1.0614 C   0  0  0  0  0  0  0  0  0  0  0  0
   -7.6378   -1.9802    1.4418 C   0  0  0  0  0  0  0  0  0  0  0  0
    5.4079   -0.5952   -2.8551 O   0  0  0  0  0  0  0  0  0  0  0  0
   10.2047    0.7568   -0.3380 H   0  0  0  0  0  0  0  0  0  0  0  0
    9.7497   -1.9006    0.6296 H   0  0  0  0  0  0  0  0  0  0  0  0
    9.6172   -1.2309   -1.0106 H   0  0  0  0  0  0  0  0  0  0  0  0
    7.6944   -0.3492   -1.7402 H   0  0  0  0  0  0  0  0  0  0  0  0
    4.3558    0.2137    0.8216 H   0  0  0  0  0  0  0  0  0  0  0  0
    5.8297   -0.3485    2.7775 H   0  0  0  0  0  0  0  0  0  0  0  0
    9.1555   -1.5553    2.5524 H   0  0  0  0  0  0  0  0  0  0  0  0
    5.4334    1.2956   -2.1571 H   0  0  0  0  0  0  0  0  0  0  0  0
    3.2108    0.5173   -2.5768 H   0  0  0  0  0  0  0  0  0  0  0  0
    3.3071    0.9369   -0.8490 H   0  0  0  0  0  0  0  0  0  0  0  0
    4.1008   -1.6003   -0.7216 H   0  0  0  0  0  0  0  0  0  0  0  0
    1.4431   -1.4608   -1.9888 H   0  0  0  0  0  0  0  0  0  0  0  0
    2.1012   -2.7295   -0.9871 H   0  0  0  0  0  0  0  0  0  0  0  0
    0.3203   -1.7777    0.2504 H   0  0  0  0  0  0  0  0  0  0  0  0
    1.8695   -1.6289    1.0518 H   0  0  0  0  0  0  0  0  0  0  0  0
    1.8691    0.7779    0.8918 H   0  0  0  0  0  0  0  0  0  0  0  0
    0.3307    0.1882    1.4539 H   0  0  0  0  0  0  0  0  0  0  0  0
    0.0724    2.0085    0.0628 H   0  0  0  0  0  0  0  0  0  0  0  0
    0.8160    1.3118   -1.3579 H   0  0  0  0  0  0  0  0  0  0  0  0
   -1.5498    1.2894   -1.5160 H   0  0  0  0  0  0  0  0  0  0  0  0
   -1.1151   -0.4339   -1.3672 H   0  0  0  0  0  0  0  0  0  0  0  0
   -2.9478   -0.1189    0.0227 H   0  0  0  0  0  0  0  0  0  0  0  0
   -1.6082   -0.2844    1.1406 H   0  0  0  0  0  0  0  0  0  0  0  0
   -2.8637    3.4905    1.1215 H   0  0  0  0  0  0  0  0  0  0  0  0
   -2.2005    3.0567   -0.4552 H   0  0  0  0  0  0  0  0  0  0  0  0
   -4.5340    3.4478   -0.5954 H   0  0  0  0  0  0  0  0  0  0  0  0
   -4.8580    2.2976    0.7184 H   0  0  0  0  0  0  0  0  0  0  0  0
   -5.7736    2.2087   -2.0769 H   0  0  0  0  0  0  0  0  0  0  0  0
   -5.4304    0.5389   -2.5031 H   0  0  0  0  0  0  0  0  0  0  0  0
   -7.4417    2.7700   -0.6537 H   0  0  0  0  0  0  0  0  0  0  0  0
   -9.1802    2.2160    0.9897 H   0  0  0  0  0  0  0  0  0  0  0  0
   -9.2628   -0.0330    1.9757 H   0  0  0  0  0  0  0  0  0  0  0  0
   -4.9086   -1.0996   -1.1452 H   0  0  0  0  0  0  0  0  0  0  0  0
   -4.9835   -3.3374   -0.1730 H   0  0  0  0  0  0  0  0  0  0  0  0
   -6.7364   -3.9353    1.5007 H   0  0  0  0  0  0  0  0  0  0  0  0
   -8.4115   -2.2275    2.1741 H   0  0  0  0  0  0  0  0  0  0  0  0
    4.6639   -1.1969   -3.0732 H   0  0  0  0  0  0  0  0  0  0  0  0
  1  2  1  0
  2  3  1  0
  3  4  2  0
  4  5  1  0
  5  6  2  0
  6  7  1  0
  7  8  2  0
  8  9  1  0
  5 10  1  0
 10 11  1  0
 11 12  1  0
 12 13  1  0
 13 14  1  0
 14 15  1  0
 15 16  1  0
 16 17  1  0
 17 18  1  0
 18 19  1  0
 19 20  1  0
 20 21  1  0
 21 22  1  0
 22 23  1  0
 23 24  1  0
 24 25  2  0
 25 26  1  0
 26 27  2  0
 27 28  1  0
 28 29  2  0
 29 30  1  0
 30 31  2  0
 31 32  1  0
 32 33  2  0
 10 34  1  0
  8  3  1  0
 29 24  1  0
 33 28  1  0
  1 35  1  0
  2 36  1  0
  2 37  1  0
  4 38  1  0
  6 39  1  0
  7 40  1  0
  9 41  1  0
 10 42  1  6
 11 43  1  0
 11 44  1  0
 12 45  1  0
 13 46  1  0
 13 47  1  0
 14 48  1  0
 14 49  1  0
 15 50  1  0
 15 51  1  0
 16 52  1  0
 16 53  1  0
 17 54  1  0
 17 55  1  0
 18 56  1  0
 18 57  1  0
 20 58  1  0
 20 59  1  0
 21 60  1  0
 21 61  1  0
 23 62  1  0
 23 63  1  0
 25 64  1  0
 26 65  1  0
 27 66  1  0
 30 67  1  0
 31 68  1  0
 32 69  1  0
 33 70  1  0
 34 71  1  0
M  END
>  <Ligand ID>  (1) 
LIG0002747

>  <Ligand>  (1) 
CHEMBL1085837

>  <SMILES>  (1) 
OCc1cc(ccc1O)[C@H](CNCCCCCCOCCOCc1cccc2c1cccc2)O

>  <CID>  (1) 
46832232.0

>  <ChEMBL ID>  (1) 
nan

>  <InChiKey>  (1) 
KYIUFFBJQKFBKO-NDEPHWFRSA-N

>  <InChi>  (1) 
InChI=1S/C28H37NO5/c30-20-25-18-23(12-13-27(25)31)28(32)19-29-14-5-1-2-6-15-33-16-17-34-21-24-10-7-9-22-8-3-4-11-26(22)24/h3-4,7-13,18,28-32H,1-2,5-6,14-17,19-21H2/t28-/m0/s1

>  <IUPAC Name>  (1) 
2-(hydroxymethyl)-4-[(1R)-1-hydroxy-2-[6-[2-(naphthalen-1-ylmethoxy)ethoxy]hexylamino]ethyl]phenol

$$$$
