
     RDKit          3D

 72 75  0  0  0  0  0  0  0  0999 V2000
   -2.0286    3.0894   -2.0471 O   0  0  0  0  0  0  0  0  0  0  0  0
   -2.4572    1.9399   -1.3536 C   0  0  2  0  0  0  0  0  0  0  0  0
   -3.9930    1.9718   -1.4666 C   0  0  0  0  0  0  0  0  0  0  0  0
   -4.5683    0.8643   -0.8040 O   0  0  0  0  0  0  0  0  0  0  0  0
   -5.9708    0.7805   -0.8397 C   0  0  0  0  0  0  0  0  0  0  0  0
   -6.7475    1.7191   -1.4822 C   0  0  0  0  0  0  0  0  0  0  0  0
   -8.1229    1.6694   -1.5384 C   0  0  0  0  0  0  0  0  0  0  0  0
   -8.7774    0.6251   -0.9202 C   0  0  0  0  0  0  0  0  0  0  0  0
   -8.0161   -0.3348   -0.2651 C   0  0  0  0  0  0  0  0  0  0  0  0
   -6.6367   -0.2782   -0.2129 C   0  0  0  0  0  0  0  0  0  0  0  0
   -6.1166   -1.4195    0.5440 C   0  0  0  0  0  0  0  0  0  0  0  0
   -5.1730   -2.2979   -0.2372 C   0  0  0  0  0  0  0  0  0  0  0  0
   -5.4435   -0.9965    1.8392 C   0  0  0  0  0  0  0  0  0  0  0  0
   -7.3565   -2.1573    0.9260 C   0  0  0  0  0  0  0  0  0  0  0  0
   -7.4106   -3.2182    1.5883 O   0  0  0  0  0  0  0  0  0  0  0  0
   -8.4966   -1.4827    0.4283 N   0  0  0  0  0  0  0  0  0  0  0  0
   -2.0522    2.0308    0.0932 C   0  0  0  0  0  0  0  0  0  0  0  0
   -0.6907    2.1509    0.3751 N   0  0  0  0  0  0  0  0  0  0  0  0
    0.2272    1.1013    0.1772 C   0  0  0  0  0  0  0  0  0  0  0  0
    1.5942    1.6339    0.5074 C   0  0  0  0  0  0  0  0  0  0  0  0
    2.6284    0.6194    0.3196 C   0  0  0  0  0  0  0  0  0  0  0  0
    2.9978   -0.3138    1.2817 C   0  0  0  0  0  0  0  0  0  0  0  0
    4.0140   -1.2340    1.0569 C   0  0  0  0  0  0  0  0  0  0  0  0
    4.6976   -1.2565   -0.1344 C   0  0  0  0  0  0  0  0  0  0  0  0
    4.3517   -0.3437   -1.1022 C   0  0  0  0  0  0  0  0  0  0  0  0
    3.3462    0.5689   -0.8838 C   0  0  0  0  0  0  0  0  0  0  0  0
    5.7206   -2.1423   -0.4327 O   0  0  0  0  0  0  0  0  0  0  0  0
    7.0529   -1.8171   -0.1450 C   0  0  0  0  0  0  0  0  0  0  0  0
    7.3353   -0.5950    0.4506 C   0  0  0  0  0  0  0  0  0  0  0  0
    8.6490   -0.2255    0.7570 C   0  0  0  0  0  0  0  0  0  0  0  0
    9.6599   -1.1387    0.4377 C   0  0  0  0  0  0  0  0  0  0  0  0
    9.3555   -2.3432   -0.1521 C   0  0  0  0  0  0  0  0  0  0  0  0
    8.0677   -2.6737   -0.4376 N   0  0  0  0  0  0  0  0  0  0  0  0
   11.0370   -0.7770    0.7461 C   0  0  0  0  0  0  0  0  0  0  0  0
   11.2646    0.3288    1.2905 O   0  0  0  0  0  0  0  0  0  0  0  0
   12.0798   -1.6955    0.4170 N   0  0  0  0  0  0  0  0  0  0  0  0
    0.2174    0.3662   -1.1054 C   0  0  0  0  0  0  0  0  0  0  0  0
   -0.0467    0.0292    1.2674 C   0  0  0  0  0  0  0  0  0  0  0  0
   -2.1545    3.9049   -1.5365 H   0  0  0  0  0  0  0  0  0  0  0  0
   -2.1512    1.0610   -1.8972 H   0  0  0  0  0  0  0  0  0  0  0  0
   -4.3066    2.8889   -0.9354 H   0  0  0  0  0  0  0  0  0  0  0  0
   -4.2554    2.0349   -2.5346 H   0  0  0  0  0  0  0  0  0  0  0  0
   -6.2357    2.5484   -1.9742 H   0  0  0  0  0  0  0  0  0  0  0  0
   -8.6529    2.4526   -2.0674 H   0  0  0  0  0  0  0  0  0  0  0  0
   -9.8547    0.5911   -0.9656 H   0  0  0  0  0  0  0  0  0  0  0  0
   -4.5943   -2.9321    0.4740 H   0  0  0  0  0  0  0  0  0  0  0  0
   -5.7933   -3.0258   -0.8264 H   0  0  0  0  0  0  0  0  0  0  0  0
   -4.5254   -1.7528   -0.9274 H   0  0  0  0  0  0  0  0  0  0  0  0
   -6.1581   -1.0180    2.6997 H   0  0  0  0  0  0  0  0  0  0  0  0
   -4.9699    0.0093    1.7260 H   0  0  0  0  0  0  0  0  0  0  0  0
   -4.6161   -1.6918    2.0882 H   0  0  0  0  0  0  0  0  0  0  0  0
   -9.4825   -1.7794    0.5520 H   0  0  0  0  0  0  0  0  0  0  0  0
   -2.5402    2.9918    0.4568 H   0  0  0  0  0  0  0  0  0  0  0  0
   -2.5924    1.2611    0.7146 H   0  0  0  0  0  0  0  0  0  0  0  0
   -0.3107    3.0637    0.0621 H   0  0  0  0  0  0  0  0  0  0  0  0
    1.5589    2.0258    1.5522 H   0  0  0  0  0  0  0  0  0  0  0  0
    1.8722    2.5028   -0.1324 H   0  0  0  0  0  0  0  0  0  0  0  0
    2.4878   -0.3280    2.2331 H   0  0  0  0  0  0  0  0  0  0  0  0
    4.2898   -1.9622    1.8282 H   0  0  0  0  0  0  0  0  0  0  0  0
    4.8603   -0.3137   -2.0680 H   0  0  0  0  0  0  0  0  0  0  0  0
    3.0727    1.2952   -1.6601 H   0  0  0  0  0  0  0  0  0  0  0  0
    6.5495    0.1070    0.6957 H   0  0  0  0  0  0  0  0  0  0  0  0
    8.8801    0.7223    1.2202 H   0  0  0  0  0  0  0  0  0  0  0  0
   10.1192   -3.0651   -0.4082 H   0  0  0  0  0  0  0  0  0  0  0  0
   12.3084   -1.8692   -0.6009 H   0  0  0  0  0  0  0  0  0  0  0  0
   12.5842   -2.1671    1.1964 H   0  0  0  0  0  0  0  0  0  0  0  0
    0.2399    0.9811   -2.0257 H   0  0  0  0  0  0  0  0  0  0  0  0
    1.1647   -0.2525   -1.1545 H   0  0  0  0  0  0  0  0  0  0  0  0
   -0.5660   -0.4410   -1.1467 H   0  0  0  0  0  0  0  0  0  0  0  0
    0.2227    0.4274    2.2627 H   0  0  0  0  0  0  0  0  0  0  0  0
   -1.1498   -0.1279    1.2650 H   0  0  0  0  0  0  0  0  0  0  0  0
    0.5071   -0.8904    1.0240 H   0  0  0  0  0  0  0  0  0  0  0  0
  1  2  1  0
  2  3  1  0
  3  4  1  0
  4  5  1  0
  5  6  2  0
  6  7  1  0
  7  8  2  0
  8  9  1  0
  9 10  2  0
 10 11  1  0
 11 12  1  0
 11 13  1  0
 11 14  1  0
 14 15  2  0
 14 16  1  0
  2 17  1  0
 17 18  1  0
 18 19  1  0
 19 20  1  0
 20 21  1  0
 21 22  2  0
 22 23  1  0
 23 24  2  0
 24 25  1  0
 25 26  2  0
 24 27  1  0
 27 28  1  0
 28 29  2  0
 29 30  1  0
 30 31  2  0
 31 32  1  0
 32 33  2  0
 31 34  1  0
 34 35  2  0
 34 36  1  0
 19 37  1  0
 19 38  1  0
 10  5  1  0
 26 21  1  0
 33 28  1  0
 16  9  1  0
  1 39  1  0
  2 40  1  6
  3 41  1  0
  3 42  1  0
  6 43  1  0
  7 44  1  0
  8 45  1  0
 12 46  1  0
 12 47  1  0
 12 48  1  0
 13 49  1  0
 13 50  1  0
 13 51  1  0
 16 52  1  0
 17 53  1  0
 17 54  1  0
 18 55  1  0
 20 56  1  0
 20 57  1  0
 22 58  1  0
 23 59  1  0
 25 60  1  0
 26 61  1  0
 29 62  1  0
 30 63  1  0
 32 64  1  0
 36 65  1  0
 36 66  1  0
 37 67  1  0
 37 68  1  0
 37 69  1  0
 38 70  1  0
 38 71  1  0
 38 72  1  0
M  END
>  <Ligand ID>  (1) 
LIG0001659

>  <Ligand>  (1) 
CHEMBL251372

>  <SMILES>  (1) 
O[C@H](COc1cccc2c1C(C)(C)C(=O)N2)CNC(Cc1ccc(cc1)Oc1ccc(cn1)C(=O)N)(C)C

>  <CID>  (1) 
24894127.0

>  <ChEMBL ID>  (1) 
nan

>  <InChiKey>  (1) 
ZULQWWYGPITKAW-FQEVSTJZSA-N

>  <InChi>  (1) 
InChI=1S/C29H34N4O5/c1-28(2,14-18-8-11-21(12-9-18)38-24-13-10-19(15-31-24)26(30)35)32-16-20(34)17-37-23-7-5-6-22-25(23)29(3,4)27(36)33-22/h5-13,15,20,32,34H,14,16-17H2,1-4H3,(H2,30,35)(H,33,36)/t20-/m0/s1

>  <IUPAC Name>  (1) 
6-[4-[2-[[(2S)-3-[(3,3-dimethyl-2-oxo-1H-indol-4-yl)oxy]-2-hydroxypropyl]amino]-2-methylpropyl]phenoxy]pyridine-3-carboxamide

$$$$
