
     RDKit          3D

 54 59  0  0  0  0  0  0  0  0999 V2000
   -0.8046    3.0765   -1.1864 C   0  0  0  0  0  0  0  0  0  0  0  0
   -1.7400    2.2471   -0.4930 N   0  0  0  0  0  0  0  0  0  0  0  0
   -2.9458    2.7241   -0.0608 C   0  0  0  0  0  0  0  0  0  0  0  0
   -3.5937    3.9241   -0.1064 C   0  0  0  0  0  0  0  0  0  0  0  0
   -4.8488    4.0890    0.4411 C   0  0  0  0  0  0  0  0  0  0  0  0
   -5.4914    3.0349    1.0566 C   0  0  0  0  0  0  0  0  0  0  0  0
   -4.8247    1.8257    1.0959 C   0  0  0  0  0  0  0  0  0  0  0  0
   -3.5704    1.6666    0.5472 C   0  0  0  0  0  0  0  0  0  0  0  0
   -2.7491    0.6365    0.4604 N   0  0  0  0  0  0  0  0  0  0  0  0
   -1.5898    0.9731   -0.1890 C   0  0  0  0  0  0  0  0  0  0  0  0
   -0.5396    0.0019   -0.4057 C   0  0  0  0  0  0  0  0  0  0  0  0
    0.6863    0.0651   -1.0039 C   0  0  0  0  0  0  0  0  0  0  0  0
    1.3181    1.1675   -1.6138 N   0  0  0  0  0  0  0  0  0  0  0  0
    1.3130   -1.1534   -0.9595 N   0  0  0  0  0  0  0  0  0  0  0  0
    0.5058   -2.0150   -0.3360 C   0  0  0  0  0  0  0  0  0  0  0  0
   -0.6359   -1.3371    0.0149 C   0  0  0  0  0  0  0  0  0  0  0  0
   -1.5871   -2.0380    0.6614 N   0  0  0  0  0  0  0  0  0  0  0  0
   -1.4983   -3.3382    0.9830 C   0  0  0  0  0  0  0  0  0  0  0  0
   -2.4950   -4.0234    1.6466 C   0  0  0  0  0  0  0  0  0  0  0  0
   -2.2785   -5.3565    1.9170 C   0  0  0  0  0  0  0  0  0  0  0  0
   -1.1112   -6.0159    1.5486 C   0  0  0  0  0  0  0  0  0  0  0  0
   -0.1013   -5.3183    0.8754 C   0  0  0  0  0  0  0  0  0  0  0  0
   -0.3393   -3.9873    0.6158 C   0  0  0  0  0  0  0  0  0  0  0  0
    0.6427   -3.3201   -0.0358 N   0  0  0  0  0  0  0  0  0  0  0  0
    2.6155   -1.5045   -1.4715 C   0  0  0  0  0  0  0  0  0  0  0  0
    3.6907   -1.3230   -0.4206 C   0  0  0  0  0  0  0  0  0  0  0  0
    3.8026    0.0600    0.0777 C   0  0  0  0  0  0  0  0  0  0  0  0
    4.6645    0.9128   -0.5799 C   0  0  0  0  0  0  0  0  0  0  0  0
    4.8550    2.2223   -0.2108 C   0  0  0  0  0  0  0  0  0  0  0  0
    4.1406    2.7126    0.8836 C   0  0  0  0  0  0  0  0  0  0  0  0
    3.2789    1.8404    1.5322 C   0  0  0  0  0  0  0  0  0  0  0  0
    3.0991    0.5378    1.1532 C   0  0  0  0  0  0  0  0  0  0  0  0
   -1.2860    4.1099   -1.3439 H   0  0  0  0  0  0  0  0  0  0  0  0
    0.1096    3.3312   -0.6550 H   0  0  0  0  0  0  0  0  0  0  0  0
   -0.7014    2.7470   -2.2456 H   0  0  0  0  0  0  0  0  0  0  0  0
   -3.1003    4.7534   -0.5849 H   0  0  0  0  0  0  0  0  0  0  0  0
   -5.3453    5.0385    0.3973 H   0  0  0  0  0  0  0  0  0  0  0  0
   -6.4776    3.1325    1.4962 H   0  0  0  0  0  0  0  0  0  0  0  0
   -5.2538    0.9381    1.5610 H   0  0  0  0  0  0  0  0  0  0  0  0
    1.9203    1.8643   -1.1412 H   0  0  0  0  0  0  0  0  0  0  0  0
    1.1633    1.2928   -2.6442 H   0  0  0  0  0  0  0  0  0  0  0  0
   -3.3998   -3.5024    1.9294 H   0  0  0  0  0  0  0  0  0  0  0  0
   -3.0387   -5.9419    2.4406 H   0  0  0  0  0  0  0  0  0  0  0  0
   -0.9949   -7.0743    1.7896 H   0  0  0  0  0  0  0  0  0  0  0  0
    0.8037   -5.8388    0.5925 H   0  0  0  0  0  0  0  0  0  0  0  0
    2.6068   -2.5749   -1.7340 H   0  0  0  0  0  0  0  0  0  0  0  0
    2.8461   -0.9379   -2.3984 H   0  0  0  0  0  0  0  0  0  0  0  0
    3.4130   -1.9680    0.4571 H   0  0  0  0  0  0  0  0  0  0  0  0
    4.6774   -1.6569   -0.7688 H   0  0  0  0  0  0  0  0  0  0  0  0
    5.2307    0.5508   -1.4350 H   0  0  0  0  0  0  0  0  0  0  0  0
    5.5282    2.8871   -0.7251 H   0  0  0  0  0  0  0  0  0  0  0  0
    4.2794    3.7397    1.1860 H   0  0  0  0  0  0  0  0  0  0  0  0
    2.7324    2.2571    2.3884 H   0  0  0  0  0  0  0  0  0  0  0  0
    2.4183   -0.1343    1.6733 H   0  0  0  0  0  0  0  0  0  0  0  0
  1  2  1  0
  2  3  1  0
  3  4  2  0
  4  5  1  0
  5  6  2  0
  6  7  1  0
  7  8  2  0
  8  9  1  0
  9 10  2  0
 10 11  1  0
 11 12  2  0
 12 13  1  0
 12 14  1  0
 14 15  1  0
 15 16  2  0
 16 17  1  0
 17 18  2  0
 18 19  1  0
 19 20  2  0
 20 21  1  0
 21 22  2  0
 22 23  1  0
 23 24  2  0
 14 25  1  0
 25 26  1  0
 26 27  1  0
 27 28  2  0
 28 29  1  0
 29 30  2  0
 30 31  1  0
 31 32  2  0
 10  2  1  0
 16 11  1  0
 23 18  1  0
 32 27  1  0
  8  3  1  0
 24 15  1  0
  1 33  1  0
  1 34  1  0
  1 35  1  0
  4 36  1  0
  5 37  1  0
  6 38  1  0
  7 39  1  0
 13 40  1  0
 13 41  1  0
 19 42  1  0
 20 43  1  0
 21 44  1  0
 22 45  1  0
 25 46  1  0
 25 47  1  0
 26 48  1  0
 26 49  1  0
 28 50  1  0
 29 51  1  0
 30 52  1  0
 31 53  1  0
 32 54  1  0
M  END
>  <Ligand ID>  (1) 
LIG0004579

>  <Ligand>  (1) 
SMR000149320

>  <SMILES>  (1) 
Cn1c2ccccc2nc1c1c(N)n(c2c1nc1ccccc1n2)CCc1ccccc1

>  <CID>  (1) 
4897494.0

>  <ChEMBL ID>  (1) 
nan

>  <InChiKey>  (1) 
WQIMUBLPKIDRQM-UHFFFAOYSA-N

>  <InChi>  (1) 
InChI=1S/C26H22N6/c1-31-21-14-8-7-13-20(21)30-25(31)22-23-26(29-19-12-6-5-11-18(19)28-23)32(24(22)27)16-15-17-9-3-2-4-10-17/h2-14H,15-16,27H2,1H3

>  <IUPAC Name>  (1) 
3-(1-methylbenzimidazol-2-yl)-1-(2-phenylethyl)pyrrolo[3,2-b]quinoxalin-2-amine

$$$$
