
     RDKit          3D

 15 15  0  0  0  0  0  0  0  0999 V2000
    2.9877    0.2259    0.1895 C   0  0  0  0  0  0  0  0  0  0  0  0
    1.6236   -0.3425    0.5143 C   0  0  0  0  0  0  0  0  0  0  0  0
    0.6113    0.4680   -0.0420 O   0  0  0  0  0  0  0  0  0  0  0  0
   -0.7084    0.1642    0.1129 C   0  0  0  0  0  0  0  0  0  0  0  0
   -1.5298   -0.6162    0.5921 N   0  0  0  0  0  0  0  0  0  0  0  0
   -2.8096   -0.5984    0.5402 C   0  0  0  0  0  0  0  0  0  0  0  0
   -3.3880    0.4642   -0.1656 C   0  0  0  0  0  0  0  0  0  0  0  0
   -1.8811    1.4251   -0.7399 S   0  0  0  0  0  0  0  0  0  0  0  0
    3.6616   -0.0126    1.0187 H   0  0  0  0  0  0  0  0  0  0  0  0
    2.8920    1.3376    0.0654 H   0  0  0  0  0  0  0  0  0  0  0  0
    3.3653   -0.1567   -0.7936 H   0  0  0  0  0  0  0  0  0  0  0  0
    1.5263   -0.4242    1.6136 H   0  0  0  0  0  0  0  0  0  0  0  0
    1.5042   -1.3545    0.0605 H   0  0  0  0  0  0  0  0  0  0  0  0
   -3.4818   -1.3437    1.0012 H   0  0  0  0  0  0  0  0  0  0  0  0
   -4.3734    0.7636   -0.3903 H   0  0  0  0  0  0  0  0  0  0  0  0
  1  2  1  0
  2  3  1  0
  3  4  1  0
  4  5  2  0
  5  6  1  0
  6  7  2  0
  7  8  1  0
  8  4  1  0
  1  9  1  0
  1 10  1  0
  1 11  1  0
  2 12  1  0
  2 13  1  0
  6 14  1  0
  7 15  1  0
M  END
>  <Ligand ID>  (1) 
LIG0001060

>  <Ligand>  (1) 
2-Ethoxythiazole

>  <SMILES>  (1) 
CCOc1nccs1

>  <CID>  (1) 
61809.0

>  <ChEMBL ID>  (1) 
nan

>  <InChiKey>  (1) 
NDUWJHRKDYXRAD-UHFFFAOYSA-N

>  <InChi>  (1) 
InChI=1S/C5H7NOS/c1-2-7-5-6-3-4-8-5/h3-4H,2H2,1H3

>  <IUPAC Name>  (1) 
2-ethoxy-1,3-thiazole

$$$$
