
     RDKit          3D

 54 58  0  0  0  0  0  0  0  0999 V2000
    4.8069   -0.3262    0.3032 C   0  0  0  0  0  0  0  0  0  0  0  0
    3.7900    0.7756    0.1207 C   0  0  0  0  0  0  0  0  0  0  0  0
    2.3913    0.2744    0.0768 C   0  0  0  0  0  0  0  0  0  0  0  0
    1.8516   -0.0810   -1.1434 C   0  0  0  0  0  0  0  0  0  0  0  0
    0.5585   -0.5442   -1.2497 C   0  0  0  0  0  0  0  0  0  0  0  0
   -0.2355   -0.6653   -0.1294 C   0  0  0  0  0  0  0  0  0  0  0  0
    0.2970   -0.3117    1.1034 C   0  0  0  0  0  0  0  0  0  0  0  0
    1.6032    0.1553    1.2024 C   0  0  0  0  0  0  0  0  0  0  0  0
   -1.5808   -1.1676   -0.3003 C   0  0  0  0  0  0  0  0  0  0  0  0
   -1.8942   -2.4855   -0.4835 C   0  0  0  0  0  0  0  0  0  0  0  0
   -3.2390   -2.5461   -0.6054 N   0  0  0  0  0  0  0  0  0  0  0  0
   -3.7282   -1.3191   -0.5016 N   0  0  0  0  0  0  0  0  0  0  0  0
   -2.7373   -0.4242   -0.3109 C   0  0  0  0  0  0  0  0  0  0  0  0
   -2.9553    1.0003   -0.1505 C   0  0  0  0  0  0  0  0  0  0  0  0
   -4.1999    1.5462   -0.1725 N   0  0  0  0  0  0  0  0  0  0  0  0
   -4.0896    2.8930   -0.0066 C   0  0  0  0  0  0  0  0  0  0  0  0
   -2.7562    3.1922    0.1210 C   0  0  0  0  0  0  0  0  0  0  0  0
   -2.1057    2.0154    0.0278 N   0  0  0  0  0  0  0  0  0  0  0  0
   -2.3985    4.5097    0.3029 C   0  0  0  0  0  0  0  0  0  0  0  0
   -3.3424    5.5118    0.3582 C   0  0  0  0  0  0  0  0  0  0  0  0
   -4.6764    5.1795    0.2274 C   0  0  0  0  0  0  0  0  0  0  0  0
   -5.0908    3.8616    0.0409 C   0  0  0  0  0  0  0  0  0  0  0  0
   -1.0552   -3.6716   -0.5313 C   0  0  0  0  0  0  0  0  0  0  0  0
   -0.7979   -4.3994   -1.6680 C   0  0  0  0  0  0  0  0  0  0  0  0
    0.0141   -5.5262   -1.5938 C   0  0  0  0  0  0  0  0  0  0  0  0
    0.5770   -5.9392   -0.3922 C   0  0  0  0  0  0  0  0  0  0  0  0
    0.3119   -5.1990    0.7499 C   0  0  0  0  0  0  0  0  0  0  0  0
   -0.4943   -4.0798    0.6772 C   0  0  0  0  0  0  0  0  0  0  0  0
    3.9613    1.7221    1.3171 C   0  0  0  0  0  0  0  0  0  0  0  0
    4.1717    1.5798   -1.0835 C   0  0  0  0  0  0  0  0  0  0  0  0
    5.5253   -0.1139    1.1361 H   0  0  0  0  0  0  0  0  0  0  0  0
    5.4493   -0.4397   -0.6058 H   0  0  0  0  0  0  0  0  0  0  0  0
    4.3570   -1.3120    0.5130 H   0  0  0  0  0  0  0  0  0  0  0  0
    2.4533    0.0052   -2.0449 H   0  0  0  0  0  0  0  0  0  0  0  0
    0.1951   -0.8059   -2.2324 H   0  0  0  0  0  0  0  0  0  0  0  0
   -0.3553   -0.4222    1.9615 H   0  0  0  0  0  0  0  0  0  0  0  0
    2.0085    0.4260    2.1550 H   0  0  0  0  0  0  0  0  0  0  0  0
   -4.7692   -1.1530   -0.5730 H   0  0  0  0  0  0  0  0  0  0  0  0
   -1.0715    1.9529    0.0866 H   0  0  0  0  0  0  0  0  0  0  0  0
   -1.3370    4.7287    0.4013 H   0  0  0  0  0  0  0  0  0  0  0  0
   -3.0650    6.5566    0.5029 H   0  0  0  0  0  0  0  0  0  0  0  0
   -5.4200    5.9641    0.2700 H   0  0  0  0  0  0  0  0  0  0  0  0
   -6.1477    3.6022   -0.0635 H   0  0  0  0  0  0  0  0  0  0  0  0
   -1.2359   -4.0745   -2.6031 H   0  0  0  0  0  0  0  0  0  0  0  0
    0.2354   -6.1113   -2.4541 H   0  0  0  0  0  0  0  0  0  0  0  0
    1.2110   -6.8072   -0.3011 H   0  0  0  0  0  0  0  0  0  0  0  0
    0.7370   -5.5001    1.7096 H   0  0  0  0  0  0  0  0  0  0  0  0
   -0.6912   -3.5098    1.5879 H   0  0  0  0  0  0  0  0  0  0  0  0
    3.2540    2.5775    1.2266 H   0  0  0  0  0  0  0  0  0  0  0  0
    4.9939    2.1558    1.1789 H   0  0  0  0  0  0  0  0  0  0  0  0
    3.8758    1.2251    2.2810 H   0  0  0  0  0  0  0  0  0  0  0  0
    3.2913    1.8520   -1.7210 H   0  0  0  0  0  0  0  0  0  0  0  0
    4.6262    2.5773   -0.8365 H   0  0  0  0  0  0  0  0  0  0  0  0
    4.9223    1.0958   -1.7419 H   0  0  0  0  0  0  0  0  0  0  0  0
  1  2  1  0
  2  3  1  0
  3  4  2  0
  4  5  1  0
  5  6  2  0
  6  7  1  0
  7  8  2  0
  6  9  1  0
  9 10  1  0
 10 11  2  0
 11 12  1  0
 12 13  1  0
 13 14  1  0
 14 15  2  0
 15 16  1  0
 16 17  2  0
 17 18  1  0
 17 19  1  0
 19 20  2  0
 20 21  1  0
 21 22  2  0
 10 23  1  0
 23 24  2  0
 24 25  1  0
 25 26  2  0
 26 27  1  0
 27 28  2  0
  2 29  1  0
  2 30  1  0
  8  3  1  0
 13  9  2  0
 18 14  1  0
 28 23  1  0
 22 16  1  0
  1 31  1  0
  1 32  1  0
  1 33  1  0
  4 34  1  0
  5 35  1  0
  7 36  1  0
  8 37  1  0
 12 38  1  0
 18 39  1  0
 19 40  1  0
 20 41  1  0
 21 42  1  0
 22 43  1  0
 24 44  1  0
 25 45  1  0
 26 46  1  0
 27 47  1  0
 28 48  1  0
 29 49  1  0
 29 50  1  0
 29 51  1  0
 30 52  1  0
 30 53  1  0
 30 54  1  0
M  END
>  <Ligand ID>  (1) 
LIG0003383

>  <Ligand>  (1) 
MLS-0437225.0001

>  <SMILES>  (1) 
CC(c1ccc(cc1)c1c(n[nH]c1c1nc2c([nH]1)cccc2)c1ccccc1)(C)C

>  <CID>  (1) 
135703554.0

>  <ChEMBL ID>  (1) 
nan

>  <InChiKey>  (1) 
OMMXHDPRLSOCNN-UHFFFAOYSA-N

>  <InChi>  (1) 
InChI=1S/C26H24N4/c1-26(2,3)19-15-13-17(14-16-19)22-23(18-9-5-4-6-10-18)29-30-24(22)25-27-20-11-7-8-12-21(20)28-25/h4-16H,1-3H3,(H,27,28)(H,29,30)

>  <IUPAC Name>  (1) 
2-[4-(4-tert-butylphenyl)-3-phenyl-1H-pyrazol-5-yl]-1H-benzimidazole

$$$$
