
     RDKit          3D

 23 23  0  0  0  0  0  0  0  0999 V2000
   -0.1359    3.2040   -0.4258 O   0  0  0  0  0  0  0  0  0  0  0  0
    0.0106    1.9722   -0.2655 C   0  0  0  0  0  0  0  0  0  0  0  0
    1.3541    1.4856    0.0335 C   0  0  0  0  0  0  0  0  0  0  0  0
    1.5908    0.1910   -0.0704 C   0  0  0  0  0  0  0  0  0  0  0  0
    2.9393   -0.4055    0.2157 C   0  0  0  0  0  0  0  0  0  0  0  0
    0.4975   -0.6814   -0.4779 C   0  0  0  0  0  0  0  0  0  0  0  0
    0.7600   -1.7344   -1.1528 O   0  0  0  0  0  0  0  0  0  0  0  0
   -0.8975   -0.3363   -0.1053 C   0  0  0  0  0  0  0  0  0  0  0  0
   -1.1728    1.1078   -0.3888 C   0  0  0  0  0  0  0  0  0  0  0  0
   -1.1930   -0.6504    1.3593 C   0  0  0  0  0  0  0  0  0  0  0  0
   -1.8801   -1.1559   -0.9126 C   0  0  0  0  0  0  0  0  0  0  0  0
    2.1442    2.1564    0.3332 H   0  0  0  0  0  0  0  0  0  0  0  0
    3.5254    0.4052    0.7187 H   0  0  0  0  0  0  0  0  0  0  0  0
    2.8689   -1.2203    0.9850 H   0  0  0  0  0  0  0  0  0  0  0  0
    3.4238   -0.8168   -0.6733 H   0  0  0  0  0  0  0  0  0  0  0  0
   -1.6120    1.2043   -1.4208 H   0  0  0  0  0  0  0  0  0  0  0  0
   -1.9950    1.4924    0.2823 H   0  0  0  0  0  0  0  0  0  0  0  0
   -1.5102    0.2441    1.9188 H   0  0  0  0  0  0  0  0  0  0  0  0
   -1.8969   -1.4865    1.4844 H   0  0  0  0  0  0  0  0  0  0  0  0
   -0.2382   -0.9766    1.8125 H   0  0  0  0  0  0  0  0  0  0  0  0
   -1.7194   -2.2356   -0.8437 H   0  0  0  0  0  0  0  0  0  0  0  0
   -2.8851   -0.9582   -0.4405 H   0  0  0  0  0  0  0  0  0  0  0  0
   -1.9783   -0.8051   -1.9662 H   0  0  0  0  0  0  0  0  0  0  0  0
  1  2  2  0
  2  3  1  0
  3  4  2  0
  4  5  1  0
  4  6  1  0
  6  7  2  0
  6  8  1  0
  8  9  1  0
  8 10  1  0
  8 11  1  0
  9  2  1  0
  3 12  1  0
  5 13  1  0
  5 14  1  0
  5 15  1  0
  9 16  1  0
  9 17  1  0
 10 18  1  0
 10 19  1  0
 10 20  1  0
 11 21  1  0
 11 22  1  0
 11 23  1  0
M  END
>  <Ligand ID>  (1) 
LIG0000765

>  <Ligand>  (1) 
2,6,6-Trimethylcyclohex-2-ene-1,4-dione

>  <SMILES>  (1) 
O=C1C=C(C)C(=O)C(C1)(C)C

>  <CID>  (1) 
62374.0

>  <ChEMBL ID>  (1) 
nan

>  <InChiKey>  (1) 
AYJXHIDNNLJQDT-UHFFFAOYSA-N

>  <InChi>  (1) 
InChI=1S/C9H12O2/c1-6-4-7(10)5-9(2,3)8(6)11/h4H,5H2,1-3H3

>  <IUPAC Name>  (1) 
2,6,6-trimethylcyclohex-2-ene-1,4-dione

$$$$
