
     RDKit          3D

 52 55  0  0  0  0  0  0  0  0999 V2000
    0.6050   -0.7167   -3.3256 C   0  0  0  0  0  0  0  0  0  0  0  0
    1.1871   -0.7091   -1.9855 N   0  0  0  0  0  0  0  0  0  0  0  0
    2.4919   -0.8628   -1.6692 C   0  0  0  0  0  0  0  0  0  0  0  0
    3.3868   -1.0380   -2.5496 O   0  0  0  0  0  0  0  0  0  0  0  0
    2.6423   -0.7979   -0.3325 N   0  0  0  0  0  0  0  0  0  0  0  0
    1.4286   -0.6016    0.2114 C   0  0  0  0  0  0  0  0  0  0  0  0
    0.5261   -0.5475   -0.8301 C   0  0  0  0  0  0  0  0  0  0  0  0
   -0.7875   -0.3596   -0.6266 N   0  0  0  0  0  0  0  0  0  0  0  0
   -1.3271   -0.2105    0.5878 C   0  0  0  0  0  0  0  0  0  0  0  0
   -0.4479   -0.2589    1.6685 C   0  0  0  0  0  0  0  0  0  0  0  0
    0.9176   -0.4526    1.4839 C   0  0  0  0  0  0  0  0  0  0  0  0
   -2.7045   -0.0100    0.8524 N   0  0  0  0  0  0  0  0  0  0  0  0
   -3.2182   -0.0236    2.2360 C   0  0  0  0  0  0  0  0  0  0  0  0
   -4.7080   -0.2464    2.2473 C   0  0  0  0  0  0  0  0  0  0  0  0
   -5.1980   -1.0920    1.0877 C   0  0  0  0  0  0  0  0  0  0  0  0
   -4.8942   -0.3245   -0.1479 C   0  0  0  0  0  0  0  0  0  0  0  0
   -3.6120    0.2132   -0.2311 C   0  0  0  0  0  0  0  0  0  0  0  0
   -3.1816    0.9486   -1.3096 C   0  0  0  0  0  0  0  0  0  0  0  0
   -4.0977    1.1377   -2.3360 C   0  0  0  0  0  0  0  0  0  0  0  0
   -5.3852    0.6033   -2.2633 C   0  0  0  0  0  0  0  0  0  0  0  0
   -5.8001   -0.1348   -1.1682 C   0  0  0  0  0  0  0  0  0  0  0  0
    3.8670   -0.9146    0.3979 C   0  0  0  0  0  0  0  0  0  0  0  0
    4.5626    0.4028    0.6174 C   0  0  0  0  0  0  0  0  0  0  0  0
    3.7326    1.3900    1.3887 C   0  0  0  0  0  0  0  0  0  0  0  0
    4.9656    1.0574   -0.6846 C   0  0  0  0  0  0  0  0  0  0  0  0
    5.8332    0.1311    1.3966 C   0  0  0  0  0  0  0  0  0  0  0  0
    1.3956   -0.8882   -4.0636 H   0  0  0  0  0  0  0  0  0  0  0  0
    0.2247    0.3189   -3.5048 H   0  0  0  0  0  0  0  0  0  0  0  0
   -0.1737   -1.4931   -3.4259 H   0  0  0  0  0  0  0  0  0  0  0  0
   -0.7695   -0.1510    2.6906 H   0  0  0  0  0  0  0  0  0  0  0  0
    1.6020   -0.4905    2.3219 H   0  0  0  0  0  0  0  0  0  0  0  0
   -2.6955   -0.8029    2.8445 H   0  0  0  0  0  0  0  0  0  0  0  0
   -3.0174    0.9931    2.6313 H   0  0  0  0  0  0  0  0  0  0  0  0
   -4.9826   -0.8332    3.1680 H   0  0  0  0  0  0  0  0  0  0  0  0
   -5.2692    0.7065    2.2096 H   0  0  0  0  0  0  0  0  0  0  0  0
   -6.2869   -1.1909    1.2122 H   0  0  0  0  0  0  0  0  0  0  0  0
   -4.6621   -2.0478    1.0821 H   0  0  0  0  0  0  0  0  0  0  0  0
   -2.1785    1.3514   -1.3363 H   0  0  0  0  0  0  0  0  0  0  0  0
   -3.8044    1.7151   -3.2156 H   0  0  0  0  0  0  0  0  0  0  0  0
   -6.0735    0.7715   -3.0841 H   0  0  0  0  0  0  0  0  0  0  0  0
   -6.7783   -0.5610   -1.0747 H   0  0  0  0  0  0  0  0  0  0  0  0
    3.7308   -1.3904    1.3896 H   0  0  0  0  0  0  0  0  0  0  0  0
    4.5576   -1.5551   -0.1819 H   0  0  0  0  0  0  0  0  0  0  0  0
    3.4834    1.0470    2.4160 H   0  0  0  0  0  0  0  0  0  0  0  0
    2.8252    1.7056    0.8567 H   0  0  0  0  0  0  0  0  0  0  0  0
    4.3715    2.2938    1.5042 H   0  0  0  0  0  0  0  0  0  0  0  0
    5.4701    2.0091   -0.4178 H   0  0  0  0  0  0  0  0  0  0  0  0
    5.6865    0.4546   -1.2543 H   0  0  0  0  0  0  0  0  0  0  0  0
    4.0721    1.3758   -1.2808 H   0  0  0  0  0  0  0  0  0  0  0  0
    5.6428    0.0200    2.4901 H   0  0  0  0  0  0  0  0  0  0  0  0
    6.5890    0.9272    1.2318 H   0  0  0  0  0  0  0  0  0  0  0  0
    6.2560   -0.8689    1.0955 H   0  0  0  0  0  0  0  0  0  0  0  0
  1  2  1  0
  2  3  1  0
  3  4  2  0
  3  5  1  0
  5  6  1  0
  6  7  2  0
  7  8  1  0
  8  9  2  0
  9 10  1  0
 10 11  2  0
  9 12  1  0
 12 13  1  0
 13 14  1  0
 14 15  1  0
 15 16  1  0
 16 17  2  0
 17 18  1  0
 18 19  2  0
 19 20  1  0
 20 21  2  0
  5 22  1  0
 22 23  1  0
 23 24  1  0
 23 25  1  0
 23 26  1  0
  7  2  1  0
 17 12  1  0
 11  6  1  0
 21 16  1  0
  1 27  1  0
  1 28  1  0
  1 29  1  0
 10 30  1  0
 11 31  1  0
 13 32  1  0
 13 33  1  0
 14 34  1  0
 14 35  1  0
 15 36  1  0
 15 37  1  0
 18 38  1  0
 19 39  1  0
 20 40  1  0
 21 41  1  0
 22 42  1  0
 22 43  1  0
 24 44  1  0
 24 45  1  0
 24 46  1  0
 25 47  1  0
 25 48  1  0
 25 49  1  0
 26 50  1  0
 26 51  1  0
 26 52  1  0
M  END
>  <Ligand ID>  (1) 
LIG0000904

>  <Ligand>  (1) 
CHEMBL3806176

>  <SMILES>  (1) 
Cn1c(=O)n(c2c1nc(cc2)N1CCCc2c1cccc2)CC(C)(C)C

>  <CID>  (1) 
51036916.0

>  <ChEMBL ID>  (1) 
nan

>  <InChiKey>  (1) 
HTSXWSRQVOMZIM-UHFFFAOYSA-N

>  <InChi>  (1) 
InChI=1S/C21H26N4O/c1-21(2,3)14-25-17-11-12-18(22-19(17)23(4)20(25)26)24-13-7-9-15-8-5-6-10-16(15)24/h5-6,8,10-12H,7,9,13-14H2,1-4H3

>  <IUPAC Name>  (1) 
5-(3,4-dihydro-2H-quinolin-1-yl)-1-(2,2-dimethylpropyl)-3-methylimidazo[4,5-b]pyridin-2-one

$$$$
