
     RDKit          3D

 32 33  0  0  0  0  0  0  0  0999 V2000
   -1.7323   -2.5292   -1.1107 O   0  0  0  0  0  0  0  0  0  0  0  0
   -1.3034   -2.2726    0.1916 C   0  0  0  0  0  0  0  0  0  0  0  0
   -0.6320   -3.1298    0.8040 O   0  0  0  0  0  0  0  0  0  0  0  0
   -1.6849   -0.9606    0.7782 C   0  0  0  0  0  0  0  0  0  0  0  0
   -1.3969    0.1382   -0.1656 C   0  0  2  0  0  0  0  0  0  0  0  0
   -0.0775    0.4872   -0.7241 C   0  0  1  0  0  0  0  0  0  0  0  0
   -0.7409    1.4296    0.2388 C   0  0  1  0  0  0  0  0  0  0  0  0
   -1.3433    3.0111   -0.3642 P   0  0  0  0  0  0  0  0  0  0  0  0
   -0.5407    4.1067    0.2916 O   0  0  0  0  0  0  0  0  0  0  0  0
   -2.9653    3.2684   -0.0349 O   0  0  0  0  0  0  0  0  0  0  0  0
   -1.0146    3.0849   -2.0237 O   0  0  0  0  0  0  0  0  0  0  0  0
    1.1951   -0.1221   -0.3551 C   0  0  0  0  0  0  0  0  0  0  0  0
    1.7481   -0.1280    0.9075 C   0  0  0  0  0  0  0  0  0  0  0  0
    2.9538   -0.7357    1.2049 C   0  0  0  0  0  0  0  0  0  0  0  0
    3.6629   -1.3704    0.2327 C   0  0  0  0  0  0  0  0  0  0  0  0
    3.1512   -1.3900   -1.0418 C   0  0  0  0  0  0  0  0  0  0  0  0
    1.9486   -0.7838   -1.3365 C   0  0  0  0  0  0  0  0  0  0  0  0
   -1.1756   -0.8538    2.0996 N   0  0  0  0  0  0  0  0  0  0  0  0
   -1.7514   -3.4762   -1.4763 H   0  0  0  0  0  0  0  0  0  0  0  0
   -2.8138   -1.0377    0.8967 H   0  0  0  0  0  0  0  0  0  0  0  0
   -2.2718    0.3529   -0.8591 H   0  0  0  0  0  0  0  0  0  0  0  0
   -0.0915    0.8233   -1.8079 H   0  0  0  0  0  0  0  0  0  0  0  0
   -0.4261    1.4580    1.2989 H   0  0  0  0  0  0  0  0  0  0  0  0
   -3.4929    3.0120   -0.8488 H   0  0  0  0  0  0  0  0  0  0  0  0
   -0.7889    4.0127   -2.2914 H   0  0  0  0  0  0  0  0  0  0  0  0
    1.2437    0.3640    1.7123 H   0  0  0  0  0  0  0  0  0  0  0  0
    3.3450   -0.7093    2.2258 H   0  0  0  0  0  0  0  0  0  0  0  0
    4.6015   -1.8340    0.5029 H   0  0  0  0  0  0  0  0  0  0  0  0
    3.7281   -1.9040   -1.8240 H   0  0  0  0  0  0  0  0  0  0  0  0
    1.6038   -0.8373   -2.3619 H   0  0  0  0  0  0  0  0  0  0  0  0
   -1.2572    0.0673    2.5382 H   0  0  0  0  0  0  0  0  0  0  0  0
   -1.6806   -1.5417    2.7024 H   0  0  0  0  0  0  0  0  0  0  0  0
  1  2  1  0
  2  3  2  0
  2  4  1  0
  4  5  1  0
  5  6  1  0
  6  7  1  0
  7  8  1  0
  8  9  2  0
  8 10  1  0
  8 11  1  0
  6 12  1  0
 12 13  2  0
 13 14  1  0
 14 15  2  0
 15 16  1  0
 16 17  2  0
  4 18  1  0
  7  5  1  0
 17 12  1  0
  1 19  1  0
  4 20  1  0
  5 21  1  6
  6 22  1  6
  7 23  1  1
 10 24  1  0
 11 25  1  0
 13 26  1  0
 14 27  1  0
 15 28  1  0
 16 29  1  0
 17 30  1  0
 18 31  1  0
 18 32  1  0
M  END
>  <Ligand ID>  (1) 
LIG0001244

>  <Ligand>  (1) 
CHEMBL234138

>  <SMILES>  (1) 
OC(=O)C([C@@H]1[C@@H]([C@H]1P(=O)(O)O)c1ccccc1)N

>  <CID>  (1) 
44429225.0

>  <ChEMBL ID>  (1) 
nan

>  <InChiKey>  (1) 
DLDXPEVIBANPLO-IVMBQPJMSA-N

>  <InChi>  (1) 
InChI=1S/C11H14NO5P/c12-9(11(13)14)8-7(10(8)18(15,16)17)6-4-2-1-3-5-6/h1-5,7-10H,12H2,(H,13,14)(H2,15,16,17)/t7-,8-,9?,10+/m0/s1

>  <IUPAC Name>  (1) 
2-amino-2-[(1S,2R,3R)-2-phenyl-3-phosphonocyclopropyl]acetic acid

$$$$
