
     RDKit          3D

 27 28  0  0  0  0  0  0  0  0999 V2000
    3.5347   -0.2667    0.9908 C   0  0  0  0  0  0  0  0  0  0  0  0
    2.2810   -0.4419    0.1569 C   0  0  1  0  0  0  0  0  0  0  0  0
    1.4789    0.8476    0.2990 C   0  0  0  0  0  0  0  0  0  0  0  0
    0.2577    0.8087   -0.4498 N   0  0  0  0  0  0  0  0  0  0  0  0
    0.1343    1.2094   -1.7195 N   0  0  0  0  0  0  0  0  0  0  0  0
   -1.0993    1.0681   -2.1748 C   0  0  0  0  0  0  0  0  0  0  0  0
   -1.8493    0.5453   -1.1622 C   0  0  0  0  0  0  0  0  0  0  0  0
   -0.9731    0.3930   -0.0933 C   0  0  0  0  0  0  0  0  0  0  0  0
   -1.4533   -0.1184    1.0765 C   0  0  0  0  0  0  0  0  0  0  0  0
   -0.3975   -0.3244    2.4308 Cl  0  0  0  0  0  0  0  0  0  0  0  0
   -2.8003   -0.4661    1.1501 C   0  0  0  0  0  0  0  0  0  0  0  0
   -3.2837   -0.9894    2.3525 O   0  0  0  0  0  0  0  0  0  0  0  0
   -3.6611   -0.3110    0.0838 C   0  0  0  0  0  0  0  0  0  0  0  0
   -3.1764    0.2057   -1.0983 C   0  0  0  0  0  0  0  0  0  0  0  0
    2.6764   -0.6220   -1.2102 N   0  0  0  0  0  0  0  0  0  0  0  0
    3.3438    0.4376    1.8203 H   0  0  0  0  0  0  0  0  0  0  0  0
    3.9387   -1.2299    1.3706 H   0  0  0  0  0  0  0  0  0  0  0  0
    4.3465    0.2213    0.3758 H   0  0  0  0  0  0  0  0  0  0  0  0
    1.7168   -1.3133    0.5414 H   0  0  0  0  0  0  0  0  0  0  0  0
    1.3798    1.1532    1.3534 H   0  0  0  0  0  0  0  0  0  0  0  0
    2.1591    1.6193   -0.1443 H   0  0  0  0  0  0  0  0  0  0  0  0
   -1.4093    1.3331   -3.1757 H   0  0  0  0  0  0  0  0  0  0  0  0
   -3.4216   -1.9910    2.4563 H   0  0  0  0  0  0  0  0  0  0  0  0
   -4.6979   -0.5912    0.1775 H   0  0  0  0  0  0  0  0  0  0  0  0
   -3.7898    0.3529   -1.9662 H   0  0  0  0  0  0  0  0  0  0  0  0
    2.5215   -1.5894   -1.5725 H   0  0  0  0  0  0  0  0  0  0  0  0
    2.2434    0.0593   -1.8689 H   0  0  0  0  0  0  0  0  0  0  0  0
  1  2  1  0
  2  3  1  0
  3  4  1  0
  4  5  1  0
  5  6  2  0
  6  7  1  0
  7  8  2  0
  8  9  1  0
  9 10  1  0
  9 11  2  0
 11 12  1  0
 11 13  1  0
 13 14  2  0
  2 15  1  0
  8  4  1  0
 14  7  1  0
  1 16  1  0
  1 17  1  0
  1 18  1  0
  2 19  1  1
  3 20  1  0
  3 21  1  0
  6 22  1  0
 12 23  1  0
 13 24  1  0
 14 25  1  0
 15 26  1  0
 15 27  1  0
M  END
>  <Ligand ID>  (1) 
LIG0002154

>  <Ligand>  (1) 
CHEMBL373245

>  <SMILES>  (1) 
C[C@@H](Cn1ncc2c1c(Cl)c(O)cc2)N

>  <CID>  (1) 
135509961.0

>  <ChEMBL ID>  (1) 
nan

>  <InChiKey>  (1) 
VCXUEWRCJZWCJB-LURJTMIESA-N

>  <InChi>  (1) 
InChI=1S/C10H12ClN3O/c1-6(12)5-14-10-7(4-13-14)2-3-8(15)9(10)11/h2-4,6,15H,5,12H2,1H3/t6-/m0/s1

>  <IUPAC Name>  (1) 
1-[(2S)-2-aminopropyl]-7-chloroindazol-6-ol

$$$$
