
     RDKit          3D

 30 31  0  0  0  0  0  0  0  0999 V2000
    0.4009   -3.1640    0.4412 O   0  0  0  0  0  0  0  0  0  0  0  0
    1.4971   -2.5335   -0.0763 C   0  0  0  0  0  0  0  0  0  0  0  0
    2.6349   -3.0563    0.1833 O   0  0  0  0  0  0  0  0  0  0  0  0
    1.5009   -1.3125   -0.9047 C   0  0  0  0  0  0  0  0  0  0  0  0
    2.3380   -0.2446   -0.2417 C   0  0  0  0  0  0  0  0  0  0  0  0
    2.3702    1.0040   -0.6522 O   0  0  0  0  0  0  0  0  0  0  0  0
    3.1664    1.7156    0.0883 N   0  0  0  0  0  0  0  0  0  0  0  0
    3.6943    0.9179    1.0379 C   0  0  0  0  0  0  0  0  0  0  0  0
    4.5163    1.2756    1.9387 O   0  0  0  0  0  0  0  0  0  0  0  0
    3.1684   -0.3564    0.8392 C   0  0  0  0  0  0  0  0  0  0  0  0
    0.1906   -0.7501   -1.1330 N   0  0  0  0  0  0  0  0  0  0  0  0
   -0.3432   -0.2610    0.0962 C   0  0  0  0  0  0  0  0  0  0  0  0
   -1.7017    0.3471   -0.0769 C   0  0  0  0  0  0  0  0  0  0  0  0
   -1.7671    1.7132   -0.3645 C   0  0  0  0  0  0  0  0  0  0  0  0
   -2.9986    2.3116   -0.5314 C   0  0  0  0  0  0  0  0  0  0  0  0
   -4.1635    1.5508   -0.4120 C   0  0  0  0  0  0  0  0  0  0  0  0
   -4.0953    0.1943   -0.1263 C   0  0  0  0  0  0  0  0  0  0  0  0
   -2.8588   -0.4101    0.0419 C   0  0  0  0  0  0  0  0  0  0  0  0
    0.3277   -4.1814    0.4132 H   0  0  0  0  0  0  0  0  0  0  0  0
    1.9386   -1.5276   -1.9266 H   0  0  0  0  0  0  0  0  0  0  0  0
    3.3279    2.7367   -0.0780 H   0  0  0  0  0  0  0  0  0  0  0  0
    3.3743   -1.2277    1.4126 H   0  0  0  0  0  0  0  0  0  0  0  0
    0.3142   -0.0128   -1.8616 H   0  0  0  0  0  0  0  0  0  0  0  0
    0.3574    0.5216    0.4636 H   0  0  0  0  0  0  0  0  0  0  0  0
   -0.4244   -1.0836    0.8206 H   0  0  0  0  0  0  0  0  0  0  0  0
   -0.8465    2.2928   -0.4543 H   0  0  0  0  0  0  0  0  0  0  0  0
   -3.0306    3.3740   -0.7544 H   0  0  0  0  0  0  0  0  0  0  0  0
   -5.1175    2.0488   -0.5484 H   0  0  0  0  0  0  0  0  0  0  0  0
   -4.9911   -0.4115   -0.0302 H   0  0  0  0  0  0  0  0  0  0  0  0
   -2.7800   -1.4710    0.2662 H   0  0  0  0  0  0  0  0  0  0  0  0
  1  2  1  0
  2  3  2  0
  2  4  1  0
  4  5  1  0
  5  6  1  0
  6  7  1  0
  7  8  1  0
  8  9  2  0
  8 10  1  0
  4 11  1  0
 11 12  1  0
 12 13  1  0
 13 14  2  0
 14 15  1  0
 15 16  2  0
 16 17  1  0
 17 18  2  0
 10  5  2  0
 18 13  1  0
  1 19  1  0
  4 20  1  0
  7 21  1  0
 10 22  1  0
 11 23  1  0
 12 24  1  0
 12 25  1  0
 14 26  1  0
 15 27  1  0
 16 28  1  0
 17 29  1  0
 18 30  1  0
M  END
>  <Ligand ID>  (1) 
LIG0002693

>  <Ligand>  (1) 
CHEMBL287785

>  <SMILES>  (1) 
OC(=O)C(c1o[nH]c(=O)c1)NCc1ccccc1

>  <CID>  (1) 
15840277.0

>  <ChEMBL ID>  (1) 
nan

>  <InChiKey>  (1) 
XIBLDTHMLXQDKN-UHFFFAOYSA-N

>  <InChi>  (1) 
InChI=1S/C12H12N2O4/c15-10-6-9(18-14-10)11(12(16)17)13-7-8-4-2-1-3-5-8/h1-6,11,13H,7H2,(H,14,15)(H,16,17)

>  <IUPAC Name>  (1) 
2-(benzylamino)-2-(3-oxo-1,2-oxazol-5-yl)acetic acid

$$$$
