
     RDKit          3D

 34 36  0  0  0  0  0  0  0  0999 V2000
   -0.7643    2.6047   -0.6799 C   0  0  0  0  0  0  0  0  0  0  0  0
   -1.2980    1.6759    0.3867 C   0  0  1  0  0  0  0  0  0  0  0  0
   -2.6320    1.0955    0.0325 C   0  0  0  0  0  0  0  0  0  0  0  0
   -2.5806   -0.2710    0.6325 C   0  0  2  0  0  0  0  0  0  0  0  0
   -1.1771   -0.5649    1.0403 C   0  0  2  0  0  0  0  0  0  0  0  0
   -0.3902    0.5548    0.5465 N   0  0  0  0  0  0  0  0  0  0  0  0
    1.0002    0.5520    0.2730 C   0  0  0  0  0  0  0  0  0  0  0  0
    1.6746    1.6230   -0.1840 N   0  0  0  0  0  0  0  0  0  0  0  0
    2.9946    1.6355   -0.4482 C   0  0  0  0  0  0  0  0  0  0  0  0
    3.7031    0.4721   -0.2361 C   0  0  0  0  0  0  0  0  0  0  0  0
    3.0394   -0.6385    0.2307 C   0  0  0  0  0  0  0  0  0  0  0  0
    1.7150   -0.5753    0.4729 N   0  0  0  0  0  0  0  0  0  0  0  0
    3.8195   -1.8949    0.4569 C   0  0  0  0  0  0  0  0  0  0  0  0
    2.9508   -2.9604    0.5696 F   0  0  0  0  0  0  0  0  0  0  0  0
    4.6900   -2.0342   -0.6242 F   0  0  0  0  0  0  0  0  0  0  0  0
    4.6080   -1.7878    1.5862 F   0  0  0  0  0  0  0  0  0  0  0  0
   -0.8852   -1.8622    0.3694 C   0  0  0  0  0  0  0  0  0  0  0  0
   -2.1862   -2.4480    0.0182 N   0  0  0  0  0  0  0  0  0  0  0  0
   -2.8859   -1.2780   -0.4503 C   0  0  0  0  0  0  0  0  0  0  0  0
   -0.0460    3.2890   -0.1861 H   0  0  0  0  0  0  0  0  0  0  0  0
   -1.6122    3.2127   -1.0601 H   0  0  0  0  0  0  0  0  0  0  0  0
   -0.2573    2.0656   -1.5015 H   0  0  0  0  0  0  0  0  0  0  0  0
   -1.3460    2.1972    1.3677 H   0  0  0  0  0  0  0  0  0  0  0  0
   -3.4136    1.7319    0.5235 H   0  0  0  0  0  0  0  0  0  0  0  0
   -2.7589    1.0619   -1.0650 H   0  0  0  0  0  0  0  0  0  0  0  0
   -3.2834   -0.3651    1.4887 H   0  0  0  0  0  0  0  0  0  0  0  0
   -1.0849   -0.5994    2.1442 H   0  0  0  0  0  0  0  0  0  0  0  0
    3.4285    2.5463   -0.8093 H   0  0  0  0  0  0  0  0  0  0  0  0
    4.7592    0.4452   -0.4364 H   0  0  0  0  0  0  0  0  0  0  0  0
   -0.4598   -2.5569    1.1472 H   0  0  0  0  0  0  0  0  0  0  0  0
   -0.2322   -1.8055   -0.5024 H   0  0  0  0  0  0  0  0  0  0  0  0
   -2.6685   -2.7746    0.8949 H   0  0  0  0  0  0  0  0  0  0  0  0
   -3.9743   -1.4177   -0.5390 H   0  0  0  0  0  0  0  0  0  0  0  0
   -2.4462   -0.9289   -1.3968 H   0  0  0  0  0  0  0  0  0  0  0  0
  1  2  1  0
  2  3  1  0
  3  4  1  0
  4  5  1  0
  5  6  1  0
  6  7  1  0
  7  8  2  0
  8  9  1  0
  9 10  2  0
 10 11  1  0
 11 12  2  0
 11 13  1  0
 13 14  1  0
 13 15  1  0
 13 16  1  0
  5 17  1  0
 17 18  1  0
 18 19  1  0
  6  2  1  0
 12  7  1  0
 19  4  1  0
  1 20  1  0
  1 21  1  0
  1 22  1  0
  2 23  1  1
  3 24  1  0
  3 25  1  0
  4 26  1  1
  5 27  1  1
  9 28  1  0
 10 29  1  0
 17 30  1  0
 17 31  1  0
 18 32  1  0
 19 33  1  0
 19 34  1  0
M  END
>  <Ligand ID>  (1) 
LIG0002291

>  <Ligand>  (1) 
CHEMBL210215

>  <SMILES>  (1) 
C[C@H]1C[C@@H]2[C@H](N1c1nccc(n1)C(F)(F)F)CNC2

>  <CID>  (1) 
44412389.0

>  <ChEMBL ID>  (1) 
nan

>  <InChiKey>  (1) 
BHZWUADTFGRRTH-XHNCKOQMSA-N

>  <InChi>  (1) 
InChI=1S/C12H15F3N4/c1-7-4-8-5-16-6-9(8)19(7)11-17-3-2-10(18-11)12(13,14)15/h2-3,7-9,16H,4-6H2,1H3/t7-,8-,9+/m0/s1

>  <IUPAC Name>  (1) 
(2S,3aS,6aS)-2-methyl-1-[4-(trifluoromethyl)pyrimidin-2-yl]-3,3a,4,5,6,6a-hexahydro-2H-pyrrolo[2,3-c]pyrrole

$$$$
