
     RDKit          3D

 86 88  0  0  0  0  0  0  0  0999 V2000
   -3.6364   -3.0115   -0.0994 C   0  0  0  0  0  0  0  0  0  0  0  0
   -3.5228   -2.2602    1.2103 C   0  0  0  0  0  0  0  0  0  0  0  0
   -3.9449   -0.8421    1.1595 C   0  0  0  0  0  0  0  0  0  0  0  0
   -3.2532    0.0924    0.2502 C   0  0  0  0  0  0  0  0  0  0  0  0
   -1.8856    0.3422    0.3840 N   0  0  0  0  0  0  0  0  0  0  0  0
   -0.9190   -0.5947    0.0496 C   0  0  0  0  0  0  0  0  0  0  0  0
    0.4127   -0.3464    0.7842 C   0  0  0  0  0  0  0  0  0  0  0  0
    0.7738    1.0109    0.4045 N   0  0  0  0  0  0  0  0  0  0  0  0
   -0.2346    2.0338    0.6394 C   0  0  0  0  0  0  0  0  0  0  0  0
   -1.4845    1.4079    1.2585 C   0  0  0  0  0  0  0  0  0  0  0  0
    2.0224    1.3608   -0.1667 C   0  0  0  0  0  0  0  0  0  0  0  0
    2.2563    2.5727   -0.4797 O   0  0  0  0  0  0  0  0  0  0  0  0
    3.0645    0.3217   -0.4049 C   0  0  2  0  0  0  0  0  0  0  0  0
    3.4418   -0.2181    0.9443 C   0  0  0  0  0  0  0  0  0  0  0  0
    4.6949    0.3912    1.3158 N   0  0  0  0  0  0  0  0  0  0  0  0
    5.3157    0.8875    0.1357 C   0  0  0  0  0  0  0  0  0  0  0  0
    4.2708    0.9308   -0.9579 C   0  0  1  0  0  0  0  0  0  0  0  0
    4.7902    0.4496   -2.2456 C   0  0  0  0  0  0  0  0  0  0  0  0
    5.3521    1.2849   -3.2091 C   0  0  0  0  0  0  0  0  0  0  0  0
    5.8293    0.8258   -4.4011 C   0  0  0  0  0  0  0  0  0  0  0  0
    5.7754   -0.5199   -4.7137 C   0  0  0  0  0  0  0  0  0  0  0  0
    5.2232   -1.3679   -3.7758 C   0  0  0  0  0  0  0  0  0  0  0  0
    4.7345   -0.8903   -2.5524 C   0  0  0  0  0  0  0  0  0  0  0  0
    4.2218   -1.8317   -1.7273 F   0  0  0  0  0  0  0  0  0  0  0  0
    6.2398   -1.0183   -5.8865 F   0  0  0  0  0  0  0  0  0  0  0  0
    5.5389   -0.4147    2.1381 C   0  0  0  0  0  0  0  0  0  0  0  0
    5.9594   -1.7178    1.5379 C   0  0  0  0  0  0  0  0  0  0  0  0
    6.7746    0.4255    2.4540 C   0  0  0  0  0  0  0  0  0  0  0  0
    4.7988   -0.7143    3.4326 C   0  0  0  0  0  0  0  0  0  0  0  0
   -4.0495    1.3653    0.0159 C   0  0  0  0  0  0  0  0  0  0  0  0
   -5.3350    1.2029   -0.5825 N   0  0  0  0  0  0  0  0  0  0  0  0
   -5.4206    1.2157   -2.0100 C   0  0  0  0  0  0  0  0  0  0  0  0
   -6.5256    1.0743   -2.6161 O   0  0  0  0  0  0  0  0  0  0  0  0
   -4.2262    1.3947   -2.8816 C   0  0  0  0  0  0  0  0  0  0  0  0
   -6.5916    1.0709    0.1327 C   0  0  0  0  0  0  0  0  0  0  0  0
   -7.4340   -0.0755   -0.3730 C   0  0  0  0  0  0  0  0  0  0  0  0
   -7.4286    2.3473   -0.0612 C   0  0  0  0  0  0  0  0  0  0  0  0
   -4.5273   -2.9985    2.1400 C   0  0  0  0  0  0  0  0  0  0  0  0
   -3.0141   -3.9413    0.0240 H   0  0  0  0  0  0  0  0  0  0  0  0
   -3.1849   -2.4679   -0.9597 H   0  0  0  0  0  0  0  0  0  0  0  0
   -4.6611   -3.3850   -0.2936 H   0  0  0  0  0  0  0  0  0  0  0  0
   -2.5555   -2.4760    1.6753 H   0  0  0  0  0  0  0  0  0  0  0  0
   -5.0375   -0.8631    0.8610 H   0  0  0  0  0  0  0  0  0  0  0  0
   -3.9953   -0.4796    2.2190 H   0  0  0  0  0  0  0  0  0  0  0  0
   -3.3445   -0.4115   -0.7863 H   0  0  0  0  0  0  0  0  0  0  0  0
   -1.1590   -1.6612    0.0365 H   0  0  0  0  0  0  0  0  0  0  0  0
   -0.6182   -0.3857   -1.0380 H   0  0  0  0  0  0  0  0  0  0  0  0
    0.3217   -0.3954    1.8656 H   0  0  0  0  0  0  0  0  0  0  0  0
    1.1226   -1.1120    0.4449 H   0  0  0  0  0  0  0  0  0  0  0  0
    0.1343    2.8966    1.1984 H   0  0  0  0  0  0  0  0  0  0  0  0
   -0.5631    2.3913   -0.3805 H   0  0  0  0  0  0  0  0  0  0  0  0
   -1.2834    1.1052    2.3017 H   0  0  0  0  0  0  0  0  0  0  0  0
   -2.2217    2.2279    1.2839 H   0  0  0  0  0  0  0  0  0  0  0  0
    2.5561   -0.4261   -1.0449 H   0  0  0  0  0  0  0  0  0  0  0  0
    3.5173   -1.3007    1.0283 H   0  0  0  0  0  0  0  0  0  0  0  0
    2.7167    0.1033    1.7505 H   0  0  0  0  0  0  0  0  0  0  0  0
    5.7469    1.8775    0.3850 H   0  0  0  0  0  0  0  0  0  0  0  0
    6.1939    0.2732   -0.1916 H   0  0  0  0  0  0  0  0  0  0  0  0
    4.0982    2.0349   -1.1357 H   0  0  0  0  0  0  0  0  0  0  0  0
    5.4053    2.3493   -2.9888 H   0  0  0  0  0  0  0  0  0  0  0  0
    6.2623    1.5244   -5.1274 H   0  0  0  0  0  0  0  0  0  0  0  0
    5.1726   -2.4410   -4.0120 H   0  0  0  0  0  0  0  0  0  0  0  0
    6.9095   -2.0587    2.0308 H   0  0  0  0  0  0  0  0  0  0  0  0
    6.1955   -1.6597    0.4504 H   0  0  0  0  0  0  0  0  0  0  0  0
    5.2113   -2.5180    1.7458 H   0  0  0  0  0  0  0  0  0  0  0  0
    6.3893    1.3089    2.9970 H   0  0  0  0  0  0  0  0  0  0  0  0
    7.1914    0.7984    1.5008 H   0  0  0  0  0  0  0  0  0  0  0  0
    7.5526   -0.1316    2.9925 H   0  0  0  0  0  0  0  0  0  0  0  0
    5.5237   -0.5835    4.2628 H   0  0  0  0  0  0  0  0  0  0  0  0
    4.4485   -1.7625    3.4272 H   0  0  0  0  0  0  0  0  0  0  0  0
    3.9862    0.0178    3.6134 H   0  0  0  0  0  0  0  0  0  0  0  0
   -4.2424    1.7518    1.0663 H   0  0  0  0  0  0  0  0  0  0  0  0
   -3.4272    2.1640   -0.4298 H   0  0  0  0  0  0  0  0  0  0  0  0
   -3.7385    0.4075   -2.9958 H   0  0  0  0  0  0  0  0  0  0  0  0
   -4.5359    1.7254   -3.9110 H   0  0  0  0  0  0  0  0  0  0  0  0
   -3.5184    2.0955   -2.4416 H   0  0  0  0  0  0  0  0  0  0  0  0
   -6.4224    1.0361    1.2276 H   0  0  0  0  0  0  0  0  0  0  0  0
   -8.3423    0.2760   -0.8991 H   0  0  0  0  0  0  0  0  0  0  0  0
   -7.8204   -0.6609    0.5116 H   0  0  0  0  0  0  0  0  0  0  0  0
   -6.8743   -0.7245   -1.0775 H   0  0  0  0  0  0  0  0  0  0  0  0
   -7.6409    2.4827   -1.1297 H   0  0  0  0  0  0  0  0  0  0  0  0
   -8.3585    2.1401    0.4987 H   0  0  0  0  0  0  0  0  0  0  0  0
   -6.8934    3.1857    0.4187 H   0  0  0  0  0  0  0  0  0  0  0  0
   -5.5488   -2.7233    1.8100 H   0  0  0  0  0  0  0  0  0  0  0  0
   -4.4242   -4.0939    1.9714 H   0  0  0  0  0  0  0  0  0  0  0  0
   -4.3020   -2.6976    3.1751 H   0  0  0  0  0  0  0  0  0  0  0  0
  1  2  1  0
  2  3  1  0
  3  4  1  0
  4  5  1  0
  5  6  1  0
  6  7  1  0
  7  8  1  0
  8  9  1  0
  9 10  1  0
  8 11  1  0
 11 12  2  0
 11 13  1  0
 13 14  1  0
 14 15  1  0
 15 16  1  0
 16 17  1  0
 17 18  1  0
 18 19  2  0
 19 20  1  0
 20 21  2  0
 21 22  1  0
 22 23  2  0
 23 24  1  0
 21 25  1  0
 15 26  1  0
 26 27  1  0
 26 28  1  0
 26 29  1  0
  4 30  1  0
 30 31  1  0
 31 32  1  0
 32 33  2  0
 32 34  1  0
 31 35  1  0
 35 36  1  0
 35 37  1  0
  2 38  1  0
 10  5  1  0
 17 13  1  0
 23 18  1  0
  1 39  1  0
  1 40  1  0
  1 41  1  0
  2 42  1  0
  3 43  1  0
  3 44  1  0
  4 45  1  0
  6 46  1  0
  6 47  1  0
  7 48  1  0
  7 49  1  0
  9 50  1  0
  9 51  1  0
 10 52  1  0
 10 53  1  0
 13 54  1  6
 14 55  1  0
 14 56  1  0
 16 57  1  0
 16 58  1  0
 17 59  1  6
 19 60  1  0
 20 61  1  0
 22 62  1  0
 27 63  1  0
 27 64  1  0
 27 65  1  0
 28 66  1  0
 28 67  1  0
 28 68  1  0
 29 69  1  0
 29 70  1  0
 29 71  1  0
 30 72  1  0
 30 73  1  0
 34 74  1  0
 34 75  1  0
 34 76  1  0
 35 77  1  0
 36 78  1  0
 36 79  1  0
 36 80  1  0
 37 81  1  0
 37 82  1  0
 37 83  1  0
 38 84  1  0
 38 85  1  0
 38 86  1  0
M  END
>  <Ligand ID>  (1) 
LIG0001507

>  <Ligand>  (1) 
CHEMBL1209321

>  <SMILES>  (1) 
CC(CC(N1CCN(CC1)C(=O)[C@@H]1CN(C[C@H]1c1ccc(cc1F)F)C(C)(C)C)CN(C(=O)C)C(C)C)C

>  <CID>  (1) 
49862378.0

>  <ChEMBL ID>  (1) 
nan

>  <InChiKey>  (1) 
NRXOSRAXRKFLQU-CUBVPSHMSA-N

>  <InChi>  (1) 
InChI=1S/C30H48F2N4O2/c1-20(2)15-24(17-36(21(3)4)22(5)37)33-11-13-34(14-12-33)29(38)27-19-35(30(6,7)8)18-26(27)25-10-9-23(31)16-28(25)32/h9-10,16,20-21,24,26-27H,11-15,17-19H2,1-8H3/t24?,26-,27+/m0/s1

>  <IUPAC Name>  (1) 
N-[2-[4-[(3S,4R)-1-tert-butyl-4-(2,4-difluorophenyl)pyrrolidine-3-carbonyl]piperazin-1-yl]-4-methylpentyl]-N-propan-2-ylacetamide

$$$$
