
     RDKit          3D

111115  0  0  0  0  0  0  0  0999 V2000
    1.6671   -1.6408    1.4848 O   0  0  0  0  0  0  0  0  0  0  0  0
    2.7113   -0.9288    1.3678 C   0  0  0  0  0  0  0  0  0  0  0  0
    2.5580    0.4483    1.6245 N   0  0  0  0  0  0  0  0  0  0  0  0
    1.2458    0.9182    1.9519 C   0  0  2  0  0  0  0  0  0  0  0  0
    0.3579    0.0578    2.7646 C   0  0  0  0  0  0  0  0  0  0  0  0
    0.7306   -0.7585    3.6236 O   0  0  0  0  0  0  0  0  0  0  0  0
   -1.0466    0.1947    2.4945 N   0  0  0  0  0  0  0  0  0  0  0  0
   -2.0914   -0.5497    3.1278 C   0  0  0  0  0  0  0  0  0  0  0  0
   -3.4045   -0.3417    2.4032 C   0  0  0  0  0  0  0  0  0  0  0  0
   -4.3547   -1.0384    2.8193 O   0  0  0  0  0  0  0  0  0  0  0  0
   -3.5278    0.5566    1.3211 N   0  0  0  0  0  0  0  0  0  0  0  0
   -4.7763    0.6586    0.4949 C   0  0  2  0  0  0  0  0  0  0  0  0
   -4.0796    0.1412   -0.8413 C   0  0  0  0  0  0  0  0  0  0  0  0
   -3.1326    1.0559   -1.0779 O   0  0  0  0  0  0  0  0  0  0  0  0
   -4.2902   -0.7822   -1.4719 O   0  0  0  0  0  0  0  0  0  0  0  0
   -4.5489   -1.9696   -2.2955 C   0  0  0  0  0  0  0  0  0  0  0  0
   -5.8725   -2.3944   -1.6738 C   0  0  0  0  0  0  0  0  0  0  0  0
   -6.9775   -1.8923   -2.3171 C   0  0  0  0  0  0  0  0  0  0  0  0
   -8.2235   -2.0861   -1.8020 C   0  0  0  0  0  0  0  0  0  0  0  0
   -8.3402   -2.7935   -0.6216 C   0  0  0  0  0  0  0  0  0  0  0  0
   -7.2191   -3.2984    0.0225 C   0  0  0  0  0  0  0  0  0  0  0  0
   -5.9313   -3.1082   -0.4999 C   0  0  0  0  0  0  0  0  0  0  0  0
   -7.2861   -4.0380    1.3045 C   0  0  0  0  0  0  0  0  0  0  0  0
   -7.5316   -3.1072    2.3012 F   0  0  0  0  0  0  0  0  0  0  0  0
   -8.3896   -4.9065    1.2964 F   0  0  0  0  0  0  0  0  0  0  0  0
   -6.1640   -4.7427    1.5960 F   0  0  0  0  0  0  0  0  0  0  0  0
   -9.3825   -1.5212   -2.5097 C   0  0  0  0  0  0  0  0  0  0  0  0
  -10.4051   -1.1833   -1.6499 F   0  0  0  0  0  0  0  0  0  0  0  0
   -9.8975   -2.4198   -3.4196 F   0  0  0  0  0  0  0  0  0  0  0  0
   -8.9573   -0.3756   -3.1823 F   0  0  0  0  0  0  0  0  0  0  0  0
   -5.2077    2.0218    0.2289 C   0  0  0  0  0  0  0  0  0  0  0  0
   -6.4183    2.1186   -0.6106 C   0  0  0  0  0  0  0  0  0  0  0  0
   -6.4258    2.5848   -1.9492 C   0  0  0  0  0  0  0  0  0  0  0  0
   -7.7116    2.6296   -2.3876 N   0  0  0  0  0  0  0  0  0  0  0  0
   -8.5401    2.2210   -1.4220 C   0  0  0  0  0  0  0  0  0  0  0  0
   -7.7464    1.9074   -0.3362 C   0  0  0  0  0  0  0  0  0  0  0  0
   -8.4004    1.4456    0.8125 C   0  0  0  0  0  0  0  0  0  0  0  0
   -9.7580    1.3360    0.7801 C   0  0  0  0  0  0  0  0  0  0  0  0
  -10.5647    1.6533   -0.3117 C   0  0  0  0  0  0  0  0  0  0  0  0
   -9.9068    2.1144   -1.4574 C   0  0  0  0  0  0  0  0  0  0  0  0
    0.6846    1.6433    0.8315 C   0  0  0  0  0  0  0  0  0  0  0  0
    0.5863    1.0043   -0.4867 C   0  0  0  0  0  0  0  0  0  0  0  0
   -0.2554   -0.0662   -0.7430 C   0  0  0  0  0  0  0  0  0  0  0  0
   -0.3681   -0.5842   -2.0465 C   0  0  0  0  0  0  0  0  0  0  0  0
    0.3275   -0.0711   -3.1062 C   0  0  0  0  0  0  0  0  0  0  0  0
    1.1736    1.0012   -2.8670 C   0  0  0  0  0  0  0  0  0  0  0  0
    1.2726    1.4807   -1.6100 C   0  0  0  0  0  0  0  0  0  0  0  0
    3.9298   -1.6390    0.9703 C   0  0  0  0  0  0  0  0  0  0  0  0
    5.1227   -0.9021    0.7738 N   0  0  0  0  0  0  0  0  0  0  0  0
    5.1222    0.1418   -0.2097 C   0  0  0  0  0  0  0  0  0  0  0  0
    4.0780    0.3961   -0.9093 O   0  0  0  0  0  0  0  0  0  0  0  0
    6.2856    1.0003   -0.5039 C   0  0  2  0  0  0  0  0  0  0  0  0
    7.4841    0.5912    0.2004 N   0  0  0  0  0  0  0  0  0  0  0  0
    7.6822    0.6763    1.5738 C   0  0  0  0  0  0  0  0  0  0  0  0
    6.6765    1.1846    2.2380 O   0  0  0  0  0  0  0  0  0  0  0  0
    8.7998    0.2979    2.4089 C   0  0  2  0  0  0  0  0  0  0  0  0
    9.7625   -0.7540    2.0426 C   0  0  0  0  0  0  0  0  0  0  0  0
   10.5914   -0.5329    0.8530 C   0  0  0  0  0  0  0  0  0  0  0  0
   11.6874    0.3486    1.0258 C   0  0  0  0  0  0  0  0  0  0  0  0
   12.5878    0.6163    0.0039 C   0  0  0  0  0  0  0  0  0  0  0  0
   12.4717    0.0375   -1.2476 C   0  0  0  0  0  0  0  0  0  0  0  0
   11.3893   -0.8278   -1.3974 C   0  0  0  0  0  0  0  0  0  0  0  0
   10.4946   -1.0938   -0.3844 C   0  0  0  0  0  0  0  0  0  0  0  0
   13.3644    0.3074   -2.2492 O   0  0  0  0  0  0  0  0  0  0  0  0
    8.3615    0.0582    3.7959 N   0  0  0  0  0  0  0  0  0  0  0  0
    5.9778    2.4766   -0.2483 C   0  0  0  0  0  0  0  0  0  0  0  0
    3.4024    1.0560    1.6008 H   0  0  0  0  0  0  0  0  0  0  0  0
    1.4986    1.7352    2.7576 H   0  0  0  0  0  0  0  0  0  0  0  0
   -1.2988    0.8926    1.8045 H   0  0  0  0  0  0  0  0  0  0  0  0
   -1.8722   -1.6610    3.0418 H   0  0  0  0  0  0  0  0  0  0  0  0
   -2.2109   -0.3603    4.2172 H   0  0  0  0  0  0  0  0  0  0  0  0
   -2.8116    1.2483    1.0054 H   0  0  0  0  0  0  0  0  0  0  0  0
   -5.4763   -0.0177    0.8623 H   0  0  0  0  0  0  0  0  0  0  0  0
   -3.7671   -2.6805   -2.0551 H   0  0  0  0  0  0  0  0  0  0  0  0
   -4.6709   -1.6661   -3.3334 H   0  0  0  0  0  0  0  0  0  0  0  0
   -6.8221   -1.3287   -3.2529 H   0  0  0  0  0  0  0  0  0  0  0  0
   -9.2767   -3.0040   -0.1255 H   0  0  0  0  0  0  0  0  0  0  0  0
   -5.0395   -3.4759   -0.0186 H   0  0  0  0  0  0  0  0  0  0  0  0
   -5.3844    2.6260    1.1725 H   0  0  0  0  0  0  0  0  0  0  0  0
   -4.3989    2.5949   -0.3358 H   0  0  0  0  0  0  0  0  0  0  0  0
   -5.5482    2.8679   -2.5480 H   0  0  0  0  0  0  0  0  0  0  0  0
   -7.9603    2.9611   -3.3742 H   0  0  0  0  0  0  0  0  0  0  0  0
   -7.7879    1.1929    1.6872 H   0  0  0  0  0  0  0  0  0  0  0  0
  -10.2838    0.9932    1.6462 H   0  0  0  0  0  0  0  0  0  0  0  0
  -11.6220    1.5324   -0.2582 H   0  0  0  0  0  0  0  0  0  0  0  0
  -10.5398    2.3583   -2.2949 H   0  0  0  0  0  0  0  0  0  0  0  0
    1.4475    2.5197    0.6390 H   0  0  0  0  0  0  0  0  0  0  0  0
   -0.2270    2.2167    1.0596 H   0  0  0  0  0  0  0  0  0  0  0  0
   -0.8401   -0.5628   -0.0098 H   0  0  0  0  0  0  0  0  0  0  0  0
   -1.0335   -1.4445   -2.2453 H   0  0  0  0  0  0  0  0  0  0  0  0
    0.2290   -0.4988   -4.1125 H   0  0  0  0  0  0  0  0  0  0  0  0
    1.7126    1.4095   -3.6883 H   0  0  0  0  0  0  0  0  0  0  0  0
    1.9585    2.3168   -1.4520 H   0  0  0  0  0  0  0  0  0  0  0  0
    4.0814   -2.4736    1.7397 H   0  0  0  0  0  0  0  0  0  0  0  0
    3.7586   -2.2402    0.0204 H   0  0  0  0  0  0  0  0  0  0  0  0
    5.9617   -1.1451    1.3365 H   0  0  0  0  0  0  0  0  0  0  0  0
    6.4444    0.9079   -1.6109 H   0  0  0  0  0  0  0  0  0  0  0  0
    8.2491    0.2218   -0.3860 H   0  0  0  0  0  0  0  0  0  0  0  0
    9.4609    1.2548    2.5125 H   0  0  0  0  0  0  0  0  0  0  0  0
    9.1151   -1.6768    1.8158 H   0  0  0  0  0  0  0  0  0  0  0  0
   10.3958   -1.0884    2.9215 H   0  0  0  0  0  0  0  0  0  0  0  0
   11.8038    0.8134    1.9763 H   0  0  0  0  0  0  0  0  0  0  0  0
   13.4178    1.2924    0.1472 H   0  0  0  0  0  0  0  0  0  0  0  0
   11.3001   -1.2855   -2.3838 H   0  0  0  0  0  0  0  0  0  0  0  0
    9.6453   -1.7867   -0.5327 H   0  0  0  0  0  0  0  0  0  0  0  0
   13.0422    0.6316   -3.1686 H   0  0  0  0  0  0  0  0  0  0  0  0
    8.7845   -0.8517    4.1459 H   0  0  0  0  0  0  0  0  0  0  0  0
    7.3381    0.0213    3.7693 H   0  0  0  0  0  0  0  0  0  0  0  0
    4.9071    2.6500   -0.1090 H   0  0  0  0  0  0  0  0  0  0  0  0
    6.6015    2.8469    0.6091 H   0  0  0  0  0  0  0  0  0  0  0  0
    6.2656    3.1090   -1.1258 H   0  0  0  0  0  0  0  0  0  0  0  0
  1  2  2  0
  2  3  1  0
  3  4  1  0
  4  5  1  0
  5  6  2  0
  5  7  1  0
  7  8  1  0
  8  9  1  0
  9 10  2  0
  9 11  1  0
 11 12  1  0
 12 13  1  0
 13 14  2  0
 13 15  1  0
 15 16  1  0
 16 17  1  0
 17 18  2  0
 18 19  1  0
 19 20  2  0
 20 21  1  0
 21 22  2  0
 21 23  1  0
 23 24  1  0
 23 25  1  0
 23 26  1  0
 19 27  1  0
 27 28  1  0
 27 29  1  0
 27 30  1  0
 12 31  1  0
 31 32  1  0
 32 33  2  0
 33 34  1  0
 34 35  1  0
 35 36  2  0
 36 37  1  0
 37 38  2  0
 38 39  1  0
 39 40  2  0
  4 41  1  0
 41 42  1  0
 42 43  2  0
 43 44  1  0
 44 45  2  0
 45 46  1  0
 46 47  2  0
  2 48  1  0
 48 49  1  0
 49 50  1  0
 50 51  2  0
 50 52  1  0
 52 53  1  0
 53 54  1  0
 54 55  2  0
 54 56  1  0
 56 57  1  0
 57 58  1  0
 58 59  2  0
 59 60  1  0
 60 61  2  0
 61 62  1  0
 62 63  2  0
 61 64  1  0
 56 65  1  0
 52 66  1  0
 22 17  1  0
 36 32  1  0
 47 42  1  0
 63 58  1  0
 40 35  1  0
  3 67  1  0
  4 68  1  1
  7 69  1  0
  8 70  1  0
  8 71  1  0
 11 72  1  0
 12 73  1  1
 16 74  1  0
 16 75  1  0
 18 76  1  0
 20 77  1  0
 22 78  1  0
 31 79  1  0
 31 80  1  0
 33 81  1  0
 34 82  1  0
 37 83  1  0
 38 84  1  0
 39 85  1  0
 40 86  1  0
 41 87  1  0
 41 88  1  0
 43 89  1  0
 44 90  1  0
 45 91  1  0
 46 92  1  0
 47 93  1  0
 48 94  1  0
 48 95  1  0
 49 96  1  0
 52 97  1  6
 53 98  1  0
 56 99  1  1
 57100  1  0
 57101  1  0
 59102  1  0
 60103  1  0
 62104  1  0
 63105  1  0
 64106  1  0
 65107  1  0
 65108  1  0
 66109  1  0
 66110  1  0
 66111  1  0
M  END
>  <Ligand ID>  (1) 
LIG0005392

>  <Ligand>  (1) 
CHEMBL2419544

>  <SMILES>  (1) 
O=C(N[C@H](C(=O)NCC(=O)N[C@H](C(=O)OCc1cc(cc(c1)C(F)(F)F)C(F)(F)F)Cc1c[nH]c2c1cccc2)Cc1ccccc1)CNC(=O)[C@H](NC(=O)[C@H](Cc1ccc(cc1)O)N)C

>  <CID>  (1) 
71818277.0

>  <ChEMBL ID>  (1) 
nan

>  <InChiKey>  (1) 
DSXDZHLLPRAKKT-XCRGKUJJSA-N

>  <InChi>  (1) 
InChI=1S/C45H45F6N7O8/c1-25(56-41(63)34(52)17-27-11-13-32(59)14-12-27)40(62)54-22-38(60)57-36(18-26-7-3-2-4-8-26)42(64)55-23-39(61)58-37(19-29-21-53-35-10-6-5-9-33(29)35)43(65)66-24-28-15-30(44(46,47)48)20-31(16-28)45(49,50)51/h2-16,20-21,25,34,36-37,53,59H,17-19,22-24,52H2,1H3,(H,54,62)(H,55,64)(H,56,63)(H,57,60)(H,58,61)/t25-,34+,36+,37+/m1/s1

>  <IUPAC Name>  (1) 
[3,5-bis(trifluoromethyl)phenyl]methyl (2S)-2-[[2-[[(2S)-2-[[2-[[(2R)-2-[[(2S)-2-amino-3-(4-hydroxyphenyl)propanoyl]amino]propanoyl]amino]acetyl]amino]-3-phenylpropanoyl]amino]acetyl]amino]-3-(1H-indol-3-yl)propanoate

$$$$
