
     RDKit          3D

 56 60  0  0  0  0  0  0  0  0999 V2000
    7.3060    1.5824    0.7565 C   0  0  0  0  0  0  0  0  0  0  0  0
    7.7042    0.2122    0.2738 C   0  0  0  0  0  0  0  0  0  0  0  0
    8.9412   -0.0091    0.2466 O   0  0  0  0  0  0  0  0  0  0  0  0
    6.7339   -0.7503   -0.1198 N   0  0  0  0  0  0  0  0  0  0  0  0
    5.3407   -0.5252   -0.1108 C   0  0  0  0  0  0  0  0  0  0  0  0
    4.7350    0.6178   -0.5820 C   0  0  0  0  0  0  0  0  0  0  0  0
    3.3691    0.7770   -0.5421 C   0  0  0  0  0  0  0  0  0  0  0  0
    2.5627   -0.1999   -0.0300 C   0  0  0  0  0  0  0  0  0  0  0  0
    3.1502   -1.3736    0.4571 C   0  0  0  0  0  0  0  0  0  0  0  0
    4.5297   -1.5187    0.4092 C   0  0  0  0  0  0  0  0  0  0  0  0
    1.2017   -0.1123    0.0422 O   0  0  0  0  0  0  0  0  0  0  0  0
    0.3982    0.9548   -0.3524 C   0  0  0  0  0  0  0  0  0  0  0  0
   -0.7288    1.2437    0.6339 C   0  0  0  0  0  0  0  0  0  0  0  0
   -1.6388    0.4441   -0.1319 N   0  0  0  0  0  0  0  0  0  0  0  0
   -0.7437    0.5795   -1.2880 C   0  0  0  0  0  0  0  0  0  0  0  0
   -2.8690   -0.2601   -0.0172 C   0  0  0  0  0  0  0  0  0  0  0  0
   -4.0737    0.3637    0.2568 C   0  0  0  0  0  0  0  0  0  0  0  0
   -3.8791    1.8076    0.4169 C   0  0  0  0  0  0  0  0  0  0  0  0
   -5.0561    2.6602    0.0890 C   0  0  0  0  0  0  0  0  0  0  0  0
   -6.0801    1.9708   -0.6584 N   0  0  0  0  0  0  0  0  0  0  0  0
   -6.9574    1.3562    0.3204 C   0  0  0  0  0  0  0  0  0  0  0  0
   -6.5926   -0.0608    0.6058 C   0  0  0  0  0  0  0  0  0  0  0  0
   -5.2044   -0.4288    0.3312 C   0  0  0  0  0  0  0  0  0  0  0  0
   -5.0980   -1.7761    0.1350 N   0  0  0  0  0  0  0  0  0  0  0  0
   -3.9144   -2.3495   -0.1293 C   0  0  0  0  0  0  0  0  0  0  0  0
   -2.8095   -1.5989   -0.2048 N   0  0  0  0  0  0  0  0  0  0  0  0
   -1.7948   -2.4218   -0.4783 N   0  0  0  0  0  0  0  0  0  0  0  0
   -2.2311   -3.6822   -0.5787 C   0  0  0  0  0  0  0  0  0  0  0  0
   -3.5822   -3.6743   -0.3616 C   0  0  0  0  0  0  0  0  0  0  0  0
    7.2415   -2.0465   -0.5574 C   0  0  0  0  0  0  0  0  0  0  0  0
    6.2993    1.4665    1.1976 H   0  0  0  0  0  0  0  0  0  0  0  0
    7.9876    1.8609    1.6039 H   0  0  0  0  0  0  0  0  0  0  0  0
    7.3568    2.3030   -0.0675 H   0  0  0  0  0  0  0  0  0  0  0  0
    5.3401    1.4091   -0.9947 H   0  0  0  0  0  0  0  0  0  0  0  0
    2.9325    1.7038   -0.9280 H   0  0  0  0  0  0  0  0  0  0  0  0
    2.5098   -2.1611    0.8694 H   0  0  0  0  0  0  0  0  0  0  0  0
    4.9157   -2.4535    0.8047 H   0  0  0  0  0  0  0  0  0  0  0  0
    0.8806    1.8666   -0.7354 H   0  0  0  0  0  0  0  0  0  0  0  0
   -0.9207    2.3193    0.7077 H   0  0  0  0  0  0  0  0  0  0  0  0
   -0.5592    0.8182    1.6521 H   0  0  0  0  0  0  0  0  0  0  0  0
   -0.5879   -0.3969   -1.8276 H   0  0  0  0  0  0  0  0  0  0  0  0
   -1.1161    1.4116   -1.9116 H   0  0  0  0  0  0  0  0  0  0  0  0
   -3.0749    2.0915   -0.3227 H   0  0  0  0  0  0  0  0  0  0  0  0
   -3.4395    2.0309    1.4207 H   0  0  0  0  0  0  0  0  0  0  0  0
   -4.7676    3.6056   -0.4459 H   0  0  0  0  0  0  0  0  0  0  0  0
   -5.4945    3.0197    1.0445 H   0  0  0  0  0  0  0  0  0  0  0  0
   -5.6344    1.1784   -1.1779 H   0  0  0  0  0  0  0  0  0  0  0  0
   -6.9585    1.9926    1.2536 H   0  0  0  0  0  0  0  0  0  0  0  0
   -7.9858    1.4105   -0.0724 H   0  0  0  0  0  0  0  0  0  0  0  0
   -6.8151   -0.3009    1.6672 H   0  0  0  0  0  0  0  0  0  0  0  0
   -7.2440   -0.7284   -0.0148 H   0  0  0  0  0  0  0  0  0  0  0  0
   -1.5743   -4.5243   -0.7979 H   0  0  0  0  0  0  0  0  0  0  0  0
   -4.2212   -4.5443   -0.3781 H   0  0  0  0  0  0  0  0  0  0  0  0
    8.1515   -2.3089    0.0320 H   0  0  0  0  0  0  0  0  0  0  0  0
    6.5228   -2.8707   -0.3879 H   0  0  0  0  0  0  0  0  0  0  0  0
    7.5367   -1.9809   -1.6170 H   0  0  0  0  0  0  0  0  0  0  0  0
  1  2  1  0
  2  3  2  0
  2  4  1  0
  4  5  1  0
  5  6  2  0
  6  7  1  0
  7  8  2  0
  8  9  1  0
  9 10  2  0
  8 11  1  0
 11 12  1  0
 12 13  1  0
 13 14  1  0
 14 15  1  0
 14 16  1  0
 16 17  2  0
 17 18  1  0
 18 19  1  0
 19 20  1  0
 20 21  1  0
 21 22  1  0
 22 23  1  0
 23 24  2  0
 24 25  1  0
 25 26  1  0
 26 27  1  0
 27 28  2  0
 28 29  1  0
  4 30  1  0
 10  5  1  0
 15 12  1  0
 26 16  1  0
 23 17  1  0
 29 25  2  0
  1 31  1  0
  1 32  1  0
  1 33  1  0
  6 34  1  0
  7 35  1  0
  9 36  1  0
 10 37  1  0
 12 38  1  0
 13 39  1  0
 13 40  1  0
 15 41  1  0
 15 42  1  0
 18 43  1  0
 18 44  1  0
 19 45  1  0
 19 46  1  0
 20 47  1  0
 21 48  1  0
 21 49  1  0
 22 50  1  0
 22 51  1  0
 28 52  1  0
 29 53  1  0
 30 54  1  0
 30 55  1  0
 30 56  1  0
M  END
>  <Ligand ID>  (1) 
LIG0003276

>  <Ligand>  (1) 
CHEMBL1643858

>  <SMILES>  (1) 
CC(=O)N(c1ccc(cc1)OC1CN(C1)c1c2CCNCCc2nc2n1ncc2)C

>  <CID>  (1) 
53317924.0

>  <ChEMBL ID>  (1) 
nan

>  <InChiKey>  (1) 
CJKLNGBOTSHTRK-UHFFFAOYSA-N

>  <InChi>  (1) 
InChI=1S/C22H26N6O2/c1-15(29)26(2)16-3-5-17(6-4-16)30-18-13-27(14-18)22-19-7-10-23-11-8-20(19)25-21-9-12-24-28(21)22/h3-6,9,12,18,23H,7-8,10-11,13-14H2,1-2H3

>  <IUPAC Name>  (1) 
N-methyl-N-[4-[1-(2,6,7,12-tetrazatricyclo[7.5.0.03,7]tetradeca-1,3,5,8-tetraen-8-yl)azetidin-3-yl]oxyphenyl]acetamide

$$$$
