
     RDKit          3D

 25 26  0  0  0  0  0  0  0  0999 V2000
   -0.2388    2.4882    1.2097 O   0  0  0  0  0  0  0  0  0  0  0  0
   -0.1645    1.8916   -0.0299 C   0  0  2  0  0  0  0  0  0  0  0  0
   -1.3992    1.1209   -0.3779 C   0  0  0  0  0  0  0  0  0  0  0  0
   -1.0412   -0.3232   -0.2862 C   0  0  1  0  0  0  0  0  0  0  0  0
    0.4646   -0.3655   -0.4360 C   0  0  1  0  0  0  0  0  0  0  0  0
    1.0176    0.9647   -0.1536 C   0  0  2  0  0  0  0  0  0  0  0  0
    1.2255   -0.1434    0.8029 C   0  0  2  0  0  0  0  0  0  0  0  0
    2.5754   -0.7270    0.9223 C   0  0  0  0  0  0  0  0  0  0  0  0
    2.9157   -1.1261    2.0888 O   0  0  0  0  0  0  0  0  0  0  0  0
    3.4432   -0.8448   -0.1616 O   0  0  0  0  0  0  0  0  0  0  0  0
   -1.3396   -0.8310    1.0520 N   0  0  0  0  0  0  0  0  0  0  0  0
   -1.6849   -1.1894   -1.3002 C   0  0  0  0  0  0  0  0  0  0  0  0
   -1.5646   -0.9445   -2.5263 O   0  0  0  0  0  0  0  0  0  0  0  0
   -2.4480   -2.3082   -0.9289 O   0  0  0  0  0  0  0  0  0  0  0  0
    0.3756    3.2549    1.2192 H   0  0  0  0  0  0  0  0  0  0  0  0
   -0.0598    2.6905   -0.7850 H   0  0  0  0  0  0  0  0  0  0  0  0
   -2.1974    1.4170    0.3590 H   0  0  0  0  0  0  0  0  0  0  0  0
   -1.8128    1.4058   -1.3857 H   0  0  0  0  0  0  0  0  0  0  0  0
    0.8860   -0.8725   -1.3153 H   0  0  0  0  0  0  0  0  0  0  0  0
    1.9116    1.3531   -0.6700 H   0  0  0  0  0  0  0  0  0  0  0  0
    0.6723   -0.1312    1.7771 H   0  0  0  0  0  0  0  0  0  0  0  0
    4.3637   -1.2814   -0.0555 H   0  0  0  0  0  0  0  0  0  0  0  0
   -2.2794   -0.4968    1.3684 H   0  0  0  0  0  0  0  0  0  0  0  0
   -1.2429   -1.8517    1.1153 H   0  0  0  0  0  0  0  0  0  0  0  0
   -2.3781   -3.1500   -1.5029 H   0  0  0  0  0  0  0  0  0  0  0  0
  1  2  1  0
  2  3  1  0
  3  4  1  0
  4  5  1  0
  5  6  1  0
  6  7  1  0
  7  8  1  0
  8  9  2  0
  8 10  1  0
  4 11  1  1
  4 12  1  0
 12 13  2  0
 12 14  1  0
  6  2  1  0
  7  5  1  0
  1 15  1  0
  2 16  1  6
  3 17  1  0
  3 18  1  0
  5 19  1  6
  6 20  1  6
  7 21  1  1
 10 22  1  0
 11 23  1  0
 11 24  1  0
 14 25  1  0
M  END
>  <Ligand ID>  (1) 
LIG0001200

>  <Ligand>  (1) 
CHEMBL2381642

>  <SMILES>  (1) 
O[C@@H]1C[C@@]([C@H]2[C@@H]1[C@@H]2C(=O)O)(N)C(=O)O

>  <CID>  (1) 
70052526.0

>  <ChEMBL ID>  (1) 
nan

>  <InChiKey>  (1) 
XMDLTKGXRPVDSY-RTHBWCHNSA-N

>  <InChi>  (1) 
InChI=1S/C8H11NO5/c9-8(7(13)14)1-2(10)3-4(5(3)8)6(11)12/h2-5,10H,1,9H2,(H,11,12)(H,13,14)/t2-,3+,4+,5+,8+/m1/s1

>  <IUPAC Name>  (1) 
(1S,2S,4R,5R,6R)-2-amino-4-hydroxybicyclo[3.1.0]hexane-2,6-dicarboxylic acid

$$$$
