
     RDKit          3D

 19 17  0  0  0  0  0  0  0  0999 V2000
    2.1247    0.5547    0.9477 O   0  0  0  0  0  0  0  0  0  0  0  0
    2.1272   -0.5729    0.1714 C   0  0  0  0  0  0  0  0  0  0  0  0
    3.0772   -1.4131    0.3062 O   0  0  0  0  0  0  0  0  0  0  0  0
    1.0962   -0.8840   -0.8191 C   0  0  0  0  0  0  0  0  0  0  0  0
   -0.0020    0.1281   -0.9460 C   0  0  0  0  0  0  0  0  0  0  0  0
   -0.7919    0.3686    0.2959 C   0  0  1  0  0  0  0  0  0  0  0  0
   -1.8213    1.4063   -0.0668 C   0  0  0  0  0  0  0  0  0  0  0  0
   -1.4685    2.6191   -0.1293 O   0  0  0  0  0  0  0  0  0  0  0  0
   -3.1304    1.0773   -0.3317 O   0  0  0  0  0  0  0  0  0  0  0  0
   -1.5387   -0.8329    0.6848 N   0  0  0  0  0  0  0  0  0  0  0  0
    0.0000    0.0000    0.0000 H   0  0  0  0  0 15  0  0  0  0  0  0
    2.8681    0.6671    1.6245 H   0  0  0  0  0  0  0  0  0  0  0  0
    1.5796   -0.9553   -1.8149 H   0  0  0  0  0  0  0  0  0  0  0  0
    0.6164   -1.8685   -0.6244 H   0  0  0  0  0  0  0  0  0  0  0  0
   -0.7077   -0.2586   -1.7078 H   0  0  0  0  0  0  0  0  0  0  0  0
    0.3571    1.1094   -1.3220 H   0  0  0  0  0  0  0  0  0  0  0  0
   -0.1963    0.7334    1.1557 H   0  0  0  0  0  0  0  0  0  0  0  0
   -2.4080   -0.5096    1.1330 H   0  0  0  0  0  0  0  0  0  0  0  0
   -1.7817   -1.3690   -0.1867 H   0  0  0  0  0  0  0  0  0  0  0  0
  1  2  1  0
  2  3  2  0
  2  4  1  0
  4  5  1  0
  5  6  1  0
  6  7  1  0
  7  8  2  0
  7  9  1  0
  6 10  1  0
  1 12  1  0
  4 13  1  0
  4 14  1  0
  5 15  1  0
  5 16  1  0
  6 17  1  1
 10 18  1  0
 10 19  1  0
M  CHG  2   9  -1  11   1
M  END
>  <Ligand ID>  (1) 
LIG0000785

>  <Ligand>  (1) 
SCHEMBL11235794

>  <SMILES>  (1) 
OC(=O)CC[C@@H](C(=O)[O-])N.[H+]

>  <CID>  (1) 
88747398.0

>  <ChEMBL ID>  (1) 
nan

>  <InChiKey>  (1) 
WHUUTDBJXJRKMK-VKHMYHEASA-N

>  <InChi>  (1) 
InChI=1S/C5H9NO4/c6-3(5(9)10)1-2-4(7)8/h3H,1-2,6H2,(H,7,8)(H,9,10)/t3-/m0/s1

>  <IUPAC Name>  (1) 
(2S)-2-amino-5-hydroxy-5-oxopentanoate;hydron

$$$$
