
     RDKit          3D

 66 74  0  0  0  0  0  0  0  0999 V2000
    1.6823    3.0661    1.8749 O   0  0  0  0  0  0  0  0  0  0  0  0
    1.5125    1.9433    1.3242 C   0  0  0  0  0  0  0  0  0  0  0  0
    0.3464    1.0341    1.3877 C   0  0  1  0  0  0  0  0  0  0  0  0
   -0.7206    1.3760    0.6037 O   0  0  0  0  0  0  0  0  0  0  0  0
   -1.0047    0.3389   -0.2758 C   0  0  1  0  0  0  0  0  0  0  0  0
   -0.3710   -0.8568    0.3791 C   0  0  2  0  0  0  0  0  0  0  0  0
    0.9185   -0.2613    0.7807 C   0  0  1  0  0  0  0  0  0  0  0  0
    1.7746    0.2967   -0.2691 C   0  0  1  0  0  0  0  0  0  0  0  0
    2.4939    1.3374    0.4945 N   0  0  0  0  0  0  0  0  0  0  0  0
    3.8773    1.6014    0.3500 C   0  0  0  0  0  0  0  0  0  0  0  0
    4.2467    2.5442   -0.5884 C   0  0  0  0  0  0  0  0  0  0  0  0
    5.5906    2.8506   -0.8020 C   0  0  0  0  0  0  0  0  0  0  0  0
    6.5243    2.1889   -0.0556 C   0  0  0  0  0  0  0  0  0  0  0  0
    6.1701    1.2452    0.8839 C   0  0  0  0  0  0  0  0  0  0  0  0
    4.8400    0.9522    1.0862 C   0  0  0  0  0  0  0  0  0  0  0  0
    2.6974   -0.5276   -0.8363 O   0  0  0  0  0  0  0  0  0  0  0  0
    2.9931   -1.7072   -0.2392 C   0  0  0  0  0  0  0  0  0  0  0  0
    2.1509   -2.8044   -0.6354 O   0  0  0  0  0  0  0  0  0  0  0  0
    0.8014   -2.7298   -1.0437 C   0  0  0  0  0  0  0  0  0  0  0  0
   -0.2903   -1.9296   -0.6775 C   0  0  0  0  0  0  0  0  0  0  0  0
   -1.5207   -2.1515   -1.3346 C   0  0  0  0  0  0  0  0  0  0  0  0
   -2.7022   -1.3339   -1.0551 C   0  0  0  0  0  0  0  0  0  0  0  0
   -2.4503   -0.0028   -0.4102 C   0  0  1  0  0  0  0  0  0  0  0  0
   -3.0337   -0.0375    0.8801 N   0  0  0  0  0  0  0  0  0  0  0  0
   -2.3794   -0.7086    1.9170 C   0  0  0  0  0  0  0  0  0  0  0  0
   -1.0887   -1.3703    1.5852 C   0  0  0  0  0  0  0  0  0  0  0  0
   -4.4294    0.1887    0.9678 C   0  0  0  0  0  0  0  0  0  0  0  0
   -4.8737    1.6004    0.6789 C   0  0  0  0  0  0  0  0  0  0  0  0
   -4.3441    2.7093    1.5686 C   0  0  0  0  0  0  0  0  0  0  0  0
   -5.7845    2.2804    1.6811 C   0  0  0  0  0  0  0  0  0  0  0  0
   -1.6245   -3.1322   -2.2993 C   0  0  0  0  0  0  0  0  0  0  0  0
   -0.5546   -3.9241   -2.6614 C   0  0  0  0  0  0  0  0  0  0  0  0
    0.6527   -3.7172   -2.0297 C   0  0  0  0  0  0  0  0  0  0  0  0
    1.7965   -4.4754   -2.3314 O   0  0  0  0  0  0  0  0  0  0  0  0
    1.0576    1.0740   -1.3278 C   0  0  0  0  0  0  0  0  0  0  0  0
   -0.3263    0.5500   -1.6115 C   0  0  0  0  0  0  0  0  0  0  0  0
    0.0958    0.8592    2.4548 H   0  0  0  0  0  0  0  0  0  0  0  0
    1.4710   -0.7713    1.5578 H   0  0  0  0  0  0  0  0  0  0  0  0
    3.5105    3.0850   -1.1936 H   0  0  0  0  0  0  0  0  0  0  0  0
    5.8734    3.6078   -1.5562 H   0  0  0  0  0  0  0  0  0  0  0  0
    7.5723    2.3902   -0.1860 H   0  0  0  0  0  0  0  0  0  0  0  0
    6.9650    0.7440    1.4515 H   0  0  0  0  0  0  0  0  0  0  0  0
    4.5393    0.2142    1.8222 H   0  0  0  0  0  0  0  0  0  0  0  0
    4.0055   -2.0345   -0.6294 H   0  0  0  0  0  0  0  0  0  0  0  0
    3.1314   -1.7044    0.8526 H   0  0  0  0  0  0  0  0  0  0  0  0
   -3.2086   -1.0964   -2.0403 H   0  0  0  0  0  0  0  0  0  0  0  0
   -3.4394   -1.9563   -0.5179 H   0  0  0  0  0  0  0  0  0  0  0  0
   -2.9500    0.8475   -0.9618 H   0  0  0  0  0  0  0  0  0  0  0  0
   -3.0716   -1.4904    2.3259 H   0  0  0  0  0  0  0  0  0  0  0  0
   -2.2558    0.0246    2.7708 H   0  0  0  0  0  0  0  0  0  0  0  0
   -1.2327   -2.4627    1.4674 H   0  0  0  0  0  0  0  0  0  0  0  0
   -0.4396   -1.2679    2.4860 H   0  0  0  0  0  0  0  0  0  0  0  0
   -4.9610   -0.4553    0.2248 H   0  0  0  0  0  0  0  0  0  0  0  0
   -4.8718   -0.0970    1.9461 H   0  0  0  0  0  0  0  0  0  0  0  0
   -4.9863    1.8751   -0.3931 H   0  0  0  0  0  0  0  0  0  0  0  0
   -3.6738    2.3344    2.3870 H   0  0  0  0  0  0  0  0  0  0  0  0
   -4.2032    3.7157    1.1606 H   0  0  0  0  0  0  0  0  0  0  0  0
   -6.5688    2.9721    1.2516 H   0  0  0  0  0  0  0  0  0  0  0  0
   -6.1091    1.7508    2.5850 H   0  0  0  0  0  0  0  0  0  0  0  0
   -2.5535   -3.3080   -2.8006 H   0  0  0  0  0  0  0  0  0  0  0  0
   -0.6395   -4.6931   -3.4211 H   0  0  0  0  0  0  0  0  0  0  0  0
    1.9414   -4.7838   -3.2978 H   0  0  0  0  0  0  0  0  0  0  0  0
    0.9092    2.1568   -1.0370 H   0  0  0  0  0  0  0  0  0  0  0  0
    1.6352    1.0524   -2.2901 H   0  0  0  0  0  0  0  0  0  0  0  0
   -0.1969   -0.3348   -2.2251 H   0  0  0  0  0  0  0  0  0  0  0  0
   -0.9168    1.3187   -2.1540 H   0  0  0  0  0  0  0  0  0  0  0  0
  1  2  2  0
  2  3  1  0
  3  4  1  0
  5  4  1  1
  5  6  1  0
  6  7  1  0
  7  8  1  0
  8  9  1  0
  9 10  1  0
 10 11  2  0
 11 12  1  0
 12 13  2  0
 13 14  1  0
 14 15  2  0
  8 16  1  6
 16 17  1  0
 17 18  1  0
 18 19  1  0
 19 20  2  0
 20 21  1  0
 21 22  1  0
 22 23  1  0
 23 24  1  0
 24 25  1  0
 25 26  1  0
 24 27  1  0
 27 28  1  0
 28 29  1  0
 29 30  1  0
 21 31  2  0
 31 32  1  0
 32 33  2  0
 33 34  1  0
  8 35  1  0
 35 36  1  0
  9  2  1  0
 15 10  1  0
 33 19  1  0
  7  3  1  0
 30 28  1  0
 36  5  1  0
 23  5  1  0
  6 26  1  1
 20  6  1  0
  3 37  1  1
  7 38  1  1
 11 39  1  0
 12 40  1  0
 13 41  1  0
 14 42  1  0
 15 43  1  0
 17 44  1  0
 17 45  1  0
 22 46  1  0
 22 47  1  0
 23 48  1  6
 25 49  1  0
 25 50  1  0
 26 51  1  0
 26 52  1  0
 27 53  1  0
 27 54  1  0
 28 55  1  0
 29 56  1  0
 29 57  1  0
 30 58  1  0
 30 59  1  0
 31 60  1  0
 32 61  1  0
 34 62  1  0
 35 63  1  0
 35 64  1  0
 36 65  1  0
 36 66  1  0
M  END
>  <Ligand ID>  (1) 
LIG0002952

>  <Ligand>  (1) 
CHEMBL3264747

>  <SMILES>  (1) 
O=C1[C@H]2O[C@]34[C@@]56[C@H]2[C@@](N1c1ccccc1)(OCOc1c6c(C[C@H]4N(CC5)CC2CC2)ccc1O)CC3

>  <CID>  (1) 
90655828.0

>  <ChEMBL ID>  (1) 
nan

>  <InChiKey>  (1) 
MWNDHOWKMXFYLQ-HRPGWMCCSA-N

>  <InChi>  (1) 
InChI=1S/C29H30N2O5/c32-20-9-8-18-14-21-28-10-11-29-25(24(36-28)26(33)31(29)19-4-2-1-3-5-19)27(28,22(18)23(20)34-16-35-29)12-13-30(21)15-17-6-7-17/h1-5,8-9,17,21,24-25,32H,6-7,10-16H2/t21-,24+,25+,27+,28-,29+/m1/s1

>  <IUPAC Name>  (1) 
(1S,11R,15R,16R,17S,19S)-12-(cyclopropylmethyl)-6-hydroxy-22-phenyl-2,4,18-trioxa-12,22-diazaheptacyclo[15.4.2.15,9.01,16.011,19.015,19.015,24]tetracosa-5,7,9(24)-trien-23-one

$$$$
