
     RDKit          3D

 65 67  0  0  0  0  0  0  0  0999 V2000
    8.0469    0.1124   -1.4203 C   0  0  0  0  0  0  0  0  0  0  0  0
    7.0752    1.2130   -1.6714 C   0  0  0  0  0  0  0  0  0  0  0  0
    6.4019    1.7956   -0.4817 C   0  0  0  0  0  0  0  0  0  0  0  0
    5.6122    0.8782    0.3407 C   0  0  0  0  0  0  0  0  0  0  0  0
    4.2635    0.7216   -0.0419 C   0  0  0  0  0  0  0  0  0  0  0  0
    3.4238   -0.1622    0.5791 C   0  0  0  0  0  0  0  0  0  0  0  0
    3.9364   -0.9180    1.6148 C   0  0  0  0  0  0  0  0  0  0  0  0
    5.2508   -0.7638    1.9885 C   0  0  0  0  0  0  0  0  0  0  0  0
    6.1172    0.1272    1.3729 C   0  0  0  0  0  0  0  0  0  0  0  0
    7.4510    0.2520    1.9194 C   0  0  0  0  0  0  0  0  0  0  0  0
    8.3141    1.0898    1.5453 O   0  0  0  0  0  0  0  0  0  0  0  0
    7.8447   -0.6014    2.9364 O   0  0  0  0  0  0  0  0  0  0  0  0
    2.0312   -0.3792    0.2324 C   0  0  0  0  0  0  0  0  0  0  0  0
    1.5124   -0.2709   -1.0347 C   0  0  0  0  0  0  0  0  0  0  0  0
    0.1776   -0.5008   -1.3348 C   0  0  0  0  0  0  0  0  0  0  0  0
   -0.6911   -0.8571   -0.3296 C   0  0  0  0  0  0  0  0  0  0  0  0
   -0.1893   -0.9697    0.9495 C   0  0  0  0  0  0  0  0  0  0  0  0
    1.1394   -0.7379    1.2340 C   0  0  0  0  0  0  0  0  0  0  0  0
   -2.1383   -1.1562   -0.5583 C   0  0  0  0  0  0  0  0  0  0  0  0
   -3.0320    0.0259   -0.4796 C   0  0  0  0  0  0  0  0  0  0  0  0
   -4.4011   -0.3726   -0.7111 N   0  0  0  0  0  0  0  0  0  0  0  0
   -4.8952   -1.1379    0.3833 C   0  0  2  0  0  0  0  0  0  0  0  0
   -6.3111   -1.6306    0.2359 C   0  0  1  0  0  0  0  0  0  0  0  0
   -7.3390   -0.5942    0.1738 C   0  0  0  0  0  0  0  0  0  0  0  0
   -8.1253   -0.2605    1.2649 C   0  0  0  0  0  0  0  0  0  0  0  0
   -9.1094    0.7022    1.2209 C   0  0  0  0  0  0  0  0  0  0  0  0
   -9.3017    1.3520    0.0201 C   0  0  0  0  0  0  0  0  0  0  0  0
   -8.5436    1.0598   -1.1046 C   0  0  0  0  0  0  0  0  0  0  0  0
   -7.5579    0.0840   -1.0316 C   0  0  0  0  0  0  0  0  0  0  0  0
   -6.3610   -2.4495   -0.8956 O   0  0  0  0  0  0  0  0  0  0  0  0
   -4.7019   -0.3827    1.6896 C   0  0  0  0  0  0  0  0  0  0  0  0
    6.0894    0.8280   -2.7651 C   0  0  0  0  0  0  0  0  0  0  0  0
    8.2383   -0.4261   -2.4010 H   0  0  0  0  0  0  0  0  0  0  0  0
    9.0203    0.4469   -0.9946 H   0  0  0  0  0  0  0  0  0  0  0  0
    7.5614   -0.6690   -0.7927 H   0  0  0  0  0  0  0  0  0  0  0  0
    7.6693    2.0571   -2.1320 H   0  0  0  0  0  0  0  0  0  0  0  0
    5.7176    2.6165   -0.8638 H   0  0  0  0  0  0  0  0  0  0  0  0
    7.1737    2.3777    0.0985 H   0  0  0  0  0  0  0  0  0  0  0  0
    3.8597    1.3122   -0.8508 H   0  0  0  0  0  0  0  0  0  0  0  0
    3.3056   -1.6333    2.1320 H   0  0  0  0  0  0  0  0  0  0  0  0
    5.5870   -1.3939    2.8136 H   0  0  0  0  0  0  0  0  0  0  0  0
    8.7815   -0.5393    3.2969 H   0  0  0  0  0  0  0  0  0  0  0  0
    2.1640    0.0050   -1.8430 H   0  0  0  0  0  0  0  0  0  0  0  0
   -0.2113   -0.4094   -2.3397 H   0  0  0  0  0  0  0  0  0  0  0  0
   -0.8689   -1.2453    1.7350 H   0  0  0  0  0  0  0  0  0  0  0  0
    1.4363   -0.8505    2.2660 H   0  0  0  0  0  0  0  0  0  0  0  0
   -2.1925   -1.5190   -1.6280 H   0  0  0  0  0  0  0  0  0  0  0  0
   -2.3732   -1.9977    0.1053 H   0  0  0  0  0  0  0  0  0  0  0  0
   -2.7457    0.7640   -1.2609 H   0  0  0  0  0  0  0  0  0  0  0  0
   -2.9567    0.5752    0.4855 H   0  0  0  0  0  0  0  0  0  0  0  0
   -4.9410    0.5212   -0.8492 H   0  0  0  0  0  0  0  0  0  0  0  0
   -4.2789   -2.0556    0.4905 H   0  0  0  0  0  0  0  0  0  0  0  0
   -6.5209   -2.2467    1.1364 H   0  0  0  0  0  0  0  0  0  0  0  0
   -7.9053   -0.8259    2.1859 H   0  0  0  0  0  0  0  0  0  0  0  0
   -9.7065    0.9391    2.0874 H   0  0  0  0  0  0  0  0  0  0  0  0
  -10.0793    2.1290   -0.0612 H   0  0  0  0  0  0  0  0  0  0  0  0
   -8.7576    1.6138   -2.0107 H   0  0  0  0  0  0  0  0  0  0  0  0
   -6.9734   -0.1396   -1.9068 H   0  0  0  0  0  0  0  0  0  0  0  0
   -5.7443   -2.1360   -1.5986 H   0  0  0  0  0  0  0  0  0  0  0  0
   -4.7195    0.7161    1.5244 H   0  0  0  0  0  0  0  0  0  0  0  0
   -5.4300   -0.7463    2.4342 H   0  0  0  0  0  0  0  0  0  0  0  0
   -3.6904   -0.6008    2.0907 H   0  0  0  0  0  0  0  0  0  0  0  0
    5.3023    0.1560   -2.4130 H   0  0  0  0  0  0  0  0  0  0  0  0
    6.6712    0.2996   -3.5449 H   0  0  0  0  0  0  0  0  0  0  0  0
    5.6174    1.7154   -3.2322 H   0  0  0  0  0  0  0  0  0  0  0  0
  1  2  1  0
  2  3  1  0
  3  4  1  0
  4  5  2  0
  5  6  1  0
  6  7  2  0
  7  8  1  0
  8  9  2  0
  9 10  1  0
 10 11  2  0
 10 12  1  0
  6 13  1  0
 13 14  2  0
 14 15  1  0
 15 16  2  0
 16 17  1  0
 17 18  2  0
 16 19  1  0
 19 20  1  0
 20 21  1  0
 21 22  1  0
 22 23  1  0
 23 24  1  0
 24 25  2  0
 25 26  1  0
 26 27  2  0
 27 28  1  0
 28 29  2  0
 23 30  1  0
 22 31  1  0
  2 32  1  0
  9  4  1  0
 18 13  1  0
 29 24  1  0
  1 33  1  0
  1 34  1  0
  1 35  1  0
  2 36  1  0
  3 37  1  0
  3 38  1  0
  5 39  1  0
  7 40  1  0
  8 41  1  0
 12 42  1  0
 14 43  1  0
 15 44  1  0
 17 45  1  0
 18 46  1  0
 19 47  1  0
 19 48  1  0
 20 49  1  0
 20 50  1  0
 21 51  1  0
 22 52  1  1
 23 53  1  1
 25 54  1  0
 26 55  1  0
 27 56  1  0
 28 57  1  0
 29 58  1  0
 30 59  1  0
 31 60  1  0
 31 61  1  0
 31 62  1  0
 32 63  1  0
 32 64  1  0
 32 65  1  0
M  END
>  <Ligand ID>  (1) 
LIG0005158

>  <Ligand>  (1) 
CHEMBL451760

>  <SMILES>  (1) 
CC(Cc1cc(ccc1C(=O)O)c1ccc(cc1)CCN[C@H]([C@@H](c1ccccc1)O)C)C

>  <CID>  (1) 
11224220.0

>  <ChEMBL ID>  (1) 
nan

>  <InChiKey>  (1) 
NIITYICIHYXXSW-DCFHFQCYSA-N

>  <InChi>  (1) 
InChI=1S/C28H33NO3/c1-19(2)17-25-18-24(13-14-26(25)28(31)32)22-11-9-21(10-12-22)15-16-29-20(3)27(30)23-7-5-4-6-8-23/h4-14,18-20,27,29-30H,15-17H2,1-3H3,(H,31,32)/t20-,27-/m0/s1

>  <IUPAC Name>  (1) 
4-[4-[2-[[(1R,2S)-1-hydroxy-1-phenylpropan-2-yl]amino]ethyl]phenyl]-2-(2-methylpropyl)benzoic acid

$$$$
