
     RDKit          3D

 13 13  0  0  0  0  0  0  0  0999 V2000
   -0.5439    2.3568   -0.0498 S   0  0  0  0  0  0  0  0  0  0  0  0
    0.3422    0.7939   -0.0277 C   0  0  0  0  0  0  0  0  0  0  0  0
    1.7118    0.6397    0.0154 C   0  0  0  0  0  0  0  0  0  0  0  0
    1.9496   -0.7374    0.0176 C   0  0  0  0  0  0  0  0  0  0  0  0
    0.7962   -1.3741   -0.0216 O   0  0  0  0  0  0  0  0  0  0  0  0
   -0.1827   -0.4737   -0.0493 C   0  0  0  0  0  0  0  0  0  0  0  0
   -1.6160   -0.8392   -0.0965 C   0  0  0  0  0  0  0  0  0  0  0  0
   -1.8780    2.1627    0.4082 H   0  0  0  0  0  0  0  0  0  0  0  0
    2.4660    1.4226    0.0425 H   0  0  0  0  0  0  0  0  0  0  0  0
    2.9543   -1.1230    0.0482 H   0  0  0  0  0  0  0  0  0  0  0  0
   -1.9988   -0.8736    0.9421 H   0  0  0  0  0  0  0  0  0  0  0  0
   -1.7789   -1.8491   -0.5358 H   0  0  0  0  0  0  0  0  0  0  0  0
   -2.2219   -0.1057   -0.6934 H   0  0  0  0  0  0  0  0  0  0  0  0
  1  2  1  0
  2  3  1  0
  3  4  2  0
  4  5  1  0
  5  6  1  0
  6  7  1  0
  6  2  2  0
  1  8  1  0
  3  9  1  0
  4 10  1  0
  7 11  1  0
  7 12  1  0
  7 13  1  0
M  END
>  <Ligand ID>  (1) 
LIG0000423

>  <Ligand>  (1) 
2-Methylfuran-3-thiol

>  <SMILES>  (1) 
Sc1ccoc1C

>  <CID>  (1) 
34286.0

>  <ChEMBL ID>  (1) 
nan

>  <InChiKey>  (1) 
RUYNUXHHUVUINQ-UHFFFAOYSA-N

>  <InChi>  (1) 
InChI=1S/C5H6OS/c1-4-5(7)2-3-6-4/h2-3,7H,1H3

>  <IUPAC Name>  (1) 
2-methylfuran-3-thiol

$$$$
