
     RDKit          3D

 40 42  0  0  0  0  0  0  0  0999 V2000
   -2.2909    0.9684   -2.3644 C   0  0  0  0  0  0  0  0  0  0  0  0
   -3.0727   -0.1877   -1.7617 C   0  0  0  0  0  0  0  0  0  0  0  0
   -3.0297   -0.0468   -0.3236 N   0  0  0  0  0  0  0  0  0  0  0  0
   -3.9640    0.6865    0.3417 C   0  0  0  0  0  0  0  0  0  0  0  0
   -3.6883    0.6806    1.6786 C   0  0  0  0  0  0  0  0  0  0  0  0
   -2.5472   -0.0845    1.8209 C   0  0  0  0  0  0  0  0  0  0  0  0
   -2.1318   -0.5430    0.5634 C   0  0  0  0  0  0  0  0  0  0  0  0
   -0.9504   -1.3638    0.2966 C   0  0  0  0  0  0  0  0  0  0  0  0
   -1.0769   -2.5568   -0.4238 C   0  0  0  0  0  0  0  0  0  0  0  0
    0.0111   -3.3542   -0.7161 C   0  0  0  0  0  0  0  0  0  0  0  0
    1.2610   -2.9696   -0.2878 C   0  0  0  0  0  0  0  0  0  0  0  0
    1.3813   -1.7934    0.4220 C   0  0  0  0  0  0  0  0  0  0  0  0
    0.3249   -0.9706    0.7332 C   0  0  0  0  0  0  0  0  0  0  0  0
    0.5352    0.2272    1.4545 N   0  0  0  0  0  0  0  0  0  0  0  0
    1.7827    0.7197    1.9396 C   0  0  0  0  0  0  0  0  0  0  0  0
    2.7673    1.0784    0.8872 C   0  0  0  0  0  0  0  0  0  0  0  0
    3.9748    0.6962    0.7012 N   0  0  0  0  0  0  0  0  0  0  0  0
    4.5828    1.2975   -0.4592 C   0  0  0  0  0  0  0  0  0  0  0  0
    3.3897    1.7960   -1.2385 C   0  0  0  0  0  0  0  0  0  0  0  0
    2.4260    2.0209   -0.1548 N   0  0  0  0  0  0  0  0  0  0  0  0
   -2.9909    1.7065   -2.8177 H   0  0  0  0  0  0  0  0  0  0  0  0
   -1.7112    1.4982   -1.5816 H   0  0  0  0  0  0  0  0  0  0  0  0
   -1.5742    0.6273   -3.1477 H   0  0  0  0  0  0  0  0  0  0  0  0
   -4.1456   -0.1548   -2.1166 H   0  0  0  0  0  0  0  0  0  0  0  0
   -2.6560   -1.1365   -2.1280 H   0  0  0  0  0  0  0  0  0  0  0  0
   -4.8129    1.2108   -0.0895 H   0  0  0  0  0  0  0  0  0  0  0  0
   -4.2382    1.1678    2.4731 H   0  0  0  0  0  0  0  0  0  0  0  0
   -2.0974   -0.2656    2.7837 H   0  0  0  0  0  0  0  0  0  0  0  0
   -2.0339   -2.9193   -0.7754 H   0  0  0  0  0  0  0  0  0  0  0  0
   -0.0758   -4.2801   -1.2740 H   0  0  0  0  0  0  0  0  0  0  0  0
    2.1374   -3.5905   -0.5103 H   0  0  0  0  0  0  0  0  0  0  0  0
    2.3610   -1.5223    0.7473 H   0  0  0  0  0  0  0  0  0  0  0  0
   -0.3204    0.8272    1.6493 H   0  0  0  0  0  0  0  0  0  0  0  0
    1.6395    1.5506    2.6347 H   0  0  0  0  0  0  0  0  0  0  0  0
    2.2396   -0.1184    2.5447 H   0  0  0  0  0  0  0  0  0  0  0  0
    5.1798    0.5562   -1.0041 H   0  0  0  0  0  0  0  0  0  0  0  0
    5.1494    2.1805   -0.1028 H   0  0  0  0  0  0  0  0  0  0  0  0
    3.5775    2.6828   -1.8438 H   0  0  0  0  0  0  0  0  0  0  0  0
    3.0413    0.9610   -1.8767 H   0  0  0  0  0  0  0  0  0  0  0  0
    1.6462    2.7179   -0.1290 H   0  0  0  0  0  0  0  0  0  0  0  0
  1  2  1  0
  2  3  1  0
  3  4  1  0
  4  5  2  0
  5  6  1  0
  6  7  2  0
  7  8  1  0
  8  9  2  0
  9 10  1  0
 10 11  2  0
 11 12  1  0
 12 13  2  0
 13 14  1  0
 14 15  1  0
 15 16  1  0
 16 17  2  0
 17 18  1  0
 18 19  1  0
 19 20  1  0
  7  3  1  0
 13  8  1  0
 20 16  1  0
  1 21  1  0
  1 22  1  0
  1 23  1  0
  2 24  1  0
  2 25  1  0
  4 26  1  0
  5 27  1  0
  6 28  1  0
  9 29  1  0
 10 30  1  0
 11 31  1  0
 12 32  1  0
 14 33  1  0
 15 34  1  0
 15 35  1  0
 18 36  1  0
 18 37  1  0
 19 38  1  0
 19 39  1  0
 20 40  1  0
M  END
>  <Ligand ID>  (1) 
LIG0004392

>  <Ligand>  (1) 
CHEMBL275902

>  <SMILES>  (1) 
CCn1cccc1c1ccccc1NCC1=NCCN1

>  <CID>  (1) 
9881853.0

>  <ChEMBL ID>  (1) 
nan

>  <InChiKey>  (1) 
RVBLRIXGADEXMC-UHFFFAOYSA-N

>  <InChi>  (1) 
InChI=1S/C16H20N4/c1-2-20-11-5-8-15(20)13-6-3-4-7-14(13)19-12-16-17-9-10-18-16/h3-8,11,19H,2,9-10,12H2,1H3,(H,17,18)

>  <IUPAC Name>  (1) 
N-(4,5-dihydro-1H-imidazol-2-ylmethyl)-2-(1-ethylpyrrol-2-yl)aniline

$$$$
