
     RDKit          3D

 27 26  0  0  0  0  0  0  0  0999 V2000
   -3.9590    0.6508    0.4709 O   0  0  0  0  0  0  0  0  0  0  0  0
   -3.5888   -0.1032   -0.6099 C   0  0  0  0  0  0  0  0  0  0  0  0
   -4.3375   -0.0099   -1.6467 O   0  0  0  0  0  0  0  0  0  0  0  0
   -2.4400   -0.9970   -0.7056 C   0  0  0  0  0  0  0  0  0  0  0  0
   -1.5234   -1.0386    0.4622 C   0  0  0  0  0  0  0  0  0  0  0  0
   -0.7243    0.4984    0.8877 P   0  0  0  0  0  0  0  0  0  0  0  0
   -0.2831    0.3849    2.3473 O   0  0  0  0  0  0  0  0  0  0  0  0
    0.7987    0.7475   -0.0884 C   0  0  0  0  0  0  0  0  0  0  0  0
    1.3560   -0.5894   -0.4733 C   0  0  0  0  0  0  0  0  0  0  0  0
    2.5993   -0.3665   -1.2666 C   0  0  0  0  0  0  0  0  0  0  0  0
    2.7286   -0.7773   -2.4865 N   0  0  0  0  0  0  0  0  0  0  0  0
    3.7365    0.3367   -0.6870 C   0  0  0  0  0  0  0  0  0  0  0  0
    4.7735    0.5138   -1.3759 O   0  0  0  0  0  0  0  0  0  0  0  0
    3.7523    0.8361    0.6057 O   0  0  0  0  0  0  0  0  0  0  0  0
   -1.6690    1.8616    0.7382 O   0  0  0  0  0  0  0  0  0  0  0  0
   -4.5248    1.4762    0.3164 H   0  0  0  0  0  0  0  0  0  0  0  0
   -1.8313   -0.8558   -1.6212 H   0  0  0  0  0  0  0  0  0  0  0  0
   -2.8609   -2.0373   -0.8131 H   0  0  0  0  0  0  0  0  0  0  0  0
   -1.9943   -1.4801    1.3716 H   0  0  0  0  0  0  0  0  0  0  0  0
   -0.7167   -1.7835    0.1984 H   0  0  0  0  0  0  0  0  0  0  0  0
    1.4809    1.3526    0.5353 H   0  0  0  0  0  0  0  0  0  0  0  0
    0.5616    1.3771   -0.9919 H   0  0  0  0  0  0  0  0  0  0  0  0
    1.5448   -1.1876    0.4212 H   0  0  0  0  0  0  0  0  0  0  0  0
    0.6506   -1.1152   -1.1485 H   0  0  0  0  0  0  0  0  0  0  0  0
    3.5853   -0.6305   -3.0512 H   0  0  0  0  0  0  0  0  0  0  0  0
    4.5787    0.8081    1.1969 H   0  0  0  0  0  0  0  0  0  0  0  0
   -1.6938    2.1282   -0.2310 H   0  0  0  0  0  0  0  0  0  0  0  0
  1  2  1  0
  2  3  2  0
  2  4  1  0
  4  5  1  0
  5  6  1  0
  6  7  2  0
  6  8  1  0
  8  9  1  0
  9 10  1  0
 10 11  2  3
 10 12  1  0
 12 13  2  0
 12 14  1  0
  6 15  1  0
  1 16  1  0
  4 17  1  0
  4 18  1  0
  5 19  1  0
  5 20  1  0
  8 21  1  0
  8 22  1  0
  9 23  1  0
  9 24  1  0
 11 25  1  0
 14 26  1  0
 15 27  1  0
M  END
>  <Ligand ID>  (1) 
LIG0000790

>  <Ligand>  (1) 
BDBM50314796

>  <SMILES>  (1) 
OC(=O)CCP(=O)(CCC(=N)C(=O)O)O

>  <CID>  (1) 
91937082.0

>  <ChEMBL ID>  (1) 
nan

>  <InChiKey>  (1) 
QOVGSZPMPTXZHL-UHFFFAOYSA-N

>  <InChi>  (1) 
InChI=1S/C7H12NO6P/c8-5(7(11)12)1-3-15(13,14)4-2-6(9)10/h8H,1-4H2,(H,9,10)(H,11,12)(H,13,14)

>  <IUPAC Name>  (1) 
4-[2-carboxyethyl(hydroxy)phosphoryl]-2-iminobutanoic acid

$$$$
