
     RDKit          3D

 50 54  0  0  0  0  0  0  0  0999 V2000
   -0.7378   -1.2024    3.1470 O   0  0  0  0  0  0  0  0  0  0  0  0
   -0.0655   -1.7975    2.2319 C   0  0  0  0  0  0  0  0  0  0  0  0
   -0.7982   -2.2105    1.1021 N   0  0  0  0  0  0  0  0  0  0  0  0
   -2.1868   -1.9866    0.9735 C   0  0  0  0  0  0  0  0  0  0  0  0
   -3.3936   -3.3414    1.5591 S   0  0  0  0  0  0  0  0  0  0  0  0
   -4.8587   -2.2833    1.0636 C   0  0  0  0  0  0  0  0  0  0  0  0
   -4.2529   -1.1242    0.5568 C   0  0  0  0  0  0  0  0  0  0  0  0
   -2.9750   -1.0888    0.5610 N   0  0  0  0  0  0  0  0  0  0  0  0
   -5.1177   -0.0211    0.0665 C   0  0  0  0  0  0  0  0  0  0  0  0
   -6.4853   -0.1187    0.0846 C   0  0  0  0  0  0  0  0  0  0  0  0
   -7.3183    0.8887   -0.3526 C   0  0  0  0  0  0  0  0  0  0  0  0
   -6.7612    2.0550   -0.8331 C   0  0  0  0  0  0  0  0  0  0  0  0
   -5.3784    2.1791   -0.8620 C   0  0  0  0  0  0  0  0  0  0  0  0
   -4.5501    1.1485   -0.4153 C   0  0  0  0  0  0  0  0  0  0  0  0
   -7.6727    3.1310   -1.2978 C   0  0  0  0  0  0  0  0  0  0  0  0
    1.3634   -1.9733    2.4759 C   0  0  0  0  0  0  0  0  0  0  0  0
    2.1795   -2.7080    1.0683 S   0  0  0  0  0  0  0  0  0  0  0  0
    2.3273   -1.6888   -0.3520 C   0  0  0  0  0  0  0  0  0  0  0  0
    1.4648   -1.5727   -1.3746 N   0  0  0  0  0  0  0  0  0  0  0  0
    1.8929   -0.7190   -2.2811 N   0  0  0  0  0  0  0  0  0  0  0  0
    3.0835   -0.2440   -1.8547 C   0  0  0  0  0  0  0  0  0  0  0  0
    3.3424   -0.8375   -0.6808 N   0  0  0  0  0  0  0  0  0  0  0  0
    4.5007   -0.4972   -0.0758 C   0  0  0  0  0  0  0  0  0  0  0  0
    4.8669   -1.0421    1.1317 C   0  0  0  0  0  0  0  0  0  0  0  0
    6.0530   -0.6975    1.7618 C   0  0  0  0  0  0  0  0  0  0  0  0
    6.8780    0.2159    1.1508 C   0  0  0  0  0  0  0  0  0  0  0  0
    6.5607    0.7930   -0.0584 C   0  0  0  0  0  0  0  0  0  0  0  0
    5.3713    0.4215   -0.6490 C   0  0  0  0  0  0  0  0  0  0  0  0
    5.0853    1.0253   -1.8663 C   0  0  0  0  0  0  0  0  0  0  0  0
    3.9023    0.6687   -2.4699 C   0  0  0  0  0  0  0  0  0  0  0  0
    6.0151    2.0075   -2.4824 C   0  0  0  0  0  0  0  0  0  0  0  0
   -0.3012   -2.7087    0.3406 H   0  0  0  0  0  0  0  0  0  0  0  0
   -5.8524   -2.5964    1.1861 H   0  0  0  0  0  0  0  0  0  0  0  0
   -6.9601   -1.0219    0.4538 H   0  0  0  0  0  0  0  0  0  0  0  0
   -8.3864    0.7291   -0.3039 H   0  0  0  0  0  0  0  0  0  0  0  0
   -4.9280    3.0798   -1.2332 H   0  0  0  0  0  0  0  0  0  0  0  0
   -3.4720    1.2781   -0.4520 H   0  0  0  0  0  0  0  0  0  0  0  0
   -8.5520    3.2453   -0.6184 H   0  0  0  0  0  0  0  0  0  0  0  0
   -8.0850    2.9544   -2.3058 H   0  0  0  0  0  0  0  0  0  0  0  0
   -7.1637    4.1374   -1.3174 H   0  0  0  0  0  0  0  0  0  0  0  0
    1.8451   -0.9579    2.6306 H   0  0  0  0  0  0  0  0  0  0  0  0
    1.5650   -2.5926    3.3879 H   0  0  0  0  0  0  0  0  0  0  0  0
    4.2586   -1.7601    1.6501 H   0  0  0  0  0  0  0  0  0  0  0  0
    6.3330   -1.1242    2.7057 H   0  0  0  0  0  0  0  0  0  0  0  0
    7.8011    0.4696    1.6631 H   0  0  0  0  0  0  0  0  0  0  0  0
    7.2323    1.5207   -0.5306 H   0  0  0  0  0  0  0  0  0  0  0  0
    3.6373    1.1145   -3.4211 H   0  0  0  0  0  0  0  0  0  0  0  0
    5.5202    2.4334   -3.3780 H   0  0  0  0  0  0  0  0  0  0  0  0
    6.9601    1.5513   -2.8327 H   0  0  0  0  0  0  0  0  0  0  0  0
    6.2131    2.8687   -1.7947 H   0  0  0  0  0  0  0  0  0  0  0  0
  1  2  2  0
  2  3  1  0
  3  4  1  0
  4  5  1  0
  5  6  1  0
  6  7  2  0
  7  8  1  0
  7  9  1  0
  9 10  2  0
 10 11  1  0
 11 12  2  0
 12 13  1  0
 13 14  2  0
 12 15  1  0
  2 16  1  0
 16 17  1  0
 17 18  1  0
 18 19  2  0
 19 20  1  0
 20 21  2  0
 21 22  1  0
 22 23  1  0
 23 24  2  0
 24 25  1  0
 25 26  2  0
 26 27  1  0
 27 28  2  0
 28 29  1  0
 29 30  2  0
 29 31  1  0
  8  4  2  0
 14  9  1  0
 22 18  1  0
 28 23  1  0
 30 21  1  0
  3 32  1  0
  6 33  1  0
 10 34  1  0
 11 35  1  0
 13 36  1  0
 14 37  1  0
 15 38  1  0
 15 39  1  0
 15 40  1  0
 16 41  1  0
 16 42  1  0
 24 43  1  0
 25 44  1  0
 26 45  1  0
 27 46  1  0
 30 47  1  0
 31 48  1  0
 31 49  1  0
 31 50  1  0
M  END
>  <Ligand ID>  (1) 
LIG0001723

>  <Ligand>  (1) 
MLS-0435531.0001

>  <SMILES>  (1) 
O=C(Nc1scc(n1)c1ccc(cc1)C)CSc1nnc2n1c1ccccc1c(c2)C

>  <CID>  (1) 
16253428.0

>  <ChEMBL ID>  (1) 
nan

>  <InChiKey>  (1) 
KSBLOCODMPFZJK-UHFFFAOYSA-N

>  <InChi>  (1) 
InChI=1S/C23H19N5OS2/c1-14-7-9-16(10-8-14)18-12-30-22(24-18)25-21(29)13-31-23-27-26-20-11-15(2)17-5-3-4-6-19(17)28(20)23/h3-12H,13H2,1-2H3,(H,24,25,29)

>  <IUPAC Name>  (1) 
N-[4-(4-methylphenyl)-1,3-thiazol-2-yl]-2-[(5-methyl-[1,2,4]triazolo[4,3-a]quinolin-1-yl)sulfanyl]acetamide

$$$$
