
     RDKit          3D

 56 60  0  0  0  0  0  0  0  0999 V2000
    8.8267    1.3437    0.1723 C   0  0  0  0  0  0  0  0  0  0  0  0
    8.4515    0.0172   -0.1620 O   0  0  0  0  0  0  0  0  0  0  0  0
    7.1165   -0.3596   -0.1661 C   0  0  0  0  0  0  0  0  0  0  0  0
    6.7264   -1.6503   -0.4893 C   0  0  0  0  0  0  0  0  0  0  0  0
    5.3653   -1.9575   -0.4725 C   0  0  0  0  0  0  0  0  0  0  0  0
    4.4329   -1.0011   -0.1426 C   0  0  0  0  0  0  0  0  0  0  0  0
    4.8063    0.2968    0.1837 C   0  0  0  0  0  0  0  0  0  0  0  0
    6.1520    0.5719    0.1592 C   0  0  0  0  0  0  0  0  0  0  0  0
    2.9462   -1.3267   -0.1195 C   0  0  0  0  0  0  0  0  0  0  0  0
    2.4214   -1.7598    1.2616 C   0  0  0  0  0  0  0  0  0  0  0  0
    2.5588   -2.7092    0.1421 C   0  0  0  0  0  0  0  0  0  0  0  0
    2.1537   -0.3106   -0.7929 C   0  0  0  0  0  0  0  0  0  0  0  0
    2.8521    0.5292   -1.5107 O   0  0  0  0  0  0  0  0  0  0  0  0
    0.7862   -0.0731   -0.8097 N   0  0  0  0  0  0  0  0  0  0  0  0
    0.3476    1.0926   -1.6255 C   0  0  0  0  0  0  0  0  0  0  0  0
   -0.8810    1.6828   -0.9179 C   0  0  0  0  0  0  0  0  0  0  0  0
   -2.0052    0.7242   -1.2035 C   0  0  0  0  0  0  0  0  0  0  0  0
   -1.5755   -0.6841   -0.9630 C   0  0  0  0  0  0  0  0  0  0  0  0
   -0.2754   -0.7856   -0.1595 C   0  0  0  0  0  0  0  0  0  0  0  0
   -3.2035    1.0594   -0.4621 N   0  0  0  0  0  0  0  0  0  0  0  0
   -4.3555    0.4172   -0.5529 N   0  0  0  0  0  0  0  0  0  0  0  0
   -5.2678    0.9769    0.2625 C   0  0  0  0  0  0  0  0  0  0  0  0
   -4.6792    1.9633    0.8560 O   0  0  0  0  0  0  0  0  0  0  0  0
   -3.4178    2.0386    0.4338 C   0  0  0  0  0  0  0  0  0  0  0  0
   -2.5704    2.8846    0.8112 O   0  0  0  0  0  0  0  0  0  0  0  0
   -6.6553    0.5633    0.4515 C   0  0  0  0  0  0  0  0  0  0  0  0
   -7.4543    1.2577    1.3348 C   0  0  0  0  0  0  0  0  0  0  0  0
   -8.7849    0.9037    1.5504 C   0  0  0  0  0  0  0  0  0  0  0  0
   -9.2720   -0.1770    0.8388 C   0  0  0  0  0  0  0  0  0  0  0  0
   -8.5104   -0.9001   -0.0540 C   0  0  0  0  0  0  0  0  0  0  0  0
   -7.2042   -0.5047   -0.2259 C   0  0  0  0  0  0  0  0  0  0  0  0
    8.4768    1.5506    1.2136 H   0  0  0  0  0  0  0  0  0  0  0  0
    9.9167    1.4596    0.1446 H   0  0  0  0  0  0  0  0  0  0  0  0
    8.2830    2.0219   -0.5064 H   0  0  0  0  0  0  0  0  0  0  0  0
    7.4669   -2.3872   -0.7452 H   0  0  0  0  0  0  0  0  0  0  0  0
    5.1019   -2.9544   -0.7274 H   0  0  0  0  0  0  0  0  0  0  0  0
    4.0463    1.0170    0.4365 H   0  0  0  0  0  0  0  0  0  0  0  0
    6.4728    1.5716    0.4081 H   0  0  0  0  0  0  0  0  0  0  0  0
    3.2098   -1.7823    2.0797 H   0  0  0  0  0  0  0  0  0  0  0  0
    1.4877   -1.3626    1.6454 H   0  0  0  0  0  0  0  0  0  0  0  0
    3.4222   -3.4358    0.2758 H   0  0  0  0  0  0  0  0  0  0  0  0
    1.7261   -3.2212   -0.3547 H   0  0  0  0  0  0  0  0  0  0  0  0
    1.1482    1.8202   -1.7644 H   0  0  0  0  0  0  0  0  0  0  0  0
    0.0047    0.7603   -2.6256 H   0  0  0  0  0  0  0  0  0  0  0  0
   -0.6398    1.7475    0.1561 H   0  0  0  0  0  0  0  0  0  0  0  0
   -1.0907    2.6506   -1.3695 H   0  0  0  0  0  0  0  0  0  0  0  0
   -2.2471    0.8036   -2.2901 H   0  0  0  0  0  0  0  0  0  0  0  0
   -1.4209   -1.2779   -1.8974 H   0  0  0  0  0  0  0  0  0  0  0  0
   -2.3327   -1.2321   -0.3740 H   0  0  0  0  0  0  0  0  0  0  0  0
   -0.4400   -0.2656    0.8214 H   0  0  0  0  0  0  0  0  0  0  0  0
   -0.1279   -1.8460    0.0107 H   0  0  0  0  0  0  0  0  0  0  0  0
   -7.0378    2.0976    1.8731 H   0  0  0  0  0  0  0  0  0  0  0  0
   -9.4192    1.4427    2.2418 H   0  0  0  0  0  0  0  0  0  0  0  0
  -10.2980   -0.4983    0.9646 H   0  0  0  0  0  0  0  0  0  0  0  0
   -8.9405   -1.7484   -0.5942 H   0  0  0  0  0  0  0  0  0  0  0  0
   -6.5999   -1.0554   -0.9152 H   0  0  0  0  0  0  0  0  0  0  0  0
  1  2  1  0
  2  3  1  0
  3  4  2  0
  4  5  1  0
  5  6  2  0
  6  7  1  0
  7  8  2  0
  6  9  1  0
  9 10  1  0
 10 11  1  0
  9 12  1  0
 12 13  2  0
 12 14  1  0
 14 15  1  0
 15 16  1  0
 16 17  1  0
 17 18  1  0
 18 19  1  0
 17 20  1  0
 20 21  1  0
 21 22  2  0
 22 23  1  0
 23 24  1  0
 24 25  2  0
 22 26  1  0
 26 27  2  0
 27 28  1  0
 28 29  2  0
 29 30  1  0
 30 31  2  0
  8  3  1  0
 11  9  1  0
 19 14  1  0
 24 20  1  0
 31 26  1  0
  1 32  1  0
  1 33  1  0
  1 34  1  0
  4 35  1  0
  5 36  1  0
  7 37  1  0
  8 38  1  0
 10 39  1  0
 10 40  1  0
 11 41  1  0
 11 42  1  0
 15 43  1  0
 15 44  1  0
 16 45  1  0
 16 46  1  0
 17 47  1  0
 18 48  1  0
 18 49  1  0
 19 50  1  0
 19 51  1  0
 27 52  1  0
 28 53  1  0
 29 54  1  0
 30 55  1  0
 31 56  1  0
M  END
>  <Ligand ID>  (1) 
LIG0004798

>  <Ligand>  (1) 
MLS-0367705.0001

>  <SMILES>  (1) 
COc1ccc(cc1)C1(CC1)C(=O)N1CCC(CC1)n1nc(oc1=O)c1ccccc1

>  <CID>  (1) 
23612550.0

>  <ChEMBL ID>  (1) 
nan

>  <InChiKey>  (1) 
OACFYNAMKUYTKD-UHFFFAOYSA-N

>  <InChi>  (1) 
InChI=1S/C24H25N3O4/c1-30-20-9-7-18(8-10-20)24(13-14-24)22(28)26-15-11-19(12-16-26)27-23(29)31-21(25-27)17-5-3-2-4-6-17/h2-10,19H,11-16H2,1H3

>  <IUPAC Name>  (1) 
3-[1-[1-(4-methoxyphenyl)cyclopropanecarbonyl]piperidin-4-yl]-5-phenyl-1,3,4-oxadiazol-2-one

$$$$
