
     RDKit          3D

 59 59  0  0  0  0  0  0  0  0999 V2000
    6.3300    1.9012    2.6420 O   0  0  0  0  0  0  0  0  0  0  0  0
    6.6407    2.5227    1.4399 C   0  0  0  0  0  0  0  0  0  0  0  0
    7.7288    3.1472    1.3122 O   0  0  0  0  0  0  0  0  0  0  0  0
    5.7124    2.4806    0.2584 C   0  0  0  0  0  0  0  0  0  0  0  0
    4.5688    1.7499    0.5770 O   0  0  0  0  0  0  0  0  0  0  0  0
    3.5208    1.5325   -0.3132 C   0  0  0  0  0  0  0  0  0  0  0  0
    3.5655    2.0418   -1.5788 C   0  0  0  0  0  0  0  0  0  0  0  0
    2.4917    1.7878   -2.4090 C   0  0  0  0  0  0  0  0  0  0  0  0
    1.4209    1.0477   -1.9665 C   0  0  0  0  0  0  0  0  0  0  0  0
    1.3585    0.5176   -0.6711 C   0  0  0  0  0  0  0  0  0  0  0  0
    2.4341    0.7822    0.1327 C   0  0  0  0  0  0  0  0  0  0  0  0
    0.1761   -0.2913   -0.2621 C   0  0  0  0  0  0  0  0  0  0  0  0
   -0.4414    0.1372    0.9524 N   0  0  0  0  0  0  0  0  0  0  0  0
   -1.7856    0.6119    0.9210 C   0  0  0  0  0  0  0  0  0  0  0  0
   -2.3845    1.0070    1.9830 O   0  0  0  0  0  0  0  0  0  0  0  0
   -2.5983    0.6908   -0.3207 C   0  0  0  0  0  0  0  0  0  0  0  0
   -3.9494    1.2455    0.0753 C   0  0  0  0  0  0  0  0  0  0  0  0
   -4.1793    2.6052    0.0336 C   0  0  0  0  0  0  0  0  0  0  0  0
   -5.4442    3.0622    0.4158 C   0  0  0  0  0  0  0  0  0  0  0  0
   -6.4376    2.1845    0.8238 C   0  0  0  0  0  0  0  0  0  0  0  0
   -6.2082    0.8226    0.8660 C   0  0  0  0  0  0  0  0  0  0  0  0
   -4.9620    0.3716    0.4893 C   0  0  0  0  0  0  0  0  0  0  0  0
   -7.4297   -0.3252    1.3739 Cl  0  0  0  0  0  0  0  0  0  0  0  0
   -8.0346    2.7809    1.3059 Cl  0  0  0  0  0  0  0  0  0  0  0  0
    0.1916    0.1150    2.2654 C   0  0  0  0  0  0  0  0  0  0  0  0
    0.6358   -1.7315   -0.2010 C   0  0  0  0  0  0  0  0  0  0  0  0
   -0.3812   -2.6686    0.1671 N   0  0  0  0  0  0  0  0  0  0  0  0
    0.1341   -4.0226    0.3546 C   0  0  0  0  0  0  0  0  0  0  0  0
    0.4258   -4.4585   -1.0572 C   0  0  0  0  0  0  0  0  0  0  0  0
   -0.8389   -4.0168   -1.7583 C   0  0  0  0  0  0  0  0  0  0  0  0
   -1.3439   -2.8574   -0.9232 C   0  0  0  0  0  0  0  0  0  0  0  0
    0.0000    0.0000    0.0000 Cl  0  0  0  0  0  0  0  0  0  0  0  0
    0.0000    0.0000    0.0000 H   0  0  0  0  0 15  0  0  0  0  0  0
    7.0919    1.3949    3.1134 H   0  0  0  0  0  0  0  0  0  0  0  0
    5.4110    3.5280    0.0642 H   0  0  0  0  0  0  0  0  0  0  0  0
    6.2693    2.0351   -0.5894 H   0  0  0  0  0  0  0  0  0  0  0  0
    4.3886    2.6188   -1.9381 H   0  0  0  0  0  0  0  0  0  0  0  0
    2.4907    2.1766   -3.4236 H   0  0  0  0  0  0  0  0  0  0  0  0
    0.6009    0.8834   -2.6784 H   0  0  0  0  0  0  0  0  0  0  0  0
    2.4806    0.4127    1.1352 H   0  0  0  0  0  0  0  0  0  0  0  0
   -0.5634   -0.1966   -1.0744 H   0  0  0  0  0  0  0  0  0  0  0  0
   -2.8314   -0.3176   -0.7120 H   0  0  0  0  0  0  0  0  0  0  0  0
   -2.1803    1.3583   -1.0839 H   0  0  0  0  0  0  0  0  0  0  0  0
   -3.4092    3.2996   -0.2844 H   0  0  0  0  0  0  0  0  0  0  0  0
   -5.6333    4.1258    0.3861 H   0  0  0  0  0  0  0  0  0  0  0  0
   -4.7766   -0.6816    0.5187 H   0  0  0  0  0  0  0  0  0  0  0  0
    0.6986    1.0470    2.5353 H   0  0  0  0  0  0  0  0  0  0  0  0
   -0.6003   -0.0249    3.0657 H   0  0  0  0  0  0  0  0  0  0  0  0
    0.8753   -0.7268    2.4199 H   0  0  0  0  0  0  0  0  0  0  0  0
    0.9690   -1.9743   -1.2536 H   0  0  0  0  0  0  0  0  0  0  0  0
    1.4921   -1.8870    0.4544 H   0  0  0  0  0  0  0  0  0  0  0  0
   -0.7237   -4.6216    0.7139 H   0  0  0  0  0  0  0  0  0  0  0  0
    1.0204   -4.0365    1.0094 H   0  0  0  0  0  0  0  0  0  0  0  0
    1.2855   -3.9593   -1.5208 H   0  0  0  0  0  0  0  0  0  0  0  0
    0.5758   -5.5575   -1.1356 H   0  0  0  0  0  0  0  0  0  0  0  0
   -0.6405   -3.6990   -2.8185 H   0  0  0  0  0  0  0  0  0  0  0  0
   -1.5367   -4.8609   -1.7760 H   0  0  0  0  0  0  0  0  0  0  0  0
   -1.3759   -1.9631   -1.5785 H   0  0  0  0  0  0  0  0  0  0  0  0
   -2.2951   -3.1471   -0.4770 H   0  0  0  0  0  0  0  0  0  0  0  0
  1  2  1  0
  2  3  2  0
  2  4  1  0
  4  5  1  0
  5  6  1  0
  6  7  2  0
  7  8  1  0
  8  9  2  0
  9 10  1  0
 10 11  2  0
 10 12  1  0
 12 13  1  0
 13 14  1  0
 14 15  2  0
 14 16  1  0
 16 17  1  0
 17 18  2  0
 18 19  1  0
 19 20  2  0
 20 21  1  0
 21 22  2  0
 21 23  1  0
 20 24  1  0
 13 25  1  0
 12 26  1  0
 26 27  1  0
 27 28  1  0
 28 29  1  0
 29 30  1  0
 30 31  1  0
 11  6  1  0
 22 17  1  0
 31 27  1  0
  1 34  1  0
  4 35  1  0
  4 36  1  0
  7 37  1  0
  8 38  1  0
  9 39  1  0
 11 40  1  0
 12 41  1  0
 16 42  1  0
 16 43  1  0
 18 44  1  0
 19 45  1  0
 22 46  1  0
 25 47  1  0
 25 48  1  0
 25 49  1  0
 26 50  1  0
 26 51  1  0
 28 52  1  0
 28 53  1  0
 29 54  1  0
 29 55  1  0
 30 56  1  0
 30 57  1  0
 31 58  1  0
 31 59  1  0
M  CHG  2  32  -1  33   1
M  END
>  <Ligand ID>  (1) 
LIG0002110

>  <Ligand>  (1) 
CID 57525172

>  <SMILES>  (1) 
OC(=O)COc1cccc(c1)C(N(C(=O)Cc1ccc(c(c1)Cl)Cl)C)CN1CCCC1.[Cl-].[H+]

>  <CID>  (1) 
57525172.0

>  <ChEMBL ID>  (1) 
nan

>  <InChiKey>  (1) 
FNDGLVOYAQNQPE-UHFFFAOYSA-N

>  <InChi>  (1) 
InChI=1S/C23H26Cl2N2O4.ClH/c1-26(22(28)12-16-7-8-19(24)20(25)11-16)21(14-27-9-2-3-10-27)17-5-4-6-18(13-17)31-15-23(29)30;/h4-8,11,13,21H,2-3,9-10,12,14-15H2,1H3,(H,29,30);1H

>  <IUPAC Name>  (1) 
2-[3-[1-[[2-(3,4-dichlorophenyl)acetyl]-methylamino]-2-pyrrolidin-1-ylethyl]phenoxy]acetic acid;hydron;chloride

$$$$
