
     RDKit          3D

 61 65  0  0  0  0  0  0  0  0999 V2000
   -7.9400    4.2796    0.1968 C   0  0  0  0  0  0  0  0  0  0  0  0
   -6.8984    3.2233    0.2080 C   0  0  0  0  0  0  0  0  0  0  0  0
   -7.2165    1.8922   -0.0063 C   0  0  0  0  0  0  0  0  0  0  0  0
   -6.2444    0.9151   -0.0063 C   0  0  0  0  0  0  0  0  0  0  0  0
   -4.8886    1.2141    0.2097 C   0  0  0  0  0  0  0  0  0  0  0  0
   -4.5959    2.5244    0.4225 C   0  0  0  0  0  0  0  0  0  0  0  0
   -5.5887    3.5217    0.4203 C   0  0  0  0  0  0  0  0  0  0  0  0
   -3.2277    2.9805    0.7231 C   0  0  0  0  0  0  0  0  0  0  0  0
   -3.9822    0.0982    0.1836 C   0  0  0  0  0  0  0  0  0  0  0  0
   -4.5337   -1.1446    0.3349 N   0  0  0  0  0  0  0  0  0  0  0  0
   -3.8368   -2.2832    0.2733 C   0  0  0  0  0  0  0  0  0  0  0  0
   -4.5307   -3.4626    0.4343 C   0  0  0  0  0  0  0  0  0  0  0  0
   -3.8089   -4.6312    0.3588 C   0  0  0  0  0  0  0  0  0  0  0  0
   -2.4488   -4.6364    0.1317 C   0  0  0  0  0  0  0  0  0  0  0  0
   -1.7575   -3.4546   -0.0284 C   0  0  0  0  0  0  0  0  0  0  0  0
   -2.4915   -2.2763    0.0485 C   0  0  0  0  0  0  0  0  0  0  0  0
   -1.8554   -1.0450   -0.1152 C   0  0  0  0  0  0  0  0  0  0  0  0
   -2.6351    0.1108   -0.0407 C   0  0  0  0  0  0  0  0  0  0  0  0
   -0.4479   -1.0598   -0.3601 C   0  0  0  0  0  0  0  0  0  0  0  0
   -0.0733   -1.5127   -1.4999 O   0  0  0  0  0  0  0  0  0  0  0  0
    0.5888   -0.6415    0.4971 N   0  0  0  0  0  0  0  0  0  0  0  0
    1.9219   -0.7776   -0.0053 C   0  0  0  0  0  0  0  0  0  0  0  0
    2.6191    0.2130   -0.6369 C   0  0  0  0  0  0  0  0  0  0  0  0
    3.8998   -0.0620   -1.1404 C   0  0  0  0  0  0  0  0  0  0  0  0
    4.4700   -1.3048   -1.0130 C   0  0  0  0  0  0  0  0  0  0  0  0
    3.7229   -2.2905   -0.3571 C   0  0  0  0  0  0  0  0  0  0  0  0
    2.4668   -2.0560    0.1475 C   0  0  0  0  0  0  0  0  0  0  0  0
    6.0119   -1.7767   -1.6269 S   0  0  0  0  0  0  0  0  0  0  0  0
    6.4135   -0.8783   -2.7769 O   0  0  0  0  0  0  0  0  0  0  0  0
    5.8621   -3.1561   -2.2574 O   0  0  0  0  0  0  0  0  0  0  0  0
    7.2817   -1.7762   -0.4933 N   0  0  0  0  0  0  0  0  0  0  0  0
    7.7735   -0.6639    0.2159 C   0  0  0  0  0  0  0  0  0  0  0  0
    8.7990   -0.7267    1.1206 N   0  0  0  0  0  0  0  0  0  0  0  0
    9.0243    0.4450    1.5842 O   0  0  0  0  0  0  0  0  0  0  0  0
    8.2226    1.3388    1.0671 C   0  0  0  0  0  0  0  0  0  0  0  0
    7.4157    0.6648    0.1938 C   0  0  0  0  0  0  0  0  0  0  0  0
    8.2743    2.7771    1.4345 C   0  0  0  0  0  0  0  0  0  0  0  0
   -8.0450    4.7888    1.1808 H   0  0  0  0  0  0  0  0  0  0  0  0
   -7.6540    5.0178   -0.5886 H   0  0  0  0  0  0  0  0  0  0  0  0
   -8.9310    3.8114   -0.0849 H   0  0  0  0  0  0  0  0  0  0  0  0
   -8.2478    1.6293   -0.1730 H   0  0  0  0  0  0  0  0  0  0  0  0
   -6.5850   -0.0974   -0.1808 H   0  0  0  0  0  0  0  0  0  0  0  0
   -5.3219    4.5670    0.5929 H   0  0  0  0  0  0  0  0  0  0  0  0
   -2.7045    3.2016   -0.2067 H   0  0  0  0  0  0  0  0  0  0  0  0
   -3.2969    3.9965    1.2366 H   0  0  0  0  0  0  0  0  0  0  0  0
   -2.7006    2.3600    1.4772 H   0  0  0  0  0  0  0  0  0  0  0  0
   -5.5909   -3.5234    0.6147 H   0  0  0  0  0  0  0  0  0  0  0  0
   -4.3487   -5.5614    0.4830 H   0  0  0  0  0  0  0  0  0  0  0  0
   -1.9504   -5.6010    0.0825 H   0  0  0  0  0  0  0  0  0  0  0  0
   -0.6991   -3.4744   -0.2052 H   0  0  0  0  0  0  0  0  0  0  0  0
   -2.1005    1.0225   -0.2047 H   0  0  0  0  0  0  0  0  0  0  0  0
    0.3480   -0.2609    1.4243 H   0  0  0  0  0  0  0  0  0  0  0  0
    2.1696    1.1966   -0.7387 H   0  0  0  0  0  0  0  0  0  0  0  0
    4.4662    0.7108   -1.6445 H   0  0  0  0  0  0  0  0  0  0  0  0
    4.1402   -3.3015   -0.2290 H   0  0  0  0  0  0  0  0  0  0  0  0
    1.9183   -2.8499    0.6568 H   0  0  0  0  0  0  0  0  0  0  0  0
    7.7505   -2.7187   -0.3052 H   0  0  0  0  0  0  0  0  0  0  0  0
    6.6471    1.0849   -0.4019 H   0  0  0  0  0  0  0  0  0  0  0  0
    8.8014    2.9132    2.4147 H   0  0  0  0  0  0  0  0  0  0  0  0
    7.2560    3.1851    1.4389 H   0  0  0  0  0  0  0  0  0  0  0  0
    8.9134    3.3212    0.7074 H   0  0  0  0  0  0  0  0  0  0  0  0
  1  2  1  0
  2  3  2  0
  3  4  1  0
  4  5  2  0
  5  6  1  0
  6  7  2  0
  6  8  1  0
  5  9  1  0
  9 10  2  0
 10 11  1  0
 11 12  2  0
 12 13  1  0
 13 14  2  0
 14 15  1  0
 15 16  2  0
 16 17  1  0
 17 18  2  0
 17 19  1  0
 19 20  2  0
 19 21  1  0
 21 22  1  0
 22 23  2  0
 23 24  1  0
 24 25  2  0
 25 26  1  0
 26 27  2  0
 25 28  1  0
 28 29  2  0
 28 30  2  0
 28 31  1  0
 31 32  1  0
 32 33  2  0
 33 34  1  0
 34 35  1  0
 35 36  2  0
 35 37  1  0
  7  2  1  0
 18  9  1  0
 27 22  1  0
 36 32  1  0
 16 11  1  0
  1 38  1  0
  1 39  1  0
  1 40  1  0
  3 41  1  0
  4 42  1  0
  7 43  1  0
  8 44  1  0
  8 45  1  0
  8 46  1  0
 12 47  1  0
 13 48  1  0
 14 49  1  0
 15 50  1  0
 18 51  1  0
 21 52  1  0
 23 53  1  0
 24 54  1  0
 26 55  1  0
 27 56  1  0
 31 57  1  0
 36 58  1  0
 37 59  1  0
 37 60  1  0
 37 61  1  0
M  END
>  <Ligand ID>  (1) 
LIG0003713

>  <Ligand>  (1) 
MLS000540783

>  <SMILES>  (1) 
Cc1ccc(c(c1)C)c1nc2ccccc2c(c1)C(=O)Nc1ccc(cc1)S(=O)(=O)Nc1noc(c1)C

>  <CID>  (1) 
1011349.0

>  <ChEMBL ID>  (1) 
nan

>  <InChiKey>  (1) 
COFXHMAGNCARMW-UHFFFAOYSA-N

>  <InChi>  (1) 
InChI=1S/C28H24N4O4S/c1-17-8-13-22(18(2)14-17)26-16-24(23-6-4-5-7-25(23)30-26)28(33)29-20-9-11-21(12-10-20)37(34,35)32-27-15-19(3)36-31-27/h4-16H,1-3H3,(H,29,33)(H,31,32)

>  <IUPAC Name>  (1) 
2-(2,4-dimethylphenyl)-N-[4-[(5-methyl-1,2-oxazol-3-yl)sulfamoyl]phenyl]quinoline-4-carboxamide

$$$$
